# Generated by pormake.
# Topology dag, (6,3)-cn, num edge types: 1
# Building blocks:
#     Node 0, Type 0, BuildingBlock: MIDCAF_clean_sbu_0, # of connection points: 6
#     Node 1, Type 0, BuildingBlock: MIDCAF_clean_sbu_0, # of connection points: 6
#     Node 2, Type 0, BuildingBlock: MIDCAF_clean_sbu_0, # of connection points: 6
#     Node 3, Type 0, BuildingBlock: MIDCAF_clean_sbu_0, # of connection points: 6
#     Node 4, Type 1, BuildingBlock: BELTOD_clean_linker_0, # of connection points: 3
#     Node 5, Type 1, BuildingBlock: BELTOD_clean_linker_0, # of connection points: 3
#     Node 6, Type 1, BuildingBlock: BELTOD_clean_linker_0, # of connection points: 3
#     Node 7, Type 1, BuildingBlock: BELTOD_clean_linker_0, # of connection points: 3
#     Node 8, Type 1, BuildingBlock: BELTOD_clean_linker_0, # of connection points: 3
#     Node 9, Type 1, BuildingBlock: BELTOD_clean_linker_0, # of connection points: 3
#     Node 10, Type 1, BuildingBlock: BELTOD_clean_linker_0, # of connection points: 3
#     Node 11, Type 1, BuildingBlock: BELTOD_clean_linker_0, # of connection points: 3
#     Edge 12, Type (0, 1), BuildingBlock: MIFKUJ_clean_linker_0, # of connection points: 2
#     Edge 13, Type (0, 1), BuildingBlock: MIFKUJ_clean_linker_0, # of connection points: 2
#     Edge 14, Type (0, 1), BuildingBlock: MIFKUJ_clean_linker_0, # of connection points: 2
#     Edge 15, Type (0, 1), BuildingBlock: MIFKUJ_clean_linker_0, # of connection points: 2
#     Edge 16, Type (0, 1), BuildingBlock: MIFKUJ_clean_linker_0, # of connection points: 2
#     Edge 17, Type (0, 1), BuildingBlock: MIFKUJ_clean_linker_0, # of connection points: 2
#     Edge 18, Type (0, 1), BuildingBlock: MIFKUJ_clean_linker_0, # of connection points: 2
#     Edge 19, Type (0, 1), BuildingBlock: MIFKUJ_clean_linker_0, # of connection points: 2
#     Edge 20, Type (0, 1), BuildingBlock: MIFKUJ_clean_linker_0, # of connection points: 2
#     Edge 21, Type (0, 1), BuildingBlock: MIFKUJ_clean_linker_0, # of connection points: 2
#     Edge 22, Type (0, 1), BuildingBlock: MIFKUJ_clean_linker_0, # of connection points: 2
#     Edge 23, Type (0, 1), BuildingBlock: MIFKUJ_clean_linker_0, # of connection points: 2
#     Edge 24, Type (0, 1), BuildingBlock: MIFKUJ_clean_linker_0, # of connection points: 2
#     Edge 25, Type (0, 1), BuildingBlock: MIFKUJ_clean_linker_0, # of connection points: 2
#     Edge 26, Type (0, 1), BuildingBlock: MIFKUJ_clean_linker_0, # of connection points: 2
#     Edge 27, Type (0, 1), BuildingBlock: MIFKUJ_clean_linker_0, # of connection points: 2
#     Edge 28, Type (0, 1), BuildingBlock: MIFKUJ_clean_linker_0, # of connection points: 2
#     Edge 29, Type (0, 1), BuildingBlock: MIFKUJ_clean_linker_0, # of connection points: 2
#     Edge 30, Type (0, 1), BuildingBlock: MIFKUJ_clean_linker_0, # of connection points: 2
#     Edge 31, Type (0, 1), BuildingBlock: MIFKUJ_clean_linker_0, # of connection points: 2
#     Edge 32, Type (0, 1), BuildingBlock: MIFKUJ_clean_linker_0, # of connection points: 2
#     Edge 33, Type (0, 1), BuildingBlock: MIFKUJ_clean_linker_0, # of connection points: 2
#     Edge 34, Type (0, 1), BuildingBlock: MIFKUJ_clean_linker_0, # of connection points: 2
#     Edge 35, Type (0, 1), BuildingBlock: MIFKUJ_clean_linker_0, # of connection points: 2
# Relax obj value: 0.289
# Max RMSD: 0.186
# Mean RMSD: 0.174
data_MOF--net-dag--node1-MIDCAF_clean_sbu_0--node2-BELTOD_clean_linker_0--edge1-MIFKUJ_clean_linker_0
_symmetry_space_group_name_H-M    P1
_symmetry_Int_Tables_number       1
_symmetry_cell_setting            triclinic
loop_
_symmetry_equiv_pos_as_xyz
'x, y, z'
_cell_length_a     56.033093
_cell_length_b     58.624522
_cell_length_c     43.385852
_cell_angle_alpha  93.839144
_cell_angle_beta   90.317389
_cell_angle_gamma 90.163896
loop_
_atom_site_label
_atom_site_type_symbol
_atom_site_fract_x
_atom_site_fract_y
_atom_site_fract_z
_atom_type_partial_charge
Zn0 Zn 0.12677 0.84569 0.10115 0.0
Zn1 Zn 0.13278 0.85545 0.99845 0.0
Zn2 Zn 0.134 0.84738 0.04868 0.0
C3 C 0.14044 0.89528 0.02135 0.0
C4 C 0.11537 0.81284 0.00234 0.0
O5 O 0.14812 0.81295 0.05546 0.0
O6 O 0.13335 0.81284 0.10261 0.0
C7 C 0.16295 0.87768 0.09774 0.0
O8 O 0.15012 0.88105 0.03901 0.0
O9 O 0.12423 0.88833 0.00268 0.0
O10 O 0.10771 0.83117 0.9922 0.0
O11 O 0.13276 0.81393 0.02179 0.0
O12 O 0.15226 0.86669 0.11756 0.0
O13 O 0.15758 0.87419 0.06902 0.0
O14 O 0.09565 0.84946 0.05128 0.0
O15 O 0.09252 0.85444 0.10161 0.0
C16 C 0.08268 0.85255 0.07527 0.0
O17 O 0.15844 0.8216 0.02804 0.0
O18 O 0.16897 0.84642 0.99478 0.0
C19 C 0.14395 0.80262 0.08016 0.0
C20 C 0.17406 0.82903 0.00936 0.0
Zn21 Zn 0.62785 0.67592 0.43724 0.0
Zn22 Zn 0.65344 0.64611 0.54943 0.0
Zn23 Zn 0.6412 0.64405 0.49701 0.0
C24 C 0.64463 0.60074 0.53417 0.0
C25 C 0.61311 0.67434 0.54182 0.0
O26 O 0.664 0.67266 0.48258 0.0
O27 O 0.63308 0.69431 0.47853 0.0
C28 C 0.66735 0.64358 0.43441 0.0
O29 O 0.64559 0.60904 0.50774 0.0
O30 O 0.64374 0.6142 0.55816 0.0
O31 O 0.63133 0.67281 0.55891 0.0
O32 O 0.61152 0.66209 0.51645 0.0
O33 O 0.6516 0.65273 0.41828 0.0
O34 O 0.66865 0.64897 0.46354 0.0
O35 O 0.60265 0.64926 0.48444 0.0
O36 O 0.59647 0.66209 0.4378 0.0
C37 C 0.58859 0.65366 0.46183 0.0
O38 O 0.67841 0.65842 0.49763 0.0
O39 O 0.68872 0.65079 0.54508 0.0
C40 C 0.6554 0.6927 0.47866 0.0
C41 C 0.69453 0.65724 0.51898 0.0
Zn42 Zn 0.87008 0.14206 0.94551 0.0
Zn43 Zn 0.83781 0.14317 0.04639 0.0
Zn44 Zn 0.8558 0.14541 0.99874 0.0
C45 C 0.88602 0.13663 0.05591 0.0
C46 C 0.81268 0.11241 0.0087 0.0
O47 O 0.83769 0.17191 0.97436 0.0
O48 O 0.83539 0.14804 0.93304 0.0
C49 C 0.88302 0.18403 0.96746 0.0
O50 O 0.88632 0.14345 0.0286 0.0
O51 O 0.86632 0.13163 0.06789 0.0
O52 O 0.80996 0.12302 0.03471 0.0
O53 O 0.83061 0.11707 0.99191 0.0
O54 O 0.89141 0.16845 0.94927 0.0
O55 O 0.86446 0.17982 0.98355 0.0
O56 O 0.85002 0.11178 0.97255 0.0
O57 O 0.88413 0.11131 0.94797 0.0
C58 C 0.86656 0.10061 0.95777 0.0
O59 O 0.83874 0.17963 0.00581 0.0
O60 O 0.83183 0.17606 0.05526 0.0
C61 C 0.82751 0.16553 0.9484 0.0
C62 C 0.83206 0.18833 0.03247 0.0
Zn63 Zn 0.3668 0.34923 0.61315 0.0
Zn64 Zn 0.33427 0.32488 0.46926 0.0
Zn65 Zn 0.35127 0.35294 0.56366 0.0
C66 C 0.3806 0.34329 0.50654 0.0
C67 C 0.31572 0.36721 0.50185 0.0
O68 O 0.32853 0.33006 0.59053 0.0
O69 O 0.33716 0.34558 0.63677 0.0
C70 C 0.39866 0.32765 0.58073 0.0
O71 O 0.38427 0.35001 0.53489 0.0
O72 O 0.36001 0.33525 0.50055 0.0
O73 O 0.31444 0.35438 0.47665 0.0
O74 O 0.32886 0.36189 0.52461 0.0
O75 O 0.38849 0.3225 0.60516 0.0
O76 O 0.38901 0.34222 0.56369 0.0
O77 O 0.34784 0.38614 0.58934 0.0
O78 O 0.38031 0.38057 0.61606 0.0
C79 C 0.36426 0.394 0.60777 0.0
O80 O 0.32805 0.32296 0.56048 0.0
O81 O 0.34281 0.31888 0.51422 0.0
C82 C 0.32363 0.33317 0.61946 0.0
C83 C 0.32824 0.31211 0.53387 0.0
P84 P 0.09418 0.10255 0.37867 0.0
H85 H 0.11321 0.05742 0.3914 0.0
H86 H 0.13139 0.0269 0.35781 0.0
H87 H 0.12145 0.06778 0.27942 0.0
H88 H 0.10294 0.09736 0.3124 0.0
H89 H 0.10626 0.12615 0.43853 0.0
H90 H 0.13934 0.15184 0.45518 0.0
H91 H 0.16837 0.14537 0.36318 0.0
H92 H 0.13585 0.11938 0.34671 0.0
H93 H 0.04528 0.09185 0.36003 0.0
H94 H 0.09713 0.14441 0.34464 0.0
O95 O 0.08039 0.0923 0.40883 0.0
H96 H 0.02086 0.10475 0.31754 0.0
H97 H 0.07326 0.15665 0.30165 0.0
C98 C 0.10613 0.07939 0.3543 0.0
C99 C 0.11464 0.05953 0.36687 0.0
C100 C 0.12522 0.04225 0.34773 0.0
C101 C 0.12759 0.04479 0.31585 0.0
C102 C 0.11932 0.06493 0.30366 0.0
C103 C 0.10869 0.08197 0.32264 0.0
C104 C 0.11868 0.12074 0.39146 0.0
C105 C 0.11987 0.13004 0.42204 0.0
C106 C 0.13869 0.14463 0.43153 0.0
C107 C 0.15622 0.15033 0.41035 0.0
C108 C 0.15501 0.14106 0.3798 0.0
C109 C 0.13647 0.1262 0.37048 0.0
C110 C 0.073 0.11716 0.35567 0.0
C111 C 0.05101 0.10664 0.3483 0.0
C112 C 0.03716 0.11391 0.32394 0.0
C113 C 0.04541 0.13149 0.30627 0.0
C114 C 0.06666 0.14295 0.3149 0.0
C115 C 0.08025 0.13598 0.33962 0.0
P116 P 0.43664 0.64941 0.87403 0.0
H117 H 0.48456 0.66984 0.88353 0.0
H118 H 0.51344 0.68451 0.84684 0.0
H119 H 0.46223 0.67222 0.77295 0.0
H120 H 0.43376 0.65762 0.809 0.0
H121 H 0.42174 0.6681 0.93528 0.0
H122 H 0.39179 0.69653 0.95213 0.0
H123 H 0.37387 0.70598 0.85692 0.0
H124 H 0.40399 0.67782 0.84017 0.0
H125 H 0.45834 0.60747 0.84894 0.0
H126 H 0.38825 0.63773 0.84914 0.0
O127 O 0.45136 0.64037 0.90444 0.0
H128 H 0.44456 0.57704 0.81173 0.0
H129 H 0.3745 0.60755 0.81168 0.0
C130 C 0.45719 0.66235 0.84882 0.0
C131 C 0.47953 0.67054 0.85948 0.0
C132 C 0.49591 0.67898 0.83871 0.0
C133 C 0.48984 0.67932 0.80734 0.0
C134 C 0.46715 0.67204 0.79713 0.0
C135 C 0.45093 0.6637 0.81772 0.0
C136 C 0.41486 0.67056 0.88647 0.0
C137 C 0.41146 0.67634 0.91801 0.0
C138 C 0.39449 0.69271 0.92762 0.0
C139 C 0.3805 0.70337 0.9058 0.0
C140 C 0.3843 0.69788 0.87421 0.0
C141 C 0.4015 0.68178 0.86464 0.0
C142 C 0.42439 0.6249 0.85191 0.0
C143 C 0.43986 0.60733 0.84146 0.0
C144 C 0.43199 0.59 0.82008 0.0
C145 C 0.4085 0.59004 0.80853 0.0
C146 C 0.39282 0.60729 0.81977 0.0
C147 C 0.40066 0.62453 0.84138 0.0
P148 P 0.76965 0.86787 0.18915 0.0
H149 H 0.74283 0.90978 0.20349 0.0
H150 H 0.72751 0.93794 0.16928 0.0
H151 H 0.73889 0.89043 0.09055 0.0
H152 H 0.75385 0.8621 0.12478 0.0
H153 H 0.75732 0.85853 0.25191 0.0
H154 H 0.73157 0.83011 0.27316 0.0
H155 H 0.71773 0.79961 0.18143 0.0
H156 H 0.74375 0.82854 0.15987 0.0
H157 H 0.79793 0.88902 0.14285 0.0
H158 H 0.79746 0.8253 0.18718 0.0
O159 O 0.78068 0.88488 0.21822 0.0
H160 H 0.83429 0.87752 0.11539 0.0
H161 H 0.83431 0.81387 0.16003 0.0
C162 C 0.7504 0.8844 0.16633 0.0
C163 C 0.74111 0.90507 0.17902 0.0
C164 C 0.73205 0.921 0.15958 0.0
C165 C 0.73224 0.91621 0.12749 0.0
C166 C 0.73841 0.89427 0.11532 0.0
C167 C 0.74724 0.87827 0.1348 0.0
C168 C 0.75238 0.84558 0.20436 0.0
C169 C 0.74884 0.8458 0.23625 0.0
C170 C 0.73396 0.8297 0.24835 0.0
C171 C 0.72237 0.81312 0.22875 0.0
C172 C 0.72634 0.81247 0.19681 0.0
C173 C 0.74119 0.82883 0.18461 0.0
C174 C 0.79462 0.85772 0.16637 0.0
C175 C 0.8053 0.87228 0.14607 0.0
C176 C 0.82607 0.86572 0.13036 0.0
C177 C 0.8369 0.84472 0.13536 0.0
C178 C 0.82617 0.83009 0.15567 0.0
C179 C 0.80512 0.83656 0.17108 0.0
P180 P 0.71862 0.29136 0.59521 0.0
H181 H 0.74557 0.32487 0.56193 0.0
H182 H 0.73968 0.36572 0.55577 0.0
H183 H 0.67919 0.36549 0.61713 0.0
H184 H 0.68548 0.32498 0.62361 0.0
H185 H 0.74574 0.25101 0.60885 0.0
H186 H 0.75758 0.23619 0.65818 0.0
H187 H 0.73542 0.29942 0.70604 0.0
H188 H 0.72434 0.31447 0.65678 0.0
H189 H 0.68176 0.28199 0.54846 0.0
H190 H 0.68953 0.27649 0.64682 0.0
O191 O 0.73219 0.27995 0.56371 0.0
H192 H 0.63895 0.27387 0.55265 0.0
H193 H 0.64704 0.26905 0.65088 0.0
C194 C 0.71576 0.32182 0.59284 0.0
C195 C 0.73117 0.33369 0.57421 0.0
C196 C 0.7277 0.357 0.5706 0.0
C197 C 0.70883 0.36885 0.58576 0.0
C198 C 0.694 0.35699 0.60531 0.0
C199 C 0.69747 0.33372 0.60884 0.0
C200 C 0.73453 0.28396 0.62911 0.0
C201 C 0.74437 0.26204 0.62981 0.0
C202 C 0.75089 0.2535 0.65795 0.0
C203 C 0.74706 0.26664 0.68569 0.0
C204 C 0.73833 0.28899 0.68483 0.0
C205 C 0.7323 0.29768 0.65667 0.0
C206 C 0.68898 0.27971 0.59716 0.0
C207 C 0.67451 0.27831 0.57068 0.0
C208 C 0.65015 0.27365 0.57307 0.0
C209 C 0.64003 0.27072 0.60207 0.0
C210 C 0.65465 0.27105 0.62831 0.0
C211 C 0.679 0.27538 0.62587 0.0
P212 P 0.59594 0.38833 0.18578 0.0
H213 H 0.60671 0.43659 0.17719 0.0
H214 H 0.62493 0.46683 0.21121 0.0
H215 H 0.63472 0.41881 0.28161 0.0
H216 H 0.61607 0.38898 0.24787 0.0
H217 H 0.59257 0.34745 0.14384 0.0
H218 H 0.6225 0.3201 0.1231 0.0
H219 H 0.67734 0.35745 0.17572 0.0
H220 H 0.64778 0.38447 0.19605 0.0
H221 H 0.54682 0.40034 0.20023 0.0
H222 H 0.59768 0.34948 0.22487 0.0
O223 O 0.58247 0.39936 0.15579 0.0
H224 H 0.51988 0.38863 0.24041 0.0
H225 H 0.57083 0.33775 0.26528 0.0
C226 C 0.60964 0.41069 0.21023 0.0
C227 C 0.61269 0.43264 0.19999 0.0
C228 C 0.6233 0.44984 0.21937 0.0
C229 C 0.63117 0.44524 0.24921 0.0
C230 C 0.62844 0.42304 0.25905 0.0
C231 C 0.61776 0.40596 0.23974 0.0
C232 C 0.61786 0.36795 0.17154 0.0
C233 C 0.61105 0.34963 0.15094 0.0
C234 C 0.62812 0.33409 0.13909 0.0
C235 C 0.65223 0.33661 0.14793 0.0
C236 C 0.65886 0.35485 0.16888 0.0
C237 C 0.64186 0.37041 0.18047 0.0
C238 C 0.57401 0.3755 0.20923 0.0
C239 C 0.55184 0.38614 0.21362 0.0
C240 C 0.5365 0.37949 0.23666 0.0
C241 C 0.54333 0.36233 0.25602 0.0
C242 C 0.56521 0.35111 0.2508 0.0
C243 C 0.58042 0.35763 0.22751 0.0
P244 P 0.20912 0.20368 0.96223 0.0
H245 H 0.23672 0.17135 0.99731 0.0
H246 H 0.23305 0.12994 0.00124 0.0
H247 H 0.17801 0.12731 0.93094 0.0
H248 H 0.18155 0.16843 0.9274 0.0
H249 H 0.223 0.24903 0.94583 0.0
H250 H 0.23362 0.26421 0.89643 0.0
H251 H 0.23209 0.19577 0.8529 0.0
H252 H 0.2218 0.18072 0.90207 0.0
H253 H 0.17613 0.21024 0.01368 0.0
H254 H 0.17381 0.21313 0.91463 0.0
O255 O 0.22377 0.21533 0.993 0.0
H256 H 0.13272 0.21397 0.01557 0.0
H257 H 0.13056 0.21607 0.91616 0.0
C258 C 0.20918 0.17299 0.96238 0.0
C259 C 0.22406 0.16179 0.98255 0.0
C260 C 0.22202 0.13814 0.98467 0.0
C261 C 0.20502 0.12545 0.96666 0.0
C262 C 0.19094 0.13668 0.94554 0.0
C263 C 0.193 0.16021 0.94345 0.0
C264 C 0.22174 0.21377 0.92769 0.0
C265 C 0.22552 0.23727 0.92578 0.0
C266 C 0.23147 0.24592 0.89759 0.0
C267 C 0.23339 0.23115 0.87085 0.0
C268 C 0.23035 0.20754 0.87309 0.0
C269 C 0.22462 0.19891 0.90131 0.0
C270 C 0.17824 0.21182 0.96415 0.0
C271 C 0.16633 0.21221 0.99244 0.0
C272 C 0.14149 0.21399 0.99339 0.0
C273 C 0.12812 0.21505 0.96595 0.0
C274 C 0.14027 0.21556 0.93775 0.0
C275 C 0.1651 0.21392 0.93687 0.0
P276 P 0.27185 0.62012 0.35759 0.0
H277 H 0.25219 0.57412 0.34681 0.0
H278 H 0.23543 0.54785 0.3819 0.0
H279 H 0.23507 0.60175 0.45501 0.0
H280 H 0.25242 0.62801 0.41951 0.0
H281 H 0.28667 0.65857 0.3239 0.0
H282 H 0.26412 0.68565 0.29507 0.0
H283 H 0.19829 0.65939 0.3302 0.0
H284 H 0.22097 0.63272 0.35985 0.0
H285 H 0.30919 0.59298 0.38257 0.0
H286 H 0.29167 0.66463 0.38266 0.0
O287 O 0.2808 0.60435 0.32635 0.0
H288 H 0.34598 0.60266 0.41123 0.0
H289 H 0.32899 0.67438 0.41026 0.0
C290 C 0.25391 0.6028 0.38086 0.0
C291 C 0.24794 0.58048 0.37013 0.0
C292 C 0.23806 0.56552 0.3902 0.0
C293 C 0.23402 0.57273 0.42133 0.0
C294 C 0.23817 0.59572 0.43123 0.0
C295 C 0.24807 0.61069 0.41105 0.0
C296 C 0.25555 0.6438 0.34419 0.0
C297 C 0.26746 0.65926 0.32645 0.0
C298 C 0.25457 0.67462 0.30988 0.0
C299 C 0.22951 0.67433 0.3102 0.0
C300 C 0.21761 0.66003 0.32979 0.0
C301 C 0.23059 0.64471 0.34661 0.0
C302 C 0.29802 0.62809 0.37986 0.0
C303 C 0.31328 0.61079 0.38875 0.0
C304 C 0.33415 0.61629 0.40526 0.0
C305 C 0.3402 0.63923 0.4128 0.0
C306 C 0.32467 0.65657 0.40448 0.0
C307 C 0.30348 0.651 0.38849 0.0
P308 P 0.89816 0.82138 0.75202 0.0
H309 H 0.85837 0.85283 0.75602 0.0
H310 H 0.85609 0.89407 0.76763 0.0
H311 H 0.93298 0.8987 0.7626 0.0
H312 H 0.93519 0.85765 0.75278 0.0
H313 H 0.8745 0.77808 0.73843 0.0
H314 H 0.85862 0.75922 0.69094 0.0
H315 H 0.87934 0.8173 0.64072 0.0
H316 H 0.89505 0.83634 0.68886 0.0
H317 H 0.92215 0.79657 0.79912 0.0
H318 H 0.94011 0.82362 0.71203 0.0
O319 O 0.88217 0.81287 0.78154 0.0
H320 H 0.96382 0.78665 0.80686 0.0
H321 H 0.98252 0.81477 0.72094 0.0
C322 C 0.89689 0.85205 0.75379 0.0
C323 C 0.87469 0.86282 0.75688 0.0
C324 C 0.87342 0.88644 0.76323 0.0
C325 C 0.89441 0.89966 0.76633 0.0
C326 C 0.91652 0.88895 0.76089 0.0
C327 C 0.91777 0.86533 0.75499 0.0
C328 C 0.88548 0.80869 0.7171 0.0
C329 C 0.87548 0.78684 0.71727 0.0
C330 C 0.8667 0.77598 0.69005 0.0
C331 C 0.86805 0.78672 0.66211 0.0
C332 C 0.87807 0.80872 0.66199 0.0
C333 C 0.88695 0.81958 0.68938 0.0
C334 C 0.92816 0.81117 0.75526 0.0
C335 C 0.93498 0.80019 0.78152 0.0
C336 C 0.95876 0.79451 0.78597 0.0
C337 C 0.97612 0.80014 0.7646 0.0
C338 C 0.96928 0.81027 0.7376 0.0
C339 C 0.94521 0.81532 0.73263 0.0
H340 H 0.19963 0.8768 0.13816 0.0
H341 H 0.20921 0.90854 0.17555 0.0
H342 H 0.16692 0.9537 0.12303 0.0
H343 H 0.15735 0.92201 0.08577 0.0
H344 H 0.2009 0.97746 0.16024 0.0
H345 H 0.13747 0.923 0.16723 0.0
H346 H 0.1191 0.88474 0.16725 0.0
H347 H 0.16266 0.86938 0.24487 0.0
H348 H 0.18151 0.90755 0.24505 0.0
H349 H 0.11336 0.03039 0.25763 0.0
H350 H 0.13364 0.00377 0.22112 0.0
H351 H 0.18662 0.99091 0.29017 0.0
H352 H 0.16703 0.01859 0.32679 0.0
H353 H 0.15678 0.95094 0.25025 0.0
H354 H 0.21095 0.01543 0.246 0.0
H355 H 0.21974 0.05641 0.24246 0.0
H356 H 0.18316 0.05536 0.15515 0.0
H357 H 0.17381 0.01446 0.15841 0.0
C358 C 0.1937 0.89384 0.13359 0.0
C359 C 0.17772 0.89707 0.10927 0.0
C360 C 0.19908 0.91192 0.15502 0.0
C361 C 0.1882 0.93322 0.15243 0.0
C362 C 0.17544 0.93734 0.12543 0.0
C363 C 0.17013 0.91923 0.1039 0.0
C364 C 0.18472 0.94865 0.18035 0.0
C365 C 0.19162 0.97164 0.18014 0.0
C366 C 0.17214 0.94105 0.20606 0.0
C367 C 0.16121 0.91794 0.20579 0.0
C368 C 0.14334 0.91136 0.18406 0.0
C369 C 0.13278 0.88973 0.1841 0.0
C370 C 0.13981 0.87458 0.20594 0.0
C371 C 0.15733 0.88109 0.22787 0.0
C372 C 0.16796 0.90272 0.22791 0.0
C373 C 0.1295 0.02218 0.26504 0.0
C374 C 0.13879 0.02689 0.29498 0.0
C375 C 0.14099 0.00695 0.24417 0.0
C376 C 0.16177 0.99585 0.25292 0.0
C377 C 0.1707 -0.00036 0.28307 0.0
C378 C 0.15936 0.01523 0.30397 0.0
C379 C 0.17325 0.97963 0.23033 0.0
C380 C 0.16727 0.95652 0.23116 0.0
C381 C 0.18574 0.98735 0.20475 0.0
C382 C 0.19158 0.01189 0.20255 0.0
C383 C 0.20461 0.02398 0.22617 0.0
C384 C 0.20973 0.04719 0.22419 0.0
C385 C 0.20198 0.05849 0.19862 0.0
C386 C 0.18915 0.04659 0.17494 0.0
C387 C 0.18397 0.02338 0.17682 0.0
H388 H 0.20595 0.07646 0.19714 0.0
H389 H 0.1316 0.85785 0.20595 0.0
H390 H 0.5736 0.65258 0.55679 0.0
H391 H 0.54788 0.66438 0.59915 0.0
H392 H 0.58033 0.7315 0.60457 0.0
H393 H 0.60744 0.71879 0.56271 0.0
H394 H 0.58543 0.71457 0.65597 0.0
H395 H 0.51425 0.72164 0.59465 0.0
H396 H 0.4862 0.70991 0.55251 0.0
H397 H 0.47448 0.64577 0.59238 0.0
H398 H 0.50205 0.65731 0.63514 0.0
H399 H 0.505 0.72175 0.79376 0.0
H400 H 0.52527 0.73096 0.74578 0.0
H401 H 0.53201 0.65897 0.71979 0.0
H402 H 0.5122 0.64982 0.76756 0.0
H403 H 0.50312 0.68994 0.67904 0.0
H404 H 0.57878 0.67827 0.73106 0.0
H405 H 0.60932 0.68615 0.77153 0.0
H406 H 0.61433 0.75579 0.74719 0.0
H407 H 0.58352 0.74837 0.7068 0.0
C408 C 0.57408 0.67033 0.56544 0.0
C409 C 0.59202 0.68495 0.5561 0.0
C410 C 0.55935 0.67715 0.58999 0.0
C411 C 0.56182 0.69902 0.60507 0.0
C412 C 0.57802 0.71457 0.59331 0.0
C413 C 0.5933 0.70745 0.56921 0.0
C414 C 0.55145 0.70345 0.6363 0.0
C415 C 0.56712 0.71002 0.66083 0.0
C416 C 0.52778 0.69692 0.64295 0.0
C417 C 0.51022 0.69039 0.61811 0.0
C418 C 0.50561 0.70508 0.59449 0.0
C419 C 0.4898 0.69845 0.57049 0.0
C420 C 0.47871 0.67703 0.5696 0.0
C421 C 0.48307 0.66236 0.59307 0.0
C422 C 0.49861 0.66903 0.61737 0.0
C423 C 0.51173 0.70803 0.77828 0.0
C424 C 0.5073 0.68514 0.78406 0.0
C425 C 0.5231 0.71326 0.75096 0.0
C426 C 0.52985 0.69559 0.72939 0.0
C427 C 0.52683 0.67276 0.73627 0.0
C428 C 0.51571 0.66756 0.7635 0.0
C429 C 0.53729 0.70047 0.69804 0.0
C430 C 0.52103 0.69555 0.6738 0.0
C431 C 0.56041 0.70828 0.69165 0.0
C432 C 0.57851 0.71289 0.71636 0.0
C433 C 0.5861 0.69536 0.73467 0.0
C434 C 0.60355 0.69971 0.75749 0.0
C435 C 0.61367 0.72149 0.76205 0.0
C436 C 0.6064 0.73895 0.74372 0.0
C437 C 0.58895 0.73468 0.72087 0.0
H438 H 0.6272 0.72482 0.77969 0.0
H439 H 0.46671 0.67183 0.55076 0.0
H440 H 0.7644 0.10785 0.00616 0.0
H441 H 0.74239 0.07223 0.01203 0.0
H442 H 0.80891 0.03497 0.00749 0.0
H443 H 0.83026 0.07006 0.99891 0.0
H444 H 0.77904 0.00719 0.99142 0.0
H445 H 0.78324 0.06099 0.07759 0.0
H446 H 0.77807 0.09758 0.10826 0.0
H447 H 0.70196 0.09122 0.09904 0.0
H448 H 0.70671 0.0547 0.06789 0.0
H449 H 0.77292 0.93663 0.11471 0.0
H450 H 0.77903 0.96906 0.08318 0.0
H451 H 0.70334 0.97144 0.0646 0.0
H452 H 0.69714 0.93873 0.09693 0.0
H453 H 0.72912 0.01518 0.08544 0.0
H454 H 0.73701 0.94986 0.00767 0.0
H455 H 0.75474 0.91221 0.99293 0.0
H456 H 0.82506 0.94072 0.00561 0.0
H457 H 0.80776 0.97838 0.02088 0.0
C458 C 0.77398 0.09179 0.0049 0.0
C459 C 0.79888 0.09147 0.00209 0.0
C460 C 0.76152 0.07152 0.00871 0.0
C461 C 0.77405 0.05101 0.01155 0.0
C462 C 0.79871 0.05049 0.00561 0.0
C463 C 0.81098 0.07057 0.00057 0.0
C464 C 0.76245 0.03098 0.02456 0.0
C465 C 0.76794 0.00902 0.01173 0.0
C466 C 0.74832 0.03321 0.05169 0.0
C467 C 0.74533 0.05533 0.06996 0.0
C468 C 0.76541 0.06752 0.08184 0.0
C469 C 0.76256 0.08822 0.09935 0.0
C470 C 0.7397 0.09677 0.10547 0.0
C471 C 0.71965 0.08461 0.09415 0.0
C472 C 0.72241 0.06393 0.07654 0.0
C473 C 0.75763 0.94405 0.10372 0.0
C474 C 0.73464 0.93535 0.10776 0.0
C475 C 0.76112 0.96244 0.08575 0.0
C476 C 0.74168 0.97227 0.07124 0.0
C477 C 0.71852 0.96382 0.0755 0.0
C478 C 0.71499 0.94526 0.09374 0.0
C479 C 0.74607 0.99174 0.05228 0.0
C480 C 0.73933 0.01353 0.06422 0.0
C481 C 0.76082 0.98941 0.02596 0.0
C482 C 0.77107 0.96699 0.01505 0.0
C483 C 0.75625 0.9481 0.00714 0.0
C484 C 0.76623 0.92674 0.99882 0.0
C485 C 0.79101 0.92409 0.99824 0.0
C486 C 0.80587 0.9428 0.00592 0.0
C487 C 0.79599 0.96416 0.01433 0.0
H488 H 0.79869 0.90753 0.9919 0.0
H489 H 0.73752 0.11278 0.11909 0.0
H490 H 0.43829 0.35224 0.57168 0.0
H491 H 0.47919 0.3381 0.56986 0.0
H492 H 0.4529 0.26877 0.57093 0.0
H493 H 0.41195 0.28324 0.57474 0.0
H494 H 0.48208 0.27641 0.61509 0.0
H495 H 0.48729 0.29036 0.50653 0.0
H496 H 0.48477 0.31213 0.45984 0.0
H497 H 0.53161 0.36345 0.50152 0.0
H498 H 0.5347 0.34195 0.54833 0.0
H499 H 0.60759 0.23901 0.57952 0.0
H500 H 0.56402 0.2441 0.57719 0.0
H501 H 0.57114 0.30976 0.62749 0.0
H502 H 0.61438 0.30436 0.63085 0.0
H503 H 0.55185 0.30056 0.55545 0.0
H504 H 0.54325 0.28987 0.6647 0.0
H505 H 0.54546 0.26991 0.71285 0.0
H506 H 0.50354 0.2146 0.6711 0.0
H507 H 0.50149 0.23407 0.62245 0.0
C508 C 0.44135 0.33396 0.57067 0.0
C509 C 0.42234 0.31872 0.57351 0.0
C510 C 0.46468 0.32585 0.56933 0.0
C511 C 0.46915 0.30232 0.57002 0.0
C512 C 0.44985 0.28698 0.57046 0.0
C513 C 0.42656 0.29518 0.57267 0.0
C514 C 0.49363 0.29422 0.57574 0.0
C515 C 0.49724 0.28121 0.60144 0.0
C516 C 0.51354 0.30129 0.55883 0.0
C517 C 0.51111 0.31457 0.53101 0.0
C518 C 0.49691 0.30636 0.50584 0.0
C519 C 0.49546 0.3186 0.47931 0.0
C520 C 0.50793 0.33915 0.47776 0.0
C521 C 0.52197 0.34751 0.50273 0.0
C522 C 0.52368 0.33525 0.5292 0.0
C523 C 0.59962 0.25409 0.59095 0.0
C524 C 0.61401 0.27128 0.60542 0.0
C525 C 0.5749 0.25694 0.58974 0.0
C526 C 0.56457 0.27716 0.6025 0.0
C527 C 0.57887 0.29386 0.61813 0.0
C528 C 0.60345 0.2908 0.61994 0.0
C529 C 0.53994 0.28278 0.59439 0.0
C530 C 0.53647 0.2954 0.56843 0.0
C531 C 0.52019 0.27556 0.61117 0.0
C532 C 0.52278 0.26314 0.63965 0.0
C533 C 0.53504 0.27319 0.6655 0.0
C534 C 0.53609 0.26205 0.69298 0.0
C535 C 0.5248 0.24092 0.69497 0.0
C536 C 0.51242 0.23089 0.66947 0.0
C537 C 0.51134 0.24195 0.64193 0.0
H538 H 0.52551 0.23239 0.71632 0.0
H539 H 0.5067 0.34856 0.45719 0.0
H540 H 0.68928 0.6378 0.37876 0.0
H541 H 0.69467 0.60099 0.34968 0.0
H542 H 0.67365 0.56606 0.4298 0.0
H543 H 0.67066 0.60273 0.45948 0.0
H544 H 0.69736 0.53758 0.39545 0.0
H545 H 0.63105 0.58481 0.37863 0.0
H546 H 0.60986 0.62034 0.3683 0.0
H547 H 0.64226 0.61997 0.27881 0.0
H548 H 0.66388 0.58453 0.28878 0.0
H549 H 0.62347 0.45325 0.3112 0.0
H550 H 0.63915 0.48463 0.34541 0.0
H551 H 0.67759 0.51054 0.26927 0.0
H552 H 0.66246 0.47888 0.23495 0.0
H553 H 0.64656 0.5422 0.30198 0.0
H554 H 0.70856 0.48672 0.32527 0.0
H555 H 0.72105 0.44922 0.34227 0.0
H556 H 0.68424 0.46267 0.42807 0.0
H557 H 0.67137 0.50018 0.4115 0.0
C558 C 0.6871 0.62219 0.3905 0.0
C559 C 0.67913 0.62295 0.42109 0.0
C560 C 0.6899 0.60117 0.37386 0.0
C561 C 0.68339 0.58083 0.38713 0.0
C562 C 0.67842 0.5815 0.41885 0.0
C563 C 0.67666 0.6025 0.43585 0.0
C564 C 0.67771 0.55997 0.36712 0.0
C565 C 0.68631 0.53861 0.375 0.0
C566 C 0.66252 0.56108 0.34101 0.0
C567 C 0.64925 0.58216 0.33456 0.0
C568 C 0.63372 0.59236 0.35679 0.0
C569 C 0.62164 0.61248 0.35101 0.0
C570 C 0.62476 0.62244 0.32294 0.0
C571 C 0.63989 0.61224 0.30055 0.0
C572 C 0.65205 0.59213 0.30624 0.0
C573 C 0.63568 0.46532 0.30184 0.0
C574 C 0.64166 0.46361 0.2703 0.0
C575 C 0.6446 0.48323 0.32144 0.0
C576 C 0.65965 0.49973 0.30986 0.0
C577 C 0.66602 0.49789 0.27858 0.0
C578 C 0.65721 0.47992 0.25898 0.0
C579 C 0.66696 0.52006 0.32962 0.0
C580 C 0.65815 0.5413 0.32199 0.0
C581 C 0.68071 0.51853 0.35684 0.0
C582 C 0.68897 0.49623 0.36708 0.0
C583 C 0.70308 0.48165 0.34772 0.0
C584 C 0.71023 0.4604 0.3573 0.0
C585 C 0.70342 0.45356 0.38623 0.0
C586 C 0.68952 0.468 0.4057 0.0
C587 C 0.68235 0.48929 0.39626 0.0
H588 H 0.70893 0.43708 0.39356 0.0
H589 H 0.61542 0.63803 0.31852 0.0
H590 H 0.90692 0.1861 0.02029 0.0
H591 H 0.94886 0.19505 0.02159 0.0
H592 H 0.94101 0.23148 0.93874 0.0
H593 H 0.89929 0.21906 0.93503 0.0
H594 H 0.97367 0.20359 0.92925 0.0
H595 H 0.96004 0.25566 0.02103 0.0
H596 H 0.94276 0.26392 0.07278 0.0
H597 H 0.9819 0.20801 0.10724 0.0
H598 H -0.00069 0.19938 0.05571 0.0
H599 H 0.09643 0.23862 0.93154 0.0
H600 H 0.05279 0.23701 0.93289 0.0
H601 H 0.05629 0.18834 0.00302 0.0
H602 H 0.0998 0.18931 0.00125 0.0
H603 H 0.02667 0.22379 0.01883 0.0
H604 H 0.03975 0.1704 0.93396 0.0
H605 H 0.05509 0.15496 0.88372 0.0
H606 H 0.01632 0.20598 0.83776 0.0
H607 H 0.00104 0.22201 0.88784 0.0
C608 C 0.91378 0.1972 0.00338 0.0
C609 C 0.89993 0.20195 0.97764 0.0
C610 C 0.93805 0.20234 0.00405 0.0
C611 C 0.94847 0.21424 0.98042 0.0
C612 C 0.93359 0.22212 0.95716 0.0
C613 C 0.90954 0.21564 0.95546 0.0
C614 C 0.97496 0.21545 0.97749 0.0
C615 C 0.98517 0.20874 0.94868 0.0
C616 C 0.99024 0.22068 0.00318 0.0
C617 C 0.981 0.22695 0.03455 0.0
C618 C 0.96506 0.24525 0.03971 0.0
C619 C 0.95521 0.24995 0.06898 0.0
C620 C 0.96125 0.23652 0.09328 0.0
C621 C 0.97731 0.21846 0.08844 0.0
C622 C 0.98725 0.21373 0.05925 0.0
C623 C 0.08792 0.22737 0.947 0.0
C624 C 0.10163 0.2143 0.96657 0.0
C625 C 0.063 0.22648 0.94772 0.0
C626 C 0.05138 0.21258 0.96808 0.0
C627 C 0.06497 0.19931 0.98732 0.0
C628 C 0.08983 0.20006 0.98646 0.0
C629 C 0.02506 0.21275 0.97055 0.0
C630 C 0.01501 0.21938 -0.00074 0.0
C631 C 0.01 0.20697 0.94498 0.0
C632 C 0.01954 0.19767 0.91479 0.0
C633 C 0.03475 0.17856 0.91322 0.0
C634 C 0.04337 0.16964 0.88474 0.0
C635 C 0.03677 0.17954 0.85757 0.0
C636 C 0.02148 0.19837 0.85884 0.0
C637 C 0.01284 0.20739 0.88728 0.0
H638 H 0.04342 0.17258 0.83554 0.0
H639 H 0.95348 0.24009 0.11586 0.0
H640 H 0.32475 0.40678 0.53676 0.0
H641 H 0.30244 0.44263 0.53578 0.0
H642 H 0.25044 0.40912 0.4743 0.0
H643 H 0.27303 0.37364 0.47438 0.0
H644 H 0.2716 0.44483 0.45021 0.0
H645 H 0.23667 0.42994 0.54979 0.0
H646 H 0.23955 0.42191 0.60478 0.0
H647 H 0.27932 0.484 0.62406 0.0
H648 H 0.27687 0.49229 0.56915 0.0
H649 H 0.20392 0.53572 0.41647 0.0
H650 H 0.20935 0.5008 0.44344 0.0
H651 H 0.26168 0.53504 0.5035 0.0
H652 H 0.25656 0.56983 0.47662 0.0
H653 H 0.23948 0.49959 0.53166 0.0
H654 H 0.28045 0.51393 0.4395 0.0
H655 H 0.28642 0.5235 0.38564 0.0
H656 H 0.24618 0.46411 0.35337 0.0
H657 H 0.23939 0.45452 0.40716 0.0
C658 C 0.3083 0.40704 0.52356 0.0
C659 C 0.3008 0.38772 0.50511 0.0
C660 C 0.29548 0.42743 0.52323 0.0
C661 C 0.27479 0.42847 0.50497 0.0
C662 C 0.26641 0.40864 0.48844 0.0
C663 C 0.2794 0.38847 0.48832 0.0
C664 C 0.26408 0.45066 0.49873 0.0
C665 C 0.26396 0.4565 0.46795 0.0
C666 C 0.25568 0.46648 0.52221 0.0
C667 C 0.25667 0.46167 0.55532 0.0
C668 C 0.24611 0.44183 0.56573 0.0
C669 C 0.24765 0.43725 0.5969 0.0
C670 C 0.25963 0.45242 0.61789 0.0
C671 C 0.27002 0.47227 0.60779 0.0
C672 C 0.26851 0.47694 0.57666 0.0
C673 C 0.21588 0.53605 0.4362 0.0
C674 C 0.23025 0.55528 0.44393 0.0
C675 C 0.2189 0.51614 0.45165 0.0
C676 C 0.23637 0.51529 0.47485 0.0
C677 C 0.24819 0.53539 0.48554 0.0
C678 C 0.24519 0.5553 0.47011 0.0
C679 C 0.24587 0.49302 0.48295 0.0
C680 C 0.2464 0.48749 0.51393 0.0
C681 C 0.25561 0.47766 0.45983 0.0
C682 C 0.25898 0.48377 0.42743 0.0
C683 C 0.2725 0.50313 0.42097 0.0
C684 C 0.27611 0.50852 0.39043 0.0
C685 C 0.26659 0.49448 0.3661 0.0
C686 C 0.25343 0.47503 0.37226 0.0
C687 C 0.24964 0.46965 0.40277 0.0
H688 H 0.2695 0.49861 0.34246 0.0
H689 H 0.26083 0.44882 0.642 0.0
H690 H 0.14082 0.78403 0.96364 0.0
H691 H 0.12297 0.76965 0.9147 0.0
H692 H 0.05297 0.78396 0.95239 0.0
H693 H 0.07082 0.7963 0.00155 0.0
H694 H 0.04539 0.75882 0.90815 0.0
H695 H 0.09158 0.82622 0.92253 0.0
H696 H 0.12671 0.85071 0.93465 0.0
H697 H 0.16403 0.81831 0.85751 0.0
H698 H 0.12924 0.79331 0.84525 0.0
H699 H 0.00595 0.83329 0.78758 0.0
H700 H 0.03951 0.82691 0.82233 0.0
H701 H 0.03532 0.75447 0.79783 0.0
H702 H 0.00136 0.76082 0.7638 0.0
H703 H 0.08319 0.80579 0.83062 0.0
H704 H 0.01863 0.73224 0.85308 0.0
H705 H 0.975 0.72551 0.8523 0.0
H706 H 0.96287 0.79713 0.87356 0.0
H707 H 0.00631 0.80424 0.87384 0.0
C708 C 0.12164 0.78215 0.96224 0.0
C709 C 0.10714 0.79169 0.98598 0.0
C710 C 0.11139 0.77457 0.9339 0.0
C711 C 0.08671 0.77705 0.92919 0.0
C712 C 0.07211 0.78227 0.95495 0.0
C713 C 0.08233 0.78911 0.9834 0.0
C714 C 0.07653 0.77859 0.89764 0.0
C715 C 0.0541 0.76863 0.89108 0.0
C716 C 0.08686 0.7928 0.87586 0.0
C717 C 0.10798 0.80757 0.88333 0.0
C718 C 0.10737 0.82414 0.90834 0.0
C719 C 0.12721 0.83813 0.91523 0.0
C720 C 0.14764 0.83597 0.89697 0.0
C721 C 0.14824 0.81986 0.87174 0.0
C722 C 0.12849 0.80574 0.86484 0.0
C723 C 0.01313 0.81619 0.78837 0.0
C724 C 0.00125 0.79749 0.77326 0.0
C725 C 0.03225 0.81255 0.80824 0.0
C726 C 0.03954 0.79018 0.81299 0.0
C727 C 0.02977 0.77183 0.79457 0.0
C728 C 0.01051 0.77545 0.77502 0.0
C729 C 0.05273 0.78552 0.84148 0.0
C730 C 0.07532 0.79513 0.84739 0.0
C731 C 0.04157 0.7732 0.8643 0.0
C732 C 0.01557 0.76871 0.86338 0.0
C733 C 0.00659 0.74648 0.85752 0.0
C734 C 0.98192 0.74264 0.85708 0.0
C735 C 0.96618 0.76087 0.86293 0.0
C736 C 0.97505 0.78302 0.86908 0.0
C737 C -0.00035 0.78698 0.86912 0.0
H738 H 0.94711 0.75785 0.86264 0.0
H739 H 0.16296 0.84685 0.90229 0.0
H740 H 0.82959 0.0815 0.92468 0.0
H741 H 0.83234 0.04675 0.89027 0.0
H742 H 0.90074 0.0317 0.93045 0.0
H743 H 0.89842 0.06696 0.96363 0.0
H744 H 0.90534 0.03327 0.87166 0.0
H745 H 0.85048 0.99598 0.93618 0.0
H746 H 0.81371 0.99055 0.96547 0.0
H747 H 0.77192 0.99415 0.88266 0.0
H748 H 0.80861 -0.00021 0.85281 0.0
H749 H 0.92409 0.92039 0.80959 0.0
H750 H 0.91841 0.95695 0.83822 0.0
H751 H 0.85617 0.96959 0.78301 0.0
H752 H 0.86196 0.93288 0.75362 0.0
H753 H 0.84683 0.97152 0.84448 0.0
H754 H 0.90524 0.00371 0.77963 0.0
H755 H 0.94376 0.00604 0.75278 0.0
H756 H 0.98086 0.00934 0.83981 0.0
H757 H 0.9426 0.00674 0.8672 0.0
C758 C 0.84466 0.07018 0.92699 0.0
C759 C 0.86379 0.07667 0.94662 0.0
C760 C 0.84631 0.0504 0.90725 0.0
C761 C 0.86691 0.03676 0.90753 0.0
C762 C 0.88485 0.04213 0.92955 0.0
C763 C 0.8834 0.06207 0.94875 0.0
C764 C 0.87125 0.01871 0.88265 0.0
C765 C 0.89267 0.01958 0.86601 0.0
C766 C 0.85437 0.00139 0.87445 0.0
C767 C 0.83225 -0.00146 0.89236 0.0
C768 C 0.83343 0.99585 0.92427 0.0
C769 C 0.81259 0.99265 0.94096 0.0
C770 C 0.79043 0.99202 0.92597 0.0
C771 C 0.78909 0.99464 0.89424 0.0
C772 C 0.80991 -0.0022 0.87741 0.0
C773 C 0.90969 0.93125 0.80265 0.0
C774 C 0.89338 0.92365 0.77939 0.0
C775 C 0.90645 0.95218 0.81915 0.0
C776 C 0.88691 0.96597 0.81268 0.0
C777 C 0.87136 0.95911 0.78832 0.0
C778 C 0.87463 0.93814 0.77168 0.0
C779 C 0.8811 0.98581 0.83406 0.0
C780 C 0.85937 0.98536 0.84995 0.0
C781 C 0.89791 0.00327 0.84193 0.0
C782 C 0.921 0.00488 0.82547 0.0
C783 C 0.92161 0.00476 0.79305 0.0
C784 C 0.94341 0.00617 0.77773 0.0
C785 C 0.96474 0.0078 0.79457 0.0
C786 C 0.96432 0.00807 0.82679 0.0
C787 C 0.94257 0.00668 0.84222 0.0
H788 H 0.98159 0.00887 0.78267 0.0
H789 H 0.77429 0.9894 0.93888 0.0
H790 H 0.37433 0.33722 0.44433 0.0
H791 H 0.40445 0.33923 0.40432 0.0
H792 H 0.45835 0.35458 0.47418 0.0
H793 H 0.42795 0.3536 0.51427 0.0
H794 H 0.4664 0.379 0.42894 0.0
H795 H 0.4495 0.29967 0.43525 0.0
H796 H 0.42504 0.26477 0.4357 0.0
H797 H 0.40169 0.27369 0.34289 0.0
H798 H 0.42584 0.30885 0.34197 0.0
H799 H 0.55792 0.3586 0.31558 0.0
H800 H 0.53289 0.35351 0.36078 0.0
H801 H 0.4702 0.35065 0.30247 0.0
H802 H 0.49513 0.35559 0.25719 0.0
H803 H 0.47088 0.31718 0.34533 0.0
H804 H 0.48438 0.39871 0.34224 0.0
H805 H 0.50926 0.43345 0.34189 0.0
H806 H 0.53962 0.41921 0.42959 0.0
H807 H 0.5152 0.38418 0.43024 0.0
C808 C 0.39262 0.34095 0.45118 0.0
C809 C 0.39889 0.34486 0.48246 0.0
C810 C 0.40988 0.34194 0.42829 0.0
C811 C 0.4339 0.34623 0.43622 0.0
C812 C 0.44007 0.35078 0.46746 0.0
C813 C 0.42269 0.35017 0.49038 0.0
C814 C 0.45238 0.34624 0.41179 0.0
C815 C 0.46765 0.36526 0.41101 0.0
C816 C 0.45394 0.32837 0.38817 0.0
C817 C 0.43953 0.30703 0.38859 0.0
C818 C 0.43917 0.29427 0.41493 0.0
C819 C 0.42531 0.27442 0.41529 0.0
C820 C 0.4118 0.26702 0.38935 0.0
C821 C 0.41218 0.27944 0.36297 0.0
C822 C 0.42598 0.29932 0.36251 0.0
C823 C 0.53883 0.35652 0.31237 0.0
C824 C 0.52843 0.35745 0.2829 0.0
C825 C 0.52458 0.3538 0.3382 0.0
C826 C 0.49972 0.35188 0.33493 0.0
C827 C 0.48937 0.35213 0.30543 0.0
C828 C 0.50358 0.35505 0.27965 0.0
C829 C 0.48426 0.35012 0.36223 0.0
C830 C 0.46972 0.33072 0.36357 0.0
C831 C 0.4835 0.36749 0.38646 0.0
C832 C 0.49818 0.38861 0.38608 0.0
C833 C 0.49654 0.40284 0.3613 0.0
C834 C 0.51052 0.42263 0.36108 0.0
C835 C 0.52608 0.42849 0.38565 0.0
C836 C 0.52761 0.41461 0.41054 0.0
C837 C 0.5137 0.39479 0.41084 0.0
H838 H 0.53688 0.44382 0.38544 0.0
H839 H 0.40105 0.25167 0.38969 0.0
H840 H 0.11383 0.93276 0.01302 0.0
H841 H 0.12807 0.97111 0.00401 0.0
H842 H 0.20079 0.94905 0.01599 0.0
H843 H 0.18635 0.91077 0.02666 0.0
H844 H 0.1963 0.99061 0.03994 0.0
H845 H 0.17462 0.95357 0.9421 0.0
H846 H 0.14866 0.93207 0.90427 0.0
H847 H 0.09682 0.98592 0.91188 0.0
H848 H 0.12233 0.00763 0.95003 0.0
H849 H 0.23822 0.09162 0.97237 0.0
H850 H 0.23062 0.05126 0.98076 0.0
H851 H 0.1548 0.06387 0.97975 0.0
H852 H 0.16223 0.10396 0.97127 0.0
H853 H 0.16551 0.02515 0.9463 0.0
H854 H 0.18595 0.05984 0.04817 0.0
H855 H 0.21233 0.0813 0.08557 0.0
H856 H 0.26753 0.03146 0.06844 0.0
H857 H 0.24152 0.00982 0.03076 0.0
C858 C 0.13283 0.93624 0.01421 0.0
C859 C 0.14904 0.91892 0.02039 0.0
C860 C 0.14098 0.95806 0.00874 0.0
C861 C 0.16555 0.96277 0.00826 0.0
C862 C 0.18176 0.94574 0.01591 0.0
C863 C 0.17354 0.92395 0.02208 0.0
C864 C 0.17413 0.98538 -0.00069 0.0
C865 C 0.18989 -0.00203 0.01917 0.0
C866 C 0.16567 0.99512 0.97228 0.0
C867 C 0.15035 0.98217 0.94909 0.0
C868 C 0.15763 0.96077 0.93583 0.0
C869 C 0.143 0.94856 0.91431 0.0
C870 C 0.12109 0.95761 0.90572 0.0
C871 C 0.11379 0.97893 0.91856 0.0
C872 C 0.12835 0.99121 0.9401 0.0
C873 C 0.21996 0.08574 0.97403 0.0
C874 C 0.20082 0.10091 0.97111 0.0
C875 C 0.21564 0.06272 0.97879 0.0
C876 C 0.19214 0.05461 0.9811 0.0
C877 C 0.17306 0.06972 0.97787 0.0
C878 C 0.17735 0.09262 0.97297 0.0
C879 C 0.18712 0.03052 0.98734 0.0
C880 C 0.17211 0.01762 0.96687 0.0
C881 C 0.19638 0.02047 0.01363 0.0
C882 C 0.21189 0.03335 0.03648 0.0
C883 C 0.20376 0.05354 0.05228 0.0
C884 C 0.21863 0.06571 0.07354 0.0
C885 C 0.24161 0.05778 0.07932 0.0
C886 C 0.24974 0.0376 0.06393 0.0
C887 C 0.23493 0.02536 0.04265 0.0
H888 H 0.25311 0.06724 0.09577 0.0
H889 H 0.10978 0.94812 0.88907 0.0
H890 H 0.55597 0.66327 0.41815 0.0
H891 H 0.51298 0.66211 0.42135 0.0
H892 H 0.51775 0.6369 0.51229 0.0
H893 H 0.56166 0.63725 0.50887 0.0
H894 H 0.48325 0.61434 0.46977 0.0
H895 H 0.50648 0.69045 0.50651 0.0
H896 H 0.52818 0.72682 0.50354 0.0
H897 H 0.49119 0.73921 0.41939 0.0
H898 H 0.46937 0.70283 0.4217 0.0
H899 H 0.35813 0.62419 0.46626 0.0
H900 H 0.39895 0.62927 0.48626 0.0
H901 H 0.41581 0.67058 0.41048 0.0
H902 H 0.37478 0.66638 0.39145 0.0
H903 H 0.43905 0.68653 0.45805 0.0
H904 H 0.4274 0.61186 0.40865 0.0
H905 H 0.40844 0.574 0.39924 0.0
H906 H 0.42672 0.5573 0.49129 0.0
H907 H 0.44554 0.59523 0.50137 0.0
C908 C 0.54813 0.65737 0.43896 0.0
C909 C 0.56239 0.65091 0.46376 0.0
C910 C 0.52344 0.65683 0.44071 0.0
C911 C 0.51227 0.65005 0.46735 0.0
C912 C 0.52619 0.64256 0.49172 0.0
C913 C 0.55118 0.64294 0.48989 0.0
C914 C 0.48597 0.65088 0.46889 0.0
C915 C 0.47344 0.63016 0.46819 0.0
C916 C 0.47349 0.67153 0.46532 0.0
C917 C 0.48612 0.69388 0.46445 0.0
C918 C 0.50288 0.70094 0.48743 0.0
C919 C 0.51526 0.72156 0.48581 0.0
C920 C 0.51104 0.73535 0.46132 0.0
C921 C 0.49438 0.72856 0.43842 0.0
C922 C 0.48194 0.70796 0.43995 0.0
C923 C 0.37052 0.63472 0.45436 0.0
C924 C 0.36352 0.64484 0.42733 0.0
C925 C 0.3938 0.63753 0.46565 0.0
C926 C 0.41061 0.64989 0.44951 0.0
C927 C 0.4032 0.66097 0.42337 0.0
C928 C 0.37979 0.65856 0.41247 0.0
C929 C 0.43628 0.64988 0.45819 0.0
C930 C 0.4487 0.67075 0.46069 0.0
C931 C 0.44888 0.62928 0.46184 0.0
C932 C 0.43756 0.60649 0.45592 0.0
C933 C 0.4272 0.60018 0.42697 0.0
C934 C 0.41651 0.57871 0.4215 0.0
C935 C 0.4163 0.56329 0.4447 0.0
C936 C 0.42684 0.56929 0.47338 0.0
C937 C 0.43752 0.59077 0.47899 0.0
H938 H 0.40803 0.54666 0.44041 0.0
H939 H 0.5207 0.75127 0.46005 0.0
H940 H 0.34539 0.43444 0.58812 0.0
H941 H 0.34634 0.47229 0.6171 0.0
H942 H 0.38098 0.4421 0.69348 0.0
H943 H 0.38043 0.40515 0.66515 0.0
H944 H 0.34441 0.47077 0.71234 0.0
H945 H 0.4136 0.46821 0.64605 0.0
H946 H 0.43433 0.46521 0.59598 0.0
H947 H 0.39792 0.52505 0.5687 0.0
H948 H 0.37665 0.52817 0.61851 0.0
H949 H 0.41638 0.54402 0.80682 0.0
H950 H 0.40318 0.51486 0.7674 0.0
H951 H 0.36968 0.56676 0.71629 0.0
H952 H 0.383 0.59617 0.75567 0.0
H953 H 0.39728 0.53252 0.67926 0.0
H954 H 0.33447 0.53718 0.75505 0.0
H955 H 0.31924 0.53855 0.80836 0.0
H956 H 0.34887 0.47226 0.82048 0.0
H957 H 0.36459 0.47063 0.76739 0.0
C958 C 0.35309 0.43604 0.61112 0.0
C959 C 0.36315 0.41693 0.62417 0.0
C960 C 0.35365 0.45757 0.6276 0.0
C961 C 0.36378 0.45995 0.65745 0.0
C962 C 0.37304 0.44069 0.67059 0.0
C963 C 0.37287 0.41956 0.65415 0.0
C964 C 0.3659 0.48231 0.6754 0.0
C965 C 0.35573 0.4844 0.70495 0.0
C966 C 0.38062 0.50012 0.66574 0.0
C967 C 0.39322 0.49819 0.63574 0.0
C968 C 0.40978 0.48056 0.62922 0.0
C969 C 0.42168 0.47887 0.60093 0.0
C970 C 0.41735 0.49486 0.5791 0.0
C971 C 0.40117 0.51262 0.58558 0.0
C972 C 0.38918 0.51435 0.61383 0.0
C973 C 0.40635 0.54926 0.78711 0.0
C974 C 0.40057 0.57236 0.78447 0.0
C975 C 0.39876 0.53259 0.76466 0.0
C976 C 0.3853 0.53866 0.73907 0.0
C977 C 0.37998 0.56174 0.73591 0.0
C978 C 0.3874 0.57845 0.75855 0.0
C979 C 0.37625 0.52059 0.71639 0.0
C980 C 0.3852 0.51931 0.68616 0.0
C981 C 0.36085 0.50319 0.72564 0.0
C982 C 0.35076 0.50382 0.75726 0.0
C983 C 0.3378 0.52293 0.76912 0.0
C984 C 0.32909 0.52375 0.7993 0.0
C985 C 0.33309 0.50551 0.8178 0.0
C986 C 0.34575 0.48637 0.80611 0.0
C987 C 0.35453 0.48547 0.77596 0.0
H988 H 0.32638 0.5062 0.84119 0.0
H989 H 0.42661 0.49355 0.55723 0.0
H990 H 0.05178 0.85414 0.12333 0.0
H991 H 0.00931 0.84587 0.12207 0.0
H992 H 0.01083 0.83749 0.02262 0.0
H993 H 0.05406 0.84528 0.02355 0.0
H994 H 0.97337 0.86765 0.05215 0.0
H995 H 0.00413 0.79122 0.05477 0.0
H996 H 0.02962 0.76082 0.07368 0.0
H997 H -0.00066 0.77168 0.16414 0.0
H998 H 0.9739 0.80232 0.14593 0.0
H999 H 0.85018 0.84596 0.07493 0.0
H1000 H 0.89051 0.84126 0.05383 0.0
H1001 H 0.91714 0.82829 0.1446 0.0
H1002 H 0.87684 0.83197 0.16524 0.0
H1003 H 0.93985 0.80275 0.10575 0.0
H1004 H 0.91938 0.88281 0.11212 0.0
H1005 H 0.89644 0.91722 0.10116 0.0
H1006 H 0.90983 0.90459 0.00417 0.0
H1007 H 0.93264 0.86993 0.01456 0.0
C1008 C 0.04322 0.8507 0.10105 0.0
C1009 C 0.05637 0.85048 0.07348 0.0
C1010 C 0.01893 0.84575 0.10045 0.0
C1011 C 0.00711 0.84067 0.07233 0.0
C1012 C 0.01982 0.84114 0.04457 0.0
C1013 C 0.0444 0.84579 0.04514 0.0
C1014 C 0.98117 0.83612 0.07267 0.0
C1015 C 0.96587 0.85313 0.06301 0.0
C1016 C 0.97168 0.81755 0.0879 0.0
C1017 C 0.98714 0.79917 0.09895 0.0
C1018 C 0.00303 0.78726 0.07875 0.0
C1019 C 0.01744 0.76994 0.08935 0.0
C1020 C 0.01611 0.76433 0.12009 0.0
C1021 C 0.00035 0.77602 0.14032 0.0
C1022 C 0.98589 0.79334 0.12985 0.0
C1023 C 0.86466 0.84174 0.09015 0.0
C1024 C 0.86049 0.83932 0.12167 0.0
C1025 C 0.88769 0.83919 0.07816 0.0
C1026 C 0.90701 0.83482 0.0977 0.0
C1027 C 0.90259 0.83157 0.12897 0.0
C1028 C 0.87955 0.83367 0.1408 0.0
C1029 C 0.93201 0.83483 0.08641 0.0
C1030 C 0.94714 0.81696 0.09401 0.0
C1031 C 0.94153 0.85309 0.07043 0.0
C1032 C 0.92736 0.87359 0.06406 0.0
C1033 C 0.9172 0.88724 0.08843 0.0
C1034 C 0.90428 0.90681 0.08233 0.0
C1035 C 0.90159 0.91303 0.05197 0.0
C1036 C 0.91185 0.8997 0.02766 0.0
C1037 C 0.92476 0.88009 0.03363 0.0
H1038 H 0.89162 0.92822 0.0473 0.0
H1039 H 0.02727 0.75092 0.12824 0.0
H1040 H 0.65625 0.56728 0.48951 0.0
H1041 H 0.66715 0.52767 0.49735 0.0
H1042 H 0.65153 0.53866 0.59446 0.0
H1043 H 0.64094 0.57823 0.58695 0.0
H1044 H 0.69426 0.51853 0.58575 0.0
H1045 H 0.61424 0.50632 0.54605 0.0
H1046 H 0.58174 0.51034 0.50823 0.0
H1047 H 0.62437 0.47648 0.43714 0.0
H1048 H 0.65718 0.47242 0.47455 0.0
H1049 H 0.69584 0.40346 0.628 0.0
H1050 H 0.68508 0.44269 0.61804 0.0
H1051 H 0.70018 0.42868 0.52124 0.0
H1052 H 0.71023 0.38922 0.53086 0.0
H1053 H 0.65873 0.45049 0.52857 0.0
H1054 H 0.73804 0.46093 0.56816 0.0
H1055 H 0.77136 0.45776 0.60497 0.0
H1056 H 0.7315 0.49576 0.67521 0.0
H1057 H 0.69777 0.49886 0.63896 0.0
C1058 C 0.65474 0.56116 0.51242 0.0
C1059 C 0.64774 0.57594 0.53759 0.0
C1060 C 0.66102 0.53851 0.51689 0.0
C1061 C 0.66017 0.5302 0.54653 0.0
C1062 C 0.65247 0.54473 0.57145 0.0
C1063 C 0.64627 0.56733 0.56704 0.0
C1064 C 0.66803 0.5066 0.55188 0.0
C1065 C 0.68628 0.50362 0.57356 0.0
C1066 C 0.65811 0.4872 0.53534 0.0
C1067 C 0.63821 0.4892 0.51302 0.0
C1068 C 0.6167 0.49981 0.52232 0.0
C1069 C 0.59822 0.50208 0.50098 0.0
C1070 C 0.60099 0.4937 0.4703 0.0
C1071 C 0.62223 0.48295 0.46092 0.0
C1072 C 0.64076 0.48062 0.48219 0.0
C1073 C 0.69685 0.40872 0.60458 0.0
C1074 C 0.70392 0.39318 0.58023 0.0
C1075 C 0.69089 0.43122 0.59896 0.0
C1076 C 0.692 0.4387 0.56891 0.0
C1077 C 0.69924 0.4233 0.54462 0.0
C1078 C 0.70521 0.40081 0.55021 0.0
C1079 C 0.68486 0.46236 0.56266 0.0
C1080 C 0.66675 0.46537 0.54078 0.0
C1081 C 0.695 0.48179 0.57898 0.0
C1082 C 0.71525 0.47992 0.6009 0.0
C1083 C 0.73628 0.46843 0.59154 0.0
C1084 C 0.75526 0.46668 0.61229 0.0
C1085 C 0.75352 0.4765 0.64243 0.0
C1086 C 0.73281 0.48813 0.65187 0.0
C1087 C 0.71375 0.4899 0.63122 0.0
H1088 H 0.76824 0.47513 0.65846 0.0
H1089 H 0.58668 0.4955 0.45379 0.0
H1090 H 0.93357 0.1312 0.04028 0.0
H1091 H 0.96799 0.13389 0.07631 0.0
H1092 H 0.92024 0.15016 0.1522 0.0
H1093 H 0.8863 0.14676 0.11719 0.0
H1094 H 0.96321 0.17871 0.15047 0.0
H1095 H 0.93388 0.10049 0.14797 0.0
H1096 H 0.92284 0.06336 0.12162 0.0
H1097 H 0.99416 0.05547 0.08686 0.0
H1098 H 0.00551 0.0928 0.11271 0.0
H1099 H -0.0011 0.14328 0.29758 0.0
H1100 H 0.97862 0.14819 0.24808 0.0
H1101 H 0.04436 0.13341 0.19961 0.0
H1102 H 0.06482 0.12909 0.24908 0.0
H1103 H 0.00061 0.10645 0.17938 0.0
H1104 H 0.03021 0.18316 0.19715 0.0
H1105 H 0.03754 0.21936 0.22807 0.0
H1106 H 0.96206 0.22947 0.23829 0.0
H1107 H 0.95428 0.19315 0.2078 0.0
C1108 C 0.93059 0.13529 0.06467 0.0
C1109 C 0.9073 0.13829 0.07607 0.0
C1110 C 0.95014 0.13694 0.0851 0.0
C1111 C 0.94651 0.1423 0.1168 0.0
C1112 C 0.92337 0.14612 0.12781 0.0
C1113 C 0.90399 0.14388 0.10777 0.0
C1114 C 0.96622 0.14246 0.13952 0.0
C1115 C 0.97168 0.163 0.1566 0.0
C1116 C 0.97713 0.12193 0.14738 0.0
C1117 C 0.97043 0.09956 0.1318 0.0
C1118 C 0.94713 0.09095 0.13441 0.0
C1119 C 0.94083 0.06986 0.11964 0.0
C1120 C 0.95776 0.05711 0.10245 0.0
C1121 C 0.98105 0.06541 0.10009 0.0
C1122 C 0.98742 0.08654 0.11478 0.0
C1123 C 0.00901 0.1414 0.27635 0.0
C1124 C 0.03337 0.13603 0.27698 0.0
C1125 C -0.0025 0.14421 0.2482 0.0
C1126 C 0.0101 0.14125 0.22034 0.0
C1127 C 0.03444 0.13588 0.22093 0.0
C1128 C 0.04607 0.13355 0.2491 0.0
C1129 C -0.00261 0.14268 0.19063 0.0
C1130 C 0.99301 0.12236 0.1725 0.0
C1131 C 0.9871 0.16336 0.18221 0.0
C1132 C 0.99168 0.18533 0.20035 0.0
C1133 C 0.01518 0.19301 0.20619 0.0
C1134 C 0.01941 0.21357 0.2236 0.0
C1135 C 0.00028 0.22669 0.23518 0.0
C1136 C 0.97687 0.21929 0.2293 0.0
C1137 C 0.97253 0.19873 0.21192 0.0
H1138 H 0.0036 0.2426 0.24867 0.0
H1139 H 0.95286 0.04076 0.09105 0.0
H1140 H 0.18974 0.78981 0.08739 0.0
H1141 H 0.20069 0.76221 0.12495 0.0
H1142 H 0.12781 0.73833 0.12572 0.0
H1143 H 0.11704 0.76561 0.08808 0.0
H1144 H 0.17814 0.76953 0.18245 0.0
H1145 H 0.12349 0.69374 0.14841 0.0
H1146 H 0.11142 0.66894 0.10262 0.0
H1147 H 0.18167 0.67474 0.06479 0.0
H1148 H 0.19394 0.69994 0.11013 0.0
H1149 H 0.19005 0.70222 0.3165 0.0
H1150 H 0.16869 0.72028 0.27461 0.0
H1151 H 0.21771 0.68881 0.20828 0.0
H1152 H 0.23865 0.6709 0.24936 0.0
H1153 H 0.17111 0.68555 0.18821 0.0
H1154 H 0.22665 0.74297 0.23811 0.0
H1155 H 0.23999 0.76772 0.28322 0.0
H1156 H 0.17079 0.79892 0.28922 0.0
H1157 H 0.15698 0.77415 0.24431 0.0
C1158 C 0.17651 0.77753 0.09394 0.0
C1159 C 0.1526 0.7797 0.08502 0.0
C1160 C 0.18264 0.76212 0.11586 0.0
C1161 C 0.16494 0.74857 0.12847 0.0
C1162 C 0.14177 0.7485 0.11618 0.0
C1163 C 0.13568 0.7639 0.09434 0.0
C1164 C 0.1697 0.73743 0.1574 0.0
C1165 C 0.1766 0.75116 0.18376 0.0
C1166 C 0.16676 0.71372 0.15945 0.0
C1167 C 0.15955 0.69862 0.13243 0.0
C1168 C 0.13631 0.68965 0.13028 0.0
C1169 C 0.12942 0.67565 0.10439 0.0
C1170 C 0.14577 0.6703 0.0808 0.0
C1171 C 0.16902 0.679 0.08301 0.0
C1172 C 0.1759 0.69322 0.10869 0.0
C1173 C 0.19608 0.69923 0.2929 0.0
C1174 C 0.21623 0.68562 0.28609 0.0
C1175 C 0.18391 0.70943 0.26912 0.0
C1176 C 0.19169 0.70579 0.23844 0.0
C1177 C 0.21139 0.69172 0.23178 0.0
C1178 C 0.22353 0.68177 0.25531 0.0
C1179 C 0.18079 0.71747 0.21285 0.0
C1180 C 0.17227 0.70396 0.18714 0.0
C1181 C 0.18228 0.74144 0.2115 0.0
C1182 C 0.19073 0.75657 0.23809 0.0
C1183 C 0.21426 0.75504 0.24915 0.0
C1184 C 0.2219 0.76907 0.27466 0.0
C1185 C 0.20623 0.78484 0.28913 0.0
C1186 C 0.1829 0.78667 0.27802 0.0
C1187 C 0.17516 0.77265 0.25254 0.0
H1188 H 0.21217 0.79567 0.30889 0.0
H1189 H 0.14044 0.65939 0.06082 0.0
H1190 H 0.70477 0.69902 0.49937 0.0
H1191 H 0.74196 0.7201 0.50764 0.0
H1192 H 0.77455 0.6604 0.54269 0.0
H1193 H 0.7371 0.63922 0.53421 0.0
H1194 H 0.77073 0.69595 0.58521 0.0
H1195 H 0.79744 0.68582 0.47927 0.0
H1196 H 0.79306 0.6877 0.42291 0.0
H1197 H 0.78268 0.76029 0.4346 0.0
H1198 H 0.78669 0.75882 0.49107 0.0
H1199 H 0.87512 0.74255 0.64129 0.0
H1200 H 0.85157 0.72067 0.60208 0.0
H1201 H 0.81523 0.78216 0.57948 0.0
H1202 H 0.83858 0.80423 0.61919 0.0
H1203 H 0.82226 0.74687 0.52715 0.0
H1204 H 0.78946 0.75875 0.62803 0.0
H1205 H 0.78931 0.7605 0.68493 0.0
H1206 H 0.80454 0.68868 0.68312 0.0
H1207 H 0.80539 0.68663 0.62611 0.0
C1208 C 0.72024 0.68997 0.50693 0.0
C1209 C 0.71824 0.66743 0.51566 0.0
C1210 C 0.74152 0.7021 0.51188 0.0
C1211 C 0.76104 0.69179 0.5257 0.0
C1212 C 0.75969 0.6686 0.53186 0.0
C1213 C 0.73835 0.65654 0.52708 0.0
C1214 C 0.78028 0.70622 0.54007 0.0
C1215 C 0.7824 0.7066 0.57232 0.0
C1216 C 0.79435 0.72126 0.52346 0.0
C1217 C 0.79219 0.72216 0.48946 0.0
C1218 C 0.79405 0.70216 0.46986 0.0
C1219 C 0.79167 0.70316 0.43787 0.0
C1220 C 0.78754 0.72409 0.42518 0.0
C1221 C 0.78587 0.74408 0.44445 0.0
C1222 C 0.78824 0.74318 0.47645 0.0
C1223 C 0.86251 0.7515 0.62746 0.0
C1224 C 0.85821 0.77494 0.63368 0.0
C1225 C 0.84926 0.73904 0.60492 0.0
C1226 C 0.83155 0.74983 0.58828 0.0
C1227 C 0.82893 0.77363 0.5921 0.0
C1228 C 0.84219 0.78616 0.61482 0.0
C1229 C 0.81312 0.7357 0.57186 0.0
C1230 C 0.81086 0.73575 0.53967 0.0
C1231 C 0.79821 0.72148 0.58847 0.0
C1232 C 0.79792 0.72263 0.62279 0.0
C1233 C 0.79315 0.7434 0.63975 0.0
C1234 C 0.79287 0.74443 0.67203 0.0
C1235 C 0.79703 0.72473 0.68764 0.0
C1236 C 0.80143 0.70395 0.67099 0.0
C1237 C 0.80184 0.70285 0.63869 0.0
H1238 H 0.79673 0.72555 0.71263 0.0
H1239 H 0.78567 0.72482 0.40042 0.0
H1240 H 0.80277 0.21047 0.99351 0.0
H1241 H 0.77467 0.24084 0.01048 0.0
H1242 H 0.80898 0.24697 0.09989 0.0
H1243 H 0.83711 0.21711 0.08302 0.0
H1244 H 0.76005 0.23194 0.0991 0.0
H1245 H 0.81045 0.29038 0.06467 0.0
H1246 H 0.83506 0.31035 0.028 0.0
H1247 H 0.77364 0.31868 0.97028 0.0
H1248 H 0.74872 0.29824 0.00627 0.0
H1249 H 0.68888 0.31692 0.17815 0.0
H1250 H 0.72157 0.29409 0.15541 0.0
H1251 H 0.69008 0.298 0.06495 0.0
H1252 H 0.65758 0.32133 0.08751 0.0
H1253 H 0.73763 0.30817 0.0653 0.0
H1254 H 0.68735 0.24894 0.10149 0.0
H1255 H 0.66374 0.22933 0.13963 0.0
H1256 H 0.72629 0.22303 0.19598 0.0
H1257 H 0.75023 0.24289 0.15838 0.0
C1258 C 0.80501 0.21913 0.01618 0.0
C1259 C 0.8218 0.21132 0.03715 0.0
C1260 C 0.78887 0.23631 0.02595 0.0
C1261 C 0.78957 0.24572 0.05661 0.0
C1262 C 0.80806 0.23971 0.07627 0.0
C1263 C 0.82416 0.22275 0.06653 0.0
C1264 C 0.76915 0.25886 0.06976 0.0
C1265 C 0.75527 0.24874 0.092 0.0
C1266 C 0.7628 0.28048 0.05993 0.0
C1267 C 0.77776 0.29249 0.03798 0.0
C1268 C 0.80223 0.29617 0.04395 0.0
C1269 C 0.81624 0.30765 0.02333 0.0
C1270 C 0.80593 0.31576 0.99681 0.0
C1271 C 0.78159 0.31242 0.99087 0.0
C1272 C 0.76753 0.30083 0.01133 0.0
C1273 C 0.6889 0.31285 0.15342 0.0
C1274 C 0.67072 0.32094 0.13457 0.0
C1275 C 0.70749 0.2997 0.1405 0.0
C1276 C 0.70817 0.2943 0.10851 0.0
C1277 C 0.68984 0.30201 0.08969 0.0
C1278 C 0.6712 0.31513 0.10262 0.0
C1279 C 0.72845 0.28123 0.09463 0.0
C1280 C 0.74232 0.29132 0.07228 0.0
C1281 C 0.73493 0.25958 0.10452 0.0
C1282 C 0.72054 0.24763 0.12722 0.0
C1283 C 0.69604 0.24356 0.12213 0.0
C1284 C 0.6826 0.23236 0.14364 0.0
C1285 C 0.69349 0.225 0.17025 0.0
C1286 C 0.71787 0.22877 0.17538 0.0
C1287 C 0.73138 0.23998 0.15395 0.0
H1288 H 0.68306 0.21632 0.18686 0.0
H1289 H 0.8168 0.32462 0.98085 0.0
H1290 H 0.29696 0.34948 0.66732 0.0
H1291 H 0.27163 0.32732 0.69966 0.0
H1292 H 0.28034 0.26797 0.63649 0.0
H1293 H 0.30594 0.29029 0.60369 0.0
H1294 H 0.23012 0.29514 0.69333 0.0
H1295 H 0.30286 0.23922 0.67045 0.0
H1296 H 0.34534 0.23732 0.65541 0.0
H1297 H 0.36127 0.2943 0.71974 0.0
H1298 H 0.31884 0.2966 0.73483 0.0
H1299 H 0.20964 0.2205 0.8168 0.0
H1300 H 0.21762 0.23487 0.76609 0.0
H1301 H 0.27467 0.27696 0.80593 0.0
H1302 H 0.26687 0.26254 0.85662 0.0
H1303 H 0.28832 0.25221 0.75359 0.0
H1304 H 0.22447 0.30148 0.78801 0.0
H1305 H 0.18438 0.31191 0.80727 0.0
H1306 H 0.1526 0.2774 0.72673 0.0
H1307 H 0.19255 0.26653 0.70714 0.0
C1308 C 0.29288 0.33189 0.65981 0.0
C1309 C 0.30372 0.32138 0.63349 0.0
C1310 C 0.27825 0.31932 0.67815 0.0
C1311 C 0.27445 0.29601 0.67061 0.0
C1312 C 0.28326 0.28597 0.64265 0.0
C1313 C 0.29781 0.29869 0.62399 0.0
C1314 C 0.26586 0.28196 0.6952 0.0
C1315 C 0.24247 0.28497 0.70598 0.0
C1316 C 0.2824 0.26974 0.71236 0.0
C1317 C 0.30783 0.2681 0.70363 0.0
C1318 C 0.31548 0.2513 0.68133 0.0
C1319 C 0.3395 0.25019 0.67277 0.0
C1320 C 0.35599 0.26569 0.68659 0.0
C1321 C 0.34849 0.28233 0.70902 0.0
C1322 C 0.32448 0.28355 0.71756 0.0
C1323 C 0.22393 0.23277 0.81465 0.0
C1324 C 0.23779 0.24032 0.84049 0.0
C1325 C 0.22832 0.24107 0.78579 0.0
C1326 C 0.24671 0.25693 0.78236 0.0
C1327 C 0.26042 0.26465 0.80819 0.0
C1328 C 0.25591 0.25652 0.83708 0.0
C1329 C 0.25232 0.26497 0.75169 0.0
C1330 C 0.2754 0.26119 0.74019 0.0
C1331 C 0.23553 0.27685 0.73431 0.0
C1332 C 0.21148 0.28286 0.74636 0.0
C1333 C 0.20892 0.29585 0.7746 0.0
C1334 C 0.18623 0.30192 0.78552 0.0
C1335 C 0.16595 0.29523 0.7683 0.0
C1336 C 0.16833 0.2825 0.74009 0.0
C1337 C 0.19099 0.27639 0.72906 0.0
H1338 H 0.1484 0.29999 0.77677 0.0
H1339 H 0.37457 0.26481 0.67994 0.0
H1340 H 0.64415 0.73635 0.46758 0.0
H1341 H 0.65471 0.75554 0.42131 0.0
H1342 H 0.70456 0.70166 0.39584 0.0
H1343 H 0.69511 0.68309 0.44276 0.0
H1344 H 0.71994 0.74041 0.37726 0.0
H1345 H 0.64497 0.69973 0.37051 0.0
H1346 H 0.60416 0.69014 0.38641 0.0
H1347 H 0.58175 0.75898 0.37446 0.0
H1348 H 0.62249 0.76906 0.35875 0.0
H1349 H 0.72793 0.767 0.2256 0.0
H1350 H 0.7125 0.74166 0.26364 0.0
H1351 H 0.66849 0.79645 0.30264 0.0
H1352 H 0.68366 0.82159 0.26456 0.0
H1353 H 0.64924 0.75344 0.31119 0.0
H1354 H 0.72447 0.79488 0.32447 0.0
H1355 H 0.76504 0.80529 0.30857 0.0
H1356 H 0.78655 0.73506 0.30909 0.0
H1357 H 0.74592 0.72419 0.32445 0.0
C1358 C 0.65798 0.72901 0.45265 0.0
C1359 C 0.66805 0.70771 0.45812 0.0
C1360 C 0.66374 0.73983 0.42605 0.0
C1361 C 0.67944 0.72934 0.40444 0.0
C1362 C 0.69187 0.70969 0.41186 0.0
C1363 C 0.68639 0.69905 0.43874 0.0
C1364 C 0.68167 0.73789 0.37333 0.0
C1365 C 0.70451 0.74288 0.36265 0.0
C1366 C 0.66144 0.74131 0.35439 0.0
C1367 C 0.63686 0.73521 0.36368 0.0
C1368 C 0.63139 0.71287 0.37145 0.0
C1369 C 0.60826 0.70734 0.38042 0.0
C1370 C 0.5904 0.72396 0.38156 0.0
C1371 C 0.59561 0.74613 0.37362 0.0
C1372 C 0.61871 0.75175 0.36463 0.0
C1373 C 0.71406 0.77318 0.24131 0.0
C1374 C 0.7072 0.7962 0.24276 0.0
C1375 C 0.70535 0.75878 0.26306 0.0
C1376 C 0.68989 0.76747 0.28635 0.0
C1377 C 0.68054 0.78951 0.28497 0.0
C1378 C 0.68924 0.80387 0.26332 0.0
C1379 C 0.68746 0.7559 0.31532 0.0
C1380 C 0.66463 0.75051 0.32568 0.0
C1381 C 0.70765 0.75211 0.33406 0.0
C1382 C 0.73211 0.75869 0.3252 0.0
C1383 C 0.73781 0.78164 0.32096 0.0
C1384 C 0.76081 0.78763 0.31207 0.0
C1385 C 0.77835 0.77083 0.30773 0.0
C1386 C 0.77293 0.74803 0.31237 0.0
C1387 C 0.74992 0.74195 0.32115 0.0
H1388 H 0.79615 0.77549 0.30087 0.0
H1389 H 0.57252 0.71964 0.38854 0.0
H1390 H 0.84579 0.19582 0.91221 0.0
H1391 H 0.82467 0.21696 0.87436 0.0
H1392 H 0.75728 0.19321 0.9084 0.0
H1393 H 0.77899 0.17063 0.94539 0.0
H1394 H 0.75704 0.18686 0.85002 0.0
H1395 H 0.7762 0.2521 0.91506 0.0
H1396 H 0.80136 0.27735 0.94926 0.0
H1397 H 0.8476 0.28952 0.87348 0.0
H1398 H 0.82325 0.26361 0.83899 0.0
H1399 H 0.71436 0.26202 0.73082 0.0
H1400 H 0.72084 0.2465 0.78148 0.0
H1401 H 0.79455 0.23367 0.75828 0.0
H1402 H 0.78799 0.24861 0.70736 0.0
H1403 H 0.78169 0.2629 0.81752 0.0
H1404 H 0.7657 0.1908 0.75725 0.0
H1405 H 0.74089 0.16394 0.72465 0.0
H1406 H 0.68648 0.16655 0.79408 0.0
H1407 H 0.71084 0.19372 0.82691 0.0
C1408 C 0.82644 0.19567 0.91212 0.0
C1409 C 0.81388 0.18191 0.93158 0.0
C1410 C 0.8143 0.20789 0.89064 0.0
C1411 C 0.78926 0.20713 0.88878 0.0
C1412 C 0.77658 0.19419 0.90949 0.0
C1413 C 0.78887 0.18147 0.9307 0.0
C1414 C 0.77708 0.21761 0.86275 0.0
C1415 C 0.76191 0.20378 0.84345 0.0
C1416 C 0.78343 0.23967 0.85393 0.0
C1417 C 0.79782 0.25586 0.87438 0.0
C1418 C 0.79176 0.26009 0.90566 0.0
C1419 C 0.80591 0.27454 0.92513 0.0
C1420 C 0.82597 0.2852 0.91354 0.0
C1421 C 0.83199 0.28134 0.88243 0.0
C1422 C 0.81802 0.26674 0.86289 0.0
C1423 C 0.73188 0.25574 0.73661 0.0
C1424 C 0.7508 0.25663 0.71557 0.0
C1425 C 0.73549 0.24681 0.76532 0.0
C1426 C 0.75813 0.23902 0.7734 0.0
C1427 C 0.77694 0.23962 0.75225 0.0
C1428 C 0.77323 0.24811 0.72333 0.0
C1429 C 0.76285 0.2317 0.80466 0.0
C1430 C 0.77639 0.24628 0.82481 0.0
C1431 C 0.75474 0.21054 0.8144 0.0
C1432 C 0.73991 0.19464 0.79429 0.0
C1433 C 0.74828 0.18595 0.76536 0.0
C1434 C 0.73435 0.17058 0.7469 0.0
C1435 C 0.71207 0.16363 0.75721 0.0
C1436 C 0.7037 0.17201 0.78606 0.0
C1437 C 0.71756 0.1874 0.80459 0.0
H1438 H 0.70133 0.15169 0.74292 0.0
H1439 H 0.83689 0.29638 0.92868 0.0
H1440 H 0.32703 0.26658 0.53828 0.0
H1441 H 0.29771 0.23952 0.5146 0.0
H1442 H 0.25748 0.29578 0.48166 0.0
H1443 H 0.28676 0.32282 0.50574 0.0
H1444 H 0.22838 0.264 0.50344 0.0
H1445 H 0.2929 0.26541 0.43327 0.0
H1446 H 0.33465 0.26358 0.41569 0.0
H1447 H 0.33933 0.19397 0.44013 0.0
H1448 H 0.2977 0.19548 0.45837 0.0
H1449 H 0.16068 0.19391 0.39424 0.0
H1450 H 0.19094 0.22214 0.41264 0.0
H1451 H 0.22485 0.17134 0.46538 0.0
H1452 H 0.19422 0.14324 0.44755 0.0
H1453 H 0.25686 0.20161 0.42977 0.0
H1454 H 0.19182 0.20313 0.50384 0.0
H1455 H 0.14915 0.20569 0.51721 0.0
H1456 H 0.14521 0.27172 0.48022 0.0
H1457 H 0.18781 0.26935 0.46615 0.0
C1458 C 0.31165 0.27307 0.52645 0.0
C1459 C 0.30885 0.29658 0.52385 0.0
C1460 C 0.29509 0.25768 0.5127 0.0
C1461 C 0.27565 0.26565 0.49594 0.0
C1462 C 0.2724 0.28929 0.49438 0.0
C1463 C 0.28902 0.30469 0.50812 0.0
C1464 C 0.25894 0.24922 0.47975 0.0
C1465 C 0.2346 0.25057 0.48704 0.0
C1466 C 0.26708 0.23164 0.45837 0.0
C1467 C 0.29221 0.23065 0.44753 0.0
C1468 C 0.30289 0.24977 0.4352 0.0
C1469 C 0.32653 0.24878 0.42506 0.0
C1470 C 0.33966 0.22869 0.42687 0.0
C1471 C 0.32915 0.20953 0.43879 0.0
C1472 C 0.30552 0.21044 0.44902 0.0
C1473 C 0.17476 0.18883 0.40956 0.0
C1474 C 0.17524 0.16666 0.41981 0.0
C1475 C 0.19198 0.20485 0.41993 0.0
C1476 C 0.21003 0.19873 0.44032 0.0
C1477 C 0.21107 0.17626 0.44955 0.0
C1478 C 0.19359 0.16036 0.43959 0.0
C1479 C 0.22659 0.21625 0.45403 0.0
C1480 C 0.2508 0.21513 0.44615 0.0
C1481 C 0.21834 0.23424 0.4745 0.0
C1482 C 0.19292 0.23597 0.4837 0.0
C1483 C 0.18181 0.21812 0.49838 0.0
C1484 C 0.15765 0.21954 0.5061 0.0
C1485 C 0.14446 0.23883 0.49951 0.0
C1486 C 0.15544 0.25678 0.48528 0.0
C1487 C 0.1796 0.25541 0.47745 0.0
H1488 H 0.12575 0.2399 0.50548 0.0
H1489 H 0.35795 0.22796 0.41899 0.0
H1490 H 0.17841 0.7849 0.98719 0.0
H1491 H 0.21504 0.76473 0.97233 0.0
H1492 H 0.25637 0.82373 0.00601 0.0
H1493 H 0.21933 0.84465 0.01742 0.0
H1494 H 0.27497 0.81056 0.95804 0.0
H1495 H 0.25148 0.76759 0.04257 0.0
H1496 H 0.22578 0.74454 0.07454 0.0
H1497 H 0.21951 0.69288 -2e-05 0.0
H1498 H 0.24489 0.71572 0.9674 0.0
H1499 H 0.38253 0.73979 0.94872 0.0
H1500 H 0.34904 0.76346 0.96839 0.0
H1501 H 0.30106 0.72529 0.90619 0.0
H1502 H 0.33437 0.70188 0.8862 0.0
H1503 H 0.28896 0.72855 0.9727 0.0
H1504 H 0.31179 0.77521 0.88866 0.0
H1505 H 0.33928 0.79889 0.86 0.0
H1506 H 0.3497 0.84405 0.94105 0.0
H1507 H 0.32246 0.82049 0.97028 0.0
C1508 C 0.19535 0.79349 0.99117 0.0
C1509 C 0.1962 0.81633 0.00286 0.0
C1510 C 0.21639 0.78184 0.98323 0.0
C1511 C 0.23877 0.79243 0.98849 0.0
C1512 C 0.23948 0.81511 0.00141 0.0
C1513 C 0.21836 0.82707 0.00803 0.0
C1514 C 0.26124 0.78056 0.97842 0.0
C1515 C 0.27812 0.79274 0.962 0.0
C1516 C 0.26554 0.75715 0.98297 0.0
C1517 C 0.24995 0.74351 0.00243 0.0
C1518 C 0.24446 0.75142 0.03288 0.0
C1519 C 0.22997 0.73837 0.05114 0.0
C1520 C 0.22098 0.71731 0.03927 0.0
C1521 C 0.22647 0.70922 0.00913 0.0
C1522 C 0.24092 0.7222 0.99077 0.0
C1523 C 0.36485 0.73666 0.93909 0.0
C1524 C 0.36097 0.71901 0.91602 0.0
C1525 C 0.34582 0.75021 0.95022 0.0
C1526 C 0.32266 0.74603 0.93872 0.0
C1527 C 0.31886 0.72874 0.91528 0.0
C1528 C 0.33788 0.71548 0.90382 0.0
C1529 C 0.30202 0.75857 0.95242 0.0
C1530 C 0.28566 0.74646 0.96943 0.0
C1531 C 0.29851 0.78211 0.94917 0.0
C1532 C 0.31534 0.79591 0.93176 0.0
C1533 C 0.32018 0.79002 0.90048 0.0
C1534 C 0.33564 0.80347 0.8841 0.0
C1535 C 0.3463 0.82291 0.89872 0.0
C1536 C 0.34149 0.82896 0.92976 0.0
C1537 C 0.32603 0.81557 0.94623 0.0
H1538 H 0.35822 0.83333 0.88599 0.0
H1539 H 0.20981 0.70724 0.05345 0.0
loop_
_geom_bond_atom_site_label_1
_geom_bond_atom_site_label_2
_geom_bond_distance
_geom_bond_site_symmetry_2
_ccdc_geom_bond_type
Zn0 O6 1.920 . S
Zn0 O12 1.898 . S
Zn0 O15 1.905 . S
Zn1 O9 1.905 . S
Zn1 O10 1.898 . S
Zn1 O18 1.920 . S
Zn2 O5 2.080 . S
Zn2 O8 2.114 . S
Zn2 O11 2.120 . S
Zn2 O13 2.120 . S
Zn2 O14 2.114 . S
Zn2 O17 2.080 . S
C3 O8 1.166 . S
C3 O9 1.182 1_554 S
C4 O10 1.167 . S
C4 O11 1.299 1_556 S
O5 Zn2 2.080 . S
O5 C19 1.305 . S
O6 Zn0 1.920 . S
O6 C19 1.234 . S
C7 O12 1.167 . S
C7 O13 1.299 . S
O8 Zn2 2.114 . S
O8 C3 1.166 . S
O9 Zn1 1.905 . S
O9 C3 1.182 1_556 S
O10 Zn1 1.898 . S
O10 C4 1.167 . S
O11 Zn2 2.120 . S
O11 C4 1.299 1_554 S
O12 Zn0 1.898 . S
O12 C7 1.167 . S
O13 Zn2 2.120 . S
O13 C7 1.299 . S
O14 Zn2 2.114 . S
O14 C16 1.166 . S
O15 Zn0 1.905 . S
O15 C16 1.182 . S
C16 O14 1.166 . S
C16 O15 1.182 . S
O17 Zn2 2.080 . S
O17 C20 1.305 . S
O18 Zn1 1.920 . S
O18 C20 1.234 1_556 S
C19 O5 1.305 . S
C19 O6 1.234 . S
C20 O17 1.305 . S
C20 O18 1.234 1_554 S
Zn21 O27 1.920 . S
Zn21 O33 1.898 . S
Zn21 O36 1.905 . S
Zn22 O30 1.905 . S
Zn22 O31 1.898 . S
Zn22 O39 1.920 . S
Zn23 O26 2.080 . S
Zn23 O29 2.114 . S
Zn23 O32 2.120 . S
Zn23 O34 2.120 . S
Zn23 O35 2.114 . S
Zn23 O38 2.080 . S
C24 O29 1.166 . S
C24 O30 1.182 . S
C25 O31 1.167 . S
C25 O32 1.299 . S
O26 Zn23 2.080 . S
O26 C40 1.305 . S
O27 Zn21 1.920 . S
O27 C40 1.234 . S
C28 O33 1.167 . S
C28 O34 1.299 . S
O29 Zn23 2.114 . S
O29 C24 1.166 . S
O30 Zn22 1.905 . S
O30 C24 1.182 . S
O31 Zn22 1.898 . S
O31 C25 1.167 . S
O32 Zn23 2.120 . S
O32 C25 1.299 . S
O33 Zn21 1.898 . S
O33 C28 1.167 . S
O34 Zn23 2.120 . S
O34 C28 1.299 . S
O35 Zn23 2.114 . S
O35 C37 1.166 . S
O36 Zn21 1.905 . S
O36 C37 1.182 . S
C37 O35 1.166 . S
C37 O36 1.182 . S
O38 Zn23 2.080 . S
O38 C41 1.305 . S
O39 Zn22 1.920 . S
O39 C41 1.234 . S
C40 O26 1.305 . S
C40 O27 1.234 . S
C41 O38 1.305 . S
C41 O39 1.234 . S
Zn42 O48 1.920 . S
Zn42 O54 1.898 . S
Zn42 O57 1.905 . S
Zn43 O51 1.905 . S
Zn43 O52 1.898 . S
Zn43 O60 1.920 . S
Zn44 O47 2.060 1_554 S
Zn44 O50 2.134 . S
Zn44 O53 2.129 . S
Zn44 O55 2.110 1_554 S
Zn44 O56 2.101 1_554 S
Zn44 O59 2.094 . S
C45 O50 1.166 . S
C45 O51 1.182 . S
C46 O52 1.167 . S
C46 O53 1.299 . S
O47 Zn44 2.060 1_556 S
O47 C61 1.305 . S
O48 Zn42 1.920 . S
O48 C61 1.234 . S
C49 O54 1.167 . S
C49 O55 1.299 . S
O50 Zn44 2.134 . S
O50 C45 1.166 . S
O51 Zn43 1.905 . S
O51 C45 1.182 . S
O52 Zn43 1.898 . S
O52 C46 1.167 . S
O53 Zn44 2.129 . S
O53 C46 1.299 . S
O54 Zn42 1.898 . S
O54 C49 1.167 . S
O55 Zn44 2.110 1_556 S
O55 C49 1.299 . S
O56 Zn44 2.101 1_556 S
O56 C58 1.166 . S
O57 Zn42 1.905 . S
O57 C58 1.182 . S
C58 O56 1.166 . S
C58 O57 1.182 . S
O59 Zn44 2.094 . S
O59 C62 1.305 . S
O60 Zn43 1.920 . S
O60 C62 1.234 . S
C61 O47 1.305 . S
C61 O48 1.234 . S
C62 O59 1.305 . S
C62 O60 1.234 . S
Zn63 O69 1.920 . S
Zn63 O75 1.898 . S
Zn63 O78 1.905 . S
Zn64 O72 1.905 . S
Zn64 O73 1.898 . S
Zn64 O81 1.920 . S
Zn65 O68 2.080 . S
Zn65 O71 2.114 . S
Zn65 O74 2.120 . S
Zn65 O76 2.120 . S
Zn65 O77 2.114 . S
Zn65 O80 2.080 . S
C66 O71 1.166 . S
C66 O72 1.182 . S
C67 O73 1.167 . S
C67 O74 1.299 . S
O68 Zn65 2.080 . S
O68 C82 1.305 . S
O69 Zn63 1.920 . S
O69 C82 1.234 . S
C70 O75 1.167 . S
C70 O76 1.299 . S
O71 Zn65 2.114 . S
O71 C66 1.166 . S
O72 Zn64 1.905 . S
O72 C66 1.182 . S
O73 Zn64 1.898 . S
O73 C67 1.167 . S
O74 Zn65 2.120 . S
O74 C67 1.299 . S
O75 Zn63 1.898 . S
O75 C70 1.167 . S
O76 Zn65 2.120 . S
O76 C70 1.299 . S
O77 Zn65 2.114 . S
O77 C79 1.166 . S
O78 Zn63 1.905 . S
O78 C79 1.182 . S
C79 O77 1.166 . S
C79 O78 1.182 . S
O80 Zn65 2.080 . S
O80 C83 1.305 . S
O81 Zn64 1.920 . S
O81 C83 1.234 . S
C82 O68 1.305 . S
C82 O69 1.234 . S
C83 O80 1.305 . S
C83 O81 1.234 . S
P84 O95 1.490 . S
P84 C98 1.812 . S
P84 C104 1.803 . S
P84 C110 1.819 . S
H85 C99 0.941 . S
H86 C100 0.939 . S
H87 C102 0.940 . S
H88 C103 0.940 . S
H89 C105 0.939 . S
H90 C106 0.942 . S
H91 C108 0.940 . S
H92 C109 0.939 . S
H93 C111 0.941 . S
H94 C115 0.939 . S
O95 P84 1.490 . S
H96 C112 0.939 . S
H97 C114 0.940 . S
C98 P84 1.812 . S
C98 C99 1.389 . S
C98 C103 1.391 . S
C99 H85 0.941 . S
C99 C98 1.389 . S
C99 C100 1.397 . S
C100 H86 0.939 . S
C100 C99 1.397 . S
C100 C101 1.378 . S
C101 C100 1.378 . S
C101 C102 1.378 . S
C102 H87 0.940 . S
C102 C101 1.378 . S
C102 C103 1.396 . S
C103 H88 0.940 . S
C103 C98 1.391 . S
C103 C102 1.396 . S
C104 P84 1.803 . S
C104 C105 1.378 . S
C104 C109 1.400 . S
C105 H89 0.939 . S
C105 C104 1.378 . S
C105 C106 1.361 . S
C106 H90 0.942 . S
C106 C105 1.361 . S
C106 C107 1.369 . S
C107 C106 1.369 . S
C107 C108 1.404 . S
C108 H91 0.940 . S
C108 C107 1.404 . S
C108 C109 1.389 . S
C109 H92 0.939 . S
C109 C104 1.400 . S
C109 C108 1.389 . S
C110 P84 1.819 . S
C110 C111 1.391 . S
C110 C115 1.391 . S
C111 H93 0.941 . S
C111 C110 1.391 . S
C111 C112 1.396 . S
C112 H96 0.939 . S
C112 C111 1.396 . S
C112 C113 1.397 . S
C113 C112 1.397 . S
C113 C114 1.385 . S
C114 H97 0.940 . S
C114 C113 1.385 . S
C114 C115 1.388 . S
C115 H94 0.939 . S
C115 C110 1.391 . S
C115 C114 1.388 . S
P116 O127 1.490 . S
P116 C130 1.812 . S
P116 C136 1.803 . S
P116 C142 1.819 . S
H117 C131 0.941 . S
H118 C132 0.939 . S
H119 C134 0.940 . S
H120 C135 0.940 . S
H121 C137 0.939 . S
H122 C138 0.942 . S
H123 C140 0.940 . S
H124 C141 0.939 . S
H125 C143 0.941 . S
H126 C147 0.939 . S
O127 P116 1.490 . S
H128 C144 0.939 . S
H129 C146 0.940 . S
C130 P116 1.812 . S
C130 C131 1.389 . S
C130 C135 1.391 . S
C131 H117 0.941 . S
C131 C130 1.389 . S
C131 C132 1.397 . S
C132 H118 0.939 . S
C132 C131 1.397 . S
C132 C133 1.378 . S
C133 C132 1.378 . S
C133 C134 1.378 . S
C134 H119 0.940 . S
C134 C133 1.378 . S
C134 C135 1.396 . S
C135 H120 0.940 . S
C135 C130 1.391 . S
C135 C134 1.396 . S
C136 P116 1.803 . S
C136 C137 1.378 . S
C136 C141 1.400 . S
C137 H121 0.939 . S
C137 C136 1.378 . S
C137 C138 1.361 . S
C138 H122 0.942 . S
C138 C137 1.361 . S
C138 C139 1.369 . S
C139 C138 1.369 . S
C139 C140 1.404 . S
C140 H123 0.940 . S
C140 C139 1.404 . S
C140 C141 1.389 . S
C141 H124 0.939 . S
C141 C136 1.400 . S
C141 C140 1.389 . S
C142 P116 1.819 . S
C142 C143 1.391 . S
C142 C147 1.391 . S
C143 H125 0.941 . S
C143 C142 1.391 . S
C143 C144 1.396 . S
C144 H128 0.939 . S
C144 C143 1.396 . S
C144 C145 1.397 . S
C145 C144 1.397 . S
C145 C146 1.385 . S
C146 H129 0.940 . S
C146 C145 1.385 . S
C146 C147 1.388 . S
C147 H126 0.939 . S
C147 C142 1.391 . S
C147 C146 1.388 . S
P148 O159 1.490 . S
P148 C162 1.812 . S
P148 C168 1.803 . S
P148 C174 1.819 . S
H149 C163 0.941 . S
H150 C164 0.939 . S
H151 C166 0.940 . S
H152 C167 0.940 . S
H153 C169 0.939 . S
H154 C170 0.942 . S
H155 C172 0.940 . S
H156 C173 0.939 . S
H157 C175 0.941 . S
H158 C179 0.939 . S
O159 P148 1.490 . S
H160 C176 0.939 . S
H161 C178 0.940 . S
C162 P148 1.812 . S
C162 C163 1.389 . S
C162 C167 1.391 . S
C163 H149 0.941 . S
C163 C162 1.389 . S
C163 C164 1.397 . S
C164 H150 0.939 . S
C164 C163 1.397 . S
C164 C165 1.378 . S
C165 C164 1.378 . S
C165 C166 1.378 . S
C166 H151 0.940 . S
C166 C165 1.378 . S
C166 C167 1.396 . S
C167 H152 0.940 . S
C167 C162 1.391 . S
C167 C166 1.396 . S
C168 P148 1.803 . S
C168 C169 1.378 . S
C168 C173 1.400 . S
C169 H153 0.939 . S
C169 C168 1.378 . S
C169 C170 1.361 . S
C170 H154 0.942 . S
C170 C169 1.361 . S
C170 C171 1.369 . S
C171 C170 1.369 . S
C171 C172 1.404 . S
C172 H155 0.940 . S
C172 C171 1.404 . S
C172 C173 1.389 . S
C173 H156 0.939 . S
C173 C168 1.400 . S
C173 C172 1.389 . S
C174 P148 1.819 . S
C174 C175 1.391 . S
C174 C179 1.391 . S
C175 H157 0.941 . S
C175 C174 1.391 . S
C175 C176 1.396 . S
C176 H160 0.939 . S
C176 C175 1.396 . S
C176 C177 1.397 . S
C177 C176 1.397 . S
C177 C178 1.385 . S
C178 H161 0.940 . S
C178 C177 1.385 . S
C178 C179 1.388 . S
C179 H158 0.939 . S
C179 C174 1.391 . S
C179 C178 1.388 . S
P180 O191 1.490 . S
P180 C194 1.812 . S
P180 C200 1.803 . S
P180 C206 1.819 . S
H181 C195 0.941 . S
H182 C196 0.939 . S
H183 C198 0.940 . S
H184 C199 0.940 . S
H185 C201 0.939 . S
H186 C202 0.942 . S
H187 C204 0.940 . S
H188 C205 0.939 . S
H189 C207 0.941 . S
H190 C211 0.939 . S
O191 P180 1.490 . S
H192 C208 0.939 . S
H193 C210 0.940 . S
C194 P180 1.812 . S
C194 C195 1.389 . S
C194 C199 1.391 . S
C195 H181 0.941 . S
C195 C194 1.389 . S
C195 C196 1.397 . S
C196 H182 0.939 . S
C196 C195 1.397 . S
C196 C197 1.378 . S
C197 C196 1.378 . S
C197 C198 1.378 . S
C198 H183 0.940 . S
C198 C197 1.378 . S
C198 C199 1.396 . S
C199 H184 0.940 . S
C199 C194 1.391 . S
C199 C198 1.396 . S
C200 P180 1.803 . S
C200 C201 1.378 . S
C200 C205 1.400 . S
C201 H185 0.939 . S
C201 C200 1.378 . S
C201 C202 1.361 . S
C202 H186 0.942 . S
C202 C201 1.361 . S
C202 C203 1.369 . S
C203 C202 1.369 . S
C203 C204 1.404 . S
C204 H187 0.940 . S
C204 C203 1.404 . S
C204 C205 1.389 . S
C205 H188 0.939 . S
C205 C200 1.400 . S
C205 C204 1.389 . S
C206 P180 1.819 . S
C206 C207 1.391 . S
C206 C211 1.391 . S
C207 H189 0.941 . S
C207 C206 1.391 . S
C207 C208 1.396 . S
C208 H192 0.939 . S
C208 C207 1.396 . S
C208 C209 1.397 . S
C209 C208 1.397 . S
C209 C210 1.385 . S
C210 H193 0.940 . S
C210 C209 1.385 . S
C210 C211 1.388 . S
C211 H190 0.939 . S
C211 C206 1.391 . S
C211 C210 1.388 . S
P212 O223 1.490 . S
P212 C226 1.812 . S
P212 C232 1.803 . S
P212 C238 1.819 . S
H213 C227 0.941 . S
H214 C228 0.939 . S
H215 C230 0.940 . S
H216 C231 0.940 . S
H217 C233 0.939 . S
H218 C234 0.942 . S
H219 C236 0.940 . S
H220 C237 0.939 . S
H221 C239 0.941 . S
H222 C243 0.939 . S
O223 P212 1.490 . S
H224 C240 0.939 . S
H225 C242 0.940 . S
C226 P212 1.812 . S
C226 C227 1.389 . S
C226 C231 1.391 . S
C227 H213 0.941 . S
C227 C226 1.389 . S
C227 C228 1.397 . S
C228 H214 0.939 . S
C228 C227 1.397 . S
C228 C229 1.378 . S
C229 C228 1.378 . S
C229 C230 1.378 . S
C230 H215 0.940 . S
C230 C229 1.378 . S
C230 C231 1.396 . S
C231 H216 0.940 . S
C231 C226 1.391 . S
C231 C230 1.396 . S
C232 P212 1.803 . S
C232 C233 1.378 . S
C232 C237 1.400 . S
C233 H217 0.939 . S
C233 C232 1.378 . S
C233 C234 1.361 . S
C234 H218 0.942 . S
C234 C233 1.361 . S
C234 C235 1.369 . S
C235 C234 1.369 . S
C235 C236 1.404 . S
C236 H219 0.940 . S
C236 C235 1.404 . S
C236 C237 1.389 . S
C237 H220 0.939 . S
C237 C232 1.400 . S
C237 C236 1.389 . S
C238 P212 1.819 . S
C238 C239 1.391 . S
C238 C243 1.391 . S
C239 H221 0.941 . S
C239 C238 1.391 . S
C239 C240 1.396 . S
C240 H224 0.939 . S
C240 C239 1.396 . S
C240 C241 1.397 . S
C241 C240 1.397 . S
C241 C242 1.385 . S
C242 H225 0.940 . S
C242 C241 1.385 . S
C242 C243 1.388 . S
C243 H222 0.939 . S
C243 C238 1.391 . S
C243 C242 1.388 . S
P244 O255 1.490 . S
P244 C258 1.812 . S
P244 C264 1.803 . S
P244 C270 1.819 . S
H245 C259 0.941 . S
H246 C260 0.939 . S
H247 C262 0.940 . S
H248 C263 0.940 . S
H249 C265 0.939 . S
H250 C266 0.942 . S
H251 C268 0.940 . S
H252 C269 0.939 . S
H253 C271 0.941 . S
H254 C275 0.939 . S
O255 P244 1.490 . S
H256 C272 0.939 . S
H257 C274 0.940 . S
C258 P244 1.812 . S
C258 C259 1.389 . S
C258 C263 1.391 . S
C259 H245 0.941 . S
C259 C258 1.389 . S
C259 C260 1.397 . S
C260 H246 0.939 . S
C260 C259 1.397 . S
C260 C261 1.378 . S
C261 C260 1.378 . S
C261 C262 1.378 . S
C262 H247 0.940 . S
C262 C261 1.378 . S
C262 C263 1.396 . S
C263 H248 0.940 . S
C263 C258 1.391 . S
C263 C262 1.396 . S
C264 P244 1.803 . S
C264 C265 1.378 . S
C264 C269 1.400 . S
C265 H249 0.939 . S
C265 C264 1.378 . S
C265 C266 1.361 . S
C266 H250 0.942 . S
C266 C265 1.361 . S
C266 C267 1.369 . S
C267 C266 1.369 . S
C267 C268 1.404 . S
C268 H251 0.940 . S
C268 C267 1.404 . S
C268 C269 1.389 . S
C269 H252 0.939 . S
C269 C264 1.400 . S
C269 C268 1.389 . S
C270 P244 1.819 . S
C270 C271 1.391 . S
C270 C275 1.391 . S
C271 H253 0.941 . S
C271 C270 1.391 . S
C271 C272 1.396 . S
C272 H256 0.939 . S
C272 C271 1.396 . S
C272 C273 1.397 . S
C273 C272 1.397 . S
C273 C274 1.385 . S
C274 H257 0.940 . S
C274 C273 1.385 . S
C274 C275 1.388 . S
C275 H254 0.939 . S
C275 C270 1.391 . S
C275 C274 1.388 . S
P276 O287 1.490 . S
P276 C290 1.812 . S
P276 C296 1.803 . S
P276 C302 1.819 . S
H277 C291 0.941 . S
H278 C292 0.939 . S
H279 C294 0.940 . S
H280 C295 0.940 . S
H281 C297 0.939 . S
H282 C298 0.942 . S
H283 C300 0.940 . S
H284 C301 0.939 . S
H285 C303 0.941 . S
H286 C307 0.939 . S
O287 P276 1.490 . S
H288 C304 0.939 . S
H289 C306 0.940 . S
C290 P276 1.812 . S
C290 C291 1.389 . S
C290 C295 1.391 . S
C291 H277 0.941 . S
C291 C290 1.389 . S
C291 C292 1.397 . S
C292 H278 0.939 . S
C292 C291 1.397 . S
C292 C293 1.378 . S
C293 C292 1.378 . S
C293 C294 1.378 . S
C294 H279 0.940 . S
C294 C293 1.378 . S
C294 C295 1.396 . S
C295 H280 0.940 . S
C295 C290 1.391 . S
C295 C294 1.396 . S
C296 P276 1.803 . S
C296 C297 1.378 . S
C296 C301 1.400 . S
C297 H281 0.939 . S
C297 C296 1.378 . S
C297 C298 1.361 . S
C298 H282 0.942 . S
C298 C297 1.361 . S
C298 C299 1.369 . S
C299 C298 1.369 . S
C299 C300 1.404 . S
C300 H283 0.940 . S
C300 C299 1.404 . S
C300 C301 1.389 . S
C301 H284 0.939 . S
C301 C296 1.400 . S
C301 C300 1.389 . S
C302 P276 1.819 . S
C302 C303 1.391 . S
C302 C307 1.391 . S
C303 H285 0.941 . S
C303 C302 1.391 . S
C303 C304 1.396 . S
C304 H288 0.939 . S
C304 C303 1.396 . S
C304 C305 1.397 . S
C305 C304 1.397 . S
C305 C306 1.385 . S
C306 H289 0.940 . S
C306 C305 1.385 . S
C306 C307 1.388 . S
C307 H286 0.939 . S
C307 C302 1.391 . S
C307 C306 1.388 . S
P308 O319 1.490 . S
P308 C322 1.812 . S
P308 C328 1.803 . S
P308 C334 1.819 . S
H309 C323 0.941 . S
H310 C324 0.939 . S
H311 C326 0.940 . S
H312 C327 0.940 . S
H313 C329 0.939 . S
H314 C330 0.942 . S
H315 C332 0.940 . S
H316 C333 0.939 . S
H317 C335 0.941 . S
H318 C339 0.939 . S
O319 P308 1.490 . S
H320 C336 0.939 . S
H321 C338 0.940 . S
C322 P308 1.812 . S
C322 C323 1.389 . S
C322 C327 1.391 . S
C323 H309 0.941 . S
C323 C322 1.389 . S
C323 C324 1.397 . S
C324 H310 0.939 . S
C324 C323 1.397 . S
C324 C325 1.378 . S
C325 C324 1.378 . S
C325 C326 1.378 . S
C326 H311 0.940 . S
C326 C325 1.378 . S
C326 C327 1.396 . S
C327 H312 0.940 . S
C327 C322 1.391 . S
C327 C326 1.396 . S
C328 P308 1.803 . S
C328 C329 1.378 . S
C328 C333 1.400 . S
C329 H313 0.939 . S
C329 C328 1.378 . S
C329 C330 1.361 . S
C330 H314 0.942 . S
C330 C329 1.361 . S
C330 C331 1.369 . S
C331 C330 1.369 . S
C331 C332 1.404 . S
C332 H315 0.940 . S
C332 C331 1.404 . S
C332 C333 1.389 . S
C333 H316 0.939 . S
C333 C328 1.400 . S
C333 C332 1.389 . S
C334 P308 1.819 . S
C334 C335 1.391 . S
C334 C339 1.391 . S
C335 H317 0.941 . S
C335 C334 1.391 . S
C335 C336 1.396 . S
C336 H320 0.939 . S
C336 C335 1.396 . S
C336 C337 1.397 . S
C337 C336 1.397 . S
C337 C338 1.385 . S
C338 H321 0.940 . S
C338 C337 1.385 . S
C338 C339 1.388 . S
C339 H318 0.939 . S
C339 C334 1.391 . S
C339 C338 1.388 . S
H340 C358 0.951 . S
H341 C360 0.951 . S
H342 C362 0.950 . S
H343 C363 0.950 . S
H344 C365 0.950 . S
H345 C368 0.950 . S
H346 C369 0.950 . S
H347 C371 0.950 . S
H348 C372 0.950 . S
H349 C373 0.951 . S
H350 C375 0.951 . S
H351 C377 0.950 . S
H352 C378 0.950 . S
H353 C380 0.950 . S
H354 C383 0.950 . S
H355 C384 0.950 . S
H356 C386 0.950 . S
H357 C387 0.950 . S
C358 H340 0.951 . S
C358 C359 1.366 . S
C358 C360 1.388 . S
C359 C358 1.366 . S
C359 C363 1.385 . S
C360 H341 0.951 . S
C360 C358 1.388 . S
C360 C361 1.366 . S
C361 C360 1.366 . S
C361 C362 1.414 . S
C361 C364 1.499 . S
C362 H342 0.950 . S
C362 C361 1.414 . S
C362 C363 1.374 . S
C363 H343 0.950 . S
C363 C359 1.385 . S
C363 C362 1.374 . S
C364 C361 1.499 . S
C364 C365 1.373 . S
C364 C366 1.389 . S
C365 H344 0.950 . S
C365 C364 1.373 . S
C365 C381 1.377 . S
C366 C364 1.389 . S
C366 C367 1.524 . S
C366 C380 1.377 . S
C367 C366 1.524 . S
C367 C368 1.397 . S
C367 C372 1.363 . S
C368 H345 0.950 . S
C368 C367 1.397 . S
C368 C369 1.334 . S
C369 H346 0.950 . S
C369 C368 1.334 . S
C369 C370 1.287 . S
C370 C369 1.287 . S
C370 C371 1.524 . S
C370 H389 0.913 . S
C371 H347 0.950 . S
C371 C370 1.524 . S
C371 C372 1.415 . S
C372 H348 0.950 . S
C372 C367 1.363 . S
C372 C371 1.415 . S
C373 H349 0.951 . S
C373 C374 1.366 . S
C373 C375 1.388 . S
C374 C373 1.366 . S
C374 C378 1.385 . S
C375 H350 0.951 . S
C375 C373 1.388 . S
C375 C376 1.366 1_545 S
C376 C375 1.366 1_565 S
C376 C377 1.414 . S
C376 C379 1.499 . S
C377 H351 0.950 . S
C377 C376 1.414 . S
C377 C378 1.374 1_565 S
C378 H352 0.950 . S
C378 C374 1.385 . S
C378 C377 1.374 1_545 S
C379 C376 1.499 . S
C379 C380 1.373 . S
C379 C381 1.389 . S
C380 H353 0.950 . S
C380 C366 1.377 . S
C380 C379 1.373 . S
C381 C365 1.377 . S
C381 C379 1.389 . S
C381 C382 1.486 1_565 S
C382 C381 1.486 1_545 S
C382 C383 1.411 . S
C382 C387 1.384 . S
C383 H354 0.950 . S
C383 C382 1.411 . S
C383 C384 1.334 . S
C384 H355 0.950 . S
C384 C383 1.334 . S
C384 C385 1.287 . S
C385 C384 1.287 . S
C385 C386 1.524 . S
C385 H388 0.999 . S
C386 H356 0.950 . S
C386 C385 1.524 . S
C386 C387 1.415 . S
C387 H357 0.950 . S
C387 C382 1.384 . S
C387 C386 1.415 . S
H388 C385 0.999 . S
H389 C370 0.913 . S
H390 C408 0.951 . S
H391 C410 0.951 . S
H392 C412 0.950 . S
H393 C413 0.950 . S
H394 C415 0.950 . S
H395 C418 0.950 . S
H396 C419 0.950 . S
H397 C421 0.950 . S
H398 C422 0.950 . S
H399 C423 0.951 . S
H400 C425 0.951 . S
H401 C427 0.950 . S
H402 C428 0.950 . S
H403 C430 0.950 . S
H404 C433 0.950 . S
H405 C434 0.950 . S
H406 C436 0.950 . S
H407 C437 0.950 . S
C408 H390 0.951 . S
C408 C409 1.366 . S
C408 C410 1.388 . S
C409 C408 1.366 . S
C409 C413 1.385 . S
C410 H391 0.951 . S
C410 C408 1.388 . S
C410 C411 1.366 . S
C411 C410 1.366 . S
C411 C412 1.414 . S
C411 C414 1.499 . S
C412 H392 0.950 . S
C412 C411 1.414 . S
C412 C413 1.374 . S
C413 H393 0.950 . S
C413 C409 1.385 . S
C413 C412 1.374 . S
C414 C411 1.499 . S
C414 C415 1.373 . S
C414 C416 1.389 . S
C415 H394 0.950 . S
C415 C414 1.373 . S
C415 C431 1.377 . S
C416 C414 1.389 . S
C416 C417 1.524 . S
C416 C430 1.377 . S
C417 C416 1.524 . S
C417 C418 1.397 . S
C417 C422 1.363 . S
C418 H395 0.950 . S
C418 C417 1.397 . S
C418 C419 1.334 . S
C419 H396 0.950 . S
C419 C418 1.334 . S
C419 C420 1.287 . S
C420 C419 1.287 . S
C420 C421 1.524 . S
C420 H439 0.913 . S
C421 H397 0.950 . S
C421 C420 1.524 . S
C421 C422 1.415 . S
C422 H398 0.950 . S
C422 C417 1.363 . S
C422 C421 1.415 . S
C423 H399 0.951 . S
C423 C424 1.366 . S
C423 C425 1.388 . S
C424 C423 1.366 . S
C424 C428 1.385 . S
C425 H400 0.951 . S
C425 C423 1.388 . S
C425 C426 1.366 . S
C426 C425 1.366 . S
C426 C427 1.414 . S
C426 C429 1.499 . S
C427 H401 0.950 . S
C427 C426 1.414 . S
C427 C428 1.374 . S
C428 H402 0.950 . S
C428 C424 1.385 . S
C428 C427 1.374 . S
C429 C426 1.499 . S
C429 C430 1.373 . S
C429 C431 1.389 . S
C430 H403 0.950 . S
C430 C416 1.377 . S
C430 C429 1.373 . S
C431 C415 1.377 . S
C431 C429 1.389 . S
C431 C432 1.524 . S
C432 C431 1.524 . S
C432 C433 1.397 . S
C432 C437 1.363 . S
C433 H404 0.950 . S
C433 C432 1.397 . S
C433 C434 1.334 . S
C434 H405 0.950 . S
C434 C433 1.334 . S
C434 C435 1.287 . S
C435 C434 1.287 . S
C435 C436 1.524 . S
C435 H438 0.999 . S
C436 H406 0.950 . S
C436 C435 1.524 . S
C436 C437 1.415 . S
C437 H407 0.950 . S
C437 C432 1.363 . S
C437 C436 1.415 . S
H438 C435 0.999 . S
H439 C420 0.913 . S
H440 C458 0.951 . S
H441 C460 0.951 . S
H442 C462 0.950 . S
H443 C463 0.950 . S
H444 C465 0.950 . S
H445 C468 0.950 . S
H446 C469 0.950 . S
H447 C471 0.950 . S
H448 C472 0.950 . S
H449 C473 0.951 . S
H450 C475 0.951 . S
H451 C477 0.950 . S
H452 C478 0.950 . S
H453 C480 0.950 . S
H454 C483 0.950 . S
H455 C484 0.940 1_556 S
H456 C486 0.950 . S
H457 C487 0.950 . S
C458 H440 0.951 . S
C458 C459 1.366 . S
C458 C460 1.388 . S
C459 C458 1.366 . S
C459 C463 1.385 . S
C460 H441 0.951 . S
C460 C458 1.388 . S
C460 C461 1.366 . S
C461 C460 1.366 . S
C461 C462 1.414 . S
C461 C464 1.499 . S
C462 H442 0.950 . S
C462 C461 1.414 . S
C462 C463 1.374 . S
C463 H443 0.950 . S
C463 C459 1.385 . S
C463 C462 1.374 . S
C464 C461 1.499 . S
C464 C465 1.373 . S
C464 C466 1.389 . S
C465 H444 0.950 . S
C465 C464 1.373 . S
C465 C481 1.377 . S
C466 C464 1.389 . S
C466 C467 1.524 . S
C466 C480 1.377 . S
C467 C466 1.524 . S
C467 C468 1.397 . S
C467 C472 1.363 . S
C468 H445 0.950 . S
C468 C467 1.397 . S
C468 C469 1.334 . S
C469 H446 0.950 . S
C469 C468 1.334 . S
C469 C470 1.287 . S
C470 C469 1.287 . S
C470 C471 1.524 . S
C470 H489 0.913 . S
C471 H447 0.950 . S
C471 C470 1.524 . S
C471 C472 1.415 . S
C472 H448 0.950 . S
C472 C467 1.363 . S
C472 C471 1.415 . S
C473 H449 0.951 . S
C473 C474 1.366 . S
C473 C475 1.388 . S
C474 C473 1.366 . S
C474 C478 1.385 . S
C475 H450 0.951 . S
C475 C473 1.388 . S
C475 C476 1.366 . S
C476 C475 1.366 . S
C476 C477 1.414 . S
C476 C479 1.499 1_565 S
C477 H451 0.950 . S
C477 C476 1.414 . S
C477 C478 1.374 . S
C478 H452 0.950 . S
C478 C474 1.385 . S
C478 C477 1.374 . S
C479 C476 1.499 1_545 S
C479 C480 1.373 . S
C479 C481 1.389 . S
C480 H453 0.950 . S
C480 C466 1.377 . S
C480 C479 1.373 . S
C481 C465 1.377 . S
C481 C479 1.389 . S
C481 C482 1.524 1_545 S
C482 C481 1.524 1_565 S
C482 C483 1.397 . S
C482 C487 1.363 . S
C483 H454 0.950 . S
C483 C482 1.397 . S
C483 C484 1.334 . S
C484 H455 0.940 1_554 S
C484 C483 1.334 . S
C484 C485 1.287 . S
C485 C484 1.287 . S
C485 C486 1.524 . S
C485 H488 0.999 1_554 S
C486 H456 0.950 . S
C486 C485 1.524 . S
C486 C487 1.415 . S
C487 H457 0.950 . S
C487 C482 1.363 . S
C487 C486 1.415 . S
H488 C485 0.999 1_556 S
H489 C470 0.913 . S
H490 C508 0.951 . S
H491 C510 0.951 . S
H492 C512 0.950 . S
H493 C513 0.950 . S
H494 C515 0.950 . S
H495 C518 0.950 . S
H496 C519 0.950 . S
H497 C521 0.950 . S
H498 C522 0.950 . S
H499 C523 0.951 . S
H500 C525 0.951 . S
H501 C527 0.950 . S
H502 C528 0.950 . S
H503 C530 0.950 . S
H504 C533 0.950 . S
H505 C534 0.950 . S
H506 C536 0.950 . S
H507 C537 0.950 . S
C508 H490 0.951 . S
C508 C509 1.366 . S
C508 C510 1.388 . S
C509 C508 1.366 . S
C509 C513 1.385 . S
C510 H491 0.951 . S
C510 C508 1.388 . S
C510 C511 1.366 . S
C511 C510 1.366 . S
C511 C512 1.414 . S
C511 C514 1.499 . S
C512 H492 0.950 . S
C512 C511 1.414 . S
C512 C513 1.374 . S
C513 H493 0.950 . S
C513 C509 1.385 . S
C513 C512 1.374 . S
C514 C511 1.499 . S
C514 C515 1.373 . S
C514 C516 1.389 . S
C515 H494 0.950 . S
C515 C514 1.373 . S
C515 C531 1.377 . S
C516 C514 1.389 . S
C516 C517 1.524 . S
C516 C530 1.377 . S
C517 C516 1.524 . S
C517 C518 1.397 . S
C517 C522 1.363 . S
C518 H495 0.950 . S
C518 C517 1.397 . S
C518 C519 1.334 . S
C519 H496 0.950 . S
C519 C518 1.334 . S
C519 C520 1.287 . S
C520 C519 1.287 . S
C520 C521 1.524 . S
C520 H539 0.913 . S
C521 H497 0.950 . S
C521 C520 1.524 . S
C521 C522 1.415 . S
C522 H498 0.950 . S
C522 C517 1.363 . S
C522 C521 1.415 . S
C523 H499 0.951 . S
C523 C524 1.366 . S
C523 C525 1.388 . S
C524 C523 1.366 . S
C524 C528 1.385 . S
C525 H500 0.951 . S
C525 C523 1.388 . S
C525 C526 1.366 . S
C526 C525 1.366 . S
C526 C527 1.414 . S
C526 C529 1.499 . S
C527 H501 0.950 . S
C527 C526 1.414 . S
C527 C528 1.374 . S
C528 H502 0.950 . S
C528 C524 1.385 . S
C528 C527 1.374 . S
C529 C526 1.499 . S
C529 C530 1.373 . S
C529 C531 1.389 . S
C530 H503 0.950 . S
C530 C516 1.377 . S
C530 C529 1.373 . S
C531 C515 1.377 . S
C531 C529 1.389 . S
C531 C532 1.524 . S
C532 C531 1.524 . S
C532 C533 1.397 . S
C532 C537 1.363 . S
C533 H504 0.950 . S
C533 C532 1.397 . S
C533 C534 1.334 . S
C534 H505 0.950 . S
C534 C533 1.334 . S
C534 C535 1.287 . S
C535 C534 1.287 . S
C535 C536 1.524 . S
C535 H538 0.999 . S
C536 H506 0.950 . S
C536 C535 1.524 . S
C536 C537 1.415 . S
C537 H507 0.950 . S
C537 C532 1.363 . S
C537 C536 1.415 . S
H538 C535 0.999 . S
H539 C520 0.913 . S
H540 C558 0.951 . S
H541 C560 0.951 . S
H542 C562 0.950 . S
H543 C563 0.950 . S
H544 C565 0.950 . S
H545 C568 0.950 . S
H546 C569 0.950 . S
H547 C571 0.950 . S
H548 C572 0.950 . S
H549 C573 0.951 . S
H550 C575 0.951 . S
H551 C577 0.950 . S
H552 C578 0.950 . S
H553 C580 0.950 . S
H554 C583 0.950 . S
H555 C584 0.950 . S
H556 C586 0.950 . S
H557 C587 0.950 . S
C558 H540 0.951 . S
C558 C559 1.366 . S
C558 C560 1.388 . S
C559 C558 1.366 . S
C559 C563 1.385 . S
C560 H541 0.951 . S
C560 C558 1.388 . S
C560 C561 1.366 . S
C561 C560 1.366 . S
C561 C562 1.414 . S
C561 C564 1.499 . S
C562 H542 0.950 . S
C562 C561 1.414 . S
C562 C563 1.374 . S
C563 H543 0.950 . S
C563 C559 1.385 . S
C563 C562 1.374 . S
C564 C561 1.499 . S
C564 C565 1.373 . S
C564 C566 1.389 . S
C565 H544 0.950 . S
C565 C564 1.373 . S
C565 C581 1.377 . S
C566 C564 1.389 . S
C566 C567 1.524 . S
C566 C580 1.377 . S
C567 C566 1.524 . S
C567 C568 1.397 . S
C567 C572 1.363 . S
C568 H545 0.950 . S
C568 C567 1.397 . S
C568 C569 1.334 . S
C569 H546 0.950 . S
C569 C568 1.334 . S
C569 C570 1.287 . S
C570 C569 1.287 . S
C570 C571 1.524 . S
C570 H589 0.913 . S
C571 H547 0.950 . S
C571 C570 1.524 . S
C571 C572 1.415 . S
C572 H548 0.950 . S
C572 C567 1.363 . S
C572 C571 1.415 . S
C573 H549 0.951 . S
C573 C574 1.366 . S
C573 C575 1.388 . S
C574 C573 1.366 . S
C574 C578 1.385 . S
C575 H550 0.951 . S
C575 C573 1.388 . S
C575 C576 1.366 . S
C576 C575 1.366 . S
C576 C577 1.414 . S
C576 C579 1.499 . S
C577 H551 0.950 . S
C577 C576 1.414 . S
C577 C578 1.374 . S
C578 H552 0.950 . S
C578 C574 1.385 . S
C578 C577 1.374 . S
C579 C576 1.499 . S
C579 C580 1.373 . S
C579 C581 1.389 . S
C580 H553 0.950 . S
C580 C566 1.377 . S
C580 C579 1.373 . S
C581 C565 1.377 . S
C581 C579 1.389 . S
C581 C582 1.524 . S
C582 C581 1.524 . S
C582 C583 1.397 . S
C582 C587 1.363 . S
C583 H554 0.950 . S
C583 C582 1.397 . S
C583 C584 1.334 . S
C584 H555 0.950 . S
C584 C583 1.334 . S
C584 C585 1.287 . S
C585 C584 1.287 . S
C585 C586 1.524 . S
C585 H588 0.999 . S
C586 H556 0.950 . S
C586 C585 1.524 . S
C586 C587 1.415 . S
C587 H557 0.950 . S
C587 C582 1.363 . S
C587 C586 1.415 . S
H588 C585 0.999 . S
H589 C570 0.913 . S
H590 C608 0.951 1_554 S
H591 C610 0.951 1_554 S
H592 C612 0.950 . S
H593 C613 0.950 . S
H594 C615 0.950 . S
H595 C618 0.950 . S
H596 C619 0.950 . S
H597 C621 0.950 . S
H598 C622 0.950 1_455 S
H599 C623 0.951 . S
H600 C625 0.951 . S
H601 C627 0.950 . S
H602 C628 0.950 . S
H603 C630 0.950 1_554 S
H604 C633 0.950 . S
H605 C634 0.950 . S
H606 C636 0.950 . S
H607 C637 0.944 1_655 S
C608 H590 0.951 1_556 S
C608 C609 1.366 . S
C608 C610 1.388 . S
C609 C608 1.366 . S
C609 C613 1.385 . S
C610 H591 0.951 1_556 S
C610 C608 1.388 . S
C610 C611 1.366 . S
C611 C610 1.366 . S
C611 C612 1.414 . S
C611 C614 1.499 . S
C612 H592 0.950 . S
C612 C611 1.414 . S
C612 C613 1.374 . S
C613 H593 0.950 . S
C613 C609 1.385 . S
C613 C612 1.374 . S
C614 C611 1.499 . S
C614 C615 1.373 . S
C614 C616 1.389 . S
C615 H594 0.950 . S
C615 C614 1.373 . S
C615 C631 1.377 1_655 S
C616 C614 1.389 . S
C616 C617 1.524 1_556 S
C616 C630 1.377 1_655 S
C617 C616 1.524 1_554 S
C617 C618 1.397 . S
C617 C622 1.363 . S
C618 H595 0.950 . S
C618 C617 1.397 . S
C618 C619 1.334 . S
C619 H596 0.950 . S
C619 C618 1.334 . S
C619 C620 1.287 . S
C620 C619 1.287 . S
C620 C621 1.524 . S
C620 H639 0.913 . S
C621 H597 0.950 . S
C621 C620 1.524 . S
C621 C622 1.415 . S
C622 H598 0.950 1_655 S
C622 C617 1.363 . S
C622 C621 1.415 . S
C623 H599 0.951 . S
C623 C624 1.366 . S
C623 C625 1.388 . S
C624 C623 1.366 . S
C624 C628 1.385 . S
C625 H600 0.951 . S
C625 C623 1.388 . S
C625 C626 1.366 . S
C626 C625 1.366 . S
C626 C627 1.414 . S
C626 C629 1.499 . S
C627 H601 0.950 . S
C627 C626 1.414 . S
C627 C628 1.374 . S
C628 H602 0.950 . S
C628 C624 1.385 . S
C628 C627 1.374 . S
C629 C626 1.499 . S
C629 C630 1.373 . S
C629 C631 1.389 . S
C630 H603 0.950 1_556 S
C630 C616 1.377 1_455 S
C630 C629 1.373 . S
C631 C615 1.377 1_455 S
C631 C629 1.389 . S
C631 C632 1.524 . S
C632 C631 1.524 . S
C632 C633 1.397 . S
C632 C637 1.363 . S
C633 H604 0.950 . S
C633 C632 1.397 . S
C633 C634 1.334 . S
C634 H605 0.950 . S
C634 C633 1.334 . S
C634 C635 1.287 . S
C635 C634 1.287 . S
C635 C636 1.524 . S
C635 H638 0.999 . S
C636 H606 0.950 . S
C636 C635 1.524 . S
C636 C637 1.415 . S
C637 H607 0.944 1_455 S
C637 C632 1.363 . S
C637 C636 1.415 . S
H638 C635 0.999 . S
H639 C620 0.913 . S
H640 C658 0.951 . S
H641 C660 0.951 . S
H642 C662 0.950 . S
H643 C663 0.950 . S
H644 C665 0.950 . S
H645 C668 0.950 . S
H646 C669 0.950 . S
H647 C671 0.950 . S
H648 C672 0.950 . S
H649 C673 0.951 . S
H650 C675 0.951 . S
H651 C677 0.950 . S
H652 C678 0.950 . S
H653 C680 0.950 . S
H654 C683 0.950 . S
H655 C684 0.950 . S
H656 C686 0.950 . S
H657 C687 0.950 . S
C658 H640 0.951 . S
C658 C659 1.366 . S
C658 C660 1.388 . S
C659 C658 1.366 . S
C659 C663 1.385 . S
C660 H641 0.951 . S
C660 C658 1.388 . S
C660 C661 1.366 . S
C661 C660 1.366 . S
C661 C662 1.414 . S
C661 C664 1.499 . S
C662 H642 0.950 . S
C662 C661 1.414 . S
C662 C663 1.374 . S
C663 H643 0.950 . S
C663 C659 1.385 . S
C663 C662 1.374 . S
C664 C661 1.499 . S
C664 C665 1.373 . S
C664 C666 1.389 . S
C665 H644 0.950 . S
C665 C664 1.373 . S
C665 C681 1.377 . S
C666 C664 1.389 . S
C666 C667 1.524 . S
C666 C680 1.377 . S
C667 C666 1.524 . S
C667 C668 1.397 . S
C667 C672 1.363 . S
C668 H645 0.950 . S
C668 C667 1.397 . S
C668 C669 1.334 . S
C669 H646 0.950 . S
C669 C668 1.334 . S
C669 C670 1.287 . S
C670 C669 1.287 . S
C670 C671 1.524 . S
C670 H689 0.913 . S
C671 H647 0.950 . S
C671 C670 1.524 . S
C671 C672 1.415 . S
C672 H648 0.950 . S
C672 C667 1.363 . S
C672 C671 1.415 . S
C673 H649 0.951 . S
C673 C674 1.366 . S
C673 C675 1.388 . S
C674 C673 1.366 . S
C674 C678 1.385 . S
C675 H650 0.951 . S
C675 C673 1.388 . S
C675 C676 1.366 . S
C676 C675 1.366 . S
C676 C677 1.414 . S
C676 C679 1.499 . S
C677 H651 0.950 . S
C677 C676 1.414 . S
C677 C678 1.374 . S
C678 H652 0.950 . S
C678 C674 1.385 . S
C678 C677 1.374 . S
C679 C676 1.499 . S
C679 C680 1.373 . S
C679 C681 1.389 . S
C680 H653 0.950 . S
C680 C666 1.377 . S
C680 C679 1.373 . S
C681 C665 1.377 . S
C681 C679 1.389 . S
C681 C682 1.524 . S
C682 C681 1.524 . S
C682 C683 1.397 . S
C682 C687 1.363 . S
C683 H654 0.950 . S
C683 C682 1.397 . S
C683 C684 1.334 . S
C684 H655 0.950 . S
C684 C683 1.334 . S
C684 C685 1.287 . S
C685 C684 1.287 . S
C685 C686 1.524 . S
C685 H688 0.999 . S
C686 H656 0.950 . S
C686 C685 1.524 . S
C686 C687 1.415 . S
C687 H657 0.950 . S
C687 C682 1.363 . S
C687 C686 1.415 . S
H688 C685 0.999 . S
H689 C670 0.913 . S
H690 C708 0.951 . S
H691 C710 0.951 . S
H692 C712 0.950 . S
H693 C713 0.950 1_554 S
H694 C715 0.950 . S
H695 C718 0.950 . S
H696 C719 0.950 . S
H697 C721 0.950 . S
H698 C722 0.950 . S
H699 C723 0.951 . S
H700 C725 0.942 1_655 S
H701 C727 0.950 . S
H702 C728 0.950 . S
H703 C730 0.950 . S
H704 C733 0.950 . S
H705 C734 0.950 . S
H706 C736 0.950 . S
H707 C737 0.950 . S
C708 H690 0.951 . S
C708 C709 1.366 . S
C708 C710 1.388 . S
C709 C708 1.366 . S
C709 C713 1.385 . S
C710 H691 0.951 . S
C710 C708 1.388 . S
C710 C711 1.366 . S
C711 C710 1.366 . S
C711 C712 1.414 . S
C711 C714 1.499 . S
C712 H692 0.950 . S
C712 C711 1.414 . S
C712 C713 1.374 . S
C713 H693 0.950 1_556 S
C713 C709 1.385 . S
C713 C712 1.374 . S
C714 C711 1.499 . S
C714 C715 1.373 . S
C714 C716 1.389 . S
C715 H694 0.950 . S
C715 C714 1.373 . S
C715 C731 1.377 . S
C716 C714 1.389 . S
C716 C717 1.524 . S
C716 C730 1.377 . S
C717 C716 1.524 . S
C717 C718 1.397 . S
C717 C722 1.363 . S
C718 H695 0.950 . S
C718 C717 1.397 . S
C718 C719 1.334 . S
C719 H696 0.950 . S
C719 C718 1.334 . S
C719 C720 1.287 . S
C720 C719 1.287 . S
C720 C721 1.524 . S
C720 H739 0.913 . S
C721 H697 0.950 . S
C721 C720 1.524 . S
C721 C722 1.415 . S
C722 H698 0.950 . S
C722 C717 1.363 . S
C722 C721 1.415 . S
C723 H699 0.951 . S
C723 C724 1.366 1_655 S
C723 C725 1.388 1_655 S
C724 C723 1.366 1_455 S
C724 C728 1.385 . S
C725 H700 0.942 1_455 S
C725 C723 1.388 1_455 S
C725 C726 1.366 . S
C726 C725 1.366 . S
C726 C727 1.414 . S
C726 C729 1.499 . S
C727 H701 0.950 . S
C727 C726 1.414 . S
C727 C728 1.374 . S
C728 H702 0.950 . S
C728 C724 1.385 . S
C728 C727 1.374 . S
C729 C726 1.499 . S
C729 C730 1.373 . S
C729 C731 1.389 . S
C730 H703 0.950 . S
C730 C716 1.377 . S
C730 C729 1.373 . S
C731 C715 1.377 . S
C731 C729 1.389 . S
C731 C732 1.524 . S
C732 C731 1.524 . S
C732 C733 1.397 . S
C732 C737 1.363 1_455 S
C733 H704 0.950 . S
C733 C732 1.397 . S
C733 C734 1.334 1_455 S
C734 H705 0.950 . S
C734 C733 1.334 1_655 S
C734 C735 1.287 . S
C735 C734 1.287 . S
C735 C736 1.524 . S
C735 H738 0.999 . S
C736 H706 0.950 . S
C736 C735 1.524 . S
C736 C737 1.415 . S
C737 H707 0.950 . S
C737 C732 1.363 1_655 S
C737 C736 1.415 . S
H738 C735 0.999 . S
H739 C720 0.913 . S
H740 C758 0.951 . S
H741 C760 0.951 . S
H742 C762 0.950 . S
H743 C763 0.950 . S
H744 C765 0.950 . S
H745 C768 0.950 . S
H746 C769 0.950 . S
H747 C771 0.950 . S
H748 C772 0.950 . S
H749 C773 0.951 . S
H750 C775 0.951 . S
H751 C777 0.950 . S
H752 C778 0.950 . S
H753 C780 0.950 . S
H754 C783 0.950 . S
H755 C784 0.950 . S
H756 C786 0.950 . S
H757 C787 0.950 . S
C758 H740 0.951 . S
C758 C759 1.366 . S
C758 C760 1.388 . S
C759 C758 1.366 . S
C759 C763 1.385 . S
C760 H741 0.951 . S
C760 C758 1.388 . S
C760 C761 1.366 . S
C761 C760 1.366 . S
C761 C762 1.414 . S
C761 C764 1.499 . S
C762 H742 0.950 . S
C762 C761 1.414 . S
C762 C763 1.374 . S
C763 H743 0.950 . S
C763 C759 1.385 . S
C763 C762 1.374 . S
C764 C761 1.499 . S
C764 C765 1.373 . S
C764 C766 1.389 . S
C765 H744 0.950 . S
C765 C764 1.373 . S
C765 C781 1.377 . S
C766 C764 1.389 . S
C766 C767 1.524 . S
C766 C780 1.377 1_545 S
C767 C766 1.524 . S
C767 C768 1.397 . S
C767 C772 1.363 . S
C768 H745 0.950 . S
C768 C767 1.397 . S
C768 C769 1.334 . S
C769 H746 0.950 . S
C769 C768 1.334 . S
C769 C770 1.287 . S
C770 C769 1.287 . S
C770 C771 1.524 . S
C770 H789 0.913 . S
C771 H747 0.950 . S
C771 C770 1.524 . S
C771 C772 1.415 . S
C772 H748 0.950 . S
C772 C767 1.363 . S
C772 C771 1.415 . S
C773 H749 0.951 . S
C773 C774 1.366 . S
C773 C775 1.388 . S
C774 C773 1.366 . S
C774 C778 1.385 . S
C775 H750 0.951 . S
C775 C773 1.388 . S
C775 C776 1.366 . S
C776 C775 1.366 . S
C776 C777 1.414 . S
C776 C779 1.499 . S
C777 H751 0.950 . S
C777 C776 1.414 . S
C777 C778 1.374 . S
C778 H752 0.950 . S
C778 C774 1.385 . S
C778 C777 1.374 . S
C779 C776 1.499 . S
C779 C780 1.373 . S
C779 C781 1.389 1_565 S
C780 H753 0.950 . S
C780 C766 1.377 1_565 S
C780 C779 1.373 . S
C781 C765 1.377 . S
C781 C779 1.389 1_545 S
C781 C782 1.524 . S
C782 C781 1.524 . S
C782 C783 1.397 . S
C782 C787 1.363 . S
C783 H754 0.950 . S
C783 C782 1.397 . S
C783 C784 1.334 . S
C784 H755 0.950 . S
C784 C783 1.334 . S
C784 C785 1.287 . S
C785 C784 1.287 . S
C785 C786 1.524 . S
C785 H788 0.999 . S
C786 H756 0.950 . S
C786 C785 1.524 . S
C786 C787 1.415 . S
C787 H757 0.950 . S
C787 C782 1.363 . S
C787 C786 1.415 . S
H788 C785 0.999 . S
H789 C770 0.913 . S
H790 C808 0.951 . S
H791 C810 0.951 . S
H792 C812 0.950 . S
H793 C813 0.950 . S
H794 C815 0.950 . S
H795 C818 0.950 . S
H796 C819 0.950 . S
H797 C821 0.950 . S
H798 C822 0.950 . S
H799 C823 0.951 . S
H800 C825 0.951 . S
H801 C827 0.950 . S
H802 C828 0.950 . S
H803 C830 0.950 . S
H804 C833 0.950 . S
H805 C834 0.950 . S
H806 C836 0.950 . S
H807 C837 0.950 . S
C808 H790 0.951 . S
C808 C809 1.366 . S
C808 C810 1.388 . S
C809 C808 1.366 . S
C809 C813 1.385 . S
C810 H791 0.951 . S
C810 C808 1.388 . S
C810 C811 1.366 . S
C811 C810 1.366 . S
C811 C812 1.414 . S
C811 C814 1.499 . S
C812 H792 0.950 . S
C812 C811 1.414 . S
C812 C813 1.374 . S
C813 H793 0.950 . S
C813 C809 1.385 . S
C813 C812 1.374 . S
C814 C811 1.499 . S
C814 C815 1.373 . S
C814 C816 1.389 . S
C815 H794 0.950 . S
C815 C814 1.373 . S
C815 C831 1.377 . S
C816 C814 1.389 . S
C816 C817 1.524 . S
C816 C830 1.377 . S
C817 C816 1.524 . S
C817 C818 1.397 . S
C817 C822 1.363 . S
C818 H795 0.950 . S
C818 C817 1.397 . S
C818 C819 1.334 . S
C819 H796 0.950 . S
C819 C818 1.334 . S
C819 C820 1.287 . S
C820 C819 1.287 . S
C820 C821 1.524 . S
C820 H839 0.913 . S
C821 H797 0.950 . S
C821 C820 1.524 . S
C821 C822 1.415 . S
C822 H798 0.950 . S
C822 C817 1.363 . S
C822 C821 1.415 . S
C823 H799 0.951 . S
C823 C824 1.366 . S
C823 C825 1.388 . S
C824 C823 1.366 . S
C824 C828 1.385 . S
C825 H800 0.951 . S
C825 C823 1.388 . S
C825 C826 1.366 . S
C826 C825 1.366 . S
C826 C827 1.414 . S
C826 C829 1.499 . S
C827 H801 0.950 . S
C827 C826 1.414 . S
C827 C828 1.374 . S
C828 H802 0.950 . S
C828 C824 1.385 . S
C828 C827 1.374 . S
C829 C826 1.499 . S
C829 C830 1.373 . S
C829 C831 1.389 . S
C830 H803 0.950 . S
C830 C816 1.377 . S
C830 C829 1.373 . S
C831 C815 1.377 . S
C831 C829 1.389 . S
C831 C832 1.524 . S
C832 C831 1.524 . S
C832 C833 1.397 . S
C832 C837 1.363 . S
C833 H804 0.950 . S
C833 C832 1.397 . S
C833 C834 1.334 . S
C834 H805 0.950 . S
C834 C833 1.334 . S
C834 C835 1.287 . S
C835 C834 1.287 . S
C835 C836 1.524 . S
C835 H838 0.999 . S
C836 H806 0.950 . S
C836 C835 1.524 . S
C836 C837 1.415 . S
C837 H807 0.950 . S
C837 C832 1.363 . S
C837 C836 1.415 . S
H838 C835 0.999 . S
H839 C820 0.913 . S
H840 C858 0.951 . S
H841 C860 0.950 . S
H842 C862 0.947 1_556 S
H843 C863 0.950 . S
H844 C865 0.950 . S
H845 C868 0.950 . S
H846 C869 0.950 . S
H847 C871 0.950 . S
H848 C872 0.950 1_545 S
H849 C873 0.951 . S
H850 C875 0.951 . S
H851 C877 0.950 . S
H852 C878 0.950 . S
H853 C880 0.950 . S
H854 C883 0.950 . S
H855 C884 0.950 . S
H856 C886 0.950 . S
H857 C887 0.950 . S
C858 H840 0.951 . S
C858 C859 1.366 . S
C858 C860 1.388 . S
C859 C858 1.366 . S
C859 C863 1.385 . S
C860 H841 0.950 . S
C860 C858 1.388 . S
C860 C861 1.366 1_554 S
C861 C860 1.366 1_556 S
C861 C862 1.414 1_556 S
C861 C864 1.499 . S
C862 H842 0.947 1_554 S
C862 C861 1.414 1_554 S
C862 C863 1.374 . S
C863 H843 0.950 . S
C863 C859 1.385 . S
C863 C862 1.374 . S
C864 C861 1.499 . S
C864 C865 1.373 1_556 S
C864 C866 1.389 . S
C865 H844 0.950 . S
C865 C864 1.373 1_554 S
C865 C881 1.377 1_565 S
C866 C864 1.389 . S
C866 C867 1.524 . S
C866 C880 1.377 1_565 S
C867 C866 1.524 . S
C867 C868 1.397 . S
C867 C872 1.363 . S
C868 H845 0.950 . S
C868 C867 1.397 . S
C868 C869 1.334 . S
C869 H846 0.950 . S
C869 C868 1.334 . S
C869 C870 1.287 . S
C870 C869 1.287 . S
C870 C871 1.524 . S
C870 H889 0.913 . S
C871 H847 0.950 . S
C871 C870 1.524 . S
C871 C872 1.415 . S
C872 H848 0.950 1_565 S
C872 C867 1.363 . S
C872 C871 1.415 . S
C873 H849 0.951 . S
C873 C874 1.366 . S
C873 C875 1.388 . S
C874 C873 1.366 . S
C874 C878 1.385 . S
C875 H850 0.951 . S
C875 C873 1.388 . S
C875 C876 1.366 . S
C876 C875 1.366 . S
C876 C877 1.414 . S
C876 C879 1.499 . S
C877 H851 0.950 . S
C877 C876 1.414 . S
C877 C878 1.374 . S
C878 H852 0.950 . S
C878 C874 1.385 . S
C878 C877 1.374 . S
C879 C876 1.499 . S
C879 C880 1.373 . S
C879 C881 1.389 1_556 S
C880 H853 0.950 . S
C880 C866 1.377 1_545 S
C880 C879 1.373 . S
C881 C865 1.377 1_545 S
C881 C879 1.389 1_554 S
C881 C882 1.524 . S
C882 C881 1.524 . S
C882 C883 1.397 . S
C882 C887 1.363 . S
C883 H854 0.950 . S
C883 C882 1.397 . S
C883 C884 1.334 . S
C884 H855 0.950 . S
C884 C883 1.334 . S
C884 C885 1.287 . S
C885 C884 1.287 . S
C885 C886 1.524 . S
C885 H888 0.999 . S
C886 H856 0.950 . S
C886 C885 1.524 . S
C886 C887 1.415 . S
C887 H857 0.950 . S
C887 C882 1.363 . S
C887 C886 1.415 . S
H888 C885 0.999 . S
H889 C870 0.913 . S
H890 C908 0.951 . S
H891 C910 0.951 . S
H892 C912 0.950 . S
H893 C913 0.950 . S
H894 C915 0.950 . S
H895 C918 0.950 . S
H896 C919 0.950 . S
H897 C921 0.950 . S
H898 C922 0.950 . S
H899 C923 0.951 . S
H900 C925 0.951 . S
H901 C927 0.950 . S
H902 C928 0.950 . S
H903 C930 0.950 . S
H904 C933 0.950 . S
H905 C934 0.950 . S
H906 C936 0.950 . S
H907 C937 0.950 . S
C908 H890 0.951 . S
C908 C909 1.366 . S
C908 C910 1.388 . S
C909 C908 1.366 . S
C909 C913 1.385 . S
C910 H891 0.951 . S
C910 C908 1.388 . S
C910 C911 1.366 . S
C911 C910 1.366 . S
C911 C912 1.414 . S
C911 C914 1.499 . S
C912 H892 0.950 . S
C912 C911 1.414 . S
C912 C913 1.374 . S
C913 H893 0.950 . S
C913 C909 1.385 . S
C913 C912 1.374 . S
C914 C911 1.499 . S
C914 C915 1.373 . S
C914 C916 1.389 . S
C915 H894 0.950 . S
C915 C914 1.373 . S
C915 C931 1.377 . S
C916 C914 1.389 . S
C916 C917 1.524 . S
C916 C930 1.377 . S
C917 C916 1.524 . S
C917 C918 1.397 . S
C917 C922 1.363 . S
C918 H895 0.950 . S
C918 C917 1.397 . S
C918 C919 1.334 . S
C919 H896 0.950 . S
C919 C918 1.334 . S
C919 C920 1.287 . S
C920 C919 1.287 . S
C920 C921 1.524 . S
C920 H939 0.913 . S
C921 H897 0.950 . S
C921 C920 1.524 . S
C921 C922 1.415 . S
C922 H898 0.950 . S
C922 C917 1.363 . S
C922 C921 1.415 . S
C923 H899 0.951 . S
C923 C924 1.366 . S
C923 C925 1.388 . S
C924 C923 1.366 . S
C924 C928 1.385 . S
C925 H900 0.951 . S
C925 C923 1.388 . S
C925 C926 1.366 . S
C926 C925 1.366 . S
C926 C927 1.414 . S
C926 C929 1.499 . S
C927 H901 0.950 . S
C927 C926 1.414 . S
C927 C928 1.374 . S
C928 H902 0.950 . S
C928 C924 1.385 . S
C928 C927 1.374 . S
C929 C926 1.499 . S
C929 C930 1.373 . S
C929 C931 1.389 . S
C930 H903 0.950 . S
C930 C916 1.377 . S
C930 C929 1.373 . S
C931 C915 1.377 . S
C931 C929 1.389 . S
C931 C932 1.524 . S
C932 C931 1.524 . S
C932 C933 1.397 . S
C932 C937 1.363 . S
C933 H904 0.950 . S
C933 C932 1.397 . S
C933 C934 1.334 . S
C934 H905 0.950 . S
C934 C933 1.334 . S
C934 C935 1.287 . S
C935 C934 1.287 . S
C935 C936 1.524 . S
C935 H938 0.999 . S
C936 H906 0.950 . S
C936 C935 1.524 . S
C936 C937 1.415 . S
C937 H907 0.950 . S
C937 C932 1.363 . S
C937 C936 1.415 . S
H938 C935 0.999 . S
H939 C920 0.913 . S
H940 C958 0.951 . S
H941 C960 0.951 . S
H942 C962 0.950 . S
H943 C963 0.950 . S
H944 C965 0.950 . S
H945 C968 0.950 . S
H946 C969 0.950 . S
H947 C971 0.950 . S
H948 C972 0.950 . S
H949 C973 0.951 . S
H950 C975 0.951 . S
H951 C977 0.950 . S
H952 C978 0.950 . S
H953 C980 0.950 . S
H954 C983 0.950 . S
H955 C984 0.950 . S
H956 C986 0.950 . S
H957 C987 0.950 . S
C958 H940 0.951 . S
C958 C959 1.366 . S
C958 C960 1.388 . S
C959 C958 1.366 . S
C959 C963 1.385 . S
C960 H941 0.951 . S
C960 C958 1.388 . S
C960 C961 1.366 . S
C961 C960 1.366 . S
C961 C962 1.414 . S
C961 C964 1.499 . S
C962 H942 0.950 . S
C962 C961 1.414 . S
C962 C963 1.374 . S
C963 H943 0.950 . S
C963 C959 1.385 . S
C963 C962 1.374 . S
C964 C961 1.499 . S
C964 C965 1.373 . S
C964 C966 1.389 . S
C965 H944 0.950 . S
C965 C964 1.373 . S
C965 C981 1.377 . S
C966 C964 1.389 . S
C966 C967 1.524 . S
C966 C980 1.377 . S
C967 C966 1.524 . S
C967 C968 1.397 . S
C967 C972 1.363 . S
C968 H945 0.950 . S
C968 C967 1.397 . S
C968 C969 1.334 . S
C969 H946 0.950 . S
C969 C968 1.334 . S
C969 C970 1.287 . S
C970 C969 1.287 . S
C970 C971 1.524 . S
C970 H989 0.913 . S
C971 H947 0.950 . S
C971 C970 1.524 . S
C971 C972 1.415 . S
C972 H948 0.950 . S
C972 C967 1.363 . S
C972 C971 1.415 . S
C973 H949 0.951 . S
C973 C974 1.366 . S
C973 C975 1.388 . S
C974 C973 1.366 . S
C974 C978 1.385 . S
C975 H950 0.951 . S
C975 C973 1.388 . S
C975 C976 1.366 . S
C976 C975 1.366 . S
C976 C977 1.414 . S
C976 C979 1.499 . S
C977 H951 0.950 . S
C977 C976 1.414 . S
C977 C978 1.374 . S
C978 H952 0.950 . S
C978 C974 1.385 . S
C978 C977 1.374 . S
C979 C976 1.499 . S
C979 C980 1.373 . S
C979 C981 1.389 . S
C980 H953 0.950 . S
C980 C966 1.377 . S
C980 C979 1.373 . S
C981 C965 1.377 . S
C981 C979 1.389 . S
C981 C982 1.524 . S
C982 C981 1.524 . S
C982 C983 1.397 . S
C982 C987 1.363 . S
C983 H954 0.950 . S
C983 C982 1.397 . S
C983 C984 1.334 . S
C984 H955 0.950 . S
C984 C983 1.334 . S
C984 C985 1.287 . S
C985 C984 1.287 . S
C985 C986 1.524 . S
C985 H988 0.999 . S
C986 H956 0.950 . S
C986 C985 1.524 . S
C986 C987 1.415 . S
C987 H957 0.950 . S
C987 C982 1.363 . S
C987 C986 1.415 . S
H988 C985 0.999 . S
H989 C970 0.913 . S
H990 C1008 0.951 . S
H991 C1010 0.951 . S
H992 C1012 0.950 . S
H993 C1013 0.950 . S
H994 C1015 0.950 . S
H995 C1018 0.950 . S
H996 C1019 0.950 . S
H997 C1021 0.950 . S
H998 C1022 0.950 . S
H999 C1023 0.951 . S
H1000 C1025 0.951 . S
H1001 C1027 0.950 . S
H1002 C1028 0.950 . S
H1003 C1030 0.950 . S
H1004 C1033 0.950 . S
H1005 C1034 0.950 . S
H1006 C1036 0.950 . S
H1007 C1037 0.950 . S
C1008 H990 0.951 . S
C1008 C1009 1.366 . S
C1008 C1010 1.388 . S
C1009 C1008 1.366 . S
C1009 C1013 1.385 . S
C1010 H991 0.951 . S
C1010 C1008 1.388 . S
C1010 C1011 1.366 . S
C1011 C1010 1.366 . S
C1011 C1012 1.414 . S
C1011 C1014 1.499 1_455 S
C1012 H992 0.950 . S
C1012 C1011 1.414 . S
C1012 C1013 1.374 . S
C1013 H993 0.950 . S
C1013 C1009 1.385 . S
C1013 C1012 1.374 . S
C1014 C1011 1.499 1_655 S
C1014 C1015 1.373 . S
C1014 C1016 1.389 . S
C1015 H994 0.950 . S
C1015 C1014 1.373 . S
C1015 C1031 1.377 . S
C1016 C1014 1.389 . S
C1016 C1017 1.524 . S
C1016 C1030 1.377 . S
C1017 C1016 1.524 . S
C1017 C1018 1.397 1_655 S
C1017 C1022 1.363 . S
C1018 H995 0.950 . S
C1018 C1017 1.397 1_455 S
C1018 C1019 1.334 . S
C1019 H996 0.950 . S
C1019 C1018 1.334 . S
C1019 C1020 1.287 . S
C1020 C1019 1.287 . S
C1020 C1021 1.529 . S
C1020 H1039 0.913 . S
C1021 H997 0.950 . S
C1021 C1020 1.529 . S
C1021 C1022 1.410 1_455 S
C1022 H998 0.950 . S
C1022 C1017 1.363 . S
C1022 C1021 1.410 1_655 S
C1023 H999 0.951 . S
C1023 C1024 1.366 . S
C1023 C1025 1.388 . S
C1024 C1023 1.366 . S
C1024 C1028 1.385 . S
C1025 H1000 0.951 . S
C1025 C1023 1.388 . S
C1025 C1026 1.366 . S
C1026 C1025 1.366 . S
C1026 C1027 1.414 . S
C1026 C1029 1.499 . S
C1027 H1001 0.950 . S
C1027 C1026 1.414 . S
C1027 C1028 1.374 . S
C1028 H1002 0.950 . S
C1028 C1024 1.385 . S
C1028 C1027 1.374 . S
C1029 C1026 1.499 . S
C1029 C1030 1.373 . S
C1029 C1031 1.389 . S
C1030 H1003 0.950 . S
C1030 C1016 1.377 . S
C1030 C1029 1.373 . S
C1031 C1015 1.377 . S
C1031 C1029 1.389 . S
C1031 C1032 1.524 . S
C1032 C1031 1.524 . S
C1032 C1033 1.397 . S
C1032 C1037 1.363 . S
C1033 H1004 0.950 . S
C1033 C1032 1.397 . S
C1033 C1034 1.334 . S
C1034 H1005 0.950 . S
C1034 C1033 1.334 . S
C1034 C1035 1.287 . S
C1035 C1034 1.287 . S
C1035 C1036 1.524 . S
C1035 H1038 0.999 . S
C1036 H1006 0.950 . S
C1036 C1035 1.524 . S
C1036 C1037 1.415 . S
C1037 H1007 0.950 . S
C1037 C1032 1.363 . S
C1037 C1036 1.415 . S
H1038 C1035 0.999 . S
H1039 C1020 0.913 . S
H1040 C1058 0.951 . S
H1041 C1060 0.951 . S
H1042 C1062 0.950 . S
H1043 C1063 0.950 . S
H1044 C1065 0.950 . S
H1045 C1068 0.950 . S
H1046 C1069 0.950 . S
H1047 C1071 0.950 . S
H1048 C1072 0.950 . S
H1049 C1073 0.951 . S
H1050 C1075 0.951 . S
H1051 C1077 0.950 . S
H1052 C1078 0.950 . S
H1053 C1080 0.950 . S
H1054 C1083 0.950 . S
H1055 C1084 0.950 . S
H1056 C1086 0.950 . S
H1057 C1087 0.950 . S
C1058 H1040 0.951 . S
C1058 C1059 1.366 . S
C1058 C1060 1.388 . S
C1059 C1058 1.366 . S
C1059 C1063 1.385 . S
C1060 H1041 0.951 . S
C1060 C1058 1.388 . S
C1060 C1061 1.366 . S
C1061 C1060 1.366 . S
C1061 C1062 1.414 . S
C1061 C1064 1.499 . S
C1062 H1042 0.950 . S
C1062 C1061 1.414 . S
C1062 C1063 1.374 . S
C1063 H1043 0.950 . S
C1063 C1059 1.385 . S
C1063 C1062 1.374 . S
C1064 C1061 1.499 . S
C1064 C1065 1.373 . S
C1064 C1066 1.389 . S
C1065 H1044 0.950 . S
C1065 C1064 1.373 . S
C1065 C1081 1.377 . S
C1066 C1064 1.389 . S
C1066 C1067 1.524 . S
C1066 C1080 1.377 . S
C1067 C1066 1.524 . S
C1067 C1068 1.397 . S
C1067 C1072 1.363 . S
C1068 H1045 0.950 . S
C1068 C1067 1.397 . S
C1068 C1069 1.334 . S
C1069 H1046 0.950 . S
C1069 C1068 1.334 . S
C1069 C1070 1.287 . S
C1070 C1069 1.287 . S
C1070 C1071 1.524 . S
C1070 H1089 0.913 . S
C1071 H1047 0.950 . S
C1071 C1070 1.524 . S
C1071 C1072 1.415 . S
C1072 H1048 0.950 . S
C1072 C1067 1.363 . S
C1072 C1071 1.415 . S
C1073 H1049 0.951 . S
C1073 C1074 1.366 . S
C1073 C1075 1.388 . S
C1074 C1073 1.366 . S
C1074 C1078 1.385 . S
C1075 H1050 0.951 . S
C1075 C1073 1.388 . S
C1075 C1076 1.366 . S
C1076 C1075 1.366 . S
C1076 C1077 1.414 . S
C1076 C1079 1.499 . S
C1077 H1051 0.950 . S
C1077 C1076 1.414 . S
C1077 C1078 1.374 . S
C1078 H1052 0.950 . S
C1078 C1074 1.385 . S
C1078 C1077 1.374 . S
C1079 C1076 1.499 . S
C1079 C1080 1.373 . S
C1079 C1081 1.389 . S
C1080 H1053 0.950 . S
C1080 C1066 1.377 . S
C1080 C1079 1.373 . S
C1081 C1065 1.377 . S
C1081 C1079 1.389 . S
C1081 C1082 1.524 . S
C1082 C1081 1.524 . S
C1082 C1083 1.397 . S
C1082 C1087 1.363 . S
C1083 H1054 0.950 . S
C1083 C1082 1.397 . S
C1083 C1084 1.334 . S
C1084 H1055 0.950 . S
C1084 C1083 1.334 . S
C1084 C1085 1.287 . S
C1085 C1084 1.287 . S
C1085 C1086 1.524 . S
C1085 H1088 0.999 . S
C1086 H1056 0.950 . S
C1086 C1085 1.524 . S
C1086 C1087 1.415 . S
C1087 H1057 0.950 . S
C1087 C1082 1.363 . S
C1087 C1086 1.415 . S
H1088 C1085 0.999 . S
H1089 C1070 0.913 . S
H1090 C1108 0.951 . S
H1091 C1110 0.951 . S
H1092 C1112 0.950 . S
H1093 C1113 0.950 . S
H1094 C1115 0.950 . S
H1095 C1118 0.950 . S
H1096 C1119 0.950 . S
H1097 C1121 0.950 . S
H1098 C1122 0.950 . S
H1099 C1123 0.951 . S
H1100 C1125 0.951 1_655 S
H1101 C1127 0.950 . S
H1102 C1128 0.950 . S
H1103 C1130 0.950 . S
H1104 C1133 0.950 . S
H1105 C1134 0.950 . S
H1106 C1136 0.950 . S
H1107 C1137 0.950 . S
C1108 H1090 0.951 . S
C1108 C1109 1.366 . S
C1108 C1110 1.388 . S
C1109 C1108 1.366 . S
C1109 C1113 1.385 . S
C1110 H1091 0.951 . S
C1110 C1108 1.388 . S
C1110 C1111 1.366 . S
C1111 C1110 1.366 . S
C1111 C1112 1.414 . S
C1111 C1114 1.499 . S
C1112 H1092 0.950 . S
C1112 C1111 1.414 . S
C1112 C1113 1.374 . S
C1113 H1093 0.950 . S
C1113 C1109 1.385 . S
C1113 C1112 1.374 . S
C1114 C1111 1.499 . S
C1114 C1115 1.373 . S
C1114 C1116 1.389 . S
C1115 H1094 0.950 . S
C1115 C1114 1.373 . S
C1115 C1131 1.377 . S
C1116 C1114 1.389 . S
C1116 C1117 1.524 . S
C1116 C1130 1.377 . S
C1117 C1116 1.524 . S
C1117 C1118 1.397 . S
C1117 C1122 1.363 . S
C1118 H1095 0.950 . S
C1118 C1117 1.397 . S
C1118 C1119 1.334 . S
C1119 H1096 0.950 . S
C1119 C1118 1.334 . S
C1119 C1120 1.287 . S
C1120 C1119 1.287 . S
C1120 C1121 1.524 . S
C1120 H1139 0.913 . S
C1121 H1097 0.950 . S
C1121 C1120 1.524 . S
C1121 C1122 1.415 . S
C1122 H1098 0.950 . S
C1122 C1117 1.363 . S
C1122 C1121 1.415 . S
C1123 H1099 0.951 . S
C1123 C1124 1.366 . S
C1123 C1125 1.388 . S
C1124 C1123 1.366 . S
C1124 C1128 1.385 . S
C1125 H1100 0.951 1_455 S
C1125 C1123 1.388 . S
C1125 C1126 1.366 . S
C1126 C1125 1.366 . S
C1126 C1127 1.414 . S
C1126 C1129 1.499 1_455 S
C1127 H1101 0.950 . S
C1127 C1126 1.414 . S
C1127 C1128 1.374 . S
C1128 H1102 0.950 . S
C1128 C1124 1.385 . S
C1128 C1127 1.374 . S
C1129 C1126 1.499 1_655 S
C1129 C1130 1.373 . S
C1129 C1131 1.389 . S
C1130 H1103 0.950 . S
C1130 C1116 1.377 . S
C1130 C1129 1.373 . S
C1131 C1115 1.377 . S
C1131 C1129 1.389 . S
C1131 C1132 1.524 . S
C1132 C1131 1.524 . S
C1132 C1133 1.397 1_655 S
C1132 C1137 1.363 . S
C1133 H1104 0.950 . S
C1133 C1132 1.397 1_455 S
C1133 C1134 1.334 . S
C1134 H1105 0.950 . S
C1134 C1133 1.334 . S
C1134 C1135 1.252 1_455 S
C1135 C1134 1.252 1_655 S
C1135 C1136 1.571 . S
C1135 H1138 0.990 1_655 S
C1136 H1106 0.950 . S
C1136 C1135 1.571 . S
C1136 C1137 1.415 . S
C1137 H1107 0.950 . S
C1137 C1132 1.363 . S
C1137 C1136 1.415 . S
H1138 C1135 0.990 1_455 S
H1139 C1120 0.913 . S
H1140 C1158 0.951 . S
H1141 C1160 0.951 . S
H1142 C1162 0.950 . S
H1143 C1163 0.950 . S
H1144 C1165 0.950 . S
H1145 C1168 0.950 . S
H1146 C1169 0.950 . S
H1147 C1171 0.950 . S
H1148 C1172 0.950 . S
H1149 C1173 0.951 . S
H1150 C1175 0.951 . S
H1151 C1177 0.950 . S
H1152 C1178 0.950 . S
H1153 C1180 0.950 . S
H1154 C1183 0.950 . S
H1155 C1184 0.950 . S
H1156 C1186 0.950 . S
H1157 C1187 0.950 . S
C1158 H1140 0.951 . S
C1158 C1159 1.366 . S
C1158 C1160 1.388 . S
C1159 C1158 1.366 . S
C1159 C1163 1.385 . S
C1160 H1141 0.951 . S
C1160 C1158 1.388 . S
C1160 C1161 1.366 . S
C1161 C1160 1.366 . S
C1161 C1162 1.414 . S
C1161 C1164 1.499 . S
C1162 H1142 0.950 . S
C1162 C1161 1.414 . S
C1162 C1163 1.374 . S
C1163 H1143 0.950 . S
C1163 C1159 1.385 . S
C1163 C1162 1.374 . S
C1164 C1161 1.499 . S
C1164 C1165 1.373 . S
C1164 C1166 1.389 . S
C1165 H1144 0.950 . S
C1165 C1164 1.373 . S
C1165 C1181 1.377 . S
C1166 C1164 1.389 . S
C1166 C1167 1.524 . S
C1166 C1180 1.377 . S
C1167 C1166 1.524 . S
C1167 C1168 1.397 . S
C1167 C1172 1.363 . S
C1168 H1145 0.950 . S
C1168 C1167 1.397 . S
C1168 C1169 1.334 . S
C1169 H1146 0.950 . S
C1169 C1168 1.334 . S
C1169 C1170 1.287 . S
C1170 C1169 1.287 . S
C1170 C1171 1.524 . S
C1170 H1189 0.913 . S
C1171 H1147 0.950 . S
C1171 C1170 1.524 . S
C1171 C1172 1.415 . S
C1172 H1148 0.950 . S
C1172 C1167 1.363 . S
C1172 C1171 1.415 . S
C1173 H1149 0.951 . S
C1173 C1174 1.366 . S
C1173 C1175 1.388 . S
C1174 C1173 1.366 . S
C1174 C1178 1.385 . S
C1175 H1150 0.951 . S
C1175 C1173 1.388 . S
C1175 C1176 1.366 . S
C1176 C1175 1.366 . S
C1176 C1177 1.414 . S
C1176 C1179 1.499 . S
C1177 H1151 0.950 . S
C1177 C1176 1.414 . S
C1177 C1178 1.374 . S
C1178 H1152 0.950 . S
C1178 C1174 1.385 . S
C1178 C1177 1.374 . S
C1179 C1176 1.499 . S
C1179 C1180 1.373 . S
C1179 C1181 1.389 . S
C1180 H1153 0.950 . S
C1180 C1166 1.377 . S
C1180 C1179 1.373 . S
C1181 C1165 1.377 . S
C1181 C1179 1.389 . S
C1181 C1182 1.524 . S
C1182 C1181 1.524 . S
C1182 C1183 1.397 . S
C1182 C1187 1.363 . S
C1183 H1154 0.950 . S
C1183 C1182 1.397 . S
C1183 C1184 1.334 . S
C1184 H1155 0.950 . S
C1184 C1183 1.334 . S
C1184 C1185 1.287 . S
C1185 C1184 1.287 . S
C1185 C1186 1.524 . S
C1185 H1188 0.999 . S
C1186 H1156 0.950 . S
C1186 C1185 1.524 . S
C1186 C1187 1.415 . S
C1187 H1157 0.950 . S
C1187 C1182 1.363 . S
C1187 C1186 1.415 . S
H1188 C1185 0.999 . S
H1189 C1170 0.913 . S
H1190 C1208 0.951 . S
H1191 C1210 0.951 . S
H1192 C1212 0.950 . S
H1193 C1213 0.950 . S
H1194 C1215 0.950 . S
H1195 C1218 0.950 . S
H1196 C1219 0.950 . S
H1197 C1221 0.950 . S
H1198 C1222 0.950 . S
H1199 C1223 0.951 . S
H1200 C1225 0.951 . S
H1201 C1227 0.950 . S
H1202 C1228 0.950 . S
H1203 C1230 0.950 . S
H1204 C1233 0.950 . S
H1205 C1234 0.950 . S
H1206 C1236 0.950 . S
H1207 C1237 0.950 . S
C1208 H1190 0.951 . S
C1208 C1209 1.366 . S
C1208 C1210 1.388 . S
C1209 C1208 1.366 . S
C1209 C1213 1.385 . S
C1210 H1191 0.951 . S
C1210 C1208 1.388 . S
C1210 C1211 1.366 . S
C1211 C1210 1.366 . S
C1211 C1212 1.414 . S
C1211 C1214 1.499 . S
C1212 H1192 0.950 . S
C1212 C1211 1.414 . S
C1212 C1213 1.374 . S
C1213 H1193 0.950 . S
C1213 C1209 1.385 . S
C1213 C1212 1.374 . S
C1214 C1211 1.499 . S
C1214 C1215 1.373 . S
C1214 C1216 1.389 . S
C1215 H1194 0.950 . S
C1215 C1214 1.373 . S
C1215 C1231 1.377 . S
C1216 C1214 1.389 . S
C1216 C1217 1.524 . S
C1216 C1230 1.377 . S
C1217 C1216 1.524 . S
C1217 C1218 1.397 . S
C1217 C1222 1.363 . S
C1218 H1195 0.950 . S
C1218 C1217 1.397 . S
C1218 C1219 1.334 . S
C1219 H1196 0.950 . S
C1219 C1218 1.334 . S
C1219 C1220 1.287 . S
C1220 C1219 1.287 . S
C1220 C1221 1.524 . S
C1220 H1239 0.913 . S
C1221 H1197 0.950 . S
C1221 C1220 1.524 . S
C1221 C1222 1.415 . S
C1222 H1198 0.950 . S
C1222 C1217 1.363 . S
C1222 C1221 1.415 . S
C1223 H1199 0.951 . S
C1223 C1224 1.366 . S
C1223 C1225 1.388 . S
C1224 C1223 1.366 . S
C1224 C1228 1.385 . S
C1225 H1200 0.951 . S
C1225 C1223 1.388 . S
C1225 C1226 1.366 . S
C1226 C1225 1.366 . S
C1226 C1227 1.414 . S
C1226 C1229 1.499 . S
C1227 H1201 0.950 . S
C1227 C1226 1.414 . S
C1227 C1228 1.374 . S
C1228 H1202 0.950 . S
C1228 C1224 1.385 . S
C1228 C1227 1.374 . S
C1229 C1226 1.499 . S
C1229 C1230 1.373 . S
C1229 C1231 1.389 . S
C1230 H1203 0.950 . S
C1230 C1216 1.377 . S
C1230 C1229 1.373 . S
C1231 C1215 1.377 . S
C1231 C1229 1.389 . S
C1231 C1232 1.524 . S
C1232 C1231 1.524 . S
C1232 C1233 1.397 . S
C1232 C1237 1.363 . S
C1233 H1204 0.950 . S
C1233 C1232 1.397 . S
C1233 C1234 1.334 . S
C1234 H1205 0.950 . S
C1234 C1233 1.334 . S
C1234 C1235 1.287 . S
C1235 C1234 1.287 . S
C1235 C1236 1.524 . S
C1235 H1238 0.999 . S
C1236 H1206 0.950 . S
C1236 C1235 1.524 . S
C1236 C1237 1.415 . S
C1237 H1207 0.950 . S
C1237 C1232 1.363 . S
C1237 C1236 1.415 . S
H1238 C1235 0.999 . S
H1239 C1220 0.913 . S
H1240 C1258 0.951 . S
H1241 C1260 0.951 . S
H1242 C1262 0.950 . S
H1243 C1263 0.950 . S
H1244 C1265 0.950 . S
H1245 C1268 0.950 . S
H1246 C1269 0.950 . S
H1247 C1271 0.950 1_556 S
H1248 C1272 0.950 . S
H1249 C1273 0.951 . S
H1250 C1275 0.951 . S
H1251 C1277 0.950 . S
H1252 C1278 0.950 . S
H1253 C1280 0.950 . S
H1254 C1283 0.950 . S
H1255 C1284 0.950 . S
H1256 C1286 0.950 . S
H1257 C1287 0.950 . S
C1258 H1240 0.951 . S
C1258 C1259 1.366 . S
C1258 C1260 1.388 . S
C1259 C1258 1.366 . S
C1259 C1263 1.385 . S
C1260 H1241 0.951 . S
C1260 C1258 1.388 . S
C1260 C1261 1.366 . S
C1261 C1260 1.366 . S
C1261 C1262 1.414 . S
C1261 C1264 1.499 . S
C1262 H1242 0.950 . S
C1262 C1261 1.414 . S
C1262 C1263 1.374 . S
C1263 H1243 0.950 . S
C1263 C1259 1.385 . S
C1263 C1262 1.374 . S
C1264 C1261 1.499 . S
C1264 C1265 1.373 . S
C1264 C1266 1.389 . S
C1265 H1244 0.950 . S
C1265 C1264 1.373 . S
C1265 C1281 1.377 . S
C1266 C1264 1.389 . S
C1266 C1267 1.524 . S
C1266 C1280 1.377 . S
C1267 C1266 1.524 . S
C1267 C1268 1.397 . S
C1267 C1272 1.363 . S
C1268 H1245 0.950 . S
C1268 C1267 1.397 . S
C1268 C1269 1.334 . S
C1269 H1246 0.950 . S
C1269 C1268 1.334 . S
C1269 C1270 1.287 . S
C1270 C1269 1.287 . S
C1270 C1271 1.524 . S
C1270 H1289 0.913 . S
C1271 H1247 0.950 1_554 S
C1271 C1270 1.524 . S
C1271 C1272 1.415 . S
C1272 H1248 0.950 . S
C1272 C1267 1.363 . S
C1272 C1271 1.415 . S
C1273 H1249 0.951 . S
C1273 C1274 1.366 . S
C1273 C1275 1.388 . S
C1274 C1273 1.366 . S
C1274 C1278 1.385 . S
C1275 H1250 0.951 . S
C1275 C1273 1.388 . S
C1275 C1276 1.366 . S
C1276 C1275 1.366 . S
C1276 C1277 1.414 . S
C1276 C1279 1.499 . S
C1277 H1251 0.950 . S
C1277 C1276 1.414 . S
C1277 C1278 1.374 . S
C1278 H1252 0.950 . S
C1278 C1274 1.385 . S
C1278 C1277 1.374 . S
C1279 C1276 1.499 . S
C1279 C1280 1.373 . S
C1279 C1281 1.389 . S
C1280 H1253 0.950 . S
C1280 C1266 1.377 . S
C1280 C1279 1.373 . S
C1281 C1265 1.377 . S
C1281 C1279 1.389 . S
C1281 C1282 1.524 . S
C1282 C1281 1.524 . S
C1282 C1283 1.397 . S
C1282 C1287 1.363 . S
C1283 H1254 0.950 . S
C1283 C1282 1.397 . S
C1283 C1284 1.334 . S
C1284 H1255 0.950 . S
C1284 C1283 1.334 . S
C1284 C1285 1.287 . S
C1285 C1284 1.287 . S
C1285 C1286 1.524 . S
C1285 H1288 0.999 . S
C1286 H1256 0.950 . S
C1286 C1285 1.524 . S
C1286 C1287 1.415 . S
C1287 H1257 0.950 . S
C1287 C1282 1.363 . S
C1287 C1286 1.415 . S
H1288 C1285 0.999 . S
H1289 C1270 0.913 . S
H1290 C1308 0.951 . S
H1291 C1310 0.951 . S
H1292 C1312 0.950 . S
H1293 C1313 0.950 . S
H1294 C1315 0.950 . S
H1295 C1318 0.950 . S
H1296 C1319 0.950 . S
H1297 C1321 0.950 . S
H1298 C1322 0.950 . S
H1299 C1323 0.951 . S
H1300 C1325 0.951 . S
H1301 C1327 0.950 . S
H1302 C1328 0.950 . S
H1303 C1330 0.950 . S
H1304 C1333 0.950 . S
H1305 C1334 0.950 . S
H1306 C1336 0.950 . S
H1307 C1337 0.950 . S
C1308 H1290 0.951 . S
C1308 C1309 1.366 . S
C1308 C1310 1.388 . S
C1309 C1308 1.366 . S
C1309 C1313 1.385 . S
C1310 H1291 0.951 . S
C1310 C1308 1.388 . S
C1310 C1311 1.366 . S
C1311 C1310 1.366 . S
C1311 C1312 1.414 . S
C1311 C1314 1.499 . S
C1312 H1292 0.950 . S
C1312 C1311 1.414 . S
C1312 C1313 1.374 . S
C1313 H1293 0.950 . S
C1313 C1309 1.385 . S
C1313 C1312 1.374 . S
C1314 C1311 1.499 . S
C1314 C1315 1.373 . S
C1314 C1316 1.389 . S
C1315 H1294 0.950 . S
C1315 C1314 1.373 . S
C1315 C1331 1.377 . S
C1316 C1314 1.389 . S
C1316 C1317 1.524 . S
C1316 C1330 1.377 . S
C1317 C1316 1.524 . S
C1317 C1318 1.397 . S
C1317 C1322 1.363 . S
C1318 H1295 0.950 . S
C1318 C1317 1.397 . S
C1318 C1319 1.334 . S
C1319 H1296 0.950 . S
C1319 C1318 1.334 . S
C1319 C1320 1.287 . S
C1320 C1319 1.287 . S
C1320 C1321 1.524 . S
C1320 H1339 0.913 . S
C1321 H1297 0.950 . S
C1321 C1320 1.524 . S
C1321 C1322 1.415 . S
C1322 H1298 0.950 . S
C1322 C1317 1.363 . S
C1322 C1321 1.415 . S
C1323 H1299 0.951 . S
C1323 C1324 1.366 . S
C1323 C1325 1.388 . S
C1324 C1323 1.366 . S
C1324 C1328 1.385 . S
C1325 H1300 0.951 . S
C1325 C1323 1.388 . S
C1325 C1326 1.366 . S
C1326 C1325 1.366 . S
C1326 C1327 1.414 . S
C1326 C1329 1.499 . S
C1327 H1301 0.950 . S
C1327 C1326 1.414 . S
C1327 C1328 1.374 . S
C1328 H1302 0.950 . S
C1328 C1324 1.385 . S
C1328 C1327 1.374 . S
C1329 C1326 1.499 . S
C1329 C1330 1.373 . S
C1329 C1331 1.389 . S
C1330 H1303 0.950 . S
C1330 C1316 1.377 . S
C1330 C1329 1.373 . S
C1331 C1315 1.377 . S
C1331 C1329 1.389 . S
C1331 C1332 1.524 . S
C1332 C1331 1.524 . S
C1332 C1333 1.397 . S
C1332 C1337 1.363 . S
C1333 H1304 0.950 . S
C1333 C1332 1.397 . S
C1333 C1334 1.334 . S
C1334 H1305 0.950 . S
C1334 C1333 1.334 . S
C1334 C1335 1.287 . S
C1335 C1334 1.287 . S
C1335 C1336 1.524 . S
C1335 H1338 0.999 . S
C1336 H1306 0.950 . S
C1336 C1335 1.524 . S
C1336 C1337 1.415 . S
C1337 H1307 0.950 . S
C1337 C1332 1.363 . S
C1337 C1336 1.415 . S
H1338 C1335 0.999 . S
H1339 C1320 0.913 . S
H1340 C1358 0.951 . S
H1341 C1360 0.951 . S
H1342 C1362 0.950 . S
H1343 C1363 0.950 . S
H1344 C1365 0.950 . S
H1345 C1368 0.950 . S
H1346 C1369 0.950 . S
H1347 C1371 0.950 . S
H1348 C1372 0.950 . S
H1349 C1373 0.951 . S
H1350 C1375 0.951 . S
H1351 C1377 0.950 . S
H1352 C1378 0.950 . S
H1353 C1380 0.950 . S
H1354 C1383 0.950 . S
H1355 C1384 0.950 . S
H1356 C1386 0.950 . S
H1357 C1387 0.950 . S
C1358 H1340 0.951 . S
C1358 C1359 1.366 . S
C1358 C1360 1.388 . S
C1359 C1358 1.366 . S
C1359 C1363 1.385 . S
C1360 H1341 0.951 . S
C1360 C1358 1.388 . S
C1360 C1361 1.366 . S
C1361 C1360 1.366 . S
C1361 C1362 1.414 . S
C1361 C1364 1.499 . S
C1362 H1342 0.950 . S
C1362 C1361 1.414 . S
C1362 C1363 1.374 . S
C1363 H1343 0.950 . S
C1363 C1359 1.385 . S
C1363 C1362 1.374 . S
C1364 C1361 1.499 . S
C1364 C1365 1.373 . S
C1364 C1366 1.389 . S
C1365 H1344 0.950 . S
C1365 C1364 1.373 . S
C1365 C1381 1.377 . S
C1366 C1364 1.389 . S
C1366 C1367 1.524 . S
C1366 C1380 1.377 . S
C1367 C1366 1.524 . S
C1367 C1368 1.397 . S
C1367 C1372 1.363 . S
C1368 H1345 0.950 . S
C1368 C1367 1.397 . S
C1368 C1369 1.334 . S
C1369 H1346 0.950 . S
C1369 C1368 1.334 . S
C1369 C1370 1.287 . S
C1370 C1369 1.287 . S
C1370 C1371 1.524 . S
C1370 H1389 0.913 . S
C1371 H1347 0.950 . S
C1371 C1370 1.524 . S
C1371 C1372 1.415 . S
C1372 H1348 0.950 . S
C1372 C1367 1.363 . S
C1372 C1371 1.415 . S
C1373 H1349 0.951 . S
C1373 C1374 1.366 . S
C1373 C1375 1.388 . S
C1374 C1373 1.366 . S
C1374 C1378 1.385 . S
C1375 H1350 0.951 . S
C1375 C1373 1.388 . S
C1375 C1376 1.366 . S
C1376 C1375 1.366 . S
C1376 C1377 1.414 . S
C1376 C1379 1.499 . S
C1377 H1351 0.950 . S
C1377 C1376 1.414 . S
C1377 C1378 1.374 . S
C1378 H1352 0.950 . S
C1378 C1374 1.385 . S
C1378 C1377 1.374 . S
C1379 C1376 1.499 . S
C1379 C1380 1.373 . S
C1379 C1381 1.389 . S
C1380 H1353 0.950 . S
C1380 C1366 1.377 . S
C1380 C1379 1.373 . S
C1381 C1365 1.377 . S
C1381 C1379 1.389 . S
C1381 C1382 1.524 . S
C1382 C1381 1.524 . S
C1382 C1383 1.397 . S
C1382 C1387 1.363 . S
C1383 H1354 0.950 . S
C1383 C1382 1.397 . S
C1383 C1384 1.334 . S
C1384 H1355 0.950 . S
C1384 C1383 1.334 . S
C1384 C1385 1.287 . S
C1385 C1384 1.287 . S
C1385 C1386 1.524 . S
C1385 H1388 0.999 . S
C1386 H1356 0.950 . S
C1386 C1385 1.524 . S
C1386 C1387 1.415 . S
C1387 H1357 0.950 . S
C1387 C1382 1.363 . S
C1387 C1386 1.415 . S
H1388 C1385 0.999 . S
H1389 C1370 0.913 . S
H1390 C1408 0.951 . S
H1391 C1410 0.951 . S
H1392 C1412 0.950 . S
H1393 C1413 0.950 . S
H1394 C1415 0.950 . S
H1395 C1418 0.950 . S
H1396 C1419 0.950 . S
H1397 C1421 0.950 . S
H1398 C1422 0.950 . S
H1399 C1423 0.951 . S
H1400 C1425 0.951 . S
H1401 C1427 0.950 . S
H1402 C1428 0.950 . S
H1403 C1430 0.950 . S
H1404 C1433 0.950 . S
H1405 C1434 0.950 . S
H1406 C1436 0.950 . S
H1407 C1437 0.950 . S
C1408 H1390 0.951 . S
C1408 C1409 1.366 . S
C1408 C1410 1.388 . S
C1409 C1408 1.366 . S
C1409 C1413 1.385 . S
C1410 H1391 0.951 . S
C1410 C1408 1.388 . S
C1410 C1411 1.366 . S
C1411 C1410 1.366 . S
C1411 C1412 1.414 . S
C1411 C1414 1.499 . S
C1412 H1392 0.950 . S
C1412 C1411 1.414 . S
C1412 C1413 1.374 . S
C1413 H1393 0.950 . S
C1413 C1409 1.385 . S
C1413 C1412 1.374 . S
C1414 C1411 1.499 . S
C1414 C1415 1.373 . S
C1414 C1416 1.389 . S
C1415 H1394 0.950 . S
C1415 C1414 1.373 . S
C1415 C1431 1.377 . S
C1416 C1414 1.389 . S
C1416 C1417 1.524 . S
C1416 C1430 1.377 . S
C1417 C1416 1.524 . S
C1417 C1418 1.397 . S
C1417 C1422 1.363 . S
C1418 H1395 0.950 . S
C1418 C1417 1.397 . S
C1418 C1419 1.334 . S
C1419 H1396 0.950 . S
C1419 C1418 1.334 . S
C1419 C1420 1.287 . S
C1420 C1419 1.287 . S
C1420 C1421 1.524 . S
C1420 H1439 0.913 . S
C1421 H1397 0.950 . S
C1421 C1420 1.524 . S
C1421 C1422 1.415 . S
C1422 H1398 0.950 . S
C1422 C1417 1.363 . S
C1422 C1421 1.415 . S
C1423 H1399 0.951 . S
C1423 C1424 1.366 . S
C1423 C1425 1.388 . S
C1424 C1423 1.366 . S
C1424 C1428 1.385 . S
C1425 H1400 0.951 . S
C1425 C1423 1.388 . S
C1425 C1426 1.366 . S
C1426 C1425 1.366 . S
C1426 C1427 1.414 . S
C1426 C1429 1.499 . S
C1427 H1401 0.950 . S
C1427 C1426 1.414 . S
C1427 C1428 1.374 . S
C1428 H1402 0.950 . S
C1428 C1424 1.385 . S
C1428 C1427 1.374 . S
C1429 C1426 1.499 . S
C1429 C1430 1.373 . S
C1429 C1431 1.389 . S
C1430 H1403 0.950 . S
C1430 C1416 1.377 . S
C1430 C1429 1.373 . S
C1431 C1415 1.377 . S
C1431 C1429 1.389 . S
C1431 C1432 1.524 . S
C1432 C1431 1.524 . S
C1432 C1433 1.397 . S
C1432 C1437 1.363 . S
C1433 H1404 0.950 . S
C1433 C1432 1.397 . S
C1433 C1434 1.334 . S
C1434 H1405 0.950 . S
C1434 C1433 1.334 . S
C1434 C1435 1.287 . S
C1435 C1434 1.287 . S
C1435 C1436 1.524 . S
C1435 H1438 0.999 . S
C1436 H1406 0.950 . S
C1436 C1435 1.524 . S
C1436 C1437 1.415 . S
C1437 H1407 0.950 . S
C1437 C1432 1.363 . S
C1437 C1436 1.415 . S
H1438 C1435 0.999 . S
H1439 C1420 0.913 . S
H1440 C1458 0.951 . S
H1441 C1460 0.951 . S
H1442 C1462 0.950 . S
H1443 C1463 0.950 . S
H1444 C1465 0.950 . S
H1445 C1468 0.950 . S
H1446 C1469 0.950 . S
H1447 C1471 0.950 . S
H1448 C1472 0.950 . S
H1449 C1473 0.951 . S
H1450 C1475 0.951 . S
H1451 C1477 0.950 . S
H1452 C1478 0.950 . S
H1453 C1480 0.950 . S
H1454 C1483 0.950 . S
H1455 C1484 0.950 . S
H1456 C1486 0.950 . S
H1457 C1487 0.950 . S
C1458 H1440 0.951 . S
C1458 C1459 1.366 . S
C1458 C1460 1.388 . S
C1459 C1458 1.366 . S
C1459 C1463 1.385 . S
C1460 H1441 0.951 . S
C1460 C1458 1.388 . S
C1460 C1461 1.366 . S
C1461 C1460 1.366 . S
C1461 C1462 1.414 . S
C1461 C1464 1.499 . S
C1462 H1442 0.950 . S
C1462 C1461 1.414 . S
C1462 C1463 1.374 . S
C1463 H1443 0.950 . S
C1463 C1459 1.385 . S
C1463 C1462 1.374 . S
C1464 C1461 1.499 . S
C1464 C1465 1.373 . S
C1464 C1466 1.389 . S
C1465 H1444 0.950 . S
C1465 C1464 1.373 . S
C1465 C1481 1.377 . S
C1466 C1464 1.389 . S
C1466 C1467 1.524 . S
C1466 C1480 1.377 . S
C1467 C1466 1.524 . S
C1467 C1468 1.397 . S
C1467 C1472 1.363 . S
C1468 H1445 0.950 . S
C1468 C1467 1.397 . S
C1468 C1469 1.334 . S
C1469 H1446 0.950 . S
C1469 C1468 1.334 . S
C1469 C1470 1.287 . S
C1470 C1469 1.287 . S
C1470 C1471 1.524 . S
C1470 H1489 0.913 . S
C1471 H1447 0.950 . S
C1471 C1470 1.524 . S
C1471 C1472 1.415 . S
C1472 H1448 0.950 . S
C1472 C1467 1.363 . S
C1472 C1471 1.415 . S
C1473 H1449 0.951 . S
C1473 C1474 1.366 . S
C1473 C1475 1.388 . S
C1474 C1473 1.366 . S
C1474 C1478 1.385 . S
C1475 H1450 0.951 . S
C1475 C1473 1.388 . S
C1475 C1476 1.366 . S
C1476 C1475 1.366 . S
C1476 C1477 1.414 . S
C1476 C1479 1.499 . S
C1477 H1451 0.950 . S
C1477 C1476 1.414 . S
C1477 C1478 1.374 . S
C1478 H1452 0.950 . S
C1478 C1474 1.385 . S
C1478 C1477 1.374 . S
C1479 C1476 1.499 . S
C1479 C1480 1.373 . S
C1479 C1481 1.389 . S
C1480 H1453 0.950 . S
C1480 C1466 1.377 . S
C1480 C1479 1.373 . S
C1481 C1465 1.377 . S
C1481 C1479 1.389 . S
C1481 C1482 1.524 . S
C1482 C1481 1.524 . S
C1482 C1483 1.397 . S
C1482 C1487 1.363 . S
C1483 H1454 0.950 . S
C1483 C1482 1.397 . S
C1483 C1484 1.334 . S
C1484 H1455 0.950 . S
C1484 C1483 1.334 . S
C1484 C1485 1.287 . S
C1485 C1484 1.287 . S
C1485 C1486 1.524 . S
C1485 H1488 0.999 . S
C1486 H1456 0.950 . S
C1486 C1485 1.524 . S
C1486 C1487 1.415 . S
C1487 H1457 0.950 . S
C1487 C1482 1.363 . S
C1487 C1486 1.415 . S
H1488 C1485 0.999 . S
H1489 C1470 0.913 . S
H1490 C1508 0.951 . S
H1491 C1510 0.951 . S
H1492 C1512 0.950 . S
H1493 C1513 0.950 . S
H1494 C1515 0.950 . S
H1495 C1518 0.950 . S
H1496 C1519 0.950 . S
H1497 C1521 0.950 . S
H1498 C1522 0.950 . S
H1499 C1523 0.951 . S
H1500 C1525 0.951 . S
H1501 C1527 0.950 . S
H1502 C1528 0.950 . S
H1503 C1530 0.950 . S
H1504 C1533 0.950 . S
H1505 C1534 0.950 . S
H1506 C1536 0.950 . S
H1507 C1537 0.950 . S
C1508 H1490 0.951 . S
C1508 C1509 1.366 1_556 S
C1508 C1510 1.388 . S
C1509 C1508 1.366 1_554 S
C1509 C1513 1.385 . S
C1510 H1491 0.951 . S
C1510 C1508 1.388 . S
C1510 C1511 1.366 . S
C1511 C1510 1.366 . S
C1511 C1512 1.414 1_556 S
C1511 C1514 1.499 . S
C1512 H1492 0.950 . S
C1512 C1511 1.414 1_554 S
C1512 C1513 1.374 . S
C1513 H1493 0.950 . S
C1513 C1509 1.385 . S
C1513 C1512 1.374 . S
C1514 C1511 1.499 . S
C1514 C1515 1.373 . S
C1514 C1516 1.389 . S
C1515 H1494 0.950 . S
C1515 C1514 1.373 . S
C1515 C1531 1.377 . S
C1516 C1514 1.389 . S
C1516 C1517 1.524 . S
C1516 C1530 1.377 . S
C1517 C1516 1.524 . S
C1517 C1518 1.397 1_556 S
C1517 C1522 1.363 . S
C1518 H1495 0.950 . S
C1518 C1517 1.397 1_554 S
C1518 C1519 1.334 . S
C1519 H1496 0.950 . S
C1519 C1518 1.334 . S
C1519 C1520 1.287 . S
C1520 C1519 1.287 . S
C1520 C1521 1.524 1_554 S
C1520 H1539 0.913 . S
C1521 H1497 0.950 . S
C1521 C1520 1.524 1_556 S
C1521 C1522 1.415 . S
C1522 H1498 0.950 . S
C1522 C1517 1.363 . S
C1522 C1521 1.415 . S
C1523 H1499 0.951 . S
C1523 C1524 1.366 . S
C1523 C1525 1.388 . S
C1524 C1523 1.366 . S
C1524 C1528 1.385 . S
C1525 H1500 0.951 . S
C1525 C1523 1.388 . S
C1525 C1526 1.366 . S
C1526 C1525 1.366 . S
C1526 C1527 1.414 . S
C1526 C1529 1.499 . S
C1527 H1501 0.950 . S
C1527 C1526 1.414 . S
C1527 C1528 1.374 . S
C1528 H1502 0.950 . S
C1528 C1524 1.385 . S
C1528 C1527 1.374 . S
C1529 C1526 1.499 . S
C1529 C1530 1.373 . S
C1529 C1531 1.389 . S
C1530 H1503 0.950 . S
C1530 C1516 1.377 . S
C1530 C1529 1.373 . S
C1531 C1515 1.377 . S
C1531 C1529 1.389 . S
C1531 C1532 1.524 . S
C1532 C1531 1.524 . S
C1532 C1533 1.397 . S
C1532 C1537 1.363 . S
C1533 H1504 0.950 . S
C1533 C1532 1.397 . S
C1533 C1534 1.334 . S
C1534 H1505 0.950 . S
C1534 C1533 1.334 . S
C1534 C1535 1.287 . S
C1535 C1534 1.287 . S
C1535 C1536 1.524 . S
C1535 H1538 0.999 . S
C1536 H1506 0.950 . S
C1536 C1535 1.524 . S
C1536 C1537 1.415 . S
C1537 H1507 0.950 . S
C1537 C1532 1.363 . S
C1537 C1536 1.415 . S
H1538 C1535 0.999 . S
H1539 C1520 0.913 . S
C359 C7 0.644 . S
C374 C101 0.545 . S
C409 C25 0.678 . S
C424 C133 0.631 . S
C459 C46 0.795 . S
C474 C165 0.792 . S
C524 C209 0.645 . S
C509 C70 0.670 . S
C574 C229 0.478 . S
C559 C28 0.620 . S
C609 C49 0.681 . S
C624 C273 0.662 . S
C659 C67 0.769 . S
C674 C293 0.771 . S
C709 C4 0.685 . S
C724 C337 0.677 1_455 S
C759 C58 1.732 . S
C774 C325 1.796 . S
C824 C241 1.609 . S
C809 C66 1.524 . S
C874 C261 1.911 . S
C859 C3 1.847 . S
C909 C37 1.797 . S
C924 C305 1.812 . S
C974 C145 1.917 . S
C959 C79 1.774 . S
C1009 C16 1.794 . S
C1024 C177 1.799 . S
C1074 C197 1.864 . S
C1059 C24 1.802 . S
C1124 C113 1.597 . S
C1109 C45 1.508 . S
C1174 C299 1.342 . S
C1159 C19 1.214 . S
C1224 C331 1.196 . S
C1209 C41 1.151 . S
C1259 C62 0.976 . S
C1274 C235 1.044 . S
C1324 C267 1.291 . S
C1309 C82 1.122 . S
C1374 C171 1.352 . S
C1359 C40 1.228 . S
C1409 C61 1.088 . S
C1424 C203 1.249 . S
C1474 C107 1.084 . S
C1459 C83 1.012 . S
C1524 C139 1.260 . S
C1509 C20 1.146 . S
