# Generated by pormake.
# Topology zzz, (3,6)-cn, num edge types: 1
# Building blocks:
#     Node 0, Type 0, BuildingBlock: MIDCAF_clean_linker_0, # of connection points: 3
#     Node 1, Type 0, BuildingBlock: MIDCAF_clean_linker_0, # of connection points: 3
#     Node 2, Type 0, BuildingBlock: MIDCAF_clean_linker_0, # of connection points: 3
#     Node 3, Type 0, BuildingBlock: MIDCAF_clean_linker_0, # of connection points: 3
#     Node 4, Type 0, BuildingBlock: MIDCAF_clean_linker_0, # of connection points: 3
#     Node 5, Type 0, BuildingBlock: MIDCAF_clean_linker_0, # of connection points: 3
#     Node 6, Type 0, BuildingBlock: MIDCAF_clean_linker_0, # of connection points: 3
#     Node 7, Type 0, BuildingBlock: MIDCAF_clean_linker_0, # of connection points: 3
#     Node 8, Type 1, BuildingBlock: BETDEL_clean_sbu_0, # of connection points: 6
#     Node 9, Type 1, BuildingBlock: BETDEL_clean_sbu_0, # of connection points: 6
#     Node 10, Type 1, BuildingBlock: BETDEL_clean_sbu_0, # of connection points: 6
#     Node 11, Type 1, BuildingBlock: BETDEL_clean_sbu_0, # of connection points: 6
#     Edge 12, Type (0, 1), BuildingBlock: MIFKUJ_clean_linker_0, # of connection points: 2
#     Edge 13, Type (0, 1), BuildingBlock: MIFKUJ_clean_linker_0, # of connection points: 2
#     Edge 14, Type (0, 1), BuildingBlock: MIFKUJ_clean_linker_0, # of connection points: 2
#     Edge 15, Type (0, 1), BuildingBlock: MIFKUJ_clean_linker_0, # of connection points: 2
#     Edge 16, Type (0, 1), BuildingBlock: MIFKUJ_clean_linker_0, # of connection points: 2
#     Edge 17, Type (0, 1), BuildingBlock: MIFKUJ_clean_linker_0, # of connection points: 2
#     Edge 18, Type (0, 1), BuildingBlock: MIFKUJ_clean_linker_0, # of connection points: 2
#     Edge 19, Type (0, 1), BuildingBlock: MIFKUJ_clean_linker_0, # of connection points: 2
#     Edge 20, Type (0, 1), BuildingBlock: MIFKUJ_clean_linker_0, # of connection points: 2
#     Edge 21, Type (0, 1), BuildingBlock: MIFKUJ_clean_linker_0, # of connection points: 2
#     Edge 22, Type (0, 1), BuildingBlock: MIFKUJ_clean_linker_0, # of connection points: 2
#     Edge 23, Type (0, 1), BuildingBlock: MIFKUJ_clean_linker_0, # of connection points: 2
#     Edge 24, Type (0, 1), BuildingBlock: MIFKUJ_clean_linker_0, # of connection points: 2
#     Edge 25, Type (0, 1), BuildingBlock: MIFKUJ_clean_linker_0, # of connection points: 2
#     Edge 26, Type (0, 1), BuildingBlock: MIFKUJ_clean_linker_0, # of connection points: 2
#     Edge 27, Type (0, 1), BuildingBlock: MIFKUJ_clean_linker_0, # of connection points: 2
#     Edge 28, Type (0, 1), BuildingBlock: MIFKUJ_clean_linker_0, # of connection points: 2
#     Edge 29, Type (0, 1), BuildingBlock: MIFKUJ_clean_linker_0, # of connection points: 2
#     Edge 30, Type (0, 1), BuildingBlock: MIFKUJ_clean_linker_0, # of connection points: 2
#     Edge 31, Type (0, 1), BuildingBlock: MIFKUJ_clean_linker_0, # of connection points: 2
#     Edge 32, Type (0, 1), BuildingBlock: MIFKUJ_clean_linker_0, # of connection points: 2
#     Edge 33, Type (0, 1), BuildingBlock: MIFKUJ_clean_linker_0, # of connection points: 2
#     Edge 34, Type (0, 1), BuildingBlock: MIFKUJ_clean_linker_0, # of connection points: 2
#     Edge 35, Type (0, 1), BuildingBlock: MIFKUJ_clean_linker_0, # of connection points: 2
# Relax obj value: 0.326
# Max RMSD: 0.229
# Mean RMSD: 0.209
data_MOF--net-zzz--node1-BETDEL_clean_sbu_0--node2-MIDCAF_clean_linker_0--edge1-MIFKUJ_clean_linker_0
_symmetry_space_group_name_H-M    P1
_symmetry_Int_Tables_number       1
_symmetry_cell_setting            triclinic
loop_
_symmetry_equiv_pos_as_xyz
'x, y, z'
_cell_length_a     70.83822
_cell_length_b     69.712404
_cell_length_c     24.812505
_cell_angle_alpha  90.939415
_cell_angle_beta   89.82634
_cell_angle_gamma 96.226757
loop_
_atom_site_label
_atom_site_type_symbol
_atom_site_fract_x
_atom_site_fract_y
_atom_site_fract_z
_atom_type_partial_charge
C0 C 0.79113 0.44335 0.21911 0.0
C1 C 0.79044 0.46124 0.24558 0.0
C2 C 0.77636 0.47287 0.22974 0.0
C3 C 0.76396 0.46711 0.1868 0.0
H4 H 0.71453 0.47979 0.06276 0.0
H5 H 0.68577 0.48933 0.01969 0.0
H6 H 0.67418 0.43186 0.95139 0.0
H7 H 0.70242 0.42252 0.99427 0.0
H8 H 0.74992 0.42906 0.91172 0.0
H9 H 0.77201 0.42137 0.8409 0.0
H10 H 0.81054 0.40446 0.96141 0.0
H11 H 0.7886 0.41209 0.03216 0.0
H12 H 0.78048 0.42412 0.15593 0.0
H13 H 0.80186 0.43407 0.22922 0.0
H14 H 0.77525 0.48666 0.24955 0.0
H15 H 0.75386 0.4767 0.17394 0.0
N16 N 0.73804 0.4504 0.09546 0.0
N17 N 0.73911 0.43537 0.00988 0.0
N18 N 0.76447 0.43474 0.06914 0.0
C19 C 0.72968 0.4453 0.04689 0.0
C20 C 0.75652 0.43012 0.02051 0.0
C21 C 0.75547 0.44474 0.10693 0.0
C22 C 0.71068 0.45043 0.03183 0.0
C23 C 0.70545 0.46914 0.03984 0.0
C24 C 0.68913 0.47462 0.01467 0.0
C25 C 0.67767 0.46139 0.98183 0.0
C26 C 0.68244 0.4424 0.97679 0.0
C27 C 0.69872 0.43704 0.00124 0.0
C28 C 0.76768 0.42155 0.97768 0.0
C29 C 0.76285 0.42318 0.9231 0.0
C30 C 0.77548 0.41879 0.88247 0.0
C31 C 0.793 0.41244 0.89569 0.0
C32 C 0.79704 0.40916 0.94996 0.0
C33 C 0.78454 0.41373 0.99057 0.0
C34 C 0.76556 0.4497 0.1586 0.0
C35 C 0.77891 0.4377 0.17644 0.0
C36 C 0.91965 0.78534 0.22688 0.0
C37 C 0.93743 0.78462 0.25138 0.0
C38 C 0.94865 0.77014 0.23413 0.0
C39 C 0.94288 0.75778 0.19056 0.0
H40 H 0.94659 0.70308 0.08861 0.0
H41 H 0.95541 0.67243 0.05142 0.0
H42 H 0.91978 0.6784 0.91306 0.0
H43 H 0.91087 0.70849 0.94996 0.0
H44 H 0.92106 0.7568 0.91041 0.0
H45 H 0.92442 0.78448 0.85089 0.0
H46 H 0.90349 0.81989 0.97747 0.0
H47 H 0.8997 0.79231 0.03619 0.0
H48 H 0.90073 0.77496 0.16356 0.0
H49 H 0.91064 0.79633 0.23823 0.0
H50 H 0.96229 0.76894 0.25263 0.0
H51 H 0.95238 0.74774 0.17555 0.0
N52 N 0.92647 0.73377 0.09331 0.0
N53 N 0.91785 0.74002 0.00415 0.0
N54 N 0.91597 0.76348 0.07136 0.0
C55 C 0.92383 0.72772 0.0409 0.0
C56 C 0.91389 0.75792 0.01911 0.0
C57 C 0.92218 0.75167 0.10867 0.0
C58 C 0.92813 0.70833 0.02213 0.0
C59 C 0.94046 0.69766 0.05066 0.0
C60 C 0.9456 0.68019 0.02921 0.0
C61 C 0.93828 0.67295 0.97928 0.0
C62 C 0.92549 0.68336 0.95191 0.0
C63 C 0.92052 0.70078 0.97295 0.0
C64 C 0.91061 0.7725 0.97853 0.0
C65 C 0.91651 0.77031 0.92486 0.0
C66 C 0.91856 0.7862 0.89083 0.0
C67 C 0.91464 0.80447 0.90987 0.0
C68 C 0.90663 0.80605 0.9614 0.0
C69 C 0.90462 0.79022 0.99534 0.0
C70 C 0.92585 0.75979 0.1635 0.0
C71 C 0.91396 0.77309 0.18367 0.0
C72 C 0.72377 0.00973 0.25364 0.0
C73 C 0.71599 0.9914 0.27068 0.0
C74 C 0.72426 0.97509 0.25142 0.0
C75 C 0.73889 0.97698 0.21289 0.0
H76 H 0.81207 0.02089 0.0943 0.0
H77 H 0.84245 0.02023 0.04703 0.0
H78 H 0.82374 0.96308 0.98514 0.0
H79 H 0.79351 0.96389 0.03249 0.0
H80 H 0.7624 0.018 0.94938 0.0
H81 H 0.74172 0.02605 0.87582 0.0
H82 H 0.69245 0.00546 0.96965 0.0
H83 H 0.71285 0.99759 0.0429 0.0
H84 H 0.74273 0.02573 0.19902 0.0
H85 H 0.71769 0.0226 0.26699 0.0
H86 H 0.71876 0.96076 0.26407 0.0
H87 H 0.74389 0.96409 0.19555 0.0
N88 N 0.77338 0.99359 0.1313 0.0
N89 N 0.76975 0.99967 0.03882 0.0
N90 N 0.74413 1.00121 0.09755 0.0
C91 C 0.7808 0.99515 0.08035 0.0
C92 C 0.7514 0.00267 0.04713 0.0
C93 C 0.75486 0.99674 0.13966 0.0
C94 C 0.80068 0.99227 0.06793 0.0
C95 C 0.81486 0.00789 0.07252 0.0
C96 C 0.83211 0.0076 0.04475 0.0
C97 C 0.83549 0.99167 0.01179 0.0
C98 C 0.82175 0.97549 0.0105 0.0
C99 C 0.80446 0.97589 0.03785 0.0
C100 C 0.73923 0.0072 0.00192 0.0
C101 C 0.74715 0.01512 0.95408 0.0
C102 C 0.73538 0.01979 0.91216 0.0
C103 C 0.71558 0.01622 0.91714 0.0
C104 C 0.70771 0.00811 0.96464 0.0
C105 C 0.7194 0.00376 0.0067 0.0
C106 C 0.7455 0.9952 0.19288 0.0
C107 C 0.73823 0.01157 0.21487 0.0
C108 C 0.61737 0.70436 0.99954 0.0
C109 C 0.61535 0.70738 0.94406 0.0
C110 C 0.61409 0.72627 0.92638 0.0
C111 C 0.61237 0.74126 0.96364 0.0
H112 H 0.606 0.80123 0.99386 0.0
H113 H 0.59542 0.82962 0.95301 0.0
H114 H 0.54829 0.8275 0.06427 0.0
H115 H 0.55889 0.79879 0.10551 0.0
H116 H 0.55186 0.74993 0.17591 0.0
H117 H 0.53961 0.72664 0.24418 0.0
H118 H 0.59703 0.71695 0.28447 0.0
H119 H 0.6091 0.73984 0.21601 0.0
H120 H 0.61598 0.71606 0.07918 0.0
H121 H 0.61835 0.69006 0.01489 0.0
H122 H 0.61299 0.72918 0.88382 0.0
H123 H 0.60982 0.75526 0.94868 0.0
N124 N 0.59924 0.76839 0.04121 0.0
N125 N 0.58309 0.77255 0.12293 0.0
N126 N 0.59892 0.74506 0.10764 0.0
C127 C 0.58893 0.77929 0.07358 0.0
C128 C 0.58849 0.75554 0.14038 0.0
C129 C 0.60425 0.75122 0.05786 0.0
C130 C 0.58323 0.79765 0.05282 0.0
C131 C 0.59346 0.80686 0.01008 0.0
C132 C 0.58748 0.82325 0.98686 0.0
C133 C 0.57103 0.83082 0.00541 0.0
C134 C 0.56097 0.82192 0.04895 0.0
C135 C 0.56711 0.80556 0.07275 0.0
C136 C 0.5814 0.7467 0.19111 0.0
C137 C 0.56181 0.74338 0.20097 0.0
C138 C 0.55482 0.72992 0.23953 0.0
C139 C 0.56737 0.7199 0.26937 0.0
C140 C 0.58702 0.72455 0.26252 0.0
C141 C 0.59394 0.73767 0.22339 0.0
C142 C 0.61197 0.7376 0.01922 0.0
C143 C 0.6158 0.71933 0.03667 0.0
C144 C 0.21531 0.55233 0.94376 0.0
C145 C 0.2153 0.53527 0.91281 0.0
C146 C 0.22962 0.52317 0.92265 0.0
C147 C 0.24315 0.52777 0.96365 0.0
H148 H 0.31646 0.56116 0.10754 0.0
H149 H 0.34274 0.54923 0.15564 0.0
H150 H 0.30889 0.49455 0.17759 0.0
H151 H 0.2826 0.50663 0.12876 0.0
H152 H 0.26437 0.56283 0.2379 0.0
H153 H 0.24265 0.57165 0.30832 0.0
H154 H 0.21009 0.59843 0.18944 0.0
H155 H 0.2318 0.58989 0.1195 0.0
H156 H 0.22783 0.57007 0.00739 0.0
H157 H 0.20443 0.56191 0.9386 0.0
H158 H 0.23024 0.51001 0.89924 0.0
H159 H 0.25357 0.51789 0.97145 0.0
N160 N 0.27063 0.53981 0.05376 0.0
N161 N 0.27424 0.55604 0.13796 0.0
N162 N 0.2488 0.56092 0.08236 0.0
C163 C 0.28061 0.54388 0.10043 0.0
C164 C 0.25833 0.56463 0.12915 0.0
C165 C 0.2547 0.54869 0.04433 0.0
C166 C 0.29772 0.53466 0.11364 0.0
C167 C 0.31499 0.54631 0.12062 0.0
C168 C 0.32999 0.53948 0.14838 0.0
C169 C 0.32787 0.52098 0.17081 0.0
C170 C 0.31091 0.50891 0.16106 0.0
C171 C 0.29597 0.51569 0.13252 0.0
C172 C 0.24944 0.57516 0.17293 0.0
C173 C 0.25302 0.57128 0.22713 0.0
C174 C 0.24055 0.57628 0.2675 0.0
C175 C 0.22443 0.58533 0.25423 0.0
C176 C 0.22235 0.59145 0.20111 0.0
C177 C 0.23473 0.58637 0.16081 0.0
C178 C 0.24257 0.54453 0.99568 0.0
C179 C 0.22875 0.55693 0.98407 0.0
C180 C 0.05296 0.23093 0.92256 0.0
C181 C 0.06535 0.22119 0.89031 0.0
C182 C 0.08502 0.22601 0.89585 0.0
C183 C 0.09218 0.23885 0.93655 0.0
H184 H 0.07378 0.30808 0.04758 0.0
H185 H 0.06675 0.33851 0.08984 0.0
H186 H 0.08368 0.31832 0.24422 0.0
H187 H 0.09112 0.28854 0.20251 0.0
H188 H 0.09889 0.24698 0.21839 0.0
H189 H 0.09882 0.21868 0.27482 0.0
H190 H 0.112 0.18449 0.13586 0.0
H191 H 0.11228 0.2127 0.07942 0.0
H192 H 0.05034 0.25029 0.98971 0.0
H193 H 0.03773 0.22744 0.919 0.0
H194 H 0.09487 0.2186 0.87187 0.0
H195 H 0.10737 0.24093 0.94337 0.0
N196 N 0.08273 0.27212 0.04505 0.0
N197 N 0.09573 0.26448 0.12809 0.0
N198 N 0.09522 0.24255 0.05594 0.0
C199 C 0.08758 0.2772 0.09698 0.0
C200 C 0.09962 0.24715 0.10791 0.0
C201 C 0.08687 0.25485 0.02431 0.0
C202 C 0.08313 0.29582 0.1214 0.0
C203 C 0.07607 0.31021 0.09049 0.0
C204 C 0.07198 0.32763 0.11474 0.0
C205 C 0.07486 0.331 0.17038 0.0
C206 C 0.08175 0.31651 0.20108 0.0
C207 C 0.08589 0.29926 0.17701 0.0
C208 C 0.10507 0.23198 0.14408 0.0
C209 C 0.10241 0.23361 0.20008 0.0
C210 C 0.1023 0.21739 0.23246 0.0
C211 C 0.105 0.19932 0.2095 0.0
C212 C 0.10985 0.19821 0.15472 0.0
C213 C 0.10986 0.21438 0.12228 0.0
C214 C 0.0798 0.24745 0.97144 0.0
C215 C 0.06015 0.24414 0.96252 0.0
C216 C 0.29187 0.99692 0.88617 0.0
C217 C 0.29694 0.01316 0.85418 0.0
C218 C 0.28653 0.02921 0.86053 0.0
C219 C 0.27258 0.02958 0.90087 0.0
H220 H 0.20422 0.99581 0.0231 0.0
H221 H 0.1729 0.99416 0.0668 0.0
H222 H 0.19006 0.04789 0.15091 0.0
H223 H 0.22121 0.0493 0.10803 0.0
H224 H 0.25695 0.01163 0.18873 0.0
H225 H 0.27877 0.00528 0.26089 0.0
H226 H 0.32612 0.01615 0.15143 0.0
H227 H 0.30456 0.02268 0.07992 0.0
H228 H 0.27566 0.98522 0.95327 0.0
H229 H 0.2996 0.98437 0.88329 0.0
H230 H 0.28981 0.04188 0.83616 0.0
H231 H 0.26597 0.0427 0.90789 0.0
N232 N 0.24163 0.01881 0.99748 0.0
N233 N 0.24741 0.02115 0.09113 0.0
N234 N 0.27222 0.01663 0.03188 0.0
C235 C 0.23519 0.02119 0.04902 0.0
C236 C 0.26593 0.01888 0.08282 0.0
C237 C 0.26038 0.01666 0.98918 0.0
C238 C 0.21502 0.0228 0.06176 0.0
C239 C 0.20097 0.00759 0.04933 0.0
C240 C 0.18316 0.00654 0.07487 0.0
C241 C 0.17902 0.02085 0.11257 0.0
C242 C 0.19267 0.03674 0.12176 0.0
C243 C 0.21051 0.03758 0.09711 0.0
C244 C 0.27901 0.01747 0.12848 0.0
C245 C 0.27205 0.01301 0.18041 0.0
C246 C 0.2845 0.00927 0.22162 0.0
C247 C 0.30411 0.01017 0.21169 0.0
C248 C 0.3111 0.01555 0.1605 0.0
C249 C 0.2987 0.01913 0.11935 0.0
C250 C 0.26874 0.01389 0.9354 0.0
C251 C 0.27802 0.99733 0.92631 0.0
C252 C 0.39327 0.30552 0.11505 0.0
C253 C 0.40004 0.30874 0.16797 0.0
C254 C 0.40673 0.29333 0.19552 0.0
C255 C 0.40861 0.27585 0.16873 0.0
H256 H 0.42767 0.22307 0.18372 0.0
H257 H 0.43497 0.19427 0.2288 0.0
H258 H 0.44432 0.1671 0.07459 0.0
H259 H 0.43765 0.19651 0.02917 0.0
H260 H 0.46508 0.25592 0.97466 0.0
H261 H 0.47888 0.27957 0.90957 0.0
H262 H 0.4227 0.28682 0.85188 0.0
H263 H 0.40904 0.26348 0.91713 0.0
H264 H 0.3914 0.28667 0.04599 0.0
H265 H 0.38755 0.3169 0.09321 0.0
H266 H 0.41211 0.29528 0.23627 0.0
H267 H 0.41532 0.26489 0.18966 0.0
N268 N 0.41671 0.2421 0.10413 0.0
N269 N 0.43271 0.23419 0.02481 0.0
N270 N 0.41725 0.2623 0.02995 0.0
C271 C 0.4268 0.22972 0.076 0.0
C272 C 0.42768 0.25047 0.00157 0.0
C273 C 0.41177 0.25834 0.08116 0.0
C274 C 0.43195 0.2121 0.10269 0.0
C275 C 0.43126 0.21099 0.1592 0.0
C276 C 0.43533 0.19433 0.18518 0.0
C277 C 0.43995 0.17813 0.15549 0.0
C278 C 0.44093 0.17931 0.09888 0.0
C279 C 0.43706 0.19615 0.07277 0.0
C280 C 0.43603 0.25783 0.95053 0.0
C281 C 0.45581 0.26185 0.94613 0.0
C282 C 0.46367 0.27559 0.90946 0.0
C283 C 0.45185 0.28524 0.87615 0.0
C284 C 0.4322 0.27958 0.8767 0.0
C285 C 0.42436 0.26614 0.91388 0.0
C286 C 0.40404 0.27359 0.1138 0.0
C287 C 0.39536 0.28815 0.08811 0.0
Dy288 Dy 0.0146 0.99188 0.61744 0.0
C289 C 0.00808 0.02939 0.41594 0.0
C290 C 0.01215 0.97564 0.71669 0.0
Dy291 Dy 0.00386 0.01311 0.51494 0.0
O292 O 0.02376 0.9714 0.67868 0.0
O293 O 0.00267 0.98944 0.70101 0.0
O294 O 0.04124 0.98373 0.57658 0.0
O295 O 0.02998 0.0092 0.55633 0.0
C296 C 0.04226 0.99816 0.54371 0.0
C297 C 0.9762 0.0073 0.5886 0.0
O298 O 0.99892 0.98211 0.4859 0.0
O299 O 0.00052 0.96707 0.56864 0.0
O300 O 0.99608 0.03392 0.45262 0.0
O301 O 0.01681 0.01516 0.43261 0.0
O302 O 0.97713 0.02141 0.55455 0.0
O303 O 0.98841 0.99609 0.57656 0.0
O304 O 0.01815 0.02274 0.64747 0.0
O305 O 0.01758 0.03789 0.56475 0.0
C306 C 0.99749 0.96636 0.51584 0.0
C307 C 0.01983 0.03855 0.61787 0.0
Dy308 Dy 0.49216 0.98272 0.53502 0.0
C309 C 0.55399 0.03358 0.61544 0.0
C310 C 0.46079 0.96153 0.49358 0.0
Dy311 Dy 0.51994 0.01445 0.58635 0.0
O312 O 0.47612 0.96699 0.46661 0.0
O313 O 0.46286 0.96734 0.5433 0.0
O314 O 0.51704 0.96756 0.50701 0.0
O315 O 0.51934 0.99785 0.51163 0.0
C316 C 0.5283 0.98347 0.50233 0.0
C317 C 0.48405 0.01468 0.61998 0.0
O318 O 0.51063 0.03124 0.51767 0.0
O319 O 0.48426 0.00972 0.49579 0.0
O320 O 0.53809 0.03507 0.64079 0.0
O321 O 0.55111 0.02193 0.5744 0.0
O322 O 0.49615 0.03016 0.61855 0.0
O323 O 0.49237 0.9999 0.60921 0.0
O324 O 0.49989 0.96629 0.60638 0.0
O325 O 0.5254 0.98813 0.63343 0.0
C326 C 0.49457 0.02668 0.49093 0.0
C327 C 0.51492 0.97119 0.63723 0.0
Dy328 Dy 0.50438 0.5164 0.6304 0.0
C329 C 0.48888 0.4733 0.43332 0.0
C330 C 0.51321 0.54097 0.71514 0.0
Dy331 Dy 0.50676 0.49189 0.51861 0.0
O332 O 0.50231 0.5443 0.67509 0.0
O333 O 0.51866 0.52383 0.7099 0.0
O334 O 0.47235 0.51358 0.6197 0.0
O335 O 0.49055 0.51377 0.55304 0.0
C336 C 0.47347 0.51172 0.5674 0.0
C337 C 0.53743 0.49025 0.58184 0.0
O338 O 0.51655 0.5216 0.49035 0.0
O339 O 0.52236 0.5364 0.57521 0.0
O340 O 0.50708 0.47905 0.43446 0.0
O341 O 0.48091 0.47742 0.47856 0.0
O342 O 0.53546 0.48099 0.53552 0.0
O343 O 0.52312 0.49914 0.58873 0.0
O344 O 0.49851 0.48638 0.66108 0.0
O345 O 0.49305 0.47047 0.57774 0.0
C346 C 0.52326 0.53653 0.5215 0.0
C347 C 0.49308 0.47071 0.6314 0.0
Dy348 Dy 0.99445 0.49119 0.60956 0.0
C349 C 0.03979 0.53045 0.44754 0.0
C350 C 0.97069 0.47691 0.68985 0.0
Dy351 Dy 0.01394 0.51598 0.52184 0.0
O352 O 0.98235 0.46716 0.6632 0.0
O353 O 0.97199 0.49447 0.67243 0.0
O354 O 0.01087 0.46676 0.58434 0.0
O355 O 0.0026 0.48582 0.52624 0.0
C356 C 0.01204 0.47183 0.53418 0.0
C357 C 0.9969 0.53535 0.59888 0.0
O358 O 0.9868 0.50829 0.4776 0.0
O359 O 0.97019 0.49595 0.55285 0.0
O360 O 0.02894 0.54067 0.47568 0.0
O361 O 0.03602 0.51233 0.45879 0.0
O362 O 0.998 0.54061 0.54885 0.0
O363 O 0.00615 0.52115 0.60561 0.0
O364 O 0.02218 0.49961 0.65159 0.0
O365 O 0.03838 0.50914 0.57361 0.0
C366 C 0.97077 0.5018 0.50191 0.0
C367 C 0.03825 0.50435 0.62511 0.0
H368 H 0.15459 0.04765 0.13858 0.0
H369 H 0.12871 0.04459 0.20468 0.0
H370 H 0.13896 0.98568 0.23261 0.0
H371 H 0.16438 0.98852 0.16548 0.0
H372 H 0.10231 0.98813 0.23707 0.0
H373 H 0.15769 0.0259 0.31573 0.0
H374 H 0.18263 0.0535 0.31971 0.0
H375 H 0.14002 0.09287 0.32432 0.0
H376 H 0.11483 0.0655 0.31978 0.0
H377 H 0.06389 0.97217 0.49776 0.0
H378 H 0.08499 0.9768 0.41956 0.0
H379 H 0.072 0.03565 0.40811 0.0
H380 H 0.051 0.03106 0.48646 0.0
H381 H 0.10764 0.03497 0.39037 0.0
H382 H 0.05233 0.99861 0.31888 0.0
H383 H 0.02642 0.97199 0.31461 0.0
H384 H 0.06715 0.93112 0.29349 0.0
H385 H 0.09331 0.95752 0.29865 0.0
C386 C 0.15113 0.03397 0.15832 0.0
C387 C 0.16161 0.01835 0.14688 0.0
C388 C 0.13639 0.03225 0.19637 0.0
C389 C 0.13211 0.01503 0.22483 0.0
C390 C 0.14196 0.99915 0.21149 0.0
C391 C 0.15649 1.00076 0.1729 0.0
C392 C 0.11813 0.01371 0.27029 0.0
C393 C 0.1036 0.99828 0.2708 0.0
C394 C 0.11928 0.02728 0.31371 0.0
C395 C 0.13441 0.04369 0.31692 0.0
C396 C 0.15366 0.04045 0.31732 0.0
C397 C 0.16783 0.05605 0.31971 0.0
C398 C 0.16291 0.07492 0.32214 0.0
C399 C 0.14381 0.07825 0.32236 0.0
C400 C 0.12958 0.0627 0.31992 0.0
C401 C 0.06556 0.98609 0.47854 0.0
C402 C 0.05564 1.00118 0.49782 0.0
C403 C 0.0775 0.98869 0.4335 0.0
C404 C 0.07974 0.00644 0.4067 0.0
C405 C 0.07034 0.02174 0.42735 0.0
C406 C 0.05831 0.01909 0.47214 0.0
C407 C 0.09207 0.00914 0.3578 0.0
C408 C 0.10624 0.02486 0.35654 0.0
C409 C 0.09045 0.99596 0.31347 0.0
C410 C 0.07478 0.98004 0.30976 0.0
C411 C 0.05576 0.98394 0.31381 0.0
C412 C 0.04103 0.96889 0.31116 0.0
C413 C 0.04514 0.94987 0.30393 0.0
C414 C 0.06399 0.94587 0.29917 0.0
C415 C 0.07877 0.96087 0.30193 0.0
H416 H 0.03372 0.93823 0.3019 0.0
H417 H 0.17391 0.08698 0.32398 0.0
H418 H 0.42219 0.16252 0.24556 0.0
H419 H 0.43057 0.13549 0.29794 0.0
H420 H 0.47362 0.125 0.18101 0.0
H421 H 0.46621 0.15295 0.1302 0.0
H422 H 0.43033 0.09901 0.28674 0.0
H423 H 0.51107 0.1086 0.24158 0.0
H424 H 0.53619 0.13441 0.2176 0.0
H425 H 0.50432 0.17672 0.292 0.0
H426 H 0.47916 0.15114 0.317 0.0
H427 H 0.47059 0.02028 0.40467 0.0
H428 H 0.46021 0.04422 0.34357 0.0
H429 H 0.49195 0.08968 0.43642 0.0
H430 H 0.50314 0.06573 0.49559 0.0
H431 H 0.49756 0.09746 0.34 0.0
H432 H 0.4404 0.07932 0.43964 0.0
H433 H 0.41393 0.05764 0.4771 0.0
H434 H 0.39726 0.03813 0.31749 0.0
H435 H 0.42363 0.05976 0.27903 0.0
C436 C 0.43361 0.15465 0.23114 0.0
C437 C 0.44379 0.16027 0.18409 0.0
C438 C 0.43821 0.13896 0.26087 0.0
C439 C 0.45296 0.12833 0.24409 0.0
C440 C 0.46244 0.1332 0.19551 0.0
C441 C 0.45803 0.14909 0.16609 0.0
C442 C 0.45891 0.11284 0.27892 0.0
C443 C 0.44505 0.09862 0.2982 0.0
C444 C 0.47802 0.11251 0.29507 0.0
C445 C 0.49314 0.12798 0.28052 0.0
C446 C 0.50946 0.12341 0.2529 0.0
C447 C 0.5237 0.138 0.23914 0.0
C448 C 0.52182 0.1572 0.25308 0.0
C449 C 0.50573 0.16185 0.28102 0.0
C450 C 0.49147 0.14731 0.29495 0.0
C451 C 0.47533 0.0354 0.41199 0.0
C452 C 0.48776 0.04113 0.45476 0.0
C453 C 0.46927 0.04911 0.37724 0.0
C454 C 0.47508 0.06888 0.3855 0.0
C455 C 0.48732 0.07456 0.42874 0.0
C456 C 0.49371 0.06084 0.46269 0.0
C457 C 0.46896 0.08369 0.34851 0.0
C458 C 0.48283 0.09773 0.32843 0.0
C459 C 0.44974 0.0843 0.33355 0.0
C460 C 0.43408 0.07103 0.35651 0.0
C461 C 0.43117 0.07031 0.41256 0.0
C462 C 0.41615 0.05808 0.43395 0.0
C463 C 0.40393 0.04651 0.39969 0.0
C464 C 0.40672 0.04712 0.34395 0.0
C465 C 0.42167 0.0594 0.32233 0.0
H466 H 0.39228 0.0371 0.41631 0.0
H467 H 0.53285 0.16847 0.24236 0.0
H468 H 0.36668 0.52544 0.16003 0.0
H469 H 0.39034 0.52003 0.22849 0.0
H470 H 0.34554 0.49904 0.33742 0.0
H471 H 0.32184 0.50449 0.26936 0.0
H472 H 0.37138 0.52786 0.38265 0.0
H473 H 0.37351 0.46809 0.28119 0.0
H474 H 0.37722 0.44901 0.19792 0.0
H475 H 0.43354 0.47744 0.17657 0.0
H476 H 0.4301 0.49684 0.25924 0.0
H477 H 0.43526 0.50364 0.58764 0.0
H478 H 0.40927 0.50178 0.52154 0.0
H479 H 0.44998 0.51547 0.39441 0.0
H480 H 0.47573 0.51719 0.45968 0.0
H481 H 0.42465 0.48768 0.36116 0.0
H482 H 0.42356 0.54942 0.446 0.0
H483 H 0.42219 0.57265 0.5215 0.0
H484 H 0.36724 0.54537 0.56633 0.0
H485 H 0.3684 0.52179 0.49138 0.0
C486 C 0.3619 0.51943 0.19831 0.0
C487 C 0.34238 0.51533 0.20914 0.0
C488 C 0.37543 0.51626 0.23732 0.0
C489 C 0.36972 0.50905 0.28805 0.0
C490 C 0.35027 0.50454 0.29851 0.0
C491 C 0.33675 0.50752 0.25937 0.0
C492 C 0.38393 0.50746 0.33137 0.0
C493 C 0.38281 0.51876 0.37844 0.0
C494 C 0.39926 0.49617 0.32503 0.0
C495 C 0.40144 0.4841 0.27606 0.0
C496 C 0.38663 0.47036 0.25855 0.0
C497 C 0.38871 0.45947 0.21149 0.0
C498 C 0.40555 0.46215 0.18177 0.0
C499 C 0.42047 0.47546 0.1995 0.0
C500 C 0.41848 0.48638 0.24648 0.0
C501 C 0.43858 0.50622 0.54557 0.0
C502 C 0.4575 0.51044 0.52878 0.0
C503 C 0.42376 0.50519 0.50785 0.0
C504 C 0.42765 0.50855 0.4529 0.0
C505 C 0.44658 0.5127 0.43637 0.0
C506 C 0.4613 0.51373 0.47385 0.0
C507 C 0.41214 0.50814 0.41236 0.0
C508 C 0.41304 0.49653 0.3658 0.0
C509 C 0.39693 0.51961 0.41835 0.0
C510 C 0.39618 0.53368 0.46356 0.0
C511 C 0.41126 0.54826 0.47227 0.0
C512 C 0.41051 0.56151 0.51489 0.0
C513 C 0.39466 0.56044 0.54882 0.0
C514 C 0.37952 0.54615 0.54009 0.0
C515 C 0.38022 0.53283 0.49753 0.0
H516 H 0.3941 0.57073 0.58179 0.0
H517 H 0.40706 0.45399 0.1449 0.0
H518 H 0.09491 0.35162 0.25022 0.0
H519 H 0.08517 0.37848 0.30399 0.0
H520 H 0.03533 0.37918 0.20525 0.0
H521 H 0.04459 0.35172 0.15208 0.0
H522 H 0.05664 0.41811 0.24016 0.0
H523 H 0.02696 0.35715 0.30844 0.0
H524 H 0.02761 0.32375 0.33903 0.0
H525 H 0.06688 0.34373 0.46448 0.0
H526 H 0.0667 0.37723 0.43402 0.0
H527 H 0.00351 0.4703 0.42687 0.0
H528 H 0.01559 0.44932 0.35783 0.0
H529 H 0.05282 0.42824 0.4755 0.0
H530 H 0.0398 0.44829 0.54507 0.0
H531 H 0.03723 0.39962 0.42614 0.0
H532 H 0.06998 0.45905 0.35902 0.0
H533 H 0.07308 0.49265 0.32748 0.0
H534 H 0.03151 0.47697 0.20454 0.0
H535 H 0.02855 0.44315 0.23437 0.0
C536 C 0.08188 0.35747 0.2397 0.0
C537 C 0.07034 0.34922 0.19741 0.0
C538 C 0.07645 0.37294 0.27021 0.0
C539 C 0.05948 0.38068 0.25878 0.0
C540 C 0.04852 0.37341 0.2145 0.0
C541 C 0.05386 0.35773 0.18415 0.0
C542 C 0.05241 0.39494 0.29659 0.0
C543 C 0.05215 0.41412 0.28067 0.0
C544 C 0.04708 0.38976 0.34976 0.0
C545 C 0.04695 0.36966 0.36863 0.0
C546 C 0.03585 0.3544 0.34227 0.0
C547 C 0.03611 0.33546 0.35962 0.0
C548 C 0.04732 0.33161 0.40359 0.0
C549 C 0.05823 0.34672 0.43039 0.0
C550 C 0.05804 0.36569 0.41312 0.0
C551 C 0.0144 0.46129 0.43769 0.0
C552 C 0.02064 0.46074 0.49126 0.0
C553 C 0.02146 0.44942 0.39807 0.0
C554 C 0.03533 0.43724 0.41099 0.0
C555 C 0.04206 0.43736 0.46431 0.0
C556 C 0.03465 0.44883 0.5041 0.0
C557 C 0.04171 0.4232 0.37056 0.0
C558 C 0.04174 0.40387 0.38584 0.0
C559 C 0.04717 0.42839 0.31723 0.0
C560 C 0.04888 0.44867 0.29932 0.0
C561 C 0.06143 0.46281 0.32545 0.0
C562 C 0.06319 0.48187 0.30784 0.0
C563 C 0.05229 0.487 0.26461 0.0
C564 C 0.03987 0.47299 0.23822 0.0
C565 C 0.03824 0.45386 0.25519 0.0
H566 H 0.05351 0.5018 0.25144 0.0
H567 H 0.04751 0.31694 0.41697 0.0
H568 H 0.85887 0.96358 0.98732 0.0
H569 H 0.88389 0.96462 0.91838 0.0
H570 H 0.87425 0.02296 0.88119 0.0
H571 H 0.84925 0.02198 0.94941 0.0
H572 H 0.87439 0.99942 0.79059 0.0
H573 H 0.91311 0.01373 0.94966 0.0
H574 H 0.92544 0.0074 0.03972 0.0
H575 H 0.94538 0.95508 0.97972 0.0
H576 H 0.93291 0.96094 0.88944 0.0
H577 H 0.95101 0.03175 0.62282 0.0
H578 H 0.92813 0.02726 0.69678 0.0
H579 H 0.94713 0.97193 0.72983 0.0
H580 H 0.96984 0.97623 0.65499 0.0
H581 H 0.94201 0.99049 0.8217 0.0
H582 H 0.90504 0.97475 0.66579 0.0
H583 H 0.89261 0.9786 0.57439 0.0
H584 H 0.86868 0.02983 0.6263 0.0
H585 H 0.88122 0.02645 0.71792 0.0
C586 C 0.86221 0.97668 0.96476 0.0
C587 C 0.85209 0.99273 0.97418 0.0
C588 C 0.87657 0.97728 0.92551 0.0
C589 C 0.88101 0.99389 0.89459 0.0
C590 C 0.87113 0.00999 0.90453 0.0
C591 C 0.85693 0.00947 0.94399 0.0
C592 C 0.89526 0.99433 0.8501 0.0
C593 C 0.88923 0.99772 0.79757 0.0
C594 C 0.91445 0.99122 0.85861 0.0
C595 C 0.92183 0.98764 0.91297 0.0
C596 C 0.91993 1.00076 0.9558 0.0
C597 C 0.92699 0.99728 0.00687 0.0
C598 C 0.93612 0.98081 0.0155 0.0
C599 C 0.93826 0.96781 0.97302 0.0
C600 C 0.9312 0.9712 0.9219 0.0
C601 C 0.95022 0.01857 0.64561 0.0
C602 C 0.96223 0.00436 0.63312 0.0
C603 C 0.93711 0.01598 0.68788 0.0
C604 C 0.93563 0.99907 0.71846 0.0
C605 C 0.94785 0.98499 0.70658 0.0
C606 C 0.96087 0.98751 0.66393 0.0
C607 C 0.92124 0.99618 0.76249 0.0
C608 C 0.92717 0.99217 0.81472 0.0
C609 C 0.90184 0.99833 0.75363 0.0
C610 C 0.89422 1.00044 0.69863 0.0
C611 C 0.89725 0.98692 0.65764 0.0
C612 C 0.89017 0.989 0.6058 0.0
C613 C 0.8799 0.00447 0.59451 0.0
C614 C 0.87666 0.01787 0.6351 0.0
C615 C 0.88373 0.01587 0.68701 0.0
H616 H 0.87442 0.00606 0.55435 0.0
H617 H 0.94159 0.97816 0.05505 0.0
H618 H 0.53468 0.83455 0.97355 0.0
H619 H 0.52392 0.85971 0.91707 0.0
H620 H 0.58075 0.88902 0.91507 0.0
H621 H 0.59154 0.86405 0.97214 0.0
H622 H 0.55337 0.91446 0.92471 0.0
H623 H 0.56628 0.86034 0.8124 0.0
H624 H 0.56312 0.8261 0.78382 0.0
H625 H 0.5033 0.82741 0.75925 0.0
H626 H 0.50606 0.86161 0.78847 0.0
H627 H 0.54828 0.97191 0.69305 0.0
H628 H 0.55668 0.94912 0.76032 0.0
H629 H 0.50143 0.91689 0.7429 0.0
H630 H 0.49316 0.93928 0.67432 0.0
H631 H 0.52703 0.89303 0.74591 0.0
H632 H 0.51403 0.94753 0.85488 0.0
H633 H 0.51708 0.98178 0.88338 0.0
H634 H 0.57644 0.98 0.91466 0.0
H635 H 0.5738 0.94578 0.88572 0.0
C636 C 0.54479 0.84656 0.96203 0.0
C637 C 0.56399 0.84725 0.97699 0.0
C638 C 0.53866 0.86085 0.92942 0.0
C639 C 0.5516 0.8761 0.91127 0.0
C640 C 0.57055 0.87735 0.92844 0.0
C641 C 0.57671 0.86302 0.96075 0.0
C642 C 0.54567 0.89009 0.87187 0.0
C643 C 0.54775 0.90983 0.88543 0.0
C644 C 0.53801 0.88399 0.82102 0.0
C645 C 0.53634 0.86347 0.80319 0.0
C646 C 0.55242 0.85328 0.80133 0.0
C647 C 0.55071 0.83389 0.78495 0.0
C648 C 0.53301 0.82457 0.76988 0.0
C649 C 0.51699 0.83464 0.77103 0.0
C650 C 0.51863 0.85403 0.78747 0.0
C651 C 0.53788 0.96001 0.70362 0.0
C652 C 0.52002 0.95745 0.67834 0.0
C653 C 0.54268 0.94702 0.74238 0.0
C654 C 0.52959 0.93142 0.75748 0.0
C655 C 0.51178 0.92881 0.73208 0.0
C656 C 0.50706 0.94165 0.69284 0.0
C657 C 0.53462 0.91752 0.79864 0.0
C658 C 0.53247 0.89774 0.78533 0.0
C659 C 0.54214 0.92361 0.84976 0.0
C660 C 0.54374 0.94413 0.8677 0.0
C661 C 0.52776 0.95447 0.86753 0.0
C662 C 0.52941 0.97387 0.88381 0.0
C663 C 0.54696 0.98307 0.90071 0.0
C664 C 0.56287 0.97286 0.90152 0.0
C665 C 0.56129 0.95345 0.88526 0.0
H666 H 0.54821 0.99809 0.91326 0.0
H667 H 0.53171 0.80956 0.75719 0.0
H668 H 0.64272 0.44142 0.96301 0.0
H669 H 0.61911 0.44848 0.89678 0.0
H670 H 0.65259 0.50212 0.86026 0.0
H671 H 0.67668 0.49476 0.92508 0.0
H672 H 0.59628 0.47515 0.88031 0.0
H673 H 0.64977 0.51021 0.72524 0.0
H674 H 0.68347 0.51007 0.69986 0.0
H675 H 0.68338 0.45296 0.76226 0.0
H676 H 0.64964 0.45268 0.78733 0.0
H677 H 0.54757 0.51501 0.66517 0.0
H678 H 0.57116 0.51169 0.73552 0.0
H679 H 0.58707 0.46058 0.65482 0.0
H680 H 0.56284 0.4635 0.58561 0.0
H681 H 0.61856 0.48635 0.69239 0.0
H682 H 0.56116 0.45202 0.75957 0.0
H683 H 0.52702 0.44792 0.78122 0.0
H684 H 0.53449 0.49706 0.88876 0.0
H685 H 0.56879 0.50137 0.86779 0.0
C686 C 0.64503 0.45479 0.94113 0.0
C687 C 0.66175 0.46739 0.94895 0.0
C688 C 0.63143 0.45887 0.90346 0.0
C689 C 0.63419 0.47567 0.87266 0.0
C690 C 0.65028 0.48889 0.88278 0.0
C691 C 0.66395 0.48477 0.92039 0.0
C692 C 0.62077 0.47867 0.82811 0.0
C693 C 0.60124 0.47777 0.83941 0.0
C694 C 0.62704 0.48164 0.77422 0.0
C695 C 0.64725 0.48153 0.75868 0.0
C696 C 0.65694 0.49761 0.73337 0.0
C697 C 0.67604 0.4976 0.71906 0.0
C698 C 0.68558 0.48154 0.72961 0.0
C699 C 0.676 0.46542 0.75429 0.0
C700 C 0.65689 0.46535 0.7686 0.0
C701 C 0.55581 0.50288 0.6632 0.0
C702 C 0.55293 0.48918 0.62114 0.0
C703 C 0.56946 0.50112 0.7029 0.0
C704 C 0.58073 0.48575 0.70076 0.0
C705 C 0.5785 0.47252 0.65731 0.0
C706 C 0.56467 0.47419 0.61787 0.0
C707 C 0.59427 0.4831 0.745 0.0
C708 C 0.61374 0.48403 0.73354 0.0
C709 C 0.58795 0.4797 0.79845 0.0
C710 C 0.56746 0.47709 0.81185 0.0
C711 C 0.55549 0.46199 0.78767 0.0
C712 C 0.53612 0.45962 0.79985 0.0
C713 C 0.52854 0.47228 0.83614 0.0
C714 C 0.54037 0.48727 0.86061 0.0
C715 C 0.5598 0.48965 0.84875 0.0
H716 H 0.51352 0.47045 0.84539 0.0
H717 H 0.70037 0.48157 0.71856 0.0
H718 H 0.9166 0.64376 0.92595 0.0
H719 H 0.92764 0.6177 0.87153 0.0
H720 H 0.98534 0.63591 0.91986 0.0
H721 H 0.97442 0.66248 0.97306 0.0
H722 H 0.98354 0.63165 0.81485 0.0
H723 H 0.96152 0.59296 0.96298 0.0
H724 H 0.93913 0.57989 0.03291 0.0
H725 H 0.89992 0.55679 0.91063 0.0
H726 H 0.92195 0.56996 0.83993 0.0
H727 H 0.9983 0.52886 0.707 0.0
H728 H 0.98905 0.54982 0.78061 0.0
H729 H 0.97057 0.58921 0.66455 0.0
H730 H 0.97995 0.56843 0.59095 0.0
H731 H 0.95616 0.56303 0.81216 0.0
H732 H 0.98259 0.63499 0.70864 0.0
H733 H 0.00701 0.64729 0.643 0.0
H734 H 0.04126 0.6027 0.68578 0.0
H735 H 0.01719 0.5903 0.75219 0.0
C736 C 0.93163 0.64212 0.92541 0.0
C737 C 0.94465 0.65531 0.95354 0.0
C738 C 0.93791 0.62708 0.89464 0.0
C739 C 0.95733 0.62476 0.89166 0.0
C740 C 0.97028 0.63741 0.92152 0.0
C741 C 0.96401 0.65249 0.95232 0.0
C742 C 0.96418 0.61022 0.85386 0.0
C743 C 0.9776 0.61663 0.81457 0.0
C744 C 0.95667 0.59053 0.85374 0.0
C745 C 0.94335 0.58258 0.89614 0.0
C746 C 0.94806 0.58522 0.95099 0.0
C747 C 0.93544 0.57777 0.99077 0.0
C748 C 0.9181 0.56755 0.97623 0.0
C749 C 0.91335 0.56472 0.92184 0.0
C750 C 0.92592 0.57216 0.88189 0.0
C751 C 0.99214 0.54193 0.69726 0.0
C752 C 0.99 0.54714 0.6433 0.0
C753 C 0.98683 0.55386 0.73933 0.0
C754 C 0.97939 0.57123 0.72811 0.0
C755 C 0.97659 0.57605 0.67417 0.0
C756 C 0.98189 0.56414 0.63215 0.0
C757 C 0.97508 0.58465 0.77255 0.0
C758 C 0.96214 0.57803 0.81287 0.0
C759 C 0.98328 0.60409 0.77431 0.0
C760 C 0.998 0.61163 0.73504 0.0
C761 C 0.99538 0.62787 0.70421 0.0
C762 C 0.00915 0.63485 0.66684 0.0
C763 C 0.02565 0.62575 0.66012 0.0
C764 C 0.02845 0.60969 0.69089 0.0
C765 C 0.01473 0.60267 0.72836 0.0
H766 H 0.03629 0.63116 0.63112 0.0
H767 H 0.90835 0.56179 0.00709 0.0
H768 H 0.07304 0.19108 0.26836 0.0
H769 H 0.06038 0.16009 0.30365 0.0
H770 H 0.11099 0.13547 0.25249 0.0
H771 H 0.12355 0.1667 0.21505 0.0
H772 H 0.08249 0.11249 0.22287 0.0
H773 H 0.09928 0.1415 0.39015 0.0
H774 H 0.1029 0.16598 0.46326 0.0
H775 H 0.04231 0.16311 0.47956 0.0
H776 H 0.03828 0.13885 0.40592 0.0
H777 H 0.03975 0.0266 0.35588 0.0
H778 H 0.05983 0.05372 0.31835 0.0
H779 H 0.01526 0.09036 0.34626 0.0
H780 H 0.99569 0.06345 0.38731 0.0
H781 H 0.04683 0.10462 0.3947 0.0
H782 H 0.03302 0.07658 0.21274 0.0
H783 H 0.03269 0.04957 0.14702 0.0
H784 H 0.09253 0.0478 0.1702 0.0
H785 H 0.09319 0.07476 0.23608 0.0
C786 C 0.08178 0.17926 0.26604 0.0
C787 C 0.09938 0.18137 0.23939 0.0
C788 C 0.0745 0.16147 0.28632 0.0
C789 C 0.08482 0.14542 0.28155 0.0
C790 C 0.10277 0.14764 0.25673 0.0
C791 C 0.10997 0.16547 0.2356 0.0
C792 C 0.07587 0.12616 0.29827 0.0
C793 C 0.07496 0.11071 0.2609 0.0
C794 C 0.0662 0.12362 0.34808 0.0
C795 C 0.06849 0.1384 0.39217 0.0
C796 C 0.08671 0.1462 0.40897 0.0
C797 C 0.08884 0.16003 0.45058 0.0
C798 C 0.07285 0.16612 0.47598 0.0
C799 C 0.05469 0.15838 0.45983 0.0
C800 C 0.05248 0.14457 0.41818 0.0
C801 C 0.03404 0.04029 0.3525 0.0
C802 C 0.01638 0.04306 0.37552 0.0
C803 C 0.04553 0.05582 0.3308 0.0
C804 C 0.03916 0.07419 0.32992 0.0
C805 C 0.02057 0.07636 0.34718 0.0
C806 C 0.00928 0.06094 0.37005 0.0
C807 C 0.0524 0.09157 0.31782 0.0
C808 C 0.05437 0.10651 0.3567 0.0
C809 C 0.06349 0.09336 0.2703 0.0
C810 C 0.06313 0.07761 0.22939 0.0
C811 C 0.04609 0.07042 0.20377 0.0
C812 C 0.04585 0.05513 0.1665 0.0
C813 C 0.06258 0.04697 0.15446 0.0
C814 C 0.0796 0.05415 0.17947 0.0
C815 C 0.07992 0.06947 0.21663 0.0
H816 H 0.06234 0.0351 0.12573 0.0
H817 H 0.07453 0.1768 0.50824 0.0
H818 H 0.33913 0.0277 0.23952 0.0
H819 H 0.36285 0.01453 0.29527 0.0
H820 H 0.32251 0.96557 0.33218 0.0
H821 H 0.29887 0.97842 0.27516 0.0
H822 H 0.36577 0.00477 0.39792 0.0
H823 H 0.34682 0.92526 0.33112 0.0
H824 H 0.33143 0.90656 0.25484 0.0
H825 H 0.34708 0.95383 0.14916 0.0
H826 H 0.36278 0.97269 0.22459 0.0
H827 H 0.42672 0.9552 0.54435 0.0
H828 H 0.39579 0.95676 0.50227 0.0
H829 H 0.42206 0.95727 0.34515 0.0
H830 H 0.45301 0.95556 0.38695 0.0
H831 H 0.38421 0.94046 0.34381 0.0
H832 H 0.42262 0.99763 0.4105 0.0
H833 H 0.44028 0.01762 0.48055 0.0
H834 H 0.38911 0.01844 0.57346 0.0
H835 H 0.37137 0.99791 0.50514 0.0
C836 C 0.33528 0.01422 0.25995 0.0
C837 C 0.31725 0.00398 0.2526 0.0
C838 C 0.34878 0.00677 0.29199 0.0
C839 C 0.3445 0.98893 0.31706 0.0
C840 C 0.32615 0.97924 0.31249 0.0
C841 C 0.31261 0.98668 0.28038 0.0
C842 C 0.35967 0.98006 0.34512 0.0
C843 C 0.36964 0.99062 0.38652 0.0
C844 C 0.36493 0.96173 0.32947 0.0
C845 C 0.35574 0.95045 0.28366 0.0
C846 C 0.347 0.93163 0.29157 0.0
C847 C 0.33823 0.92101 0.24848 0.0
C848 C 0.33821 0.92903 0.19724 0.0
C849 C 0.34703 0.94767 0.18891 0.0
C850 C 0.35585 0.95833 0.23183 0.0
C851 C 0.42577 0.9548 0.50076 0.0
C852 C 0.44222 0.95568 0.46878 0.0
C853 C 0.40811 0.95571 0.47683 0.0
C854 C 0.4068 0.9576 0.42081 0.0
C855 C 0.42285 0.95592 0.38851 0.0
C856 C 0.44052 0.955 0.41242 0.0
C857 C 0.39004 0.96506 0.39703 0.0
C858 C 0.37995 0.95436 0.35612 0.0
C859 C 0.38495 0.98349 0.41213 0.0
C860 C 0.39572 0.99594 0.45314 0.0
C861 C 0.41522 1.00182 0.44632 0.0
C862 C 0.42527 0.01323 0.4858 0.0
C863 C 0.4159 0.01916 0.53178 0.0
C864 C 0.39646 0.01372 0.53827 0.0
C865 C 0.3864 1.00215 0.49923 0.0
H866 H 0.42365 0.02814 0.56205 0.0
H867 H 0.3314 0.92079 0.16396 0.0
H868 H 0.39556 0.32084 0.27296 0.0
H869 H 0.40694 0.35247 0.31206 0.0
H870 H 0.42356 0.37304 0.15406 0.0
H871 H 0.41257 0.34166 0.11495 0.0
H872 H 0.44374 0.36742 0.3087 0.0
H873 H 0.42317 0.41818 0.14583 0.0
H874 H 0.39657 0.4211 0.08346 0.0
H875 H 0.35744 0.39316 0.19745 0.0
H876 H 0.38385 0.38993 0.2602 0.0
H877 H 0.50341 0.45232 0.35193 0.0
H878 H 0.48527 0.428 0.29424 0.0
H879 H 0.43293 0.44435 0.36119 0.0
H880 H 0.45091 0.46853 0.41857 0.0
H881 H 0.42894 0.43228 0.25333 0.0
H882 H 0.4532 0.41065 0.42291 0.0
H883 H 0.47912 0.40752 0.48743 0.0
H884 H 0.50826 0.37642 0.36819 0.0
H885 H 0.48262 0.37957 0.30281 0.0
C886 C 0.40134 0.33221 0.24647 0.0
C887 C 0.40317 0.32866 0.19084 0.0
C888 C 0.40779 0.35027 0.26883 0.0
C889 C 0.41604 0.3651 0.23592 0.0
C890 C 0.41693 0.36193 0.1801 0.0
C891 C 0.41054 0.34392 0.15777 0.0
C892 C 0.42565 0.3831 0.26014 0.0
C893 C 0.44042 0.38158 0.29677 0.0
C894 C 0.42139 0.40156 0.24445 0.0
C895 C 0.40544 0.40385 0.20756 0.0
C896 C 0.40888 0.41272 0.15757 0.0
C897 C 0.39385 0.41434 0.12208 0.0
C898 C 0.37533 0.40733 0.1365 0.0
C899 C 0.37179 0.39859 0.18632 0.0
C900 C 0.38679 0.39679 0.22176 0.0
C901 C 0.48804 0.45108 0.353 0.0
C902 C 0.47853 0.46195 0.39022 0.0
C903 C 0.4777 0.43722 0.32016 0.0
C904 C 0.45779 0.43418 0.32429 0.0
C905 C 0.44827 0.44641 0.35759 0.0
C906 C 0.45857 0.46011 0.39059 0.0
C907 C 0.44715 0.41651 0.30133 0.0
C908 C 0.43224 0.4181 0.2651 0.0
C909 C 0.45108 0.39803 0.31795 0.0
C910 C 0.46611 0.39549 0.35788 0.0
C911 C 0.46517 0.40318 0.41047 0.0
C912 C 0.4798 0.40141 0.44716 0.0
C913 C 0.49535 0.39185 0.43178 0.0
C914 C 0.49622 0.38386 0.37994 0.0
C915 C 0.48164 0.38561 0.34309 0.0
H916 H 0.50676 0.39066 0.45995 0.0
H917 H 0.36371 0.40868 0.10906 0.0
H918 H 0.20062 0.61325 0.27521 0.0
H919 H 0.16859 0.6077 0.31399 0.0
H920 H 0.1784 0.54951 0.35215 0.0
H921 H 0.21015 0.55483 0.31381 0.0
H922 H 0.14762 0.55491 0.27522 0.0
H923 H 0.17181 0.57371 0.45221 0.0
H924 H 0.18871 0.59544 0.51985 0.0
H925 H 0.15129 0.6385 0.4889 0.0
H926 H 0.13424 0.61704 0.42074 0.0
H927 H 0.06801 0.51076 0.41017 0.0
H928 H 0.0989 0.5241 0.37654 0.0
H929 H 0.08154 0.58152 0.38768 0.0
H930 H 0.05051 0.5681 0.42266 0.0
H931 H 0.11512 0.58045 0.43402 0.0
H932 H 0.08864 0.55971 0.26314 0.0
H933 H 0.0715 0.53717 0.19784 0.0
H934 H 0.11322 0.49749 0.21672 0.0
H935 H 0.13054 0.5197 0.28249 0.0
C936 C 0.19614 0.5995 0.29352 0.0
C937 C 0.20786 0.58445 0.29113 0.0
C938 C 0.1779 0.59637 0.31565 0.0
C939 C 0.1712 0.57815 0.33531 0.0
C940 C 0.1834 0.56366 0.33708 0.0
C941 C 0.20163 0.56682 0.31555 0.0
C942 C 0.1508 0.57314 0.34623 0.0
C943 C 0.14049 0.56038 0.3101 0.0
C944 C 0.14152 0.58085 0.39064 0.0
C945 C 0.15194 0.59389 0.43084 0.0
C946 C 0.16734 0.58791 0.45935 0.0
C947 C 0.17689 0.60014 0.49794 0.0
C948 C 0.17114 0.61838 0.50848 0.0
C949 C 0.15577 0.62439 0.48059 0.0
C950 C 0.14613 0.61219 0.44203 0.0
C951 C 0.07057 0.52617 0.40392 0.0
C952 C 0.05687 0.5384 0.41836 0.0
C953 C 0.08825 0.5338 0.3848 0.0
C954 C 0.09248 0.55381 0.37904 0.0
C955 C 0.07854 0.56604 0.39172 0.0
C956 C 0.06082 0.55837 0.41128 0.0
C957 C 0.11191 0.56182 0.36355 0.0
C958 C 0.1221 0.5752 0.39858 0.0
C959 C 0.12112 0.55469 0.31794 0.0
C960 C 0.11086 0.54137 0.27788 0.0
C961 C 0.09413 0.54615 0.25351 0.0
C962 C 0.0844 0.53344 0.21634 0.0
C963 C 0.09129 0.51593 0.20306 0.0
C964 C 0.10793 0.51109 0.22692 0.0
C965 C 0.11774 0.52375 0.26404 0.0
H966 H 0.0837 0.50609 0.1744 0.0
H967 H 0.17854 0.62783 0.53839 0.0
H968 H 0.94892 0.81171 0.86035 0.0
H969 H 0.96426 0.8429 0.83235 0.0
H970 H 0.91332 0.86916 0.86971 0.0
H971 H 0.89756 0.83771 0.89686 0.0
H972 H 0.93334 0.88421 0.77606 0.0
H973 H 0.9449 0.87185 0.96255 0.0
H974 H 0.95409 0.85223 0.03803 0.0
H975 H 0.00968 0.85111 0.96937 0.0
H976 H 0.00074 0.87052 0.8931 0.0
H977 H 0.98116 0.97739 0.78068 0.0
H978 H 0.96347 0.94979 0.82414 0.0
H979 H 0.00931 0.91542 0.79002 0.0
H980 H 0.02695 0.94288 0.74563 0.0
H981 H 0.98974 0.90616 0.88851 0.0
H982 H 0.97777 0.91614 0.69985 0.0
H983 H 0.96892 0.93481 0.62209 0.0
H984 H 0.91417 0.93957 0.6926 0.0
H985 H 0.9229 0.92137 0.77159 0.0
C986 C 0.94068 0.82391 0.8608 0.0
C987 C 0.92204 0.82224 0.88122 0.0
C988 C 0.94956 0.84179 0.84534 0.0
C989 C 0.94003 0.85833 0.85016 0.0
C990 C 0.92093 0.85653 0.86621 0.0
C991 C 0.912 0.8386 0.88183 0.0
C992 C 0.95062 0.87757 0.84303 0.0
C993 C 0.94543 0.8892 0.80123 0.0
C994 C 0.96656 0.88387 0.87556 0.0
C995 C 0.9721 0.8725 0.92189 0.0
C996 C 0.95905 0.86732 0.96338 0.0
C997 C 0.96421 0.85625 0.00632 0.0
C998 C 0.98243 0.85037 0.00836 0.0
C999 C 0.99556 0.85565 0.96766 0.0
C1000 C 0.99046 0.86671 0.92462 0.0
C1001 C 0.98778 0.96417 0.78423 0.0
C1002 C 0.00524 0.96208 0.75893 0.0
C1003 C 0.97762 0.94841 0.80888 0.0
C1004 C 0.98495 0.93052 0.80902 0.0
C1005 C 0.00341 0.92912 0.78988 0.0
C1006 C 0.01349 0.94482 0.76468 0.0
C1007 C 0.97252 0.91275 0.8214 0.0
C1008 C 0.97742 0.90134 0.864 0.0
C1009 C 0.95635 0.90664 0.7895 0.0
C1010 C 0.9511 0.91763 0.74204 0.0
C1011 C 0.96395 0.92139 0.69917 0.0
C1012 C 0.95894 0.93187 0.65482 0.0
C1013 C 0.94101 0.9384 0.65246 0.0
C1014 C 0.92805 0.93448 0.69448 0.0
C1015 C 0.93304 0.92415 0.73913 0.0
H1016 H 0.93714 0.94648 0.61806 0.0
H1017 H 0.98639 0.84175 0.04154 0.0
H1018 H 0.71583 0.0508 0.86695 0.0
H1019 H 0.6911 0.0607 0.80742 0.0
H1020 H 0.66208 0.00303 0.81129 0.0
H1021 H 0.68649 0.99322 0.87118 0.0
H1022 H 0.67448 0.04864 0.70844 0.0
H1023 H 0.61621 0.00589 0.83554 0.0
H1024 H 0.61169 0.99405 0.92832 0.0
H1025 H 0.65196 0.04012 0.98674 0.0
H1026 H 0.65652 0.0524 0.89445 0.0
H1027 H 0.58753 0.02402 0.57708 0.0
H1028 H 0.61816 0.02924 0.62165 0.0
H1029 H 0.59431 0.06435 0.74386 0.0
H1030 H 0.56314 0.05816 0.70056 0.0
H1031 H 0.61011 0.03823 0.78939 0.0
H1032 H 0.63176 0.08264 0.65265 0.0
H1033 H 0.63632 0.0943 0.55971 0.0
H1034 H 0.66888 0.04737 0.52148 0.0
H1035 H 0.66439 0.03537 0.61404 0.0
C1036 C 0.70437 0.04019 0.85398 0.0
C1037 C 0.70283 0.02135 0.87405 0.0
C1038 C 0.6903 0.04584 0.82012 0.0
C1039 C 0.67462 0.03268 0.80602 0.0
C1040 C 0.6739 0.01348 0.82266 0.0
C1041 C 0.68781 0.0079 0.85676 0.0
C1042 C 0.65812 0.03919 0.77816 0.0
C1043 C 0.66039 0.04657 0.72604 0.0
C1044 C 0.63987 0.03692 0.802 0.0
C1045 C 0.63678 0.03 0.85798 0.0
C1046 C 0.62399 0.01359 0.86823 0.0
C1047 C 0.62144 0.00678 0.92073 0.0
C1048 C 0.63154 0.01631 0.96338 0.0
C1049 C 0.64417 0.03272 0.95365 0.0
C1050 C 0.64675 0.03961 0.90125 0.0
C1051 C 0.58891 0.03326 0.61271 0.0
C1052 C 0.57298 0.04054 0.63585 0.0
C1053 C 0.60653 0.03641 0.63794 0.0
C1054 C 0.60866 0.04734 0.68599 0.0
C1055 C 0.59301 0.05585 0.70685 0.0
C1056 C 0.57524 0.05237 0.68212 0.0
C1057 C 0.6262 0.04718 0.71843 0.0
C1058 C 0.62417 0.04086 0.77176 0.0
C1059 C 0.64462 0.05063 0.69573 0.0
C1060 C 0.6477 0.05808 0.64031 0.0
C1061 C 0.63986 0.07479 0.62439 0.0
C1062 C 0.64244 0.08146 0.57177 0.0
C1063 C 0.65288 0.07159 0.53471 0.0
C1064 C 0.66083 0.05504 0.55024 0.0
C1065 C 0.65832 0.04833 0.60283 0.0
H1066 H 0.65483 0.07676 0.49396 0.0
H1067 H 0.62958 0.01099 0.00397 0.0
H1068 H 0.58873 0.70356 0.86436 0.0
H1069 H 0.57451 0.67362 0.82327 0.0
H1070 H 0.61566 0.64238 0.90164 0.0
H1071 H 0.63062 0.67259 0.94181 0.0
H1072 H 0.60282 0.62673 0.79641 0.0
H1073 H 0.57811 0.64595 0.96779 0.0
H1074 H 0.56603 0.66931 0.03133 0.0
H1075 H 0.51928 0.67536 0.92544 0.0
H1076 H 0.53131 0.65231 0.86073 0.0
H1077 H 0.54298 0.5386 0.78314 0.0
H1078 H 0.56252 0.56576 0.82598 0.0
H1079 H 0.52407 0.60483 0.76863 0.0
H1080 H 0.50446 0.57778 0.72611 0.0
H1081 H 0.53731 0.61483 0.86968 0.0
H1082 H 0.56265 0.5979 0.69617 0.0
H1083 H 0.57443 0.57517 0.63015 0.0
H1084 H 0.61939 0.56493 0.73816 0.0
H1085 H 0.60772 0.58746 0.80513 0.0
C1086 C 0.59541 0.69056 0.87108 0.0
C1087 C 0.61066 0.69048 0.90728 0.0
C1088 C 0.5871 0.67338 0.84782 0.0
C1089 C 0.59376 0.65579 0.8606 0.0
C1090 C 0.61023 0.65583 0.89178 0.0
C1091 C 0.61866 0.67308 0.91498 0.0
C1092 C 0.58183 0.63752 0.8483 0.0
C1093 C 0.58862 0.62395 0.81301 0.0
C1094 C 0.56324 0.63404 0.86974 0.0
C1095 C 0.55569 0.64752 0.90924 0.0
C1096 C 0.56532 0.65235 0.9579 0.0
C1097 C 0.55848 0.66554 0.99413 0.0
C1098 C 0.54191 0.67384 0.9824 0.0
C1099 C 0.53212 0.66892 0.93446 0.0
C1100 C 0.53893 0.65579 0.89801 0.0
C1101 C 0.53842 0.55292 0.78104 0.0
C1102 C 0.5223 0.55618 0.75113 0.0
C1103 C 0.54967 0.56841 0.80512 0.0
C1104 C 0.54491 0.58731 0.79951 0.0
C1105 C 0.52802 0.59035 0.77318 0.0
C1106 C 0.51682 0.5749 0.749 0.0
C1107 C 0.55815 0.6041 0.81712 0.0
C1108 C 0.5516 0.61745 0.85354 0.0
C1109 C 0.5769 0.60736 0.79655 0.0
C1110 C 0.58422 0.5942 0.75584 0.0
C1111 C 0.575 0.59073 0.70594 0.0
C1112 C 0.58165 0.57789 0.66835 0.0
C1113 C 0.59761 0.56856 0.68003 0.0
C1114 C 0.60701 0.57214 0.72922 0.0
C1115 C 0.6004 0.58496 0.76698 0.0
H1116 H 0.60272 0.5586 0.65093 0.0
H1117 H 0.53665 0.68405 0.01048 0.0
H1118 H 0.81725 0.38495 0.8769 0.0
H1119 H 0.84778 0.38999 0.82977 0.0
H1120 H 0.83452 0.44595 0.77951 0.0
H1121 H 0.80394 0.44077 0.82497 0.0
H1122 H 0.85785 0.43182 0.70839 0.0
H1123 H 0.85468 0.44033 0.90224 0.0
H1124 H 0.8468 0.42948 0.99454 0.0
H1125 H 0.88369 0.38478 0.97683 0.0
H1126 H 0.89154 0.3952 0.88401 0.0
H1127 H 0.94267 0.49487 0.73833 0.0
H1128 H 0.91259 0.47889 0.77261 0.0
H1129 H 0.9343 0.42371 0.75693 0.0
H1130 H 0.96438 0.43951 0.72211 0.0
H1131 H 0.90738 0.43227 0.84976 0.0
H1132 H 0.92068 0.43583 0.66185 0.0
H1133 H 0.93643 0.45326 0.5757 0.0
H1134 H 0.86644 0.4849 0.58023 0.0
H1135 H 0.8613 0.46399 0.67289 0.0
C1136 C 0.8206 0.39799 0.85406 0.0
C1137 C 0.8084 0.41259 0.85523 0.0
C1138 C 0.83802 0.40087 0.8272 0.0
C1139 C 0.84362 0.41858 0.80248 0.0
C1140 C 0.83054 0.43221 0.7985 0.0
C1141 C 0.81303 0.42922 0.82458 0.0
C1142 C 0.86386 0.42448 0.78986 0.0
C1143 C 0.86877 0.43206 0.73899 0.0
C1144 C 0.878 0.42451 0.83011 0.0
C1145 C 0.8735 0.41838 0.88606 0.0
C1146 C 0.86102 0.42812 0.91797 0.0
C1147 C 0.85656 0.42205 0.97034 0.0
C1148 C 0.8647 0.40641 0.99148 0.0
C1149 C 0.87736 0.39685 0.96033 0.0
C1150 C 0.88181 0.40282 0.90784 0.0
C1151 C 0.94122 0.47938 0.74348 0.0
C1152 C 0.95545 0.46829 0.7253 0.0
C1153 C 0.92403 0.47029 0.76289 0.0
C1154 C 0.9209 0.45011 0.76324 0.0
C1155 C 0.93626 0.4393 0.75437 0.0
C1156 C 0.9534 0.44833 0.73441 0.0
C1157 C 0.90142 0.44032 0.76878 0.0
C1158 C 0.89666 0.43192 0.81848 0.0
C1159 C 0.88733 0.44028 0.72758 0.0
C1160 C 0.89113 0.44937 0.67374 0.0
C1161 C 0.91264 0.4464 0.64453 0.0
C1162 C 0.92255 0.45667 0.58844 0.0
C1163 C 0.91101 0.47192 0.55099 0.0
C1164 C 0.87772 0.47636 0.59252 0.0
C1165 C 0.87424 0.46306 0.6502 0.0
H1166 H 0.91858 0.47822 0.51683 0.0
H1167 H 0.86123 0.40174 0.03204 0.0
H1168 H 0.07304 0.21322 0.7844 0.0
H1169 H 0.06417 0.18274 0.73472 0.0
H1170 H 0.03382 0.15956 0.87411 0.0
H1171 H 0.04216 0.19006 0.92328 0.0
H1172 H 0.0648 0.13731 0.82144 0.0
H1173 H 0.00704 0.16691 0.78863 0.0
H1174 H 0.98908 0.19297 0.75726 0.0
H1175 H 0.01249 0.18782 0.59848 0.0
H1176 H 0.03083 0.16191 0.62919 0.0
H1177 H 0.02091 0.04719 0.72608 0.0
H1178 H 0.02829 0.07885 0.76928 0.0
H1179 H 0.03785 0.10471 0.61339 0.0
H1180 H 0.03003 0.07321 0.56985 0.0
H1181 H 0.01822 0.12651 0.67219 0.0
H1182 H 0.075 0.09729 0.69869 0.0
H1183 H 0.09501 0.07228 0.72572 0.0
H1184 H 0.07677 0.07778 0.88991 0.0
H1185 H 0.05642 0.10265 0.86372 0.0
C1186 C 0.06416 0.20173 0.80391 0.0
C1187 C 0.05811 0.20403 0.85741 0.0
C1188 C 0.05916 0.18437 0.77565 0.0
C1189 C 0.04839 0.16896 0.80092 0.0
C1190 C 0.0421 0.17133 0.85399 0.0
C1191 C 0.04674 0.18879 0.8818 0.0
C1192 C 0.04445 0.15002 0.77305 0.0
C1193 C 0.05446 0.13481 0.78923 0.0
C1194 C 0.03148 0.14708 0.72986 0.0
C1195 C 0.0205 0.16266 0.71139 0.0
C1196 C 0.00853 0.17149 0.74719 0.0
C1197 C 0.99824 0.18619 0.7295 0.0
C1198 C 0.99969 0.1921 0.67596 0.0
C1199 C 0.01141 0.18326 0.63997 0.0
C1200 C 0.02175 0.16856 0.65749 0.0
C1201 C 0.02468 0.05959 0.70096 0.0
C1202 C 0.02493 0.05761 0.64448 0.0
C1203 C 0.02896 0.0777 0.72575 0.0
C1204 C 0.03386 0.09419 0.69467 0.0
C1205 C 0.03411 0.09224 0.63828 0.0
C1206 C 0.02968 0.07417 0.61345 0.0
C1207 C 0.0384 0.1135 0.7209 0.0
C1208 C 0.0286 0.12887 0.70433 0.0
C1209 C 0.05186 0.11668 0.76315 0.0
C1210 C 0.06403 0.10169 0.77913 0.0
C1211 C 0.07512 0.09305 0.74049 0.0
C1212 C 0.08655 0.07892 0.75567 0.0
C1213 C 0.08712 0.07341 0.80947 0.0
C1214 C 0.07629 0.08205 0.84823 0.0
C1215 C 0.06482 0.09617 0.83325 0.0
H1216 H 0.09598 0.06248 0.82115 0.0
H1217 H 0.9917 0.20347 0.66232 0.0
H1218 H 0.32378 0.04406 0.83748 0.0
H1219 H 0.35418 0.04428 0.79081 0.0
H1220 H 0.34077 0.98423 0.7475 0.0
H1221 H 0.31008 0.98396 0.79299 0.0
H1222 H 0.37577 0.99099 0.79286 0.0
H1223 H 0.34219 0.01836 0.65156 0.0
H1224 H 0.32228 0.04096 0.61001 0.0
H1225 H 0.36352 0.08856 0.65203 0.0
H1226 H 0.38358 0.06626 0.6945 0.0
H1227 H 0.45752 0.98342 0.63307 0.0
H1228 H 0.42481 0.98323 0.6647 0.0
H1229 H 0.43372 0.04498 0.68947 0.0
H1230 H 0.4659 0.04532 0.65338 0.0
H1231 H 0.40055 0.03721 0.65316 0.0
H1232 H 0.4337 0.01008 0.79568 0.0
H1233 H 0.45387 0.98774 0.83742 0.0
H1234 H 0.41348 0.93964 0.79341 0.0
H1235 H 0.39318 0.96168 0.75076 0.0
C1236 C 0.32698 0.031 0.81679 0.0
C1237 C 0.31433 0.01397 0.8193 0.0
C1238 C 0.3445 0.03113 0.79029 0.0
C1239 C 0.34985 0.01426 0.76557 0.0
C1240 C 0.33706 0.9974 0.76653 0.0
C1241 C 0.31948 0.99728 0.79272 0.0
C1242 C 0.36917 0.01395 0.74154 0.0
C1243 C 0.38105 1.00082 0.76145 0.0
C1244 C 0.37636 0.02718 0.70186 0.0
C1245 C 0.36428 0.04066 0.67676 0.0
C1246 C 0.34693 0.03367 0.65242 0.0
C1247 C 0.33563 0.04642 0.62859 0.0
C1248 C 0.3416 0.06619 0.62853 0.0
C1249 C 0.3589 0.07325 0.65219 0.0
C1250 C 0.37024 0.06056 0.67611 0.0
C1251 C 0.45238 0.99698 0.64416 0.0
C1252 C 0.46426 0.01438 0.64009 0.0
C1253 C 0.43372 0.99685 0.66327 0.0
C1254 C 0.42674 0.01405 0.68082 0.0
C1255 C 0.43864 0.03147 0.67646 0.0
C1256 C 0.45712 0.03164 0.65603 0.0
C1257 C 0.40712 0.01396 0.70355 0.0
C1258 C 0.39524 0.02717 0.684 0.0
C1259 C 0.39992 1.00078 0.74355 0.0
C1260 C 0.41201 0.98751 0.76959 0.0
C1261 C 0.42918 0.99472 0.79462 0.0
C1262 C 0.44063 0.98212 0.81847 0.0
C1263 C 0.43498 0.96228 0.81794 0.0
C1264 C 0.41785 0.95501 0.79372 0.0
C1265 C 0.40636 0.96755 0.76975 0.0
H1266 H 0.44387 0.95254 0.8364 0.0
H1267 H 0.33284 0.07604 0.61003 0.0
H1268 H 0.47556 0.31553 0.91576 0.0
H1269 H 0.48378 0.34698 0.8745 0.0
H1270 H 0.45267 0.32706 0.73155 0.0
H1271 H 0.44434 0.29548 0.77271 0.0
H1272 H 0.48849 0.3496 0.71173 0.0
H1273 H 0.43144 0.35204 0.81879 0.0
H1274 H 0.41269 0.34837 0.9026 0.0
H1275 H 0.45251 0.39013 0.98263 0.0
H1276 H 0.47168 0.39381 0.89948 0.0
H1277 H 0.47672 0.43681 0.58671 0.0
H1278 H 0.47059 0.40557 0.62949 0.0
H1279 H 0.49164 0.43081 0.78053 0.0
H1280 H 0.49735 0.46239 0.73823 0.0
H1281 H 0.4624 0.40561 0.79922 0.0
H1282 H 0.51913 0.4047 0.69725 0.0
H1283 H 0.54006 0.40836 0.6177 0.0
H1284 H 0.50426 0.36407 0.53359 0.0
H1285 H 0.48287 0.36045 0.61221 0.0
C1286 C 0.47086 0.31767 0.875 0.0
C1287 C 0.45934 0.303 0.84738 0.0
C1288 C 0.47542 0.33571 0.85172 0.0
C1289 C 0.46864 0.3394 0.80027 0.0
C1290 C 0.45798 0.3245 0.7714 0.0
C1291 C 0.45322 0.3065 0.79493 0.0
C1292 C 0.47186 0.35907 0.77767 0.0
C1293 C 0.48261 0.36182 0.73038 0.0
C1294 C 0.46473 0.37511 0.80324 0.0
C1295 C 0.4531 0.37304 0.85306 0.0
C1296 C 0.43628 0.36032 0.85438 0.0
C1297 C 0.42557 0.35826 0.90175 0.0
C1298 C 0.43143 0.36897 0.94796 0.0
C1299 C 0.448 0.38181 0.94684 0.0
C1300 C 0.45879 0.3839 0.89959 0.0
C1301 C 0.47996 0.43582 0.62915 0.0
C1302 C 0.48776 0.45213 0.65886 0.0
C1303 C 0.47652 0.41786 0.65353 0.0
C1304 C 0.4811 0.41567 0.70796 0.0
C1305 C 0.48814 0.43207 0.73836 0.0
C1306 C 0.49141 0.45013 0.71408 0.0
C1307 C 0.47887 0.39621 0.73258 0.0
C1308 C 0.46834 0.39346 0.7804 0.0
C1309 C 0.48652 0.38022 0.70804 0.0
C1310 C 0.4993 0.38242 0.6605 0.0
C1311 C 0.51562 0.39586 0.66161 0.0
C1312 C 0.52757 0.39793 0.61668 0.0
C1313 C 0.52348 0.38648 0.57058 0.0
C1314 C 0.5074 0.37295 0.5693 0.0
C1315 C 0.49535 0.37089 0.61402 0.0
H1316 H 0.53277 0.38807 0.53588 0.0
H1317 H 0.42312 0.36735 0.9846 0.0
H1318 H 0.19733 0.49914 0.88757 0.0
H1319 H 0.16934 0.49118 0.83093 0.0
H1320 H 0.16848 0.55153 0.79611 0.0
H1321 H 0.19727 0.55932 0.84826 0.0
H1322 H 0.13584 0.49828 0.84278 0.0
H1323 H 0.14494 0.55952 0.68352 0.0
H1324 H 0.17034 0.57724 0.63 0.0
H1325 H 0.20497 0.53086 0.64761 0.0
H1326 H 0.17966 0.51269 0.70038 0.0
H1327 H 0.04597 0.5115 0.73231 0.0
H1328 H 0.07709 0.51447 0.77626 0.0
H1329 H 0.10322 0.50049 0.62522 0.0
H1330 H 0.07237 0.49864 0.58088 0.0
H1331 H 0.12433 0.52725 0.6664 0.0
H1332 H 0.09606 0.46803 0.73777 0.0
H1333 H 0.07168 0.44588 0.78276 0.0
H1334 H 0.07793 0.48063 0.9274 0.0
H1335 H 0.10219 0.50314 0.88304 0.0
C1336 C 0.19158 0.51066 0.86645 0.0
C1337 C 0.19962 0.52993 0.87314 0.0
C1338 C 0.17535 0.50611 0.83454 0.0
C1339 C 0.16665 0.5207 0.8088 0.0
C1340 C 0.17495 0.53986 0.81439 0.0
C1341 C 0.19136 0.54436 0.84525 0.0
C1342 C 0.14832 0.51614 0.77904 0.0
C1343 C 0.13342 0.50454 0.804 0.0
C1344 C 0.14505 0.52393 0.72787 0.0
C1345 C 0.16044 0.53482 0.69642 0.0
C1346 C 0.15795 0.55306 0.67585 0.0
C1347 C 0.17233 0.56319 0.64563 0.0
C1348 C 0.18928 0.55521 0.63559 0.0
C1349 C 0.19186 0.53706 0.65562 0.0
C1350 C 0.1775 0.52685 0.68574 0.0
C1351 C 0.05836 0.50894 0.70871 0.0
C1352 C 0.05674 0.50486 0.65318 0.0
C1353 C 0.07618 0.51053 0.73389 0.0
C1354 C 0.09265 0.50748 0.7044 0.0
C1355 C 0.09087 0.50304 0.64906 0.0
C1356 C 0.07318 0.50192 0.6237 0.0
C1357 C 0.11182 0.50959 0.7304 0.0
C1358 C 0.12683 0.52084 0.7049 0.0
C1359 C 0.11539 0.50087 0.78001 0.0
C1360 C 0.10083 0.48736 0.80691 0.0
C1361 C 0.09215 0.47102 0.77906 0.0
C1362 C 0.07836 0.45839 0.80446 0.0
C1363 C 0.07323 0.46187 0.85786 0.0
C1364 C 0.08191 0.47797 0.88602 0.0
C1365 C 0.09569 0.49066 0.86078 0.0
H1366 H 0.06255 0.45207 0.87746 0.0
H1367 H 0.20039 0.56307 0.61217 0.0
H1368 H 0.91778 0.80317 0.3286 0.0
H1369 H 0.92831 0.83327 0.37608 0.0
H1370 H 0.98474 0.8316 0.31155 0.0
H1371 H 0.97395 0.80229 0.26053 0.0
H1372 H 0.95113 0.84651 0.44825 0.0
H1373 H 0.00558 0.8764 0.28595 0.0
H1374 H 0.01082 0.87365 0.18788 0.0
H1375 H 0.95129 0.85685 0.16373 0.0
H1376 H 0.94565 0.85977 0.26154 0.0
H1377 H 0.002 0.93088 0.55532 0.0
H1378 H 0.99217 0.8994 0.51441 0.0
H1379 H 0.96867 0.92698 0.37935 0.0
H1380 H 0.97938 0.95864 0.41905 0.0
H1381 H 0.98465 0.89944 0.34187 0.0
H1382 H 0.9395 0.90254 0.48339 0.0
H1383 H 0.92736 0.90711 0.57542 0.0
H1384 H 0.95836 0.86181 0.63198 0.0
H1385 H 0.97054 0.85682 0.54002 0.0
C1386 C 0.93244 0.80919 0.32434 0.0
C1387 C 0.94486 0.80042 0.28962 0.0
C1388 C 0.93851 0.82637 0.35203 0.0
C1389 C 0.95722 0.83508 0.34637 0.0
C1390 C 0.97008 0.82551 0.31543 0.0
C1391 C 0.96394 0.80849 0.28691 0.0
C1392 C 0.9629 0.85458 0.37064 0.0
C1393 C 0.95852 0.85804 0.42496 0.0
C1394 C 0.97199 0.86994 0.34005 0.0
C1395 C 0.97525 0.86808 0.28115 0.0
C1396 C 0.99361 0.87215 0.25969 0.0
C1397 C 0.99664 0.87057 0.20416 0.0
C1398 C 0.98141 0.86502 0.16964 0.0
C1399 C 0.96309 0.86108 0.19055 0.0
C1400 C 0.95997 0.86267 0.24604 0.0
C1401 C 0.99472 0.93027 0.51689 0.0
C1402 C 0.99142 0.94729 0.49051 0.0
C1403 C 0.98896 0.9122 0.49368 0.0
C1404 C 0.97929 0.91066 0.44417 0.0
C1405 C 0.97608 0.92769 0.41758 0.0
C1406 C 0.98218 0.94581 0.44034 0.0
C1407 C 0.97299 0.89135 0.41959 0.0
C1408 C 0.97731 0.8879 0.36523 0.0
C1409 C 0.96302 0.87628 0.44941 0.0
C1410 C 0.95605 0.87943 0.50496 0.0
C1411 C 0.94382 0.89364 0.51553 0.0
C1412 C 0.93688 0.89625 0.56763 0.0
C1413 C 0.94214 0.88481 0.60958 0.0
C1414 C 0.9543 0.87066 0.59944 0.0
C1415 C 0.96116 0.86787 0.5473 0.0
H1416 H 0.93676 0.88687 0.6499 0.0
H1417 H 0.98379 0.86386 0.12669 0.0
H1418 H 0.70593 0.01357 0.35706 0.0
H1419 H 0.67494 0.01222 0.40203 0.0
H1420 H 0.6542 0.9635 0.30146 0.0
H1421 H 0.68492 0.96493 0.2559 0.0
H1422 H 0.62973 0.9909 0.30303 0.0
H1423 H 0.66436 0.95795 0.43396 0.0
H1424 H 0.69055 0.95467 0.49724 0.0
H1425 H 0.67618 0.00406 0.58775 0.0
H1426 H 0.65005 0.00783 0.52452 0.0
H1427 H 0.552 0.95514 0.50376 0.0
H1428 H 0.58491 0.95681 0.47112 0.0
H1429 H 0.58255 0.01594 0.42587 0.0
H1430 H 0.54977 0.01443 0.45921 0.0
H1431 H 0.61862 0.98356 0.49953 0.0
H1432 H 0.60482 0.01861 0.2986 0.0
H1433 H 0.5784 0.02158 0.23569 0.0
H1434 H 0.55119 0.96666 0.28548 0.0
H1435 H 0.57756 0.96325 0.34805 0.0
C1436 C 0.69482 0.00246 0.34481 0.0
C1437 C 0.69801 0.98931 0.3029 0.0
C1438 C 0.67711 1.00166 0.37075 0.0
C1439 C 0.66219 0.98773 0.35525 0.0
C1440 C 0.66546 0.97438 0.31419 0.0
C1441 C 0.68315 0.97509 0.28854 0.0
C1442 C 0.64291 0.98747 0.37995 0.0
C1443 C 0.62738 0.98932 0.34603 0.0
C1444 C 0.6397 0.98552 0.43612 0.0
C1445 C 0.65538 0.98328 0.47417 0.0
C1446 C 0.66689 0.96822 0.46708 0.0
C1447 C 0.6817 0.96625 0.50299 0.0
C1448 C 0.68505 0.97919 0.54638 0.0
C1449 C 0.67357 0.99409 0.55404 0.0
C1450 C 0.65875 0.99614 0.5182 0.0
C1451 C 0.55856 0.96851 0.48712 0.0
C1452 C 0.54832 0.98464 0.48393 0.0
C1453 C 0.57738 0.96949 0.46882 0.0
C1454 C 0.58619 0.98649 0.446 0.0
C1455 C 0.57604 0.00268 0.44328 0.0
C1456 C 0.55732 1.00179 0.46233 0.0
C1457 C 0.6056 0.98695 0.42251 0.0
C1458 C 0.62109 0.98524 0.45661 0.0
C1459 C 0.60883 0.98908 0.36652 0.0
C1460 C 0.59305 0.99079 0.3284 0.0
C1461 C 0.59322 0.00715 0.29595 0.0
C1462 C 0.57826 0.00891 0.26038 0.0
C1463 C 0.56309 0.99435 0.25673 0.0
C1464 C 0.5629 0.97796 0.2885 0.0
C1465 C 0.57784 0.97612 0.32408 0.0
H1466 H 0.55152 0.99575 0.22921 0.0
H1467 H 0.69652 0.97764 0.57416 0.0
H1468 H 0.57802 0.7112 0.37141 0.0
H1469 H 0.57004 0.6808 0.41861 0.0
H1470 H 0.53385 0.6594 0.28636 0.0
H1471 H 0.54133 0.68995 0.24 0.0
H1472 H 0.51827 0.6469 0.37548 0.0
H1473 H 0.58071 0.64825 0.29993 0.0
H1474 H 0.61395 0.66133 0.2836 0.0
H1475 H 0.62611 0.65792 0.4524 0.0
H1476 H 0.59285 0.64508 0.46985 0.0
H1477 H 0.51836 0.54669 0.41685 0.0
H1478 H 0.5261 0.57848 0.37744 0.0
H1479 H 0.55141 0.6 0.52743 0.0
H1480 H 0.54362 0.56826 0.5675 0.0
H1481 H 0.57244 0.61246 0.43264 0.0
H1482 H 0.50876 0.60928 0.50441 0.0
H1483 H 0.47583 0.59425 0.51495 0.0
H1484 H 0.46645 0.59919 0.3451 0.0
H1485 H 0.49943 0.61399 0.33341 0.0
C1486 C 0.56811 0.70011 0.35294 0.0
C1487 C 0.56032 0.70293 0.30202 0.0
C1488 C 0.56365 0.68269 0.37972 0.0
C1489 C 0.55169 0.66757 0.3555 0.0
C1490 C 0.54315 0.67077 0.30589 0.0
C1491 C 0.54738 0.68828 0.27948 0.0
C1492 C 0.54876 0.64817 0.3804 0.0
C1493 C 0.53015 0.63934 0.38748 0.0
C1494 C 0.56421 0.63826 0.39666 0.0
C1495 C 0.58424 0.64591 0.38627 0.0
C1496 C 0.59044 0.65043 0.33362 0.0
C1497 C 0.60928 0.65778 0.32415 0.0
C1498 C 0.62212 0.66051 0.36695 0.0
C1499 C 0.61614 0.65583 0.4193 0.0
C1500 C 0.5973 0.64851 0.429 0.0
C1501 C 0.52586 0.55806 0.44129 0.0
C1502 C 0.53029 0.55493 0.49546 0.0
C1503 C 0.53017 0.57626 0.41874 0.0
C1504 C 0.5391 0.59163 0.44975 0.0
C1505 C 0.54444 0.58833 0.50292 0.0
C1506 C 0.53995 0.57018 0.52573 0.0
C1507 C 0.54204 0.61134 0.42744 0.0
C1508 C 0.56062 0.62015 0.42083 0.0
C1509 C 0.52659 0.62108 0.41081 0.0
C1510 C 0.50662 0.61259 0.41797 0.0
C1511 C 0.49971 0.60706 0.46925 0.0
C1512 C 0.48103 0.59858 0.47544 0.0
C1513 C 0.46907 0.59572 0.43071 0.0
C1514 C 0.47574 0.6014 0.37972 0.0
C1515 C 0.49442 0.60985 0.37329 0.0
H1516 H 0.45462 0.58913 0.43558 0.0
H1517 H 0.63671 0.66619 0.35954 0.0
H1518 H 0.80852 0.49792 0.25918 0.0
H1519 H 0.83727 0.50772 0.31105 0.0
H1520 H 0.83653 0.44998 0.3713 0.0
H1521 H 0.80715 0.44032 0.32194 0.0
H1522 H 0.85175 0.47516 0.4461 0.0
H1523 H 0.86135 0.46325 0.2577 0.0
H1524 H 0.85654 0.46685 0.16015 0.0
H1525 H 0.87658 0.52712 0.17331 0.0
H1526 H 0.88126 0.52392 0.27117 0.0
H1527 H 0.95524 0.47152 0.44024 0.0
H1528 H 0.92346 0.46777 0.39851 0.0
H1529 H 0.91529 0.52577 0.4489 0.0
H1530 H 0.94664 0.52921 0.49258 0.0
H1531 H 0.90402 0.50111 0.32488 0.0
H1532 H 0.89503 0.51422 0.51941 0.0
H1533 H 0.91002 0.51336 0.61849 0.0
H1534 H 0.88695 0.43403 0.58422 0.0
H1535 H 0.87599 0.44657 0.4859 0.0
C1536 C 0.81403 0.48743 0.28486 0.0
C1537 C 0.80562 0.46819 0.28533 0.0
C1538 C 0.83064 0.49302 0.3142 0.0
C1539 C 0.83941 0.47946 0.34401 0.0
C1540 C 0.8302 0.46069 0.34824 0.0
C1541 C 0.81347 0.45513 0.31939 0.0
C1542 C 0.85912 0.4842 0.36515 0.0
C1543 C 0.86311 0.48095 0.41967 0.0
C1544 C 0.87416 0.49143 0.33067 0.0
C1545 C 0.87145 0.49339 0.27182 0.0
C1546 C 0.8646 0.4773 0.23984 0.0
C1547 C 0.86191 0.47926 0.1845 0.0
C1548 C 0.8662 0.49722 0.16057 0.0
C1549 C 0.87323 0.51324 0.19193 0.0
C1550 C 0.87591 0.51135 0.24732 0.0
C1551 C 0.94662 0.48344 0.44207 0.0
C1552 C 0.95296 0.50042 0.47091 0.0
C1553 C 0.92857 0.48134 0.4181 0.0
C1554 C 0.91663 0.49612 0.42336 0.0
C1555 C 0.92388 0.51383 0.44703 0.0
C1556 C 0.94177 0.51583 0.47166 0.0
C1557 C 0.89649 0.49278 0.40576 0.0
C1558 C 0.89251 0.49586 0.3516 0.0
C1559 C 0.88158 0.48524 0.44058 0.0
C1560 C 0.88522 0.48098 0.4979 0.0
C1561 C 0.89492 0.50011 0.53676 0.0
C1562 C 0.90431 0.4999 0.59959 0.0
C1563 C 0.90476 0.47891 0.63385 0.0
C1564 C 0.8894 0.44948 0.57616 0.0
C1565 C 0.8821 0.45718 0.51499 0.0
H1566 H 0.91088 0.48011 0.67373 0.0
H1567 H 0.86412 0.49871 0.11771 0.0
loop_
_geom_bond_atom_site_label_1
_geom_bond_atom_site_label_2
_geom_bond_distance
_geom_bond_site_symmetry_2
_ccdc_geom_bond_type
C0 C1 1.384 . S
C0 H13 0.947 . S
C0 C35 1.382 . S
C1 C0 1.384 . S
C1 C2 1.378 . S
C2 C1 1.378 . S
C2 C3 1.378 . S
C2 H14 0.952 . S
C3 C2 1.378 . S
C3 H15 0.950 . S
C3 C34 1.383 . S
H4 C23 0.947 . S
H5 C24 0.946 . S
H6 C26 0.953 . S
H7 C27 0.945 . S
H8 C29 0.952 . S
H9 C30 0.949 . S
H10 C32 0.950 . S
H11 C33 0.948 . S
H12 C35 0.951 . S
H13 C0 0.947 . S
H14 C2 0.952 . S
H15 C3 0.950 . S
N16 C19 1.382 . S
N16 C21 1.363 . S
N17 C19 1.371 1_556 S
N17 C20 1.372 . S
N18 C20 1.361 1_554 S
N18 C21 1.377 . S
C19 N16 1.382 . S
C19 N17 1.371 1_554 S
C19 C22 1.480 1_554 S
C20 N17 1.372 . S
C20 N18 1.361 1_556 S
C20 C28 1.457 . S
C21 N16 1.363 . S
C21 N18 1.377 . S
C21 C34 1.479 . S
C22 C19 1.480 1_556 S
C22 C23 1.383 1_556 S
C22 C27 1.385 . S
C23 H4 0.947 . S
C23 C22 1.383 1_554 S
C23 C24 1.388 . S
C24 H5 0.946 . S
C24 C23 1.388 . S
C24 C25 1.384 1_554 S
C25 C24 1.384 1_556 S
C25 C26 1.377 . S
C26 H6 0.953 . S
C26 C25 1.377 . S
C26 C27 1.369 . S
C27 H7 0.945 . S
C27 C22 1.385 . S
C27 C26 1.369 . S
C28 C20 1.457 . S
C28 C29 1.372 . S
C28 C33 1.364 . S
C29 H8 0.952 . S
C29 C28 1.372 . S
C29 C30 1.389 . S
C30 H9 0.949 . S
C30 C29 1.389 . S
C30 C31 1.387 . S
C31 C30 1.387 . S
C31 C32 1.372 . S
C32 H10 0.950 . S
C32 C31 1.372 . S
C32 C33 1.379 . S
C33 H11 0.948 . S
C33 C28 1.364 . S
C33 C32 1.379 . S
C34 C3 1.383 . S
C34 C21 1.479 . S
C34 C35 1.398 . S
C35 C0 1.382 . S
C35 H12 0.951 . S
C35 C34 1.398 . S
C36 C37 1.384 . S
C36 H49 0.947 . S
C36 C71 1.382 . S
C37 C36 1.384 . S
C37 C38 1.378 . S
C38 C37 1.378 . S
C38 C39 1.378 . S
C38 H50 0.952 . S
C39 C38 1.378 . S
C39 H51 0.950 . S
C39 C70 1.383 . S
H40 C59 0.947 . S
H41 C60 0.946 . S
H42 C62 0.953 . S
H43 C63 0.945 . S
H44 C65 0.952 . S
H45 C66 0.949 . S
H46 C68 0.950 . S
H47 C69 0.948 . S
H48 C71 0.951 . S
H49 C36 0.947 . S
H50 C38 0.952 . S
H51 C39 0.950 . S
N52 C55 1.382 1_554 S
N52 C57 1.363 . S
N53 C55 1.371 . S
N53 C56 1.372 . S
N54 C56 1.361 1_554 S
N54 C57 1.377 . S
C55 N52 1.382 1_556 S
C55 N53 1.371 . S
C55 C58 1.480 . S
C56 N53 1.372 . S
C56 N54 1.361 1_556 S
C56 C64 1.457 . S
C57 N52 1.363 . S
C57 N54 1.377 . S
C57 C70 1.479 . S
C58 C55 1.480 . S
C58 C59 1.383 1_556 S
C58 C63 1.385 . S
C59 H40 0.947 . S
C59 C58 1.383 1_554 S
C59 C60 1.388 . S
C60 H41 0.946 . S
C60 C59 1.388 . S
C60 C61 1.384 1_554 S
C61 C60 1.384 1_556 S
C61 C62 1.377 . S
C62 H42 0.953 . S
C62 C61 1.377 . S
C62 C63 1.369 . S
C63 H43 0.945 . S
C63 C58 1.385 . S
C63 C62 1.369 . S
C64 C56 1.457 . S
C64 C65 1.372 . S
C64 C69 1.364 . S
C65 H44 0.952 . S
C65 C64 1.372 . S
C65 C66 1.389 . S
C66 H45 0.949 . S
C66 C65 1.389 . S
C66 C67 1.387 . S
C67 C66 1.387 . S
C67 C68 1.372 . S
C68 H46 0.950 . S
C68 C67 1.372 . S
C68 C69 1.379 . S
C69 H47 0.948 . S
C69 C64 1.364 . S
C69 C68 1.379 . S
C70 C39 1.383 . S
C70 C57 1.479 . S
C70 C71 1.398 . S
C71 C36 1.382 . S
C71 H48 0.951 . S
C71 C70 1.398 . S
C72 C73 1.384 1_565 S
C72 H85 0.947 . S
C72 C107 1.382 1_565 S
C73 C72 1.384 1_545 S
C73 C74 1.378 . S
C74 C73 1.378 . S
C74 C75 1.378 . S
C74 H86 0.952 . S
C75 C74 1.378 . S
C75 H87 0.950 . S
C75 C106 1.383 . S
H76 C95 0.947 . S
H77 C96 0.954 . S
H78 C98 0.953 . S
H79 C99 0.945 . S
H80 C101 0.947 1_565 S
H81 C102 0.957 . S
H82 C104 0.950 . S
H83 C105 0.948 1_554 S
H84 C107 0.951 1_565 S
H85 C72 0.947 . S
H86 C74 0.952 . S
H87 C75 0.950 . S
N88 C91 1.382 . S
N88 C93 1.363 . S
N89 C91 1.371 1_556 S
N89 C92 1.372 . S
N90 C92 1.361 1_554 S
N90 C93 1.377 . S
C91 N88 1.382 . S
C91 N89 1.371 1_554 S
C91 C94 1.480 . S
C92 N89 1.372 . S
C92 N90 1.361 1_556 S
C92 C100 1.457 . S
C93 N88 1.363 . S
C93 N90 1.377 . S
C93 C106 1.479 . S
C94 C91 1.480 . S
C94 C95 1.383 . S
C94 C99 1.385 1_554 S
C95 H76 0.947 . S
C95 C94 1.383 . S
C95 C96 1.383 1_545 S
C96 H77 0.954 . S
C96 C95 1.383 1_565 S
C96 C97 1.382 1_564 S
C97 C96 1.382 1_546 S
C97 C98 1.377 . S
C98 H78 0.953 . S
C98 C97 1.377 . S
C98 C99 1.369 . S
C99 H79 0.945 . S
C99 C94 1.385 1_556 S
C99 C98 1.369 . S
C100 C92 1.457 . S
C100 C101 1.376 . S
C100 C105 1.364 . S
C101 H80 0.947 1_545 S
C101 C100 1.376 . S
C101 C102 1.392 1_545 S
C102 H81 0.957 . S
C102 C101 1.392 1_565 S
C102 C103 1.378 1_565 S
C103 C102 1.378 1_545 S
C103 C104 1.372 . S
C104 H82 0.950 . S
C104 C103 1.372 . S
C104 C105 1.379 . S
C105 H83 0.948 1_556 S
C105 C100 1.364 . S
C105 C104 1.379 . S
C106 C75 1.383 . S
C106 C93 1.479 . S
C106 C107 1.398 . S
C107 C72 1.382 1_545 S
C107 H84 0.951 1_545 S
C107 C106 1.398 . S
C108 C109 1.384 . S
C108 H121 0.947 . S
C108 C143 1.382 . S
C109 C108 1.384 . S
C109 C110 1.378 . S
C110 C109 1.378 . S
C110 C111 1.378 . S
C110 H122 0.952 . S
C111 C110 1.378 . S
C111 H123 0.950 . S
C111 C142 1.383 . S
H112 C131 0.947 . S
H113 C132 0.946 . S
H114 C134 0.953 . S
H115 C135 0.945 . S
H116 C137 0.952 . S
H117 C138 0.949 . S
H118 C140 0.950 . S
H119 C141 0.948 . S
H120 C143 0.951 1_554 S
H121 C108 0.947 . S
H122 C110 0.952 . S
H123 C111 0.950 . S
N124 C127 1.382 . S
N124 C129 1.363 . S
N125 C127 1.371 . S
N125 C128 1.372 . S
N126 C128 1.361 . S
N126 C129 1.377 . S
C127 N124 1.382 . S
C127 N125 1.371 . S
C127 C130 1.480 . S
C128 N125 1.372 . S
C128 N126 1.361 . S
C128 C136 1.457 . S
C129 N124 1.363 . S
C129 N126 1.377 . S
C129 C142 1.479 1_554 S
C130 C127 1.480 . S
C130 C131 1.383 1_554 S
C130 C135 1.385 . S
C131 H112 0.947 . S
C131 C130 1.383 1_556 S
C131 C132 1.388 . S
C132 H113 0.946 . S
C132 C131 1.388 . S
C132 C133 1.384 1_556 S
C133 C132 1.384 1_554 S
C133 C134 1.377 . S
C134 H114 0.953 . S
C134 C133 1.377 . S
C134 C135 1.369 . S
C135 H115 0.945 . S
C135 C130 1.385 . S
C135 C134 1.369 . S
C136 C128 1.457 . S
C136 C137 1.372 . S
C136 C141 1.364 . S
C137 H116 0.952 . S
C137 C136 1.372 . S
C137 C138 1.389 . S
C138 H117 0.949 . S
C138 C137 1.389 . S
C138 C139 1.387 . S
C139 C138 1.387 . S
C139 C140 1.372 . S
C140 H118 0.950 . S
C140 C139 1.372 . S
C140 C141 1.379 . S
C141 H119 0.948 . S
C141 C136 1.364 . S
C141 C140 1.379 . S
C142 C111 1.383 . S
C142 C129 1.479 1_556 S
C142 C143 1.398 . S
C143 C108 1.382 . S
C143 H120 0.951 1_556 S
C143 C142 1.398 . S
C144 C145 1.384 . S
C144 H157 0.947 . S
C144 C179 1.382 . S
C145 C144 1.384 . S
C145 C146 1.378 . S
C146 C145 1.378 . S
C146 C147 1.378 . S
C146 H158 0.952 . S
C147 C146 1.378 . S
C147 H159 0.950 . S
C147 C178 1.383 1_556 S
H148 C167 0.947 . S
H149 C168 0.946 . S
H150 C170 0.953 . S
H151 C171 0.945 . S
H152 C173 0.952 . S
H153 C174 0.949 . S
H154 C176 0.950 . S
H155 C177 0.948 . S
H156 C179 0.951 1_554 S
H157 C144 0.947 . S
H158 C146 0.952 . S
H159 C147 0.950 . S
N160 C163 1.382 . S
N160 C165 1.363 . S
N161 C163 1.371 . S
N161 C164 1.372 . S
N162 C164 1.361 . S
N162 C165 1.377 . S
C163 N160 1.382 . S
C163 N161 1.371 . S
C163 C166 1.480 . S
C164 N161 1.372 . S
C164 N162 1.361 . S
C164 C172 1.457 . S
C165 N160 1.363 . S
C165 N162 1.377 . S
C165 C178 1.479 . S
C166 C163 1.480 . S
C166 C167 1.383 . S
C166 C171 1.385 . S
C167 H148 0.947 . S
C167 C166 1.383 . S
C167 C168 1.388 . S
C168 H149 0.946 . S
C168 C167 1.388 . S
C168 C169 1.384 . S
C169 C168 1.384 . S
C169 C170 1.377 . S
C170 H150 0.953 . S
C170 C169 1.377 . S
C170 C171 1.369 . S
C171 H151 0.945 . S
C171 C166 1.385 . S
C171 C170 1.369 . S
C172 C164 1.457 . S
C172 C173 1.372 . S
C172 C177 1.364 . S
C173 H152 0.952 . S
C173 C172 1.372 . S
C173 C174 1.389 . S
C174 H153 0.949 . S
C174 C173 1.389 . S
C174 C175 1.387 . S
C175 C174 1.387 . S
C175 C176 1.372 . S
C176 H154 0.950 . S
C176 C175 1.372 . S
C176 C177 1.379 . S
C177 H155 0.948 . S
C177 C172 1.364 . S
C177 C176 1.379 . S
C178 C147 1.383 1_554 S
C178 C165 1.479 . S
C178 C179 1.398 1_554 S
C179 C144 1.382 . S
C179 H156 0.951 1_556 S
C179 C178 1.398 1_556 S
C180 C181 1.384 . S
C180 H193 0.947 . S
C180 C215 1.382 1_556 S
C181 C180 1.384 . S
C181 C182 1.378 . S
C182 C181 1.378 . S
C182 C183 1.378 . S
C182 H194 0.952 . S
C183 C182 1.378 . S
C183 H195 0.950 . S
C183 C214 1.383 1_556 S
H184 C203 0.947 . S
H185 C204 0.946 . S
H186 C206 0.953 . S
H187 C207 0.945 . S
H188 C209 0.952 . S
H189 C210 0.949 . S
H190 C212 0.950 . S
H191 C213 0.948 . S
H192 C215 0.951 . S
H193 C180 0.947 . S
H194 C182 0.952 . S
H195 C183 0.950 . S
N196 C199 1.382 . S
N196 C201 1.363 . S
N197 C199 1.371 . S
N197 C200 1.372 . S
N198 C200 1.361 . S
N198 C201 1.377 . S
C199 N196 1.382 . S
C199 N197 1.371 . S
C199 C202 1.480 . S
C200 N197 1.372 . S
C200 N198 1.361 . S
C200 C208 1.457 . S
C201 N196 1.363 . S
C201 N198 1.377 . S
C201 C214 1.479 . S
C202 C199 1.480 . S
C202 C203 1.383 . S
C202 C207 1.385 . S
C203 H184 0.947 . S
C203 C202 1.383 . S
C203 C204 1.388 . S
C204 H185 0.946 . S
C204 C203 1.388 . S
C204 C205 1.384 . S
C205 C204 1.384 . S
C205 C206 1.377 . S
C206 H186 0.953 . S
C206 C205 1.377 . S
C206 C207 1.369 . S
C207 H187 0.945 . S
C207 C202 1.385 . S
C207 C206 1.369 . S
C208 C200 1.457 . S
C208 C209 1.372 . S
C208 C213 1.364 . S
C209 H188 0.952 . S
C209 C208 1.372 . S
C209 C210 1.389 . S
C210 H189 0.949 . S
C210 C209 1.389 . S
C210 C211 1.387 . S
C211 C210 1.387 . S
C211 C212 1.372 . S
C212 H190 0.950 . S
C212 C211 1.372 . S
C212 C213 1.379 . S
C213 H191 0.948 . S
C213 C208 1.364 . S
C213 C212 1.379 . S
C214 C183 1.383 1_554 S
C214 C201 1.479 . S
C214 C215 1.398 . S
C215 C180 1.382 1_554 S
C215 H192 0.951 . S
C215 C214 1.398 . S
C216 C217 1.383 . S
C216 H229 0.948 1_545 S
C216 C251 1.381 . S
C217 C216 1.383 . S
C217 C218 1.378 . S
C218 C217 1.378 . S
C218 C219 1.378 . S
C218 H230 0.952 . S
C219 C218 1.378 . S
C219 H231 0.950 . S
C219 C250 1.383 . S
H220 C239 0.947 . S
H221 C240 0.947 . S
H222 C242 0.953 . S
H223 C243 0.945 . S
H224 C245 0.951 1_565 S
H225 C246 0.953 . S
H226 C248 0.950 . S
H227 C249 0.948 . S
H228 C251 0.949 1_564 S
H229 C216 0.948 1_565 S
H230 C218 0.952 . S
H231 C219 0.950 . S
N232 C235 1.382 . S
N232 C237 1.363 . S
N233 C235 1.371 . S
N233 C236 1.372 . S
N234 C236 1.361 . S
N234 C237 1.377 . S
C235 N232 1.382 . S
C235 N233 1.371 . S
C235 C238 1.480 . S
C236 N233 1.372 . S
C236 N234 1.361 . S
C236 C244 1.457 . S
C237 N232 1.363 . S
C237 N234 1.377 . S
C237 C250 1.479 1_554 S
C238 C235 1.480 . S
C238 C239 1.383 . S
C238 C243 1.385 . S
C239 H220 0.947 . S
C239 C238 1.383 . S
C239 C240 1.388 1_545 S
C240 H221 0.947 . S
C240 C239 1.388 1_565 S
C240 C241 1.382 1_565 S
C241 C240 1.382 1_545 S
C241 C242 1.377 . S
C242 H222 0.953 . S
C242 C241 1.377 . S
C242 C243 1.369 . S
C243 H223 0.945 . S
C243 C238 1.385 . S
C243 C242 1.369 . S
C244 C236 1.457 . S
C244 C245 1.378 . S
C244 C249 1.364 . S
C245 H224 0.951 1_545 S
C245 C244 1.378 . S
C245 C246 1.381 1_545 S
C246 H225 0.953 . S
C246 C245 1.381 1_565 S
C246 C247 1.387 1_565 S
C247 C246 1.387 1_545 S
C247 C248 1.372 . S
C248 H226 0.950 . S
C248 C247 1.372 . S
C248 C249 1.379 . S
C249 H227 0.948 . S
C249 C244 1.364 . S
C249 C248 1.379 . S
C250 C219 1.383 . S
C250 C237 1.479 1_556 S
C250 C251 1.400 . S
C251 C216 1.381 . S
C251 H228 0.949 1_546 S
C251 C250 1.400 . S
C252 C253 1.384 . S
C252 H265 0.947 . S
C252 C287 1.382 . S
C253 C252 1.384 . S
C253 C254 1.378 . S
C254 C253 1.378 . S
C254 C255 1.378 . S
C254 H266 0.952 . S
C255 C254 1.378 . S
C255 H267 0.950 . S
C255 C286 1.383 . S
H256 C275 0.947 . S
H257 C276 0.946 . S
H258 C278 0.953 . S
H259 C279 0.945 . S
H260 C281 0.952 . S
H261 C282 0.949 . S
H262 C284 0.950 . S
H263 C285 0.948 . S
H264 C287 0.951 . S
H265 C252 0.947 . S
H266 C254 0.952 . S
H267 C255 0.950 . S
N268 C271 1.382 . S
N268 C273 1.363 . S
N269 C271 1.371 . S
N269 C272 1.372 . S
N270 C272 1.361 . S
N270 C273 1.377 . S
C271 N268 1.382 . S
C271 N269 1.371 . S
C271 C274 1.480 . S
C272 N269 1.372 . S
C272 N270 1.361 . S
C272 C280 1.457 1_554 S
C273 N268 1.363 . S
C273 N270 1.377 . S
C273 C286 1.479 . S
C274 C271 1.480 . S
C274 C275 1.383 . S
C274 C279 1.385 . S
C275 H256 0.947 . S
C275 C274 1.383 . S
C275 C276 1.388 . S
C276 H257 0.946 . S
C276 C275 1.388 . S
C276 C277 1.384 . S
C277 C276 1.384 . S
C277 C278 1.377 . S
C278 H258 0.953 . S
C278 C277 1.377 . S
C278 C279 1.369 . S
C279 H259 0.945 . S
C279 C274 1.385 . S
C279 C278 1.369 . S
C280 C272 1.457 1_556 S
C280 C281 1.372 . S
C280 C285 1.364 . S
C281 H260 0.952 . S
C281 C280 1.372 . S
C281 C282 1.389 . S
C282 H261 0.949 . S
C282 C281 1.389 . S
C282 C283 1.387 . S
C283 C282 1.387 . S
C283 C284 1.372 . S
C284 H262 0.950 . S
C284 C283 1.372 . S
C284 C285 1.379 . S
C285 H263 0.948 . S
C285 C280 1.364 . S
C285 C284 1.379 . S
C286 C255 1.383 . S
C286 C273 1.479 . S
C286 C287 1.398 . S
C287 C252 1.382 . S
C287 H264 0.951 . S
C287 C286 1.398 . S
Dy288 O292 2.398 . S
Dy288 O293 2.491 1_455 S
Dy288 O294 2.403 . S
Dy288 O295 2.664 1_565 S
Dy288 O299 2.326 . S
Dy288 O303 2.310 1_455 S
Dy288 O304 2.351 1_565 S
C289 O300 1.185 1_455 S
C289 O301 1.355 . S
C290 O292 1.185 . S
C290 O293 1.355 1_455 S
Dy291 O295 2.286 1_655 S
Dy291 O298 2.357 1_545 S
Dy291 O300 2.405 . S
Dy291 O301 2.475 1_655 S
Dy291 O302 2.427 . S
Dy291 O303 2.672 1_545 S
Dy291 O305 2.320 1_655 S
O292 Dy288 2.398 . S
O292 C290 1.185 . S
O293 Dy288 2.491 1_655 S
O293 C290 1.355 1_655 S
O294 Dy288 2.403 . S
O294 C296 1.254 . S
O295 Dy288 2.664 1_545 S
O295 Dy291 2.286 1_455 S
O295 C296 1.268 1_545 S
C296 O294 1.254 . S
C296 O295 1.268 1_565 S
C297 O302 1.254 . S
C297 O303 1.268 1_545 S
O298 Dy291 2.357 1_565 S
O298 C306 1.249 . S
O299 Dy288 2.326 . S
O299 C306 1.267 1_455 S
O300 C289 1.185 1_655 S
O300 Dy291 2.405 . S
O301 C289 1.355 . S
O301 Dy291 2.475 1_455 S
O302 Dy291 2.427 . S
O302 C297 1.254 . S
O303 Dy288 2.310 1_655 S
O303 Dy291 2.672 1_565 S
O303 C297 1.268 1_565 S
O304 Dy288 2.351 1_545 S
O304 C307 1.249 . S
O305 Dy291 2.320 1_455 S
O305 C307 1.267 . S
C306 O298 1.249 . S
C306 O299 1.267 1_655 S
C307 O304 1.249 . S
C307 O305 1.267 . S
Dy308 O312 2.398 . S
Dy308 O313 2.491 . S
Dy308 O314 2.403 . S
Dy308 O315 2.664 . S
Dy308 O319 2.326 1_565 S
Dy308 O323 2.310 1_565 S
Dy308 O324 2.351 . S
C309 O320 1.185 . S
C309 O321 1.355 . S
C310 O312 1.185 . S
C310 O313 1.355 . S
Dy311 O315 2.310 1_545 S
Dy311 O318 2.351 . S
Dy311 O320 2.398 . S
Dy311 O321 2.491 . S
Dy311 O322 2.403 . S
Dy311 O323 2.664 . S
Dy311 O325 2.326 1_545 S
O312 Dy308 2.398 . S
O312 C310 1.185 . S
O313 Dy308 2.491 . S
O313 C310 1.355 . S
O314 Dy308 2.403 . S
O314 C316 1.254 . S
O315 Dy308 2.664 . S
O315 Dy311 2.310 1_565 S
O315 C316 1.268 . S
C316 O314 1.254 . S
C316 O315 1.268 . S
C317 O322 1.254 . S
C317 O323 1.268 . S
O318 Dy311 2.351 . S
O318 C326 1.249 . S
O319 Dy308 2.326 1_545 S
O319 C326 1.267 . S
O320 C309 1.185 . S
O320 Dy311 2.398 . S
O321 C309 1.355 . S
O321 Dy311 2.491 . S
O322 Dy311 2.403 . S
O322 C317 1.254 . S
O323 Dy308 2.310 1_545 S
O323 Dy311 2.664 . S
O323 C317 1.268 . S
O324 Dy308 2.351 . S
O324 C327 1.249 . S
O325 Dy311 2.326 1_565 S
O325 C327 1.267 . S
C326 O318 1.249 . S
C326 O319 1.267 . S
C327 O324 1.249 . S
C327 O325 1.267 . S
Dy328 O332 2.398 . S
Dy328 O333 2.491 . S
Dy328 O334 2.403 . S
Dy328 O335 2.664 . S
Dy328 O339 2.326 . S
Dy328 O343 2.310 . S
Dy328 O344 2.351 . S
C329 O340 1.185 . S
C329 O341 1.355 . S
C330 O332 1.185 . S
C330 O333 1.355 . S
Dy331 O335 2.310 . S
Dy331 O338 2.351 . S
Dy331 O340 2.398 . S
Dy331 O341 2.491 . S
Dy331 O342 2.403 . S
Dy331 O343 2.664 . S
Dy331 O345 2.326 . S
O332 Dy328 2.398 . S
O332 C330 1.185 . S
O333 Dy328 2.491 . S
O333 C330 1.355 . S
O334 Dy328 2.403 . S
O334 C336 1.254 . S
O335 Dy328 2.664 . S
O335 Dy331 2.310 . S
O335 C336 1.268 . S
C336 O334 1.254 . S
C336 O335 1.268 . S
C337 O342 1.254 . S
C337 O343 1.268 . S
O338 Dy331 2.351 . S
O338 C346 1.249 . S
O339 Dy328 2.326 . S
O339 C346 1.267 . S
O340 C329 1.185 . S
O340 Dy331 2.398 . S
O341 C329 1.355 . S
O341 Dy331 2.491 . S
O342 Dy331 2.403 . S
O342 C337 1.254 . S
O343 Dy328 2.310 . S
O343 Dy331 2.664 . S
O343 C337 1.268 . S
O344 Dy328 2.351 . S
O344 C347 1.249 . S
O345 Dy331 2.326 . S
O345 C347 1.267 . S
C346 O338 1.249 . S
C346 O339 1.267 . S
C347 O344 1.249 . S
C347 O345 1.267 . S
Dy348 O352 2.398 . S
Dy348 O353 2.491 . S
Dy348 O354 2.403 1_655 S
Dy348 O355 2.664 1_655 S
Dy348 O359 2.326 . S
Dy348 O363 2.310 . S
Dy348 O364 2.351 1_655 S
C349 O360 1.185 . S
C349 O361 1.355 . S
C350 O352 1.185 . S
C350 O353 1.355 . S
Dy351 O355 2.310 . S
Dy351 O358 2.351 1_455 S
Dy351 O360 2.398 . S
Dy351 O361 2.491 . S
Dy351 O362 2.403 . S
Dy351 O363 2.664 1_455 S
Dy351 O365 2.326 . S
O352 Dy348 2.398 . S
O352 C350 1.185 . S
O353 Dy348 2.491 . S
O353 C350 1.355 . S
O354 Dy348 2.403 1_455 S
O354 C356 1.254 . S
O355 Dy348 2.664 1_455 S
O355 Dy351 2.310 . S
O355 C356 1.268 . S
C356 O354 1.254 . S
C356 O355 1.268 . S
C357 O362 1.254 1_655 S
C357 O363 1.268 . S
O358 Dy351 2.351 1_655 S
O358 C366 1.249 . S
O359 Dy348 2.326 . S
O359 C366 1.267 . S
O360 C349 1.185 . S
O360 Dy351 2.398 . S
O361 C349 1.355 . S
O361 Dy351 2.491 . S
O362 Dy351 2.403 . S
O362 C357 1.254 1_455 S
O363 Dy348 2.310 . S
O363 Dy351 2.664 1_655 S
O363 C357 1.268 . S
O364 Dy348 2.351 1_455 S
O364 C367 1.249 . S
O365 Dy351 2.326 . S
O365 C367 1.267 . S
C366 O358 1.249 . S
C366 O359 1.267 . S
C367 O364 1.249 . S
C367 O365 1.267 . S
H368 C386 0.951 . S
H369 C388 0.951 . S
H370 C390 0.950 . S
H371 C391 0.950 . S
H372 C393 0.950 . S
H373 C396 0.950 . S
H374 C397 0.950 . S
H375 C399 0.950 . S
H376 C400 0.950 . S
H377 C401 0.951 . S
H378 C403 0.951 . S
H379 C405 0.950 . S
H380 C406 0.950 . S
H381 C408 0.950 . S
H382 C411 0.950 . S
H383 C412 0.950 . S
H384 C414 0.950 . S
H385 C415 0.950 . S
C386 H368 0.951 . S
C386 C387 1.361 1_545 S
C386 C388 1.388 . S
C387 C386 1.361 1_565 S
C387 C391 1.389 . S
C388 H369 0.951 . S
C388 C386 1.388 . S
C388 C389 1.320 1_545 S
C389 C388 1.320 1_565 S
C389 C390 1.462 . S
C389 C392 1.499 . S
C390 H370 0.950 . S
C390 C389 1.462 . S
C390 C391 1.374 . S
C391 H371 0.950 . S
C391 C387 1.389 . S
C391 C390 1.374 . S
C392 C389 1.499 . S
C392 C393 1.373 . S
C392 C394 1.389 1_565 S
C393 H372 0.950 . S
C393 C392 1.373 . S
C393 C409 1.377 . S
C394 C392 1.389 1_545 S
C394 C395 1.524 . S
C394 C408 1.377 . S
C395 C394 1.524 . S
C395 C396 1.397 . S
C395 C400 1.363 . S
C396 H373 0.950 . S
C396 C395 1.397 . S
C396 C397 1.334 . S
C397 H374 0.950 . S
C397 C396 1.334 . S
C397 C398 1.287 . S
C398 C397 1.287 . S
C398 C399 1.524 . S
C398 H417 0.913 . S
C399 H375 0.950 . S
C399 C398 1.524 . S
C399 C400 1.415 . S
C400 H376 0.950 . S
C400 C395 1.363 . S
C400 C399 1.415 . S
C401 H377 0.951 . S
C401 C402 1.366 . S
C401 C403 1.388 . S
C402 C401 1.366 . S
C402 C406 1.385 1_565 S
C403 H378 0.951 . S
C403 C401 1.388 . S
C403 C404 1.366 . S
C404 C403 1.366 . S
C404 C405 1.414 1_565 S
C404 C407 1.499 . S
C405 H379 0.950 . S
C405 C404 1.414 1_545 S
C405 C406 1.374 . S
C406 H380 0.950 . S
C406 C402 1.385 1_545 S
C406 C405 1.374 . S
C407 C404 1.499 . S
C407 C408 1.373 1_565 S
C407 C409 1.389 . S
C408 H381 0.950 . S
C408 C394 1.377 . S
C408 C407 1.373 1_545 S
C409 C393 1.377 . S
C409 C407 1.389 . S
C409 C410 1.524 . S
C410 C409 1.524 . S
C410 C411 1.397 . S
C410 C415 1.363 . S
C411 H382 0.950 . S
C411 C410 1.397 . S
C411 C412 1.334 . S
C412 H383 0.950 . S
C412 C411 1.334 . S
C412 C413 1.287 . S
C413 C412 1.287 . S
C413 C414 1.524 . S
C413 H416 0.999 . S
C414 H384 0.950 . S
C414 C413 1.524 . S
C414 C415 1.415 . S
C415 H385 0.950 . S
C415 C410 1.363 . S
C415 C414 1.415 . S
H416 C413 0.999 . S
H417 C398 0.913 . S
H418 C436 0.951 . S
H419 C438 0.951 . S
H420 C440 0.950 . S
H421 C441 0.950 . S
H422 C443 0.950 . S
H423 C446 0.950 . S
H424 C447 0.950 . S
H425 C449 0.950 . S
H426 C450 0.950 . S
H427 C451 0.951 . S
H428 C453 0.951 . S
H429 C455 0.950 . S
H430 C456 0.950 . S
H431 C458 0.950 . S
H432 C461 0.950 . S
H433 C462 0.950 . S
H434 C464 0.950 . S
H435 C465 0.950 . S
C436 H418 0.951 . S
C436 C437 1.366 . S
C436 C438 1.388 . S
C437 C436 1.366 . S
C437 C441 1.385 . S
C438 H419 0.951 . S
C438 C436 1.388 . S
C438 C439 1.366 . S
C439 C438 1.366 . S
C439 C440 1.414 . S
C439 C442 1.499 . S
C440 H420 0.950 . S
C440 C439 1.414 . S
C440 C441 1.374 . S
C441 H421 0.950 . S
C441 C437 1.385 . S
C441 C440 1.374 . S
C442 C439 1.499 . S
C442 C443 1.373 . S
C442 C444 1.389 . S
C443 H422 0.950 . S
C443 C442 1.373 . S
C443 C459 1.377 . S
C444 C442 1.389 . S
C444 C445 1.524 . S
C444 C458 1.377 . S
C445 C444 1.524 . S
C445 C446 1.397 . S
C445 C450 1.363 . S
C446 H423 0.950 . S
C446 C445 1.397 . S
C446 C447 1.334 . S
C447 H424 0.950 . S
C447 C446 1.334 . S
C447 C448 1.287 . S
C448 C447 1.287 . S
C448 C449 1.524 . S
C448 H467 0.913 . S
C449 H425 0.950 . S
C449 C448 1.524 . S
C449 C450 1.415 . S
C450 H426 0.950 . S
C450 C445 1.363 . S
C450 C449 1.415 . S
C451 H427 0.951 . S
C451 C452 1.366 . S
C451 C453 1.388 . S
C452 C451 1.366 . S
C452 C456 1.385 . S
C453 H428 0.951 . S
C453 C451 1.388 . S
C453 C454 1.366 . S
C454 C453 1.366 . S
C454 C455 1.414 . S
C454 C457 1.499 . S
C455 H429 0.950 . S
C455 C454 1.414 . S
C455 C456 1.374 . S
C456 H430 0.950 . S
C456 C452 1.385 . S
C456 C455 1.374 . S
C457 C454 1.499 . S
C457 C458 1.373 . S
C457 C459 1.389 . S
C458 H431 0.950 . S
C458 C444 1.377 . S
C458 C457 1.373 . S
C459 C443 1.377 . S
C459 C457 1.389 . S
C459 C460 1.524 . S
C460 C459 1.524 . S
C460 C461 1.397 . S
C460 C465 1.363 . S
C461 H432 0.950 . S
C461 C460 1.397 . S
C461 C462 1.334 . S
C462 H433 0.950 . S
C462 C461 1.334 . S
C462 C463 1.287 . S
C463 C462 1.287 . S
C463 C464 1.524 . S
C463 H466 0.999 . S
C464 H434 0.950 . S
C464 C463 1.524 . S
C464 C465 1.415 . S
C465 H435 0.950 . S
C465 C460 1.363 . S
C465 C464 1.415 . S
H466 C463 0.999 . S
H467 C448 0.913 . S
H468 C486 0.951 . S
H469 C488 0.951 . S
H470 C490 0.950 . S
H471 C491 0.950 . S
H472 C493 0.950 . S
H473 C496 0.950 . S
H474 C497 0.950 . S
H475 C499 0.950 . S
H476 C500 0.950 . S
H477 C501 0.951 . S
H478 C503 0.951 . S
H479 C505 0.950 . S
H480 C506 0.950 . S
H481 C508 0.950 . S
H482 C511 0.950 . S
H483 C512 0.950 . S
H484 C514 0.950 . S
H485 C515 0.950 . S
C486 H468 0.951 . S
C486 C487 1.366 . S
C486 C488 1.388 . S
C487 C486 1.366 . S
C487 C491 1.385 . S
C488 H469 0.951 . S
C488 C486 1.388 . S
C488 C489 1.366 . S
C489 C488 1.366 . S
C489 C490 1.414 . S
C489 C492 1.499 . S
C490 H470 0.950 . S
C490 C489 1.414 . S
C490 C491 1.374 . S
C491 H471 0.950 . S
C491 C487 1.385 . S
C491 C490 1.374 . S
C492 C489 1.499 . S
C492 C493 1.373 . S
C492 C494 1.389 . S
C493 H472 0.950 . S
C493 C492 1.373 . S
C493 C509 1.377 . S
C494 C492 1.389 . S
C494 C495 1.524 . S
C494 C508 1.377 . S
C495 C494 1.524 . S
C495 C496 1.397 . S
C495 C500 1.363 . S
C496 H473 0.950 . S
C496 C495 1.397 . S
C496 C497 1.334 . S
C497 H474 0.950 . S
C497 C496 1.334 . S
C497 C498 1.287 . S
C498 C497 1.287 . S
C498 C499 1.524 . S
C498 H517 0.913 . S
C499 H475 0.950 . S
C499 C498 1.524 . S
C499 C500 1.415 . S
C500 H476 0.950 . S
C500 C495 1.363 . S
C500 C499 1.415 . S
C501 H477 0.951 . S
C501 C502 1.366 . S
C501 C503 1.388 . S
C502 C501 1.366 . S
C502 C506 1.385 . S
C503 H478 0.951 . S
C503 C501 1.388 . S
C503 C504 1.366 . S
C504 C503 1.366 . S
C504 C505 1.414 . S
C504 C507 1.499 . S
C505 H479 0.950 . S
C505 C504 1.414 . S
C505 C506 1.374 . S
C506 H480 0.950 . S
C506 C502 1.385 . S
C506 C505 1.374 . S
C507 C504 1.499 . S
C507 C508 1.373 . S
C507 C509 1.389 . S
C508 H481 0.950 . S
C508 C494 1.377 . S
C508 C507 1.373 . S
C509 C493 1.377 . S
C509 C507 1.389 . S
C509 C510 1.524 . S
C510 C509 1.524 . S
C510 C511 1.397 . S
C510 C515 1.363 . S
C511 H482 0.950 . S
C511 C510 1.397 . S
C511 C512 1.334 . S
C512 H483 0.950 . S
C512 C511 1.334 . S
C512 C513 1.287 . S
C513 C512 1.287 . S
C513 C514 1.524 . S
C513 H516 0.999 . S
C514 H484 0.950 . S
C514 C513 1.524 . S
C514 C515 1.415 . S
C515 H485 0.950 . S
C515 C510 1.363 . S
C515 C514 1.415 . S
H516 C513 0.999 . S
H517 C498 0.913 . S
H518 C536 0.951 . S
H519 C538 0.951 . S
H520 C540 0.950 . S
H521 C541 0.950 . S
H522 C543 0.950 . S
H523 C546 0.950 . S
H524 C547 0.950 . S
H525 C549 0.950 . S
H526 C550 0.950 . S
H527 C551 0.951 1_655 S
H528 C553 0.951 . S
H529 C555 0.950 . S
H530 C556 0.950 . S
H531 C558 0.950 . S
H532 C561 0.950 . S
H533 C562 0.950 . S
H534 C564 0.950 1_655 S
H535 C565 0.950 . S
C536 H518 0.951 . S
C536 C537 1.366 . S
C536 C538 1.388 . S
C537 C536 1.366 . S
C537 C541 1.385 . S
C538 H519 0.951 . S
C538 C536 1.388 . S
C538 C539 1.366 . S
C539 C538 1.366 . S
C539 C540 1.414 . S
C539 C542 1.499 . S
C540 H520 0.950 . S
C540 C539 1.414 . S
C540 C541 1.374 . S
C541 H521 0.950 . S
C541 C537 1.385 . S
C541 C540 1.374 . S
C542 C539 1.499 . S
C542 C543 1.373 . S
C542 C544 1.389 . S
C543 H522 0.950 . S
C543 C542 1.373 . S
C543 C559 1.377 . S
C544 C542 1.389 . S
C544 C545 1.524 . S
C544 C558 1.377 . S
C545 C544 1.524 . S
C545 C546 1.397 . S
C545 C550 1.363 . S
C546 H523 0.950 . S
C546 C545 1.397 . S
C546 C547 1.334 . S
C547 H524 0.950 . S
C547 C546 1.334 . S
C547 C548 1.287 . S
C548 C547 1.287 . S
C548 C549 1.524 . S
C548 H567 0.913 . S
C549 H525 0.950 . S
C549 C548 1.524 . S
C549 C550 1.415 . S
C550 H526 0.950 . S
C550 C545 1.363 . S
C550 C549 1.415 . S
C551 H527 0.951 1_455 S
C551 C552 1.366 . S
C551 C553 1.388 . S
C552 C551 1.366 . S
C552 C556 1.385 . S
C553 H528 0.951 . S
C553 C551 1.388 . S
C553 C554 1.366 . S
C554 C553 1.366 . S
C554 C555 1.414 . S
C554 C557 1.499 . S
C555 H529 0.950 . S
C555 C554 1.414 . S
C555 C556 1.374 . S
C556 H530 0.950 . S
C556 C552 1.385 . S
C556 C555 1.374 . S
C557 C554 1.499 . S
C557 C558 1.373 . S
C557 C559 1.389 . S
C558 H531 0.950 . S
C558 C544 1.377 . S
C558 C557 1.373 . S
C559 C543 1.377 . S
C559 C557 1.389 . S
C559 C560 1.524 . S
C560 C559 1.524 . S
C560 C561 1.397 . S
C560 C565 1.363 . S
C561 H532 0.950 . S
C561 C560 1.397 . S
C561 C562 1.334 . S
C562 H533 0.950 . S
C562 C561 1.334 . S
C562 C563 1.287 . S
C563 C562 1.287 . S
C563 C564 1.524 . S
C563 H566 0.999 . S
C564 H534 0.950 1_455 S
C564 C563 1.524 . S
C564 C565 1.415 . S
C565 H535 0.950 . S
C565 C560 1.363 . S
C565 C564 1.415 . S
H566 C563 0.999 . S
H567 C548 0.913 . S
H568 C586 0.938 1_554 S
H569 C588 0.951 . S
H570 C590 0.950 . S
H571 C591 0.950 . S
H572 C593 0.950 . S
H573 C596 0.950 . S
H574 C597 0.950 . S
H575 C599 0.950 . S
H576 C600 0.950 . S
H577 C601 0.951 . S
H578 C603 0.951 . S
H579 C605 0.951 . S
H580 C606 0.943 1_565 S
H581 C608 0.950 . S
H582 C611 0.950 . S
H583 C612 0.950 . S
H584 C614 0.950 . S
H585 C615 0.950 . S
C586 H568 0.938 1_556 S
C586 C587 1.362 1_565 S
C586 C588 1.388 . S
C587 C586 1.362 1_545 S
C587 C591 1.388 . S
C588 H569 0.951 . S
C588 C586 1.388 . S
C588 C589 1.366 1_565 S
C589 C588 1.366 1_545 S
C589 C590 1.414 . S
C589 C592 1.499 . S
C590 H570 0.950 . S
C590 C589 1.414 . S
C590 C591 1.374 . S
C591 H571 0.950 . S
C591 C587 1.388 . S
C591 C590 1.374 . S
C592 C589 1.499 . S
C592 C593 1.373 1_545 S
C592 C594 1.389 . S
C593 H572 0.950 . S
C593 C592 1.373 1_565 S
C593 C609 1.377 . S
C594 C592 1.389 . S
C594 C595 1.524 . S
C594 C608 1.377 . S
C595 C594 1.524 . S
C595 C596 1.397 . S
C595 C600 1.363 . S
C596 H573 0.950 . S
C596 C595 1.397 . S
C596 C597 1.334 . S
C597 H574 0.950 . S
C597 C596 1.334 . S
C597 C598 1.287 . S
C598 C597 1.287 . S
C598 C599 1.524 . S
C598 H617 0.913 . S
C599 H575 0.950 . S
C599 C598 1.524 . S
C599 C600 1.415 . S
C600 H576 0.950 . S
C600 C595 1.363 . S
C600 C599 1.415 . S
C601 H577 0.951 . S
C601 C602 1.366 . S
C601 C603 1.388 . S
C602 C601 1.366 . S
C602 C606 1.391 . S
C603 H578 0.951 . S
C603 C601 1.388 . S
C603 C604 1.366 . S
C604 C603 1.366 . S
C604 C605 1.413 1_545 S
C604 C607 1.499 . S
C605 H579 0.951 . S
C605 C604 1.413 1_565 S
C605 C606 1.375 1_565 S
C606 H580 0.943 1_545 S
C606 C602 1.391 . S
C606 C605 1.375 1_545 S
C607 C604 1.499 . S
C607 C608 1.373 . S
C607 C609 1.389 1_545 S
C608 H581 0.950 . S
C608 C594 1.377 . S
C608 C607 1.373 . S
C609 C593 1.377 . S
C609 C607 1.389 1_565 S
C609 C610 1.524 . S
C610 C609 1.524 . S
C610 C611 1.397 . S
C610 C615 1.363 . S
C611 H582 0.950 . S
C611 C610 1.397 . S
C611 C612 1.334 . S
C612 H583 0.950 . S
C612 C611 1.334 . S
C612 C613 1.287 . S
C613 C612 1.287 . S
C613 C614 1.524 . S
C613 H616 0.999 . S
C614 H584 0.950 . S
C614 C613 1.524 . S
C614 C615 1.415 . S
C615 H585 0.950 . S
C615 C610 1.363 . S
C615 C614 1.415 . S
H616 C613 0.999 . S
H617 C598 0.913 . S
H618 C636 0.951 . S
H619 C638 0.951 . S
H620 C640 0.950 . S
H621 C641 0.950 . S
H622 C643 0.950 . S
H623 C646 0.950 . S
H624 C647 0.950 . S
H625 C649 0.950 . S
H626 C650 0.950 . S
H627 C651 0.951 . S
H628 C653 0.951 . S
H629 C655 0.950 . S
H630 C656 0.950 . S
H631 C658 0.950 . S
H632 C661 0.950 . S
H633 C662 0.950 . S
H634 C664 0.950 . S
H635 C665 0.950 . S
C636 H618 0.951 . S
C636 C637 1.366 . S
C636 C638 1.388 . S
C637 C636 1.366 . S
C637 C641 1.385 . S
C638 H619 0.951 . S
C638 C636 1.388 . S
C638 C639 1.366 . S
C639 C638 1.366 . S
C639 C640 1.414 . S
C639 C642 1.499 . S
C640 H620 0.950 . S
C640 C639 1.414 . S
C640 C641 1.374 . S
C641 H621 0.950 . S
C641 C637 1.385 . S
C641 C640 1.374 . S
C642 C639 1.499 . S
C642 C643 1.373 . S
C642 C644 1.389 . S
C643 H622 0.950 . S
C643 C642 1.373 . S
C643 C659 1.377 . S
C644 C642 1.389 . S
C644 C645 1.524 . S
C644 C658 1.377 . S
C645 C644 1.524 . S
C645 C646 1.397 . S
C645 C650 1.363 . S
C646 H623 0.950 . S
C646 C645 1.397 . S
C646 C647 1.334 . S
C647 H624 0.950 . S
C647 C646 1.334 . S
C647 C648 1.287 . S
C648 C647 1.287 . S
C648 C649 1.524 . S
C648 H667 0.913 . S
C649 H625 0.950 . S
C649 C648 1.524 . S
C649 C650 1.415 . S
C650 H626 0.950 . S
C650 C645 1.363 . S
C650 C649 1.415 . S
C651 H627 0.951 . S
C651 C652 1.366 . S
C651 C653 1.388 . S
C652 C651 1.366 . S
C652 C656 1.385 . S
C653 H628 0.951 . S
C653 C651 1.388 . S
C653 C654 1.366 . S
C654 C653 1.366 . S
C654 C655 1.414 . S
C654 C657 1.499 . S
C655 H629 0.950 . S
C655 C654 1.414 . S
C655 C656 1.374 . S
C656 H630 0.950 . S
C656 C652 1.385 . S
C656 C655 1.374 . S
C657 C654 1.499 . S
C657 C658 1.373 . S
C657 C659 1.389 . S
C658 H631 0.950 . S
C658 C644 1.377 . S
C658 C657 1.373 . S
C659 C643 1.377 . S
C659 C657 1.389 . S
C659 C660 1.524 . S
C660 C659 1.524 . S
C660 C661 1.397 . S
C660 C665 1.363 . S
C661 H632 0.950 . S
C661 C660 1.397 . S
C661 C662 1.334 . S
C662 H633 0.950 . S
C662 C661 1.334 . S
C662 C663 1.287 . S
C663 C662 1.287 . S
C663 C664 1.524 . S
C663 H666 0.999 . S
C664 H634 0.950 . S
C664 C663 1.524 . S
C664 C665 1.415 . S
C665 H635 0.950 . S
C665 C660 1.363 . S
C665 C664 1.415 . S
H666 C663 0.999 . S
H667 C648 0.913 . S
H668 C686 0.951 . S
H669 C688 0.951 . S
H670 C690 0.950 . S
H671 C691 0.950 . S
H672 C693 0.950 . S
H673 C696 0.950 . S
H674 C697 0.950 . S
H675 C699 0.950 . S
H676 C700 0.950 . S
H677 C701 0.951 . S
H678 C703 0.951 . S
H679 C705 0.950 . S
H680 C706 0.950 . S
H681 C708 0.950 . S
H682 C711 0.950 . S
H683 C712 0.950 . S
H684 C714 0.950 . S
H685 C715 0.950 . S
C686 H668 0.951 . S
C686 C687 1.366 . S
C686 C688 1.388 . S
C687 C686 1.366 . S
C687 C691 1.385 . S
C688 H669 0.951 . S
C688 C686 1.388 . S
C688 C689 1.366 . S
C689 C688 1.366 . S
C689 C690 1.414 . S
C689 C692 1.499 . S
C690 H670 0.950 . S
C690 C689 1.414 . S
C690 C691 1.374 . S
C691 H671 0.950 . S
C691 C687 1.385 . S
C691 C690 1.374 . S
C692 C689 1.499 . S
C692 C693 1.373 . S
C692 C694 1.389 . S
C693 H672 0.950 . S
C693 C692 1.373 . S
C693 C709 1.377 . S
C694 C692 1.389 . S
C694 C695 1.524 . S
C694 C708 1.377 . S
C695 C694 1.524 . S
C695 C696 1.397 . S
C695 C700 1.363 . S
C696 H673 0.950 . S
C696 C695 1.397 . S
C696 C697 1.334 . S
C697 H674 0.950 . S
C697 C696 1.334 . S
C697 C698 1.287 . S
C698 C697 1.287 . S
C698 C699 1.524 . S
C698 H717 0.913 . S
C699 H675 0.950 . S
C699 C698 1.524 . S
C699 C700 1.415 . S
C700 H676 0.950 . S
C700 C695 1.363 . S
C700 C699 1.415 . S
C701 H677 0.951 . S
C701 C702 1.366 . S
C701 C703 1.388 . S
C702 C701 1.366 . S
C702 C706 1.385 . S
C703 H678 0.951 . S
C703 C701 1.388 . S
C703 C704 1.366 . S
C704 C703 1.366 . S
C704 C705 1.414 . S
C704 C707 1.499 . S
C705 H679 0.950 . S
C705 C704 1.414 . S
C705 C706 1.374 . S
C706 H680 0.950 . S
C706 C702 1.385 . S
C706 C705 1.374 . S
C707 C704 1.499 . S
C707 C708 1.373 . S
C707 C709 1.389 . S
C708 H681 0.950 . S
C708 C694 1.377 . S
C708 C707 1.373 . S
C709 C693 1.377 . S
C709 C707 1.389 . S
C709 C710 1.524 . S
C710 C709 1.524 . S
C710 C711 1.397 . S
C710 C715 1.363 . S
C711 H682 0.950 . S
C711 C710 1.397 . S
C711 C712 1.334 . S
C712 H683 0.950 . S
C712 C711 1.334 . S
C712 C713 1.287 . S
C713 C712 1.287 . S
C713 C714 1.524 . S
C713 H716 0.999 . S
C714 H684 0.950 . S
C714 C713 1.524 . S
C714 C715 1.415 . S
C715 H685 0.950 . S
C715 C710 1.363 . S
C715 C714 1.415 . S
H716 C713 0.999 . S
H717 C698 0.913 . S
H718 C736 0.951 . S
H719 C738 0.951 . S
H720 C740 0.950 . S
H721 C741 0.950 . S
H722 C743 0.950 . S
H723 C746 0.950 . S
H724 C747 0.950 . S
H725 C749 0.950 . S
H726 C750 0.950 . S
H727 C751 0.908 1_455 S
H728 C753 0.982 . S
H729 C755 0.950 . S
H730 C756 0.950 . S
H731 C758 0.950 . S
H732 C761 0.950 . S
H733 C762 0.950 . S
H734 C764 0.950 . S
H735 C765 0.950 . S
C736 H718 0.951 . S
C736 C737 1.366 . S
C736 C738 1.388 . S
C737 C736 1.366 . S
C737 C741 1.385 . S
C738 H719 0.951 . S
C738 C736 1.388 . S
C738 C739 1.366 . S
C739 C738 1.366 . S
C739 C740 1.414 . S
C739 C742 1.499 . S
C740 H720 0.950 . S
C740 C739 1.414 . S
C740 C741 1.374 . S
C741 H721 0.950 . S
C741 C737 1.385 . S
C741 C740 1.374 . S
C742 C739 1.499 . S
C742 C743 1.373 . S
C742 C744 1.389 . S
C743 H722 0.950 . S
C743 C742 1.373 . S
C743 C759 1.377 . S
C744 C742 1.389 . S
C744 C745 1.524 . S
C744 C758 1.377 . S
C745 C744 1.524 . S
C745 C746 1.397 . S
C745 C750 1.363 . S
C746 H723 0.950 . S
C746 C745 1.397 . S
C746 C747 1.334 . S
C747 H724 0.950 . S
C747 C746 1.334 . S
C747 C748 1.287 . S
C748 C747 1.287 . S
C748 C749 1.524 . S
C748 H767 0.913 . S
C749 H725 0.950 . S
C749 C748 1.524 . S
C749 C750 1.415 . S
C750 H726 0.950 . S
C750 C745 1.363 . S
C750 C749 1.415 . S
C751 H727 0.908 1_655 S
C751 C752 1.388 . S
C751 C753 1.409 . S
C752 C751 1.388 . S
C752 C756 1.385 . S
C753 H728 0.982 . S
C753 C751 1.409 . S
C753 C754 1.366 . S
C754 C753 1.366 . S
C754 C755 1.414 . S
C754 C757 1.499 . S
C755 H729 0.950 . S
C755 C754 1.414 . S
C755 C756 1.374 . S
C756 H730 0.950 . S
C756 C752 1.385 . S
C756 C755 1.374 . S
C757 C754 1.499 . S
C757 C758 1.373 . S
C757 C759 1.389 . S
C758 H731 0.950 . S
C758 C744 1.377 . S
C758 C757 1.373 . S
C759 C743 1.377 . S
C759 C757 1.389 . S
C759 C760 1.524 . S
C760 C759 1.524 . S
C760 C761 1.397 . S
C760 C765 1.363 1_655 S
C761 H732 0.950 . S
C761 C760 1.397 . S
C761 C762 1.334 1_655 S
C762 H733 0.950 . S
C762 C761 1.334 1_455 S
C762 C763 1.287 . S
C763 C762 1.287 . S
C763 C764 1.524 . S
C763 H766 0.999 . S
C764 H734 0.950 . S
C764 C763 1.524 . S
C764 C765 1.415 . S
C765 H735 0.950 . S
C765 C760 1.363 1_455 S
C765 C764 1.415 . S
H766 C763 0.999 . S
H767 C748 0.913 . S
H768 C786 0.951 . S
H769 C788 0.951 . S
H770 C790 0.950 . S
H771 C791 0.950 . S
H772 C793 0.950 . S
H773 C796 0.950 . S
H774 C797 0.950 . S
H775 C799 0.950 . S
H776 C800 0.950 . S
H777 C801 0.951 . S
H778 C803 0.951 . S
H779 C805 0.950 . S
H780 C806 0.950 1_655 S
H781 C808 0.950 . S
H782 C811 0.950 . S
H783 C812 0.950 . S
H784 C814 0.950 . S
H785 C815 0.950 . S
C786 H768 0.951 . S
C786 C787 1.366 . S
C786 C788 1.388 . S
C787 C786 1.366 . S
C787 C791 1.385 . S
C788 H769 0.951 . S
C788 C786 1.388 . S
C788 C789 1.366 . S
C789 C788 1.366 . S
C789 C790 1.414 . S
C789 C792 1.499 . S
C790 H770 0.950 . S
C790 C789 1.414 . S
C790 C791 1.374 . S
C791 H771 0.950 . S
C791 C787 1.385 . S
C791 C790 1.374 . S
C792 C789 1.499 . S
C792 C793 1.373 . S
C792 C794 1.389 . S
C793 H772 0.950 . S
C793 C792 1.373 . S
C793 C809 1.377 . S
C794 C792 1.389 . S
C794 C795 1.524 . S
C794 C808 1.377 . S
C795 C794 1.524 . S
C795 C796 1.397 . S
C795 C800 1.363 . S
C796 H773 0.950 . S
C796 C795 1.397 . S
C796 C797 1.334 . S
C797 H774 0.950 . S
C797 C796 1.334 . S
C797 C798 1.287 . S
C798 C797 1.287 . S
C798 C799 1.524 . S
C798 H817 0.913 . S
C799 H775 0.950 . S
C799 C798 1.524 . S
C799 C800 1.415 . S
C800 H776 0.950 . S
C800 C795 1.363 . S
C800 C799 1.415 . S
C801 H777 0.951 . S
C801 C802 1.366 . S
C801 C803 1.388 . S
C802 C801 1.366 . S
C802 C806 1.385 . S
C803 H778 0.951 . S
C803 C801 1.388 . S
C803 C804 1.366 . S
C804 C803 1.366 . S
C804 C805 1.414 . S
C804 C807 1.499 . S
C805 H779 0.950 . S
C805 C804 1.414 . S
C805 C806 1.374 . S
C806 H780 0.950 1_455 S
C806 C802 1.385 . S
C806 C805 1.374 . S
C807 C804 1.499 . S
C807 C808 1.373 . S
C807 C809 1.389 . S
C808 H781 0.950 . S
C808 C794 1.377 . S
C808 C807 1.373 . S
C809 C793 1.377 . S
C809 C807 1.389 . S
C809 C810 1.524 . S
C810 C809 1.524 . S
C810 C811 1.397 . S
C810 C815 1.363 . S
C811 H782 0.950 . S
C811 C810 1.397 . S
C811 C812 1.334 . S
C812 H783 0.950 . S
C812 C811 1.334 . S
C812 C813 1.287 . S
C813 C812 1.287 . S
C813 C814 1.524 . S
C813 H816 0.999 . S
C814 H784 0.950 . S
C814 C813 1.524 . S
C814 C815 1.415 . S
C815 H785 0.950 . S
C815 C810 1.363 . S
C815 C814 1.415 . S
H816 C813 0.999 . S
H817 C798 0.913 . S
H818 C836 0.951 . S
H819 C838 0.951 . S
H820 C840 0.950 . S
H821 C841 0.950 . S
H822 C843 0.950 . S
H823 C846 0.950 . S
H824 C847 0.950 . S
H825 C849 0.950 . S
H826 C850 0.950 . S
H827 C851 0.951 . S
H828 C853 0.951 . S
H829 C855 0.966 . S
H830 C856 0.936 1_545 S
H831 C858 0.950 . S
H832 C861 0.950 . S
H833 C862 0.950 . S
H834 C864 0.950 . S
H835 C865 0.950 1_565 S
C836 H818 0.951 . S
C836 C837 1.366 . S
C836 C838 1.388 . S
C837 C836 1.366 . S
C837 C841 1.385 1_545 S
C838 H819 0.951 . S
C838 C836 1.388 . S
C838 C839 1.366 1_545 S
C839 C838 1.366 1_565 S
C839 C840 1.414 . S
C839 C842 1.499 . S
C840 H820 0.950 . S
C840 C839 1.414 . S
C840 C841 1.374 . S
C841 H821 0.950 . S
C841 C837 1.385 1_565 S
C841 C840 1.374 . S
C842 C839 1.499 . S
C842 C843 1.373 1_565 S
C842 C844 1.389 . S
C843 H822 0.950 . S
C843 C842 1.373 1_545 S
C843 C859 1.377 . S
C844 C842 1.389 . S
C844 C845 1.524 . S
C844 C858 1.377 . S
C845 C844 1.524 . S
C845 C846 1.397 . S
C845 C850 1.363 . S
C846 H823 0.950 . S
C846 C845 1.397 . S
C846 C847 1.334 . S
C847 H824 0.950 . S
C847 C846 1.334 . S
C847 C848 1.287 . S
C848 C847 1.287 . S
C848 C849 1.524 . S
C848 H867 0.913 . S
C849 H825 0.950 . S
C849 C848 1.524 . S
C849 C850 1.415 . S
C850 H826 0.950 . S
C850 C845 1.363 . S
C850 C849 1.415 . S
C851 H827 0.951 . S
C851 C852 1.366 . S
C851 C853 1.388 . S
C852 C851 1.366 . S
C852 C856 1.413 . S
C853 H828 0.951 . S
C853 C851 1.388 . S
C853 C854 1.366 . S
C854 C853 1.366 . S
C854 C855 1.406 1_565 S
C854 C857 1.499 . S
C855 H829 0.966 . S
C855 C854 1.406 1_545 S
C855 C856 1.359 1_545 S
C856 H830 0.936 1_565 S
C856 C852 1.413 . S
C856 C855 1.359 1_565 S
C857 C854 1.499 . S
C857 C858 1.373 . S
C857 C859 1.389 1_565 S
C858 H831 0.950 . S
C858 C844 1.377 . S
C858 C857 1.373 . S
C859 C843 1.377 . S
C859 C857 1.389 1_545 S
C859 C860 1.524 . S
C860 C859 1.524 . S
C860 C861 1.397 . S
C860 C865 1.363 . S
C861 H832 0.950 . S
C861 C860 1.397 . S
C861 C862 1.334 . S
C862 H833 0.950 . S
C862 C861 1.334 . S
C862 C863 1.287 . S
C863 C862 1.287 . S
C863 C864 1.524 . S
C863 H866 0.999 . S
C864 H834 0.950 . S
C864 C863 1.524 . S
C864 C865 1.415 . S
C865 H835 0.950 1_545 S
C865 C860 1.363 . S
C865 C864 1.415 . S
H866 C863 0.999 . S
H867 C848 0.913 . S
H868 C886 0.951 . S
H869 C888 0.951 . S
H870 C890 0.950 . S
H871 C891 0.950 . S
H872 C893 0.950 . S
H873 C896 0.950 . S
H874 C897 0.950 . S
H875 C899 0.950 . S
H876 C900 0.950 . S
H877 C901 0.951 . S
H878 C903 0.951 . S
H879 C905 0.950 . S
H880 C906 0.950 . S
H881 C908 0.950 . S
H882 C911 0.950 . S
H883 C912 0.950 . S
H884 C914 0.950 . S
H885 C915 0.950 . S
C886 H868 0.951 . S
C886 C887 1.366 . S
C886 C888 1.388 . S
C887 C886 1.366 . S
C887 C891 1.385 . S
C888 H869 0.951 . S
C888 C886 1.388 . S
C888 C889 1.366 . S
C889 C888 1.366 . S
C889 C890 1.414 . S
C889 C892 1.499 . S
C890 H870 0.950 . S
C890 C889 1.414 . S
C890 C891 1.374 . S
C891 H871 0.950 . S
C891 C887 1.385 . S
C891 C890 1.374 . S
C892 C889 1.499 . S
C892 C893 1.373 . S
C892 C894 1.389 . S
C893 H872 0.950 . S
C893 C892 1.373 . S
C893 C909 1.377 . S
C894 C892 1.389 . S
C894 C895 1.524 . S
C894 C908 1.377 . S
C895 C894 1.524 . S
C895 C896 1.397 . S
C895 C900 1.363 . S
C896 H873 0.950 . S
C896 C895 1.397 . S
C896 C897 1.334 . S
C897 H874 0.950 . S
C897 C896 1.334 . S
C897 C898 1.287 . S
C898 C897 1.287 . S
C898 C899 1.524 . S
C898 H917 0.913 . S
C899 H875 0.950 . S
C899 C898 1.524 . S
C899 C900 1.415 . S
C900 H876 0.950 . S
C900 C895 1.363 . S
C900 C899 1.415 . S
C901 H877 0.951 . S
C901 C902 1.366 . S
C901 C903 1.388 . S
C902 C901 1.366 . S
C902 C906 1.385 . S
C903 H878 0.951 . S
C903 C901 1.388 . S
C903 C904 1.366 . S
C904 C903 1.366 . S
C904 C905 1.414 . S
C904 C907 1.499 . S
C905 H879 0.950 . S
C905 C904 1.414 . S
C905 C906 1.374 . S
C906 H880 0.950 . S
C906 C902 1.385 . S
C906 C905 1.374 . S
C907 C904 1.499 . S
C907 C908 1.373 . S
C907 C909 1.389 . S
C908 H881 0.950 . S
C908 C894 1.377 . S
C908 C907 1.373 . S
C909 C893 1.377 . S
C909 C907 1.389 . S
C909 C910 1.524 . S
C910 C909 1.524 . S
C910 C911 1.397 . S
C910 C915 1.363 . S
C911 H882 0.950 . S
C911 C910 1.397 . S
C911 C912 1.334 . S
C912 H883 0.950 . S
C912 C911 1.334 . S
C912 C913 1.287 . S
C913 C912 1.287 . S
C913 C914 1.524 . S
C913 H916 0.999 . S
C914 H884 0.950 . S
C914 C913 1.524 . S
C914 C915 1.415 . S
C915 H885 0.950 . S
C915 C910 1.363 . S
C915 C914 1.415 . S
H916 C913 0.999 . S
H917 C898 0.913 . S
H918 C936 0.951 . S
H919 C938 0.951 . S
H920 C940 0.950 . S
H921 C941 0.950 . S
H922 C943 0.950 . S
H923 C946 0.950 . S
H924 C947 0.950 . S
H925 C949 0.950 . S
H926 C950 0.950 . S
H927 C951 0.951 . S
H928 C953 0.951 . S
H929 C955 0.950 . S
H930 C956 0.950 . S
H931 C958 0.950 . S
H932 C961 0.950 . S
H933 C962 0.950 . S
H934 C964 0.950 . S
H935 C965 0.950 . S
C936 H918 0.951 . S
C936 C937 1.366 . S
C936 C938 1.388 . S
C937 C936 1.366 . S
C937 C941 1.385 . S
C938 H919 0.951 . S
C938 C936 1.388 . S
C938 C939 1.366 . S
C939 C938 1.366 . S
C939 C940 1.414 . S
C939 C942 1.499 . S
C940 H920 0.950 . S
C940 C939 1.414 . S
C940 C941 1.374 . S
C941 H921 0.950 . S
C941 C937 1.385 . S
C941 C940 1.374 . S
C942 C939 1.499 . S
C942 C943 1.373 . S
C942 C944 1.389 . S
C943 H922 0.950 . S
C943 C942 1.373 . S
C943 C959 1.377 . S
C944 C942 1.389 . S
C944 C945 1.524 . S
C944 C958 1.377 . S
C945 C944 1.524 . S
C945 C946 1.397 . S
C945 C950 1.363 . S
C946 H923 0.950 . S
C946 C945 1.397 . S
C946 C947 1.334 . S
C947 H924 0.950 . S
C947 C946 1.334 . S
C947 C948 1.287 . S
C948 C947 1.287 . S
C948 C949 1.524 . S
C948 H967 0.913 . S
C949 H925 0.950 . S
C949 C948 1.524 . S
C949 C950 1.415 . S
C950 H926 0.950 . S
C950 C945 1.363 . S
C950 C949 1.415 . S
C951 H927 0.951 . S
C951 C952 1.366 . S
C951 C953 1.388 . S
C952 C951 1.366 . S
C952 C956 1.385 . S
C953 H928 0.951 . S
C953 C951 1.388 . S
C953 C954 1.366 . S
C954 C953 1.366 . S
C954 C955 1.414 . S
C954 C957 1.499 . S
C955 H929 0.950 . S
C955 C954 1.414 . S
C955 C956 1.374 . S
C956 H930 0.950 . S
C956 C952 1.385 . S
C956 C955 1.374 . S
C957 C954 1.499 . S
C957 C958 1.373 . S
C957 C959 1.389 . S
C958 H931 0.950 . S
C958 C944 1.377 . S
C958 C957 1.373 . S
C959 C943 1.377 . S
C959 C957 1.389 . S
C959 C960 1.524 . S
C960 C959 1.524 . S
C960 C961 1.397 . S
C960 C965 1.363 . S
C961 H932 0.950 . S
C961 C960 1.397 . S
C961 C962 1.334 . S
C962 H933 0.950 . S
C962 C961 1.334 . S
C962 C963 1.287 . S
C963 C962 1.287 . S
C963 C964 1.524 . S
C963 H966 0.999 . S
C964 H934 0.950 . S
C964 C963 1.524 . S
C964 C965 1.415 . S
C965 H935 0.950 . S
C965 C960 1.363 . S
C965 C964 1.415 . S
H966 C963 0.999 . S
H967 C948 0.913 . S
H968 C986 0.951 . S
H969 C988 0.951 . S
H970 C990 0.950 . S
H971 C991 0.950 . S
H972 C993 0.950 . S
H973 C996 0.950 . S
H974 C997 0.950 . S
H975 C999 0.958 . S
H976 C1000 0.950 . S
H977 C1001 0.951 . S
H978 C1003 0.951 . S
H979 C1005 0.950 . S
H980 C1006 0.941 1_455 S
H981 C1008 0.950 . S
H982 C1011 0.950 . S
H983 C1012 0.950 . S
H984 C1014 0.950 . S
H985 C1015 0.950 . S
C986 H968 0.951 . S
C986 C987 1.366 . S
C986 C988 1.388 . S
C987 C986 1.366 . S
C987 C991 1.385 . S
C988 H969 0.951 . S
C988 C986 1.388 . S
C988 C989 1.366 . S
C989 C988 1.366 . S
C989 C990 1.414 . S
C989 C992 1.499 . S
C990 H970 0.950 . S
C990 C989 1.414 . S
C990 C991 1.374 . S
C991 H971 0.950 . S
C991 C987 1.385 . S
C991 C990 1.374 . S
C992 C989 1.499 . S
C992 C993 1.373 . S
C992 C994 1.389 . S
C993 H972 0.950 . S
C993 C992 1.373 . S
C993 C1009 1.377 . S
C994 C992 1.389 . S
C994 C995 1.524 . S
C994 C1008 1.377 . S
C995 C994 1.524 . S
C995 C996 1.397 . S
C995 C1000 1.363 . S
C996 H973 0.950 . S
C996 C995 1.397 . S
C996 C997 1.334 . S
C997 H974 0.950 . S
C997 C996 1.334 . S
C997 C998 1.258 1_655 S
C998 C997 1.258 1_455 S
C998 C999 1.522 . S
C998 H1017 0.947 . S
C999 H975 0.958 . S
C999 C998 1.522 . S
C999 C1000 1.404 1_455 S
C1000 H976 0.950 . S
C1000 C995 1.363 . S
C1000 C999 1.404 1_655 S
C1001 H977 0.951 . S
C1001 C1002 1.349 1_655 S
C1001 C1003 1.388 . S
C1002 C1001 1.349 1_455 S
C1002 C1006 1.388 1_455 S
C1003 H978 0.951 . S
C1003 C1001 1.388 . S
C1003 C1004 1.366 . S
C1004 C1003 1.366 . S
C1004 C1005 1.414 . S
C1004 C1007 1.499 . S
C1005 H979 0.950 . S
C1005 C1004 1.414 . S
C1005 C1006 1.382 . S
C1006 H980 0.941 1_655 S
C1006 C1002 1.388 1_655 S
C1006 C1005 1.382 . S
C1007 C1004 1.499 . S
C1007 C1008 1.373 . S
C1007 C1009 1.389 . S
C1008 H981 0.950 . S
C1008 C994 1.377 . S
C1008 C1007 1.373 . S
C1009 C993 1.377 . S
C1009 C1007 1.389 . S
C1009 C1010 1.524 . S
C1010 C1009 1.524 . S
C1010 C1011 1.397 . S
C1010 C1015 1.363 . S
C1011 H982 0.950 . S
C1011 C1010 1.397 . S
C1011 C1012 1.334 . S
C1012 H983 0.950 . S
C1012 C1011 1.334 . S
C1012 C1013 1.287 . S
C1013 C1012 1.287 . S
C1013 C1014 1.524 . S
C1013 H1016 0.999 . S
C1014 H984 0.950 . S
C1014 C1013 1.524 . S
C1014 C1015 1.415 . S
C1015 H985 0.950 . S
C1015 C1010 1.363 . S
C1015 C1014 1.415 . S
H1016 C1013 0.999 . S
H1017 C998 0.947 . S
H1018 C1036 0.951 . S
H1019 C1038 0.951 . S
H1020 C1040 0.950 . S
H1021 C1041 0.950 . S
H1022 C1043 0.950 . S
H1023 C1046 0.950 . S
H1024 C1047 0.950 . S
H1025 C1049 0.950 1_554 S
H1026 C1050 0.950 1_545 S
H1027 C1051 0.951 1_565 S
H1028 C1053 0.938 1_565 S
H1029 C1055 0.950 . S
H1030 C1056 0.950 . S
H1031 C1058 0.960 . S
H1032 C1061 0.950 . S
H1033 C1062 0.950 . S
H1034 C1064 0.950 . S
H1035 C1065 0.950 . S
C1036 H1018 0.951 . S
C1036 C1037 1.341 1_545 S
C1036 C1038 1.388 . S
C1037 C1036 1.341 1_565 S
C1037 C1041 1.403 . S
C1038 H1019 0.951 . S
C1038 C1036 1.388 . S
C1038 C1039 1.380 . S
C1039 C1038 1.380 . S
C1039 C1040 1.394 1_545 S
C1039 C1042 1.506 . S
C1040 H1020 0.950 . S
C1040 C1039 1.394 1_565 S
C1040 C1041 1.374 . S
C1041 H1021 0.950 . S
C1041 C1037 1.403 . S
C1041 C1040 1.374 . S
C1042 C1039 1.506 . S
C1042 C1043 1.373 . S
C1042 C1044 1.389 1_545 S
C1043 H1022 0.950 . S
C1043 C1042 1.373 . S
C1043 C1059 1.377 . S
C1044 C1042 1.389 1_565 S
C1044 C1045 1.524 . S
C1044 C1058 1.389 . S
C1045 C1044 1.524 . S
C1045 C1046 1.397 . S
C1045 C1050 1.363 . S
C1046 H1023 0.950 . S
C1046 C1045 1.397 . S
C1046 C1047 1.334 . S
C1047 H1024 0.950 . S
C1047 C1046 1.334 . S
C1047 C1048 1.287 . S
C1048 C1047 1.287 . S
C1048 C1049 1.524 . S
C1048 H1067 0.921 . S
C1049 H1025 0.950 1_556 S
C1049 C1048 1.524 . S
C1049 C1050 1.415 . S
C1050 H1026 0.950 1_565 S
C1050 C1045 1.363 . S
C1050 C1049 1.415 . S
C1051 H1027 0.951 1_545 S
C1051 C1052 1.366 . S
C1051 C1053 1.392 . S
C1052 C1051 1.366 . S
C1052 C1056 1.385 . S
C1053 H1028 0.938 1_545 S
C1053 C1051 1.392 . S
C1053 C1054 1.374 . S
C1054 C1053 1.374 . S
C1054 C1055 1.414 . S
C1054 C1057 1.499 . S
C1055 H1029 0.950 . S
C1055 C1054 1.414 . S
C1055 C1056 1.374 . S
C1056 H1030 0.950 . S
C1056 C1052 1.385 . S
C1056 C1055 1.374 . S
C1057 C1054 1.499 . S
C1057 C1058 1.354 1_545 S
C1057 C1059 1.389 . S
C1058 H1031 0.960 . S
C1058 C1044 1.389 . S
C1058 C1057 1.354 1_565 S
C1059 C1043 1.377 . S
C1059 C1057 1.389 . S
C1059 C1060 1.524 . S
C1060 C1059 1.524 . S
C1060 C1061 1.397 . S
C1060 C1065 1.363 . S
C1061 H1032 0.950 . S
C1061 C1060 1.397 . S
C1061 C1062 1.334 . S
C1062 H1033 0.950 . S
C1062 C1061 1.334 . S
C1062 C1063 1.287 . S
C1063 C1062 1.287 . S
C1063 C1064 1.524 . S
C1063 H1066 0.999 . S
C1064 H1034 0.950 . S
C1064 C1063 1.524 . S
C1064 C1065 1.415 . S
C1065 H1035 0.950 . S
C1065 C1060 1.363 . S
C1065 C1064 1.415 . S
H1066 C1063 0.999 . S
H1067 C1048 0.921 . S
H1068 C1086 0.951 . S
H1069 C1088 0.951 . S
H1070 C1090 0.950 . S
H1071 C1091 0.950 . S
H1072 C1093 0.950 . S
H1073 C1096 0.950 . S
H1074 C1097 0.950 . S
H1075 C1099 0.950 . S
H1076 C1100 0.950 . S
H1077 C1101 0.951 . S
H1078 C1103 0.951 . S
H1079 C1105 0.950 . S
H1080 C1106 0.950 . S
H1081 C1108 0.950 . S
H1082 C1111 0.950 . S
H1083 C1112 0.950 . S
H1084 C1114 0.950 . S
H1085 C1115 0.950 . S
C1086 H1068 0.951 . S
C1086 C1087 1.366 . S
C1086 C1088 1.388 . S
C1087 C1086 1.366 . S
C1087 C1091 1.385 . S
C1088 H1069 0.951 . S
C1088 C1086 1.388 . S
C1088 C1089 1.366 . S
C1089 C1088 1.366 . S
C1089 C1090 1.414 . S
C1089 C1092 1.499 . S
C1090 H1070 0.950 . S
C1090 C1089 1.414 . S
C1090 C1091 1.374 . S
C1091 H1071 0.950 . S
C1091 C1087 1.385 . S
C1091 C1090 1.374 . S
C1092 C1089 1.499 . S
C1092 C1093 1.373 . S
C1092 C1094 1.389 . S
C1093 H1072 0.950 . S
C1093 C1092 1.373 . S
C1093 C1109 1.377 . S
C1094 C1092 1.389 . S
C1094 C1095 1.524 . S
C1094 C1108 1.377 . S
C1095 C1094 1.524 . S
C1095 C1096 1.397 . S
C1095 C1100 1.363 . S
C1096 H1073 0.950 . S
C1096 C1095 1.397 . S
C1096 C1097 1.334 . S
C1097 H1074 0.950 . S
C1097 C1096 1.334 . S
C1097 C1098 1.287 . S
C1098 C1097 1.287 . S
C1098 C1099 1.524 . S
C1098 H1117 0.913 . S
C1099 H1075 0.950 . S
C1099 C1098 1.524 . S
C1099 C1100 1.415 . S
C1100 H1076 0.950 . S
C1100 C1095 1.363 . S
C1100 C1099 1.415 . S
C1101 H1077 0.951 . S
C1101 C1102 1.366 . S
C1101 C1103 1.388 . S
C1102 C1101 1.366 . S
C1102 C1106 1.385 . S
C1103 H1078 0.951 . S
C1103 C1101 1.388 . S
C1103 C1104 1.366 . S
C1104 C1103 1.366 . S
C1104 C1105 1.414 . S
C1104 C1107 1.499 . S
C1105 H1079 0.950 . S
C1105 C1104 1.414 . S
C1105 C1106 1.374 . S
C1106 H1080 0.950 . S
C1106 C1102 1.385 . S
C1106 C1105 1.374 . S
C1107 C1104 1.499 . S
C1107 C1108 1.373 . S
C1107 C1109 1.389 . S
C1108 H1081 0.950 . S
C1108 C1094 1.377 . S
C1108 C1107 1.373 . S
C1109 C1093 1.377 . S
C1109 C1107 1.389 . S
C1109 C1110 1.524 . S
C1110 C1109 1.524 . S
C1110 C1111 1.397 . S
C1110 C1115 1.363 . S
C1111 H1082 0.950 . S
C1111 C1110 1.397 . S
C1111 C1112 1.334 . S
C1112 H1083 0.950 . S
C1112 C1111 1.334 . S
C1112 C1113 1.287 . S
C1113 C1112 1.287 . S
C1113 C1114 1.524 . S
C1113 H1116 0.999 . S
C1114 H1084 0.950 . S
C1114 C1113 1.524 . S
C1114 C1115 1.415 . S
C1115 H1085 0.950 . S
C1115 C1110 1.363 . S
C1115 C1114 1.415 . S
H1116 C1113 0.999 . S
H1117 C1098 0.913 . S
H1118 C1136 0.951 . S
H1119 C1138 0.951 . S
H1120 C1140 0.950 . S
H1121 C1141 0.950 . S
H1122 C1143 0.950 . S
H1123 C1146 0.950 . S
H1124 C1147 0.950 . S
H1125 C1149 0.950 . S
H1126 C1150 0.950 . S
H1127 C1151 0.951 . S
H1128 C1153 0.951 . S
H1129 C1155 0.950 . S
H1130 C1156 0.950 . S
H1131 C1158 0.950 . S
H1132 C1161 0.950 . S
H1133 C1162 0.950 . S
H1134 C1164 0.950 . S
H1135 C1165 0.950 . S
C1136 H1118 0.951 . S
C1136 C1137 1.366 . S
C1136 C1138 1.388 . S
C1137 C1136 1.366 . S
C1137 C1141 1.385 . S
C1138 H1119 0.951 . S
C1138 C1136 1.388 . S
C1138 C1139 1.366 . S
C1139 C1138 1.366 . S
C1139 C1140 1.414 . S
C1139 C1142 1.499 . S
C1140 H1120 0.950 . S
C1140 C1139 1.414 . S
C1140 C1141 1.374 . S
C1141 H1121 0.950 . S
C1141 C1137 1.385 . S
C1141 C1140 1.374 . S
C1142 C1139 1.499 . S
C1142 C1143 1.373 . S
C1142 C1144 1.389 . S
C1143 H1122 0.950 . S
C1143 C1142 1.373 . S
C1143 C1159 1.377 . S
C1144 C1142 1.389 . S
C1144 C1145 1.524 . S
C1144 C1158 1.377 . S
C1145 C1144 1.524 . S
C1145 C1146 1.397 . S
C1145 C1150 1.363 . S
C1146 H1123 0.950 . S
C1146 C1145 1.397 . S
C1146 C1147 1.334 . S
C1147 H1124 0.950 . S
C1147 C1146 1.334 . S
C1147 C1148 1.287 . S
C1148 C1147 1.287 . S
C1148 C1149 1.524 . S
C1148 H1167 0.913 1_556 S
C1149 H1125 0.950 . S
C1149 C1148 1.524 . S
C1149 C1150 1.415 . S
C1150 H1126 0.950 . S
C1150 C1145 1.363 . S
C1150 C1149 1.415 . S
C1151 H1127 0.951 . S
C1151 C1152 1.366 . S
C1151 C1153 1.388 . S
C1152 C1151 1.366 . S
C1152 C1156 1.385 . S
C1153 H1128 0.951 . S
C1153 C1151 1.388 . S
C1153 C1154 1.366 . S
C1154 C1153 1.366 . S
C1154 C1155 1.414 . S
C1154 C1157 1.499 . S
C1155 H1129 0.950 . S
C1155 C1154 1.414 . S
C1155 C1156 1.374 . S
C1156 H1130 0.950 . S
C1156 C1152 1.385 . S
C1156 C1155 1.374 . S
C1157 C1154 1.499 . S
C1157 C1158 1.373 . S
C1157 C1159 1.389 . S
C1158 H1131 0.950 . S
C1158 C1144 1.377 . S
C1158 C1157 1.373 . S
C1159 C1143 1.377 . S
C1159 C1157 1.389 . S
C1159 C1160 1.524 . S
C1160 C1159 1.524 . S
C1160 C1161 1.397 . S
C1160 C1165 1.363 . S
C1161 H1132 0.950 . S
C1161 C1160 1.397 . S
C1161 C1162 1.334 . S
C1162 H1133 0.950 . S
C1162 C1161 1.334 . S
C1162 C1163 1.287 . S
C1163 C1162 1.287 . S
C1163 C1164 1.524 . S
C1163 H1166 0.999 . S
C1164 H1134 0.950 . S
C1164 C1163 1.524 . S
C1164 C1165 1.415 . S
C1165 H1135 0.950 . S
C1165 C1160 1.363 . S
C1165 C1164 1.415 . S
H1166 C1163 0.999 . S
H1167 C1148 0.913 1_554 S
H1168 C1186 0.951 . S
H1169 C1188 0.951 . S
H1170 C1190 0.950 . S
H1171 C1191 0.950 . S
H1172 C1193 0.950 . S
H1173 C1196 0.950 . S
H1174 C1197 0.950 . S
H1175 C1199 0.950 1_655 S
H1176 C1200 0.950 . S
H1177 C1201 0.951 . S
H1178 C1203 0.951 . S
H1179 C1205 0.950 . S
H1180 C1206 0.950 . S
H1181 C1208 0.950 . S
H1182 C1211 0.950 . S
H1183 C1212 0.950 . S
H1184 C1214 0.950 . S
H1185 C1215 0.950 . S
C1186 H1168 0.951 . S
C1186 C1187 1.366 . S
C1186 C1188 1.388 . S
C1187 C1186 1.366 . S
C1187 C1191 1.385 . S
C1188 H1169 0.951 . S
C1188 C1186 1.388 . S
C1188 C1189 1.366 . S
C1189 C1188 1.366 . S
C1189 C1190 1.414 . S
C1189 C1192 1.499 . S
C1190 H1170 0.950 . S
C1190 C1189 1.414 . S
C1190 C1191 1.374 . S
C1191 H1171 0.950 . S
C1191 C1187 1.385 . S
C1191 C1190 1.374 . S
C1192 C1189 1.499 . S
C1192 C1193 1.373 . S
C1192 C1194 1.389 . S
C1193 H1172 0.950 . S
C1193 C1192 1.373 . S
C1193 C1209 1.377 . S
C1194 C1192 1.389 . S
C1194 C1195 1.524 . S
C1194 C1208 1.377 . S
C1195 C1194 1.524 . S
C1195 C1196 1.397 . S
C1195 C1200 1.363 . S
C1196 H1173 0.950 . S
C1196 C1195 1.397 . S
C1196 C1197 1.334 . S
C1197 H1174 0.950 . S
C1197 C1196 1.334 . S
C1197 C1198 1.287 . S
C1198 C1197 1.287 . S
C1198 C1199 1.524 . S
C1198 H1217 0.913 1_455 S
C1199 H1175 0.950 1_455 S
C1199 C1198 1.524 . S
C1199 C1200 1.415 . S
C1200 H1176 0.950 . S
C1200 C1195 1.363 . S
C1200 C1199 1.415 . S
C1201 H1177 0.951 . S
C1201 C1202 1.366 . S
C1201 C1203 1.388 . S
C1202 C1201 1.366 . S
C1202 C1206 1.385 . S
C1203 H1178 0.951 . S
C1203 C1201 1.388 . S
C1203 C1204 1.366 . S
C1204 C1203 1.366 . S
C1204 C1205 1.414 . S
C1204 C1207 1.499 . S
C1205 H1179 0.950 . S
C1205 C1204 1.414 . S
C1205 C1206 1.374 . S
C1206 H1180 0.950 . S
C1206 C1202 1.385 . S
C1206 C1205 1.374 . S
C1207 C1204 1.499 . S
C1207 C1208 1.373 . S
C1207 C1209 1.389 . S
C1208 H1181 0.950 . S
C1208 C1194 1.377 . S
C1208 C1207 1.373 . S
C1209 C1193 1.377 . S
C1209 C1207 1.389 . S
C1209 C1210 1.524 . S
C1210 C1209 1.524 . S
C1210 C1211 1.397 . S
C1210 C1215 1.363 . S
C1211 H1182 0.950 . S
C1211 C1210 1.397 . S
C1211 C1212 1.334 . S
C1212 H1183 0.950 . S
C1212 C1211 1.334 . S
C1212 C1213 1.287 . S
C1213 C1212 1.287 . S
C1213 C1214 1.524 . S
C1213 H1216 0.999 . S
C1214 H1184 0.950 . S
C1214 C1213 1.524 . S
C1214 C1215 1.415 . S
C1215 H1185 0.950 . S
C1215 C1210 1.363 . S
C1215 C1214 1.415 . S
H1216 C1213 0.999 . S
H1217 C1198 0.913 1_655 S
H1218 C1236 0.951 . S
H1219 C1238 0.951 . S
H1220 C1240 0.950 . S
H1221 C1241 0.950 . S
H1222 C1243 0.950 . S
H1223 C1246 0.950 . S
H1224 C1247 0.950 . S
H1225 C1249 0.950 . S
H1226 C1250 0.950 . S
H1227 C1251 0.951 . S
H1228 C1253 0.951 . S
H1229 C1255 0.950 . S
H1230 C1256 0.950 . S
H1231 C1258 0.950 . S
H1232 C1261 0.950 . S
H1233 C1262 0.950 . S
H1234 C1264 0.950 . S
H1235 C1265 0.950 . S
C1236 H1218 0.951 . S
C1236 C1237 1.377 . S
C1236 C1238 1.388 . S
C1237 C1236 1.377 . S
C1237 C1241 1.372 1_545 S
C1238 H1219 0.951 . S
C1238 C1236 1.388 . S
C1238 C1239 1.366 . S
C1239 C1238 1.366 . S
C1239 C1240 1.414 1_545 S
C1239 C1242 1.499 . S
C1240 H1220 0.950 . S
C1240 C1239 1.414 1_565 S
C1240 C1241 1.374 . S
C1241 H1221 0.950 . S
C1241 C1237 1.372 1_565 S
C1241 C1240 1.374 . S
C1242 C1239 1.499 . S
C1242 C1243 1.373 1_545 S
C1242 C1244 1.389 . S
C1243 H1222 0.950 . S
C1243 C1242 1.373 1_565 S
C1243 C1259 1.377 . S
C1244 C1242 1.389 . S
C1244 C1245 1.524 . S
C1244 C1258 1.377 . S
C1245 C1244 1.524 . S
C1245 C1246 1.397 . S
C1245 C1250 1.363 . S
C1246 H1223 0.950 . S
C1246 C1245 1.397 . S
C1246 C1247 1.334 . S
C1247 H1224 0.950 . S
C1247 C1246 1.334 . S
C1247 C1248 1.287 . S
C1248 C1247 1.287 . S
C1248 C1249 1.524 . S
C1248 H1267 0.913 . S
C1249 H1225 0.950 . S
C1249 C1248 1.524 . S
C1249 C1250 1.415 . S
C1250 H1226 0.950 . S
C1250 C1245 1.363 . S
C1250 C1249 1.415 . S
C1251 H1227 0.951 . S
C1251 C1252 1.366 1_565 S
C1251 C1253 1.388 . S
C1252 C1251 1.366 1_545 S
C1252 C1256 1.385 . S
C1253 H1228 0.951 . S
C1253 C1251 1.388 . S
C1253 C1254 1.366 1_565 S
C1254 C1253 1.366 1_545 S
C1254 C1255 1.414 . S
C1254 C1257 1.499 . S
C1255 H1229 0.950 . S
C1255 C1254 1.414 . S
C1255 C1256 1.374 . S
C1256 H1230 0.950 . S
C1256 C1252 1.385 . S
C1256 C1255 1.374 . S
C1257 C1254 1.499 . S
C1257 C1258 1.373 . S
C1257 C1259 1.389 1_545 S
C1258 H1231 0.950 . S
C1258 C1244 1.377 . S
C1258 C1257 1.373 . S
C1259 C1243 1.377 . S
C1259 C1257 1.389 1_565 S
C1259 C1260 1.524 . S
C1260 C1259 1.524 . S
C1260 C1261 1.397 . S
C1260 C1265 1.363 . S
C1261 H1232 0.950 . S
C1261 C1260 1.397 . S
C1261 C1262 1.334 . S
C1262 H1233 0.950 . S
C1262 C1261 1.334 . S
C1262 C1263 1.287 . S
C1263 C1262 1.287 . S
C1263 C1264 1.524 . S
C1263 H1266 0.999 . S
C1264 H1234 0.950 . S
C1264 C1263 1.524 . S
C1264 C1265 1.415 . S
C1265 H1235 0.950 . S
C1265 C1260 1.363 . S
C1265 C1264 1.415 . S
H1266 C1263 0.999 . S
H1267 C1248 0.913 . S
H1268 C1286 0.951 . S
H1269 C1288 0.951 . S
H1270 C1290 0.950 . S
H1271 C1291 0.950 . S
H1272 C1293 0.950 . S
H1273 C1296 0.950 . S
H1274 C1297 0.950 . S
H1275 C1299 0.950 . S
H1276 C1300 0.950 . S
H1277 C1301 0.951 . S
H1278 C1303 0.951 . S
H1279 C1305 0.950 . S
H1280 C1306 0.950 . S
H1281 C1308 0.950 . S
H1282 C1311 0.950 . S
H1283 C1312 0.950 . S
H1284 C1314 0.950 . S
H1285 C1315 0.950 . S
C1286 H1268 0.951 . S
C1286 C1287 1.366 . S
C1286 C1288 1.388 . S
C1287 C1286 1.366 . S
C1287 C1291 1.385 . S
C1288 H1269 0.951 . S
C1288 C1286 1.388 . S
C1288 C1289 1.366 . S
C1289 C1288 1.366 . S
C1289 C1290 1.414 . S
C1289 C1292 1.499 . S
C1290 H1270 0.950 . S
C1290 C1289 1.414 . S
C1290 C1291 1.374 . S
C1291 H1271 0.950 . S
C1291 C1287 1.385 . S
C1291 C1290 1.374 . S
C1292 C1289 1.499 . S
C1292 C1293 1.373 . S
C1292 C1294 1.389 . S
C1293 H1272 0.950 . S
C1293 C1292 1.373 . S
C1293 C1309 1.377 . S
C1294 C1292 1.389 . S
C1294 C1295 1.524 . S
C1294 C1308 1.377 . S
C1295 C1294 1.524 . S
C1295 C1296 1.397 . S
C1295 C1300 1.363 . S
C1296 H1273 0.950 . S
C1296 C1295 1.397 . S
C1296 C1297 1.334 . S
C1297 H1274 0.950 . S
C1297 C1296 1.334 . S
C1297 C1298 1.287 . S
C1298 C1297 1.287 . S
C1298 C1299 1.524 . S
C1298 H1317 0.913 . S
C1299 H1275 0.950 . S
C1299 C1298 1.524 . S
C1299 C1300 1.415 . S
C1300 H1276 0.950 . S
C1300 C1295 1.363 . S
C1300 C1299 1.415 . S
C1301 H1277 0.951 . S
C1301 C1302 1.366 . S
C1301 C1303 1.388 . S
C1302 C1301 1.366 . S
C1302 C1306 1.385 . S
C1303 H1278 0.951 . S
C1303 C1301 1.388 . S
C1303 C1304 1.366 . S
C1304 C1303 1.366 . S
C1304 C1305 1.414 . S
C1304 C1307 1.499 . S
C1305 H1279 0.950 . S
C1305 C1304 1.414 . S
C1305 C1306 1.374 . S
C1306 H1280 0.950 . S
C1306 C1302 1.385 . S
C1306 C1305 1.374 . S
C1307 C1304 1.499 . S
C1307 C1308 1.373 . S
C1307 C1309 1.389 . S
C1308 H1281 0.950 . S
C1308 C1294 1.377 . S
C1308 C1307 1.373 . S
C1309 C1293 1.377 . S
C1309 C1307 1.389 . S
C1309 C1310 1.524 . S
C1310 C1309 1.524 . S
C1310 C1311 1.397 . S
C1310 C1315 1.363 . S
C1311 H1282 0.950 . S
C1311 C1310 1.397 . S
C1311 C1312 1.334 . S
C1312 H1283 0.950 . S
C1312 C1311 1.334 . S
C1312 C1313 1.287 . S
C1313 C1312 1.287 . S
C1313 C1314 1.524 . S
C1313 H1316 0.999 . S
C1314 H1284 0.950 . S
C1314 C1313 1.524 . S
C1314 C1315 1.415 . S
C1315 H1285 0.950 . S
C1315 C1310 1.363 . S
C1315 C1314 1.415 . S
H1316 C1313 0.999 . S
H1317 C1298 0.913 . S
H1318 C1336 0.951 . S
H1319 C1338 0.951 . S
H1320 C1340 0.950 . S
H1321 C1341 0.950 . S
H1322 C1343 0.950 . S
H1323 C1346 0.950 . S
H1324 C1347 0.950 . S
H1325 C1349 0.950 . S
H1326 C1350 0.950 . S
H1327 C1351 0.951 . S
H1328 C1353 0.951 . S
H1329 C1355 0.950 . S
H1330 C1356 0.950 . S
H1331 C1358 0.950 . S
H1332 C1361 0.950 . S
H1333 C1362 0.950 . S
H1334 C1364 0.950 . S
H1335 C1365 0.950 . S
C1336 H1318 0.951 . S
C1336 C1337 1.366 . S
C1336 C1338 1.388 . S
C1337 C1336 1.366 . S
C1337 C1341 1.385 . S
C1338 H1319 0.951 . S
C1338 C1336 1.388 . S
C1338 C1339 1.366 . S
C1339 C1338 1.366 . S
C1339 C1340 1.414 . S
C1339 C1342 1.499 . S
C1340 H1320 0.950 . S
C1340 C1339 1.414 . S
C1340 C1341 1.374 . S
C1341 H1321 0.950 . S
C1341 C1337 1.385 . S
C1341 C1340 1.374 . S
C1342 C1339 1.499 . S
C1342 C1343 1.373 . S
C1342 C1344 1.389 . S
C1343 H1322 0.950 . S
C1343 C1342 1.373 . S
C1343 C1359 1.377 . S
C1344 C1342 1.389 . S
C1344 C1345 1.524 . S
C1344 C1358 1.377 . S
C1345 C1344 1.524 . S
C1345 C1346 1.397 . S
C1345 C1350 1.363 . S
C1346 H1323 0.950 . S
C1346 C1345 1.397 . S
C1346 C1347 1.334 . S
C1347 H1324 0.950 . S
C1347 C1346 1.334 . S
C1347 C1348 1.287 . S
C1348 C1347 1.287 . S
C1348 C1349 1.524 . S
C1348 H1367 0.913 . S
C1349 H1325 0.950 . S
C1349 C1348 1.524 . S
C1349 C1350 1.415 . S
C1350 H1326 0.950 . S
C1350 C1345 1.363 . S
C1350 C1349 1.415 . S
C1351 H1327 0.951 . S
C1351 C1352 1.366 . S
C1351 C1353 1.388 . S
C1352 C1351 1.366 . S
C1352 C1356 1.385 . S
C1353 H1328 0.951 . S
C1353 C1351 1.388 . S
C1353 C1354 1.366 . S
C1354 C1353 1.366 . S
C1354 C1355 1.414 . S
C1354 C1357 1.499 . S
C1355 H1329 0.950 . S
C1355 C1354 1.414 . S
C1355 C1356 1.374 . S
C1356 H1330 0.950 . S
C1356 C1352 1.385 . S
C1356 C1355 1.374 . S
C1357 C1354 1.499 . S
C1357 C1358 1.373 . S
C1357 C1359 1.389 . S
C1358 H1331 0.950 . S
C1358 C1344 1.377 . S
C1358 C1357 1.373 . S
C1359 C1343 1.377 . S
C1359 C1357 1.389 . S
C1359 C1360 1.524 . S
C1360 C1359 1.524 . S
C1360 C1361 1.397 . S
C1360 C1365 1.363 . S
C1361 H1332 0.950 . S
C1361 C1360 1.397 . S
C1361 C1362 1.334 . S
C1362 H1333 0.950 . S
C1362 C1361 1.334 . S
C1362 C1363 1.287 . S
C1363 C1362 1.287 . S
C1363 C1364 1.524 . S
C1363 H1366 0.999 . S
C1364 H1334 0.950 . S
C1364 C1363 1.524 . S
C1364 C1365 1.415 . S
C1365 H1335 0.950 . S
C1365 C1360 1.363 . S
C1365 C1364 1.415 . S
H1366 C1363 0.999 . S
H1367 C1348 0.913 . S
H1368 C1386 0.951 . S
H1369 C1388 0.951 . S
H1370 C1390 0.950 . S
H1371 C1391 0.950 . S
H1372 C1393 0.950 . S
H1373 C1396 0.950 . S
H1374 C1397 0.950 . S
H1375 C1399 0.950 . S
H1376 C1400 0.950 . S
H1377 C1401 0.951 1_455 S
H1378 C1403 0.951 . S
H1379 C1405 0.950 . S
H1380 C1406 0.950 . S
H1381 C1408 0.950 . S
H1382 C1411 0.950 . S
H1383 C1412 0.950 . S
H1384 C1414 0.950 1_455 S
H1385 C1415 0.950 . S
C1386 H1368 0.951 . S
C1386 C1387 1.366 . S
C1386 C1388 1.388 . S
C1387 C1386 1.366 . S
C1387 C1391 1.385 . S
C1388 H1369 0.951 . S
C1388 C1386 1.388 . S
C1388 C1389 1.366 . S
C1389 C1388 1.366 . S
C1389 C1390 1.414 . S
C1389 C1392 1.499 . S
C1390 H1370 0.950 . S
C1390 C1389 1.414 . S
C1390 C1391 1.374 . S
C1391 H1371 0.950 . S
C1391 C1387 1.385 . S
C1391 C1390 1.374 . S
C1392 C1389 1.499 . S
C1392 C1393 1.373 . S
C1392 C1394 1.389 . S
C1393 H1372 0.950 . S
C1393 C1392 1.373 . S
C1393 C1409 1.377 . S
C1394 C1392 1.389 . S
C1394 C1395 1.524 . S
C1394 C1408 1.377 . S
C1395 C1394 1.524 . S
C1395 C1396 1.397 . S
C1395 C1400 1.363 . S
C1396 H1373 0.950 . S
C1396 C1395 1.397 . S
C1396 C1397 1.334 . S
C1397 H1374 0.950 . S
C1397 C1396 1.334 . S
C1397 C1398 1.287 . S
C1398 C1397 1.287 . S
C1398 C1399 1.524 . S
C1398 H1417 0.913 . S
C1399 H1375 0.950 . S
C1399 C1398 1.524 . S
C1399 C1400 1.415 . S
C1400 H1376 0.950 . S
C1400 C1395 1.363 . S
C1400 C1399 1.415 . S
C1401 H1377 0.951 1_655 S
C1401 C1402 1.366 . S
C1401 C1403 1.388 . S
C1402 C1401 1.366 . S
C1402 C1406 1.385 . S
C1403 H1378 0.951 . S
C1403 C1401 1.388 . S
C1403 C1404 1.366 . S
C1404 C1403 1.366 . S
C1404 C1405 1.414 . S
C1404 C1407 1.499 . S
C1405 H1379 0.950 . S
C1405 C1404 1.414 . S
C1405 C1406 1.374 . S
C1406 H1380 0.950 . S
C1406 C1402 1.385 . S
C1406 C1405 1.374 . S
C1407 C1404 1.499 . S
C1407 C1408 1.373 . S
C1407 C1409 1.389 . S
C1408 H1381 0.950 . S
C1408 C1394 1.377 . S
C1408 C1407 1.373 . S
C1409 C1393 1.377 . S
C1409 C1407 1.389 . S
C1409 C1410 1.524 . S
C1410 C1409 1.524 . S
C1410 C1411 1.397 . S
C1410 C1415 1.363 . S
C1411 H1382 0.950 . S
C1411 C1410 1.397 . S
C1411 C1412 1.334 . S
C1412 H1383 0.950 . S
C1412 C1411 1.334 . S
C1412 C1413 1.287 . S
C1413 C1412 1.287 . S
C1413 C1414 1.524 . S
C1413 H1416 0.999 . S
C1414 H1384 0.950 1_655 S
C1414 C1413 1.524 . S
C1414 C1415 1.415 . S
C1415 H1385 0.950 . S
C1415 C1410 1.363 . S
C1415 C1414 1.415 . S
H1416 C1413 0.999 . S
H1417 C1398 0.913 . S
H1418 C1436 0.951 . S
H1419 C1438 0.951 . S
H1420 C1440 0.950 . S
H1421 C1441 0.950 . S
H1422 C1443 0.950 . S
H1423 C1446 0.950 . S
H1424 C1447 0.950 . S
H1425 C1449 0.950 . S
H1426 C1450 0.950 1_545 S
H1427 C1451 0.951 . S
H1428 C1453 0.951 . S
H1429 C1455 0.950 . S
H1430 C1456 0.950 . S
H1431 C1458 0.950 . S
H1432 C1461 0.950 . S
H1433 C1462 0.950 . S
H1434 C1464 0.950 . S
H1435 C1465 0.950 1_565 S
C1436 H1418 0.951 . S
C1436 C1437 1.364 1_545 S
C1436 C1438 1.388 . S
C1437 C1436 1.364 1_565 S
C1437 C1441 1.386 . S
C1438 H1419 0.951 . S
C1438 C1436 1.388 . S
C1438 C1439 1.366 1_545 S
C1439 C1438 1.366 1_565 S
C1439 C1440 1.414 . S
C1439 C1442 1.499 . S
C1440 H1420 0.950 . S
C1440 C1439 1.414 . S
C1440 C1441 1.374 . S
C1441 H1421 0.950 . S
C1441 C1437 1.386 . S
C1441 C1440 1.374 . S
C1442 C1439 1.499 . S
C1442 C1443 1.373 1_565 S
C1442 C1444 1.389 . S
C1443 H1422 0.950 . S
C1443 C1442 1.373 1_545 S
C1443 C1459 1.377 . S
C1444 C1442 1.389 . S
C1444 C1445 1.524 . S
C1444 C1458 1.377 . S
C1445 C1444 1.524 . S
C1445 C1446 1.397 . S
C1445 C1450 1.363 . S
C1446 H1423 0.950 . S
C1446 C1445 1.397 . S
C1446 C1447 1.334 . S
C1447 H1424 0.950 . S
C1447 C1446 1.334 . S
C1447 C1448 1.287 . S
C1448 C1447 1.287 . S
C1448 C1449 1.524 . S
C1448 H1467 0.913 . S
C1449 H1425 0.950 . S
C1449 C1448 1.524 . S
C1449 C1450 1.415 . S
C1450 H1426 0.950 1_565 S
C1450 C1445 1.363 . S
C1450 C1449 1.415 . S
C1451 H1427 0.951 . S
C1451 C1452 1.366 . S
C1451 C1453 1.388 . S
C1452 C1451 1.366 . S
C1452 C1456 1.385 1_565 S
C1453 H1428 0.951 . S
C1453 C1451 1.388 . S
C1453 C1454 1.366 . S
C1454 C1453 1.366 . S
C1454 C1455 1.414 1_565 S
C1454 C1457 1.497 . S
C1455 H1429 0.950 . S
C1455 C1454 1.414 1_545 S
C1455 C1456 1.374 . S
C1456 H1430 0.950 . S
C1456 C1452 1.385 1_545 S
C1456 C1455 1.374 . S
C1457 C1454 1.497 . S
C1457 C1458 1.392 . S
C1457 C1459 1.379 1_565 S
C1458 H1431 0.950 . S
C1458 C1444 1.377 . S
C1458 C1457 1.392 . S
C1459 C1443 1.377 . S
C1459 C1457 1.379 1_545 S
C1459 C1460 1.524 . S
C1460 C1459 1.524 . S
C1460 C1461 1.397 . S
C1460 C1465 1.363 . S
C1461 H1432 0.950 . S
C1461 C1460 1.397 . S
C1461 C1462 1.334 . S
C1462 H1433 0.950 . S
C1462 C1461 1.334 . S
C1462 C1463 1.287 . S
C1463 C1462 1.287 . S
C1463 C1464 1.524 . S
C1463 H1466 0.999 . S
C1464 H1434 0.950 . S
C1464 C1463 1.524 . S
C1464 C1465 1.415 . S
C1465 H1435 0.950 1_545 S
C1465 C1460 1.363 . S
C1465 C1464 1.415 . S
H1466 C1463 0.999 . S
H1467 C1448 0.913 . S
H1468 C1486 0.951 . S
H1469 C1488 0.951 . S
H1470 C1490 0.950 . S
H1471 C1491 0.950 . S
H1472 C1493 0.950 . S
H1473 C1496 0.950 . S
H1474 C1497 0.950 . S
H1475 C1499 0.950 . S
H1476 C1500 0.950 . S
H1477 C1501 0.951 . S
H1478 C1503 0.951 . S
H1479 C1505 0.950 . S
H1480 C1506 0.950 . S
H1481 C1508 0.950 . S
H1482 C1511 0.950 . S
H1483 C1512 0.950 . S
H1484 C1514 0.950 . S
H1485 C1515 0.950 . S
C1486 H1468 0.951 . S
C1486 C1487 1.366 . S
C1486 C1488 1.388 . S
C1487 C1486 1.366 . S
C1487 C1491 1.385 . S
C1488 H1469 0.951 . S
C1488 C1486 1.388 . S
C1488 C1489 1.366 . S
C1489 C1488 1.366 . S
C1489 C1490 1.414 . S
C1489 C1492 1.499 . S
C1490 H1470 0.950 . S
C1490 C1489 1.414 . S
C1490 C1491 1.374 . S
C1491 H1471 0.950 . S
C1491 C1487 1.385 . S
C1491 C1490 1.374 . S
C1492 C1489 1.499 . S
C1492 C1493 1.373 . S
C1492 C1494 1.389 . S
C1493 H1472 0.950 . S
C1493 C1492 1.373 . S
C1493 C1509 1.377 . S
C1494 C1492 1.389 . S
C1494 C1495 1.524 . S
C1494 C1508 1.377 . S
C1495 C1494 1.524 . S
C1495 C1496 1.397 . S
C1495 C1500 1.363 . S
C1496 H1473 0.950 . S
C1496 C1495 1.397 . S
C1496 C1497 1.334 . S
C1497 H1474 0.950 . S
C1497 C1496 1.334 . S
C1497 C1498 1.287 . S
C1498 C1497 1.287 . S
C1498 C1499 1.524 . S
C1498 H1517 0.913 . S
C1499 H1475 0.950 . S
C1499 C1498 1.524 . S
C1499 C1500 1.415 . S
C1500 H1476 0.950 . S
C1500 C1495 1.363 . S
C1500 C1499 1.415 . S
C1501 H1477 0.951 . S
C1501 C1502 1.366 . S
C1501 C1503 1.388 . S
C1502 C1501 1.366 . S
C1502 C1506 1.385 . S
C1503 H1478 0.951 . S
C1503 C1501 1.388 . S
C1503 C1504 1.366 . S
C1504 C1503 1.366 . S
C1504 C1505 1.414 . S
C1504 C1507 1.499 . S
C1505 H1479 0.950 . S
C1505 C1504 1.414 . S
C1505 C1506 1.374 . S
C1506 H1480 0.950 . S
C1506 C1502 1.385 . S
C1506 C1505 1.374 . S
C1507 C1504 1.499 . S
C1507 C1508 1.373 . S
C1507 C1509 1.389 . S
C1508 H1481 0.950 . S
C1508 C1494 1.377 . S
C1508 C1507 1.373 . S
C1509 C1493 1.377 . S
C1509 C1507 1.389 . S
C1509 C1510 1.524 . S
C1510 C1509 1.524 . S
C1510 C1511 1.397 . S
C1510 C1515 1.363 . S
C1511 H1482 0.950 . S
C1511 C1510 1.397 . S
C1511 C1512 1.334 . S
C1512 H1483 0.950 . S
C1512 C1511 1.334 . S
C1512 C1513 1.287 . S
C1513 C1512 1.287 . S
C1513 C1514 1.524 . S
C1513 H1516 0.999 . S
C1514 H1484 0.950 . S
C1514 C1513 1.524 . S
C1514 C1515 1.415 . S
C1515 H1485 0.950 . S
C1515 C1510 1.363 . S
C1515 C1514 1.415 . S
H1516 C1513 0.999 . S
H1517 C1498 0.913 . S
H1518 C1536 0.951 . S
H1519 C1538 0.951 . S
H1520 C1540 0.950 . S
H1521 C1541 0.950 . S
H1522 C1543 0.950 . S
H1523 C1546 0.950 . S
H1524 C1547 0.950 . S
H1525 C1549 0.950 . S
H1526 C1550 0.950 . S
H1527 C1551 0.951 . S
H1528 C1553 0.951 . S
H1529 C1555 0.950 . S
H1530 C1556 0.950 . S
H1531 C1558 0.950 . S
H1532 C1561 0.950 . S
H1533 C1562 0.950 . S
H1534 C1564 0.950 . S
H1535 C1565 0.950 . S
C1536 H1518 0.951 . S
C1536 C1537 1.366 . S
C1536 C1538 1.388 . S
C1537 C1536 1.366 . S
C1537 C1541 1.385 . S
C1538 H1519 0.951 . S
C1538 C1536 1.388 . S
C1538 C1539 1.366 . S
C1539 C1538 1.366 . S
C1539 C1540 1.414 . S
C1539 C1542 1.499 . S
C1540 H1520 0.950 . S
C1540 C1539 1.414 . S
C1540 C1541 1.374 . S
C1541 H1521 0.950 . S
C1541 C1537 1.385 . S
C1541 C1540 1.374 . S
C1542 C1539 1.499 . S
C1542 C1543 1.373 . S
C1542 C1544 1.389 . S
C1543 H1522 0.950 . S
C1543 C1542 1.373 . S
C1543 C1559 1.377 . S
C1544 C1542 1.389 . S
C1544 C1545 1.524 . S
C1544 C1558 1.377 . S
C1545 C1544 1.524 . S
C1545 C1546 1.397 . S
C1545 C1550 1.363 . S
C1546 H1523 0.950 . S
C1546 C1545 1.397 . S
C1546 C1547 1.334 . S
C1547 H1524 0.950 . S
C1547 C1546 1.334 . S
C1547 C1548 1.287 . S
C1548 C1547 1.287 . S
C1548 C1549 1.524 . S
C1548 H1567 0.913 . S
C1549 H1525 0.950 . S
C1549 C1548 1.524 . S
C1549 C1550 1.415 . S
C1550 H1526 0.950 . S
C1550 C1545 1.363 . S
C1550 C1549 1.415 . S
C1551 H1527 0.951 . S
C1551 C1552 1.366 . S
C1551 C1553 1.388 . S
C1552 C1551 1.366 . S
C1552 C1556 1.385 . S
C1553 H1528 0.951 . S
C1553 C1551 1.388 . S
C1553 C1554 1.366 . S
C1554 C1553 1.366 . S
C1554 C1555 1.414 . S
C1554 C1557 1.499 . S
C1555 H1529 0.950 . S
C1555 C1554 1.414 . S
C1555 C1556 1.374 . S
C1556 H1530 0.950 . S
C1556 C1552 1.385 . S
C1556 C1555 1.374 . S
C1557 C1554 1.499 . S
C1557 C1558 1.373 . S
C1557 C1559 1.389 . S
C1558 H1531 0.950 . S
C1558 C1544 1.377 . S
C1558 C1557 1.373 . S
C1559 C1543 1.377 . S
C1559 C1557 1.389 . S
C1559 C1560 1.524 . S
C1560 C1559 1.524 . S
C1560 C1561 1.397 . S
C1560 C1565 1.363 . S
C1561 H1532 0.950 . S
C1561 C1560 1.397 . S
C1561 C1562 1.334 . S
C1562 H1533 0.950 . S
C1562 C1561 1.334 . S
C1562 C1563 1.287 . S
C1563 C1562 1.287 . S
C1563 C1564 1.524 . S
C1563 H1566 0.999 . S
C1564 H1534 0.950 . S
C1564 C1563 1.524 . S
C1564 C1565 1.415 . S
C1565 H1535 0.950 . S
C1565 C1560 1.363 . S
C1565 C1564 1.415 . S
H1566 C1563 0.999 . S
H1567 C1548 0.913 . S
C387 C241 1.577 1_565 S
C402 C296 1.643 . S
C452 C326 2.383 . S
C437 C277 2.264 . S
C502 C336 1.721 . S
C487 C169 1.626 . S
C552 C356 1.595 . S
C537 C205 1.520 . S
C602 C297 1.643 . S
C587 C97 1.574 . S
C637 C133 2.336 1_556 S
C652 C327 2.387 . S
C687 C25 1.669 . S
C702 C337 1.721 . S
C737 C61 1.471 . S
C752 C357 1.595 . S
C802 C289 0.493 . S
C787 C211 0.522 . S
C852 C310 0.410 . S
C837 C247 0.521 . S
C902 C329 0.843 . S
C887 C253 0.825 . S
C937 C175 0.444 . S
C952 C349 0.314 . S
C987 C67 0.582 . S
C1002 C290 0.500 . S
C1052 C309 0.411 . S
C1037 C103 0.524 1_565 S
C1102 C330 0.843 . S
C1087 C109 0.837 . S
C1137 C31 0.379 . S
C1152 C350 0.312 . S
C1187 C181 2.259 . S
C1202 C307 2.379 . S
C1237 C217 1.590 . S
C1252 C317 1.719 . S
C1302 C347 2.554 . S
C1287 C283 2.294 . S
C1352 C367 2.419 . S
C1337 C145 2.262 . S
C1387 C37 2.222 . S
C1402 C306 2.389 . S
C1452 C316 1.719 . S
C1437 C73 1.590 1_565 S
C1502 C346 2.554 . S
C1487 C139 2.356 . S
C1537 C1 2.302 . S
C1552 C366 2.419 . S
