# Generated by pormake.
# Topology anh, (6,3)-cn, num edge types: 1
# Building blocks:
#     Node 0, Type 0, BuildingBlock: BETDEL_clean_sbu_0, # of connection points: 6
#     Node 1, Type 0, BuildingBlock: BETDEL_clean_sbu_0, # of connection points: 6
#     Node 2, Type 0, BuildingBlock: BETDEL_clean_sbu_0, # of connection points: 6
#     Node 3, Type 1, BuildingBlock: QEWDON_clean_linker_0, # of connection points: 3
#     Node 4, Type 1, BuildingBlock: QEWDON_clean_linker_0, # of connection points: 3
#     Node 5, Type 1, BuildingBlock: QEWDON_clean_linker_0, # of connection points: 3
#     Node 6, Type 1, BuildingBlock: QEWDON_clean_linker_0, # of connection points: 3
#     Node 7, Type 1, BuildingBlock: QEWDON_clean_linker_0, # of connection points: 3
#     Node 8, Type 1, BuildingBlock: QEWDON_clean_linker_0, # of connection points: 3
#     Edge 9, Type (0, 1), BuildingBlock: AJUNOK_clean_linker_0, # of connection points: 2
#     Edge 10, Type (0, 1), BuildingBlock: AJUNOK_clean_linker_0, # of connection points: 2
#     Edge 11, Type (0, 1), BuildingBlock: AJUNOK_clean_linker_0, # of connection points: 2
#     Edge 12, Type (0, 1), BuildingBlock: AJUNOK_clean_linker_0, # of connection points: 2
#     Edge 13, Type (0, 1), BuildingBlock: AJUNOK_clean_linker_0, # of connection points: 2
#     Edge 14, Type (0, 1), BuildingBlock: AJUNOK_clean_linker_0, # of connection points: 2
#     Edge 15, Type (0, 1), BuildingBlock: AJUNOK_clean_linker_0, # of connection points: 2
#     Edge 16, Type (0, 1), BuildingBlock: AJUNOK_clean_linker_0, # of connection points: 2
#     Edge 17, Type (0, 1), BuildingBlock: AJUNOK_clean_linker_0, # of connection points: 2
#     Edge 18, Type (0, 1), BuildingBlock: AJUNOK_clean_linker_0, # of connection points: 2
#     Edge 19, Type (0, 1), BuildingBlock: AJUNOK_clean_linker_0, # of connection points: 2
#     Edge 20, Type (0, 1), BuildingBlock: AJUNOK_clean_linker_0, # of connection points: 2
#     Edge 21, Type (0, 1), BuildingBlock: AJUNOK_clean_linker_0, # of connection points: 2
#     Edge 22, Type (0, 1), BuildingBlock: AJUNOK_clean_linker_0, # of connection points: 2
#     Edge 23, Type (0, 1), BuildingBlock: AJUNOK_clean_linker_0, # of connection points: 2
#     Edge 24, Type (0, 1), BuildingBlock: AJUNOK_clean_linker_0, # of connection points: 2
#     Edge 25, Type (0, 1), BuildingBlock: AJUNOK_clean_linker_0, # of connection points: 2
#     Edge 26, Type (0, 1), BuildingBlock: AJUNOK_clean_linker_0, # of connection points: 2
# Relax obj value: 0.106
# Max RMSD: 0.136
# Mean RMSD: 0.121
data_MOF--net-anh--node1-BETDEL_clean_sbu_0--node2-QEWDON_clean_linker_0--edge1-AJUNOK_clean_linker_0
_symmetry_space_group_name_H-M    P1
_symmetry_Int_Tables_number       1
_symmetry_cell_setting            triclinic
loop_
_symmetry_equiv_pos_as_xyz
'x, y, z'
_cell_length_a     23.374568
_cell_length_b     23.323678
_cell_length_c     34.14243
_cell_angle_alpha  92.892216
_cell_angle_beta   94.032921
_cell_angle_gamma 120.59733
loop_
_atom_site_label
_atom_site_type_symbol
_atom_site_fract_x
_atom_site_fract_y
_atom_site_fract_z
_atom_type_partial_charge
Dy0 Dy 0.08576 0.48577 0.15922 0.0
C1 C 0.93436 0.60951 0.16541 0.0
C2 C 0.17905 0.45209 0.14494 0.0
Dy3 Dy 1.01721 0.56036 0.15804 0.0
O4 O 0.15218 0.44634 0.17762 0.0
O5 O 0.15021 0.47113 0.11925 0.0
O6 O 0.04968 0.44721 0.21702 0.0
O7 O 0.07092 0.54353 0.20545 0.0
C8 C 0.04644 0.49918 0.22896 0.0
C9 C 0.05622 0.54638 0.08771 0.0
O10 O 0.11738 0.64464 0.18598 0.0
O11 O 0.17208 0.59407 0.16263 0.0
O12 O 0.92126 0.55081 0.17374 0.0
O13 O 0.99275 0.64139 0.153 0.0
O14 O 0.0562 0.59892 0.10138 0.0
O15 O 1.03008 0.50119 0.11064 0.0
O16 O 0.98291 0.39584 0.14362 0.0
O17 O 0.93189 0.4542 0.16178 0.0
C18 C 0.17373 0.64852 0.17772 0.0
C19 C 0.92886 0.39668 0.15226 0.0
Dy20 Dy 0.48335 1.03238 0.49018 0.0
C21 C 0.77414 0.18358 0.53008 0.0
C22 C 0.35968 0.94888 0.45137 0.0
Dy23 Dy 0.63998 0.1102 0.50695 0.0
O24 O 0.37248 0.99198 0.48126 0.0
O25 O 0.4147 0.95358 0.4424 0.0
O26 O 0.45732 1.02588 0.55264 0.0
O27 O 0.55658 0.07285 0.54134 0.0
C28 C 0.51909 0.05792 0.56853 0.0
C29 C 0.58891 0.09539 0.43097 0.0
O30 O 0.61806 1.00535 0.51459 0.0
O31 O 0.50252 0.94771 0.49696 0.0
O32 O 0.74546 0.13935 0.49954 0.0
O33 O 0.72814 0.18282 0.54978 0.0
O34 O 0.64656 0.14528 0.44601 0.0
O35 O 0.56585 0.05433 0.45627 0.0
O36 O 0.51001 0.13855 0.48171 0.0
O37 O 0.61602 0.19151 0.51655 0.0
C38 C 0.55909 0.94855 0.50702 0.0
C39 C 0.56402 0.19342 0.49973 0.0
Dy40 Dy 0.66819 0.65239 0.81753 0.0
C41 C 0.55273 0.38123 0.85835 0.0
C42 C 0.72277 0.76781 0.78173 0.0
Dy43 Dy 0.58948 0.50466 0.83514 0.0
O44 O 0.75356 0.75361 0.80919 0.0
O45 O 0.66213 0.71709 0.77289 0.0
O46 O 0.68791 0.70416 0.8788 0.0
O47 O 0.63598 0.60038 0.86935 0.0
C48 C 0.65811 0.64896 0.89539 0.0
C49 C 0.58235 0.52598 0.75893 0.0
O50 O 0.5156 0.53479 0.85001 0.0
O51 O 0.55939 0.62583 0.81299 0.0
O52 O 0.52029 0.39336 0.8308 0.0
O53 O 0.60207 0.43777 0.87515 0.0
O54 O 0.53408 0.47804 0.77478 0.0
O55 O 0.63372 0.55681 0.78369 0.0
O56 O 0.75291 0.63138 0.82004 0.0
O57 O 0.69379 0.52149 0.83575 0.0
C58 C 0.51025 0.58173 0.83235 0.0
C59 C 0.75043 0.57535 0.82898 0.0
H60 H 0.58098 0.08867 0.24194 0.0
C61 C 0.54067 0.03771 0.23376 0.0
C62 C 0.50495 0.99988 0.2637 0.0
C63 C 0.52384 1.01145 0.1938 0.0
H64 H 0.41934 0.90708 0.276 0.0
C65 C 0.44771 0.93611 0.25317 0.0
C66 C 0.42744 0.90849 0.21356 0.0
C67 C 0.46703 0.94566 0.1843 0.0
C68 C 0.56405 0.05368 0.16232 0.0
H69 H 0.45231 0.92307 0.15414 0.0
C70 C 0.63154 0.10849 0.17083 0.0
C71 C 0.66711 0.14774 0.14081 0.0
C72 C 0.53412 0.04055 0.12304 0.0
H73 H 0.48247 1.00204 0.11475 0.0
C74 C 0.56962 0.07809 0.09343 0.0
H75 H 0.65727 0.12062 0.20033 0.0
C76 C 0.63535 0.13088 0.10211 0.0
H77 H 0.66102 0.15991 0.07855 0.0
H78 H 0.54549 0.06679 0.0635 0.0
H79 H 0.55835 0.59669 0.5773 0.0
C80 C 0.56436 0.5572 0.56406 0.0
C81 C 0.57532 0.51713 0.58909 0.0
C82 C 0.55708 0.54377 0.52266 0.0
H83 H 0.5853 0.43101 0.59307 0.0
C84 C 0.57882 0.4627 0.57324 0.0
C85 C 0.57153 0.447 0.53239 0.0
C86 C 0.56153 0.4882 0.50717 0.0
C87 C 0.53954 0.58415 0.49621 0.0
H88 H 0.55762 0.47665 0.47568 0.0
C89 C 0.55544 0.6508 0.50822 0.0
C90 C 0.53248 0.68454 0.48416 0.0
C91 C 0.50208 0.55402 0.45917 0.0
H92 H 0.48626 0.50297 0.44892 0.0
C93 C 0.48173 0.58813 0.43494 0.0
H94 H 0.58416 0.67614 0.53633 0.0
C95 C 0.49634 0.65239 0.4473 0.0
H96 H 0.47868 0.67699 0.42801 0.0
H97 H 0.45298 0.5639 0.40663 0.0
H98 H 0.13594 0.53458 0.90654 0.0
C99 C 0.09711 0.54283 0.89418 0.0
C100 C 0.05118 0.54228 0.91894 0.0
C101 C 0.09153 0.5514 0.85373 0.0
H102 H 0.96325 0.54954 0.92242 0.0
C103 C 0.99859 0.55 0.90328 0.0
C104 C 0.99122 0.55903 0.86342 0.0
C105 C 1.03806 0.56029 0.83884 0.0
C106 C 0.13888 0.54746 0.82688 0.0
H107 H 1.03256 0.56864 0.80829 0.0
C108 C 0.20549 0.56401 0.8405 0.0
C109 C 0.24733 0.55841 0.8141 0.0
C110 C 0.11605 0.52418 0.7867 0.0
H111 H 0.0654 0.508 0.7749 0.0
C112 C 0.15732 0.51934 0.76088 0.0
H113 H 0.22539 0.58214 0.87105 0.0
C114 C 0.22217 0.53644 0.7743 0.0
H115 H 0.25273 0.53148 0.7535 0.0
H116 H 0.13853 0.50142 0.73015 0.0
H117 H 0.97781 0.50376 0.41745 0.0
C118 C 1.0164 0.55627 0.42015 0.0
C119 C 1.03917 0.58772 0.3859 0.0
C120 C 1.04226 0.59322 0.45762 0.0
H121 H 0.10588 0.68018 0.36283 0.0
C122 C 0.08808 0.65577 0.38926 0.0
C123 C 0.11735 0.69197 0.42608 0.0
C124 C 0.09343 0.66088 0.46027 0.0
C125 C 1.01462 0.56178 0.49379 0.0
H126 H 0.11606 0.68868 0.48898 0.0
C127 C 0.99743 0.49547 0.49807 0.0
C128 C 0.95975 0.46102 0.52838 0.0
C129 C 1.00066 0.59636 0.52286 0.0
H130 H 1.01318 0.64749 0.52039 0.0
C131 C 0.96769 0.56428 0.55462 0.0
H132 H 1.01209 0.47046 0.477 0.0
C133 C 0.9461 0.49685 0.557 0.0
H134 H 0.9164 0.47237 0.58048 0.0
H135 H 0.9562 0.59096 0.57655 0.0
H136 H 0.6314 0.05195 0.7408 0.0
C137 C 0.62592 0.08891 0.75778 0.0
C138 C 0.59744 0.12097 0.73779 0.0
C139 C 0.64388 0.10214 0.79906 0.0
H140 H 0.56353 0.19081 0.74367 0.0
C141 C 0.58509 0.16561 0.75919 0.0
C142 C 0.60028 0.17797 0.80034 0.0
C143 C 0.63053 0.14709 0.81981 0.0
C144 C 0.67475 0.06818 0.82057 0.0
H145 H 0.64281 0.1581 0.85134 0.0
C146 C 0.70671 0.04001 0.80034 0.0
C147 C 0.73079 1.00367 0.81971 0.0
C148 C 0.67064 0.06131 0.86138 0.0
H149 H 0.64419 0.07862 0.87842 0.0
C150 C 0.69879 1.0292 0.88117 0.0
H151 H 0.71165 0.04392 0.7692 0.0
C152 C 0.72822 1.00002 0.8605 0.0
H153 H 0.74519 0.97102 0.87599 0.0
H154 H 0.69501 1.02426 0.91239 0.0
H155 H 0.57312 0.66211 0.07279 0.0
C156 C 0.61702 0.66421 0.08731 0.0
C157 C 0.66212 0.65905 0.0646 0.0
C158 C 0.62757 0.66999 0.12875 0.0
H159 H 0.75252 0.65573 0.06573 0.0
C160 C 0.71817 0.66078 0.08335 0.0
C161 C 0.72907 0.66668 0.12457 0.0
C162 C 0.6841 0.67193 0.14722 0.0
C163 C 0.57653 0.66722 0.15282 0.0
H164 H 0.69167 0.67471 0.17913 0.0
C165 C 0.50986 0.61524 0.14389 0.0
C166 C 0.4612 0.60922 0.16777 0.0
C167 C 0.59449 0.7134 0.18604 0.0
H168 H 0.64585 0.75371 0.19349 0.0
C169 C 0.54607 0.70775 0.20987 0.0
H170 H 0.49616 0.57834 0.11893 0.0
C171 C 0.47972 0.65584 0.2009 0.0
H172 H 0.44269 0.65263 0.21949 0.0
H173 H 0.55998 0.74361 0.23534 0.0
C174 C 0.28524 0.47397 0.18051 0.0
C175 C 0.24946 0.47079 0.14476 0.0
C176 C 0.35472 0.51615 0.18701 0.0
C177 C 0.39064 0.5555 0.15774 0.0
H178 H 0.25902 0.44874 0.20497 0.0
H179 H 0.38005 0.52083 0.21586 0.0
S180 S 0.32193 0.55499 0.05638 0.0
N181 N 0.2561 0.50228 0.07762 0.0
N182 N 0.38691 0.58168 0.0899 0.0
C183 C 0.35646 0.54689 0.12037 0.0
C184 C 0.28567 0.50407 0.11377 0.0
C185 C 0.87121 0.28808 0.56437 0.0
C186 C 0.83832 0.24635 0.52925 0.0
C187 C 0.91618 0.35681 0.56368 0.0
C188 C 0.92761 0.38674 0.5279 0.0
H189 H 0.85853 0.2684 0.5926 0.0
H190 H 0.93852 0.38732 0.59163 0.0
S191 S 0.85798 0.29624 0.42733 0.0
N192 N 0.8268 0.23727 0.45755 0.0
N193 N 0.90556 0.3666 0.45603 0.0
C194 C 0.89881 0.34407 0.49238 0.0
C195 C 0.8555 0.27377 0.49316 0.0
C196 C 0.69263 0.8488 0.75867 0.0
C197 C 0.74166 0.83718 0.77599 0.0
C198 C 0.69429 0.90847 0.76902 0.0
C199 C 0.74517 0.95794 0.79681 0.0
H200 H 0.64853 0.80877 0.74099 0.0
H201 H 0.65139 0.91217 0.75892 0.0
S202 S 0.89667 0.96073 0.83934 0.0
N203 N 0.85141 0.88677 0.81353 0.0
N204 N 0.85387 0.99885 0.83332 0.0
C205 C 0.8 0.95147 0.80886 0.0
C206 C 0.79859 0.89097 0.79812 0.0
C207 C 0.89954 0.68799 0.14363 0.0
C208 C 0.88571 0.63153 0.16325 0.0
C209 C 0.84927 0.70196 0.13348 0.0
C210 C 0.78405 0.66038 0.14312 0.0
H211 H 0.94831 0.71923 0.13387 0.0
H212 H 0.86053 0.74353 0.11625 0.0
S213 S 0.72471 0.51161 0.19894 0.0
N214 N 0.80432 0.53791 0.19562 0.0
N215 N 0.70953 0.56426 0.17639 0.0
C216 C 0.77092 0.60692 0.16546 0.0
C217 C 0.822 0.59245 0.17561 0.0
C218 C 0.23912 0.87568 0.45943 0.0
C219 C 0.29366 0.88973 0.4384 0.0
C220 C 0.18116 0.81203 0.45449 0.0
C221 C 0.1762 0.76059 0.42848 0.0
H222 H 0.24253 0.91283 0.48136 0.0
H223 H 0.14075 0.80249 0.4719 0.0
S224 S 0.30392 0.77417 0.36441 0.0
N225 N 0.33705 0.84943 0.38808 0.0
N226 N 0.23021 0.72899 0.38042 0.0
C227 C 0.22941 0.77524 0.40594 0.0
C228 C 0.28757 0.84019 0.4104 0.0
C229 C 0.50775 0.26516 0.82893 0.0
C230 C 0.55572 0.31959 0.85529 0.0
C231 C 0.52129 0.21744 0.81303 0.0
C232 C 0.58344 0.22269 0.82274 0.0
H233 H 0.46157 0.26226 0.81807 0.0
H234 H 0.48402 0.17797 0.79146 0.0
S235 S 0.72096 0.34933 0.89626 0.0
N236 N 0.66317 0.3701 0.89551 0.0
N237 N 0.69008 0.28222 0.86436 0.0
C238 C 0.62922 0.27326 0.85206 0.0
C239 C 0.61481 0.32115 0.86879 0.0
C240 C 0.49194 0.82239 0.49988 0.0
C241 C 0.55503 0.88192 0.50716 0.0
C242 C 0.48555 0.75915 0.49479 0.0
C243 C 0.54176 0.75165 0.49689 0.0
H244 H 0.44654 0.82434 0.49677 0.0
H245 H 0.43584 0.71555 0.48787 0.0
S246 S 0.71837 0.88967 0.51821 0.0
N247 N 0.67529 0.928 0.5186 0.0
N248 N 0.6627 0.80887 0.50897 0.0
C249 C 0.60504 0.80997 0.50612 0.0
C250 C 0.61179 0.87494 0.51121 0.0
C251 C 0.875 0.62909 0.84901 0.0
C252 C 0.81356 0.57264 0.8328 0.0
C253 C 0.93311 0.62528 0.85717 0.0
C254 C 0.9329 0.56542 0.84841 0.0
H255 H 0.87754 0.67587 0.85719 0.0
H256 H 0.97816 0.66905 0.8715 0.0
S257 S 0.78745 0.40507 0.80215 0.0
N258 N 0.75785 0.45583 0.8062 0.0
N259 N 0.86694 0.4496 0.82052 0.0
C260 C 0.87278 0.50958 0.8306 0.0
C261 C 0.81332 0.51296 0.82303 0.0
C262 C 0.24336 0.76818 0.2093 0.0
C263 C 0.23937 0.71406 0.18622 0.0
C264 C 0.30391 0.8301 0.21783 0.0
C265 C 0.36358 0.84168 0.20328 0.0
H266 H 0.19931 0.7627 0.22124 0.0
H267 H 0.30383 0.86968 0.2358 0.0
S268 S 0.38176 0.71711 0.14191 0.0
N269 N 0.30202 0.67679 0.14931 0.0
N270 N 0.41486 0.79286 0.16511 0.0
C271 C 0.36052 0.78827 0.18009 0.0
C272 C 0.29894 0.72477 0.17172 0.0
C273 C 0.62277 0.31591 0.52464 0.0
C274 C 0.56674 0.2595 0.50318 0.0
C275 C 0.62532 0.37713 0.53182 0.0
C276 C 0.5724 0.38569 0.51762 0.0
H277 H 0.66469 0.31257 0.53721 0.0
H278 H 0.66851 0.41776 0.5498 0.0
S279 S 0.41586 0.25655 0.45764 0.0
N280 N 0.45804 0.2183 0.46596 0.0
N281 N 0.46334 0.33345 0.47954 0.0
C282 C 0.51734 0.33109 0.49464 0.0
C283 C 0.51437 0.26818 0.48746 0.0
C284 C 0.39096 0.53292 0.84976 0.0
C285 C 0.44591 0.58255 0.83238 0.0
C286 C 0.32808 0.52853 0.84669 0.0
C287 C 0.31718 0.57366 0.82623 0.0
H288 H 0.3956 0.4954 0.86472 0.0
H289 H 0.28673 0.48728 0.8586 0.0
S290 S 0.44446 0.71661 0.77844 0.0
N291 N 0.48499 0.68111 0.79638 0.0
N292 N 0.36752 0.67194 0.79043 0.0
C293 C 0.37216 0.62522 0.81036 0.0
C294 C 0.43614 0.62996 0.81351 0.0
C295 C 0.85028 0.27378 0.12922 0.0
C296 C 0.86348 0.33203 0.1522 0.0
C297 C 0.78787 0.21363 0.12714 0.0
C298 C 0.7363 0.20831 0.14871 0.0
H299 H 0.88767 0.27515 0.11163 0.0
H300 H 0.77931 0.17114 0.10774 0.0
S301 S 0.74602 0.34423 0.21538 0.0
N302 N 0.81976 0.37904 0.19842 0.0
N303 N 0.70371 0.2661 0.19485 0.0
C304 C 0.74964 0.26523 0.17295 0.0
C305 C 0.8127 0.32689 0.17457 0.0
C306 C 1.00568 0.48573 0.02058 0.0
C307 C 0.06131 0.5356 0.04551 0.0
C308 C 1.00399 0.48608 0.97935 0.0
C309 C 0.05834 0.53556 0.96181 0.0
H310 H 0.96154 0.44913 0.03299 0.0
H311 H 0.95886 0.44905 0.96107 0.0
S312 S 0.21817 0.67261 0.01465 0.0
N313 N 0.17346 0.63258 0.05012 0.0
N314 N 0.17115 0.63231 0.97274 0.0
C315 C 0.11589 0.58278 0.98654 0.0
C316 C 0.11708 0.58307 0.0284 0.0
C317 C 0.50156 0.04414 0.3726 0.0
C318 C 0.56915 0.07594 0.38803 0.0
C319 C 0.4812 1.02037 0.33243 0.0
C320 C 0.52773 1.02721 0.30615 0.0
H321 H 0.46419 0.03813 0.39163 0.0
H322 H 0.42858 0.99667 0.32189 0.0
S323 S 0.71091 0.10502 0.33262 0.0
N324 N 0.68267 0.11292 0.37431 0.0
N325 N 0.64479 0.0668 0.2993 0.0
C326 C 0.59573 0.05935 0.32142 0.0
C327 C 0.61635 0.08416 0.36218 0.0
C328 C 0.52243 0.48449 0.69128 0.0
C329 C 0.58083 0.53077 0.7159 0.0
C330 C 0.52047 0.48239 0.65018 0.0
C331 C 0.57648 0.52707 0.6322 0.0
H332 H 0.47833 0.44804 0.70377 0.0
H333 H 0.47538 0.44437 0.63226 0.0
S334 S 0.73986 0.66095 0.68281 0.0
N335 N 0.69513 0.62462 0.71908 0.0
N336 N 0.69076 0.62096 0.64142 0.0
C337 C 0.63427 0.57546 0.65618 0.0
C338 C 0.63659 0.57731 0.69819 0.0
C339 C 0.60561 0.09821 0.62742 0.0
C340 C 0.53953 0.0751 0.61149 0.0
C341 C 0.62418 0.11262 0.66842 0.0
C342 C 0.57748 0.10537 0.69461 0.0
H343 H 0.64289 0.10439 0.60819 0.0
H344 H 0.67547 0.13009 0.6797 0.0
S345 S 0.39832 0.04623 0.66785 0.0
N346 N 0.42736 0.04543 0.62527 0.0
N347 N 0.46257 0.07281 0.70186 0.0
C348 C 0.51152 0.08259 0.67899 0.0
C349 C 0.49247 0.06738 0.63752 0.0
C350 C 0.65584 0.70146 0.95986 0.0
C351 C 0.65061 0.64603 0.9378 0.0
C352 C 0.65561 0.70371 0.0009 0.0
C353 C 0.65129 0.65107 0.02116 0.0
H354 H 0.66154 0.74409 0.94539 0.0
H355 H 0.66186 0.7481 0.01705 0.0
S356 S 0.63386 0.49372 0.97715 0.0
N357 N 0.63804 0.53626 0.93912 0.0
N358 N 0.63874 0.54089 0.01649 0.0
C359 C 0.64392 0.59451 -0.00056 0.0
C360 C 0.64319 0.59183 0.95761 0.0
C361 C 1.03613 0.47834 0.30007 0.0
C362 C 1.02948 0.51113 0.26813 0.0
C363 C 1.03169 0.49828 0.33872 0.0
C364 C 1.01901 0.55045 0.34621 0.0
H365 H 0.04967 0.44064 0.2956 0.0
H366 H 1.0437 0.47666 0.36301 0.0
S367 S 0.98345 0.64164 0.27182 0.0
N368 N 1.00132 0.59203 0.24613 0.0
N369 N 0.98802 0.6257 0.3181 0.0
C370 C 1.00436 0.57764 0.31398 0.0
C371 C 1.01122 0.55919 0.27506 0.0
loop_
_geom_bond_atom_site_label_1
_geom_bond_atom_site_label_2
_geom_bond_distance
_geom_bond_site_symmetry_2
_ccdc_geom_bond_type
Dy0 O4 2.398 . S
Dy0 O5 2.491 . S
Dy0 O6 2.403 . S
Dy0 O7 2.664 . S
Dy0 O11 2.326 . S
Dy0 O15 2.310 . S
Dy0 O16 2.351 1_455 S
C1 O12 1.185 . S
C1 O13 1.355 . S
C2 O4 1.185 . S
C2 O5 1.355 . S
Dy3 O7 2.310 1_655 S
Dy3 O10 2.351 1_655 S
Dy3 O12 2.398 . S
Dy3 O13 2.491 . S
Dy3 O14 2.403 . S
Dy3 O15 2.664 1_655 S
Dy3 O17 2.326 . S
O4 Dy0 2.398 . S
O4 C2 1.185 . S
O5 Dy0 2.491 . S
O5 C2 1.355 . S
O6 Dy0 2.403 . S
O6 C8 1.254 . S
O7 Dy0 2.664 . S
O7 Dy3 2.310 1_455 S
O7 C8 1.268 . S
C8 O6 1.254 . S
C8 O7 1.268 . S
C9 O14 1.254 1_455 S
C9 O15 1.268 . S
O10 Dy3 2.351 1_455 S
O10 C18 1.249 . S
O11 Dy0 2.326 . S
O11 C18 1.267 . S
O12 C1 1.185 . S
O12 Dy3 2.398 . S
O13 C1 1.355 . S
O13 Dy3 2.491 . S
O14 Dy3 2.403 . S
O14 C9 1.254 1_655 S
O15 Dy0 2.310 . S
O15 Dy3 2.664 1_455 S
O15 C9 1.268 . S
O16 Dy0 2.351 1_655 S
O16 C19 1.249 . S
O17 Dy3 2.326 . S
O17 C19 1.267 . S
C18 O10 1.249 . S
C18 O11 1.267 . S
C19 O16 1.249 . S
C19 O17 1.267 . S
Dy20 O24 2.398 . S
Dy20 O25 2.491 . S
Dy20 O26 2.403 1_565 S
Dy20 O27 2.664 1_565 S
Dy20 O31 2.326 . S
Dy20 O35 2.310 1_565 S
Dy20 O36 2.351 1_565 S
C21 O32 1.185 . S
C21 O33 1.355 . S
C22 O24 1.185 . S
C22 O25 1.355 . S
Dy23 O27 2.310 . S
Dy23 O30 2.351 1_545 S
Dy23 O32 2.398 . S
Dy23 O33 2.491 . S
Dy23 O34 2.403 . S
Dy23 O35 2.664 . S
Dy23 O37 2.326 . S
O24 Dy20 2.398 . S
O24 C22 1.185 . S
O25 Dy20 2.491 . S
O25 C22 1.355 . S
O26 Dy20 2.403 1_545 S
O26 C28 1.254 . S
O27 Dy20 2.664 1_545 S
O27 Dy23 2.310 . S
O27 C28 1.268 . S
C28 O26 1.254 . S
C28 O27 1.268 . S
C29 O34 1.254 . S
C29 O35 1.268 . S
O30 Dy23 2.351 1_565 S
O30 C38 1.249 . S
O31 Dy20 2.326 . S
O31 C38 1.267 . S
O32 C21 1.185 . S
O32 Dy23 2.398 . S
O33 C21 1.355 . S
O33 Dy23 2.491 . S
O34 Dy23 2.403 . S
O34 C29 1.254 . S
O35 Dy20 2.310 1_545 S
O35 Dy23 2.664 . S
O35 C29 1.268 . S
O36 Dy20 2.351 1_545 S
O36 C39 1.249 . S
O37 Dy23 2.326 . S
O37 C39 1.267 . S
C38 O30 1.249 . S
C38 O31 1.267 . S
C39 O36 1.249 . S
C39 O37 1.267 . S
Dy40 O44 2.398 . S
Dy40 O45 2.491 . S
Dy40 O46 2.403 . S
Dy40 O47 2.664 . S
Dy40 O51 2.326 . S
Dy40 O55 2.310 . S
Dy40 O56 2.351 . S
C41 O52 1.185 . S
C41 O53 1.355 . S
C42 O44 1.185 . S
C42 O45 1.355 . S
Dy43 O47 2.310 . S
Dy43 O50 2.351 . S
Dy43 O52 2.398 . S
Dy43 O53 2.491 . S
Dy43 O54 2.403 . S
Dy43 O55 2.664 . S
Dy43 O57 2.326 . S
O44 Dy40 2.398 . S
O44 C42 1.185 . S
O45 Dy40 2.491 . S
O45 C42 1.355 . S
O46 Dy40 2.403 . S
O46 C48 1.254 . S
O47 Dy40 2.664 . S
O47 Dy43 2.310 . S
O47 C48 1.268 . S
C48 O46 1.254 . S
C48 O47 1.268 . S
C49 O54 1.254 . S
C49 O55 1.268 . S
O50 Dy43 2.351 . S
O50 C58 1.249 . S
O51 Dy40 2.326 . S
O51 C58 1.267 . S
O52 C41 1.185 . S
O52 Dy43 2.398 . S
O53 C41 1.355 . S
O53 Dy43 2.491 . S
O54 Dy43 2.403 . S
O54 C49 1.254 . S
O55 Dy40 2.310 . S
O55 Dy43 2.664 . S
O55 C49 1.268 . S
O56 Dy40 2.351 . S
O56 C59 1.249 . S
O57 Dy43 2.326 . S
O57 C59 1.267 . S
C58 O50 1.249 . S
C58 O51 1.267 . S
C59 O56 1.249 . S
C59 O57 1.267 . S
H60 C61 0.949 . S
C61 H60 0.949 . S
C61 C62 1.403 . S
C61 C63 1.391 . S
C62 C61 1.403 . S
C62 C65 1.382 1_545 S
C63 C61 1.391 . S
C63 C67 1.387 1_545 S
C63 C68 1.491 . S
H64 C65 0.950 . S
C65 C62 1.382 1_565 S
C65 H64 0.950 . S
C65 C66 1.378 . S
C66 C65 1.378 . S
C66 C67 1.409 . S
C67 C63 1.387 1_565 S
C67 C66 1.409 . S
C67 H69 0.951 . S
C68 C63 1.491 . S
C68 C70 1.382 . S
C68 C72 1.404 . S
H69 C67 0.951 . S
C70 C68 1.382 . S
C70 C71 1.390 . S
C70 H75 0.949 . S
C71 C70 1.390 . S
C71 C76 1.399 . S
C72 C68 1.404 . S
C72 H73 0.950 . S
C72 C74 1.375 . S
H73 C72 0.950 . S
C74 C72 1.375 . S
C74 C76 1.382 . S
C74 H78 0.950 . S
H75 C70 0.949 . S
C76 C71 1.399 . S
C76 C74 1.382 . S
C76 H77 0.952 . S
H77 C76 0.952 . S
H78 C74 0.950 . S
H79 C80 0.949 . S
C80 H79 0.949 . S
C80 C81 1.395 . S
C80 C82 1.391 . S
C81 C80 1.395 . S
C81 C84 1.390 . S
C82 C80 1.391 . S
C82 C86 1.387 . S
C82 C87 1.491 . S
H83 C84 0.950 . S
C84 C81 1.390 . S
C84 H83 0.950 . S
C84 C85 1.378 . S
C85 C84 1.378 . S
C85 C86 1.409 . S
C86 C82 1.387 . S
C86 C85 1.409 . S
C86 H88 0.951 . S
C87 C82 1.491 . S
C87 C89 1.382 . S
C87 C91 1.404 . S
H88 C86 0.951 . S
C89 C87 1.382 . S
C89 C90 1.390 . S
C89 H94 0.949 . S
C90 C89 1.390 . S
C90 C95 1.399 . S
C91 C87 1.404 . S
C91 H92 0.950 . S
C91 C93 1.375 . S
H92 C91 0.950 . S
C93 C91 1.375 . S
C93 C95 1.382 . S
C93 H97 0.950 . S
H94 C89 0.949 . S
C95 C90 1.399 . S
C95 C93 1.382 . S
C95 H96 0.952 . S
H96 C95 0.952 . S
H97 C93 0.950 . S
H98 C99 0.949 . S
C99 H98 0.949 . S
C99 C100 1.395 . S
C99 C101 1.391 . S
C100 C99 1.395 . S
C100 C103 1.390 1_455 S
C101 C99 1.391 . S
C101 C105 1.387 . S
C101 C106 1.491 . S
H102 C103 0.950 . S
C103 C100 1.390 1_655 S
C103 H102 0.950 . S
C103 C104 1.378 . S
C104 C103 1.378 . S
C104 C105 1.409 1_655 S
C105 C101 1.387 . S
C105 C104 1.409 1_455 S
C105 H107 0.951 . S
C106 C101 1.491 . S
C106 C108 1.382 . S
C106 C110 1.404 . S
H107 C105 0.951 . S
C108 C106 1.382 . S
C108 C109 1.390 . S
C108 H113 0.949 . S
C109 C108 1.390 . S
C109 C114 1.399 . S
C110 C106 1.404 . S
C110 H111 0.950 . S
C110 C112 1.375 . S
H111 C110 0.950 . S
C112 C110 1.375 . S
C112 C114 1.382 . S
C112 H116 0.950 . S
H113 C108 0.949 . S
C114 C109 1.399 . S
C114 C112 1.382 . S
C114 H115 0.952 . S
H115 C114 0.952 . S
H116 C112 0.950 . S
H117 C118 0.949 . S
C118 H117 0.949 . S
C118 C119 1.395 1_655 S
C118 C120 1.391 1_655 S
C119 C118 1.395 1_455 S
C119 C122 1.390 . S
C120 C118 1.391 1_455 S
C120 C124 1.387 . S
C120 C125 1.491 1_455 S
H121 C122 0.950 . S
C122 C119 1.390 . S
C122 H121 0.950 . S
C122 C123 1.378 . S
C123 C122 1.378 . S
C123 C124 1.409 . S
C124 C120 1.387 . S
C124 C123 1.409 . S
C124 H126 0.951 . S
C125 C120 1.491 1_655 S
C125 C127 1.382 . S
C125 C129 1.404 . S
H126 C124 0.951 . S
C127 C125 1.382 . S
C127 C128 1.390 . S
C127 H132 0.949 . S
C128 C127 1.390 . S
C128 C133 1.399 . S
C129 C125 1.404 . S
C129 H130 0.950 . S
C129 C131 1.375 . S
H130 C129 0.950 . S
C131 C129 1.375 . S
C131 C133 1.382 . S
C131 H135 0.950 . S
H132 C127 0.949 . S
C133 C128 1.399 . S
C133 C131 1.382 . S
C133 H134 0.952 . S
H134 C133 0.952 . S
H135 C131 0.950 . S
H136 C137 0.949 1_565 S
C137 H136 0.949 1_545 S
C137 C138 1.395 . S
C137 C139 1.391 . S
C138 C137 1.395 . S
C138 C141 1.390 . S
C139 C137 1.391 . S
C139 C143 1.387 . S
C139 C144 1.491 1_545 S
H140 C141 0.950 . S
C141 C138 1.390 . S
C141 H140 0.950 . S
C141 C142 1.378 . S
C142 C141 1.378 . S
C142 C143 1.409 . S
C143 C139 1.387 . S
C143 C142 1.409 . S
C143 H145 0.951 . S
C144 C139 1.491 1_565 S
C144 C146 1.382 . S
C144 C148 1.404 . S
H145 C143 0.951 . S
C146 C144 1.382 . S
C146 C147 1.390 . S
C146 H151 0.949 . S
C147 C146 1.390 . S
C147 C152 1.399 . S
C148 C144 1.404 . S
C148 H149 0.950 1_565 S
C148 C150 1.375 . S
H149 C148 0.950 1_545 S
C150 C148 1.375 . S
C150 C152 1.382 . S
C150 H154 0.950 . S
H151 C146 0.949 . S
C152 C147 1.399 . S
C152 C150 1.382 . S
C152 H153 0.952 . S
H153 C152 0.952 . S
H154 C150 0.950 . S
H155 C156 0.949 . S
C156 H155 0.949 . S
C156 C157 1.395 . S
C156 C158 1.391 . S
C157 C156 1.395 . S
C157 C160 1.390 . S
C158 C156 1.391 . S
C158 C162 1.387 . S
C158 C163 1.491 . S
H159 C160 0.950 . S
C160 C157 1.390 . S
C160 H159 0.950 . S
C160 C161 1.378 . S
C161 C160 1.378 . S
C161 C162 1.409 . S
C162 C158 1.387 . S
C162 C161 1.409 . S
C162 H164 0.951 . S
C163 C158 1.491 . S
C163 C165 1.382 . S
C163 C167 1.404 . S
H164 C162 0.951 . S
C165 C163 1.382 . S
C165 C166 1.390 . S
C165 H170 0.949 . S
C166 C165 1.390 . S
C166 C171 1.399 . S
C167 C163 1.404 . S
C167 H168 0.950 . S
C167 C169 1.375 . S
H168 C167 0.950 . S
C169 C167 1.375 . S
C169 C171 1.382 . S
C169 H173 0.950 . S
H170 C165 0.949 . S
C171 C166 1.399 . S
C171 C169 1.382 . S
C171 H172 0.952 . S
H172 C171 0.952 . S
H173 C169 0.950 . S
C174 C175 1.369 . S
C174 C176 1.419 . S
C174 H178 0.930 . S
C175 C174 1.369 . S
C175 C184 1.429 . S
C176 C174 1.419 . S
C176 C177 1.363 . S
C176 H179 0.929 . S
C177 C176 1.363 . S
C177 C183 1.428 . S
H178 C174 0.930 . S
H179 C176 0.929 . S
S180 N181 1.613 . S
S180 N182 1.610 . S
N181 S180 1.613 . S
N181 C184 1.350 . S
N182 S180 1.610 . S
N182 C183 1.351 . S
C183 C177 1.428 . S
C183 N182 1.351 . S
C183 C184 1.434 . S
C184 C175 1.429 . S
C184 N181 1.350 . S
C184 C183 1.434 . S
C185 C186 1.369 . S
C185 C187 1.419 . S
C185 H189 0.930 . S
C186 C185 1.369 . S
C186 C195 1.429 . S
C187 C185 1.419 . S
C187 C188 1.363 . S
C187 H190 0.929 . S
C188 C187 1.363 . S
C188 C194 1.428 . S
H189 C185 0.930 . S
H190 C187 0.929 . S
S191 N192 1.613 . S
S191 N193 1.610 . S
N192 S191 1.613 . S
N192 C195 1.350 . S
N193 S191 1.610 . S
N193 C194 1.351 . S
C194 C188 1.428 . S
C194 N193 1.351 . S
C194 C195 1.434 . S
C195 C186 1.429 . S
C195 N192 1.350 . S
C195 C194 1.434 . S
C196 C197 1.369 . S
C196 C198 1.419 . S
C196 H200 0.930 . S
C197 C196 1.369 . S
C197 C206 1.429 . S
C198 C196 1.419 . S
C198 C199 1.363 . S
C198 H201 0.929 . S
C199 C198 1.363 . S
C199 C205 1.428 . S
H200 C196 0.930 . S
H201 C198 0.929 . S
S202 N203 1.613 . S
S202 N204 1.610 . S
N203 S202 1.613 . S
N203 C206 1.350 . S
N204 S202 1.610 . S
N204 C205 1.351 . S
C205 C199 1.428 . S
C205 N204 1.351 . S
C205 C206 1.434 . S
C206 C197 1.429 . S
C206 N203 1.350 . S
C206 C205 1.434 . S
C207 C208 1.369 . S
C207 C209 1.419 . S
C207 H211 0.930 . S
C208 C207 1.369 . S
C208 C217 1.429 . S
C209 C207 1.419 . S
C209 C210 1.363 . S
C209 H212 0.929 . S
C210 C209 1.363 . S
C210 C216 1.428 . S
H211 C207 0.930 . S
H212 C209 0.929 . S
S213 N214 1.613 . S
S213 N215 1.610 . S
N214 S213 1.613 . S
N214 C217 1.350 . S
N215 S213 1.610 . S
N215 C216 1.351 . S
C216 C210 1.428 . S
C216 N215 1.351 . S
C216 C217 1.434 . S
C217 C208 1.429 . S
C217 N214 1.350 . S
C217 C216 1.434 . S
C218 C219 1.369 . S
C218 C220 1.419 . S
C218 H222 0.930 . S
C219 C218 1.369 . S
C219 C228 1.429 . S
C220 C218 1.419 . S
C220 C221 1.363 . S
C220 H223 0.929 . S
C221 C220 1.363 . S
C221 C227 1.428 . S
H222 C218 0.930 . S
H223 C220 0.929 . S
S224 N225 1.613 . S
S224 N226 1.610 . S
N225 S224 1.613 . S
N225 C228 1.350 . S
N226 S224 1.610 . S
N226 C227 1.351 . S
C227 C221 1.428 . S
C227 N226 1.351 . S
C227 C228 1.434 . S
C228 C219 1.429 . S
C228 N225 1.350 . S
C228 C227 1.434 . S
C229 C230 1.369 . S
C229 C231 1.419 . S
C229 H233 0.930 . S
C230 C229 1.369 . S
C230 C239 1.429 . S
C231 C229 1.419 . S
C231 C232 1.363 . S
C231 H234 0.929 . S
C232 C231 1.363 . S
C232 C238 1.428 . S
H233 C229 0.930 . S
H234 C231 0.929 . S
S235 N236 1.613 . S
S235 N237 1.610 . S
N236 S235 1.613 . S
N236 C239 1.350 . S
N237 S235 1.610 . S
N237 C238 1.351 . S
C238 C232 1.428 . S
C238 N237 1.351 . S
C238 C239 1.434 . S
C239 C230 1.429 . S
C239 N236 1.350 . S
C239 C238 1.434 . S
C240 C241 1.369 . S
C240 C242 1.419 . S
C240 H244 0.930 . S
C241 C240 1.369 . S
C241 C250 1.429 . S
C242 C240 1.419 . S
C242 C243 1.363 . S
C242 H245 0.929 . S
C243 C242 1.363 . S
C243 C249 1.428 . S
H244 C240 0.930 . S
H245 C242 0.929 . S
S246 N247 1.613 . S
S246 N248 1.610 . S
N247 S246 1.613 . S
N247 C250 1.350 . S
N248 S246 1.610 . S
N248 C249 1.351 . S
C249 C243 1.428 . S
C249 N248 1.351 . S
C249 C250 1.434 . S
C250 C241 1.429 . S
C250 N247 1.350 . S
C250 C249 1.434 . S
C251 C252 1.369 . S
C251 C253 1.419 . S
C251 H255 0.930 . S
C252 C251 1.369 . S
C252 C261 1.429 . S
C253 C251 1.419 . S
C253 C254 1.363 . S
C253 H256 0.929 . S
C254 C253 1.363 . S
C254 C260 1.428 . S
H255 C251 0.930 . S
H256 C253 0.929 . S
S257 N258 1.613 . S
S257 N259 1.610 . S
N258 S257 1.613 . S
N258 C261 1.350 . S
N259 S257 1.610 . S
N259 C260 1.351 . S
C260 C254 1.428 . S
C260 N259 1.351 . S
C260 C261 1.434 . S
C261 C252 1.429 . S
C261 N258 1.350 . S
C261 C260 1.434 . S
C262 C263 1.369 . S
C262 C264 1.419 . S
C262 H266 0.930 . S
C263 C262 1.369 . S
C263 C272 1.429 . S
C264 C262 1.419 . S
C264 C265 1.363 . S
C264 H267 0.929 . S
C265 C264 1.363 . S
C265 C271 1.428 . S
H266 C262 0.930 . S
H267 C264 0.929 . S
S268 N269 1.613 . S
S268 N270 1.610 . S
N269 S268 1.613 . S
N269 C272 1.350 . S
N270 S268 1.610 . S
N270 C271 1.351 . S
C271 C265 1.428 . S
C271 N270 1.351 . S
C271 C272 1.434 . S
C272 C263 1.429 . S
C272 N269 1.350 . S
C272 C271 1.434 . S
C273 C274 1.369 . S
C273 C275 1.419 . S
C273 H277 0.930 . S
C274 C273 1.369 . S
C274 C283 1.429 . S
C275 C273 1.419 . S
C275 C276 1.363 . S
C275 H278 0.929 . S
C276 C275 1.363 . S
C276 C282 1.428 . S
H277 C273 0.930 . S
H278 C275 0.929 . S
S279 N280 1.613 . S
S279 N281 1.610 . S
N280 S279 1.613 . S
N280 C283 1.350 . S
N281 S279 1.610 . S
N281 C282 1.351 . S
C282 C276 1.428 . S
C282 N281 1.351 . S
C282 C283 1.434 . S
C283 C274 1.429 . S
C283 N280 1.350 . S
C283 C282 1.434 . S
C284 C285 1.369 . S
C284 C286 1.419 . S
C284 H288 0.930 . S
C285 C284 1.369 . S
C285 C294 1.429 . S
C286 C284 1.419 . S
C286 C287 1.363 . S
C286 H289 0.929 . S
C287 C286 1.363 . S
C287 C293 1.428 . S
H288 C284 0.930 . S
H289 C286 0.929 . S
S290 N291 1.613 . S
S290 N292 1.610 . S
N291 S290 1.613 . S
N291 C294 1.350 . S
N292 S290 1.610 . S
N292 C293 1.351 . S
C293 C287 1.428 . S
C293 N292 1.351 . S
C293 C294 1.434 . S
C294 C285 1.429 . S
C294 N291 1.350 . S
C294 C293 1.434 . S
C295 C296 1.369 . S
C295 C297 1.419 . S
C295 H299 0.930 . S
C296 C295 1.369 . S
C296 C305 1.429 . S
C297 C295 1.419 . S
C297 C298 1.363 . S
C297 H300 0.929 . S
C298 C297 1.363 . S
C298 C304 1.428 . S
H299 C295 0.930 . S
H300 C297 0.929 . S
S301 N302 1.613 . S
S301 N303 1.610 . S
N302 S301 1.613 . S
N302 C305 1.350 . S
N303 S301 1.610 . S
N303 C304 1.351 . S
C304 C298 1.428 . S
C304 N303 1.351 . S
C304 C305 1.434 . S
C305 C296 1.429 . S
C305 N302 1.350 . S
C305 C304 1.434 . S
C306 C307 1.369 1_655 S
C306 C308 1.419 1_554 S
C306 H310 0.930 . S
C307 C306 1.369 1_455 S
C307 C316 1.429 . S
C308 C306 1.419 1_556 S
C308 C309 1.363 1_655 S
C308 H311 0.929 . S
C309 C308 1.363 1_455 S
C309 C315 1.428 . S
H310 C306 0.930 . S
H311 C308 0.929 . S
S312 N313 1.613 . S
S312 N314 1.610 1_554 S
N313 S312 1.613 . S
N313 C316 1.350 . S
N314 S312 1.610 1_556 S
N314 C315 1.351 . S
C315 C309 1.428 . S
C315 N314 1.351 . S
C315 C316 1.434 1_556 S
C316 C307 1.429 . S
C316 N313 1.350 . S
C316 C315 1.434 1_554 S
C317 C318 1.369 1_565 S
C317 C319 1.419 . S
C317 H321 0.930 . S
C318 C317 1.369 1_545 S
C318 C327 1.429 . S
C319 C317 1.419 . S
C319 C320 1.363 1_565 S
C319 H322 0.929 . S
C320 C319 1.363 1_545 S
C320 C326 1.428 . S
H321 C317 0.930 . S
H322 C319 0.929 . S
S323 N324 1.613 . S
S323 N325 1.610 . S
N324 S323 1.613 . S
N324 C327 1.350 . S
N325 S323 1.610 . S
N325 C326 1.351 . S
C326 C320 1.428 . S
C326 N325 1.351 . S
C326 C327 1.434 . S
C327 C318 1.429 . S
C327 N324 1.350 . S
C327 C326 1.434 . S
C328 C329 1.369 . S
C328 C330 1.419 . S
C328 H332 0.930 . S
C329 C328 1.369 . S
C329 C338 1.429 . S
C330 C328 1.419 . S
C330 C331 1.363 . S
C330 H333 0.929 . S
C331 C330 1.363 . S
C331 C337 1.428 . S
H332 C328 0.930 . S
H333 C330 0.929 . S
S334 N335 1.613 . S
S334 N336 1.610 . S
N335 S334 1.613 . S
N335 C338 1.350 . S
N336 S334 1.610 . S
N336 C337 1.351 . S
C337 C331 1.428 . S
C337 N336 1.351 . S
C337 C338 1.434 . S
C338 C329 1.429 . S
C338 N335 1.350 . S
C338 C337 1.434 . S
C339 C340 1.369 . S
C339 C341 1.419 . S
C339 H343 0.941 . S
C340 C339 1.369 . S
C340 C349 1.429 . S
C341 C339 1.419 . S
C341 C342 1.363 . S
C341 H344 0.929 . S
C342 C341 1.363 . S
C342 C348 1.428 . S
H343 C339 0.941 . S
H344 C341 0.929 . S
S345 N346 1.613 . S
S345 N347 1.610 . S
N346 S345 1.613 . S
N346 C349 1.350 . S
N347 S345 1.610 . S
N347 C348 1.351 . S
C348 C342 1.428 . S
C348 N347 1.351 . S
C348 C349 1.434 . S
C349 C340 1.429 . S
C349 N346 1.350 . S
C349 C348 1.434 . S
C350 C351 1.369 . S
C350 C352 1.419 1_556 S
C350 H354 0.930 . S
C351 C350 1.369 . S
C351 C360 1.429 . S
C352 C350 1.419 1_554 S
C352 C353 1.363 . S
C352 H355 0.929 . S
C353 C352 1.363 . S
C353 C359 1.428 . S
H354 C350 0.930 . S
H355 C352 0.929 . S
S356 N357 1.613 . S
S356 N358 1.610 1_556 S
N357 S356 1.613 . S
N357 C360 1.350 . S
N358 S356 1.610 1_554 S
N358 C359 1.351 . S
C359 C353 1.428 . S
C359 N358 1.351 . S
C359 C360 1.434 1_554 S
C360 C351 1.429 . S
C360 N357 1.350 . S
C360 C359 1.434 1_556 S
C361 C362 1.369 . S
C361 C363 1.419 . S
C361 H365 0.930 . S
C362 C361 1.369 . S
C362 C371 1.429 1_455 S
C363 C361 1.419 . S
C363 C364 1.363 . S
C363 H366 0.929 . S
C364 C363 1.363 . S
C364 C370 1.428 1_455 S
H365 C361 0.930 . S
H366 C363 0.929 . S
S367 N368 1.613 . S
S367 N369 1.610 . S
N368 S367 1.613 . S
N368 C371 1.350 . S
N369 S367 1.610 . S
N369 C370 1.351 . S
C370 C364 1.428 1_655 S
C370 N369 1.351 . S
C370 C371 1.434 . S
C371 C362 1.429 1_655 S
C371 N368 1.350 . S
C371 C370 1.434 . S
C175 C2 1.215 . S
C177 C166 1.174 . S
C186 C21 1.128 . S
C188 C128 1.102 . S
C197 C42 1.188 . S
C199 C147 1.158 . S
C208 C1 0.982 . S
C210 C161 0.967 . S
C221 C123 1.008 . S
C219 C22 1.028 . S
C232 C142 0.950 . S
C230 C41 0.959 . S
C241 C38 2.008 . S
C243 C90 1.948 . S
C252 C59 1.902 . S
C254 C104 1.873 . S
C263 C18 1.855 . S
C265 C66 1.819 . S
C276 C85 1.871 . S
C274 C39 1.900 . S
C287 C109 1.940 . S
C285 C58 2.001 . S
C296 C19 2.067 . S
C298 C71 2.000 . S
C309 C100 1.594 . S
C307 C9 1.579 . S
C318 C29 1.541 . S
C320 C62 1.657 . S
C329 C49 1.583 . S
C331 C81 1.618 . S
C342 C138 1.551 . S
C340 C28 1.557 . S
C353 C157 1.519 . S
C351 C48 1.497 . S
C362 C8 1.438 . S
C364 C119 1.488 . S
