# Generated by pormake.
# Topology bwt, (3,3)-cn, num edge types: 1
# Building blocks:
#     Node 0, Type 0, BuildingBlock: OLANEW_clean_sbu_2, # of connection points: 3
#     Node 1, Type 0, BuildingBlock: OLANEW_clean_sbu_2, # of connection points: 3
#     Node 2, Type 0, BuildingBlock: OLANEW_clean_sbu_2, # of connection points: 3
#     Node 3, Type 0, BuildingBlock: OLANEW_clean_sbu_2, # of connection points: 3
#     Node 4, Type 0, BuildingBlock: OLANEW_clean_sbu_2, # of connection points: 3
#     Node 5, Type 0, BuildingBlock: OLANEW_clean_sbu_2, # of connection points: 3
#     Node 6, Type 0, BuildingBlock: OLANEW_clean_sbu_2, # of connection points: 3
#     Node 7, Type 0, BuildingBlock: OLANEW_clean_sbu_2, # of connection points: 3
#     Node 8, Type 0, BuildingBlock: OLANEW_clean_sbu_2, # of connection points: 3
#     Node 9, Type 0, BuildingBlock: OLANEW_clean_sbu_2, # of connection points: 3
#     Node 10, Type 0, BuildingBlock: OLANEW_clean_sbu_2, # of connection points: 3
#     Node 11, Type 0, BuildingBlock: OLANEW_clean_sbu_2, # of connection points: 3
#     Node 12, Type 0, BuildingBlock: OLANEW_clean_sbu_2, # of connection points: 3
#     Node 13, Type 0, BuildingBlock: OLANEW_clean_sbu_2, # of connection points: 3
#     Node 14, Type 0, BuildingBlock: OLANEW_clean_sbu_2, # of connection points: 3
#     Node 15, Type 0, BuildingBlock: OLANEW_clean_sbu_2, # of connection points: 3
#     Node 16, Type 0, BuildingBlock: OLANEW_clean_sbu_2, # of connection points: 3
#     Node 17, Type 0, BuildingBlock: OLANEW_clean_sbu_2, # of connection points: 3
#     Node 18, Type 0, BuildingBlock: OLANEW_clean_sbu_2, # of connection points: 3
#     Node 19, Type 0, BuildingBlock: OLANEW_clean_sbu_2, # of connection points: 3
#     Node 20, Type 0, BuildingBlock: OLANEW_clean_sbu_2, # of connection points: 3
#     Node 21, Type 0, BuildingBlock: OLANEW_clean_sbu_2, # of connection points: 3
#     Node 22, Type 0, BuildingBlock: OLANEW_clean_sbu_2, # of connection points: 3
#     Node 23, Type 0, BuildingBlock: OLANEW_clean_sbu_2, # of connection points: 3
#     Node 24, Type 1, BuildingBlock: QEWDON_clean_linker_0, # of connection points: 3
#     Node 25, Type 1, BuildingBlock: QEWDON_clean_linker_0, # of connection points: 3
#     Node 26, Type 1, BuildingBlock: QEWDON_clean_linker_0, # of connection points: 3
#     Node 27, Type 1, BuildingBlock: QEWDON_clean_linker_0, # of connection points: 3
#     Node 28, Type 1, BuildingBlock: QEWDON_clean_linker_0, # of connection points: 3
#     Node 29, Type 1, BuildingBlock: QEWDON_clean_linker_0, # of connection points: 3
#     Node 30, Type 1, BuildingBlock: QEWDON_clean_linker_0, # of connection points: 3
#     Node 31, Type 1, BuildingBlock: QEWDON_clean_linker_0, # of connection points: 3
#     Node 32, Type 1, BuildingBlock: QEWDON_clean_linker_0, # of connection points: 3
#     Node 33, Type 1, BuildingBlock: QEWDON_clean_linker_0, # of connection points: 3
#     Node 34, Type 1, BuildingBlock: QEWDON_clean_linker_0, # of connection points: 3
#     Node 35, Type 1, BuildingBlock: QEWDON_clean_linker_0, # of connection points: 3
#     Node 36, Type 1, BuildingBlock: QEWDON_clean_linker_0, # of connection points: 3
#     Node 37, Type 1, BuildingBlock: QEWDON_clean_linker_0, # of connection points: 3
#     Node 38, Type 1, BuildingBlock: QEWDON_clean_linker_0, # of connection points: 3
#     Node 39, Type 1, BuildingBlock: QEWDON_clean_linker_0, # of connection points: 3
#     Node 40, Type 1, BuildingBlock: QEWDON_clean_linker_0, # of connection points: 3
#     Node 41, Type 1, BuildingBlock: QEWDON_clean_linker_0, # of connection points: 3
#     Node 42, Type 1, BuildingBlock: QEWDON_clean_linker_0, # of connection points: 3
#     Node 43, Type 1, BuildingBlock: QEWDON_clean_linker_0, # of connection points: 3
#     Node 44, Type 1, BuildingBlock: QEWDON_clean_linker_0, # of connection points: 3
#     Node 45, Type 1, BuildingBlock: QEWDON_clean_linker_0, # of connection points: 3
#     Node 46, Type 1, BuildingBlock: QEWDON_clean_linker_0, # of connection points: 3
#     Node 47, Type 1, BuildingBlock: QEWDON_clean_linker_0, # of connection points: 3
#     Edge 48, Type (0, 1), BuildingBlock: KIFKEQ_clean_linker_1, # of connection points: 2
#     Edge 49, Type (0, 1), BuildingBlock: KIFKEQ_clean_linker_1, # of connection points: 2
#     Edge 50, Type (0, 1), BuildingBlock: KIFKEQ_clean_linker_1, # of connection points: 2
#     Edge 51, Type (0, 1), BuildingBlock: KIFKEQ_clean_linker_1, # of connection points: 2
#     Edge 52, Type (0, 1), BuildingBlock: KIFKEQ_clean_linker_1, # of connection points: 2
#     Edge 53, Type (0, 1), BuildingBlock: KIFKEQ_clean_linker_1, # of connection points: 2
#     Edge 54, Type (0, 1), BuildingBlock: KIFKEQ_clean_linker_1, # of connection points: 2
#     Edge 55, Type (0, 1), BuildingBlock: KIFKEQ_clean_linker_1, # of connection points: 2
#     Edge 56, Type (0, 1), BuildingBlock: KIFKEQ_clean_linker_1, # of connection points: 2
#     Edge 57, Type (0, 1), BuildingBlock: KIFKEQ_clean_linker_1, # of connection points: 2
#     Edge 58, Type (0, 1), BuildingBlock: KIFKEQ_clean_linker_1, # of connection points: 2
#     Edge 59, Type (0, 1), BuildingBlock: KIFKEQ_clean_linker_1, # of connection points: 2
#     Edge 60, Type (0, 1), BuildingBlock: KIFKEQ_clean_linker_1, # of connection points: 2
#     Edge 61, Type (0, 1), BuildingBlock: KIFKEQ_clean_linker_1, # of connection points: 2
#     Edge 62, Type (0, 1), BuildingBlock: KIFKEQ_clean_linker_1, # of connection points: 2
#     Edge 63, Type (0, 1), BuildingBlock: KIFKEQ_clean_linker_1, # of connection points: 2
#     Edge 64, Type (0, 1), BuildingBlock: KIFKEQ_clean_linker_1, # of connection points: 2
#     Edge 65, Type (0, 1), BuildingBlock: KIFKEQ_clean_linker_1, # of connection points: 2
#     Edge 66, Type (0, 1), BuildingBlock: KIFKEQ_clean_linker_1, # of connection points: 2
#     Edge 67, Type (0, 1), BuildingBlock: KIFKEQ_clean_linker_1, # of connection points: 2
#     Edge 68, Type (0, 1), BuildingBlock: KIFKEQ_clean_linker_1, # of connection points: 2
#     Edge 69, Type (0, 1), BuildingBlock: KIFKEQ_clean_linker_1, # of connection points: 2
#     Edge 70, Type (0, 1), BuildingBlock: KIFKEQ_clean_linker_1, # of connection points: 2
#     Edge 71, Type (0, 1), BuildingBlock: KIFKEQ_clean_linker_1, # of connection points: 2
#     Edge 72, Type (0, 1), BuildingBlock: KIFKEQ_clean_linker_1, # of connection points: 2
#     Edge 73, Type (0, 1), BuildingBlock: KIFKEQ_clean_linker_1, # of connection points: 2
#     Edge 74, Type (0, 1), BuildingBlock: KIFKEQ_clean_linker_1, # of connection points: 2
#     Edge 75, Type (0, 1), BuildingBlock: KIFKEQ_clean_linker_1, # of connection points: 2
#     Edge 76, Type (0, 1), BuildingBlock: KIFKEQ_clean_linker_1, # of connection points: 2
#     Edge 77, Type (0, 1), BuildingBlock: KIFKEQ_clean_linker_1, # of connection points: 2
#     Edge 78, Type (0, 1), BuildingBlock: KIFKEQ_clean_linker_1, # of connection points: 2
#     Edge 79, Type (0, 1), BuildingBlock: KIFKEQ_clean_linker_1, # of connection points: 2
#     Edge 80, Type (0, 1), BuildingBlock: KIFKEQ_clean_linker_1, # of connection points: 2
#     Edge 81, Type (0, 1), BuildingBlock: KIFKEQ_clean_linker_1, # of connection points: 2
#     Edge 82, Type (0, 1), BuildingBlock: KIFKEQ_clean_linker_1, # of connection points: 2
#     Edge 83, Type (0, 1), BuildingBlock: KIFKEQ_clean_linker_1, # of connection points: 2
#     Edge 84, Type (0, 1), BuildingBlock: KIFKEQ_clean_linker_1, # of connection points: 2
#     Edge 85, Type (0, 1), BuildingBlock: KIFKEQ_clean_linker_1, # of connection points: 2
#     Edge 86, Type (0, 1), BuildingBlock: KIFKEQ_clean_linker_1, # of connection points: 2
#     Edge 87, Type (0, 1), BuildingBlock: KIFKEQ_clean_linker_1, # of connection points: 2
#     Edge 88, Type (0, 1), BuildingBlock: KIFKEQ_clean_linker_1, # of connection points: 2
#     Edge 89, Type (0, 1), BuildingBlock: KIFKEQ_clean_linker_1, # of connection points: 2
#     Edge 90, Type (0, 1), BuildingBlock: KIFKEQ_clean_linker_1, # of connection points: 2
#     Edge 91, Type (0, 1), BuildingBlock: KIFKEQ_clean_linker_1, # of connection points: 2
#     Edge 92, Type (0, 1), BuildingBlock: KIFKEQ_clean_linker_1, # of connection points: 2
#     Edge 93, Type (0, 1), BuildingBlock: KIFKEQ_clean_linker_1, # of connection points: 2
#     Edge 94, Type (0, 1), BuildingBlock: KIFKEQ_clean_linker_1, # of connection points: 2
#     Edge 95, Type (0, 1), BuildingBlock: KIFKEQ_clean_linker_1, # of connection points: 2
#     Edge 96, Type (0, 1), BuildingBlock: KIFKEQ_clean_linker_1, # of connection points: 2
#     Edge 97, Type (0, 1), BuildingBlock: KIFKEQ_clean_linker_1, # of connection points: 2
#     Edge 98, Type (0, 1), BuildingBlock: KIFKEQ_clean_linker_1, # of connection points: 2
#     Edge 99, Type (0, 1), BuildingBlock: KIFKEQ_clean_linker_1, # of connection points: 2
#     Edge 100, Type (0, 1), BuildingBlock: KIFKEQ_clean_linker_1, # of connection points: 2
#     Edge 101, Type (0, 1), BuildingBlock: KIFKEQ_clean_linker_1, # of connection points: 2
#     Edge 102, Type (0, 1), BuildingBlock: KIFKEQ_clean_linker_1, # of connection points: 2
#     Edge 103, Type (0, 1), BuildingBlock: KIFKEQ_clean_linker_1, # of connection points: 2
#     Edge 104, Type (0, 1), BuildingBlock: KIFKEQ_clean_linker_1, # of connection points: 2
#     Edge 105, Type (0, 1), BuildingBlock: KIFKEQ_clean_linker_1, # of connection points: 2
#     Edge 106, Type (0, 1), BuildingBlock: KIFKEQ_clean_linker_1, # of connection points: 2
#     Edge 107, Type (0, 1), BuildingBlock: KIFKEQ_clean_linker_1, # of connection points: 2
#     Edge 108, Type (0, 1), BuildingBlock: KIFKEQ_clean_linker_1, # of connection points: 2
#     Edge 109, Type (0, 1), BuildingBlock: KIFKEQ_clean_linker_1, # of connection points: 2
#     Edge 110, Type (0, 1), BuildingBlock: KIFKEQ_clean_linker_1, # of connection points: 2
#     Edge 111, Type (0, 1), BuildingBlock: KIFKEQ_clean_linker_1, # of connection points: 2
#     Edge 112, Type (0, 1), BuildingBlock: KIFKEQ_clean_linker_1, # of connection points: 2
#     Edge 113, Type (0, 1), BuildingBlock: KIFKEQ_clean_linker_1, # of connection points: 2
#     Edge 114, Type (0, 1), BuildingBlock: KIFKEQ_clean_linker_1, # of connection points: 2
#     Edge 115, Type (0, 1), BuildingBlock: KIFKEQ_clean_linker_1, # of connection points: 2
#     Edge 116, Type (0, 1), BuildingBlock: KIFKEQ_clean_linker_1, # of connection points: 2
#     Edge 117, Type (0, 1), BuildingBlock: KIFKEQ_clean_linker_1, # of connection points: 2
#     Edge 118, Type (0, 1), BuildingBlock: KIFKEQ_clean_linker_1, # of connection points: 2
#     Edge 119, Type (0, 1), BuildingBlock: KIFKEQ_clean_linker_1, # of connection points: 2
# Relax obj value: 0.031
# Max RMSD: 0.063
# Mean RMSD: 0.042
data_MOF--net-bwt--node1-OLANEW_clean_sbu_2--node2-QEWDON_clean_linker_0--edge1-KIFKEQ_clean_linker_1
_symmetry_space_group_name_H-M    P1
_symmetry_Int_Tables_number       1
_symmetry_cell_setting            triclinic
loop_
_symmetry_equiv_pos_as_xyz
'x, y, z'
_cell_length_a     64.549408
_cell_length_b     64.627209
_cell_length_c     64.452694
_cell_angle_alpha  90.97936
_cell_angle_beta   90.998096
_cell_angle_gamma 91.029792
loop_
_atom_site_label
_atom_site_type_symbol
_atom_site_fract_x
_atom_site_fract_y
_atom_site_fract_z
_atom_type_partial_charge
O0 O 0.17352 0.476 0.32536 0.0
Cd1 Cd 0.17735 0.49693 0.29445 0.0
O2 O 0.20535 0.4647 0.32891 0.0
Cd3 Cd 0.21773 0.47976 0.30157 0.0
O4 O 0.24224 0.49092 0.28137 0.0
C5 C 0.2584 0.48001 0.28041 0.0
O6 O 0.259 0.46272 0.29084 0.0
C7 C 0.18683 0.46554 0.33521 0.0
C8 C 0.13782 0.5115 0.28554 0.0
O9 O 0.1446 0.49525 0.27642 0.0
O10 O 0.15009 0.52139 0.29819 0.0
O11 O 0.31001 0.51486 0.81278 0.0
Cd12 Cd 0.30023 0.4932 0.78255 0.0
O13 O 0.27831 0.5222 0.82203 0.0
Cd14 Cd 0.26345 0.50452 0.79652 0.0
O15 O 0.23989 0.48916 0.77666 0.0
C16 C 0.22173 0.49633 0.77762 0.0
O17 O 0.21855 0.51236 0.7899 0.0
C18 C 0.29778 0.52392 0.82506 0.0
C19 C 0.3359 0.48672 0.75975 0.0
O20 O 0.32368 0.50154 0.7555 0.0
O21 O 0.33089 0.47453 0.77439 0.0
O22 O 0.67301 0.03585 0.6409 0.0
Cd23 Cd 0.6805 0.02769 0.67717 0.0
O24 O 0.67582 0.00309 0.63172 0.0
Cd25 Cd 0.69013 -0.00557 0.66116 0.0
O26 O 0.71277 0.98875 0.68589 0.0
C27 C 0.72726 0.00209 0.68893 0.0
O28 O 0.72753 0.01882 0.67763 0.0
C29 C 0.67129 0.02156 0.62712 0.0
C30 C 0.64319 0.01647 0.69542 0.0
O31 O 0.65062 0.03494 0.69733 0.0
O32 O 0.6537 0.00311 0.68538 0.0
O33 O 0.79059 0.93047 0.18229 0.0
Cd34 Cd 0.79667 0.93725 0.21932 0.0
O35 O 0.78417 0.96301 0.17566 0.0
Cd36 Cd 0.78227 0.97186 0.20836 0.0
O37 O 0.76353 0.97945 0.23519 0.0
C38 C 0.74743 0.96813 0.23728 0.0
O39 O 0.74414 0.95253 0.22421 0.0
C40 C 0.78672 0.94452 0.16929 0.0
C41 C 0.83922 0.94116 0.22681 0.0
O42 O 0.83003 0.92341 0.22617 0.0
O43 O 0.82821 0.95727 0.22434 0.0
O44 O 0.3354 0.18625 0.49706 0.0
Cd45 Cd 0.3015 0.18546 0.51338 0.0
O46 O 0.32679 0.20852 0.4731 0.0
Cd47 Cd 0.29615 0.21396 0.4856 0.0
O48 O 0.27136 0.2338 0.49624 0.0
C49 C 0.26702 0.24886 0.48461 0.0
O50 O 0.27677 0.25067 0.46699 0.0
C51 C 0.34009 0.1967 0.48122 0.0
C52 C 0.28374 0.14607 0.50829 0.0
O53 O 0.27958 0.1605 0.49555 0.0
O54 O 0.296 0.1504 0.52367 0.0
O55 O 0.17718 0.82092 0.97136 0.0
Cd56 Cd 0.21125 0.81913 0.98832 0.0
O57 O 0.17533 0.78841 0.96072 0.0
Cd58 Cd 0.20524 0.78017 0.97429 0.0
O59 O 0.23108 0.76149 0.98497 0.0
C60 C 0.23379 0.74462 0.97505 0.0
O61 O 0.22146 0.73995 0.95915 0.0
C62 C 0.16742 0.80626 0.96185 0.0
C63 C 0.22985 0.85828 0.98651 0.0
O64 O 0.23339 0.8443 0.97274 0.0
O65 O 0.21801 0.85352 0.00152 0.0
O66 O 0.80876 0.30691 0.47967 0.0
Cd67 Cd 0.77583 0.30725 0.46032 0.0
O68 O 0.80008 0.28077 0.49935 0.0
Cd69 Cd 0.77044 0.2742 0.48358 0.0
O70 O 0.74714 0.25239 0.47084 0.0
C71 C 0.74383 0.23642 0.48162 0.0
O72 O 0.75368 0.23486 0.49953 0.0
C73 C 0.81312 0.29469 0.49431 0.0
C74 C 0.75799 0.346 0.46474 0.0
O75 O 0.75322 0.33115 0.4768 0.0
O76 O 0.77094 0.34241 0.45032 0.0
O77 O 0.64229 0.66624 0.02798 0.0
Cd78 Cd 0.67843 0.67299 0.01901 0.0
O79 O 0.63272 0.66649 -0.00494 0.0
Cd80 Cd 0.66203 0.68013 0.98514 0.0
O81 O 0.68577 0.70367 0.97907 0.0
C82 C 0.68659 0.71929 -0.00867 0.0
O83 O 0.6738 0.71996 0.00695 0.0
C84 C 0.62835 0.66346 0.01397 0.0
C85 C 0.69705 0.63507 0.01144 0.0
O86 O 0.69887 0.64422 0.0292 0.0
O87 O 0.68687 0.64409 -0.00293 0.0
O88 O 0.49833 0.32315 0.18132 0.0
Cd89 Cd 0.51671 0.29041 0.18167 0.0
O90 O 0.49059 0.32408 0.21443 0.0
Cd91 Cd 0.50532 0.29509 0.22261 0.0
O92 O 0.51608 0.27297 0.24552 0.0
C93 C 0.50463 0.27107 0.26124 0.0
O94 O 0.48739 0.28156 0.26194 0.0
C95 C 0.48993 0.33217 0.1966 0.0
C96 C 0.52035 0.2768 0.14062 0.0
O97 O 0.50546 0.27034 0.15186 0.0
O98 O 0.53388 0.28923 0.14899 0.0
O99 O 0.96663 0.17837 0.81309 0.0
Cd100 Cd 0.98539 0.21154 0.81412 0.0
O101 O 0.95726 0.1779 0.78007 0.0
Cd102 Cd 0.97259 0.20696 0.77182 0.0
O103 O 0.9835 0.22833 0.74825 0.0
C104 C 0.97273 0.22817 0.73155 0.0
O105 O 0.9561 0.21614 0.73024 0.0
C106 C 0.95726 0.16952 0.79777 0.0
C107 C 0.98326 0.22682 0.85474 0.0
O108 O 0.9703 0.2324 0.8407 0.0
O109 O -0.0023 0.21458 0.8494 0.0
O110 O 0.5012 0.81073 0.30802 0.0
Cd111 Cd 0.48307 0.7778 0.30077 0.0
O112 O 0.51191 0.81618 0.27633 0.0
Cd113 Cd 0.49653 0.7885 0.26303 0.0
O114 O 0.48225 0.76621 0.24097 0.0
C115 C 0.49253 0.76134 0.22503 0.0
O116 O 0.51125 0.76931 0.22304 0.0
C117 C 0.51112 0.82179 0.2953 0.0
C118 C 0.48347 0.75569 0.33753 0.0
O119 O 0.49743 0.75302 0.32387 0.0
O120 O 0.46891 0.76829 0.33346 0.0
O121 O 0.0242 0.64706 0.69801 0.0
Cd122 Cd 0.02094 0.68461 0.69714 0.0
O123 O -0.00949 0.64173 0.69913 0.0
Cd124 Cd 0.98458 0.67417 0.70625 0.0
O125 O 0.98004 0.70076 0.72689 0.0
C126 C -0.00631 0.70417 0.74105 0.0
O127 O 0.01003 0.69235 0.74175 0.0
C128 C 0.00869 0.63465 0.69767 0.0
C129 C 0.02122 0.69587 0.65564 0.0
O130 O 0.03807 0.69437 0.66627 0.0
O131 O 0.00403 0.69265 0.66483 0.0
O132 O 0.80197 0.43364 0.67722 0.0
Cd133 Cd 0.81266 0.40706 0.70157 0.0
O134 O 0.77332 0.4403 0.69368 0.0
Cd135 Cd 0.74223 0.45305 0.69597 0.0
O136 O 0.71107 0.46553 0.69372 0.0
C137 C 0.70312 0.46838 0.67584 0.0
O138 O 0.71395 0.46382 0.65936 0.0
C139 C 0.78521 0.44358 0.67849 0.0
C140 C 0.85575 0.4058 0.70456 0.0
O141 O 0.84588 0.39639 0.68966 0.0
O142 O 0.84524 0.41556 0.71816 0.0
O143 O 0.67876 0.50059 0.19305 0.0
Cd144 Cd 0.67362 0.51877 0.22607 0.0
O145 O 0.69458 0.47339 0.2053 0.0
Cd146 Cd 0.70112 0.48806 0.2355 0.0
O147 O 0.73016 0.4974 0.25119 0.0
C148 C 0.74486 0.48513 0.24751 0.0
O149 O 0.74077 0.46825 0.23639 0.0
C150 C 0.68646 0.48282 0.19014 0.0
C151 C 0.6315 0.52742 0.22832 0.0
O152 O 0.64407 0.53979 0.21933 0.0
O153 O 0.63896 0.51132 0.23683 0.0
O154 O 0.3331 0.00688 0.29364 0.0
Cd155 Cd 0.3511 0.02136 0.26401 0.0
O156 O 0.30483 -0.00268 0.27633 0.0
Cd157 Cd 0.27227 0.98725 0.27368 0.0
O158 O 0.23904 0.98009 0.27341 0.0
C159 C 0.22851 0.98579 0.2889 0.0
O160 O 0.23805 -0.00454 0.30453 0.0
C161 C 0.31497 -0.00114 0.29342 0.0
C162 C 0.39325 0.02569 0.27387 0.0
O163 O 0.38044 0.03959 0.27936 0.0
O164 O 0.3862 0.00998 0.2634 0.0
O165 O 0.14964 -0.00329 0.77211 0.0
Cd166 Cd 0.13188 0.98381 0.74053 0.0
O167 O 0.17844 0.0024 0.75538 0.0
Cd168 Cd 0.21197 0.00782 0.75449 0.0
O169 O 0.24572 0.00969 0.75718 0.0
C170 C 0.25639 -0.00488 0.74969 0.0
O171 O 0.2468 0.97945 0.74018 0.0
C172 C 0.16856 0.00252 0.77228 0.0
C173 C 0.08969 0.97792 0.74744 0.0
O174 O 0.10272 0.96403 0.75235 0.0
O175 O 0.09657 -0.00553 0.73908 0.0
O176 O 0.68675 0.81841 0.4703 0.0
Cd177 Cd 0.71589 0.83444 0.45245 0.0
O178 O 0.70398 0.79045 0.47779 0.0
Cd179 Cd 0.70577 0.75817 0.48742 0.0
O180 O 0.70317 0.72573 0.49622 0.0
C181 C 0.68565 0.71651 0.49453 0.0
O182 O 0.66968 0.72677 0.4875 0.0
C183 C 0.68727 0.80058 0.4783 0.0
C184 C 0.7065 0.87505 0.44229 0.0
O185 O 0.70055 0.85984 0.43051 0.0
O186 O 0.71713 0.87108 0.45869 0.0
O187 O 0.77392 0.14758 0.98344 0.0
Cd188 Cd 0.74208 0.13377 0.96694 0.0
O189 O 0.75877 0.17686 0.99065 0.0
Cd190 Cd 0.75887 0.20963 -0.00028 0.0
O191 O 0.76075 0.2432 0.00391 0.0
C192 C 0.77747 0.2527 -0.00046 0.0
O193 O 0.79329 0.24196 -0.00691 0.0
C194 C 0.77484 0.16577 -0.00873 0.0
C195 C 0.74204 0.09062 0.96541 0.0
O196 O 0.74933 0.10113 0.95042 0.0
O197 O 0.73467 0.10054 0.98093 0.0
O198 O 0.21268 0.66267 0.4909 0.0
Cd199 Cd 0.24247 0.64542 0.50632 0.0
O200 O 0.22959 0.69236 0.4892 0.0
Cd201 Cd 0.23297 0.72557 0.48282 0.0
O202 O 0.23069 0.75909 0.47885 0.0
C203 C 0.21794 0.76901 0.48987 0.0
O204 O 0.20699 0.75898 0.50357 0.0
C205 C 0.21284 0.6818 0.48666 0.0
C206 C 0.23157 0.60482 0.51616 0.0
O207 O 0.22756 0.61989 0.52853 0.0
O208 O 0.24096 0.60891 0.49931 0.0
O209 O 0.31597 0.33714 0.00483 0.0
Cd210 Cd 0.28521 0.35607 0.01487 0.0
O211 O 0.29939 0.31104 0.98933 0.0
Cd212 Cd 0.29752 0.2803 0.97443 0.0
O213 O 0.29713 0.24828 0.96282 0.0
C214 C 0.2915 0.23396 0.97489 0.0
O215 O 0.28591 0.23893 -0.00618 0.0
C216 C 0.31636 0.32012 -0.00532 0.0
C217 C 0.29607 0.39805 0.01664 0.0
O218 O 0.29664 0.3872 0.03309 0.0
O219 O 0.28979 0.38918 -0.00033 0.0
O220 O 0.48884 0.68552 0.81533 0.0
Cd221 Cd 0.47683 0.71776 0.83099 0.0
O222 O 0.49812 0.70076 0.78669 0.0
Cd223 Cd 0.50605 0.70046 0.75381 0.0
O224 O 0.51159 0.69683 0.72062 0.0
C225 C 0.50687 0.67969 0.71164 0.0
O226 O 0.49881 0.6647 0.7226 0.0
C227 C 0.49603 0.68434 0.79712 0.0
C228 C 0.46207 0.71032 0.87065 0.0
O229 O 0.45047 0.707 0.85455 0.0
O230 O 0.48049 0.71741 0.868 0.0
O231 O 0.01708 0.77136 0.16105 0.0
Cd232 Cd 0.00365 0.74143 0.14096 0.0
O233 O 0.02123 0.7517 0.18811 0.0
Cd234 Cd 0.02844 0.74452 0.22055 0.0
O235 O 0.02886 0.74213 0.25435 0.0
C236 C 0.01332 0.74904 0.26394 0.0
O237 O -0.00204 0.75685 0.25317 0.0
C238 C 0.02198 0.76958 0.18011 0.0
C239 C -0.00721 0.75206 0.10049 0.0
O240 O 0.98031 0.7551 0.11543 0.0
O241 O 0.01032 0.74395 0.10467 0.0
O242 O 0.5051 0.1925 0.68073 0.0
Cd243 Cd 0.52023 0.22727 0.67816 0.0
O244 O 0.47541 0.20222 0.69366 0.0
Cd245 Cd 0.48732 0.23269 0.70346 0.0
O246 O 0.49247 0.24515 0.7349 0.0
C247 C 0.47772 0.24134 0.74717 0.0
O248 O 0.46079 0.23224 0.73958 0.0
C249 C 0.48674 0.18811 0.68625 0.0
C250 C 0.52749 0.23419 0.63625 0.0
O251 O 0.54153 0.22646 0.64793 0.0
O252 O 0.51036 0.2392 0.64457 0.0
O253 O -0.00594 0.32071 0.31176 0.0
Cd254 Cd 0.00499 0.28476 0.31324 0.0
O255 O 0.96297 0.31397 0.29847 0.0
Cd256 Cd 0.97018 0.28273 0.28776 0.0
O257 O 0.97088 0.26697 0.25747 0.0
C258 C 0.95439 0.26805 0.24648 0.0
O259 O 0.93809 0.27664 0.25471 0.0
C260 C 0.97615 0.32679 0.30639 0.0
C261 C 0.00904 0.27499 0.35514 0.0
O262 O 0.02445 0.28242 0.34525 0.0
O263 O -0.008 0.27158 0.34503 0.0
H264 H 0.16372 0.40655 0.48991 0.0
C265 C 0.16726 0.42169 0.4967 0.0
C266 C 0.16717 0.43912 0.484 0.0
C267 C 0.17201 0.4237 0.51806 0.0
H268 H 0.17234 0.47217 0.48317 0.0
C269 C 0.17154 0.45869 0.49294 0.0
C270 C 0.17662 0.46092 0.51407 0.0
C271 C 0.17685 0.44342 0.52662 0.0
C272 C 0.17294 0.40507 0.53118 0.0
H273 H 0.18133 0.44512 0.54286 0.0
C274 C 0.18299 0.38726 0.52404 0.0
C275 C 0.18433 0.36958 0.53641 0.0
C276 C 0.16405 0.40503 0.55091 0.0
H277 H 0.15612 0.4185 0.55675 0.0
C278 C 0.16509 0.38746 0.56319 0.0
H279 H 0.18992 0.38722 0.50885 0.0
C280 C 0.17515 0.36983 0.55603 0.0
H281 H 0.17608 0.35656 0.56602 0.0
H282 H 0.15816 0.38755 0.57836 0.0
H283 H 0.34565 0.59749 0.97202 0.0
C284 C 0.34491 0.5826 0.97949 0.0
C285 C 0.34367 0.56451 0.96718 0.0
C286 C 0.34531 0.58153 0.00134 0.0
H287 H 0.34108 0.53131 0.96737 0.0
C288 C 0.34295 0.54528 0.97684 0.0
C289 C 0.34315 0.54381 -0.0015 0.0
C290 C 0.34428 0.56199 0.01074 0.0
C291 C 0.34614 0.60086 0.0142 0.0
H292 H 0.34399 0.56092 0.0275 0.0
C293 C 0.33416 0.6179 0.00852 0.0
C294 C 0.33491 0.63641 0.02034 0.0
C295 C 0.35885 0.60248 0.0321 0.0
H296 H 0.36841 0.58971 0.03677 0.0
C297 C 0.35963 0.6208 0.04397 0.0
H298 H 0.32382 0.61658 -0.00488 0.0
C299 C 0.34774 0.63768 0.03818 0.0
H300 H 0.34876 0.65177 0.0475 0.0
H301 H 0.36957 0.62195 0.05766 0.0
H302 H 0.64618 0.07291 0.47 0.0
C303 C 0.64914 0.0579 0.46303 0.0
C304 C 0.64862 0.04028 0.47546 0.0
C305 C 0.65341 0.05618 0.4417 0.0
H306 H 0.65256 0.00724 0.47598 0.0
C307 C 0.65216 0.02084 0.46635 0.0
C308 C 0.65688 0.01889 0.4453 0.0
C309 C 0.65751 0.03656 0.433 0.0
C310 C 0.65434 0.07494 0.42871 0.0
H311 H 0.66163 0.03506 0.41681 0.0
C312 C 0.66429 0.09315 0.43629 0.0
C313 C 0.66539 0.111 0.42411 0.0
C314 C 0.64539 0.07475 0.40867 0.0
H315 H 0.63749 0.061 0.40246 0.0
C316 C 0.64629 0.09244 0.39654 0.0
H317 H 0.67129 0.0934 0.4517 0.0
C318 C 0.65619 0.11047 0.40418 0.0
H319 H 0.65694 0.12388 0.39434 0.0
H320 H 0.63932 0.09215 0.38114 0.0
H321 H 0.77633 0.88797 0.01064 0.0
C322 C 0.77193 0.9023 0.00342 0.0
C323 C 0.76699 0.91944 0.01594 0.0
C324 C 0.77119 0.9036 0.98161 0.0
H325 H 0.75781 0.95136 0.01598 0.0
C326 C 0.76123 0.93788 0.00647 0.0
C327 C 0.76062 0.93951 0.98486 0.0
C328 C 0.76583 0.92244 0.97242 0.0
C329 C 0.77552 0.88514 0.96848 0.0
H330 H 0.76513 0.92369 0.95568 0.0
C331 C 0.7666 0.86578 0.97312 0.0
C332 C 0.7701 0.84825 0.96049 0.0
C333 C 0.78819 0.8868 0.95106 0.0
H334 H 0.79537 0.90148 0.94721 0.0
C335 C 0.79187 0.86943 0.93856 0.0
H336 H 0.75633 0.86452 0.98618 0.0
C337 C 0.78287 0.85028 0.94317 0.0
H338 H 0.78601 0.83703 0.93327 0.0
H339 H 0.80173 0.87083 0.92522 0.0
H340 H 0.49923 0.19752 0.43013 0.0
C341 C 0.50552 0.20348 0.44479 0.0
C342 C 0.49189 0.20926 0.46046 0.0
C343 C 0.52713 0.20556 0.44792 0.0
H344 H 0.48934 0.22091 0.49174 0.0
C345 C 0.49989 0.21685 0.47946 0.0
C346 C 0.5213 0.21833 0.48319 0.0
C347 C 0.53493 0.21261 0.46743 0.0
C348 C 0.54136 0.20107 0.43055 0.0
H349 H 0.55149 0.21422 0.47022 0.0
C350 C 0.53616 0.20717 0.41029 0.0
C351 C 0.54943 0.20332 0.39365 0.0
C352 C 0.56022 0.19103 0.43401 0.0
H353 H 0.56459 0.18593 0.44937 0.0
C354 C 0.57353 0.18723 0.41755 0.0
H355 H 0.52199 0.21553 0.40752 0.0
C356 C 0.56824 0.19336 0.39748 0.0
H357 H 0.57873 0.19014 0.38495 0.0
H358 H 0.588 0.17944 0.42035 0.0
H359 H 0.00903 0.81565 0.90242 0.0
C360 C 0.00288 0.81207 0.91751 0.0
C361 C 0.01605 0.81306 0.93509 0.0
C362 C 0.98176 0.80667 0.9194 0.0
H363 H 0.01812 0.80852 0.96813 0.0
C364 C 0.00792 0.80859 0.95457 0.0
C365 C 0.98712 0.8027 0.95663 0.0
C366 C 0.97403 0.80176 0.93906 0.0
C367 C 0.96786 0.80566 0.90083 0.0
H368 H 0.958 0.79684 0.94064 0.0
C369 C 0.97404 0.79544 0.88257 0.0
C370 C 0.96075 0.79407 0.86502 0.0
C371 C 0.94826 0.81473 0.90134 0.0
H372 H 0.94318 0.8228 0.91516 0.0
C373 C 0.93513 0.81368 0.8839 0.0
H374 H 0.98913 0.78838 0.88213 0.0
C375 C 0.94127 0.80341 0.86586 0.0
H376 H 0.93058 0.80242 0.85273 0.0
H377 H 0.92005 0.82073 0.88443 0.0
H378 H 0.96931 0.29881 0.55978 0.0
C379 C 0.97628 0.29369 0.54544 0.0
C380 C 0.96341 0.28774 0.52856 0.0
C381 C -0.00198 0.29299 0.54388 0.0
H382 H 0.96234 0.27723 0.49673 0.0
C383 C 0.97231 0.28131 0.50995 0.0
C384 C -0.00614 0.28115 0.50781 0.0
C385 C 0.0067 0.28705 0.52479 0.0
C386 C 0.01148 0.29807 0.56232 0.0
H387 H 0.02337 0.28652 0.52321 0.0
C388 C 0.00582 0.29125 0.5821 0.0
C389 C 0.01836 0.29581 0.59972 0.0
C390 C 0.03004 0.30953 0.56036 0.0
H391 H 0.03473 0.31522 0.54541 0.0
C392 C 0.04261 0.31403 0.57778 0.0
H393 H -0.00811 0.28186 0.58373 0.0
C394 C 0.03687 0.30721 0.59735 0.0
H395 H 0.04678 0.31107 0.61064 0.0
H396 H 0.05684 0.32293 0.57611 0.0
H397 H 0.4712 0.65145 0.06874 0.0
C398 C 0.4647 0.65428 0.05346 0.0
C399 C 0.47703 0.65142 0.03595 0.0
C400 C 0.44411 0.66092 0.05129 0.0
H401 H 0.47825 0.65374 0.00269 0.0
C402 C 0.46854 0.65501 0.01621 0.0
C403 C 0.44832 0.66217 0.01381 0.0
C404 C 0.43609 0.66506 0.03136 0.0
C405 C 0.43137 0.66461 0.06991 0.0
H406 H 0.42062 0.6711 0.02952 0.0
C407 C 0.43993 0.67521 0.08736 0.0
C408 C 0.42797 0.67906 0.10502 0.0
C409 C 0.41059 0.65778 0.07028 0.0
H410 H 0.40363 0.6495 0.05708 0.0
C411 C 0.39869 0.66135 0.08782 0.0
H412 H 0.45592 0.68059 0.08714 0.0
C413 C 0.40727 0.6719 0.10511 0.0
H414 H 0.39761 0.67478 0.11839 0.0
H415 H 0.3827 0.656 0.08798 0.0
H416 H 0.42672 0.48669 0.19219 0.0
C417 C 0.44164 0.49411 0.19544 0.0
C418 C 0.45969 0.48233 0.19433 0.0
C419 C 0.44287 0.51549 0.20018 0.0
H420 H 0.49303 0.48312 0.19764 0.0
C421 C 0.479 0.4921 0.19798 0.0
C422 C 0.48047 0.51321 0.20301 0.0
C423 C 0.46244 0.52487 0.20422 0.0
C424 C 0.42379 0.52805 0.20066 0.0
H425 H 0.4637 0.54118 0.20836 0.0
C426 C 0.40557 0.52032 0.2097 0.0
C427 C 0.38742 0.5321 0.20994 0.0
C428 C 0.42364 0.5478 0.19184 0.0
H429 H 0.4373 0.55407 0.18452 0.0
C430 C 0.40571 0.55954 0.19203 0.0
H431 H 0.40552 0.50513 0.21655 0.0
C432 C 0.38771 0.55179 0.20099 0.0
H433 H 0.37409 0.56134 0.20116 0.0
H434 H 0.40577 0.57472 0.18519 0.0
H435 H 0.8899 0.01405 0.80084 0.0
C436 C 0.90467 0.00713 0.7975 0.0
C437 C 0.9229 0.01932 0.79893 0.0
C438 C 0.90553 0.98592 0.79219 0.0
H439 H 0.95607 0.01956 0.79525 0.0
C440 C 0.94197 0.01016 0.79487 0.0
C441 C 0.943 0.98926 0.78907 0.0
C442 C 0.9248 0.97715 0.78773 0.0
C443 C 0.88637 0.9729 0.7912 0.0
H444 H 0.92563 0.96101 0.78301 0.0
C445 C 0.86854 0.9797 0.78068 0.0
C446 C 0.85047 0.96715 0.77936 0.0
C447 C 0.88593 0.95347 0.80065 0.0
H448 H 0.8994 0.94795 0.80898 0.0
C449 C 0.868 0.94109 0.79964 0.0
H450 H 0.86882 -0.00534 0.77334 0.0
C451 C 0.85039 0.94781 0.78906 0.0
H452 H 0.83685 0.93768 0.78811 0.0
H453 H 0.8678 0.92614 0.80697 0.0
H454 H 0.58497 0.96946 0.33631 0.0
C455 C 0.57119 0.97837 0.33334 0.0
C456 C 0.552 0.96806 0.33035 0.0
C457 C 0.57263 0.00013 0.33265 0.0
H458 H 0.51944 0.97191 0.32366 0.0
C459 C 0.53423 0.97971 0.32672 0.0
C460 C 0.53548 0.00129 0.32556 0.0
C461 C 0.55465 0.01151 0.32855 0.0
C462 C 0.59301 0.0109 0.33545 0.0
H463 H 0.55562 0.0282 0.32724 0.0
C464 C 0.61039 0.00376 0.32483 0.0
C465 C 0.62973 0.0141 0.32693 0.0
C466 C 0.59516 0.02845 0.34853 0.0
H467 H 0.58203 0.03419 0.35699 0.0
C468 C 0.61436 0.03857 0.351 0.0
H469 H 0.60878 -0.00978 0.31473 0.0
C470 C 0.63155 0.03151 0.34027 0.0
H471 H 0.64614 0.03994 0.3421 0.0
H472 H 0.6159 0.05205 0.36116 0.0
H473 H 0.05668 0.47727 0.69047 0.0
C474 C 0.04226 0.46877 0.69253 0.0
C475 C 0.0239 0.47968 0.69528 0.0
C476 C 0.04215 0.44697 0.69276 0.0
H477 H -0.00903 0.47698 0.69922 0.0
C478 C 0.00529 0.4686 0.69782 0.0
C479 C 0.00482 0.44691 0.69838 0.0
C480 C 0.0233 0.43613 0.69558 0.0
C481 C 0.06188 0.43565 0.69084 0.0
H482 H 0.02313 0.41939 0.69636 0.0
C483 C 0.07979 0.44278 0.70169 0.0
C484 C 0.09866 0.43241 0.6999 0.0
C485 C 0.06301 0.4178 0.67819 0.0
H486 H 0.04951 0.41202 0.66955 0.0
C487 C 0.08172 0.40745 0.67628 0.0
H488 H 0.07904 0.45648 0.71156 0.0
C489 C 0.09948 0.41471 0.68699 0.0
H490 H 0.11376 0.40633 0.6854 0.0
H491 H 0.08247 0.39376 0.66643 0.0
H492 H 0.70599 0.52846 0.55796 0.0
C493 C 0.70983 0.51657 0.54667 0.0
C494 C 0.72587 0.50283 0.55106 0.0
C495 C 0.69826 0.51449 0.52802 0.0
H496 H 0.74238 0.4762 0.54015 0.0
C497 C 0.73052 0.48731 0.53648 0.0
C498 C 0.71892 0.48484 0.51799 0.0
C499 C 0.70272 0.49842 0.51388 0.0
C500 C 0.68093 0.52852 0.52361 0.0
H501 H 0.69362 0.49654 0.49965 0.0
C502 C 0.68418 0.5501 0.52382 0.0
C503 C 0.66782 0.56342 0.5189 0.0
C504 C 0.66113 0.5203 0.51874 0.0
H505 H 0.6583 0.50372 0.51854 0.0
C506 C 0.64479 0.53341 0.51424 0.0
H507 H 0.69948 0.55646 0.52752 0.0
C508 C 0.64807 0.55482 0.51426 0.0
H509 H 0.63523 0.5646 0.51016 0.0
H510 H 0.62956 0.52695 0.51051 0.0
H511 H 0.748 0.43525 0.04463 0.0
C512 C 0.74379 0.4494 0.03695 0.0
C513 C 0.72826 0.46174 0.04541 0.0
C514 C 0.7545 0.45567 0.01919 0.0
H515 H 0.71198 0.49043 0.04278 0.0
C516 C 0.72326 0.48035 0.03579 0.0
C517 C 0.73402 0.48707 0.01839 0.0
C518 C 0.74954 0.47466 0.01008 0.0
C519 C 0.77157 0.44294 0.0109 0.0
H520 H 0.75777 0.47989 -0.00343 0.0
C521 C 0.7698 0.42118 0.01011 0.0
C522 C 0.78614 0.40906 0.00277 0.0
C523 C 0.78994 0.45247 0.00408 0.0
H524 H 0.79199 0.46913 0.00483 0.0
C525 C 0.80611 0.44056 -0.00335 0.0
H526 H 0.75555 0.41369 0.01488 0.0
C527 C 0.80429 0.41902 -0.00398 0.0
H528 H 0.81726 0.41015 0.99057 0.0
H529 H 0.82023 0.44805 -0.00842 0.0
H530 H 0.22849 0.95293 0.4284 0.0
C531 C 0.2325 0.96674 0.43749 0.0
C532 C 0.24813 0.98027 0.43069 0.0
C533 C 0.22185 0.97117 0.45587 0.0
H534 H 0.26483 0.00893 0.43697 0.0
C535 C 0.25317 -0.00184 0.44248 0.0
C536 C 0.24249 0.00295 0.46063 0.0
C537 C 0.2268 0.98944 0.46722 0.0
C538 C 0.20557 0.95679 0.46334 0.0
H539 H 0.21869 -0.00702 0.4814 0.0
C540 C 0.20927 0.93546 0.46459 0.0
C541 C 0.19436 0.922 0.47298 0.0
C542 C 0.18655 0.96447 0.47007 0.0
H543 H 0.18326 0.98081 0.46912 0.0
C544 C 0.17158 0.95112 0.47806 0.0
H545 H 0.22408 0.92947 0.45984 0.0
C546 C 0.17546 0.93004 0.47964 0.0
H547 H 0.16365 0.91997 0.48597 0.0
H548 H 0.15695 0.95717 0.48318 0.0
H549 H 0.26845 0.0453 0.89967 0.0
C550 C 0.26577 0.03298 0.91056 0.0
C551 C 0.25045 0.01768 0.90618 0.0
C552 C 0.27862 0.03165 0.92833 0.0
H553 H 0.23553 -0.01002 0.9174 0.0
C554 C 0.24747 0.00171 0.92042 0.0
C555 C 0.26033 5e-05 0.93803 0.0
C556 C 0.276 0.01499 0.94183 0.0
C557 C 0.29552 0.04704 0.93234 0.0
H558 H 0.28609 0.01371 0.95536 0.0
C559 C 0.29136 0.06831 0.93356 0.0
C560 C 0.30738 0.08284 0.93827 0.0
C561 C 0.3159 0.04037 0.9355 0.0
H562 H 0.31945 0.02406 0.93457 0.0
C563 C 0.33188 0.05469 0.93977 0.0
H564 H 0.27562 0.07346 0.93116 0.0
C565 C 0.32769 0.07576 0.94123 0.0
H566 H 0.34031 0.08645 0.94518 0.0
H567 H 0.34754 0.04941 0.94221 0.0
H568 H 0.5609 0.70252 0.52769 0.0
C569 C 0.55112 0.70572 0.51432 0.0
C570 C 0.55594 0.72263 0.50177 0.0
C571 C 0.53398 0.69267 0.50938 0.0
H572 H 0.54738 0.73917 0.47427 0.0
C573 C 0.54332 0.72655 0.48439 0.0
C574 C 0.52637 0.71354 0.47909 0.0
C575 C 0.52181 0.69657 0.4916 0.0
C576 C 0.52895 0.67476 0.52257 0.0
H577 H 0.50863 0.68656 0.48762 0.0
C578 C 0.52805 0.67719 0.54427 0.0
C579 C 0.52257 0.66037 0.55678 0.0
C580 C 0.52461 0.65522 0.51347 0.0
H581 H 0.52537 0.6529 0.49681 0.0
C582 C 0.51946 0.63843 0.52581 0.0
H583 H 0.5309 0.69235 0.55131 0.0
C584 C 0.51839 0.64095 0.54731 0.0
H585 H 0.51441 0.62765 0.55654 0.0
H586 H 0.51625 0.6234 0.51868 0.0
H587 H 0.91339 0.24406 0.05646 0.0
C588 C 0.92123 0.24306 0.04175 0.0
C589 C 0.91252 0.23074 0.02562 0.0
C590 C 0.93974 0.25443 0.0387 0.0
H591 H 0.91514 0.22067 -0.00615 0.0
C592 C 0.92214 0.23 0.00633 0.0
C593 C 0.94012 0.24177 0.00271 0.0
C594 C 0.94912 0.25358 0.0191 0.0
C595 C 0.94874 0.26802 0.05555 0.0
H596 H 0.96314 0.26253 0.01643 0.0
C597 C 0.94942 0.26147 0.07631 0.0
C598 C 0.95802 0.27444 0.09215 0.0
C599 C 0.95664 0.2878 0.05088 0.0
H600 H 0.95596 0.29349 0.03519 0.0
C601 C 0.96516 0.30067 0.06649 0.0
H602 H 0.94366 0.24616 0.08006 0.0
C603 C 0.96586 0.29409 0.08696 0.0
H604 H 0.97219 0.30461 0.0988 0.0
H605 H 0.97107 0.3159 0.06272 0.0
H606 H 0.05979 0.74193 0.45156 0.0
C607 C 0.05363 0.73632 0.46599 0.0
C608 C 0.06711 0.72758 0.48061 0.0
C609 C 0.0325 0.73884 0.47051 0.0
H610 H 0.06974 0.7143 0.51088 0.0
C611 C 0.05928 0.7209 0.49954 0.0
C612 C 0.03834 0.72307 0.5043 0.0
C613 C 0.02502 0.73202 0.48971 0.0
C614 C 0.01837 0.74926 0.45565 0.0
H615 H 0.00877 0.73351 0.49329 0.0
C616 C 0.01973 0.74568 0.43408 0.0
C617 C 0.00615 0.75542 0.42016 0.0
C618 C 0.00337 0.76297 0.46303 0.0
H619 H 0.0022 0.76648 0.47945 0.0
C620 C 0.98988 0.77261 0.44929 0.0
H621 H 0.03099 0.73496 0.42813 0.0
C622 C -0.00882 0.76886 0.428 0.0
H623 H 0.9807 0.77676 0.41763 0.0
H624 H 0.97844 0.78316 0.45516 0.0
H625 H 0.45724 0.25199 0.93898 0.0
C626 C 0.46647 0.25411 0.95309 0.0
C627 C 0.45871 0.26602 0.96954 0.0
C628 C 0.4859 0.24466 0.95497 0.0
H629 H 0.4643 0.27706 0.00091 0.0
C630 C 0.47052 0.26846 0.9879 0.0
C631 C 0.48966 0.25884 0.99022 0.0
C632 C 0.49731 0.24696 0.97374 0.0
C633 C 0.49406 0.23197 0.93757 0.0
H634 H 0.51224 0.23972 0.97551 0.0
C635 C 0.49212 0.23857 0.91691 0.0
C636 C 0.49976 0.22652 0.9004 0.0
C637 C 0.5038 0.21313 0.94155 0.0
H638 H 0.50525 0.20747 0.95721 0.0
C639 C 0.51145 0.20116 0.92529 0.0
H640 H 0.48504 0.25328 0.91373 0.0
C641 C 0.50944 0.20774 0.90487 0.0
H642 H 0.51512 0.19789 0.89254 0.0
H643 H 0.51879 0.18661 0.92851 0.0
H644 H 0.52433 0.55218 0.70064 0.0
C645 C 0.51165 0.5419 0.70474 0.0
C646 C 0.49842 0.54744 0.72092 0.0
C647 C 0.50758 0.52382 0.69278 0.0
H648 H 0.47172 0.53814 0.73835 0.0
C649 C 0.48192 0.53403 0.7258 0.0
C650 C 0.47761 0.51605 0.71394 0.0
C651 C 0.49037 0.51112 0.69726 0.0
C652 C 0.52035 0.51893 0.67462 0.0
H653 H 0.48693 0.49744 0.68776 0.0
C654 C 0.54163 0.51519 0.67703 0.0
C655 C 0.55361 0.50987 0.65972 0.0
C656 C 0.51109 0.51764 0.65478 0.0
H657 H 0.4947 0.5205 0.65264 0.0
C658 C 0.52294 0.51287 0.63752 0.0
H659 H 0.5486 0.5157 0.69246 0.0
C660 C 0.54404 0.50901 0.63992 0.0
H661 H 0.55286 0.5054 0.62623 0.0
H662 H 0.51574 0.51209 0.62223 0.0
H663 H 0.04701 0.91526 0.26529 0.0
C664 C 0.03217 0.9212 0.26029 0.0
C665 C 0.01867 0.90855 0.24813 0.0
C666 C 0.02588 0.94088 0.2672 0.0
H667 H 0.98868 0.90597 0.23323 0.0
C668 C -0.00082 0.91596 0.24231 0.0
C669 C -0.00729 0.9356 0.24874 0.0
C670 C 0.00619 0.94801 0.26116 0.0
C671 C 0.03907 0.95339 0.28203 0.0
H672 H 0.0013 0.9632 0.26624 0.0
C673 C 0.06062 0.95557 0.27933 0.0
C674 C 0.07292 0.96744 0.29357 0.0
C675 C 0.03001 0.96303 0.29928 0.0
H676 H 0.01356 0.96131 0.30201 0.0
C677 C 0.04211 0.97464 0.31346 0.0
H678 H 0.0677 0.94846 0.26592 0.0
C679 C 0.06338 0.97685 0.31069 0.0
H680 H 0.07242 0.98572 0.32215 0.0
H681 H 0.03498 0.98186 0.32676 0.0
H682 H 0.44068 0.03839 0.73699 0.0
C683 C 0.45527 0.03117 0.73354 0.0
C684 C 0.46869 0.04064 0.71948 0.0
C685 C 0.46096 0.01295 0.74374 0.0
H686 H 0.49869 0.03931 0.70539 0.0
C687 C 0.48783 0.03161 0.71548 0.0
C688 C 0.49396 0.01377 0.7258 0.0
C689 C 0.48049 0.00444 0.73983 0.0
C690 C 0.44692 0.00347 0.75917 0.0
H691 H 0.48532 -0.0094 0.7477 0.0
C692 C 0.42529 0.00293 0.75575 0.0
C693 C 0.4119 -0.00527 0.77066 0.0
C694 C 0.455 -0.00459 0.77771 0.0
H695 H 0.4715 -0.00409 0.78106 0.0
C696 C 0.44181 0.98702 0.79242 0.0
H697 H 0.41884 0.00909 0.74156 0.0
C698 C 0.4204 0.98671 0.78899 0.0
H699 H 0.41051 0.98007 0.80064 0.0
H700 H 0.4482 0.98087 0.80663 0.0
H701 H 0.93091 0.48219 0.27834 0.0
C702 C 0.94578 0.48994 0.28083 0.0
C703 C 0.96183 0.47922 0.29065 0.0
C704 C 0.94907 0.51019 0.27357 0.0
H705 H -0.0059 0.48025 0.29972 0.0
C706 C 0.98136 0.48884 0.29313 0.0
C707 C 0.98516 0.50872 0.28557 0.0
C708 C 0.96893 0.51943 0.27609 0.0
C709 C 0.93216 0.52102 0.26224 0.0
H710 H 0.97197 0.53491 0.27054 0.0
C711 C 0.91122 0.51786 0.26749 0.0
C712 C 0.8951 0.5266 0.25573 0.0
C713 C 0.93674 0.53382 0.24541 0.0
H714 H 0.95253 0.53628 0.24049 0.0
C715 C 0.9209 0.54312 0.23415 0.0
H716 H 0.90741 0.50851 0.28073 0.0
C717 C 0.90024 0.53945 0.23912 0.0
H718 H 0.8883 0.54615 0.22948 0.0
H719 H 0.92464 0.55279 0.22114 0.0
H720 H 0.11619 0.53848 0.30963 0.0
H721 H 0.10981 0.4976 0.25605 0.0
H722 H 0.07879 0.5438 0.3089 0.0
H723 H 0.07252 0.50304 0.2553 0.0
H724 H 0.0066 0.52309 0.25262 0.0
H725 H 0.04406 0.52933 0.25098 0.0
H726 H 0.04985 0.51808 0.31666 0.0
H727 H 0.01248 0.51183 0.31825 0.0
C728 C 0.10689 0.531 0.29742 0.0
C729 C 0.11591 0.51746 0.283 0.0
C730 C 0.08548 0.534 0.29707 0.0
C731 C 0.07275 0.52377 0.28211 0.0
C732 C 0.08196 0.51128 0.2669 0.0
C733 C 0.10331 0.50807 0.26741 0.0
C734 C 0.01583 0.5226 0.2668 0.0
C735 C 0.00673 0.51691 0.28556 0.0
C736 C 0.03725 0.526 0.26583 0.0
C737 C 0.04986 0.52405 0.28366 0.0
C738 C 0.04051 0.51986 0.3027 0.0
C739 C 0.01916 0.51619 0.30362 0.0
H740 H 0.3677 0.46089 0.76925 0.0
H741 H 0.34969 0.50855 0.72668 0.0
H742 H 0.40269 0.46176 0.75541 0.0
H743 H 0.3846 0.50952 0.71303 0.0
H744 H 0.44704 0.50418 0.68626 0.0
H745 H 0.4123 0.49126 0.69442 0.0
H746 H 0.43012 0.48878 0.75924 0.0
H747 H 0.46478 0.50136 0.751 0.0
C748 C 0.37108 0.47127 0.75669 0.0
C749 C 0.356 0.48485 0.74924 0.0
C750 C 0.39114 0.4718 0.74882 0.0
C751 C 0.39645 0.48579 0.73323 0.0
C752 C 0.38097 0.4984 0.72489 0.0
C753 C 0.36098 0.49797 0.73283 0.0
C754 C 0.44368 0.5002 0.70212 0.0
C755 C 0.45848 0.50391 0.71804 0.0
C756 C 0.42377 0.49299 0.70682 0.0
C757 C 0.4184 0.48923 0.7275 0.0
C758 C 0.43377 0.49139 0.74315 0.0
C759 C 0.45359 0.49872 0.73847 0.0
H760 H 0.61835 0.98331 0.68431 0.0
H761 H 0.62101 0.03785 0.72405 0.0
H762 H 0.58223 0.97721 0.69382 0.0
H763 H 0.58508 0.03156 0.7337 0.0
H764 H 0.52323 0.00924 0.75612 0.0
H765 H 0.56057 0.00539 0.75136 0.0
H766 H 0.55035 -0.00063 0.68513 0.0
H767 H 0.51313 0.00345 0.68992 0.0
C768 C 0.61137 -0.00627 0.6954 0.0
C769 C 0.62244 0.01116 0.70332 0.0
C770 C 0.59072 -0.00975 0.70078 0.0
C771 C 0.5809 0.00391 0.71448 0.0
C772 C 0.59233 0.02067 0.72327 0.0
C773 C 0.61285 0.02434 0.71763 0.0
C774 C 0.52896 0.00643 0.74064 0.0
C775 C 0.51542 0.00665 0.72336 0.0
C776 C 0.55028 0.00439 0.73791 0.0
C777 C 0.55831 0.0022 0.71788 0.0
C778 C 0.54456 0.00087 0.70075 0.0
C779 C 0.52331 0.00325 0.70346 0.0
H780 H 0.8672 0.91076 0.22114 0.0
H781 H 0.86261 0.9753 0.23878 0.0
H782 H 0.90479 0.91327 0.22503 0.0
H783 H 0.90048 0.97765 0.24306 0.0
H784 H 0.96526 0.95486 0.2744 0.0
H785 H 0.9281 0.9592 0.26812 0.0
H786 H 0.93411 0.93414 0.20609 0.0
H787 H 0.97128 0.93043 0.212 0.0
C788 C 0.87421 0.92547 0.22593 0.0
C789 C 0.86196 0.94283 0.22967 0.0
C790 C 0.89573 0.92693 0.228 0.0
C791 C 0.90547 0.94569 0.23419 0.0
C792 C 0.89328 0.96303 0.23824 0.0
C793 C 0.87169 0.96168 0.23576 0.0
C794 C 0.9588 0.95091 0.2592 0.0
C795 C 0.97118 0.94198 0.24381 0.0
C796 C 0.93752 0.95333 0.25566 0.0
C797 C 0.92829 0.94668 0.23675 0.0
C798 C 0.94086 0.93907 0.22092 0.0
C799 C 0.9621 0.9369 0.22434 0.0
H800 H 0.25332 0.13325 0.48078 0.0
H801 H 0.29557 0.11079 0.52766 0.0
H802 H 0.2419 0.09777 0.47271 0.0
H803 H 0.28413 0.07528 0.51949 0.0
H804 H 0.28043 0.01819 0.47294 0.0
H805 H 0.28876 0.05251 0.48758 0.0
H806 H 0.22362 0.06661 0.48811 0.0
H807 H 0.2153 0.03219 0.47337 0.0
C808 C 0.25999 0.12076 0.48952 0.0
C809 C 0.27544 0.1248 0.50476 0.0
C810 C 0.25335 0.10047 0.48499 0.0
C811 C 0.26217 0.08379 0.49545 0.0
C812 C 0.27718 0.08786 0.51111 0.0
C813 C 0.28366 0.10818 0.51581 0.0
C814 C 0.26791 0.02855 0.47645 0.0
C815 C 0.24725 0.02263 0.47195 0.0
C816 C 0.27264 0.04811 0.48495 0.0
C817 C 0.25683 0.06223 0.48889 0.0
C818 C 0.2361 0.05605 0.48507 0.0
C819 C 0.23134 0.03636 0.47681 0.0
H820 H 0.21919 0.89288 0.00857 0.0
H821 H 0.25859 0.87207 0.95915 0.0
H822 H 0.22903 0.92875 0.00159 0.0
H823 H 0.26835 0.90786 0.95221 0.0
H824 H 0.29069 0.97383 0.95014 0.0
H825 H 0.2861 0.94012 0.9664 0.0
H826 H 0.22047 0.95082 0.9711 0.0
H827 H 0.22512 0.98447 0.95502 0.0
C828 C 0.23022 0.89592 -0.00353 0.0
C829 C 0.23797 0.87966 0.98427 0.0
C830 C 0.23579 0.91646 -0.00755 0.0
C831 C 0.24938 0.9211 0.97631 0.0
C832 C 0.258 0.90476 0.96489 0.0
C833 C 0.25229 0.88426 0.96877 0.0
C834 C 0.2754 0.96917 0.95519 0.0
C835 C 0.25822 0.98164 0.95124 0.0
C836 C 0.27275 0.94985 0.96432 0.0
C837 C 0.25291 0.94279 0.96987 0.0
C838 C 0.23597 0.95589 0.96714 0.0
C839 C 0.23859 0.97508 0.95783 0.0
H840 H 0.76985 0.38199 0.4462 0.0
H841 H 0.72729 0.35739 0.49096 0.0
H842 H 0.75845 0.41699 0.45442 0.0
H843 H 0.716 0.39232 0.49918 0.0
H844 H 0.75601 0.47234 0.50317 0.0
H845 H 0.76343 0.43931 0.48622 0.0
H846 H 0.69815 0.42334 0.4852 0.0
H847 H 0.69077 0.45641 0.50238 0.0
C848 C 0.75787 0.38401 0.45758 0.0
C849 C 0.74959 0.36693 0.46807 0.0
C850 C 0.7514 0.40405 0.46231 0.0
C851 C 0.73637 0.40739 0.47746 0.0
C852 C 0.72743 0.39023 0.48726 0.0
C853 C 0.73403 0.37022 0.48267 0.0
C854 C 0.74323 0.46192 0.49893 0.0
C855 C 0.72285 0.46683 0.50419 0.0
C856 C 0.74745 0.44308 0.48912 0.0
C857 C 0.73138 0.42867 0.48454 0.0
C858 C 0.71085 0.43408 0.48874 0.0
C859 C 0.70661 0.45305 0.49838 0.0
H860 H 0.72591 0.61553 0.03509 0.0
H861 H 0.68679 0.60724 0.98039 0.0
H862 H 0.73685 0.57968 0.03177 0.0
H863 H 0.69761 0.57123 0.97726 0.0
H864 H 0.69718 0.50391 0.00717 0.0
H865 H 0.69041 0.54048 0.00129 0.0
H866 H 0.75589 0.55456 0.00753 0.0
H867 H 0.76265 0.51789 0.01326 0.0
C868 C 0.71987 0.60613 0.0222 0.0
C869 C 0.70541 0.61415 0.00808 0.0
C870 C 0.72624 0.58566 0.02023 0.0
C871 C 0.71806 0.57271 0.00426 0.0
C872 C 0.7041 0.5809 0.98973 0.0
C873 C 0.69797 0.60149 -0.00849 0.0
C874 C 0.71014 0.51478 0.00673 0.0
C875 C 0.73041 0.50816 0.01068 0.0
C876 C 0.7063 0.53566 0.00331 0.0
C877 C 0.72263 0.55033 0.0041 0.0
C878 C 0.74303 0.54355 0.00696 0.0
C879 C 0.7469 0.5226 0.01006 0.0
H880 H 0.49758 0.24689 0.11969 0.0
H881 H 0.54437 0.29446 0.11097 0.0
H882 H 0.49529 0.24095 0.08223 0.0
H883 H 0.54197 0.28852 0.07345 0.0
H884 H 0.50032 0.29374 0.01233 0.0
H885 H 0.51241 0.29604 0.04843 0.0
H886 H 0.51504 0.22937 0.05034 0.0
H887 H 0.50296 0.22713 0.01407 0.0
C888 C 0.50762 0.25584 0.1098 0.0
C889 C 0.52101 0.27127 0.11827 0.0
C890 C 0.50641 0.25233 0.08836 0.0
C891 C 0.51841 0.26433 0.07494 0.0
C892 C 0.53246 0.27914 0.08345 0.0
C893 C 0.53386 0.28248 0.10492 0.0
C894 C 0.50396 0.27963 0.02036 0.0
C895 C 0.50067 0.26027 0.01053 0.0
C896 C 0.51096 0.28093 0.04096 0.0
C897 C 0.51455 0.26287 0.05221 0.0
C898 C 0.51227 0.24352 0.04204 0.0
C899 C 0.50553 0.24224 0.0213 0.0
H900 H 0.0023 0.21092 0.88902 0.0
H901 H 0.9579 0.25648 0.87018 0.0
H902 H -0.00621 0.21727 0.92524 0.0
H903 H 0.94993 0.26339 0.90641 0.0
H904 H 0.91833 0.24544 0.96652 0.0
H905 H 0.93112 0.24449 0.93141 0.0
H906 H -0.00612 0.24022 0.95526 0.0
H907 H 0.9808 0.24021 0.99072 0.0
C908 C -0.00893 0.22264 0.89264 0.0
C909 C 0.98055 0.23299 0.87672 0.0
C910 C 0.98626 0.22636 0.91344 0.0
C911 C 0.97095 0.24063 0.91875 0.0
C912 C 0.96144 0.25192 0.90285 0.0
C913 C 0.96609 0.24806 0.88208 0.0
C914 C 0.93486 0.24417 0.96432 0.0
C915 C 0.94852 0.24257 0.98141 0.0
C916 C 0.94225 0.24397 0.94414 0.0
C917 C 0.96356 0.24235 0.94045 0.0
C918 C 0.97735 0.24129 0.95756 0.0
C919 C 0.9699 0.24146 0.97786 0.0
H920 H 0.46035 0.76328 0.37188 0.0
H921 H 0.51044 0.72591 0.34958 0.0
H922 H 0.4663 0.75051 0.40689 0.0
H923 H 0.51638 0.71325 0.38455 0.0
H924 H 0.51628 0.68561 0.44812 0.0
H925 H 0.50161 0.69297 0.41379 0.0
H926 H 0.49576 0.75724 0.43185 0.0
H927 H 0.51021 0.74983 0.4661 0.0
C928 C 0.47239 0.75208 0.37436 0.0
C929 C 0.48507 0.74576 0.358 0.0
C930 C 0.47583 0.74484 0.39443 0.0
C931 C 0.49187 0.73098 0.39848 0.0
C932 C 0.50377 0.72377 0.38188 0.0
C933 C 0.50046 0.73114 0.36187 0.0
C934 C 0.51136 0.70118 0.44487 0.0
C935 C 0.51448 0.7172 0.45967 0.0
C936 C 0.50313 0.70542 0.42521 0.0
C937 C 0.49766 0.72569 0.4201 0.0
C938 C 0.49966 0.74143 0.43536 0.0
C939 C 0.50807 0.73724 0.45491 0.0
H940 H 0.98877 0.70552 0.6297 0.0
H941 H 0.05485 0.69577 0.63081 0.0
H942 H 0.98985 0.71097 0.59215 0.0
H943 H 0.05581 0.70102 0.59354 0.0
H944 H 0.0473 0.68794 0.52526 0.0
H945 H 0.04116 0.68107 0.56174 0.0
H946 H 0.00678 0.73754 0.56705 0.0
H947 H 0.01329 0.7447 0.53051 0.0
C948 C 0.0035 0.7046 0.62196 0.0
C949 C 0.02173 0.7002 0.6332 0.0
C950 C 0.00409 0.70774 0.60053 0.0
C951 C 0.02286 0.70617 0.58997 0.0
C952 C 0.04107 0.70199 0.60126 0.0
C953 C 0.04054 0.69915 0.62264 0.0
C954 C 0.03828 0.69881 0.53415 0.0
C955 C 0.03109 0.71704 0.52512 0.0
C956 C 0.03477 0.69487 0.555 0.0
C957 C 0.02381 0.70896 0.56725 0.0
C958 C 0.01528 0.72643 0.55791 0.0
C959 C 0.01894 0.73048 0.53701 0.0
H960 H 0.88076 0.41305 0.73848 0.0
H961 H 0.88233 0.39993 0.67264 0.0
H962 H 0.91828 0.41769 0.73938 0.0
H963 H 0.91969 0.40579 0.67316 0.0
H964 H 0.98863 0.41184 0.67893 0.0
H965 H 0.95379 0.39697 0.6826 0.0
H966 H 0.94092 0.44363 0.72932 0.0
H967 H 0.97581 0.45736 0.7266 0.0
C968 C 0.88918 0.41111 0.7242 0.0
C969 C 0.87863 0.40639 0.70545 0.0
C970 C 0.91069 0.41388 0.72466 0.0
C971 C 0.9221 0.41252 0.70627 0.0
C972 C 0.91157 0.40678 0.68769 0.0
C973 C 0.89008 0.40357 0.68733 0.0
C974 C 0.97846 0.41851 0.69034 0.0
C975 C 0.98483 0.43599 0.70221 0.0
C976 C 0.95841 0.41016 0.69228 0.0
C977 C 0.94433 0.4192 0.70608 0.0
C978 C 0.95123 0.43601 0.71868 0.0
C979 C 0.97122 0.44415 0.71689 0.0
H980 H 0.60165 0.50794 0.25075 0.0
H981 H 0.61019 0.55414 0.20383 0.0
H982 H 0.56415 0.50999 0.24603 0.0
H983 H 0.57262 0.55603 0.19904 0.0
H984 H 0.51104 0.52026 0.17571 0.0
H985 H 0.5474 0.52864 0.18387 0.0
H986 H 0.53299 0.53376 0.24893 0.0
H987 H 0.49645 0.52558 0.24057 0.0
C988 C 0.59552 0.51878 0.23968 0.0
C989 C 0.60888 0.53074 0.22754 0.0
C990 C 0.57404 0.52005 0.23709 0.0
C991 C 0.5655 0.53313 0.22212 0.0
C992 C 0.57882 0.54576 0.21061 0.0
C993 C 0.6003 0.54469 0.21341 0.0
C994 C 0.51561 0.52384 0.19164 0.0
C995 C 0.50111 0.52247 0.20752 0.0
C996 C 0.53636 0.52865 0.19633 0.0
C997 C 0.54301 0.53179 0.21705 0.0
C998 C 0.52826 0.53135 0.23285 0.0
C999 C 0.50741 0.52684 0.22809 0.0
H1000 H 0.42567 0.00552 0.25674 0.0
H1001 H 0.41063 0.04902 0.30559 0.0
H1002 H 0.46158 0.00537 0.26931 0.0
H1003 H 0.44658 0.04852 0.31839 0.0
H1004 H 0.52784 0.0195 0.28873 0.0
H1005 H 0.49393 0.03004 0.27519 0.0
H1006 H 0.46689 0.01754 0.33458 0.0
H1007 H 0.50069 0.00663 0.34788 0.0
C1008 C 0.4301 0.01522 0.27001 0.0
C1009 C 0.41534 0.02719 0.28024 0.0
C1010 C 0.45067 0.01525 0.27711 0.0
C1011 C 0.45681 0.02697 0.29479 0.0
C1012 C 0.4422 0.03937 0.30472 0.0
C1013 C 0.42169 0.03966 0.29737 0.0
C1014 C 0.51474 0.0197 0.29901 0.0
C1015 C 0.51673 0.01246 0.31933 0.0
C1016 C 0.49538 0.02555 0.29126 0.0
C1017 C 0.47784 0.02452 0.30384 0.0
C1018 C 0.4802 0.01867 0.32464 0.0
C1019 C 0.49947 0.01246 0.33225 0.0
H1020 H 0.05728 -0.00164 0.73014 0.0
H1021 H 0.07189 0.95173 0.77508 0.0
H1022 H 0.02081 -0.00399 0.73949 0.0
H1023 H 0.03537 0.94971 0.78469 0.0
H1024 H 0.97721 0.98533 0.81362 0.0
H1025 H 0.01246 0.97828 0.80232 0.0
H1026 H 0.98966 0.96904 0.73941 0.0
H1027 H 0.95429 0.97569 0.75089 0.0
C1028 C 0.05267 0.98749 0.74187 0.0
C1029 C 0.06743 0.9753 0.75195 0.0
C1030 C 0.03179 0.98603 0.74711 0.0
C1031 C 0.02533 0.97264 0.76276 0.0
C1032 C 0.04 0.96014 0.77256 0.0
C1033 C 0.06084 0.96129 0.76703 0.0
C1034 C 0.97973 0.98114 0.79753 0.0
C1035 C 0.96319 0.9809 0.7831 0.0
C1036 C -0.00018 0.97711 0.79106 0.0
C1037 C 0.00372 0.97321 0.76999 0.0
C1038 C 0.98701 0.97206 0.75573 0.0
C1039 C 0.96683 0.9757 0.76228 0.0
H1040 H 0.72399 0.91088 0.45791 0.0
H1041 H 0.67539 0.88761 0.41638 0.0
H1042 H 0.71215 0.94613 0.45278 0.0
H1043 H 0.66336 0.92296 0.41154 0.0
H1044 H 0.63415 0.98311 0.44422 0.0
H1045 H 0.64708 0.94814 0.43854 0.0
H1046 H 0.70728 0.9737 0.42414 0.0
H1047 H 0.69416 0.00875 0.42951 0.0
C1048 C 0.71093 0.91332 0.44751 0.0
C1049 C 0.70054 0.89649 0.43764 0.0
C1050 C 0.70426 0.9335 0.44445 0.0
C1051 C 0.68688 0.93723 0.43173 0.0
C1052 C 0.67681 0.92047 0.42142 0.0
C1053 C 0.68372 0.90029 0.42418 0.0
C1054 C 0.64993 0.9812 0.43916 0.0
C1055 C 0.66318 -0.00151 0.43721 0.0
C1056 C 0.65732 0.96125 0.4359 0.0
C1057 C 0.6782 0.95827 0.43104 0.0
C1058 C 0.69114 0.97563 0.42795 0.0
C1059 C 0.68363 -0.00438 0.43085 0.0
H1060 H 0.72918 0.0646 -0.00442 0.0
H1061 H 0.75614 0.06484 0.93469 0.0
H1062 H 0.73162 0.02721 -0.00372 0.0
H1063 H 0.75811 0.0271 0.93515 0.0
H1064 H 0.78408 0.96447 0.96057 0.0
H1065 H 0.77771 0.00079 0.95288 0.0
H1066 H 0.71778 -0.0043 0.9815 0.0
H1067 H 0.72463 0.95974 0.98976 0.0
C1068 C 0.73539 0.05664 0.98221 0.0
C1069 C 0.74252 0.06772 0.96512 0.0
C1070 C 0.73664 0.03512 0.98252 0.0
C1071 C 0.74494 0.02408 0.96569 0.0
C1072 C 0.75178 0.03513 0.94842 0.0
C1073 C 0.75057 0.05674 0.94813 0.0
C1074 C 0.76936 0.97106 0.96466 0.0
C1075 C 0.75489 0.9595 0.97584 0.0
C1076 C 0.76567 -0.00816 0.96029 0.0
C1077 C 0.74738 0.00128 0.96694 0.0
C1078 C 0.73225 0.98908 0.97664 0.0
C1079 C 0.73604 0.96846 0.98119 0.0
H1080 H 0.24655 0.56899 0.49992 0.0
H1081 H 0.20128 0.59237 0.54254 0.0
H1082 H 0.23355 0.53378 0.50518 0.0
H1083 H 0.18801 0.55705 0.54746 0.0
H1084 H 0.15509 0.49665 0.51482 0.0
H1085 H 0.16941 0.53172 0.52015 0.0
H1086 H 0.22928 0.50643 0.53468 0.0
H1087 H 0.21477 0.4713 0.52972 0.0
C1088 C 0.23396 0.56657 0.51056 0.0
C1089 C 0.22486 0.58342 0.52074 0.0
C1090 C 0.22663 0.54642 0.51369 0.0
C1091 C 0.20983 0.54275 0.52677 0.0
C1092 C 0.201 0.55952 0.53732 0.0
C1093 C 0.20862 0.57967 0.53452 0.0
C1094 C 0.17111 0.49865 0.51986 0.0
C1095 C 0.18385 0.48142 0.52199 0.0
C1096 C 0.1793 0.51865 0.52291 0.0
C1097 C 0.20046 0.52172 0.5277 0.0
C1098 C 0.21293 0.50443 0.53093 0.0
C1099 C 0.20463 0.4844 0.52827 0.0
H1100 H 0.30386 0.42377 0.05038 0.0
H1101 H 0.3051 0.42158 0.98335 0.0
H1102 H 0.31763 0.45946 0.05019 0.0
H1103 H 0.31901 0.45682 0.98328 0.0
H1104 H 0.36444 0.50906 0.98935 0.0
H1105 H 0.35399 0.47351 -0.00331 0.0
H1106 H 0.30482 0.49586 0.03514 0.0
H1107 H 0.31514 0.53165 0.02754 0.0
C1108 C 0.30703 0.43089 0.03565 0.0
C1109 C 0.30342 0.41987 0.01687 0.0
C1110 C 0.31488 0.45126 0.03558 0.0
C1111 C 0.31962 0.46071 0.01675 0.0
C1112 C 0.31579 0.44975 -0.00197 0.0
C1113 C 0.30767 0.42963 -0.00192 0.0
C1114 C 0.35172 0.50639 -0.00022 0.0
C1115 C 0.3404 0.52306 0.00764 0.0
C1116 C 0.34571 0.48608 0.00391 0.0
C1117 C 0.32838 0.48202 0.01614 0.0
C1118 C 0.31823 0.49864 0.02565 0.0
C1119 C 0.32419 0.51907 0.02138 0.0
H1120 H 0.47751 0.72509 0.90772 0.0
H1121 H 0.43038 0.68401 0.88089 0.0
H1122 H 0.46772 0.71441 0.9424 0.0
H1123 H 0.42085 0.67303 0.91573 0.0
H1124 H 0.44505 0.63925 0.9781 0.0
H1125 H 0.44316 0.65258 0.94281 0.0
H1126 H 0.43637 0.7145 0.96765 0.0
H1127 H 0.43791 0.70104 0.00296 0.0
C1128 C 0.4649 0.71395 0.90925 0.0
C1129 C 0.45479 0.7053 0.89161 0.0
C1130 C 0.45919 0.70798 0.9291 0.0
C1131 C 0.44348 0.69296 0.9317 0.0
C1132 C 0.43298 0.68467 0.9141 0.0
C1133 C 0.43843 0.69097 0.89423 0.0
C1134 C 0.44235 0.65558 0.97593 0.0
C1135 C 0.44156 0.66915 -0.00688 0.0
C1136 C 0.44128 0.66321 0.95579 0.0
C1137 C 0.4398 0.68458 0.95257 0.0
C1138 C 0.4376 0.69797 0.96977 0.0
C1139 C 0.4383 0.69028 0.98991 0.0
H1140 H 0.96406 0.7801 0.08816 0.0
H1141 H 0.00945 0.73784 0.06455 0.0
H1142 H 0.95719 0.79203 0.05284 0.0
H1143 H 0.00226 0.74946 0.02934 0.0
H1144 H 0.97441 0.76401 0.96678 0.0
H1145 H 0.9715 0.75042 0.00194 0.0
H1146 H 0.98228 0.81191 0.02754 0.0
H1147 H 0.98559 0.82535 -0.00758 0.0
C1148 C 0.97232 0.77315 0.07541 0.0
C1149 C 0.98739 0.75814 0.0791 0.0
C1150 C 0.96839 0.77998 0.05526 0.0
C1151 C 0.97911 0.77156 0.03842 0.0
C1152 C -0.0064 0.75601 0.04203 0.0
C1153 C -0.00217 0.7495 0.06219 0.0
C1154 C 0.97545 0.77466 0.97994 0.0
C1155 C 0.98012 0.79568 0.97705 0.0
C1156 C 0.97396 0.76689 -1e-05 0.0
C1157 C 0.97678 0.78013 0.01738 0.0
C1158 C 0.97989 0.80142 0.01439 0.0
C1159 C 0.98177 0.80911 -0.00563 0.0
H1160 H 0.56165 0.22427 0.61363 0.0
H1161 H 0.49975 0.24806 0.60757 0.0
H1162 H 0.56483 0.22417 0.57591 0.0
H1163 H 0.50265 0.2474 0.57011 0.0
H1164 H 0.54575 0.19704 0.50988 0.0
H1165 H 0.55071 0.20411 0.54703 0.0
H1166 H 0.51852 0.26181 0.54057 0.0
H1167 H 0.51297 0.2542 0.50365 0.0
C1168 C 0.5488 0.22966 0.60428 0.0
C1169 C 0.5304 0.23607 0.61361 0.0
C1170 C 0.55059 0.2295 0.58265 0.0
C1171 C 0.53401 0.23574 0.56991 0.0
C1172 C 0.51591 0.24283 0.57937 0.0
C1173 C 0.51415 0.24305 0.60092 0.0
C1174 C 0.54031 0.21149 0.51638 0.0
C1175 C 0.52885 0.22501 0.50407 0.0
C1176 C 0.54312 0.21558 0.53765 0.0
C1177 C 0.53466 0.23336 0.5469 0.0
C1178 C 0.52477 0.24771 0.53408 0.0
C1179 C 0.52175 0.24349 0.51293 0.0
H1180 H 0.97885 0.25988 0.38008 0.0
H1181 H 0.04214 0.28287 0.38155 0.0
H1182 H 0.97942 0.25814 0.41766 0.0
H1183 H 0.04289 0.28067 0.41938 0.0
H1184 H 0.02049 0.30417 0.48486 0.0
H1185 H 0.02751 0.29941 0.44796 0.0
H1186 H -0.00687 0.24138 0.44757 0.0
H1187 H 0.98568 0.24657 0.48426 0.0
C1188 C -0.00696 0.26421 0.38841 0.0
C1189 C 0.01039 0.27165 0.37781 0.0
C1190 C -0.00657 0.26306 0.41002 0.0
C1191 C 0.01122 0.26926 0.42161 0.0
C1192 C 0.02887 0.27598 0.41095 0.0
C1193 C 0.02847 0.27714 0.38927 0.0
C1194 C 0.01499 0.29014 0.47697 0.0
C1195 C 0.00238 0.27584 0.48726 0.0
C1196 C 0.01898 0.28738 0.45583 0.0
C1197 C 0.01053 0.27019 0.44469 0.0
C1198 C -0.00058 0.25504 0.45554 0.0
C1199 C -0.00471 0.25791 0.47657 0.0
H1200 H 0.14832 0.46221 0.35213 0.0
H1201 H 0.21242 0.44685 0.36317 0.0
H1202 H 0.13979 0.45041 0.38671 0.0
H1203 H 0.20402 0.43565 0.39787 0.0
H1204 H 0.14431 0.46317 0.45817 0.0
H1205 H 0.14654 0.46491 0.42064 0.0
H1206 H 0.18652 0.41196 0.42034 0.0
H1207 H 0.18494 0.41082 0.45812 0.0
C1208 C 0.16056 0.45612 0.36184 0.0
C1209 C 0.18112 0.45576 0.35498 0.0
C1210 C 0.15567 0.44941 0.38169 0.0
C1211 C 0.17124 0.4423 0.39519 0.0
C1212 C 0.19157 0.44081 0.38785 0.0
C1213 C 0.19644 0.44741 0.36797 0.0
C1214 C 0.15331 0.45171 0.45005 0.0
C1215 C 0.1647 0.43708 0.46112 0.0
C1216 C 0.15444 0.45256 0.42848 0.0
C1217 C 0.16694 0.43873 0.41746 0.0
C1218 C 0.17705 0.42307 0.4284 0.0
C1219 C 0.17594 0.42225 0.45003 0.0
H1220 H 0.27611 0.54105 0.85692 0.0
H1221 H 0.33841 0.53283 0.8351 0.0
H1222 H 0.28991 0.55602 0.88924 0.0
H1223 H 0.35223 0.54841 0.86728 0.0
H1224 H 0.31752 0.58835 0.94432 0.0
H1225 H 0.30836 0.58368 0.90753 0.0
H1226 H 0.35459 0.5364 0.9021 0.0
H1227 H 0.36413 0.54165 0.93847 0.0
C1228 C 0.29276 0.54281 0.85884 0.0
C1229 C 0.30615 0.53543 0.84354 0.0
C1230 C 0.30069 0.55159 0.87734 0.0
C1231 C 0.32221 0.55332 0.88095 0.0
C1232 C 0.33559 0.547 0.86515 0.0
C1233 C 0.32765 0.53811 0.84668 0.0
C1234 C 0.32616 0.57748 0.93503 0.0
C1235 C 0.34135 0.56517 0.94427 0.0
C1236 C 0.32076 0.57462 0.91404 0.0
C1237 C 0.33049 0.55942 0.90192 0.0
C1238 C 0.34682 0.54832 0.91085 0.0
C1239 C 0.3522 0.5512 0.93177 0.0
H1240 H 0.66283 -0.00588 0.59541 0.0
H1241 H 0.66431 0.05962 0.61023 0.0
H1242 H 0.6535 0.00151 0.55971 0.0
H1243 H 0.65463 0.06702 0.57426 0.0
H1244 H 0.66908 0.06693 0.50236 0.0
H1245 H 0.67129 0.06445 0.5401 0.0
H1246 H 0.62577 0.01459 0.53777 0.0
H1247 H 0.6238 0.01694 0.50005 0.0
C1248 C 0.66097 0.01012 0.59111 0.0
C1249 C 0.66444 0.02628 0.60568 0.0
C1250 C 0.65542 0.01435 0.57064 0.0
C1251 C 0.6532 0.03486 0.56415 0.0
C1252 C 0.65632 0.05107 0.57877 0.0
C1253 C 0.6618 0.04681 0.59937 0.0
C1254 C 0.65911 0.05587 0.50999 0.0
C1255 C 0.64647 0.04194 0.49829 0.0
C1256 C 0.66038 0.05443 0.53162 0.0
C1257 C 0.64899 0.03906 0.54189 0.0
C1258 C 0.63511 0.02627 0.53026 0.0
C1259 C 0.6339 0.02766 0.50869 0.0
H1260 H 0.77383 0.96972 0.1383 0.0
H1261 H 0.79413 0.90746 0.14958 0.0
H1262 H 0.76841 0.96095 0.10175 0.0
H1263 H 0.78858 0.89869 0.11278 0.0
H1264 H 0.79827 0.90395 0.04006 0.0
H1265 H 0.80301 0.90826 0.07769 0.0
H1266 H 0.74385 0.93819 0.08107 0.0
H1267 H 0.73907 0.93377 0.04367 0.0
C1268 C 0.77719 0.95417 0.133 0.0
C1269 C 0.78435 0.93928 0.1469 0.0
C1270 C 0.77393 0.9491 0.11206 0.0
C1271 C 0.77785 0.92906 0.10447 0.0
C1272 C 0.78545 0.91425 0.11822 0.0
C1273 C 0.78856 0.91928 0.13928 0.0
C1274 C 0.78609 0.91099 0.04894 0.0
C1275 C 0.76844 0.91879 0.03892 0.0
C1276 C 0.78882 0.91351 0.07045 0.0
C1277 C 0.77397 0.92391 0.08222 0.0
C1278 C 0.75578 0.93055 0.07232 0.0
C1279 C 0.75302 0.92798 0.05093 0.0
H1280 H 0.35768 0.22278 0.4533 0.0
H1281 H 0.37085 0.16981 0.4911 0.0
H1282 H 0.39399 0.22479 0.44346 0.0
H1283 H 0.40713 0.17187 0.48114 0.0
H1284 H 0.46965 0.17429 0.44979 0.0
H1285 H 0.43183 0.16959 0.45049 0.0
H1286 H 0.42561 0.23448 0.46581 0.0
H1287 H 0.46323 0.23905 0.46525 0.0
C1288 C 0.36822 0.21135 0.45924 0.0
C1289 C 0.36142 0.19627 0.47318 0.0
C1290 C 0.38901 0.21256 0.45362 0.0
C1291 C 0.40336 0.19855 0.46161 0.0
C1292 C 0.39636 0.18276 0.47462 0.0
C1293 C 0.37562 0.18169 0.48043 0.0
C1294 C 0.46008 0.18757 0.45284 0.0
C1295 C 0.46921 0.20701 0.45753 0.0
C1296 C 0.43854 0.18487 0.45336 0.0
C1297 C 0.42584 0.20166 0.45825 0.0
C1298 C 0.435 0.22131 0.4618 0.0
C1299 C 0.45649 0.22393 0.46159 0.0
H1300 H 0.14049 0.77751 0.94445 0.0
H1301 H 0.14684 0.84283 0.95919 0.0
H1302 H 0.10473 0.78246 0.93348 0.0
H1303 H 0.11116 0.84789 0.94763 0.0
H1304 H 0.04056 0.8386 0.95945 0.0
H1305 H 0.07818 0.83915 0.96188 0.0
H1306 H 0.08047 0.79707 0.90914 0.0
H1307 H 0.04261 0.79596 0.90727 0.0
C1308 C 0.13438 0.793 0.94501 0.0
C1309 C 0.14645 0.80971 0.95299 0.0
C1310 C 0.11389 0.79589 0.93852 0.0
C1311 C 0.105 0.81558 0.93977 0.0
C1312 C 0.11742 0.83247 0.94677 0.0
C1313 C 0.13789 0.82957 0.95336 0.0
C1314 C 0.04913 0.82974 0.94817 0.0
C1315 C 0.03866 0.817 0.93338 0.0
C1316 C 0.07073 0.83018 0.94943 0.0
C1317 C 0.08238 0.81794 0.93587 0.0
C1318 C 0.07193 0.8064 0.92006 0.0
C1319 C 0.05026 0.80595 0.91881 0.0
H1320 H 0.84389 0.32389 0.48959 0.0
H1321 H 0.82947 0.2675 0.52191 0.0
H1322 H 0.87948 0.32288 0.50289 0.0
H1323 H 0.86504 0.26659 0.53518 0.0
H1324 H 0.93538 0.25692 0.51987 0.0
H1325 H 0.89788 0.25987 0.51604 0.0
H1326 H 0.90255 0.32418 0.53524 0.0
H1327 H 0.94027 0.32111 0.53911 0.0
C1328 C 0.8482 0.31146 0.49978 0.0
C1329 C 0.83389 0.29563 0.50446 0.0
C1330 C 0.86855 0.31098 0.50752 0.0
C1331 C 0.87504 0.29459 0.51997 0.0
C1332 C 0.8605 0.27931 0.52546 0.0
C1333 C 0.84011 0.27987 0.51788 0.0
C1334 C 0.9283 0.27155 0.52367 0.0
C1335 C 0.94061 0.2888 0.52971 0.0
C1336 C 0.90686 0.27323 0.52159 0.0
C1337 C 0.89732 0.29229 0.52527 0.0
C1338 C 0.90955 0.30935 0.53219 0.0
C1339 C 0.93104 0.30757 0.53455 0.0
H1340 H 0.59599 0.65384 0.98761 0.0
H1341 H 0.61213 0.65951 0.05285 0.0
H1342 H 0.5602 0.64659 -0.00371 0.0
H1343 H 0.5761 0.65186 0.06158 0.0
H1344 H 0.50558 0.67098 0.06145 0.0
H1345 H 0.54319 0.67008 0.05852 0.0
H1346 H 0.53675 0.62171 0.01161 0.0
H1347 H 0.49912 0.6229 0.01435 0.0
C1348 C 0.59196 0.65328 0.00384 0.0
C1349 C 0.60692 0.65742 0.01952 0.0
C1350 C 0.57142 0.64891 0.00884 0.0
C1351 C 0.56527 0.64856 0.02965 0.0
C1352 C 0.58033 0.65215 0.0454 0.0
C1353 C 0.60097 0.65647 0.04039 0.0
C1354 C 0.51225 0.6597 0.05101 0.0
C1355 C 0.49946 0.64719 0.03794 0.0
C1356 C 0.53381 0.65919 0.0493 0.0
C1357 C 0.54295 0.6461 0.03453 0.0
C1358 C 0.53016 0.63231 0.02278 0.0
C1359 C 0.50864 0.6329 0.02443 0.0
H1360 H 0.47364 0.35718 0.22657 0.0
H1361 H 0.4848 0.35373 0.16068 0.0
H1362 H 0.46197 0.3925 0.22305 0.0
H1363 H 0.47255 0.38899 0.15707 0.0
H1364 H 0.43385 0.45367 0.21173 0.0
H1365 H 0.43653 0.416 0.20967 0.0
H1366 H 0.48692 0.42235 0.1668 0.0
H1367 H 0.48367 0.45975 0.16829 0.0
C1368 C 0.47325 0.36382 0.21125 0.0
C1369 C 0.48045 0.3527 0.19396 0.0
C1370 C 0.46637 0.38406 0.2092 0.0
C1371 C 0.46643 0.39367 0.18979 0.0
C1372 C 0.47262 0.38217 0.17231 0.0
C1373 C 0.47958 0.36193 0.17437 0.0
C1374 C 0.44508 0.44694 0.20142 0.0
C1375 C 0.45874 0.45964 0.19038 0.0
C1376 C 0.44678 0.42539 0.20041 0.0
C1377 C 0.46213 0.41614 0.18829 0.0
C1378 C 0.47483 0.42887 0.17619 0.0
C1379 C 0.47313 0.45035 0.1772 0.0
H1380 H 0.95252 0.14784 0.83358 0.0
H1381 H 0.93937 0.14448 0.76761 0.0
H1382 H 0.93919 0.11256 0.83706 0.0
H1383 H 0.92661 0.10911 0.77101 0.0
H1384 H 0.89708 0.04777 0.78183 0.0
H1385 H 0.9008 0.08547 0.78418 0.0
H1386 H 0.9522 0.0793 0.82739 0.0
H1387 H 0.94794 0.04187 0.82558 0.0
C1388 C 0.94665 0.13965 0.81984 0.0
C1389 C 0.94727 0.14891 0.80027 0.0
C1390 C 0.93906 0.1194 0.82184 0.0
C1391 C 0.93198 0.10791 0.8043 0.0
C1392 C 0.93169 0.11755 0.7849 0.0
C1393 C 0.9392 0.13781 0.78291 0.0
C1394 C 0.90873 0.05454 0.7923 0.0
C1395 C 0.92239 0.04191 0.80333 0.0
C1396 C 0.91103 0.07611 0.79347 0.0
C1397 C 0.927 0.08542 0.80574 0.0
C1398 C 0.93966 0.07274 0.81788 0.0
C1399 C 0.93736 0.05125 0.81671 0.0
H1400 H 0.53099 0.85071 0.27189 0.0
H1401 H 0.51363 0.83777 0.33489 0.0
H1402 H 0.54432 0.88464 0.2831 0.0
H1403 H 0.52741 0.87155 0.34617 0.0
H1404 H 0.5231 0.94335 0.3485 0.0
H1405 H 0.51633 0.90667 0.34175 0.0
H1406 H 0.57046 0.90408 0.30331 0.0
H1407 H 0.57681 0.94109 0.30959 0.0
C1408 C 0.53029 0.85497 0.28819 0.0
C1409 C 0.521 0.8416 0.30244 0.0
C1410 C 0.5381 0.87438 0.29466 0.0
C1411 C 0.53686 0.88086 0.31553 0.0
C1412 C 0.52834 0.86715 0.32993 0.0
C1413 C 0.52049 0.84775 0.32345 0.0
C1414 C 0.5337 0.93487 0.33882 0.0
C1415 C 0.55034 0.94513 0.32939 0.0
C1416 C 0.52993 0.9138 0.33508 0.0
C1417 C 0.54275 0.90246 0.32182 0.0
C1418 C 0.56012 0.91245 0.31336 0.0
C1419 C 0.56391 0.93359 0.31714 0.0
H1420 H 0.04507 0.61411 0.69223 0.0
H1421 H 0.97926 0.60394 0.69973 0.0
H1422 H 0.05011 0.5767 0.69153 0.0
H1423 H 0.98433 0.56673 0.69885 0.0
H1424 H 0.00377 0.50435 0.72265 0.0
H1425 H 0.00092 0.54182 0.7225 0.0
H1426 H 0.04125 0.5447 0.66982 0.0
H1427 H 0.04397 0.50691 0.66982 0.0
C1428 C 0.03168 0.60393 0.69362 0.0
C1429 C 0.01177 0.61202 0.69618 0.0
C1430 C 0.03457 0.58252 0.69311 0.0
C1431 C 0.01765 0.56882 0.69532 0.0
C1432 C -0.00228 0.57693 0.69746 0.0
C1433 C -0.00519 0.59826 0.69784 0.0
C1434 C 0.01197 0.51294 0.71096 0.0
C1435 C 0.02384 0.50265 0.69604 0.0
C1436 C 0.01033 0.5344 0.71088 0.0
C1437 C 0.02061 0.54614 0.69596 0.0
C1438 C 0.03319 0.53601 0.68153 0.0
C1439 C 0.03477 0.51442 0.68155 0.0
H1440 H 0.79467 0.43907 0.63793 0.0
H1441 H 0.76232 0.47914 0.68019 0.0
H1442 H 0.78227 0.45905 0.6088 0.0
H1443 H 0.74944 0.49905 0.65084 0.0
H1444 H 0.76737 0.50197 0.55932 0.0
H1445 H 0.78403 0.49239 0.59198 0.0
H1446 H 0.72453 0.49231 0.62169 0.0
H1447 H 0.708 0.50225 0.58906 0.0
C1448 C 0.78503 0.45229 0.64101 0.0
C1449 C 0.77891 0.45711 0.66129 0.0
C1450 C 0.778 0.46384 0.62431 0.0
C1451 C 0.76477 0.48061 0.62748 0.0
C1452 C 0.75934 0.48601 0.64787 0.0
C1453 C 0.76649 0.47445 0.66465 0.0
C1454 C 0.75799 0.50048 0.57302 0.0
C1455 C 0.7364 0.50263 0.57166 0.0
C1456 C 0.76748 0.49487 0.59166 0.0
C1457 C 0.75554 0.49115 0.6093 0.0
C1458 C 0.73418 0.49512 0.60841 0.0
C1459 C 0.7247 0.50085 0.58974 0.0
H1460 H 0.67092 0.49895 0.15434 0.0
H1461 H 0.70532 0.44717 0.17752 0.0
H1462 H 0.67809 0.4881 0.119 0.0
H1463 H 0.71213 0.43601 0.14196 0.0
H1464 H 0.74825 0.45005 0.08079 0.0
H1465 H 0.73456 0.45005 0.11571 0.0
H1466 H 0.67359 0.46308 0.09102 0.0
H1467 H 0.68746 0.46334 0.05601 0.0
C1468 C 0.67963 0.48498 0.1519 0.0
C1469 C 0.6878 0.47412 0.16879 0.0
C1470 C 0.68361 0.47863 0.13157 0.0
C1471 C 0.69583 0.46124 0.12762 0.0
C1472 C 0.70292 0.44963 0.14449 0.0
C1473 C 0.69893 0.45599 0.16486 0.0
C1474 C 0.7318 0.45223 0.08275 0.0
C1475 C 0.71898 0.45694 0.06571 0.0
C1476 C 0.72391 0.45223 0.1028 0.0
C1477 C 0.70302 0.45688 0.10621 0.0
C1478 C 0.68984 0.45988 0.08896 0.0
C1479 C 0.69775 0.45996 0.06892 0.0
H1480 H 0.32261 0.01661 0.33113 0.0
H1481 H 0.28677 0.96742 0.30082 0.0
H1482 H 0.30709 0.00817 0.36404 0.0
H1483 H 0.27093 0.95901 0.33393 0.0
H1484 H 0.23006 0.97254 0.39267 0.0
H1485 H 0.24684 0.97404 0.35897 0.0
H1486 H 0.30641 0.98189 0.39003 0.0
H1487 H 0.28953 0.98088 0.42357 0.0
C1488 C 0.31143 0.00392 0.33152 0.0
C1489 C 0.30555 -0.00699 0.31328 0.0
C1490 C 0.30261 -0.00102 0.35043 0.0
C1491 C 0.28779 0.98286 0.35165 0.0
C1492 C 0.28209 0.9717 0.33345 0.0
C1493 C 0.29099 0.97665 0.31445 0.0
C1494 C 0.24678 0.97406 0.39222 0.0
C1495 C 0.25851 0.97683 0.41065 0.0
C1496 C 0.25641 0.97493 0.37294 0.0
C1497 C 0.27793 0.97848 0.37182 0.0
C1498 C 0.28975 0.97967 0.39035 0.0
C1499 C 0.28013 0.97896 0.40955 0.0
H1500 H 0.16192 0.98424 0.80915 0.0
H1501 H 0.19894 0.03186 0.78065 0.0
H1502 H 0.18131 0.98971 0.8417 0.0
H1503 H 0.2186 0.03717 0.81329 0.0
H1504 H 0.23392 0.05034 0.88477 0.0
H1505 H 0.21342 0.04862 0.85231 0.0
H1506 H 0.21946 0.98223 0.85029 0.0
H1507 H 0.24036 0.98388 0.88194 0.0
C1508 C 0.17412 -0.00403 0.8099 0.0
C1509 C 0.1793 0.00726 0.79226 0.0
C1510 C 0.18526 -0.00096 0.82848 0.0
C1511 C 0.2016 0.01368 0.82989 0.0
C1512 C 0.20611 0.02575 0.81257 0.0
C1513 C 0.19508 0.02251 0.79386 0.0
C1514 C 0.23103 0.03543 0.87727 0.0
C1515 C 0.23847 0.01722 0.88621 0.0
C1516 C 0.21927 0.03445 0.85876 0.0
C1517 C 0.21461 0.01525 0.84904 0.0
C1518 C 0.22242 -0.00281 0.85772 0.0
C1519 C 0.23432 -0.00184 0.87595 0.0
H1520 H 0.68263 0.77434 0.51108 0.0
H1521 H 0.64822 0.80616 0.46371 0.0
H1522 H 0.65077 0.75666 0.52167 0.0
H1523 H 0.61652 0.78873 0.47423 0.0
H1524 H 0.5596 0.7647 0.50268 0.0
H1525 H 0.59154 0.78539 0.50146 0.0
H1526 H 0.62733 0.72979 0.50674 0.0
H1527 H 0.59532 0.7092 0.50835 0.0
C1528 C 0.66831 0.77739 0.50281 0.0
C1529 C 0.66799 0.79114 0.48617 0.0
C1530 C 0.65004 0.76743 0.509 0.0
C1531 C 0.63111 0.77119 0.49874 0.0
C1532 C 0.63075 0.78564 0.48267 0.0
C1533 C 0.64895 0.79557 0.47654 0.0
C1534 C 0.57433 0.757 0.50401 0.0
C1535 C 0.57502 0.73536 0.50539 0.0
C1536 C 0.5926 0.76881 0.50321 0.0
C1537 C 0.61198 0.75921 0.5036 0.0
C1538 C 0.61268 0.73769 0.5065 0.0
C1539 C 0.59435 0.72588 0.50743 0.0
H1540 H 0.7814 0.19264 0.02422 0.0
H1541 H 0.81331 0.15717 0.97774 0.0
H1542 H 0.8145 0.20711 0.03711 0.0
H1543 H 0.84628 0.17171 0.99027 0.0
H1544 H 0.87506 0.24775 0.03259 0.0
H1545 H 0.84115 0.23091 0.02715 0.0
H1546 H 0.87103 0.17222 0.01762 0.0
H1547 H 0.90483 0.18942 0.02212 0.0
C1548 C 0.79547 0.18819 0.01657 0.0
C1549 C 0.79477 0.17415 -0.00032 0.0
C1550 C 0.81446 0.19636 0.02404 0.0
C1551 C 0.83313 0.19061 0.01477 0.0
C1552 C 0.83232 0.17622 -0.00189 0.0
C1553 C 0.81339 0.16799 0.99078 0.0
C1554 C 0.87423 0.23116 0.02991 0.0
C1555 C 0.89241 0.21982 0.02773 0.0
C1556 C 0.85483 0.22147 0.02677 0.0
C1557 C 0.85333 0.20023 0.02155 0.0
C1558 C 0.8716 0.18868 0.02104 0.0
C1559 C 0.89094 0.19842 0.02388 0.0
H1560 H 0.20033 0.72062 0.49634 0.0
H1561 H 0.18028 0.66437 0.46468 0.0
H1562 H 0.16703 0.736 0.48912 0.0
H1563 H 0.14598 0.67883 0.45922 0.0
H1564 H 0.08619 0.71111 0.44651 0.0
H1565 H 0.12304 0.70311 0.44349 0.0
H1566 H 0.13487 0.73097 0.50415 0.0
H1567 H 0.09867 0.73962 0.50656 0.0
C1568 C 0.18909 0.71187 0.48707 0.0
C1569 C 0.19324 0.69164 0.48042 0.0
C1570 C 0.16969 0.72043 0.48344 0.0
C1571 C 0.15364 0.70863 0.47373 0.0
C1572 C 0.15799 0.68853 0.46646 0.0
C1573 C 0.17759 0.68014 0.46978 0.0
C1574 C 0.09688 0.71598 0.45886 0.0
C1575 C 0.0896 0.72573 0.47688 0.0
C1576 C 0.11792 0.71121 0.45727 0.0
C1577 C 0.13198 0.7162 0.47364 0.0
C1578 C 0.12471 0.72707 0.49107 0.0
C1579 C 0.10384 0.73185 0.4926 0.0
H1580 H 0.35193 0.32346 0.01745 0.0
H1581 H 0.3268 0.29775 0.95989 0.0
H1582 H 0.38603 0.31087 0.00865 0.0
H1583 H 0.36103 0.28496 0.95105 0.0
H1584 H 0.4223 0.24667 0.95755 0.0
H1585 H 0.38724 0.25966 0.962 0.0
H1586 H 0.41294 0.3184 0.98394 0.0
H1587 H 0.44782 0.30531 0.97976 0.0
C1588 C 0.35369 0.31498 0.00295 0.0
C1589 C 0.3366 0.31121 0.98957 0.0
C1590 C 0.37325 0.3079 -0.00218 0.0
C1591 C 0.37628 0.29703 0.97906 0.0
C1592 C 0.35915 0.29307 0.96572 0.0
C1593 C 0.33949 0.30019 0.97089 0.0
C1594 C 0.42039 0.26251 0.96286 0.0
C1595 C 0.43773 0.27493 0.96853 0.0
C1596 C 0.40033 0.26993 0.96546 0.0
C1597 C 0.39732 0.28992 0.97372 0.0
C1598 C 0.41474 0.30275 0.97807 0.0
C1599 C 0.4347 0.29532 0.97556 0.0
H1600 H 0.52579 0.67308 0.76925 0.0
H1601 H 0.47438 0.64895 0.80396 0.0
H1602 H 0.52831 0.63974 0.75078 0.0
H1603 H 0.4772 0.61569 0.78598 0.0
H1604 H 0.4673 0.57378 0.7294 0.0
H1605 H 0.46908 0.60626 0.74882 0.0
H1606 H 0.53542 0.60088 0.75555 0.0
H1607 H 0.53362 0.56777 0.73611 0.0
C1608 C 0.51503 0.66069 0.77288 0.0
C1609 C 0.49945 0.66378 0.78753 0.0
C1610 C 0.51668 0.64154 0.76256 0.0
C1611 C 0.50269 0.62528 0.76668 0.0
C1612 C 0.48791 0.6281 0.78219 0.0
C1613 C 0.48638 0.64709 0.79256 0.0
C1614 C 0.48229 0.57933 0.73519 0.0
C1615 C 0.50027 0.56795 0.73164 0.0
C1616 C 0.48329 0.59797 0.74629 0.0
C1617 C 0.50232 0.60588 0.75405 0.0
C1618 C 0.52053 0.59505 0.7498 0.0
C1619 C 0.5195 0.57617 0.73869 0.0
H1620 H 0.03972 0.80568 0.16732 0.0
H1621 H 0.01383 0.77672 0.22103 0.0
H1622 H 0.04303 0.83838 0.18672 0.0
H1623 H 0.0187 0.80863 0.24092 0.0
H1624 H -0.00465 0.87413 0.25443 0.0
H1625 H 0.00015 0.83967 0.24015 0.0
H1626 H 0.05866 0.8594 0.21466 0.0
H1627 H 0.05332 0.89448 0.22862 0.0
C1628 C 0.03539 0.8061 0.18348 0.0
C1629 C 0.02695 0.78841 0.19278 0.0
C1630 C 0.03748 0.8248 0.19468 0.0
C1631 C 0.03112 0.82619 0.21541 0.0
C1632 C 0.02363 0.8082 0.22495 0.0
C1633 C 0.02131 0.78964 0.21368 0.0
C1634 C 0.00937 0.87104 0.24599 0.0
C1635 C 0.02384 0.88699 0.24238 0.0
C1636 C 0.01226 0.85119 0.23795 0.0
C1637 C 0.02979 0.8467 0.22616 0.0
C1638 C 0.04487 0.86242 0.22347 0.0
C1639 C 0.04195 0.88241 0.23159 0.0
H1640 H 0.45 0.1726 0.70062 0.0
H1641 H 0.50675 0.15414 0.67149 0.0
H1642 H 0.44026 0.13629 0.70491 0.0
H1643 H 0.49719 0.118 0.6761 0.0
H1644 H 0.47395 0.05351 0.67966 0.0
H1645 H 0.47374 0.0891 0.66752 0.0
H1646 H 0.45384 0.10996 0.7279 0.0
H1647 H 0.45397 0.07449 0.73992 0.0
C1648 C 0.46025 0.16082 0.69484 0.0
C1649 C 0.4793 0.16628 0.68595 0.0
C1650 C 0.45469 0.14002 0.69738 0.0
C1651 C 0.46802 0.12425 0.69103 0.0
C1652 C 0.48645 0.12973 0.681 0.0
C1653 C 0.49202 0.1505 0.67849 0.0
C1654 C 0.46914 0.06569 0.69017 0.0
C1655 C 0.46421 0.06125 0.71081 0.0
C1656 C 0.46906 0.08605 0.68325 0.0
C1657 C 0.46406 0.1024 0.69682 0.0
C1658 C 0.4576 0.09774 0.71697 0.0
C1659 C 0.45766 0.07737 0.72389 0.0
H1660 H 0.9397 0.34532 0.29581 0.0
H1661 H 0.00126 0.35868 0.32057 0.0
H1662 H 0.93274 0.38227 0.29527 0.0
H1663 H -0.00554 0.39552 0.31957 0.0
H1664 H 0.9744 0.46086 0.3265 0.0
H1665 H 0.97493 0.42388 0.33359 0.0
H1666 H 0.94439 0.41092 0.27447 0.0
H1667 H 0.94368 0.44783 0.26756 0.0
C1668 C 0.95169 0.35611 0.30131 0.0
C1669 C 0.97111 0.34903 0.30807 0.0
C1670 C 0.94772 0.3773 0.3009 0.0
C1671 C 0.96307 0.39188 0.30724 0.0
C1672 C 0.98218 0.38474 0.31481 0.0
C1673 C 0.98614 0.36358 0.31524 0.0
C1674 C 0.96754 0.45008 0.31519 0.0
C1675 C 0.95912 0.45721 0.29643 0.0
C1676 C 0.96791 0.42891 0.3192 0.0
C1677 C 0.95993 0.41441 0.3045 0.0
C1678 C 0.95048 0.42165 0.28624 0.0
C1679 C 0.95005 0.44283 0.28226 0.0
H1680 H 0.2949 0.45999 0.27549 0.0
H1681 H 0.26346 0.51603 0.25907 0.0
H1682 H 0.32568 0.47208 0.25773 0.0
H1683 H 0.29447 0.52832 0.24161 0.0
H1684 H 0.34743 0.53446 0.19539 0.0
H1685 H 0.31595 0.52152 0.21154 0.0
H1686 H 0.35262 0.49852 0.26261 0.0
H1687 H 0.38405 0.51143 0.24646 0.0
C1688 C 0.29453 0.47489 0.26807 0.0
C1689 C 0.27672 0.48707 0.26876 0.0
C1690 C 0.31225 0.48188 0.258 0.0
C1691 C 0.3126 0.50123 0.24836 0.0
C1692 C 0.29466 0.51326 0.24871 0.0
C1693 C 0.27691 0.50626 0.2588 0.0
C1694 C 0.34875 0.52675 0.21013 0.0
C1695 C 0.36826 0.52397 0.21963 0.0
C1696 C 0.33071 0.51934 0.21939 0.0
C1697 C 0.33176 0.50896 0.23835 0.0
C1698 C 0.35128 0.50613 0.24782 0.0
C1699 C 0.36931 0.51354 0.23857 0.0
H1700 H 0.18151 0.50844 0.77642 0.0
H1701 H 0.22232 0.46211 0.75185 0.0
H1702 H 0.15243 0.49219 0.75756 0.0
H1703 H 0.19299 0.44557 0.73319 0.0
H1704 H 0.13831 0.43648 0.68578 0.0
H1705 H 0.16854 0.45134 0.70434 0.0
H1706 H 0.13144 0.46074 0.75873 0.0
H1707 H 0.10132 0.446 0.7402 0.0
C1708 C 0.18429 0.49475 0.76703 0.0
C1709 C 0.20424 0.48655 0.76569 0.0
C1710 C 0.16756 0.48534 0.75631 0.0
C1711 C 0.17035 0.46748 0.744 0.0
C1712 C 0.19036 0.4594 0.74243 0.0
C1713 C 0.20714 0.46883 0.75319 0.0
C1714 C 0.13671 0.4415 0.70178 0.0
C1715 C 0.11739 0.44024 0.71147 0.0
C1716 C 0.15401 0.45001 0.71241 0.0
C1717 C 0.15235 0.45741 0.73295 0.0
C1718 C 0.13315 0.45561 0.74278 0.0
C1719 C 0.11588 0.44714 0.73217 0.0
H1720 H 0.76107 0.02689 0.69787 0.0
H1721 H 0.73219 0.96859 0.71388 0.0
H1722 H 0.79026 0.01972 0.72096 0.0
H1723 H 0.76158 0.9613 0.73673 0.0
H1724 H 0.80959 0.96306 0.78965 0.0
H1725 H 0.77921 0.97255 0.76909 0.0
H1726 H 0.81913 -0.00421 0.72135 0.0
H1727 H 0.84945 0.98624 0.74181 0.0
C1728 C 0.7609 0.01257 0.70636 0.0
C1729 C 0.74434 -0.00174 0.70394 0.0
C1730 C 0.7777 0.00842 0.71951 0.0
C1731 C 0.77831 -0.01011 0.73058 0.0
C1732 C 0.7615 0.97581 0.72857 0.0
C1733 C 0.7447 0.97995 0.71539 0.0
C1734 C 0.81187 0.97014 0.77474 0.0
C1735 C 0.83195 0.97387 0.76737 0.0
C1736 C 0.79447 0.97558 0.76297 0.0
C1737 C 0.79675 0.9849 0.74358 0.0
C1738 C 0.81683 0.98893 0.73637 0.0
C1739 C 0.83422 0.98346 0.74811 0.0
H1740 H 0.7105 0.9483 0.24353 0.0
H1741 H 0.74825 0.00029 0.26566 0.0
H1742 H 0.68282 0.95884 0.26635 0.0
H1743 H 0.72033 0.01093 0.28845 0.0
H1744 H 0.67051 0.01194 0.33961 0.0
H1745 H 0.69988 0.00014 0.31935 0.0
H1746 H 0.65893 0.98835 0.26662 0.0
H1747 H 0.62976 0.00039 0.28659 0.0
C1748 C 0.71297 0.9619 0.25337 0.0
C1749 C 0.73153 0.97355 0.25264 0.0
C1750 C 0.69705 0.968 0.26637 0.0
C1751 C 0.69932 0.98584 0.27902 0.0
C1752 C 0.71818 -0.00294 0.27894 0.0
C1753 C 0.73412 -0.009 0.26583 0.0
C1754 C 0.66782 0.00699 0.32364 0.0
C1755 C 0.64773 0.00698 0.31478 0.0
C1756 C 0.68463 0.0002 0.31207 0.0
C1757 C 0.68167 -0.00685 0.29147 0.0
C1758 C 0.66164 -0.00672 0.2826 0.0
C1759 C 0.6449 0.00016 0.29408 0.0
H1760 H 0.25595 0.28343 0.46378 0.0
H1761 H 0.24591 0.25131 0.52113 0.0
H1762 H 0.2349 0.3118 0.47613 0.0
H1763 H 0.22498 0.27995 0.53358 0.0
H1764 H 0.17341 0.32856 0.54006 0.0
H1765 H 0.19205 0.29845 0.52722 0.0
H1766 H 0.23944 0.33896 0.50306 0.0
H1767 H 0.22104 0.36891 0.516 0.0
C1768 C 0.24916 0.28235 0.47899 0.0
C1769 C 0.25274 0.26516 0.49153 0.0
C1770 C 0.23719 0.29868 0.48611 0.0
C1771 C 0.22848 0.29822 0.50592 0.0
C1772 C 0.23141 0.28071 0.5182 0.0
C1773 C 0.24346 0.26434 0.51109 0.0
C1774 C 0.1879 0.331 0.53216 0.0
C1775 C 0.19566 0.35115 0.52893 0.0
C1776 C 0.19854 0.31377 0.52478 0.0
C1777 C 0.2171 0.31635 0.51397 0.0
C1778 C 0.22494 0.33647 0.51094 0.0
C1779 C 0.21438 0.35365 0.51836 0.0
H1780 H 0.24325 0.70775 0.95673 0.0
H1781 H 0.26091 0.74838 0.00824 0.0
H1782 H 0.26885 0.683 0.96794 0.0
H1783 H 0.28692 0.72364 0.01928 0.0
H1784 H 0.31171 0.66158 0.04506 0.0
H1785 H 0.28852 0.68897 0.03414 0.0
H1786 H 0.30604 0.67869 0.97045 0.0
H1787 H 0.32908 0.65131 0.98134 0.0
C1788 C 0.25271 0.71149 0.97037 0.0
C1789 C 0.25 0.73005 0.9816 0.0
C1790 C 0.2675 0.69734 0.97673 0.0
C1791 C 0.28 0.70137 -0.00553 0.0
C1792 C 0.27741 0.71999 0.00565 0.0
C1793 C 0.26259 0.73421 -0.00074 0.0
C1794 C 0.31081 0.66539 0.02877 0.0
C1795 C 0.32206 0.65415 0.01404 0.0
C1796 C 0.29754 0.68109 0.02251 0.0
C1797 C 0.29528 0.68588 0.0014 0.0
C1798 C 0.30709 0.67509 0.98678 0.0
C1799 C 0.3203 0.65942 -0.00698 0.0
H1800 H 0.73458 0.20027 0.50086 0.0
H1801 H 0.72307 0.23324 0.44415 0.0
H1802 H 0.71482 0.17063 0.48694 0.0
H1803 H 0.70347 0.20332 0.43008 0.0
H1804 H 0.65354 0.15138 0.42066 0.0
H1805 H 0.6714 0.18239 0.43464 0.0
H1806 H 0.71985 0.14442 0.45975 0.0
H1807 H 0.70216 0.11356 0.44572 0.0
C1808 C 0.72777 0.20124 0.48544 0.0
C1809 C 0.73052 0.21909 0.47357 0.0
C1810 C 0.71655 0.18418 0.47741 0.0
C1811 C 0.70777 0.18454 0.45732 0.0
C1812 C 0.70995 0.20262 0.44566 0.0
C1813 C 0.72124 0.21972 0.45369 0.0
C1814 C 0.6681 0.1497 0.42901 0.0
C1815 C 0.67635 0.12998 0.4322 0.0
C1816 C 0.67831 0.16745 0.43703 0.0
C1817 C 0.69695 0.16585 0.44845 0.0
C1818 C 0.7053 0.14616 0.4514 0.0
C1819 C 0.69514 0.12846 0.44336 0.0
H1820 H 0.71453 0.72354 0.96003 0.0
H1821 H 0.69065 0.75531 0.01384 0.0
H1822 H 0.73655 0.75361 0.95293 0.0
H1823 H 0.71223 0.78542 0.00649 0.0
H1824 H 0.76599 0.83013 -0.00172 0.0
H1825 H 0.74763 0.79796 0.00612 0.0
H1826 H 0.73263 0.78875 0.94098 0.0
H1827 H 0.75113 0.82082 0.93316 0.0
C1828 C 0.71401 0.7369 0.97038 0.0
C1829 C 0.70078 0.73703 0.98747 0.0
C1830 C 0.72654 0.75418 0.96624 0.0
C1831 C 0.72613 0.77197 0.97911 0.0
C1832 C 0.71317 0.7719 -0.00358 0.0
C1833 C 0.70067 0.75465 0.00056 0.0
C1834 C 0.75876 0.82122 0.98565 0.0
C1835 C 0.75993 0.82807 0.96512 0.0
C1836 C 0.74823 0.8028 0.99013 0.0
C1837 C 0.73856 0.79081 0.9742 0.0
C1838 C 0.74014 0.79744 0.9536 0.0
C1839 C 0.75072 0.81584 0.94911 0.0
H1840 H 0.54031 0.24902 0.26622 0.0
H1841 H 0.48362 0.26485 0.29693 0.0
H1842 H 0.55149 0.23004 0.29682 0.0
H1843 H 0.49492 0.24641 0.32747 0.0
H1844 H 0.51193 0.19861 0.37383 0.0
H1845 H 0.50128 0.21244 0.34044 0.0
H1846 H 0.56306 0.23756 0.33238 0.0
H1847 H 0.57375 0.22341 0.36572 0.0
C1848 C 0.5302 0.24837 0.27943 0.0
C1849 C 0.51109 0.25848 0.27914 0.0
C1850 C 0.53666 0.23761 0.29701 0.0
C1851 C 0.52411 0.23669 0.31461 0.0
C1852 C 0.50485 0.24649 0.31409 0.0
C1853 C 0.49841 0.25722 0.29659 0.0
C1854 C 0.52325 0.20702 0.36487 0.0
C1855 C 0.54361 0.21012 0.37248 0.0
C1856 C 0.51715 0.21497 0.34576 0.0
C1857 C 0.53125 0.22633 0.33383 0.0
C1858 C 0.55186 0.22873 0.34107 0.0
C1859 C 0.55799 0.22066 0.36018 0.0
H1860 H 0.00742 0.25298 0.72777 0.0
H1861 H 0.95282 0.23055 0.69409 0.0
H1862 H 0.0186 0.27146 0.697 0.0
H1863 H 0.96415 0.24855 0.66342 0.0
H1864 H 0.97992 0.29689 0.61669 0.0
H1865 H 0.96897 0.28267 0.64959 0.0
H1866 H 0.03163 0.26356 0.66245 0.0
H1867 H 0.04261 0.278 0.62955 0.0
C1868 C -0.00223 0.25205 0.71385 0.0
C1869 C 0.97923 0.24027 0.71339 0.0
C1870 C 0.00424 0.26253 0.69619 0.0
C1871 C -0.00773 0.2615 0.67773 0.0
C1872 C 0.97359 0.24996 0.67744 0.0
C1873 C 0.96716 0.23951 0.69503 0.0
C1874 C -0.00864 0.28966 0.62655 0.0
C1875 C 0.01209 0.28839 0.62043 0.0
C1876 C 0.98509 0.2815 0.6454 0.0
C1877 C -0.00062 0.2718 0.65858 0.0
C1878 C 0.02026 0.27112 0.65277 0.0
C1879 C 0.02656 0.27936 0.63391 0.0
H1880 H 0.51052 0.74851 0.18916 0.0
H1881 H 0.45345 0.74396 0.22301 0.0
H1882 H 0.49486 0.72802 0.1608 0.0
H1883 H 0.43764 0.72371 0.19437 0.0
H1884 H 0.42356 0.67112 0.14641 0.0
H1885 H 0.43915 0.69018 0.17599 0.0
H1886 H 0.46843 0.73263 0.13402 0.0
H1887 H 0.45287 0.71368 0.10457 0.0
C1888 C 0.49464 0.74312 0.19058 0.0
C1889 C 0.48322 0.74796 0.20833 0.0
C1890 C 0.48561 0.73147 0.17425 0.0
C1891 C 0.46495 0.72438 0.17523 0.0
C1892 C 0.45365 0.72881 0.19318 0.0
C1893 C 0.46268 0.74049 0.20956 0.0
C1894 C 0.43319 0.68462 0.14353 0.0
C1895 C 0.43708 0.6908 0.12312 0.0
C1896 C 0.44213 0.69553 0.16047 0.0
C1897 C 0.45516 0.71284 0.15736 0.0
C1898 C 0.45883 0.71912 0.13696 0.0
C1899 C 0.4499 0.70825 0.12006 0.0
H1900 H 0.96015 0.72903 0.74619 0.0
H1901 H 0.01953 0.71442 0.77374 0.0
H1902 H 0.95325 0.75204 0.77557 0.0
H1903 H 0.01275 0.73767 0.80287 0.0
H1904 H 0.98036 0.75697 0.86304 0.0
H1905 H 0.98948 0.73709 0.83224 0.0
H1906 H 0.96396 0.78445 0.79336 0.0
H1907 H 0.95487 0.80447 0.82427 0.0
C1908 C 0.97185 0.73094 0.75836 0.0
C1909 C -0.00969 0.71975 0.75771 0.0
C1910 C 0.96793 0.7442 0.77516 0.0
C1911 C 0.98238 0.74654 0.79165 0.0
C1912 C 0.00115 0.73592 0.7906 0.0
C1913 C 0.00508 0.72268 0.77382 0.0
C1914 C 0.97697 0.76333 0.84794 0.0
C1915 C 0.96691 0.78234 0.84613 0.0
C1916 C 0.98221 0.75191 0.83026 0.0
C1917 C 0.97749 0.75921 0.81034 0.0
C1918 C 0.96758 0.7783 0.8085 0.0
C1919 C 0.96237 0.78975 0.8262 0.0
H1920 H 0.68106 0.4741 0.63991 0.0
H1921 H 0.67667 0.47979 0.70661 0.0
H1922 H 0.6453 0.48514 0.63613 0.0
H1923 H 0.64081 0.49066 0.70277 0.0
H1924 H 0.58311 0.5285 0.68543 0.0
H1925 H 0.61956 0.51948 0.68944 0.0
H1926 H 0.61081 0.47032 0.64374 0.0
H1927 H 0.57446 0.47906 0.63992 0.0
C1928 C 0.6725 0.47774 0.65377 0.0
C1929 C 0.68169 0.47593 0.67357 0.0
C1930 C 0.65197 0.48397 0.6516 0.0
C1931 C 0.6402 0.48865 0.66915 0.0
C1932 C 0.64953 0.48732 0.68894 0.0
C1933 C 0.67004 0.48098 0.69113 0.0
C1934 C 0.58893 0.51566 0.67636 0.0
C1935 C 0.57585 0.50459 0.66226 0.0
C1936 C 0.60981 0.51053 0.67864 0.0
C1937 C 0.61808 0.49428 0.66681 0.0
C1938 C 0.605 0.48319 0.65278 0.0
C1939 C 0.58416 0.48823 0.65058 0.0
H1940 H 0.7597 0.5199 0.26841 0.0
H1941 H 0.77927 0.46277 0.23968 0.0
H1942 H 0.79596 0.53004 0.27483 0.0
H1943 H 0.81519 0.47308 0.24543 0.0
H1944 H 0.87878 0.48911 0.26708 0.0
H1945 H 0.84249 0.47917 0.26992 0.0
H1946 H 0.82482 0.54136 0.2547 0.0
H1947 H 0.8612 0.55167 0.2532 0.0
C1948 C 0.77171 0.50944 0.26363 0.0
C1949 C 0.76659 0.49058 0.25343 0.0
C1950 C 0.79249 0.5153 0.26718 0.0
C1951 C 0.80855 0.50243 0.26058 0.0
C1952 C 0.80331 0.48327 0.25104 0.0
C1953 C 0.78262 0.47741 0.24758 0.0
C1954 C 0.86722 0.50086 0.26492 0.0
C1955 C 0.873 0.52118 0.25971 0.0
C1956 C 0.84635 0.49506 0.26626 0.0
C1957 C 0.83067 0.50935 0.26222 0.0
C1958 C 0.83643 0.52993 0.25802 0.0
C1959 C 0.85734 0.53579 0.25686 0.0
H1960 H 0.20145 -0.00117 0.31823 0.0
H1961 H 0.20407 0.96485 0.26001 0.0
H1962 H 0.16395 -0.00594 0.31821 0.0
H1963 H 0.16639 0.96023 0.25996 0.0
H1964 H 0.10084 0.93822 0.28144 0.0
H1965 H 0.13851 0.94221 0.27957 0.0
H1966 H 0.134 0.00652 0.29795 0.0
H1967 H 0.09649 0.00264 0.2996 0.0
C1968 C 0.19404 -0.00967 0.30542 0.0
C1969 C 0.20577 0.98229 0.28908 0.0
C1970 C 0.17252 0.98771 0.30535 0.0
C1971 C 0.16219 0.9769 0.289 0.0
C1972 C 0.17392 0.96853 0.27283 0.0
C1973 C 0.19549 0.97127 0.27282 0.0
C1974 C 0.10787 0.95327 0.28478 0.0
C1975 C 0.09566 0.97005 0.29089 0.0
C1976 C 0.12945 0.95554 0.28374 0.0
C1977 C 0.13924 0.97461 0.28886 0.0
C1978 C 0.12696 -0.00849 0.29436 0.0
C1979 C 0.10546 0.98927 0.2953 0.0
H1980 H 0.28366 0.96673 0.73502 0.0
H1981 H 0.28087 0.02429 0.76991 0.0
H1982 H 0.32119 0.96676 0.73989 0.0
H1983 H 0.31846 0.02446 0.77448 0.0
H1984 H 0.38992 0.98489 0.735 0.0
H1985 H 0.35244 0.98565 0.72939 0.0
H1986 H 0.34481 0.00507 0.79323 0.0
H1987 H 0.38228 0.00496 0.79864 0.0
C1988 C 0.29105 0.97945 0.74363 0.0
C1989 C 0.27925 -0.00452 0.75212 0.0
C1990 C 0.31259 0.97952 0.74632 0.0
C1991 C 0.32281 -0.0044 0.75759 0.0
C1992 C 0.31102 0.01171 0.76594 0.0
C1993 C 0.28949 0.01167 0.76321 0.0
C1994 C 0.38024 0.98949 0.74777 0.0
C1995 C 0.38907 -0.00514 0.76726 0.0
C1996 C 0.35876 0.98973 0.74462 0.0
C1997 C 0.34565 -0.00458 0.76086 0.0
C1998 C 0.35449 0.00083 0.78033 0.0
C1999 C 0.37595 0.00053 0.7835 0.0
H2000 H 0.65029 0.69263 0.49309 0.0
H2001 H 0.71572 0.69035 0.50808 0.0
H2002 H 0.64661 0.65595 0.50054 0.0
H2003 H 0.71194 0.6537 0.51595 0.0
H2004 H 0.70066 0.58389 0.50182 0.0
H2005 H 0.70529 0.62107 0.49747 0.0
H2006 H 0.64767 0.63157 0.52876 0.0
H2007 H 0.64302 0.59436 0.53305 0.0
C2008 C 0.66387 0.68434 0.49811 0.0
C2009 C 0.68332 0.6944 0.49987 0.0
C2010 C 0.66173 0.66333 0.50253 0.0
C2011 C 0.67899 0.65187 0.50884 0.0
C2012 C 0.69839 0.66201 0.51088 0.0
C2013 C 0.70053 0.68304 0.50647 0.0
C2014 C 0.68915 0.59415 0.50808 0.0
C2015 C 0.67142 0.58615 0.51771 0.0
C2016 C 0.6918 0.61548 0.50558 0.0
C2017 C 0.67679 0.6293 0.51266 0.0
C2018 C 0.65934 0.62133 0.52278 0.0
C2019 C 0.65668 0.60001 0.52527 0.0
H2020 H 0.81025 0.27771 0.9895 0.0
H2021 H 0.74778 0.27951 0.01245 0.0
H2022 H 0.81217 0.31542 0.99061 0.0
H2023 H 0.74964 0.31725 0.01328 0.0
H2024 H 0.76956 0.38389 0.03223 0.0
H2025 H 0.76744 0.34615 0.03189 0.0
H2026 H 0.79682 0.34449 0.9722 0.0
H2027 H 0.79881 0.38219 0.97244 0.0
C2028 C 0.79693 0.28614 -0.00521 0.0
C2029 C 0.77885 0.27559 0.00085 0.0
C2030 C 0.79799 0.30776 -0.0047 0.0
C2031 C 0.78102 0.31933 0.00194 0.0
C2032 C 0.76304 0.30878 0.00827 0.0
C2033 C 0.76195 0.28715 0.0077 0.0
C2034 C 0.77535 0.37548 0.01892 0.0
C2035 C 0.78439 0.38607 0.00237 0.0
C2036 C 0.77416 0.35385 0.01875 0.0
C2037 C 0.78204 0.34232 0.00206 0.0
C2038 C 0.79094 0.35291 0.98545 0.0
C2039 C 0.79208 0.37452 0.9856 0.0
H2040 H 0.187 0.79258 0.50516 0.0
H2041 H 0.24221 0.79618 0.46837 0.0
H2042 H 0.18171 0.82934 0.50066 0.0
H2043 H 0.23739 0.83331 0.46449 0.0
H2044 H 0.21007 0.89517 0.44426 0.0
H2045 H 0.21612 0.8582 0.44807 0.0
H2046 H 0.1952 0.86201 0.51137 0.0
H2047 H 0.18859 0.89868 0.50724 0.0
C2048 C 0.19814 0.80128 0.49626 0.0
C2049 C 0.21506 0.79147 0.48717 0.0
C2050 C 0.19518 0.82244 0.49378 0.0
C2051 C 0.20919 0.83441 0.48233 0.0
C2052 C 0.22613 0.82456 0.4732 0.0
C2053 C 0.22898 0.8033 0.47551 0.0
C2054 C 0.20686 0.88804 0.45898 0.0
C2055 C 0.19869 0.89972 0.47539 0.0
C2056 C 0.21039 0.86689 0.46122 0.0
C2057 C 0.20603 0.85703 0.48 0.0
C2058 C 0.19828 0.86892 0.49653 0.0
C2059 C 0.19454 0.88996 0.49421 0.0
H2060 H 0.30183 0.21826 0.93676 0.0
H2061 H 0.28211 0.19985 -0.00243 0.0
H2062 H 0.30361 0.18196 0.92605 0.0
H2063 H 0.28437 0.16364 0.98704 0.0
H2064 H 0.27453 0.1003 0.95794 0.0
H2065 H 0.26878 0.13692 0.96496 0.0
H2066 H 0.32506 0.15256 0.93298 0.0
H2067 H 0.33031 0.11605 0.92517 0.0
C2068 C 0.29785 0.20648 0.94784 0.0
C2069 C 0.2919 0.21197 0.96805 0.0
C2070 C 0.29897 0.18566 0.94173 0.0
C2071 C 0.29418 0.16986 0.95569 0.0
C2072 C 0.28788 0.17539 0.97578 0.0
C2073 C 0.28674 0.19618 0.98188 0.0
C2074 C 0.28545 0.11157 0.95203 0.0
C2075 C 0.30294 0.10522 0.94108 0.0
C2076 C 0.28229 0.13256 0.95629 0.0
C2077 C 0.29655 0.14769 0.9497 0.0
C2078 C 0.31368 0.14136 0.93816 0.0
C2079 C 0.31682 0.12039 0.93388 0.0
H2080 H 0.50049 0.64435 0.68838 0.0
H2081 H 0.52033 0.70832 0.68385 0.0
H2082 H 0.50504 0.63955 0.65119 0.0
H2083 H 0.52441 0.70363 0.64654 0.0
H2084 H 0.54872 0.68201 0.58352 0.0
H2085 H 0.54559 0.68651 0.62102 0.0
H2086 H 0.48899 0.64974 0.61896 0.0
H2087 H 0.49222 0.64514 0.58159 0.0
C2088 C 0.50576 0.65742 0.67944 0.0
C2089 C 0.50999 0.67674 0.68908 0.0
C2090 C 0.50826 0.65469 0.65809 0.0
C2091 C 0.515 0.67123 0.64585 0.0
C2092 C 0.51943 0.6905 0.65554 0.0
C2093 C 0.51697 0.69322 0.67692 0.0
C2094 C 0.53556 0.67499 0.59109 0.0
C2095 C 0.52076 0.66316 0.5796 0.0
C2096 C 0.53375 0.67758 0.61257 0.0
C2097 C 0.51707 0.66844 0.62302 0.0
C2098 C 0.50224 0.65667 0.61148 0.0
C2099 C 0.50408 0.65404 0.59005 0.0
H2100 H 0.98431 0.76626 0.28876 0.0
H2101 H 0.04052 0.73099 0.29102 0.0
H2102 H 0.98303 0.76631 0.32639 0.0
H2103 H 0.0389 0.73051 0.32884 0.0
H2104 H 0.04101 0.75577 0.39665 0.0
H2105 H 0.04299 0.75303 0.35889 0.0
H2106 H 0.97651 0.74405 0.35478 0.0
H2107 H 0.97457 0.74725 0.39241 0.0
C2108 C -0.00368 0.75834 0.29728 0.0
C2109 C 0.01251 0.74861 0.28687 0.0
C2110 C -0.0045 0.75825 0.3189 0.0
C2111 C 0.01079 0.7483 0.33069 0.0
C2112 C 0.02699 0.7385 0.32027 0.0
C2113 C 0.02787 0.73869 0.29859 0.0
C2114 C 0.02688 0.75296 0.38764 0.0
C2115 C 0.00762 0.75192 0.39743 0.0
C2116 C 0.028 0.75135 0.36601 0.0
C2117 C 0.00988 0.74853 0.35375 0.0
C2118 C -0.00928 0.74672 0.36368 0.0
C2119 C 0.9896 0.74848 0.38525 0.0
H2120 H 0.51207 0.25608 0.76882 0.0
H2121 H 0.44958 0.23293 0.77703 0.0
H2122 H 0.51763 0.25662 0.80641 0.0
H2123 H 0.45529 0.23292 0.81434 0.0
H2124 H 0.46603 0.24448 0.88214 0.0
H2125 H 0.46091 0.25276 0.84568 0.0
H2126 H 0.52219 0.23077 0.83246 0.0
H2127 H 0.5277 0.2235 0.86903 0.0
C2128 C 0.49945 0.25133 0.77863 0.0
C2129 C 0.48044 0.24429 0.7699 0.0
C2130 C 0.50268 0.2515 0.80017 0.0
C2131 C 0.48698 0.24463 0.81343 0.0
C2132 C 0.46767 0.23853 0.80468 0.0
C2133 C 0.46444 0.23841 0.78321 0.0
C2134 C 0.47859 0.24184 0.87154 0.0
C2135 C 0.49721 0.23313 0.8785 0.0
C2136 C 0.47556 0.24638 0.85058 0.0
C2137 C 0.49106 0.24226 0.83606 0.0
C2138 C 0.50998 0.23432 0.84319 0.0
C2139 C 0.51303 0.22985 0.86414 0.0
H2140 H 0.92242 0.27137 0.21859 0.0
H2141 H 0.9864 0.25323 0.22337 0.0
H2142 H 0.92375 0.2684 0.18105 0.0
H2143 H 0.98758 0.24967 0.18564 0.0
H2144 H 0.98936 0.28012 0.12089 0.0
H2145 H 0.98829 0.274 0.15795 0.0
H2146 H 0.92677 0.24714 0.15043 0.0
H2147 H 0.9275 0.25418 0.11336 0.0
C2148 C 0.93667 0.26631 0.21166 0.0
C2149 C 0.95439 0.26283 0.224 0.0
C2150 C 0.93739 0.26446 0.19006 0.0
C2151 C 0.95584 0.25898 0.18025 0.0
C2152 C 0.97323 0.25428 0.19267 0.0
C2153 C 0.97252 0.2562 0.21431 0.0
C2154 C 0.97562 0.27285 0.12712 0.0
C2155 C 0.95839 0.26795 0.1142 0.0
C2156 C 0.97511 0.26906 0.14837 0.0
C2157 C 0.95738 0.26019 0.15726 0.0
C2158 C 0.94055 0.25427 0.14415 0.0
C2159 C 0.94105 0.25811 0.12286 0.0
loop_
_geom_bond_atom_site_label_1
_geom_bond_atom_site_label_2
_geom_bond_distance
_geom_bond_site_symmetry_2
_ccdc_geom_bond_type
O0 Cd1 2.300 . S
O0 C7 1.275 . S
Cd1 O0 2.300 . S
Cd1 O9 2.381 . S
Cd1 O10 2.378 . S
O2 Cd3 2.385 . S
O2 C7 1.255 . S
Cd3 O2 2.385 . S
Cd3 O4 2.317 . S
O4 Cd3 2.317 . S
O4 C5 1.232 . S
C5 O4 1.232 . S
C5 O6 1.218 . S
O6 C5 1.218 . S
C7 O0 1.275 . S
C7 O2 1.255 . S
C8 O9 1.258 . S
C8 O10 1.256 . S
O9 Cd1 2.381 . S
O9 C8 1.258 . S
O10 Cd1 2.378 . S
O10 C8 1.256 . S
O11 Cd12 2.300 . S
O11 C18 1.275 . S
Cd12 O11 2.300 . S
Cd12 O20 2.381 . S
Cd12 O21 2.378 . S
O13 Cd14 2.385 . S
O13 C18 1.255 . S
Cd14 O13 2.385 . S
Cd14 O15 2.317 . S
O15 Cd14 2.317 . S
O15 C16 1.232 . S
C16 O15 1.232 . S
C16 O17 1.218 . S
O17 C16 1.218 . S
C18 O11 1.275 . S
C18 O13 1.255 . S
C19 O20 1.258 . S
C19 O21 1.256 . S
O20 Cd12 2.381 . S
O20 C19 1.258 . S
O21 Cd12 2.378 . S
O21 C19 1.256 . S
O22 Cd23 2.300 1_545 S
O22 C29 1.275 . S
Cd23 O22 2.300 1_565 S
Cd23 O31 2.381 1_565 S
Cd23 O32 2.378 . S
O24 Cd25 2.385 . S
O24 C29 1.255 1_565 S
Cd25 O24 2.385 . S
Cd25 O26 2.317 . S
O26 Cd25 2.317 . S
O26 C27 1.232 . S
C27 O26 1.232 . S
C27 O28 1.218 . S
O28 C27 1.218 . S
C29 O22 1.275 . S
C29 O24 1.255 1_545 S
C30 O31 1.258 1_565 S
C30 O32 1.256 . S
O31 Cd23 2.381 1_545 S
O31 C30 1.258 1_545 S
O32 Cd23 2.378 . S
O32 C30 1.256 . S
O33 Cd34 2.300 1_565 S
O33 C40 1.275 . S
Cd34 O33 2.300 1_545 S
Cd34 O42 2.381 1_545 S
Cd34 O43 2.378 . S
O35 Cd36 2.385 . S
O35 C40 1.255 1_545 S
Cd36 O35 2.385 . S
Cd36 O37 2.317 . S
O37 Cd36 2.317 . S
O37 C38 1.232 . S
C38 O37 1.232 . S
C38 O39 1.218 . S
O39 C38 1.218 . S
C40 O33 1.275 . S
C40 O35 1.255 1_565 S
C41 O42 1.258 1_545 S
C41 O43 1.256 . S
O42 Cd34 2.381 1_565 S
O42 C41 1.258 1_565 S
O43 Cd34 2.378 . S
O43 C41 1.256 . S
O44 Cd45 2.300 . S
O44 C51 1.275 . S
Cd45 O44 2.300 . S
Cd45 O53 2.381 . S
Cd45 O54 2.378 . S
O46 Cd47 2.385 . S
O46 C51 1.255 . S
Cd47 O46 2.385 . S
Cd47 O48 2.317 . S
O48 Cd47 2.317 . S
O48 C49 1.232 . S
C49 O48 1.232 . S
C49 O50 1.218 . S
O50 C49 1.218 . S
C51 O44 1.275 . S
C51 O46 1.255 . S
C52 O53 1.258 . S
C52 O54 1.256 . S
O53 Cd45 2.381 . S
O53 C52 1.258 . S
O54 Cd45 2.378 . S
O54 C52 1.256 . S
O55 Cd56 2.300 1_556 S
O55 C62 1.275 . S
Cd56 O55 2.300 1_554 S
Cd56 O64 2.381 1_554 S
Cd56 O65 2.378 . S
O57 Cd58 2.385 . S
O57 C62 1.255 1_554 S
Cd58 O57 2.385 . S
Cd58 O59 2.317 . S
O59 Cd58 2.317 . S
O59 C60 1.232 . S
C60 O59 1.232 . S
C60 O61 1.218 . S
O61 C60 1.218 . S
C62 O55 1.275 . S
C62 O57 1.255 1_556 S
C63 O64 1.258 1_554 S
C63 O65 1.256 . S
O64 Cd56 2.381 1_556 S
O64 C63 1.258 1_556 S
O65 Cd56 2.378 . S
O65 C63 1.256 . S
O66 Cd67 2.300 . S
O66 C73 1.275 . S
Cd67 O66 2.300 . S
Cd67 O75 2.381 . S
Cd67 O76 2.378 . S
O68 Cd69 2.385 . S
O68 C73 1.255 . S
Cd69 O68 2.385 . S
Cd69 O70 2.317 . S
O70 Cd69 2.317 . S
O70 C71 1.232 . S
C71 O70 1.232 . S
C71 O72 1.218 . S
O72 C71 1.218 . S
C73 O66 1.275 . S
C73 O68 1.255 . S
C74 O75 1.258 . S
C74 O76 1.256 . S
O75 Cd67 2.381 . S
O75 C74 1.258 . S
O76 Cd67 2.378 . S
O76 C74 1.256 . S
O77 Cd78 2.300 1_554 S
O77 C84 1.275 . S
Cd78 O77 2.300 1_556 S
Cd78 O86 2.381 1_556 S
Cd78 O87 2.378 . S
O79 Cd80 2.385 . S
O79 C84 1.255 1_556 S
Cd80 O79 2.385 . S
Cd80 O81 2.317 . S
O81 Cd80 2.317 . S
O81 C82 1.232 . S
C82 O81 1.232 . S
C82 O83 1.218 . S
O83 C82 1.218 . S
C84 O77 1.275 . S
C84 O79 1.255 1_554 S
C85 O86 1.258 1_556 S
C85 O87 1.256 . S
O86 Cd78 2.381 1_554 S
O86 C85 1.258 1_554 S
O87 Cd78 2.378 . S
O87 C85 1.256 . S
O88 Cd89 2.300 . S
O88 C95 1.275 . S
Cd89 O88 2.300 . S
Cd89 O97 2.381 . S
Cd89 O98 2.378 . S
O90 Cd91 2.385 . S
O90 C95 1.255 . S
Cd91 O90 2.385 . S
Cd91 O92 2.317 . S
O92 Cd91 2.317 . S
O92 C93 1.232 . S
C93 O92 1.232 . S
C93 O94 1.218 . S
O94 C93 1.218 . S
C95 O88 1.275 . S
C95 O90 1.255 . S
C96 O97 1.258 . S
C96 O98 1.256 . S
O97 Cd89 2.381 . S
O97 C96 1.258 . S
O98 Cd89 2.378 . S
O98 C96 1.256 . S
O99 Cd100 2.300 1_655 S
O99 C106 1.275 . S
Cd100 O99 2.300 1_455 S
Cd100 O108 2.381 1_455 S
Cd100 O109 2.378 . S
O101 Cd102 2.385 . S
O101 C106 1.255 1_455 S
Cd102 O101 2.385 . S
Cd102 O103 2.317 . S
O103 Cd102 2.317 . S
O103 C104 1.232 . S
C104 O103 1.232 . S
C104 O105 1.218 . S
O105 C104 1.218 . S
C106 O99 1.275 . S
C106 O101 1.255 1_655 S
C107 O108 1.258 1_455 S
C107 O109 1.256 . S
O108 Cd100 2.381 1_655 S
O108 C107 1.258 1_655 S
O109 Cd100 2.378 . S
O109 C107 1.256 . S
O110 Cd111 2.300 . S
O110 C117 1.275 . S
Cd111 O110 2.300 . S
Cd111 O119 2.381 . S
Cd111 O120 2.378 . S
O112 Cd113 2.385 . S
O112 C117 1.255 . S
Cd113 O112 2.385 . S
Cd113 O114 2.317 . S
O114 Cd113 2.317 . S
O114 C115 1.232 . S
C115 O114 1.232 . S
C115 O116 1.218 . S
O116 C115 1.218 . S
C117 O110 1.275 . S
C117 O112 1.255 . S
C118 O119 1.258 . S
C118 O120 1.256 . S
O119 Cd111 2.381 . S
O119 C118 1.258 . S
O120 Cd111 2.378 . S
O120 C118 1.256 . S
O121 Cd122 2.300 1_455 S
O121 C128 1.275 . S
Cd122 O121 2.300 1_655 S
Cd122 O130 2.381 1_655 S
Cd122 O131 2.378 . S
O123 Cd124 2.385 . S
O123 C128 1.255 1_655 S
Cd124 O123 2.385 . S
Cd124 O125 2.317 . S
O125 Cd124 2.317 . S
O125 C126 1.232 . S
C126 O125 1.232 . S
C126 O127 1.218 . S
O127 C126 1.218 . S
C128 O121 1.275 . S
C128 O123 1.255 1_455 S
C129 O130 1.258 1_655 S
C129 O131 1.256 . S
O130 Cd122 2.381 1_455 S
O130 C129 1.258 1_455 S
O131 Cd122 2.378 . S
O131 C129 1.256 . S
O132 Cd133 2.300 . S
O132 C139 1.275 . S
Cd133 O132 2.300 . S
Cd133 O141 2.381 . S
Cd133 O142 2.378 . S
O134 Cd135 2.385 . S
O134 C139 1.255 . S
Cd135 O134 2.385 . S
Cd135 O136 2.317 . S
O136 Cd135 2.317 . S
O136 C137 1.232 . S
C137 O136 1.232 . S
C137 O138 1.218 . S
O138 C137 1.218 . S
C139 O132 1.275 . S
C139 O134 1.255 . S
C140 O141 1.258 . S
C140 O142 1.256 . S
O141 Cd133 2.381 . S
O141 C140 1.258 . S
O142 Cd133 2.378 . S
O142 C140 1.256 . S
O143 Cd144 2.300 . S
O143 C150 1.275 . S
Cd144 O143 2.300 . S
Cd144 O152 2.381 . S
Cd144 O153 2.378 . S
O145 Cd146 2.385 . S
O145 C150 1.255 . S
Cd146 O145 2.385 . S
Cd146 O147 2.317 . S
O147 Cd146 2.317 . S
O147 C148 1.232 . S
C148 O147 1.232 . S
C148 O149 1.218 . S
O149 C148 1.218 . S
C150 O143 1.275 . S
C150 O145 1.255 . S
C151 O152 1.258 . S
C151 O153 1.256 . S
O152 Cd144 2.381 . S
O152 C151 1.258 . S
O153 Cd144 2.378 . S
O153 C151 1.256 . S
O154 Cd155 2.300 . S
O154 C161 1.275 . S
Cd155 O154 2.300 . S
Cd155 O163 2.381 1_565 S
Cd155 O164 2.378 . S
O156 Cd157 2.385 . S
O156 C161 1.255 . S
Cd157 O156 2.385 . S
Cd157 O158 2.317 . S
O158 Cd157 2.317 . S
O158 C159 1.232 . S
C159 O158 1.232 . S
C159 O160 1.218 . S
O160 C159 1.218 . S
C161 O154 1.275 . S
C161 O156 1.255 . S
C162 O163 1.258 . S
C162 O164 1.256 1_545 S
O163 Cd155 2.381 1_545 S
O163 C162 1.258 . S
O164 Cd155 2.378 . S
O164 C162 1.256 1_565 S
O165 Cd166 2.300 . S
O165 C172 1.275 . S
Cd166 O165 2.300 . S
Cd166 O174 2.381 1_545 S
Cd166 O175 2.378 . S
O167 Cd168 2.385 . S
O167 C172 1.255 . S
Cd168 O167 2.385 . S
Cd168 O169 2.317 . S
O169 Cd168 2.317 . S
O169 C170 1.232 . S
C170 O169 1.232 . S
C170 O171 1.218 . S
O171 C170 1.218 . S
C172 O165 1.275 . S
C172 O167 1.255 . S
C173 O174 1.258 . S
C173 O175 1.256 1_565 S
O174 Cd166 2.381 1_565 S
O174 C173 1.258 . S
O175 Cd166 2.378 . S
O175 C173 1.256 1_545 S
O176 Cd177 2.300 . S
O176 C183 1.275 . S
Cd177 O176 2.300 . S
Cd177 O185 2.381 . S
Cd177 O186 2.378 . S
O178 Cd179 2.385 . S
O178 C183 1.255 . S
Cd179 O178 2.385 . S
Cd179 O180 2.317 . S
O180 Cd179 2.317 . S
O180 C181 1.232 . S
C181 O180 1.232 . S
C181 O182 1.218 . S
O182 C181 1.218 . S
C183 O176 1.275 . S
C183 O178 1.255 . S
C184 O185 1.258 . S
C184 O186 1.256 . S
O185 Cd177 2.381 . S
O185 C184 1.258 . S
O186 Cd177 2.378 . S
O186 C184 1.256 . S
O187 Cd188 2.300 . S
O187 C194 1.275 . S
Cd188 O187 2.300 . S
Cd188 O196 2.381 1_554 S
Cd188 O197 2.378 . S
O189 Cd190 2.385 . S
O189 C194 1.255 . S
Cd190 O189 2.385 . S
Cd190 O191 2.317 . S
O191 Cd190 2.317 . S
O191 C192 1.232 . S
C192 O191 1.232 . S
C192 O193 1.218 . S
O193 C192 1.218 . S
C194 O187 1.275 . S
C194 O189 1.255 . S
C195 O196 1.258 . S
C195 O197 1.256 1_556 S
O196 Cd188 2.381 1_556 S
O196 C195 1.258 . S
O197 Cd188 2.378 . S
O197 C195 1.256 1_554 S
O198 Cd199 2.300 . S
O198 C205 1.275 . S
Cd199 O198 2.300 . S
Cd199 O207 2.381 . S
Cd199 O208 2.378 . S
O200 Cd201 2.385 . S
O200 C205 1.255 . S
Cd201 O200 2.385 . S
Cd201 O202 2.317 . S
O202 Cd201 2.317 . S
O202 C203 1.232 . S
C203 O202 1.232 . S
C203 O204 1.218 . S
O204 C203 1.218 . S
C205 O198 1.275 . S
C205 O200 1.255 . S
C206 O207 1.258 . S
C206 O208 1.256 . S
O207 Cd199 2.381 . S
O207 C206 1.258 . S
O208 Cd199 2.378 . S
O208 C206 1.256 . S
O209 Cd210 2.300 . S
O209 C216 1.275 . S
Cd210 O209 2.300 . S
Cd210 O218 2.381 1_556 S
Cd210 O219 2.378 . S
O211 Cd212 2.385 . S
O211 C216 1.255 . S
Cd212 O211 2.385 . S
Cd212 O213 2.317 . S
O213 Cd212 2.317 . S
O213 C214 1.232 . S
C214 O213 1.232 . S
C214 O215 1.218 . S
O215 C214 1.218 . S
C216 O209 1.275 . S
C216 O211 1.255 . S
C217 O218 1.258 . S
C217 O219 1.256 1_554 S
O218 Cd210 2.381 1_554 S
O218 C217 1.258 . S
O219 Cd210 2.378 . S
O219 C217 1.256 1_556 S
O220 Cd221 2.300 . S
O220 C227 1.275 . S
Cd221 O220 2.300 . S
Cd221 O229 2.381 . S
Cd221 O230 2.378 . S
O222 Cd223 2.385 . S
O222 C227 1.255 . S
Cd223 O222 2.385 . S
Cd223 O224 2.317 . S
O224 Cd223 2.317 . S
O224 C225 1.232 . S
C225 O224 1.232 . S
C225 O226 1.218 . S
O226 C225 1.218 . S
C227 O220 1.275 . S
C227 O222 1.255 . S
C228 O229 1.258 . S
C228 O230 1.256 . S
O229 Cd221 2.381 . S
O229 C228 1.258 . S
O230 Cd221 2.378 . S
O230 C228 1.256 . S
O231 Cd232 2.300 . S
O231 C238 1.275 . S
Cd232 O231 2.300 . S
Cd232 O240 2.381 1_455 S
Cd232 O241 2.378 . S
O233 Cd234 2.385 . S
O233 C238 1.255 . S
Cd234 O233 2.385 . S
Cd234 O235 2.317 . S
O235 Cd234 2.317 . S
O235 C236 1.232 . S
C236 O235 1.232 . S
C236 O237 1.218 . S
O237 C236 1.218 . S
C238 O231 1.275 . S
C238 O233 1.255 . S
C239 O240 1.258 . S
C239 O241 1.256 1_655 S
O240 Cd232 2.381 1_655 S
O240 C239 1.258 . S
O241 Cd232 2.378 . S
O241 C239 1.256 1_455 S
O242 Cd243 2.300 . S
O242 C249 1.275 . S
Cd243 O242 2.300 . S
Cd243 O251 2.381 . S
Cd243 O252 2.378 . S
O244 Cd245 2.385 . S
O244 C249 1.255 . S
Cd245 O244 2.385 . S
Cd245 O246 2.317 . S
O246 Cd245 2.317 . S
O246 C247 1.232 . S
C247 O246 1.232 . S
C247 O248 1.218 . S
O248 C247 1.218 . S
C249 O242 1.275 . S
C249 O244 1.255 . S
C250 O251 1.258 . S
C250 O252 1.256 . S
O251 Cd243 2.381 . S
O251 C250 1.258 . S
O252 Cd243 2.378 . S
O252 C250 1.256 . S
O253 Cd254 2.300 . S
O253 C260 1.275 . S
Cd254 O253 2.300 . S
Cd254 O262 2.381 1_655 S
Cd254 O263 2.378 . S
O255 Cd256 2.385 . S
O255 C260 1.255 . S
Cd256 O255 2.385 . S
Cd256 O257 2.317 . S
O257 Cd256 2.317 . S
O257 C258 1.232 . S
C258 O257 1.232 . S
C258 O259 1.218 . S
O259 C258 1.218 . S
C260 O253 1.275 . S
C260 O255 1.255 . S
C261 O262 1.258 . S
C261 O263 1.256 1_455 S
O262 Cd254 2.381 1_455 S
O262 C261 1.258 . S
O263 Cd254 2.378 . S
O263 C261 1.256 1_655 S
H264 C265 0.949 . S
C265 H264 0.949 . S
C265 C266 1.395 . S
C265 C267 1.391 . S
C266 C265 1.395 . S
C266 C269 1.390 . S
C267 C265 1.391 . S
C267 C271 1.387 . S
C267 C272 1.491 . S
H268 C269 0.950 . S
C269 C266 1.390 . S
C269 H268 0.950 . S
C269 C270 1.378 . S
C270 C269 1.378 . S
C270 C271 1.409 . S
C271 C267 1.387 . S
C271 C270 1.409 . S
C271 H273 0.951 . S
C272 C267 1.491 . S
C272 C274 1.382 . S
C272 C276 1.404 . S
H273 C271 0.951 . S
C274 C272 1.382 . S
C274 C275 1.390 . S
C274 H279 0.949 . S
C275 C274 1.390 . S
C275 C280 1.399 . S
C276 C272 1.404 . S
C276 H277 0.950 . S
C276 C278 1.375 . S
H277 C276 0.950 . S
C278 C276 1.375 . S
C278 C280 1.382 . S
C278 H282 0.950 . S
H279 C274 0.949 . S
C280 C275 1.399 . S
C280 C278 1.382 . S
C280 H281 0.952 . S
H281 C280 0.952 . S
H282 C278 0.950 . S
H283 C284 0.949 . S
C284 H283 0.949 . S
C284 C285 1.395 . S
C284 C286 1.391 . S
C285 C284 1.395 . S
C285 C288 1.390 . S
C286 C284 1.391 . S
C286 C290 1.387 1_556 S
C286 C291 1.491 1_556 S
H287 C288 0.950 . S
C288 C285 1.390 . S
C288 H287 0.950 . S
C288 C289 1.378 . S
C289 C288 1.378 . S
C289 C290 1.409 1_556 S
C290 C286 1.387 1_554 S
C290 C289 1.409 1_554 S
C290 H292 0.951 . S
C291 C286 1.491 1_554 S
C291 C293 1.382 1_554 S
C291 C295 1.404 . S
H292 C290 0.951 . S
C293 C291 1.382 1_556 S
C293 C294 1.390 1_556 S
C293 H298 0.949 . S
C294 C293 1.390 1_554 S
C294 C299 1.399 . S
C295 C291 1.404 . S
C295 H296 0.950 . S
C295 C297 1.375 . S
H296 C295 0.950 . S
C297 C295 1.375 . S
C297 C299 1.382 . S
C297 H301 0.950 . S
H298 C293 0.949 . S
C299 C294 1.399 . S
C299 C297 1.382 . S
C299 H300 0.952 . S
H300 C299 0.952 . S
H301 C297 0.950 . S
H302 C303 0.949 . S
C303 H302 0.949 . S
C303 C304 1.395 . S
C303 C305 1.391 . S
C304 C303 1.395 . S
C304 C307 1.390 . S
C305 C303 1.391 . S
C305 C309 1.387 . S
C305 C310 1.491 . S
H306 C307 0.950 . S
C307 C304 1.390 . S
C307 H306 0.950 . S
C307 C308 1.378 . S
C308 C307 1.378 . S
C308 C309 1.409 . S
C309 C305 1.387 . S
C309 C308 1.409 . S
C309 H311 0.951 . S
C310 C305 1.491 . S
C310 C312 1.382 . S
C310 C314 1.404 . S
H311 C309 0.951 . S
C312 C310 1.382 . S
C312 C313 1.390 . S
C312 H317 0.949 . S
C313 C312 1.390 . S
C313 C318 1.399 . S
C314 C310 1.404 . S
C314 H315 0.950 . S
C314 C316 1.375 . S
H315 C314 0.950 . S
C316 C314 1.375 . S
C316 C318 1.382 . S
C316 H320 0.950 . S
H317 C312 0.949 . S
C318 C313 1.399 . S
C318 C316 1.382 . S
C318 H319 0.952 . S
H319 C318 0.952 . S
H320 C316 0.950 . S
H321 C322 0.949 . S
C322 H321 0.949 . S
C322 C323 1.395 . S
C322 C324 1.391 . S
C323 C322 1.395 . S
C323 C326 1.390 . S
C324 C322 1.391 . S
C324 C328 1.387 1_554 S
C324 C329 1.491 1_554 S
H325 C326 0.950 . S
C326 C323 1.390 . S
C326 H325 0.950 . S
C326 C327 1.378 . S
C327 C326 1.378 . S
C327 C328 1.409 1_554 S
C328 C324 1.387 1_556 S
C328 C327 1.409 1_556 S
C328 H330 0.951 . S
C329 C324 1.491 1_556 S
C329 C331 1.382 1_556 S
C329 C333 1.404 . S
H330 C328 0.951 . S
C331 C329 1.382 1_554 S
C331 C332 1.390 1_554 S
C331 H336 0.949 . S
C332 C331 1.390 1_556 S
C332 C337 1.399 . S
C333 C329 1.404 . S
C333 H334 0.950 . S
C333 C335 1.375 . S
H334 C333 0.950 . S
C335 C333 1.375 . S
C335 C337 1.382 . S
C335 H339 0.950 . S
H336 C331 0.949 . S
C337 C332 1.399 . S
C337 C335 1.382 . S
C337 H338 0.952 . S
H338 C337 0.952 . S
H339 C335 0.950 . S
H340 C341 0.949 . S
C341 H340 0.949 . S
C341 C342 1.395 . S
C341 C343 1.391 . S
C342 C341 1.395 . S
C342 C345 1.390 . S
C343 C341 1.391 . S
C343 C347 1.387 . S
C343 C348 1.491 . S
H344 C345 0.950 . S
C345 C342 1.390 . S
C345 H344 0.950 . S
C345 C346 1.378 . S
C346 C345 1.378 . S
C346 C347 1.409 . S
C347 C343 1.387 . S
C347 C346 1.409 . S
C347 H349 0.951 . S
C348 C343 1.491 . S
C348 C350 1.382 . S
C348 C352 1.404 . S
H349 C347 0.951 . S
C350 C348 1.382 . S
C350 C351 1.390 . S
C350 H355 0.949 . S
C351 C350 1.390 . S
C351 C356 1.399 . S
C352 C348 1.404 . S
C352 H353 0.950 . S
C352 C354 1.375 . S
H353 C352 0.950 . S
C354 C352 1.375 . S
C354 C356 1.382 . S
C354 H358 0.950 . S
H355 C350 0.949 . S
C356 C351 1.399 . S
C356 C354 1.382 . S
C356 H357 0.952 . S
H357 C356 0.952 . S
H358 C354 0.950 . S
H359 C360 0.949 . S
C360 H359 0.949 . S
C360 C361 1.395 . S
C360 C362 1.391 . S
C361 C360 1.395 . S
C361 C364 1.390 . S
C362 C360 1.391 . S
C362 C366 1.387 1_455 S
C362 C367 1.491 1_455 S
H363 C364 0.950 . S
C364 C361 1.390 . S
C364 H363 0.950 . S
C364 C365 1.378 . S
C365 C364 1.378 . S
C365 C366 1.409 1_455 S
C366 C362 1.387 1_655 S
C366 C365 1.409 1_655 S
C366 H368 0.951 . S
C367 C362 1.491 1_655 S
C367 C369 1.382 1_655 S
C367 C371 1.404 . S
H368 C366 0.951 . S
C369 C367 1.382 1_455 S
C369 C370 1.390 1_455 S
C369 H374 0.949 . S
C370 C369 1.390 1_655 S
C370 C375 1.399 . S
C371 C367 1.404 . S
C371 H372 0.950 . S
C371 C373 1.375 . S
H372 C371 0.950 . S
C373 C371 1.375 . S
C373 C375 1.382 . S
C373 H377 0.950 . S
H374 C369 0.949 . S
C375 C370 1.399 . S
C375 C373 1.382 . S
C375 H376 0.952 . S
H376 C375 0.952 . S
H377 C373 0.950 . S
H378 C379 0.949 . S
C379 H378 0.949 . S
C379 C380 1.395 . S
C379 C381 1.391 . S
C380 C379 1.395 . S
C380 C383 1.390 . S
C381 C379 1.391 . S
C381 C385 1.387 1_655 S
C381 C386 1.491 1_655 S
H382 C383 0.950 . S
C383 C380 1.390 . S
C383 H382 0.950 . S
C383 C384 1.378 . S
C384 C383 1.378 . S
C384 C385 1.409 1_655 S
C385 C381 1.387 1_455 S
C385 C384 1.409 1_455 S
C385 H387 0.951 . S
C386 C381 1.491 1_455 S
C386 C388 1.382 1_455 S
C386 C390 1.404 . S
H387 C385 0.951 . S
C388 C386 1.382 1_655 S
C388 C389 1.390 1_655 S
C388 H393 0.949 . S
C389 C388 1.390 1_455 S
C389 C394 1.399 . S
C390 C386 1.404 . S
C390 H391 0.950 . S
C390 C392 1.375 . S
H391 C390 0.950 . S
C392 C390 1.375 . S
C392 C394 1.382 . S
C392 H396 0.950 . S
H393 C388 0.949 . S
C394 C389 1.399 . S
C394 C392 1.382 . S
C394 H395 0.952 . S
H395 C394 0.952 . S
H396 C392 0.950 . S
H397 C398 0.949 . S
C398 H397 0.949 . S
C398 C399 1.395 . S
C398 C400 1.391 . S
C399 C398 1.395 . S
C399 C402 1.390 . S
C400 C398 1.391 . S
C400 C404 1.387 . S
C400 C405 1.491 . S
H401 C402 0.950 . S
C402 C399 1.390 . S
C402 H401 0.950 . S
C402 C403 1.378 . S
C403 C402 1.378 . S
C403 C404 1.409 . S
C404 C400 1.387 . S
C404 C403 1.409 . S
C404 H406 0.951 . S
C405 C400 1.491 . S
C405 C407 1.382 . S
C405 C409 1.404 . S
H406 C404 0.951 . S
C407 C405 1.382 . S
C407 C408 1.390 . S
C407 H412 0.949 . S
C408 C407 1.390 . S
C408 C413 1.399 . S
C409 C405 1.404 . S
C409 H410 0.950 . S
C409 C411 1.375 . S
H410 C409 0.950 . S
C411 C409 1.375 . S
C411 C413 1.382 . S
C411 H415 0.950 . S
H412 C407 0.949 . S
C413 C408 1.399 . S
C413 C411 1.382 . S
C413 H414 0.952 . S
H414 C413 0.952 . S
H415 C411 0.950 . S
H416 C417 0.949 . S
C417 H416 0.949 . S
C417 C418 1.395 . S
C417 C419 1.391 . S
C418 C417 1.395 . S
C418 C421 1.390 . S
C419 C417 1.391 . S
C419 C423 1.387 . S
C419 C424 1.491 . S
H420 C421 0.950 . S
C421 C418 1.390 . S
C421 H420 0.950 . S
C421 C422 1.378 . S
C422 C421 1.378 . S
C422 C423 1.409 . S
C423 C419 1.387 . S
C423 C422 1.409 . S
C423 H425 0.951 . S
C424 C419 1.491 . S
C424 C426 1.382 . S
C424 C428 1.404 . S
H425 C423 0.951 . S
C426 C424 1.382 . S
C426 C427 1.390 . S
C426 H431 0.949 . S
C427 C426 1.390 . S
C427 C432 1.399 . S
C428 C424 1.404 . S
C428 H429 0.950 . S
C428 C430 1.375 . S
H429 C428 0.950 . S
C430 C428 1.375 . S
C430 C432 1.382 . S
C430 H434 0.950 . S
H431 C426 0.949 . S
C432 C427 1.399 . S
C432 C430 1.382 . S
C432 H433 0.952 . S
H433 C432 0.952 . S
H434 C430 0.950 . S
H435 C436 0.949 . S
C436 H435 0.949 . S
C436 C437 1.395 . S
C436 C438 1.391 . S
C437 C436 1.395 . S
C437 C440 1.390 . S
C438 C436 1.391 . S
C438 C442 1.387 1_545 S
C438 C443 1.491 1_545 S
H439 C440 0.950 . S
C440 C437 1.390 . S
C440 H439 0.950 . S
C440 C441 1.378 . S
C441 C440 1.378 . S
C441 C442 1.409 1_545 S
C442 C438 1.387 1_565 S
C442 C441 1.409 1_565 S
C442 H444 0.951 . S
C443 C438 1.491 1_565 S
C443 C445 1.382 1_565 S
C443 C447 1.404 . S
H444 C442 0.951 . S
C445 C443 1.382 1_545 S
C445 C446 1.390 1_545 S
C445 H450 0.949 . S
C446 C445 1.390 1_565 S
C446 C451 1.399 . S
C447 C443 1.404 . S
C447 H448 0.950 . S
C447 C449 1.375 . S
H448 C447 0.950 . S
C449 C447 1.375 . S
C449 C451 1.382 . S
C449 H453 0.950 . S
H450 C445 0.949 . S
C451 C446 1.399 . S
C451 C449 1.382 . S
C451 H452 0.952 . S
H452 C451 0.952 . S
H453 C449 0.950 . S
H454 C455 0.949 . S
C455 H454 0.949 . S
C455 C456 1.395 . S
C455 C457 1.391 . S
C456 C455 1.395 . S
C456 C459 1.390 . S
C457 C455 1.391 . S
C457 C461 1.387 1_565 S
C457 C462 1.491 1_565 S
H458 C459 0.950 . S
C459 C456 1.390 . S
C459 H458 0.950 . S
C459 C460 1.378 . S
C460 C459 1.378 . S
C460 C461 1.409 1_565 S
C461 C457 1.387 1_545 S
C461 C460 1.409 1_545 S
C461 H463 0.951 . S
C462 C457 1.491 1_545 S
C462 C464 1.382 1_545 S
C462 C466 1.404 . S
H463 C461 0.951 . S
C464 C462 1.382 1_565 S
C464 C465 1.390 1_565 S
C464 H469 0.949 . S
C465 C464 1.390 1_545 S
C465 C470 1.399 . S
C466 C462 1.404 . S
C466 H467 0.950 . S
C466 C468 1.375 . S
H467 C466 0.950 . S
C468 C466 1.375 . S
C468 C470 1.382 . S
C468 H472 0.950 . S
H469 C464 0.949 . S
C470 C465 1.399 . S
C470 C468 1.382 . S
C470 H471 0.952 . S
H471 C470 0.952 . S
H472 C468 0.950 . S
H473 C474 0.949 . S
C474 H473 0.949 . S
C474 C475 1.395 . S
C474 C476 1.391 . S
C475 C474 1.395 . S
C475 C478 1.390 . S
C476 C474 1.391 . S
C476 C480 1.387 . S
C476 C481 1.491 . S
H477 C478 0.950 . S
C478 C475 1.390 . S
C478 H477 0.950 . S
C478 C479 1.378 . S
C479 C478 1.378 . S
C479 C480 1.409 . S
C480 C476 1.387 . S
C480 C479 1.409 . S
C480 H482 0.951 . S
C481 C476 1.491 . S
C481 C483 1.382 . S
C481 C485 1.404 . S
H482 C480 0.951 . S
C483 C481 1.382 . S
C483 C484 1.390 . S
C483 H488 0.949 . S
C484 C483 1.390 . S
C484 C489 1.399 . S
C485 C481 1.404 . S
C485 H486 0.950 . S
C485 C487 1.375 . S
H486 C485 0.950 . S
C487 C485 1.375 . S
C487 C489 1.382 . S
C487 H491 0.950 . S
H488 C483 0.949 . S
C489 C484 1.399 . S
C489 C487 1.382 . S
C489 H490 0.952 . S
H490 C489 0.952 . S
H491 C487 0.950 . S
H492 C493 0.949 . S
C493 H492 0.949 . S
C493 C494 1.395 . S
C493 C495 1.391 . S
C494 C493 1.395 . S
C494 C497 1.390 . S
C495 C493 1.391 . S
C495 C499 1.387 . S
C495 C500 1.491 . S
H496 C497 0.950 . S
C497 C494 1.390 . S
C497 H496 0.950 . S
C497 C498 1.378 . S
C498 C497 1.378 . S
C498 C499 1.409 . S
C499 C495 1.387 . S
C499 C498 1.409 . S
C499 H501 0.951 . S
C500 C495 1.491 . S
C500 C502 1.382 . S
C500 C504 1.404 . S
H501 C499 0.951 . S
C502 C500 1.382 . S
C502 C503 1.390 . S
C502 H507 0.949 . S
C503 C502 1.390 . S
C503 C508 1.399 . S
C504 C500 1.404 . S
C504 H505 0.950 . S
C504 C506 1.375 . S
H505 C504 0.950 . S
C506 C504 1.375 . S
C506 C508 1.382 . S
C506 H510 0.950 . S
H507 C502 0.949 . S
C508 C503 1.399 . S
C508 C506 1.382 . S
C508 H509 0.952 . S
H509 C508 0.952 . S
H510 C506 0.950 . S
H511 C512 0.949 . S
C512 H511 0.949 . S
C512 C513 1.395 . S
C512 C514 1.391 . S
C513 C512 1.395 . S
C513 C516 1.390 . S
C514 C512 1.391 . S
C514 C518 1.387 1_554 S
C514 C519 1.491 1_554 S
H515 C516 0.950 . S
C516 C513 1.390 . S
C516 H515 0.950 . S
C516 C517 1.378 . S
C517 C516 1.378 . S
C517 C518 1.409 1_554 S
C518 C514 1.387 1_556 S
C518 C517 1.409 1_556 S
C518 H520 0.951 . S
C519 C514 1.491 1_556 S
C519 C521 1.382 1_556 S
C519 C523 1.404 . S
H520 C518 0.951 . S
C521 C519 1.382 1_554 S
C521 C522 1.390 1_554 S
C521 H526 0.949 . S
C522 C521 1.390 1_556 S
C522 C527 1.399 . S
C523 C519 1.404 . S
C523 H524 0.950 . S
C523 C525 1.375 . S
H524 C523 0.950 . S
C525 C523 1.375 . S
C525 C527 1.382 . S
C525 H529 0.950 . S
H526 C521 0.949 . S
C527 C522 1.399 . S
C527 C525 1.382 . S
C527 H528 0.952 . S
H528 C527 0.952 . S
H529 C525 0.950 . S
H530 C531 0.949 . S
C531 H530 0.949 . S
C531 C532 1.395 . S
C531 C533 1.391 . S
C532 C531 1.395 . S
C532 C535 1.390 . S
C533 C531 1.391 . S
C533 C537 1.387 . S
C533 C538 1.491 . S
H534 C535 0.950 . S
C535 C532 1.390 . S
C535 H534 0.950 . S
C535 C536 1.378 . S
C536 C535 1.378 . S
C536 C537 1.409 . S
C537 C533 1.387 . S
C537 C536 1.409 . S
C537 H539 0.951 . S
C538 C533 1.491 . S
C538 C540 1.382 . S
C538 C542 1.404 . S
H539 C537 0.951 . S
C540 C538 1.382 . S
C540 C541 1.390 . S
C540 H545 0.949 . S
C541 C540 1.390 . S
C541 C546 1.399 . S
C542 C538 1.404 . S
C542 H543 0.950 . S
C542 C544 1.375 . S
H543 C542 0.950 . S
C544 C542 1.375 . S
C544 C546 1.382 . S
C544 H548 0.950 . S
H545 C540 0.949 . S
C546 C541 1.399 . S
C546 C544 1.382 . S
C546 H547 0.952 . S
H547 C546 0.952 . S
H548 C544 0.950 . S
H549 C550 0.949 . S
C550 H549 0.949 . S
C550 C551 1.395 . S
C550 C552 1.391 . S
C551 C550 1.395 . S
C551 C554 1.390 . S
C552 C550 1.391 . S
C552 C556 1.387 1_556 S
C552 C557 1.475 1_556 S
H553 C554 0.950 . S
C554 C551 1.390 . S
C554 H553 0.950 . S
C554 C555 1.378 . S
C555 C554 1.378 . S
C555 C556 1.409 1_556 S
C556 C552 1.387 1_554 S
C556 C555 1.409 1_554 S
C556 H558 0.951 . S
C557 C552 1.475 1_554 S
C557 C559 1.376 1_554 S
C557 C561 1.427 . S
H558 C556 0.951 . S
C559 C557 1.376 1_556 S
C559 C560 1.390 1_556 S
C559 H564 0.949 . S
C560 C559 1.390 1_554 S
C560 C565 1.399 . S
C561 C557 1.427 . S
C561 H562 0.950 . S
C561 C563 1.375 . S
H562 C561 0.950 . S
C563 C561 1.375 . S
C563 C565 1.382 . S
C563 H567 0.950 . S
H564 C559 0.949 . S
C565 C560 1.399 . S
C565 C563 1.382 . S
C565 H566 0.952 . S
H566 C565 0.952 . S
H567 C563 0.950 . S
H568 C569 0.949 . S
C569 H568 0.949 . S
C569 C570 1.395 . S
C569 C571 1.391 . S
C570 C569 1.395 . S
C570 C573 1.390 . S
C571 C569 1.391 . S
C571 C575 1.387 . S
C571 C576 1.491 . S
H572 C573 0.950 . S
C573 C570 1.390 . S
C573 H572 0.950 . S
C573 C574 1.378 . S
C574 C573 1.378 . S
C574 C575 1.409 . S
C575 C571 1.387 . S
C575 C574 1.409 . S
C575 H577 0.951 . S
C576 C571 1.491 . S
C576 C578 1.382 . S
C576 C580 1.404 . S
H577 C575 0.951 . S
C578 C576 1.382 . S
C578 C579 1.390 . S
C578 H583 0.949 . S
C579 C578 1.390 . S
C579 C584 1.399 . S
C580 C576 1.404 . S
C580 H581 0.950 . S
C580 C582 1.375 . S
H581 C580 0.950 . S
C582 C580 1.375 . S
C582 C584 1.382 . S
C582 H586 0.950 . S
H583 C578 0.949 . S
C584 C579 1.399 . S
C584 C582 1.382 . S
C584 H585 0.952 . S
H585 C584 0.952 . S
H586 C582 0.950 . S
H587 C588 0.949 . S
C588 H587 0.949 . S
C588 C589 1.395 . S
C588 C590 1.391 . S
C589 C588 1.395 . S
C589 C592 1.390 . S
C590 C588 1.391 . S
C590 C594 1.387 1_655 S
C590 C595 1.475 1_655 S
H591 C592 0.950 . S
C592 C589 1.390 . S
C592 H591 0.950 . S
C592 C593 1.378 . S
C593 C592 1.378 . S
C593 C594 1.409 1_655 S
C594 C590 1.387 1_455 S
C594 C593 1.409 1_455 S
C594 H596 0.951 . S
C595 C590 1.475 1_455 S
C595 C597 1.376 1_455 S
C595 C599 1.427 . S
H596 C594 0.951 . S
C597 C595 1.376 1_655 S
C597 C598 1.390 1_655 S
C597 H602 0.949 . S
C598 C597 1.390 1_455 S
C598 C603 1.399 . S
C599 C595 1.427 . S
C599 H600 0.950 . S
C599 C601 1.375 . S
H600 C599 0.950 . S
C601 C599 1.375 . S
C601 C603 1.382 . S
C601 H605 0.950 . S
H602 C597 0.949 . S
C603 C598 1.399 . S
C603 C601 1.382 . S
C603 H604 0.952 . S
H604 C603 0.952 . S
H605 C601 0.950 . S
H606 C607 0.949 . S
C607 H606 0.949 . S
C607 C608 1.395 . S
C607 C609 1.391 . S
C608 C607 1.395 . S
C608 C611 1.390 . S
C609 C607 1.391 . S
C609 C613 1.387 1_455 S
C609 C614 1.491 1_455 S
H610 C611 0.950 . S
C611 C608 1.390 . S
C611 H610 0.950 . S
C611 C612 1.378 . S
C612 C611 1.378 . S
C612 C613 1.409 1_455 S
C613 C609 1.387 1_655 S
C613 C612 1.409 1_655 S
C613 H615 0.951 . S
C614 C609 1.491 1_655 S
C614 C616 1.382 1_655 S
C614 C618 1.404 . S
H615 C613 0.951 . S
C616 C614 1.382 1_455 S
C616 C617 1.390 1_455 S
C616 H621 0.949 . S
C617 C616 1.390 1_655 S
C617 C622 1.399 . S
C618 C614 1.404 . S
C618 H619 0.950 . S
C618 C620 1.375 . S
H619 C618 0.950 . S
C620 C618 1.375 . S
C620 C622 1.382 . S
C620 H624 0.950 . S
H621 C616 0.949 . S
C622 C617 1.399 . S
C622 C620 1.382 . S
C622 H623 0.952 . S
H623 C622 0.952 . S
H624 C620 0.950 . S
H625 C626 0.949 . S
C626 H625 0.949 . S
C626 C627 1.395 . S
C626 C628 1.391 . S
C627 C626 1.395 . S
C627 C630 1.390 . S
C628 C626 1.391 . S
C628 C632 1.387 . S
C628 C633 1.491 . S
H629 C630 0.950 . S
C630 C627 1.390 . S
C630 H629 0.950 . S
C630 C631 1.378 . S
C631 C630 1.378 . S
C631 C632 1.409 . S
C632 C628 1.387 . S
C632 C631 1.409 . S
C632 H634 0.951 . S
C633 C628 1.491 . S
C633 C635 1.382 . S
C633 C637 1.404 . S
H634 C632 0.951 . S
C635 C633 1.382 . S
C635 C636 1.390 . S
C635 H640 0.949 . S
C636 C635 1.390 . S
C636 C641 1.399 . S
C637 C633 1.404 . S
C637 H638 0.950 . S
C637 C639 1.375 . S
H638 C637 0.950 . S
C639 C637 1.375 . S
C639 C641 1.382 . S
C639 H643 0.950 . S
H640 C635 0.949 . S
C641 C636 1.399 . S
C641 C639 1.382 . S
C641 H642 0.952 . S
H642 C641 0.952 . S
H643 C639 0.950 . S
H644 C645 0.949 . S
C645 H644 0.949 . S
C645 C646 1.395 . S
C645 C647 1.391 . S
C646 C645 1.395 . S
C646 C649 1.390 . S
C647 C645 1.391 . S
C647 C651 1.387 . S
C647 C652 1.491 . S
H648 C649 0.950 . S
C649 C646 1.390 . S
C649 H648 0.950 . S
C649 C650 1.378 . S
C650 C649 1.378 . S
C650 C651 1.409 . S
C651 C647 1.387 . S
C651 C650 1.409 . S
C651 H653 0.951 . S
C652 C647 1.491 . S
C652 C654 1.382 . S
C652 C656 1.404 . S
H653 C651 0.951 . S
C654 C652 1.382 . S
C654 C655 1.390 . S
C654 H659 0.949 . S
C655 C654 1.390 . S
C655 C660 1.399 . S
C656 C652 1.404 . S
C656 H657 0.950 . S
C656 C658 1.375 . S
H657 C656 0.950 . S
C658 C656 1.375 . S
C658 C660 1.382 . S
C658 H662 0.950 . S
H659 C654 0.949 . S
C660 C655 1.399 . S
C660 C658 1.382 . S
C660 H661 0.952 . S
H661 C660 0.952 . S
H662 C658 0.950 . S
H663 C664 0.949 . S
C664 H663 0.949 . S
C664 C665 1.395 . S
C664 C666 1.391 . S
C665 C664 1.395 . S
C665 C668 1.390 . S
C666 C664 1.391 . S
C666 C670 1.387 1_565 S
C666 C671 1.475 1_565 S
H667 C668 0.950 . S
C668 C665 1.390 . S
C668 H667 0.950 . S
C668 C669 1.378 . S
C669 C668 1.378 . S
C669 C670 1.409 1_565 S
C670 C666 1.387 1_545 S
C670 C669 1.409 1_545 S
C670 H672 0.951 . S
C671 C666 1.475 1_545 S
C671 C673 1.376 1_545 S
C671 C675 1.427 . S
H672 C670 0.951 . S
C673 C671 1.376 1_565 S
C673 C674 1.390 1_565 S
C673 H678 0.949 . S
C674 C673 1.390 1_545 S
C674 C679 1.399 . S
C675 C671 1.427 . S
C675 H676 0.950 . S
C675 C677 1.375 . S
H676 C675 0.950 . S
C677 C675 1.375 . S
C677 C679 1.382 . S
C677 H681 0.950 . S
H678 C673 0.949 . S
C679 C674 1.399 . S
C679 C677 1.382 . S
C679 H680 0.952 . S
H680 C679 0.952 . S
H681 C677 0.950 . S
H682 C683 0.949 . S
C683 H682 0.949 . S
C683 C684 1.395 . S
C683 C685 1.391 . S
C684 C683 1.395 . S
C684 C687 1.390 . S
C685 C683 1.391 . S
C685 C689 1.387 1_545 S
C685 C690 1.491 1_545 S
H686 C687 0.950 . S
C687 C684 1.390 . S
C687 H686 0.950 . S
C687 C688 1.378 . S
C688 C687 1.378 . S
C688 C689 1.409 1_545 S
C689 C685 1.387 1_565 S
C689 C688 1.409 1_565 S
C689 H691 0.951 . S
C690 C685 1.491 1_565 S
C690 C692 1.382 1_565 S
C690 C694 1.404 . S
H691 C689 0.951 . S
C692 C690 1.382 1_545 S
C692 C693 1.390 1_545 S
C692 H697 0.949 . S
C693 C692 1.390 1_565 S
C693 C698 1.399 . S
C694 C690 1.404 . S
C694 H695 0.950 . S
C694 C696 1.375 . S
H695 C694 0.950 . S
C696 C694 1.375 . S
C696 C698 1.382 . S
C696 H700 0.950 . S
H697 C692 0.949 . S
C698 C693 1.399 . S
C698 C696 1.382 . S
C698 H699 0.952 . S
H699 C698 0.952 . S
H700 C696 0.950 . S
H701 C702 0.949 . S
C702 H701 0.949 . S
C702 C703 1.395 . S
C702 C704 1.391 . S
C703 C702 1.395 . S
C703 C706 1.390 . S
C704 C702 1.391 . S
C704 C708 1.387 . S
C704 C709 1.491 . S
H705 C706 0.950 . S
C706 C703 1.390 . S
C706 H705 0.950 . S
C706 C707 1.378 . S
C707 C706 1.378 . S
C707 C708 1.409 . S
C708 C704 1.387 . S
C708 C707 1.409 . S
C708 H710 0.951 . S
C709 C704 1.491 . S
C709 C711 1.382 . S
C709 C713 1.404 . S
H710 C708 0.951 . S
C711 C709 1.382 . S
C711 C712 1.390 . S
C711 H716 0.949 . S
C712 C711 1.390 . S
C712 C717 1.399 . S
C713 C709 1.404 . S
C713 H714 0.950 . S
C713 C715 1.375 . S
H714 C713 0.950 . S
C715 C713 1.375 . S
C715 C717 1.382 . S
C715 H719 0.950 . S
H716 C711 0.949 . S
C717 C712 1.399 . S
C717 C715 1.382 . S
C717 H718 0.952 . S
H718 C717 0.952 . S
H719 C715 0.950 . S
H720 C728 0.950 . S
H721 C733 0.950 . S
H722 C730 0.950 . S
H723 C732 0.950 . S
H724 C734 0.950 . S
H725 C736 0.950 . S
H726 C738 0.950 . S
H727 C739 0.950 . S
C728 H720 0.950 . S
C728 C729 1.386 . S
C728 C730 1.391 . S
C729 C728 1.386 . S
C729 C733 1.393 . S
C730 H722 0.950 . S
C730 C728 1.391 . S
C730 C731 1.400 . S
C731 C730 1.400 . S
C731 C732 1.398 . S
C731 C737 1.491 . S
C732 H723 0.950 . S
C732 C731 1.398 . S
C732 C733 1.391 . S
C733 H721 0.950 . S
C733 C729 1.393 . S
C733 C732 1.391 . S
C734 H724 0.950 . S
C734 C735 1.386 . S
C734 C736 1.391 1_655 S
C735 C734 1.386 . S
C735 C739 1.393 . S
C736 H725 0.950 . S
C736 C734 1.391 1_455 S
C736 C737 1.400 . S
C737 C731 1.491 . S
C737 C736 1.400 . S
C737 C738 1.398 . S
C738 H726 0.950 . S
C738 C737 1.398 . S
C738 C739 1.391 1_455 S
C739 H727 0.950 . S
C739 C735 1.393 . S
C739 C738 1.391 1_655 S
H740 C748 0.950 . S
H741 C753 0.950 . S
H742 C750 0.950 . S
H743 C752 0.950 . S
H744 C754 0.950 . S
H745 C756 0.950 . S
H746 C758 0.950 . S
H747 C759 0.950 . S
C748 H740 0.950 . S
C748 C749 1.386 . S
C748 C750 1.391 . S
C749 C748 1.386 . S
C749 C753 1.393 . S
C750 H742 0.950 . S
C750 C748 1.391 . S
C750 C751 1.400 . S
C751 C750 1.400 . S
C751 C752 1.398 . S
C751 C757 1.491 . S
C752 H743 0.950 . S
C752 C751 1.398 . S
C752 C753 1.391 . S
C753 H741 0.950 . S
C753 C749 1.393 . S
C753 C752 1.391 . S
C754 H744 0.950 . S
C754 C755 1.386 . S
C754 C756 1.391 . S
C755 C754 1.386 . S
C755 C759 1.393 . S
C756 H745 0.950 . S
C756 C754 1.391 . S
C756 C757 1.400 . S
C757 C751 1.491 . S
C757 C756 1.400 . S
C757 C758 1.398 . S
C758 H746 0.950 . S
C758 C757 1.398 . S
C758 C759 1.391 . S
C759 H747 0.950 . S
C759 C755 1.393 . S
C759 C758 1.391 . S
H760 C768 0.950 . S
H761 C773 0.950 . S
H762 C770 0.950 . S
H763 C772 0.950 . S
H764 C774 0.950 . S
H765 C776 0.950 . S
H766 C778 0.950 . S
H767 C779 0.950 . S
C768 H760 0.950 . S
C768 C769 1.386 . S
C768 C770 1.391 . S
C769 C768 1.386 . S
C769 C773 1.393 1_565 S
C770 H762 0.950 . S
C770 C768 1.391 . S
C770 C771 1.400 . S
C771 C770 1.400 . S
C771 C772 1.398 1_565 S
C771 C777 1.491 . S
C772 H763 0.950 . S
C772 C771 1.398 1_545 S
C772 C773 1.391 . S
C773 H761 0.950 . S
C773 C769 1.393 1_545 S
C773 C772 1.391 . S
C774 H764 0.950 . S
C774 C775 1.386 1_545 S
C774 C776 1.391 . S
C775 C774 1.386 1_565 S
C775 C779 1.393 . S
C776 H765 0.950 . S
C776 C774 1.391 . S
C776 C777 1.400 1_545 S
C777 C771 1.491 . S
C777 C776 1.400 1_565 S
C777 C778 1.398 . S
C778 H766 0.950 . S
C778 C777 1.398 . S
C778 C779 1.391 . S
C779 H767 0.950 . S
C779 C775 1.393 . S
C779 C778 1.391 . S
H780 C788 0.950 . S
H781 C793 0.950 . S
H782 C790 0.950 . S
H783 C792 0.950 . S
H784 C794 0.950 . S
H785 C796 0.950 1_655 S
H786 C798 0.950 1_655 S
H787 C799 0.950 . S
C788 H780 0.950 . S
C788 C789 1.386 1_565 S
C788 C790 1.391 . S
C789 C788 1.386 1_545 S
C789 C793 1.393 . S
C790 H782 0.950 . S
C790 C788 1.391 . S
C790 C791 1.400 1_565 S
C791 C790 1.400 1_545 S
C791 C792 1.398 . S
C791 C797 1.491 . S
C792 H783 0.950 . S
C792 C791 1.398 . S
C792 C793 1.391 . S
C793 H781 0.950 . S
C793 C789 1.393 . S
C793 C792 1.391 . S
C794 H784 0.950 . S
C794 C795 1.386 . S
C794 C796 1.391 . S
C795 C794 1.386 . S
C795 C799 1.393 1_545 S
C796 H785 0.950 1_455 S
C796 C794 1.391 . S
C796 C797 1.400 1_455 S
C797 C791 1.491 . S
C797 C796 1.400 1_655 S
C797 C798 1.398 1_645 S
C798 H786 0.950 1_455 S
C798 C797 1.398 1_465 S
C798 C799 1.391 . S
C799 H787 0.950 . S
C799 C795 1.393 1_565 S
C799 C798 1.391 . S
H800 C808 0.950 . S
H801 C813 0.950 . S
H802 C810 0.950 . S
H803 C812 0.950 . S
H804 C814 0.950 . S
H805 C816 0.950 . S
H806 C818 0.950 . S
H807 C819 0.950 . S
C808 H800 0.950 . S
C808 C809 1.386 . S
C808 C810 1.391 . S
C809 C808 1.386 . S
C809 C813 1.393 . S
C810 H802 0.950 . S
C810 C808 1.391 . S
C810 C811 1.400 . S
C811 C810 1.400 . S
C811 C812 1.398 . S
C811 C817 1.491 . S
C812 H803 0.950 . S
C812 C811 1.398 . S
C812 C813 1.391 . S
C813 H801 0.950 . S
C813 C809 1.393 . S
C813 C812 1.391 . S
C814 H804 0.950 . S
C814 C815 1.386 . S
C814 C816 1.391 1_565 S
C815 C814 1.386 . S
C815 C819 1.393 . S
C816 H805 0.950 . S
C816 C814 1.391 1_545 S
C816 C817 1.400 . S
C817 C811 1.491 . S
C817 C816 1.400 . S
C817 C818 1.398 . S
C818 H806 0.950 . S
C818 C817 1.398 . S
C818 C819 1.391 1_545 S
C819 H807 0.950 . S
C819 C815 1.393 . S
C819 C818 1.391 1_565 S
H820 C828 0.950 . S
H821 C833 0.950 1_556 S
H822 C830 0.950 . S
H823 C832 0.942 1_556 S
H824 C834 0.950 . S
H825 C836 0.950 1_565 S
H826 C838 0.950 1_565 S
H827 C839 0.950 . S
C828 H820 0.950 . S
C828 C829 1.386 . S
C828 C830 1.391 . S
C829 C828 1.386 . S
C829 C833 1.393 . S
C830 H822 0.950 . S
C830 C828 1.391 . S
C830 C831 1.400 . S
C831 C830 1.400 . S
C831 C832 1.405 . S
C831 C837 1.491 . S
C832 H823 0.942 1_554 S
C832 C831 1.405 . S
C832 C833 1.393 . S
C833 H821 0.950 1_554 S
C833 C829 1.393 . S
C833 C832 1.393 . S
C834 H824 0.950 . S
C834 C835 1.372 1_556 S
C834 C836 1.391 . S
C835 C834 1.372 1_554 S
C835 C839 1.411 . S
C836 H825 0.950 1_545 S
C836 C834 1.391 . S
C836 C837 1.400 1_546 S
C837 C831 1.491 . S
C837 C836 1.400 1_564 S
C837 C838 1.398 1_565 S
C838 H826 0.950 1_545 S
C838 C837 1.398 1_545 S
C838 C839 1.391 . S
C839 H827 0.950 . S
C839 C835 1.411 . S
C839 C838 1.391 . S
H840 C848 0.950 . S
H841 C853 0.950 . S
H842 C850 0.950 . S
H843 C852 0.950 . S
H844 C854 0.950 . S
H845 C856 0.950 . S
H846 C858 0.950 . S
H847 C859 0.950 . S
C848 H840 0.950 . S
C848 C849 1.386 . S
C848 C850 1.391 . S
C849 C848 1.386 . S
C849 C853 1.393 . S
C850 H842 0.950 . S
C850 C848 1.391 . S
C850 C851 1.400 . S
C851 C850 1.400 . S
C851 C852 1.398 . S
C851 C857 1.491 . S
C852 H843 0.950 . S
C852 C851 1.398 . S
C852 C853 1.391 . S
C853 H841 0.950 . S
C853 C849 1.393 . S
C853 C852 1.391 . S
C854 H844 0.950 . S
C854 C855 1.386 . S
C854 C856 1.391 . S
C855 C854 1.386 . S
C855 C859 1.393 . S
C856 H845 0.950 . S
C856 C854 1.391 . S
C856 C857 1.400 . S
C857 C851 1.491 . S
C857 C856 1.400 . S
C857 C858 1.398 . S
C858 H846 0.950 . S
C858 C857 1.398 . S
C858 C859 1.391 . S
C859 H847 0.950 . S
C859 C855 1.393 . S
C859 C858 1.391 . S
H860 C868 0.950 . S
H861 C873 0.950 . S
H862 C870 0.950 . S
H863 C872 0.950 . S
H864 C874 0.950 . S
H865 C876 0.950 . S
H866 C878 0.950 . S
H867 C879 0.950 . S
C868 H860 0.950 . S
C868 C869 1.386 1_554 S
C868 C870 1.391 . S
C869 C868 1.386 1_556 S
C869 C873 1.393 . S
C870 H862 0.950 . S
C870 C868 1.391 . S
C870 C871 1.400 1_554 S
C871 C870 1.400 1_556 S
C871 C872 1.398 . S
C871 C877 1.491 . S
C872 H863 0.950 . S
C872 C871 1.398 . S
C872 C873 1.391 . S
C873 H861 0.950 . S
C873 C869 1.393 . S
C873 C872 1.391 . S
C874 H864 0.950 . S
C874 C875 1.386 . S
C874 C876 1.391 . S
C875 C874 1.386 . S
C875 C879 1.393 1_556 S
C876 H865 0.950 . S
C876 C874 1.391 . S
C876 C877 1.400 . S
C877 C871 1.491 . S
C877 C876 1.400 . S
C877 C878 1.398 1_556 S
C878 H866 0.950 . S
C878 C877 1.398 1_554 S
C878 C879 1.391 . S
C879 H867 0.950 . S
C879 C875 1.393 1_554 S
C879 C878 1.391 . S
H880 C888 0.950 . S
H881 C893 0.950 . S
H882 C890 0.950 . S
H883 C892 0.950 . S
H884 C894 0.950 . S
H885 C896 0.950 . S
H886 C898 0.950 . S
H887 C899 0.950 . S
C888 H880 0.950 . S
C888 C889 1.386 . S
C888 C890 1.391 . S
C889 C888 1.386 . S
C889 C893 1.393 . S
C890 H882 0.950 . S
C890 C888 1.391 . S
C890 C891 1.400 . S
C891 C890 1.400 . S
C891 C892 1.398 . S
C891 C897 1.491 . S
C892 H883 0.950 . S
C892 C891 1.398 . S
C892 C893 1.391 . S
C893 H881 0.950 . S
C893 C889 1.393 . S
C893 C892 1.391 . S
C894 H884 0.950 . S
C894 C895 1.386 . S
C894 C896 1.391 1_556 S
C895 C894 1.386 . S
C895 C899 1.393 . S
C896 H885 0.950 . S
C896 C894 1.391 1_554 S
C896 C897 1.400 . S
C897 C891 1.491 . S
C897 C896 1.400 . S
C897 C898 1.398 . S
C898 H886 0.950 . S
C898 C897 1.398 . S
C898 C899 1.391 1_554 S
C899 H887 0.950 . S
C899 C895 1.393 . S
C899 C898 1.391 1_556 S
H900 C908 0.950 . S
H901 C913 0.950 . S
H902 C910 0.950 . S
H903 C912 0.950 . S
H904 C914 0.950 . S
H905 C916 0.950 1_556 S
H906 C918 0.950 1_556 S
H907 C919 0.958 . S
C908 H900 0.950 . S
C908 C909 1.386 . S
C908 C910 1.391 . S
C909 C908 1.386 . S
C909 C913 1.393 . S
C910 H902 0.950 . S
C910 C908 1.391 . S
C910 C911 1.400 . S
C911 C910 1.400 . S
C911 C912 1.398 . S
C911 C917 1.491 . S
C912 H903 0.950 . S
C912 C911 1.398 . S
C912 C913 1.391 . S
C913 H901 0.950 . S
C913 C909 1.393 . S
C913 C912 1.391 . S
C914 H904 0.950 . S
C914 C915 1.392 . S
C914 C916 1.391 . S
C915 C914 1.392 . S
C915 C919 1.390 1_455 S
C916 H905 0.950 1_554 S
C916 C914 1.391 . S
C916 C917 1.400 1_554 S
C917 C911 1.491 . S
C917 C916 1.400 1_556 S
C917 C918 1.399 1_456 S
C918 H906 0.950 1_554 S
C918 C917 1.399 1_654 S
C918 C919 1.388 . S
C919 H907 0.958 . S
C919 C915 1.390 1_655 S
C919 C918 1.388 . S
H920 C928 0.950 . S
H921 C933 0.950 . S
H922 C930 0.950 . S
H923 C932 0.950 . S
H924 C934 0.950 . S
H925 C936 0.950 . S
H926 C938 0.950 . S
H927 C939 0.950 . S
C928 H920 0.950 . S
C928 C929 1.386 . S
C928 C930 1.391 . S
C929 C928 1.386 . S
C929 C933 1.393 . S
C930 H922 0.950 . S
C930 C928 1.391 . S
C930 C931 1.400 . S
C931 C930 1.400 . S
C931 C932 1.398 . S
C931 C937 1.491 . S
C932 H923 0.950 . S
C932 C931 1.398 . S
C932 C933 1.391 . S
C933 H921 0.950 . S
C933 C929 1.393 . S
C933 C932 1.391 . S
C934 H924 0.950 . S
C934 C935 1.386 . S
C934 C936 1.391 . S
C935 C934 1.386 . S
C935 C939 1.393 . S
C936 H925 0.950 . S
C936 C934 1.391 . S
C936 C937 1.400 . S
C937 C931 1.491 . S
C937 C936 1.400 . S
C937 C938 1.398 . S
C938 H926 0.950 . S
C938 C937 1.398 . S
C938 C939 1.391 . S
C939 H927 0.950 . S
C939 C935 1.393 . S
C939 C938 1.391 . S
H940 C948 0.950 . S
H941 C953 0.950 . S
H942 C950 0.950 . S
H943 C952 0.950 . S
H944 C954 0.950 . S
H945 C956 0.950 . S
H946 C958 0.950 . S
H947 C959 0.950 . S
C948 H940 0.950 . S
C948 C949 1.386 . S
C948 C950 1.391 . S
C949 C948 1.386 . S
C949 C953 1.393 1_655 S
C950 H942 0.950 . S
C950 C948 1.391 . S
C950 C951 1.400 . S
C951 C950 1.400 . S
C951 C952 1.398 1_655 S
C951 C957 1.491 . S
C952 H943 0.950 . S
C952 C951 1.398 1_455 S
C952 C953 1.391 . S
C953 H941 0.950 . S
C953 C949 1.393 1_455 S
C953 C952 1.391 . S
C954 H944 0.950 . S
C954 C955 1.386 1_455 S
C954 C956 1.391 . S
C955 C954 1.386 1_655 S
C955 C959 1.393 . S
C956 H945 0.950 . S
C956 C954 1.391 . S
C956 C957 1.400 1_455 S
C957 C951 1.491 . S
C957 C956 1.400 1_655 S
C957 C958 1.398 . S
C958 H946 0.950 . S
C958 C957 1.398 . S
C958 C959 1.391 . S
C959 H947 0.950 . S
C959 C955 1.393 . S
C959 C958 1.391 . S
H960 C968 0.950 . S
H961 C973 0.950 . S
H962 C970 0.950 . S
H963 C972 0.950 . S
H964 C974 0.950 . S
H965 C976 0.950 . S
H966 C978 0.950 . S
H967 C979 0.950 . S
C968 H960 0.950 . S
C968 C969 1.386 . S
C968 C970 1.391 . S
C969 C968 1.386 . S
C969 C973 1.393 . S
C970 H962 0.950 . S
C970 C968 1.391 . S
C970 C971 1.400 . S
C971 C970 1.400 . S
C971 C972 1.398 . S
C971 C977 1.491 . S
C972 H963 0.950 . S
C972 C971 1.398 . S
C972 C973 1.391 . S
C973 H961 0.950 . S
C973 C969 1.393 . S
C973 C972 1.391 . S
C974 H964 0.950 . S
C974 C975 1.386 . S
C974 C976 1.391 1_455 S
C975 C974 1.386 . S
C975 C979 1.393 . S
C976 H965 0.950 . S
C976 C974 1.391 1_655 S
C976 C977 1.400 . S
C977 C971 1.491 . S
C977 C976 1.400 . S
C977 C978 1.398 . S
C978 H966 0.950 . S
C978 C977 1.398 . S
C978 C979 1.391 1_655 S
C979 H967 0.950 . S
C979 C975 1.393 . S
C979 C978 1.391 1_455 S
H980 C988 0.950 . S
H981 C993 0.950 . S
H982 C990 0.950 . S
H983 C992 0.950 . S
H984 C994 0.950 . S
H985 C996 0.950 . S
H986 C998 0.950 . S
H987 C999 0.950 . S
C988 H980 0.950 . S
C988 C989 1.386 . S
C988 C990 1.391 . S
C989 C988 1.386 . S
C989 C993 1.393 . S
C990 H982 0.950 . S
C990 C988 1.391 . S
C990 C991 1.400 . S
C991 C990 1.400 . S
C991 C992 1.398 . S
C991 C997 1.491 . S
C992 H983 0.950 . S
C992 C991 1.398 . S
C992 C993 1.391 . S
C993 H981 0.950 . S
C993 C989 1.393 . S
C993 C992 1.391 . S
C994 H984 0.950 . S
C994 C995 1.386 . S
C994 C996 1.391 . S
C995 C994 1.386 . S
C995 C999 1.393 . S
C996 H985 0.950 . S
C996 C994 1.391 . S
C996 C997 1.400 . S
C997 C991 1.491 . S
C997 C996 1.400 . S
C997 C998 1.398 . S
C998 H986 0.950 . S
C998 C997 1.398 . S
C998 C999 1.391 . S
C999 H987 0.950 . S
C999 C995 1.393 . S
C999 C998 1.391 . S
H1000 C1008 0.950 . S
H1001 C1013 0.950 . S
H1002 C1010 0.950 . S
H1003 C1012 0.950 . S
H1004 C1014 0.950 . S
H1005 C1016 0.950 . S
H1006 C1018 0.950 . S
H1007 C1019 0.950 . S
C1008 H1000 0.950 . S
C1008 C1009 1.386 1_565 S
C1008 C1010 1.391 . S
C1009 C1008 1.386 1_545 S
C1009 C1013 1.393 . S
C1010 H1002 0.950 . S
C1010 C1008 1.391 . S
C1010 C1011 1.400 1_565 S
C1011 C1010 1.400 1_545 S
C1011 C1012 1.398 . S
C1011 C1017 1.491 . S
C1012 H1003 0.950 . S
C1012 C1011 1.398 . S
C1012 C1013 1.391 . S
C1013 H1001 0.950 . S
C1013 C1009 1.393 . S
C1013 C1012 1.391 . S
C1014 H1004 0.950 . S
C1014 C1015 1.386 . S
C1014 C1016 1.391 . S
C1015 C1014 1.386 . S
C1015 C1019 1.393 1_545 S
C1016 H1005 0.950 . S
C1016 C1014 1.391 . S
C1016 C1017 1.400 . S
C1017 C1011 1.491 . S
C1017 C1016 1.400 . S
C1017 C1018 1.398 1_545 S
C1018 H1006 0.950 . S
C1018 C1017 1.398 1_565 S
C1018 C1019 1.391 . S
C1019 H1007 0.950 . S
C1019 C1015 1.393 1_565 S
C1019 C1018 1.391 . S
H1020 C1028 0.950 . S
H1021 C1033 0.950 . S
H1022 C1030 0.950 . S
H1023 C1032 0.950 . S
H1024 C1034 0.950 . S
H1025 C1036 0.940 1_455 S
H1026 C1038 0.950 1_455 S
H1027 C1039 0.950 . S
C1028 H1020 0.950 . S
C1028 C1029 1.386 1_545 S
C1028 C1030 1.391 . S
C1029 C1028 1.386 1_565 S
C1029 C1033 1.393 . S
C1030 H1022 0.950 . S
C1030 C1028 1.391 . S
C1030 C1031 1.400 1_545 S
C1031 C1030 1.400 1_565 S
C1031 C1032 1.398 . S
C1031 C1037 1.491 . S
C1032 H1023 0.950 . S
C1032 C1031 1.398 . S
C1032 C1033 1.391 . S
C1033 H1021 0.950 . S
C1033 C1029 1.393 . S
C1033 C1032 1.391 . S
C1034 H1024 0.950 . S
C1034 C1035 1.386 . S
C1034 C1036 1.391 . S
C1035 C1034 1.386 . S
C1035 C1039 1.393 1_565 S
C1036 H1025 0.940 1_655 S
C1036 C1034 1.391 . S
C1036 C1037 1.400 1_655 S
C1037 C1031 1.491 . S
C1037 C1036 1.400 1_455 S
C1037 C1038 1.398 1_465 S
C1038 H1026 0.950 1_655 S
C1038 C1037 1.398 1_645 S
C1038 C1039 1.391 . S
C1039 H1027 0.950 . S
C1039 C1035 1.393 1_545 S
C1039 C1038 1.391 . S
H1040 C1048 0.950 . S
H1041 C1053 0.950 . S
H1042 C1050 0.950 . S
H1043 C1052 0.950 . S
H1044 C1054 0.950 . S
H1045 C1056 0.950 . S
H1046 C1058 0.950 . S
H1047 C1059 0.950 . S
C1048 H1040 0.950 . S
C1048 C1049 1.386 . S
C1048 C1050 1.391 . S
C1049 C1048 1.386 . S
C1049 C1053 1.393 . S
C1050 H1042 0.950 . S
C1050 C1048 1.391 . S
C1050 C1051 1.400 . S
C1051 C1050 1.400 . S
C1051 C1052 1.398 . S
C1051 C1057 1.491 . S
C1052 H1043 0.950 . S
C1052 C1051 1.398 . S
C1052 C1053 1.391 . S
C1053 H1041 0.950 . S
C1053 C1049 1.393 . S
C1053 C1052 1.391 . S
C1054 H1044 0.950 . S
C1054 C1055 1.386 . S
C1054 C1056 1.391 1_545 S
C1055 C1054 1.386 . S
C1055 C1059 1.393 . S
C1056 H1045 0.950 . S
C1056 C1054 1.391 1_565 S
C1056 C1057 1.400 . S
C1057 C1051 1.491 . S
C1057 C1056 1.400 . S
C1057 C1058 1.398 . S
C1058 H1046 0.950 . S
C1058 C1057 1.398 . S
C1058 C1059 1.391 1_565 S
C1059 H1047 0.950 . S
C1059 C1055 1.393 . S
C1059 C1058 1.391 1_545 S
H1060 C1068 0.950 . S
H1061 C1073 0.950 . S
H1062 C1070 0.950 . S
H1063 C1072 0.950 . S
H1064 C1074 0.950 . S
H1065 C1076 0.936 1_545 S
H1066 C1078 0.950 1_545 S
H1067 C1079 0.950 . S
C1068 H1060 0.950 . S
C1068 C1069 1.386 1_554 S
C1068 C1070 1.391 . S
C1069 C1068 1.386 1_556 S
C1069 C1073 1.393 . S
C1070 H1062 0.950 . S
C1070 C1068 1.391 . S
C1070 C1071 1.400 1_554 S
C1071 C1070 1.400 1_556 S
C1071 C1072 1.398 . S
C1071 C1077 1.491 . S
C1072 H1063 0.950 . S
C1072 C1071 1.398 . S
C1072 C1073 1.391 . S
C1073 H1061 0.950 . S
C1073 C1069 1.393 . S
C1073 C1072 1.391 . S
C1074 H1064 0.950 . S
C1074 C1075 1.386 . S
C1074 C1076 1.391 . S
C1075 C1074 1.386 . S
C1075 C1079 1.393 1_556 S
C1076 H1065 0.936 1_565 S
C1076 C1074 1.391 . S
C1076 C1077 1.400 1_565 S
C1077 C1071 1.491 . S
C1077 C1076 1.400 1_545 S
C1077 C1078 1.398 1_546 S
C1078 H1066 0.950 1_565 S
C1078 C1077 1.398 1_564 S
C1078 C1079 1.391 . S
C1079 H1067 0.950 . S
C1079 C1075 1.393 1_554 S
C1079 C1078 1.391 . S
H1080 C1088 0.950 . S
H1081 C1093 0.950 . S
H1082 C1090 0.950 . S
H1083 C1092 0.950 . S
H1084 C1094 0.950 . S
H1085 C1096 0.950 . S
H1086 C1098 0.950 . S
H1087 C1099 0.950 . S
C1088 H1080 0.950 . S
C1088 C1089 1.386 . S
C1088 C1090 1.391 . S
C1089 C1088 1.386 . S
C1089 C1093 1.393 . S
C1090 H1082 0.950 . S
C1090 C1088 1.391 . S
C1090 C1091 1.400 . S
C1091 C1090 1.400 . S
C1091 C1092 1.398 . S
C1091 C1097 1.491 . S
C1092 H1083 0.950 . S
C1092 C1091 1.398 . S
C1092 C1093 1.391 . S
C1093 H1081 0.950 . S
C1093 C1089 1.393 . S
C1093 C1092 1.391 . S
C1094 H1084 0.950 . S
C1094 C1095 1.386 . S
C1094 C1096 1.391 . S
C1095 C1094 1.386 . S
C1095 C1099 1.393 . S
C1096 H1085 0.950 . S
C1096 C1094 1.391 . S
C1096 C1097 1.400 . S
C1097 C1091 1.491 . S
C1097 C1096 1.400 . S
C1097 C1098 1.398 . S
C1098 H1086 0.950 . S
C1098 C1097 1.398 . S
C1098 C1099 1.391 . S
C1099 H1087 0.950 . S
C1099 C1095 1.393 . S
C1099 C1098 1.391 . S
H1100 C1108 0.950 . S
H1101 C1113 0.950 . S
H1102 C1110 0.950 . S
H1103 C1112 0.950 . S
H1104 C1114 0.950 . S
H1105 C1116 0.950 . S
H1106 C1118 0.950 . S
H1107 C1119 0.950 . S
C1108 H1100 0.950 . S
C1108 C1109 1.386 . S
C1108 C1110 1.391 . S
C1109 C1108 1.386 . S
C1109 C1113 1.393 1_554 S
C1110 H1102 0.950 . S
C1110 C1108 1.391 . S
C1110 C1111 1.400 . S
C1111 C1110 1.400 . S
C1111 C1112 1.398 1_554 S
C1111 C1117 1.491 . S
C1112 H1103 0.950 . S
C1112 C1111 1.398 1_556 S
C1112 C1113 1.391 . S
C1113 H1101 0.950 . S
C1113 C1109 1.393 1_556 S
C1113 C1112 1.391 . S
C1114 H1104 0.950 . S
C1114 C1115 1.386 1_556 S
C1114 C1116 1.391 . S
C1115 C1114 1.386 1_554 S
C1115 C1119 1.393 . S
C1116 H1105 0.950 . S
C1116 C1114 1.391 . S
C1116 C1117 1.400 1_556 S
C1117 C1111 1.491 . S
C1117 C1116 1.400 1_554 S
C1117 C1118 1.398 . S
C1118 H1106 0.950 . S
C1118 C1117 1.398 . S
C1118 C1119 1.391 . S
C1119 H1107 0.950 . S
C1119 C1115 1.393 . S
C1119 C1118 1.391 . S
H1120 C1128 0.950 . S
H1121 C1133 0.950 . S
H1122 C1130 0.950 . S
H1123 C1132 0.950 . S
H1124 C1134 0.950 . S
H1125 C1136 0.950 . S
H1126 C1138 0.950 . S
H1127 C1139 0.950 . S
C1128 H1120 0.950 . S
C1128 C1129 1.386 . S
C1128 C1130 1.391 . S
C1129 C1128 1.386 . S
C1129 C1133 1.393 . S
C1130 H1122 0.950 . S
C1130 C1128 1.391 . S
C1130 C1131 1.400 . S
C1131 C1130 1.400 . S
C1131 C1132 1.398 . S
C1131 C1137 1.491 . S
C1132 H1123 0.950 . S
C1132 C1131 1.398 . S
C1132 C1133 1.391 . S
C1133 H1121 0.950 . S
C1133 C1129 1.393 . S
C1133 C1132 1.391 . S
C1134 H1124 0.950 . S
C1134 C1135 1.386 . S
C1134 C1136 1.391 1_554 S
C1135 C1134 1.386 . S
C1135 C1139 1.393 . S
C1136 H1125 0.950 . S
C1136 C1134 1.391 1_556 S
C1136 C1137 1.400 . S
C1137 C1131 1.491 . S
C1137 C1136 1.400 . S
C1137 C1138 1.398 . S
C1138 H1126 0.950 . S
C1138 C1137 1.398 . S
C1138 C1139 1.391 1_556 S
C1139 H1127 0.950 . S
C1139 C1135 1.393 . S
C1139 C1138 1.391 1_554 S
H1140 C1148 0.950 . S
H1141 C1153 0.950 . S
H1142 C1150 0.950 . S
H1143 C1152 0.950 . S
H1144 C1154 0.950 . S
H1145 C1156 0.950 1_554 S
H1146 C1158 0.936 1_554 S
H1147 C1159 0.950 . S
C1148 H1140 0.950 . S
C1148 C1149 1.386 . S
C1148 C1150 1.391 . S
C1149 C1148 1.386 . S
C1149 C1153 1.393 1_655 S
C1150 H1142 0.950 . S
C1150 C1148 1.391 . S
C1150 C1151 1.400 . S
C1151 C1150 1.400 . S
C1151 C1152 1.398 1_655 S
C1151 C1157 1.491 . S
C1152 H1143 0.950 . S
C1152 C1151 1.398 1_455 S
C1152 C1153 1.391 . S
C1153 H1141 0.950 . S
C1153 C1149 1.393 1_455 S
C1153 C1152 1.391 . S
C1154 H1144 0.950 . S
C1154 C1155 1.386 1_455 S
C1154 C1156 1.391 . S
C1155 C1154 1.386 1_655 S
C1155 C1159 1.393 . S
C1156 H1145 0.950 1_556 S
C1156 C1154 1.391 . S
C1156 C1157 1.400 1_456 S
C1157 C1151 1.491 . S
C1157 C1156 1.400 1_654 S
C1157 C1158 1.398 1_554 S
C1158 H1146 0.936 1_556 S
C1158 C1157 1.398 1_556 S
C1158 C1159 1.391 . S
C1159 H1147 0.950 . S
C1159 C1155 1.393 . S
C1159 C1158 1.391 . S
H1160 C1168 0.950 . S
H1161 C1173 0.950 . S
H1162 C1170 0.950 . S
H1163 C1172 0.950 . S
H1164 C1174 0.950 . S
H1165 C1176 0.950 . S
H1166 C1178 0.950 . S
H1167 C1179 0.950 . S
C1168 H1160 0.950 . S
C1168 C1169 1.386 . S
C1168 C1170 1.391 . S
C1169 C1168 1.386 . S
C1169 C1173 1.393 . S
C1170 H1162 0.950 . S
C1170 C1168 1.391 . S
C1170 C1171 1.400 . S
C1171 C1170 1.400 . S
C1171 C1172 1.398 . S
C1171 C1177 1.491 . S
C1172 H1163 0.950 . S
C1172 C1171 1.398 . S
C1172 C1173 1.391 . S
C1173 H1161 0.950 . S
C1173 C1169 1.393 . S
C1173 C1172 1.391 . S
C1174 H1164 0.950 . S
C1174 C1175 1.386 . S
C1174 C1176 1.391 . S
C1175 C1174 1.386 . S
C1175 C1179 1.393 . S
C1176 H1165 0.950 . S
C1176 C1174 1.391 . S
C1176 C1177 1.400 . S
C1177 C1171 1.491 . S
C1177 C1176 1.400 . S
C1177 C1178 1.398 . S
C1178 H1166 0.950 . S
C1178 C1177 1.398 . S
C1178 C1179 1.391 . S
C1179 H1167 0.950 . S
C1179 C1175 1.393 . S
C1179 C1178 1.391 . S
H1180 C1188 0.950 . S
H1181 C1193 0.950 . S
H1182 C1190 0.950 . S
H1183 C1192 0.950 . S
H1184 C1194 0.950 . S
H1185 C1196 0.950 . S
H1186 C1198 0.950 . S
H1187 C1199 0.950 . S
C1188 H1180 0.950 . S
C1188 C1189 1.386 1_655 S
C1188 C1190 1.391 . S
C1189 C1188 1.386 1_455 S
C1189 C1193 1.393 . S
C1190 H1182 0.950 . S
C1190 C1188 1.391 . S
C1190 C1191 1.400 1_655 S
C1191 C1190 1.400 1_455 S
C1191 C1192 1.398 . S
C1191 C1197 1.491 . S
C1192 H1183 0.950 . S
C1192 C1191 1.398 . S
C1192 C1193 1.391 . S
C1193 H1181 0.950 . S
C1193 C1189 1.393 . S
C1193 C1192 1.391 . S
C1194 H1184 0.950 . S
C1194 C1195 1.386 . S
C1194 C1196 1.391 . S
C1195 C1194 1.386 . S
C1195 C1199 1.393 1_455 S
C1196 H1185 0.950 . S
C1196 C1194 1.391 . S
C1196 C1197 1.400 . S
C1197 C1191 1.491 . S
C1197 C1196 1.400 . S
C1197 C1198 1.398 1_455 S
C1198 H1186 0.950 . S
C1198 C1197 1.398 1_655 S
C1198 C1199 1.391 . S
C1199 H1187 0.950 . S
C1199 C1195 1.393 1_655 S
C1199 C1198 1.391 . S
H1200 C1208 0.950 . S
H1201 C1213 0.950 . S
H1202 C1210 0.950 . S
H1203 C1212 0.950 . S
H1204 C1214 0.950 . S
H1205 C1216 0.950 . S
H1206 C1218 0.950 . S
H1207 C1219 0.950 . S
C1208 H1200 0.950 . S
C1208 C1209 1.386 . S
C1208 C1210 1.391 . S
C1209 C1208 1.386 . S
C1209 C1213 1.393 . S
C1210 H1202 0.950 . S
C1210 C1208 1.391 . S
C1210 C1211 1.400 . S
C1211 C1210 1.400 . S
C1211 C1212 1.398 . S
C1211 C1217 1.491 . S
C1212 H1203 0.950 . S
C1212 C1211 1.398 . S
C1212 C1213 1.391 . S
C1213 H1201 0.950 . S
C1213 C1209 1.393 . S
C1213 C1212 1.391 . S
C1214 H1204 0.950 . S
C1214 C1215 1.386 . S
C1214 C1216 1.391 . S
C1215 C1214 1.386 . S
C1215 C1219 1.393 . S
C1216 H1205 0.950 . S
C1216 C1214 1.391 . S
C1216 C1217 1.400 . S
C1217 C1211 1.491 . S
C1217 C1216 1.400 . S
C1217 C1218 1.398 . S
C1218 H1206 0.950 . S
C1218 C1217 1.398 . S
C1218 C1219 1.391 . S
C1219 H1207 0.950 . S
C1219 C1215 1.393 . S
C1219 C1218 1.391 . S
H1220 C1228 0.950 . S
H1221 C1233 0.950 . S
H1222 C1230 0.950 . S
H1223 C1232 0.950 . S
H1224 C1234 0.950 . S
H1225 C1236 0.950 . S
H1226 C1238 0.950 . S
H1227 C1239 0.950 . S
C1228 H1220 0.950 . S
C1228 C1229 1.386 . S
C1228 C1230 1.391 . S
C1229 C1228 1.386 . S
C1229 C1233 1.393 . S
C1230 H1222 0.950 . S
C1230 C1228 1.391 . S
C1230 C1231 1.400 . S
C1231 C1230 1.400 . S
C1231 C1232 1.398 . S
C1231 C1237 1.491 . S
C1232 H1223 0.950 . S
C1232 C1231 1.398 . S
C1232 C1233 1.391 . S
C1233 H1221 0.950 . S
C1233 C1229 1.393 . S
C1233 C1232 1.391 . S
C1234 H1224 0.950 . S
C1234 C1235 1.386 . S
C1234 C1236 1.391 . S
C1235 C1234 1.386 . S
C1235 C1239 1.393 . S
C1236 H1225 0.950 . S
C1236 C1234 1.391 . S
C1236 C1237 1.400 . S
C1237 C1231 1.491 . S
C1237 C1236 1.400 . S
C1237 C1238 1.398 . S
C1238 H1226 0.950 . S
C1238 C1237 1.398 . S
C1238 C1239 1.391 . S
C1239 H1227 0.950 . S
C1239 C1235 1.393 . S
C1239 C1238 1.391 . S
H1240 C1248 0.950 1_565 S
H1241 C1253 0.950 . S
H1242 C1250 0.950 . S
H1243 C1252 0.950 . S
H1244 C1254 0.950 . S
H1245 C1256 0.950 . S
H1246 C1258 0.950 . S
H1247 C1259 0.950 . S
C1248 H1240 0.950 1_545 S
C1248 C1249 1.386 . S
C1248 C1250 1.391 . S
C1249 C1248 1.386 . S
C1249 C1253 1.393 . S
C1250 H1242 0.950 . S
C1250 C1248 1.391 . S
C1250 C1251 1.400 . S
C1251 C1250 1.400 . S
C1251 C1252 1.398 . S
C1251 C1257 1.491 . S
C1252 H1243 0.950 . S
C1252 C1251 1.398 . S
C1252 C1253 1.391 . S
C1253 H1241 0.950 . S
C1253 C1249 1.393 . S
C1253 C1252 1.391 . S
C1254 H1244 0.950 . S
C1254 C1255 1.386 . S
C1254 C1256 1.391 . S
C1255 C1254 1.386 . S
C1255 C1259 1.393 . S
C1256 H1245 0.950 . S
C1256 C1254 1.391 . S
C1256 C1257 1.400 . S
C1257 C1251 1.491 . S
C1257 C1256 1.400 . S
C1257 C1258 1.398 . S
C1258 H1246 0.950 . S
C1258 C1257 1.398 . S
C1258 C1259 1.391 . S
C1259 H1247 0.950 . S
C1259 C1255 1.393 . S
C1259 C1258 1.391 . S
H1260 C1268 0.950 1_545 S
H1261 C1273 0.950 . S
H1262 C1270 0.950 . S
H1263 C1272 0.950 . S
H1264 C1274 0.950 . S
H1265 C1276 0.950 . S
H1266 C1278 0.950 . S
H1267 C1279 0.950 . S
C1268 H1260 0.950 1_565 S
C1268 C1269 1.386 . S
C1268 C1270 1.391 . S
C1269 C1268 1.386 . S
C1269 C1273 1.393 . S
C1270 H1262 0.950 . S
C1270 C1268 1.391 . S
C1270 C1271 1.400 . S
C1271 C1270 1.400 . S
C1271 C1272 1.398 . S
C1271 C1277 1.491 . S
C1272 H1263 0.950 . S
C1272 C1271 1.398 . S
C1272 C1273 1.391 . S
C1273 H1261 0.950 . S
C1273 C1269 1.393 . S
C1273 C1272 1.391 . S
C1274 H1264 0.950 . S
C1274 C1275 1.386 . S
C1274 C1276 1.391 . S
C1275 C1274 1.386 . S
C1275 C1279 1.393 . S
C1276 H1265 0.950 . S
C1276 C1274 1.391 . S
C1276 C1277 1.400 . S
C1277 C1271 1.491 . S
C1277 C1276 1.400 . S
C1277 C1278 1.398 . S
C1278 H1266 0.950 . S
C1278 C1277 1.398 . S
C1278 C1279 1.391 . S
C1279 H1267 0.950 . S
C1279 C1275 1.393 . S
C1279 C1278 1.391 . S
H1280 C1288 0.950 . S
H1281 C1293 0.950 . S
H1282 C1290 0.950 . S
H1283 C1292 0.950 . S
H1284 C1294 0.950 . S
H1285 C1296 0.950 . S
H1286 C1298 0.950 . S
H1287 C1299 0.950 . S
C1288 H1280 0.950 . S
C1288 C1289 1.386 . S
C1288 C1290 1.391 . S
C1289 C1288 1.386 . S
C1289 C1293 1.393 . S
C1290 H1282 0.950 . S
C1290 C1288 1.391 . S
C1290 C1291 1.400 . S
C1291 C1290 1.400 . S
C1291 C1292 1.398 . S
C1291 C1297 1.491 . S
C1292 H1283 0.950 . S
C1292 C1291 1.398 . S
C1292 C1293 1.391 . S
C1293 H1281 0.950 . S
C1293 C1289 1.393 . S
C1293 C1292 1.391 . S
C1294 H1284 0.950 . S
C1294 C1295 1.386 . S
C1294 C1296 1.391 . S
C1295 C1294 1.386 . S
C1295 C1299 1.393 . S
C1296 H1285 0.950 . S
C1296 C1294 1.391 . S
C1296 C1297 1.400 . S
C1297 C1291 1.491 . S
C1297 C1296 1.400 . S
C1297 C1298 1.398 . S
C1298 H1286 0.950 . S
C1298 C1297 1.398 . S
C1298 C1299 1.391 . S
C1299 H1287 0.950 . S
C1299 C1295 1.393 . S
C1299 C1298 1.391 . S
H1300 C1308 0.950 1_554 S
H1301 C1313 0.950 . S
H1302 C1310 0.950 . S
H1303 C1312 0.950 . S
H1304 C1314 0.950 . S
H1305 C1316 0.950 . S
H1306 C1318 0.950 . S
H1307 C1319 0.950 . S
C1308 H1300 0.950 1_556 S
C1308 C1309 1.386 . S
C1308 C1310 1.391 . S
C1309 C1308 1.386 . S
C1309 C1313 1.393 . S
C1310 H1302 0.950 . S
C1310 C1308 1.391 . S
C1310 C1311 1.400 . S
C1311 C1310 1.400 . S
C1311 C1312 1.398 . S
C1311 C1317 1.491 . S
C1312 H1303 0.950 . S
C1312 C1311 1.398 . S
C1312 C1313 1.391 . S
C1313 H1301 0.950 . S
C1313 C1309 1.393 . S
C1313 C1312 1.391 . S
C1314 H1304 0.950 . S
C1314 C1315 1.386 . S
C1314 C1316 1.391 . S
C1315 C1314 1.386 . S
C1315 C1319 1.393 . S
C1316 H1305 0.950 . S
C1316 C1314 1.391 . S
C1316 C1317 1.400 . S
C1317 C1311 1.491 . S
C1317 C1316 1.400 . S
C1317 C1318 1.398 . S
C1318 H1306 0.950 . S
C1318 C1317 1.398 . S
C1318 C1319 1.391 . S
C1319 H1307 0.950 . S
C1319 C1315 1.393 . S
C1319 C1318 1.391 . S
H1320 C1328 0.950 . S
H1321 C1333 0.950 . S
H1322 C1330 0.950 . S
H1323 C1332 0.950 . S
H1324 C1334 0.950 . S
H1325 C1336 0.950 . S
H1326 C1338 0.950 . S
H1327 C1339 0.950 . S
C1328 H1320 0.950 . S
C1328 C1329 1.386 . S
C1328 C1330 1.391 . S
C1329 C1328 1.386 . S
C1329 C1333 1.393 . S
C1330 H1322 0.950 . S
C1330 C1328 1.391 . S
C1330 C1331 1.400 . S
C1331 C1330 1.400 . S
C1331 C1332 1.398 . S
C1331 C1337 1.491 . S
C1332 H1323 0.950 . S
C1332 C1331 1.398 . S
C1332 C1333 1.391 . S
C1333 H1321 0.950 . S
C1333 C1329 1.393 . S
C1333 C1332 1.391 . S
C1334 H1324 0.950 . S
C1334 C1335 1.386 . S
C1334 C1336 1.391 . S
C1335 C1334 1.386 . S
C1335 C1339 1.393 . S
C1336 H1325 0.950 . S
C1336 C1334 1.391 . S
C1336 C1337 1.400 . S
C1337 C1331 1.491 . S
C1337 C1336 1.400 . S
C1337 C1338 1.398 . S
C1338 H1326 0.950 . S
C1338 C1337 1.398 . S
C1338 C1339 1.391 . S
C1339 H1327 0.950 . S
C1339 C1335 1.393 . S
C1339 C1338 1.391 . S
H1340 C1348 0.950 1_556 S
H1341 C1353 0.950 . S
H1342 C1350 0.950 . S
H1343 C1352 0.950 . S
H1344 C1354 0.950 . S
H1345 C1356 0.950 . S
H1346 C1358 0.950 . S
H1347 C1359 0.950 . S
C1348 H1340 0.950 1_554 S
C1348 C1349 1.386 . S
C1348 C1350 1.391 . S
C1349 C1348 1.386 . S
C1349 C1353 1.393 . S
C1350 H1342 0.950 . S
C1350 C1348 1.391 . S
C1350 C1351 1.400 . S
C1351 C1350 1.400 . S
C1351 C1352 1.398 . S
C1351 C1357 1.491 . S
C1352 H1343 0.950 . S
C1352 C1351 1.398 . S
C1352 C1353 1.391 . S
C1353 H1341 0.950 . S
C1353 C1349 1.393 . S
C1353 C1352 1.391 . S
C1354 H1344 0.950 . S
C1354 C1355 1.386 . S
C1354 C1356 1.391 . S
C1355 C1354 1.386 . S
C1355 C1359 1.393 . S
C1356 H1345 0.950 . S
C1356 C1354 1.391 . S
C1356 C1357 1.400 . S
C1357 C1351 1.491 . S
C1357 C1356 1.400 . S
C1357 C1358 1.398 . S
C1358 H1346 0.950 . S
C1358 C1357 1.398 . S
C1358 C1359 1.391 . S
C1359 H1347 0.950 . S
C1359 C1355 1.393 . S
C1359 C1358 1.391 . S
H1360 C1368 0.950 . S
H1361 C1373 0.950 . S
H1362 C1370 0.950 . S
H1363 C1372 0.950 . S
H1364 C1374 0.950 . S
H1365 C1376 0.950 . S
H1366 C1378 0.950 . S
H1367 C1379 0.950 . S
C1368 H1360 0.950 . S
C1368 C1369 1.386 . S
C1368 C1370 1.391 . S
C1369 C1368 1.386 . S
C1369 C1373 1.393 . S
C1370 H1362 0.950 . S
C1370 C1368 1.391 . S
C1370 C1371 1.400 . S
C1371 C1370 1.400 . S
C1371 C1372 1.398 . S
C1371 C1377 1.491 . S
C1372 H1363 0.950 . S
C1372 C1371 1.398 . S
C1372 C1373 1.391 . S
C1373 H1361 0.950 . S
C1373 C1369 1.393 . S
C1373 C1372 1.391 . S
C1374 H1364 0.950 . S
C1374 C1375 1.386 . S
C1374 C1376 1.391 . S
C1375 C1374 1.386 . S
C1375 C1379 1.393 . S
C1376 H1365 0.950 . S
C1376 C1374 1.391 . S
C1376 C1377 1.400 . S
C1377 C1371 1.491 . S
C1377 C1376 1.400 . S
C1377 C1378 1.398 . S
C1378 H1366 0.950 . S
C1378 C1377 1.398 . S
C1378 C1379 1.391 . S
C1379 H1367 0.950 . S
C1379 C1375 1.393 . S
C1379 C1378 1.391 . S
H1380 C1388 0.950 . S
H1381 C1393 0.950 . S
H1382 C1390 0.950 . S
H1383 C1392 0.950 . S
H1384 C1394 0.950 . S
H1385 C1396 0.950 . S
H1386 C1398 0.950 . S
H1387 C1399 0.950 . S
C1388 H1380 0.950 . S
C1388 C1389 1.386 . S
C1388 C1390 1.391 . S
C1389 C1388 1.386 . S
C1389 C1393 1.393 . S
C1390 H1382 0.950 . S
C1390 C1388 1.391 . S
C1390 C1391 1.400 . S
C1391 C1390 1.400 . S
C1391 C1392 1.398 . S
C1391 C1397 1.491 . S
C1392 H1383 0.950 . S
C1392 C1391 1.398 . S
C1392 C1393 1.391 . S
C1393 H1381 0.950 . S
C1393 C1389 1.393 . S
C1393 C1392 1.391 . S
C1394 H1384 0.950 . S
C1394 C1395 1.386 . S
C1394 C1396 1.391 . S
C1395 C1394 1.386 . S
C1395 C1399 1.393 . S
C1396 H1385 0.950 . S
C1396 C1394 1.391 . S
C1396 C1397 1.400 . S
C1397 C1391 1.491 . S
C1397 C1396 1.400 . S
C1397 C1398 1.398 . S
C1398 H1386 0.950 . S
C1398 C1397 1.398 . S
C1398 C1399 1.391 . S
C1399 H1387 0.950 . S
C1399 C1395 1.393 . S
C1399 C1398 1.391 . S
H1400 C1408 0.950 . S
H1401 C1413 0.950 . S
H1402 C1410 0.950 . S
H1403 C1412 0.950 . S
H1404 C1414 0.950 . S
H1405 C1416 0.950 . S
H1406 C1418 0.950 . S
H1407 C1419 0.950 . S
C1408 H1400 0.950 . S
C1408 C1409 1.386 . S
C1408 C1410 1.391 . S
C1409 C1408 1.386 . S
C1409 C1413 1.393 . S
C1410 H1402 0.950 . S
C1410 C1408 1.391 . S
C1410 C1411 1.400 . S
C1411 C1410 1.400 . S
C1411 C1412 1.398 . S
C1411 C1417 1.491 . S
C1412 H1403 0.950 . S
C1412 C1411 1.398 . S
C1412 C1413 1.391 . S
C1413 H1401 0.950 . S
C1413 C1409 1.393 . S
C1413 C1412 1.391 . S
C1414 H1404 0.950 . S
C1414 C1415 1.386 . S
C1414 C1416 1.391 . S
C1415 C1414 1.386 . S
C1415 C1419 1.393 . S
C1416 H1405 0.950 . S
C1416 C1414 1.391 . S
C1416 C1417 1.400 . S
C1417 C1411 1.491 . S
C1417 C1416 1.400 . S
C1417 C1418 1.398 . S
C1418 H1406 0.950 . S
C1418 C1417 1.398 . S
C1418 C1419 1.391 . S
C1419 H1407 0.950 . S
C1419 C1415 1.393 . S
C1419 C1418 1.391 . S
H1420 C1428 0.950 . S
H1421 C1433 0.950 . S
H1422 C1430 0.950 . S
H1423 C1432 0.950 . S
H1424 C1434 0.950 . S
H1425 C1436 0.950 . S
H1426 C1438 0.950 . S
H1427 C1439 0.950 . S
C1428 H1420 0.950 . S
C1428 C1429 1.386 . S
C1428 C1430 1.391 . S
C1429 C1428 1.386 . S
C1429 C1433 1.393 . S
C1430 H1422 0.950 . S
C1430 C1428 1.391 . S
C1430 C1431 1.400 . S
C1431 C1430 1.400 . S
C1431 C1432 1.398 . S
C1431 C1437 1.491 . S
C1432 H1423 0.950 . S
C1432 C1431 1.398 . S
C1432 C1433 1.391 . S
C1433 H1421 0.950 . S
C1433 C1429 1.393 . S
C1433 C1432 1.391 . S
C1434 H1424 0.950 . S
C1434 C1435 1.386 . S
C1434 C1436 1.391 . S
C1435 C1434 1.386 . S
C1435 C1439 1.393 . S
C1436 H1425 0.950 . S
C1436 C1434 1.391 . S
C1436 C1437 1.400 . S
C1437 C1431 1.491 . S
C1437 C1436 1.400 . S
C1437 C1438 1.398 . S
C1438 H1426 0.950 . S
C1438 C1437 1.398 . S
C1438 C1439 1.391 . S
C1439 H1427 0.950 . S
C1439 C1435 1.393 . S
C1439 C1438 1.391 . S
H1440 C1448 0.950 . S
H1441 C1453 0.950 . S
H1442 C1450 0.950 . S
H1443 C1452 0.950 . S
H1444 C1454 0.950 . S
H1445 C1456 0.950 . S
H1446 C1458 0.950 . S
H1447 C1459 0.950 . S
C1448 H1440 0.950 . S
C1448 C1449 1.386 . S
C1448 C1450 1.391 . S
C1449 C1448 1.386 . S
C1449 C1453 1.393 . S
C1450 H1442 0.950 . S
C1450 C1448 1.391 . S
C1450 C1451 1.400 . S
C1451 C1450 1.400 . S
C1451 C1452 1.398 . S
C1451 C1457 1.491 . S
C1452 H1443 0.950 . S
C1452 C1451 1.398 . S
C1452 C1453 1.391 . S
C1453 H1441 0.950 . S
C1453 C1449 1.393 . S
C1453 C1452 1.391 . S
C1454 H1444 0.950 . S
C1454 C1455 1.386 . S
C1454 C1456 1.391 . S
C1455 C1454 1.386 . S
C1455 C1459 1.393 . S
C1456 H1445 0.950 . S
C1456 C1454 1.391 . S
C1456 C1457 1.400 . S
C1457 C1451 1.491 . S
C1457 C1456 1.400 . S
C1457 C1458 1.398 . S
C1458 H1446 0.950 . S
C1458 C1457 1.398 . S
C1458 C1459 1.391 . S
C1459 H1447 0.950 . S
C1459 C1455 1.393 . S
C1459 C1458 1.391 . S
H1460 C1468 0.950 . S
H1461 C1473 0.950 . S
H1462 C1470 0.950 . S
H1463 C1472 0.950 . S
H1464 C1474 0.950 . S
H1465 C1476 0.950 . S
H1466 C1478 0.950 . S
H1467 C1479 0.950 . S
C1468 H1460 0.950 . S
C1468 C1469 1.386 . S
C1468 C1470 1.391 . S
C1469 C1468 1.386 . S
C1469 C1473 1.393 . S
C1470 H1462 0.950 . S
C1470 C1468 1.391 . S
C1470 C1471 1.400 . S
C1471 C1470 1.400 . S
C1471 C1472 1.398 . S
C1471 C1477 1.491 . S
C1472 H1463 0.950 . S
C1472 C1471 1.398 . S
C1472 C1473 1.391 . S
C1473 H1461 0.950 . S
C1473 C1469 1.393 . S
C1473 C1472 1.391 . S
C1474 H1464 0.950 . S
C1474 C1475 1.386 . S
C1474 C1476 1.391 . S
C1475 C1474 1.386 . S
C1475 C1479 1.393 . S
C1476 H1465 0.950 . S
C1476 C1474 1.391 . S
C1476 C1477 1.400 . S
C1477 C1471 1.491 . S
C1477 C1476 1.400 . S
C1477 C1478 1.398 . S
C1478 H1466 0.950 . S
C1478 C1477 1.398 . S
C1478 C1479 1.391 . S
C1479 H1467 0.950 . S
C1479 C1475 1.393 . S
C1479 C1478 1.391 . S
H1480 C1488 0.950 1_545 S
H1481 C1493 0.950 . S
H1482 C1490 0.950 . S
H1483 C1492 0.950 . S
H1484 C1494 0.950 . S
H1485 C1496 0.950 . S
H1486 C1498 0.950 . S
H1487 C1499 0.950 . S
C1488 H1480 0.950 1_565 S
C1488 C1489 1.386 . S
C1488 C1490 1.391 . S
C1489 C1488 1.386 . S
C1489 C1493 1.393 . S
C1490 H1482 0.950 . S
C1490 C1488 1.391 . S
C1490 C1491 1.400 . S
C1491 C1490 1.400 . S
C1491 C1492 1.398 . S
C1491 C1497 1.491 . S
C1492 H1483 0.950 . S
C1492 C1491 1.398 . S
C1492 C1493 1.391 . S
C1493 H1481 0.950 . S
C1493 C1489 1.393 . S
C1493 C1492 1.391 . S
C1494 H1484 0.950 . S
C1494 C1495 1.386 . S
C1494 C1496 1.391 . S
C1495 C1494 1.386 . S
C1495 C1499 1.393 . S
C1496 H1485 0.950 . S
C1496 C1494 1.391 . S
C1496 C1497 1.400 . S
C1497 C1491 1.491 . S
C1497 C1496 1.400 . S
C1497 C1498 1.398 . S
C1498 H1486 0.950 . S
C1498 C1497 1.398 . S
C1498 C1499 1.391 . S
C1499 H1487 0.950 . S
C1499 C1495 1.393 . S
C1499 C1498 1.391 . S
H1500 C1508 0.950 1_565 S
H1501 C1513 0.950 . S
H1502 C1510 0.950 . S
H1503 C1512 0.950 . S
H1504 C1514 0.950 . S
H1505 C1516 0.950 . S
H1506 C1518 0.950 . S
H1507 C1519 0.950 . S
C1508 H1500 0.950 1_545 S
C1508 C1509 1.386 . S
C1508 C1510 1.391 . S
C1509 C1508 1.386 . S
C1509 C1513 1.393 . S
C1510 H1502 0.950 . S
C1510 C1508 1.391 . S
C1510 C1511 1.400 . S
C1511 C1510 1.400 . S
C1511 C1512 1.398 . S
C1511 C1517 1.491 . S
C1512 H1503 0.950 . S
C1512 C1511 1.398 . S
C1512 C1513 1.391 . S
C1513 H1501 0.950 . S
C1513 C1509 1.393 . S
C1513 C1512 1.391 . S
C1514 H1504 0.950 . S
C1514 C1515 1.386 . S
C1514 C1516 1.391 . S
C1515 C1514 1.386 . S
C1515 C1519 1.393 . S
C1516 H1505 0.950 . S
C1516 C1514 1.391 . S
C1516 C1517 1.400 . S
C1517 C1511 1.491 . S
C1517 C1516 1.400 . S
C1517 C1518 1.398 . S
C1518 H1506 0.950 . S
C1518 C1517 1.398 . S
C1518 C1519 1.391 . S
C1519 H1507 0.950 . S
C1519 C1515 1.393 . S
C1519 C1518 1.391 . S
H1520 C1528 0.950 . S
H1521 C1533 0.950 . S
H1522 C1530 0.950 . S
H1523 C1532 0.950 . S
H1524 C1534 0.950 . S
H1525 C1536 0.950 . S
H1526 C1538 0.950 . S
H1527 C1539 0.950 . S
C1528 H1520 0.950 . S
C1528 C1529 1.386 . S
C1528 C1530 1.391 . S
C1529 C1528 1.386 . S
C1529 C1533 1.393 . S
C1530 H1522 0.950 . S
C1530 C1528 1.391 . S
C1530 C1531 1.400 . S
C1531 C1530 1.400 . S
C1531 C1532 1.398 . S
C1531 C1537 1.491 . S
C1532 H1523 0.950 . S
C1532 C1531 1.398 . S
C1532 C1533 1.391 . S
C1533 H1521 0.950 . S
C1533 C1529 1.393 . S
C1533 C1532 1.391 . S
C1534 H1524 0.950 . S
C1534 C1535 1.386 . S
C1534 C1536 1.391 . S
C1535 C1534 1.386 . S
C1535 C1539 1.393 . S
C1536 H1525 0.950 . S
C1536 C1534 1.391 . S
C1536 C1537 1.400 . S
C1537 C1531 1.491 . S
C1537 C1536 1.400 . S
C1537 C1538 1.398 . S
C1538 H1526 0.950 . S
C1538 C1537 1.398 . S
C1538 C1539 1.391 . S
C1539 H1527 0.950 . S
C1539 C1535 1.393 . S
C1539 C1538 1.391 . S
H1540 C1548 0.950 . S
H1541 C1553 0.950 1_556 S
H1542 C1550 0.950 . S
H1543 C1552 0.950 . S
H1544 C1554 0.950 . S
H1545 C1556 0.950 . S
H1546 C1558 0.950 . S
H1547 C1559 0.950 . S
C1548 H1540 0.950 . S
C1548 C1549 1.386 . S
C1548 C1550 1.391 . S
C1549 C1548 1.386 . S
C1549 C1553 1.393 . S
C1550 H1542 0.950 . S
C1550 C1548 1.391 . S
C1550 C1551 1.400 . S
C1551 C1550 1.400 . S
C1551 C1552 1.398 . S
C1551 C1557 1.491 . S
C1552 H1543 0.950 . S
C1552 C1551 1.398 . S
C1552 C1553 1.391 . S
C1553 H1541 0.950 1_554 S
C1553 C1549 1.393 . S
C1553 C1552 1.391 . S
C1554 H1544 0.950 . S
C1554 C1555 1.386 . S
C1554 C1556 1.391 . S
C1555 C1554 1.386 . S
C1555 C1559 1.393 . S
C1556 H1545 0.950 . S
C1556 C1554 1.391 . S
C1556 C1557 1.400 . S
C1557 C1551 1.491 . S
C1557 C1556 1.400 . S
C1557 C1558 1.398 . S
C1558 H1546 0.950 . S
C1558 C1557 1.398 . S
C1558 C1559 1.391 . S
C1559 H1547 0.950 . S
C1559 C1555 1.393 . S
C1559 C1558 1.391 . S
H1560 C1568 0.950 . S
H1561 C1573 0.950 . S
H1562 C1570 0.950 . S
H1563 C1572 0.950 . S
H1564 C1574 0.950 . S
H1565 C1576 0.950 . S
H1566 C1578 0.950 . S
H1567 C1579 0.950 . S
C1568 H1560 0.950 . S
C1568 C1569 1.386 . S
C1568 C1570 1.391 . S
C1569 C1568 1.386 . S
C1569 C1573 1.393 . S
C1570 H1562 0.950 . S
C1570 C1568 1.391 . S
C1570 C1571 1.400 . S
C1571 C1570 1.400 . S
C1571 C1572 1.398 . S
C1571 C1577 1.491 . S
C1572 H1563 0.950 . S
C1572 C1571 1.398 . S
C1572 C1573 1.391 . S
C1573 H1561 0.950 . S
C1573 C1569 1.393 . S
C1573 C1572 1.391 . S
C1574 H1564 0.950 . S
C1574 C1575 1.386 . S
C1574 C1576 1.391 . S
C1575 C1574 1.386 . S
C1575 C1579 1.393 . S
C1576 H1565 0.950 . S
C1576 C1574 1.391 . S
C1576 C1577 1.400 . S
C1577 C1571 1.491 . S
C1577 C1576 1.400 . S
C1577 C1578 1.398 . S
C1578 H1566 0.950 . S
C1578 C1577 1.398 . S
C1578 C1579 1.391 . S
C1579 H1567 0.950 . S
C1579 C1575 1.393 . S
C1579 C1578 1.391 . S
H1580 C1588 0.950 1_554 S
H1581 C1593 0.950 . S
H1582 C1590 0.950 . S
H1583 C1592 0.950 . S
H1584 C1594 0.950 . S
H1585 C1596 0.950 . S
H1586 C1598 0.950 . S
H1587 C1599 0.950 . S
C1588 H1580 0.950 1_556 S
C1588 C1589 1.386 . S
C1588 C1590 1.391 . S
C1589 C1588 1.386 . S
C1589 C1593 1.393 . S
C1590 H1582 0.950 . S
C1590 C1588 1.391 . S
C1590 C1591 1.400 . S
C1591 C1590 1.400 . S
C1591 C1592 1.398 . S
C1591 C1597 1.491 . S
C1592 H1583 0.950 . S
C1592 C1591 1.398 . S
C1592 C1593 1.391 . S
C1593 H1581 0.950 . S
C1593 C1589 1.393 . S
C1593 C1592 1.391 . S
C1594 H1584 0.950 . S
C1594 C1595 1.386 . S
C1594 C1596 1.391 . S
C1595 C1594 1.386 . S
C1595 C1599 1.393 . S
C1596 H1585 0.950 . S
C1596 C1594 1.391 . S
C1596 C1597 1.400 . S
C1597 C1591 1.491 . S
C1597 C1596 1.400 . S
C1597 C1598 1.398 . S
C1598 H1586 0.950 . S
C1598 C1597 1.398 . S
C1598 C1599 1.391 . S
C1599 H1587 0.950 . S
C1599 C1595 1.393 . S
C1599 C1598 1.391 . S
H1600 C1608 0.950 . S
H1601 C1613 0.950 . S
H1602 C1610 0.950 . S
H1603 C1612 0.950 . S
H1604 C1614 0.950 . S
H1605 C1616 0.950 . S
H1606 C1618 0.950 . S
H1607 C1619 0.950 . S
C1608 H1600 0.950 . S
C1608 C1609 1.386 . S
C1608 C1610 1.391 . S
C1609 C1608 1.386 . S
C1609 C1613 1.393 . S
C1610 H1602 0.950 . S
C1610 C1608 1.391 . S
C1610 C1611 1.400 . S
C1611 C1610 1.400 . S
C1611 C1612 1.398 . S
C1611 C1617 1.491 . S
C1612 H1603 0.950 . S
C1612 C1611 1.398 . S
C1612 C1613 1.391 . S
C1613 H1601 0.950 . S
C1613 C1609 1.393 . S
C1613 C1612 1.391 . S
C1614 H1604 0.950 . S
C1614 C1615 1.386 . S
C1614 C1616 1.391 . S
C1615 C1614 1.386 . S
C1615 C1619 1.393 . S
C1616 H1605 0.950 . S
C1616 C1614 1.391 . S
C1616 C1617 1.400 . S
C1617 C1611 1.491 . S
C1617 C1616 1.400 . S
C1617 C1618 1.398 . S
C1618 H1606 0.950 . S
C1618 C1617 1.398 . S
C1618 C1619 1.391 . S
C1619 H1607 0.950 . S
C1619 C1615 1.393 . S
C1619 C1618 1.391 . S
H1620 C1628 0.950 . S
H1621 C1633 0.950 . S
H1622 C1630 0.950 . S
H1623 C1632 0.950 . S
H1624 C1634 0.950 . S
H1625 C1636 0.950 . S
H1626 C1638 0.950 . S
H1627 C1639 0.950 . S
C1628 H1620 0.950 . S
C1628 C1629 1.386 . S
C1628 C1630 1.391 . S
C1629 C1628 1.386 . S
C1629 C1633 1.393 . S
C1630 H1622 0.950 . S
C1630 C1628 1.391 . S
C1630 C1631 1.400 . S
C1631 C1630 1.400 . S
C1631 C1632 1.398 . S
C1631 C1637 1.491 . S
C1632 H1623 0.950 . S
C1632 C1631 1.398 . S
C1632 C1633 1.391 . S
C1633 H1621 0.950 . S
C1633 C1629 1.393 . S
C1633 C1632 1.391 . S
C1634 H1624 0.950 . S
C1634 C1635 1.386 . S
C1634 C1636 1.391 . S
C1635 C1634 1.386 . S
C1635 C1639 1.393 . S
C1636 H1625 0.950 . S
C1636 C1634 1.391 . S
C1636 C1637 1.400 . S
C1637 C1631 1.491 . S
C1637 C1636 1.400 . S
C1637 C1638 1.398 . S
C1638 H1626 0.950 . S
C1638 C1637 1.398 . S
C1638 C1639 1.391 . S
C1639 H1627 0.950 . S
C1639 C1635 1.393 . S
C1639 C1638 1.391 . S
H1640 C1648 0.950 . S
H1641 C1653 0.950 . S
H1642 C1650 0.950 . S
H1643 C1652 0.950 . S
H1644 C1654 0.950 . S
H1645 C1656 0.950 . S
H1646 C1658 0.950 . S
H1647 C1659 0.950 . S
C1648 H1640 0.950 . S
C1648 C1649 1.386 . S
C1648 C1650 1.391 . S
C1649 C1648 1.386 . S
C1649 C1653 1.393 . S
C1650 H1642 0.950 . S
C1650 C1648 1.391 . S
C1650 C1651 1.400 . S
C1651 C1650 1.400 . S
C1651 C1652 1.398 . S
C1651 C1657 1.491 . S
C1652 H1643 0.950 . S
C1652 C1651 1.398 . S
C1652 C1653 1.391 . S
C1653 H1641 0.950 . S
C1653 C1649 1.393 . S
C1653 C1652 1.391 . S
C1654 H1644 0.950 . S
C1654 C1655 1.386 . S
C1654 C1656 1.391 . S
C1655 C1654 1.386 . S
C1655 C1659 1.393 . S
C1656 H1645 0.950 . S
C1656 C1654 1.391 . S
C1656 C1657 1.400 . S
C1657 C1651 1.491 . S
C1657 C1656 1.400 . S
C1657 C1658 1.398 . S
C1658 H1646 0.950 . S
C1658 C1657 1.398 . S
C1658 C1659 1.391 . S
C1659 H1647 0.950 . S
C1659 C1655 1.393 . S
C1659 C1658 1.391 . S
H1660 C1668 0.950 . S
H1661 C1673 0.950 . S
H1662 C1670 0.950 . S
H1663 C1672 0.950 . S
H1664 C1674 0.950 . S
H1665 C1676 0.950 . S
H1666 C1678 0.950 . S
H1667 C1679 0.950 . S
C1668 H1660 0.950 . S
C1668 C1669 1.386 . S
C1668 C1670 1.391 . S
C1669 C1668 1.386 . S
C1669 C1673 1.393 . S
C1670 H1662 0.950 . S
C1670 C1668 1.391 . S
C1670 C1671 1.400 . S
C1671 C1670 1.400 . S
C1671 C1672 1.398 . S
C1671 C1677 1.491 . S
C1672 H1663 0.950 . S
C1672 C1671 1.398 . S
C1672 C1673 1.391 . S
C1673 H1661 0.950 . S
C1673 C1669 1.393 . S
C1673 C1672 1.391 . S
C1674 H1664 0.950 . S
C1674 C1675 1.386 . S
C1674 C1676 1.391 . S
C1675 C1674 1.386 . S
C1675 C1679 1.393 . S
C1676 H1665 0.950 . S
C1676 C1674 1.391 . S
C1676 C1677 1.400 . S
C1677 C1671 1.491 . S
C1677 C1676 1.400 . S
C1677 C1678 1.398 . S
C1678 H1666 0.950 . S
C1678 C1677 1.398 . S
C1678 C1679 1.391 . S
C1679 H1667 0.950 . S
C1679 C1675 1.393 . S
C1679 C1678 1.391 . S
H1680 C1688 0.950 . S
H1681 C1693 0.950 . S
H1682 C1690 0.950 . S
H1683 C1692 0.950 . S
H1684 C1694 0.950 . S
H1685 C1696 0.950 . S
H1686 C1698 0.950 . S
H1687 C1699 0.950 . S
C1688 H1680 0.950 . S
C1688 C1689 1.386 . S
C1688 C1690 1.391 . S
C1689 C1688 1.386 . S
C1689 C1693 1.393 . S
C1690 H1682 0.950 . S
C1690 C1688 1.391 . S
C1690 C1691 1.400 . S
C1691 C1690 1.400 . S
C1691 C1692 1.398 . S
C1691 C1697 1.491 . S
C1692 H1683 0.950 . S
C1692 C1691 1.398 . S
C1692 C1693 1.391 . S
C1693 H1681 0.950 . S
C1693 C1689 1.393 . S
C1693 C1692 1.391 . S
C1694 H1684 0.950 . S
C1694 C1695 1.386 . S
C1694 C1696 1.391 . S
C1695 C1694 1.386 . S
C1695 C1699 1.393 . S
C1696 H1685 0.950 . S
C1696 C1694 1.391 . S
C1696 C1697 1.400 . S
C1697 C1691 1.491 . S
C1697 C1696 1.400 . S
C1697 C1698 1.398 . S
C1698 H1686 0.950 . S
C1698 C1697 1.398 . S
C1698 C1699 1.391 . S
C1699 H1687 0.950 . S
C1699 C1695 1.393 . S
C1699 C1698 1.391 . S
H1700 C1708 0.950 . S
H1701 C1713 0.950 . S
H1702 C1710 0.950 . S
H1703 C1712 0.950 . S
H1704 C1714 0.950 . S
H1705 C1716 0.950 . S
H1706 C1718 0.950 . S
H1707 C1719 0.950 . S
C1708 H1700 0.950 . S
C1708 C1709 1.386 . S
C1708 C1710 1.391 . S
C1709 C1708 1.386 . S
C1709 C1713 1.393 . S
C1710 H1702 0.950 . S
C1710 C1708 1.391 . S
C1710 C1711 1.400 . S
C1711 C1710 1.400 . S
C1711 C1712 1.398 . S
C1711 C1717 1.491 . S
C1712 H1703 0.950 . S
C1712 C1711 1.398 . S
C1712 C1713 1.391 . S
C1713 H1701 0.950 . S
C1713 C1709 1.393 . S
C1713 C1712 1.391 . S
C1714 H1704 0.950 . S
C1714 C1715 1.386 . S
C1714 C1716 1.391 . S
C1715 C1714 1.386 . S
C1715 C1719 1.393 . S
C1716 H1705 0.950 . S
C1716 C1714 1.391 . S
C1716 C1717 1.400 . S
C1717 C1711 1.491 . S
C1717 C1716 1.400 . S
C1717 C1718 1.398 . S
C1718 H1706 0.950 . S
C1718 C1717 1.398 . S
C1718 C1719 1.391 . S
C1719 H1707 0.950 . S
C1719 C1715 1.393 . S
C1719 C1718 1.391 . S
H1720 C1728 0.950 . S
H1721 C1733 0.950 . S
H1722 C1730 0.950 . S
H1723 C1732 0.950 . S
H1724 C1734 0.950 . S
H1725 C1736 0.950 . S
H1726 C1738 0.948 1_545 S
H1727 C1739 0.949 . S
C1728 H1720 0.950 . S
C1728 C1729 1.386 1_545 S
C1728 C1730 1.391 . S
C1729 C1728 1.386 1_565 S
C1729 C1733 1.393 . S
C1730 H1722 0.950 . S
C1730 C1728 1.391 . S
C1730 C1731 1.400 1_545 S
C1731 C1730 1.400 1_565 S
C1731 C1732 1.398 . S
C1731 C1737 1.491 . S
C1732 H1723 0.950 . S
C1732 C1731 1.398 . S
C1732 C1733 1.391 . S
C1733 H1721 0.950 . S
C1733 C1729 1.393 . S
C1733 C1732 1.391 . S
C1734 H1724 0.950 . S
C1734 C1735 1.386 . S
C1734 C1736 1.391 . S
C1735 C1734 1.386 . S
C1735 C1739 1.394 1_565 S
C1736 H1725 0.950 . S
C1736 C1734 1.391 . S
C1736 C1737 1.400 . S
C1737 C1731 1.491 . S
C1737 C1736 1.400 . S
C1737 C1738 1.401 . S
C1738 H1726 0.948 1_565 S
C1738 C1737 1.401 . S
C1738 C1739 1.391 1_565 S
C1739 H1727 0.949 . S
C1739 C1735 1.394 1_545 S
C1739 C1738 1.391 1_545 S
H1740 C1748 0.950 . S
H1741 C1753 0.950 . S
H1742 C1750 0.950 . S
H1743 C1752 0.950 . S
H1744 C1754 0.950 . S
H1745 C1756 0.950 . S
H1746 C1758 0.950 . S
H1747 C1759 0.950 . S
C1748 H1740 0.950 . S
C1748 C1749 1.386 1_565 S
C1748 C1750 1.391 . S
C1749 C1748 1.386 1_545 S
C1749 C1753 1.393 . S
C1750 H1742 0.950 . S
C1750 C1748 1.391 . S
C1750 C1751 1.400 1_565 S
C1751 C1750 1.400 1_545 S
C1751 C1752 1.398 . S
C1751 C1757 1.491 . S
C1752 H1743 0.950 . S
C1752 C1751 1.398 . S
C1752 C1753 1.391 . S
C1753 H1741 0.950 . S
C1753 C1749 1.393 . S
C1753 C1752 1.391 . S
C1754 H1744 0.950 . S
C1754 C1755 1.386 . S
C1754 C1756 1.391 . S
C1755 C1754 1.386 . S
C1755 C1759 1.393 1_545 S
C1756 H1745 0.950 . S
C1756 C1754 1.391 . S
C1756 C1757 1.400 . S
C1757 C1751 1.491 . S
C1757 C1756 1.400 . S
C1757 C1758 1.398 1_545 S
C1758 H1746 0.950 . S
C1758 C1757 1.398 1_565 S
C1758 C1759 1.391 . S
C1759 H1747 0.950 . S
C1759 C1755 1.393 1_565 S
C1759 C1758 1.391 . S
H1760 C1768 0.950 . S
H1761 C1773 0.950 . S
H1762 C1770 0.950 . S
H1763 C1772 0.950 . S
H1764 C1774 0.950 . S
H1765 C1776 0.950 . S
H1766 C1778 0.950 . S
H1767 C1779 0.950 . S
C1768 H1760 0.950 . S
C1768 C1769 1.386 . S
C1768 C1770 1.391 . S
C1769 C1768 1.386 . S
C1769 C1773 1.393 . S
C1770 H1762 0.950 . S
C1770 C1768 1.391 . S
C1770 C1771 1.400 . S
C1771 C1770 1.400 . S
C1771 C1772 1.398 . S
C1771 C1777 1.491 . S
C1772 H1763 0.950 . S
C1772 C1771 1.398 . S
C1772 C1773 1.391 . S
C1773 H1761 0.950 . S
C1773 C1769 1.393 . S
C1773 C1772 1.391 . S
C1774 H1764 0.950 . S
C1774 C1775 1.386 . S
C1774 C1776 1.391 . S
C1775 C1774 1.386 . S
C1775 C1779 1.393 . S
C1776 H1765 0.950 . S
C1776 C1774 1.391 . S
C1776 C1777 1.400 . S
C1777 C1771 1.491 . S
C1777 C1776 1.400 . S
C1777 C1778 1.398 . S
C1778 H1766 0.950 . S
C1778 C1777 1.398 . S
C1778 C1779 1.391 . S
C1779 H1767 0.950 . S
C1779 C1775 1.393 . S
C1779 C1778 1.391 . S
H1780 C1788 0.950 . S
H1781 C1793 0.950 . S
H1782 C1790 0.950 . S
H1783 C1792 0.950 . S
H1784 C1794 0.950 . S
H1785 C1796 0.950 . S
H1786 C1798 0.950 . S
H1787 C1799 0.950 . S
C1788 H1780 0.950 . S
C1788 C1789 1.386 1_556 S
C1788 C1790 1.391 . S
C1789 C1788 1.386 1_554 S
C1789 C1793 1.393 . S
C1790 H1782 0.950 . S
C1790 C1788 1.391 . S
C1790 C1791 1.400 1_556 S
C1791 C1790 1.400 1_554 S
C1791 C1792 1.398 . S
C1791 C1797 1.491 . S
C1792 H1783 0.950 . S
C1792 C1791 1.398 . S
C1792 C1793 1.391 . S
C1793 H1781 0.950 . S
C1793 C1789 1.393 . S
C1793 C1792 1.391 . S
C1794 H1784 0.950 . S
C1794 C1795 1.432 . S
C1794 C1796 1.391 . S
C1795 C1794 1.432 . S
C1795 C1799 1.350 1_554 S
C1796 H1785 0.950 . S
C1796 C1794 1.391 . S
C1796 C1797 1.400 . S
C1797 C1791 1.491 . S
C1797 C1796 1.400 . S
C1797 C1798 1.398 1_554 S
C1798 H1786 0.950 . S
C1798 C1797 1.398 1_556 S
C1798 C1799 1.391 . S
C1799 H1787 0.950 . S
C1799 C1795 1.350 1_556 S
C1799 C1798 1.391 . S
H1800 C1808 0.950 . S
H1801 C1813 0.950 . S
H1802 C1810 0.950 . S
H1803 C1812 0.950 . S
H1804 C1814 0.950 . S
H1805 C1816 0.950 . S
H1806 C1818 0.950 . S
H1807 C1819 0.950 . S
C1808 H1800 0.950 . S
C1808 C1809 1.386 . S
C1808 C1810 1.391 . S
C1809 C1808 1.386 . S
C1809 C1813 1.393 . S
C1810 H1802 0.950 . S
C1810 C1808 1.391 . S
C1810 C1811 1.400 . S
C1811 C1810 1.400 . S
C1811 C1812 1.398 . S
C1811 C1817 1.491 . S
C1812 H1803 0.950 . S
C1812 C1811 1.398 . S
C1812 C1813 1.391 . S
C1813 H1801 0.950 . S
C1813 C1809 1.393 . S
C1813 C1812 1.391 . S
C1814 H1804 0.950 . S
C1814 C1815 1.386 . S
C1814 C1816 1.391 . S
C1815 C1814 1.386 . S
C1815 C1819 1.393 . S
C1816 H1805 0.950 . S
C1816 C1814 1.391 . S
C1816 C1817 1.400 . S
C1817 C1811 1.491 . S
C1817 C1816 1.400 . S
C1817 C1818 1.398 . S
C1818 H1806 0.950 . S
C1818 C1817 1.398 . S
C1818 C1819 1.391 . S
C1819 H1807 0.950 . S
C1819 C1815 1.393 . S
C1819 C1818 1.391 . S
H1820 C1828 0.950 . S
H1821 C1833 0.950 . S
H1822 C1830 0.950 . S
H1823 C1832 0.950 . S
H1824 C1834 0.950 . S
H1825 C1836 0.950 . S
H1826 C1838 0.950 . S
H1827 C1839 0.950 . S
C1828 H1820 0.950 . S
C1828 C1829 1.386 . S
C1828 C1830 1.391 . S
C1829 C1828 1.386 . S
C1829 C1833 1.393 1_556 S
C1830 H1822 0.950 . S
C1830 C1828 1.391 . S
C1830 C1831 1.400 . S
C1831 C1830 1.400 . S
C1831 C1832 1.398 1_556 S
C1831 C1837 1.491 . S
C1832 H1823 0.950 . S
C1832 C1831 1.398 1_554 S
C1832 C1833 1.391 . S
C1833 H1821 0.950 . S
C1833 C1829 1.393 1_554 S
C1833 C1832 1.391 . S
C1834 H1824 0.950 . S
C1834 C1835 1.386 1_554 S
C1834 C1836 1.391 . S
C1835 C1834 1.386 1_556 S
C1835 C1839 1.393 . S
C1836 H1825 0.950 . S
C1836 C1834 1.391 . S
C1836 C1837 1.400 1_554 S
C1837 C1831 1.491 . S
C1837 C1836 1.400 1_556 S
C1837 C1838 1.398 . S
C1838 H1826 0.950 . S
C1838 C1837 1.398 . S
C1838 C1839 1.391 . S
C1839 H1827 0.950 . S
C1839 C1835 1.393 . S
C1839 C1838 1.391 . S
H1840 C1848 0.950 . S
H1841 C1853 0.950 . S
H1842 C1850 0.950 . S
H1843 C1852 0.950 . S
H1844 C1854 0.950 . S
H1845 C1856 0.950 . S
H1846 C1858 0.950 . S
H1847 C1859 0.950 . S
C1848 H1840 0.950 . S
C1848 C1849 1.386 . S
C1848 C1850 1.391 . S
C1849 C1848 1.386 . S
C1849 C1853 1.393 . S
C1850 H1842 0.950 . S
C1850 C1848 1.391 . S
C1850 C1851 1.400 . S
C1851 C1850 1.400 . S
C1851 C1852 1.398 . S
C1851 C1857 1.491 . S
C1852 H1843 0.950 . S
C1852 C1851 1.398 . S
C1852 C1853 1.391 . S
C1853 H1841 0.950 . S
C1853 C1849 1.393 . S
C1853 C1852 1.391 . S
C1854 H1844 0.950 . S
C1854 C1855 1.386 . S
C1854 C1856 1.391 . S
C1855 C1854 1.386 . S
C1855 C1859 1.393 . S
C1856 H1845 0.950 . S
C1856 C1854 1.391 . S
C1856 C1857 1.400 . S
C1857 C1851 1.491 . S
C1857 C1856 1.400 . S
C1857 C1858 1.398 . S
C1858 H1846 0.950 . S
C1858 C1857 1.398 . S
C1858 C1859 1.391 . S
C1859 H1847 0.950 . S
C1859 C1855 1.393 . S
C1859 C1858 1.391 . S
H1860 C1868 0.950 . S
H1861 C1873 0.950 . S
H1862 C1870 0.950 . S
H1863 C1872 0.950 . S
H1864 C1874 0.950 . S
H1865 C1876 0.950 . S
H1866 C1878 0.950 . S
H1867 C1879 0.950 . S
C1868 H1860 0.950 . S
C1868 C1869 1.386 . S
C1868 C1870 1.391 . S
C1869 C1868 1.386 . S
C1869 C1873 1.393 1_455 S
C1870 H1862 0.950 . S
C1870 C1868 1.391 . S
C1870 C1871 1.400 . S
C1871 C1870 1.400 . S
C1871 C1872 1.398 1_455 S
C1871 C1877 1.491 . S
C1872 H1863 0.950 . S
C1872 C1871 1.398 1_655 S
C1872 C1873 1.391 . S
C1873 H1861 0.950 . S
C1873 C1869 1.393 1_655 S
C1873 C1872 1.391 . S
C1874 H1864 0.950 . S
C1874 C1875 1.386 1_655 S
C1874 C1876 1.391 . S
C1875 C1874 1.386 1_455 S
C1875 C1879 1.393 . S
C1876 H1865 0.950 . S
C1876 C1874 1.391 . S
C1876 C1877 1.400 1_655 S
C1877 C1871 1.491 . S
C1877 C1876 1.400 1_455 S
C1877 C1878 1.398 . S
C1878 H1866 0.950 . S
C1878 C1877 1.398 . S
C1878 C1879 1.391 . S
C1879 H1867 0.950 . S
C1879 C1875 1.393 . S
C1879 C1878 1.391 . S
H1880 C1888 0.950 . S
H1881 C1893 0.950 . S
H1882 C1890 0.950 . S
H1883 C1892 0.950 . S
H1884 C1894 0.950 . S
H1885 C1896 0.950 . S
H1886 C1898 0.950 . S
H1887 C1899 0.950 . S
C1888 H1880 0.950 . S
C1888 C1889 1.386 . S
C1888 C1890 1.391 . S
C1889 C1888 1.386 . S
C1889 C1893 1.393 . S
C1890 H1882 0.950 . S
C1890 C1888 1.391 . S
C1890 C1891 1.400 . S
C1891 C1890 1.400 . S
C1891 C1892 1.398 . S
C1891 C1897 1.491 . S
C1892 H1883 0.950 . S
C1892 C1891 1.398 . S
C1892 C1893 1.391 . S
C1893 H1881 0.950 . S
C1893 C1889 1.393 . S
C1893 C1892 1.391 . S
C1894 H1884 0.950 . S
C1894 C1895 1.386 . S
C1894 C1896 1.391 . S
C1895 C1894 1.386 . S
C1895 C1899 1.393 . S
C1896 H1885 0.950 . S
C1896 C1894 1.391 . S
C1896 C1897 1.400 . S
C1897 C1891 1.491 . S
C1897 C1896 1.400 . S
C1897 C1898 1.398 . S
C1898 H1886 0.950 . S
C1898 C1897 1.398 . S
C1898 C1899 1.391 . S
C1899 H1887 0.950 . S
C1899 C1895 1.393 . S
C1899 C1898 1.391 . S
H1900 C1908 0.950 . S
H1901 C1913 0.950 . S
H1902 C1910 0.950 . S
H1903 C1912 0.950 . S
H1904 C1914 0.950 . S
H1905 C1916 0.950 . S
H1906 C1918 0.950 . S
H1907 C1919 0.950 . S
C1908 H1900 0.950 . S
C1908 C1909 1.386 . S
C1908 C1910 1.391 . S
C1909 C1908 1.386 . S
C1909 C1913 1.393 1_655 S
C1910 H1902 0.950 . S
C1910 C1908 1.391 . S
C1910 C1911 1.400 . S
C1911 C1910 1.400 . S
C1911 C1912 1.398 1_655 S
C1911 C1917 1.491 . S
C1912 H1903 0.950 . S
C1912 C1911 1.398 1_455 S
C1912 C1913 1.391 . S
C1913 H1901 0.950 . S
C1913 C1909 1.393 1_455 S
C1913 C1912 1.391 . S
C1914 H1904 0.950 . S
C1914 C1915 1.386 1_455 S
C1914 C1916 1.391 . S
C1915 C1914 1.386 1_655 S
C1915 C1919 1.393 . S
C1916 H1905 0.950 . S
C1916 C1914 1.391 . S
C1916 C1917 1.400 1_455 S
C1917 C1911 1.491 . S
C1917 C1916 1.400 1_655 S
C1917 C1918 1.398 . S
C1918 H1906 0.950 . S
C1918 C1917 1.398 . S
C1918 C1919 1.391 . S
C1919 H1907 0.950 . S
C1919 C1915 1.393 . S
C1919 C1918 1.391 . S
H1920 C1928 0.950 . S
H1921 C1933 0.950 . S
H1922 C1930 0.950 . S
H1923 C1932 0.950 . S
H1924 C1934 0.950 . S
H1925 C1936 0.950 . S
H1926 C1938 0.950 . S
H1927 C1939 0.950 . S
C1928 H1920 0.950 . S
C1928 C1929 1.386 . S
C1928 C1930 1.391 . S
C1929 C1928 1.386 . S
C1929 C1933 1.393 . S
C1930 H1922 0.950 . S
C1930 C1928 1.391 . S
C1930 C1931 1.400 . S
C1931 C1930 1.400 . S
C1931 C1932 1.398 . S
C1931 C1937 1.491 . S
C1932 H1923 0.950 . S
C1932 C1931 1.398 . S
C1932 C1933 1.391 . S
C1933 H1921 0.950 . S
C1933 C1929 1.393 . S
C1933 C1932 1.391 . S
C1934 H1924 0.950 . S
C1934 C1935 1.386 . S
C1934 C1936 1.391 . S
C1935 C1934 1.386 . S
C1935 C1939 1.393 . S
C1936 H1925 0.950 . S
C1936 C1934 1.391 . S
C1936 C1937 1.400 . S
C1937 C1931 1.491 . S
C1937 C1936 1.400 . S
C1937 C1938 1.398 . S
C1938 H1926 0.950 . S
C1938 C1937 1.398 . S
C1938 C1939 1.391 . S
C1939 H1927 0.950 . S
C1939 C1935 1.393 . S
C1939 C1938 1.391 . S
H1940 C1948 0.950 . S
H1941 C1953 0.950 . S
H1942 C1950 0.950 . S
H1943 C1952 0.950 . S
H1944 C1954 0.950 . S
H1945 C1956 0.950 . S
H1946 C1958 0.950 . S
H1947 C1959 0.950 . S
C1948 H1940 0.950 . S
C1948 C1949 1.386 . S
C1948 C1950 1.391 . S
C1949 C1948 1.386 . S
C1949 C1953 1.393 . S
C1950 H1942 0.950 . S
C1950 C1948 1.391 . S
C1950 C1951 1.400 . S
C1951 C1950 1.400 . S
C1951 C1952 1.398 . S
C1951 C1957 1.491 . S
C1952 H1943 0.950 . S
C1952 C1951 1.398 . S
C1952 C1953 1.391 . S
C1953 H1941 0.950 . S
C1953 C1949 1.393 . S
C1953 C1952 1.391 . S
C1954 H1944 0.950 . S
C1954 C1955 1.386 . S
C1954 C1956 1.391 . S
C1955 C1954 1.386 . S
C1955 C1959 1.393 . S
C1956 H1945 0.950 . S
C1956 C1954 1.391 . S
C1956 C1957 1.400 . S
C1957 C1951 1.491 . S
C1957 C1956 1.400 . S
C1957 C1958 1.398 . S
C1958 H1946 0.950 . S
C1958 C1957 1.398 . S
C1958 C1959 1.391 . S
C1959 H1947 0.950 . S
C1959 C1955 1.393 . S
C1959 C1958 1.391 . S
H1960 C1968 0.950 . S
H1961 C1973 0.950 . S
H1962 C1970 0.950 . S
H1963 C1972 0.950 . S
H1964 C1974 0.950 . S
H1965 C1976 0.950 . S
H1966 C1978 0.950 . S
H1967 C1979 0.950 . S
C1968 H1960 0.950 . S
C1968 C1969 1.386 . S
C1968 C1970 1.391 . S
C1969 C1968 1.386 . S
C1969 C1973 1.393 1_545 S
C1970 H1962 0.950 . S
C1970 C1968 1.391 . S
C1970 C1971 1.400 . S
C1971 C1970 1.400 . S
C1971 C1972 1.398 1_545 S
C1971 C1977 1.491 . S
C1972 H1963 0.950 . S
C1972 C1971 1.398 1_565 S
C1972 C1973 1.391 . S
C1973 H1961 0.950 . S
C1973 C1969 1.393 1_565 S
C1973 C1972 1.391 . S
C1974 H1964 0.950 . S
C1974 C1975 1.386 1_565 S
C1974 C1976 1.391 . S
C1975 C1974 1.386 1_545 S
C1975 C1979 1.393 . S
C1976 H1965 0.950 . S
C1976 C1974 1.391 . S
C1976 C1977 1.400 1_565 S
C1977 C1971 1.491 . S
C1977 C1976 1.400 1_545 S
C1977 C1978 1.398 . S
C1978 H1966 0.950 . S
C1978 C1977 1.398 . S
C1978 C1979 1.391 . S
C1979 H1967 0.950 . S
C1979 C1975 1.393 . S
C1979 C1978 1.391 . S
H1980 C1988 0.950 . S
H1981 C1993 0.950 . S
H1982 C1990 0.950 . S
H1983 C1992 0.950 . S
H1984 C1994 0.950 . S
H1985 C1996 0.950 . S
H1986 C1998 0.950 . S
H1987 C1999 0.950 . S
C1988 H1980 0.950 . S
C1988 C1989 1.386 . S
C1988 C1990 1.391 . S
C1989 C1988 1.386 . S
C1989 C1993 1.393 1_565 S
C1990 H1982 0.950 . S
C1990 C1988 1.391 . S
C1990 C1991 1.400 . S
C1991 C1990 1.400 . S
C1991 C1992 1.398 1_565 S
C1991 C1997 1.491 . S
C1992 H1983 0.950 . S
C1992 C1991 1.398 1_545 S
C1992 C1993 1.391 . S
C1993 H1981 0.950 . S
C1993 C1989 1.393 1_545 S
C1993 C1992 1.391 . S
C1994 H1984 0.950 . S
C1994 C1995 1.381 1_545 S
C1994 C1996 1.391 . S
C1995 C1994 1.381 1_565 S
C1995 C1999 1.398 . S
C1996 H1985 0.950 . S
C1996 C1994 1.391 . S
C1996 C1997 1.400 1_545 S
C1997 C1991 1.491 . S
C1997 C1996 1.400 1_565 S
C1997 C1998 1.398 . S
C1998 H1986 0.950 . S
C1998 C1997 1.398 . S
C1998 C1999 1.391 . S
C1999 H1987 0.950 . S
C1999 C1995 1.398 . S
C1999 C1998 1.391 . S
H2000 C2008 0.950 . S
H2001 C2013 0.950 . S
H2002 C2010 0.950 . S
H2003 C2012 0.950 . S
H2004 C2014 0.950 . S
H2005 C2016 0.950 . S
H2006 C2018 0.950 . S
H2007 C2019 0.950 . S
C2008 H2000 0.950 . S
C2008 C2009 1.386 . S
C2008 C2010 1.391 . S
C2009 C2008 1.386 . S
C2009 C2013 1.393 . S
C2010 H2002 0.950 . S
C2010 C2008 1.391 . S
C2010 C2011 1.400 . S
C2011 C2010 1.400 . S
C2011 C2012 1.398 . S
C2011 C2017 1.491 . S
C2012 H2003 0.950 . S
C2012 C2011 1.398 . S
C2012 C2013 1.391 . S
C2013 H2001 0.950 . S
C2013 C2009 1.393 . S
C2013 C2012 1.391 . S
C2014 H2004 0.950 . S
C2014 C2015 1.386 . S
C2014 C2016 1.391 . S
C2015 C2014 1.386 . S
C2015 C2019 1.393 . S
C2016 H2005 0.950 . S
C2016 C2014 1.391 . S
C2016 C2017 1.400 . S
C2017 C2011 1.491 . S
C2017 C2016 1.400 . S
C2017 C2018 1.398 . S
C2018 H2006 0.950 . S
C2018 C2017 1.398 . S
C2018 C2019 1.391 . S
C2019 H2007 0.950 . S
C2019 C2015 1.393 . S
C2019 C2018 1.391 . S
H2020 C2028 0.950 . S
H2021 C2033 0.950 . S
H2022 C2030 0.950 . S
H2023 C2032 0.950 . S
H2024 C2034 0.950 . S
H2025 C2036 0.950 . S
H2026 C2038 0.950 . S
H2027 C2039 0.950 . S
C2028 H2020 0.950 . S
C2028 C2029 1.386 . S
C2028 C2030 1.391 . S
C2029 C2028 1.386 . S
C2029 C2033 1.393 1_556 S
C2030 H2022 0.950 . S
C2030 C2028 1.391 . S
C2030 C2031 1.400 . S
C2031 C2030 1.400 . S
C2031 C2032 1.398 1_556 S
C2031 C2037 1.491 . S
C2032 H2023 0.950 . S
C2032 C2031 1.398 1_554 S
C2032 C2033 1.391 . S
C2033 H2021 0.950 . S
C2033 C2029 1.393 1_554 S
C2033 C2032 1.391 . S
C2034 H2024 0.950 . S
C2034 C2035 1.348 1_554 S
C2034 C2036 1.391 . S
C2035 C2034 1.348 1_556 S
C2035 C2039 1.432 . S
C2036 H2025 0.950 . S
C2036 C2034 1.391 . S
C2036 C2037 1.400 1_554 S
C2037 C2031 1.491 . S
C2037 C2036 1.400 1_556 S
C2037 C2038 1.398 . S
C2038 H2026 0.950 . S
C2038 C2037 1.398 . S
C2038 C2039 1.391 . S
C2039 H2027 0.950 . S
C2039 C2035 1.432 . S
C2039 C2038 1.391 . S
H2040 C2048 0.950 . S
H2041 C2053 0.950 . S
H2042 C2050 0.950 . S
H2043 C2052 0.950 . S
H2044 C2054 0.950 . S
H2045 C2056 0.950 . S
H2046 C2058 0.950 . S
H2047 C2059 0.950 . S
C2048 H2040 0.950 . S
C2048 C2049 1.386 . S
C2048 C2050 1.391 . S
C2049 C2048 1.386 . S
C2049 C2053 1.393 . S
C2050 H2042 0.950 . S
C2050 C2048 1.391 . S
C2050 C2051 1.400 . S
C2051 C2050 1.400 . S
C2051 C2052 1.398 . S
C2051 C2057 1.491 . S
C2052 H2043 0.950 . S
C2052 C2051 1.398 . S
C2052 C2053 1.391 . S
C2053 H2041 0.950 . S
C2053 C2049 1.393 . S
C2053 C2052 1.391 . S
C2054 H2044 0.950 . S
C2054 C2055 1.386 . S
C2054 C2056 1.391 . S
C2055 C2054 1.386 . S
C2055 C2059 1.393 . S
C2056 H2045 0.950 . S
C2056 C2054 1.391 . S
C2056 C2057 1.400 . S
C2057 C2051 1.491 . S
C2057 C2056 1.400 . S
C2057 C2058 1.398 . S
C2058 H2046 0.950 . S
C2058 C2057 1.398 . S
C2058 C2059 1.391 . S
C2059 H2047 0.950 . S
C2059 C2055 1.393 . S
C2059 C2058 1.391 . S
H2060 C2068 0.950 . S
H2061 C2073 0.950 . S
H2062 C2070 0.950 . S
H2063 C2072 0.950 . S
H2064 C2074 0.950 . S
H2065 C2076 0.950 . S
H2066 C2078 0.950 . S
H2067 C2079 0.950 . S
C2068 H2060 0.950 . S
C2068 C2069 1.386 1_556 S
C2068 C2070 1.391 . S
C2069 C2068 1.386 1_554 S
C2069 C2073 1.393 . S
C2070 H2062 0.950 . S
C2070 C2068 1.391 . S
C2070 C2071 1.400 1_556 S
C2071 C2070 1.400 1_554 S
C2071 C2072 1.398 . S
C2071 C2077 1.491 . S
C2072 H2063 0.950 . S
C2072 C2071 1.398 . S
C2072 C2073 1.391 . S
C2073 H2061 0.950 . S
C2073 C2069 1.393 . S
C2073 C2072 1.391 . S
C2074 H2064 0.950 . S
C2074 C2075 1.386 . S
C2074 C2076 1.391 . S
C2075 C2074 1.386 . S
C2075 C2079 1.393 1_554 S
C2076 H2065 0.950 . S
C2076 C2074 1.391 . S
C2076 C2077 1.400 . S
C2077 C2071 1.491 . S
C2077 C2076 1.400 . S
C2077 C2078 1.398 1_554 S
C2078 H2066 0.950 . S
C2078 C2077 1.398 1_556 S
C2078 C2079 1.391 . S
C2079 H2067 0.950 . S
C2079 C2075 1.393 1_556 S
C2079 C2078 1.391 . S
H2080 C2088 0.950 . S
H2081 C2093 0.950 . S
H2082 C2090 0.950 . S
H2083 C2092 0.950 . S
H2084 C2094 0.950 . S
H2085 C2096 0.950 . S
H2086 C2098 0.950 . S
H2087 C2099 0.950 . S
C2088 H2080 0.950 . S
C2088 C2089 1.386 . S
C2088 C2090 1.391 . S
C2089 C2088 1.386 . S
C2089 C2093 1.393 . S
C2090 H2082 0.950 . S
C2090 C2088 1.391 . S
C2090 C2091 1.400 . S
C2091 C2090 1.400 . S
C2091 C2092 1.398 . S
C2091 C2097 1.491 . S
C2092 H2083 0.950 . S
C2092 C2091 1.398 . S
C2092 C2093 1.391 . S
C2093 H2081 0.950 . S
C2093 C2089 1.393 . S
C2093 C2092 1.391 . S
C2094 H2084 0.950 . S
C2094 C2095 1.386 . S
C2094 C2096 1.391 . S
C2095 C2094 1.386 . S
C2095 C2099 1.393 . S
C2096 H2085 0.950 . S
C2096 C2094 1.391 . S
C2096 C2097 1.400 . S
C2097 C2091 1.491 . S
C2097 C2096 1.400 . S
C2097 C2098 1.398 . S
C2098 H2086 0.950 . S
C2098 C2097 1.398 . S
C2098 C2099 1.391 . S
C2099 H2087 0.950 . S
C2099 C2095 1.393 . S
C2099 C2098 1.391 . S
H2100 C2108 0.950 . S
H2101 C2113 0.950 . S
H2102 C2110 0.950 . S
H2103 C2112 0.950 . S
H2104 C2114 0.950 . S
H2105 C2116 0.950 . S
H2106 C2118 0.950 . S
H2107 C2119 0.950 . S
C2108 H2100 0.950 . S
C2108 C2109 1.386 . S
C2108 C2110 1.391 . S
C2109 C2108 1.386 . S
C2109 C2113 1.393 1_655 S
C2110 H2102 0.950 . S
C2110 C2108 1.391 . S
C2110 C2111 1.400 . S
C2111 C2110 1.400 . S
C2111 C2112 1.398 1_655 S
C2111 C2117 1.491 . S
C2112 H2103 0.950 . S
C2112 C2111 1.398 1_455 S
C2112 C2113 1.391 . S
C2113 H2101 0.950 . S
C2113 C2109 1.393 1_455 S
C2113 C2112 1.391 . S
C2114 H2104 0.950 . S
C2114 C2115 1.366 1_455 S
C2114 C2116 1.391 . S
C2115 C2114 1.366 1_655 S
C2115 C2119 1.413 . S
C2116 H2105 0.950 . S
C2116 C2114 1.391 . S
C2116 C2117 1.400 1_455 S
C2117 C2111 1.491 . S
C2117 C2116 1.400 1_655 S
C2117 C2118 1.398 . S
C2118 H2106 0.950 . S
C2118 C2117 1.398 . S
C2118 C2119 1.391 . S
C2119 H2107 0.950 . S
C2119 C2115 1.413 . S
C2119 C2118 1.391 . S
H2120 C2128 0.950 . S
H2121 C2133 0.950 . S
H2122 C2130 0.950 . S
H2123 C2132 0.950 . S
H2124 C2134 0.950 . S
H2125 C2136 0.950 . S
H2126 C2138 0.950 . S
H2127 C2139 0.950 . S
C2128 H2120 0.950 . S
C2128 C2129 1.386 . S
C2128 C2130 1.391 . S
C2129 C2128 1.386 . S
C2129 C2133 1.393 . S
C2130 H2122 0.950 . S
C2130 C2128 1.391 . S
C2130 C2131 1.400 . S
C2131 C2130 1.400 . S
C2131 C2132 1.398 . S
C2131 C2137 1.491 . S
C2132 H2123 0.950 . S
C2132 C2131 1.398 . S
C2132 C2133 1.391 . S
C2133 H2121 0.950 . S
C2133 C2129 1.393 . S
C2133 C2132 1.391 . S
C2134 H2124 0.950 . S
C2134 C2135 1.386 . S
C2134 C2136 1.391 . S
C2135 C2134 1.386 . S
C2135 C2139 1.393 . S
C2136 H2125 0.950 . S
C2136 C2134 1.391 . S
C2136 C2137 1.400 . S
C2137 C2131 1.491 . S
C2137 C2136 1.400 . S
C2137 C2138 1.398 . S
C2138 H2126 0.950 . S
C2138 C2137 1.398 . S
C2138 C2139 1.391 . S
C2139 H2127 0.950 . S
C2139 C2135 1.393 . S
C2139 C2138 1.391 . S
H2140 C2148 0.950 . S
H2141 C2153 0.950 . S
H2142 C2150 0.950 . S
H2143 C2152 0.950 . S
H2144 C2154 0.950 . S
H2145 C2156 0.950 . S
H2146 C2158 0.950 . S
H2147 C2159 0.950 . S
C2148 H2140 0.950 . S
C2148 C2149 1.386 1_655 S
C2148 C2150 1.391 . S
C2149 C2148 1.386 1_455 S
C2149 C2153 1.393 . S
C2150 H2142 0.950 . S
C2150 C2148 1.391 . S
C2150 C2151 1.400 1_655 S
C2151 C2150 1.400 1_455 S
C2151 C2152 1.398 . S
C2151 C2157 1.491 . S
C2152 H2143 0.950 . S
C2152 C2151 1.398 . S
C2152 C2153 1.391 . S
C2153 H2141 0.950 . S
C2153 C2149 1.393 . S
C2153 C2152 1.391 . S
C2154 H2144 0.950 . S
C2154 C2155 1.386 . S
C2154 C2156 1.391 . S
C2155 C2154 1.386 . S
C2155 C2159 1.393 1_455 S
C2156 H2145 0.950 . S
C2156 C2154 1.391 . S
C2156 C2157 1.400 . S
C2157 C2151 1.491 . S
C2157 C2156 1.400 . S
C2157 C2158 1.398 1_455 S
C2158 H2146 0.950 . S
C2158 C2157 1.398 1_655 S
C2158 C2159 1.391 . S
C2159 H2147 0.950 . S
C2159 C2155 1.393 1_655 S
C2159 C2158 1.391 . S
C735 C707 1.439 . S
C729 C8 1.482 . S
C755 C650 1.376 . S
C749 C19 1.414 . S
C775 C688 1.245 1_565 S
C769 C30 1.304 . S
C795 C669 1.394 1_545 S
C789 C41 1.419 . S
C815 C536 1.457 . S
C809 C52 1.474 . S
C829 C63 1.428 . S
C835 C555 1.374 1_554 S
C855 C498 1.395 . S
C849 C74 1.408 . S
C869 C85 1.294 . S
C875 C517 1.249 1_556 S
C895 C631 1.445 . S
C889 C96 1.472 . S
C909 C107 1.425 . S
C915 C593 1.375 1_455 S
C929 C118 1.412 . S
C935 C574 1.389 . S
C955 C612 1.267 1_655 S
C949 C129 1.307 . S
C975 C479 1.441 . S
C969 C140 1.462 . S
C989 C151 1.388 . S
C995 C422 1.376 . S
C1015 C460 1.269 1_545 S
C1009 C162 1.288 . S
C1029 C173 1.420 . S
C1035 C441 1.393 1_565 S
C1055 C308 1.438 . S
C1049 C184 1.465 . S
C1075 C327 1.394 1_556 S
C1069 C195 1.421 . S
C1089 C206 1.388 . S
C1095 C270 1.376 . S
C1109 C217 1.287 . S
C1115 C289 1.258 1_554 S
C1129 C228 1.464 . S
C1135 C403 1.439 . S
C1149 C239 1.400 . S
C1155 C365 1.410 1_655 S
C1175 C346 1.387 . S
C1169 C250 1.374 . S
C1189 C261 1.301 . S
C1195 C384 1.243 1_455 S
C1215 C266 1.422 . S
C1209 C7 1.470 . S
C1235 C285 1.320 . S
C1229 C18 1.385 . S
C1249 C29 1.338 . S
C1255 C304 1.308 . S
C1269 C40 1.329 . S
C1275 C323 1.314 . S
C1295 C342 1.432 . S
C1289 C51 1.463 . S
C1309 C62 1.329 . S
C1315 C361 1.307 . S
C1335 C380 1.316 . S
C1329 C73 1.388 . S
C1355 C399 1.309 . S
C1349 C84 1.335 . S
C1375 C418 1.411 . S
C1369 C95 1.457 . S
C1389 C106 1.347 . S
C1395 C437 1.299 . S
C1409 C117 1.383 . S
C1415 C456 1.339 . S
C1429 C128 1.346 . S
C1435 C475 1.302 . S
C1449 C139 1.406 . S
C1455 C494 1.413 . S
C1469 C150 1.331 . S
C1475 C513 1.344 . S
C1489 C161 1.314 . S
C1495 C532 1.325 . S
C1509 C172 1.294 . S
C1515 C551 1.303 . S
C1529 C183 1.385 . S
C1535 C570 1.404 . S
C1555 C589 1.306 . S
C1549 C194 1.281 . S
C1575 C608 1.317 . S
C1569 C205 1.293 . S
C1595 C627 1.324 . S
C1589 C216 1.312 . S
C1615 C646 1.426 . S
C1609 C227 1.403 . S
C1629 C238 1.310 . S
C1635 C665 1.323 . S
C1649 C249 1.297 . S
C1655 C684 1.314 . S
C1669 C260 1.287 . S
C1675 C703 1.302 . S
C1689 C5 1.380 . S
C1695 C427 1.456 . S
C1715 C484 1.486 . S
C1709 C16 1.409 . S
C1729 C27 1.347 . S
C1735 C446 1.456 . S
C1755 C465 1.434 . S
C1749 C38 1.337 . S
C1769 C49 1.381 . S
C1775 C275 1.467 . S
C1789 C60 1.335 . S
C1795 C294 1.457 . S
C1809 C71 1.409 . S
C1815 C313 1.485 . S
C1829 C82 1.332 . S
C1835 C332 1.452 . S
C1855 C351 1.453 . S
C1849 C93 1.355 . S
C1875 C389 1.424 . S
C1869 C104 1.307 . S
C1889 C115 1.410 . S
C1895 C408 1.488 . S
C1909 C126 1.304 . S
C1915 C370 1.465 . S
C1935 C655 1.423 . S
C1929 C137 1.257 . S
C1955 C712 1.453 . S
C1949 C148 1.245 . S
C1969 C159 1.292 1_545 S
C1975 C674 1.413 . S
C1995 C693 1.417 . S
C1989 C170 1.271 1_565 S
C2009 C181 1.289 . S
C2015 C503 1.439 . S
C2029 C192 1.247 1_556 S
C2035 C522 1.410 . S
C2049 C203 1.268 . S
C2055 C541 1.452 . S
C2075 C560 1.435 . S
C2069 C214 1.259 1_554 S
C2095 C579 1.429 . S
C2089 C225 1.278 . S
C2115 C617 1.412 . S
C2109 C236 1.263 1_655 S
C2129 C247 1.243 . S
C2135 C636 1.453 . S
C2155 C598 1.436 . S
C2149 C258 1.295 1_455 S
