# Generated by pormake.
# Topology apo, (3,6)-cn, num edge types: 1
# Building blocks:
#     Node 0, Type 0, BuildingBlock: KAKCAD_clean_linker_0, # of connection points: 3
#     Node 1, Type 0, BuildingBlock: KAKCAD_clean_linker_0, # of connection points: 3
#     Node 2, Type 0, BuildingBlock: KAKCAD_clean_linker_0, # of connection points: 3
#     Node 3, Type 0, BuildingBlock: KAKCAD_clean_linker_0, # of connection points: 3
#     Node 4, Type 0, BuildingBlock: KAKCAD_clean_linker_0, # of connection points: 3
#     Node 5, Type 0, BuildingBlock: KAKCAD_clean_linker_0, # of connection points: 3
#     Node 6, Type 0, BuildingBlock: KAKCAD_clean_linker_0, # of connection points: 3
#     Node 7, Type 0, BuildingBlock: KAKCAD_clean_linker_0, # of connection points: 3
#     Node 8, Type 1, BuildingBlock: KUMJIN_clean_sbu_1, # of connection points: 6
#     Node 9, Type 1, BuildingBlock: KUMJIN_clean_sbu_1, # of connection points: 6
#     Node 10, Type 1, BuildingBlock: KUMJIN_clean_sbu_1, # of connection points: 6
#     Node 11, Type 1, BuildingBlock: KUMJIN_clean_sbu_1, # of connection points: 6
#     Edge 12, Type (0, 1), BuildingBlock: XIVTED_clean_linker_0, # of connection points: 2
#     Edge 13, Type (0, 1), BuildingBlock: XIVTED_clean_linker_0, # of connection points: 2
#     Edge 14, Type (0, 1), BuildingBlock: XIVTED_clean_linker_0, # of connection points: 2
#     Edge 15, Type (0, 1), BuildingBlock: XIVTED_clean_linker_0, # of connection points: 2
#     Edge 16, Type (0, 1), BuildingBlock: XIVTED_clean_linker_0, # of connection points: 2
#     Edge 17, Type (0, 1), BuildingBlock: XIVTED_clean_linker_0, # of connection points: 2
#     Edge 18, Type (0, 1), BuildingBlock: XIVTED_clean_linker_0, # of connection points: 2
#     Edge 19, Type (0, 1), BuildingBlock: XIVTED_clean_linker_0, # of connection points: 2
#     Edge 20, Type (0, 1), BuildingBlock: XIVTED_clean_linker_0, # of connection points: 2
#     Edge 21, Type (0, 1), BuildingBlock: XIVTED_clean_linker_0, # of connection points: 2
#     Edge 22, Type (0, 1), BuildingBlock: XIVTED_clean_linker_0, # of connection points: 2
#     Edge 23, Type (0, 1), BuildingBlock: XIVTED_clean_linker_0, # of connection points: 2
#     Edge 24, Type (0, 1), BuildingBlock: XIVTED_clean_linker_0, # of connection points: 2
#     Edge 25, Type (0, 1), BuildingBlock: XIVTED_clean_linker_0, # of connection points: 2
#     Edge 26, Type (0, 1), BuildingBlock: XIVTED_clean_linker_0, # of connection points: 2
#     Edge 27, Type (0, 1), BuildingBlock: XIVTED_clean_linker_0, # of connection points: 2
#     Edge 28, Type (0, 1), BuildingBlock: XIVTED_clean_linker_0, # of connection points: 2
#     Edge 29, Type (0, 1), BuildingBlock: XIVTED_clean_linker_0, # of connection points: 2
#     Edge 30, Type (0, 1), BuildingBlock: XIVTED_clean_linker_0, # of connection points: 2
#     Edge 31, Type (0, 1), BuildingBlock: XIVTED_clean_linker_0, # of connection points: 2
#     Edge 32, Type (0, 1), BuildingBlock: XIVTED_clean_linker_0, # of connection points: 2
#     Edge 33, Type (0, 1), BuildingBlock: XIVTED_clean_linker_0, # of connection points: 2
#     Edge 34, Type (0, 1), BuildingBlock: XIVTED_clean_linker_0, # of connection points: 2
#     Edge 35, Type (0, 1), BuildingBlock: XIVTED_clean_linker_0, # of connection points: 2
# Relax obj value: 0.009
# Max RMSD: 0.097
# Mean RMSD: 0.076
data_MOF--net-apo--node1-KUMJIN_clean_sbu_1--node2-KAKCAD_clean_linker_0--edge1-XIVTED_clean_linker_0
_symmetry_space_group_name_H-M    P1
_symmetry_Int_Tables_number       1
_symmetry_cell_setting            triclinic
loop_
_symmetry_equiv_pos_as_xyz
'x, y, z'
_cell_length_a     29.126362
_cell_length_b     53.167244
_cell_length_c     64.692813
_cell_angle_alpha  89.85137
_cell_angle_beta   89.921562
_cell_angle_gamma 90.942981
loop_
_atom_site_label
_atom_site_type_symbol
_atom_site_fract_x
_atom_site_fract_y
_atom_site_fract_z
_atom_type_partial_charge
C0 C 0.28671 0.45435 0.35989 0.0
C1 C 0.33111 0.46412 0.36342 0.0
C2 C 0.26976 0.43414 0.3716 0.0
C3 C 0.29693 0.42322 0.38703 0.0
C4 C 0.34126 0.43313 0.39065 0.0
C5 C 0.35811 0.45342 0.379 0.0
C6 C 0.27934 0.40138 0.39919 0.0
C7 C 0.25535 0.38164 0.38946 0.0
C8 C 0.23876 0.36073 0.4008 0.0
C9 C 0.24843 0.35943 0.42212 0.0
C10 C 0.27393 0.37863 0.43197 0.0
C11 C 0.28774 0.39989 0.42046 0.0
C12 C 0.28876 0.37604 0.45389 0.0
C13 C 0.26073 0.36397 0.46881 0.0
C14 C 0.33228 0.3853 0.45992 0.0
C15 C 0.347 0.38305 0.48028 0.0
C16 C 0.3192 0.37094 0.49501 0.0
C17 C 0.21299 0.34001 0.39009 0.0
C18 C 0.18574 0.34519 0.37263 0.0
C19 C 0.21651 0.31479 0.39666 0.0
C20 C 0.19442 0.29539 0.38579 0.0
C21 C 0.16922 0.30075 0.36795 0.0
C22 C 0.16471 0.32573 0.36152 0.0
C23 C 0.27606 0.36124 0.4892 0.0
H24 H 0.26497 0.46246 0.34814 0.0
H25 H 0.23524 0.42716 0.36867 0.0
H26 H 0.36333 0.42488 0.4022 0.0
H27 H 0.3927 0.46035 0.38186 0.0
H28 H 0.25093 0.38232 0.37286 0.0
H29 H 0.30532 0.41542 0.42805 0.0
H30 H 0.23688 0.34327 0.431 0.0
H31 H 0.22682 0.3569 0.46485 0.0
H32 H 0.35551 0.39404 0.44887 0.0
H33 H 0.38054 0.39052 0.48449 0.0
H34 H 0.1809 0.36429 0.36733 0.0
H35 H 0.2376 0.30977 0.40974 0.0
H36 H 0.25398 0.35202 0.5005 0.0
H37 H 0.14533 0.33015 0.34773 0.0
H38 H 0.19852 0.2761 0.39083 0.0
C39 C 0.2259 0.03522 0.85948 0.0
C40 C 0.18197 0.02503 0.86351 0.0
C41 C 0.24301 0.05541 0.87113 0.0
C42 C 0.21638 0.06601 0.88693 0.0
C43 C 0.17248 0.05567 0.89098 0.0
C44 C 0.15559 0.03532 0.87947 0.0
C45 C 0.23399 0.08799 0.89896 0.0
C46 C 0.2585 0.10759 0.88909 0.0
C47 C 0.27475 0.12864 0.90022 0.0
C48 C 0.2649 0.13018 0.92149 0.0
C49 C 0.23938 0.11107 0.93155 0.0
C50 C 0.22516 0.0898 0.92022 0.0
C51 C 0.22521 0.11384 0.95355 0.0
C52 C 0.25466 0.12507 0.96827 0.0
C53 C 0.1811 0.10575 0.95985 0.0
C54 C 0.16685 0.10867 0.98026 0.0
C55 C 0.19604 0.12005 0.99476 0.0
C56 C 0.30053 0.14929 0.88937 0.0
C57 C 0.33026 0.14379 0.87287 0.0
C58 C 0.29464 0.17466 0.89486 0.0
C59 C 0.31677 0.19396 0.88375 0.0
C60 C 0.3448 0.18838 0.86674 0.0
C61 C 0.35183 0.16307 0.86163 0.0
C62 C 0.24008 0.12821 0.98874 0.0
H63 H 0.24715 0.02747 0.84739 0.0
H64 H 0.27723 0.06263 0.86781 0.0
H65 H 0.15066 0.06362 0.90276 0.0
H66 H 0.12134 0.02807 0.8827 0.0
H67 H 0.26362 0.10678 0.87253 0.0
H68 H 0.20715 0.07451 0.92802 0.0
H69 H 0.27639 0.14648 0.93016 0.0
H70 H 0.28906 0.1312 0.96405 0.0
H71 H 0.15711 0.09748 0.94894 0.0
H72 H 0.1328 0.10216 0.98474 0.0
H73 H 0.33676 0.12453 0.86851 0.0
H74 H 0.27169 0.17976 0.90728 0.0
H75 H 0.26324 0.13676 0.99988 0.0
H76 H 0.37396 0.15815 0.84885 0.0
H77 H 0.31048 0.2133 0.88799 0.0
C78 C 0.79318 0.03757 0.64705 0.0
C79 C 0.83742 0.02843 0.64314 0.0
C80 C 0.77598 0.0577 0.63557 0.0
C81 C 0.80252 0.06907 0.61985 0.0
C82 C 0.84653 0.05972 0.6158 0.0
C83 C 0.86372 0.03966 0.62727 0.0
C84 C 0.78461 0.09059 0.60764 0.0
C85 C 0.76105 0.11019 0.61728 0.0
C86 C 0.74464 0.13084 0.60584 0.0
C87 C 0.75415 0.13196 0.58442 0.0
C88 C 0.77894 0.11277 0.5746 0.0
C89 C 0.79245 0.09187 0.58631 0.0
C90 C 0.79272 0.1146 0.55238 0.0
C91 C 0.76398 0.12543 0.53741 0.0
C92 C 0.83549 0.10527 0.54599 0.0
C93 C 0.84867 0.10613 0.52528 0.0
C94 C 0.81998 0.11684 0.51049 0.0
C95 C 0.71895 0.15132 0.61657 0.0
C96 C 0.69216 0.14581 0.63424 0.0
C97 C 0.72203 0.17661 0.60989 0.0
C98 C 0.70031 0.19573 0.62096 0.0
C99 C 0.67592 0.19007 0.63914 0.0
C100 C 0.67159 0.16495 0.64553 0.0
C101 C 0.77771 0.1267 0.51663 0.0
H102 H 0.77215 0.02951 0.65927 0.0
H103 H 0.74179 0.06428 0.63895 0.0
H104 H 0.8681 0.06816 0.60393 0.0
H105 H 0.8977 0.03293 0.62368 0.0
H106 H 0.75684 0.10961 0.6339 0.0
H107 H 0.8093 0.07636 0.57877 0.0
H108 H 0.74282 0.14784 0.5754 0.0
H109 H 0.73073 0.13265 0.54164 0.0
H110 H 0.85933 0.09752 0.55704 0.0
H111 H 0.88177 0.09883 0.52084 0.0
H112 H 0.6873 0.12665 0.63961 0.0
H113 H 0.74251 0.18191 0.59656 0.0
H114 H 0.75531 0.13524 0.50535 0.0
H115 H 0.65256 0.16016 0.65943 0.0
H116 H 0.70418 0.21506 0.61581 0.0
C117 C 0.72095 0.45214 0.14758 0.0
C118 C 0.67754 0.46204 0.14355 0.0
C119 C 0.73768 0.43242 0.13562 0.0
C120 C 0.71095 0.42194 0.11959 0.0
C121 C 0.66747 0.43208 0.11558 0.0
C122 C 0.65111 0.45206 0.12734 0.0
C123 C 0.72809 0.40035 0.10728 0.0
C124 C 0.75239 0.38093 0.11686 0.0
C125 C 0.76909 0.36044 0.10544 0.0
C126 C 0.75941 0.35926 0.08409 0.0
C127 C 0.7335 0.37805 0.07439 0.0
C128 C 0.71919 0.39877 0.08603 0.0
C129 C 0.71933 0.37585 0.05234 0.0
C130 C 0.74994 0.3677 0.037 0.0
C131 C 0.67448 0.38224 0.04651 0.0
C132 C 0.66068 0.3809 0.0259 0.0
C133 C 0.69135 0.37318 0.01053 0.0
C134 C 0.79508 0.3401 0.11618 0.0
C135 C 0.82219 0.34573 0.13366 0.0
C136 C 0.79174 0.31481 0.10972 0.0
C137 C 0.81363 0.29576 0.1208 0.0
C138 C 0.83847 0.30146 0.13881 0.0
C139 C 0.843 0.32664 0.14497 0.0
C140 C 0.73614 0.36653 0.01625 0.0
H141 H 0.74197 0.45975 0.15996 0.0
H142 H 0.77163 0.42544 0.1389 0.0
H143 H 0.64558 0.42424 0.10362 0.0
H144 H 0.61731 0.45932 0.12413 0.0
H145 H 0.75697 0.38148 0.13346 0.0
H146 H 0.70111 0.41385 0.07843 0.0
H147 H 0.77127 0.34357 0.07501 0.0
H148 H 0.78473 0.36269 0.04095 0.0
H149 H 0.64976 0.38821 0.05794 0.0
H150 H 0.62607 0.38628 0.02194 0.0
H151 H 0.82718 0.36492 0.13884 0.0
H152 H 0.77096 0.30948 0.09654 0.0
H153 H 0.76036 0.36028 0.0047 0.0
H154 H 0.86263 0.33158 0.15863 0.0
H155 H 0.80956 0.27643 0.11576 0.0
C156 C 0.67367 0.55109 0.6479 0.0
C157 C 0.67763 0.52646 0.64046 0.0
C158 C 0.69298 0.57131 0.63693 0.0
C159 C 0.71591 0.56733 0.61813 0.0
C160 C 0.71995 0.54262 0.6107 0.0
C161 C 0.70139 0.5223 0.62192 0.0
C162 C 0.73431 0.58908 0.6061 0.0
C163 C 0.76033 0.60794 0.61592 0.0
C164 C 0.77492 0.62968 0.60516 0.0
C165 C 0.76455 0.63175 0.58395 0.0
C166 C 0.73867 0.61291 0.57369 0.0
C167 C 0.72353 0.59171 0.58511 0.0
C168 C 0.72572 0.61562 0.55137 0.0
C169 C 0.71847 0.63941 0.5424 0.0
C170 C 0.7189 0.59422 0.53894 0.0
C171 C 0.70326 0.5964 0.51864 0.0
C172 C 0.69559 0.62015 0.50964 0.0
C173 C 0.79884 0.65062 0.61641 0.0
C174 C 0.78655 0.65624 0.63695 0.0
C175 C 0.83319 0.66554 0.60676 0.0
C176 C 0.85442 0.68552 0.61737 0.0
C177 C 0.84164 0.69093 0.63776 0.0
C178 C 0.80778 0.67613 0.64748 0.0
C179 C 0.70432 0.64165 0.5218 0.0
H180 H 0.65578 0.55465 0.66226 0.0
H181 H 0.68912 0.59016 0.64294 0.0
H182 H 0.73763 0.53904 0.59629 0.0
H183 H 0.70486 0.5034 0.61596 0.0
H184 H 0.76911 0.60559 0.63207 0.0
H185 H 0.70158 0.57758 0.57799 0.0
H186 H 0.77599 0.6483 0.57554 0.0
H187 H 0.72265 0.65646 0.55134 0.0
H188 H 0.7252 0.57554 0.54486 0.0
H189 H 0.69635 0.57917 0.51029 0.0
H190 H 0.75975 0.64564 0.64485 0.0
H191 H 0.84401 0.66172 0.59108 0.0
H192 H 0.70008 0.66035 0.51555 0.0
H193 H 0.79757 0.68005 0.66325 0.0
H194 H 0.88049 0.69686 0.60963 0.0
C195 C 0.77358 0.86531 0.01555 0.0
C196 C 0.81951 0.87095 0.01023 0.0
C197 C 0.75863 0.8676 0.03604 0.0
C198 C 0.78927 0.87576 0.05147 0.0
C199 C 0.83503 0.88133 0.04614 0.0
C200 C 0.84999 0.87888 0.02582 0.0
C201 C 0.77412 0.87868 0.07317 0.0
C202 C 0.75026 0.85918 0.08343 0.0
C203 C 0.73863 0.86133 0.1045 0.0
C204 C 0.75133 0.88358 0.11506 0.0
C205 C 0.77626 0.90294 0.10509 0.0
C206 C 0.78657 0.9005 0.08404 0.0
C207 C 0.79421 0.92499 0.11686 0.0
C208 C 0.76771 0.93637 0.1323 0.0
C209 C 0.83893 0.93433 0.11307 0.0
C210 C 0.85683 0.95439 0.12452 0.0
C211 C 0.83059 0.96554 0.14013 0.0
C212 C 0.7152 0.84007 0.11572 0.0
C213 C 0.6844 0.82357 0.10547 0.0
C214 C 0.72365 0.83595 0.13691 0.0
C215 C 0.701 0.8166 0.14761 0.0
C216 C 0.67045 0.80036 0.13732 0.0
C217 C 0.66271 0.80371 0.11612 0.0
C218 C 0.78572 0.95644 0.14381 0.0
H219 H 0.74908 0.85946 0.00387 0.0
H220 H 0.72305 0.86339 0.03977 0.0
H221 H 0.85954 0.88728 0.0578 0.0
H222 H 0.88579 0.88286 0.0224 0.0
H223 H 0.74273 0.84194 0.07513 0.0
H224 H 0.80477 0.91559 0.07604 0.0
H225 H 0.74282 0.8857 0.13123 0.0
H226 H 0.73304 0.92979 0.1355 0.0
H227 H 0.86061 0.9258 0.10152 0.0
H228 H 0.89133 0.96114 0.12115 0.0
H229 H 0.67632 0.82615 0.08929 0.0
H230 H 0.74814 0.84746 0.14535 0.0
H231 H 0.76483 0.96448 0.15589 0.0
H232 H 0.63908 0.79135 0.10794 0.0
H233 H 0.70778 0.81411 0.16395 0.0
C234 C 0.17834 0.93798 0.35323 0.0
C235 C 0.17831 0.96222 0.3618 0.0
C236 C 0.19522 0.91772 0.36448 0.0
C237 C 0.21288 0.92127 0.3845 0.0
C238 C 0.21306 0.94559 0.39302 0.0
C239 C 0.19572 0.96585 0.38182 0.0
C240 C 0.2297 0.89946 0.39659 0.0
C241 C 0.25436 0.88034 0.38687 0.0
C242 C 0.26681 0.85841 0.39764 0.0
C243 C 0.25594 0.85654 0.41884 0.0
C244 C 0.23316 0.8761 0.42902 0.0
C245 C 0.21962 0.89725 0.4177 0.0
C246 C 0.22166 0.87432 0.45133 0.0
C247 C 0.20264 0.85208 0.45958 0.0
C248 C 0.2276 0.89531 0.4643 0.0
C249 C 0.21409 0.8942 0.48502 0.0
C250 C 0.19391 0.87212 0.49323 0.0
C251 C 0.29025 0.83755 0.38651 0.0
C252 C 0.28158 0.83336 0.36535 0.0
C253 C 0.32157 0.82174 0.39666 0.0
C254 C 0.3437 0.80257 0.38588 0.0
C255 C 0.33585 0.79927 0.36467 0.0
C256 C 0.30463 0.81476 0.35454 0.0
C257 C 0.18865 0.85103 0.48021 0.0
H258 H 0.16445 0.9346 0.33794 0.0
H259 H 0.19358 0.89916 0.35762 0.0
H260 H 0.22691 0.94903 0.4083 0.0
H261 H 0.19646 0.9844 0.3887 0.0
H262 H 0.2641 0.88278 0.37083 0.0
H263 H 0.19973 0.91163 0.42525 0.0
H264 H 0.26484 0.83986 0.42748 0.0
H265 H 0.19704 0.83571 0.44991 0.0
H266 H 0.2427 0.91264 0.45839 0.0
H267 H 0.21962 0.91065 0.49457 0.0
H268 H 0.25664 0.84429 0.357 0.0
H269 H 0.32978 0.82439 0.41282 0.0
H270 H 0.17241 0.83382 0.4857 0.0
H271 H 0.29757 0.81222 0.33823 0.0
H272 H 0.3677 0.79072 0.39397 0.0
C273 C 0.2764 0.62543 0.98793 0.0
C274 C 0.32012 0.61698 0.99363 0.0
C275 C 0.26219 0.62429 0.9673 0.0
C276 C 0.29162 0.61481 0.95208 0.0
C277 C 0.33558 0.60677 0.95785 0.0
C278 C 0.34952 0.60767 0.97842 0.0
C279 C 0.27678 0.6126 0.93024 0.0
C280 C 0.25399 0.63223 0.92018 0.0
C281 C 0.24336 0.63048 0.899 0.0
C282 C 0.2561 0.60883 0.88803 0.0
C283 C 0.27929 0.58921 0.89786 0.0
C284 C 0.28799 0.59099 0.91909 0.0
C285 C 0.29715 0.56761 0.88588 0.0
C286 C 0.27287 0.55764 0.86892 0.0
C287 C 0.33964 0.55714 0.89113 0.0
C288 C 0.3571 0.5371 0.87995 0.0
C289 C 0.33324 0.52734 0.86283 0.0
C290 C 0.22156 0.65174 0.88793 0.0
C291 C 0.18688 0.66594 0.89731 0.0
C292 C 0.2356 0.65802 0.86773 0.0
C293 C 0.21556 0.67784 0.85716 0.0
C294 C 0.18122 0.69204 0.86654 0.0
C295 C 0.16671 0.68588 0.88665 0.0
C296 C 0.29088 0.53787 0.85743 0.0
H297 H 0.25318 0.63275 0.99945 0.0
H298 H 0.22807 0.63046 0.96331 0.0
H299 H 0.35949 0.59995 0.9464 0.0
H300 H 0.38378 0.60165 0.98235 0.0
H301 H 0.24641 0.64926 0.9286 0.0
H302 H 0.30412 0.57552 0.92705 0.0
H303 H 0.2489 0.60752 0.87166 0.0
H304 H 0.23986 0.56501 0.86452 0.0
H305 H 0.35999 0.5646 0.90377 0.0
H306 H 0.38938 0.52925 0.88486 0.0
H307 H 0.17501 0.66151 0.91279 0.0
H308 H 0.26269 0.64789 0.86009 0.0
H309 H 0.27177 0.5311 0.84417 0.0
H310 H 0.14027 0.69666 0.89418 0.0
H311 H 0.22688 0.68204 0.84155 0.0
Eu312 Eu 0.06028 0.13199 0.23336 0.0
C313 C 0.85033 0.11403 0.25965 0.0
N314 N 0.87513 0.1359 0.25925 0.0
C315 C 0.81036 0.1579 0.24593 0.0
C316 C 0.8042 0.11331 0.25302 0.0
C317 C 0.85584 0.15773 0.25276 0.0
C318 C 0.78441 0.13559 0.24602 0.0
C319 C 0.84586 0.06942 0.26765 0.0
C320 C 0.87113 0.09227 0.26674 0.0
C321 C 0.79992 0.06867 0.26107 0.0
C322 C 0.7792 0.09053 0.25373 0.0
Eu323 Eu 0.95066 0.13402 0.27209 0.0
N324 N 0.91587 0.09347 0.27287 0.0
C325 C 0.86729 0.04804 0.27545 0.0
C326 C 0.9362 0.07292 0.28124 0.0
C327 C 0.91253 0.04986 0.28242 0.0
H328 H 0.87507 0.17516 0.25345 0.0
H329 H 0.92897 0.0336 0.28902 0.0
H330 H 0.13519 0.09026 0.25191 0.0
H331 H 0.08467 0.23183 0.21529 0.0
H332 H 0.97007 0.07425 0.28764 0.0
H333 H 0.84894 0.03019 0.27652 0.0
H334 H 0.04179 0.1918 0.21805 0.0
H335 H 0.79517 0.1753 0.24085 0.0
H336 H 0.78002 0.05128 0.26169 0.0
H337 H 0.74369 0.08965 0.24877 0.0
H338 H 0.21549 0.08943 0.26384 0.0
H339 H 0.74906 0.13581 0.24084 0.0
H340 H 0.16589 0.23432 0.22628 0.0
N341 N 0.13615 0.12942 0.24573 0.0
C342 C 0.16193 0.15091 0.24453 0.0
C343 C 0.20075 0.10691 0.25867 0.0
C344 C 0.2084 0.15121 0.25069 0.0
C345 C 0.15496 0.10749 0.2523 0.0
C346 C 0.22756 0.12889 0.25796 0.0
N347 N 0.09651 0.17205 0.23186 0.0
C348 C 0.07634 0.19275 0.22368 0.0
C349 C 0.16797 0.1952 0.23554 0.0
C350 C 0.14178 0.17271 0.23714 0.0
C351 C 0.14689 0.21672 0.22783 0.0
C352 C 0.10097 0.21543 0.22175 0.0
H353 H 0.26314 0.12836 0.26279 0.0
H354 H 0.27006 0.17421 0.25392 0.0
H355 H 0.23478 0.21267 0.24058 0.0
O356 O 0.06119 0.13737 0.19903 0.0
O357 O 0.07119 0.15299 0.26372 0.0
O358 O 0.99905 0.16739 0.27058 0.0
O359 O 0.10445 0.10979 0.21445 0.0
O360 O 0.9952 0.15079 0.22204 0.0
O361 O 0.96013 0.16778 0.25079 0.0
O362 O 0.95023 0.12882 0.3061 0.0
O363 O 0.94046 0.11424 0.24125 0.0
O364 O 0.01194 0.09852 0.2354 0.0
O365 O 0.90486 0.15576 0.29116 0.0
O366 O 0.01563 0.11499 0.28355 0.0
O367 O 0.05068 0.09844 0.25464 0.0
C368 C 0.04307 0.16695 0.2745 0.0
C369 C 0.11698 0.11349 0.178 0.0
C370 C 0.12506 0.11303 0.1405 0.0
C371 C 0.16634 0.1 0.14264 0.0
C372 C 0.1585 0.10045 0.17964 0.0
C373 C 0.18289 0.09379 0.16207 0.0
C374 C 0.1003 0.12002 0.15825 0.0
C375 C 0.96806 0.16732 0.23071 0.0
C376 C 0.09293 0.12047 0.1972 0.0
C377 C 0.23433 0.17364 0.24927 0.0
C378 C 0.21423 0.19554 0.24166 0.0
C379 C 0.96786 0.09886 0.23157 0.0
C380 C 0.89824 0.1529 0.32836 0.0
C381 C 0.89123 0.14944 0.36586 0.0
C382 C 0.85908 0.16883 0.36561 0.0
C383 C 0.86578 0.1722 0.32861 0.0
C384 C 0.91074 0.14127 0.34715 0.0
C385 C 0.84638 0.18004 0.34711 0.0
C386 C 0.0434 0.09887 0.27474 0.0
C387 C 0.91814 0.14544 0.30833 0.0
H388 H 0.1859 0.09463 0.12912 0.0
H389 H 0.17248 0.09546 0.19458 0.0
H390 H 0.21479 0.08378 0.16351 0.0
H391 H 0.06849 0.13014 0.15668 0.0
H392 H 0.84339 0.17515 0.37985 0.0
H393 H 0.85527 0.18137 0.31446 0.0
H394 H 0.93547 0.12626 0.34728 0.0
H395 H 0.82138 0.19487 0.34711 0.0
Eu396 Eu 0.45824 0.35776 0.73289 0.0
C397 C 0.66968 0.37523 0.7588 0.0
N398 N 0.64315 0.35394 0.75861 0.0
C399 C 0.70675 0.33002 0.74649 0.0
C400 C 0.71594 0.37469 0.75232 0.0
C401 C 0.66127 0.33141 0.75319 0.0
C402 C 0.73417 0.35178 0.74594 0.0
C403 C 0.67743 0.42006 0.76548 0.0
C404 C 0.65055 0.39773 0.7654 0.0
C405 C 0.72356 0.41946 0.7592 0.0
C406 C 0.74271 0.39688 0.75261 0.0
Eu407 Eu 0.56933 0.35767 0.77288 0.0
N408 N 0.60553 0.3979 0.77122 0.0
C409 C 0.65713 0.44245 0.77175 0.0
C410 C 0.58536 0.41987 0.77678 0.0
C411 C 0.61084 0.44237 0.77727 0.0
H412 H 0.64133 0.31431 0.75476 0.0
H413 H 0.59471 0.45966 0.78191 0.0
H414 H 0.37942 0.40227 0.7408 0.0
H415 H 0.42507 0.25942 0.71244 0.0
H416 H 0.54968 0.42043 0.78078 0.0
H417 H 0.67675 0.45993 0.77215 0.0
H418 H 0.46911 0.29955 0.71382 0.0
H419 H 0.72088 0.31209 0.74214 0.0
H420 H 0.7447 0.43642 0.75928 0.0
H421 H 0.77834 0.39676 0.74777 0.0
H422 H 0.29818 0.40501 0.75176 0.0
H423 H 0.76957 0.35061 0.74091 0.0
H424 H 0.34648 0.25695 0.72702 0.0
N425 N 0.37933 0.36232 0.74102 0.0
C426 C 0.35356 0.34091 0.74251 0.0
C427 C 0.31342 0.38682 0.74937 0.0
C428 C 0.30703 0.34149 0.74855 0.0
C429 C 0.35939 0.3852 0.7432 0.0
C430 C 0.2874 0.36483 0.75253 0.0
N431 N 0.4167 0.31924 0.72934 0.0
C432 C 0.43498 0.29858 0.72016 0.0
C433 C 0.34625 0.29619 0.73596 0.0
C434 C 0.37279 0.31862 0.73632 0.0
C435 C 0.36574 0.27454 0.72764 0.0
C436 C 0.41004 0.27588 0.71936 0.0
H437 H 0.25181 0.36612 0.75725 0.0
H438 H 0.2456 0.31897 0.75444 0.0
H439 H 0.28003 0.27921 0.74336 0.0
O440 O 0.46027 0.3509 0.6993 0.0
O441 O 0.46549 0.3245 0.75484 0.0
O442 O 0.50029 0.34219 0.7834 0.0
O443 O 0.43801 0.38657 0.71111 0.0
O444 O 0.52689 0.34154 0.72399 0.0
O445 O 0.55907 0.32288 0.75249 0.0
O446 O 0.59697 0.36744 0.80341 0.0
O447 O 0.57775 0.37576 0.74151 0.0
O448 O 0.50586 0.39099 0.73909 0.0
O449 O 0.60333 0.32941 0.79166 0.0
O450 O 0.5099 0.3814 0.78394 0.0
O451 O 0.44701 0.38269 0.7611 0.0
C452 C 0.47469 0.32463 0.77475 0.0
C453 C 0.41073 0.37524 0.6779 0.0
C454 C 0.39396 0.37375 0.64105 0.0
C455 C 0.35306 0.38662 0.64463 0.0
C456 C 0.36915 0.38778 0.68119 0.0
C457 C 0.34063 0.39344 0.6646 0.0
C458 C 0.42278 0.36793 0.65771 0.0
C459 C 0.54823 0.32268 0.73264 0.0
C460 C 0.44446 0.37296 0.69475 0.0
C461 C 0.28119 0.31896 0.74954 0.0
C462 C 0.30077 0.29632 0.74322 0.0
C463 C 0.5487 0.39114 0.73298 0.0
C464 C 0.6183 0.33523 0.82786 0.0
C465 C 0.62037 0.34039 0.86542 0.0
C466 C 0.6412 0.31687 0.86717 0.0
C467 C 0.63941 0.31182 0.83019 0.0
C468 C 0.60916 0.34979 0.84567 0.0
C469 C 0.65075 0.30276 0.84968 0.0
C470 C 0.46866 0.38915 0.77838 0.0
C471 C 0.61305 0.34505 0.8066 0.0
H472 H 0.33088 0.39158 0.63186 0.0
H473 H 0.35924 0.3939 0.69648 0.0
H474 H 0.3092 0.40356 0.66716 0.0
H475 H 0.45511 0.35871 0.65487 0.0
H476 H 0.65113 0.30965 0.88217 0.0
H477 H 0.6485 0.30074 0.8168 0.0
H478 H 0.59437 0.36828 0.84421 0.0
H479 H 0.66775 0.28491 0.85121 0.0
Eu480 Eu 0.06206 0.85829 0.73163 0.0
C481 C 0.84999 0.84097 0.7573 0.0
N482 N 0.87728 0.86197 0.7578 0.0
C483 C 0.81638 0.88646 0.74369 0.0
C484 C 0.80508 0.84183 0.74919 0.0
C485 C 0.86062 0.8847 0.75187 0.0
C486 C 0.78869 0.86488 0.74209 0.0
C487 C 0.8376 0.79711 0.76658 0.0
C488 C 0.86611 0.81885 0.76592 0.0
C489 C 0.79371 0.79762 0.75766 0.0
C490 C 0.77745 0.81994 0.74904 0.0
Eu491 Eu 0.95118 0.85733 0.77219 0.0
N492 N 0.90837 0.81904 0.77484 0.0
C493 C 0.85322 0.7758 0.77697 0.0
C494 C 0.92184 0.79902 0.78649 0.0
C495 C 0.89515 0.77695 0.78733 0.0
H496 H 0.88105 0.90166 0.75369 0.0
H497 H 0.90644 0.76106 0.79638 0.0
H498 H 0.14054 0.81525 0.74746 0.0
H499 H 0.09533 0.95486 0.70713 0.0
H500 H 0.95212 0.80026 0.79595 0.0
H501 H 0.83228 0.7588 0.7779 0.0
H502 H 0.05193 0.91444 0.70973 0.0
H503 H 0.8035 0.90451 0.73883 0.0
H504 H 0.77151 0.78106 0.75794 0.0
H505 H 0.74299 0.82023 0.74276 0.0
H506 H 0.21893 0.81484 0.76129 0.0
H507 H 0.75428 0.86635 0.7359 0.0
H508 H 0.17166 0.95919 0.72365 0.0
N509 N 0.1381 0.85531 0.74499 0.0
C510 C 0.16323 0.87708 0.74535 0.0
C511 C 0.20345 0.83255 0.75724 0.0
C512 C 0.20898 0.87752 0.75258 0.0
C513 C 0.15852 0.83298 0.74974 0.0
C514 C 0.22853 0.85498 0.75904 0.0
N515 N 0.10166 0.89717 0.72869 0.0
C516 C 0.08464 0.91659 0.71739 0.0
C517 C 0.171 0.92101 0.73542 0.0
C518 C 0.14462 0.89858 0.7368 0.0
C519 C 0.15242 0.94165 0.72508 0.0
C520 C 0.10934 0.93929 0.71574 0.0
H521 H 0.2636 0.85453 0.76459 0.0
H522 H 0.26952 0.90086 0.75787 0.0
H523 H 0.2362 0.93898 0.74291 0.0
O524 O 0.056 0.8607 0.69722 0.0
O525 O 0.05414 0.89148 0.75294 0.0
O526 O 0.02343 0.87078 0.78078 0.0
O527 O 0.10775 0.83776 0.71213 0.0
O528 O 0.99418 0.87533 0.7216 0.0
O529 O 0.96288 0.89165 0.75164 0.0
O530 O 0.93306 0.85044 0.80464 0.0
O531 O 0.94185 0.83901 0.74066 0.0
O532 O 0.01455 0.82462 0.73563 0.0
O533 O 0.92195 0.88749 0.79076 0.0
O534 O 0.00473 0.82906 0.78068 0.0
O535 O 0.06732 0.82988 0.75791 0.0
C536 C 0.04513 0.89033 0.77277 0.0
C537 C 0.11073 0.83769 0.67515 0.0
C538 C 0.11961 0.84043 0.63777 0.0
C539 C 0.15433 0.82244 0.63877 0.0
C540 C 0.14552 0.8196 0.67564 0.0
C541 C 0.16714 0.81212 0.65758 0.0
C542 C 0.09786 0.84828 0.65605 0.0
C543 C 0.96867 0.89174 0.73143 0.0
C544 C 0.09112 0.84609 0.69494 0.0
C545 C 0.23451 0.90016 0.75222 0.0
C546 C 0.21556 0.92186 0.74367 0.0
C547 C 0.97079 0.82434 0.73104 0.0
C548 C 0.89975 0.88214 0.82684 0.0
C549 C 0.89032 0.87865 0.86416 0.0
C550 C 0.86167 0.89961 0.86376 0.0
C551 C 0.87112 0.90312 0.82683 0.0
C552 C 0.90921 0.86972 0.84564 0.0
C553 C 0.85208 0.91171 0.84521 0.0
C554 C 0.04501 0.82139 0.77434 0.0
C555 C 0.91834 0.87317 0.8071 0.0
H556 H 0.17191 0.81649 0.62488 0.0
H557 H 0.15658 0.81131 0.69008 0.0
H558 H 0.19411 0.79838 0.65818 0.0
H559 H 0.07156 0.86245 0.65539 0.0
H560 H 0.84655 0.90657 0.87792 0.0
H561 H 0.86297 0.91274 0.81255 0.0
H562 H 0.93124 0.85348 0.84592 0.0
H563 H 0.82975 0.92777 0.84507 0.0
Eu564 Eu 0.45249 0.6331 0.23124 0.0
C565 C 0.65943 0.65072 0.25797 0.0
N566 N 0.63338 0.62925 0.25739 0.0
C567 C 0.69693 0.6063 0.24402 0.0
C568 C 0.70557 0.65072 0.2513 0.0
C569 C 0.65163 0.60709 0.25108 0.0
C570 C 0.72401 0.62821 0.24407 0.0
C571 C 0.66679 0.69512 0.26648 0.0
C572 C 0.64007 0.67279 0.26545 0.0
C573 C 0.71277 0.69508 0.2599 0.0
C574 C 0.73204 0.67298 0.2523 0.0
Eu575 Eu 0.55942 0.6324 0.27159 0.0
N576 N 0.59543 0.67239 0.27185 0.0
C577 C 0.64668 0.71683 0.27437 0.0
C578 C 0.57599 0.69333 0.27993 0.0
C579 C 0.60113 0.7159 0.28114 0.0
H580 H 0.63183 0.5898 0.25197 0.0
H581 H 0.5856 0.73249 0.2876 0.0
H582 H 0.37852 0.67503 0.2519 0.0
H583 H 0.42094 0.53633 0.20711 0.0
H584 H 0.54165 0.6926 0.28602 0.0
H585 H 0.66617 0.7343 0.27553 0.0
H586 H 0.46527 0.57622 0.2106 0.0
H587 H 0.7112 0.58871 0.23889 0.0
H588 H 0.73381 0.71204 0.26071 0.0
H589 H 0.76761 0.67327 0.24736 0.0
H590 H 0.30008 0.67528 0.26562 0.0
H591 H 0.7593 0.62747 0.23882 0.0
H592 H 0.34268 0.5327 0.22187 0.0
N593 N 0.37851 0.63547 0.24635 0.0
C594 C 0.35231 0.61406 0.2453 0.0
C595 C 0.31462 0.65782 0.26033 0.0
C596 C 0.30641 0.61365 0.25235 0.0
C597 C 0.35973 0.65743 0.25299 0.0
C598 C 0.28797 0.6358 0.26022 0.0
N599 N 0.41394 0.59401 0.22844 0.0
C600 C 0.43163 0.57446 0.21752 0.0
C601 C 0.34339 0.57071 0.23387 0.0
C602 C 0.37035 0.59284 0.23596 0.0
C603 C 0.36226 0.55005 0.22371 0.0
C604 C 0.40645 0.55201 0.21537 0.0
H605 H 0.25276 0.63628 0.26561 0.0
H606 H 0.24454 0.59085 0.25605 0.0
H607 H 0.27708 0.5532 0.24008 0.0
O608 O 0.4614 0.63305 0.19694 0.0
O609 O 0.45823 0.59977 0.25306 0.0
O610 O 0.48933 0.61826 0.28174 0.0
O611 O 0.40175 0.64982 0.2117 0.0
O612 O 0.5195 0.61555 0.22125 0.0
O613 O 0.54924 0.59801 0.25111 0.0
O614 O 0.58333 0.64188 0.30292 0.0
O615 O 0.56947 0.65126 0.24006 0.0
O616 O 0.49814 0.66729 0.23531 0.0
O617 O 0.59207 0.60376 0.29055 0.0
O618 O 0.49601 0.65237 0.28302 0.0
O619 O 0.45778 0.66616 0.25371 0.0
C620 C 0.46522 0.60023 0.27306 0.0
C621 C 0.40232 0.65235 0.17472 0.0
C622 C 0.39469 0.64985 0.13729 0.0
C623 C 0.35849 0.66698 0.13822 0.0
C624 C 0.36617 0.6696 0.17513 0.0
C625 C 0.34441 0.67676 0.15701 0.0
C626 C 0.41655 0.6423 0.15564 0.0
C627 C 0.54344 0.59825 0.23086 0.0
C628 C 0.42238 0.64441 0.19456 0.0
C629 C 0.2798 0.59147 0.25068 0.0
C630 C 0.29829 0.57004 0.24153 0.0
C631 C 0.54193 0.66716 0.23101 0.0
C632 C 0.6215 0.6115 0.32508 0.0
C633 C 0.63 0.61183 0.36261 0.0
C634 C 0.66966 0.59735 0.36055 0.0
C635 C 0.6609 0.59683 0.32349 0.0
C636 C 0.60617 0.61935 0.34475 0.0
C637 C 0.68501 0.58999 0.34114 0.0
C638 C 0.46525 0.66637 0.27382 0.0
C639 C 0.59844 0.61928 0.30596 0.0
H640 H 0.3407 0.67263 0.12429 0.0
H641 H 0.35427 0.67752 0.18955 0.0
H642 H 0.31638 0.68986 0.15754 0.0
H643 H 0.44395 0.62877 0.15505 0.0
H644 H 0.68873 0.59162 0.37409 0.0
H645 H 0.67352 0.59101 0.30851 0.0
H646 H 0.57572 0.63067 0.34616 0.0
H647 H 0.71566 0.57888 0.33979 0.0
H648 H 0.11837 -0.00184 0.37468 0.0
H649 H 0.08921 0.05693 0.26203 0.0
H650 H 0.19629 0.97459 0.32161 0.0
H651 H 0.04194 0.09436 0.31708 0.0
H652 H 0.1244 0.02503 0.28356 0.0
H653 H 0.08564 0.03204 0.35383 0.0
C654 C 0.12891 0.00031 0.3587 0.0
C655 C 0.15988 0.98354 0.34979 0.0
C656 C 0.1066 0.04031 0.29095 0.0
C657 C 0.12253 0.02199 0.3259 0.0
C658 C 0.08682 0.05874 0.27866 0.0
C659 C 0.0639 0.07895 0.28773 0.0
C660 C 0.10234 0.04158 0.31253 0.0
C661 C 0.06001 0.07941 0.30938 0.0
C662 C 0.11016 0.01956 0.34682 0.0
C663 C 0.172 0.98691 0.32897 0.0
N664 N 0.07893 0.06096 0.32105 0.0
N665 N 0.15322 0.0057 0.31772 0.0
H666 H 0.4239 0.51867 0.85398 0.0
H667 H 0.37791 0.40287 0.77968 0.0
H668 H 0.28742 0.48809 0.84369 0.0
H669 H 0.50721 0.41578 0.81051 0.0
H670 H 0.34413 0.43614 0.80023 0.0
H671 H 0.45552 0.48346 0.83505 0.0
C672 C 0.40048 0.5045 0.84793 0.0
C673 C 0.35278 0.50635 0.85068 0.0
C674 C 0.37999 0.43173 0.80237 0.0
C675 C 0.38903 0.46625 0.82844 0.0
C676 C 0.39949 0.41292 0.79039 0.0
C677 C 0.44615 0.40727 0.79239 0.0
C678 C 0.40747 0.44506 0.81648 0.0
C679 C 0.4716 0.42003 0.80768 0.0
C680 C 0.41866 0.48444 0.83702 0.0
C681 C 0.32432 0.4877 0.84181 0.0
N682 N 0.45212 0.43856 0.81891 0.0
N683 N 0.34288 0.46847 0.83102 0.0
H684 H 0.58743 0.51888 0.65023 0.0
H685 H 0.63721 0.39819 0.72022 0.0
H686 H 0.7209 0.48626 0.65738 0.0
H687 H 0.50102 0.42721 0.71141 0.0
H688 H 0.66749 0.42997 0.69673 0.0
H689 H 0.55407 0.48484 0.67145 0.0
C690 C 0.60958 0.50446 0.65629 0.0
C691 C 0.65686 0.50526 0.65218 0.0
C692 C 0.63093 0.42939 0.6998 0.0
C693 C 0.61936 0.46663 0.67662 0.0
C694 C 0.61351 0.41124 0.71335 0.0
C695 C 0.56644 0.41011 0.71804 0.0
C696 C 0.60116 0.44658 0.6906 0.0
C697 C 0.53757 0.42745 0.70837 0.0
C698 C 0.59062 0.48508 0.66836 0.0
C699 C 0.68423 0.48615 0.66016 0.0
N700 N 0.55541 0.44502 0.69511 0.0
N701 N 0.66514 0.46772 0.67215 0.0
H702 H 0.78943 0.00882 0.1531 0.0
H703 H 0.01011 0.05766 0.21575 0.0
H704 H 0.91723 0.96903 0.1563 0.0
H705 H 0.8805 0.09597 0.21589 0.0
H706 H 0.97716 0.02587 0.19289 0.0
H707 H 0.82274 0.04183 0.17498 0.0
C708 C 0.82443 0.00699 0.15846 0.0
C709 C 0.85054 0.9861 0.15291 0.0
C710 C 0.95588 0.04123 0.19788 0.0
C711 C 0.88892 0.02383 0.17783 0.0
C712 C 0.97469 0.05943 0.21095 0.0
C713 C 0.94796 0.07949 0.2178 0.0
C714 C 0.91001 0.04311 0.1915 0.0
C715 C 0.90225 0.08073 0.21109 0.0
C716 C 0.84348 0.02588 0.17087 0.0
C717 C 0.89598 0.98491 0.16 0.0
N718 N 0.88471 0.06279 0.19828 0.0
N719 N 0.91365 0.00347 0.17213 0.0
H720 H 0.9248 0.02473 0.65837 0.0
H721 H 0.89271 0.88779 0.70715 0.0
H722 H 0.79418 0.98522 0.65727 0.0
H723 H 0.99563 0.94081 0.72824 0.0
H724 H 0.85877 0.92112 0.68588 0.0
H725 H 0.95566 0.9914 0.68011 0.0
C726 C 0.90263 0.00898 0.66259 0.0
C727 C 0.85672 0.00786 0.656 0.0
C728 C 0.88888 0.92542 0.6951 0.0
C729 C 0.89188 0.96969 0.68111 0.0
C730 C 0.90816 0.90647 0.70718 0.0
C731 C 0.94709 0.91168 0.71921 0.0
C732 C 0.90973 0.94944 0.69459 0.0
C733 C 0.96582 0.9361 0.71897 0.0
C734 C 0.92019 0.99008 0.67518 0.0
C735 C 0.82957 0.98705 0.66219 0.0
N736 N 0.94736 0.95402 0.70661 0.0
N737 N 0.8476 0.96874 0.67433 0.0
H738 H 0.65715 0.4595 0.1845 0.0
H739 H 0.56743 0.60108 0.19015 0.0
H740 H 0.65591 0.50992 0.1323 0.0
H741 H 0.56811 0.5507 0.24253 0.0
H742 H 0.60103 0.56822 0.16891 0.0
H743 H 0.62507 0.49272 0.20614 0.0
C744 C 0.65038 0.47771 0.17771 0.0
C745 C 0.65913 0.48215 0.15671 0.0
C746 C 0.59384 0.5643 0.18504 0.0
C747 C 0.62287 0.52023 0.18124 0.0
C748 C 0.57457 0.58305 0.19717 0.0
C749 C 0.56495 0.57859 0.21814 0.0
C750 C 0.60324 0.54078 0.19386 0.0
C751 C 0.5753 0.55497 0.22646 0.0
C752 C 0.63204 0.49662 0.19 0.0
C753 C 0.64938 0.50585 0.14846 0.0
N754 N 0.59372 0.53691 0.21428 0.0
N755 N 0.63191 0.52407 0.16076 0.0
H756 H 0.37846 0.50631 0.37602 0.0
H757 H 0.42101 0.55687 0.26092 0.0
H758 H 0.32634 0.46916 0.32146 0.0
H759 H 0.4645 0.59745 0.31535 0.0
H760 H 0.38637 0.52454 0.28289 0.0
H761 H 0.41085 0.53981 0.35416 0.0
C762 C 0.37394 0.50521 0.35943 0.0
C763 C 0.34973 0.48496 0.35051 0.0
C764 C 0.40332 0.54056 0.29006 0.0
C765 C 0.38661 0.52312 0.32543 0.0
C766 C 0.42281 0.55918 0.27747 0.0
C767 C 0.44487 0.58021 0.28624 0.0
C768 C 0.40645 0.54277 0.31163 0.0
C769 C 0.4475 0.58167 0.30788 0.0
C770 C 0.39226 0.52436 0.34697 0.0
C771 C 0.34435 0.48458 0.32897 0.0
N772 N 0.42853 0.56319 0.31983 0.0
N773 N 0.36281 0.50332 0.31716 0.0
H774 H 0.13848 0.98159 0.87634 0.0
H775 H 0.08493 0.93506 0.76115 0.0
H776 H 0.18211 0.02146 0.82141 0.0
H777 H 0.04865 0.89144 0.81528 0.0
H778 H 0.11977 0.96698 0.78321 0.0
H779 H 0.10496 0.94838 0.85456 0.0
C780 C 0.1409 0.98334 0.85969 0.0
C781 C 0.16303 0.00428 0.85064 0.0
C782 C 0.10434 0.95042 0.79032 0.0
C783 C 0.12463 0.96653 0.82566 0.0
C784 C 0.08456 0.93206 0.77769 0.0
C785 C 0.06447 0.91026 0.78631 0.0
C786 C 0.10377 0.9472 0.81186 0.0
C787 C 0.064 0.90786 0.80793 0.0
C788 C 0.1219 0.96438 0.84728 0.0
C789 C 0.16572 0.00552 0.82901 0.0
N790 N 0.08344 0.92609 0.81997 0.0
N791 N 0.14656 0.98699 0.81727 0.0
H792 H 0.1588 0.16089 0.0136 0.0
H793 H 0.09146 0.07965 0.11293 0.0
H794 H 0.19614 0.08386 0.02408 0.0
H795 H 0.1287 0.15792 0.11966 0.0
H796 H 0.10135 0.08358 0.07555 0.0
H797 H 0.12543 0.1622 0.04875 0.0
C798 C 0.16036 0.14443 0.02346 0.0
C799 C 0.1804 0.1223 0.01627 0.0
C800 C 0.10591 0.10012 0.08514 0.0
C801 C 0.14135 0.12335 0.0556 0.0
C802 C 0.09951 0.09798 0.10638 0.0
C803 C 0.10972 0.11843 0.11927 0.0
C804 C 0.12243 0.12288 0.07678 0.0
C805 C 0.12065 0.14174 0.11012 0.0
C806 C 0.14112 0.14512 0.04329 0.0
C807 C 0.18103 0.10124 0.02923 0.0
N808 N 0.12768 0.14329 0.08933 0.0
N809 N 0.16163 0.10225 0.04827 0.0
H810 H 0.33854 0.40959 0.5207 0.0
H811 H 0.38077 0.32957 0.62042 0.0
H812 H 0.33801 0.32865 0.51751 0.0
H813 H 0.43065 0.40571 0.61276 0.0
H814 H 0.37074 0.32643 0.58279 0.0
H815 H 0.37211 0.40741 0.55519 0.0
C816 C 0.34567 0.39135 0.52737 0.0
C817 C 0.3356 0.36928 0.51647 0.0
C818 C 0.38524 0.34354 0.58929 0.0
C819 C 0.37486 0.36652 0.55565 0.0
C820 C 0.39142 0.34522 0.61068 0.0
C821 C 0.40602 0.36802 0.61951 0.0
C822 C 0.39281 0.36504 0.57699 0.0
C823 C 0.41901 0.38789 0.60642 0.0
C824 C 0.36527 0.39007 0.54691 0.0
C825 C 0.34499 0.34604 0.52569 0.0
N826 N 0.41109 0.38616 0.58583 0.0
N827 N 0.36408 0.34521 0.54488 0.0
H828 H 0.73584 0.39215 0.97638 0.0
H829 H 0.5611 0.33027 0.89684 0.0
H830 H 0.61217 0.3525 0.99496 0.0
H831 H 0.66952 0.38155 0.8783 0.0
H832 H 0.5729 0.34267 0.93282 0.0
H833 H 0.70905 0.39125 0.94047 0.0
C834 C 0.70312 0.38319 0.97286 0.0
C835 C 0.67624 0.37231 0.98863 0.0
C836 C 0.59334 0.3518 0.92089 0.0
C837 C 0.64515 0.37136 0.94765 0.0
C838 C 0.58612 0.34496 0.90032 0.0
C839 C 0.61445 0.3549 0.88467 0.0
C840 C 0.62981 0.36833 0.92585 0.0
C841 C 0.64693 0.37353 0.88997 0.0
C842 C 0.68758 0.38293 0.95242 0.0
C843 C 0.63382 0.36123 0.98328 0.0
N844 N 0.65446 0.37926 0.91019 0.0
N845 N 0.61979 0.36085 0.96325 0.0
H846 H 0.82165 0.07974 0.48143 0.0
H847 H 0.93715 0.17154 0.39744 0.0
H848 H 0.85608 0.15788 0.49123 0.0
H849 H 0.86643 0.10289 0.38053 0.0
H850 H 0.92771 0.16049 0.43389 0.0
H851 H 0.85299 0.08302 0.44608 0.0
C852 C 0.8357 0.09757 0.47601 0.0
C853 C 0.83585 0.11871 0.48891 0.0
C854 C 0.91519 0.1475 0.42225 0.0
C855 C 0.87286 0.12239 0.44916 0.0
C856 C 0.92123 0.15363 0.40147 0.0
C857 C 0.90216 0.13818 0.3861 0.0
C858 C 0.88953 0.12588 0.42766 0.0
C859 C 0.8815 0.11527 0.39202 0.0
C860 C 0.8538 0.09939 0.45601 0.0
C861 C 0.85487 0.14131 0.48152 0.0
N862 N 0.87484 0.10998 0.41243 0.0
N863 N 0.87265 0.14256 0.46213 0.0
H864 H 0.87951 0.9021 0.98951 0.0
H865 H 0.8478 0.83736 0.88089 0.0
H866 H 0.79763 0.83437 0.98162 0.0
H867 H 0.94932 0.89498 0.89365 0.0
H868 H 0.83725 0.8309 0.91817 0.0
H869 H 0.91014 0.89688 0.95488 0.0
C870 C 0.86829 0.88594 0.98057 0.0
C871 C 0.83626 0.8685 0.98863 0.0
C872 C 0.86284 0.84444 0.91284 0.0
C873 C 0.87096 0.86255 0.9486 0.0
C874 C 0.86932 0.84783 0.89159 0.0
C875 C 0.89904 0.86691 0.88438 0.0
C876 C 0.88578 0.86058 0.92673 0.0
C877 C 0.92587 0.88019 0.89873 0.0
C878 C 0.88589 0.88294 0.96074 0.0
C879 C 0.82201 0.84838 0.976 0.0
N880 N 0.91784 0.8772 0.91926 0.0
N881 N 0.83929 0.84601 0.95656 0.0
H882 H 0.64385 0.65815 0.49172 0.0
H883 H 0.59491 0.57917 0.3906 0.0
H884 H 0.70663 0.58709 0.47715 0.0
H885 H 0.63416 0.65712 0.38308 0.0
H886 H 0.60157 0.58384 0.42808 0.0
H887 H 0.61371 0.65974 0.45638 0.0
C888 C 0.65157 0.64288 0.48134 0.0
C889 C 0.67774 0.62221 0.48794 0.0
C890 C 0.60715 0.60015 0.41825 0.0
C891 C 0.64078 0.62355 0.44786 0.0
C892 C 0.60286 0.59758 0.39694 0.0
C893 C 0.61463 0.61769 0.38383 0.0
C894 C 0.62301 0.62303 0.4265 0.0
C895 C 0.62508 0.64115 0.39276 0.0
C896 C 0.63373 0.64378 0.46123 0.0
C897 C 0.68545 0.60298 0.47349 0.0
N898 N 0.62999 0.64312 0.41367 0.0
N899 N 0.66666 0.60402 0.45435 0.0
H900 H 0.31705 0.65831 0.01805 0.0
H901 H 0.38689 0.60145 0.12297 0.0
H902 H 0.36111 0.58124 0.01776 0.0
H903 H 0.42698 0.67668 0.1048 0.0
H904 H 0.37637 0.59059 0.08624 0.0
H905 H 0.34968 0.6634 0.05255 0.0
C906 C 0.33331 0.64241 0.02536 0.0
C907 C 0.33656 0.61938 0.01513 0.0
C908 C 0.38893 0.6092 0.09035 0.0
C909 C 0.37437 0.62511 0.0544 0.0
C910 C 0.39541 0.6153 0.11121 0.0
C911 C 0.40711 0.64009 0.11676 0.0
C912 C 0.39333 0.62826 0.07536 0.0
C913 C 0.41744 0.65746 0.10105 0.0
C914 C 0.35247 0.6454 0.04488 0.0
C915 C 0.3583 0.59936 0.02521 0.0
N916 N 0.40901 0.65144 0.08108 0.0
N917 N 0.37614 0.60259 0.04449 0.0
H918 H 0.15713 0.91014 0.51709 0.0
H919 H 0.08343 0.81469 0.60574 0.0
H920 H 0.19342 0.83164 0.51963 0.0
H921 H 0.1337 0.88835 0.62297 0.0
H922 H 0.09449 0.82569 0.56939 0.0
H923 H 0.12667 0.90649 0.55243 0.0
C924 C 0.15894 0.89219 0.52496 0.0
C925 C 0.1774 0.87102 0.51505 0.0
C926 C 0.10177 0.83972 0.5811 0.0
C927 C 0.14068 0.86673 0.55493 0.0
C928 C 0.09492 0.83358 0.60177 0.0
C929 C 0.10823 0.85056 0.61722 0.0
C930 C 0.1219 0.86301 0.57589 0.0
C931 C 0.12326 0.87478 0.61137 0.0
C932 C 0.14108 0.89017 0.54501 0.0
C933 C 0.17821 0.84828 0.52612 0.0
N934 N 0.13064 0.88022 0.59102 0.0
N935 N 0.1597 0.84672 0.54531 0.0
H936 H 0.20444 0.28443 0.33191 0.0
H937 H 0.9992 0.1879 0.3074 0.0
H938 H 0.09316 0.27095 0.37464 0.0
H939 H 0.13017 0.18724 0.27631 0.0
H940 H 0.02993 0.21965 0.33132 0.0
H941 H 0.17436 0.25066 0.30986 0.0
C942 C 0.1736 0.27423 0.33657 0.0
C943 C 0.15109 0.28023 0.35497 0.0
C944 C 0.05181 0.2126 0.31917 0.0
C945 C 0.11626 0.24185 0.32994 0.0
C946 C 0.0343 0.19458 0.30548 0.0
C947 C 0.06195 0.18527 0.28952 0.0
C948 C 0.09698 0.2217 0.3166 0.0
C949 C 0.1074 0.19413 0.28804 0.0
C950 C 0.15651 0.25496 0.32408 0.0
C951 C 0.11133 0.26665 0.36051 0.0
N952 N 0.1233 0.21206 0.30122 0.0
N953 N 0.09489 0.2481 0.34794 0.0
H954 H 0.38701 0.23251 0.87906 0.0
H955 H 0.43037 0.28101 0.76314 0.0
H956 H 0.34753 0.1908 0.8246 0.0
H957 H 0.47488 0.32223 0.81708 0.0
H958 H 0.39854 0.24819 0.78556 0.0
H959 H 0.41845 0.26601 0.85682 0.0
C960 C 0.38488 0.23044 0.86244 0.0
C961 C 0.36482 0.20878 0.85367 0.0
C962 C 0.41518 0.26444 0.79252 0.0
C963 C 0.40063 0.24696 0.82814 0.0
C964 C 0.43313 0.2833 0.77968 0.0
C965 C 0.45497 0.30457 0.78816 0.0
C966 C 0.41915 0.26678 0.81408 0.0
C967 C 0.45828 0.30619 0.8098 0.0
C968 C 0.40296 0.2495 0.84975 0.0
C969 C 0.36332 0.20698 0.83203 0.0
N970 N 0.44054 0.28758 0.822 0.0
N971 N 0.38087 0.2258 0.82004 0.0
H972 H 0.70404 0.20259 0.67768 0.0
H973 H 0.53605 0.31832 0.69082 0.0
H974 H 0.60669 0.22305 0.63074 0.0
H975 H 0.59849 0.28061 0.7426 0.0
H976 H 0.56575 0.28619 0.66784 0.0
H977 H 0.67227 0.23463 0.70054 0.0
C978 C 0.67581 0.21386 0.67227 0.0
C979 C 0.65777 0.21023 0.65242 0.0
C980 C 0.57325 0.28506 0.68421 0.0
C981 C 0.62088 0.24666 0.67848 0.0
C982 C 0.55638 0.30345 0.69742 0.0
C983 C 0.56557 0.30262 0.71879 0.0
C984 C 0.60051 0.26589 0.69222 0.0
C985 C 0.59151 0.28254 0.72627 0.0
C986 C 0.6576 0.23204 0.68531 0.0
C987 C 0.62161 0.22545 0.64595 0.0
N988 N 0.6085 0.26517 0.71299 0.0
N989 N 0.6042 0.24301 0.65898 0.0
H990 H 0.89406 0.26281 0.12702 0.0
H991 H 0.92034 0.20928 0.24231 0.0
H992 H 0.82657 0.29421 0.18015 0.0
H993 H 0.97238 0.17124 0.18846 0.0
H994 H 0.88804 0.24131 0.21982 0.0
H995 H 0.9261 0.23 0.1493 0.0
C996 C 0.88582 0.26266 0.14335 0.0
C997 C 0.85783 0.28123 0.15181 0.0
C998 C 0.90636 0.2259 0.21291 0.0
C999 C 0.89399 0.24385 0.17734 0.0
C1000 C 0.92451 0.20742 0.22577 0.0
C1001 C 0.94819 0.18709 0.21731 0.0
C1002 C 0.91265 0.22439 0.19141 0.0
C1003 C 0.95386 0.18634 0.19572 0.0
C1004 C 0.90412 0.244 0.15606 0.0
C1005 C 0.84849 0.28039 0.17309 0.0
N1006 N 0.93632 0.20471 0.18354 0.0
N1007 N 0.86644 0.26201 0.18509 0.0
H1008 H 0.80384 0.73609 0.64622 0.0
H1009 H 0.0149 0.78302 0.71639 0.0
H1010 H 0.92664 0.69344 0.65527 0.0
H1011 H 0.88682 0.82238 0.71186 0.0
H1012 H 0.98546 0.75162 0.69213 0.0
H1013 H 0.83644 0.76982 0.66778 0.0
C1014 C 0.83788 0.73403 0.65268 0.0
C1015 C 0.86282 0.71219 0.64904 0.0
C1016 C 0.96383 0.76716 0.69636 0.0
C1017 C 0.89997 0.75023 0.67394 0.0
C1018 C 0.98061 0.78514 0.71022 0.0
C1019 C 0.9532 0.80534 0.71624 0.0
C1020 C 0.91939 0.76945 0.68826 0.0
C1021 C 0.909 0.80702 0.70778 0.0
C1022 C 0.8564 0.75316 0.66501 0.0
C1023 C 0.90666 0.71018 0.65768 0.0
N1024 N 0.8935 0.78932 0.69421 0.0
N1025 N 0.92379 0.72892 0.66985 0.0
H1026 H 0.61002 0.80602 0.16876 0.0
H1027 H 0.61068 0.66173 0.2026 0.0
H1028 H 0.67734 0.74945 0.13268 0.0
H1029 H 0.51407 0.71521 0.22609 0.0
H1030 H 0.63817 0.69345 0.17754 0.0
H1031 H 0.57598 0.77293 0.19053 0.0
C1032 C 0.61723 0.78652 0.16539 0.0
C1033 C 0.6464 0.7803 0.14905 0.0
C1034 C 0.61098 0.69821 0.18819 0.0
C1035 C 0.60859 0.7424 0.17403 0.0
C1036 C 0.59564 0.68023 0.20256 0.0
C1037 C 0.56035 0.68604 0.21641 0.0
C1038 C 0.59153 0.72225 0.1881 0.0
C1039 C 0.54132 0.71005 0.2156 0.0
C1040 C 0.59788 0.76765 0.17777 0.0
C1041 C 0.65481 0.75486 0.14517 0.0
N1042 N 0.55743 0.72735 0.20181 0.0
N1043 N 0.6364 0.73676 0.15776 0.0
H1044 H 0.39321 0.80612 0.33196 0.0
H1045 H 0.41581 0.65883 0.30877 0.0
H1046 H 0.33147 0.74833 0.3702 0.0
H1047 H 0.46703 0.7171 0.26808 0.0
H1048 H 0.38619 0.69112 0.33205 0.0
H1049 H 0.42526 0.7736 0.3097 0.0
C1050 C 0.38675 0.7865 0.33567 0.0
C1051 C 0.3597 0.77975 0.35279 0.0
C1052 C 0.40388 0.6969 0.31804 0.0
C1053 C 0.39515 0.74251 0.32726 0.0
C1054 C 0.42051 0.67851 0.30478 0.0
C1055 C 0.44342 0.68552 0.28658 0.0
C1056 C 0.41119 0.72244 0.31323 0.0
C1057 C 0.44883 0.7111 0.28189 0.0
C1058 C 0.40479 0.76797 0.32296 0.0
C1059 C 0.35242 0.75417 0.35715 0.0
N1060 N 0.43318 0.7287 0.29526 0.0
N1061 N 0.36973 0.73643 0.34433 0.0
H1062 H 0.22682 0.73022 0.84695 0.0
H1063 H 0.00923 0.77554 0.7847 0.0
H1064 H 0.09033 0.70155 0.85975 0.0
H1065 H 0.12978 0.82267 0.79196 0.0
H1066 H 0.04065 0.74567 0.80952 0.0
H1067 H 0.19415 0.76232 0.82445 0.0
C1068 C 0.1899 0.73087 0.84511 0.0
C1069 C 0.16115 0.7132 0.85503 0.0
C1070 C 0.06016 0.76259 0.80576 0.0
C1071 C 0.12373 0.74953 0.82921 0.0
C1072 C 0.04209 0.77969 0.79175 0.0
C1073 C 0.06651 0.80179 0.7868 0.0
C1074 C 0.10348 0.76742 0.81445 0.0
C1075 C 0.11012 0.80571 0.79537 0.0
C1076 C 0.17132 0.74918 0.83233 0.0
C1077 C 0.11356 0.7149 0.85235 0.0
N1078 N 0.12734 0.78863 0.80883 0.0
N1079 N 0.09628 0.7326 0.83944 0.0
loop_
_geom_bond_atom_site_label_1
_geom_bond_atom_site_label_2
_geom_bond_distance
_geom_bond_site_symmetry_2
_ccdc_geom_bond_type
C0 C1 1.386 . S
C0 C2 1.397 . S
C0 H24 0.931 . S
C1 C0 1.386 . S
C1 C5 1.397 . S
C2 C0 1.397 . S
C2 C3 1.384 . S
C2 H25 0.930 . S
C3 C2 1.384 . S
C3 C4 1.377 . S
C3 C6 1.481 . S
C4 C3 1.377 . S
C4 C5 1.389 . S
C4 H26 0.929 . S
C5 C1 1.397 . S
C5 C4 1.389 . S
C5 H27 0.931 . S
C6 C3 1.481 . S
C6 C7 1.387 . S
C6 C11 1.390 . S
C7 C6 1.387 . S
C7 C8 1.401 . S
C7 H28 0.930 . S
C8 C7 1.401 . S
C8 C9 1.376 . S
C8 C17 1.511 . S
C9 C8 1.376 . S
C9 C10 1.392 . S
C9 H30 0.931 . S
C10 C9 1.392 . S
C10 C11 1.361 . S
C10 C12 1.500 . S
C11 C6 1.390 . S
C11 C10 1.361 . S
C11 H29 0.931 . S
C12 C10 1.500 . S
C12 C13 1.371 . S
C12 C14 1.365 . S
C13 C12 1.371 . S
C13 C23 1.386 . S
C13 H31 0.931 . S
C14 C12 1.365 . S
C14 C15 1.409 . S
C14 H32 0.929 . S
C15 C14 1.409 . S
C15 C16 1.380 . S
C15 H33 0.930 . S
C16 C15 1.380 . S
C16 C23 1.357 . S
C17 C8 1.511 . S
C17 C18 1.341 . S
C17 C19 1.371 . S
C18 C17 1.341 . S
C18 C22 1.394 . S
C18 H34 0.930 . S
C19 C17 1.371 . S
C19 C20 1.392 . S
C19 H35 0.931 . S
C20 C19 1.392 . S
C20 C21 1.331 . S
C20 H38 0.932 . S
C21 C20 1.331 . S
C21 C22 1.336 . S
C22 C18 1.394 . S
C22 C21 1.336 . S
C22 H37 0.929 . S
C23 C13 1.386 . S
C23 C16 1.357 . S
C23 H36 0.928 . S
H24 C0 0.931 . S
H25 C2 0.930 . S
H26 C4 0.929 . S
H27 C5 0.931 . S
H28 C7 0.930 . S
H29 C11 0.931 . S
H30 C9 0.931 . S
H31 C13 0.931 . S
H32 C14 0.929 . S
H33 C15 0.930 . S
H34 C18 0.930 . S
H35 C19 0.931 . S
H36 C23 0.928 . S
H37 C22 0.929 . S
H38 C20 0.932 . S
C39 C40 1.386 . S
C39 C41 1.397 . S
C39 H63 0.931 . S
C40 C39 1.386 . S
C40 C44 1.397 . S
C41 C39 1.397 . S
C41 C42 1.384 . S
C41 H64 0.930 . S
C42 C41 1.384 . S
C42 C43 1.377 . S
C42 C45 1.481 . S
C43 C42 1.377 . S
C43 C44 1.389 . S
C43 H65 0.929 . S
C44 C40 1.397 . S
C44 C43 1.389 . S
C44 H66 0.931 . S
C45 C42 1.481 . S
C45 C46 1.387 . S
C45 C50 1.390 . S
C46 C45 1.387 . S
C46 C47 1.401 . S
C46 H67 0.930 . S
C47 C46 1.401 . S
C47 C48 1.376 . S
C47 C56 1.511 . S
C48 C47 1.376 . S
C48 C49 1.392 . S
C48 H69 0.931 . S
C49 C48 1.392 . S
C49 C50 1.361 . S
C49 C51 1.500 . S
C50 C45 1.390 . S
C50 C49 1.361 . S
C50 H68 0.931 . S
C51 C49 1.500 . S
C51 C52 1.371 . S
C51 C53 1.365 . S
C52 C51 1.371 . S
C52 C62 1.386 . S
C52 H70 0.931 . S
C53 C51 1.365 . S
C53 C54 1.409 . S
C53 H71 0.929 . S
C54 C53 1.409 . S
C54 C55 1.380 . S
C54 H72 0.930 . S
C55 C54 1.380 . S
C55 C62 1.357 . S
C56 C47 1.511 . S
C56 C57 1.341 . S
C56 C58 1.371 . S
C57 C56 1.341 . S
C57 C61 1.394 . S
C57 H73 0.930 . S
C58 C56 1.371 . S
C58 C59 1.392 . S
C58 H74 0.931 . S
C59 C58 1.392 . S
C59 C60 1.331 . S
C59 H77 0.932 . S
C60 C59 1.331 . S
C60 C61 1.336 . S
C61 C57 1.394 . S
C61 C60 1.336 . S
C61 H76 0.929 . S
C62 C52 1.386 . S
C62 C55 1.357 . S
C62 H75 0.928 . S
H63 C39 0.931 . S
H64 C41 0.930 . S
H65 C43 0.929 . S
H66 C44 0.931 . S
H67 C46 0.930 . S
H68 C50 0.931 . S
H69 C48 0.931 . S
H70 C52 0.931 . S
H71 C53 0.929 . S
H72 C54 0.930 . S
H73 C57 0.930 . S
H74 C58 0.931 . S
H75 C62 0.928 . S
H76 C61 0.929 . S
H77 C59 0.932 . S
C78 C79 1.386 . S
C78 C80 1.397 . S
C78 H102 0.931 . S
C79 C78 1.386 . S
C79 C83 1.397 . S
C80 C78 1.397 . S
C80 C81 1.384 . S
C80 H103 0.930 . S
C81 C80 1.384 . S
C81 C82 1.377 . S
C81 C84 1.481 . S
C82 C81 1.377 . S
C82 C83 1.389 . S
C82 H104 0.929 . S
C83 C79 1.397 . S
C83 C82 1.389 . S
C83 H105 0.931 . S
C84 C81 1.481 . S
C84 C85 1.387 . S
C84 C89 1.390 . S
C85 C84 1.387 . S
C85 C86 1.401 . S
C85 H106 0.930 . S
C86 C85 1.401 . S
C86 C87 1.376 . S
C86 C95 1.511 . S
C87 C86 1.376 . S
C87 C88 1.392 . S
C87 H108 0.931 . S
C88 C87 1.392 . S
C88 C89 1.361 . S
C88 C90 1.500 . S
C89 C84 1.390 . S
C89 C88 1.361 . S
C89 H107 0.931 . S
C90 C88 1.500 . S
C90 C91 1.371 . S
C90 C92 1.365 . S
C91 C90 1.371 . S
C91 C101 1.386 . S
C91 H109 0.931 . S
C92 C90 1.365 . S
C92 C93 1.409 . S
C92 H110 0.929 . S
C93 C92 1.409 . S
C93 C94 1.380 . S
C93 H111 0.930 . S
C94 C93 1.380 . S
C94 C101 1.357 . S
C95 C86 1.511 . S
C95 C96 1.341 . S
C95 C97 1.371 . S
C96 C95 1.341 . S
C96 C100 1.394 . S
C96 H112 0.930 . S
C97 C95 1.371 . S
C97 C98 1.392 . S
C97 H113 0.931 . S
C98 C97 1.392 . S
C98 C99 1.331 . S
C98 H116 0.932 . S
C99 C98 1.331 . S
C99 C100 1.336 . S
C100 C96 1.394 . S
C100 C99 1.336 . S
C100 H115 0.929 . S
C101 C91 1.386 . S
C101 C94 1.357 . S
C101 H114 0.928 . S
H102 C78 0.931 . S
H103 C80 0.930 . S
H104 C82 0.929 . S
H105 C83 0.931 . S
H106 C85 0.930 . S
H107 C89 0.931 . S
H108 C87 0.931 . S
H109 C91 0.931 . S
H110 C92 0.929 . S
H111 C93 0.930 . S
H112 C96 0.930 . S
H113 C97 0.931 . S
H114 C101 0.928 . S
H115 C100 0.929 . S
H116 C98 0.932 . S
C117 C118 1.386 . S
C117 C119 1.397 . S
C117 H141 0.931 . S
C118 C117 1.386 . S
C118 C122 1.397 . S
C119 C117 1.397 . S
C119 C120 1.384 . S
C119 H142 0.930 . S
C120 C119 1.384 . S
C120 C121 1.377 . S
C120 C123 1.481 . S
C121 C120 1.377 . S
C121 C122 1.389 . S
C121 H143 0.929 . S
C122 C118 1.397 . S
C122 C121 1.389 . S
C122 H144 0.931 . S
C123 C120 1.481 . S
C123 C124 1.387 . S
C123 C128 1.390 . S
C124 C123 1.387 . S
C124 C125 1.401 . S
C124 H145 0.930 . S
C125 C124 1.401 . S
C125 C126 1.376 . S
C125 C134 1.511 . S
C126 C125 1.376 . S
C126 C127 1.392 . S
C126 H147 0.931 . S
C127 C126 1.392 . S
C127 C128 1.361 . S
C127 C129 1.500 . S
C128 C123 1.390 . S
C128 C127 1.361 . S
C128 H146 0.931 . S
C129 C127 1.500 . S
C129 C130 1.371 . S
C129 C131 1.365 . S
C130 C129 1.371 . S
C130 C140 1.386 . S
C130 H148 0.931 . S
C131 C129 1.365 . S
C131 C132 1.409 . S
C131 H149 0.929 . S
C132 C131 1.409 . S
C132 C133 1.380 . S
C132 H150 0.930 . S
C133 C132 1.380 . S
C133 C140 1.357 . S
C134 C125 1.511 . S
C134 C135 1.341 . S
C134 C136 1.371 . S
C135 C134 1.341 . S
C135 C139 1.394 . S
C135 H151 0.930 . S
C136 C134 1.371 . S
C136 C137 1.392 . S
C136 H152 0.931 . S
C137 C136 1.392 . S
C137 C138 1.331 . S
C137 H155 0.932 . S
C138 C137 1.331 . S
C138 C139 1.336 . S
C139 C135 1.394 . S
C139 C138 1.336 . S
C139 H154 0.929 . S
C140 C130 1.386 . S
C140 C133 1.357 . S
C140 H153 0.928 . S
H141 C117 0.931 . S
H142 C119 0.930 . S
H143 C121 0.929 . S
H144 C122 0.931 . S
H145 C124 0.930 . S
H146 C128 0.931 . S
H147 C126 0.931 . S
H148 C130 0.931 . S
H149 C131 0.929 . S
H150 C132 0.930 . S
H151 C135 0.930 . S
H152 C136 0.931 . S
H153 C140 0.928 . S
H154 C139 0.929 . S
H155 C137 0.932 . S
C156 C157 1.386 . S
C156 C158 1.397 . S
C156 H180 0.931 . S
C157 C156 1.386 . S
C157 C161 1.397 . S
C158 C156 1.397 . S
C158 C159 1.384 . S
C158 H181 0.930 . S
C159 C158 1.384 . S
C159 C160 1.377 . S
C159 C162 1.481 . S
C160 C159 1.377 . S
C160 C161 1.389 . S
C160 H182 0.929 . S
C161 C157 1.397 . S
C161 C160 1.389 . S
C161 H183 0.931 . S
C162 C159 1.481 . S
C162 C163 1.387 . S
C162 C167 1.390 . S
C163 C162 1.387 . S
C163 C164 1.401 . S
C163 H184 0.930 . S
C164 C163 1.401 . S
C164 C165 1.376 . S
C164 C173 1.511 . S
C165 C164 1.376 . S
C165 C166 1.392 . S
C165 H186 0.931 . S
C166 C165 1.392 . S
C166 C167 1.361 . S
C166 C168 1.500 . S
C167 C162 1.390 . S
C167 C166 1.361 . S
C167 H185 0.931 . S
C168 C166 1.500 . S
C168 C169 1.371 . S
C168 C170 1.365 . S
C169 C168 1.371 . S
C169 C179 1.386 . S
C169 H187 0.931 . S
C170 C168 1.365 . S
C170 C171 1.409 . S
C170 H188 0.929 . S
C171 C170 1.409 . S
C171 C172 1.380 . S
C171 H189 0.930 . S
C172 C171 1.380 . S
C172 C179 1.357 . S
C173 C164 1.511 . S
C173 C174 1.341 . S
C173 C175 1.371 . S
C174 C173 1.341 . S
C174 C178 1.394 . S
C174 H190 0.930 . S
C175 C173 1.371 . S
C175 C176 1.392 . S
C175 H191 0.931 . S
C176 C175 1.392 . S
C176 C177 1.331 . S
C176 H194 0.932 . S
C177 C176 1.331 . S
C177 C178 1.336 . S
C178 C174 1.394 . S
C178 C177 1.336 . S
C178 H193 0.929 . S
C179 C169 1.386 . S
C179 C172 1.357 . S
C179 H192 0.928 . S
H180 C156 0.931 . S
H181 C158 0.930 . S
H182 C160 0.929 . S
H183 C161 0.931 . S
H184 C163 0.930 . S
H185 C167 0.931 . S
H186 C165 0.931 . S
H187 C169 0.931 . S
H188 C170 0.929 . S
H189 C171 0.930 . S
H190 C174 0.930 . S
H191 C175 0.931 . S
H192 C179 0.928 . S
H193 C178 0.929 . S
H194 C176 0.932 . S
C195 C196 1.386 . S
C195 C197 1.397 . S
C195 H219 0.931 . S
C196 C195 1.386 . S
C196 C200 1.397 . S
C197 C195 1.397 . S
C197 C198 1.384 . S
C197 H220 0.930 . S
C198 C197 1.384 . S
C198 C199 1.377 . S
C198 C201 1.481 . S
C199 C198 1.377 . S
C199 C200 1.389 . S
C199 H221 0.929 . S
C200 C196 1.397 . S
C200 C199 1.389 . S
C200 H222 0.931 . S
C201 C198 1.481 . S
C201 C202 1.387 . S
C201 C206 1.390 . S
C202 C201 1.387 . S
C202 C203 1.401 . S
C202 H223 0.930 . S
C203 C202 1.401 . S
C203 C204 1.376 . S
C203 C212 1.511 . S
C204 C203 1.376 . S
C204 C205 1.392 . S
C204 H225 0.931 . S
C205 C204 1.392 . S
C205 C206 1.361 . S
C205 C207 1.500 . S
C206 C201 1.390 . S
C206 C205 1.361 . S
C206 H224 0.931 . S
C207 C205 1.500 . S
C207 C208 1.371 . S
C207 C209 1.365 . S
C208 C207 1.371 . S
C208 C218 1.386 . S
C208 H226 0.931 . S
C209 C207 1.365 . S
C209 C210 1.409 . S
C209 H227 0.929 . S
C210 C209 1.409 . S
C210 C211 1.380 . S
C210 H228 0.930 . S
C211 C210 1.380 . S
C211 C218 1.357 . S
C212 C203 1.511 . S
C212 C213 1.341 . S
C212 C214 1.371 . S
C213 C212 1.341 . S
C213 C217 1.394 . S
C213 H229 0.930 . S
C214 C212 1.371 . S
C214 C215 1.392 . S
C214 H230 0.931 . S
C215 C214 1.392 . S
C215 C216 1.331 . S
C215 H233 0.932 . S
C216 C215 1.331 . S
C216 C217 1.336 . S
C217 C213 1.394 . S
C217 C216 1.336 . S
C217 H232 0.929 . S
C218 C208 1.386 . S
C218 C211 1.357 . S
C218 H231 0.928 . S
H219 C195 0.931 . S
H220 C197 0.930 . S
H221 C199 0.929 . S
H222 C200 0.931 . S
H223 C202 0.930 . S
H224 C206 0.931 . S
H225 C204 0.931 . S
H226 C208 0.931 . S
H227 C209 0.929 . S
H228 C210 0.930 . S
H229 C213 0.930 . S
H230 C214 0.931 . S
H231 C218 0.928 . S
H232 C217 0.929 . S
H233 C215 0.932 . S
C234 C235 1.386 . S
C234 C236 1.397 . S
C234 H258 0.931 . S
C235 C234 1.386 . S
C235 C239 1.397 . S
C236 C234 1.397 . S
C236 C237 1.384 . S
C236 H259 0.930 . S
C237 C236 1.384 . S
C237 C238 1.377 . S
C237 C240 1.481 . S
C238 C237 1.377 . S
C238 C239 1.389 . S
C238 H260 0.929 . S
C239 C235 1.397 . S
C239 C238 1.389 . S
C239 H261 0.931 . S
C240 C237 1.481 . S
C240 C241 1.387 . S
C240 C245 1.390 . S
C241 C240 1.387 . S
C241 C242 1.401 . S
C241 H262 0.930 . S
C242 C241 1.401 . S
C242 C243 1.376 . S
C242 C251 1.511 . S
C243 C242 1.376 . S
C243 C244 1.392 . S
C243 H264 0.931 . S
C244 C243 1.392 . S
C244 C245 1.361 . S
C244 C246 1.500 . S
C245 C240 1.390 . S
C245 C244 1.361 . S
C245 H263 0.931 . S
C246 C244 1.500 . S
C246 C247 1.371 . S
C246 C248 1.365 . S
C247 C246 1.371 . S
C247 C257 1.386 . S
C247 H265 0.931 . S
C248 C246 1.365 . S
C248 C249 1.409 . S
C248 H266 0.929 . S
C249 C248 1.409 . S
C249 C250 1.380 . S
C249 H267 0.930 . S
C250 C249 1.380 . S
C250 C257 1.357 . S
C251 C242 1.511 . S
C251 C252 1.341 . S
C251 C253 1.371 . S
C252 C251 1.341 . S
C252 C256 1.394 . S
C252 H268 0.930 . S
C253 C251 1.371 . S
C253 C254 1.392 . S
C253 H269 0.931 . S
C254 C253 1.392 . S
C254 C255 1.331 . S
C254 H272 0.932 . S
C255 C254 1.331 . S
C255 C256 1.336 . S
C256 C252 1.394 . S
C256 C255 1.336 . S
C256 H271 0.929 . S
C257 C247 1.386 . S
C257 C250 1.357 . S
C257 H270 0.928 . S
H258 C234 0.931 . S
H259 C236 0.930 . S
H260 C238 0.929 . S
H261 C239 0.931 . S
H262 C241 0.930 . S
H263 C245 0.931 . S
H264 C243 0.931 . S
H265 C247 0.931 . S
H266 C248 0.929 . S
H267 C249 0.930 . S
H268 C252 0.930 . S
H269 C253 0.931 . S
H270 C257 0.928 . S
H271 C256 0.929 . S
H272 C254 0.932 . S
C273 C274 1.386 . S
C273 C275 1.397 . S
C273 H297 0.931 . S
C274 C273 1.386 . S
C274 C278 1.397 . S
C275 C273 1.397 . S
C275 C276 1.384 . S
C275 H298 0.930 . S
C276 C275 1.384 . S
C276 C277 1.377 . S
C276 C279 1.481 . S
C277 C276 1.377 . S
C277 C278 1.389 . S
C277 H299 0.929 . S
C278 C274 1.397 . S
C278 C277 1.389 . S
C278 H300 0.931 . S
C279 C276 1.481 . S
C279 C280 1.387 . S
C279 C284 1.390 . S
C280 C279 1.387 . S
C280 C281 1.401 . S
C280 H301 0.930 . S
C281 C280 1.401 . S
C281 C282 1.376 . S
C281 C290 1.511 . S
C282 C281 1.376 . S
C282 C283 1.392 . S
C282 H303 0.931 . S
C283 C282 1.392 . S
C283 C284 1.361 . S
C283 C285 1.500 . S
C284 C279 1.390 . S
C284 C283 1.361 . S
C284 H302 0.931 . S
C285 C283 1.500 . S
C285 C286 1.371 . S
C285 C287 1.365 . S
C286 C285 1.371 . S
C286 C296 1.386 . S
C286 H304 0.931 . S
C287 C285 1.365 . S
C287 C288 1.409 . S
C287 H305 0.929 . S
C288 C287 1.409 . S
C288 C289 1.380 . S
C288 H306 0.930 . S
C289 C288 1.380 . S
C289 C296 1.357 . S
C290 C281 1.511 . S
C290 C291 1.341 . S
C290 C292 1.371 . S
C291 C290 1.341 . S
C291 C295 1.394 . S
C291 H307 0.930 . S
C292 C290 1.371 . S
C292 C293 1.392 . S
C292 H308 0.931 . S
C293 C292 1.392 . S
C293 C294 1.331 . S
C293 H311 0.932 . S
C294 C293 1.331 . S
C294 C295 1.336 . S
C295 C291 1.394 . S
C295 C294 1.336 . S
C295 H310 0.929 . S
C296 C286 1.386 . S
C296 C289 1.357 . S
C296 H309 0.928 . S
H297 C273 0.931 . S
H298 C275 0.930 . S
H299 C277 0.929 . S
H300 C278 0.931 . S
H301 C280 0.930 . S
H302 C284 0.931 . S
H303 C282 0.931 . S
H304 C286 0.931 . S
H305 C287 0.929 . S
H306 C288 0.930 . S
H307 C291 0.930 . S
H308 C292 0.931 . S
H309 C296 0.928 . S
H310 C295 0.929 . S
H311 C293 0.932 . S
Eu312 N341 2.600 . S
Eu312 N347 2.562 . S
Eu312 O356 2.462 . S
Eu312 O357 2.373 . S
Eu312 O359 2.432 . S
Eu312 O360 2.291 . S
Eu312 O364 2.335 . S
Eu312 O367 2.372 . S
Eu312 C376 2.787 . S
C313 N314 1.365 . S
C313 C316 1.405 . S
C313 C320 1.448 . S
N314 C313 1.365 . S
N314 C317 1.319 . S
N314 Eu323 2.600 . S
C315 C317 1.397 . S
C315 C318 1.367 . S
C315 H335 0.931 . S
C316 C313 1.405 . S
C316 C318 1.403 . S
C316 C322 1.439 . S
C317 N314 1.319 . S
C317 C315 1.397 . S
C317 H328 0.930 . S
C318 C315 1.367 . S
C318 C316 1.403 . S
C318 H339 0.929 . S
C319 C320 1.430 . S
C319 C321 1.387 . S
C319 C325 1.404 . S
C320 C313 1.448 . S
C320 C319 1.430 . S
C320 N324 1.351 . S
C321 C319 1.387 . S
C321 C322 1.374 . S
C321 H336 0.931 . S
C322 C316 1.439 . S
C322 C321 1.374 . S
C322 H337 0.931 . S
Eu323 N314 2.600 . S
Eu323 N324 2.562 . S
Eu323 O358 2.316 1_655 S
Eu323 O361 2.372 . S
Eu323 O362 2.462 . S
Eu323 O363 2.373 . S
Eu323 O365 2.432 . S
Eu323 O366 2.291 1_655 S
Eu323 C387 2.787 . S
N324 C320 1.351 . S
N324 Eu323 2.562 . S
N324 C326 1.325 . S
C325 C319 1.404 . S
C325 C327 1.366 . S
C325 H333 0.930 . S
C326 N324 1.325 . S
C326 C327 1.416 . S
C326 H332 0.929 . S
C327 C325 1.366 . S
C327 C326 1.416 . S
C327 H329 0.930 . S
H328 C317 0.930 . S
H329 C327 0.930 . S
H330 C345 0.930 . S
H331 C352 0.930 . S
H332 C326 0.929 . S
H333 C325 0.930 . S
H334 C348 0.929 . S
H335 C315 0.931 . S
H336 C321 0.931 . S
H337 C322 0.931 . S
H338 C343 0.931 . S
H339 C318 0.929 . S
H340 C351 0.930 . S
N341 Eu312 2.600 . S
N341 C342 1.365 . S
N341 C345 1.319 . S
C342 N341 1.365 . S
C342 C344 1.405 . S
C342 C350 1.448 . S
C343 H338 0.931 . S
C343 C345 1.397 . S
C343 C346 1.367 . S
C344 C342 1.405 . S
C344 C346 1.403 . S
C344 C377 1.439 . S
C345 H330 0.930 . S
C345 N341 1.319 . S
C345 C343 1.397 . S
C346 C343 1.367 . S
C346 C344 1.403 . S
C346 H353 0.929 . S
N347 Eu312 2.562 . S
N347 C348 1.325 . S
N347 C350 1.351 . S
C348 H334 0.929 . S
C348 N347 1.325 . S
C348 C352 1.416 . S
C349 C350 1.430 . S
C349 C351 1.404 . S
C349 C378 1.387 . S
C350 C342 1.448 . S
C350 N347 1.351 . S
C350 C349 1.430 . S
C351 H340 0.930 . S
C351 C349 1.404 . S
C351 C352 1.366 . S
C352 H331 0.930 . S
C352 C348 1.416 . S
C352 C351 1.366 . S
H353 C346 0.929 . S
H354 C377 0.931 . S
H355 C378 0.931 . S
O356 Eu312 2.462 . S
O356 C376 1.252 . S
O357 Eu312 2.373 . S
O357 C368 1.249 . S
O358 Eu323 2.316 1_455 S
O358 C368 1.288 . S
O359 Eu312 2.432 . S
O359 C376 1.268 . S
O360 Eu312 2.291 . S
O360 C375 1.255 1_455 S
O361 Eu323 2.372 . S
O361 C375 1.257 . S
O362 Eu323 2.462 . S
O362 C387 1.252 . S
O363 Eu323 2.373 . S
O363 C379 1.249 . S
O364 Eu312 2.335 . S
O364 C379 1.264 1_455 S
O365 Eu323 2.432 . S
O365 C387 1.268 . S
O366 Eu323 2.291 1_455 S
O366 C386 1.255 . S
O367 Eu312 2.372 . S
O367 C386 1.257 . S
C368 O357 1.249 . S
C368 O358 1.288 . S
C369 C372 1.382 . S
C369 C374 1.390 . S
C369 C376 1.506 . S
C370 C371 1.398 . S
C370 C374 1.392 . S
C371 C370 1.398 . S
C371 C373 1.372 . S
C371 H388 0.931 . S
C372 C369 1.382 . S
C372 C373 1.390 . S
C372 H389 0.931 . S
C373 C371 1.372 . S
C373 C372 1.390 . S
C373 H390 0.929 . S
C374 C369 1.390 . S
C374 C370 1.392 . S
C374 H391 0.930 . S
C375 O360 1.255 1_655 S
C375 O361 1.257 . S
C376 Eu312 2.787 . S
C376 O356 1.252 . S
C376 O359 1.268 . S
C376 C369 1.506 . S
C377 C344 1.439 . S
C377 H354 0.931 . S
C377 C378 1.374 . S
C378 C349 1.387 . S
C378 H355 0.931 . S
C378 C377 1.374 . S
C379 O363 1.249 . S
C379 O364 1.264 1_655 S
C380 C383 1.382 . S
C380 C384 1.390 . S
C380 C387 1.506 . S
C381 C382 1.398 . S
C381 C384 1.392 . S
C382 C381 1.398 . S
C382 C385 1.372 . S
C382 H392 0.931 . S
C383 C380 1.382 . S
C383 C385 1.390 . S
C383 H393 0.931 . S
C384 C380 1.390 . S
C384 C381 1.392 . S
C384 H394 0.930 . S
C385 C382 1.372 . S
C385 C383 1.390 . S
C385 H395 0.929 . S
C386 O366 1.255 . S
C386 O367 1.257 . S
C387 Eu323 2.787 . S
C387 O362 1.252 . S
C387 O365 1.268 . S
C387 C380 1.506 . S
H388 C371 0.931 . S
H389 C372 0.931 . S
H390 C373 0.929 . S
H391 C374 0.930 . S
H392 C382 0.931 . S
H393 C383 0.931 . S
H394 C384 0.930 . S
H395 C385 0.929 . S
Eu396 N425 2.600 . S
Eu396 N431 2.562 . S
Eu396 O440 2.462 . S
Eu396 O441 2.373 . S
Eu396 O443 2.432 . S
Eu396 O444 2.291 . S
Eu396 O448 2.335 . S
Eu396 O451 2.372 . S
Eu396 C460 2.787 . S
C397 N398 1.365 . S
C397 C400 1.405 . S
C397 C404 1.448 . S
N398 C397 1.365 . S
N398 C401 1.319 . S
N398 Eu407 2.600 . S
C399 C401 1.397 . S
C399 C402 1.367 . S
C399 H419 0.931 . S
C400 C397 1.405 . S
C400 C402 1.403 . S
C400 C406 1.439 . S
C401 N398 1.319 . S
C401 C399 1.397 . S
C401 H412 0.930 . S
C402 C399 1.367 . S
C402 C400 1.403 . S
C402 H423 0.929 . S
C403 C404 1.430 . S
C403 C405 1.387 . S
C403 C409 1.404 . S
C404 C397 1.448 . S
C404 C403 1.430 . S
C404 N408 1.351 . S
C405 C403 1.387 . S
C405 C406 1.374 . S
C405 H420 0.931 . S
C406 C400 1.439 . S
C406 C405 1.374 . S
C406 H421 0.931 . S
Eu407 N398 2.600 . S
Eu407 N408 2.562 . S
Eu407 O442 2.335 . S
Eu407 O445 2.372 . S
Eu407 O446 2.462 . S
Eu407 O447 2.373 . S
Eu407 O449 2.432 . S
Eu407 O450 2.291 . S
Eu407 C471 2.787 . S
N408 C404 1.351 . S
N408 Eu407 2.562 . S
N408 C410 1.325 . S
C409 C403 1.404 . S
C409 C411 1.366 . S
C409 H417 0.930 . S
C410 N408 1.325 . S
C410 C411 1.416 . S
C410 H416 0.929 . S
C411 C409 1.366 . S
C411 C410 1.416 . S
C411 H413 0.930 . S
H412 C401 0.930 . S
H413 C411 0.930 . S
H414 C429 0.930 . S
H415 C436 0.930 . S
H416 C410 0.929 . S
H417 C409 0.930 . S
H418 C432 0.929 . S
H419 C399 0.931 . S
H420 C405 0.931 . S
H421 C406 0.931 . S
H422 C427 0.931 . S
H423 C402 0.929 . S
H424 C435 0.930 . S
N425 Eu396 2.600 . S
N425 C426 1.365 . S
N425 C429 1.319 . S
C426 N425 1.365 . S
C426 C428 1.405 . S
C426 C434 1.448 . S
C427 H422 0.931 . S
C427 C429 1.397 . S
C427 C430 1.367 . S
C428 C426 1.405 . S
C428 C430 1.403 . S
C428 C461 1.439 . S
C429 H414 0.930 . S
C429 N425 1.319 . S
C429 C427 1.397 . S
C430 C427 1.367 . S
C430 C428 1.403 . S
C430 H437 0.929 . S
N431 Eu396 2.562 . S
N431 C432 1.325 . S
N431 C434 1.351 . S
C432 H418 0.929 . S
C432 N431 1.325 . S
C432 C436 1.416 . S
C433 C434 1.430 . S
C433 C435 1.404 . S
C433 C462 1.387 . S
C434 C426 1.448 . S
C434 N431 1.351 . S
C434 C433 1.430 . S
C435 H424 0.930 . S
C435 C433 1.404 . S
C435 C436 1.366 . S
C436 H415 0.930 . S
C436 C432 1.416 . S
C436 C435 1.366 . S
H437 C430 0.929 . S
H438 C461 0.931 . S
H439 C462 0.931 . S
O440 Eu396 2.462 . S
O440 C460 1.252 . S
O441 Eu396 2.373 . S
O441 C452 1.249 . S
O442 Eu407 2.335 . S
O442 C452 1.264 . S
O443 Eu396 2.432 . S
O443 C460 1.268 . S
O444 Eu396 2.291 . S
O444 C459 1.255 . S
O445 Eu407 2.372 . S
O445 C459 1.257 . S
O446 Eu407 2.462 . S
O446 C471 1.252 . S
O447 Eu407 2.373 . S
O447 C463 1.249 . S
O448 Eu396 2.335 . S
O448 C463 1.264 . S
O449 Eu407 2.432 . S
O449 C471 1.268 . S
O450 Eu407 2.291 . S
O450 C470 1.255 . S
O451 Eu396 2.372 . S
O451 C470 1.257 . S
C452 O441 1.249 . S
C452 O442 1.264 . S
C453 C456 1.382 . S
C453 C458 1.390 . S
C453 C460 1.506 . S
C454 C455 1.398 . S
C454 C458 1.392 . S
C455 C454 1.398 . S
C455 C457 1.372 . S
C455 H472 0.931 . S
C456 C453 1.382 . S
C456 C457 1.390 . S
C456 H473 0.931 . S
C457 C455 1.372 . S
C457 C456 1.390 . S
C457 H474 0.929 . S
C458 C453 1.390 . S
C458 C454 1.392 . S
C458 H475 0.930 . S
C459 O444 1.255 . S
C459 O445 1.257 . S
C460 Eu396 2.787 . S
C460 O440 1.252 . S
C460 O443 1.268 . S
C460 C453 1.506 . S
C461 C428 1.439 . S
C461 H438 0.931 . S
C461 C462 1.374 . S
C462 C433 1.387 . S
C462 H439 0.931 . S
C462 C461 1.374 . S
C463 O447 1.249 . S
C463 O448 1.264 . S
C464 C467 1.382 . S
C464 C468 1.390 . S
C464 C471 1.506 . S
C465 C466 1.398 . S
C465 C468 1.392 . S
C466 C465 1.398 . S
C466 C469 1.372 . S
C466 H476 0.931 . S
C467 C464 1.382 . S
C467 C469 1.390 . S
C467 H477 0.931 . S
C468 C464 1.390 . S
C468 C465 1.392 . S
C468 H478 0.930 . S
C469 C466 1.372 . S
C469 C467 1.390 . S
C469 H479 0.929 . S
C470 O450 1.255 . S
C470 O451 1.257 . S
C471 Eu407 2.787 . S
C471 O446 1.252 . S
C471 O449 1.268 . S
C471 C464 1.506 . S
H472 C455 0.931 . S
H473 C456 0.931 . S
H474 C457 0.929 . S
H475 C458 0.930 . S
H476 C466 0.931 . S
H477 C467 0.931 . S
H478 C468 0.930 . S
H479 C469 0.929 . S
Eu480 N509 2.600 . S
Eu480 N515 2.562 . S
Eu480 O524 2.462 . S
Eu480 O525 2.373 . S
Eu480 O527 2.432 . S
Eu480 O528 2.291 . S
Eu480 O532 2.335 . S
Eu480 O535 2.372 . S
Eu480 C544 2.787 . S
C481 N482 1.365 . S
C481 C484 1.405 . S
C481 C488 1.448 . S
N482 C481 1.365 . S
N482 C485 1.319 . S
N482 Eu491 2.600 . S
C483 C485 1.397 . S
C483 C486 1.367 . S
C483 H503 0.931 . S
C484 C481 1.405 . S
C484 C486 1.403 . S
C484 C490 1.439 . S
C485 N482 1.319 . S
C485 C483 1.397 . S
C485 H496 0.930 . S
C486 C483 1.367 . S
C486 C484 1.403 . S
C486 H507 0.929 . S
C487 C488 1.430 . S
C487 C489 1.387 . S
C487 C493 1.404 . S
C488 C481 1.448 . S
C488 C487 1.430 . S
C488 N492 1.351 . S
C489 C487 1.387 . S
C489 C490 1.374 . S
C489 H504 0.931 . S
C490 C484 1.439 . S
C490 C489 1.374 . S
C490 H505 0.931 . S
Eu491 N482 2.600 . S
Eu491 N492 2.562 . S
Eu491 O526 2.335 1_655 S
Eu491 O529 2.372 . S
Eu491 O530 2.462 . S
Eu491 O531 2.373 . S
Eu491 O533 2.432 . S
Eu491 O534 2.291 1_655 S
Eu491 C555 2.787 . S
N492 C488 1.351 . S
N492 Eu491 2.562 . S
N492 C494 1.325 . S
C493 C487 1.404 . S
C493 C495 1.366 . S
C493 H501 0.930 . S
C494 N492 1.325 . S
C494 C495 1.416 . S
C494 H500 0.929 . S
C495 C493 1.366 . S
C495 C494 1.416 . S
C495 H497 0.930 . S
H496 C485 0.930 . S
H497 C495 0.930 . S
H498 C513 0.930 . S
H499 C520 0.930 . S
H500 C494 0.929 . S
H501 C493 0.930 . S
H502 C516 0.929 . S
H503 C483 0.931 . S
H504 C489 0.931 . S
H505 C490 0.931 . S
H506 C511 0.931 . S
H507 C486 0.929 . S
H508 C519 0.930 . S
N509 Eu480 2.600 . S
N509 C510 1.365 . S
N509 C513 1.319 . S
C510 N509 1.365 . S
C510 C512 1.405 . S
C510 C518 1.448 . S
C511 H506 0.931 . S
C511 C513 1.397 . S
C511 C514 1.367 . S
C512 C510 1.405 . S
C512 C514 1.403 . S
C512 C545 1.439 . S
C513 H498 0.930 . S
C513 N509 1.319 . S
C513 C511 1.397 . S
C514 C511 1.367 . S
C514 C512 1.403 . S
C514 H521 0.929 . S
N515 Eu480 2.562 . S
N515 C516 1.325 . S
N515 C518 1.351 . S
C516 H502 0.929 . S
C516 N515 1.325 . S
C516 C520 1.416 . S
C517 C518 1.430 . S
C517 C519 1.404 . S
C517 C546 1.387 . S
C518 C510 1.448 . S
C518 N515 1.351 . S
C518 C517 1.430 . S
C519 H508 0.930 . S
C519 C517 1.404 . S
C519 C520 1.366 . S
C520 H499 0.930 . S
C520 C516 1.416 . S
C520 C519 1.366 . S
H521 C514 0.929 . S
H522 C545 0.931 . S
H523 C546 0.931 . S
O524 Eu480 2.462 . S
O524 C544 1.252 . S
O525 Eu480 2.373 . S
O525 C536 1.249 . S
O526 Eu491 2.335 1_455 S
O526 C536 1.264 . S
O527 Eu480 2.432 . S
O527 C544 1.268 . S
O528 Eu480 2.291 . S
O528 C543 1.255 1_455 S
O529 Eu491 2.372 . S
O529 C543 1.257 . S
O530 Eu491 2.462 . S
O530 C555 1.252 . S
O531 Eu491 2.373 . S
O531 C547 1.249 . S
O532 Eu480 2.335 . S
O532 C547 1.264 1_455 S
O533 Eu491 2.432 . S
O533 C555 1.268 . S
O534 Eu491 2.291 1_455 S
O534 C554 1.255 . S
O535 Eu480 2.372 . S
O535 C554 1.257 . S
C536 O525 1.249 . S
C536 O526 1.264 . S
C537 C540 1.382 . S
C537 C542 1.390 . S
C537 C544 1.506 . S
C538 C539 1.398 . S
C538 C542 1.392 . S
C539 C538 1.398 . S
C539 C541 1.372 . S
C539 H556 0.931 . S
C540 C537 1.382 . S
C540 C541 1.390 . S
C540 H557 0.931 . S
C541 C539 1.372 . S
C541 C540 1.390 . S
C541 H558 0.929 . S
C542 C537 1.390 . S
C542 C538 1.392 . S
C542 H559 0.930 . S
C543 O528 1.255 1_655 S
C543 O529 1.257 . S
C544 Eu480 2.787 . S
C544 O524 1.252 . S
C544 O527 1.268 . S
C544 C537 1.506 . S
C545 C512 1.439 . S
C545 H522 0.931 . S
C545 C546 1.374 . S
C546 C517 1.387 . S
C546 H523 0.931 . S
C546 C545 1.374 . S
C547 O531 1.249 . S
C547 O532 1.264 1_655 S
C548 C551 1.382 . S
C548 C552 1.390 . S
C548 C555 1.506 . S
C549 C550 1.398 . S
C549 C552 1.392 . S
C550 C549 1.398 . S
C550 C553 1.372 . S
C550 H560 0.931 . S
C551 C548 1.382 . S
C551 C553 1.390 . S
C551 H561 0.931 . S
C552 C548 1.390 . S
C552 C549 1.392 . S
C552 H562 0.930 . S
C553 C550 1.372 . S
C553 C551 1.390 . S
C553 H563 0.929 . S
C554 O534 1.255 . S
C554 O535 1.257 . S
C555 Eu491 2.787 . S
C555 O530 1.252 . S
C555 O533 1.268 . S
C555 C548 1.506 . S
H556 C539 0.931 . S
H557 C540 0.931 . S
H558 C541 0.929 . S
H559 C542 0.930 . S
H560 C550 0.931 . S
H561 C551 0.931 . S
H562 C552 0.930 . S
H563 C553 0.929 . S
Eu564 N593 2.600 . S
Eu564 N599 2.562 . S
Eu564 O608 2.462 . S
Eu564 O609 2.373 . S
Eu564 O611 2.432 . S
Eu564 O612 2.291 . S
Eu564 O616 2.335 . S
Eu564 O619 2.372 . S
Eu564 C628 2.787 . S
C565 N566 1.365 . S
C565 C568 1.405 . S
C565 C572 1.448 . S
N566 C565 1.365 . S
N566 C569 1.319 . S
N566 Eu575 2.600 . S
C567 C569 1.397 . S
C567 C570 1.367 . S
C567 H587 0.931 . S
C568 C565 1.405 . S
C568 C570 1.403 . S
C568 C574 1.439 . S
C569 N566 1.319 . S
C569 C567 1.397 . S
C569 H580 0.930 . S
C570 C567 1.367 . S
C570 C568 1.403 . S
C570 H591 0.929 . S
C571 C572 1.430 . S
C571 C573 1.387 . S
C571 C577 1.404 . S
C572 C565 1.448 . S
C572 C571 1.430 . S
C572 N576 1.351 . S
C573 C571 1.387 . S
C573 C574 1.374 . S
C573 H588 0.931 . S
C574 C568 1.439 . S
C574 C573 1.374 . S
C574 H589 0.931 . S
Eu575 N566 2.600 . S
Eu575 N576 2.562 . S
Eu575 O610 2.335 . S
Eu575 O613 2.372 . S
Eu575 O614 2.462 . S
Eu575 O615 2.373 . S
Eu575 O617 2.432 . S
Eu575 O618 2.291 . S
Eu575 C639 2.787 . S
N576 C572 1.351 . S
N576 Eu575 2.562 . S
N576 C578 1.325 . S
C577 C571 1.404 . S
C577 C579 1.366 . S
C577 H585 0.930 . S
C578 N576 1.325 . S
C578 C579 1.416 . S
C578 H584 0.929 . S
C579 C577 1.366 . S
C579 C578 1.416 . S
C579 H581 0.930 . S
H580 C569 0.930 . S
H581 C579 0.930 . S
H582 C597 0.930 . S
H583 C604 0.930 . S
H584 C578 0.929 . S
H585 C577 0.930 . S
H586 C600 0.929 . S
H587 C567 0.931 . S
H588 C573 0.931 . S
H589 C574 0.931 . S
H590 C595 0.931 . S
H591 C570 0.929 . S
H592 C603 0.930 . S
N593 Eu564 2.600 . S
N593 C594 1.365 . S
N593 C597 1.319 . S
C594 N593 1.365 . S
C594 C596 1.405 . S
C594 C602 1.448 . S
C595 H590 0.931 . S
C595 C597 1.397 . S
C595 C598 1.367 . S
C596 C594 1.405 . S
C596 C598 1.403 . S
C596 C629 1.439 . S
C597 H582 0.930 . S
C597 N593 1.319 . S
C597 C595 1.397 . S
C598 C595 1.367 . S
C598 C596 1.403 . S
C598 H605 0.929 . S
N599 Eu564 2.562 . S
N599 C600 1.325 . S
N599 C602 1.351 . S
C600 H586 0.929 . S
C600 N599 1.325 . S
C600 C604 1.416 . S
C601 C602 1.430 . S
C601 C603 1.404 . S
C601 C630 1.387 . S
C602 C594 1.448 . S
C602 N599 1.351 . S
C602 C601 1.430 . S
C603 H592 0.930 . S
C603 C601 1.404 . S
C603 C604 1.366 . S
C604 H583 0.930 . S
C604 C600 1.416 . S
C604 C603 1.366 . S
H605 C598 0.929 . S
H606 C629 0.931 . S
H607 C630 0.931 . S
O608 Eu564 2.462 . S
O608 C628 1.252 . S
O609 Eu564 2.373 . S
O609 C620 1.249 . S
O610 Eu575 2.335 . S
O610 C620 1.264 . S
O611 Eu564 2.432 . S
O611 C628 1.268 . S
O612 Eu564 2.291 . S
O612 C627 1.255 . S
O613 Eu575 2.372 . S
O613 C627 1.257 . S
O614 Eu575 2.462 . S
O614 C639 1.252 . S
O615 Eu575 2.373 . S
O615 C631 1.249 . S
O616 Eu564 2.335 . S
O616 C631 1.264 . S
O617 Eu575 2.432 . S
O617 C639 1.268 . S
O618 Eu575 2.291 . S
O618 C638 1.255 . S
O619 Eu564 2.372 . S
O619 C638 1.257 . S
C620 O609 1.249 . S
C620 O610 1.264 . S
C621 C624 1.382 . S
C621 C626 1.390 . S
C621 C628 1.506 . S
C622 C623 1.398 . S
C622 C626 1.392 . S
C623 C622 1.398 . S
C623 C625 1.372 . S
C623 H640 0.931 . S
C624 C621 1.382 . S
C624 C625 1.390 . S
C624 H641 0.931 . S
C625 C623 1.372 . S
C625 C624 1.390 . S
C625 H642 0.929 . S
C626 C621 1.390 . S
C626 C622 1.392 . S
C626 H643 0.930 . S
C627 O612 1.255 . S
C627 O613 1.257 . S
C628 Eu564 2.787 . S
C628 O608 1.252 . S
C628 O611 1.268 . S
C628 C621 1.506 . S
C629 C596 1.439 . S
C629 H606 0.931 . S
C629 C630 1.374 . S
C630 C601 1.387 . S
C630 H607 0.931 . S
C630 C629 1.374 . S
C631 O615 1.249 . S
C631 O616 1.264 . S
C632 C635 1.382 . S
C632 C636 1.390 . S
C632 C639 1.506 . S
C633 C634 1.398 . S
C633 C636 1.392 . S
C634 C633 1.398 . S
C634 C637 1.372 . S
C634 H644 0.931 . S
C635 C632 1.382 . S
C635 C637 1.390 . S
C635 H645 0.931 . S
C636 C632 1.390 . S
C636 C633 1.392 . S
C636 H646 0.930 . S
C637 C634 1.372 . S
C637 C635 1.390 . S
C637 H647 0.929 . S
C638 O618 1.255 . S
C638 O619 1.257 . S
C639 Eu575 2.787 . S
C639 O614 1.252 . S
C639 O617 1.268 . S
C639 C632 1.506 . S
H640 C623 0.931 . S
H641 C624 0.931 . S
H642 C625 0.929 . S
H643 C626 0.930 . S
H644 C634 0.931 . S
H645 C635 0.931 . S
H646 C636 0.930 . S
H647 C637 0.929 . S
H648 C654 0.930 . S
H649 C658 0.930 . S
H650 C663 0.929 . S
H651 C661 0.929 . S
H652 C656 0.929 . S
H653 C662 0.929 . S
C654 H648 0.930 . S
C654 C655 1.367 1_545 S
C654 C662 1.378 . S
C655 C654 1.367 1_565 S
C655 C663 1.433 . S
C656 H652 0.929 . S
C656 C658 1.378 . S
C656 C660 1.350 . S
C657 C660 1.463 . S
C657 C662 1.350 . S
C657 N665 1.427 . S
C658 H649 0.930 . S
C658 C656 1.378 . S
C658 C659 1.367 . S
C659 C658 1.367 . S
C659 C661 1.433 . S
C660 C656 1.350 . S
C660 C657 1.463 . S
C660 N664 1.427 . S
C661 H651 0.929 . S
C661 C659 1.433 . S
C661 N664 1.384 . S
C662 H653 0.929 . S
C662 C654 1.378 . S
C662 C657 1.350 . S
C663 H650 0.929 . S
C663 C655 1.433 . S
C663 N665 1.384 1_565 S
N664 C660 1.427 . S
N664 C661 1.384 . S
N665 C657 1.427 . S
N665 C663 1.384 1_545 S
H666 C672 0.930 . S
H667 C676 0.930 . S
H668 C681 0.929 . S
H669 C679 0.929 . S
H670 C674 0.929 . S
H671 C680 0.929 . S
C672 H666 0.930 . S
C672 C673 1.367 . S
C672 C680 1.378 . S
C673 C672 1.367 . S
C673 C681 1.433 . S
C674 H670 0.929 . S
C674 C676 1.378 . S
C674 C678 1.350 . S
C675 C678 1.463 . S
C675 C680 1.350 . S
C675 N683 1.427 . S
C676 H667 0.930 . S
C676 C674 1.378 . S
C676 C677 1.367 . S
C677 C676 1.367 . S
C677 C679 1.433 . S
C678 C674 1.350 . S
C678 C675 1.463 . S
C678 N682 1.427 . S
C679 H669 0.929 . S
C679 C677 1.433 . S
C679 N682 1.384 . S
C680 H671 0.929 . S
C680 C672 1.378 . S
C680 C675 1.350 . S
C681 H668 0.929 . S
C681 C673 1.433 . S
C681 N683 1.384 . S
N682 C678 1.427 . S
N682 C679 1.384 . S
N683 C675 1.427 . S
N683 C681 1.384 . S
H684 C690 0.930 . S
H685 C694 0.930 . S
H686 C699 0.929 . S
H687 C697 0.929 . S
H688 C692 0.929 . S
H689 C698 0.929 . S
C690 H684 0.930 . S
C690 C691 1.367 . S
C690 C698 1.378 . S
C691 C690 1.367 . S
C691 C699 1.433 . S
C692 H688 0.929 . S
C692 C694 1.378 . S
C692 C696 1.350 . S
C693 C696 1.463 . S
C693 C698 1.350 . S
C693 N701 1.427 . S
C694 H685 0.930 . S
C694 C692 1.378 . S
C694 C695 1.367 . S
C695 C694 1.367 . S
C695 C697 1.433 . S
C696 C692 1.350 . S
C696 C693 1.463 . S
C696 N700 1.427 . S
C697 H687 0.929 . S
C697 C695 1.433 . S
C697 N700 1.384 . S
C698 H689 0.929 . S
C698 C690 1.378 . S
C698 C693 1.350 . S
C699 H686 0.929 . S
C699 C691 1.433 . S
C699 N701 1.384 . S
N700 C696 1.427 . S
N700 C697 1.384 . S
N701 C693 1.427 . S
N701 C699 1.384 . S
H702 C708 0.930 . S
H703 C712 0.930 . S
H704 C717 0.929 . S
H705 C715 0.929 . S
H706 C710 0.929 . S
H707 C716 0.929 . S
C708 H702 0.930 . S
C708 C709 1.367 1_545 S
C708 C716 1.378 . S
C709 C708 1.367 1_565 S
C709 C717 1.433 . S
C710 H706 0.929 . S
C710 C712 1.378 . S
C710 C714 1.350 . S
C711 C714 1.463 . S
C711 C716 1.350 . S
C711 N719 1.427 . S
C712 H703 0.930 . S
C712 C710 1.378 . S
C712 C713 1.367 . S
C713 C712 1.367 . S
C713 C715 1.433 . S
C714 C710 1.350 . S
C714 C711 1.463 . S
C714 N718 1.427 . S
C715 H705 0.929 . S
C715 C713 1.433 . S
C715 N718 1.384 . S
C716 H707 0.929 . S
C716 C708 1.378 . S
C716 C711 1.350 . S
C717 H704 0.929 . S
C717 C709 1.433 . S
C717 N719 1.384 1_565 S
N718 C714 1.427 . S
N718 C715 1.384 . S
N719 C711 1.427 . S
N719 C717 1.384 1_545 S
H720 C726 0.930 . S
H721 C730 0.930 . S
H722 C735 0.929 . S
H723 C733 0.929 1_455 S
H724 C728 0.929 . S
H725 C734 0.929 . S
C726 H720 0.930 . S
C726 C727 1.367 . S
C726 C734 1.378 1_545 S
C727 C726 1.367 . S
C727 C735 1.433 1_545 S
C728 H724 0.929 . S
C728 C730 1.378 . S
C728 C732 1.350 . S
C729 C732 1.463 . S
C729 C734 1.350 . S
C729 N737 1.427 . S
C730 H721 0.930 . S
C730 C728 1.378 . S
C730 C731 1.367 . S
C731 C730 1.367 . S
C731 C733 1.433 . S
C732 C728 1.350 . S
C732 C729 1.463 . S
C732 N736 1.427 . S
C733 H723 0.929 1_655 S
C733 C731 1.433 . S
C733 N736 1.384 . S
C734 H725 0.929 . S
C734 C726 1.378 1_565 S
C734 C729 1.350 . S
C735 H722 0.929 . S
C735 C727 1.433 1_565 S
C735 N737 1.384 . S
N736 C732 1.427 . S
N736 C733 1.384 . S
N737 C729 1.427 . S
N737 C735 1.384 . S
H738 C744 0.930 . S
H739 C748 0.930 . S
H740 C753 0.929 . S
H741 C751 0.929 . S
H742 C746 0.929 . S
H743 C752 0.929 . S
C744 H738 0.930 . S
C744 C745 1.367 . S
C744 C752 1.378 . S
C745 C744 1.367 . S
C745 C753 1.433 . S
C746 H742 0.929 . S
C746 C748 1.378 . S
C746 C750 1.350 . S
C747 C750 1.463 . S
C747 C752 1.350 . S
C747 N755 1.427 . S
C748 H739 0.930 . S
C748 C746 1.378 . S
C748 C749 1.367 . S
C749 C748 1.367 . S
C749 C751 1.433 . S
C750 C746 1.350 . S
C750 C747 1.463 . S
C750 N754 1.427 . S
C751 H741 0.929 . S
C751 C749 1.433 . S
C751 N754 1.384 . S
C752 H743 0.929 . S
C752 C744 1.378 . S
C752 C747 1.350 . S
C753 H740 0.929 . S
C753 C745 1.433 . S
C753 N755 1.384 . S
N754 C750 1.427 . S
N754 C751 1.384 . S
N755 C747 1.427 . S
N755 C753 1.384 . S
H756 C762 0.930 . S
H757 C766 0.930 . S
H758 C771 0.929 . S
H759 C769 0.929 . S
H760 C764 0.929 . S
H761 C770 0.929 . S
C762 H756 0.930 . S
C762 C763 1.367 . S
C762 C770 1.378 . S
C763 C762 1.367 . S
C763 C771 1.433 . S
C764 H760 0.929 . S
C764 C766 1.378 . S
C764 C768 1.350 . S
C765 C768 1.463 . S
C765 C770 1.350 . S
C765 N773 1.427 . S
C766 H757 0.930 . S
C766 C764 1.378 . S
C766 C767 1.367 . S
C767 C766 1.367 . S
C767 C769 1.433 . S
C768 C764 1.350 . S
C768 C765 1.463 . S
C768 N772 1.427 . S
C769 H759 0.929 . S
C769 C767 1.433 . S
C769 N772 1.384 . S
C770 H761 0.929 . S
C770 C762 1.378 . S
C770 C765 1.350 . S
C771 H758 0.929 . S
C771 C763 1.433 . S
C771 N773 1.384 . S
N772 C768 1.427 . S
N772 C769 1.384 . S
N773 C765 1.427 . S
N773 C771 1.384 . S
H774 C780 0.930 . S
H775 C784 0.930 . S
H776 C789 0.929 . S
H777 C787 0.929 . S
H778 C782 0.929 . S
H779 C788 0.929 . S
C780 H774 0.930 . S
C780 C781 1.367 1_565 S
C780 C788 1.378 . S
C781 C780 1.367 1_545 S
C781 C789 1.433 . S
C782 H778 0.929 . S
C782 C784 1.378 . S
C782 C786 1.350 . S
C783 C786 1.463 . S
C783 C788 1.350 . S
C783 N791 1.427 . S
C784 H775 0.930 . S
C784 C782 1.378 . S
C784 C785 1.367 . S
C785 C784 1.367 . S
C785 C787 1.433 . S
C786 C782 1.350 . S
C786 C783 1.463 . S
C786 N790 1.427 . S
C787 H777 0.929 . S
C787 C785 1.433 . S
C787 N790 1.384 . S
C788 H779 0.929 . S
C788 C780 1.378 . S
C788 C783 1.350 . S
C789 H776 0.929 . S
C789 C781 1.433 . S
C789 N791 1.384 1_545 S
N790 C786 1.427 . S
N790 C787 1.384 . S
N791 C783 1.427 . S
N791 C789 1.384 1_565 S
H792 C798 0.930 . S
H793 C802 0.930 . S
H794 C807 0.929 . S
H795 C805 0.929 . S
H796 C800 0.929 . S
H797 C806 0.929 . S
C798 H792 0.930 . S
C798 C799 1.367 . S
C798 C806 1.378 . S
C799 C798 1.367 . S
C799 C807 1.433 . S
C800 H796 0.929 . S
C800 C802 1.378 . S
C800 C804 1.350 . S
C801 C804 1.463 . S
C801 C806 1.350 . S
C801 N809 1.427 . S
C802 H793 0.930 . S
C802 C800 1.378 . S
C802 C803 1.367 . S
C803 C802 1.367 . S
C803 C805 1.433 . S
C804 C800 1.350 . S
C804 C801 1.463 . S
C804 N808 1.427 . S
C805 H795 0.929 . S
C805 C803 1.433 . S
C805 N808 1.384 . S
C806 H797 0.929 . S
C806 C798 1.378 . S
C806 C801 1.350 . S
C807 H794 0.929 . S
C807 C799 1.433 . S
C807 N809 1.384 . S
N808 C804 1.427 . S
N808 C805 1.384 . S
N809 C801 1.427 . S
N809 C807 1.384 . S
H810 C816 0.930 . S
H811 C820 0.930 . S
H812 C825 0.929 . S
H813 C823 0.929 . S
H814 C818 0.929 . S
H815 C824 0.929 . S
C816 H810 0.930 . S
C816 C817 1.367 . S
C816 C824 1.378 . S
C817 C816 1.367 . S
C817 C825 1.433 . S
C818 H814 0.929 . S
C818 C820 1.378 . S
C818 C822 1.350 . S
C819 C822 1.463 . S
C819 C824 1.350 . S
C819 N827 1.427 . S
C820 H811 0.930 . S
C820 C818 1.378 . S
C820 C821 1.367 . S
C821 C820 1.367 . S
C821 C823 1.433 . S
C822 C818 1.350 . S
C822 C819 1.463 . S
C822 N826 1.427 . S
C823 H813 0.929 . S
C823 C821 1.433 . S
C823 N826 1.384 . S
C824 H815 0.929 . S
C824 C816 1.378 . S
C824 C819 1.350 . S
C825 H812 0.929 . S
C825 C817 1.433 . S
C825 N827 1.384 . S
N826 C822 1.427 . S
N826 C823 1.384 . S
N827 C819 1.427 . S
N827 C825 1.384 . S
H828 C834 0.930 . S
H829 C838 0.930 . S
H830 C843 0.929 . S
H831 C841 0.929 . S
H832 C836 0.929 . S
H833 C842 0.929 . S
C834 H828 0.930 . S
C834 C835 1.367 . S
C834 C842 1.378 . S
C835 C834 1.367 . S
C835 C843 1.433 . S
C836 H832 0.929 . S
C836 C838 1.378 . S
C836 C840 1.350 . S
C837 C840 1.463 . S
C837 C842 1.350 . S
C837 N845 1.427 . S
C838 H829 0.930 . S
C838 C836 1.378 . S
C838 C839 1.367 . S
C839 C838 1.367 . S
C839 C841 1.433 . S
C840 C836 1.350 . S
C840 C837 1.463 . S
C840 N844 1.427 . S
C841 H831 0.929 . S
C841 C839 1.433 . S
C841 N844 1.384 . S
C842 H833 0.929 . S
C842 C834 1.378 . S
C842 C837 1.350 . S
C843 H830 0.929 . S
C843 C835 1.433 . S
C843 N845 1.384 . S
N844 C840 1.427 . S
N844 C841 1.384 . S
N845 C837 1.427 . S
N845 C843 1.384 . S
H846 C852 0.930 . S
H847 C856 0.930 . S
H848 C861 0.929 . S
H849 C859 0.929 . S
H850 C854 0.929 . S
H851 C860 0.929 . S
C852 H846 0.930 . S
C852 C853 1.367 . S
C852 C860 1.378 . S
C853 C852 1.367 . S
C853 C861 1.433 . S
C854 H850 0.929 . S
C854 C856 1.378 . S
C854 C858 1.350 . S
C855 C858 1.463 . S
C855 C860 1.350 . S
C855 N863 1.427 . S
C856 H847 0.930 . S
C856 C854 1.378 . S
C856 C857 1.367 . S
C857 C856 1.367 . S
C857 C859 1.433 . S
C858 C854 1.350 . S
C858 C855 1.463 . S
C858 N862 1.427 . S
C859 H849 0.929 . S
C859 C857 1.433 . S
C859 N862 1.384 . S
C860 H851 0.929 . S
C860 C852 1.378 . S
C860 C855 1.350 . S
C861 H848 0.929 . S
C861 C853 1.433 . S
C861 N863 1.384 . S
N862 C858 1.427 . S
N862 C859 1.384 . S
N863 C855 1.427 . S
N863 C861 1.384 . S
H864 C870 0.930 . S
H865 C874 0.930 . S
H866 C879 0.929 . S
H867 C877 0.929 . S
H868 C872 0.929 . S
H869 C878 0.929 . S
C870 H864 0.930 . S
C870 C871 1.367 . S
C870 C878 1.378 . S
C871 C870 1.367 . S
C871 C879 1.433 . S
C872 H868 0.929 . S
C872 C874 1.378 . S
C872 C876 1.350 . S
C873 C876 1.463 . S
C873 C878 1.350 . S
C873 N881 1.427 . S
C874 H865 0.930 . S
C874 C872 1.378 . S
C874 C875 1.367 . S
C875 C874 1.367 . S
C875 C877 1.433 . S
C876 C872 1.350 . S
C876 C873 1.463 . S
C876 N880 1.427 . S
C877 H867 0.929 . S
C877 C875 1.433 . S
C877 N880 1.384 . S
C878 H869 0.929 . S
C878 C870 1.378 . S
C878 C873 1.350 . S
C879 H866 0.929 . S
C879 C871 1.433 . S
C879 N881 1.384 . S
N880 C876 1.427 . S
N880 C877 1.384 . S
N881 C873 1.427 . S
N881 C879 1.384 . S
H882 C888 0.930 . S
H883 C892 0.930 . S
H884 C897 0.929 . S
H885 C895 0.929 . S
H886 C890 0.929 . S
H887 C896 0.929 . S
C888 H882 0.930 . S
C888 C889 1.367 . S
C888 C896 1.378 . S
C889 C888 1.367 . S
C889 C897 1.433 . S
C890 H886 0.929 . S
C890 C892 1.378 . S
C890 C894 1.350 . S
C891 C894 1.463 . S
C891 C896 1.350 . S
C891 N899 1.427 . S
C892 H883 0.930 . S
C892 C890 1.378 . S
C892 C893 1.367 . S
C893 C892 1.367 . S
C893 C895 1.433 . S
C894 C890 1.350 . S
C894 C891 1.463 . S
C894 N898 1.427 . S
C895 H885 0.929 . S
C895 C893 1.433 . S
C895 N898 1.384 . S
C896 H887 0.929 . S
C896 C888 1.378 . S
C896 C891 1.350 . S
C897 H884 0.929 . S
C897 C889 1.433 . S
C897 N899 1.384 . S
N898 C894 1.427 . S
N898 C895 1.384 . S
N899 C891 1.427 . S
N899 C897 1.384 . S
H900 C906 0.930 . S
H901 C910 0.930 . S
H902 C915 0.929 . S
H903 C913 0.929 . S
H904 C908 0.929 . S
H905 C914 0.929 . S
C906 H900 0.930 . S
C906 C907 1.367 . S
C906 C914 1.378 . S
C907 C906 1.367 . S
C907 C915 1.433 . S
C908 H904 0.929 . S
C908 C910 1.378 . S
C908 C912 1.350 . S
C909 C912 1.463 . S
C909 C914 1.350 . S
C909 N917 1.427 . S
C910 H901 0.930 . S
C910 C908 1.378 . S
C910 C911 1.367 . S
C911 C910 1.367 . S
C911 C913 1.433 . S
C912 C908 1.350 . S
C912 C909 1.463 . S
C912 N916 1.427 . S
C913 H903 0.929 . S
C913 C911 1.433 . S
C913 N916 1.384 . S
C914 H905 0.929 . S
C914 C906 1.378 . S
C914 C909 1.350 . S
C915 H902 0.929 . S
C915 C907 1.433 . S
C915 N917 1.384 . S
N916 C912 1.427 . S
N916 C913 1.384 . S
N917 C909 1.427 . S
N917 C915 1.384 . S
H918 C924 0.930 . S
H919 C928 0.930 . S
H920 C933 0.929 . S
H921 C931 0.929 . S
H922 C926 0.929 . S
H923 C932 0.929 . S
C924 H918 0.930 . S
C924 C925 1.367 . S
C924 C932 1.378 . S
C925 C924 1.367 . S
C925 C933 1.433 . S
C926 H922 0.929 . S
C926 C928 1.378 . S
C926 C930 1.350 . S
C927 C930 1.463 . S
C927 C932 1.350 . S
C927 N935 1.427 . S
C928 H919 0.930 . S
C928 C926 1.378 . S
C928 C929 1.367 . S
C929 C928 1.367 . S
C929 C931 1.433 . S
C930 C926 1.350 . S
C930 C927 1.463 . S
C930 N934 1.427 . S
C931 H921 0.929 . S
C931 C929 1.433 . S
C931 N934 1.384 . S
C932 H923 0.929 . S
C932 C924 1.378 . S
C932 C927 1.350 . S
C933 H920 0.929 . S
C933 C925 1.433 . S
C933 N935 1.384 . S
N934 C930 1.427 . S
N934 C931 1.384 . S
N935 C927 1.427 . S
N935 C933 1.384 . S
H936 C942 0.930 . S
H937 C946 0.930 . S
H938 C951 0.929 . S
H939 C949 0.929 . S
H940 C944 0.929 . S
H941 C950 0.929 . S
C942 H936 0.930 . S
C942 C943 1.367 . S
C942 C950 1.378 . S
C943 C942 1.367 . S
C943 C951 1.433 . S
C944 H940 0.929 . S
C944 C946 1.378 . S
C944 C948 1.350 . S
C945 C948 1.463 . S
C945 C950 1.350 . S
C945 N953 1.427 . S
C946 H937 0.930 . S
C946 C944 1.378 . S
C946 C947 1.367 . S
C947 C946 1.367 . S
C947 C949 1.433 . S
C948 C944 1.350 . S
C948 C945 1.463 . S
C948 N952 1.427 . S
C949 H939 0.929 . S
C949 C947 1.433 . S
C949 N952 1.384 . S
C950 H941 0.929 . S
C950 C942 1.378 . S
C950 C945 1.350 . S
C951 H938 0.929 . S
C951 C943 1.433 . S
C951 N953 1.384 . S
N952 C948 1.427 . S
N952 C949 1.384 . S
N953 C945 1.427 . S
N953 C951 1.384 . S
H954 C960 0.930 . S
H955 C964 0.930 . S
H956 C969 0.929 . S
H957 C967 0.929 . S
H958 C962 0.929 . S
H959 C968 0.929 . S
C960 H954 0.930 . S
C960 C961 1.367 . S
C960 C968 1.378 . S
C961 C960 1.367 . S
C961 C969 1.433 . S
C962 H958 0.929 . S
C962 C964 1.378 . S
C962 C966 1.350 . S
C963 C966 1.463 . S
C963 C968 1.350 . S
C963 N971 1.427 . S
C964 H955 0.930 . S
C964 C962 1.378 . S
C964 C965 1.367 . S
C965 C964 1.367 . S
C965 C967 1.433 . S
C966 C962 1.350 . S
C966 C963 1.463 . S
C966 N970 1.427 . S
C967 H957 0.929 . S
C967 C965 1.433 . S
C967 N970 1.384 . S
C968 H959 0.929 . S
C968 C960 1.378 . S
C968 C963 1.350 . S
C969 H956 0.929 . S
C969 C961 1.433 . S
C969 N971 1.384 . S
N970 C966 1.427 . S
N970 C967 1.384 . S
N971 C963 1.427 . S
N971 C969 1.384 . S
H972 C978 0.930 . S
H973 C982 0.930 . S
H974 C987 0.929 . S
H975 C985 0.929 . S
H976 C980 0.929 . S
H977 C986 0.929 . S
C978 H972 0.930 . S
C978 C979 1.367 . S
C978 C986 1.378 . S
C979 C978 1.367 . S
C979 C987 1.433 . S
C980 H976 0.929 . S
C980 C982 1.378 . S
C980 C984 1.350 . S
C981 C984 1.463 . S
C981 C986 1.350 . S
C981 N989 1.427 . S
C982 H973 0.930 . S
C982 C980 1.378 . S
C982 C983 1.367 . S
C983 C982 1.367 . S
C983 C985 1.433 . S
C984 C980 1.350 . S
C984 C981 1.463 . S
C984 N988 1.427 . S
C985 H975 0.929 . S
C985 C983 1.433 . S
C985 N988 1.384 . S
C986 H977 0.929 . S
C986 C978 1.378 . S
C986 C981 1.350 . S
C987 H974 0.929 . S
C987 C979 1.433 . S
C987 N989 1.384 . S
N988 C984 1.427 . S
N988 C985 1.384 . S
N989 C981 1.427 . S
N989 C987 1.384 . S
H990 C996 0.930 . S
H991 C1000 0.930 . S
H992 C1005 0.929 . S
H993 C1003 0.929 . S
H994 C998 0.929 . S
H995 C1004 0.929 . S
C996 H990 0.930 . S
C996 C997 1.367 . S
C996 C1004 1.378 . S
C997 C996 1.367 . S
C997 C1005 1.433 . S
C998 H994 0.929 . S
C998 C1000 1.378 . S
C998 C1002 1.350 . S
C999 C1002 1.463 . S
C999 C1004 1.350 . S
C999 N1007 1.427 . S
C1000 H991 0.930 . S
C1000 C998 1.378 . S
C1000 C1001 1.367 . S
C1001 C1000 1.367 . S
C1001 C1003 1.433 . S
C1002 C998 1.350 . S
C1002 C999 1.463 . S
C1002 N1006 1.427 . S
C1003 H993 0.929 . S
C1003 C1001 1.433 . S
C1003 N1006 1.384 . S
C1004 H995 0.929 . S
C1004 C996 1.378 . S
C1004 C999 1.350 . S
C1005 H992 0.929 . S
C1005 C997 1.433 . S
C1005 N1007 1.384 . S
N1006 C1002 1.427 . S
N1006 C1003 1.384 . S
N1007 C999 1.427 . S
N1007 C1005 1.384 . S
H1008 C1014 0.930 . S
H1009 C1018 0.930 . S
H1010 C1023 0.929 . S
H1011 C1021 0.929 . S
H1012 C1016 0.929 . S
H1013 C1022 0.929 . S
C1014 H1008 0.930 . S
C1014 C1015 1.367 . S
C1014 C1022 1.378 . S
C1015 C1014 1.367 . S
C1015 C1023 1.433 . S
C1016 H1012 0.929 . S
C1016 C1018 1.378 . S
C1016 C1020 1.350 . S
C1017 C1020 1.463 . S
C1017 C1022 1.350 . S
C1017 N1025 1.427 . S
C1018 H1009 0.930 . S
C1018 C1016 1.378 . S
C1018 C1019 1.367 . S
C1019 C1018 1.367 . S
C1019 C1021 1.433 . S
C1020 C1016 1.350 . S
C1020 C1017 1.463 . S
C1020 N1024 1.427 . S
C1021 H1011 0.929 . S
C1021 C1019 1.433 . S
C1021 N1024 1.384 . S
C1022 H1013 0.929 . S
C1022 C1014 1.378 . S
C1022 C1017 1.350 . S
C1023 H1010 0.929 . S
C1023 C1015 1.433 . S
C1023 N1025 1.384 . S
N1024 C1020 1.427 . S
N1024 C1021 1.384 . S
N1025 C1017 1.427 . S
N1025 C1023 1.384 . S
H1026 C1032 0.930 . S
H1027 C1036 0.930 . S
H1028 C1041 0.929 . S
H1029 C1039 0.929 . S
H1030 C1034 0.929 . S
H1031 C1040 0.929 . S
C1032 H1026 0.930 . S
C1032 C1033 1.367 . S
C1032 C1040 1.378 . S
C1033 C1032 1.367 . S
C1033 C1041 1.433 . S
C1034 H1030 0.929 . S
C1034 C1036 1.378 . S
C1034 C1038 1.350 . S
C1035 C1038 1.463 . S
C1035 C1040 1.350 . S
C1035 N1043 1.427 . S
C1036 H1027 0.930 . S
C1036 C1034 1.378 . S
C1036 C1037 1.367 . S
C1037 C1036 1.367 . S
C1037 C1039 1.433 . S
C1038 C1034 1.350 . S
C1038 C1035 1.463 . S
C1038 N1042 1.427 . S
C1039 H1029 0.929 . S
C1039 C1037 1.433 . S
C1039 N1042 1.384 . S
C1040 H1031 0.929 . S
C1040 C1032 1.378 . S
C1040 C1035 1.350 . S
C1041 H1028 0.929 . S
C1041 C1033 1.433 . S
C1041 N1043 1.384 . S
N1042 C1038 1.427 . S
N1042 C1039 1.384 . S
N1043 C1035 1.427 . S
N1043 C1041 1.384 . S
H1044 C1050 0.930 . S
H1045 C1054 0.930 . S
H1046 C1059 0.929 . S
H1047 C1057 0.929 . S
H1048 C1052 0.929 . S
H1049 C1058 0.929 . S
C1050 H1044 0.930 . S
C1050 C1051 1.367 . S
C1050 C1058 1.378 . S
C1051 C1050 1.367 . S
C1051 C1059 1.433 . S
C1052 H1048 0.929 . S
C1052 C1054 1.378 . S
C1052 C1056 1.350 . S
C1053 C1056 1.463 . S
C1053 C1058 1.350 . S
C1053 N1061 1.427 . S
C1054 H1045 0.930 . S
C1054 C1052 1.378 . S
C1054 C1055 1.367 . S
C1055 C1054 1.367 . S
C1055 C1057 1.433 . S
C1056 C1052 1.350 . S
C1056 C1053 1.463 . S
C1056 N1060 1.427 . S
C1057 H1047 0.929 . S
C1057 C1055 1.433 . S
C1057 N1060 1.384 . S
C1058 H1049 0.929 . S
C1058 C1050 1.378 . S
C1058 C1053 1.350 . S
C1059 H1046 0.929 . S
C1059 C1051 1.433 . S
C1059 N1061 1.384 . S
N1060 C1056 1.427 . S
N1060 C1057 1.384 . S
N1061 C1053 1.427 . S
N1061 C1059 1.384 . S
H1062 C1068 0.930 . S
H1063 C1072 0.913 1_655 S
H1064 C1077 0.929 . S
H1065 C1075 0.929 . S
H1066 C1070 0.929 . S
H1067 C1076 0.929 . S
C1068 H1062 0.930 . S
C1068 C1069 1.367 . S
C1068 C1076 1.378 . S
C1069 C1068 1.367 . S
C1069 C1077 1.433 . S
C1070 H1066 0.929 . S
C1070 C1072 1.378 . S
C1070 C1074 1.350 . S
C1071 C1074 1.463 . S
C1071 C1076 1.350 . S
C1071 N1079 1.427 . S
C1072 H1063 0.913 1_455 S
C1072 C1070 1.378 . S
C1072 C1073 1.367 . S
C1073 C1072 1.367 . S
C1073 C1075 1.433 . S
C1074 C1070 1.350 . S
C1074 C1071 1.463 . S
C1074 N1078 1.427 . S
C1075 H1065 0.929 . S
C1075 C1073 1.433 . S
C1075 N1078 1.384 . S
C1076 H1067 0.929 . S
C1076 C1068 1.378 . S
C1076 C1071 1.350 . S
C1077 H1064 0.929 . S
C1077 C1069 1.433 . S
C1077 N1079 1.384 . S
N1078 C1074 1.427 . S
N1078 C1075 1.384 . S
N1079 C1071 1.427 . S
N1079 C1077 1.384 . S
C655 C235 1.480 . S
C659 C386 1.462 . S
C677 C470 1.463 . S
C673 C289 1.476 . S
C695 C463 1.472 . S
C691 C157 1.470 . S
C709 C211 1.473 . S
C713 C379 1.473 . S
C731 C543 1.465 . S
C727 C79 1.479 . S
C749 C627 1.473 . S
C745 C118 1.482 . S
C763 C1 1.475 . S
C767 C620 1.474 . S
C781 C40 1.478 . S
C785 C536 1.478 . S
C803 C370 1.326 . S
C799 C55 1.514 1_554 S
C821 C454 1.349 . S
C817 C16 1.517 . S
C839 C465 1.403 . S
C835 C133 1.536 1_556 S
C857 C381 1.396 . S
C853 C94 1.536 . S
C875 C549 1.343 . S
C871 C196 1.522 1_556 S
C889 C172 1.520 . S
C893 C633 1.330 . S
C911 C622 1.412 . S
C907 C274 1.541 1_554 S
C925 C250 1.540 . S
C929 C538 1.395 . S
C947 C368 1.576 . S
C943 C21 1.573 . S
C965 C452 1.584 . S
C961 C60 1.582 . S
C979 C99 1.565 . S
C983 C459 1.560 . S
C1001 C375 1.559 . S
C997 C138 1.574 . S
C1019 C547 1.586 . S
C1015 C177 1.576 . S
C1033 C216 1.577 . S
C1037 C631 1.581 . S
C1051 C255 1.570 . S
C1055 C638 1.568 . S
C1069 C294 1.567 . S
C1073 C554 1.564 . S
