# Generated by pormake.
# Topology nom, (4,4)-cn, num edge types: 1
# Building blocks:
#     Node 0, Type 0, BuildingBlock: KUFVIS_clean_linker_0, # of connection points: 4
#     Node 1, Type 0, BuildingBlock: KUFVIS_clean_linker_0, # of connection points: 4
#     Node 2, Type 0, BuildingBlock: KUFVIS_clean_linker_0, # of connection points: 4
#     Node 3, Type 0, BuildingBlock: KUFVIS_clean_linker_0, # of connection points: 4
#     Node 4, Type 0, BuildingBlock: KUFVIS_clean_linker_0, # of connection points: 4
#     Node 5, Type 0, BuildingBlock: KUFVIS_clean_linker_0, # of connection points: 4
#     Node 6, Type 1, BuildingBlock: CEKHIL_clean_sbu_0, # of connection points: 4
#     Node 7, Type 1, BuildingBlock: CEKHIL_clean_sbu_0, # of connection points: 4
#     Node 8, Type 1, BuildingBlock: CEKHIL_clean_sbu_0, # of connection points: 4
#     Node 9, Type 1, BuildingBlock: CEKHIL_clean_sbu_0, # of connection points: 4
#     Node 10, Type 1, BuildingBlock: CEKHIL_clean_sbu_0, # of connection points: 4
#     Node 11, Type 1, BuildingBlock: CEKHIL_clean_sbu_0, # of connection points: 4
#     Edge 12, Type (0, 1), BuildingBlock: ZUJKAS_clean_linker_0, # of connection points: 2
#     Edge 13, Type (0, 1), BuildingBlock: ZUJKAS_clean_linker_0, # of connection points: 2
#     Edge 14, Type (0, 1), BuildingBlock: ZUJKAS_clean_linker_0, # of connection points: 2
#     Edge 15, Type (0, 1), BuildingBlock: ZUJKAS_clean_linker_0, # of connection points: 2
#     Edge 16, Type (0, 1), BuildingBlock: ZUJKAS_clean_linker_0, # of connection points: 2
#     Edge 17, Type (0, 1), BuildingBlock: ZUJKAS_clean_linker_0, # of connection points: 2
#     Edge 18, Type (0, 1), BuildingBlock: ZUJKAS_clean_linker_0, # of connection points: 2
#     Edge 19, Type (0, 1), BuildingBlock: ZUJKAS_clean_linker_0, # of connection points: 2
#     Edge 20, Type (0, 1), BuildingBlock: ZUJKAS_clean_linker_0, # of connection points: 2
#     Edge 21, Type (0, 1), BuildingBlock: ZUJKAS_clean_linker_0, # of connection points: 2
#     Edge 22, Type (0, 1), BuildingBlock: ZUJKAS_clean_linker_0, # of connection points: 2
#     Edge 23, Type (0, 1), BuildingBlock: ZUJKAS_clean_linker_0, # of connection points: 2
#     Edge 24, Type (0, 1), BuildingBlock: ZUJKAS_clean_linker_0, # of connection points: 2
#     Edge 25, Type (0, 1), BuildingBlock: ZUJKAS_clean_linker_0, # of connection points: 2
#     Edge 26, Type (0, 1), BuildingBlock: ZUJKAS_clean_linker_0, # of connection points: 2
#     Edge 27, Type (0, 1), BuildingBlock: ZUJKAS_clean_linker_0, # of connection points: 2
#     Edge 28, Type (0, 1), BuildingBlock: ZUJKAS_clean_linker_0, # of connection points: 2
#     Edge 29, Type (0, 1), BuildingBlock: ZUJKAS_clean_linker_0, # of connection points: 2
#     Edge 30, Type (0, 1), BuildingBlock: ZUJKAS_clean_linker_0, # of connection points: 2
#     Edge 31, Type (0, 1), BuildingBlock: ZUJKAS_clean_linker_0, # of connection points: 2
#     Edge 32, Type (0, 1), BuildingBlock: ZUJKAS_clean_linker_0, # of connection points: 2
#     Edge 33, Type (0, 1), BuildingBlock: ZUJKAS_clean_linker_0, # of connection points: 2
#     Edge 34, Type (0, 1), BuildingBlock: ZUJKAS_clean_linker_0, # of connection points: 2
#     Edge 35, Type (0, 1), BuildingBlock: ZUJKAS_clean_linker_0, # of connection points: 2
# Relax obj value: 0.004
# Max RMSD: 0.049
# Mean RMSD: 0.042
data_MOF--net-nom--node1-CEKHIL_clean_sbu_0--node2-KUFVIS_clean_linker_0--edge1-ZUJKAS_clean_linker_0
_symmetry_space_group_name_H-M    P1
_symmetry_Int_Tables_number       1
_symmetry_cell_setting            triclinic
loop_
_symmetry_equiv_pos_as_xyz
'x, y, z'
_cell_length_a     59.43526
_cell_length_b     58.869252
_cell_length_c     59.440825
_cell_angle_alpha  89.89913
_cell_angle_beta   90.080228
_cell_angle_gamma 120.98193
loop_
_atom_site_label
_atom_site_type_symbol
_atom_site_fract_x
_atom_site_fract_y
_atom_site_fract_z
_atom_type_partial_charge
H0 H 0.10949 0.5787 0.35429 0.0
H1 H 0.055 0.56735 0.3021 0.0
H2 H 0.02785 0.53955 0.37011 0.0
H3 H 0.99279 0.54063 0.35976 0.0
H4 H 0.93574 0.50207 0.30773 0.0
H5 H 0.01667 0.53327 0.29238 0.0
C6 C 0.08941 0.57099 0.3488 0.0
C7 C 0.06922 0.55943 0.36457 0.0
C8 C 0.08438 0.57351 0.32627 0.0
C9 C 0.0584 0.56449 0.31947 0.0
C10 C 0.03718 0.55152 0.33492 0.0
C11 C 0.04318 0.54947 0.35769 0.0
C12 C 1.009 0.53909 0.32718 0.0
C13 C 0.98853 0.53414 0.34245 0.0
C14 C 0.9621 0.52013 0.33554 0.0
C15 C 0.95609 0.51229 0.31314 0.0
C16 C 0.9757 0.51751 0.29754 0.0
C17 C 1.00202 0.53067 0.30455 0.0
H18 H 0.54175 0.10162 0.51458 0.0
H19 H 0.50487 0.04903 0.459 0.0
H20 H 0.50011 0.01818 0.52643 0.0
H21 H 0.46433 0.9831 0.51362 0.0
H22 H 0.44726 0.9291 0.45913 0.0
H23 H 0.50176 0.01146 0.44852 0.0
C24 C 0.53043 0.0816 0.508 0.0
C25 C 0.52087 0.06028 0.52286 0.0
C26 C 0.52515 0.07767 0.48498 0.0
C27 C 0.50953 0.05166 0.47676 0.0
C28 C 0.50033 0.02944 0.49135 0.0
C29 C 0.50623 0.0343 0.51462 0.0
C30 C 0.4852 1.00146 0.48239 0.0
C31 C 0.46783 0.97987 0.4964 0.0
C32 C 0.45416 0.95375 0.4881 0.0
C33 C 0.45754 0.94918 0.46566 0.0
C34 C 0.47426 0.96992 0.45146 0.0
C35 C 0.48827 0.99592 0.45975 0.0
H36 H 0.53798 0.44185 0.63147 0.0
H37 H 0.49335 0.45126 0.68317 0.0
H38 H 0.49849 0.48344 0.61622 0.0
H39 H 0.4625 0.48292 0.62561 0.0
H40 H 0.442 0.51783 0.6788 0.0
H41 H 0.48964 0.48493 0.694 0.0
C42 C 0.52581 0.44958 0.63699 0.0
C43 C 0.51854 0.46245 0.62148 0.0
C44 C 0.51716 0.44586 0.65927 0.0
C45 C 0.50049 0.45502 0.66604 0.0
C46 C 0.49361 0.46926 0.65089 0.0
C47 C 0.50278 0.47252 0.62839 0.0
C48 C 0.47804 0.4816 0.65868 0.0
C49 C 0.46376 0.48799 0.64323 0.0
C50 C 0.4514 0.50171 0.65038 0.0
C51 C 0.45183 0.50761 0.67316 0.0
C52 C 0.46497 0.50096 0.6888 0.0
C53 C 0.47841 0.48846 0.68163 0.0
H54 H 0.10908 0.51473 0.80145 0.0
H55 H 0.05539 0.48384 0.85699 0.0
H56 H 0.0286 0.49012 0.79057 0.0
H57 H 0.99135 0.45289 0.80267 0.0
H58 H 0.93919 0.44344 0.85642 0.0
H59 H 0.02207 0.4905 0.8673 0.0
C60 C 0.08934 0.50619 0.8081 0.0
C61 C 0.06924 0.50244 0.79364 0.0
C62 C 0.08467 0.49979 0.83095 0.0
C63 C 0.05902 0.48932 0.83939 0.0
C64 C 0.03812 0.48518 0.82498 0.0
C65 C 0.04376 0.49221 0.80199 0.0
C66 C 1.01057 0.47353 0.83371 0.0
C67 C 0.98859 0.45751 0.81969 0.0
C68 C 0.96282 0.44646 0.82788 0.0
C69 C 0.959 0.45169 0.85001 0.0
C70 C 0.98016 0.46722 0.86418 0.0
C71 C 1.00591 0.47816 0.85614 0.0
H72 H 0.53049 0.93446 0.0144 0.0
H73 H 0.5555 0.98965 0.95977 0.0
H74 H 0.54936 0.01361 0.02749 0.0
H75 H 0.58066 0.05317 0.01648 0.0
H76 H 0.58775 0.10572 0.96351 0.0
H77 H 0.55133 0.02302 0.94946 0.0
C78 C 0.53775 0.95444 0.00829 0.0
C79 C 0.54075 0.97385 0.02346 0.0
C80 C 0.54233 0.95981 0.98531 0.0
C81 C 0.5511 0.98566 0.97748 0.0
C82 C 0.55453 1.006 0.9925 0.0
C83 C 0.54842 0.99932 0.01554 0.0
C84 C 0.56405 0.03386 0.98431 0.0
C85 C 0.57667 0.05582 0.99922 0.0
C86 C 0.58439 0.08161 0.99197 0.0
C87 C 0.58065 0.08571 0.96946 0.0
C88 C 0.56937 0.06481 0.95412 0.0
C89 C 0.56079 0.03893 0.96155 0.0
H90 H 0.51574 0.59837 0.1284 0.0
H91 H 0.55799 0.58547 0.18052 0.0
H92 H 0.54749 0.54905 0.11491 0.0
H93 H 0.58695 0.55368 0.12392 0.0
H94 H 0.60582 0.51619 0.1763 0.0
H95 H 0.55597 0.54687 0.19132 0.0
C96 C 0.52662 0.58926 0.13418 0.0
C97 C 0.53083 0.5735 0.11935 0.0
C98 C 0.53635 0.59376 0.15617 0.0
C99 C 0.55018 0.58159 0.16357 0.0
C100 C 0.5547 0.56534 0.14884 0.0
C101 C 0.54485 0.56159 0.12658 0.0
C102 C 0.56947 0.55224 0.15657 0.0
C103 C 0.58482 0.54728 0.14128 0.0
C104 C 0.59776 0.53416 0.14842 0.0
C105 C 0.5958 0.52631 0.17082 0.0
C106 C 0.5811 0.53113 0.18628 0.0
C107 C 0.5679 0.54401 0.17924 0.0
Co108 Co 0.65215 0.38885 0.4029 0.0
O109 O 0.6803 0.39131 0.38469 0.0
O110 O 0.68492 0.42111 0.40972 0.0
C111 C 0.63519 0.34577 0.41289 0.0
O112 O 0.62894 0.39331 0.42565 0.0
Co113 Co 0.5932 0.34993 0.39251 0.0
O114 O 0.58664 0.36137 0.42187 0.0
C115 C 0.62349 0.39873 0.36526 0.0
C116 C 0.69582 0.41335 0.39511 0.0
C117 C 0.6048 0.38156 0.43205 0.0
O118 O 0.64322 0.40745 0.37881 0.0
O119 O 0.60309 0.37551 0.36686 0.0
O120 O 0.65532 0.36453 0.42352 0.0
O121 O 0.62717 0.3534 0.39594 0.0
Co122 Co 0.28529 0.64371 0.57824 0.0
O123 O 0.31153 0.64148 0.59583 0.0
O124 O 0.28535 0.61164 0.57097 0.0
C125 C 0.31155 0.68694 0.56837 0.0
O126 O 0.25684 0.63902 0.55615 0.0
Co127 Co 0.26577 0.68224 0.58964 0.0
O128 O 0.24654 0.67046 0.56066 0.0
C129 C 0.24731 0.63332 0.61651 0.0
C130 C 0.30441 0.61942 0.58536 0.0
C131 C 0.24416 0.65042 0.55027 0.0
O132 O 0.25798 0.62478 0.60264 0.0
O133 O 0.25041 0.65649 0.61521 0.0
O134 O 0.31258 0.66847 0.55728 0.0
O135 O 0.29619 0.67894 0.58557 0.0
Co136 Co 0.65519 0.27729 0.73686 0.0
O137 O 0.65285 0.30345 0.71891 0.0
O138 O 0.62352 0.27758 0.74417 0.0
C139 C 0.69813 0.30389 0.7464 0.0
O140 O 0.65082 0.24895 0.7593 0.0
Co141 Co 0.69316 0.25745 0.72511 0.0
O142 O 0.6817 0.23827 0.7542 0.0
C143 C 0.64394 0.23782 0.69922 0.0
C144 C 0.63111 0.29651 0.72946 0.0
C145 C 0.66214 0.23609 0.76495 0.0
O146 O 0.63598 0.24921 0.71293 0.0
O147 O 0.66689 0.24093 0.70019 0.0
O148 O 0.67994 0.30518 0.75744 0.0
O149 O 0.69003 0.28821 0.72931 0.0
Co150 Co 0.39672 0.64826 0.90186 0.0
O151 O 0.36811 0.64506 0.88373 0.0
O152 O 0.36404 0.61662 0.91003 0.0
C153 C 0.41436 0.69188 0.91016 0.0
O154 O 0.42031 0.64449 0.9247 0.0
Co155 Co 0.45548 0.68622 0.89042 0.0
O156 O 0.46275 0.67548 0.91991 0.0
C157 C 0.42419 0.63632 0.86474 0.0
C158 C 0.35283 0.6236 0.89501 0.0
C159 C 0.44457 0.65591 0.93068 0.0
O160 O 0.40469 0.62831 0.87843 0.0
O161 O 0.44477 0.65947 0.86573 0.0
O162 O 0.39461 0.67382 0.92166 0.0
O163 O 0.42169 0.68324 0.8935 0.0
Co164 Co 0.76555 0.39242 0.07744 0.0
O165 O 0.74081 0.39492 0.09691 0.0
O166 O 0.76431 0.42393 0.07047 0.0
C167 C 0.73878 0.34887 0.06887 0.0
O168 O 0.79215 0.39677 0.05342 0.0
Co169 Co 0.78673 0.35477 0.0868 0.0
O170 O 0.80221 0.36499 0.05636 0.0
C171 C 0.81013 0.40645 0.11039 0.0
C172 C 0.74658 0.41646 0.08608 0.0
C173 C 0.80404 0.38501 0.04633 0.0
O174 O 0.79503 0.41261 0.09985 0.0
O175 O 0.80902 0.38427 0.10815 0.0
O176 O 0.73655 0.36698 0.05832 0.0
O177 O 0.75565 0.35735 0.08506 0.0
Co178 Co 0.39045 0.75421 0.23648 0.0
O179 O 0.39328 0.72949 0.21686 0.0
O180 O 0.4223 0.75403 0.24284 0.0
C181 C 0.34766 0.72647 0.24593 0.0
O182 O 0.39485 0.78098 0.2605 0.0
Co183 Co 0.35176 0.77415 0.22852 0.0
O184 O 0.36335 0.79116 0.2584 0.0
C185 C 0.40107 0.79688 0.20196 0.0
C186 C 0.415 0.73602 0.22736 0.0
C187 C 0.38349 0.79312 0.26791 0.0
O188 O 0.40908 0.78383 0.21359 0.0
O189 O 0.3783 0.79393 0.20441 0.0
O190 O 0.36614 0.72479 0.25608 0.0
O191 O 0.35537 0.74339 0.22969 0.0
H192 H 0.1003 0.61647 0.29844 0.0
H193 H 0.14296 0.64179 0.27925 0.0
H194 H 0.16288 0.58444 0.30131 0.0
H195 H 0.12037 0.559 0.31976 0.0
H196 H 0.18961 0.66519 0.30047 0.0
H197 H 0.18898 0.5956 0.23795 0.0
H198 H 0.15938 0.59006 0.25144 0.0
H199 H 0.18045 0.58078 0.26534 0.0
C200 C 0.11345 0.60885 0.29842 0.0
C201 C 0.10703 0.58577 0.31052 0.0
C202 C 0.1379 0.62341 0.28765 0.0
C203 C 0.15615 0.61495 0.28863 0.0
C204 C 0.14907 0.59116 0.29979 0.0
H205 H 0.32431 0.68518 0.276 0.0
H206 H 0.27748 0.6586 0.28574 0.0
C207 C 0.12477 0.57668 0.31047 0.0
C208 C 0.18354 0.63212 0.28029 0.0
H209 H 0.23169 0.63132 0.24942 0.0
C210 C 0.19865 0.6579 0.28901 0.0
C211 C 0.1955 0.62265 0.26541 0.0
C212 C 0.18013 0.59585 0.25433 0.0
C213 C 0.22548 0.67402 0.28389 0.0
C214 C 0.23754 0.66416 0.26971 0.0
C215 C 0.22242 0.63868 0.26055 0.0
C216 C 0.26584 0.68025 0.26397 0.0
C217 C 0.24102 0.70129 0.29412 0.0
C218 C 0.27471 0.70113 0.2485 0.0
C219 C 0.30131 0.71618 0.24283 0.0
C220 C 0.31964 0.71076 0.25262 0.0
C221 C 0.31072 0.68991 0.26825 0.0
C222 C 0.28399 0.67468 0.27377 0.0
H223 H 0.22952 0.70491 0.30681 0.0
H224 H 0.25909 0.70398 0.30222 0.0
H225 H 0.24718 0.71643 0.28064 0.0
H226 H 0.26099 0.70566 0.2407 0.0
H227 H 0.30748 0.73205 0.2307 0.0
H228 H 0.49927 0.09229 0.45539 0.0
H229 H 0.51685 0.13607 0.43772 0.0
H230 H 0.5932 0.16097 0.46551 0.0
H231 H 0.57597 0.1174 0.48249 0.0
H232 H 0.53632 0.18185 0.4608 0.0
H233 H 0.61355 0.19101 0.40338 0.0
H234 H 0.58885 0.15957 0.415 0.0
H235 H 0.61767 0.18167 0.4311 0.0
C236 C 0.51999 0.10685 0.45698 0.0
C237 C 0.53628 0.10146 0.47025 0.0
C238 C 0.52998 0.13192 0.44707 0.0
C239 C 0.55645 0.15184 0.45008 0.0
C240 C 0.57292 0.1459 0.46244 0.0
H241 H 0.65241 0.32266 0.44304 0.0
H242 H 0.63222 0.27521 0.45148 0.0
C243 C 0.563 0.12099 0.47228 0.0
C244 C 0.5664 0.17958 0.44256 0.0
H245 H 0.61745 0.23205 0.41539 0.0
C246 C 0.5538 0.19267 0.45055 0.0
C247 C 0.58932 0.19385 0.42927 0.0
C248 C 0.60295 0.18069 0.41901 0.0
C249 C 0.56401 0.21976 0.44631 0.0
C250 C 0.58739 0.23415 0.43372 0.0
C251 C 0.59969 0.22102 0.42528 0.0
C252 C 0.59926 0.26285 0.42902 0.0
C253 C 0.55023 0.23311 0.45585 0.0
C254 C 0.58738 0.27155 0.41364 0.0
C255 C 0.59891 0.29853 0.40871 0.0
C256 C 0.62249 0.31739 0.41916 0.0
C257 C 0.63419 0.30865 0.4348 0.0
C258 C 0.62274 0.28157 0.43957 0.0
H259 H 0.53451 0.22017 0.46791 0.0
H260 H 0.56452 0.25176 0.46453 0.0
H261 H 0.54126 0.23834 0.44193 0.0
H262 H 0.56935 0.2574 0.40522 0.0
H263 H 0.58941 0.30458 0.39655 0.0
H264 H 0.40786 0.47292 0.62375 0.0
H265 H 0.38189 0.48955 0.60542 0.0
H266 H 0.43962 0.56909 0.62565 0.0
H267 H 0.46556 0.55267 0.6433 0.0
H268 H 0.35947 0.51281 0.6271 0.0
H269 H 0.42579 0.5832 0.56298 0.0
H270 H 0.43188 0.55918 0.57606 0.0
H271 H 0.44189 0.59029 0.58975 0.0
C272 C 0.4154 0.49404 0.62343 0.0
C273 C 0.43883 0.51157 0.63468 0.0
C274 C 0.40047 0.50353 0.61317 0.0
C275 C 0.40888 0.53069 0.61387 0.0
C276 C 0.43294 0.54822 0.62426 0.0
H277 H 0.34873 0.63464 0.61013 0.0
H278 H 0.37233 0.61101 0.61512 0.0
C279 C 0.44776 0.5388 0.63443 0.0
C280 C 0.39152 0.5406 0.60618 0.0
H281 H 0.392 0.59101 0.577 0.0
C282 C 0.36638 0.52953 0.61574 0.0
C283 C 0.40043 0.56249 0.59139 0.0
C284 C 0.42637 0.57426 0.57929 0.0
C285 C 0.35061 0.5406 0.61187 0.0
C286 C 0.36016 0.56329 0.59804 0.0
C287 C 0.38481 0.57376 0.58778 0.0
C288 C 0.34543 0.57724 0.59496 0.0
C289 C 0.32432 0.52874 0.62336 0.0
C290 C 0.32245 0.56611 0.58193 0.0
C291 C 0.30895 0.57965 0.57894 0.0
C292 C 0.31811 0.60453 0.58904 0.0
C293 C 0.34105 0.61549 0.6022 0.0
C294 C 0.35463 0.60205 0.60501 0.0
H295 H 0.32098 0.51296 0.63554 0.0
H296 H 0.32276 0.54439 0.63238 0.0
H297 H 0.3085 0.52005 0.61053 0.0
H298 H 0.31511 0.54706 0.5739 0.0
H299 H 0.2914 0.57068 0.56866 0.0
H300 H 0.94974 0.45684 0.78633 0.0
H301 H 0.90649 0.43222 0.76797 0.0
H302 H 0.87902 0.3737 0.82087 0.0
H303 H 0.9221 0.39768 0.83873 0.0
H304 H 0.85982 0.35082 0.78078 0.0
H305 H 0.84458 0.43556 0.79265 0.0
H306 H 0.87264 0.4428 0.7759 0.0
H307 H 0.87176 0.43465 0.80518 0.0
C308 C 0.93464 0.43834 0.79362 0.0
C309 C 0.93918 0.42927 0.81403 0.0
C310 C 0.90983 0.42449 0.78334 0.0
C311 C 0.88923 0.40147 0.79338 0.0
C312 C 0.89443 0.39151 0.81289 0.0
H313 H 0.72056 0.33318 0.78465 0.0
H314 H 0.76716 0.35677 0.7952 0.0
C315 C 0.91909 0.40523 0.82308 0.0
C316 C 0.86187 0.3882 0.78452 0.0
H317 H 0.81022 0.39734 0.7754 0.0
C318 C 0.84904 0.36105 0.77945 0.0
C319 C 0.84757 0.40138 0.78325 0.0
C320 C 0.85969 0.43014 0.78971 0.0
C321 C 0.82238 0.34671 0.77332 0.0
C322 C 0.80822 0.35999 0.77163 0.0
C323 C 0.82108 0.38718 0.77657 0.0
C324 C 0.77997 0.34596 0.76511 0.0
C325 C 0.80946 0.31724 0.76954 0.0
C326 C 0.77165 0.33236 0.74457 0.0
C327 C 0.74508 0.31868 0.73867 0.0
C328 C 0.72622 0.31863 0.75298 0.0
C329 C 0.73459 0.33276 0.77331 0.0
C330 C 0.76122 0.34629 0.77932 0.0
H331 H 0.82055 0.30903 0.7778 0.0
H332 H 0.78904 0.3065 0.77604 0.0
H333 H 0.80886 0.31333 0.75123 0.0
H334 H 0.78573 0.33238 0.73302 0.0
H335 H 0.73935 0.30825 0.72275 0.0
H336 H 0.55747 0.92351 0.98942 0.0
H337 H 0.53743 0.88026 0.97142 0.0
H338 H 0.49183 0.90102 0.92887 0.0
H339 H 0.51121 0.94422 0.94769 0.0
H340 H 0.46099 0.85503 0.94856 0.0
H341 H 0.5449 0.85149 0.91343 0.0
H342 H 0.55034 0.86014 0.94263 0.0
H343 H 0.54787 0.88203 0.92286 0.0
C344 C 0.5437 0.91915 0.97579 0.0
C345 C 0.53588 0.93726 0.97 0.0
C346 C 0.53233 0.8944 0.96539 0.0
C347 C 0.5132 0.88729 0.9486 0.0
C348 C 0.50657 0.90602 0.94174 0.0
H349 H 0.44861 0.73287 0.88364 0.0
H350 H 0.47097 0.78022 0.89167 0.0
C351 C 0.51788 0.93084 0.9523 0.0
C352 C 0.49831 0.85945 0.94017 0.0
H353 H 0.50597 0.80912 0.92114 0.0
C354 C 0.47082 0.84511 0.94223 0.0
C355 C 0.51095 0.84642 0.93166 0.0
C356 C 0.54011 0.86095 0.92729 0.0
C357 C 0.4558 0.81803 0.93677 0.0
C358 C 0.46864 0.80458 0.92973 0.0
C359 C 0.49604 0.81916 0.92692 0.0
C360 C 0.45415 0.77556 0.92485 0.0
C361 C 0.4263 0.80429 0.93837 0.0
C362 C 0.43725 0.75689 0.94085 0.0
C363 C 0.42403 0.72966 0.93611 0.0
C364 C 0.42795 0.72056 0.9155 0.0
C365 C 0.44518 0.73922 0.89971 0.0
C366 C 0.45802 0.76636 0.90429 0.0
H367 H 0.41948 0.81859 0.93668 0.0
H368 H 0.41658 0.78887 0.92519 0.0
H369 H 0.41991 0.79468 0.9551 0.0
H370 H 0.43448 0.76332 0.95712 0.0
H371 H 0.41107 0.71576 0.9487 0.0
H372 H 0.58042 0.48926 0.12405 0.0
H373 H 0.60755 0.47234 0.10921 0.0
H374 H 0.67744 0.54647 0.12566 0.0
H375 H 0.65025 0.56319 0.14079 0.0
H376 H 0.64866 0.48835 0.07715 0.0
H377 H 0.68269 0.49163 0.16482 0.0
H378 H 0.65552 0.49596 0.15811 0.0
H379 H 0.68867 0.52282 0.15413 0.0
C380 C 0.60155 0.50226 0.12361 0.0
C381 C 0.6133 0.52766 0.13317 0.0
C382 C 0.61705 0.49253 0.11532 0.0
C383 C 0.64455 0.50795 0.11669 0.0
C384 C 0.65628 0.53408 0.12472 0.0
H385 H 0.75375 0.46144 0.06544 0.0
H386 H 0.72964 0.48428 0.07213 0.0
C387 C 0.64077 0.54377 0.13305 0.0
C388 C 0.66071 0.49584 0.11182 0.0
H389 H 0.70116 0.47788 0.13678 0.0
C390 C 0.66026 0.48618 0.09013 0.0
C391 C 0.67541 0.49249 0.1289 0.0
C392 C 0.6755 0.50102 0.15286 0.0
C393 C 0.6743 0.47351 0.08504 0.0
C394 C 0.68948 0.47072 0.10201 0.0
C395 C 0.68976 0.48024 0.12371 0.0
C396 C 0.70445 0.45712 0.09793 0.0
C397 C 0.67214 0.46255 0.06169 0.0
C398 C 0.69894 0.43469 0.11065 0.0
C399 C 0.71285 0.42174 0.10701 0.0
C400 C 0.73271 0.43099 0.09062 0.0
C401 C 0.73852 0.45372 0.07815 0.0
C402 C 0.72459 0.46669 0.08181 0.0
H403 H 0.65484 0.46036 0.0525 0.0
H404 H 0.68998 0.47631 0.05196 0.0
H405 H 0.67063 0.44296 0.06233 0.0
H406 H 0.68361 0.42699 0.12328 0.0
H407 H 0.70784 0.4043 0.11692 0.0
H408 H 0.40419 0.91446 0.47906 0.0
H409 H 0.37974 0.8712 0.49719 0.0
H410 H 0.4406 0.89637 0.54727 0.0
H411 H 0.46565 0.93974 0.5286 0.0
H412 H 0.42924 0.8501 0.52839 0.0
H413 H 0.33623 0.84286 0.55301 0.0
H414 H 0.34337 0.85149 0.52389 0.0
H415 H 0.36493 0.87392 0.54519 0.0
C416 C 0.41205 0.91101 0.49428 0.0
C417 C 0.43683 0.93047 0.50242 0.0
C418 C 0.39797 0.88628 0.50472 0.0
C419 C 0.40815 0.88049 0.52374 0.0
C420 C 0.43229 0.9004 0.53266 0.0
H421 H 0.31632 0.72852 0.59227 0.0
H422 H 0.34097 0.77545 0.58249 0.0
C423 C 0.44646 0.92525 0.52215 0.0
C424 C 0.39478 0.85293 0.53272 0.0
H425 H 0.33505 0.80153 0.54928 0.0
C426 C 0.40873 0.83959 0.53326 0.0
C427 C 0.36808 0.83918 0.53927 0.0
C428 C 0.35238 0.85271 0.54054 0.0
C429 C 0.39653 0.81274 0.53946 0.0
C430 C 0.36942 0.79858 0.54472 0.0
C431 C 0.35571 0.81217 0.54489 0.0
C432 C 0.35496 0.76984 0.5506 0.0
C433 C 0.41294 0.79995 0.54053 0.0
C434 C 0.35434 0.75083 0.53586 0.0
C435 C 0.34039 0.72383 0.54155 0.0
C436 C 0.32646 0.71534 0.56191 0.0
C437 C 0.32682 0.73437 0.57644 0.0
C438 C 0.34092 0.76127 0.57086 0.0
H439 H 0.43409 0.81493 0.54277 0.0
H440 H 0.40658 0.78543 0.55454 0.0
H441 H 0.4108 0.78937 0.52451 0.0
H442 H 0.3644 0.75681 0.51985 0.0
H443 H 0.34032 0.70963 0.52995 0.0
H444 H 0.48758 0.40156 0.68541 0.0
H445 H 0.50305 0.37494 0.70456 0.0
H446 H 0.58258 0.43239 0.6855 0.0
H447 H 0.56737 0.45905 0.6671 0.0
H448 H 0.52639 0.35163 0.68418 0.0
H449 H 0.59429 0.41889 0.74907 0.0
H450 H 0.57104 0.42511 0.73501 0.0
H451 H 0.60224 0.43495 0.72218 0.0
C452 C 0.50842 0.40887 0.68606 0.0
C453 C 0.52628 0.4324 0.67484 0.0
C454 C 0.51725 0.39357 0.69681 0.0
C455 C 0.54408 0.40174 0.69674 0.0
C456 C 0.56192 0.42586 0.68637 0.0
H457 H 0.64601 0.34055 0.70377 0.0
H458 H 0.62254 0.36416 0.69795 0.0
C459 C 0.55317 0.44105 0.6757 0.0
C460 C 0.55341 0.3841 0.70523 0.0
H461 H 0.60231 0.38459 0.73606 0.0
C462 C 0.5426 0.35862 0.69593 0.0
C463 C 0.5746 0.39312 0.72058 0.0
C464 C 0.586 0.41941 0.73245 0.0
C465 C 0.55333 0.34265 0.70055 0.0
C466 C 0.5754 0.35234 0.71485 0.0
C467 C 0.58553 0.37729 0.72491 0.0
C468 C 0.58921 0.33756 0.71849 0.0
C469 C 0.54183 0.31599 0.68931 0.0
C470 C 0.57826 0.31475 0.73202 0.0
C471 C 0.59172 0.30124 0.7355 0.0
C472 C 0.61632 0.31022 0.72539 0.0
C473 C 0.62709 0.333 0.71174 0.0
C474 C 0.61374 0.34658 0.70844 0.0
H475 H 0.52614 0.31228 0.67709 0.0
H476 H 0.55746 0.31455 0.6804 0.0
H477 H 0.53339 0.30016 0.70229 0.0
H478 H 0.55941 0.30754 0.74003 0.0
H479 H 0.5829 0.28381 0.74615 0.0
H480 H 0.1208 0.48565 0.82271 0.0
H481 H 0.16369 0.50361 0.84014 0.0
H482 H 0.14369 0.54436 0.88913 0.0
H483 H 0.10079 0.52721 0.87084 0.0
H484 H 0.18903 0.57756 0.87121 0.0
H485 H 0.19297 0.48911 0.89427 0.0
H486 H 0.18416 0.48717 0.86522 0.0
H487 H 0.16261 0.4871 0.88661 0.0
C488 C 0.12526 0.49793 0.83754 0.0
C489 C 0.10742 0.5051 0.84534 0.0
C490 C 0.14981 0.50805 0.84765 0.0
C491 C 0.15704 0.52517 0.86619 0.0
C492 C 0.13862 0.53112 0.8749 0.0
H493 H 0.31523 0.5848 0.92187 0.0
H494 H 0.2675 0.56172 0.91727 0.0
C495 C 0.11398 0.52109 0.86461 0.0
C496 C 0.18472 0.53905 0.87452 0.0
H497 H 0.23511 0.52909 0.88729 0.0
C498 C 0.19895 0.56689 0.87512 0.0
C499 C 0.19781 0.52534 0.88002 0.0
C500 C 0.18345 0.49553 0.88174 0.0
C501 C 0.22598 0.5813 0.87992 0.0
C502 C 0.23952 0.56759 0.88349 0.0
C503 C 0.22503 0.53975 0.88407 0.0
C504 C 0.26865 0.5817 0.88629 0.0
C505 C 0.23965 0.61111 0.88121 0.0
C506 C 0.28541 0.60029 0.87022 0.0
C507 C 0.3127 0.61376 0.87298 0.0
C508 C 0.32393 0.60852 0.89161 0.0
C509 C 0.30722 0.58931 0.90731 0.0
C510 C 0.27989 0.5761 0.90471 0.0
H511 H 0.22574 0.61759 0.88599 0.0
H512 H 0.25596 0.61931 0.8936 0.0
H513 H 0.24776 0.61967 0.86443 0.0
H514 H 0.2774 0.60437 0.85544 0.0
H515 H 0.32501 0.62823 0.86045 0.0
H516 H 0.57241 0.12008 0.99699 0.0
H517 H 0.59916 0.16334 0.01461 0.0
H518 H 0.65263 0.13987 0.039 0.0
H519 H 0.62626 0.09662 0.02049 0.0
H520 H 0.6159 0.18222 0.05614 0.0
H521 H 0.70128 0.20459 0.0022 0.0
H522 H 0.66916 0.17586 0.9978 0.0
H523 H 0.68992 0.17601 0.01991 0.0
C524 C 0.58972 0.12401 0.00634 0.0
C525 C 0.59747 0.10511 0.00705 0.0
C526 C 0.60498 0.14875 0.01645 0.0
C527 C 0.62835 0.15521 0.02762 0.0
C528 C 0.63508 0.13563 0.02993 0.0
H529 H 0.74536 0.30894 0.08428 0.0
H530 H 0.71894 0.26164 0.07536 0.0
C531 C 0.61981 0.11078 0.01965 0.0
C532 C 0.64604 0.18291 0.03553 0.0
H533 H 0.7068 0.23791 0.02745 0.0
C534 C 0.63582 0.19431 0.04995 0.0
C535 C 0.67201 0.19886 0.02731 0.0
C536 C 0.68374 0.18836 0.01079 0.0
C537 C 0.65072 0.22114 0.05618 0.0
C538 C 0.67649 0.23703 0.04777 0.0
C539 C 0.687 0.2256 0.03384 0.0
C540 C 0.69262 0.26574 0.0529 0.0
C541 C 0.63884 0.23248 0.0716 0.0
C542 C 0.68678 0.28376 0.04293 0.0
C543 C 0.70202 0.31087 0.04779 0.0
C544 C 0.72324 0.32039 0.06285 0.0
C545 C 0.72912 0.30226 0.07265 0.0
C546 C 0.71406 0.27522 0.06759 0.0
H547 H 0.62036 0.21677 0.07947 0.0
H548 H 0.65294 0.24444 0.08509 0.0
H549 H 0.63443 0.24581 0.06183 0.0
H550 H 0.67042 0.27681 0.03138 0.0
H551 H 0.69697 0.32431 0.04 0.0
H552 H 0.54787 0.64362 0.14643 0.0
H553 H 0.53074 0.66858 0.16471 0.0
H554 H 0.49601 0.60891 0.21657 0.0
H555 H 0.51259 0.58324 0.19764 0.0
H556 H 0.46074 0.61885 0.19982 0.0
H557 H 0.54913 0.71529 0.2182 0.0
H558 H 0.54903 0.70703 0.1892 0.0
H559 H 0.55091 0.68653 0.21082 0.0
C560 C 0.53719 0.63616 0.16208 0.0
C561 C 0.53159 0.61149 0.17062 0.0
C562 C 0.5275 0.65056 0.17263 0.0
C563 C 0.51228 0.64091 0.19223 0.0
C564 C 0.50782 0.61689 0.20153 0.0
H565 H 0.45523 0.73872 0.252 0.0
H566 H 0.47816 0.71468 0.24572 0.0
C567 C 0.5175 0.60235 0.19086 0.0
C568 C 0.4988 0.6545 0.20127 0.0
H569 H 0.50874 0.71569 0.21372 0.0
C570 C 0.47132 0.63995 0.20323 0.0
C571 C 0.51245 0.68199 0.20609 0.0
C572 C 0.54203 0.6985 0.20621 0.0
C573 C 0.45711 0.65228 0.20878 0.0
C574 C 0.47063 0.68013 0.21178 0.0
C575 C 0.4982 0.69446 0.21095 0.0
C576 C 0.45659 0.6948 0.21554 0.0
C577 C 0.42774 0.63518 0.21145 0.0
C578 C 0.43712 0.69218 0.20047 0.0
C579 C 0.42377 0.70571 0.20417 0.0
C580 C 0.42995 0.72262 0.22279 0.0
C581 C 0.44999 0.72587 0.23748 0.0
C582 C 0.46311 0.71209 0.23392 0.0
H583 H 0.4218 0.61458 0.21624 0.0
H584 H 0.42032 0.64328 0.2244 0.0
H585 H 0.41815 0.63426 0.19517 0.0
H586 H 0.43227 0.67971 0.18574 0.0
H587 H 0.40861 0.70293 0.19242 0.0
H588 H 0.94919 0.55218 0.35863 0.0
H589 H 0.90642 0.53834 0.37607 0.0
H590 H 0.88116 0.45663 0.36252 0.0
H591 H 0.92371 0.47035 0.34578 0.0
H592 H 0.86072 0.51415 0.35382 0.0
H593 H 0.85211 0.44916 0.42434 0.0
H594 H 0.88315 0.47128 0.41095 0.0
H595 H 0.86096 0.43916 0.39904 0.0
C596 C 0.93482 0.53125 0.36031 0.0
C597 C 0.9398 0.51229 0.35115 0.0
C598 C 0.91032 0.52334 0.37004 0.0
C599 C 0.89054 0.49636 0.37089 0.0
C600 C 0.89615 0.47746 0.3627 0.0
H601 H 0.72411 0.39819 0.36968 0.0
H602 H 0.77186 0.42086 0.3655 0.0
C603 C 0.9205 0.48532 0.35306 0.0
C604 C 0.86314 0.48789 0.37769 0.0
H605 H 0.811 0.44104 0.40824 0.0
C606 C 0.85004 0.49859 0.36611 0.0
C607 C 0.84904 0.46753 0.3937 0.0
C608 C 0.86217 0.45635 0.40787 0.0
C609 C 0.82305 0.48853 0.36923 0.0
C610 C 0.80877 0.46721 0.38425 0.0
C611 C 0.82198 0.45722 0.39653 0.0
C612 C 0.77983 0.45411 0.38653 0.0
C613 C 0.80959 0.49988 0.35577 0.0
C614 C 0.76849 0.46539 0.39967 0.0
C615 C 0.74115 0.45242 0.40218 0.0
C616 C 0.72468 0.42799 0.39149 0.0
C617 C 0.73617 0.417 0.37807 0.0
C618 C 0.76347 0.42987 0.37572 0.0
H619 H 0.82325 0.51579 0.34409 0.0
H620 H 0.79324 0.48393 0.34586 0.0
H621 H 0.80099 0.50815 0.36736 0.0
H622 H 0.78082 0.48407 0.40819 0.0
H623 H 0.73296 0.4614 0.41267 0.0
H624 H 0.08972 0.53143 0.38208 0.0
H625 H 0.11456 0.54111 0.41722 0.0
H626 H 0.09321 0.59879 0.43425 0.0
H627 H 0.06779 0.58853 0.39933 0.0
H628 H 0.15686 0.58934 0.42375 0.0
H629 H 0.08859 0.56611 0.49515 0.0
H630 H 0.07733 0.55322 0.4672 0.0
H631 H 0.08574 0.58643 0.47415 0.0
C632 C 0.08935 0.54524 0.39389 0.0
C633 C 0.07659 0.55898 0.38826 0.0
C634 C 0.10373 0.55095 0.41384 0.0
C635 C 0.10574 0.57063 0.42847 0.0
C636 C 0.09152 0.58313 0.42354 0.0
H637 H 0.21223 0.66753 0.53385 0.0
H638 H 0.17883 0.6472 0.5045 0.0
C639 C 0.07693 0.57723 0.40362 0.0
C640 C 0.12554 0.58067 0.44688 0.0
H641 H 0.13438 0.59475 0.50308 0.0
C642 C 0.15186 0.59018 0.44115 0.0
C643 C 0.1191 0.58203 0.46955 0.0
C644 C 0.09112 0.57117 0.47695 0.0
C645 C 0.17195 0.60156 0.45729 0.0
C646 C 0.16556 0.60321 0.47989 0.0
C647 C 0.13924 0.59351 0.48572 0.0
C648 C 0.18603 0.61544 0.49762 0.0
C649 C 0.19997 0.61249 0.44988 0.0
C650 C 0.20122 0.60432 0.50351 0.0
C651 C 0.22045 0.61594 0.52027 0.0
C652 C 0.22482 0.63888 0.53156 0.0
C653 C 0.20956 0.64996 0.52551 0.0
C654 C 0.19033 0.6383 0.50879 0.0
H655 H 0.20217 0.61524 0.43135 0.0
H656 H 0.2133 0.6318 0.45811 0.0
H657 H 0.20631 0.59845 0.45481 0.0
H658 H 0.19798 0.58646 0.49532 0.0
H659 H 0.23164 0.60672 0.52454 0.0
H660 H 0.56761 0.07954 0.54378 0.0
H661 H 0.58011 0.10247 0.57997 0.0
H662 H 0.49969 0.08028 0.59167 0.0
H663 H 0.48721 0.0573 0.55521 0.0
H664 H 0.53423 0.1342 0.59355 0.0
H665 H 0.57166 0.08353 0.64639 0.0
H666 H 0.58551 0.08995 0.61868 0.0
H667 H 0.55073 0.06783 0.62232 0.0
C668 C 0.55246 0.07854 0.55459 0.0
C669 C 0.52642 0.06632 0.54703 0.0
C670 C 0.55958 0.09168 0.57525 0.0
C671 C 0.5408 0.0929 0.58868 0.0
C672 C 0.51444 0.07938 0.58169 0.0
H673 H 0.58984 0.2121 0.69821 0.0
H674 H 0.56022 0.17548 0.67321 0.0
C675 C 0.50728 0.06605 0.56102 0.0
C676 C 0.54959 0.11138 0.60809 0.0
H677 H 0.58929 0.13012 0.6543 0.0
C678 C 0.5457 0.13299 0.6072 0.0
C679 C 0.56451 0.10977 0.62589 0.0
C680 C 0.56812 0.08635 0.62852 0.0
C681 C 0.55799 0.15399 0.62265 0.0
C682 C 0.57434 0.15317 0.63949 0.0
C683 C 0.57687 0.13079 0.64124 0.0
C684 C 0.59145 0.17647 0.65374 0.0
C685 C 0.55483 0.17769 0.62 0.0
C686 C 0.61868 0.18936 0.65082 0.0
C687 C 0.63552 0.21013 0.66492 0.0
C688 C 0.62555 0.21851 0.68243 0.0
C689 C 0.59815 0.20627 0.68482 0.0
C690 C 0.58121 0.1853 0.6706 0.0
H691 H 0.5436 0.17643 0.60462 0.0
H692 H 0.54431 0.17912 0.63483 0.0
H693 H 0.57437 0.19617 0.61925 0.0
H694 H 0.62697 0.18298 0.6378 0.0
H695 H 0.65646 0.21918 0.66242 0.0
H696 H 0.49696 0.54887 0.70753 0.0
H697 H 0.48771 0.56606 0.7416 0.0
H698 H 0.42159 0.48836 0.75598 0.0
H699 H 0.43089 0.47114 0.72181 0.0
H700 H 0.43399 0.55875 0.74299 0.0
H701 H 0.45898 0.52075 0.81915 0.0
H702 H 0.47589 0.52557 0.79272 0.0
H703 H 0.44281 0.49859 0.79587 0.0
C704 C 0.48127 0.53525 0.71858 0.0
C705 C 0.46493 0.50863 0.71241 0.0
C706 C 0.47585 0.54509 0.7379 0.0
C707 C 0.45403 0.52845 0.75133 0.0
C708 C 0.43875 0.50141 0.74603 0.0
H709 H 0.39229 0.58183 0.86189 0.0
H710 H 0.39559 0.55239 0.83442 0.0
C711 C 0.44415 0.49156 0.72664 0.0
C712 C 0.44506 0.5403 0.76848 0.0
H713 H 0.44136 0.54819 0.82502 0.0
C714 C 0.43543 0.55629 0.76093 0.0
C715 C 0.44649 0.53663 0.79181 0.0
C716 C 0.45666 0.51954 0.80057 0.0
C717 C 0.42798 0.56944 0.7761 0.0
C718 C 0.43072 0.56698 0.79947 0.0
C719 C 0.43928 0.55005 0.80709 0.0
C720 C 0.42771 0.5842 0.81589 0.0
C721 C 0.41757 0.58619 0.76694 0.0
C722 C 0.44463 0.61169 0.81455 0.0
C723 C 0.44278 0.6284 0.83001 0.0
C724 C 0.42403 0.61807 0.8474 0.0
C725 C 0.4068 0.59045 0.84862 0.0
C726 C 0.40876 0.57361 0.83305 0.0
H727 H 0.40892 0.57949 0.74992 0.0
H728 H 0.40245 0.58567 0.77824 0.0
H729 H 0.43396 0.60704 0.7655 0.0
H730 H 0.45964 0.62027 0.80167 0.0
H731 H 0.45641 0.64952 0.82845 0.0
H732 H 0.96469 0.50042 0.87938 0.0
H733 H 0.93985 0.49451 0.914 0.0
H734 H 0.95327 0.43216 0.93468 0.0
H735 H 0.97867 0.43867 0.90042 0.0
H736 H 0.89492 0.4495 0.92114 0.0
H737 H 0.95943 0.46695 0.99418 0.0
H738 H 0.97224 0.47842 0.96626 0.0
H739 H 0.96067 0.44467 0.9744 0.0
C740 C 0.9635 0.4865 0.89197 0.0
C741 C 0.97404 0.4704 0.88759 0.0
C742 C 0.94905 0.48289 0.91159 0.0
C743 C 0.94475 0.46298 0.92708 0.0
C744 C 0.95681 0.4481 0.92337 0.0
H745 H 0.8329 0.36604 0.02698 0.0
H746 H 0.8667 0.38709 0.99817 0.0
C747 C 0.97143 0.45186 0.90381 0.0
C748 C 0.92462 0.45501 0.94505 0.0
H749 H 0.91286 0.43925 1.00083 0.0
C750 C 0.89897 0.44775 0.93864 0.0
C751 C 0.92981 0.45256 0.96788 0.0
C752 C 0.9571 0.46133 0.97612 0.0
C753 C 0.87823 0.43706 0.9542 0.0
C754 C 0.88327 0.43373 0.97684 0.0
C755 C 0.90901 0.44168 0.98342 0.0
C756 C 0.86191 0.42081 0.99371 0.0
C757 C 0.85087 0.42835 0.94613 0.0
C758 C 0.84772 0.43266 1.00062 0.0
C759 C 0.82822 0.42061 0.01713 0.0
C760 C 0.82261 0.39652 0.02711 0.0
C761 C 0.83658 0.38453 0.01973 0.0
C762 C 0.85605 0.3966 0.00331 0.0
H763 H 0.84949 0.42771 0.92747 0.0
H764 H 0.83652 0.40843 0.95288 0.0
H765 H 0.8452 0.44248 0.95231 0.0
H766 H 0.85212 0.45149 0.99358 0.0
H767 H 0.81803 0.43053 0.02247 0.0
H768 H 0.50213 0.97373 0.04826 0.0
H769 H 0.48287 0.9485 0.08304 0.0
H770 H 0.5435 0.92898 0.08596 0.0
H771 H 0.56274 0.95419 0.05139 0.0
H772 H 0.46501 0.8937 0.08196 0.0
H773 H 0.53498 0.94281 0.1525 0.0
H774 H 0.53576 0.96025 0.12718 0.0
H775 H 0.54913 0.93898 0.12715 0.0
C776 C 0.51194 0.96503 0.05692 0.0
C777 C 0.53394 0.96595 0.04729 0.0
C778 C 0.50086 0.95047 0.07666 0.0
C779 C 0.51183 0.93695 0.08715 0.0
C780 C 0.53497 0.9396 0.07843 0.0
H781 H 0.45002 0.8083 0.1872 0.0
H782 H 0.47829 0.84214 0.15944 0.0
C783 C 0.54593 0.95398 0.05867 0.0
C784 C 0.49695 0.91683 0.10478 0.0
H785 H 0.49966 0.89877 0.15895 0.0
C786 C 0.47251 0.89494 0.09885 0.0
C787 C 0.50706 0.91816 0.12661 0.0
C788 C 0.53309 0.9414 0.13389 0.0
C789 C 0.45786 0.87434 0.11413 0.0
C790 C 0.4676 0.87591 0.13616 0.0
C791 C 0.49225 0.8976 0.14205 0.0
C792 C 0.45145 0.85608 0.15359 0.0
C793 C 0.43215 0.85088 0.10642 0.0
C794 C 0.42735 0.85309 0.15974 0.0
C795 C 0.41121 0.83384 0.17529 0.0
C796 C 0.41886 0.81716 0.18538 0.0
C797 C 0.44342 0.82063 0.17966 0.0
C798 C 0.45962 0.83999 0.16388 0.0
H799 H 0.43136 0.84882 0.08781 0.0
H800 H 0.42887 0.83217 0.11403 0.0
H801 H 0.41583 0.8537 0.11164 0.0
H802 H 0.4209 0.86565 0.15239 0.0
H803 H 0.39268 0.83218 0.17943 0.0
H804 H 0.5528 0.48072 0.20123 0.0
H805 H 0.56137 0.46313 0.23545 0.0
H806 H 0.61767 0.54261 0.25684 0.0
H807 H 0.6089 0.56023 0.22255 0.0
H808 H 0.61461 0.47513 0.24182 0.0
H809 H 0.57735 0.50376 0.3159 0.0
H810 H 0.56413 0.50096 0.28796 0.0
H811 H 0.5957 0.52877 0.295 0.0
C812 C 0.56607 0.49443 0.21377 0.0
C813 C 0.57986 0.52179 0.20956 0.0
C814 C 0.57114 0.4844 0.23318 0.0
C815 C 0.59012 0.50156 0.2487 0.0
C816 C 0.60265 0.52905 0.24527 0.0
H817 H 0.6528 0.4533 0.36248 0.0
H818 H 0.64834 0.48151 0.33434 0.0
C819 C 0.59755 0.53912 0.22579 0.0
C820 C 0.59925 0.49041 0.26645 0.0
H821 H 0.5995 0.48079 0.32314 0.0
C822 C 0.61143 0.47651 0.25962 0.0
C823 C 0.59549 0.49261 0.28964 0.0
C824 C 0.58234 0.50719 0.29773 0.0
C825 C 0.61925 0.46407 0.27528 0.0
C826 C 0.61442 0.46519 0.29841 0.0
C827 C 0.60321 0.48 0.30539 0.0
C828 C 0.61821 0.44872 0.31513 0.0
C829 C 0.63232 0.44948 0.26692 0.0
C830 C 0.60285 0.42106 0.31357 0.0
C831 C 0.6053 0.40504 0.32946 0.0
C832 C 0.6232 0.41626 0.34741 0.0
C833 C 0.639 0.44404 0.34877 0.0
C834 C 0.63636 0.46016 0.33282 0.0
H835 H 0.64144 0.45682 0.25013 0.0
H836 H 0.64763 0.45152 0.27887 0.0
H837 H 0.61737 0.4281 0.26529 0.0
H838 H 0.58853 0.41182 0.3002 0.0
H839 H 0.59282 0.38375 0.32782 0.0
H840 H 0.50525 0.9527 0.43466 0.0
H841 H 0.49737 0.92756 0.39971 0.0
H842 H 0.43633 0.94339 0.38189 0.0
H843 H 0.44472 0.96898 0.4165 0.0
H844 H 0.45148 0.88287 0.39313 0.0
H845 H 0.46888 0.94963 0.32125 0.0
H846 H 0.48143 0.96194 0.34907 0.0
H847 H 0.44801 0.95152 0.34196 0.0
C848 C 0.49115 0.95192 0.42264 0.0
C849 C 0.47599 0.96321 0.42788 0.0
C850 C 0.48643 0.93733 0.40282 0.0
C851 C 0.46637 0.9337 0.38802 0.0
C852 C 0.45236 0.94643 0.39266 0.0
H853 H 0.36638 0.82365 0.28752 0.0
H854 H 0.38829 0.8574 0.31653 0.0
C855 C 0.45718 0.96113 0.41241 0.0
C856 C 0.45738 0.91355 0.36982 0.0
H857 H 0.44022 0.90289 0.31428 0.0
C858 C 0.44947 0.88736 0.3758 0.0
C859 C 0.45458 0.91932 0.34723 0.0
C860 C 0.46393 0.94719 0.33945 0.0
C861 C 0.43786 0.86665 0.36006 0.0
C862 C 0.43429 0.8723 0.33767 0.0
C863 C 0.44282 0.89857 0.33151 0.0
C864 C 0.42084 0.8511 0.32058 0.0
C865 C 0.42852 0.83872 0.36774 0.0
C866 C 0.43177 0.83617 0.31335 0.0
C867 C 0.41924 0.81672 0.29677 0.0
C868 C 0.39556 0.8119 0.28702 0.0
C869 C 0.38452 0.82669 0.29462 0.0
C870 C 0.39708 0.84612 0.31115 0.0
H871 H 0.42783 0.83699 0.38637 0.0
H872 H 0.40869 0.82471 0.36091 0.0
H873 H 0.44218 0.83263 0.36138 0.0
H874 H 0.45027 0.83991 0.32021 0.0
H875 H 0.42844 0.80589 0.29126 0.0
H876 H 0.56825 0.49177 0.6056 0.0
H877 H 0.58476 0.4848 0.57011 0.0
H878 H 0.50553 0.4272 0.55028 0.0
H879 H 0.48905 0.4349 0.58546 0.0
H880 H 0.58018 0.43871 0.56076 0.0
H881 H 0.53458 0.4634 0.49114 0.0
H882 H 0.53503 0.474 0.51971 0.0
H883 H 0.51069 0.44101 0.51097 0.0
C884 C 0.55435 0.47857 0.59314 0.0
C885 C 0.52739 0.46419 0.59798 0.0
C886 C 0.56378 0.47439 0.57298 0.0
C887 C 0.54643 0.45557 0.55739 0.0
C888 C 0.5193 0.4423 0.5617 0.0
H889 H 0.5558 0.36335 0.44965 0.0
H890 H 0.54336 0.3829 0.47976 0.0
C891 C 0.50985 0.44671 0.58179 0.0
C892 C 0.55686 0.44722 0.5384 0.0
H893 H 0.55157 0.4353 0.48181 0.0
C894 C 0.57422 0.43837 0.54345 0.0
C895 C 0.549 0.44657 0.51581 0.0
C896 C 0.53151 0.45701 0.50904 0.0
C897 C 0.58323 0.42814 0.52672 0.0
C898 C 0.57487 0.42693 0.50425 0.0
C899 C 0.55788 0.43617 0.49908 0.0
C900 C 0.58284 0.41528 0.48603 0.0
C901 C 0.60089 0.41785 0.53337 0.0
C902 C 0.60923 0.427 0.47955 0.0
C903 C 0.61649 0.41583 0.46232 0.0
C904 C 0.59747 0.39274 0.45118 0.0
C905 C 0.57104 0.38106 0.45784 0.0
C906 C 0.56383 0.39227 0.47501 0.0
H907 H 0.60101 0.41506 0.55186 0.0
H908 H 0.59468 0.39867 0.52496 0.0
H909 H 0.62127 0.43226 0.52801 0.0
H910 H 0.62418 0.44497 0.48764 0.0
H911 H 0.63698 0.4255 0.45759 0.0
H912 H 0.07174 0.47249 0.76033 0.0
H913 H 0.09812 0.48964 0.7259 0.0
H914 H 0.1117 0.56743 0.74047 0.0
H915 H 0.0853 0.55029 0.77483 0.0
H916 H 0.10112 0.52921 0.6859 0.0
H917 H 0.18375 0.56401 0.74673 0.0
H918 H 0.1511 0.53687 0.75295 0.0
H919 H 0.15798 0.57031 0.75369 0.0
C920 C 0.07926 0.49292 0.7555 0.0
C921 C 0.07621 0.51004 0.76989 0.0
C922 C 0.09444 0.50272 0.73597 0.0
C923 C 0.1069 0.52978 0.73078 0.0
C924 C 0.10209 0.54645 0.74419 0.0
H925 H 0.23313 0.64776 0.65487 0.0
H926 H 0.1991 0.61941 0.68156 0.0
C927 C 0.08687 0.53664 0.76366 0.0
C928 C 0.12802 0.54142 0.71372 0.0
H929 H 0.19473 0.57817 0.70908 0.0
C930 C 0.12161 0.53969 0.69083 0.0
C931 C 0.15466 0.55484 0.72034 0.0
C932 C 0.16248 0.55658 0.74474 0.0
C933 C 0.14132 0.55217 0.67439 0.0
C934 C 0.168 0.56631 0.68111 0.0
C935 C 0.1743 0.56722 0.70397 0.0
C936 C 0.18953 0.58275 0.66514 0.0
C937 C 0.13351 0.5512 0.6501 0.0
C938 C 0.19603 0.57148 0.64733 0.0
C939 C 0.21576 0.58776 0.63196 0.0
C940 C 0.22912 0.61551 0.63415 0.0
C941 C 0.22312 0.6265 0.65253 0.0
C942 C 0.20364 0.61032 0.66785 0.0
H943 H 0.11207 0.54287 0.64814 0.0
H944 H 0.14413 0.57135 0.64258 0.0
H945 H 0.13895 0.5386 0.64047 0.0
H946 H 0.18564 0.55019 0.64519 0.0
H947 H 0.21987 0.57869 0.61796 0.0
H948 H 0.54592 0.08974 0.93572 0.0
H949 H 0.55719 0.11333 0.89974 0.0
H950 H 0.60546 0.08068 0.88308 0.0
H951 H 0.59415 0.05702 0.9192 0.0
H952 H 0.63208 0.13684 0.88472 0.0
H953 H 0.54239 0.09655 0.83209 0.0
H954 H 0.5382 0.10313 0.8608 0.0
H955 H 0.5457 0.07786 0.85467 0.0
C956 C 0.55799 0.0867 0.92392 0.0
C957 C 0.56905 0.07146 0.93011 0.0
C958 C 0.56445 0.10019 0.90337 0.0
C959 C 0.58211 0.09872 0.88868 0.0
C960 C 0.59166 0.08195 0.89412 0.0
H961 H 0.67685 0.20114 0.77862 0.0
H962 H 0.65728 0.16761 0.80803 0.0
C963 C 0.58502 0.06825 0.91463 0.0
C964 C 0.59366 0.11773 0.86968 0.0
H965 H 0.57864 0.13864 0.82136 0.0
C966 C 0.62047 0.13703 0.8707 0.0
C967 C 0.57838 0.11826 0.85167 0.0
C968 C 0.5496 0.09773 0.84955 0.0
C969 C 0.63235 0.15718 0.85447 0.0
C970 C 0.61714 0.15767 0.83633 0.0
C971 C 0.5903 0.13827 0.83524 0.0
C972 C 0.62883 0.17805 0.81828 0.0
C973 C 0.66088 0.17826 0.85738 0.0
C974 C 0.61898 0.19476 0.81381 0.0
C975 C 0.63002 0.21393 0.79678 0.0
C976 C 0.65112 0.21673 0.78382 0.0
C977 C 0.66085 0.19986 0.78836 0.0
C978 C 0.64972 0.18065 0.80527 0.0
H979 H 0.66739 0.17955 0.87511 0.0
H980 H 0.6731 0.17328 0.84679 0.0
H981 H 0.66458 0.19801 0.85214 0.0
H982 H 0.6028 0.19305 0.82358 0.0
H983 H 0.6219 0.22644 0.79371 0.0
H984 H 0.48021 0.54617 0.1054 0.0
H985 H 0.46311 0.55317 0.07019 0.0
H986 H 0.54233 0.60542 0.04701 0.0
H987 H 0.55931 0.5977 0.08195 0.0
H988 H 0.47105 0.60059 0.05988 0.0
H989 H 0.50813 0.56764 0.98947 0.0
H990 H 0.50829 0.55776 0.01822 0.0
H991 H 0.53392 0.58956 0.00819 0.0
C992 C 0.49387 0.5581 0.09227 0.0
C993 C 0.52103 0.57103 0.0961 0.0
C994 C 0.48413 0.56232 0.07227 0.0
C995 C 0.50138 0.57973 0.05583 0.0
C996 C 0.52857 0.59141 0.05912 0.0
H997 H 0.4939 0.67211 0.94668 0.0
H998 H 0.50606 0.65226 0.97688 0.0
C999 C 0.53831 0.58697 0.07907 0.0
C1000 C 0.49112 0.58858 0.03701 0.0
H1001 H 0.49397 0.59812 0.9801 0.0
C1002 C 0.47575 0.59966 0.0424 0.0
C1003 C 0.49736 0.58757 0.0142 0.0
C1004 C 0.51261 0.57474 0.00714 0.0
C1005 C 0.46716 0.61045 0.02577 0.0
C1006 C 0.47391 0.60998 0.00306 0.0
C1007 C 0.48891 0.59855 0.99756 0.0
C1008 C 0.46618 0.62194 0.98487 0.0
C1009 C 0.45167 0.62309 0.03272 0.0
C1010 C 0.43967 0.61149 0.97935 0.0
C1011 C 0.43258 0.62282 0.96209 0.0
C1012 C 0.45189 0.64482 0.94995 0.0
C1013 C 0.47845 0.65528 0.95567 0.0
C1014 C 0.48549 0.64389 0.97288 0.0
H1015 H 0.4528 0.62673 0.05114 0.0
H1016 H 0.45885 0.64219 0.02379 0.0
H1017 H 0.43075 0.60972 0.02818 0.0
H1018 H 0.42447 0.59436 0.98822 0.0
H1019 H 0.41197 0.6141 0.9581 0.0
H1020 H 0.94039 0.46789 0.28337 0.0
H1021 H 0.91943 0.45491 0.24654 0.0
H1022 H 0.97096 0.53425 0.22182 0.0
H1023 H 0.99177 0.54748 0.25914 0.0
H1024 H 0.91944 0.51702 0.21348 0.0
H1025 H 0.94028 0.44008 0.18646 0.0
H1026 H 0.92692 0.43348 0.21434 0.0
H1027 H 0.95821 0.46294 0.20894 0.0
C1028 C 0.94772 0.48237 0.2699 0.0
C1029 C 0.96772 0.50865 0.27402 0.0
C1030 C 0.9358 0.47492 0.24882 0.0
C1031 C 0.94375 0.49352 0.23131 0.0
C1032 C 0.96461 0.51954 0.23506 0.0
H1033 H 0.86196 0.42705 0.10479 0.0
H1034 H 0.89707 0.45355 0.13161 0.0
C1035 C 0.97664 0.52703 0.25626 0.0
C1036 C 0.92843 0.4861 0.21004 0.0
H1037 H 0.90161 0.43739 0.17041 0.0
C1038 C 0.91592 0.49991 0.20376 0.0
C1039 C 0.92407 0.46401 0.19716 0.0
C1040 C 0.93833 0.44948 0.20194 0.0
C1041 C 0.89812 0.4914 0.18567 0.0
C1042 C 0.8922 0.46806 0.17391 0.0
C1043 C 0.90577 0.45508 0.17953 0.0
C1044 C 0.87157 0.45607 0.15618 0.0
C1045 C 0.88588 0.50751 0.17944 0.0
C1046 C 0.84555 0.44928 0.16065 0.0
C1047 C 0.82554 0.43466 0.14499 0.0
C1048 C 0.8312 0.42613 0.12493 0.0
C1049 C 0.85724 0.4336 0.12015 0.0
C1050 C 0.87725 0.44862 0.13551 0.0
H1051 H 0.89881 0.52863 0.18421 0.0
H1052 H 0.88176 0.50644 0.16112 0.0
H1053 H 0.86713 0.49977 0.18871 0.0
H1054 H 0.84043 0.45408 0.17669 0.0
H1055 H 0.80548 0.42866 0.14914 0.0
loop_
_geom_bond_atom_site_label_1
_geom_bond_atom_site_label_2
_geom_bond_distance
_geom_bond_site_symmetry_2
_ccdc_geom_bond_type
H0 C6 0.930 . S
H1 C9 0.931 . S
H2 C11 0.931 . S
H3 C13 0.930 . S
H4 C15 0.930 . S
H5 C17 0.931 1_455 S
C6 H0 0.930 . S
C6 C7 1.380 . S
C6 C8 1.394 . S
C7 C6 1.380 . S
C7 C11 1.382 . S
C8 C6 1.394 . S
C8 C9 1.400 . S
C9 H1 0.931 . S
C9 C8 1.400 . S
C9 C10 1.375 . S
C10 C9 1.375 . S
C10 C11 1.415 . S
C10 C12 1.501 1_455 S
C11 H2 0.931 . S
C11 C7 1.382 . S
C11 C10 1.415 . S
C12 C10 1.501 1_655 S
C12 C13 1.384 . S
C12 C17 1.408 . S
C13 H3 0.930 . S
C13 C12 1.384 . S
C13 C14 1.389 . S
C14 C13 1.389 . S
C14 C15 1.405 . S
C15 H4 0.930 . S
C15 C14 1.405 . S
C15 C16 1.364 . S
C16 C15 1.364 . S
C16 C17 1.400 . S
C17 H5 0.931 1_655 S
C17 C12 1.408 . S
C17 C16 1.400 . S
H18 C24 0.930 . S
H19 C27 0.931 . S
H20 C29 0.931 . S
H21 C31 0.930 . S
H22 C33 0.930 . S
H23 C35 0.931 1_545 S
C24 H18 0.930 . S
C24 C25 1.380 . S
C24 C26 1.394 . S
C25 C24 1.380 . S
C25 C29 1.382 . S
C26 C24 1.394 . S
C26 C27 1.400 . S
C27 H19 0.931 . S
C27 C26 1.400 . S
C27 C28 1.375 . S
C28 C27 1.375 . S
C28 C29 1.415 . S
C28 C30 1.501 1_545 S
C29 H20 0.931 . S
C29 C25 1.382 . S
C29 C28 1.415 . S
C30 C28 1.501 1_565 S
C30 C31 1.384 . S
C30 C35 1.408 . S
C31 H21 0.930 . S
C31 C30 1.384 . S
C31 C32 1.389 . S
C32 C31 1.389 . S
C32 C33 1.405 . S
C33 H22 0.930 . S
C33 C32 1.405 . S
C33 C34 1.364 . S
C34 C33 1.364 . S
C34 C35 1.400 . S
C35 H23 0.931 1_565 S
C35 C30 1.408 . S
C35 C34 1.400 . S
H36 C42 0.930 . S
H37 C45 0.931 . S
H38 C47 0.931 . S
H39 C49 0.930 . S
H40 C51 0.930 . S
H41 C53 0.931 . S
C42 H36 0.930 . S
C42 C43 1.380 . S
C42 C44 1.394 . S
C43 C42 1.380 . S
C43 C47 1.382 . S
C44 C42 1.394 . S
C44 C45 1.400 . S
C45 H37 0.931 . S
C45 C44 1.400 . S
C45 C46 1.375 . S
C46 C45 1.375 . S
C46 C47 1.415 . S
C46 C48 1.501 . S
C47 H38 0.931 . S
C47 C43 1.382 . S
C47 C46 1.415 . S
C48 C46 1.501 . S
C48 C49 1.384 . S
C48 C53 1.408 . S
C49 H39 0.930 . S
C49 C48 1.384 . S
C49 C50 1.389 . S
C50 C49 1.389 . S
C50 C51 1.405 . S
C51 H40 0.930 . S
C51 C50 1.405 . S
C51 C52 1.364 . S
C52 C51 1.364 . S
C52 C53 1.400 . S
C53 H41 0.931 . S
C53 C48 1.408 . S
C53 C52 1.400 . S
H54 C60 0.930 . S
H55 C63 0.931 . S
H56 C65 0.931 . S
H57 C67 0.930 . S
H58 C69 0.930 . S
H59 C71 0.931 1_455 S
C60 H54 0.930 . S
C60 C61 1.380 . S
C60 C62 1.394 . S
C61 C60 1.380 . S
C61 C65 1.382 . S
C62 C60 1.394 . S
C62 C63 1.400 . S
C63 H55 0.931 . S
C63 C62 1.400 . S
C63 C64 1.375 . S
C64 C63 1.375 . S
C64 C65 1.415 . S
C64 C66 1.501 1_455 S
C65 H56 0.931 . S
C65 C61 1.382 . S
C65 C64 1.415 . S
C66 C64 1.501 1_655 S
C66 C67 1.384 . S
C66 C71 1.408 . S
C67 H57 0.930 . S
C67 C66 1.384 . S
C67 C68 1.389 . S
C68 C67 1.389 . S
C68 C69 1.405 . S
C69 H58 0.930 . S
C69 C68 1.405 . S
C69 C70 1.364 . S
C70 C69 1.364 . S
C70 C71 1.400 . S
C71 H59 0.931 1_655 S
C71 C66 1.408 . S
C71 C70 1.400 . S
H72 C78 0.930 . S
H73 C81 0.931 . S
H74 C83 0.931 . S
H75 C85 0.930 . S
H76 C87 0.930 . S
H77 C89 0.931 . S
C78 H72 0.930 . S
C78 C79 1.380 . S
C78 C80 1.394 1_554 S
C79 C78 1.380 . S
C79 C83 1.382 . S
C80 C78 1.394 1_556 S
C80 C81 1.400 . S
C81 H73 0.931 . S
C81 C80 1.400 . S
C81 C82 1.375 . S
C82 C81 1.375 . S
C82 C83 1.415 1_556 S
C82 C84 1.501 1_565 S
C83 H74 0.931 . S
C83 C79 1.382 . S
C83 C82 1.415 1_554 S
C84 C82 1.501 1_545 S
C84 C85 1.384 1_556 S
C84 C89 1.408 . S
C85 H75 0.930 . S
C85 C84 1.384 1_554 S
C85 C86 1.389 1_554 S
C86 C85 1.389 1_556 S
C86 C87 1.405 . S
C87 H76 0.930 . S
C87 C86 1.405 . S
C87 C88 1.364 . S
C88 C87 1.364 . S
C88 C89 1.400 . S
C89 H77 0.931 . S
C89 C84 1.408 . S
C89 C88 1.400 . S
H90 C96 0.930 . S
H91 C99 0.931 . S
H92 C101 0.931 . S
H93 C103 0.930 . S
H94 C105 0.930 . S
H95 C107 0.931 . S
C96 H90 0.930 . S
C96 C97 1.380 . S
C96 C98 1.394 . S
C97 C96 1.380 . S
C97 C101 1.382 . S
C98 C96 1.394 . S
C98 C99 1.400 . S
C99 H91 0.931 . S
C99 C98 1.400 . S
C99 C100 1.375 . S
C100 C99 1.375 . S
C100 C101 1.415 . S
C100 C102 1.501 . S
C101 H92 0.931 . S
C101 C97 1.382 . S
C101 C100 1.415 . S
C102 C100 1.501 . S
C102 C103 1.384 . S
C102 C107 1.408 . S
C103 H93 0.930 . S
C103 C102 1.384 . S
C103 C104 1.389 . S
C104 C103 1.389 . S
C104 C105 1.405 . S
C105 H94 0.930 . S
C105 C104 1.405 . S
C105 C106 1.364 . S
C106 C105 1.364 . S
C106 C107 1.400 . S
C107 H95 0.931 . S
C107 C102 1.408 . S
C107 C106 1.400 . S
Co108 O109 2.216 . S
Co108 O110 2.091 . S
Co108 O112 2.004 . S
Co108 O118 2.021 . S
Co108 O120 2.137 . S
Co108 O121 2.244 . S
O109 Co108 2.216 . S
O109 C116 1.247 . S
O110 Co108 2.091 . S
O110 C116 1.261 . S
C111 O120 1.247 . S
C111 O121 1.272 . S
O112 Co108 2.004 . S
O112 C117 1.259 . S
Co113 O114 2.061 . S
Co113 O119 2.052 . S
Co113 O121 2.135 . S
O114 Co113 2.061 . S
O114 C117 1.235 . S
C115 O118 1.238 . S
C115 O119 1.241 . S
C116 O109 1.247 . S
C116 O110 1.261 . S
C117 O112 1.259 . S
C117 O114 1.235 . S
O118 Co108 2.021 . S
O118 C115 1.238 . S
O119 Co113 2.052 . S
O119 C115 1.241 . S
O120 Co108 2.137 . S
O120 C111 1.247 . S
O121 Co108 2.244 . S
O121 C111 1.272 . S
O121 Co113 2.135 . S
Co122 O123 2.216 . S
Co122 O124 2.091 . S
Co122 O126 2.004 . S
Co122 O132 2.021 . S
Co122 O134 2.137 . S
Co122 O135 2.244 . S
O123 Co122 2.216 . S
O123 C130 1.247 . S
O124 Co122 2.091 . S
O124 C130 1.261 . S
C125 O134 1.247 . S
C125 O135 1.272 . S
O126 Co122 2.004 . S
O126 C131 1.259 . S
Co127 O128 2.061 . S
Co127 O133 2.052 . S
Co127 O135 2.135 . S
O128 Co127 2.061 . S
O128 C131 1.235 . S
C129 O132 1.238 . S
C129 O133 1.241 . S
C130 O123 1.247 . S
C130 O124 1.261 . S
C131 O126 1.259 . S
C131 O128 1.235 . S
O132 Co122 2.021 . S
O132 C129 1.238 . S
O133 Co127 2.052 . S
O133 C129 1.241 . S
O134 Co122 2.137 . S
O134 C125 1.247 . S
O135 Co122 2.244 . S
O135 C125 1.272 . S
O135 Co127 2.135 . S
Co136 O137 2.216 . S
Co136 O138 2.091 . S
Co136 O140 2.004 . S
Co136 O146 2.021 . S
Co136 O148 2.137 . S
Co136 O149 2.244 . S
O137 Co136 2.216 . S
O137 C144 1.247 . S
O138 Co136 2.091 . S
O138 C144 1.261 . S
C139 O148 1.247 . S
C139 O149 1.272 . S
O140 Co136 2.004 . S
O140 C145 1.259 . S
Co141 O142 2.061 . S
Co141 O147 2.052 . S
Co141 O149 2.135 . S
O142 Co141 2.061 . S
O142 C145 1.235 . S
C143 O146 1.238 . S
C143 O147 1.241 . S
C144 O137 1.247 . S
C144 O138 1.261 . S
C145 O140 1.259 . S
C145 O142 1.235 . S
O146 Co136 2.021 . S
O146 C143 1.238 . S
O147 Co141 2.052 . S
O147 C143 1.241 . S
O148 Co136 2.137 . S
O148 C139 1.247 . S
O149 Co136 2.244 . S
O149 C139 1.272 . S
O149 Co141 2.135 . S
Co150 O151 2.216 . S
Co150 O152 2.091 . S
Co150 O154 2.004 . S
Co150 O160 2.021 . S
Co150 O162 2.137 . S
Co150 O163 2.244 . S
O151 Co150 2.216 . S
O151 C158 1.247 . S
O152 Co150 2.091 . S
O152 C158 1.261 . S
C153 O162 1.247 . S
C153 O163 1.272 . S
O154 Co150 2.004 . S
O154 C159 1.259 . S
Co155 O156 2.061 . S
Co155 O161 2.052 . S
Co155 O163 2.135 . S
O156 Co155 2.061 . S
O156 C159 1.235 . S
C157 O160 1.238 . S
C157 O161 1.241 . S
C158 O151 1.247 . S
C158 O152 1.261 . S
C159 O154 1.259 . S
C159 O156 1.235 . S
O160 Co150 2.021 . S
O160 C157 1.238 . S
O161 Co155 2.052 . S
O161 C157 1.241 . S
O162 Co150 2.137 . S
O162 C153 1.247 . S
O163 Co150 2.244 . S
O163 C153 1.272 . S
O163 Co155 2.135 . S
Co164 O165 2.216 . S
Co164 O166 2.091 . S
Co164 O168 2.004 . S
Co164 O174 2.021 . S
Co164 O176 2.137 . S
Co164 O177 2.244 . S
O165 Co164 2.216 . S
O165 C172 1.247 . S
O166 Co164 2.091 . S
O166 C172 1.261 . S
C167 O176 1.247 . S
C167 O177 1.272 . S
O168 Co164 2.004 . S
O168 C173 1.259 . S
Co169 O170 2.061 . S
Co169 O175 2.052 . S
Co169 O177 2.135 . S
O170 Co169 2.061 . S
O170 C173 1.235 . S
C171 O174 1.238 . S
C171 O175 1.241 . S
C172 O165 1.247 . S
C172 O166 1.261 . S
C173 O168 1.259 . S
C173 O170 1.235 . S
O174 Co164 2.021 . S
O174 C171 1.238 . S
O175 Co169 2.052 . S
O175 C171 1.241 . S
O176 Co164 2.137 . S
O176 C167 1.247 . S
O177 Co164 2.244 . S
O177 C167 1.272 . S
O177 Co169 2.135 . S
Co178 O179 2.216 . S
Co178 O180 2.091 . S
Co178 O182 2.004 . S
Co178 O188 2.021 . S
Co178 O190 2.137 . S
Co178 O191 2.244 . S
O179 Co178 2.216 . S
O179 C186 1.247 . S
O180 Co178 2.091 . S
O180 C186 1.261 . S
C181 O190 1.247 . S
C181 O191 1.272 . S
O182 Co178 2.004 . S
O182 C187 1.259 . S
Co183 O184 2.061 . S
Co183 O189 2.052 . S
Co183 O191 2.135 . S
O184 Co183 2.061 . S
O184 C187 1.235 . S
C185 O188 1.238 . S
C185 O189 1.241 . S
C186 O179 1.247 . S
C186 O180 1.261 . S
C187 O182 1.259 . S
C187 O184 1.235 . S
O188 Co178 2.021 . S
O188 C185 1.238 . S
O189 Co183 2.052 . S
O189 C185 1.241 . S
O190 Co178 2.137 . S
O190 C181 1.247 . S
O191 Co178 2.244 . S
O191 C181 1.272 . S
O191 Co183 2.135 . S
H192 C200 0.929 . S
H193 C202 0.930 . S
H194 C204 0.930 . S
H195 C207 0.929 . S
H196 C210 0.930 . S
H197 C212 0.960 . S
H198 C212 0.960 . S
H199 C212 0.960 . S
C200 H192 0.929 . S
C200 C201 1.377 . S
C200 C202 1.384 . S
C201 C200 1.377 . S
C201 C207 1.390 . S
C202 H193 0.930 . S
C202 C200 1.384 . S
C202 C203 1.372 . S
C203 C202 1.372 . S
C203 C204 1.400 . S
C203 C208 1.490 . S
C204 H194 0.930 . S
C204 C203 1.400 . S
C204 C207 1.386 . S
H205 C221 0.930 . S
H206 C222 0.931 . S
C207 H195 0.929 . S
C207 C201 1.390 . S
C207 C204 1.386 . S
C208 C203 1.490 . S
C208 C210 1.395 . S
C208 C211 1.403 . S
H209 C215 0.930 . S
C210 H196 0.930 . S
C210 C208 1.395 . S
C210 C213 1.403 . S
C211 C208 1.403 . S
C211 C212 1.524 . S
C211 C215 1.400 . S
C212 H197 0.960 . S
C212 H198 0.960 . S
C212 H199 0.960 . S
C212 C211 1.524 . S
C213 C210 1.403 . S
C213 C214 1.392 . S
C213 C217 1.495 . S
C214 C213 1.392 . S
C214 C215 1.385 . S
C214 C216 1.478 . S
C215 H209 0.930 . S
C215 C211 1.400 . S
C215 C214 1.385 . S
C216 C214 1.478 . S
C216 C218 1.381 . S
C216 C222 1.383 . S
C217 C213 1.495 . S
C217 H223 0.959 . S
C217 H224 0.961 . S
C217 H225 0.960 . S
C218 C216 1.381 . S
C218 C219 1.394 . S
C218 H226 0.930 . S
C219 C218 1.394 . S
C219 C220 1.383 . S
C219 H227 0.929 . S
C220 C219 1.383 . S
C220 C221 1.377 . S
C221 H205 0.930 . S
C221 C220 1.377 . S
C221 C222 1.379 . S
C222 H206 0.931 . S
C222 C216 1.383 . S
C222 C221 1.379 . S
H223 C217 0.959 . S
H224 C217 0.961 . S
H225 C217 0.960 . S
H226 C218 0.930 . S
H227 C219 0.929 . S
H228 C236 0.929 . S
H229 C238 0.930 . S
H230 C240 0.930 . S
H231 C243 0.929 . S
H232 C246 0.930 . S
H233 C248 0.960 . S
H234 C248 0.960 . S
H235 C248 0.960 . S
C236 H228 0.929 . S
C236 C237 1.377 . S
C236 C238 1.384 . S
C237 C236 1.377 . S
C237 C243 1.390 . S
C238 H229 0.930 . S
C238 C236 1.384 . S
C238 C239 1.372 . S
C239 C238 1.372 . S
C239 C240 1.400 . S
C239 C244 1.490 . S
C240 H230 0.930 . S
C240 C239 1.400 . S
C240 C243 1.386 . S
H241 C257 0.930 . S
H242 C258 0.931 . S
C243 H231 0.929 . S
C243 C237 1.390 . S
C243 C240 1.386 . S
C244 C239 1.490 . S
C244 C246 1.395 . S
C244 C247 1.403 . S
H245 C251 0.930 . S
C246 H232 0.930 . S
C246 C244 1.395 . S
C246 C249 1.403 . S
C247 C244 1.403 . S
C247 C248 1.524 . S
C247 C251 1.400 . S
C248 H233 0.960 . S
C248 H234 0.960 . S
C248 H235 0.960 . S
C248 C247 1.524 . S
C249 C246 1.403 . S
C249 C250 1.392 . S
C249 C253 1.495 . S
C250 C249 1.392 . S
C250 C251 1.385 . S
C250 C252 1.478 . S
C251 H245 0.930 . S
C251 C247 1.400 . S
C251 C250 1.385 . S
C252 C250 1.478 . S
C252 C254 1.381 . S
C252 C258 1.383 . S
C253 C249 1.495 . S
C253 H259 0.959 . S
C253 H260 0.961 . S
C253 H261 0.960 . S
C254 C252 1.381 . S
C254 C255 1.394 . S
C254 H262 0.930 . S
C255 C254 1.394 . S
C255 C256 1.383 . S
C255 H263 0.929 . S
C256 C255 1.383 . S
C256 C257 1.377 . S
C257 H241 0.930 . S
C257 C256 1.377 . S
C257 C258 1.379 . S
C258 H242 0.931 . S
C258 C252 1.383 . S
C258 C257 1.379 . S
H259 C253 0.959 . S
H260 C253 0.961 . S
H261 C253 0.960 . S
H262 C254 0.930 . S
H263 C255 0.929 . S
H264 C272 0.929 . S
H265 C274 0.930 . S
H266 C276 0.930 . S
H267 C279 0.929 . S
H268 C282 0.930 . S
H269 C284 0.960 . S
H270 C284 0.960 . S
H271 C284 0.960 . S
C272 H264 0.929 . S
C272 C273 1.377 . S
C272 C274 1.384 . S
C273 C272 1.377 . S
C273 C279 1.390 . S
C274 H265 0.930 . S
C274 C272 1.384 . S
C274 C275 1.372 . S
C275 C274 1.372 . S
C275 C276 1.400 . S
C275 C280 1.490 . S
C276 H266 0.930 . S
C276 C275 1.400 . S
C276 C279 1.386 . S
H277 C293 0.930 . S
H278 C294 0.931 . S
C279 H267 0.929 . S
C279 C273 1.390 . S
C279 C276 1.386 . S
C280 C275 1.490 . S
C280 C282 1.395 . S
C280 C283 1.403 . S
H281 C287 0.930 . S
C282 H268 0.930 . S
C282 C280 1.395 . S
C282 C285 1.403 . S
C283 C280 1.403 . S
C283 C284 1.524 . S
C283 C287 1.400 . S
C284 H269 0.960 . S
C284 H270 0.960 . S
C284 H271 0.960 . S
C284 C283 1.524 . S
C285 C282 1.403 . S
C285 C286 1.392 . S
C285 C289 1.495 . S
C286 C285 1.392 . S
C286 C287 1.385 . S
C286 C288 1.478 . S
C287 H281 0.930 . S
C287 C283 1.400 . S
C287 C286 1.385 . S
C288 C286 1.478 . S
C288 C290 1.381 . S
C288 C294 1.383 . S
C289 C285 1.495 . S
C289 H295 0.959 . S
C289 H296 0.961 . S
C289 H297 0.960 . S
C290 C288 1.381 . S
C290 C291 1.394 . S
C290 H298 0.930 . S
C291 C290 1.394 . S
C291 C292 1.383 . S
C291 H299 0.929 . S
C292 C291 1.383 . S
C292 C293 1.377 . S
C293 H277 0.930 . S
C293 C292 1.377 . S
C293 C294 1.379 . S
C294 H278 0.931 . S
C294 C288 1.383 . S
C294 C293 1.379 . S
H295 C289 0.959 . S
H296 C289 0.961 . S
H297 C289 0.960 . S
H298 C290 0.930 . S
H299 C291 0.929 . S
H300 C308 0.929 . S
H301 C310 0.930 . S
H302 C312 0.930 . S
H303 C315 0.929 . S
H304 C318 0.930 . S
H305 C320 0.960 . S
H306 C320 0.960 . S
H307 C320 0.960 . S
C308 H300 0.929 . S
C308 C309 1.377 . S
C308 C310 1.384 . S
C309 C308 1.377 . S
C309 C315 1.390 . S
C310 H301 0.930 . S
C310 C308 1.384 . S
C310 C311 1.372 . S
C311 C310 1.372 . S
C311 C312 1.400 . S
C311 C316 1.490 . S
C312 H302 0.930 . S
C312 C311 1.400 . S
C312 C315 1.386 . S
H313 C329 0.930 . S
H314 C330 0.931 . S
C315 H303 0.929 . S
C315 C309 1.390 . S
C315 C312 1.386 . S
C316 C311 1.490 . S
C316 C318 1.395 . S
C316 C319 1.403 . S
H317 C323 0.930 . S
C318 H304 0.930 . S
C318 C316 1.395 . S
C318 C321 1.403 . S
C319 C316 1.403 . S
C319 C320 1.524 . S
C319 C323 1.400 . S
C320 H305 0.960 . S
C320 H306 0.960 . S
C320 H307 0.960 . S
C320 C319 1.524 . S
C321 C318 1.403 . S
C321 C322 1.392 . S
C321 C325 1.495 . S
C322 C321 1.392 . S
C322 C323 1.385 . S
C322 C324 1.478 . S
C323 H317 0.930 . S
C323 C319 1.400 . S
C323 C322 1.385 . S
C324 C322 1.478 . S
C324 C326 1.381 . S
C324 C330 1.383 . S
C325 C321 1.495 . S
C325 H331 0.959 . S
C325 H332 0.961 . S
C325 H333 0.960 . S
C326 C324 1.381 . S
C326 C327 1.394 . S
C326 H334 0.930 . S
C327 C326 1.394 . S
C327 C328 1.383 . S
C327 H335 0.929 . S
C328 C327 1.383 . S
C328 C329 1.377 . S
C329 H313 0.930 . S
C329 C328 1.377 . S
C329 C330 1.379 . S
C330 H314 0.931 . S
C330 C324 1.383 . S
C330 C329 1.379 . S
H331 C325 0.959 . S
H332 C325 0.961 . S
H333 C325 0.960 . S
H334 C326 0.930 . S
H335 C327 0.929 . S
H336 C344 0.929 1_554 S
H337 C346 0.930 . S
H338 C348 0.930 . S
H339 C351 0.929 . S
H340 C354 0.930 . S
H341 C356 0.960 . S
H342 C356 0.960 . S
H343 C356 0.960 . S
C344 H336 0.929 1_556 S
C344 C345 1.377 . S
C344 C346 1.384 . S
C345 C344 1.377 . S
C345 C351 1.390 . S
C346 H337 0.930 . S
C346 C344 1.384 . S
C346 C347 1.372 . S
C347 C346 1.372 . S
C347 C348 1.400 . S
C347 C352 1.490 . S
C348 H338 0.930 . S
C348 C347 1.400 . S
C348 C351 1.386 . S
H349 C365 0.930 . S
H350 C366 0.931 . S
C351 H339 0.929 . S
C351 C345 1.390 . S
C351 C348 1.386 . S
C352 C347 1.490 . S
C352 C354 1.395 . S
C352 C355 1.403 . S
H353 C359 0.930 . S
C354 H340 0.930 . S
C354 C352 1.395 . S
C354 C357 1.403 . S
C355 C352 1.403 . S
C355 C356 1.524 . S
C355 C359 1.400 . S
C356 H341 0.960 . S
C356 H342 0.960 . S
C356 H343 0.960 . S
C356 C355 1.524 . S
C357 C354 1.403 . S
C357 C358 1.392 . S
C357 C361 1.495 . S
C358 C357 1.392 . S
C358 C359 1.385 . S
C358 C360 1.478 . S
C359 H353 0.930 . S
C359 C355 1.400 . S
C359 C358 1.385 . S
C360 C358 1.478 . S
C360 C362 1.381 . S
C360 C366 1.383 . S
C361 C357 1.495 . S
C361 H367 0.959 . S
C361 H368 0.961 . S
C361 H369 0.960 . S
C362 C360 1.381 . S
C362 C363 1.394 . S
C362 H370 0.930 . S
C363 C362 1.394 . S
C363 C364 1.383 . S
C363 H371 0.929 . S
C364 C363 1.383 . S
C364 C365 1.377 . S
C365 H349 0.930 . S
C365 C364 1.377 . S
C365 C366 1.379 . S
C366 H350 0.931 . S
C366 C360 1.383 . S
C366 C365 1.379 . S
H367 C361 0.959 . S
H368 C361 0.961 . S
H369 C361 0.960 . S
H370 C362 0.930 . S
H371 C363 0.929 . S
H372 C380 0.929 . S
H373 C382 0.930 . S
H374 C384 0.930 . S
H375 C387 0.929 . S
H376 C390 0.930 . S
H377 C392 0.960 . S
H378 C392 0.960 . S
H379 C392 0.960 . S
C380 H372 0.929 . S
C380 C381 1.377 . S
C380 C382 1.384 . S
C381 C380 1.377 . S
C381 C387 1.390 . S
C382 H373 0.930 . S
C382 C380 1.384 . S
C382 C383 1.372 . S
C383 C382 1.372 . S
C383 C384 1.400 . S
C383 C388 1.490 . S
C384 H374 0.930 . S
C384 C383 1.400 . S
C384 C387 1.386 . S
H385 C401 0.930 . S
H386 C402 0.931 . S
C387 H375 0.929 . S
C387 C381 1.390 . S
C387 C384 1.386 . S
C388 C383 1.490 . S
C388 C390 1.395 . S
C388 C391 1.403 . S
H389 C395 0.930 . S
C390 H376 0.930 . S
C390 C388 1.395 . S
C390 C393 1.403 . S
C391 C388 1.403 . S
C391 C392 1.524 . S
C391 C395 1.400 . S
C392 H377 0.960 . S
C392 H378 0.960 . S
C392 H379 0.960 . S
C392 C391 1.524 . S
C393 C390 1.403 . S
C393 C394 1.392 . S
C393 C397 1.495 . S
C394 C393 1.392 . S
C394 C395 1.385 . S
C394 C396 1.478 . S
C395 H389 0.930 . S
C395 C391 1.400 . S
C395 C394 1.385 . S
C396 C394 1.478 . S
C396 C398 1.381 . S
C396 C402 1.383 . S
C397 C393 1.495 . S
C397 H403 0.959 . S
C397 H404 0.961 . S
C397 H405 0.960 . S
C398 C396 1.381 . S
C398 C399 1.394 . S
C398 H406 0.930 . S
C399 C398 1.394 . S
C399 C400 1.383 . S
C399 H407 0.929 . S
C400 C399 1.383 . S
C400 C401 1.377 . S
C401 H385 0.930 . S
C401 C400 1.377 . S
C401 C402 1.379 . S
C402 H386 0.931 . S
C402 C396 1.383 . S
C402 C401 1.379 . S
H403 C397 0.959 . S
H404 C397 0.961 . S
H405 C397 0.960 . S
H406 C398 0.930 . S
H407 C399 0.929 . S
H408 C416 0.929 . S
H409 C418 0.930 . S
H410 C420 0.930 . S
H411 C423 0.929 . S
H412 C426 0.930 . S
H413 C428 0.960 . S
H414 C428 0.960 . S
H415 C428 0.960 . S
C416 H408 0.929 . S
C416 C417 1.377 . S
C416 C418 1.384 . S
C417 C416 1.377 . S
C417 C423 1.390 . S
C418 H409 0.930 . S
C418 C416 1.384 . S
C418 C419 1.372 . S
C419 C418 1.372 . S
C419 C420 1.400 . S
C419 C424 1.490 . S
C420 H410 0.930 . S
C420 C419 1.400 . S
C420 C423 1.386 . S
H421 C437 0.930 . S
H422 C438 0.931 . S
C423 H411 0.929 . S
C423 C417 1.390 . S
C423 C420 1.386 . S
C424 C419 1.490 . S
C424 C426 1.395 . S
C424 C427 1.403 . S
H425 C431 0.930 . S
C426 H412 0.930 . S
C426 C424 1.395 . S
C426 C429 1.403 . S
C427 C424 1.403 . S
C427 C428 1.524 . S
C427 C431 1.400 . S
C428 H413 0.960 . S
C428 H414 0.960 . S
C428 H415 0.960 . S
C428 C427 1.524 . S
C429 C426 1.403 . S
C429 C430 1.392 . S
C429 C433 1.495 . S
C430 C429 1.392 . S
C430 C431 1.385 . S
C430 C432 1.478 . S
C431 H425 0.930 . S
C431 C427 1.400 . S
C431 C430 1.385 . S
C432 C430 1.478 . S
C432 C434 1.381 . S
C432 C438 1.383 . S
C433 C429 1.495 . S
C433 H439 0.959 . S
C433 H440 0.961 . S
C433 H441 0.960 . S
C434 C432 1.381 . S
C434 C435 1.394 . S
C434 H442 0.930 . S
C435 C434 1.394 . S
C435 C436 1.383 . S
C435 H443 0.929 . S
C436 C435 1.383 . S
C436 C437 1.377 . S
C437 H421 0.930 . S
C437 C436 1.377 . S
C437 C438 1.379 . S
C438 H422 0.931 . S
C438 C432 1.383 . S
C438 C437 1.379 . S
H439 C433 0.959 . S
H440 C433 0.961 . S
H441 C433 0.960 . S
H442 C434 0.930 . S
H443 C435 0.929 . S
H444 C452 0.929 . S
H445 C454 0.930 . S
H446 C456 0.930 . S
H447 C459 0.929 . S
H448 C462 0.930 . S
H449 C464 0.960 . S
H450 C464 0.960 . S
H451 C464 0.960 . S
C452 H444 0.929 . S
C452 C453 1.377 . S
C452 C454 1.384 . S
C453 C452 1.377 . S
C453 C459 1.390 . S
C454 H445 0.930 . S
C454 C452 1.384 . S
C454 C455 1.372 . S
C455 C454 1.372 . S
C455 C456 1.400 . S
C455 C460 1.490 . S
C456 H446 0.930 . S
C456 C455 1.400 . S
C456 C459 1.386 . S
H457 C473 0.930 . S
H458 C474 0.931 . S
C459 H447 0.929 . S
C459 C453 1.390 . S
C459 C456 1.386 . S
C460 C455 1.490 . S
C460 C462 1.395 . S
C460 C463 1.403 . S
H461 C467 0.930 . S
C462 H448 0.930 . S
C462 C460 1.395 . S
C462 C465 1.403 . S
C463 C460 1.403 . S
C463 C464 1.524 . S
C463 C467 1.400 . S
C464 H449 0.960 . S
C464 H450 0.960 . S
C464 H451 0.960 . S
C464 C463 1.524 . S
C465 C462 1.403 . S
C465 C466 1.392 . S
C465 C469 1.495 . S
C466 C465 1.392 . S
C466 C467 1.385 . S
C466 C468 1.478 . S
C467 H461 0.930 . S
C467 C463 1.400 . S
C467 C466 1.385 . S
C468 C466 1.478 . S
C468 C470 1.381 . S
C468 C474 1.383 . S
C469 C465 1.495 . S
C469 H475 0.959 . S
C469 H476 0.961 . S
C469 H477 0.960 . S
C470 C468 1.381 . S
C470 C471 1.394 . S
C470 H478 0.930 . S
C471 C470 1.394 . S
C471 C472 1.383 . S
C471 H479 0.929 . S
C472 C471 1.383 . S
C472 C473 1.377 . S
C473 H457 0.930 . S
C473 C472 1.377 . S
C473 C474 1.379 . S
C474 H458 0.931 . S
C474 C468 1.383 . S
C474 C473 1.379 . S
H475 C469 0.959 . S
H476 C469 0.961 . S
H477 C469 0.960 . S
H478 C470 0.930 . S
H479 C471 0.929 . S
H480 C488 0.929 . S
H481 C490 0.930 . S
H482 C492 0.930 . S
H483 C495 0.929 . S
H484 C498 0.930 . S
H485 C500 0.960 . S
H486 C500 0.960 . S
H487 C500 0.960 . S
C488 H480 0.929 . S
C488 C489 1.377 . S
C488 C490 1.384 . S
C489 C488 1.377 . S
C489 C495 1.390 . S
C490 H481 0.930 . S
C490 C488 1.384 . S
C490 C491 1.372 . S
C491 C490 1.372 . S
C491 C492 1.400 . S
C491 C496 1.490 . S
C492 H482 0.930 . S
C492 C491 1.400 . S
C492 C495 1.386 . S
H493 C509 0.930 . S
H494 C510 0.931 . S
C495 H483 0.929 . S
C495 C489 1.390 . S
C495 C492 1.386 . S
C496 C491 1.490 . S
C496 C498 1.395 . S
C496 C499 1.403 . S
H497 C503 0.930 . S
C498 H484 0.930 . S
C498 C496 1.395 . S
C498 C501 1.403 . S
C499 C496 1.403 . S
C499 C500 1.524 . S
C499 C503 1.400 . S
C500 H485 0.960 . S
C500 H486 0.960 . S
C500 H487 0.960 . S
C500 C499 1.524 . S
C501 C498 1.403 . S
C501 C502 1.392 . S
C501 C505 1.495 . S
C502 C501 1.392 . S
C502 C503 1.385 . S
C502 C504 1.478 . S
C503 H497 0.930 . S
C503 C499 1.400 . S
C503 C502 1.385 . S
C504 C502 1.478 . S
C504 C506 1.381 . S
C504 C510 1.383 . S
C505 C501 1.495 . S
C505 H511 0.959 . S
C505 H512 0.961 . S
C505 H513 0.960 . S
C506 C504 1.381 . S
C506 C507 1.394 . S
C506 H514 0.930 . S
C507 C506 1.394 . S
C507 C508 1.383 . S
C507 H515 0.929 . S
C508 C507 1.383 . S
C508 C509 1.377 . S
C509 H493 0.930 . S
C509 C508 1.377 . S
C509 C510 1.379 . S
C510 H494 0.931 . S
C510 C504 1.383 . S
C510 C509 1.379 . S
H511 C505 0.959 . S
H512 C505 0.961 . S
H513 C505 0.960 . S
H514 C506 0.930 . S
H515 C507 0.929 . S
H516 C524 0.929 . S
H517 C526 0.930 1_556 S
H518 C528 0.930 . S
H519 C531 0.929 . S
H520 C534 0.930 . S
H521 C536 0.960 . S
H522 C536 0.960 1_556 S
H523 C536 0.960 . S
C524 H516 0.929 . S
C524 C525 1.377 1_556 S
C524 C526 1.384 1_556 S
C525 C524 1.377 1_554 S
C525 C531 1.390 . S
C526 H517 0.930 1_554 S
C526 C524 1.384 1_554 S
C526 C527 1.372 . S
C527 C526 1.372 . S
C527 C528 1.400 . S
C527 C532 1.490 . S
C528 H518 0.930 . S
C528 C527 1.400 . S
C528 C531 1.386 . S
H529 C545 0.930 . S
H530 C546 0.931 . S
C531 H519 0.929 . S
C531 C525 1.390 . S
C531 C528 1.386 . S
C532 C527 1.490 . S
C532 C534 1.395 . S
C532 C535 1.403 . S
H533 C539 0.930 . S
C534 H520 0.930 . S
C534 C532 1.395 . S
C534 C537 1.403 . S
C535 C532 1.403 . S
C535 C536 1.524 . S
C535 C539 1.400 . S
C536 H521 0.960 . S
C536 H522 0.960 1_554 S
C536 H523 0.960 . S
C536 C535 1.524 . S
C537 C534 1.403 . S
C537 C538 1.392 . S
C537 C541 1.495 . S
C538 C537 1.392 . S
C538 C539 1.385 . S
C538 C540 1.478 . S
C539 H533 0.930 . S
C539 C535 1.400 . S
C539 C538 1.385 . S
C540 C538 1.478 . S
C540 C542 1.381 . S
C540 C546 1.383 . S
C541 C537 1.495 . S
C541 H547 0.959 . S
C541 H548 0.961 . S
C541 H549 0.960 . S
C542 C540 1.381 . S
C542 C543 1.394 . S
C542 H550 0.930 . S
C543 C542 1.394 . S
C543 C544 1.383 . S
C543 H551 0.929 . S
C544 C543 1.383 . S
C544 C545 1.377 . S
C545 H529 0.930 . S
C545 C544 1.377 . S
C545 C546 1.379 . S
C546 H530 0.931 . S
C546 C540 1.383 . S
C546 C545 1.379 . S
H547 C541 0.959 . S
H548 C541 0.961 . S
H549 C541 0.960 . S
H550 C542 0.930 . S
H551 C543 0.929 . S
H552 C560 0.929 . S
H553 C562 0.930 . S
H554 C564 0.930 . S
H555 C567 0.929 . S
H556 C570 0.930 . S
H557 C572 0.960 . S
H558 C572 0.960 . S
H559 C572 0.960 . S
C560 H552 0.929 . S
C560 C561 1.377 . S
C560 C562 1.384 . S
C561 C560 1.377 . S
C561 C567 1.390 . S
C562 H553 0.930 . S
C562 C560 1.384 . S
C562 C563 1.372 . S
C563 C562 1.372 . S
C563 C564 1.400 . S
C563 C568 1.490 . S
C564 H554 0.930 . S
C564 C563 1.400 . S
C564 C567 1.386 . S
H565 C581 0.930 . S
H566 C582 0.931 . S
C567 H555 0.929 . S
C567 C561 1.390 . S
C567 C564 1.386 . S
C568 C563 1.490 . S
C568 C570 1.395 . S
C568 C571 1.403 . S
H569 C575 0.930 . S
C570 H556 0.930 . S
C570 C568 1.395 . S
C570 C573 1.403 . S
C571 C568 1.403 . S
C571 C572 1.524 . S
C571 C575 1.400 . S
C572 H557 0.960 . S
C572 H558 0.960 . S
C572 H559 0.960 . S
C572 C571 1.524 . S
C573 C570 1.403 . S
C573 C574 1.392 . S
C573 C577 1.495 . S
C574 C573 1.392 . S
C574 C575 1.385 . S
C574 C576 1.478 . S
C575 H569 0.930 . S
C575 C571 1.400 . S
C575 C574 1.385 . S
C576 C574 1.478 . S
C576 C578 1.381 . S
C576 C582 1.383 . S
C577 C573 1.495 . S
C577 H583 0.959 . S
C577 H584 0.961 . S
C577 H585 0.960 . S
C578 C576 1.381 . S
C578 C579 1.394 . S
C578 H586 0.930 . S
C579 C578 1.394 . S
C579 C580 1.383 . S
C579 H587 0.929 . S
C580 C579 1.383 . S
C580 C581 1.377 . S
C581 H565 0.930 . S
C581 C580 1.377 . S
C581 C582 1.379 . S
C582 H566 0.931 . S
C582 C576 1.383 . S
C582 C581 1.379 . S
H583 C577 0.959 . S
H584 C577 0.961 . S
H585 C577 0.960 . S
H586 C578 0.930 . S
H587 C579 0.929 . S
H588 C596 0.929 . S
H589 C598 0.930 . S
H590 C600 0.930 . S
H591 C603 0.929 . S
H592 C606 0.930 . S
H593 C608 0.960 . S
H594 C608 0.960 . S
H595 C608 0.960 . S
C596 H588 0.929 . S
C596 C597 1.377 . S
C596 C598 1.384 . S
C597 C596 1.377 . S
C597 C603 1.390 . S
C598 H589 0.930 . S
C598 C596 1.384 . S
C598 C599 1.372 . S
C599 C598 1.372 . S
C599 C600 1.400 . S
C599 C604 1.490 . S
C600 H590 0.930 . S
C600 C599 1.400 . S
C600 C603 1.386 . S
H601 C617 0.930 . S
H602 C618 0.931 . S
C603 H591 0.929 . S
C603 C597 1.390 . S
C603 C600 1.386 . S
C604 C599 1.490 . S
C604 C606 1.395 . S
C604 C607 1.403 . S
H605 C611 0.930 . S
C606 H592 0.930 . S
C606 C604 1.395 . S
C606 C609 1.403 . S
C607 C604 1.403 . S
C607 C608 1.524 . S
C607 C611 1.400 . S
C608 H593 0.960 . S
C608 H594 0.960 . S
C608 H595 0.960 . S
C608 C607 1.524 . S
C609 C606 1.403 . S
C609 C610 1.392 . S
C609 C613 1.495 . S
C610 C609 1.392 . S
C610 C611 1.385 . S
C610 C612 1.478 . S
C611 H605 0.930 . S
C611 C607 1.400 . S
C611 C610 1.385 . S
C612 C610 1.478 . S
C612 C614 1.381 . S
C612 C618 1.383 . S
C613 C609 1.495 . S
C613 H619 0.959 . S
C613 H620 0.961 . S
C613 H621 0.960 . S
C614 C612 1.381 . S
C614 C615 1.394 . S
C614 H622 0.930 . S
C615 C614 1.394 . S
C615 C616 1.383 . S
C615 H623 0.929 . S
C616 C615 1.383 . S
C616 C617 1.377 . S
C617 H601 0.930 . S
C617 C616 1.377 . S
C617 C618 1.379 . S
C618 H602 0.931 . S
C618 C612 1.383 . S
C618 C617 1.379 . S
H619 C613 0.959 . S
H620 C613 0.961 . S
H621 C613 0.960 . S
H622 C614 0.930 . S
H623 C615 0.929 . S
H624 C632 0.929 . S
H625 C634 0.930 . S
H626 C636 0.930 . S
H627 C639 0.929 . S
H628 C642 0.930 . S
H629 C644 0.960 . S
H630 C644 0.960 . S
H631 C644 0.960 . S
C632 H624 0.929 . S
C632 C633 1.377 . S
C632 C634 1.384 . S
C633 C632 1.377 . S
C633 C639 1.390 . S
C634 H625 0.930 . S
C634 C632 1.384 . S
C634 C635 1.372 . S
C635 C634 1.372 . S
C635 C636 1.400 . S
C635 C640 1.490 . S
C636 H626 0.930 . S
C636 C635 1.400 . S
C636 C639 1.386 . S
H637 C653 0.930 . S
H638 C654 0.931 . S
C639 H627 0.929 . S
C639 C633 1.390 . S
C639 C636 1.386 . S
C640 C635 1.490 . S
C640 C642 1.395 . S
C640 C643 1.403 . S
H641 C647 0.930 . S
C642 H628 0.930 . S
C642 C640 1.395 . S
C642 C645 1.403 . S
C643 C640 1.403 . S
C643 C644 1.524 . S
C643 C647 1.400 . S
C644 H629 0.960 . S
C644 H630 0.960 . S
C644 H631 0.960 . S
C644 C643 1.524 . S
C645 C642 1.403 . S
C645 C646 1.392 . S
C645 C649 1.495 . S
C646 C645 1.392 . S
C646 C647 1.385 . S
C646 C648 1.478 . S
C647 H641 0.930 . S
C647 C643 1.400 . S
C647 C646 1.385 . S
C648 C646 1.478 . S
C648 C650 1.381 . S
C648 C654 1.383 . S
C649 C645 1.495 . S
C649 H655 0.959 . S
C649 H656 0.961 . S
C649 H657 0.960 . S
C650 C648 1.381 . S
C650 C651 1.394 . S
C650 H658 0.930 . S
C651 C650 1.394 . S
C651 C652 1.383 . S
C651 H659 0.929 . S
C652 C651 1.383 . S
C652 C653 1.377 . S
C653 H637 0.930 . S
C653 C652 1.377 . S
C653 C654 1.379 . S
C654 H638 0.931 . S
C654 C648 1.383 . S
C654 C653 1.379 . S
H655 C649 0.959 . S
H656 C649 0.961 . S
H657 C649 0.960 . S
H658 C650 0.930 . S
H659 C651 0.929 . S
H660 C668 0.929 . S
H661 C670 0.930 . S
H662 C672 0.930 . S
H663 C675 0.929 . S
H664 C678 0.930 . S
H665 C680 0.960 . S
H666 C680 0.960 . S
H667 C680 0.960 . S
C668 H660 0.929 . S
C668 C669 1.377 . S
C668 C670 1.384 . S
C669 C668 1.377 . S
C669 C675 1.390 . S
C670 H661 0.930 . S
C670 C668 1.384 . S
C670 C671 1.372 . S
C671 C670 1.372 . S
C671 C672 1.400 . S
C671 C676 1.490 . S
C672 H662 0.930 . S
C672 C671 1.400 . S
C672 C675 1.386 . S
H673 C689 0.930 . S
H674 C690 0.931 . S
C675 H663 0.929 . S
C675 C669 1.390 . S
C675 C672 1.386 . S
C676 C671 1.490 . S
C676 C678 1.395 . S
C676 C679 1.403 . S
H677 C683 0.930 . S
C678 H664 0.930 . S
C678 C676 1.395 . S
C678 C681 1.403 . S
C679 C676 1.403 . S
C679 C680 1.524 . S
C679 C683 1.400 . S
C680 H665 0.960 . S
C680 H666 0.960 . S
C680 H667 0.960 . S
C680 C679 1.524 . S
C681 C678 1.403 . S
C681 C682 1.392 . S
C681 C685 1.495 . S
C682 C681 1.392 . S
C682 C683 1.385 . S
C682 C684 1.478 . S
C683 H677 0.930 . S
C683 C679 1.400 . S
C683 C682 1.385 . S
C684 C682 1.478 . S
C684 C686 1.381 . S
C684 C690 1.383 . S
C685 C681 1.495 . S
C685 H691 0.959 . S
C685 H692 0.961 . S
C685 H693 0.960 . S
C686 C684 1.381 . S
C686 C687 1.394 . S
C686 H694 0.930 . S
C687 C686 1.394 . S
C687 C688 1.383 . S
C687 H695 0.929 . S
C688 C687 1.383 . S
C688 C689 1.377 . S
C689 H673 0.930 . S
C689 C688 1.377 . S
C689 C690 1.379 . S
C690 H674 0.931 . S
C690 C684 1.383 . S
C690 C689 1.379 . S
H691 C685 0.959 . S
H692 C685 0.961 . S
H693 C685 0.960 . S
H694 C686 0.930 . S
H695 C687 0.929 . S
H696 C704 0.929 . S
H697 C706 0.930 . S
H698 C708 0.930 . S
H699 C711 0.929 . S
H700 C714 0.930 . S
H701 C716 0.960 . S
H702 C716 0.960 . S
H703 C716 0.960 . S
C704 H696 0.929 . S
C704 C705 1.377 . S
C704 C706 1.384 . S
C705 C704 1.377 . S
C705 C711 1.390 . S
C706 H697 0.930 . S
C706 C704 1.384 . S
C706 C707 1.372 . S
C707 C706 1.372 . S
C707 C708 1.400 . S
C707 C712 1.490 . S
C708 H698 0.930 . S
C708 C707 1.400 . S
C708 C711 1.386 . S
H709 C725 0.930 . S
H710 C726 0.931 . S
C711 H699 0.929 . S
C711 C705 1.390 . S
C711 C708 1.386 . S
C712 C707 1.490 . S
C712 C714 1.395 . S
C712 C715 1.403 . S
H713 C719 0.930 . S
C714 H700 0.930 . S
C714 C712 1.395 . S
C714 C717 1.403 . S
C715 C712 1.403 . S
C715 C716 1.524 . S
C715 C719 1.400 . S
C716 H701 0.960 . S
C716 H702 0.960 . S
C716 H703 0.960 . S
C716 C715 1.524 . S
C717 C714 1.403 . S
C717 C718 1.392 . S
C717 C721 1.495 . S
C718 C717 1.392 . S
C718 C719 1.385 . S
C718 C720 1.478 . S
C719 H713 0.930 . S
C719 C715 1.400 . S
C719 C718 1.385 . S
C720 C718 1.478 . S
C720 C722 1.381 . S
C720 C726 1.383 . S
C721 C717 1.495 . S
C721 H727 0.959 . S
C721 H728 0.961 . S
C721 H729 0.960 . S
C722 C720 1.381 . S
C722 C723 1.394 . S
C722 H730 0.930 . S
C723 C722 1.394 . S
C723 C724 1.383 . S
C723 H731 0.929 . S
C724 C723 1.383 . S
C724 C725 1.377 . S
C725 H709 0.930 . S
C725 C724 1.377 . S
C725 C726 1.379 . S
C726 H710 0.931 . S
C726 C720 1.383 . S
C726 C725 1.379 . S
H727 C721 0.959 . S
H728 C721 0.961 . S
H729 C721 0.960 . S
H730 C722 0.930 . S
H731 C723 0.929 . S
H732 C740 0.929 . S
H733 C742 0.930 . S
H734 C744 0.930 . S
H735 C747 0.929 . S
H736 C750 0.930 . S
H737 C752 0.960 . S
H738 C752 0.960 . S
H739 C752 0.960 . S
C740 H732 0.929 . S
C740 C741 1.377 . S
C740 C742 1.384 . S
C741 C740 1.377 . S
C741 C747 1.390 . S
C742 H733 0.930 . S
C742 C740 1.384 . S
C742 C743 1.372 . S
C743 C742 1.372 . S
C743 C744 1.400 . S
C743 C748 1.490 . S
C744 H734 0.930 . S
C744 C743 1.400 . S
C744 C747 1.386 . S
H745 C761 0.930 . S
H746 C762 0.931 . S
C747 H735 0.929 . S
C747 C741 1.390 . S
C747 C744 1.386 . S
C748 C743 1.490 . S
C748 C750 1.395 . S
C748 C751 1.403 . S
H749 C755 0.930 . S
C750 H736 0.930 . S
C750 C748 1.395 . S
C750 C753 1.403 . S
C751 C748 1.403 . S
C751 C752 1.524 . S
C751 C755 1.400 . S
C752 H737 0.960 . S
C752 H738 0.960 . S
C752 H739 0.960 . S
C752 C751 1.524 . S
C753 C750 1.403 . S
C753 C754 1.392 . S
C753 C757 1.495 . S
C754 C753 1.392 . S
C754 C755 1.385 . S
C754 C756 1.478 . S
C755 H749 0.930 . S
C755 C751 1.400 . S
C755 C754 1.385 . S
C756 C754 1.478 . S
C756 C758 1.352 1_556 S
C756 C762 1.383 . S
C757 C753 1.495 . S
C757 H763 0.959 . S
C757 H764 0.961 . S
C757 H765 0.960 . S
C758 C756 1.352 1_554 S
C758 C759 1.421 . S
C758 H766 0.934 . S
C759 C758 1.421 . S
C759 C760 1.383 . S
C759 H767 0.929 . S
C760 C759 1.383 . S
C760 C761 1.377 1_554 S
C761 H745 0.930 . S
C761 C760 1.377 1_556 S
C761 C762 1.379 . S
C762 H746 0.931 . S
C762 C756 1.383 . S
C762 C761 1.379 . S
H763 C757 0.959 . S
H764 C757 0.961 . S
H765 C757 0.960 . S
H766 C758 0.934 . S
H767 C759 0.929 . S
H768 C776 0.929 . S
H769 C778 0.930 . S
H770 C780 0.930 . S
H771 C783 0.929 . S
H772 C786 0.930 . S
H773 C788 0.960 . S
H774 C788 0.960 . S
H775 C788 0.960 . S
C776 H768 0.929 . S
C776 C777 1.377 . S
C776 C778 1.384 . S
C777 C776 1.377 . S
C777 C783 1.390 . S
C778 H769 0.930 . S
C778 C776 1.384 . S
C778 C779 1.372 . S
C779 C778 1.372 . S
C779 C780 1.400 . S
C779 C784 1.490 . S
C780 H770 0.930 . S
C780 C779 1.400 . S
C780 C783 1.386 . S
H781 C797 0.930 . S
H782 C798 0.931 . S
C783 H771 0.929 . S
C783 C777 1.390 . S
C783 C780 1.386 . S
C784 C779 1.490 . S
C784 C786 1.395 . S
C784 C787 1.403 . S
H785 C791 0.930 . S
C786 H772 0.930 . S
C786 C784 1.395 . S
C786 C789 1.403 . S
C787 C784 1.403 . S
C787 C788 1.524 . S
C787 C791 1.400 . S
C788 H773 0.960 . S
C788 H774 0.960 . S
C788 H775 0.960 . S
C788 C787 1.524 . S
C789 C786 1.403 . S
C789 C790 1.392 . S
C789 C793 1.495 . S
C790 C789 1.392 . S
C790 C791 1.385 . S
C790 C792 1.478 . S
C791 H785 0.930 . S
C791 C787 1.400 . S
C791 C790 1.385 . S
C792 C790 1.478 . S
C792 C794 1.381 . S
C792 C798 1.383 . S
C793 C789 1.495 . S
C793 H799 0.959 . S
C793 H800 0.961 . S
C793 H801 0.960 . S
C794 C792 1.381 . S
C794 C795 1.394 . S
C794 H802 0.930 . S
C795 C794 1.394 . S
C795 C796 1.383 . S
C795 H803 0.929 . S
C796 C795 1.383 . S
C796 C797 1.377 . S
C797 H781 0.930 . S
C797 C796 1.377 . S
C797 C798 1.379 . S
C798 H782 0.931 . S
C798 C792 1.383 . S
C798 C797 1.379 . S
H799 C793 0.959 . S
H800 C793 0.961 . S
H801 C793 0.960 . S
H802 C794 0.930 . S
H803 C795 0.929 . S
H804 C812 0.929 . S
H805 C814 0.930 . S
H806 C816 0.930 . S
H807 C819 0.929 . S
H808 C822 0.930 . S
H809 C824 0.960 . S
H810 C824 0.960 . S
H811 C824 0.960 . S
C812 H804 0.929 . S
C812 C813 1.377 . S
C812 C814 1.384 . S
C813 C812 1.377 . S
C813 C819 1.390 . S
C814 H805 0.930 . S
C814 C812 1.384 . S
C814 C815 1.372 . S
C815 C814 1.372 . S
C815 C816 1.400 . S
C815 C820 1.490 . S
C816 H806 0.930 . S
C816 C815 1.400 . S
C816 C819 1.386 . S
H817 C833 0.930 . S
H818 C834 0.931 . S
C819 H807 0.929 . S
C819 C813 1.390 . S
C819 C816 1.386 . S
C820 C815 1.490 . S
C820 C822 1.395 . S
C820 C823 1.403 . S
H821 C827 0.930 . S
C822 H808 0.930 . S
C822 C820 1.395 . S
C822 C825 1.403 . S
C823 C820 1.403 . S
C823 C824 1.524 . S
C823 C827 1.400 . S
C824 H809 0.960 . S
C824 H810 0.960 . S
C824 H811 0.960 . S
C824 C823 1.524 . S
C825 C822 1.403 . S
C825 C826 1.392 . S
C825 C829 1.495 . S
C826 C825 1.392 . S
C826 C827 1.385 . S
C826 C828 1.478 . S
C827 H821 0.930 . S
C827 C823 1.400 . S
C827 C826 1.385 . S
C828 C826 1.478 . S
C828 C830 1.381 . S
C828 C834 1.383 . S
C829 C825 1.495 . S
C829 H835 0.959 . S
C829 H836 0.961 . S
C829 H837 0.960 . S
C830 C828 1.381 . S
C830 C831 1.394 . S
C830 H838 0.930 . S
C831 C830 1.394 . S
C831 C832 1.383 . S
C831 H839 0.929 . S
C832 C831 1.383 . S
C832 C833 1.377 . S
C833 H817 0.930 . S
C833 C832 1.377 . S
C833 C834 1.379 . S
C834 H818 0.931 . S
C834 C828 1.383 . S
C834 C833 1.379 . S
H835 C829 0.959 . S
H836 C829 0.961 . S
H837 C829 0.960 . S
H838 C830 0.930 . S
H839 C831 0.929 . S
H840 C848 0.929 . S
H841 C850 0.930 . S
H842 C852 0.930 . S
H843 C855 0.929 . S
H844 C858 0.930 . S
H845 C860 0.960 . S
H846 C860 0.960 . S
H847 C860 0.960 . S
C848 H840 0.929 . S
C848 C849 1.377 . S
C848 C850 1.384 . S
C849 C848 1.377 . S
C849 C855 1.390 . S
C850 H841 0.930 . S
C850 C848 1.384 . S
C850 C851 1.372 . S
C851 C850 1.372 . S
C851 C852 1.400 . S
C851 C856 1.490 . S
C852 H842 0.930 . S
C852 C851 1.400 . S
C852 C855 1.386 . S
H853 C869 0.930 . S
H854 C870 0.931 . S
C855 H843 0.929 . S
C855 C849 1.390 . S
C855 C852 1.386 . S
C856 C851 1.490 . S
C856 C858 1.395 . S
C856 C859 1.403 . S
H857 C863 0.930 . S
C858 H844 0.930 . S
C858 C856 1.395 . S
C858 C861 1.403 . S
C859 C856 1.403 . S
C859 C860 1.524 . S
C859 C863 1.400 . S
C860 H845 0.960 . S
C860 H846 0.960 . S
C860 H847 0.960 . S
C860 C859 1.524 . S
C861 C858 1.403 . S
C861 C862 1.392 . S
C861 C865 1.495 . S
C862 C861 1.392 . S
C862 C863 1.385 . S
C862 C864 1.478 . S
C863 H857 0.930 . S
C863 C859 1.400 . S
C863 C862 1.385 . S
C864 C862 1.478 . S
C864 C866 1.381 . S
C864 C870 1.383 . S
C865 C861 1.495 . S
C865 H871 0.959 . S
C865 H872 0.961 . S
C865 H873 0.960 . S
C866 C864 1.381 . S
C866 C867 1.394 . S
C866 H874 0.930 . S
C867 C866 1.394 . S
C867 C868 1.383 . S
C867 H875 0.929 . S
C868 C867 1.383 . S
C868 C869 1.377 . S
C869 H853 0.930 . S
C869 C868 1.377 . S
C869 C870 1.379 . S
C870 H854 0.931 . S
C870 C864 1.383 . S
C870 C869 1.379 . S
H871 C865 0.959 . S
H872 C865 0.961 . S
H873 C865 0.960 . S
H874 C866 0.930 . S
H875 C867 0.929 . S
H876 C884 0.929 . S
H877 C886 0.930 . S
H878 C888 0.930 . S
H879 C891 0.929 . S
H880 C894 0.930 . S
H881 C896 0.960 . S
H882 C896 0.960 . S
H883 C896 0.960 . S
C884 H876 0.929 . S
C884 C885 1.377 . S
C884 C886 1.384 . S
C885 C884 1.377 . S
C885 C891 1.390 . S
C886 H877 0.930 . S
C886 C884 1.384 . S
C886 C887 1.372 . S
C887 C886 1.372 . S
C887 C888 1.400 . S
C887 C892 1.490 . S
C888 H878 0.930 . S
C888 C887 1.400 . S
C888 C891 1.386 . S
H889 C905 0.930 . S
H890 C906 0.931 . S
C891 H879 0.929 . S
C891 C885 1.390 . S
C891 C888 1.386 . S
C892 C887 1.490 . S
C892 C894 1.395 . S
C892 C895 1.403 . S
H893 C899 0.930 . S
C894 H880 0.930 . S
C894 C892 1.395 . S
C894 C897 1.403 . S
C895 C892 1.403 . S
C895 C896 1.524 . S
C895 C899 1.400 . S
C896 H881 0.960 . S
C896 H882 0.960 . S
C896 H883 0.960 . S
C896 C895 1.524 . S
C897 C894 1.403 . S
C897 C898 1.392 . S
C897 C901 1.495 . S
C898 C897 1.392 . S
C898 C899 1.385 . S
C898 C900 1.478 . S
C899 H893 0.930 . S
C899 C895 1.400 . S
C899 C898 1.385 . S
C900 C898 1.478 . S
C900 C902 1.381 . S
C900 C906 1.383 . S
C901 C897 1.495 . S
C901 H907 0.959 . S
C901 H908 0.961 . S
C901 H909 0.960 . S
C902 C900 1.381 . S
C902 C903 1.394 . S
C902 H910 0.930 . S
C903 C902 1.394 . S
C903 C904 1.383 . S
C903 H911 0.929 . S
C904 C903 1.383 . S
C904 C905 1.377 . S
C905 H889 0.930 . S
C905 C904 1.377 . S
C905 C906 1.379 . S
C906 H890 0.931 . S
C906 C900 1.383 . S
C906 C905 1.379 . S
H907 C901 0.959 . S
H908 C901 0.961 . S
H909 C901 0.960 . S
H910 C902 0.930 . S
H911 C903 0.929 . S
H912 C920 0.929 . S
H913 C922 0.930 . S
H914 C924 0.930 . S
H915 C927 0.929 . S
H916 C930 0.930 . S
H917 C932 0.960 . S
H918 C932 0.960 . S
H919 C932 0.960 . S
C920 H912 0.929 . S
C920 C921 1.377 . S
C920 C922 1.384 . S
C921 C920 1.377 . S
C921 C927 1.390 . S
C922 H913 0.930 . S
C922 C920 1.384 . S
C922 C923 1.372 . S
C923 C922 1.372 . S
C923 C924 1.400 . S
C923 C928 1.490 . S
C924 H914 0.930 . S
C924 C923 1.400 . S
C924 C927 1.386 . S
H925 C941 0.930 . S
H926 C942 0.931 . S
C927 H915 0.929 . S
C927 C921 1.390 . S
C927 C924 1.386 . S
C928 C923 1.490 . S
C928 C930 1.395 . S
C928 C931 1.403 . S
H929 C935 0.930 . S
C930 H916 0.930 . S
C930 C928 1.395 . S
C930 C933 1.403 . S
C931 C928 1.403 . S
C931 C932 1.524 . S
C931 C935 1.400 . S
C932 H917 0.960 . S
C932 H918 0.960 . S
C932 H919 0.960 . S
C932 C931 1.524 . S
C933 C930 1.403 . S
C933 C934 1.392 . S
C933 C937 1.495 . S
C934 C933 1.392 . S
C934 C935 1.385 . S
C934 C936 1.478 . S
C935 H929 0.930 . S
C935 C931 1.400 . S
C935 C934 1.385 . S
C936 C934 1.478 . S
C936 C938 1.381 . S
C936 C942 1.383 . S
C937 C933 1.495 . S
C937 H943 0.959 . S
C937 H944 0.961 . S
C937 H945 0.960 . S
C938 C936 1.381 . S
C938 C939 1.394 . S
C938 H946 0.930 . S
C939 C938 1.394 . S
C939 C940 1.383 . S
C939 H947 0.929 . S
C940 C939 1.383 . S
C940 C941 1.377 . S
C941 H925 0.930 . S
C941 C940 1.377 . S
C941 C942 1.379 . S
C942 H926 0.931 . S
C942 C936 1.383 . S
C942 C941 1.379 . S
H943 C937 0.959 . S
H944 C937 0.961 . S
H945 C937 0.960 . S
H946 C938 0.930 . S
H947 C939 0.929 . S
H948 C956 0.929 . S
H949 C958 0.930 . S
H950 C960 0.930 . S
H951 C963 0.929 . S
H952 C966 0.930 . S
H953 C968 0.960 . S
H954 C968 0.960 . S
H955 C968 0.960 . S
C956 H948 0.929 . S
C956 C957 1.377 . S
C956 C958 1.384 . S
C957 C956 1.377 . S
C957 C963 1.390 . S
C958 H949 0.930 . S
C958 C956 1.384 . S
C958 C959 1.372 . S
C959 C958 1.372 . S
C959 C960 1.400 . S
C959 C964 1.490 . S
C960 H950 0.930 . S
C960 C959 1.400 . S
C960 C963 1.386 . S
H961 C977 0.930 . S
H962 C978 0.931 . S
C963 H951 0.929 . S
C963 C957 1.390 . S
C963 C960 1.386 . S
C964 C959 1.490 . S
C964 C966 1.395 . S
C964 C967 1.403 . S
H965 C971 0.930 . S
C966 H952 0.930 . S
C966 C964 1.395 . S
C966 C969 1.403 . S
C967 C964 1.403 . S
C967 C968 1.524 . S
C967 C971 1.400 . S
C968 H953 0.960 . S
C968 H954 0.960 . S
C968 H955 0.960 . S
C968 C967 1.524 . S
C969 C966 1.403 . S
C969 C970 1.392 . S
C969 C973 1.495 . S
C970 C969 1.392 . S
C970 C971 1.385 . S
C970 C972 1.478 . S
C971 H965 0.930 . S
C971 C967 1.400 . S
C971 C970 1.385 . S
C972 C970 1.478 . S
C972 C974 1.381 . S
C972 C978 1.383 . S
C973 C969 1.495 . S
C973 H979 0.959 . S
C973 H980 0.961 . S
C973 H981 0.960 . S
C974 C972 1.381 . S
C974 C975 1.394 . S
C974 H982 0.930 . S
C975 C974 1.394 . S
C975 C976 1.383 . S
C975 H983 0.929 . S
C976 C975 1.383 . S
C976 C977 1.377 . S
C977 H961 0.930 . S
C977 C976 1.377 . S
C977 C978 1.379 . S
C978 H962 0.931 . S
C978 C972 1.383 . S
C978 C977 1.379 . S
H979 C973 0.959 . S
H980 C973 0.961 . S
H981 C973 0.960 . S
H982 C974 0.930 . S
H983 C975 0.929 . S
H984 C992 0.929 . S
H985 C994 0.930 . S
H986 C996 0.930 . S
H987 C999 0.929 . S
H988 C1002 0.930 . S
H989 C1004 0.960 . S
H990 C1004 0.960 . S
H991 C1004 0.960 . S
C992 H984 0.929 . S
C992 C993 1.377 . S
C992 C994 1.384 . S
C993 C992 1.377 . S
C993 C999 1.390 . S
C994 H985 0.930 . S
C994 C992 1.384 . S
C994 C995 1.372 . S
C995 C994 1.372 . S
C995 C996 1.400 . S
C995 C1000 1.490 . S
C996 H986 0.930 . S
C996 C995 1.400 . S
C996 C999 1.386 . S
H997 C1013 0.930 . S
H998 C1014 0.931 1_554 S
C999 H987 0.929 . S
C999 C993 1.390 . S
C999 C996 1.386 . S
C1000 C995 1.490 . S
C1000 C1002 1.395 . S
C1000 C1003 1.403 . S
H1001 C1007 0.935 . S
C1002 H988 0.930 . S
C1002 C1000 1.395 . S
C1002 C1005 1.403 . S
C1003 C1000 1.403 . S
C1003 C1004 1.524 . S
C1003 C1007 1.400 . S
C1004 H989 0.960 . S
C1004 H990 0.960 . S
C1004 H991 0.960 . S
C1004 C1003 1.524 . S
C1005 C1002 1.403 . S
C1005 C1006 1.392 . S
C1005 C1009 1.495 . S
C1006 C1005 1.392 . S
C1006 C1007 1.385 . S
C1006 C1008 1.478 1_554 S
C1007 H1001 0.935 . S
C1007 C1003 1.400 . S
C1007 C1006 1.385 . S
C1008 C1006 1.478 1_556 S
C1008 C1010 1.381 . S
C1008 C1014 1.383 . S
C1009 C1005 1.495 . S
C1009 H1015 0.959 . S
C1009 H1016 0.961 . S
C1009 H1017 0.960 . S
C1010 C1008 1.381 . S
C1010 C1011 1.394 . S
C1010 H1018 0.930 . S
C1011 C1010 1.394 . S
C1011 C1012 1.383 . S
C1011 H1019 0.929 . S
C1012 C1011 1.383 . S
C1012 C1013 1.377 . S
C1013 H997 0.930 . S
C1013 C1012 1.377 . S
C1013 C1014 1.379 . S
C1014 H998 0.931 1_556 S
C1014 C1008 1.383 . S
C1014 C1013 1.379 . S
H1015 C1009 0.959 . S
H1016 C1009 0.961 . S
H1017 C1009 0.960 . S
H1018 C1010 0.930 . S
H1019 C1011 0.929 . S
H1020 C1028 0.929 . S
H1021 C1030 0.930 . S
H1022 C1032 0.930 . S
H1023 C1035 0.929 . S
H1024 C1038 0.930 . S
H1025 C1040 0.960 . S
H1026 C1040 0.960 . S
H1027 C1040 0.960 . S
C1028 H1020 0.929 . S
C1028 C1029 1.377 . S
C1028 C1030 1.384 . S
C1029 C1028 1.377 . S
C1029 C1035 1.390 . S
C1030 H1021 0.930 . S
C1030 C1028 1.384 . S
C1030 C1031 1.372 . S
C1031 C1030 1.372 . S
C1031 C1032 1.400 . S
C1031 C1036 1.490 . S
C1032 H1022 0.930 . S
C1032 C1031 1.400 . S
C1032 C1035 1.386 . S
H1033 C1049 0.930 . S
H1034 C1050 0.931 . S
C1035 H1023 0.929 . S
C1035 C1029 1.390 . S
C1035 C1032 1.386 . S
C1036 C1031 1.490 . S
C1036 C1038 1.395 . S
C1036 C1039 1.403 . S
H1037 C1043 0.930 . S
C1038 H1024 0.930 . S
C1038 C1036 1.395 . S
C1038 C1041 1.403 . S
C1039 C1036 1.403 . S
C1039 C1040 1.524 . S
C1039 C1043 1.400 . S
C1040 H1025 0.960 . S
C1040 H1026 0.960 . S
C1040 H1027 0.960 . S
C1040 C1039 1.524 . S
C1041 C1038 1.403 . S
C1041 C1042 1.392 . S
C1041 C1045 1.495 . S
C1042 C1041 1.392 . S
C1042 C1043 1.385 . S
C1042 C1044 1.478 . S
C1043 H1037 0.930 . S
C1043 C1039 1.400 . S
C1043 C1042 1.385 . S
C1044 C1042 1.478 . S
C1044 C1046 1.381 . S
C1044 C1050 1.383 . S
C1045 C1041 1.495 . S
C1045 H1051 0.959 . S
C1045 H1052 0.961 . S
C1045 H1053 0.960 . S
C1046 C1044 1.381 . S
C1046 C1047 1.394 . S
C1046 H1054 0.930 . S
C1047 C1046 1.394 . S
C1047 C1048 1.383 . S
C1047 H1055 0.929 . S
C1048 C1047 1.383 . S
C1048 C1049 1.377 . S
C1049 H1033 0.930 . S
C1049 C1048 1.377 . S
C1049 C1050 1.379 . S
C1050 H1034 0.931 . S
C1050 C1044 1.383 . S
C1050 C1049 1.379 . S
H1051 C1045 0.959 . S
H1052 C1045 0.961 . S
H1053 C1045 0.960 . S
H1054 C1046 0.930 . S
H1055 C1047 0.929 . S
C220 C181 1.611 . S
C201 C8 1.564 . S
C237 C26 1.573 . S
C256 C111 1.616 . S
C273 C50 1.583 . S
C292 C130 1.633 . S
C309 C68 1.562 . S
C328 C139 1.617 . S
C364 C153 1.608 . S
C345 C80 1.563 . S
C381 C104 1.573 . S
C400 C172 1.618 . S
C417 C32 1.551 . S
C436 C125 1.602 . S
C453 C44 1.561 . S
C472 C144 1.607 . S
C489 C62 1.558 . S
C508 C158 1.606 . S
C544 C167 1.598 . S
C525 C86 1.544 1_554 S
C580 C186 1.606 . S
C561 C98 1.552 . S
C616 C116 1.605 . S
C597 C14 1.565 . S
C633 C7 1.477 . S
C652 C131 1.514 . S
C669 C25 1.467 . S
C688 C143 1.505 . S
C724 C157 1.489 . S
C705 C52 1.480 . S
C741 C70 1.480 . S
C760 C173 1.522 . S
C796 C185 1.465 . S
C777 C79 1.473 . S
C832 C115 1.508 . S
C813 C106 1.477 . S
C868 C187 1.527 . S
C849 C34 1.484 . S
C885 C43 1.493 . S
C904 C117 1.539 . S
C940 C129 1.483 . S
C921 C61 1.483 . S
C957 C88 1.478 . S
C976 C145 1.508 . S
C993 C97 1.493 . S
C1012 C159 1.538 . S
C1029 C16 1.483 . S
C1048 C171 1.521 . S
