# Generated by pormake.
# Topology ssc, (4,4)-cn, num edge types: 1
# Building blocks:
#     Node 0, Type 0, BuildingBlock: CEKHIL_clean_sbu_0, # of connection points: 4
#     Node 1, Type 0, BuildingBlock: CEKHIL_clean_sbu_0, # of connection points: 4
#     Node 2, Type 0, BuildingBlock: CEKHIL_clean_sbu_0, # of connection points: 4
#     Node 3, Type 0, BuildingBlock: CEKHIL_clean_sbu_0, # of connection points: 4
#     Node 4, Type 0, BuildingBlock: CEKHIL_clean_sbu_0, # of connection points: 4
#     Node 5, Type 0, BuildingBlock: CEKHIL_clean_sbu_0, # of connection points: 4
#     Node 6, Type 0, BuildingBlock: CEKHIL_clean_sbu_0, # of connection points: 4
#     Node 7, Type 0, BuildingBlock: CEKHIL_clean_sbu_0, # of connection points: 4
#     Node 8, Type 0, BuildingBlock: CEKHIL_clean_sbu_0, # of connection points: 4
#     Node 9, Type 0, BuildingBlock: CEKHIL_clean_sbu_0, # of connection points: 4
#     Node 10, Type 0, BuildingBlock: CEKHIL_clean_sbu_0, # of connection points: 4
#     Node 11, Type 0, BuildingBlock: CEKHIL_clean_sbu_0, # of connection points: 4
#     Node 12, Type 1, BuildingBlock: KUFVIS_clean_linker_0, # of connection points: 4
#     Node 13, Type 1, BuildingBlock: KUFVIS_clean_linker_0, # of connection points: 4
#     Node 14, Type 1, BuildingBlock: KUFVIS_clean_linker_0, # of connection points: 4
#     Node 15, Type 1, BuildingBlock: KUFVIS_clean_linker_0, # of connection points: 4
#     Node 16, Type 1, BuildingBlock: KUFVIS_clean_linker_0, # of connection points: 4
#     Node 17, Type 1, BuildingBlock: KUFVIS_clean_linker_0, # of connection points: 4
#     Node 18, Type 1, BuildingBlock: KUFVIS_clean_linker_0, # of connection points: 4
#     Node 19, Type 1, BuildingBlock: KUFVIS_clean_linker_0, # of connection points: 4
#     Node 20, Type 1, BuildingBlock: KUFVIS_clean_linker_0, # of connection points: 4
#     Node 21, Type 1, BuildingBlock: KUFVIS_clean_linker_0, # of connection points: 4
#     Node 22, Type 1, BuildingBlock: KUFVIS_clean_linker_0, # of connection points: 4
#     Node 23, Type 1, BuildingBlock: KUFVIS_clean_linker_0, # of connection points: 4
#     Edge 24, Type (0, 1), BuildingBlock: OJICUG_clean_linker_0, # of connection points: 2
#     Edge 25, Type (0, 1), BuildingBlock: OJICUG_clean_linker_0, # of connection points: 2
#     Edge 26, Type (0, 1), BuildingBlock: OJICUG_clean_linker_0, # of connection points: 2
#     Edge 27, Type (0, 1), BuildingBlock: OJICUG_clean_linker_0, # of connection points: 2
#     Edge 28, Type (0, 1), BuildingBlock: OJICUG_clean_linker_0, # of connection points: 2
#     Edge 29, Type (0, 1), BuildingBlock: OJICUG_clean_linker_0, # of connection points: 2
#     Edge 30, Type (0, 1), BuildingBlock: OJICUG_clean_linker_0, # of connection points: 2
#     Edge 31, Type (0, 1), BuildingBlock: OJICUG_clean_linker_0, # of connection points: 2
#     Edge 32, Type (0, 1), BuildingBlock: OJICUG_clean_linker_0, # of connection points: 2
#     Edge 33, Type (0, 1), BuildingBlock: OJICUG_clean_linker_0, # of connection points: 2
#     Edge 34, Type (0, 1), BuildingBlock: OJICUG_clean_linker_0, # of connection points: 2
#     Edge 35, Type (0, 1), BuildingBlock: OJICUG_clean_linker_0, # of connection points: 2
#     Edge 36, Type (0, 1), BuildingBlock: OJICUG_clean_linker_0, # of connection points: 2
#     Edge 37, Type (0, 1), BuildingBlock: OJICUG_clean_linker_0, # of connection points: 2
#     Edge 38, Type (0, 1), BuildingBlock: OJICUG_clean_linker_0, # of connection points: 2
#     Edge 39, Type (0, 1), BuildingBlock: OJICUG_clean_linker_0, # of connection points: 2
#     Edge 40, Type (0, 1), BuildingBlock: OJICUG_clean_linker_0, # of connection points: 2
#     Edge 41, Type (0, 1), BuildingBlock: OJICUG_clean_linker_0, # of connection points: 2
#     Edge 42, Type (0, 1), BuildingBlock: OJICUG_clean_linker_0, # of connection points: 2
#     Edge 43, Type (0, 1), BuildingBlock: OJICUG_clean_linker_0, # of connection points: 2
#     Edge 44, Type (0, 1), BuildingBlock: OJICUG_clean_linker_0, # of connection points: 2
#     Edge 45, Type (0, 1), BuildingBlock: OJICUG_clean_linker_0, # of connection points: 2
#     Edge 46, Type (0, 1), BuildingBlock: OJICUG_clean_linker_0, # of connection points: 2
#     Edge 47, Type (0, 1), BuildingBlock: OJICUG_clean_linker_0, # of connection points: 2
#     Edge 48, Type (0, 1), BuildingBlock: OJICUG_clean_linker_0, # of connection points: 2
#     Edge 49, Type (0, 1), BuildingBlock: OJICUG_clean_linker_0, # of connection points: 2
#     Edge 50, Type (0, 1), BuildingBlock: OJICUG_clean_linker_0, # of connection points: 2
#     Edge 51, Type (0, 1), BuildingBlock: OJICUG_clean_linker_0, # of connection points: 2
#     Edge 52, Type (0, 1), BuildingBlock: OJICUG_clean_linker_0, # of connection points: 2
#     Edge 53, Type (0, 1), BuildingBlock: OJICUG_clean_linker_0, # of connection points: 2
#     Edge 54, Type (0, 1), BuildingBlock: OJICUG_clean_linker_0, # of connection points: 2
#     Edge 55, Type (0, 1), BuildingBlock: OJICUG_clean_linker_0, # of connection points: 2
#     Edge 56, Type (0, 1), BuildingBlock: OJICUG_clean_linker_0, # of connection points: 2
#     Edge 57, Type (0, 1), BuildingBlock: OJICUG_clean_linker_0, # of connection points: 2
#     Edge 58, Type (0, 1), BuildingBlock: OJICUG_clean_linker_0, # of connection points: 2
#     Edge 59, Type (0, 1), BuildingBlock: OJICUG_clean_linker_0, # of connection points: 2
#     Edge 60, Type (0, 1), BuildingBlock: OJICUG_clean_linker_0, # of connection points: 2
#     Edge 61, Type (0, 1), BuildingBlock: OJICUG_clean_linker_0, # of connection points: 2
#     Edge 62, Type (0, 1), BuildingBlock: OJICUG_clean_linker_0, # of connection points: 2
#     Edge 63, Type (0, 1), BuildingBlock: OJICUG_clean_linker_0, # of connection points: 2
#     Edge 64, Type (0, 1), BuildingBlock: OJICUG_clean_linker_0, # of connection points: 2
#     Edge 65, Type (0, 1), BuildingBlock: OJICUG_clean_linker_0, # of connection points: 2
#     Edge 66, Type (0, 1), BuildingBlock: OJICUG_clean_linker_0, # of connection points: 2
#     Edge 67, Type (0, 1), BuildingBlock: OJICUG_clean_linker_0, # of connection points: 2
#     Edge 68, Type (0, 1), BuildingBlock: OJICUG_clean_linker_0, # of connection points: 2
#     Edge 69, Type (0, 1), BuildingBlock: OJICUG_clean_linker_0, # of connection points: 2
#     Edge 70, Type (0, 1), BuildingBlock: OJICUG_clean_linker_0, # of connection points: 2
#     Edge 71, Type (0, 1), BuildingBlock: OJICUG_clean_linker_0, # of connection points: 2
# Relax obj value: 0.121
# Max RMSD: 0.313
# Mean RMSD: 0.273
data_MOF--net-ssc--node1-CEKHIL_clean_sbu_0--node2-KUFVIS_clean_linker_0--edge1-OJICUG_clean_linker_0
_symmetry_space_group_name_H-M    P1
_symmetry_Int_Tables_number       1
_symmetry_cell_setting            triclinic
loop_
_symmetry_equiv_pos_as_xyz
'x, y, z'
_cell_length_a     22.680888
_cell_length_b     22.919845
_cell_length_c     22.777848
_cell_angle_alpha  91.108186
_cell_angle_beta   89.935681
_cell_angle_gamma 92.341965
loop_
_atom_site_label
_atom_site_type_symbol
_atom_site_fract_x
_atom_site_fract_y
_atom_site_fract_z
_atom_type_partial_charge
Co0 Co 0.01848 0.28063 0.13672 0.0
O1 O 0.07538 0.30246 0.07749 0.0
O2 O 0.98898 0.34282 0.08999 0.0
C3 C 0.08083 0.2793 0.21306 0.0
O4 O 0.95065 0.27493 0.19504 0.0
Co5 Co 0.02431 0.16287 0.20357 0.0
O6 O 0.96065 0.19605 0.25127 0.0
C7 C 0.98327 0.16202 0.08173 0.0
C8 C 0.03905 0.3419 0.06248 0.0
C9 C 0.93553 0.24276 0.23853 0.0
O10 O 0.98167 0.21826 0.0827 0.0
O11 O 0.00349 0.13248 0.12359 0.0
O12 O 0.06228 0.32855 0.1944 0.0
O13 O 0.06696 0.23375 0.18112 0.0
Co14 Co 0.0369 0.77572 0.45595 0.0
O15 O 0.08331 0.7457 0.51809 0.0
O16 O 0.9888 0.72196 0.50228 0.0
C17 C 0.10225 0.76099 0.38313 0.0
O18 O 0.97534 0.79377 0.39474 0.0
Co19 Co 0.07955 0.88556 0.38609 0.0
O20 O 0.00979 0.86584 0.33649 0.0
C21 C 0.02552 0.90036 0.50291 0.0
C22 C 0.03667 0.71415 0.53183 0.0
C23 C 0.97055 0.82723 0.35047 0.0
O24 O 0.01489 0.8449 0.50658 0.0
O25 O 0.0526 0.9245 0.45991 0.0
O26 O 0.06821 0.7184 0.40182 0.0
O27 O 0.10043 0.80946 0.41296 0.0
Co28 Co 0.52903 0.77165 0.63827 0.0
O29 O 0.57854 0.79063 0.57213 0.0
O30 O 0.49469 0.83288 0.59452 0.0
C31 C 0.60017 0.76994 0.70728 0.0
O32 O 0.46736 0.76845 0.70329 0.0
Co33 Co 0.53787 0.65624 0.70497 0.0
O34 O 0.48264 0.69182 0.76075 0.0
C35 C 0.49096 0.65317 0.58556 0.0
C36 C 0.53989 0.82904 0.55999 0.0
C37 C 0.45634 0.73812 0.74909 0.0
O38 O 0.48638 0.7091 0.58834 0.0
O39 O 0.51477 0.62417 0.62588 0.0
O40 O 0.58017 0.81942 0.69073 0.0
O41 O 0.58157 0.72452 0.67737 0.0
Co42 Co 0.51116 0.2392 0.92689 0.0
O43 O 0.55863 0.2122 0.98982 0.0
O44 O 0.46675 0.18077 0.97127 0.0
C45 C 0.58043 0.23228 0.85663 0.0
O46 O 0.44939 0.25143 0.86352 0.0
Co47 Co 0.54328 0.35222 0.85797 0.0
O48 O 0.48823 0.31563 0.79921 0.0
C49 C 0.49342 0.36227 0.97683 0.0
C50 C 0.51465 0.17629 0.00168 0.0
C51 C 0.45032 0.27589 0.81315 0.0
O52 O 0.48338 0.30631 0.97817 0.0
O53 O 0.5193 0.38844 0.9343 0.0
O54 O 0.55001 0.18613 0.87292 0.0
O55 O 0.57191 0.27953 0.88669 0.0
Co56 Co 0.13839 0.9931 0.26682 0.0
O57 O 0.21521 0.97188 0.24117 0.0
O58 O 0.1832 0.96723 0.33327 0.0
C59 C 0.08871 0.94809 0.19155 0.0
O60 O 0.06309 0.01109 0.31119 0.0
Co61 Co 0.06165 0.07245 0.19295 0.0
O62 O 0.00077 0.05935 0.25499 0.0
C63 C 0.17619 0.1136 0.24075 0.0
C64 C 0.22584 0.96111 0.29584 0.0
C65 C 0.01352 0.03494 0.30291 0.0
O66 O 0.16985 0.0748 0.28016 0.0
O67 O 0.14117 0.1162 0.19693 0.0
O68 O 0.10393 0.9186 0.23702 0.0
O69 O 0.10657 0.00216 0.19166 0.0
Co70 Co 0.26878 0.90866 0.53356 0.0
O71 O 0.26088 0.97855 0.58084 0.0
O72 O 0.20729 0.95459 0.5019 0.0
C73 C 0.27245 0.84351 0.60564 0.0
O74 O 0.26051 0.84036 0.47522 0.0
Co75 Co 0.38218 0.83643 0.53789 0.0
O76 O 0.33123 0.77745 0.49515 0.0
C77 C 0.38674 0.95319 0.48798 0.0
C78 C 0.21929 0.99147 0.54459 0.0
C79 C 0.28349 0.79024 0.46993 0.0
O80 O 0.33009 0.95155 0.48563 0.0
O81 O 0.41666 0.91322 0.51054 0.0
O82 O 0.22216 0.86295 0.58883 0.0
O83 O 0.31888 0.86941 0.58374 0.0
Co84 Co 0.40439 0.02177 0.78914 0.0
O85 O 0.33896 0.05714 0.75199 0.0
O86 O 0.36113 0.06696 0.84658 0.0
C87 C 0.47028 0.04137 0.71753 0.0
O88 O 0.46849 0.99442 0.84389 0.0
Co89 Co 0.46634 0.91581 0.73288 0.0
O90 O 0.52729 0.93416 0.79427 0.0
C91 C 0.34165 0.90973 0.76804 0.0
C92 C 0.3258 0.07778 0.80365 0.0
C93 C 0.51569 0.96543 0.83941 0.0
O94 O 0.35251 0.95183 0.80468 0.0
O95 O 0.37958 0.89159 0.73102 0.0
O96 O 0.45935 0.08124 0.75724 0.0
O97 O 0.43902 0.99358 0.72022 0.0
Co98 Co 0.24886 0.11061 0.01945 0.0
O99 O 0.26352 0.04286 0.06539 0.0
O100 O 0.30407 0.06208 0.97889 0.0
C101 C 0.25815 0.17869 0.09084 0.0
O102 O 0.24934 0.17625 0.96036 0.0
Co103 Co 0.14072 0.18847 0.0424 0.0
O104 O 0.18538 0.24313 0.99096 0.0
C105 C 0.12269 0.07123 0.9913 0.0
C106 C 0.29974 0.02823 0.02382 0.0
C107 C 0.22751 0.22702 0.95824 0.0
O108 O 0.17862 0.06772 0.98258 0.0
O109 O 0.0989 0.11397 0.01754 0.0
O110 O 0.30496 0.15788 0.06641 0.0
O111 O 0.20853 0.1529 0.07649 0.0
Co112 Co 0.732 0.41715 0.04741 0.0
O113 O 0.70854 0.47801 0.10045 0.0
O114 O 0.67204 0.46209 0.01103 0.0
C115 C 0.72908 0.34381 0.1117 0.0
O116 O 0.73962 0.35714 0.98131 0.0
Co117 Co 0.84789 0.35045 0.06313 0.0
O118 O 0.80552 0.29293 0.01034 0.0
C119 C 0.85424 0.47236 0.02543 0.0
C120 C 0.67135 0.49156 0.06016 0.0
C121 C 0.76297 0.30714 0.97789 0.0
O122 O 0.79793 0.47022 0.01649 0.0
O123 O 0.88191 0.43054 0.04757 0.0
O124 O 0.68068 0.36094 0.08809 0.0
O125 O 0.7761 0.3753 0.10066 0.0
Co126 Co 0.89322 0.55708 0.25617 0.0
O127 O 0.82717 0.58913 0.21711 0.0
O128 O 0.84878 0.60236 0.31169 0.0
C129 C 0.9584 0.57745 0.18462 0.0
O130 O 0.95762 0.53408 0.3129 0.0
Co131 Co 0.95893 0.45159 0.20615 0.0
O132 O 0.01774 0.47115 0.26918 0.0
C133 C 0.83483 0.44026 0.24286 0.0
C134 C 0.81359 0.61118 0.26811 0.0
C135 C 0.00479 0.5048 0.31209 0.0
O136 O 0.84303 0.48669 0.27436 0.0
O137 O 0.87424 0.42005 0.20861 0.0
O138 O 0.94563 0.61742 0.22345 0.0
O139 O 0.92975 0.52795 0.18837 0.0
Co140 Co 0.79781 0.62012 0.53452 0.0
O141 O 0.81658 0.558 0.58614 0.0
O142 O 0.85825 0.57276 0.49946 0.0
C143 C 0.79994 0.69087 0.60375 0.0
O144 O 0.79494 0.6824 0.47063 0.0
Co145 Co 0.68614 0.69402 0.54908 0.0
O146 O 0.73503 0.75125 0.50426 0.0
C147 C 0.67405 0.57225 0.50684 0.0
C148 C 0.85575 0.54333 0.54761 0.0
C149 C 0.77677 0.73506 0.4712 0.0
O150 O 0.73052 0.57 0.49939 0.0
O151 O 0.64865 0.61627 0.52905 0.0
O152 O 0.84902 0.67384 0.58065 0.0
O153 O 0.75283 0.66166 0.58789 0.0
Co154 Co 0.62888 0.47388 0.77186 0.0
O155 O 0.68462 0.42533 0.73267 0.0
O156 O 0.67366 0.43271 0.8292 0.0
C157 C 0.55308 0.45269 0.71104 0.0
O158 O 0.57541 0.5164 0.82942 0.0
Co159 Co 0.57293 0.57754 0.71231 0.0
O160 O 0.51431 0.56971 0.77735 0.0
C161 C 0.6995 0.58004 0.73722 0.0
C162 C 0.70248 0.41181 0.78466 0.0
C163 C 0.52843 0.54559 0.82495 0.0
O164 O 0.69017 0.53856 0.77347 0.0
O165 O 0.65923 0.60071 0.70535 0.0
O166 O 0.56361 0.41798 0.75404 0.0
O167 O 0.58995 0.49592 0.70422 0.0
H168 H 0.91535 0.42755 0.72094 0.0
H169 H 0.96079 0.26155 0.78647 0.0
H170 H 0.04477 0.32871 0.62992 0.0
H171 H 0.04032 0.22351 0.61513 0.0
H172 H 0.12771 0.09183 0.70885 0.0
H173 H 0.08058 0.2489 0.79913 0.0
C174 C 0.94442 0.39096 0.71986 0.0
C175 C 0.98132 0.38372 0.67144 0.0
C176 C 0.93442 0.34612 0.75947 0.0
C177 C 0.9696 0.29716 0.75663 0.0
C178 C 0.01248 0.29181 0.71195 0.0
C179 C 0.01605 0.33427 0.66748 0.0
C180 C 0.04844 0.23875 0.70951 0.0
C181 C 0.056 0.20708 0.65631 0.0
C182 C 0.08556 0.15446 0.65658 0.0
C183 C 0.10361 0.13193 0.70979 0.0
C184 C 0.10773 0.16787 0.75967 0.0
C185 C 0.07802 0.22065 0.76043 0.0
H186 H 0.9094 0.57766 0.84128 0.0
H187 H 0.01417 0.7152 0.9247 0.0
H188 H 0.95717 0.73181 0.74566 0.0
H189 H 0.08841 0.7577 0.76786 0.0
H190 H 0.09872 0.93885 0.81817 0.0
H191 H 0.96952 0.82384 0.89826 0.0
C192 C 0.93558 0.6182 0.83761 0.0
C193 C 0.93037 0.65167 0.78745 0.0
C194 C 0.96415 0.64135 0.88762 0.0
C195 C 0.99345 0.69621 0.88554 0.0
C196 C 0.99373 0.72729 0.83283 0.0
C197 C 0.96183 0.70515 0.78409 0.0
C198 C 0.02215 0.78556 0.82931 0.0
C199 C 0.07024 0.79448 0.79137 0.0
C200 C 0.09833 0.84979 0.78814 0.0
C201 C 0.07487 0.89675 0.81855 0.0
C202 C 0.02992 0.88741 0.85977 0.0
C203 C 0.00318 0.83166 0.86515 0.0
H204 H 0.40933 0.95712 0.18504 0.0
H205 H 0.47639 0.82308 0.29184 0.0
H206 H 0.48863 0.81106 0.10241 0.0
H207 H 0.48653 0.71411 0.12451 0.0
H208 H 0.5893 0.6068 0.23288 0.0
H209 H 0.57741 0.7881 0.27625 0.0
C210 C 0.43478 0.91833 0.18941 0.0
C211 C 0.4489 0.88735 0.13838 0.0
C212 C 0.44187 0.89438 0.24478 0.0
C213 C 0.47209 0.84247 0.24909 0.0
C214 C 0.49149 0.81263 0.19818 0.0
C215 C 0.47794 0.83471 0.14236 0.0
C216 C 0.52084 0.75614 0.20485 0.0
C217 C 0.51165 0.70909 0.16435 0.0
C218 C 0.53721 0.65542 0.17453 0.0
C219 C 0.56757 0.64769 0.22686 0.0
C220 C 0.58712 0.69631 0.26012 0.0
C221 C 0.56176 0.7501 0.25083 0.0
H222 H 0.39254 0.10586 0.3253 0.0
H223 H 0.53429 0.20787 0.40482 0.0
H224 H 0.43105 0.27967 0.26629 0.0
H225 H 0.57492 0.28144 0.25659 0.0
H226 H 0.62279 0.44563 0.3405 0.0
H227 H 0.49394 0.33079 0.42086 0.0
C228 C 0.42103 0.14495 0.32569 0.0
C229 C 0.40721 0.19125 0.29032 0.0
C230 C 0.46559 0.15085 0.36752 0.0
C231 C 0.50019 0.20272 0.3716 0.0
C232 C 0.48947 0.24839 0.33303 0.0
C233 C 0.44193 0.24316 0.29327 0.0
C234 C 0.52628 0.30252 0.3356 0.0
C235 C 0.56804 0.31377 0.291 0.0
C236 C 0.6029 0.36566 0.29296 0.0
C237 C 0.59421 0.4064 0.33781 0.0
C238 C 0.55709 0.39331 0.38484 0.0
C239 C 0.5225 0.34135 0.38404 0.0
H240 H 0.70325 0.90684 0.43874 0.0
H241 H 0.77777 0.95907 0.2736 0.0
H242 H 0.60044 0.00373 0.32032 0.0
H243 H 0.60654 0.97861 0.20662 0.0
H244 H 0.67825 0.1143 0.09717 0.0
H245 H 0.75146 0.09092 0.26767 0.0
C246 C 0.70088 0.93208 0.39893 0.0
C247 C 0.64752 0.95611 0.38463 0.0
C248 C 0.74687 0.93014 0.35839 0.0
C249 C 0.74247 0.96058 0.30563 0.0
C250 C 0.69061 0.9904 0.29322 0.0
C251 C 0.64208 0.98552 0.33177 0.0
C252 C 0.68621 0.02457 0.23904 0.0
C253 C 0.64043 0.01205 0.19796 0.0
C254 C 0.6378 0.04471 0.14652 0.0
C255 C 0.68175 0.08756 0.13587 0.0
C256 C 0.71823 0.10835 0.18134 0.0
C257 C 0.72299 0.07516 0.23207 0.0
H258 H 0.0625 0.35679 0.43341 0.0
H259 H 0.19764 0.44294 0.5393 0.0
H260 H 0.21567 0.26596 0.47853 0.0
H261 H 0.23418 0.26702 0.60034 0.0
H262 H 0.42025 0.30577 0.60385 0.0
H263 H 0.30429 0.42856 0.53157 0.0
C264 C 0.10132 0.35415 0.46108 0.0
C265 C 0.13735 0.30705 0.4515 0.0
C266 C 0.1252 0.40558 0.48733 0.0
C267 C 0.17837 0.40342 0.5192 0.0
C268 C 0.20766 0.3501 0.5219 0.0
C269 C 0.18787 0.30286 0.48567 0.0
C270 C 0.26409 0.34404 0.55348 0.0
C271 C 0.27204 0.29401 0.58737 0.0
C272 C 0.32847 0.2814 0.60749 0.0
C273 C 0.37661 0.31526 0.58774 0.0
C274 C 0.36748 0.37167 0.56878 0.0
C275 C 0.3112 0.3858 0.54913 0.0
H276 H 0.78901 0.10458 0.95919 0.0
H277 H 0.73022 0.08111 0.78079 0.0
H278 H 0.89182 0.00825 0.83676 0.0
H279 H 0.89108 0.06424 0.72209 0.0
H280 H 0.8388 0.92864 0.59795 0.0
H281 H 0.75737 0.93458 0.76704 0.0
C282 C 0.79209 0.08257 0.91665 0.0
C283 C 0.84396 0.0547 0.90318 0.0
C284 C 0.75323 0.09647 0.87194 0.0
C285 C 0.75971 0.07058 0.81607 0.0
C286 C 0.8081 0.03565 0.80456 0.0
C287 C 0.85153 0.02982 0.84748 0.0
C288 C 0.81572 0.00837 0.74661 0.0
C289 C 0.86097 0.02855 0.7086 0.0
C290 C 0.86901 -0.00041 0.65456 0.0
C291 C 0.83075 0.95283 0.63855 0.0
C292 C 0.79537 0.92611 0.68082 0.0
C293 C 0.78484 0.95536 0.73382 0.0
H294 H 0.45351 0.71268 0.9495 0.0
H295 H 0.3304 0.60819 0.05012 0.0
H296 H 0.2859 0.77884 0.99571 0.0
H297 H 0.28966 0.74353 0.14602 0.0
H298 H 0.102 0.71511 0.14776 0.0
H299 H 0.20374 0.63786 0.00969 0.0
C300 C 0.41385 0.7095 0.97635 0.0
C301 C 0.37075 0.75022 0.96765 0.0
C302 C 0.39726 0.65523 -0.00057 0.0
C303 C 0.34415 0.6497 0.03154 0.0
C304 C 0.30741 0.69793 0.03644 0.0
C305 C 0.31919 0.74675 0.00127 0.0
C306 C 0.25222 0.6958 0.07068 0.0
C307 C 0.24959 0.72615 0.12511 0.0
C308 C 0.19503 0.73167 0.15326 0.0
C309 C 0.14379 0.71127 0.1248 0.0
C310 C 0.14661 0.67368 0.07602 0.0
C311 C 0.20109 0.66635 0.04806 0.0
H312 H 0.612 0.81217 0.92615 0.0
H313 H 0.72503 0.90196 0.05227 0.0
H314 H 0.78915 0.75876 0.94865 0.0
H315 H 0.76024 0.80075 0.12763 0.0
H316 H 0.94635 0.78518 0.145 0.0
H317 H 0.87624 0.85739 0.98825 0.0
C318 C 0.65256 0.81418 0.95174 0.0
C319 C 0.69927 0.78132 0.93204 0.0
C320 C 0.66357 0.8622 0.98926 0.0
C321 C 0.71659 0.866 0.02145 0.0
C322 C 0.75991 0.82437 0.01104 0.0
C323 C 0.75295 0.78513 0.96278 0.0
C324 C 0.81203 0.82113 0.04981 0.0
C325 C 0.80402 0.80392 0.10852 0.0
C326 C 0.85324 0.79147 0.14254 0.0
C327 C 0.90902 0.79376 0.11703 0.0
C328 C 0.91873 0.82458 0.06541 0.0
C329 C 0.86977 0.83545 0.02962 0.0
H330 H 0.30406 0.58842 0.46005 0.0
H331 H 0.23721 0.55512 0.28614 0.0
H332 H 0.40743 0.49504 0.33502 0.0
H333 H 0.40288 0.52774 0.21928 0.0
H334 H 0.31454 0.41176 0.09461 0.0
H335 H 0.25403 0.4192 0.27236 0.0
C336 C 0.30669 0.56556 0.4179 0.0
C337 C 0.35989 0.54106 0.40259 0.0
C338 C 0.26502 0.57597 0.37478 0.0
C339 C 0.2695 0.54759 0.31996 0.0
C340 C 0.31911 0.51464 0.30677 0.0
C341 C 0.36626 0.51451 0.34703 0.0
C342 C 0.32191 0.48393 0.24943 0.0
C343 C 0.36621 0.49794 0.2078 0.0
C344 C 0.36327 0.47131 0.15165 0.0
C345 C 0.31516 0.43398 0.13729 0.0
C346 C 0.28103 0.40966 0.18207 0.0
C347 C 0.28152 0.43695 0.23751 0.0
H348 H 0.92507 0.20565 0.4226 0.0
H349 H 0.80603 0.09112 0.51722 0.0
H350 H 0.75952 0.26687 0.48237 0.0
H351 H 0.75854 0.24158 0.61272 0.0
H352 H 0.57581 0.19144 0.6228 0.0
H353 H 0.6893 0.09734 0.50668 0.0
C354 C 0.88622 0.19968 0.45021 0.0
C355 C 0.84334 0.24169 0.44858 0.0
C356 C 0.87135 0.14363 0.46989 0.0
C357 C 0.81857 0.13425 0.50178 0.0
C358 C 0.78143 0.18135 0.51223 0.0
C359 C 0.79272 0.23414 0.48296 0.0
C360 C 0.72758 0.17615 0.54853 0.0
C361 C 0.72092 0.21562 0.59609 0.0
C362 C 0.66621 0.2188 0.62405 0.0
C363 C 0.61776 0.18813 0.60001 0.0
C364 C 0.62704 0.13898 0.56444 0.0
C365 C 0.68203 0.13377 0.53646 0.0
H366 H 0.22457 0.42866 0.95932 0.0
H367 H 0.28211 0.46506 0.7845 0.0
H368 H 0.12362 0.53893 0.85142 0.0
H369 H 0.11427 0.51507 0.73859 0.0
H370 H 0.20268 0.62181 0.61034 0.0
H371 H 0.28299 0.5991 0.77776 0.0
C372 C 0.22142 0.45478 0.92019 0.0
C373 C 0.16986 0.48478 0.91118 0.0
C374 C 0.25819 0.44225 0.87287 0.0
C375 C 0.25367 0.47441 0.82154 0.0
C376 C 0.20763 0.51325 0.81537 0.0
C377 C 0.16329 0.51531 0.85882 0.0
C378 C 0.20352 0.54597 0.76047 0.0
C379 C 0.15322 0.53979 0.72418 0.0
C380 C 0.15312 0.56752 0.66978 0.0
C381 C 0.20416 0.59816 0.65123 0.0
C382 C 0.24729 0.61575 0.69229 0.0
C383 C 0.24913 0.58675 0.7458 0.0
C384 C 0.09769 0.43335 0.04755 0.0
C385 C 0.05897 0.38966 0.02433 0.0
H386 H 0.16259 0.50066 0.02835 0.0
C387 C 0.04648 0.38828 0.96405 0.0
H388 H 0.10824 0.43463 0.09397 0.0
C389 C 0.07631 0.42754 0.92674 0.0
C390 C 0.11961 0.46765 0.94938 0.0
H391 H 0.0169 0.35454 0.94541 0.0
H392 H 0.07054 0.42195 0.87972 0.0
C393 C 0.12764 0.47212 0.01037 0.0
C394 C 0.89634 0.86287 0.28086 0.0
C395 C 0.92135 0.81614 0.30937 0.0
H396 H 0.84691 0.88976 0.20701 0.0
C397 C 0.90731 0.7588 0.2901 0.0
H398 H 0.90687 0.90751 0.29492 0.0
C399 C 0.87533 0.74895 0.2383 0.0
C400 C 0.85389 0.79585 0.20708 0.0
H401 H 0.92723 0.72217 0.31064 0.0
H402 H 0.87436 0.70577 0.21841 0.0
C403 C 0.86104 0.85257 0.23125 0.0
C404 C 0.44337 0.56253 0.54165 0.0
C405 C 0.46614 0.61993 0.53461 0.0
H406 H 0.39213 0.49104 0.50286 0.0
C407 C 0.4641 0.64508 0.47901 0.0
H408 H 0.44409 0.54242 0.58422 0.0
C409 C 0.43686 0.61437 0.43212 0.0
C410 C 0.41003 0.55875 0.44054 0.0
H411 H 0.48196 0.689 0.47224 0.0
H412 H 0.43172 0.63629 0.39081 0.0
C413 C 0.41483 0.53255 0.49514 0.0
C414 C 0.63555 0.18092 0.7783 0.0
C415 C 0.61334 0.23271 0.80102 0.0
H416 H 0.67727 0.13896 0.70584 0.0
C417 C 0.61799 0.28348 0.76755 0.0
H418 H 0.63126 0.14075 0.80252 0.0
C419 C 0.63865 0.28102 0.70979 0.0
C420 C 0.66171 0.22944 0.68756 0.0
H421 H 0.60184 0.32391 0.78451 0.0
H422 H 0.63549 0.31872 0.68217 0.0
C423 C 0.66213 0.18007 0.72324 0.0
C424 C 0.0408 0.67036 0.63086 0.0
C425 C 0.04276 0.66369 0.56965 0.0
H426 H 0.07174 0.63952 0.71292 0.0
C427 C 0.06546 0.61289 0.54461 0.0
H428 H 0.02406 0.70965 0.65084 0.0
C429 C 0.09312 0.57304 0.57989 0.0
C430 C 0.09826 0.58362 0.64057 0.0
H431 H 0.06795 0.60747 0.4973 0.0
H432 H 0.11774 0.53883 0.55911 0.0
C433 C 0.06747 0.62975 0.66632 0.0
C434 C 0.67425 0.81249 0.77805 0.0
C435 C 0.63655 0.76549 0.76058 0.0
H436 H 0.7313 0.84969 0.84428 0.0
C437 C 0.63121 0.71626 0.79654 0.0
H438 H 0.67717 0.852 0.75288 0.0
C439 C 0.65948 0.71647 0.8513 0.0
C440 C 0.69559 0.76475 0.86935 0.0
H441 H 0.60192 0.67956 0.78448 0.0
H442 H 0.64914 0.68151 0.88144 0.0
C443 C 0.70575 0.81084 0.83035 0.0
C444 C 0.44301 0.45087 0.01218 0.0
C445 C 0.47148 0.39932 0.02503 0.0
H446 H 0.38585 0.51634 0.04459 0.0
C447 C 0.47669 0.38288 0.08367 0.0
H448 H 0.43846 0.46428 0.96715 0.0
C449 C 0.45005 0.41525 0.12831 0.0
C450 C 0.41548 0.46278 0.11458 0.0
H451 H 0.49936 0.34386 0.0947 0.0
H452 H 0.45041 0.39885 0.17261 0.0
C453 C 0.41437 0.48181 0.05652 0.0
C454 C 0.91238 0.30814 0.32176 0.0
C455 C 0.89347 0.26395 0.2816 0.0
H456 H 0.90775 0.33831 0.41128 0.0
C457 C 0.8429 0.22938 0.29384 0.0
H458 H 0.95225 0.33438 0.31342 0.0
C459 C 0.81393 0.23599 0.34726 0.0
C460 C 0.8404 0.27117 0.39202 0.0
H461 H 0.82945 0.19325 0.26512 0.0
H462 H 0.77887 0.20425 0.35764 0.0
C463 C 0.88624 0.31135 0.37737 0.0
C464 C 0.91349 0.04169 0.34924 0.0
C465 C 0.97526 0.04535 0.35431 0.0
H466 H 0.83094 0.0671 0.38573 0.0
C467 C 0.0008 0.06982 0.4058 0.0
H468 H 0.89284 0.0235 0.30972 0.0
C469 C 0.96562 0.09601 0.44844 0.0
C470 C 0.90406 0.09612 0.44155 0.0
H471 H 0.04834 0.07386 0.41051 0.0
H472 H 0.98679 0.12033 0.48442 0.0
C473 C 0.87808 0.066 0.3931 0.0
C474 C 0.22434 0.77119 0.6707 0.0
C475 C 0.27465 0.7895 0.63959 0.0
H476 H 0.18068 0.70398 0.71924 0.0
C477 C 0.32299 0.75276 0.63647 0.0
H478 H 0.18553 0.79698 0.67153 0.0
C479 C 0.31792 0.69609 0.65905 0.0
C480 C 0.26624 0.67782 0.68859 0.0
H481 H 0.36241 0.76571 0.61243 0.0
H482 H 0.35235 0.6657 0.6503 0.0
C483 C 0.22156 0.71758 0.69781 0.0
C484 C 0.53077 0.93511 0.94231 0.0
C485 C 0.55398 0.96051 0.89128 0.0
H486 H 0.54925 0.88396 0.01752 0.0
C487 C 0.61525 0.96978 0.88624 0.0
H488 H 0.48361 0.92793 0.94695 0.0
C489 C 0.65286 0.9479 0.92845 0.0
C490 C 0.62973 0.91361 0.97441 0.0
H491 H 0.63415 0.98951 0.84728 0.0
H492 H 0.69992 0.94982 0.91984 0.0
C493 C 0.56833 0.911 0.98333 0.0
C494 C 0.21006 0.26739 0.13073 0.0
C495 C 0.26064 0.23432 0.12409 0.0
H496 H 0.17691 0.35168 0.15265 0.0
C497 C 0.31464 0.25675 0.14595 0.0
H498 H 0.16791 0.2509 0.11427 0.0
C499 C 0.31814 0.3113 0.1736 0.0
C500 C 0.26887 0.34657 0.17529 0.0
H501 H 0.3545 0.23269 0.14076 0.0
H502 H 0.3609 0.32841 0.18852 0.0
C503 C 0.2146 0.32425 0.15407 0.0
C504 C 0.00798 0.95113 0.11745 0.0
C505 C 0.05439 0.92144 0.14226 0.0
H506 H 0.92748 0.94246 0.06879 0.0
C507 C 0.06564 0.86495 0.12163 0.0
H508 H 0.99942 -0.00475 0.13188 0.0
C509 C 0.02681 0.83617 0.08195 0.0
C510 C 0.97385 0.86189 0.06603 0.0
H511 H 0.10246 0.84186 0.13872 0.0
H512 H 0.03305 0.79054 0.0719 0.0
C513 C 0.96776 0.92145 0.0797 0.0
C514 C 0.21661 0.70256 0.45898 0.0
C515 C 0.25466 0.74451 0.43309 0.0
H516 H 0.18524 0.61303 0.45675 0.0
C517 C 0.27776 0.73341 0.37734 0.0
H518 H 0.19933 0.71004 0.50273 0.0
C519 C 0.2691 0.67864 0.35066 0.0
C520 C 0.23879 0.6335 0.38056 0.0
H521 H 0.30832 0.76442 0.35766 0.0
H522 H 0.29403 0.66924 0.31119 0.0
C523 C 0.20793 0.6473 0.43233 0.0
C524 C 0.48803 0.07793 0.61708 0.0
C525 C 0.50963 0.05198 0.66747 0.0
H526 H 0.51105 0.12331 0.5387 0.0
C527 C 0.5686 0.03627 0.66926 0.0
H528 H 0.44204 0.08866 0.6143 0.0
C529 C 0.60739 0.05353 0.6244 0.0
C530 C 0.58775 0.08845 0.57871 0.0
H531 H 0.58552 0.01439 0.70708 0.0
H532 H 0.65414 0.04758 0.63049 0.0
C533 C 0.52684 0.09535 0.57244 0.0
C534 C 0.21896 0.28861 0.87167 0.0
C535 C 0.25309 0.27059 0.91844 0.0
H536 H 0.20057 0.35705 0.81356 0.0
C537 C 0.30284 0.30489 0.93633 0.0
H538 H 0.17861 0.26455 0.85968 0.0
C539 C 0.31324 0.36042 0.91282 0.0
C540 C 0.2748 0.38089 0.87013 0.0
H541 H 0.32888 0.29219 0.97349 0.0
H542 H 0.34589 0.38997 0.93335 0.0
C543 C 0.23168 0.34198 0.84547 0.0
C544 C 0.40191 -0.00499 0.03191 0.0
C545 C 0.34104 0.98132 0.03248 0.0
H546 H 0.48611 0.97338 0.06582 0.0
C547 C 0.32062 0.92673 0.0526 0.0
H548 H 0.41851 0.03718 0.01697 0.0
C549 C 0.3601 0.8887 0.07713 0.0
C550 C 0.41983 0.90625 0.08454 0.0
H551 H 0.27377 0.91545 0.05354 0.0
H552 H 0.34249 0.84959 0.09798 0.0
C553 C 0.44089 0.95817 0.05891 0.0
C554 C 0.86359 0.57729 -0.00272 0.0
C555 C 0.88964 0.52352 0.00494 0.0
H556 H 0.87062 0.66056 0.95643 0.0
C557 C 0.94877 0.51741 0.98791 0.0
H558 H 0.81856 0.58369 0.01121 0.0
C559 C 0.9783 0.56116 0.95614 0.0
C560 C 0.94964 0.61219 0.94282 0.0
H561 H 0.97025 0.47685 0.99434 0.0
H562 H 0.02091 0.55266 0.93695 0.0
C563 C 0.8938 0.62172 0.96711 0.0
C564 C 0.74459 0.68413 0.23402 0.0
C565 C 0.7595 0.64336 0.27586 0.0
H566 H 0.6794 0.73958 0.20202 0.0
C567 C 0.7199 0.63004 0.32167 0.0
H568 H 0.77294 0.69296 0.19677 0.0
C569 C 0.66417 0.65439 0.32279 0.0
C570 C 0.64878 0.69386 0.27938 0.0
H571 H 0.73031 0.59783 0.35387 0.0
H572 H 0.63152 0.63867 0.35411 0.0
C573 C 0.69103 0.71125 0.23742 0.0
C574 C 0.65104 0.46521 0.49543 0.0
C575 C 0.63516 0.52291 0.48734 0.0
H576 H 0.63245 0.37532 0.4728 0.0
C577 C 0.58134 0.53367 0.45991 0.0
H578 H 0.69162 0.45596 0.51786 0.0
C579 C 0.54748 0.48775 0.43457 0.0
C580 C 0.56666 0.43056 0.43711 0.0
H581 H 0.56814 0.57797 0.45354 0.0
H582 H 0.51092 0.49766 0.40644 0.0
C583 C 0.6162 0.4191 0.47143 0.0
C584 C 0.29987 0.88903 0.3209 0.0
C585 C 0.28561 0.94722 0.31364 0.0
H586 H 0.36537 0.82607 0.30581 0.0
C587 C 0.33097 0.98972 0.30638 0.0
H588 H 0.26551 0.85581 0.32741 0.0
C589 C 0.38877 0.97307 0.29673 0.0
C590 C 0.40062 0.91345 0.29124 0.0
H591 H 0.32042 0.03491 0.30108 0.0
H592 H 0.4215 0.00597 0.28341 0.0
C593 C 0.35743 0.87215 0.30981 0.0
C594 C 0.21097 0.0946 0.57844 0.0
C595 C 0.18423 0.04338 0.55467 0.0
H596 H 0.19796 0.17401 0.62598 0.0
C597 C 0.1226 0.03934 0.54865 0.0
H598 H 0.25851 0.099 0.58303 0.0
C599 C 0.0876 0.0818 0.57443 0.0
C600 C 0.11442 0.12981 0.60428 0.0
H601 H 0.10162 0.00044 0.52977 0.0
H602 H 0.04029 0.07386 0.57678 0.0
C603 C 0.17624 0.13821 0.60168 0.0
C604 C 0.76337 0.35866 0.26485 0.0
C605 C 0.77507 0.41395 0.2422 0.0
H606 H 0.69743 0.29845 0.29808 0.0
C607 C 0.72819 0.4479 0.22543 0.0
H608 H 0.7991 0.3334 0.27922 0.0
C609 C 0.67007 0.42716 0.23254 0.0
C610 C 0.65819 0.37361 0.25997 0.0
H611 H 0.73659 0.49174 0.20961 0.0
H612 H 0.63457 0.45575 0.22291 0.0
C613 C 0.70531 0.33877 0.2747 0.0
C614 C 0.80539 0.56378 0.72297 0.0
C615 C 0.76013 0.60295 0.73203 0.0
H616 H 0.89795 0.55032 0.72942 0.0
C617 C 0.7741 0.6617 0.74467 0.0
H618 H 0.7951 0.51806 0.71296 0.0
C619 C 0.83252 0.67981 0.75512 0.0
C620 C 0.87756 0.63957 0.75134 0.0
H621 H 0.73984 0.69247 0.75126 0.0
H622 H 0.84152 0.7238 0.772 0.0
C623 C 0.86404 0.58227 0.73152 0.0
C624 C 0.54869 0.84698 0.45333 0.0
C625 C 0.54932 0.86885 0.51114 0.0
H626 H 0.57613 0.86174 0.36478 0.0
C627 C 0.56763 0.92709 0.52264 0.0
H628 H 0.53454 0.80206 0.44386 0.0
C629 C 0.59211 0.96097 0.47769 0.0
C630 C 0.59695 0.93718 0.42075 0.0
H631 H 0.56832 0.94432 0.56724 0.0
H632 H 0.61305 0.00309 0.48854 0.0
C633 C 0.57148 0.88141 0.4081 0.0
C634 C 0.41761 0.21959 0.724 0.0
C635 C 0.40512 0.25966 0.76927 0.0
H636 H 0.39827 0.19134 0.63553 0.0
C637 C 0.35584 0.29384 0.76466 0.0
H638 H 0.45686 0.19433 0.72598 0.0
C639 C 0.32131 0.29105 0.71397 0.0
C640 C 0.33758 0.25601 0.66567 0.0
H641 H 0.34778 0.32683 0.79767 0.0
H642 H 0.28753 0.32278 0.7094 0.0
C643 C 0.38357 0.21724 0.67264 0.0
C644 C 0.95608 0.15272 0.97579 0.0
C645 C 0.95697 0.12878 0.03186 0.0
H646 H 0.92127 0.14445 0.88862 0.0
C647 C 0.92957 0.07352 0.04111 0.0
H648 H 0.97727 0.195 0.96754 0.0
C649 C 0.8979 0.04464 0.9961 0.0
C650 C 0.89431 0.07016 0.94112 0.0
H651 H 0.92874 0.05471 0.08432 0.0
H652 H 0.87215 0.00506 0.00549 0.0
C653 C 0.92526 0.1233 0.93052 0.0
C654 C 0.15815 0.80394 0.29758 0.0
C655 C 0.1356 0.755 0.32789 0.0
H656 H 0.19665 0.83536 0.21694 0.0
C657 C 0.14214 0.69916 0.30334 0.0
H658 H 0.15314 0.84746 0.31558 0.0
C659 C 0.17008 0.69219 0.24951 0.0
C660 C 0.18908 0.74104 0.21714 0.0
H661 H 0.12495 0.66057 0.32535 0.0
H662 H 0.17224 0.64852 0.23065 0.0
C663 C 0.18401 0.79709 0.2419 0.0
C664 C 0.56009 0.08172 0.01343 0.0
C665 C 0.52482 0.12498 0.03743 0.0
H666 H 0.62421 0.01906 0.03158 0.0
C667 C 0.51195 0.12478 0.09761 0.0
H668 H 0.57045 0.08124 0.96696 0.0
C669 C 0.54048 0.08639 0.13437 0.0
C670 C 0.58369 0.04982 0.1113 0.0
H671 H 0.4849 0.15799 0.11693 0.0
H672 H 0.53593 0.0922 0.18147 0.0
C673 C 0.5895 0.04455 0.05013 0.0
C674 C 0.08831 0.23218 0.31103 0.0
C675 C 0.10714 0.27571 0.27156 0.0
H676 H 0.08214 0.20833 0.40194 0.0
C677 C 0.14603 0.32089 0.29086 0.0
H678 H 0.05957 0.19597 0.29685 0.0
C679 C 0.16324 0.32461 0.34926 0.0
C680 C 0.13831 0.28578 0.3903 0.0
H681 H 0.16072 0.35512 0.26157 0.0
H682 H 0.19077 0.36193 0.36367 0.0
C683 C 0.10224 0.23828 0.37082 0.0
C684 C 0.95625 0.97799 0.52309 0.0
C685 C 0.99671 0.93933 0.54479 0.0
H686 H 0.88519 0.03291 0.54358 0.0
C687 C 0.00557 0.93619 0.60549 0.0
H688 H 0.94767 0.97927 0.47641 0.0
C689 C 0.97046 0.96814 0.64405 0.0
C690 C 0.92503 0.00172 0.62204 0.0
H691 H 0.03703 0.90672 0.62297 0.0
H692 H 0.97323 0.96003 0.69068 0.0
C693 C 0.9214 0.00977 0.5614 0.0
C694 C 0.43597 0.80585 0.83145 0.0
C695 C 0.41619 0.75981 0.79399 0.0
H696 H 0.43414 0.84082 0.91938 0.0
C697 C 0.3676 0.72425 0.81033 0.0
H698 H 0.47461 0.83251 0.82005 0.0
C699 C 0.34317 0.73044 0.86609 0.0
C700 C 0.36886 0.77071 0.90701 0.0
H701 H 0.35292 0.68758 0.7827 0.0
H702 H 0.31038 0.69783 0.88005 0.0
C703 C 0.41253 0.81111 0.88805 0.0
C704 C 0.43061 0.55796 0.87359 0.0
C705 C 0.49239 0.55707 0.87788 0.0
H706 H 0.35047 0.58609 0.91288 0.0
C707 C 0.51958 0.5746 0.93106 0.0
H708 H 0.4085 0.5443 0.83316 0.0
C709 C 0.4863 0.59938 0.97628 0.0
C710 C 0.42526 0.60519 0.97006 0.0
H711 H 0.56715 0.57473 0.93544 0.0
H712 H 0.50891 0.62024 0.01306 0.0
C713 C 0.39723 0.58081 0.91974 0.0
C714 C 0.78326 0.25524 0.14067 0.0
C715 C 0.73127 0.28687 0.14037 0.0
H716 H 0.81999 0.17109 0.15243 0.0
C717 C 0.67961 0.2619 0.16438 0.0
H718 H 0.82406 0.2737 0.12312 0.0
C719 C 0.67943 0.20619 0.18741 0.0
C720 C 0.72936 0.17207 0.18181 0.0
H721 H 0.63898 0.28516 0.16462 0.0
H722 H 0.63812 0.18719 0.20363 0.0
C723 C 0.78158 0.1971 0.15875 0.0
C724 C 0.10249 0.49801 0.36204 0.0
C725 C 0.04107 0.50285 0.36603 0.0
H726 H 0.18019 0.46803 0.40297 0.0
C727 C 0.01354 0.4949 0.4208 0.0
H728 H 0.12496 0.50474 0.32057 0.0
C729 C 0.04516 0.47297 0.46777 0.0
C730 C 0.10474 0.45971 0.46089 0.0
H731 H 0.96628 0.49872 0.4253 0.0
H732 H 0.02133 0.45882 0.50638 0.0
C733 C 0.13437 0.47806 0.40974 0.0
C734 C 0.74189 0.7756 0.63634 0.0
C735 C 0.79602 0.74758 0.63403 0.0
H736 H 0.6997 0.8569 0.64961 0.0
C737 C 0.84676 0.77609 0.65702 0.0
H738 H 0.70157 0.75425 0.62043 0.0
C739 C 0.84378 0.83248 0.67997 0.0
C740 C 0.791 0.86245 0.67635 0.0
H741 H 0.88882 0.75529 0.65624 0.0
H742 H 0.88401 0.85474 0.69566 0.0
C743 C 0.74006 0.83378 0.65459 0.0
C744 C 0.44552 0.44703 0.69024 0.0
C745 C 0.50364 0.44337 0.67044 0.0
H746 H 0.35427 0.43227 0.6691 0.0
C747 C 0.51478 0.43171 0.61084 0.0
H748 H 0.43635 0.45739 0.73588 0.0
C749 C 0.46813 0.41675 0.57277 0.0
C750 C 0.40984 0.41554 0.59359 0.0
H751 H 0.55968 0.43 0.59482 0.0
H752 H 0.4777 0.40072 0.52888 0.0
C753 C 0.39877 0.43449 0.6516 0.0
C754 C 0.69983 0.21843 0.95998 0.0
C755 C 0.73807 0.26224 0.93763 0.0
H756 H 0.67102 0.12848 0.95286 0.0
C757 C 0.76386 0.25426 0.88259 0.0
H758 H 0.68049 0.22356 0.00321 0.0
C759 C 0.75697 0.20077 0.85285 0.0
C760 C 0.72671 0.15366 0.87974 0.0
H761 H 0.79526 0.28644 0.86625 0.0
H762 H 0.78357 0.19365 0.81399 0.0
C763 C 0.69364 0.16433 0.93079 0.0
C764 C 0.05368 0.55858 0.13592 0.0
C765 C 0.00132 0.58874 0.13773 0.0
H766 H 0.14411 0.56258 0.11019 0.0
C767 C 0.99328 0.63424 0.09866 0.0
H768 H 0.06022 0.52278 0.16527 0.0
C769 C 0.04009 0.65404 0.06331 0.0
C770 C 0.09625 0.63136 0.07036 0.0
H771 H 0.95235 0.65704 0.09847 0.0
H772 H 0.03503 0.69313 0.03822 0.0
C773 C 0.10118 0.58008 0.1026 0.0
C774 C 0.77657 0.7768 0.37202 0.0
C775 C 0.79936 0.77859 0.42905 0.0
H776 H 0.74473 0.82656 0.30123 0.0
C777 C 0.82545 0.8313 0.4509 0.0
H778 H 0.7553 0.73734 0.35507 0.0
C779 C 0.82047 0.88297 0.4197 0.0
C780 C 0.78766 0.88249 0.36727 0.0
H781 H 0.8428 0.83396 0.49524 0.0
H782 H 0.83326 0.92413 0.44124 0.0
C783 C 0.77085 0.82833 0.3411 0.0
C784 C 0.94541 0.52295 0.60359 0.0
C785 C 0.90175 0.50306 0.56366 0.0
H786 H 0.00824 0.4992 0.668 0.0
C787 C 0.89681 0.44344 0.5486 0.0
H788 H 0.94921 0.56872 0.61639 0.0
C789 C 0.93158 0.40358 0.57751 0.0
C790 C 0.97115 0.42305 0.62205 0.0
H791 H 0.86288 0.42721 0.51833 0.0
H792 H 0.92253 0.35725 0.57003 0.0
C793 C 0.98001 0.48335 0.63233 0.0
C794 C 0.4001 0.06057 0.48403 0.0
C795 C 0.41808 0.0053 0.46588 0.0
H796 H 0.4056 0.15235 0.46856 0.0
C797 C 0.46273 0.00062 0.42383 0.0
H798 H 0.36571 0.0649 0.51672 0.0
C799 C 0.48612 0.05068 0.39683 0.0
C800 C 0.4652 0.10571 0.41211 0.0
H801 H 0.47554 0.95811 0.40826 0.0
H802 H 0.51557 0.04593 0.35982 0.0
C803 C 0.4238 0.11052 0.45756 0.0
C804 C 0.26757 0.16303 0.78235 0.0
C805 C 0.272 0.11079 0.81193 0.0
H806 H 0.21079 0.22505 0.74628 0.0
C807 C 0.22125 0.08511 0.83774 0.0
H808 H 0.30569 0.18163 0.76073 0.0
C809 C 0.16593 0.10904 0.82876 0.0
C810 C 0.16122 0.1595 0.79507 0.0
H811 H 0.22344 0.04364 0.85952 0.0
H812 H 0.12657 0.0847 0.8423 0.0
C813 C 0.21314 0.18773 0.77459 0.0
C814 C 0.09045 0.96707 0.98706 0.0
C815 C 0.08369 0.02419 0.96846 0.0
H816 H 0.07263 0.87658 0.96791 0.0
C817 C 0.04366 0.03524 0.92375 0.0
H818 H 0.12097 0.95813 0.02204 0.0
C819 C 0.01601 0.98879 0.89282 0.0
C820 C 0.02776 0.93118 0.90722 0.0
H821 H 0.03868 0.07931 0.90876 0.0
H822 H 0.99227 -0.0023 0.85302 0.0
C823 C 0.06164 0.92069 0.95716 0.0
C824 C 0.77372 0.33889 0.75036 0.0
C825 C 0.7582 0.38158 0.79177 0.0
H826 H 0.8418 0.28848 0.71325 0.0
C827 C 0.80069 0.40235 0.83293 0.0
H828 H 0.74382 0.3249 0.71582 0.0
C829 C 0.85915 0.3846 0.8286 0.0
C830 C 0.87474 0.34362 0.78507 0.0
H831 H 0.79032 0.43642 0.86445 0.0
H832 H 0.89293 0.40652 0.85554 0.0
C833 C 0.83048 0.31813 0.74881 0.0
C834 C 0.57664 0.51432 0.10679 0.0
C835 C 0.62552 0.53301 0.0734 0.0
H836 H 0.5068 0.5401 0.16379 0.0
C837 C 0.63484 0.59245 0.062 0.0
H838 H 0.56987 0.46858 0.11694 0.0
C839 C 0.59854 0.63334 0.08839 0.0
C840 C 0.55257 0.61503 0.12631 0.0
H841 H 0.67288 0.60756 0.03687 0.0
H842 H 0.6103 0.67938 0.08422 0.0
C843 C 0.54011 0.55504 0.13282 0.0
C844 C 0.24012 0.91692 0.7308 0.0
C845 C 0.28087 0.8872 0.76412 0.0
H846 H 0.14862 0.92709 0.71112 0.0
C847 C 0.26155 0.84163 0.79979 0.0
H848 H 0.25453 0.95354 0.70424 0.0
C849 C 0.20189 0.8255 0.80275 0.0
C850 C 0.16054 0.8562 0.77102 0.0
H851 H 0.29213 0.82117 0.82793 0.0
H852 H 0.18769 0.79197 0.83318 0.0
C853 C 0.18002 0.90174 0.73447 0.0
C854 C 0.24444 0.19462 0.27569 0.0
C855 C 0.23332 0.14541 0.23946 0.0
H856 H 0.31031 0.25062 0.31761 0.0
C857 C 0.28041 0.11862 0.21134 0.0
H858 H 0.20911 0.21388 0.29992 0.0
C859 C 0.33828 0.13897 0.22169 0.0
C860 C 0.34974 0.18626 0.26067 0.0
H861 H 0.27272 0.07936 0.18472 0.0
H862 H 0.37423 0.11464 0.20351 0.0
C863 C 0.30235 0.21553 0.28567 0.0
loop_
_geom_bond_atom_site_label_1
_geom_bond_atom_site_label_2
_geom_bond_distance
_geom_bond_site_symmetry_2
_ccdc_geom_bond_type
Co0 O1 2.216 . S
Co0 O2 2.091 . S
Co0 O4 2.004 1_455 S
Co0 O10 2.021 1_455 S
Co0 O12 2.137 . S
Co0 O13 2.244 . S
O1 Co0 2.216 . S
O1 C8 1.247 . S
O2 Co0 2.091 . S
O2 C8 1.261 . S
C3 O12 1.247 . S
C3 O13 1.272 . S
O4 Co0 2.004 1_655 S
O4 C9 1.259 . S
Co5 O6 2.061 1_455 S
Co5 O11 2.052 1_455 S
Co5 O13 2.135 . S
O6 Co5 2.061 1_655 S
O6 C9 1.235 . S
C7 O10 1.238 . S
C7 O11 1.241 . S
C8 O1 1.247 . S
C8 O2 1.261 . S
C9 O4 1.259 . S
C9 O6 1.235 . S
O10 Co0 2.021 1_655 S
O10 C7 1.238 . S
O11 Co5 2.052 1_655 S
O11 C7 1.241 . S
O12 Co0 2.137 . S
O12 C3 1.247 . S
O13 Co0 2.244 . S
O13 C3 1.272 . S
O13 Co5 2.135 . S
Co14 O15 2.216 . S
Co14 O16 2.091 1_455 S
Co14 O18 2.004 1_455 S
Co14 O24 2.021 1_455 S
Co14 O26 2.137 . S
Co14 O27 2.244 . S
O15 Co14 2.216 . S
O15 C22 1.247 . S
O16 Co14 2.091 1_655 S
O16 C22 1.261 1_655 S
C17 O26 1.247 . S
C17 O27 1.272 . S
O18 Co14 2.004 1_655 S
O18 C23 1.259 . S
Co19 O20 2.061 1_455 S
Co19 O25 2.052 1_455 S
Co19 O27 2.135 . S
O20 Co19 2.061 1_655 S
O20 C23 1.235 . S
C21 O24 1.238 . S
C21 O25 1.241 . S
C22 O15 1.247 . S
C22 O16 1.261 1_455 S
C23 O18 1.259 . S
C23 O20 1.235 . S
O24 Co14 2.021 1_655 S
O24 C21 1.238 . S
O25 Co19 2.052 1_655 S
O25 C21 1.241 . S
O26 Co14 2.137 . S
O26 C17 1.247 . S
O27 Co14 2.244 . S
O27 C17 1.272 . S
O27 Co19 2.135 . S
Co28 O29 2.216 . S
Co28 O30 2.091 . S
Co28 O32 2.004 . S
Co28 O38 2.021 . S
Co28 O40 2.137 . S
Co28 O41 2.244 . S
O29 Co28 2.216 . S
O29 C36 1.247 . S
O30 Co28 2.091 . S
O30 C36 1.261 . S
C31 O40 1.247 . S
C31 O41 1.272 . S
O32 Co28 2.004 . S
O32 C37 1.259 . S
Co33 O34 2.061 . S
Co33 O39 2.052 . S
Co33 O41 2.135 . S
O34 Co33 2.061 . S
O34 C37 1.235 . S
C35 O38 1.238 . S
C35 O39 1.241 . S
C36 O29 1.247 . S
C36 O30 1.261 . S
C37 O32 1.259 . S
C37 O34 1.235 . S
O38 Co28 2.021 . S
O38 C35 1.238 . S
O39 Co33 2.052 . S
O39 C35 1.241 . S
O40 Co28 2.137 . S
O40 C31 1.247 . S
O41 Co28 2.244 . S
O41 C31 1.272 . S
O41 Co33 2.135 . S
Co42 O43 2.216 . S
Co42 O44 2.091 . S
Co42 O46 2.004 . S
Co42 O52 2.021 . S
Co42 O54 2.137 . S
Co42 O55 2.244 . S
O43 Co42 2.216 . S
O43 C50 1.247 . S
O44 Co42 2.091 . S
O44 C50 1.261 . S
C45 O54 1.247 . S
C45 O55 1.272 . S
O46 Co42 2.004 . S
O46 C51 1.259 . S
Co47 O48 2.061 . S
Co47 O53 2.052 . S
Co47 O55 2.135 . S
O48 Co47 2.061 . S
O48 C51 1.235 . S
C49 O52 1.238 . S
C49 O53 1.241 . S
C50 O43 1.247 . S
C50 O44 1.261 . S
C51 O46 1.259 . S
C51 O48 1.235 . S
O52 Co42 2.021 . S
O52 C49 1.238 . S
O53 Co47 2.052 . S
O53 C49 1.241 . S
O54 Co42 2.137 . S
O54 C45 1.247 . S
O55 Co42 2.244 . S
O55 C45 1.272 . S
O55 Co47 2.135 . S
Co56 O57 2.216 . S
Co56 O58 2.091 . S
Co56 O60 2.004 1_565 S
Co56 O66 2.021 1_565 S
Co56 O68 2.137 . S
Co56 O69 2.244 1_565 S
O57 Co56 2.216 . S
O57 C64 1.247 . S
O58 Co56 2.091 . S
O58 C64 1.261 . S
C59 O68 1.247 . S
C59 O69 1.272 1_565 S
O60 Co56 2.004 1_545 S
O60 C65 1.259 . S
Co61 O62 2.061 . S
Co61 O67 2.052 . S
Co61 O69 2.135 . S
O62 Co61 2.061 . S
O62 C65 1.235 . S
C63 O66 1.238 . S
C63 O67 1.241 . S
C64 O57 1.247 . S
C64 O58 1.261 . S
C65 O60 1.259 . S
C65 O62 1.235 . S
O66 Co56 2.021 1_545 S
O66 C63 1.238 . S
O67 Co61 2.052 . S
O67 C63 1.241 . S
O68 Co56 2.137 . S
O68 C59 1.247 . S
O69 Co56 2.244 1_545 S
O69 C59 1.272 1_545 S
O69 Co61 2.135 . S
Co70 O71 2.216 . S
Co70 O72 2.091 . S
Co70 O74 2.004 . S
Co70 O80 2.021 . S
Co70 O82 2.137 . S
Co70 O83 2.244 . S
O71 Co70 2.216 . S
O71 C78 1.247 . S
O72 Co70 2.091 . S
O72 C78 1.261 . S
C73 O82 1.247 . S
C73 O83 1.272 . S
O74 Co70 2.004 . S
O74 C79 1.259 . S
Co75 O76 2.061 . S
Co75 O81 2.052 . S
Co75 O83 2.135 . S
O76 Co75 2.061 . S
O76 C79 1.235 . S
C77 O80 1.238 . S
C77 O81 1.241 . S
C78 O71 1.247 . S
C78 O72 1.261 . S
C79 O74 1.259 . S
C79 O76 1.235 . S
O80 Co70 2.021 . S
O80 C77 1.238 . S
O81 Co75 2.052 . S
O81 C77 1.241 . S
O82 Co70 2.137 . S
O82 C73 1.247 . S
O83 Co70 2.244 . S
O83 C73 1.272 . S
O83 Co75 2.135 . S
Co84 O85 2.216 . S
Co84 O86 2.091 . S
Co84 O88 2.004 . S
Co84 O94 2.021 1_545 S
Co84 O96 2.137 . S
Co84 O97 2.244 . S
O85 Co84 2.216 . S
O85 C92 1.247 . S
O86 Co84 2.091 . S
O86 C92 1.261 . S
C87 O96 1.247 . S
C87 O97 1.272 . S
O88 Co84 2.004 . S
O88 C93 1.259 1_545 S
Co89 O90 2.061 . S
Co89 O95 2.052 . S
Co89 O97 2.135 1_565 S
O90 Co89 2.061 . S
O90 C93 1.235 . S
C91 O94 1.238 . S
C91 O95 1.241 . S
C92 O85 1.247 . S
C92 O86 1.261 . S
C93 O88 1.259 1_565 S
C93 O90 1.235 . S
O94 Co84 2.021 1_565 S
O94 C91 1.238 . S
O95 Co89 2.052 . S
O95 C91 1.241 . S
O96 Co84 2.137 . S
O96 C87 1.247 . S
O97 Co84 2.244 . S
O97 C87 1.272 . S
O97 Co89 2.135 1_545 S
Co98 O99 2.216 . S
Co98 O100 2.091 1_554 S
Co98 O102 2.004 1_554 S
Co98 O108 2.021 1_554 S
Co98 O110 2.137 . S
Co98 O111 2.244 . S
O99 Co98 2.216 . S
O99 C106 1.247 . S
O100 Co98 2.091 1_556 S
O100 C106 1.261 1_556 S
C101 O110 1.247 . S
C101 O111 1.272 . S
O102 Co98 2.004 1_556 S
O102 C107 1.259 . S
Co103 O104 2.061 1_554 S
Co103 O109 2.052 1_554 S
Co103 O111 2.135 . S
O104 Co103 2.061 1_556 S
O104 C107 1.235 . S
C105 O108 1.238 . S
C105 O109 1.241 . S
C106 O99 1.247 . S
C106 O100 1.261 1_554 S
C107 O102 1.259 . S
C107 O104 1.235 . S
O108 Co98 2.021 1_556 S
O108 C105 1.238 . S
O109 Co103 2.052 1_556 S
O109 C105 1.241 . S
O110 Co98 2.137 . S
O110 C101 1.247 . S
O111 Co98 2.244 . S
O111 C101 1.272 . S
O111 Co103 2.135 . S
Co112 O113 2.216 . S
Co112 O114 2.091 . S
Co112 O116 2.004 1_554 S
Co112 O122 2.021 1_554 S
Co112 O124 2.137 . S
Co112 O125 2.244 . S
O113 Co112 2.216 . S
O113 C120 1.247 . S
O114 Co112 2.091 . S
O114 C120 1.261 . S
C115 O124 1.247 . S
C115 O125 1.272 . S
O116 Co112 2.004 1_556 S
O116 C121 1.259 . S
Co117 O118 2.061 1_554 S
Co117 O123 2.053 . S
Co117 O125 2.135 . S
O118 Co117 2.061 1_556 S
O118 C121 1.235 . S
C119 O122 1.238 . S
C119 O123 1.239 1_556 S
C120 O113 1.247 . S
C120 O114 1.261 . S
C121 O116 1.259 . S
C121 O118 1.235 . S
O122 Co112 2.021 1_556 S
O122 C119 1.238 . S
O123 Co117 2.053 . S
O123 C119 1.239 1_554 S
O124 Co112 2.137 . S
O124 C115 1.247 . S
O125 Co112 2.244 . S
O125 C115 1.272 . S
O125 Co117 2.135 . S
Co126 O127 2.216 . S
Co126 O128 2.091 . S
Co126 O130 2.004 . S
Co126 O136 2.021 . S
Co126 O138 2.137 . S
Co126 O139 2.244 . S
O127 Co126 2.216 . S
O127 C134 1.247 . S
O128 Co126 2.091 . S
O128 C134 1.261 . S
C129 O138 1.247 . S
C129 O139 1.272 . S
O130 Co126 2.004 . S
O130 C135 1.259 . S
Co131 O132 2.061 . S
Co131 O137 2.052 . S
Co131 O139 2.135 . S
O132 Co131 2.061 . S
O132 C135 1.235 . S
C133 O136 1.238 . S
C133 O137 1.241 . S
C134 O127 1.247 . S
C134 O128 1.261 . S
C135 O130 1.259 . S
C135 O132 1.235 . S
O136 Co126 2.021 . S
O136 C133 1.238 . S
O137 Co131 2.052 . S
O137 C133 1.241 . S
O138 Co126 2.137 . S
O138 C129 1.247 . S
O139 Co126 2.244 . S
O139 C129 1.272 . S
O139 Co131 2.135 . S
Co140 O141 2.216 . S
Co140 O142 2.091 . S
Co140 O144 2.004 . S
Co140 O150 2.021 . S
Co140 O152 2.137 . S
Co140 O153 2.244 . S
O141 Co140 2.216 . S
O141 C148 1.247 . S
O142 Co140 2.091 . S
O142 C148 1.261 . S
C143 O152 1.247 . S
C143 O153 1.272 . S
O144 Co140 2.004 . S
O144 C149 1.259 . S
Co145 O146 2.061 . S
Co145 O151 2.052 . S
Co145 O153 2.135 . S
O146 Co145 2.061 . S
O146 C149 1.235 . S
C147 O150 1.238 . S
C147 O151 1.241 . S
C148 O141 1.247 . S
C148 O142 1.261 . S
C149 O144 1.259 . S
C149 O146 1.235 . S
O150 Co140 2.021 . S
O150 C147 1.238 . S
O151 Co145 2.052 . S
O151 C147 1.241 . S
O152 Co140 2.137 . S
O152 C143 1.247 . S
O153 Co140 2.244 . S
O153 C143 1.272 . S
O153 Co145 2.135 . S
Co154 O155 2.216 . S
Co154 O156 2.091 . S
Co154 O158 2.004 . S
Co154 O164 2.021 . S
Co154 O166 2.137 . S
Co154 O167 2.244 . S
O155 Co154 2.216 . S
O155 C162 1.247 . S
O156 Co154 2.091 . S
O156 C162 1.261 . S
C157 O166 1.247 . S
C157 O167 1.272 . S
O158 Co154 2.004 . S
O158 C163 1.259 . S
Co159 O160 2.061 . S
Co159 O165 2.052 . S
Co159 O167 2.135 . S
O160 Co159 2.061 . S
O160 C163 1.235 . S
C161 O164 1.238 . S
C161 O165 1.241 . S
C162 O155 1.247 . S
C162 O156 1.261 . S
C163 O158 1.259 . S
C163 O160 1.235 . S
O164 Co154 2.021 . S
O164 C161 1.238 . S
O165 Co159 2.052 . S
O165 C161 1.241 . S
O166 Co154 2.137 . S
O166 C157 1.247 . S
O167 Co154 2.244 . S
O167 C157 1.272 . S
O167 Co159 2.135 . S
H168 C174 0.930 . S
H169 C177 0.931 . S
H170 C179 0.931 . S
H171 C181 0.930 . S
H172 C183 0.930 . S
H173 C185 0.931 . S
C174 H168 0.930 . S
C174 C175 1.380 . S
C174 C176 1.394 . S
C175 C174 1.380 . S
C175 C179 1.382 . S
C176 C174 1.394 . S
C176 C177 1.400 . S
C177 H169 0.931 . S
C177 C176 1.400 . S
C177 C178 1.375 . S
C178 C177 1.375 . S
C178 C179 1.415 . S
C178 C180 1.501 1_655 S
C179 H170 0.931 . S
C179 C175 1.382 . S
C179 C178 1.415 . S
C180 C178 1.501 1_455 S
C180 C181 1.384 . S
C180 C185 1.408 . S
C181 H171 0.930 . S
C181 C180 1.384 . S
C181 C182 1.389 . S
C182 C181 1.389 . S
C182 C183 1.405 . S
C183 H172 0.930 . S
C183 C182 1.405 . S
C183 C184 1.364 . S
C184 C183 1.364 . S
C184 C185 1.400 . S
C185 H173 0.931 . S
C185 C180 1.408 . S
C185 C184 1.400 . S
H186 C192 0.930 . S
H187 C195 0.931 . S
H188 C197 0.931 . S
H189 C199 0.930 . S
H190 C201 0.930 . S
H191 C203 0.931 . S
C192 H186 0.930 . S
C192 C193 1.380 . S
C192 C194 1.394 . S
C193 C192 1.380 . S
C193 C197 1.382 . S
C194 C192 1.394 . S
C194 C195 1.400 . S
C195 H187 0.931 . S
C195 C194 1.400 . S
C195 C196 1.375 . S
C196 C195 1.375 . S
C196 C197 1.415 . S
C196 C198 1.501 1_655 S
C197 H188 0.931 . S
C197 C193 1.382 . S
C197 C196 1.415 . S
C198 C196 1.501 1_455 S
C198 C199 1.384 . S
C198 C203 1.408 . S
C199 H189 0.930 . S
C199 C198 1.384 . S
C199 C200 1.389 . S
C200 C199 1.389 . S
C200 C201 1.405 . S
C201 H190 0.930 . S
C201 C200 1.405 . S
C201 C202 1.364 . S
C202 C201 1.364 . S
C202 C203 1.400 . S
C203 H191 0.931 . S
C203 C198 1.408 . S
C203 C202 1.400 . S
H204 C210 0.930 . S
H205 C213 0.931 . S
H206 C215 0.931 . S
H207 C217 0.930 . S
H208 C219 0.930 . S
H209 C221 0.931 . S
C210 H204 0.930 . S
C210 C211 1.380 . S
C210 C212 1.394 . S
C211 C210 1.380 . S
C211 C215 1.382 . S
C212 C210 1.394 . S
C212 C213 1.400 . S
C213 H205 0.931 . S
C213 C212 1.400 . S
C213 C214 1.375 . S
C214 C213 1.375 . S
C214 C215 1.415 . S
C214 C216 1.501 . S
C215 H206 0.931 . S
C215 C211 1.382 . S
C215 C214 1.415 . S
C216 C214 1.501 . S
C216 C217 1.384 . S
C216 C221 1.408 . S
C217 H207 0.930 . S
C217 C216 1.384 . S
C217 C218 1.389 . S
C218 C217 1.389 . S
C218 C219 1.405 . S
C219 H208 0.930 . S
C219 C218 1.405 . S
C219 C220 1.364 . S
C220 C219 1.364 . S
C220 C221 1.400 . S
C221 H209 0.931 . S
C221 C216 1.408 . S
C221 C220 1.400 . S
H222 C228 0.930 . S
H223 C231 0.931 . S
H224 C233 0.931 . S
H225 C235 0.930 . S
H226 C237 0.930 . S
H227 C239 0.931 . S
C228 H222 0.930 . S
C228 C229 1.380 . S
C228 C230 1.394 . S
C229 C228 1.380 . S
C229 C233 1.382 . S
C230 C228 1.394 . S
C230 C231 1.400 . S
C231 H223 0.931 . S
C231 C230 1.400 . S
C231 C232 1.375 . S
C232 C231 1.375 . S
C232 C233 1.415 . S
C232 C234 1.501 . S
C233 H224 0.931 . S
C233 C229 1.382 . S
C233 C232 1.415 . S
C234 C232 1.501 . S
C234 C235 1.384 . S
C234 C239 1.408 . S
C235 H225 0.930 . S
C235 C234 1.384 . S
C235 C236 1.389 . S
C236 C235 1.389 . S
C236 C237 1.405 . S
C237 H226 0.930 . S
C237 C236 1.405 . S
C237 C238 1.364 . S
C238 C237 1.364 . S
C238 C239 1.400 . S
C239 H227 0.931 . S
C239 C234 1.408 . S
C239 C238 1.400 . S
H240 C246 0.930 . S
H241 C249 0.931 . S
H242 C251 0.931 1_545 S
H243 C253 0.930 . S
H244 C255 0.930 . S
H245 C257 0.931 . S
C246 H240 0.930 . S
C246 C247 1.380 . S
C246 C248 1.394 . S
C247 C246 1.380 . S
C247 C251 1.382 . S
C248 C246 1.394 . S
C248 C249 1.400 . S
C249 H241 0.931 . S
C249 C248 1.400 . S
C249 C250 1.375 1_565 S
C250 C249 1.375 1_545 S
C250 C251 1.415 1_545 S
C250 C252 1.501 . S
C251 H242 0.931 1_565 S
C251 C247 1.382 . S
C251 C250 1.415 1_565 S
C252 C250 1.501 . S
C252 C253 1.384 . S
C252 C257 1.408 . S
C253 H243 0.930 . S
C253 C252 1.384 . S
C253 C254 1.389 . S
C254 C253 1.389 . S
C254 C255 1.405 . S
C255 H244 0.930 . S
C255 C254 1.405 . S
C255 C256 1.364 . S
C256 C255 1.364 . S
C256 C257 1.400 . S
C257 H245 0.931 . S
C257 C252 1.408 . S
C257 C256 1.400 . S
H258 C264 0.930 . S
H259 C267 0.931 . S
H260 C269 0.931 . S
H261 C271 0.930 . S
H262 C273 0.930 . S
H263 C275 0.931 . S
C264 H258 0.930 . S
C264 C265 1.380 . S
C264 C266 1.394 . S
C265 C264 1.380 . S
C265 C269 1.382 . S
C266 C264 1.394 . S
C266 C267 1.400 . S
C267 H259 0.931 . S
C267 C266 1.400 . S
C267 C268 1.375 . S
C268 C267 1.375 . S
C268 C269 1.415 . S
C268 C270 1.501 . S
C269 H260 0.931 . S
C269 C265 1.382 . S
C269 C268 1.415 . S
C270 C268 1.501 . S
C270 C271 1.384 . S
C270 C275 1.408 . S
C271 H261 0.930 . S
C271 C270 1.384 . S
C271 C272 1.389 . S
C272 C271 1.389 . S
C272 C273 1.405 . S
C273 H262 0.930 . S
C273 C272 1.405 . S
C273 C274 1.364 . S
C274 C273 1.364 . S
C274 C275 1.400 . S
C275 H263 0.931 . S
C275 C270 1.408 . S
C275 C274 1.400 . S
H276 C282 0.930 . S
H277 C285 0.931 . S
H278 C287 0.931 . S
H279 C289 0.930 . S
H280 C291 0.930 . S
H281 C293 0.931 . S
C282 H276 0.930 . S
C282 C283 1.380 . S
C282 C284 1.394 . S
C283 C282 1.380 . S
C283 C287 1.382 . S
C284 C282 1.394 . S
C284 C285 1.400 . S
C285 H277 0.931 . S
C285 C284 1.400 . S
C285 C286 1.375 . S
C286 C285 1.375 . S
C286 C287 1.415 . S
C286 C288 1.501 1_545 S
C287 H278 0.931 . S
C287 C283 1.382 . S
C287 C286 1.415 . S
C288 C286 1.501 1_565 S
C288 C289 1.384 . S
C288 C293 1.408 . S
C289 H279 0.930 . S
C289 C288 1.384 . S
C289 C290 1.389 . S
C290 C289 1.389 . S
C290 C291 1.405 . S
C291 H280 0.930 . S
C291 C290 1.405 . S
C291 C292 1.364 . S
C292 C291 1.364 . S
C292 C293 1.400 . S
C293 H281 0.931 . S
C293 C288 1.408 . S
C293 C292 1.400 . S
H294 C300 0.930 . S
H295 C303 0.931 . S
H296 C305 0.928 1_554 S
H297 C307 0.930 . S
H298 C309 0.930 . S
H299 C311 0.931 . S
C300 H294 0.930 . S
C300 C301 1.380 . S
C300 C302 1.394 . S
C301 C300 1.380 . S
C301 C305 1.382 . S
C302 C300 1.394 . S
C302 C303 1.400 1_556 S
C303 H295 0.931 . S
C303 C302 1.400 1_554 S
C303 C304 1.375 . S
C304 C303 1.375 . S
C304 C305 1.415 1_554 S
C304 C306 1.501 . S
C305 H296 0.928 1_556 S
C305 C301 1.382 . S
C305 C304 1.415 1_556 S
C306 C304 1.501 . S
C306 C307 1.384 . S
C306 C311 1.408 . S
C307 H297 0.930 . S
C307 C306 1.384 . S
C307 C308 1.389 . S
C308 C307 1.389 . S
C308 C309 1.405 . S
C309 H298 0.930 . S
C309 C308 1.405 . S
C309 C310 1.364 . S
C310 C309 1.364 . S
C310 C311 1.400 . S
C311 H299 0.931 . S
C311 C306 1.408 . S
C311 C310 1.400 . S
H312 C318 0.930 . S
H313 C321 0.931 1_554 S
H314 C323 0.931 . S
H315 C325 0.930 . S
H316 C327 0.930 . S
H317 C329 0.931 . S
C318 H312 0.930 . S
C318 C319 1.380 . S
C318 C320 1.394 . S
C319 C318 1.380 . S
C319 C323 1.382 . S
C320 C318 1.394 . S
C320 C321 1.400 . S
C321 H313 0.931 1_556 S
C321 C320 1.400 . S
C321 C322 1.375 1_556 S
C322 C321 1.375 1_554 S
C322 C323 1.415 1_554 S
C322 C324 1.501 . S
C323 H314 0.931 . S
C323 C319 1.382 . S
C323 C322 1.415 1_556 S
C324 C322 1.501 . S
C324 C325 1.384 . S
C324 C329 1.408 . S
C325 H315 0.930 . S
C325 C324 1.384 . S
C325 C326 1.389 . S
C326 C325 1.389 . S
C326 C327 1.405 . S
C327 H316 0.930 . S
C327 C326 1.405 . S
C327 C328 1.364 . S
C328 C327 1.364 . S
C328 C329 1.400 . S
C329 H317 0.931 . S
C329 C324 1.408 . S
C329 C328 1.400 . S
H330 C336 0.930 . S
H331 C339 0.931 . S
H332 C341 0.931 . S
H333 C343 0.930 . S
H334 C345 0.930 . S
H335 C347 0.931 . S
C336 H330 0.930 . S
C336 C337 1.380 . S
C336 C338 1.394 . S
C337 C336 1.380 . S
C337 C341 1.382 . S
C338 C336 1.394 . S
C338 C339 1.400 . S
C339 H331 0.931 . S
C339 C338 1.400 . S
C339 C340 1.375 . S
C340 C339 1.375 . S
C340 C341 1.415 . S
C340 C342 1.501 . S
C341 H332 0.931 . S
C341 C337 1.382 . S
C341 C340 1.415 . S
C342 C340 1.501 . S
C342 C343 1.384 . S
C342 C347 1.408 . S
C343 H333 0.930 . S
C343 C342 1.384 . S
C343 C344 1.389 . S
C344 C343 1.389 . S
C344 C345 1.405 . S
C345 H334 0.930 . S
C345 C344 1.405 . S
C345 C346 1.364 . S
C346 C345 1.364 . S
C346 C347 1.400 . S
C347 H335 0.931 . S
C347 C342 1.408 . S
C347 C346 1.400 . S
H348 C354 0.930 . S
H349 C357 0.931 . S
H350 C359 0.931 . S
H351 C361 0.930 . S
H352 C363 0.930 . S
H353 C365 0.931 . S
C354 H348 0.930 . S
C354 C355 1.380 . S
C354 C356 1.394 . S
C355 C354 1.380 . S
C355 C359 1.382 . S
C356 C354 1.394 . S
C356 C357 1.400 . S
C357 H349 0.931 . S
C357 C356 1.400 . S
C357 C358 1.375 . S
C358 C357 1.375 . S
C358 C359 1.415 . S
C358 C360 1.501 . S
C359 H350 0.931 . S
C359 C355 1.382 . S
C359 C358 1.415 . S
C360 C358 1.501 . S
C360 C361 1.384 . S
C360 C365 1.408 . S
C361 H351 0.930 . S
C361 C360 1.384 . S
C361 C362 1.389 . S
C362 C361 1.389 . S
C362 C363 1.405 . S
C363 H352 0.930 . S
C363 C362 1.405 . S
C363 C364 1.364 . S
C364 C363 1.364 . S
C364 C365 1.400 . S
C365 H353 0.931 . S
C365 C360 1.408 . S
C365 C364 1.400 . S
H366 C372 0.930 . S
H367 C375 0.931 . S
H368 C377 0.931 . S
H369 C379 0.930 . S
H370 C381 0.930 . S
H371 C383 0.931 . S
C372 H366 0.930 . S
C372 C373 1.380 . S
C372 C374 1.394 . S
C373 C372 1.380 . S
C373 C377 1.382 . S
C374 C372 1.394 . S
C374 C375 1.400 . S
C375 H367 0.931 . S
C375 C374 1.400 . S
C375 C376 1.375 . S
C376 C375 1.375 . S
C376 C377 1.415 . S
C376 C378 1.501 . S
C377 H368 0.931 . S
C377 C373 1.382 . S
C377 C376 1.415 . S
C378 C376 1.501 . S
C378 C379 1.384 . S
C378 C383 1.408 . S
C379 H369 0.930 . S
C379 C378 1.384 . S
C379 C380 1.389 . S
C380 C379 1.389 . S
C380 C381 1.405 . S
C381 H370 0.930 . S
C381 C380 1.405 . S
C381 C382 1.364 . S
C382 C381 1.364 . S
C382 C383 1.400 . S
C383 H371 0.931 . S
C383 C378 1.408 . S
C383 C382 1.400 . S
C384 C385 1.387 . S
C384 H388 0.950 . S
C384 C393 1.390 1_554 S
C385 C384 1.387 . S
C385 C387 1.387 1_554 S
H386 C393 0.950 . S
C387 C385 1.387 1_556 S
C387 C389 1.390 . S
C387 H391 0.950 1_556 S
H388 C384 0.950 . S
C389 C387 1.390 . S
C389 C390 1.387 . S
C389 H392 0.950 . S
C390 C389 1.387 . S
C390 C393 1.387 . S
H391 C387 0.950 1_554 S
H392 C389 0.950 . S
C393 C384 1.390 1_556 S
C393 H386 0.950 . S
C393 C390 1.387 . S
C394 C395 1.387 . S
C394 H398 0.950 . S
C394 C403 1.390 . S
C395 C394 1.387 . S
C395 C397 1.387 . S
H396 C403 0.950 . S
C397 C395 1.387 . S
C397 C399 1.390 . S
C397 H401 0.950 . S
H398 C394 0.950 . S
C399 C397 1.390 . S
C399 C400 1.387 . S
C399 H402 0.950 . S
C400 C399 1.387 . S
C400 C403 1.387 . S
H401 C397 0.950 . S
H402 C399 0.950 . S
C403 C394 1.390 . S
C403 H396 0.950 . S
C403 C400 1.387 . S
C404 C405 1.387 . S
C404 H408 0.950 . S
C404 C413 1.390 . S
C405 C404 1.387 . S
C405 C407 1.387 . S
H406 C413 0.950 . S
C407 C405 1.387 . S
C407 C409 1.390 . S
C407 H411 0.950 . S
H408 C404 0.950 . S
C409 C407 1.390 . S
C409 C410 1.387 . S
C409 H412 0.950 . S
C410 C409 1.387 . S
C410 C413 1.387 . S
H411 C407 0.950 . S
H412 C409 0.950 . S
C413 C404 1.390 . S
C413 H406 0.950 . S
C413 C410 1.387 . S
C414 C415 1.387 . S
C414 H418 0.950 . S
C414 C423 1.390 . S
C415 C414 1.387 . S
C415 C417 1.387 . S
H416 C423 0.950 . S
C417 C415 1.387 . S
C417 C419 1.390 . S
C417 H421 0.950 . S
H418 C414 0.950 . S
C419 C417 1.390 . S
C419 C420 1.387 . S
C419 H422 0.950 . S
C420 C419 1.387 . S
C420 C423 1.387 . S
H421 C417 0.950 . S
H422 C419 0.950 . S
C423 C414 1.390 . S
C423 H416 0.950 . S
C423 C420 1.387 . S
C424 C425 1.387 . S
C424 H428 0.950 . S
C424 C433 1.390 . S
C425 C424 1.387 . S
C425 C427 1.387 . S
H426 C433 0.950 . S
C427 C425 1.387 . S
C427 C429 1.390 . S
C427 H431 0.950 . S
H428 C424 0.950 . S
C429 C427 1.390 . S
C429 C430 1.387 . S
C429 H432 0.950 . S
C430 C429 1.387 . S
C430 C433 1.387 . S
H431 C427 0.950 . S
H432 C429 0.950 . S
C433 C424 1.390 . S
C433 H426 0.950 . S
C433 C430 1.387 . S
C434 C435 1.387 . S
C434 H438 0.950 . S
C434 C443 1.390 . S
C435 C434 1.387 . S
C435 C437 1.387 . S
H436 C443 0.950 . S
C437 C435 1.387 . S
C437 C439 1.390 . S
C437 H441 0.950 . S
H438 C434 0.950 . S
C439 C437 1.390 . S
C439 C440 1.387 . S
C439 H442 0.950 . S
C440 C439 1.387 . S
C440 C443 1.387 . S
H441 C437 0.950 . S
H442 C439 0.950 . S
C443 C434 1.390 . S
C443 H436 0.950 . S
C443 C440 1.387 . S
C444 C445 1.387 . S
C444 H448 0.950 . S
C444 C453 1.390 . S
C445 C444 1.387 . S
C445 C447 1.387 . S
H446 C453 0.950 . S
C447 C445 1.387 . S
C447 C449 1.390 . S
C447 H451 0.950 . S
H448 C444 0.950 . S
C449 C447 1.390 . S
C449 C450 1.387 . S
C449 H452 0.950 . S
C450 C449 1.387 . S
C450 C453 1.387 . S
H451 C447 0.950 . S
H452 C449 0.950 . S
C453 C444 1.390 . S
C453 H446 0.950 . S
C453 C450 1.387 . S
C454 C455 1.387 . S
C454 H458 0.950 . S
C454 C463 1.390 . S
C455 C454 1.387 . S
C455 C457 1.387 . S
H456 C463 0.950 . S
C457 C455 1.387 . S
C457 C459 1.390 . S
C457 H461 0.950 . S
H458 C454 0.950 . S
C459 C457 1.390 . S
C459 C460 1.387 . S
C459 H462 0.950 . S
C460 C459 1.387 . S
C460 C463 1.387 . S
H461 C457 0.950 . S
H462 C459 0.950 . S
C463 C454 1.390 . S
C463 H456 0.950 . S
C463 C460 1.387 . S
C464 C465 1.387 1_655 S
C464 H468 0.950 . S
C464 C473 1.390 . S
C465 C464 1.387 1_455 S
C465 C467 1.387 1_455 S
H466 C473 0.950 . S
C467 C465 1.387 1_655 S
C467 C469 1.390 . S
C467 H471 0.950 . S
H468 C464 0.950 . S
C469 C467 1.390 . S
C469 C470 1.387 . S
C469 H472 0.950 . S
C470 C469 1.387 . S
C470 C473 1.387 . S
H471 C467 0.950 . S
H472 C469 0.950 . S
C473 C464 1.390 . S
C473 H466 0.950 . S
C473 C470 1.387 . S
C474 C475 1.387 . S
C474 H478 0.950 . S
C474 C483 1.390 . S
C475 C474 1.387 . S
C475 C477 1.387 . S
H476 C483 0.950 . S
C477 C475 1.387 . S
C477 C479 1.390 . S
C477 H481 0.950 . S
H478 C474 0.950 . S
C479 C477 1.390 . S
C479 C480 1.387 . S
C479 H482 0.950 . S
C480 C479 1.387 . S
C480 C483 1.387 . S
H481 C477 0.950 . S
H482 C479 0.950 . S
C483 C474 1.390 . S
C483 H476 0.950 . S
C483 C480 1.387 . S
C484 C485 1.387 . S
C484 H488 0.950 1_556 S
C484 C493 1.390 . S
C485 C484 1.387 . S
C485 C487 1.387 . S
H486 C493 0.950 1_554 S
C487 C485 1.387 . S
C487 C489 1.390 . S
C487 H491 0.950 . S
H488 C484 0.950 1_554 S
C489 C487 1.390 . S
C489 C490 1.387 . S
C489 H492 0.950 . S
C490 C489 1.387 . S
C490 C493 1.387 . S
H491 C487 0.950 . S
H492 C489 0.950 . S
C493 C484 1.390 . S
C493 H486 0.950 1_556 S
C493 C490 1.387 . S
C494 C495 1.387 . S
C494 H498 0.950 . S
C494 C503 1.390 . S
C495 C494 1.387 . S
C495 C497 1.387 . S
H496 C503 0.950 . S
C497 C495 1.387 . S
C497 C499 1.390 . S
C497 H501 0.950 . S
H498 C494 0.950 . S
C499 C497 1.390 . S
C499 C500 1.387 . S
C499 H502 0.950 . S
C500 C499 1.387 . S
C500 C503 1.387 . S
H501 C497 0.950 . S
H502 C499 0.950 . S
C503 C494 1.390 . S
C503 H496 0.950 . S
C503 C500 1.387 . S
C504 C505 1.387 1_655 S
C504 H508 0.950 1_565 S
C504 C513 1.390 . S
C505 C504 1.387 1_455 S
C505 C507 1.387 1_455 S
H506 C513 0.950 1_545 S
C507 C505 1.387 1_655 S
C507 C509 1.390 . S
C507 H511 0.950 1_655 S
H508 C504 0.950 1_545 S
C509 C507 1.390 . S
C509 C510 1.387 . S
C509 H512 0.950 . S
C510 C509 1.387 . S
C510 C513 1.387 . S
H511 C507 0.950 1_455 S
H512 C509 0.950 . S
C513 C504 1.390 . S
C513 H506 0.950 1_565 S
C513 C510 1.387 . S
C514 C515 1.387 . S
C514 H518 0.950 . S
C514 C523 1.390 . S
C515 C514 1.387 . S
C515 C517 1.387 . S
H516 C523 0.950 . S
C517 C515 1.387 . S
C517 C519 1.390 . S
C517 H521 0.950 . S
H518 C514 0.950 . S
C519 C517 1.390 . S
C519 C520 1.387 . S
C519 H522 0.950 . S
C520 C519 1.387 . S
C520 C523 1.387 . S
H521 C517 0.950 . S
H522 C519 0.950 . S
C523 C514 1.390 . S
C523 H516 0.950 . S
C523 C520 1.387 . S
C524 C525 1.387 . S
C524 H528 0.950 . S
C524 C533 1.390 . S
C525 C524 1.387 . S
C525 C527 1.387 . S
H526 C533 0.950 . S
C527 C525 1.387 . S
C527 C529 1.390 . S
C527 H531 0.950 . S
H528 C524 0.950 . S
C529 C527 1.390 . S
C529 C530 1.387 . S
C529 H532 0.950 . S
C530 C529 1.387 . S
C530 C533 1.387 . S
H531 C527 0.950 . S
H532 C529 0.950 . S
C533 C524 1.390 . S
C533 H526 0.950 . S
C533 C530 1.387 . S
C534 C535 1.387 . S
C534 H538 0.950 . S
C534 C543 1.390 . S
C535 C534 1.387 . S
C535 C537 1.387 . S
H536 C543 0.950 . S
C537 C535 1.387 . S
C537 C539 1.390 . S
C537 H541 0.950 . S
H538 C534 0.950 . S
C539 C537 1.390 . S
C539 C540 1.387 . S
C539 H542 0.950 . S
C540 C539 1.387 . S
C540 C543 1.387 . S
H541 C537 0.950 . S
H542 C539 0.950 . S
C543 C534 1.390 . S
C543 H536 0.950 . S
C543 C540 1.387 . S
C544 C545 1.387 . S
C544 H548 0.950 . S
C544 C553 1.390 1_545 S
C545 C544 1.387 . S
C545 C547 1.387 1_545 S
H546 C553 0.950 . S
C547 C545 1.387 1_565 S
C547 C549 1.390 . S
C547 H551 0.950 1_554 S
H548 C544 0.950 . S
C549 C547 1.390 . S
C549 C550 1.387 . S
C549 H552 0.950 . S
C550 C549 1.387 . S
C550 C553 1.387 . S
H551 C547 0.950 1_556 S
H552 C549 0.950 . S
C553 C544 1.390 1_565 S
C553 H546 0.950 . S
C553 C550 1.387 . S
C554 C555 1.387 . S
C554 H558 0.950 1_556 S
C554 C563 1.390 . S
C555 C554 1.387 . S
C555 C557 1.387 . S
H556 C563 0.950 . S
C557 C555 1.387 . S
C557 C559 1.390 . S
C557 H561 0.950 . S
H558 C554 0.950 1_554 S
C559 C557 1.390 . S
C559 C560 1.387 . S
C559 H562 0.950 . S
C560 C559 1.387 . S
C560 C563 1.387 . S
H561 C557 0.950 . S
H562 C559 0.950 . S
C563 C554 1.390 . S
C563 H556 0.950 . S
C563 C560 1.387 . S
C564 C565 1.387 . S
C564 H568 0.950 . S
C564 C573 1.390 . S
C565 C564 1.387 . S
C565 C567 1.387 . S
H566 C573 0.950 . S
C567 C565 1.387 . S
C567 C569 1.390 . S
C567 H571 0.950 . S
H568 C564 0.950 . S
C569 C567 1.390 . S
C569 C570 1.387 . S
C569 H572 0.950 . S
C570 C569 1.387 . S
C570 C573 1.387 . S
H571 C567 0.950 . S
H572 C569 0.950 . S
C573 C564 1.390 . S
C573 H566 0.950 . S
C573 C570 1.387 . S
C574 C575 1.387 . S
C574 H578 0.950 . S
C574 C583 1.390 . S
C575 C574 1.387 . S
C575 C577 1.387 . S
H576 C583 0.950 . S
C577 C575 1.387 . S
C577 C579 1.390 . S
C577 H581 0.950 . S
H578 C574 0.950 . S
C579 C577 1.390 . S
C579 C580 1.387 . S
C579 H582 0.950 . S
C580 C579 1.387 . S
C580 C583 1.387 . S
H581 C577 0.950 . S
H582 C579 0.950 . S
C583 C574 1.390 . S
C583 H576 0.950 . S
C583 C580 1.387 . S
C584 C585 1.387 . S
C584 H588 0.950 . S
C584 C593 1.390 . S
C585 C584 1.387 . S
C585 C587 1.387 . S
H586 C593 0.950 . S
C587 C585 1.387 . S
C587 C589 1.390 . S
C587 H591 0.950 . S
H588 C584 0.950 . S
C589 C587 1.390 . S
C589 C590 1.387 . S
C589 H592 0.950 . S
C590 C589 1.387 . S
C590 C593 1.387 . S
H591 C587 0.950 . S
H592 C589 0.950 . S
C593 C584 1.390 . S
C593 H586 0.950 . S
C593 C590 1.387 . S
C594 C595 1.387 . S
C594 H598 0.950 . S
C594 C603 1.390 . S
C595 C594 1.387 . S
C595 C597 1.387 . S
H596 C603 0.950 . S
C597 C595 1.387 . S
C597 C599 1.390 . S
C597 H601 0.950 . S
H598 C594 0.950 . S
C599 C597 1.390 . S
C599 C600 1.387 . S
C599 H602 0.950 . S
C600 C599 1.387 . S
C600 C603 1.387 . S
H601 C597 0.950 . S
H602 C599 0.950 . S
C603 C594 1.390 . S
C603 H596 0.950 . S
C603 C600 1.387 . S
C604 C605 1.387 . S
C604 H608 0.950 . S
C604 C613 1.390 . S
C605 C604 1.387 . S
C605 C607 1.387 . S
H606 C613 0.950 . S
C607 C605 1.387 . S
C607 C609 1.390 . S
C607 H611 0.950 . S
H608 C604 0.950 . S
C609 C607 1.390 . S
C609 C610 1.387 . S
C609 H612 0.950 . S
C610 C609 1.387 . S
C610 C613 1.387 . S
H611 C607 0.950 . S
H612 C609 0.950 . S
C613 C604 1.390 . S
C613 H606 0.950 . S
C613 C610 1.387 . S
C614 C615 1.387 . S
C614 H618 0.950 . S
C614 C623 1.390 . S
C615 C614 1.387 . S
C615 C617 1.387 . S
H616 C623 0.950 . S
C617 C615 1.387 . S
C617 C619 1.390 . S
C617 H621 0.950 . S
H618 C614 0.950 . S
C619 C617 1.390 . S
C619 C620 1.387 . S
C619 H622 0.950 . S
C620 C619 1.387 . S
C620 C623 1.387 . S
H621 C617 0.950 . S
H622 C619 0.950 . S
C623 C614 1.390 . S
C623 H616 0.950 . S
C623 C620 1.387 . S
C624 C625 1.387 . S
C624 H628 0.950 . S
C624 C633 1.390 . S
C625 C624 1.387 . S
C625 C627 1.387 . S
H626 C633 0.950 . S
C627 C625 1.387 . S
C627 C629 1.390 . S
C627 H631 0.950 . S
H628 C624 0.950 . S
C629 C627 1.390 . S
C629 C630 1.387 . S
C629 H632 0.950 1_565 S
C630 C629 1.387 . S
C630 C633 1.387 . S
H631 C627 0.950 . S
H632 C629 0.950 1_545 S
C633 C624 1.390 . S
C633 H626 0.950 . S
C633 C630 1.387 . S
C634 C635 1.387 . S
C634 H638 0.950 . S
C634 C643 1.390 . S
C635 C634 1.387 . S
C635 C637 1.387 . S
H636 C643 0.950 . S
C637 C635 1.387 . S
C637 C639 1.390 . S
C637 H641 0.950 . S
H638 C634 0.950 . S
C639 C637 1.390 . S
C639 C640 1.387 . S
C639 H642 0.950 . S
C640 C639 1.387 . S
C640 C643 1.387 . S
H641 C637 0.950 . S
H642 C639 0.950 . S
C643 C634 1.390 . S
C643 H636 0.950 . S
C643 C640 1.387 . S
C644 C645 1.387 1_556 S
C644 H648 0.950 1_556 S
C644 C653 1.390 . S
C645 C644 1.387 1_554 S
C645 C647 1.387 . S
H646 C653 0.950 . S
C647 C645 1.387 . S
C647 C649 1.390 1_554 S
C647 H651 0.950 . S
H648 C644 0.950 1_554 S
C649 C647 1.390 1_556 S
C649 C650 1.387 . S
C649 H652 0.950 . S
C650 C649 1.387 . S
C650 C653 1.387 . S
H651 C647 0.950 . S
H652 C649 0.950 . S
C653 C644 1.390 . S
C653 H646 0.950 . S
C653 C650 1.387 . S
C654 C655 1.387 . S
C654 H658 0.950 . S
C654 C663 1.390 . S
C655 C654 1.387 . S
C655 C657 1.387 . S
H656 C663 0.950 . S
C657 C655 1.387 . S
C657 C659 1.390 . S
C657 H661 0.950 . S
H658 C654 0.950 . S
C659 C657 1.390 . S
C659 C660 1.387 . S
C659 H662 0.950 . S
C660 C659 1.387 . S
C660 C663 1.387 . S
H661 C657 0.950 . S
H662 C659 0.950 . S
C663 C654 1.390 . S
C663 H656 0.950 . S
C663 C660 1.387 . S
C664 C665 1.387 . S
C664 H668 0.950 . S
C664 C673 1.390 . S
C665 C664 1.387 . S
C665 C667 1.387 . S
H666 C673 0.950 . S
C667 C665 1.387 . S
C667 C669 1.390 . S
C667 H671 0.950 . S
H668 C664 0.950 . S
C669 C667 1.390 . S
C669 C670 1.387 . S
C669 H672 0.950 . S
C670 C669 1.387 . S
C670 C673 1.387 . S
H671 C667 0.950 . S
H672 C669 0.950 . S
C673 C664 1.390 . S
C673 H666 0.950 . S
C673 C670 1.387 . S
C674 C675 1.387 . S
C674 H678 0.950 . S
C674 C683 1.390 . S
C675 C674 1.387 . S
C675 C677 1.387 . S
H676 C683 0.950 . S
C677 C675 1.387 . S
C677 C679 1.390 . S
C677 H681 0.950 . S
H678 C674 0.950 . S
C679 C677 1.390 . S
C679 C680 1.387 . S
C679 H682 0.950 . S
C680 C679 1.387 . S
C680 C683 1.387 . S
H681 C677 0.950 . S
H682 C679 0.950 . S
C683 C674 1.390 . S
C683 H676 0.950 . S
C683 C680 1.387 . S
C684 C685 1.387 . S
C684 H688 0.950 . S
C684 C693 1.390 . S
C685 C684 1.387 . S
C685 C687 1.387 . S
H686 C693 0.950 . S
C687 C685 1.387 . S
C687 C689 1.390 . S
C687 H691 0.950 . S
H688 C684 0.950 . S
C689 C687 1.390 . S
C689 C690 1.387 . S
C689 H692 0.950 . S
C690 C689 1.387 . S
C690 C693 1.387 . S
H691 C687 0.950 . S
H692 C689 0.950 . S
C693 C684 1.390 . S
C693 H686 0.950 . S
C693 C690 1.387 . S
C694 C695 1.387 . S
C694 H698 0.950 . S
C694 C703 1.390 . S
C695 C694 1.387 . S
C695 C697 1.387 . S
H696 C703 0.950 . S
C697 C695 1.387 . S
C697 C699 1.390 . S
C697 H701 0.950 . S
H698 C694 0.950 . S
C699 C697 1.390 . S
C699 C700 1.387 . S
C699 H702 0.950 . S
C700 C699 1.387 . S
C700 C703 1.387 . S
H701 C697 0.950 . S
H702 C699 0.950 . S
C703 C694 1.390 . S
C703 H696 0.950 . S
C703 C700 1.387 . S
C704 C705 1.387 . S
C704 H708 0.950 . S
C704 C713 1.390 . S
C705 C704 1.387 . S
C705 C707 1.387 . S
H706 C713 0.950 1_554 S
C707 C705 1.387 . S
C707 C709 1.390 . S
C707 H711 0.950 . S
H708 C704 0.950 . S
C709 C707 1.390 . S
C709 C710 1.387 . S
C709 H712 0.950 . S
C710 C709 1.387 . S
C710 C713 1.387 . S
H711 C707 0.950 . S
H712 C709 0.950 . S
C713 C704 1.390 . S
C713 H706 0.950 1_556 S
C713 C710 1.387 . S
C714 C715 1.387 . S
C714 H718 0.950 . S
C714 C723 1.390 . S
C715 C714 1.387 . S
C715 C717 1.387 . S
H716 C723 0.950 . S
C717 C715 1.387 . S
C717 C719 1.390 . S
C717 H721 0.950 . S
H718 C714 0.950 . S
C719 C717 1.390 . S
C719 C720 1.387 . S
C719 H722 0.950 . S
C720 C719 1.387 . S
C720 C723 1.387 . S
H721 C717 0.950 . S
H722 C719 0.950 . S
C723 C714 1.390 . S
C723 H716 0.950 . S
C723 C720 1.387 . S
C724 C725 1.387 . S
C724 H728 0.950 . S
C724 C733 1.390 . S
C725 C724 1.387 . S
C725 C727 1.387 . S
H726 C733 0.950 . S
C727 C725 1.387 . S
C727 C729 1.390 . S
C727 H731 0.950 . S
H728 C724 0.950 . S
C729 C727 1.390 . S
C729 C730 1.387 . S
C729 H732 0.950 . S
C730 C729 1.387 . S
C730 C733 1.387 . S
H731 C727 0.950 . S
H732 C729 0.950 . S
C733 C724 1.390 . S
C733 H726 0.950 . S
C733 C730 1.387 . S
C734 C735 1.387 . S
C734 H738 0.950 . S
C734 C743 1.390 . S
C735 C734 1.387 . S
C735 C737 1.387 . S
H736 C743 0.950 . S
C737 C735 1.387 . S
C737 C739 1.390 . S
C737 H741 0.950 . S
H738 C734 0.950 . S
C739 C737 1.390 . S
C739 C740 1.387 . S
C739 H742 0.950 . S
C740 C739 1.387 . S
C740 C743 1.387 . S
H741 C737 0.950 . S
H742 C739 0.950 . S
C743 C734 1.390 . S
C743 H736 0.950 . S
C743 C740 1.387 . S
C744 C745 1.387 . S
C744 H748 0.950 . S
C744 C753 1.390 . S
C745 C744 1.387 . S
C745 C747 1.387 . S
H746 C753 0.950 . S
C747 C745 1.387 . S
C747 C749 1.390 . S
C747 H751 0.950 . S
H748 C744 0.950 . S
C749 C747 1.390 . S
C749 C750 1.387 . S
C749 H752 0.950 . S
C750 C749 1.387 . S
C750 C753 1.387 . S
H751 C747 0.950 . S
H752 C749 0.950 . S
C753 C744 1.390 . S
C753 H746 0.950 . S
C753 C750 1.387 . S
C754 C755 1.387 . S
C754 H758 0.950 . S
C754 C763 1.390 . S
C755 C754 1.387 . S
C755 C757 1.387 . S
H756 C763 0.950 . S
C757 C755 1.387 . S
C757 C759 1.390 . S
C757 H761 0.950 . S
H758 C754 0.950 . S
C759 C757 1.390 . S
C759 C760 1.387 . S
C759 H762 0.950 . S
C760 C759 1.387 . S
C760 C763 1.387 . S
H761 C757 0.950 . S
H762 C759 0.950 . S
C763 C754 1.390 . S
C763 H756 0.950 . S
C763 C760 1.387 . S
C764 C765 1.387 . S
C764 H768 0.950 . S
C764 C773 1.390 . S
C765 C764 1.387 . S
C765 C767 1.387 . S
H766 C773 0.950 . S
C767 C765 1.387 . S
C767 C769 1.390 . S
C767 H771 0.950 . S
H768 C764 0.950 . S
C769 C767 1.390 . S
C769 C770 1.387 . S
C769 H772 0.950 . S
C770 C769 1.387 . S
C770 C773 1.387 . S
H771 C767 0.950 . S
H772 C769 0.950 . S
C773 C764 1.390 . S
C773 H766 0.950 . S
C773 C770 1.387 . S
C774 C775 1.387 . S
C774 H778 0.950 . S
C774 C783 1.390 . S
C775 C774 1.387 . S
C775 C777 1.387 . S
H776 C783 0.950 . S
C777 C775 1.387 . S
C777 C779 1.390 . S
C777 H781 0.950 . S
H778 C774 0.950 . S
C779 C777 1.390 . S
C779 C780 1.387 . S
C779 H782 0.950 . S
C780 C779 1.387 . S
C780 C783 1.387 . S
H781 C777 0.950 . S
H782 C779 0.950 . S
C783 C774 1.390 . S
C783 H776 0.950 . S
C783 C780 1.387 . S
C784 C785 1.387 . S
C784 H788 0.950 . S
C784 C793 1.390 . S
C785 C784 1.387 . S
C785 C787 1.387 . S
H786 C793 0.950 . S
C787 C785 1.387 . S
C787 C789 1.390 . S
C787 H791 0.950 . S
H788 C784 0.950 . S
C789 C787 1.390 . S
C789 C790 1.387 . S
C789 H792 0.950 . S
C790 C789 1.387 . S
C790 C793 1.387 . S
H791 C787 0.950 . S
H792 C789 0.950 . S
C793 C784 1.390 . S
C793 H786 0.950 . S
C793 C790 1.387 . S
C794 C795 1.387 . S
C794 H798 0.950 . S
C794 C803 1.390 . S
C795 C794 1.387 . S
C795 C797 1.387 . S
H796 C803 0.950 . S
C797 C795 1.387 . S
C797 C799 1.390 . S
C797 H801 0.960 . S
H798 C794 0.950 . S
C799 C797 1.390 . S
C799 C800 1.387 . S
C799 H802 0.950 . S
C800 C799 1.387 . S
C800 C803 1.387 . S
H801 C797 0.960 . S
H802 C799 0.950 . S
C803 C794 1.390 . S
C803 H796 0.950 . S
C803 C800 1.387 . S
C804 C805 1.387 . S
C804 H808 0.950 . S
C804 C813 1.390 . S
C805 C804 1.387 . S
C805 C807 1.387 . S
H806 C813 0.950 . S
C807 C805 1.387 . S
C807 C809 1.390 . S
C807 H811 0.950 . S
H808 C804 0.950 . S
C809 C807 1.390 . S
C809 C810 1.387 . S
C809 H812 0.950 . S
C810 C809 1.387 . S
C810 C813 1.387 . S
H811 C807 0.950 . S
H812 C809 0.950 . S
C813 C804 1.390 . S
C813 H806 0.950 . S
C813 C810 1.387 . S
C814 C815 1.387 1_565 S
C814 H818 0.950 1_556 S
C814 C823 1.390 . S
C815 C814 1.387 1_545 S
C815 C817 1.387 . S
H816 C823 0.950 . S
C817 C815 1.387 . S
C817 C819 1.390 1_545 S
C817 H821 0.950 . S
H818 C814 0.950 1_554 S
C819 C817 1.390 1_565 S
C819 C820 1.387 . S
C819 H822 0.950 . S
C820 C819 1.387 . S
C820 C823 1.387 . S
H821 C817 0.950 . S
H822 C819 0.950 . S
C823 C814 1.390 . S
C823 H816 0.950 . S
C823 C820 1.387 . S
C824 C825 1.387 . S
C824 H828 0.950 . S
C824 C833 1.390 . S
C825 C824 1.387 . S
C825 C827 1.387 . S
H826 C833 0.950 . S
C827 C825 1.387 . S
C827 C829 1.390 . S
C827 H831 0.950 . S
H828 C824 0.950 . S
C829 C827 1.390 . S
C829 C830 1.387 . S
C829 H832 0.950 . S
C830 C829 1.387 . S
C830 C833 1.387 . S
H831 C827 0.950 . S
H832 C829 0.950 . S
C833 C824 1.390 . S
C833 H826 0.950 . S
C833 C830 1.387 . S
C834 C835 1.387 . S
C834 H838 0.950 . S
C834 C843 1.390 . S
C835 C834 1.387 . S
C835 C837 1.387 . S
H836 C843 0.950 . S
C837 C835 1.387 . S
C837 C839 1.390 . S
C837 H841 0.950 . S
H838 C834 0.950 . S
C839 C837 1.390 . S
C839 C840 1.387 . S
C839 H842 0.950 . S
C840 C839 1.387 . S
C840 C843 1.387 . S
H841 C837 0.950 . S
H842 C839 0.950 . S
C843 C834 1.390 . S
C843 H836 0.950 . S
C843 C840 1.387 . S
C844 C845 1.387 . S
C844 H848 0.950 . S
C844 C853 1.390 . S
C845 C844 1.387 . S
C845 C847 1.387 . S
H846 C853 0.950 . S
C847 C845 1.387 . S
C847 C849 1.390 . S
C847 H851 0.950 . S
H848 C844 0.950 . S
C849 C847 1.390 . S
C849 C850 1.387 . S
C849 H852 0.950 . S
C850 C849 1.387 . S
C850 C853 1.387 . S
H851 C847 0.950 . S
H852 C849 0.950 . S
C853 C844 1.390 . S
C853 H846 0.950 . S
C853 C850 1.387 . S
C854 C855 1.387 . S
C854 H858 0.950 . S
C854 C863 1.390 . S
C855 C854 1.387 . S
C855 C857 1.387 . S
H856 C863 0.950 . S
C857 C855 1.387 . S
C857 C859 1.390 . S
C857 H861 0.950 . S
H858 C854 0.950 . S
C859 C857 1.390 . S
C859 C860 1.387 . S
C859 H862 0.950 . S
C860 C859 1.387 . S
C860 C863 1.387 . S
H861 C857 0.950 . S
H862 C859 0.950 . S
C863 C854 1.390 . S
C863 H856 0.950 . S
C863 C860 1.387 . S
C390 C373 1.331 . S
C385 C8 1.385 . S
C395 C23 1.381 . S
C400 C326 1.219 . S
C405 C35 1.426 . S
C410 C337 1.349 . S
C420 C362 1.156 . S
C415 C45 1.400 . S
C425 C22 1.445 . S
C430 C380 1.360 . S
C440 C319 1.180 . S
C435 C31 1.327 . S
C450 C344 1.338 . S
C445 C49 1.490 1_554 S
C460 C355 1.209 . S
C455 C9 1.340 . S
C465 C65 1.355 . S
C470 C356 1.381 . S
C480 C382 1.186 . S
C475 C73 1.378 . S
C490 C320 1.425 . S
C485 C93 1.385 . S
C500 C346 1.135 . S
C495 C101 1.378 . S
C505 C59 1.374 . S
C510 C328 1.310 . S
C515 C79 1.363 . S
C520 C338 1.234 . S
C525 C87 1.380 . S
C530 C364 1.303 . S
C540 C374 1.324 . S
C535 C107 1.410 . S
C550 C211 1.450 . S
C545 C106 1.489 . S
C560 C194 1.325 . S
C555 C119 1.414 . S
C570 C220 1.291 . S
C565 C134 1.409 . S
C580 C238 1.294 . S
C575 C147 1.410 . S
C585 C64 1.372 . S
C590 C212 1.243 . S
C595 C78 1.434 1_545 S
C600 C182 1.354 . S
C605 C133 1.500 . S
C610 C236 1.145 . S
C615 C161 1.456 . S
C620 C193 1.176 . S
C630 C247 1.334 . S
C625 C36 1.386 . S
C640 C272 1.218 . S
C635 C51 1.376 . S
C645 C7 1.426 . S
C650 C283 1.353 . S
C655 C17 1.396 . S
C660 C308 1.154 . S
C670 C254 1.356 . S
C665 C50 1.445 1_554 S
C680 C265 1.179 . S
C675 C3 1.323 . S
C685 C21 1.490 . S
C690 C290 1.338 . S
C700 C301 1.209 . S
C695 C37 1.339 . S
C705 C163 1.353 . S
C710 C302 1.377 . S
C715 C115 1.377 . S
C720 C256 1.189 . S
C730 C266 1.429 . S
C725 C135 1.385 1_455 S
C735 C143 1.380 . S
C740 C292 1.136 . S
C750 C274 1.310 . S
C745 C157 1.374 . S
C755 C121 1.361 . S
C760 C284 1.234 . S
C770 C310 1.307 . S
C765 C129 1.382 1_455 S
C780 C248 1.323 . S
C775 C149 1.409 . S
C790 C175 1.451 . S
C785 C148 1.490 . S
C800 C230 1.324 . S
C795 C77 1.414 1_545 S
C805 C92 1.409 . S
C810 C184 1.289 . S
C820 C202 1.296 . S
C815 C105 1.411 . S
C830 C176 1.243 . S
C825 C162 1.373 . S
C835 C120 1.432 . S
C840 C218 1.350 . S
C845 C91 1.502 . S
C850 C200 1.149 . S
C855 C63 1.454 . S
C860 C229 1.171 . S
