# Generated by pormake.
# Topology apo, (3,6)-cn, num edge types: 1
# Building blocks:
#     Node 0, Type 0, BuildingBlock: VETTIZ_charged_linker_0, # of connection points: 3
#     Node 1, Type 0, BuildingBlock: VETTIZ_charged_linker_0, # of connection points: 3
#     Node 2, Type 0, BuildingBlock: VETTIZ_charged_linker_0, # of connection points: 3
#     Node 3, Type 0, BuildingBlock: VETTIZ_charged_linker_0, # of connection points: 3
#     Node 4, Type 0, BuildingBlock: VETTIZ_charged_linker_0, # of connection points: 3
#     Node 5, Type 0, BuildingBlock: VETTIZ_charged_linker_0, # of connection points: 3
#     Node 6, Type 0, BuildingBlock: VETTIZ_charged_linker_0, # of connection points: 3
#     Node 7, Type 0, BuildingBlock: VETTIZ_charged_linker_0, # of connection points: 3
#     Node 8, Type 1, BuildingBlock: MIDCAF_clean_sbu_0, # of connection points: 6
#     Node 9, Type 1, BuildingBlock: MIDCAF_clean_sbu_0, # of connection points: 6
#     Node 10, Type 1, BuildingBlock: MIDCAF_clean_sbu_0, # of connection points: 6
#     Node 11, Type 1, BuildingBlock: MIDCAF_clean_sbu_0, # of connection points: 6
#     Edge 12, Type (0, 1), BuildingBlock: UVAHIK_clean_linker_0, # of connection points: 2
#     Edge 13, Type (0, 1), BuildingBlock: UVAHIK_clean_linker_0, # of connection points: 2
#     Edge 14, Type (0, 1), BuildingBlock: UVAHIK_clean_linker_0, # of connection points: 2
#     Edge 15, Type (0, 1), BuildingBlock: UVAHIK_clean_linker_0, # of connection points: 2
#     Edge 16, Type (0, 1), BuildingBlock: UVAHIK_clean_linker_0, # of connection points: 2
#     Edge 17, Type (0, 1), BuildingBlock: UVAHIK_clean_linker_0, # of connection points: 2
#     Edge 18, Type (0, 1), BuildingBlock: UVAHIK_clean_linker_0, # of connection points: 2
#     Edge 19, Type (0, 1), BuildingBlock: UVAHIK_clean_linker_0, # of connection points: 2
#     Edge 20, Type (0, 1), BuildingBlock: UVAHIK_clean_linker_0, # of connection points: 2
#     Edge 21, Type (0, 1), BuildingBlock: UVAHIK_clean_linker_0, # of connection points: 2
#     Edge 22, Type (0, 1), BuildingBlock: UVAHIK_clean_linker_0, # of connection points: 2
#     Edge 23, Type (0, 1), BuildingBlock: UVAHIK_clean_linker_0, # of connection points: 2
#     Edge 24, Type (0, 1), BuildingBlock: UVAHIK_clean_linker_0, # of connection points: 2
#     Edge 25, Type (0, 1), BuildingBlock: UVAHIK_clean_linker_0, # of connection points: 2
#     Edge 26, Type (0, 1), BuildingBlock: UVAHIK_clean_linker_0, # of connection points: 2
#     Edge 27, Type (0, 1), BuildingBlock: UVAHIK_clean_linker_0, # of connection points: 2
#     Edge 28, Type (0, 1), BuildingBlock: UVAHIK_clean_linker_0, # of connection points: 2
#     Edge 29, Type (0, 1), BuildingBlock: UVAHIK_clean_linker_0, # of connection points: 2
#     Edge 30, Type (0, 1), BuildingBlock: UVAHIK_clean_linker_0, # of connection points: 2
#     Edge 31, Type (0, 1), BuildingBlock: UVAHIK_clean_linker_0, # of connection points: 2
#     Edge 32, Type (0, 1), BuildingBlock: UVAHIK_clean_linker_0, # of connection points: 2
#     Edge 33, Type (0, 1), BuildingBlock: UVAHIK_clean_linker_0, # of connection points: 2
#     Edge 34, Type (0, 1), BuildingBlock: UVAHIK_clean_linker_0, # of connection points: 2
#     Edge 35, Type (0, 1), BuildingBlock: UVAHIK_clean_linker_0, # of connection points: 2
# Relax obj value: 0.090
# Max RMSD: 0.101
# Mean RMSD: 0.093
data_MOF--net-apo--node1-MIDCAF_clean_sbu_0--node2-VETTIZ_charged_linker_0--edge1-UVAHIK_clean_linker_0
_symmetry_space_group_name_H-M    P1
_symmetry_Int_Tables_number       1
_symmetry_cell_setting            triclinic
loop_
_symmetry_equiv_pos_as_xyz
'x, y, z'
_cell_length_a     52.136653
_cell_length_b     62.331614
_cell_length_c     56.092811
_cell_angle_alpha  89.864839
_cell_angle_beta   90.125013
_cell_angle_gamma 90.207766
loop_
_atom_site_label
_atom_site_type_symbol
_atom_site_fract_x
_atom_site_fract_y
_atom_site_fract_z
_atom_type_partial_charge
C0 C 0.34028 0.35462 0.45744 0.0
C1 C 0.35883 0.36765 0.46881 0.0
C2 C 0.37533 0.38021 0.45446 0.0
C3 C 0.35365 0.36816 0.41871 0.0
C4 C 0.33818 0.35502 0.43244 0.0
C5 C 0.32011 0.34184 0.41729 0.0
H6 H 0.26885 0.32194 0.308 0.0
C7 C 0.34601 0.36568 0.3935 0.0
C8 C 0.32646 0.35015 0.39243 0.0
H9 H 0.25326 0.28827 0.37377 0.0
H10 H 0.2842 0.31068 0.39455 0.0
H11 H 0.27215 0.36907 0.3297 0.0
H12 H 0.32976 0.32179 0.31468 0.0
H13 H 0.34228 0.34676 0.30586 0.0
H14 H 0.31365 0.33661 0.29167 0.0
H15 H 0.28263 0.36342 0.29993 0.0
H16 H 0.29878 0.38299 0.31834 0.0
C17 C 0.29228 0.34725 0.42455 0.0
C18 C 0.32714 0.31785 0.4203 0.0
C19 C 0.38577 0.41435 0.33066 0.0
C20 C 0.38043 0.41773 0.30637 0.0
C21 C 0.36163 0.40499 0.29512 0.0
C22 C 0.34821 0.38921 0.30791 0.0
C23 C 0.35342 0.38626 0.33231 0.0
C24 C 0.37193 0.39874 0.34327 0.0
C25 C 0.374 0.39415 0.36954 0.0
C26 C 0.35387 0.37668 0.37251 0.0
C27 C 0.34199 0.37208 0.35064 0.0
C28 C 0.36681 0.41492 0.38311 0.0
C29 C 0.4014 0.38575 0.37477 0.0
C30 C 0.27205 0.3195 0.32691 0.0
C31 C 0.25856 0.30354 0.33938 0.0
C32 C 0.26353 0.30051 0.36387 0.0
C33 C 0.28143 0.31353 0.37586 0.0
C34 C 0.29475 0.32952 0.36313 0.0
C35 C 0.29018 0.33204 0.33898 0.0
C36 C 0.30694 0.349 0.32798 0.0
C37 C 0.32241 0.35625 0.34943 0.0
C38 C 0.31493 0.34508 0.3701 0.0
C39 C 0.2894 0.36708 0.31827 0.0
C40 C 0.32401 0.33818 0.3089 0.0
H41 H 0.38583 0.39065 0.41995 0.0
H42 H 0.32742 0.34456 0.4677 0.0
H43 H 0.34784 0.31585 0.42463 0.0
H44 H 0.32429 0.30857 0.40372 0.0
H45 H 0.31594 0.31028 0.43492 0.0
H46 H 0.28976 0.36492 0.4259 0.0
H47 H 0.28754 0.3401 0.44216 0.0
H48 H 0.27793 0.34168 0.41147 0.0
H49 H 0.39978 0.42419 0.33988 0.0
H50 H 0.35725 0.40732 0.2764 0.0
H51 H 0.33406 0.3801 0.29834 0.0
H52 H 0.35096 0.42351 0.37386 0.0
H53 H 0.38342 0.42608 0.38422 0.0
H54 H 0.3595 0.4119 0.40125 0.0
H55 H 0.40904 0.37658 0.35936 0.0
H56 H 0.40197 0.37429 0.38984 0.0
H57 H 0.41492 0.39917 0.37837 0.0
H58 H 0.39051 0.38973 0.46237 0.0
C59 C 0.37277 0.38059 0.42965 0.0
C60 C 0.26854 0.16536 0.85787 0.0
C61 C 0.28855 0.17726 0.86832 0.0
C62 C 0.28627 0.18357 0.89236 0.0
C63 C 0.24475 0.16598 0.89508 0.0
C64 C 0.24701 0.15988 0.87149 0.0
C65 C 0.22451 0.14675 0.86313 0.0
H66 H 0.11616 0.09213 0.88973 0.0
C67 C 0.22027 0.15718 0.9043 0.0
C68 C 0.20839 0.14587 0.88558 0.0
H69 H 0.15429 0.09633 0.8216 0.0
H70 H 0.18481 0.12179 0.83793 0.0
H71 H 0.16528 0.0896 0.92156 0.0
H72 H 0.11827 0.14269 0.9002 0.0
H73 H 0.12815 0.14842 0.92942 0.0
H74 H 0.109 0.12476 0.92372 0.0
H75 H 0.13381 0.09418 0.93334 0.0
H76 H 0.16193 0.106 0.94674 0.0
C77 C 0.23454 0.12431 0.85591 0.0
C78 C 0.21086 0.15916 0.8428 0.0
C79 C 0.19421 0.16848 0.99119 0.0
C80 C 0.17344 0.16057 0.00464 0.0
C81 C 0.15461 0.14792 0.99332 0.0
C82 C 0.15649 0.14289 0.96914 0.0
C83 C 0.17759 0.15036 0.956 0.0
C84 C 0.196 0.16302 0.96692 0.0
C85 C 0.2174 0.16886 0.94999 0.0
C86 C 0.20849 0.15789 0.92717 0.0
C87 C 0.18519 0.14708 0.93094 0.0
C88 C 0.24261 0.15907 0.95974 0.0
C89 C 0.21803 0.19356 0.94729 0.0
C90 C 0.13106 0.09863 0.87834 0.0
C91 C 0.13313 0.09209 0.85449 0.0
C92 C 0.1524 0.10117 0.84005 0.0
C93 C 0.17018 0.1158 0.84963 0.0
C94 C 0.16857 0.12144 0.87387 0.0
C95 C 0.14878 0.11332 0.88757 0.0
C96 C 0.1495 0.12148 0.91274 0.0
C97 C 0.17346 0.13536 0.91215 0.0
C98 C 0.18473 0.13508 0.88947 0.0
C99 C 0.15261 0.10192 0.92965 0.0
C100 C 0.12496 0.13493 0.91698 0.0
H101 H 0.26382 0.18341 0.92391 0.0
H102 H 0.26978 0.16005 0.83953 0.0
H103 H 0.21234 0.1768 0.84555 0.0
H104 H 0.19003 0.15586 0.84204 0.0
H105 H 0.21953 0.15548 0.82521 0.0
H106 H 0.24953 0.11872 0.86861 0.0
H107 H 0.2432 0.12473 0.83783 0.0
H108 H 0.21962 0.11175 0.85632 0.0
H109 H 0.20903 0.17813 0.99953 0.0
H110 H 0.13833 0.14187 1.00329 0.0
H111 H 0.14155 0.13308 0.96174 0.0
H112 H 0.23889 0.1434 0.96864 0.0
H113 H 0.25177 0.16984 0.97303 0.0
H114 H 0.25658 0.1554 0.94558 0.0
H115 H 0.19822 0.20005 0.94592 0.0
H116 H 0.22786 0.19894 0.93092 0.0
H117 H 0.22742 0.20119 0.96294 0.0
H118 H 0.30125 0.19299 0.90076 0.0
C119 C 0.26446 0.17807 0.90575 0.0
C120 C 0.81464 0.15963 0.51498 0.0
C121 C 0.8351 0.15058 0.50226 0.0
C122 C 0.85142 0.13591 0.51391 0.0
C123 C 0.82736 0.13999 0.55058 0.0
C124 C 0.81101 0.15399 0.53896 0.0
C125 C 0.78961 0.16148 0.5548 0.0
H126 H 0.72997 0.15844 0.66187 0.0
C127 C 0.8186 0.13791 0.57557 0.0
C128 C 0.7964 0.15038 0.57809 0.0
H129 H 0.70528 0.18993 0.59702 0.0
H130 H 0.74373 0.17855 0.57713 0.0
H131 H 0.75197 0.11484 0.63653 0.0
H132 H 0.78751 0.17382 0.65915 0.0
H133 H 0.81091 0.15383 0.66238 0.0
H134 H 0.78177 0.15227 0.67971 0.0
H135 H 0.754 0.12352 0.66701 0.0
H136 H 0.77972 0.109 0.65338 0.0
C137 C 0.76387 0.1532 0.54424 0.0
C138 C 0.79149 0.1862 0.557 0.0
C139 C 0.8679 0.09107 0.63421 0.0
C140 C 0.86556 0.0873 0.65893 0.0
C141 C 0.84642 0.09854 0.67157 0.0
C142 C 0.82939 0.11233 0.65979 0.0
C143 C 0.83154 0.11529 0.63506 0.0
C144 C 0.85105 0.10527 0.62281 0.0
C145 C 0.85158 0.11165 0.5969 0.0
C146 C 0.82872 0.12665 0.59554 0.0
C147 C 0.81678 0.12839 0.61788 0.0
C148 C 0.84744 0.09125 0.58164 0.0
C149 C 0.87722 0.12354 0.5921 0.0
C150 C 0.73294 0.16297 0.64343 0.0
C151 C 0.71432 0.17484 0.63093 0.0
C152 C 0.71899 0.18039 0.60692 0.0
C153 C 0.74141 0.17383 0.5954 0.0
C154 C 0.75949 0.1615 0.6079 0.0
C155 C 0.75525 0.15642 0.63157 0.0
C156 C 0.77664 0.14313 0.64192 0.0
C157 C 0.79388 0.14047 0.62029 0.0
C158 C 0.78376 0.15136 0.60048 0.0
C159 C 0.76515 0.12147 0.65032 0.0
C160 C 0.7899 0.15626 0.66195 0.0
H161 H 0.86089 0.11947 0.54587 0.0
H162 H 0.80154 0.17066 0.50637 0.0
H163 H 0.81182 0.19133 0.55919 0.0
H164 H 0.78139 0.1925 0.57276 0.0
H165 H 0.7838 0.19421 0.54079 0.0
H166 H 0.76666 0.13842 0.53347 0.0
H167 H 0.75492 0.1654 0.53243 0.0
H168 H 0.74998 0.1484 0.55815 0.0
H169 H 0.88219 0.08286 0.62368 0.0
H170 H 0.84451 0.09675 0.69068 0.0
H171 H 0.81512 0.12012 0.6704 0.0
H172 H 0.83332 0.08028 0.59024 0.0
H173 H 0.86564 0.08227 0.57945 0.0
H174 H 0.83932 0.09474 0.56387 0.0
H175 H 0.88305 0.13331 0.6078 0.0
H176 H 0.87597 0.13515 0.57726 0.0
H177 H 0.89292 0.11202 0.58843 0.0
H178 H 0.86737 0.12881 0.50448 0.0
C179 C 0.84772 0.13063 0.53799 0.0
C180 C 0.7444 0.33588 0.15364 0.0
C181 C 0.75628 0.31832 0.14244 0.0
C182 C 0.74975 0.31363 0.11857 0.0
C183 C 0.72123 0.34417 0.11708 0.0
C184 C 0.72699 0.34852 0.14067 0.0
C185 C 0.71293 0.36798 0.14962 0.0
H186 H 0.628 0.448 0.1277 0.0
C187 C 0.70314 0.36066 0.10841 0.0
C188 C 0.69808 0.37465 0.12747 0.0
H189 H 0.66875 0.43571 0.19337 0.0
H190 H 0.6902 0.40536 0.17514 0.0
H191 H 0.67456 0.44372 0.09572 0.0
H192 H 0.61564 0.39836 0.1138 0.0
H193 H 0.62071 0.39653 0.08288 0.0
H194 H 0.61056 0.42164 0.09551 0.0
H195 H 0.64446 0.44327 0.08024 0.0
H196 H 0.67141 0.42745 0.07044 0.0
C197 C 0.73298 0.38511 0.15703 0.0
C198 C 0.69491 0.36073 0.17002 0.0
C199 C 0.67237 0.36006 0.0219 0.0
C200 C 0.65622 0.37392 0.00888 0.0
C201 C 0.64543 0.39174 0.0205 0.0
C202 C 0.65035 0.39566 0.0446 0.0
C203 C 0.66637 0.3817 0.05742 0.0
C204 C 0.67731 0.36436 0.04606 0.0
C205 C 0.6943 0.35164 0.06262 0.0
C206 C 0.69164 0.36423 0.08571 0.0
C207 C 0.67507 0.38166 0.08249 0.0
C208 C 0.722 0.35257 0.05273 0.0
C209 C 0.68303 0.32869 0.06485 0.0
C210 C 0.64125 0.43855 0.13826 0.0
C211 C 0.6464 0.44391 0.16206 0.0
C212 C 0.66441 0.43172 0.17501 0.0
C213 C 0.67676 0.41413 0.1644 0.0
C214 C 0.67127 0.40892 0.1405 0.0
C215 C 0.65395 0.42127 0.12787 0.0
C216 C 0.65133 0.4144 0.10239 0.0
C217 C 0.66942 0.39545 0.10182 0.0
C218 C 0.68097 0.39213 0.12417 0.0
C219 C 0.66071 0.43311 0.08622 0.0
C220 C 0.6231 0.40746 0.09818 0.0
H221 H 0.72844 0.322 0.08778 0.0
H222 H 0.74899 0.34001 0.17191 0.0
H223 H 0.68551 0.34519 0.16557 0.0
H224 H 0.67904 0.37202 0.17319 0.0
H225 H 0.70575 0.35849 0.1869 0.0
H226 H 0.74982 0.38485 0.14488 0.0
H227 H 0.74007 0.38219 0.17543 0.0
H228 H 0.72553 0.40164 0.1558 0.0
H229 H 0.68103 0.34627 0.01345 0.0
H230 H 0.63257 0.40242 0.01105 0.0
H231 H 0.64123 0.40935 0.05234 0.0
H232 H 0.72627 0.3687 0.04515 0.0
H233 H 0.72474 0.34061 0.03832 0.0
H234 H 0.73678 0.35007 0.06656 0.0
H235 H 0.6617 0.32901 0.0642 0.0
H236 H 0.68766 0.32096 0.08206 0.0
H237 H 0.68971 0.31828 0.05008 0.0
H238 H 0.75806 0.29994 0.10962 0.0
C239 C 0.7324 0.32641 0.10589 0.0
C240 C 0.66229 0.57828 0.67764 0.0
C241 C 0.64457 0.56302 0.66932 0.0
C242 C 0.63376 0.5656 0.64645 0.0
C243 C 0.65873 0.59809 0.64041 0.0
C244 C 0.66883 0.59572 0.66307 0.0
C245 C 0.68655 0.61381 0.66966 0.0
H246 H 0.74685 0.70629 0.64044 0.0
C247 C 0.66962 0.61797 0.62995 0.0
C248 C 0.68566 0.62736 0.64715 0.0
H249 H 0.74959 0.67121 0.70707 0.0
H250 H 0.72062 0.64479 0.6913 0.0
H251 H 0.74831 0.66394 0.6056 0.0
H252 H 0.68594 0.70178 0.63307 0.0
H253 H 0.67844 0.695 0.60349 0.0
H254 H 0.70629 0.71141 0.60957 0.0
H255 H 0.74289 0.69128 0.5968 0.0
H256 H 0.72665 0.66939 0.58224 0.0
C257 C 0.71358 0.60428 0.67407 0.0
C258 C 0.67492 0.6257 0.69137 0.0
C259 C 0.64891 0.63823 0.54413 0.0
C260 C 0.65525 0.65604 0.52987 0.0
C261 C 0.67066 0.67246 0.5396 0.0
C262 C 0.67994 0.67103 0.56307 0.0
C263 C 0.67352 0.65309 0.57713 0.0
C264 C 0.65797 0.6372 0.56768 0.0
C265 C 0.65185 0.61994 0.58561 0.0
C266 C 0.66688 0.62774 0.60716 0.0
C267 C 0.67972 0.6471 0.60207 0.0
C268 C 0.66232 0.59842 0.57603 0.0
C269 C 0.62251 0.62 0.59016 0.0
C270 C 0.74104 0.69299 0.65168 0.0
C271 C 0.75079 0.69082 0.67504 0.0
C272 C 0.74284 0.67313 0.68892 0.0
C273 C 0.72581 0.65782 0.67976 0.0
C274 C 0.71643 0.66009 0.6564 0.0
C275 C 0.72395 0.67747 0.64276 0.0
C276 C 0.71175 0.67718 0.61834 0.0
C277 C 0.69574 0.65675 0.61966 0.0
C278 C 0.69866 0.64686 0.64202 0.0
C279 C 0.7334 0.67549 0.5996 0.0
C280 C 0.69482 0.69742 0.61573 0.0
H281 H 0.63217 0.58396 0.61457 0.0
H282 H 0.6706 0.57684 0.69529 0.0
H283 H 0.65361 0.62464 0.69132 0.0
H284 H 0.67905 0.64311 0.6912 0.0
H285 H 0.6818 0.61871 0.70845 0.0
H286 H 0.71763 0.59116 0.66121 0.0
H287 H 0.71517 0.59746 0.69232 0.0
H288 H 0.7292 0.61603 0.67135 0.0
H289 H 0.63664 0.6256 0.53727 0.0
H290 H 0.67571 0.68634 0.52891 0.0
H291 H 0.6917 0.68399 0.5694 0.0
H292 H 0.68191 0.60065 0.56858 0.0
H293 H 0.64984 0.59205 0.56159 0.0
H294 H 0.66423 0.58602 0.58997 0.0
H295 H 0.61422 0.63622 0.58722 0.0
H296 H 0.6176 0.61603 0.60883 0.0
H297 H 0.61239 0.60871 0.57805 0.0
H298 H 0.62012 0.55395 0.63969 0.0
C299 C 0.64084 0.58299 0.6319 0.0
C300 C 0.77759 0.80277 0.17232 0.0
C301 C 0.76362 0.78546 0.16285 0.0
C302 C 0.76822 0.77916 0.13911 0.0
C303 C 0.79943 0.80792 0.13449 0.0
C304 C 0.79533 0.81361 0.15798 0.0
C305 C 0.81171 0.83223 0.16562 0.0
H306 H 0.90038 0.90798 0.13954 0.0
C307 C 0.81873 0.82296 0.12446 0.0
C308 C 0.82607 0.83709 0.14276 0.0
H309 H 0.8623 0.89615 0.20671 0.0
H310 H 0.83889 0.8667 0.18936 0.0
H311 H 0.90959 0.8571 0.12574 0.0
H312 H 0.85139 0.90323 0.10802 0.0
H313 H 0.85528 0.88717 0.08267 0.0
H314 H 0.88192 0.90311 0.09334 0.0
H315 H 0.9152 0.87988 0.10678 0.0
H316 H 0.90306 0.85495 0.09504 0.0
C317 C 0.82991 0.82439 0.18572 0.0
C318 C 0.79371 0.85088 0.17282 0.0
C319 C 0.84432 0.81881 0.0368 0.0
C320 C 0.86119 0.83112 0.02265 0.0
C321 C 0.87447 0.8484 0.03333 0.0
C322 C 0.87138 0.85315 0.05752 0.0
C323 C 0.8547 0.84063 0.07143 0.0
C324 C 0.84137 0.82385 0.06106 0.0
C325 C 0.82421 0.81253 0.07872 0.0
C326 C 0.82941 0.82537 0.10127 0.0
C327 C 0.84741 0.84175 0.09685 0.0
C328 C 0.83332 0.78902 0.08113 0.0
C329 C 0.79615 0.81491 0.0701 0.0
C330 C 0.88721 0.89883 0.15053 0.0
C331 C 0.88319 0.90436 0.17455 0.0
C332 C 0.86556 0.89231 0.18814 0.0
C333 C 0.85204 0.87515 0.17802 0.0
C334 C 0.85599 0.86995 0.15395 0.0
C335 C 0.87333 0.8817 0.1406 0.0
C336 C 0.87442 0.87415 0.11512 0.0
C337 C 0.85517 0.85576 0.11553 0.0
C338 C 0.84451 0.85341 0.13832 0.0
C339 C 0.902 0.86619 0.11017 0.0
C340 C 0.8655 0.89281 0.09878 0.0
H341 H 0.78844 0.78495 0.10685 0.0
H342 H 0.77483 0.80776 0.19062 0.0
H343 H 0.77632 0.85123 0.16128 0.0
H344 H 0.80259 0.86685 0.17051 0.0
H345 H 0.7872 0.84911 0.19156 0.0
H346 H 0.83517 0.80726 0.18318 0.0
H347 H 0.82071 0.8258 0.20349 0.0
H348 H 0.84845 0.83302 0.18597 0.0
H349 H 0.83391 0.80535 0.02929 0.0
H350 H 0.88714 0.85849 0.02287 0.0
H351 H 0.88209 0.86648 0.06444 0.0
H352 H 0.85459 0.78804 0.07998 0.0
H353 H 0.82517 0.77886 0.06672 0.0
H354 H 0.82849 0.78184 0.09857 0.0
H355 H 0.79271 0.83138 0.06311 0.0
H356 H 0.782 0.81268 0.08449 0.0
H357 H 0.79178 0.8034 0.05554 0.0
H358 H 0.75764 0.76588 0.13141 0.0
C359 C 0.78599 0.79033 0.12486 0.0
C360 C 0.12589 0.90713 0.36922 0.0
C361 C 0.10486 0.91685 0.38042 0.0
C362 C 0.09686 0.90919 0.40287 0.0
C363 C 0.13238 0.8841 0.40366 0.0
C364 C 0.13926 0.89085 0.38107 0.0
C365 C 0.16261 0.87946 0.37195 0.0
H366 H 0.26324 0.81381 0.39229 0.0
C367 C 0.1518 0.86844 0.41188 0.0
C368 C 0.16949 0.86564 0.39333 0.0
H369 H 0.24089 0.84429 0.32622 0.0
H370 H 0.20397 0.85975 0.34541 0.0
H371 H 0.24941 0.85321 0.42746 0.0
H372 H 0.20537 0.79795 0.40558 0.0
H373 H 0.20153 0.8013 0.4365 0.0
H374 H 0.23296 0.79598 0.42468 0.0
H375 H 0.25618 0.82677 0.43848 0.0
H376 H 0.23262 0.84371 0.45249 0.0
C377 C 0.18357 0.89649 0.36663 0.0
C378 C 0.15455 0.86576 0.35008 0.0
C379 C 0.14785 0.83894 0.49634 0.0
C380 C 0.16462 0.82624 0.50999 0.0
C381 C 0.18762 0.81904 0.49964 0.0
C382 C 0.19362 0.82411 0.47588 0.0
C383 C 0.17658 0.83675 0.4624 0.0
C384 C 0.15429 0.84415 0.4728 0.0
C385 C 0.13927 0.85854 0.45639 0.0
C386 C 0.15575 0.85801 0.43414 0.0
C387 C 0.17751 0.84511 0.43767 0.0
C388 C 0.13838 0.88121 0.46769 0.0
C389 C 0.11262 0.84821 0.45207 0.0
C390 C 0.25043 0.824 0.38212 0.0
C391 C 0.25495 0.82806 0.35781 0.0
C392 C 0.23768 0.84099 0.34496 0.0
C393 C 0.21627 0.84992 0.35614 0.0
C394 C 0.21189 0.84574 0.38042 0.0
C395 C 0.22861 0.83274 0.39296 0.0
C396 C 0.21992 0.82913 0.41827 0.0
C397 C 0.19527 0.8421 0.41877 0.0
C398 C 0.19098 0.85204 0.39664 0.0
C399 C 0.24057 0.83851 0.43522 0.0
C400 C 0.21477 0.80484 0.42168 0.0
H401 H 0.10388 0.88805 0.43187 0.0
H402 H 0.13217 0.91248 0.35179 0.0
H403 H 0.13371 0.86184 0.35035 0.0
H404 H 0.16418 0.84995 0.34978 0.0
H405 H 0.15851 0.87433 0.33309 0.0
H406 H 0.18446 0.90859 0.38117 0.0
H407 H 0.17944 0.90511 0.34971 0.0
H408 H 0.20303 0.8897 0.36554 0.0
H409 H 0.1303 0.84506 0.50402 0.0
H410 H 0.20081 0.80927 0.50989 0.0
H411 H 0.21133 0.81806 0.46895 0.0
H412 H 0.15627 0.88468 0.47785 0.0
H413 H 0.12204 0.88266 0.48025 0.0
H414 H 0.13723 0.8942 0.45434 0.0
H415 H 0.1143 0.8305 0.45024 0.0
H416 H 0.10351 0.85368 0.43535 0.0
H417 H 0.09945 0.85145 0.46717 0.0
H418 H 0.0807 0.91646 0.41183 0.0
C419 C 0.11051 0.89286 0.41456 0.0
C420 C 0.26308 0.6784 0.84475 0.0
C421 C 0.25145 0.69507 0.85757 0.0
C422 C 0.25778 0.69761 0.88191 0.0
C423 C 0.28612 0.66675 0.88021 0.0
C424 C 0.2801 0.66453 0.85632 0.0
C425 C 0.29337 0.64581 0.84505 0.0
H426 H 0.36578 0.55688 0.85595 0.0
C427 C 0.30402 0.6492 0.88675 0.0
C428 C 0.30822 0.63694 0.86611 0.0
H429 H 0.33037 0.58262 0.79236 0.0
H430 H 0.31518 0.61311 0.81455 0.0
H431 H 0.38917 0.60105 0.87271 0.0
H432 H 0.3199 0.56825 0.89302 0.0
H433 H 0.33502 0.57765 0.91912 0.0
H434 H 0.35149 0.55886 0.90029 0.0
H435 H 0.38938 0.57974 0.89424 0.0
H436 H 0.38425 0.60731 0.90282 0.0
C437 C 0.31144 0.65447 0.82527 0.0
C438 C 0.27248 0.62994 0.83619 0.0
C439 C 0.33889 0.64202 0.97165 0.0
C440 C 0.3561 0.62745 0.98233 0.0
C441 C 0.36575 0.61043 0.9685 0.0
C442 C 0.35875 0.60806 0.94453 0.0
C443 C 0.34189 0.62287 0.93402 0.0
C444 C 0.3322 0.63951 0.94749 0.0
C445 C 0.31481 0.65384 0.933 0.0
C446 C 0.31606 0.64322 0.90861 0.0
C447 C 0.33184 0.62498 0.90945 0.0
C448 C 0.32649 0.67669 0.93265 0.0
C449 C 0.28757 0.65258 0.94382 0.0
C450 C 0.35466 0.5691 0.84691 0.0
C451 C 0.34899 0.5673 0.82246 0.0
C452 C 0.335 0.58372 0.81116 0.0
C453 C 0.32608 0.60134 0.82414 0.0
C454 C 0.33129 0.60268 0.8487 0.0
C455 C 0.34584 0.58697 0.85959 0.0
C456 C 0.35057 0.59169 0.88556 0.0
C457 C 0.33569 0.61245 0.88861 0.0
C458 C 0.32424 0.61861 0.86703 0.0
C459 C 0.37981 0.595 0.88924 0.0
C460 C 0.33884 0.57316 0.90045 0.0
H461 H 0.2789 0.68622 0.91183 0.0
H462 H 0.2591 0.67618 0.82595 0.0
H463 H 0.25631 0.62901 0.84908 0.0
H464 H 0.27938 0.6133 0.83456 0.0
H465 H 0.26449 0.63513 0.81874 0.0
H466 H 0.31844 0.67092 0.8295 0.0
H467 H 0.30147 0.65525 0.80778 0.0
H468 H 0.3291 0.64484 0.82342 0.0
H469 H 0.33127 0.65537 0.9817 0.0
H470 H 0.37869 0.5988 0.9763 0.0
H471 H 0.36681 0.59477 0.93509 0.0
H472 H 0.34771 0.67597 0.93073 0.0
H473 H 0.32221 0.68535 0.94946 0.0
H474 H 0.31977 0.68642 0.91744 0.0
H475 H 0.28305 0.63592 0.94966 0.0
H476 H 0.27237 0.65673 0.93091 0.0
H477 H 0.28591 0.66318 0.95963 0.0
H478 H 0.24902 0.71023 0.8923 0.0
C479 C 0.27501 0.68356 0.89328 0.0
Zn480 Zn 0.01433 0.165 0.29485 0.0
Zn481 Zn 0.98452 0.14377 0.21291 0.0
Zn482 Zn 0.99831 0.15363 0.25326 0.0
C483 C 0.03462 0.15564 0.20772 0.0
C484 C 0.97764 0.1072 0.23766 0.0
O485 O 0.96602 0.1707 0.27074 0.0
O486 O 0.98113 0.17485 0.30738 0.0
C487 C 0.04698 0.18516 0.26468 0.0
O488 O 0.02915 0.16372 0.22821 0.0
O489 O 0.01892 0.1431 0.1977 0.0
O490 O 0.96747 0.116 0.21975 0.0
O491 O 0.99245 0.11817 0.2515 0.0
O492 O 0.03989 0.18691 0.28604 0.0
O493 O 0.03501 0.17239 0.25035 0.0
O494 O 0.00475 0.12348 0.27284 0.0
O495 O 0.02661 0.13562 0.30385 0.0
C496 C 0.01795 0.12003 0.29188 0.0
O497 O 0.96247 0.17217 0.24608 0.0
O498 O 0.96275 0.16916 0.20696 0.0
C499 C 0.96292 0.17641 0.29264 0.0
C500 C 0.9538 0.17783 0.22546 0.0
Zn501 Zn 0.52156 0.34667 0.70402 0.0
Zn502 Zn 0.46452 0.33732 0.77666 0.0
Zn503 Zn 0.49302 0.34166 0.74273 0.0
C504 C 0.44341 0.37032 0.75272 0.0
C505 C 0.46363 0.29855 0.75628 0.0
O506 O 0.50437 0.30911 0.73115 0.0
O507 O 0.52959 0.31582 0.70024 0.0
C508 C 0.5448 0.37025 0.74079 0.0
O509 O 0.45859 0.3621 0.73712 0.0
O510 O 0.44392 0.36352 0.77391 0.0
O511 O 0.44795 0.31025 0.76724 0.0
O512 O 0.48448 0.30675 0.74788 0.0
O513 O 0.54732 0.36594 0.71894 0.0
O514 O 0.52621 0.36203 0.75292 0.0
O515 O 0.46898 0.35719 0.71491 0.0
O516 O 0.49438 0.35928 0.68338 0.0
C517 C 0.47265 0.362 0.69279 0.0
O518 O 0.51543 0.35327 0.77355 0.0
O519 O 0.49282 0.33586 0.80056 0.0
C520 C 0.51932 0.30261 0.71443 0.0
C521 C 0.51288 0.34606 0.79494 0.0
Zn522 Zn 0.01803 0.85638 0.80545 0.0
Zn523 Zn 0.98581 0.85679 0.71765 0.0
Zn524 Zn 0.00189 0.85433 0.76151 0.0
C525 C 0.99201 0.89836 0.73005 0.0
C526 C 0.94701 0.83657 0.74391 0.0
O527 O 0.03939 0.83718 0.76295 0.0
O528 O 0.05258 0.84454 0.79955 0.0
C529 C 0.01155 0.89808 0.79253 0.0
O530 O 0.99645 0.88832 0.74978 0.0
O531 O 0.98865 0.88796 0.71104 0.0
O532 O 0.95109 0.84509 0.72383 0.0
O533 O 0.96426 0.83747 0.76039 0.0
O534 O 0.01512 0.88764 0.81153 0.0
O535 O 0.00721 0.88817 0.77277 0.0
O536 O 0.97284 0.83769 0.78422 0.0
O537 O 0.992 0.837 0.81942 0.0
C538 C 0.9732 0.832 0.80633 0.0
O539 O 0.03074 0.83751 0.73907 0.0
O540 O 0.01167 0.83743 0.70381 0.0
C541 C 0.05654 0.83598 0.77953 0.0
C542 C 0.0303 0.83207 0.7169 0.0
Zn543 Zn 0.51228 0.68635 0.22776 0.0
Zn544 Zn 0.46541 0.65842 0.29038 0.0
Zn545 Zn 0.49538 0.668 0.25902 0.0
C546 C 0.51613 0.66423 0.31027 0.0
C547 C 0.46769 0.62273 0.25967 0.0
O548 O 0.47795 0.65327 0.22675 0.0
O549 O 0.47738 0.68566 0.2112 0.0
C550 C 0.54138 0.69828 0.26199 0.0
O551 O 0.52247 0.66516 0.28824 0.0
O552 O 0.49266 0.66274 0.31593 0.0
O553 O 0.45749 0.62861 0.27899 0.0
O554 O 0.48248 0.63565 0.24806 0.0
O555 O 0.52694 0.70958 0.24883 0.0
O556 O 0.53442 0.67895 0.26682 0.0
O557 O 0.50381 0.64269 0.23313 0.0
O558 O 0.53691 0.66113 0.22002 0.0
C559 C 0.5258 0.64318 0.22262 0.0
O560 O 0.47016 0.69526 0.2587 0.0
O561 O 0.44075 0.68211 0.28275 0.0
C562 C 0.46876 0.66658 0.21129 0.0
C563 C 0.44845 0.69683 0.26895 0.0
C564 C 0.06617 0.93825 0.36789 0.0
C565 C 0.09296 0.93618 0.36972 0.0
C566 C 0.05536 0.9571 0.35869 0.0
C567 C 0.06769 0.01393 0.35523 0.0
H568 H 0.02345 0.01652 0.29962 0.0
C569 C 0.04865 0.0939 0.3091 0.0
C570 C 0.02432 0.09802 0.29948 0.0
C571 C 0.05495 0.07345 0.31724 0.0
C572 C 0.03542 0.01606 0.31542 0.0
H573 H 0.12937 0.95211 0.36351 0.0
H574 H 0.11049 0.98509 0.34799 0.0
H575 H 0.03761 0.98161 0.31496 0.0
H576 H 0.98729 0.08418 0.2911 0.0
H577 H 0.9981 0.04821 0.30569 0.0
H578 H 0.06537 0.04805 0.35629 0.0
C579 C 0.09791 0.97208 0.35334 0.0
C580 C 0.04355 0.99609 0.32411 0.0
C581 C 0.10868 0.95319 0.36208 0.0
C582 C 0.00636 0.08125 0.29801 0.0
C583 C 0.01256 0.0607 0.30644 0.0
C584 C 0.0593 0.03377 0.34685 0.0
C585 C 0.07119 0.97428 0.35172 0.0
C586 C 0.06024 0.99495 0.34375 0.0
C587 C 0.03688 0.05663 0.31645 0.0
C588 C 0.04363 0.03519 0.32644 0.0
H589 H 0.05366 0.92532 0.37361 0.0
H590 H 0.03468 0.95852 0.35765 0.0
H591 H 0.08024 0.01341 0.37064 0.0
H592 H 0.06294 0.10652 0.31022 0.0
H593 H 0.0741 0.07085 0.32414 0.0
C594 C 0.3512 0.52748 0.81785 0.0
C595 C 0.35675 0.54802 0.80889 0.0
C596 C 0.35755 0.50923 0.80477 0.0
C597 C 0.40267 0.48863 0.76175 0.0
H598 H 0.3532 0.44238 0.75534 0.0
C599 C 0.43517 0.40506 0.73136 0.0
C600 C 0.42706 0.38899 0.74726 0.0
C601 C 0.42309 0.42515 0.73128 0.0
C602 C 0.36726 0.45513 0.75691 0.0
H603 H 0.37358 0.56564 0.77944 0.0
H604 H 0.3854 0.53351 0.75678 0.0
H605 H 0.33968 0.47682 0.77153 0.0
H606 H 0.39855 0.38044 0.7737 0.0
H607 H 0.3777 0.41503 0.77366 0.0
H608 H 0.43067 0.4666 0.74871 0.0
C609 C 0.37582 0.53164 0.77378 0.0
C610 C 0.35948 0.47484 0.76616 0.0
C611 C 0.36903 0.54996 0.78669 0.0
C612 C 0.4053 0.3926 0.76135 0.0
C613 C 0.39322 0.41248 0.76119 0.0
C614 C 0.41055 0.46879 0.75278 0.0
C615 C 0.36993 0.51111 0.78263 0.0
C616 C 0.37729 0.49153 0.7694 0.0
C617 C 0.4026 0.42933 0.74694 0.0
C618 C 0.39313 0.45154 0.75108 0.0
H619 H 0.34156 0.52555 0.83481 0.0
H620 H 0.35309 0.49357 0.81214 0.0
H621 H 0.41678 0.50125 0.7641 0.0
H622 H 0.45197 0.40272 0.72035 0.0
H623 H 0.43056 0.43769 0.71982 0.0
C624 C 0.65688 0.53121 0.69408 0.0
C625 C 0.63764 0.54432 0.68434 0.0
C626 C 0.65038 0.51296 0.70733 0.0
C627 C 0.60026 0.48724 0.74281 0.0
H628 H 0.62428 0.43395 0.71561 0.0
C629 C 0.54787 0.40709 0.75658 0.0
C630 C 0.56027 0.38802 0.7503 0.0
C631 C 0.56122 0.42659 0.7561 0.0
C632 C 0.61791 0.44853 0.72413 0.0
H633 H 0.59665 0.54922 0.68154 0.0
H634 H 0.58525 0.51746 0.70522 0.0
H635 H 0.63996 0.46773 0.69994 0.0
H636 H 0.59676 0.3737 0.74168 0.0
H637 H 0.62072 0.40732 0.74307 0.0
H638 H 0.57835 0.4682 0.7672 0.0
C639 C 0.60532 0.52126 0.70243 0.0
C640 C 0.62681 0.46797 0.71488 0.0
C641 C 0.6118 0.53926 0.68874 0.0
C642 C 0.58683 0.38828 0.74658 0.0
C643 C 0.60039 0.40766 0.74689 0.0
C644 C 0.59177 0.46775 0.75251 0.0
C645 C 0.62454 0.50779 0.71154 0.0
C646 C 0.61753 0.48748 0.72366 0.0
C647 C 0.5874 0.42728 0.74984 0.0
C648 C 0.59984 0.44805 0.74282 0.0
H649 H 0.67694 0.53475 0.69086 0.0
H650 H 0.66553 0.50276 0.71413 0.0
H651 H 0.59303 0.50215 0.75003 0.0
H652 H 0.52728 0.40728 0.7592 0.0
H653 H 0.55031 0.44115 0.75849 0.0
C654 C 0.88284 0.93796 0.19887 0.0
C655 C 0.89663 0.923 0.18536 0.0
C656 C 0.89521 0.95561 0.20904 0.0
C657 C 0.95414 0.98878 0.20375 0.0
H658 H 0.92822 0.01342 0.26235 0.0
C659 C 0.99245 0.06926 0.24039 0.0
C660 C 0.97255 0.0843 0.24173 0.0
C661 C 0.98676 0.04732 0.23871 0.0
C662 C 0.93583 0.00658 0.24611 0.0
H663 H 0.93428 0.91457 0.17222 0.0
H664 H 0.95615 0.9452 0.19045 0.0
H665 H 0.91172 0.97887 0.24871 0.0
H666 H 0.93146 0.08853 0.24369 0.0
H667 H 0.92149 0.05027 0.24157 0.0
H668 H 0.97807 0.01671 0.20118 0.0
C669 C 0.93563 0.94356 0.1928 0.0
C670 C 0.92622 0.98689 0.23812 0.0
C671 C 0.92314 0.92599 0.18237 0.0
C672 C 0.94708 0.07713 0.24292 0.0
C673 C 0.94141 0.05527 0.24174 0.0
C674 C 0.96401 0.00832 0.21195 0.0
C675 C 0.9218 0.95868 0.20622 0.0
C676 C 0.9346 0.97807 0.2164 0.0
C677 C 0.96111 0.0402 0.23876 0.0
C678 C 0.95438 0.01772 0.23281 0.0
H679 H 0.86231 0.93624 0.20118 0.0
H680 H 0.88372 0.96713 0.21866 0.0
H681 H 0.96094 0.98268 0.18686 0.0
H682 H 0.01223 0.07455 0.23917 0.0
H683 H 0.00227 0.036 0.23647 0.0
C684 C 0.90744 0.06723 0.66337 0.0
C685 C 0.88233 0.07132 0.67134 0.0
C686 C 0.92229 0.0511 0.6739 0.0
C687 C 0.9148 0.00197 0.71144 0.0
H688 H 0.98917 0.00278 0.7102 0.0
C689 C 0.973 0.93131 0.74781 0.0
C690 C 0.98761 0.92173 0.72975 0.0
C691 C 0.96381 0.95221 0.74498 0.0
C692 C 0.9684 0.00247 0.71082 0.0
H693 H 0.85374 0.06168 0.69746 0.0
H694 H 0.88012 0.03504 0.71678 0.0
H695 H 0.96535 0.03455 0.69751 0.0
H696 H 0.00553 0.92682 0.69541 0.0
H697 H 0.98992 0.96358 0.6907 0.0
H698 H 0.918 0.96998 0.725 0.0
C699 C 0.88808 0.04365 0.70172 0.0
C700 C 0.95468 0.02057 0.70332 0.0
C701 C 0.87301 0.05938 0.69084 0.0
C702 C 0.99438 0.93391 0.70962 0.0
C703 C 0.98555 0.95493 0.70697 0.0
C704 C 0.92851 0.98414 0.7194 0.0
C705 C 0.91271 0.03886 0.69306 0.0
C706 C 0.92762 0.02043 0.70306 0.0
C707 C 0.96933 0.96395 0.72418 0.0
C708 C 0.9554 0.98405 0.71877 0.0
H709 H 0.91569 0.07633 0.64882 0.0
H710 H 0.94102 0.04789 0.66645 0.0
H711 H 0.89409 0.00084 0.71104 0.0
H712 H 0.96715 0.92215 0.76331 0.0
H713 H 0.95136 0.95885 0.75851 0.0
C714 C 0.60674 0.46493 0.17027 0.0
C715 C 0.63341 0.46269 0.17262 0.0
C716 C 0.59467 0.48388 0.17715 0.0
C717 C 0.6043 0.53497 0.21046 0.0
H718 H 0.55043 0.55507 0.16822 0.0
C719 C 0.56471 0.6213 0.21421 0.0
C720 C 0.53788 0.62317 0.21439 0.0
C721 C 0.57621 0.60162 0.20913 0.0
C722 C 0.5653 0.54959 0.18028 0.0
H723 H 0.66832 0.47814 0.18468 0.0
H724 H 0.64739 0.51154 0.19628 0.0
H725 H 0.57068 0.52061 0.16071 0.0
H726 H 0.50205 0.60643 0.20813 0.0
H727 H 0.52212 0.57197 0.19916 0.0
H728 H 0.59918 0.56433 0.22966 0.0
C729 C 0.63565 0.49853 0.18954 0.0
C730 C 0.57685 0.52977 0.17608 0.0
C731 C 0.64769 0.47942 0.1829 0.0
C732 C 0.52277 0.60529 0.2084 0.0
C733 C 0.53426 0.58564 0.20312 0.0
C734 C 0.5929 0.5549 0.21452 0.0
C735 C 0.60904 0.50117 0.18624 0.0
C736 C 0.59648 0.52215 0.19114 0.0
C737 C 0.5611 0.58352 0.20384 0.0
C738 C 0.57328 0.56241 0.19946 0.0
H739 H 0.59528 0.45214 0.16261 0.0
H740 H 0.57408 0.48507 0.17495 0.0
H741 H 0.61907 0.52953 0.22263 0.0
H742 H 0.57679 0.63486 0.21882 0.0
H743 H 0.59693 0.60051 0.20948 0.0
C744 C 0.42001 0.43819 0.29485 0.0
C745 C 0.39334 0.43537 0.29328 0.0
C746 C 0.43183 0.45595 0.2842 0.0
C747 C 0.41971 0.50251 0.24314 0.0
H748 H 0.47164 0.5299 0.28229 0.0
C749 C 0.43807 0.5933 0.24829 0.0
C750 C 0.46324 0.60067 0.25159 0.0
C751 C 0.43304 0.57136 0.24622 0.0
C752 C 0.45757 0.52226 0.27084 0.0
H753 H 0.35814 0.4486 0.27902 0.0
H754 H 0.37846 0.47993 0.2612 0.0
H755 H 0.45612 0.49443 0.29297 0.0
H756 H 0.50301 0.59133 0.25473 0.0
H757 H 0.4943 0.55278 0.25116 0.0
H758 H 0.42011 0.53125 0.22201 0.0
C759 C 0.39053 0.4682 0.26995 0.0
C760 C 0.44864 0.50184 0.27694 0.0
C761 C 0.37879 0.45028 0.28028 0.0
C762 C 0.48351 0.58595 0.25162 0.0
C763 C 0.47849 0.56395 0.24983 0.0
C764 C 0.42842 0.5231 0.23723 0.0
C765 C 0.41717 0.47149 0.2721 0.0
C766 C 0.42911 0.49188 0.26354 0.0
C767 C 0.4531 0.55642 0.24794 0.0
C768 C 0.44702 0.53336 0.25136 0.0
H769 H 0.43169 0.42677 0.30456 0.0
H770 H 0.45244 0.45766 0.28583 0.0
H771 H 0.4051 0.49518 0.23206 0.0
H772 H 0.42216 0.60444 0.24857 0.0
H773 H 0.41327 0.56604 0.24506 0.0
C774 C 0.1143 0.05553 0.85842 0.0
C775 C 0.11638 0.0747 0.84543 0.0
C776 C 0.09861 0.03892 0.85037 0.0
C777 C 0.06449 0.01818 0.79689 0.0
H778 H 0.03359 0.98166 0.84492 0.0
C779 C 0.03162 0.93165 0.77727 0.0
C780 C 0.01457 0.92152 0.79299 0.0
C781 C 0.0387 0.95307 0.78086 0.0
C782 C 0.0414 0.99183 0.83105 0.0
H783 H 0.10385 0.0916 0.81377 0.0
H784 H 0.07548 0.06273 0.79992 0.0
H785 H 0.05561 0.01388 0.85691 0.0
H786 H 0.98944 0.92603 0.82315 0.0
H787 H 1.00012 0.9638 0.82843 0.0
H788 H 0.04931 0.99644 0.77094 0.0
C789 C 0.08642 0.06035 0.81614 0.0
C790 C 0.05466 0.01022 0.83807 0.0
C791 C 0.10255 0.07692 0.82406 0.0
C792 C 0.00294 0.93353 0.81102 0.0
C793 C 0.00935 0.9551 0.81416 0.0
C794 C 0.05069 -6e-05 0.78979 0.0
C795 C 0.08415 0.04115 0.82929 0.0
C796 C 0.0672 0.02324 0.82121 0.0
C797 C 0.02839 0.96489 0.79997 0.0
C798 C 0.03961 0.98611 0.80684 0.0
H799 H 0.12517 0.05326 0.87473 0.0
H800 H 0.09814 0.02418 0.86062 0.0
H801 H 0.07382 0.02781 0.78335 0.0
H802 H 0.04085 0.9226 0.76325 0.0
H803 H 0.05349 0.95979 0.76955 0.0
C804 C 0.17019 0.18564 0.03958 0.0
C805 C 0.17115 0.16466 0.03055 0.0
C806 C 0.16382 0.18919 0.06355 0.0
C807 C 0.15532 0.16123 0.12205 0.0
H808 H 0.09775 0.19972 0.13015 0.0
C809 C 0.0713 0.14387 0.18309 0.0
C810 C 0.05905 0.16038 0.19556 0.0
C811 C 0.0921 0.14831 0.16832 0.0
C812 C 0.11425 0.18933 0.12844 0.0
H813 H 0.16793 0.13098 0.0396 0.0
H814 H 0.157 0.13702 0.08113 0.0
H815 H 0.12221 0.20056 0.0931 0.0
H816 H 0.05946 0.19441 0.20321 0.0
H817 H 0.09577 0.20241 0.17655 0.0
H818 H 0.14616 0.14896 0.15672 0.0
C819 C 0.16116 0.15082 0.07 0.0
C820 C 0.12829 0.18979 0.10718 0.0
C821 C 0.16721 0.14732 0.04613 0.0
C822 C 0.06874 0.18139 0.19386 0.0
C823 C 0.08936 0.18596 0.17857 0.0
C824 C 0.14123 0.1607 0.14321 0.0
C825 C 0.15872 0.17179 0.07891 0.0
C826 C 0.14821 0.17503 0.10331 0.0
C827 C 0.10089 0.16946 0.16529 0.0
C828 C 0.11982 0.17406 0.14617 0.0
H829 H 0.17306 0.19927 0.02785 0.0
H830 H 0.16222 0.20552 0.06991 0.0
H831 H 0.17091 0.14998 0.11985 0.0
H832 H 0.0642 0.12753 0.18414 0.0
H833 H 0.10032 0.13528 0.15815 0.0
C834 C 0.35729 0.34985 0.50943 0.0
C835 C 0.36147 0.36825 0.49536 0.0
C836 C 0.36173 0.35028 0.53408 0.0
C837 C 0.37771 0.38793 0.58479 0.0
H838 H 0.4087 0.3369 0.61176 0.0
C839 C 0.45527 0.38289 0.65855 0.0
C840 C 0.45111 0.36824 0.67721 0.0
C841 C 0.4374 0.38487 0.64009 0.0
C842 C 0.39964 0.35115 0.60459 0.0
H843 H 0.37195 0.40198 0.49686 0.0
H844 H 0.38148 0.40232 0.53892 0.0
H845 H 0.39095 0.33568 0.57168 0.0
H846 H 0.42452 0.34501 0.69197 0.0
H847 H 0.39363 0.34785 0.65898 0.0
H848 H 0.38876 0.40372 0.61727 0.0
C849 C 0.37418 0.38758 0.53129 0.0
C850 C 0.38932 0.35049 0.58158 0.0
C851 C 0.36923 0.38726 0.50683 0.0
C852 C 0.428 0.35659 0.67791 0.0
C853 C 0.41045 0.35811 0.65903 0.0
C854 C 0.38866 0.3887 0.60759 0.0
C855 C 0.37088 0.36903 0.54532 0.0
C856 C 0.37872 0.36901 0.57105 0.0
C857 C 0.41542 0.37182 0.63965 0.0
C858 C 0.40008 0.3704 0.61749 0.0
H859 H 0.35136 0.33487 0.50137 0.0
H860 H 0.35835 0.33576 0.54421 0.0
H861 H 0.36908 0.40239 0.57776 0.0
H862 H 0.47301 0.39196 0.65759 0.0
H863 H 0.4417 0.39544 0.62525 0.0
C864 C 0.64132 0.34889 0.97675 0.0
C865 C 0.64928 0.3695 0.98368 0.0
C866 C 0.63093 0.34547 0.95406 0.0
C867 C 0.62253 0.36847 0.89356 0.0
H868 H 0.55722 0.33871 0.89625 0.0
C869 C 0.5485 0.36676 0.81503 0.0
C870 C 0.53346 0.34813 0.81291 0.0
C871 C 0.56575 0.36896 0.83417 0.0
C872 C 0.57563 0.34671 0.89496 0.0
H873 H 0.65443 0.40233 0.9717 0.0
H874 H 0.63623 0.39635 0.93208 0.0
H875 H 0.58273 0.34235 0.93217 0.0
H876 H 0.52607 0.31658 0.82771 0.0
H877 H 0.55659 0.31994 0.86012 0.0
H878 H 0.61528 0.3728 0.85617 0.0
C879 C 0.63794 0.38287 0.94418 0.0
C880 C 0.59026 0.3488 0.91565 0.0
C881 C 0.64815 0.38632 0.96693 0.0
C882 C 0.53704 0.33131 0.82923 0.0
C883 C 0.55445 0.33331 0.84792 0.0
C884 C 0.60793 0.36618 0.87267 0.0
C885 C 0.62847 0.36256 0.93778 0.0
C886 C 0.61388 0.35966 0.91524 0.0
C887 C 0.5684 0.35242 0.85121 0.0
C888 C 0.58431 0.35518 0.87312 0.0
H889 H 0.64186 0.33564 0.98927 0.0
H890 H 0.62407 0.32958 0.9495 0.0
H891 H 0.64067 0.37695 0.89274 0.0
H892 H 0.54606 0.37995 0.80265 0.0
H893 H 0.57616 0.38391 0.83615 0.0
C894 C 0.84427 0.14086 0.45975 0.0
C895 C 0.83982 0.15667 0.47705 0.0
C896 C 0.85021 0.14666 0.43629 0.0
C897 C 0.88255 0.18851 0.40349 0.0
H898 H 0.85408 0.16122 0.34726 0.0
C899 C 0.93401 0.20011 0.31548 0.0
C900 C 0.93749 0.18121 0.30242 0.0
C901 C 0.91467 0.20134 0.33266 0.0
C902 C 0.86239 0.16894 0.36273 0.0
H903 H 0.83763 0.19089 0.48334 0.0
H904 H 0.84867 0.20105 0.44239 0.0
H905 H 0.83509 0.15418 0.38631 0.0
H906 H 0.92257 0.14945 0.29551 0.0
H907 H 0.88967 0.15103 0.32602 0.0
H908 H 0.91099 0.20199 0.38079 0.0
C909 C 0.84725 0.18419 0.44696 0.0
C910 C 0.85138 0.16495 0.38509 0.0
C911 C 0.84087 0.17839 0.47032 0.0
C912 C 0.91991 0.16434 0.30513 0.0
C913 C 0.90104 0.16529 0.32279 0.0
C914 C 0.89385 0.19217 0.3813 0.0
C915 C 0.85222 0.16838 0.42977 0.0
C916 C 0.86167 0.17441 0.40572 0.0
C917 C 0.89915 0.18335 0.33779 0.0
C918 C 0.88432 0.1821 0.36059 0.0
H919 H 0.8434 0.124 0.46444 0.0
H920 H 0.8542 0.13415 0.42346 0.0
H921 H 0.89107 0.19582 0.41914 0.0
H922 H 0.9475 0.21328 0.31374 0.0
H923 H 0.91322 0.21587 0.34309 0.0
C924 C 0.88989 0.82818 0.9869 0.0
C925 C 0.86526 0.82619 0.99692 0.0
C926 C 0.89373 0.82494 0.96256 0.0
C927 C 0.8838 0.79722 0.91207 0.0
H928 H 0.89202 0.84904 0.87438 0.0
C929 C 0.95512 0.80688 0.83616 0.0
C930 C 0.95083 0.82207 0.8181 0.0
C931 C 0.93641 0.80278 0.85334 0.0
C932 C 0.88911 0.83431 0.88432 0.0
H933 H 0.82545 0.81866 0.98903 0.0
H934 H 0.83248 0.81263 0.94623 0.0
H935 H 0.87526 0.85129 0.91492 0.0
H936 H 0.92279 0.84332 0.8023 0.0
H937 H 0.88986 0.83626 0.83254 0.0
H938 H 0.89919 0.78032 0.88209 0.0
C939 C 0.84861 0.81684 0.95751 0.0
C940 C 0.87966 0.83567 0.90758 0.0
C941 C 0.84469 0.82018 0.98198 0.0
C942 C 0.92648 0.83143 0.81599 0.0
C943 C 0.90777 0.82756 0.83345 0.0
C944 C 0.89339 0.79584 0.8888 0.0
C945 C 0.87314 0.81944 0.94767 0.0
C946 C 0.87767 0.81724 0.92182 0.0
C947 C 0.91309 0.81404 0.85301 0.0
C948 C 0.89704 0.81448 0.87496 0.0
H949 H 0.90628 0.83232 0.99787 0.0
H950 H 0.91283 0.8269 0.95526 0.0
H951 H 0.88256 0.78283 0.92288 0.0
H952 H 0.9738 0.79951 0.83819 0.0
H953 H 0.94128 0.79236 0.86813 0.0
C954 C 0.64875 0.64081 0.4889 0.0
C955 C 0.64532 0.65768 0.5051 0.0
C956 C 0.63894 0.6422 0.46569 0.0
C957 C 0.60956 0.68123 0.42218 0.0
H958 H 0.58403 0.62925 0.39243 0.0
C959 C 0.52889 0.67488 0.3514 0.0
C960 C 0.53556 0.6655 0.32951 0.0
C961 C 0.54612 0.67495 0.37048 0.0
C962 C 0.59145 0.64382 0.4004 0.0
H963 H 0.62875 0.68913 0.5099 0.0
H964 H 0.61047 0.69124 0.47001 0.0
H965 H 0.60593 0.62708 0.4308 0.0
H966 H 0.56568 0.64916 0.31027 0.0
H967 H 0.59567 0.64845 0.34435 0.0
H968 H 0.59313 0.69795 0.39232 0.0
C969 C 0.62159 0.67721 0.47464 0.0
C970 C 0.60412 0.64265 0.42241 0.0
C971 C 0.6319 0.67598 0.49766 0.0
C972 C 0.56009 0.65652 0.32694 0.0
C973 C 0.57716 0.65607 0.34636 0.0
C974 C 0.59638 0.6824 0.40044 0.0
C975 C 0.62491 0.66033 0.45823 0.0
C976 C 0.61307 0.66138 0.43386 0.0
C977 C 0.57018 0.66521 0.36829 0.0
C978 C 0.58703 0.66374 0.38951 0.0
H979 H 0.65926 0.62659 0.49416 0.0
H980 H 0.64248 0.62903 0.45361 0.0
H981 H 0.61667 0.69599 0.42992 0.0
H982 H 0.51018 0.68205 0.35385 0.0
H983 H 0.54031 0.68202 0.38724 0.0
C984 C 0.34685 0.6347 0.02572 0.0
C985 C 0.36451 0.62995 0.0076 0.0
C986 C 0.35489 0.63634 0.04953 0.0
C987 C 0.40975 0.6228 0.09007 0.0
H988 H 0.38065 0.66714 0.12989 0.0
C989 C 0.44719 0.63805 0.18623 0.0
C990 C 0.45121 0.65979 0.1918 0.0
C991 C 0.43311 0.63227 0.1658 0.0
C992 C 0.38905 0.65468 0.11903 0.0
H993 H 0.40463 0.62383 1.00027 0.0
H994 H 0.41871 0.62713 0.04144 0.0
H995 H 0.36395 0.6617 0.08985 0.0
H996 H 0.4425 0.69241 0.18096 0.0
H997 H 0.41856 0.68248 0.14568 0.0
H998 H 0.43577 0.61658 0.11884 0.0
C999 C 0.39849 0.62893 0.03753 0.0
C1000 C 0.37923 0.65137 0.09608 0.0
C1001 C 0.39043 0.62714 0.01383 0.0
C1002 C 0.43991 0.6755 0.17719 0.0
C1003 C 0.4259 0.66977 0.15695 0.0
C1004 C 0.41968 0.6262 0.11299 0.0
C1005 C 0.38085 0.63344 0.05579 0.0
C1006 C 0.38978 0.63569 0.08105 0.0
C1007 C 0.42265 0.64812 0.15067 0.0
C1008 C 0.40986 0.64252 0.1276 0.0
H1009 H 0.32671 0.63674 0.02155 0.0
H1010 H 0.34066 0.63961 0.06306 0.0
H1011 H 0.41804 0.61025 0.07927 0.0
H1012 H 0.45562 0.62556 0.19715 0.0
H1013 H 0.43074 0.61542 0.16169 0.0
C1014 C 0.13392 0.81202 0.54038 0.0
C1015 C 0.15807 0.82077 0.53498 0.0
C1016 C 0.12697 0.80799 0.56402 0.0
C1017 C 0.12241 0.79201 0.6154 0.0
H1018 H 0.12419 0.84203 0.65631 0.0
C1019 C 0.04722 0.8076 0.68609 0.0
C1020 C 0.05218 0.82144 0.70525 0.0
C1021 C 0.06657 0.80232 0.67006 0.0
C1022 C 0.12416 0.82764 0.64554 0.0
H1023 H 0.19404 0.83194 0.54992 0.0
H1024 H 0.18155 0.82542 0.59153 0.0
H1025 H 0.1463 0.84289 0.6181 0.0
H1026 H 0.08176 0.83913 0.72398 0.0
H1027 H 0.11601 0.82955 0.6961 0.0
H1028 H 0.09982 0.77686 0.64246 0.0
C1029 C 0.16819 0.82143 0.57739 0.0
C1030 C 0.13676 0.82821 0.62353 0.0
C1031 C 0.17535 0.82509 0.55365 0.0
C1032 C 0.07747 0.8283 0.70943 0.0
C1033 C 0.09697 0.82304 0.69326 0.0
C1034 C 0.11014 0.79131 0.63754 0.0
C1035 C 0.14386 0.81296 0.58279 0.0
C1036 C 0.13507 0.81073 0.60784 0.0
C1037 C 0.09144 0.81081 0.67274 0.0
C1038 C 0.10981 0.80947 0.65242 0.0
H1039 H 0.12031 0.80848 0.5263 0.0
H1040 H 0.10798 0.80169 0.56766 0.0
H1041 H 0.12117 0.77818 0.60379 0.0
H1042 H 0.02786 0.80209 0.68247 0.0
H1043 H 0.06133 0.79303 0.6545 0.0
C1044 C 0.21943 0.29996 0.31389 0.0
C1045 C 0.23935 0.2902 0.32673 0.0
C1046 C 0.20134 0.28751 0.30172 0.0
C1047 C 0.17558 0.23164 0.29853 0.0
H1048 H 0.14009 0.25466 0.24332 0.0
C1049 C 0.09325 0.18515 0.25454 0.0
C1050 C 0.0704 0.19662 0.25758 0.0
C1051 C 0.11693 0.19572 0.2563 0.0
C1052 C 0.15009 0.24795 0.25854 0.0
H1053 H 0.25656 0.2599 0.33647 0.0
H1054 H 0.22573 0.23803 0.31439 0.0
H1055 H 0.17624 0.27437 0.26041 0.0
H1056 H 0.05394 0.22804 0.26281 0.0
H1057 H 0.09522 0.24669 0.26475 0.0
H1058 H 0.14937 0.20517 0.29644 0.0
C1059 C 0.22336 0.25527 0.31431 0.0
C1060 C 0.1706 0.25934 0.26859 0.0
C1061 C 0.24113 0.26776 0.32692 0.0
C1062 C 0.07139 0.21898 0.26004 0.0
C1063 C 0.09498 0.22961 0.26122 0.0
C1064 C 0.15545 0.22007 0.28817 0.0
C1065 C 0.20305 0.26494 0.30164 0.0
C1066 C 0.18317 0.25167 0.28919 0.0
C1067 C 0.11795 0.21792 0.26062 0.0
C1068 C 0.1421 0.22836 0.26846 0.0
H1069 H 0.2176 0.31727 0.31362 0.0
H1070 H 0.18574 0.29566 0.29277 0.0
H1071 H 0.18431 0.22524 0.31455 0.0
H1072 H 0.09286 0.16782 0.25302 0.0
H1073 H 0.13441 0.18638 0.25575 0.0
C1074 C 0.33633 0.18148 0.86396 0.0
C1075 C 0.3116 0.18312 0.85411 0.0
C1076 C 0.35793 0.18722 0.85058 0.0
C1077 C 0.37953 0.19985 0.78855 0.0
H1078 H 0.42994 0.2352 0.82089 0.0
C1079 C 0.43463 0.26885 0.74583 0.0
C1080 C 0.45805 0.27549 0.75575 0.0
C1081 C 0.42254 0.25024 0.75402 0.0
C1082 C 0.41652 0.22487 0.8116 0.0
H1083 H 0.29018 0.1921 0.82247 0.0
H1084 H 0.32766 0.20248 0.79934 0.0
H1085 H 0.39656 0.21758 0.84385 0.0
H1086 H 0.48861 0.26697 0.78005 0.0
H1087 H 0.4676 0.23417 0.79436 0.0
H1088 H 0.39879 0.20828 0.75609 0.0
C1089 C 0.33054 0.19624 0.81717 0.0
C1090 C 0.39723 0.21479 0.82482 0.0
C1091 C 0.30899 0.1904 0.8305 0.0
C1092 C 0.47071 0.26195 0.77189 0.0
C1093 C 0.45849 0.24337 0.78032 0.0
C1094 C 0.39879 0.21003 0.7753 0.0
C1095 C 0.35531 0.19486 0.82707 0.0
C1096 C 0.37797 0.20274 0.81339 0.0
C1097 C 0.43354 0.23811 0.77256 0.0
C1098 C 0.41702 0.22323 0.7866 0.0
H1099 H 0.339 0.1756 0.88198 0.0
H1100 H 0.37671 0.18569 0.85869 0.0
H1101 H 0.36537 0.19027 0.77921 0.0
H1102 H 0.42437 0.27927 0.73364 0.0
H1103 H 0.40334 0.24677 0.74768 0.0
C1104 C 0.66669 0.18022 0.62995 0.0
C1105 C 0.68997 0.18139 0.64257 0.0
C1106 C 0.64402 0.18783 0.64003 0.0
C1107 C 0.61314 0.20508 0.6963 0.0
H1108 H 0.57565 0.24315 0.65422 0.0
C1109 C 0.54559 0.2722 0.72858 0.0
C1110 C 0.5272 0.28012 0.7126 0.0
C1111 C 0.56086 0.25469 0.72224 0.0
C1112 C 0.58531 0.23215 0.66617 0.0
H1113 H 0.70747 0.19069 0.67611 0.0
H1114 H 0.66779 0.2041 0.69372 0.0
H1115 H 0.6117 0.22323 0.63893 0.0
H1116 H 0.50826 0.27495 0.67879 0.0
H1117 H 0.53354 0.24349 0.66833 0.0
H1118 H 0.58688 0.21445 0.72372 0.0
C1119 C 0.66709 0.19711 0.67607 0.0
C1120 C 0.60619 0.22077 0.65735 0.0
C1121 C 0.68984 0.18948 0.66596 0.0
C1122 C 0.52226 0.26895 0.69144 0.0
C1123 C 0.53708 0.25118 0.68532 0.0
C1124 C 0.59201 0.2164 0.70515 0.0
C1125 C 0.64404 0.19679 0.66299 0.0
C1126 C 0.62061 0.20735 0.67234 0.0
C1127 C 0.55773 0.24474 0.69988 0.0
C1128 C 0.57803 0.23035 0.69025 0.0
H1129 H 0.66601 0.17359 0.61213 0.0
H1130 H 0.6265 0.18699 0.62966 0.0
H1131 H 0.62376 0.19469 0.70824 0.0
H1132 H 0.54997 0.28086 0.74482 0.0
H1133 H 0.57654 0.2503 0.73393 0.0
C1134 C 0.79764 0.29798 0.14278 0.0
C1135 C 0.77583 0.30509 0.15509 0.0
C1136 C 0.81537 0.2845 0.15381 0.0
C1137 C 0.84077 0.26536 0.2111 0.0
H1138 H 0.86357 0.21779 0.1722 0.0
C1139 C 0.91514 0.1986 0.24001 0.0
C1140 C 0.93353 0.19424 0.22237 0.0
C1141 C 0.89451 0.21244 0.23506 0.0
C1142 C 0.85745 0.23101 0.1833 0.0
H1143 H 0.75614 0.30418 0.18911 0.0
H1144 H 0.78751 0.28061 0.20856 0.0
H1145 H 0.83003 0.24133 0.15741 0.0
H1146 H 0.94564 0.2021 0.18638 0.0
H1147 H 0.91022 0.22596 0.17796 0.0
H1148 H 0.86886 0.25501 0.23683 0.0
C1149 C 0.79068 0.28552 0.19026 0.0
C1150 C 0.83826 0.24452 0.17481 0.0
C1151 C 0.77276 0.29903 0.17913 0.0
C1152 C 0.93159 0.20476 0.20026 0.0
C1153 C 0.91121 0.21842 0.19537 0.0
C1154 C 0.86016 0.25173 0.21966 0.0
C1155 C 0.8119 0.27778 0.17752 0.0
C1156 C 0.8302 0.26223 0.18825 0.0
C1157 C 0.89203 0.22198 0.21239 0.0
C1158 C 0.8692 0.23481 0.20547 0.0
H1159 H 0.80105 0.3028 0.12449 0.0
H1160 H 0.83186 0.27924 0.14368 0.0
H1161 H 0.83487 0.27886 0.22188 0.0
H1162 H 0.91605 0.19066 0.25714 0.0
H1163 H 0.88001 0.21497 0.24855 0.0
C1164 C 0.76602 0.72884 0.68082 0.0
C1165 C 0.76917 0.70677 0.68509 0.0
C1166 C 0.78314 0.74377 0.6906 0.0
C1167 C 0.83249 0.75086 0.7378 0.0
H1168 H 0.85639 0.79671 0.69666 0.0
C1169 C 0.92277 0.8037 0.75652 0.0
C1170 C 0.92284 0.82455 0.74702 0.0
C1171 C 0.90148 0.79021 0.75299 0.0
C1172 C 0.84959 0.78429 0.70864 0.0
H1173 H 0.79314 0.68314 0.70273 0.0
H1174 H 0.82292 0.70917 0.71974 0.0
H1175 H 0.82458 0.77153 0.68194 0.0
H1176 H 0.90001 0.84853 0.72889 0.0
H1177 H 0.86262 0.82554 0.72376 0.0
H1178 H 0.85793 0.76359 0.76442 0.0
C1179 C 0.80694 0.71496 0.70919 0.0
C1180 C 0.83134 0.76978 0.70011 0.0
C1181 C 0.78986 0.70003 0.69939 0.0
C1182 C 0.9005 0.83241 0.73615 0.0
C1183 C 0.8792 0.81914 0.73298 0.0
C1184 C 0.85078 0.76548 0.7464 0.0
C1185 C 0.80383 0.73701 0.70487 0.0
C1186 C 0.82262 0.75283 0.71451 0.0
C1187 C 0.87993 0.79753 0.74015 0.0
C1188 C 0.85958 0.78238 0.73189 0.0
H1189 H 0.75008 0.73462 0.67022 0.0
H1190 H 0.78001 0.76067 0.68715 0.0
H1191 H 0.82597 0.73807 0.74944 0.0
H1192 H 0.93986 0.79727 0.76487 0.0
H1193 H 0.9027 0.77367 0.75882 0.0
C1194 C 0.72639 0.78668 0.1909 0.0
C1195 C 0.74392 0.77452 0.17767 0.0
C1196 C 0.7079 0.77664 0.20507 0.0
C1197 C 0.67407 0.72468 0.21324 0.0
H1198 H 0.64964 0.75251 0.27062 0.0
C1199 C 0.58821 0.69043 0.26458 0.0
C1200 C 0.56816 0.70543 0.26552 0.0
C1201 C 0.61333 0.69722 0.25986 0.0
C1202 C 0.65642 0.74447 0.25475 0.0
H1203 H 0.75608 0.74226 0.16914 0.0
H1204 H 0.7241 0.72459 0.19432 0.0
H1205 H 0.68674 0.7672 0.24963 0.0
H1206 H 0.55904 0.7393 0.26498 0.0
H1207 H 0.6029 0.75116 0.25752 0.0
H1208 H 0.64353 0.70209 0.21831 0.0
C1209 C 0.72426 0.74194 0.1934 0.0
C1210 C 0.67753 0.75297 0.24255 0.0
C1211 C 0.74262 0.75203 0.17897 0.0
C1212 C 0.57413 0.7274 0.26433 0.0
C1213 C 0.59926 0.73419 0.26004 0.0
C1214 C 0.65318 0.71604 0.22561 0.0
C1215 C 0.70658 0.75412 0.20662 0.0
C1216 C 0.68618 0.74357 0.22122 0.0
C1217 C 0.61887 0.71912 0.25653 0.0
C1218 C 0.6437 0.72616 0.24614 0.0
H1219 H 0.7267 0.80405 0.18999 0.0
H1220 H 0.69427 0.78661 0.21442 0.0
H1221 H 0.67988 0.71709 0.19678 0.0
H1222 H 0.58418 0.67338 0.2653 0.0
H1223 H 0.62815 0.68528 0.25749 0.0
C1224 C 0.27352 0.80624 0.32487 0.0
C1225 C 0.27721 0.81847 0.34555 0.0
C1226 C 0.29441 0.79709 0.31317 0.0
C1227 C 0.36288 0.78241 0.32285 0.0
H1228 H 0.35951 0.7706 0.25504 0.0
C1229 C 0.44274 0.73598 0.27526 0.0
C1230 C 0.43287 0.71634 0.26713 0.0
C1231 C 0.42609 0.75289 0.28057 0.0
C1232 C 0.3608 0.77405 0.27393 0.0
H1233 H 0.30548 0.8313 0.36997 0.0
H1234 H 0.34223 0.81617 0.34906 0.0
H1235 H 0.32595 0.79198 0.27368 0.0
H1236 H 0.39854 0.69929 0.2564 0.0
H1237 H 0.36958 0.72913 0.26457 0.0
H1238 H 0.39787 0.76451 0.32287 0.0
C1239 C 0.32319 0.81293 0.3422 0.0
C1240 C 0.34144 0.78606 0.28474 0.0
C1241 C 0.30219 0.8217 0.35418 0.0
C1242 C 0.40654 0.71442 0.26239 0.0
C1243 C 0.39001 0.73146 0.26709 0.0
C1244 C 0.38249 0.77082 0.31193 0.0
C1245 C 0.3196 0.80034 0.3216 0.0
C1246 C 0.34178 0.78985 0.30951 0.0
C1247 C 0.3995 0.75047 0.27724 0.0
C1248 C 0.38128 0.76606 0.28751 0.0
H1249 H 0.25437 0.8034 0.318 0.0
H1250 H 0.29063 0.78709 0.29781 0.0
H1251 H 0.36379 0.78461 0.34196 0.0
H1252 H 0.46295 0.73763 0.27942 0.0
H1253 H 0.43379 0.76741 0.28842 0.0
C1254 C 0.23266 0.73166 0.84984 0.0
C1255 C 0.23266 0.70945 0.8455 0.0
C1256 C 0.21535 0.74511 0.83795 0.0
C1257 C 0.15312 0.74447 0.80611 0.0
H1258 H 0.17433 0.80122 0.78552 0.0
C1259 C 0.08013 0.8034 0.76524 0.0
C1260 C 0.08031 0.8234 0.7767 0.0
C1261 C 0.1009 0.78933 0.76802 0.0
C1262 C 0.1681 0.7854 0.79112 0.0
H1263 H 0.214 0.68398 0.82556 0.0
H1264 H 0.18419 0.70743 0.80465 0.0
H1265 H 0.20586 0.77681 0.80274 0.0
H1266 H 0.10302 0.84513 0.79829 0.0
H1267 H 0.13906 0.82093 0.80294 0.0
H1268 H 0.11524 0.75326 0.7951 0.0
C1269 C 0.19748 0.71447 0.81729 0.0
C1270 C 0.18615 0.77145 0.80112 0.0
C1271 C 0.21478 0.70104 0.82913 0.0
C1272 C 0.10237 0.82977 0.78928 0.0
C1273 C 0.12311 0.8159 0.79186 0.0
C1274 C 0.13507 0.75843 0.79611 0.0
C1275 C 0.19756 0.73669 0.8215 0.0
C1276 C 0.17879 0.75096 0.8092 0.0
C1277 C 0.12225 0.79518 0.78208 0.0
C1278 C 0.14221 0.77925 0.78897 0.0
H1279 H 0.24628 0.7387 0.86217 0.0
H1280 H 0.21572 0.76211 0.8419 0.0
H1281 H 0.14668 0.7289 0.81232 0.0
H1282 H 0.06329 0.79805 0.75557 0.0
H1283 H 0.0998 0.77356 0.76001 0.0
loop_
_geom_bond_atom_site_label_1
_geom_bond_atom_site_label_2
_geom_bond_distance
_geom_bond_site_symmetry_2
_ccdc_geom_bond_type
C0 C1 1.391 . S
C0 C4 1.391 . S
C0 H42 0.948 . S
C1 C0 1.391 . S
C1 C2 1.391 . S
C2 C1 1.391 . S
C2 H58 0.947 . S
C2 C59 1.392 . S
C3 C4 1.391 . S
C3 C7 1.397 . S
C3 C59 1.419 . S
C4 C0 1.391 . S
C4 C3 1.391 . S
C4 C5 1.399 . S
C5 C4 1.399 . S
C5 C8 1.396 . S
C5 C17 1.453 . S
C5 C18 1.684 . S
H6 C30 0.948 . S
C7 C3 1.397 . S
C7 C8 1.394 . S
C7 C26 1.723 . S
C8 C5 1.396 . S
C8 C7 1.394 . S
C8 C38 1.723 . S
H9 C32 0.947 . S
H10 C33 0.948 . S
H11 C39 0.982 . S
H12 C40 0.979 . S
H13 C40 0.980 . S
H14 C40 0.983 . S
H15 C39 0.979 . S
H16 C39 0.977 . S
C17 C5 1.453 . S
C17 H46 0.982 . S
C17 H47 0.979 . S
C17 H48 0.977 . S
C18 C5 1.684 . S
C18 H43 0.979 . S
C18 H44 0.980 . S
C18 H45 0.983 . S
C19 C20 1.391 . S
C19 C24 1.391 . S
C19 H49 0.948 . S
C20 C19 1.391 . S
C20 C21 1.391 . S
C21 C20 1.391 . S
C21 C22 1.392 . S
C21 H50 0.947 . S
C22 C21 1.392 . S
C22 C23 1.419 . S
C22 H51 0.948 . S
C23 C22 1.419 . S
C23 C24 1.391 . S
C23 C27 1.397 . S
C24 C19 1.391 . S
C24 C23 1.391 . S
C24 C25 1.399 . S
C25 C24 1.399 . S
C25 C26 1.396 . S
C25 C28 1.453 . S
C25 C29 1.684 . S
C26 C7 1.723 . S
C26 C25 1.396 . S
C26 C27 1.394 . S
C27 C23 1.397 . S
C27 C26 1.394 . S
C27 C37 1.723 . S
C28 C25 1.453 . S
C28 H52 0.982 . S
C28 H53 0.979 . S
C28 H54 0.977 . S
C29 C25 1.684 . S
C29 H55 0.979 . S
C29 H56 0.980 . S
C29 H57 0.983 . S
C30 H6 0.948 . S
C30 C31 1.391 . S
C30 C35 1.391 . S
C31 C30 1.391 . S
C31 C32 1.391 . S
C32 H9 0.947 . S
C32 C31 1.391 . S
C32 C33 1.392 . S
C33 H10 0.948 . S
C33 C32 1.392 . S
C33 C34 1.419 . S
C34 C33 1.419 . S
C34 C35 1.391 . S
C34 C38 1.397 . S
C35 C30 1.391 . S
C35 C34 1.391 . S
C35 C36 1.399 . S
C36 C35 1.399 . S
C36 C37 1.396 . S
C36 C39 1.453 . S
C36 C40 1.684 . S
C37 C27 1.723 . S
C37 C36 1.396 . S
C37 C38 1.394 . S
C38 C8 1.723 . S
C38 C34 1.397 . S
C38 C37 1.394 . S
C39 H11 0.982 . S
C39 H15 0.979 . S
C39 H16 0.977 . S
C39 C36 1.453 . S
C40 H12 0.979 . S
C40 H13 0.980 . S
C40 H14 0.983 . S
C40 C36 1.684 . S
H41 C59 0.948 . S
H42 C0 0.948 . S
H43 C18 0.979 . S
H44 C18 0.980 . S
H45 C18 0.983 . S
H46 C17 0.982 . S
H47 C17 0.979 . S
H48 C17 0.977 . S
H49 C19 0.948 . S
H50 C21 0.947 . S
H51 C22 0.948 . S
H52 C28 0.982 . S
H53 C28 0.979 . S
H54 C28 0.977 . S
H55 C29 0.979 . S
H56 C29 0.980 . S
H57 C29 0.983 . S
H58 C2 0.947 . S
C59 C2 1.392 . S
C59 C3 1.419 . S
C59 H41 0.948 . S
C60 C61 1.391 . S
C60 C64 1.391 . S
C60 H102 0.948 . S
C61 C60 1.391 . S
C61 C62 1.391 . S
C62 C61 1.391 . S
C62 H118 0.947 . S
C62 C119 1.392 . S
C63 C64 1.391 . S
C63 C67 1.397 . S
C63 C119 1.419 . S
C64 C60 1.391 . S
C64 C63 1.391 . S
C64 C65 1.399 . S
C65 C64 1.399 . S
C65 C68 1.396 . S
C65 C77 1.453 . S
C65 C78 1.684 . S
H66 C90 0.948 . S
C67 C63 1.397 . S
C67 C68 1.394 . S
C67 C86 1.723 . S
C68 C65 1.396 . S
C68 C67 1.394 . S
C68 C98 1.723 . S
H69 C92 0.947 . S
H70 C93 0.948 . S
H71 C99 0.982 . S
H72 C100 0.979 . S
H73 C100 0.980 . S
H74 C100 0.983 . S
H75 C99 0.979 . S
H76 C99 0.977 . S
C77 C65 1.453 . S
C77 H106 0.982 . S
C77 H107 0.979 . S
C77 H108 0.977 . S
C78 C65 1.684 . S
C78 H103 0.979 . S
C78 H104 0.980 . S
C78 H105 0.983 . S
C79 C80 1.391 . S
C79 C84 1.391 . S
C79 H109 0.948 . S
C80 C79 1.391 . S
C80 C81 1.391 . S
C81 C80 1.391 . S
C81 C82 1.392 . S
C81 H110 0.947 . S
C82 C81 1.392 . S
C82 C83 1.419 . S
C82 H111 0.948 . S
C83 C82 1.419 . S
C83 C84 1.391 . S
C83 C87 1.397 . S
C84 C79 1.391 . S
C84 C83 1.391 . S
C84 C85 1.399 . S
C85 C84 1.399 . S
C85 C86 1.396 . S
C85 C88 1.453 . S
C85 C89 1.684 . S
C86 C67 1.723 . S
C86 C85 1.396 . S
C86 C87 1.394 . S
C87 C83 1.397 . S
C87 C86 1.394 . S
C87 C97 1.723 . S
C88 C85 1.453 . S
C88 H112 0.982 . S
C88 H113 0.979 . S
C88 H114 0.977 . S
C89 C85 1.684 . S
C89 H115 0.979 . S
C89 H116 0.980 . S
C89 H117 0.983 . S
C90 H66 0.948 . S
C90 C91 1.391 . S
C90 C95 1.391 . S
C91 C90 1.391 . S
C91 C92 1.391 . S
C92 H69 0.947 . S
C92 C91 1.391 . S
C92 C93 1.392 . S
C93 H70 0.948 . S
C93 C92 1.392 . S
C93 C94 1.419 . S
C94 C93 1.419 . S
C94 C95 1.391 . S
C94 C98 1.397 . S
C95 C90 1.391 . S
C95 C94 1.391 . S
C95 C96 1.399 . S
C96 C95 1.399 . S
C96 C97 1.396 . S
C96 C99 1.453 . S
C96 C100 1.684 . S
C97 C87 1.723 . S
C97 C96 1.396 . S
C97 C98 1.394 . S
C98 C68 1.723 . S
C98 C94 1.397 . S
C98 C97 1.394 . S
C99 H71 0.982 . S
C99 H75 0.979 . S
C99 H76 0.977 . S
C99 C96 1.453 . S
C100 H72 0.979 . S
C100 H73 0.980 . S
C100 H74 0.983 . S
C100 C96 1.684 . S
H101 C119 0.948 . S
H102 C60 0.948 . S
H103 C78 0.979 . S
H104 C78 0.980 . S
H105 C78 0.983 . S
H106 C77 0.982 . S
H107 C77 0.979 . S
H108 C77 0.977 . S
H109 C79 0.948 . S
H110 C81 0.947 . S
H111 C82 0.948 . S
H112 C88 0.982 . S
H113 C88 0.979 . S
H114 C88 0.977 . S
H115 C89 0.979 . S
H116 C89 0.980 . S
H117 C89 0.983 . S
H118 C62 0.947 . S
C119 C62 1.392 . S
C119 C63 1.419 . S
C119 H101 0.948 . S
C120 C121 1.391 . S
C120 C124 1.391 . S
C120 H162 0.948 . S
C121 C120 1.391 . S
C121 C122 1.391 . S
C122 C121 1.391 . S
C122 H178 0.947 . S
C122 C179 1.392 . S
C123 C124 1.391 . S
C123 C127 1.397 . S
C123 C179 1.419 . S
C124 C120 1.391 . S
C124 C123 1.391 . S
C124 C125 1.399 . S
C125 C124 1.399 . S
C125 C128 1.396 . S
C125 C137 1.453 . S
C125 C138 1.684 . S
H126 C150 0.948 . S
C127 C123 1.397 . S
C127 C128 1.394 . S
C127 C146 1.723 . S
C128 C125 1.396 . S
C128 C127 1.394 . S
C128 C158 1.723 . S
H129 C152 0.947 . S
H130 C153 0.948 . S
H131 C159 0.982 . S
H132 C160 0.979 . S
H133 C160 0.980 . S
H134 C160 0.983 . S
H135 C159 0.979 . S
H136 C159 0.977 . S
C137 C125 1.453 . S
C137 H166 0.982 . S
C137 H167 0.979 . S
C137 H168 0.977 . S
C138 C125 1.684 . S
C138 H163 0.979 . S
C138 H164 0.980 . S
C138 H165 0.983 . S
C139 C140 1.391 . S
C139 C144 1.391 . S
C139 H169 0.948 . S
C140 C139 1.391 . S
C140 C141 1.391 . S
C141 C140 1.391 . S
C141 C142 1.392 . S
C141 H170 0.947 . S
C142 C141 1.392 . S
C142 C143 1.419 . S
C142 H171 0.948 . S
C143 C142 1.419 . S
C143 C144 1.391 . S
C143 C147 1.397 . S
C144 C139 1.391 . S
C144 C143 1.391 . S
C144 C145 1.399 . S
C145 C144 1.399 . S
C145 C146 1.396 . S
C145 C148 1.453 . S
C145 C149 1.684 . S
C146 C127 1.723 . S
C146 C145 1.396 . S
C146 C147 1.394 . S
C147 C143 1.397 . S
C147 C146 1.394 . S
C147 C157 1.723 . S
C148 C145 1.453 . S
C148 H172 0.982 . S
C148 H173 0.979 . S
C148 H174 0.977 . S
C149 C145 1.684 . S
C149 H175 0.979 . S
C149 H176 0.980 . S
C149 H177 0.983 . S
C150 H126 0.948 . S
C150 C151 1.391 . S
C150 C155 1.391 . S
C151 C150 1.391 . S
C151 C152 1.391 . S
C152 H129 0.947 . S
C152 C151 1.391 . S
C152 C153 1.392 . S
C153 H130 0.948 . S
C153 C152 1.392 . S
C153 C154 1.419 . S
C154 C153 1.419 . S
C154 C155 1.391 . S
C154 C158 1.397 . S
C155 C150 1.391 . S
C155 C154 1.391 . S
C155 C156 1.399 . S
C156 C155 1.399 . S
C156 C157 1.396 . S
C156 C159 1.453 . S
C156 C160 1.684 . S
C157 C147 1.723 . S
C157 C156 1.396 . S
C157 C158 1.394 . S
C158 C128 1.723 . S
C158 C154 1.397 . S
C158 C157 1.394 . S
C159 H131 0.982 . S
C159 H135 0.979 . S
C159 H136 0.977 . S
C159 C156 1.453 . S
C160 H132 0.979 . S
C160 H133 0.980 . S
C160 H134 0.983 . S
C160 C156 1.684 . S
H161 C179 0.948 . S
H162 C120 0.948 . S
H163 C138 0.979 . S
H164 C138 0.980 . S
H165 C138 0.983 . S
H166 C137 0.982 . S
H167 C137 0.979 . S
H168 C137 0.977 . S
H169 C139 0.948 . S
H170 C141 0.947 . S
H171 C142 0.948 . S
H172 C148 0.982 . S
H173 C148 0.979 . S
H174 C148 0.977 . S
H175 C149 0.979 . S
H176 C149 0.980 . S
H177 C149 0.983 . S
H178 C122 0.947 . S
C179 C122 1.392 . S
C179 C123 1.419 . S
C179 H161 0.948 . S
C180 C181 1.391 . S
C180 C184 1.391 . S
C180 H222 0.948 . S
C181 C180 1.391 . S
C181 C182 1.391 . S
C182 C181 1.391 . S
C182 H238 0.947 . S
C182 C239 1.392 . S
C183 C184 1.391 . S
C183 C187 1.397 . S
C183 C239 1.419 . S
C184 C180 1.391 . S
C184 C183 1.391 . S
C184 C185 1.399 . S
C185 C184 1.399 . S
C185 C188 1.396 . S
C185 C197 1.453 . S
C185 C198 1.684 . S
H186 C210 0.948 . S
C187 C183 1.397 . S
C187 C188 1.394 . S
C187 C206 1.723 . S
C188 C185 1.396 . S
C188 C187 1.394 . S
C188 C218 1.723 . S
H189 C212 0.947 . S
H190 C213 0.948 . S
H191 C219 0.982 . S
H192 C220 0.979 . S
H193 C220 0.980 . S
H194 C220 0.983 . S
H195 C219 0.979 . S
H196 C219 0.977 . S
C197 C185 1.453 . S
C197 H226 0.982 . S
C197 H227 0.979 . S
C197 H228 0.977 . S
C198 C185 1.684 . S
C198 H223 0.979 . S
C198 H224 0.980 . S
C198 H225 0.983 . S
C199 C200 1.391 . S
C199 C204 1.391 . S
C199 H229 0.948 . S
C200 C199 1.391 . S
C200 C201 1.391 . S
C201 C200 1.391 . S
C201 C202 1.392 . S
C201 H230 0.947 . S
C202 C201 1.392 . S
C202 C203 1.419 . S
C202 H231 0.948 . S
C203 C202 1.419 . S
C203 C204 1.391 . S
C203 C207 1.397 . S
C204 C199 1.391 . S
C204 C203 1.391 . S
C204 C205 1.399 . S
C205 C204 1.399 . S
C205 C206 1.396 . S
C205 C208 1.453 . S
C205 C209 1.684 . S
C206 C187 1.723 . S
C206 C205 1.396 . S
C206 C207 1.394 . S
C207 C203 1.397 . S
C207 C206 1.394 . S
C207 C217 1.723 . S
C208 C205 1.453 . S
C208 H232 0.982 . S
C208 H233 0.979 . S
C208 H234 0.977 . S
C209 C205 1.684 . S
C209 H235 0.979 . S
C209 H236 0.980 . S
C209 H237 0.983 . S
C210 H186 0.948 . S
C210 C211 1.391 . S
C210 C215 1.391 . S
C211 C210 1.391 . S
C211 C212 1.391 . S
C212 H189 0.947 . S
C212 C211 1.391 . S
C212 C213 1.392 . S
C213 H190 0.948 . S
C213 C212 1.392 . S
C213 C214 1.419 . S
C214 C213 1.419 . S
C214 C215 1.391 . S
C214 C218 1.397 . S
C215 C210 1.391 . S
C215 C214 1.391 . S
C215 C216 1.399 . S
C216 C215 1.399 . S
C216 C217 1.396 . S
C216 C219 1.453 . S
C216 C220 1.684 . S
C217 C207 1.723 . S
C217 C216 1.396 . S
C217 C218 1.394 . S
C218 C188 1.723 . S
C218 C214 1.397 . S
C218 C217 1.394 . S
C219 H191 0.982 . S
C219 H195 0.979 . S
C219 H196 0.977 . S
C219 C216 1.453 . S
C220 H192 0.979 . S
C220 H193 0.980 . S
C220 H194 0.983 . S
C220 C216 1.684 . S
H221 C239 0.948 . S
H222 C180 0.948 . S
H223 C198 0.979 . S
H224 C198 0.980 . S
H225 C198 0.983 . S
H226 C197 0.982 . S
H227 C197 0.979 . S
H228 C197 0.977 . S
H229 C199 0.948 . S
H230 C201 0.947 . S
H231 C202 0.948 . S
H232 C208 0.982 . S
H233 C208 0.979 . S
H234 C208 0.977 . S
H235 C209 0.979 . S
H236 C209 0.980 . S
H237 C209 0.983 . S
H238 C182 0.947 . S
C239 C182 1.392 . S
C239 C183 1.419 . S
C239 H221 0.948 . S
C240 C241 1.391 . S
C240 C244 1.391 . S
C240 H282 0.948 . S
C241 C240 1.391 . S
C241 C242 1.391 . S
C242 C241 1.391 . S
C242 H298 0.947 . S
C242 C299 1.392 . S
C243 C244 1.391 . S
C243 C247 1.397 . S
C243 C299 1.419 . S
C244 C240 1.391 . S
C244 C243 1.391 . S
C244 C245 1.399 . S
C245 C244 1.399 . S
C245 C248 1.396 . S
C245 C257 1.453 . S
C245 C258 1.684 . S
H246 C270 0.948 . S
C247 C243 1.397 . S
C247 C248 1.394 . S
C247 C266 1.723 . S
C248 C245 1.396 . S
C248 C247 1.394 . S
C248 C278 1.723 . S
H249 C272 0.947 . S
H250 C273 0.948 . S
H251 C279 0.982 . S
H252 C280 0.979 . S
H253 C280 0.980 . S
H254 C280 0.983 . S
H255 C279 0.979 . S
H256 C279 0.977 . S
C257 C245 1.453 . S
C257 H286 0.982 . S
C257 H287 0.979 . S
C257 H288 0.977 . S
C258 C245 1.684 . S
C258 H283 0.979 . S
C258 H284 0.980 . S
C258 H285 0.983 . S
C259 C260 1.391 . S
C259 C264 1.391 . S
C259 H289 0.948 . S
C260 C259 1.391 . S
C260 C261 1.391 . S
C261 C260 1.391 . S
C261 C262 1.392 . S
C261 H290 0.947 . S
C262 C261 1.392 . S
C262 C263 1.419 . S
C262 H291 0.948 . S
C263 C262 1.419 . S
C263 C264 1.391 . S
C263 C267 1.397 . S
C264 C259 1.391 . S
C264 C263 1.391 . S
C264 C265 1.399 . S
C265 C264 1.399 . S
C265 C266 1.396 . S
C265 C268 1.453 . S
C265 C269 1.684 . S
C266 C247 1.723 . S
C266 C265 1.396 . S
C266 C267 1.394 . S
C267 C263 1.397 . S
C267 C266 1.394 . S
C267 C277 1.723 . S
C268 C265 1.453 . S
C268 H292 0.982 . S
C268 H293 0.979 . S
C268 H294 0.977 . S
C269 C265 1.684 . S
C269 H295 0.979 . S
C269 H296 0.980 . S
C269 H297 0.983 . S
C270 H246 0.948 . S
C270 C271 1.391 . S
C270 C275 1.391 . S
C271 C270 1.391 . S
C271 C272 1.391 . S
C272 H249 0.947 . S
C272 C271 1.391 . S
C272 C273 1.392 . S
C273 H250 0.948 . S
C273 C272 1.392 . S
C273 C274 1.419 . S
C274 C273 1.419 . S
C274 C275 1.391 . S
C274 C278 1.397 . S
C275 C270 1.391 . S
C275 C274 1.391 . S
C275 C276 1.399 . S
C276 C275 1.399 . S
C276 C277 1.396 . S
C276 C279 1.453 . S
C276 C280 1.684 . S
C277 C267 1.723 . S
C277 C276 1.396 . S
C277 C278 1.394 . S
C278 C248 1.723 . S
C278 C274 1.397 . S
C278 C277 1.394 . S
C279 H251 0.982 . S
C279 H255 0.979 . S
C279 H256 0.977 . S
C279 C276 1.453 . S
C280 H252 0.979 . S
C280 H253 0.980 . S
C280 H254 0.983 . S
C280 C276 1.684 . S
H281 C299 0.948 . S
H282 C240 0.948 . S
H283 C258 0.979 . S
H284 C258 0.980 . S
H285 C258 0.983 . S
H286 C257 0.982 . S
H287 C257 0.979 . S
H288 C257 0.977 . S
H289 C259 0.948 . S
H290 C261 0.947 . S
H291 C262 0.948 . S
H292 C268 0.982 . S
H293 C268 0.979 . S
H294 C268 0.977 . S
H295 C269 0.979 . S
H296 C269 0.980 . S
H297 C269 0.983 . S
H298 C242 0.947 . S
C299 C242 1.392 . S
C299 C243 1.419 . S
C299 H281 0.948 . S
C300 C301 1.391 . S
C300 C304 1.391 . S
C300 H342 0.948 . S
C301 C300 1.391 . S
C301 C302 1.391 . S
C302 C301 1.391 . S
C302 H358 0.947 . S
C302 C359 1.392 . S
C303 C304 1.391 . S
C303 C307 1.397 . S
C303 C359 1.419 . S
C304 C300 1.391 . S
C304 C303 1.391 . S
C304 C305 1.399 . S
C305 C304 1.399 . S
C305 C308 1.396 . S
C305 C317 1.453 . S
C305 C318 1.684 . S
H306 C330 0.948 . S
C307 C303 1.397 . S
C307 C308 1.394 . S
C307 C326 1.723 . S
C308 C305 1.396 . S
C308 C307 1.394 . S
C308 C338 1.723 . S
H309 C332 0.947 . S
H310 C333 0.948 . S
H311 C339 0.982 . S
H312 C340 0.979 . S
H313 C340 0.980 . S
H314 C340 0.983 . S
H315 C339 0.979 . S
H316 C339 0.977 . S
C317 C305 1.453 . S
C317 H346 0.982 . S
C317 H347 0.979 . S
C317 H348 0.977 . S
C318 C305 1.684 . S
C318 H343 0.979 . S
C318 H344 0.980 . S
C318 H345 0.983 . S
C319 C320 1.391 . S
C319 C324 1.391 . S
C319 H349 0.948 . S
C320 C319 1.391 . S
C320 C321 1.391 . S
C321 C320 1.391 . S
C321 C322 1.392 . S
C321 H350 0.947 . S
C322 C321 1.392 . S
C322 C323 1.419 . S
C322 H351 0.948 . S
C323 C322 1.419 . S
C323 C324 1.391 . S
C323 C327 1.397 . S
C324 C319 1.391 . S
C324 C323 1.391 . S
C324 C325 1.399 . S
C325 C324 1.399 . S
C325 C326 1.396 . S
C325 C328 1.453 . S
C325 C329 1.684 . S
C326 C307 1.723 . S
C326 C325 1.396 . S
C326 C327 1.394 . S
C327 C323 1.397 . S
C327 C326 1.394 . S
C327 C337 1.723 . S
C328 C325 1.453 . S
C328 H352 0.982 . S
C328 H353 0.979 . S
C328 H354 0.977 . S
C329 C325 1.684 . S
C329 H355 0.979 . S
C329 H356 0.980 . S
C329 H357 0.983 . S
C330 H306 0.948 . S
C330 C331 1.391 . S
C330 C335 1.391 . S
C331 C330 1.391 . S
C331 C332 1.391 . S
C332 H309 0.947 . S
C332 C331 1.391 . S
C332 C333 1.392 . S
C333 H310 0.948 . S
C333 C332 1.392 . S
C333 C334 1.419 . S
C334 C333 1.419 . S
C334 C335 1.391 . S
C334 C338 1.397 . S
C335 C330 1.391 . S
C335 C334 1.391 . S
C335 C336 1.399 . S
C336 C335 1.399 . S
C336 C337 1.396 . S
C336 C339 1.453 . S
C336 C340 1.684 . S
C337 C327 1.723 . S
C337 C336 1.396 . S
C337 C338 1.394 . S
C338 C308 1.723 . S
C338 C334 1.397 . S
C338 C337 1.394 . S
C339 H311 0.982 . S
C339 H315 0.979 . S
C339 H316 0.977 . S
C339 C336 1.453 . S
C340 H312 0.979 . S
C340 H313 0.980 . S
C340 H314 0.983 . S
C340 C336 1.684 . S
H341 C359 0.948 . S
H342 C300 0.948 . S
H343 C318 0.979 . S
H344 C318 0.980 . S
H345 C318 0.983 . S
H346 C317 0.982 . S
H347 C317 0.979 . S
H348 C317 0.977 . S
H349 C319 0.948 . S
H350 C321 0.947 . S
H351 C322 0.948 . S
H352 C328 0.982 . S
H353 C328 0.979 . S
H354 C328 0.977 . S
H355 C329 0.979 . S
H356 C329 0.980 . S
H357 C329 0.983 . S
H358 C302 0.947 . S
C359 C302 1.392 . S
C359 C303 1.419 . S
C359 H341 0.948 . S
C360 C361 1.391 . S
C360 C364 1.391 . S
C360 H402 0.948 . S
C361 C360 1.391 . S
C361 C362 1.391 . S
C362 C361 1.391 . S
C362 H418 0.947 . S
C362 C419 1.392 . S
C363 C364 1.391 . S
C363 C367 1.397 . S
C363 C419 1.419 . S
C364 C360 1.391 . S
C364 C363 1.391 . S
C364 C365 1.399 . S
C365 C364 1.399 . S
C365 C368 1.396 . S
C365 C377 1.453 . S
C365 C378 1.684 . S
H366 C390 0.948 . S
C367 C363 1.397 . S
C367 C368 1.394 . S
C367 C386 1.723 . S
C368 C365 1.396 . S
C368 C367 1.394 . S
C368 C398 1.723 . S
H369 C392 0.947 . S
H370 C393 0.948 . S
H371 C399 0.982 . S
H372 C400 0.979 . S
H373 C400 0.980 . S
H374 C400 0.983 . S
H375 C399 0.979 . S
H376 C399 0.977 . S
C377 C365 1.453 . S
C377 H406 0.982 . S
C377 H407 0.979 . S
C377 H408 0.977 . S
C378 C365 1.684 . S
C378 H403 0.979 . S
C378 H404 0.980 . S
C378 H405 0.983 . S
C379 C380 1.391 . S
C379 C384 1.391 . S
C379 H409 0.948 . S
C380 C379 1.391 . S
C380 C381 1.391 . S
C381 C380 1.391 . S
C381 C382 1.392 . S
C381 H410 0.947 . S
C382 C381 1.392 . S
C382 C383 1.419 . S
C382 H411 0.948 . S
C383 C382 1.419 . S
C383 C384 1.391 . S
C383 C387 1.397 . S
C384 C379 1.391 . S
C384 C383 1.391 . S
C384 C385 1.399 . S
C385 C384 1.399 . S
C385 C386 1.396 . S
C385 C388 1.453 . S
C385 C389 1.684 . S
C386 C367 1.723 . S
C386 C385 1.396 . S
C386 C387 1.394 . S
C387 C383 1.397 . S
C387 C386 1.394 . S
C387 C397 1.723 . S
C388 C385 1.453 . S
C388 H412 0.982 . S
C388 H413 0.979 . S
C388 H414 0.977 . S
C389 C385 1.684 . S
C389 H415 0.979 . S
C389 H416 0.980 . S
C389 H417 0.983 . S
C390 H366 0.948 . S
C390 C391 1.391 . S
C390 C395 1.391 . S
C391 C390 1.391 . S
C391 C392 1.391 . S
C392 H369 0.947 . S
C392 C391 1.391 . S
C392 C393 1.392 . S
C393 H370 0.948 . S
C393 C392 1.392 . S
C393 C394 1.419 . S
C394 C393 1.419 . S
C394 C395 1.391 . S
C394 C398 1.397 . S
C395 C390 1.391 . S
C395 C394 1.391 . S
C395 C396 1.399 . S
C396 C395 1.399 . S
C396 C397 1.396 . S
C396 C399 1.453 . S
C396 C400 1.684 . S
C397 C387 1.723 . S
C397 C396 1.396 . S
C397 C398 1.394 . S
C398 C368 1.723 . S
C398 C394 1.397 . S
C398 C397 1.394 . S
C399 H371 0.982 . S
C399 H375 0.979 . S
C399 H376 0.977 . S
C399 C396 1.453 . S
C400 H372 0.979 . S
C400 H373 0.980 . S
C400 H374 0.983 . S
C400 C396 1.684 . S
H401 C419 0.948 . S
H402 C360 0.948 . S
H403 C378 0.979 . S
H404 C378 0.980 . S
H405 C378 0.983 . S
H406 C377 0.982 . S
H407 C377 0.979 . S
H408 C377 0.977 . S
H409 C379 0.948 . S
H410 C381 0.947 . S
H411 C382 0.948 . S
H412 C388 0.982 . S
H413 C388 0.979 . S
H414 C388 0.977 . S
H415 C389 0.979 . S
H416 C389 0.980 . S
H417 C389 0.983 . S
H418 C362 0.947 . S
C419 C362 1.392 . S
C419 C363 1.419 . S
C419 H401 0.948 . S
C420 C421 1.391 . S
C420 C424 1.391 . S
C420 H462 0.948 . S
C421 C420 1.391 . S
C421 C422 1.391 . S
C422 C421 1.391 . S
C422 H478 0.947 . S
C422 C479 1.392 . S
C423 C424 1.391 . S
C423 C427 1.397 . S
C423 C479 1.419 . S
C424 C420 1.391 . S
C424 C423 1.391 . S
C424 C425 1.399 . S
C425 C424 1.399 . S
C425 C428 1.396 . S
C425 C437 1.453 . S
C425 C438 1.684 . S
H426 C450 0.948 . S
C427 C423 1.397 . S
C427 C428 1.394 . S
C427 C446 1.723 . S
C428 C425 1.396 . S
C428 C427 1.394 . S
C428 C458 1.723 . S
H429 C452 0.947 . S
H430 C453 0.948 . S
H431 C459 0.982 . S
H432 C460 0.979 . S
H433 C460 0.980 . S
H434 C460 0.983 . S
H435 C459 0.979 . S
H436 C459 0.977 . S
C437 C425 1.453 . S
C437 H466 0.982 . S
C437 H467 0.979 . S
C437 H468 0.977 . S
C438 C425 1.684 . S
C438 H463 0.979 . S
C438 H464 0.980 . S
C438 H465 0.983 . S
C439 C440 1.391 . S
C439 C444 1.391 . S
C439 H469 0.948 . S
C440 C439 1.391 . S
C440 C441 1.391 . S
C441 C440 1.391 . S
C441 C442 1.392 . S
C441 H470 0.947 . S
C442 C441 1.392 . S
C442 C443 1.419 . S
C442 H471 0.948 . S
C443 C442 1.419 . S
C443 C444 1.391 . S
C443 C447 1.397 . S
C444 C439 1.391 . S
C444 C443 1.391 . S
C444 C445 1.399 . S
C445 C444 1.399 . S
C445 C446 1.396 . S
C445 C448 1.453 . S
C445 C449 1.684 . S
C446 C427 1.723 . S
C446 C445 1.396 . S
C446 C447 1.394 . S
C447 C443 1.397 . S
C447 C446 1.394 . S
C447 C457 1.723 . S
C448 C445 1.453 . S
C448 H472 0.982 . S
C448 H473 0.979 . S
C448 H474 0.977 . S
C449 C445 1.684 . S
C449 H475 0.979 . S
C449 H476 0.980 . S
C449 H477 0.983 . S
C450 H426 0.948 . S
C450 C451 1.391 . S
C450 C455 1.391 . S
C451 C450 1.391 . S
C451 C452 1.391 . S
C452 H429 0.947 . S
C452 C451 1.391 . S
C452 C453 1.392 . S
C453 H430 0.948 . S
C453 C452 1.392 . S
C453 C454 1.419 . S
C454 C453 1.419 . S
C454 C455 1.391 . S
C454 C458 1.397 . S
C455 C450 1.391 . S
C455 C454 1.391 . S
C455 C456 1.399 . S
C456 C455 1.399 . S
C456 C457 1.396 . S
C456 C459 1.453 . S
C456 C460 1.684 . S
C457 C447 1.723 . S
C457 C456 1.396 . S
C457 C458 1.394 . S
C458 C428 1.723 . S
C458 C454 1.397 . S
C458 C457 1.394 . S
C459 H431 0.982 . S
C459 H435 0.979 . S
C459 H436 0.977 . S
C459 C456 1.453 . S
C460 H432 0.979 . S
C460 H433 0.980 . S
C460 H434 0.983 . S
C460 C456 1.684 . S
H461 C479 0.948 . S
H462 C420 0.948 . S
H463 C438 0.979 . S
H464 C438 0.980 . S
H465 C438 0.983 . S
H466 C437 0.982 . S
H467 C437 0.979 . S
H468 C437 0.977 . S
H469 C439 0.948 . S
H470 C441 0.947 . S
H471 C442 0.948 . S
H472 C448 0.982 . S
H473 C448 0.979 . S
H474 C448 0.977 . S
H475 C449 0.979 . S
H476 C449 0.980 . S
H477 C449 0.983 . S
H478 C422 0.947 . S
C479 C422 1.392 . S
C479 C423 1.419 . S
C479 H461 0.948 . S
Zn480 O486 1.920 1_455 S
Zn480 O492 1.898 . S
Zn480 O495 1.905 . S
Zn481 O489 1.905 1_655 S
Zn481 O490 1.898 . S
Zn481 O498 1.920 . S
Zn482 O485 2.080 1_455 S
Zn482 O488 2.114 . S
Zn482 O491 2.120 1_455 S
Zn482 O493 2.120 . S
Zn482 O494 2.114 . S
Zn482 O497 2.080 1_455 S
C483 O488 1.166 . S
C483 O489 1.182 . S
C484 O490 1.167 . S
C484 O491 1.299 . S
O485 Zn482 2.080 1_655 S
O485 C499 1.305 . S
O486 Zn480 1.920 1_655 S
O486 C499 1.234 . S
C487 O492 1.167 . S
C487 O493 1.299 . S
O488 Zn482 2.114 . S
O488 C483 1.166 . S
O489 Zn481 1.905 1_455 S
O489 C483 1.182 . S
O490 Zn481 1.898 . S
O490 C484 1.167 . S
O491 Zn482 2.120 1_655 S
O491 C484 1.299 . S
O492 Zn480 1.898 . S
O492 C487 1.167 . S
O493 Zn482 2.120 . S
O493 C487 1.299 . S
O494 Zn482 2.114 . S
O494 C496 1.166 . S
O495 Zn480 1.905 . S
O495 C496 1.182 . S
C496 O494 1.166 . S
C496 O495 1.182 . S
O497 Zn482 2.080 1_655 S
O497 C500 1.305 . S
O498 Zn481 1.920 . S
O498 C500 1.234 . S
C499 O485 1.305 . S
C499 O486 1.234 . S
C500 O497 1.305 . S
C500 O498 1.234 . S
Zn501 O507 1.920 . S
Zn501 O513 1.898 . S
Zn501 O516 1.905 . S
Zn502 O510 1.905 . S
Zn502 O511 1.898 . S
Zn502 O519 1.920 . S
Zn503 O506 2.080 . S
Zn503 O509 2.114 . S
Zn503 O512 2.120 . S
Zn503 O514 2.120 . S
Zn503 O515 2.114 . S
Zn503 O518 2.080 . S
C504 O509 1.166 . S
C504 O510 1.182 . S
C505 O511 1.167 . S
C505 O512 1.299 . S
O506 Zn503 2.080 . S
O506 C520 1.305 . S
O507 Zn501 1.920 . S
O507 C520 1.234 . S
C508 O513 1.167 . S
C508 O514 1.299 . S
O509 Zn503 2.114 . S
O509 C504 1.166 . S
O510 Zn502 1.905 . S
O510 C504 1.182 . S
O511 Zn502 1.898 . S
O511 C505 1.167 . S
O512 Zn503 2.120 . S
O512 C505 1.299 . S
O513 Zn501 1.898 . S
O513 C508 1.167 . S
O514 Zn503 2.120 . S
O514 C508 1.299 . S
O515 Zn503 2.114 . S
O515 C517 1.166 . S
O516 Zn501 1.905 . S
O516 C517 1.182 . S
C517 O515 1.166 . S
C517 O516 1.182 . S
O518 Zn503 2.080 . S
O518 C521 1.305 . S
O519 Zn502 1.920 . S
O519 C521 1.234 . S
C520 O506 1.305 . S
C520 O507 1.234 . S
C521 O518 1.305 . S
C521 O519 1.234 . S
Zn522 O528 1.920 . S
Zn522 O534 1.898 . S
Zn522 O537 1.905 1_455 S
Zn523 O531 1.905 . S
Zn523 O532 1.898 . S
Zn523 O540 1.920 1_655 S
Zn524 O527 2.080 . S
Zn524 O530 2.114 1_455 S
Zn524 O533 2.120 1_455 S
Zn524 O535 2.120 . S
Zn524 O536 2.114 1_455 S
Zn524 O539 2.080 . S
C525 O530 1.166 . S
C525 O531 1.182 . S
C526 O532 1.167 . S
C526 O533 1.299 . S
O527 Zn524 2.080 . S
O527 C541 1.305 . S
O528 Zn522 1.920 . S
O528 C541 1.234 . S
C529 O534 1.167 . S
C529 O535 1.299 . S
O530 Zn524 2.114 1_655 S
O530 C525 1.166 . S
O531 Zn523 1.905 . S
O531 C525 1.182 . S
O532 Zn523 1.898 . S
O532 C526 1.167 . S
O533 Zn524 2.120 1_655 S
O533 C526 1.299 . S
O534 Zn522 1.898 . S
O534 C529 1.167 . S
O535 Zn524 2.120 . S
O535 C529 1.299 . S
O536 Zn524 2.114 1_655 S
O536 C538 1.166 . S
O537 Zn522 1.905 1_655 S
O537 C538 1.182 . S
C538 O536 1.166 . S
C538 O537 1.182 . S
O539 Zn524 2.080 . S
O539 C542 1.305 . S
O540 Zn523 1.920 1_455 S
O540 C542 1.234 . S
C541 O527 1.305 . S
C541 O528 1.234 . S
C542 O539 1.305 . S
C542 O540 1.234 . S
Zn543 O549 1.920 . S
Zn543 O555 1.898 . S
Zn543 O558 1.905 . S
Zn544 O552 1.905 . S
Zn544 O553 1.898 . S
Zn544 O561 1.920 . S
Zn545 O548 2.080 . S
Zn545 O551 2.114 . S
Zn545 O554 2.120 . S
Zn545 O556 2.120 . S
Zn545 O557 2.114 . S
Zn545 O560 2.080 . S
C546 O551 1.166 . S
C546 O552 1.182 . S
C547 O553 1.167 . S
C547 O554 1.299 . S
O548 Zn545 2.080 . S
O548 C562 1.305 . S
O549 Zn543 1.920 . S
O549 C562 1.234 . S
C550 O555 1.167 . S
C550 O556 1.299 . S
O551 Zn545 2.114 . S
O551 C546 1.166 . S
O552 Zn544 1.905 . S
O552 C546 1.182 . S
O553 Zn544 1.898 . S
O553 C547 1.167 . S
O554 Zn545 2.120 . S
O554 C547 1.299 . S
O555 Zn543 1.898 . S
O555 C550 1.167 . S
O556 Zn545 2.120 . S
O556 C550 1.299 . S
O557 Zn545 2.114 . S
O557 C559 1.166 . S
O558 Zn543 1.905 . S
O558 C559 1.182 . S
C559 O557 1.166 . S
C559 O558 1.182 . S
O560 Zn545 2.080 . S
O560 C563 1.305 . S
O561 Zn544 1.920 . S
O561 C563 1.234 . S
C562 O548 1.305 . S
C562 O549 1.234 . S
C563 O560 1.305 . S
C563 O561 1.234 . S
C564 C565 1.349 . S
C564 C566 1.327 . S
C564 H589 0.950 . S
C565 C564 1.349 . S
C565 C581 1.349 . S
C566 C564 1.327 . S
C566 C585 1.429 . S
C566 H590 0.950 . S
C567 C584 1.574 . S
C567 C586 1.368 1_545 S
C567 H591 0.949 . S
H568 C572 0.949 . S
C569 C570 1.349 . S
C569 C571 1.327 . S
C569 H592 0.950 . S
C570 C569 1.349 . S
C570 C582 1.349 . S
C571 C569 1.327 . S
C571 C587 1.429 . S
C571 H593 0.950 . S
C572 H568 0.949 . S
C572 C580 1.574 1_545 S
C572 C588 1.368 . S
H573 C581 0.950 . S
H574 C579 0.950 . S
H575 C580 0.949 . S
H576 C582 0.950 . S
H577 C583 0.950 . S
H578 C584 0.949 . S
C579 H574 0.950 . S
C579 C581 1.327 . S
C579 C585 1.429 . S
C580 C572 1.574 1_565 S
C580 H575 0.949 . S
C580 C586 1.368 . S
C581 C565 1.349 . S
C581 H573 0.950 . S
C581 C579 1.327 . S
C582 C570 1.349 . S
C582 H576 0.950 . S
C582 C583 1.327 . S
C583 H577 0.950 . S
C583 C582 1.327 . S
C583 C587 1.429 . S
C584 C567 1.574 . S
C584 H578 0.949 . S
C584 C588 1.368 . S
C585 C566 1.429 . S
C585 C579 1.429 . S
C585 C586 1.523 . S
C586 C567 1.368 1_565 S
C586 C580 1.368 . S
C586 C585 1.523 . S
C587 C571 1.429 . S
C587 C583 1.429 . S
C587 C588 1.523 . S
C588 C572 1.368 . S
C588 C584 1.368 . S
C588 C587 1.523 . S
H589 C564 0.950 . S
H590 C566 0.950 . S
H591 C567 0.949 . S
H592 C569 0.950 . S
H593 C571 0.950 . S
C594 C595 1.349 . S
C594 C596 1.327 . S
C594 H619 0.950 . S
C595 C594 1.349 . S
C595 C611 1.349 . S
C596 C594 1.327 . S
C596 C615 1.429 . S
C596 H620 0.950 . S
C597 C614 1.574 . S
C597 C616 1.368 . S
C597 H621 0.949 . S
H598 C602 0.949 . S
C599 C600 1.349 . S
C599 C601 1.327 . S
C599 H622 0.950 . S
C600 C599 1.349 . S
C600 C612 1.349 . S
C601 C599 1.327 . S
C601 C617 1.429 . S
C601 H623 0.950 . S
C602 H598 0.949 . S
C602 C610 1.574 . S
C602 C618 1.368 . S
H603 C611 0.950 . S
H604 C609 0.950 . S
H605 C610 0.949 . S
H606 C612 0.950 . S
H607 C613 0.950 . S
H608 C614 0.949 . S
C609 H604 0.950 . S
C609 C611 1.327 . S
C609 C615 1.429 . S
C610 C602 1.574 . S
C610 H605 0.949 . S
C610 C616 1.368 . S
C611 C595 1.349 . S
C611 H603 0.950 . S
C611 C609 1.327 . S
C612 C600 1.349 . S
C612 H606 0.950 . S
C612 C613 1.327 . S
C613 H607 0.950 . S
C613 C612 1.327 . S
C613 C617 1.429 . S
C614 C597 1.574 . S
C614 H608 0.949 . S
C614 C618 1.368 . S
C615 C596 1.429 . S
C615 C609 1.429 . S
C615 C616 1.523 . S
C616 C597 1.368 . S
C616 C610 1.368 . S
C616 C615 1.523 . S
C617 C601 1.429 . S
C617 C613 1.429 . S
C617 C618 1.523 . S
C618 C602 1.368 . S
C618 C614 1.368 . S
C618 C617 1.523 . S
H619 C594 0.950 . S
H620 C596 0.950 . S
H621 C597 0.949 . S
H622 C599 0.950 . S
H623 C601 0.950 . S
C624 C625 1.349 . S
C624 C626 1.327 . S
C624 H649 0.950 . S
C625 C624 1.349 . S
C625 C641 1.349 . S
C626 C624 1.327 . S
C626 C645 1.429 . S
C626 H650 0.950 . S
C627 C644 1.574 . S
C627 C646 1.368 . S
C627 H651 0.949 . S
H628 C632 0.949 . S
C629 C630 1.349 . S
C629 C631 1.327 . S
C629 H652 0.950 . S
C630 C629 1.349 . S
C630 C642 1.349 . S
C631 C629 1.327 . S
C631 C647 1.429 . S
C631 H653 0.950 . S
C632 H628 0.949 . S
C632 C640 1.574 . S
C632 C648 1.368 . S
H633 C641 0.950 . S
H634 C639 0.950 . S
H635 C640 0.949 . S
H636 C642 0.950 . S
H637 C643 0.950 . S
H638 C644 0.949 . S
C639 H634 0.950 . S
C639 C641 1.327 . S
C639 C645 1.429 . S
C640 C632 1.574 . S
C640 H635 0.949 . S
C640 C646 1.368 . S
C641 C625 1.349 . S
C641 H633 0.950 . S
C641 C639 1.327 . S
C642 C630 1.349 . S
C642 H636 0.950 . S
C642 C643 1.327 . S
C643 H637 0.950 . S
C643 C642 1.327 . S
C643 C647 1.429 . S
C644 C627 1.574 . S
C644 H638 0.949 . S
C644 C648 1.368 . S
C645 C626 1.429 . S
C645 C639 1.429 . S
C645 C646 1.523 . S
C646 C627 1.368 . S
C646 C640 1.368 . S
C646 C645 1.523 . S
C647 C631 1.429 . S
C647 C643 1.429 . S
C647 C648 1.523 . S
C648 C632 1.368 . S
C648 C644 1.368 . S
C648 C647 1.523 . S
H649 C624 0.950 . S
H650 C626 0.950 . S
H651 C627 0.949 . S
H652 C629 0.950 . S
H653 C631 0.950 . S
C654 C655 1.349 . S
C654 C656 1.327 . S
C654 H679 0.950 . S
C655 C654 1.349 . S
C655 C671 1.349 . S
C656 C654 1.327 . S
C656 C675 1.429 . S
C656 H680 0.950 . S
C657 C674 1.574 1_565 S
C657 C676 1.368 . S
C657 H681 0.949 . S
H658 C662 0.949 . S
C659 C660 1.349 . S
C659 C661 1.327 . S
C659 H682 0.950 . S
C660 C659 1.349 . S
C660 C672 1.349 . S
C661 C659 1.327 . S
C661 C677 1.429 . S
C661 H683 0.950 . S
C662 H658 0.949 . S
C662 C670 1.574 . S
C662 C678 1.368 . S
H663 C671 0.950 . S
H664 C669 0.950 . S
H665 C670 0.949 . S
H666 C672 0.950 . S
H667 C673 0.950 . S
H668 C674 0.949 . S
C669 H664 0.950 . S
C669 C671 1.327 . S
C669 C675 1.429 . S
C670 C662 1.574 . S
C670 H665 0.949 . S
C670 C676 1.368 1_545 S
C671 C655 1.349 . S
C671 H663 0.950 . S
C671 C669 1.327 . S
C672 C660 1.349 . S
C672 H666 0.950 . S
C672 C673 1.327 . S
C673 H667 0.950 . S
C673 C672 1.327 . S
C673 C677 1.429 . S
C674 C657 1.574 1_545 S
C674 H668 0.949 . S
C674 C678 1.368 . S
C675 C656 1.429 . S
C675 C669 1.429 . S
C675 C676 1.523 . S
C676 C657 1.368 . S
C676 C670 1.368 1_565 S
C676 C675 1.523 . S
C677 C661 1.429 . S
C677 C673 1.429 . S
C677 C678 1.523 . S
C678 C662 1.368 . S
C678 C674 1.368 . S
C678 C677 1.523 . S
H679 C654 0.950 . S
H680 C656 0.950 . S
H681 C657 0.949 . S
H682 C659 0.950 . S
H683 C661 0.950 . S
C684 C685 1.349 . S
C684 C686 1.327 . S
C684 H709 0.950 . S
C685 C684 1.349 . S
C685 C701 1.349 . S
C686 C684 1.327 . S
C686 C705 1.429 . S
C686 H710 0.950 . S
C687 C704 1.574 . S
C687 C706 1.368 1_565 S
C687 H711 0.949 . S
H688 C692 0.949 . S
C689 C690 1.349 . S
C689 C691 1.327 . S
C689 H712 0.950 . S
C690 C689 1.349 . S
C690 C702 1.349 . S
C691 C689 1.327 . S
C691 C707 1.429 . S
C691 H713 0.950 . S
C692 H688 0.949 . S
C692 C700 1.574 1_565 S
C692 C708 1.368 . S
H693 C701 0.950 . S
H694 C699 0.950 . S
H695 C700 0.949 . S
H696 C702 0.950 . S
H697 C703 0.950 . S
H698 C704 0.949 . S
C699 H694 0.950 . S
C699 C701 1.327 . S
C699 C705 1.429 . S
C700 C692 1.574 1_545 S
C700 H695 0.949 . S
C700 C706 1.368 . S
C701 C685 1.349 . S
C701 H693 0.950 . S
C701 C699 1.327 . S
C702 C690 1.349 . S
C702 H696 0.950 . S
C702 C703 1.327 . S
C703 H697 0.950 . S
C703 C702 1.327 . S
C703 C707 1.429 . S
C704 C687 1.574 . S
C704 H698 0.949 . S
C704 C708 1.368 . S
C705 C686 1.429 . S
C705 C699 1.429 . S
C705 C706 1.523 . S
C706 C687 1.368 1_545 S
C706 C700 1.368 . S
C706 C705 1.523 . S
C707 C691 1.429 . S
C707 C703 1.429 . S
C707 C708 1.523 . S
C708 C692 1.368 . S
C708 C704 1.368 . S
C708 C707 1.523 . S
H709 C684 0.950 . S
H710 C686 0.950 . S
H711 C687 0.949 . S
H712 C689 0.950 . S
H713 C691 0.950 . S
C714 C715 1.349 . S
C714 C716 1.327 . S
C714 H739 0.950 . S
C715 C714 1.349 . S
C715 C731 1.349 . S
C716 C714 1.327 . S
C716 C735 1.429 . S
C716 H740 0.950 . S
C717 C734 1.574 . S
C717 C736 1.368 . S
C717 H741 0.949 . S
H718 C722 0.949 . S
C719 C720 1.349 . S
C719 C721 1.327 . S
C719 H742 0.950 . S
C720 C719 1.349 . S
C720 C732 1.349 . S
C721 C719 1.327 . S
C721 C737 1.429 . S
C721 H743 0.950 . S
C722 H718 0.949 . S
C722 C730 1.574 . S
C722 C738 1.368 . S
H723 C731 0.950 . S
H724 C729 0.950 . S
H725 C730 0.949 . S
H726 C732 0.950 . S
H727 C733 0.950 . S
H728 C734 0.949 . S
C729 H724 0.950 . S
C729 C731 1.327 . S
C729 C735 1.429 . S
C730 C722 1.574 . S
C730 H725 0.949 . S
C730 C736 1.368 . S
C731 C715 1.349 . S
C731 H723 0.950 . S
C731 C729 1.327 . S
C732 C720 1.349 . S
C732 H726 0.950 . S
C732 C733 1.327 . S
C733 H727 0.950 . S
C733 C732 1.327 . S
C733 C737 1.429 . S
C734 C717 1.574 . S
C734 H728 0.949 . S
C734 C738 1.368 . S
C735 C716 1.429 . S
C735 C729 1.429 . S
C735 C736 1.523 . S
C736 C717 1.368 . S
C736 C730 1.368 . S
C736 C735 1.523 . S
C737 C721 1.429 . S
C737 C733 1.429 . S
C737 C738 1.523 . S
C738 C722 1.368 . S
C738 C734 1.368 . S
C738 C737 1.523 . S
H739 C714 0.950 . S
H740 C716 0.950 . S
H741 C717 0.949 . S
H742 C719 0.950 . S
H743 C721 0.950 . S
C744 C745 1.349 . S
C744 C746 1.327 . S
C744 H769 0.950 . S
C745 C744 1.349 . S
C745 C761 1.349 . S
C746 C744 1.327 . S
C746 C765 1.429 . S
C746 H770 0.950 . S
C747 C764 1.574 . S
C747 C766 1.368 . S
C747 H771 0.949 . S
H748 C752 0.949 . S
C749 C750 1.349 . S
C749 C751 1.327 . S
C749 H772 0.950 . S
C750 C749 1.349 . S
C750 C762 1.349 . S
C751 C749 1.327 . S
C751 C767 1.429 . S
C751 H773 0.950 . S
C752 H748 0.949 . S
C752 C760 1.574 . S
C752 C768 1.368 . S
H753 C761 0.950 . S
H754 C759 0.950 . S
H755 C760 0.949 . S
H756 C762 0.950 . S
H757 C763 0.950 . S
H758 C764 0.949 . S
C759 H754 0.950 . S
C759 C761 1.327 . S
C759 C765 1.429 . S
C760 C752 1.574 . S
C760 H755 0.949 . S
C760 C766 1.368 . S
C761 C745 1.349 . S
C761 H753 0.950 . S
C761 C759 1.327 . S
C762 C750 1.349 . S
C762 H756 0.950 . S
C762 C763 1.327 . S
C763 H757 0.950 . S
C763 C762 1.327 . S
C763 C767 1.429 . S
C764 C747 1.574 . S
C764 H758 0.949 . S
C764 C768 1.368 . S
C765 C746 1.429 . S
C765 C759 1.429 . S
C765 C766 1.523 . S
C766 C747 1.368 . S
C766 C760 1.368 . S
C766 C765 1.523 . S
C767 C751 1.429 . S
C767 C763 1.429 . S
C767 C768 1.523 . S
C768 C752 1.368 . S
C768 C764 1.368 . S
C768 C767 1.523 . S
H769 C744 0.950 . S
H770 C746 0.950 . S
H771 C747 0.949 . S
H772 C749 0.950 . S
H773 C751 0.950 . S
C774 C775 1.349 . S
C774 C776 1.327 . S
C774 H799 0.950 . S
C775 C774 1.349 . S
C775 C791 1.349 . S
C776 C774 1.327 . S
C776 C795 1.429 . S
C776 H800 0.950 . S
C777 C794 1.574 . S
C777 C796 1.368 1_565 S
C777 H801 0.949 1_565 S
H778 C782 0.949 . S
C779 C780 1.349 . S
C779 C781 1.327 . S
C779 H802 0.950 . S
C780 C779 1.349 . S
C780 C792 1.349 . S
C781 C779 1.327 . S
C781 C797 1.429 . S
C781 H803 0.950 . S
C782 H778 0.949 . S
C782 C790 1.574 . S
C782 C798 1.368 . S
H783 C791 0.950 . S
H784 C789 0.950 . S
H785 C790 0.949 1_545 S
H786 C792 0.950 . S
H787 C793 0.950 . S
H788 C794 0.949 . S
C789 H784 0.950 . S
C789 C791 1.327 . S
C789 C795 1.429 . S
C790 C782 1.574 . S
C790 H785 0.949 1_565 S
C790 C796 1.368 1_565 S
C791 C775 1.349 . S
C791 H783 0.950 . S
C791 C789 1.327 . S
C792 C780 1.349 . S
C792 H786 0.950 . S
C792 C793 1.327 . S
C793 H787 0.950 . S
C793 C792 1.327 . S
C793 C797 1.429 . S
C794 C777 1.574 . S
C794 H788 0.949 . S
C794 C798 1.368 . S
C795 C776 1.429 . S
C795 C789 1.429 . S
C795 C796 1.523 . S
C796 C777 1.368 1_545 S
C796 C790 1.368 1_545 S
C796 C795 1.523 . S
C797 C781 1.429 . S
C797 C793 1.429 . S
C797 C798 1.523 . S
C798 C782 1.368 . S
C798 C794 1.368 . S
C798 C797 1.523 . S
H799 C774 0.950 . S
H800 C776 0.950 . S
H801 C777 0.949 1_545 S
H802 C779 0.950 . S
H803 C781 0.950 . S
C804 C805 1.349 . S
C804 C806 1.327 . S
C804 H829 0.950 . S
C805 C804 1.349 . S
C805 C821 1.349 . S
C806 C804 1.327 . S
C806 C825 1.429 . S
C806 H830 0.950 . S
C807 C824 1.574 . S
C807 C826 1.368 . S
C807 H831 0.949 . S
H808 C812 0.949 . S
C809 C810 1.349 . S
C809 C811 1.327 . S
C809 H832 0.950 . S
C810 C809 1.349 . S
C810 C822 1.349 . S
C811 C809 1.327 . S
C811 C827 1.429 . S
C811 H833 0.950 . S
C812 H808 0.949 . S
C812 C820 1.574 . S
C812 C828 1.368 . S
H813 C821 0.950 . S
H814 C819 0.950 . S
H815 C820 0.949 . S
H816 C822 0.950 . S
H817 C823 0.950 . S
H818 C824 0.949 . S
C819 H814 0.950 . S
C819 C821 1.327 . S
C819 C825 1.429 . S
C820 C812 1.574 . S
C820 H815 0.949 . S
C820 C826 1.368 . S
C821 C805 1.349 . S
C821 H813 0.950 . S
C821 C819 1.327 . S
C822 C810 1.349 . S
C822 H816 0.950 . S
C822 C823 1.327 . S
C823 H817 0.950 . S
C823 C822 1.327 . S
C823 C827 1.429 . S
C824 C807 1.574 . S
C824 H818 0.949 . S
C824 C828 1.368 . S
C825 C806 1.429 . S
C825 C819 1.429 . S
C825 C826 1.523 . S
C826 C807 1.368 . S
C826 C820 1.368 . S
C826 C825 1.523 . S
C827 C811 1.429 . S
C827 C823 1.429 . S
C827 C828 1.523 . S
C828 C812 1.368 . S
C828 C824 1.368 . S
C828 C827 1.523 . S
H829 C804 0.950 . S
H830 C806 0.950 . S
H831 C807 0.949 . S
H832 C809 0.950 . S
H833 C811 0.950 . S
C834 C835 1.349 . S
C834 C836 1.327 . S
C834 H859 0.950 . S
C835 C834 1.349 . S
C835 C851 1.349 . S
C836 C834 1.327 . S
C836 C855 1.429 . S
C836 H860 0.950 . S
C837 C854 1.574 . S
C837 C856 1.368 . S
C837 H861 0.949 . S
H838 C842 0.949 . S
C839 C840 1.349 . S
C839 C841 1.327 . S
C839 H862 0.950 . S
C840 C839 1.349 . S
C840 C852 1.349 . S
C841 C839 1.327 . S
C841 C857 1.429 . S
C841 H863 0.950 . S
C842 H838 0.949 . S
C842 C850 1.574 . S
C842 C858 1.368 . S
H843 C851 0.950 . S
H844 C849 0.950 . S
H845 C850 0.949 . S
H846 C852 0.950 . S
H847 C853 0.950 . S
H848 C854 0.949 . S
C849 H844 0.950 . S
C849 C851 1.327 . S
C849 C855 1.429 . S
C850 C842 1.574 . S
C850 H845 0.949 . S
C850 C856 1.368 . S
C851 C835 1.349 . S
C851 H843 0.950 . S
C851 C849 1.327 . S
C852 C840 1.349 . S
C852 H846 0.950 . S
C852 C853 1.327 . S
C853 H847 0.950 . S
C853 C852 1.327 . S
C853 C857 1.429 . S
C854 C837 1.574 . S
C854 H848 0.949 . S
C854 C858 1.368 . S
C855 C836 1.429 . S
C855 C849 1.429 . S
C855 C856 1.523 . S
C856 C837 1.368 . S
C856 C850 1.368 . S
C856 C855 1.523 . S
C857 C841 1.429 . S
C857 C853 1.429 . S
C857 C858 1.523 . S
C858 C842 1.368 . S
C858 C854 1.368 . S
C858 C857 1.523 . S
H859 C834 0.950 . S
H860 C836 0.950 . S
H861 C837 0.949 . S
H862 C839 0.950 . S
H863 C841 0.950 . S
C864 C865 1.349 . S
C864 C866 1.327 . S
C864 H889 0.919 1_556 S
C865 C864 1.349 . S
C865 C881 1.349 . S
C866 C864 1.327 . S
C866 C885 1.429 . S
C866 H890 0.950 . S
C867 C884 1.574 . S
C867 C886 1.368 . S
C867 H891 0.949 . S
H868 C872 0.949 . S
C869 C870 1.349 . S
C869 C871 1.327 . S
C869 H892 0.950 . S
C870 C869 1.349 . S
C870 C882 1.349 . S
C871 C869 1.327 . S
C871 C887 1.429 . S
C871 H893 0.950 . S
C872 H868 0.949 . S
C872 C880 1.574 . S
C872 C888 1.368 . S
H873 C881 0.950 . S
H874 C879 0.950 . S
H875 C880 0.949 . S
H876 C882 0.950 . S
H877 C883 0.950 . S
H878 C884 0.949 . S
C879 H874 0.950 . S
C879 C881 1.327 . S
C879 C885 1.429 . S
C880 C872 1.574 . S
C880 H875 0.949 . S
C880 C886 1.368 . S
C881 C865 1.349 . S
C881 H873 0.950 . S
C881 C879 1.327 . S
C882 C870 1.349 . S
C882 H876 0.950 . S
C882 C883 1.327 . S
C883 H877 0.950 . S
C883 C882 1.327 . S
C883 C887 1.429 . S
C884 C867 1.574 . S
C884 H878 0.949 . S
C884 C888 1.368 . S
C885 C866 1.429 . S
C885 C879 1.429 . S
C885 C886 1.523 . S
C886 C867 1.368 . S
C886 C880 1.368 . S
C886 C885 1.523 . S
C887 C871 1.429 . S
C887 C883 1.429 . S
C887 C888 1.523 . S
C888 C872 1.368 . S
C888 C884 1.368 . S
C888 C887 1.523 . S
H889 C864 0.919 1_554 S
H890 C866 0.950 . S
H891 C867 0.949 . S
H892 C869 0.950 . S
H893 C871 0.950 . S
C894 C895 1.349 . S
C894 C896 1.327 . S
C894 H919 0.950 . S
C895 C894 1.349 . S
C895 C911 1.349 . S
C896 C894 1.327 . S
C896 C915 1.429 . S
C896 H920 0.950 . S
C897 C914 1.574 . S
C897 C916 1.368 . S
C897 H921 0.949 . S
H898 C902 0.949 . S
C899 C900 1.349 . S
C899 C901 1.327 . S
C899 H922 0.950 . S
C900 C899 1.349 . S
C900 C912 1.349 . S
C901 C899 1.327 . S
C901 C917 1.429 . S
C901 H923 0.950 . S
C902 H898 0.949 . S
C902 C910 1.574 . S
C902 C918 1.368 . S
H903 C911 0.950 . S
H904 C909 0.950 . S
H905 C910 0.949 . S
H906 C912 0.950 . S
H907 C913 0.950 . S
H908 C914 0.949 . S
C909 H904 0.950 . S
C909 C911 1.327 . S
C909 C915 1.429 . S
C910 C902 1.574 . S
C910 H905 0.949 . S
C910 C916 1.368 . S
C911 C895 1.349 . S
C911 H903 0.950 . S
C911 C909 1.327 . S
C912 C900 1.349 . S
C912 H906 0.950 . S
C912 C913 1.327 . S
C913 H907 0.950 . S
C913 C912 1.327 . S
C913 C917 1.429 . S
C914 C897 1.574 . S
C914 H908 0.949 . S
C914 C918 1.368 . S
C915 C896 1.429 . S
C915 C909 1.429 . S
C915 C916 1.523 . S
C916 C897 1.368 . S
C916 C910 1.368 . S
C916 C915 1.523 . S
C917 C901 1.429 . S
C917 C913 1.429 . S
C917 C918 1.523 . S
C918 C902 1.368 . S
C918 C914 1.368 . S
C918 C917 1.523 . S
H919 C894 0.950 . S
H920 C896 0.950 . S
H921 C897 0.949 . S
H922 C899 0.950 . S
H923 C901 0.950 . S
C924 C925 1.349 . S
C924 C926 1.327 . S
C924 H949 0.950 1_556 S
C925 C924 1.349 . S
C925 C941 1.349 . S
C926 C924 1.327 . S
C926 C945 1.429 . S
C926 H950 0.950 . S
C927 C944 1.574 . S
C927 C946 1.368 . S
C927 H951 0.949 . S
H928 C932 0.949 . S
C929 C930 1.349 . S
C929 C931 1.327 . S
C929 H952 0.950 . S
C930 C929 1.349 . S
C930 C942 1.349 . S
C931 C929 1.327 . S
C931 C947 1.429 . S
C931 H953 0.950 . S
C932 H928 0.949 . S
C932 C940 1.574 . S
C932 C948 1.368 . S
H933 C941 0.950 . S
H934 C939 0.950 . S
H935 C940 0.949 . S
H936 C942 0.950 . S
H937 C943 0.950 . S
H938 C944 0.949 . S
C939 H934 0.950 . S
C939 C941 1.327 . S
C939 C945 1.429 . S
C940 C932 1.574 . S
C940 H935 0.949 . S
C940 C946 1.368 . S
C941 C925 1.349 . S
C941 H933 0.950 . S
C941 C939 1.327 . S
C942 C930 1.349 . S
C942 H936 0.950 . S
C942 C943 1.327 . S
C943 H937 0.950 . S
C943 C942 1.327 . S
C943 C947 1.429 . S
C944 C927 1.574 . S
C944 H938 0.949 . S
C944 C948 1.368 . S
C945 C926 1.429 . S
C945 C939 1.429 . S
C945 C946 1.523 . S
C946 C927 1.368 . S
C946 C940 1.368 . S
C946 C945 1.523 . S
C947 C931 1.429 . S
C947 C943 1.429 . S
C947 C948 1.523 . S
C948 C932 1.368 . S
C948 C944 1.368 . S
C948 C947 1.523 . S
H949 C924 0.950 1_554 S
H950 C926 0.950 . S
H951 C927 0.949 . S
H952 C929 0.950 . S
H953 C931 0.950 . S
C954 C955 1.349 . S
C954 C956 1.327 . S
C954 H979 0.950 . S
C955 C954 1.349 . S
C955 C971 1.349 . S
C956 C954 1.327 . S
C956 C975 1.429 . S
C956 H980 0.950 . S
C957 C974 1.574 . S
C957 C976 1.368 . S
C957 H981 0.949 . S
H958 C962 0.949 . S
C959 C960 1.349 . S
C959 C961 1.327 . S
C959 H982 0.950 . S
C960 C959 1.349 . S
C960 C972 1.349 . S
C961 C959 1.327 . S
C961 C977 1.429 . S
C961 H983 0.950 . S
C962 H958 0.949 . S
C962 C970 1.574 . S
C962 C978 1.368 . S
H963 C971 0.950 . S
H964 C969 0.950 . S
H965 C970 0.949 . S
H966 C972 0.950 . S
H967 C973 0.950 . S
H968 C974 0.949 . S
C969 H964 0.950 . S
C969 C971 1.327 . S
C969 C975 1.429 . S
C970 C962 1.574 . S
C970 H965 0.949 . S
C970 C976 1.368 . S
C971 C955 1.349 . S
C971 H963 0.950 . S
C971 C969 1.327 . S
C972 C960 1.349 . S
C972 H966 0.950 . S
C972 C973 1.327 . S
C973 H967 0.950 . S
C973 C972 1.327 . S
C973 C977 1.429 . S
C974 C957 1.574 . S
C974 H968 0.949 . S
C974 C978 1.368 . S
C975 C956 1.429 . S
C975 C969 1.429 . S
C975 C976 1.523 . S
C976 C957 1.368 . S
C976 C970 1.368 . S
C976 C975 1.523 . S
C977 C961 1.429 . S
C977 C973 1.429 . S
C977 C978 1.523 . S
C978 C962 1.368 . S
C978 C974 1.368 . S
C978 C977 1.523 . S
H979 C954 0.950 . S
H980 C956 0.950 . S
H981 C957 0.949 . S
H982 C959 0.950 . S
H983 C961 0.950 . S
C984 C985 1.349 . S
C984 C986 1.327 . S
C984 H1009 0.950 . S
C985 C984 1.349 . S
C985 C1001 1.349 . S
C986 C984 1.327 . S
C986 C1005 1.429 . S
C986 H1010 0.950 . S
C987 C1004 1.574 . S
C987 C1006 1.368 . S
C987 H1011 0.949 . S
H988 C992 0.949 . S
C989 C990 1.349 . S
C989 C991 1.327 . S
C989 H1012 0.950 . S
C990 C989 1.349 . S
C990 C1002 1.349 . S
C991 C989 1.327 . S
C991 C1007 1.429 . S
C991 H1013 0.950 . S
C992 H988 0.949 . S
C992 C1000 1.574 . S
C992 C1008 1.368 . S
H993 C1001 0.950 1_556 S
H994 C999 0.950 . S
H995 C1000 0.949 . S
H996 C1002 0.950 . S
H997 C1003 0.950 . S
H998 C1004 0.949 . S
C999 H994 0.950 . S
C999 C1001 1.327 . S
C999 C1005 1.429 . S
C1000 C992 1.574 . S
C1000 H995 0.949 . S
C1000 C1006 1.368 . S
C1001 C985 1.349 . S
C1001 H993 0.950 1_554 S
C1001 C999 1.327 . S
C1002 C990 1.349 . S
C1002 H996 0.950 . S
C1002 C1003 1.327 . S
C1003 H997 0.950 . S
C1003 C1002 1.327 . S
C1003 C1007 1.429 . S
C1004 C987 1.574 . S
C1004 H998 0.949 . S
C1004 C1008 1.368 . S
C1005 C986 1.429 . S
C1005 C999 1.429 . S
C1005 C1006 1.523 . S
C1006 C987 1.368 . S
C1006 C1000 1.368 . S
C1006 C1005 1.523 . S
C1007 C991 1.429 . S
C1007 C1003 1.429 . S
C1007 C1008 1.523 . S
C1008 C992 1.368 . S
C1008 C1004 1.368 . S
C1008 C1007 1.523 . S
H1009 C984 0.950 . S
H1010 C986 0.950 . S
H1011 C987 0.949 . S
H1012 C989 0.950 . S
H1013 C991 0.950 . S
C1014 C1015 1.349 . S
C1014 C1016 1.327 . S
C1014 H1039 0.950 . S
C1015 C1014 1.349 . S
C1015 C1031 1.349 . S
C1016 C1014 1.327 . S
C1016 C1035 1.429 . S
C1016 H1040 0.950 . S
C1017 C1034 1.574 . S
C1017 C1036 1.368 . S
C1017 H1041 0.949 . S
H1018 C1022 0.949 . S
C1019 C1020 1.349 . S
C1019 C1021 1.327 . S
C1019 H1042 0.950 . S
C1020 C1019 1.349 . S
C1020 C1032 1.349 . S
C1021 C1019 1.327 . S
C1021 C1037 1.429 . S
C1021 H1043 0.950 . S
C1022 H1018 0.949 . S
C1022 C1030 1.574 . S
C1022 C1038 1.368 . S
H1023 C1031 0.950 . S
H1024 C1029 0.950 . S
H1025 C1030 0.949 . S
H1026 C1032 0.950 . S
H1027 C1033 0.950 . S
H1028 C1034 0.949 . S
C1029 H1024 0.950 . S
C1029 C1031 1.327 . S
C1029 C1035 1.429 . S
C1030 C1022 1.574 . S
C1030 H1025 0.949 . S
C1030 C1036 1.368 . S
C1031 C1015 1.349 . S
C1031 H1023 0.950 . S
C1031 C1029 1.327 . S
C1032 C1020 1.349 . S
C1032 H1026 0.950 . S
C1032 C1033 1.327 . S
C1033 H1027 0.950 . S
C1033 C1032 1.327 . S
C1033 C1037 1.429 . S
C1034 C1017 1.574 . S
C1034 H1028 0.949 . S
C1034 C1038 1.368 . S
C1035 C1016 1.429 . S
C1035 C1029 1.429 . S
C1035 C1036 1.523 . S
C1036 C1017 1.368 . S
C1036 C1030 1.368 . S
C1036 C1035 1.523 . S
C1037 C1021 1.429 . S
C1037 C1033 1.429 . S
C1037 C1038 1.523 . S
C1038 C1022 1.368 . S
C1038 C1034 1.368 . S
C1038 C1037 1.523 . S
H1039 C1014 0.950 . S
H1040 C1016 0.950 . S
H1041 C1017 0.949 . S
H1042 C1019 0.950 . S
H1043 C1021 0.950 . S
C1044 C1045 1.349 . S
C1044 C1046 1.327 . S
C1044 H1069 0.950 . S
C1045 C1044 1.349 . S
C1045 C1061 1.349 . S
C1046 C1044 1.327 . S
C1046 C1065 1.429 . S
C1046 H1070 0.950 . S
C1047 C1064 1.574 . S
C1047 C1066 1.368 . S
C1047 H1071 0.949 . S
H1048 C1052 0.949 . S
C1049 C1050 1.349 . S
C1049 C1051 1.327 . S
C1049 H1072 0.950 . S
C1050 C1049 1.349 . S
C1050 C1062 1.349 . S
C1051 C1049 1.327 . S
C1051 C1067 1.429 . S
C1051 H1073 0.950 . S
C1052 H1048 0.949 . S
C1052 C1060 1.574 . S
C1052 C1068 1.368 . S
H1053 C1061 0.950 . S
H1054 C1059 0.950 . S
H1055 C1060 0.949 . S
H1056 C1062 0.950 . S
H1057 C1063 0.950 . S
H1058 C1064 0.949 . S
C1059 H1054 0.950 . S
C1059 C1061 1.327 . S
C1059 C1065 1.429 . S
C1060 C1052 1.574 . S
C1060 H1055 0.949 . S
C1060 C1066 1.368 . S
C1061 C1045 1.349 . S
C1061 H1053 0.950 . S
C1061 C1059 1.327 . S
C1062 C1050 1.349 . S
C1062 H1056 0.950 . S
C1062 C1063 1.327 . S
C1063 H1057 0.950 . S
C1063 C1062 1.327 . S
C1063 C1067 1.429 . S
C1064 C1047 1.574 . S
C1064 H1058 0.949 . S
C1064 C1068 1.368 . S
C1065 C1046 1.429 . S
C1065 C1059 1.429 . S
C1065 C1066 1.523 . S
C1066 C1047 1.368 . S
C1066 C1060 1.368 . S
C1066 C1065 1.523 . S
C1067 C1051 1.429 . S
C1067 C1063 1.429 . S
C1067 C1068 1.523 . S
C1068 C1052 1.368 . S
C1068 C1064 1.368 . S
C1068 C1067 1.523 . S
H1069 C1044 0.950 . S
H1070 C1046 0.950 . S
H1071 C1047 0.949 . S
H1072 C1049 0.950 . S
H1073 C1051 0.950 . S
C1074 C1075 1.349 . S
C1074 C1076 1.327 . S
C1074 H1099 0.950 . S
C1075 C1074 1.349 . S
C1075 C1091 1.349 . S
C1076 C1074 1.327 . S
C1076 C1095 1.429 . S
C1076 H1100 0.950 . S
C1077 C1094 1.574 . S
C1077 C1096 1.368 . S
C1077 H1101 0.949 . S
H1078 C1082 0.949 . S
C1079 C1080 1.349 . S
C1079 C1081 1.327 . S
C1079 H1102 0.950 . S
C1080 C1079 1.349 . S
C1080 C1092 1.349 . S
C1081 C1079 1.327 . S
C1081 C1097 1.429 . S
C1081 H1103 0.950 . S
C1082 H1078 0.949 . S
C1082 C1090 1.574 . S
C1082 C1098 1.368 . S
H1083 C1091 0.950 . S
H1084 C1089 0.950 . S
H1085 C1090 0.949 . S
H1086 C1092 0.950 . S
H1087 C1093 0.950 . S
H1088 C1094 0.949 . S
C1089 H1084 0.950 . S
C1089 C1091 1.327 . S
C1089 C1095 1.429 . S
C1090 C1082 1.574 . S
C1090 H1085 0.949 . S
C1090 C1096 1.368 . S
C1091 C1075 1.349 . S
C1091 H1083 0.950 . S
C1091 C1089 1.327 . S
C1092 C1080 1.349 . S
C1092 H1086 0.950 . S
C1092 C1093 1.327 . S
C1093 H1087 0.950 . S
C1093 C1092 1.327 . S
C1093 C1097 1.429 . S
C1094 C1077 1.574 . S
C1094 H1088 0.949 . S
C1094 C1098 1.368 . S
C1095 C1076 1.429 . S
C1095 C1089 1.429 . S
C1095 C1096 1.523 . S
C1096 C1077 1.368 . S
C1096 C1090 1.368 . S
C1096 C1095 1.523 . S
C1097 C1081 1.429 . S
C1097 C1093 1.429 . S
C1097 C1098 1.523 . S
C1098 C1082 1.368 . S
C1098 C1094 1.368 . S
C1098 C1097 1.523 . S
H1099 C1074 0.950 . S
H1100 C1076 0.950 . S
H1101 C1077 0.949 . S
H1102 C1079 0.950 . S
H1103 C1081 0.950 . S
C1104 C1105 1.349 . S
C1104 C1106 1.327 . S
C1104 H1129 0.950 . S
C1105 C1104 1.349 . S
C1105 C1121 1.349 . S
C1106 C1104 1.327 . S
C1106 C1125 1.429 . S
C1106 H1130 0.950 . S
C1107 C1124 1.574 . S
C1107 C1126 1.368 . S
C1107 H1131 0.949 . S
H1108 C1112 0.949 . S
C1109 C1110 1.349 . S
C1109 C1111 1.327 . S
C1109 H1132 0.950 . S
C1110 C1109 1.349 . S
C1110 C1122 1.349 . S
C1111 C1109 1.327 . S
C1111 C1127 1.429 . S
C1111 H1133 0.950 . S
C1112 H1108 0.949 . S
C1112 C1120 1.574 . S
C1112 C1128 1.368 . S
H1113 C1121 0.950 . S
H1114 C1119 0.950 . S
H1115 C1120 0.949 . S
H1116 C1122 0.950 . S
H1117 C1123 0.950 . S
H1118 C1124 0.949 . S
C1119 H1114 0.950 . S
C1119 C1121 1.327 . S
C1119 C1125 1.429 . S
C1120 C1112 1.574 . S
C1120 H1115 0.949 . S
C1120 C1126 1.368 . S
C1121 C1105 1.349 . S
C1121 H1113 0.950 . S
C1121 C1119 1.327 . S
C1122 C1110 1.349 . S
C1122 H1116 0.950 . S
C1122 C1123 1.327 . S
C1123 H1117 0.950 . S
C1123 C1122 1.327 . S
C1123 C1127 1.429 . S
C1124 C1107 1.574 . S
C1124 H1118 0.949 . S
C1124 C1128 1.368 . S
C1125 C1106 1.429 . S
C1125 C1119 1.429 . S
C1125 C1126 1.523 . S
C1126 C1107 1.368 . S
C1126 C1120 1.368 . S
C1126 C1125 1.523 . S
C1127 C1111 1.429 . S
C1127 C1123 1.429 . S
C1127 C1128 1.523 . S
C1128 C1112 1.368 . S
C1128 C1124 1.368 . S
C1128 C1127 1.523 . S
H1129 C1104 0.950 . S
H1130 C1106 0.950 . S
H1131 C1107 0.949 . S
H1132 C1109 0.950 . S
H1133 C1111 0.950 . S
C1134 C1135 1.349 . S
C1134 C1136 1.327 . S
C1134 H1159 0.950 . S
C1135 C1134 1.349 . S
C1135 C1151 1.349 . S
C1136 C1134 1.327 . S
C1136 C1155 1.429 . S
C1136 H1160 0.950 . S
C1137 C1154 1.574 . S
C1137 C1156 1.368 . S
C1137 H1161 0.949 . S
H1138 C1142 0.949 . S
C1139 C1140 1.349 . S
C1139 C1141 1.327 . S
C1139 H1162 0.950 . S
C1140 C1139 1.349 . S
C1140 C1152 1.349 . S
C1141 C1139 1.327 . S
C1141 C1157 1.429 . S
C1141 H1163 0.950 . S
C1142 H1138 0.949 . S
C1142 C1150 1.574 . S
C1142 C1158 1.368 . S
H1143 C1151 0.950 . S
H1144 C1149 0.950 . S
H1145 C1150 0.949 . S
H1146 C1152 0.950 . S
H1147 C1153 0.950 . S
H1148 C1154 0.949 . S
C1149 H1144 0.950 . S
C1149 C1151 1.327 . S
C1149 C1155 1.429 . S
C1150 C1142 1.574 . S
C1150 H1145 0.949 . S
C1150 C1156 1.368 . S
C1151 C1135 1.349 . S
C1151 H1143 0.950 . S
C1151 C1149 1.327 . S
C1152 C1140 1.349 . S
C1152 H1146 0.950 . S
C1152 C1153 1.327 . S
C1153 H1147 0.950 . S
C1153 C1152 1.327 . S
C1153 C1157 1.429 . S
C1154 C1137 1.574 . S
C1154 H1148 0.949 . S
C1154 C1158 1.368 . S
C1155 C1136 1.429 . S
C1155 C1149 1.429 . S
C1155 C1156 1.523 . S
C1156 C1137 1.368 . S
C1156 C1150 1.368 . S
C1156 C1155 1.523 . S
C1157 C1141 1.429 . S
C1157 C1153 1.429 . S
C1157 C1158 1.523 . S
C1158 C1142 1.368 . S
C1158 C1154 1.368 . S
C1158 C1157 1.523 . S
H1159 C1134 0.950 . S
H1160 C1136 0.950 . S
H1161 C1137 0.949 . S
H1162 C1139 0.950 . S
H1163 C1141 0.950 . S
C1164 C1165 1.349 . S
C1164 C1166 1.327 . S
C1164 H1189 0.950 . S
C1165 C1164 1.349 . S
C1165 C1181 1.349 . S
C1166 C1164 1.327 . S
C1166 C1185 1.429 . S
C1166 H1190 0.950 . S
C1167 C1184 1.574 . S
C1167 C1186 1.368 . S
C1167 H1191 0.949 . S
H1168 C1172 0.949 . S
C1169 C1170 1.349 . S
C1169 C1171 1.327 . S
C1169 H1192 0.950 . S
C1170 C1169 1.349 . S
C1170 C1182 1.349 . S
C1171 C1169 1.327 . S
C1171 C1187 1.429 . S
C1171 H1193 0.950 . S
C1172 H1168 0.949 . S
C1172 C1180 1.574 . S
C1172 C1188 1.368 . S
H1173 C1181 0.950 . S
H1174 C1179 0.950 . S
H1175 C1180 0.949 . S
H1176 C1182 0.950 . S
H1177 C1183 0.950 . S
H1178 C1184 0.949 . S
C1179 H1174 0.950 . S
C1179 C1181 1.327 . S
C1179 C1185 1.429 . S
C1180 C1172 1.574 . S
C1180 H1175 0.949 . S
C1180 C1186 1.368 . S
C1181 C1165 1.349 . S
C1181 H1173 0.950 . S
C1181 C1179 1.327 . S
C1182 C1170 1.349 . S
C1182 H1176 0.950 . S
C1182 C1183 1.327 . S
C1183 H1177 0.950 . S
C1183 C1182 1.327 . S
C1183 C1187 1.429 . S
C1184 C1167 1.574 . S
C1184 H1178 0.949 . S
C1184 C1188 1.368 . S
C1185 C1166 1.429 . S
C1185 C1179 1.429 . S
C1185 C1186 1.523 . S
C1186 C1167 1.368 . S
C1186 C1180 1.368 . S
C1186 C1185 1.523 . S
C1187 C1171 1.429 . S
C1187 C1183 1.429 . S
C1187 C1188 1.523 . S
C1188 C1172 1.368 . S
C1188 C1184 1.368 . S
C1188 C1187 1.523 . S
H1189 C1164 0.950 . S
H1190 C1166 0.950 . S
H1191 C1167 0.949 . S
H1192 C1169 0.950 . S
H1193 C1171 0.950 . S
C1194 C1195 1.349 . S
C1194 C1196 1.327 . S
C1194 H1219 0.950 . S
C1195 C1194 1.349 . S
C1195 C1211 1.349 . S
C1196 C1194 1.327 . S
C1196 C1215 1.429 . S
C1196 H1220 0.950 . S
C1197 C1214 1.574 . S
C1197 C1216 1.368 . S
C1197 H1221 0.949 . S
H1198 C1202 0.949 . S
C1199 C1200 1.349 . S
C1199 C1201 1.327 . S
C1199 H1222 0.950 . S
C1200 C1199 1.349 . S
C1200 C1212 1.349 . S
C1201 C1199 1.327 . S
C1201 C1217 1.429 . S
C1201 H1223 0.950 . S
C1202 H1198 0.949 . S
C1202 C1210 1.574 . S
C1202 C1218 1.368 . S
H1203 C1211 0.950 . S
H1204 C1209 0.950 . S
H1205 C1210 0.949 . S
H1206 C1212 0.950 . S
H1207 C1213 0.950 . S
H1208 C1214 0.949 . S
C1209 H1204 0.950 . S
C1209 C1211 1.327 . S
C1209 C1215 1.429 . S
C1210 C1202 1.574 . S
C1210 H1205 0.949 . S
C1210 C1216 1.368 . S
C1211 C1195 1.349 . S
C1211 H1203 0.950 . S
C1211 C1209 1.327 . S
C1212 C1200 1.349 . S
C1212 H1206 0.950 . S
C1212 C1213 1.327 . S
C1213 H1207 0.950 . S
C1213 C1212 1.327 . S
C1213 C1217 1.429 . S
C1214 C1197 1.574 . S
C1214 H1208 0.949 . S
C1214 C1218 1.368 . S
C1215 C1196 1.429 . S
C1215 C1209 1.429 . S
C1215 C1216 1.523 . S
C1216 C1197 1.368 . S
C1216 C1210 1.368 . S
C1216 C1215 1.523 . S
C1217 C1201 1.429 . S
C1217 C1213 1.429 . S
C1217 C1218 1.523 . S
C1218 C1202 1.368 . S
C1218 C1214 1.368 . S
C1218 C1217 1.523 . S
H1219 C1194 0.950 . S
H1220 C1196 0.950 . S
H1221 C1197 0.949 . S
H1222 C1199 0.950 . S
H1223 C1201 0.950 . S
C1224 C1225 1.349 . S
C1224 C1226 1.327 . S
C1224 H1249 0.950 . S
C1225 C1224 1.349 . S
C1225 C1241 1.349 . S
C1226 C1224 1.327 . S
C1226 C1245 1.429 . S
C1226 H1250 0.950 . S
C1227 C1244 1.574 . S
C1227 C1246 1.368 . S
C1227 H1251 0.949 . S
H1228 C1232 0.949 . S
C1229 C1230 1.349 . S
C1229 C1231 1.327 . S
C1229 H1252 0.950 . S
C1230 C1229 1.349 . S
C1230 C1242 1.349 . S
C1231 C1229 1.327 . S
C1231 C1247 1.429 . S
C1231 H1253 0.950 . S
C1232 H1228 0.949 . S
C1232 C1240 1.574 . S
C1232 C1248 1.368 . S
H1233 C1241 0.950 . S
H1234 C1239 0.950 . S
H1235 C1240 0.949 . S
H1236 C1242 0.950 . S
H1237 C1243 0.950 . S
H1238 C1244 0.949 . S
C1239 H1234 0.950 . S
C1239 C1241 1.327 . S
C1239 C1245 1.429 . S
C1240 C1232 1.574 . S
C1240 H1235 0.949 . S
C1240 C1246 1.368 . S
C1241 C1225 1.349 . S
C1241 H1233 0.950 . S
C1241 C1239 1.327 . S
C1242 C1230 1.349 . S
C1242 H1236 0.950 . S
C1242 C1243 1.327 . S
C1243 H1237 0.950 . S
C1243 C1242 1.327 . S
C1243 C1247 1.429 . S
C1244 C1227 1.574 . S
C1244 H1238 0.949 . S
C1244 C1248 1.368 . S
C1245 C1226 1.429 . S
C1245 C1239 1.429 . S
C1245 C1246 1.523 . S
C1246 C1227 1.368 . S
C1246 C1240 1.368 . S
C1246 C1245 1.523 . S
C1247 C1231 1.429 . S
C1247 C1243 1.429 . S
C1247 C1248 1.523 . S
C1248 C1232 1.368 . S
C1248 C1244 1.368 . S
C1248 C1247 1.523 . S
H1249 C1224 0.950 . S
H1250 C1226 0.950 . S
H1251 C1227 0.949 . S
H1252 C1229 0.950 . S
H1253 C1231 0.950 . S
C1254 C1255 1.349 . S
C1254 C1256 1.327 . S
C1254 H1279 0.950 . S
C1255 C1254 1.349 . S
C1255 C1271 1.349 . S
C1256 C1254 1.327 . S
C1256 C1275 1.429 . S
C1256 H1280 0.950 . S
C1257 C1274 1.574 . S
C1257 C1276 1.368 . S
C1257 H1281 0.949 . S
H1258 C1262 0.949 . S
C1259 C1260 1.349 . S
C1259 C1261 1.327 . S
C1259 H1282 0.950 . S
C1260 C1259 1.349 . S
C1260 C1272 1.349 . S
C1261 C1259 1.327 . S
C1261 C1277 1.429 . S
C1261 H1283 0.950 . S
C1262 H1258 0.949 . S
C1262 C1270 1.574 . S
C1262 C1278 1.368 . S
H1263 C1271 0.950 . S
H1264 C1269 0.950 . S
H1265 C1270 0.949 . S
H1266 C1272 0.950 . S
H1267 C1273 0.950 . S
H1268 C1274 0.949 . S
C1269 H1264 0.950 . S
C1269 C1271 1.327 . S
C1269 C1275 1.429 . S
C1270 C1262 1.574 . S
C1270 H1265 0.949 . S
C1270 C1276 1.368 . S
C1271 C1255 1.349 . S
C1271 H1263 0.950 . S
C1271 C1269 1.327 . S
C1272 C1260 1.349 . S
C1272 H1266 0.950 . S
C1272 C1273 1.327 . S
C1273 H1267 0.950 . S
C1273 C1272 1.327 . S
C1273 C1277 1.429 . S
C1274 C1257 1.574 . S
C1274 H1268 0.949 . S
C1274 C1278 1.368 . S
C1275 C1256 1.429 . S
C1275 C1269 1.429 . S
C1275 C1276 1.523 . S
C1276 C1257 1.368 . S
C1276 C1270 1.368 . S
C1276 C1275 1.523 . S
C1277 C1261 1.429 . S
C1277 C1273 1.429 . S
C1277 C1278 1.523 . S
C1278 C1262 1.368 . S
C1278 C1274 1.368 . S
C1278 C1277 1.523 . S
H1279 C1254 0.950 . S
H1280 C1256 0.950 . S
H1281 C1257 0.949 . S
H1282 C1259 0.950 . S
H1283 C1261 0.950 . S
C565 C361 1.319 . S
C570 C496 1.305 . S
C600 C504 1.305 . S
C595 C451 1.366 . S
C630 C508 1.288 . S
C625 C241 1.311 . S
C655 C331 1.353 . S
C660 C484 1.288 . S
C690 C525 1.305 . S
C685 C140 1.380 . S
C720 C559 1.305 . S
C715 C211 1.380 . S
C745 C20 1.368 . S
C750 C547 1.288 . S
C775 C91 1.368 . S
C780 C529 1.288 . S
C810 C483 1.269 . S
C805 C80 1.376 1_554 S
C840 C517 1.269 . S
C835 C1 1.376 . S
C870 C521 1.271 . S
C865 C200 1.380 1_556 S
C900 C499 1.271 . S
C895 C121 1.380 . S
C930 C538 1.269 . S
C925 C320 1.363 1_556 S
C955 C260 1.422 . S
C960 C546 1.269 . S
C990 C562 1.271 . S
C985 C440 1.369 1_554 S
C1015 C380 1.426 . S
C1020 C542 1.271 . S
C1050 C487 1.310 . S
C1045 C31 1.479 . S
C1080 C505 1.310 . S
C1075 C61 1.479 . S
C1105 C151 1.461 . S
C1110 C520 1.303 . S
C1140 C500 1.303 . S
C1135 C181 1.461 . S
C1170 C526 1.310 . S
C1165 C271 1.472 . S
C1195 C301 1.466 . S
C1200 C550 1.310 . S
C1225 C391 1.457 . S
C1230 C563 1.303 . S
C1255 C421 1.450 . S
C1260 C541 1.304 . S
