# Generated by pormake.
# Topology tsx, (6,3)-cn, num edge types: 1
# Building blocks:
#     Node 0, Type 0, BuildingBlock: JUFBIX_clean_sbu_0, # of connection points: 6
#     Node 1, Type 0, BuildingBlock: JUFBIX_clean_sbu_0, # of connection points: 6
#     Node 2, Type 1, BuildingBlock: BETDAH_clean_linker_0, # of connection points: 3
#     Node 3, Type 1, BuildingBlock: BETDAH_clean_linker_0, # of connection points: 3
#     Node 4, Type 1, BuildingBlock: BETDAH_clean_linker_0, # of connection points: 3
#     Node 5, Type 1, BuildingBlock: BETDAH_clean_linker_0, # of connection points: 3
#     Edge 6, Type (0, 1), BuildingBlock: FUNLAD_clean_linker_0, # of connection points: 2
#     Edge 7, Type (0, 1), BuildingBlock: FUNLAD_clean_linker_0, # of connection points: 2
#     Edge 8, Type (0, 1), BuildingBlock: FUNLAD_clean_linker_0, # of connection points: 2
#     Edge 9, Type (0, 1), BuildingBlock: FUNLAD_clean_linker_0, # of connection points: 2
#     Edge 10, Type (0, 1), BuildingBlock: FUNLAD_clean_linker_0, # of connection points: 2
#     Edge 11, Type (0, 1), BuildingBlock: FUNLAD_clean_linker_0, # of connection points: 2
#     Edge 12, Type (0, 1), BuildingBlock: FUNLAD_clean_linker_0, # of connection points: 2
#     Edge 13, Type (0, 1), BuildingBlock: FUNLAD_clean_linker_0, # of connection points: 2
#     Edge 14, Type (0, 1), BuildingBlock: FUNLAD_clean_linker_0, # of connection points: 2
#     Edge 15, Type (0, 1), BuildingBlock: FUNLAD_clean_linker_0, # of connection points: 2
#     Edge 16, Type (0, 1), BuildingBlock: FUNLAD_clean_linker_0, # of connection points: 2
#     Edge 17, Type (0, 1), BuildingBlock: FUNLAD_clean_linker_0, # of connection points: 2
# Relax obj value: 0.101
# Max RMSD: 0.125
# Mean RMSD: 0.113
data_MOF--net-tsx--node1-JUFBIX_clean_sbu_0--node2-BETDAH_clean_linker_0--edge1-FUNLAD_clean_linker_0
_symmetry_space_group_name_H-M    P1
_symmetry_Int_Tables_number       1
_symmetry_cell_setting            triclinic
loop_
_symmetry_equiv_pos_as_xyz
'x, y, z'
_cell_length_a     23.48552
_cell_length_b     27.803794
_cell_length_c     38.025106
_cell_angle_alpha  92.158449
_cell_angle_beta   97.894595
_cell_angle_gamma 98.087342
loop_
_atom_site_label
_atom_site_type_symbol
_atom_site_fract_x
_atom_site_fract_y
_atom_site_fract_z
_atom_type_partial_charge
Co0 Co 0.05832 0.97626 0.00321 0.0
C1 C 0.01537 0.00377 0.93504 0.0
Co2 Co 0.98282 0.0162 0.00023 0.0
C3 C 0.13525 0.90141 0.00847 0.0
C4 C 0.17286 0.968 0.98906 0.0
N5 N 0.12493 0.94711 0.00171 0.0
N6 N 0.1878 0.89335 0.00065 0.0
C7 C 0.21141 0.93539 0.98857 0.0
H8 H 0.10428 0.87426 0.01806 0.0
H9 H 0.17853 0.004 0.97908 0.0
C10 C 0.02648 0.9903 0.06847 0.0
N11 N 0.91619 0.04445 0.00137 0.0
C12 C 0.90074 0.08586 0.98801 0.0
C13 C 0.87125 0.02563 0.01766 0.0
N14 N 0.84766 0.09318 -0.00481 0.0
C15 C 0.82921 0.05531 0.01387 0.0
C16 C 0.95565 0.91409 0.99223 0.0
O17 O 0.06479 0.97259 0.05351 0.0
O18 O 0.98774 0.00967 0.04979 0.0
O19 O 0.93599 0.95434 0.99178 0.0
O20 O 0.01031 0.91425 -0.00297 0.0
O21 O 0.9788 0.02279 0.95069 0.0
H22 H 0.86939 0.99251 0.03177 0.0
H23 H 0.92765 0.10986 0.97316 0.0
O24 O 0.05166 0.98093 0.95297 0.0
O25 O 0.10474 0.03848 0.00972 0.0
O26 O 0.03019 0.07803 0.00855 0.0
C27 C 0.08482 0.07855 0.01133 0.0
H28 H 0.25233 0.94142 0.97819 0.0
H29 H 0.78867 0.04994 0.02472 0.0
Co30 Co 0.56431 0.4827 0.49535 0.0
C31 C 0.51382 0.50871 0.4288 0.0
Co32 Co 0.48751 0.52059 0.49595 0.0
C33 C 0.6455 0.41094 0.50008 0.0
C34 C 0.67796 0.47741 0.47821 0.0
N35 N 0.6316 0.45522 0.49181 0.0
N36 N 0.69894 0.4053 0.49257 0.0
C37 C 0.71934 0.44712 0.4789 0.0
H38 H 0.61717 0.38346 0.51139 0.0
H39 H 0.68124 0.51315 0.46772 0.0
C40 C 0.53916 0.49627 0.56264 0.0
N41 N 0.42072 0.54784 0.49938 0.0
C42 C 0.40355 0.58852 0.48575 0.0
C43 C 0.37817 0.52978 0.51779 0.0
N44 N 0.35175 0.59628 0.49485 0.0
C45 C 0.33582 0.5593 0.51502 0.0
C46 C 0.46354 0.41829 0.48884 0.0
O47 O 0.57449 0.47802 0.54539 0.0
O48 O 0.49876 0.51605 0.54592 0.0
O49 O 0.44238 0.45778 0.49044 0.0
O50 O 0.51812 0.42006 0.4897 0.0
O51 O 0.47741 0.52537 0.44601 0.0
H52 H 0.37825 0.49737 0.53267 0.0
H53 H 0.42842 0.61174 0.46934 0.0
O54 O 0.55375 0.48814 0.44534 0.0
O55 O 0.60925 0.54583 0.50158 0.0
O56 O 0.53299 0.58305 0.50155 0.0
C57 C 0.58769 0.58511 0.50347 0.0
H58 H 0.76069 0.45472 0.46914 0.0
H59 H 0.29692 0.55446 0.52758 0.0
H60 H 0.13239 0.96181 0.38842 0.0
H61 H 0.99684 0.04554 0.4058 0.0
H62 H 0.05377 0.94733 0.48341 0.0
C63 C 0.10277 0.97344 0.40539 0.0
C64 C 0.09909 0.95205 0.4379 0.0
C65 C 0.06558 0.00661 0.39328 0.0
C66 C 0.02559 0.01992 0.41493 0.0
C67 C 0.0217 0.99886 0.44778 0.0
C68 C 0.0577 0.96438 0.45859 0.0
N69 N 0.98116 0.01012 0.47022 0.0
C70 C 0.94929 0.04861 0.46637 0.0
H71 H 0.92701 0.97032 0.62621 0.0
H72 H 0.07695 0.06305 0.60092 0.0
H73 H 0.99164 0.94418 0.52816 0.0
C74 C 0.95725 0.98092 0.60777 0.0
C75 C 0.95328 0.95323 0.57578 0.0
C76 C 1.00167 0.0205 0.61709 0.0
C77 C 0.0418 0.03324 0.59351 0.0
C78 C 0.03755 0.006 0.56103 0.0
C79 C 0.99355 0.9661 0.55256 0.0
N80 N 0.07862 0.01553 0.53719 0.0
C81 C 0.11309 0.05992 0.53529 0.0
H82 H 0.61551 0.44508 0.88553 0.0
H83 H 0.4712 0.52107 0.89765 0.0
H84 H 0.54244 0.44034 0.98298 0.0
C85 C 0.58494 0.45657 0.90187 0.0
C86 C 0.58529 0.44058 0.93636 0.0
C87 C 0.54326 0.48465 0.88737 0.0
C88 C 0.50394 0.49984 0.90869 0.0
C89 C 0.50391 0.48392 0.94337 0.0
C90 C 0.54369 0.45357 0.95663 0.0
N91 N 0.46169 0.49451 0.96459 0.0
C92 C 0.43856 0.53777 0.96471 0.0
H93 H 0.39839 0.4844 0.1176 0.0
H94 H 0.557 0.56827 0.09586 0.0
H95 H 0.47006 0.44961 0.02372 0.0
C96 C 0.4305 0.49308 0.09998 0.0
C97 C 0.42723 0.46392 0.06872 0.0
C98 C 0.47769 0.5302 0.11036 0.0
C99 C 0.52049 0.53977 0.08798 0.0
C100 C 0.5172 0.51103 0.0563 0.0
C101 C 0.47132 0.47276 0.0474 0.0
N102 N 0.5602 0.51797 0.0334 0.0
C103 C 0.60363 0.55786 0.03567 0.0
C104 C 0.10608 0.16987 0.01987 0.0
C105 C 0.12544 0.1248 0.01502 0.0
C106 C 0.14526 0.21326 0.02256 0.0
C107 C 0.20442 0.21218 0.02022 0.0
C108 C 0.22332 0.16718 0.01501 0.0
C109 C 0.18453 0.12404 0.01274 0.0
C110 C 0.24799 0.25674 0.0224 0.0
C111 C 0.24439 0.2982 0.04092 0.0
C112 C 0.29161 0.3407 0.04607 0.0
C113 C 0.27856 0.38645 0.05645 0.0
C114 C 0.32229 0.42671 0.06322 0.0
C115 C 0.38012 0.42201 0.05984 0.0
H116 H 0.36256 0.3014 0.03636 0.0
C117 C 0.39325 0.37636 0.04939 0.0
C118 C 0.34971 0.33611 0.04281 0.0
H119 H 0.43763 0.37132 0.04741 0.0
H120 H 0.06071 0.17165 0.02144 0.0
H121 H 0.12885 0.24739 0.02572 0.0
H122 H 0.26856 0.1653 0.01298 0.0
H123 H 0.201 0.09005 0.00883 0.0
H124 H 0.28587 0.25391 0.00948 0.0
H125 H 0.20616 0.30104 0.05355 0.0
H126 H 0.2344 0.39103 0.05949 0.0
H127 H 0.3109 0.46154 0.07117 0.0
C128 C 0.27245 0.84939 0.00361 0.0
C129 C 0.21198 0.84839 0.00078 0.0
C130 C 0.29628 0.80661 -0.0004 0.0
C131 C 0.26019 0.76135 0.99308 0.0
C132 C 0.19978 0.76018 0.99126 0.0
C133 C 0.17589 0.80317 -0.00478 0.0
C134 C 0.28356 0.71533 0.98579 0.0
C135 C 0.33979 0.70975 -0.00519 0.0
C136 C 0.36412 0.66486 0.986 0.0
C137 C 0.41633 0.65641 0.00603 0.0
C138 C 0.4412 0.6151 -0.0015 0.0
C139 C 0.41467 0.58185 0.9705 0.0
H140 H 0.29895 0.63737 0.94068 0.0
C141 C 0.3632 0.59021 0.94994 0.0
C142 C 0.33812 0.63153 0.95749 0.0
H143 H 0.3422 0.56467 0.92823 0.0
H144 H 0.30154 0.88354 0.00823 0.0
H145 H 0.34284 0.80981 0.00039 0.0
H146 H 0.17081 0.72597 0.98606 0.0
H147 H 0.12912 0.8011 0.9925 0.0
H148 H 0.25279 0.68483 0.97298 0.0
H149 H 0.36954 0.73856 0.01047 0.0
H150 H 0.43764 0.68158 0.02789 0.0
H151 H 0.48079 0.60885 0.01483 0.0
C152 C 0.93166 0.82543 0.00325 0.0
C153 C 0.91437 0.86831 0.98973 0.0
C154 C 0.89034 0.78423 0.00487 0.0
C155 C 0.83109 0.7852 0.99266 0.0
C156 C 0.81461 0.82726 0.9775 0.0
C157 C 0.85557 0.86846 0.97635 0.0
C158 C 0.78486 0.74367 -0.00464 0.0
C159 C 0.78809 0.71168 0.02109 0.0
C160 C 0.73929 0.67288 0.02534 0.0
C161 C 0.75168 0.63103 0.04273 0.0
C162 C 0.70697 0.59362 0.04686 0.0
C163 C 0.64919 0.59784 0.03406 0.0
H164 H 0.66895 0.70963 0.00111 0.0
C165 C 0.63619 0.6399 0.01758 0.0
C166 C 0.68077 0.6773 0.01339 0.0
H167 H 0.59162 0.64366 0.00762 0.0
H168 H 0.97672 0.82424 0.01368 0.0
H169 H 0.90492 0.75193 0.01574 0.0
H170 H 0.76945 0.82884 0.96753 0.0
H171 H 0.84089 0.90084 0.96556 0.0
H172 H 0.74542 0.74128 0.9764 0.0
H173 H 0.82766 0.7138 0.03992 0.0
H174 H 0.79614 0.62689 0.05259 0.0
H175 H 0.71765 0.56115 0.05956 0.0
C176 C 0.84635 0.18005 0.98338 0.0
C177 C 0.81663 0.1331 0.98598 0.0
C178 C 0.81555 0.21927 0.97708 0.0
C179 C 0.75431 0.21206 0.97319 0.0
C180 C 0.72494 0.16476 0.97459 0.0
C181 C 0.75562 0.12585 0.98099 0.0
C182 C 0.71867 0.252 0.9674 0.0
C183 C 0.73923 0.29982 0.97284 0.0
C184 C 0.70056 0.33747 0.96672 0.0
C185 C 0.72175 0.38163 0.95318 0.0
C186 C 0.6848 0.41599 0.94442 0.0
C187 C 0.62619 0.40709 0.94962 0.0
H188 H 0.62554 0.29675 0.98527 0.0
C189 C 0.60591 0.36415 0.96514 0.0
C190 C 0.64271 0.32968 0.97364 0.0
H191 H 0.56098 0.35631 0.96947 0.0
H192 H 0.89338 0.18669 0.98712 0.0
H193 H 0.84007 0.25479 0.9753 0.0
H194 H 0.67787 0.15787 0.97124 0.0
H195 H 0.73142 0.08995 0.98212 0.0
H196 H 0.67247 0.2411 0.95857 0.0
H197 H 0.78528 0.31219 0.98056 0.0
H198 H 0.76638 0.38882 0.94816 0.0
H199 H 0.70177 0.44915 0.93295 0.0
C200 C 0.68697 0.6336 0.51443 0.0
C201 C 0.62638 0.63237 0.50808 0.0
C202 C 0.72399 0.6779 0.51936 0.0
C203 C 0.70128 0.72207 0.51806 0.0
C204 C 0.64085 0.72095 0.51075 0.0
C205 C 0.60364 0.6765 0.5061 0.0
C206 C 0.73994 0.76955 0.52387 0.0
C207 C 0.79001 0.77562 0.5466 0.0
C208 C 0.82958 0.82247 0.55353 0.0
C209 C 0.8645 0.83176 0.58676 0.0
C210 C 0.90389 0.87457 0.59406 0.0
C211 C 0.90991 0.9087 0.56803 0.0
H212 H 0.81017 0.85005 0.50118 0.0
C213 C 0.87548 0.89934 0.53457 0.0
C214 C 0.83539 0.85666 0.5274 0.0
H215 H 0.87954 0.92505 0.51402 0.0
H216 H 0.70597 0.60028 0.51578 0.0
H217 H 0.77043 0.67739 0.52382 0.0
H218 H 0.62237 0.75451 0.50925 0.0
H219 H 0.55716 0.67673 0.50093 0.0
H220 H 0.7252 0.80057 0.5108 0.0
H221 H 0.80131 0.74559 0.56232 0.0
H222 H 0.86132 0.80576 0.60718 0.0
H223 H 0.93058 0.88052 0.61988 0.0
C224 C 0.69855 0.3161 0.48812 0.0
C225 C 0.72855 0.36341 0.49649 0.0
C226 C 0.72905 0.27615 0.48812 0.0
C227 C 0.79007 0.28294 0.49693 0.0
C228 C 0.81935 0.33003 0.50691 0.0
C229 C 0.78909 0.3698 0.50635 0.0
C230 C 0.82513 0.24237 0.49621 0.0
C231 C 0.80971 0.20201 0.47424 0.0
C232 C 0.84728 0.16327 0.47177 0.0
C233 C 0.82148 0.11646 0.45787 0.0
C234 C 0.85512 0.07903 0.45537 0.0
C235 C 0.91524 0.08794 0.46635 0.0
H236 H 0.93032 0.2079 0.49153 0.0
C237 C 0.94161 0.13465 0.47942 0.0
C238 C 0.90809 0.17213 0.48194 0.0
H239 H 0.98807 0.14212 0.48801 0.0
H240 H 0.65187 0.31027 0.48041 0.0
H241 H 0.70478 0.24021 0.48127 0.0
H242 H 0.86615 0.33631 0.51424 0.0
H243 H 0.81314 0.40583 0.51332 0.0
H244 H 0.86663 0.24753 0.51341 0.0
H245 H 0.76802 0.19689 0.45718 0.0
H246 H 0.77499 0.10861 0.44944 0.0
H247 H 0.83405 0.04299 0.44533 0.0
C248 C 0.36514 0.37087 0.48961 0.0
C249 C 0.42507 0.37137 0.48951 0.0
C250 C 0.32919 0.32796 0.49453 0.0
C251 C 0.35218 0.28415 0.49917 0.0
C252 C 0.41186 0.2844 0.4982 0.0
C253 C 0.44794 0.32748 0.49329 0.0
C254 C 0.31615 0.2386 0.5075 0.0
C255 C 0.25765 0.23023 0.50003 0.0
C256 C 0.22132 0.18602 0.51005 0.0
C257 C 0.16581 0.17149 0.49056 0.0
C258 C 0.13001 0.13049 0.49932 0.0
C259 C 0.14876 0.10387 0.52807 0.0
H260 H 0.28125 0.17018 0.55561 0.0
C261 C 0.20352 0.11843 0.54809 0.0
C262 C 0.2396 0.15934 0.53925 0.0
H263 H 0.21858 0.09803 0.57036 0.0
H264 H 0.34606 0.40408 0.48706 0.0
H265 H 0.28397 0.33003 0.49609 0.0
H266 H 0.43088 0.25131 0.5019 0.0
H267 H 0.49398 0.32665 0.49356 0.0
H268 H 0.33903 0.21077 0.51972 0.0
H269 H 0.23499 0.2558 0.48479 0.0
H270 H 0.15039 0.19153 0.46818 0.0
H271 H 0.088 0.11925 0.48334 0.0
C272 C 0.34908 0.68212 0.48027 0.0
C273 C 0.32001 0.63597 0.48599 0.0
C274 C 0.31808 0.72113 0.47364 0.0
C275 C 0.25723 0.71464 0.4726 0.0
C276 C 0.22829 0.66814 0.47727 0.0
C277 C 0.25922 0.62938 0.48402 0.0
C278 C 0.22178 0.75463 0.46615 0.0
C279 C 0.24313 0.80238 0.47089 0.0
C280 C 0.20591 0.84109 0.46439 0.0
C281 C 0.23021 0.88592 0.45317 0.0
C282 C 0.19583 0.92233 0.44527 0.0
C283 C 0.13653 0.9149 0.44897 0.0
H284 H 0.12725 0.80093 0.47922 0.0
C285 C 0.11275 0.87085 0.46169 0.0
C286 C 0.14704 0.83432 0.46936 0.0
H287 H 0.06721 0.86407 0.46482 0.0
H288 H 0.39589 0.68836 0.48164 0.0
H289 H 0.34207 0.75592 0.46914 0.0
H290 H 0.18146 0.66182 0.47615 0.0
H291 H 0.23536 0.5941 0.4876 0.0
H292 H 0.17552 0.74385 0.45762 0.0
H293 H 0.28933 0.81398 0.4788 0.0
H294 H 0.27562 0.89238 0.44966 0.0
H295 H 0.21554 0.95624 0.43602 0.0
C296 C 0.07819 0.99051 0.1308 0.0
C297 C 0.02655 0.99013 0.10724 0.0
C298 C 0.07794 0.99508 0.1676 0.0
C299 C 0.0258 0.99862 0.18127 0.0
C300 C 0.97404 0.99628 0.15765 0.0
C301 C 0.97447 0.9927 0.12104 0.0
C302 C 0.02316 0.00299 0.21993 0.0
C303 C 0.06624 0.02771 0.24359 0.0
C304 C 0.06437 0.03009 0.28254 0.0
C305 C 0.11698 0.03757 0.30584 0.0
C306 C 0.11736 0.03358 0.34237 0.0
C307 C 0.065 0.02225 0.35637 0.0
H308 H 0.97022 0.01958 0.2801 0.0
C309 C 0.01219 0.01908 0.33347 0.0
C310 C 0.01181 0.02316 0.29692 0.0
H311 H 0.97111 0.01056 0.34344 0.0
H312 H 0.11889 0.98858 0.12081 0.0
H313 H 0.11833 0.99535 0.18523 0.0
H314 H 0.93325 0.99826 0.16755 0.0
H315 H 0.9339 0.99215 0.10348 0.0
H316 H 0.9836 0.98575 0.22873 0.0
H317 H 0.10562 0.04475 0.23437 0.0
H318 H 0.15807 0.04407 0.29561 0.0
H319 H 0.15876 0.03715 0.3595 0.0
C320 C 0.98188 0.03862 0.87713 0.0
C321 C 0.01856 0.0105 0.89691 0.0
C322 C 0.98727 0.04686 0.84157 0.0
C323 C 0.02978 0.02722 0.82506 0.0
C324 C 0.06587 0.99873 0.84488 0.0
C325 C 0.06048 0.99052 0.88032 0.0
C326 C 0.03671 0.0332 0.78705 0.0
C327 C 0.01094 0.06406 0.76583 0.0
C328 C 0.01357 0.0628 0.72704 0.0
C329 C 0.96347 0.06787 0.70361 0.0
C330 C 0.96099 0.05789 0.66711 0.0
C331 C 0.00905 0.04362 0.65341 0.0
H332 H 0.1033 0.05021 0.73035 0.0
C333 C 0.06109 0.04332 0.67643 0.0
C334 C 0.06336 0.05275 0.713 0.0
H335 H 0.0987 0.03235 0.66651 0.0
H336 H 0.94913 0.05452 0.88916 0.0
H337 H 0.95752 0.0681 0.82733 0.0
H338 H 0.09865 0.98275 0.83291 0.0
H339 H 0.08958 0.96875 0.89476 0.0
H340 H 0.06311 0.0093 0.77565 0.0
H341 H 0.98284 0.08738 0.77591 0.0
H342 H 0.92485 0.07625 0.71375 0.0
H343 H 0.92046 0.0586 0.64979 0.0
C344 C 0.50479 0.51548 0.62016 0.0
C345 C 0.54453 0.49515 0.60177 0.0
C346 C 0.50898 0.51435 0.65706 0.0
C347 C 0.55337 0.49308 0.6765 0.0
C348 C 0.59301 0.47269 0.6581 0.0
C349 C 0.58882 0.47384 0.62112 0.0
C350 C 0.5574 0.48853 0.71551 0.0
C351 C 0.53273 0.51615 0.73729 0.0
C352 C 0.53399 0.50779 0.77571 0.0
C353 C 0.53091 0.54659 0.79985 0.0
C354 C 0.5329 0.53937 0.83626 0.0
C355 C 0.53783 0.49314 0.84893 0.0
H356 H 0.53583 0.42988 0.77052 0.0
C357 C 0.53843 0.45406 0.82454 0.0
C358 C 0.53632 0.46119 0.7884 0.0
H359 H 0.54031 0.41767 0.83345 0.0
H360 H 0.46985 0.53191 0.60602 0.0
H361 H 0.47639 0.52906 0.66995 0.0
H362 H 0.62725 0.45559 0.67237 0.0
H363 H 0.62004 0.45779 0.60774 0.0
H364 H 0.58267 0.46147 0.72673 0.0
H365 H 0.51241 0.54655 0.7272 0.0
H366 H 0.528 0.58268 0.79063 0.0
H367 H 0.53192 0.56999 0.85453 0.0
C368 C 0.47318 0.54305 0.37216 0.0
C369 C 0.5127 0.51581 0.39038 0.0
C370 C 0.47493 0.55201 0.33631 0.0
C371 C 0.51648 0.53392 0.31802 0.0
C372 C 0.55526 0.50618 0.33627 0.0
C373 C 0.55355 0.49731 0.37196 0.0
C374 C 0.52 0.54089 0.27975 0.0
C375 C 0.492 0.5717 0.25969 0.0
C376 C 0.49286 0.57176 0.22075 0.0
C377 C 0.44161 0.57605 0.19814 0.0
C378 C 0.43786 0.56653 0.16148 0.0
C379 C 0.48563 0.55315 0.14686 0.0
H380 H 0.58319 0.56165 0.22246 0.0
C381 C 0.53872 0.55403 0.16913 0.0
C382 C 0.54235 0.56333 0.20577 0.0
H383 H 0.57632 0.54397 0.15868 0.0
H384 H 0.44118 0.55783 0.38565 0.0
H385 H 0.44327 0.57261 0.32326 0.0
H386 H 0.58741 0.4914 0.32289 0.0
H387 H 0.58472 0.47622 0.38517 0.0
H388 H 0.54616 0.51795 0.26715 0.0
H389 H 0.46385 0.59396 0.2709 0.0
H390 H 0.40321 0.58338 0.20903 0.0
H391 H 0.39664 0.56683 0.1448 0.0
loop_
_geom_bond_atom_site_label_1
_geom_bond_atom_site_label_2
_geom_bond_distance
_geom_bond_site_symmetry_2
_ccdc_geom_bond_type
Co0 N5 2.057 . S
Co0 O17 2.021 . S
Co0 O20 2.062 1_455 S
Co0 O24 2.117 1_554 S
Co0 O25 2.020 1_565 S
C1 O21 1.259 1_455 S
C1 O24 1.258 1_545 S
Co2 N11 2.057 . S
Co2 O18 2.116 1_655 S
Co2 O19 2.018 1_545 S
Co2 O21 2.021 1_554 S
Co2 O26 2.062 1_655 S
C3 N5 1.316 . S
C3 N6 1.347 . S
C3 H8 0.931 . S
C4 N5 1.375 1_556 S
C4 C7 1.350 . S
C4 H9 0.930 . S
N5 Co0 2.057 . S
N5 C3 1.316 . S
N5 C4 1.375 1_554 S
N6 C3 1.347 . S
N6 C7 1.373 1_554 S
C7 C4 1.350 . S
C7 N6 1.373 1_556 S
C7 H28 0.931 . S
H8 C3 0.931 . S
H9 C4 0.930 . S
C10 O17 1.253 1_545 S
C10 O18 1.268 . S
N11 Co2 2.057 . S
N11 C12 1.316 1_554 S
N11 C13 1.375 . S
C12 N11 1.316 1_556 S
C12 N14 1.347 1_556 S
C12 H23 0.931 . S
C13 N11 1.375 . S
C13 C15 1.350 . S
C13 H22 0.930 . S
N14 C12 1.347 1_554 S
N14 C15 1.373 . S
C15 C13 1.350 . S
C15 N14 1.373 . S
C15 H29 0.931 . S
C16 O19 1.257 . S
C16 O20 1.255 . S
O17 Co0 2.021 . S
O17 C10 1.253 1_565 S
O18 Co2 2.116 1_455 S
O18 C10 1.268 . S
O19 Co2 2.018 1_565 S
O19 C16 1.257 . S
O20 Co0 2.062 1_655 S
O20 C16 1.255 . S
O21 C1 1.259 1_655 S
O21 Co2 2.021 1_556 S
H22 C13 0.930 . S
H23 C12 0.931 . S
O24 Co0 2.117 1_556 S
O24 C1 1.258 1_565 S
O25 Co0 2.020 1_545 S
O25 C27 1.256 . S
O26 Co2 2.062 1_455 S
O26 C27 1.255 . S
C27 O25 1.256 . S
C27 O26 1.255 . S
H28 C7 0.931 . S
H29 C15 0.931 . S
Co30 N35 2.057 . S
Co30 O47 2.021 . S
Co30 O50 2.062 . S
Co30 O54 2.117 . S
Co30 O55 2.020 . S
C31 O51 1.259 . S
C31 O54 1.258 . S
Co32 N41 2.057 . S
Co32 O48 2.117 . S
Co32 O49 2.020 . S
Co32 O51 2.021 . S
Co32 O56 2.062 . S
C33 N35 1.316 . S
C33 N36 1.347 . S
C33 H38 0.931 . S
C34 N35 1.375 . S
C34 C37 1.350 . S
C34 H39 0.930 . S
N35 Co30 2.057 . S
N35 C33 1.316 . S
N35 C34 1.375 . S
N36 C33 1.347 . S
N36 C37 1.373 . S
C37 C34 1.350 . S
C37 N36 1.373 . S
C37 H58 0.931 . S
H38 C33 0.931 . S
H39 C34 0.930 . S
C40 O47 1.259 . S
C40 O48 1.258 . S
N41 Co32 2.057 . S
N41 C42 1.316 . S
N41 C43 1.375 . S
C42 N41 1.316 . S
C42 N44 1.347 . S
C42 H53 0.931 . S
C43 N41 1.375 . S
C43 C45 1.350 . S
C43 H52 0.930 . S
N44 C42 1.347 . S
N44 C45 1.373 . S
C45 C43 1.350 . S
C45 N44 1.373 . S
C45 H59 0.931 . S
C46 O49 1.256 . S
C46 O50 1.255 . S
O47 Co30 2.021 . S
O47 C40 1.259 . S
O48 Co32 2.117 . S
O48 C40 1.258 . S
O49 Co32 2.020 . S
O49 C46 1.256 . S
O50 Co30 2.062 . S
O50 C46 1.255 . S
O51 C31 1.259 . S
O51 Co32 2.021 . S
H52 C43 0.930 . S
H53 C42 0.931 . S
O54 Co30 2.117 . S
O54 C31 1.258 . S
O55 Co30 2.020 . S
O55 C57 1.256 . S
O56 Co32 2.062 . S
O56 C57 1.255 . S
C57 O55 1.256 . S
C57 O56 1.255 . S
H58 C37 0.931 . S
H59 C45 0.931 . S
H60 C63 0.929 . S
H61 C66 0.929 1_655 S
H62 C68 0.930 . S
C63 H60 0.929 . S
C63 C64 1.398 . S
C63 C65 1.396 . S
C64 C63 1.398 . S
C64 C68 1.407 . S
C65 C63 1.396 . S
C65 C66 1.394 1_565 S
C66 H61 0.929 1_455 S
C66 C65 1.394 1_545 S
C66 C67 1.382 . S
C67 C66 1.382 . S
C67 C68 1.392 1_545 S
C67 N69 1.420 1_455 S
C68 H62 0.930 . S
C68 C64 1.407 . S
C68 C67 1.392 1_565 S
N69 C67 1.420 1_655 S
N69 C70 1.244 . S
C70 N69 1.244 . S
H71 C74 0.929 . S
H72 C77 0.929 . S
H73 C79 0.930 . S
C74 H71 0.929 . S
C74 C75 1.398 . S
C74 C76 1.396 1_565 S
C75 C74 1.398 . S
C75 C79 1.407 . S
C76 C74 1.396 1_545 S
C76 C77 1.394 1_655 S
C77 H72 0.929 . S
C77 C76 1.394 1_455 S
C77 C78 1.382 . S
C78 C77 1.382 . S
C78 C79 1.392 1_445 S
C78 N80 1.420 . S
C79 H73 0.930 . S
C79 C75 1.407 . S
C79 C78 1.392 1_665 S
N80 C78 1.420 . S
N80 C81 1.244 . S
C81 N80 1.244 . S
H82 C85 0.929 . S
H83 C88 0.929 . S
H84 C90 0.930 . S
C85 H82 0.929 . S
C85 C86 1.398 . S
C85 C87 1.396 . S
C86 C85 1.398 . S
C86 C90 1.407 . S
C87 C85 1.396 . S
C87 C88 1.394 . S
C88 H83 0.929 . S
C88 C87 1.394 . S
C88 C89 1.382 . S
C89 C88 1.382 . S
C89 C90 1.392 . S
C89 N91 1.420 . S
C90 H84 0.930 . S
C90 C86 1.407 . S
C90 C89 1.392 . S
N91 C89 1.420 . S
N91 C92 1.244 . S
C92 N91 1.244 . S
H93 C96 0.929 . S
H94 C99 0.929 . S
H95 C101 0.930 . S
C96 H93 0.929 . S
C96 C97 1.398 . S
C96 C98 1.396 . S
C97 C96 1.398 . S
C97 C101 1.407 . S
C98 C96 1.396 . S
C98 C99 1.394 . S
C99 H94 0.929 . S
C99 C98 1.394 . S
C99 C100 1.382 . S
C100 C99 1.382 . S
C100 C101 1.392 . S
C100 N102 1.420 . S
C101 H95 0.930 . S
C101 C97 1.407 . S
C101 C100 1.392 . S
N102 C100 1.420 . S
N102 C103 1.244 . S
C103 N102 1.244 . S
C104 C105 1.386 . S
C104 C106 1.383 . S
C104 H120 0.951 . S
C105 C104 1.386 . S
C105 C109 1.383 . S
C106 C104 1.383 . S
C106 C107 1.402 . S
C106 H121 0.951 . S
C107 C106 1.402 . S
C107 C108 1.375 . S
C107 C110 1.481 . S
C108 C107 1.375 . S
C108 C109 1.367 . S
C108 H122 0.951 . S
C109 C105 1.383 . S
C109 C108 1.367 . S
C109 H123 0.950 1_554 S
C110 C107 1.481 . S
C110 C111 1.297 . S
C110 H124 0.950 . S
C111 C110 1.297 . S
C111 C112 1.479 . S
C111 H125 0.950 . S
C112 C111 1.479 . S
C112 C113 1.375 . S
C112 C118 1.404 . S
C113 C112 1.375 . S
C113 C114 1.369 . S
C113 H126 0.950 . S
C114 C113 1.369 . S
C114 C115 1.392 . S
C114 H127 0.951 . S
C115 C114 1.392 . S
C115 C117 1.384 . S
H116 C118 0.949 . S
C117 C115 1.384 . S
C117 C118 1.385 . S
C117 H119 0.950 . S
C118 C112 1.404 . S
C118 H116 0.949 . S
C118 C117 1.385 . S
H119 C117 0.950 . S
H120 C104 0.951 . S
H121 C106 0.951 . S
H122 C108 0.951 . S
H123 C109 0.950 1_556 S
H124 C110 0.950 . S
H125 C111 0.950 . S
H126 C113 0.950 . S
H127 C114 0.951 . S
C128 C129 1.386 . S
C128 C130 1.383 . S
C128 H144 0.951 . S
C129 C128 1.386 . S
C129 C133 1.383 1_554 S
C130 C128 1.383 . S
C130 C131 1.400 . S
C130 H145 0.951 . S
C131 C130 1.400 . S
C131 C132 1.376 1_554 S
C131 C134 1.482 1_554 S
C132 C131 1.376 1_556 S
C132 C133 1.367 . S
C132 H146 0.951 . S
C133 C129 1.383 1_556 S
C133 C132 1.367 . S
C133 H147 0.950 . S
C134 C131 1.482 1_556 S
C134 C135 1.297 1_556 S
C134 H148 0.950 . S
C135 C134 1.297 1_554 S
C135 C136 1.479 . S
C135 H149 0.950 . S
C136 C135 1.479 . S
C136 C137 1.375 . S
C136 C142 1.404 1_554 S
C137 C136 1.375 . S
C137 C138 1.369 . S
C137 H150 0.950 . S
C138 C137 1.369 . S
C138 C139 1.392 1_554 S
C138 H151 0.951 . S
C139 C138 1.392 1_556 S
C139 C141 1.384 . S
H140 C142 0.949 . S
C141 C139 1.384 . S
C141 C142 1.385 . S
C141 H143 0.950 . S
C142 C136 1.404 1_556 S
C142 H140 0.949 . S
C142 C141 1.385 . S
H143 C141 0.950 . S
H144 C128 0.951 . S
H145 C130 0.951 . S
H146 C132 0.951 . S
H147 C133 0.950 . S
H148 C134 0.950 . S
H149 C135 0.950 . S
H150 C137 0.950 . S
H151 C138 0.951 . S
C152 C153 1.386 . S
C152 C154 1.383 . S
C152 H168 0.951 . S
C153 C152 1.386 . S
C153 C157 1.383 1_554 S
C154 C152 1.383 . S
C154 C155 1.402 . S
C154 H169 0.951 . S
C155 C154 1.402 . S
C155 C156 1.375 . S
C155 C158 1.481 . S
C156 C155 1.375 . S
C156 C157 1.367 1_554 S
C156 H170 0.951 1_554 S
C157 C153 1.383 1_556 S
C157 C156 1.367 1_556 S
C157 H171 0.950 . S
C158 C155 1.481 . S
C158 C159 1.297 . S
C158 H172 0.950 . S
C159 C158 1.297 . S
C159 C160 1.479 . S
C159 H173 0.950 . S
C160 C159 1.479 . S
C160 C161 1.375 . S
C160 C166 1.404 . S
C161 C160 1.375 . S
C161 C162 1.369 . S
C161 H174 0.950 . S
C162 C161 1.369 . S
C162 C163 1.392 . S
C162 H175 0.951 . S
C163 C162 1.392 . S
C163 C165 1.384 . S
H164 C166 0.949 . S
C165 C163 1.384 . S
C165 C166 1.385 . S
C165 H167 0.950 . S
C166 C160 1.404 . S
C166 H164 0.949 . S
C166 C165 1.385 . S
H167 C165 0.950 . S
H168 C152 0.951 . S
H169 C154 0.951 . S
H170 C156 0.951 1_556 S
H171 C157 0.950 . S
H172 C158 0.950 . S
H173 C159 0.950 . S
H174 C161 0.950 . S
H175 C162 0.951 . S
C176 C177 1.386 . S
C176 C178 1.383 . S
C176 H192 0.951 . S
C177 C176 1.386 . S
C177 C181 1.383 . S
C178 C176 1.383 . S
C178 C179 1.402 . S
C178 H193 0.951 . S
C179 C178 1.402 . S
C179 C180 1.375 . S
C179 C182 1.481 . S
C180 C179 1.375 . S
C180 C181 1.367 . S
C180 H194 0.951 . S
C181 C177 1.383 . S
C181 C180 1.367 . S
C181 H195 0.950 1_556 S
C182 C179 1.481 . S
C182 C183 1.297 . S
C182 H196 0.950 . S
C183 C182 1.297 . S
C183 C184 1.479 . S
C183 H197 0.950 . S
C184 C183 1.479 . S
C184 C185 1.375 . S
C184 C190 1.404 . S
C185 C184 1.375 . S
C185 C186 1.369 . S
C185 H198 0.950 . S
C186 C185 1.369 . S
C186 C187 1.392 . S
C186 H199 0.951 . S
C187 C186 1.392 . S
C187 C189 1.384 . S
H188 C190 0.949 . S
C189 C187 1.384 . S
C189 C190 1.385 . S
C189 H191 0.950 . S
C190 C184 1.404 . S
C190 H188 0.949 . S
C190 C189 1.385 . S
H191 C189 0.950 . S
H192 C176 0.951 . S
H193 C178 0.951 . S
H194 C180 0.951 . S
H195 C181 0.950 1_554 S
H196 C182 0.950 . S
H197 C183 0.950 . S
H198 C185 0.950 . S
H199 C186 0.951 . S
C200 C201 1.386 . S
C200 C202 1.383 . S
C200 H216 0.951 . S
C201 C200 1.386 . S
C201 C205 1.383 . S
C202 C200 1.383 . S
C202 C203 1.402 . S
C202 H217 0.951 . S
C203 C202 1.402 . S
C203 C204 1.375 . S
C203 C206 1.481 . S
C204 C203 1.375 . S
C204 C205 1.367 . S
C204 H218 0.951 . S
C205 C201 1.383 . S
C205 C204 1.367 . S
C205 H219 0.950 . S
C206 C203 1.481 . S
C206 C207 1.297 . S
C206 H220 0.950 . S
C207 C206 1.297 . S
C207 C208 1.479 . S
C207 H221 0.950 . S
C208 C207 1.479 . S
C208 C209 1.375 . S
C208 C214 1.404 . S
C209 C208 1.375 . S
C209 C210 1.369 . S
C209 H222 0.950 . S
C210 C209 1.369 . S
C210 C211 1.392 . S
C210 H223 0.951 . S
C211 C210 1.392 . S
C211 C213 1.384 . S
H212 C214 0.949 . S
C213 C211 1.384 . S
C213 C214 1.385 . S
C213 H215 0.950 . S
C214 C208 1.404 . S
C214 H212 0.949 . S
C214 C213 1.385 . S
H215 C213 0.950 . S
H216 C200 0.951 . S
H217 C202 0.951 . S
H218 C204 0.951 . S
H219 C205 0.950 . S
H220 C206 0.950 . S
H221 C207 0.950 . S
H222 C209 0.950 . S
H223 C210 0.951 . S
C224 C225 1.386 . S
C224 C226 1.383 . S
C224 H240 0.951 . S
C225 C224 1.386 . S
C225 C229 1.383 . S
C226 C224 1.383 . S
C226 C227 1.402 . S
C226 H241 0.951 . S
C227 C226 1.402 . S
C227 C228 1.375 . S
C227 C230 1.481 . S
C228 C227 1.375 . S
C228 C229 1.367 . S
C228 H242 0.951 . S
C229 C225 1.383 . S
C229 C228 1.367 . S
C229 H243 0.950 . S
C230 C227 1.481 . S
C230 C231 1.297 . S
C230 H244 0.950 . S
C231 C230 1.297 . S
C231 C232 1.479 . S
C231 H245 0.950 . S
C232 C231 1.479 . S
C232 C233 1.375 . S
C232 C238 1.404 . S
C233 C232 1.375 . S
C233 C234 1.369 . S
C233 H246 0.950 . S
C234 C233 1.369 . S
C234 C235 1.392 . S
C234 H247 0.951 . S
C235 C234 1.392 . S
C235 C237 1.384 . S
H236 C238 0.949 . S
C237 C235 1.384 . S
C237 C238 1.385 . S
C237 H239 0.950 . S
C238 C232 1.404 . S
C238 H236 0.949 . S
C238 C237 1.385 . S
H239 C237 0.950 . S
H240 C224 0.951 . S
H241 C226 0.951 . S
H242 C228 0.951 . S
H243 C229 0.950 . S
H244 C230 0.950 . S
H245 C231 0.950 . S
H246 C233 0.950 . S
H247 C234 0.951 . S
C248 C249 1.386 . S
C248 C250 1.383 . S
C248 H264 0.951 . S
C249 C248 1.386 . S
C249 C253 1.383 . S
C250 C248 1.383 . S
C250 C251 1.402 . S
C250 H265 0.951 . S
C251 C250 1.402 . S
C251 C252 1.375 . S
C251 C254 1.481 . S
C252 C251 1.375 . S
C252 C253 1.367 . S
C252 H266 0.951 . S
C253 C249 1.383 . S
C253 C252 1.367 . S
C253 H267 0.950 . S
C254 C251 1.481 . S
C254 C255 1.297 . S
C254 H268 0.950 . S
C255 C254 1.297 . S
C255 C256 1.479 . S
C255 H269 0.950 . S
C256 C255 1.479 . S
C256 C257 1.375 . S
C256 C262 1.404 . S
C257 C256 1.375 . S
C257 C258 1.369 . S
C257 H270 0.950 . S
C258 C257 1.369 . S
C258 C259 1.392 . S
C258 H271 0.951 . S
C259 C258 1.392 . S
C259 C261 1.384 . S
H260 C262 0.949 . S
C261 C259 1.384 . S
C261 C262 1.385 . S
C261 H263 0.950 . S
C262 C256 1.404 . S
C262 H260 0.949 . S
C262 C261 1.385 . S
H263 C261 0.950 . S
H264 C248 0.951 . S
H265 C250 0.951 . S
H266 C252 0.951 . S
H267 C253 0.950 . S
H268 C254 0.950 . S
H269 C255 0.950 . S
H270 C257 0.950 . S
H271 C258 0.951 . S
C272 C273 1.386 . S
C272 C274 1.383 . S
C272 H288 0.951 . S
C273 C272 1.386 . S
C273 C277 1.383 . S
C274 C272 1.383 . S
C274 C275 1.402 . S
C274 H289 0.951 . S
C275 C274 1.402 . S
C275 C276 1.375 . S
C275 C278 1.481 . S
C276 C275 1.375 . S
C276 C277 1.367 . S
C276 H290 0.951 . S
C277 C273 1.383 . S
C277 C276 1.367 . S
C277 H291 0.950 . S
C278 C275 1.481 . S
C278 C279 1.297 . S
C278 H292 0.950 . S
C279 C278 1.297 . S
C279 C280 1.479 . S
C279 H293 0.950 . S
C280 C279 1.479 . S
C280 C281 1.375 . S
C280 C286 1.404 . S
C281 C280 1.375 . S
C281 C282 1.369 . S
C281 H294 0.950 . S
C282 C281 1.369 . S
C282 C283 1.392 . S
C282 H295 0.951 . S
C283 C282 1.392 . S
C283 C285 1.384 . S
H284 C286 0.949 . S
C285 C283 1.384 . S
C285 C286 1.385 . S
C285 H287 0.950 . S
C286 C280 1.404 . S
C286 H284 0.949 . S
C286 C285 1.385 . S
H287 C285 0.950 . S
H288 C272 0.951 . S
H289 C274 0.951 . S
H290 C276 0.951 . S
H291 C277 0.950 . S
H292 C278 0.950 . S
H293 C279 0.950 . S
H294 C281 0.950 . S
H295 C282 0.951 . S
C296 C297 1.386 1_565 S
C296 C298 1.383 1_565 S
C296 H312 0.951 . S
C297 C296 1.386 1_545 S
C297 C301 1.383 1_455 S
C298 C296 1.383 1_545 S
C298 C299 1.402 . S
C298 H313 0.944 1_545 S
C299 C298 1.402 . S
C299 C300 1.375 1_455 S
C299 C302 1.481 . S
C300 C299 1.375 1_655 S
C300 C301 1.367 . S
C300 H314 0.951 . S
C301 C297 1.383 1_655 S
C301 C300 1.367 . S
C301 H315 0.950 . S
C302 C299 1.481 . S
C302 C303 1.297 . S
C302 H316 0.950 1_455 S
C303 C302 1.297 . S
C303 C304 1.479 . S
C303 H317 0.950 . S
C304 C303 1.479 . S
C304 C305 1.375 . S
C304 C310 1.404 . S
C305 C304 1.375 . S
C305 C306 1.369 1_545 S
C305 H318 0.954 . S
C306 C305 1.369 1_565 S
C306 C307 1.392 1_565 S
C306 H319 0.951 . S
C307 C306 1.392 1_545 S
C307 C309 1.384 1_455 S
H308 C310 0.949 1_655 S
C309 C307 1.384 1_655 S
C309 C310 1.385 1_655 S
C309 H311 0.950 . S
C310 C304 1.404 . S
C310 H308 0.949 1_455 S
C310 C309 1.385 1_455 S
H311 C309 0.950 . S
H312 C296 0.951 . S
H313 C298 0.944 1_565 S
H314 C300 0.951 . S
H315 C301 0.950 . S
H316 C302 0.950 1_655 S
H317 C303 0.950 . S
H318 C305 0.954 . S
H319 C306 0.951 . S
C320 C321 1.386 . S
C320 C322 1.383 . S
C320 H336 0.951 . S
C321 C320 1.386 . S
C321 C325 1.383 1_445 S
C322 C320 1.383 . S
C322 C323 1.402 1_545 S
C322 H337 0.951 . S
C323 C322 1.402 1_565 S
C323 C324 1.375 1_455 S
C323 C326 1.483 1_455 S
C324 C323 1.375 1_655 S
C324 C325 1.367 . S
C324 H338 0.951 . S
C325 C321 1.383 1_665 S
C325 C324 1.367 . S
C325 H339 0.950 . S
C326 C323 1.483 1_655 S
C326 C327 1.287 1_665 S
C326 H340 0.958 . S
C327 C326 1.287 1_445 S
C327 C328 1.479 . S
C327 H341 0.950 . S
C328 C327 1.479 . S
C328 C329 1.375 . S
C328 C334 1.404 1_445 S
C329 C328 1.375 . S
C329 C330 1.369 . S
C329 H342 0.950 . S
C330 C329 1.369 . S
C330 C331 1.392 . S
C330 H343 0.951 . S
C331 C330 1.392 . S
C331 C333 1.384 1_445 S
H332 C334 0.949 . S
C333 C331 1.384 1_665 S
C333 C334 1.385 . S
C333 H335 0.950 . S
C334 C328 1.404 1_665 S
C334 H332 0.949 . S
C334 C333 1.385 . S
H335 C333 0.950 . S
H336 C320 0.951 . S
H337 C322 0.951 . S
H338 C324 0.951 . S
H339 C325 0.950 . S
H340 C326 0.958 . S
H341 C327 0.950 . S
H342 C329 0.950 . S
H343 C330 0.951 . S
C344 C345 1.386 . S
C344 C346 1.383 . S
C344 H360 0.951 . S
C345 C344 1.386 . S
C345 C349 1.383 . S
C346 C344 1.383 . S
C346 C347 1.402 . S
C346 H361 0.951 . S
C347 C346 1.402 . S
C347 C348 1.375 . S
C347 C350 1.481 . S
C348 C347 1.375 . S
C348 C349 1.367 . S
C348 H362 0.951 . S
C349 C345 1.383 . S
C349 C348 1.367 . S
C349 H363 0.950 . S
C350 C347 1.481 . S
C350 C351 1.297 . S
C350 H364 0.950 . S
C351 C350 1.297 . S
C351 C352 1.479 . S
C351 H365 0.950 . S
C352 C351 1.479 . S
C352 C353 1.375 . S
C352 C358 1.404 . S
C353 C352 1.375 . S
C353 C354 1.369 . S
C353 H366 0.950 . S
C354 C353 1.369 . S
C354 C355 1.392 . S
C354 H367 0.951 . S
C355 C354 1.392 . S
C355 C357 1.384 . S
H356 C358 0.949 . S
C357 C355 1.384 . S
C357 C358 1.385 . S
C357 H359 0.950 . S
C358 C352 1.404 . S
C358 H356 0.949 . S
C358 C357 1.385 . S
H359 C357 0.950 . S
H360 C344 0.951 . S
H361 C346 0.951 . S
H362 C348 0.951 . S
H363 C349 0.950 . S
H364 C350 0.950 . S
H365 C351 0.950 . S
H366 C353 0.950 . S
H367 C354 0.951 . S
C368 C369 1.386 . S
C368 C370 1.383 . S
C368 H384 0.951 . S
C369 C368 1.386 . S
C369 C373 1.383 . S
C370 C368 1.383 . S
C370 C371 1.402 . S
C370 H385 0.951 . S
C371 C370 1.402 . S
C371 C372 1.375 . S
C371 C374 1.481 . S
C372 C371 1.375 . S
C372 C373 1.367 . S
C372 H386 0.951 . S
C373 C369 1.383 . S
C373 C372 1.367 . S
C373 H387 0.950 . S
C374 C371 1.481 . S
C374 C375 1.297 . S
C374 H388 0.950 . S
C375 C374 1.297 . S
C375 C376 1.479 . S
C375 H389 0.950 . S
C376 C375 1.479 . S
C376 C377 1.375 . S
C376 C382 1.404 . S
C377 C376 1.375 . S
C377 C378 1.369 . S
C377 H390 0.950 . S
C378 C377 1.369 . S
C378 C379 1.392 . S
C378 H391 0.951 . S
C379 C378 1.392 . S
C379 C381 1.384 . S
H380 C382 0.949 . S
C381 C379 1.384 . S
C381 C382 1.385 . S
C381 H383 0.950 . S
C382 C376 1.404 . S
C382 H380 0.949 . S
C382 C381 1.385 . S
H383 C381 0.950 . S
H384 C368 0.951 . S
H385 C370 0.951 . S
H386 C372 0.951 . S
H387 C373 0.950 . S
H388 C374 0.950 . S
H389 C375 0.950 . S
H390 C377 0.950 . S
H391 C378 0.951 . S
C115 C97 1.394 . S
C105 C27 1.470 . S
C129 N6 1.320 . S
C139 C92 1.368 . S
C153 C16 1.387 . S
C163 C103 1.307 . S
C177 N14 1.421 1_556 S
C187 C86 1.381 . S
C201 C57 1.471 . S
C211 C75 1.435 . S
C225 N36 1.284 . S
C235 C70 1.293 . S
C259 C81 1.387 . S
C249 C46 1.395 . S
C283 C64 1.381 . S
C273 N44 1.420 . S
C297 C10 1.474 . S
C307 C65 1.468 1_545 S
C321 C1 1.541 . S
C331 C76 1.523 1_455 S
C355 C87 1.453 . S
C345 C40 1.466 . S
C369 C31 1.537 . S
C379 C98 1.534 . S
