# Generated by pormake.
# Topology ptr, (4,4)-cn, num edge types: 1
# Building blocks:
#     Node 0, Type 0, BuildingBlock: AZAVOO_clean_sbu_0, # of connection points: 4
#     Node 1, Type 0, BuildingBlock: AZAVOO_clean_sbu_0, # of connection points: 4
#     Node 2, Type 0, BuildingBlock: AZAVOO_clean_sbu_0, # of connection points: 4
#     Node 3, Type 0, BuildingBlock: AZAVOO_clean_sbu_0, # of connection points: 4
#     Node 4, Type 0, BuildingBlock: AZAVOO_clean_sbu_0, # of connection points: 4
#     Node 5, Type 0, BuildingBlock: AZAVOO_clean_sbu_0, # of connection points: 4
#     Node 6, Type 0, BuildingBlock: AZAVOO_clean_sbu_0, # of connection points: 4
#     Node 7, Type 0, BuildingBlock: AZAVOO_clean_sbu_0, # of connection points: 4
#     Node 8, Type 0, BuildingBlock: AZAVOO_clean_sbu_0, # of connection points: 4
#     Node 9, Type 0, BuildingBlock: AZAVOO_clean_sbu_0, # of connection points: 4
#     Node 10, Type 0, BuildingBlock: AZAVOO_clean_sbu_0, # of connection points: 4
#     Node 11, Type 0, BuildingBlock: AZAVOO_clean_sbu_0, # of connection points: 4
#     Node 12, Type 0, BuildingBlock: AZAVOO_clean_sbu_0, # of connection points: 4
#     Node 13, Type 0, BuildingBlock: AZAVOO_clean_sbu_0, # of connection points: 4
#     Node 14, Type 0, BuildingBlock: AZAVOO_clean_sbu_0, # of connection points: 4
#     Node 15, Type 0, BuildingBlock: AZAVOO_clean_sbu_0, # of connection points: 4
#     Node 16, Type 0, BuildingBlock: AZAVOO_clean_sbu_0, # of connection points: 4
#     Node 17, Type 0, BuildingBlock: AZAVOO_clean_sbu_0, # of connection points: 4
#     Node 18, Type 1, BuildingBlock: NAHDIM_clean_linker_0, # of connection points: 4
#     Node 19, Type 1, BuildingBlock: NAHDIM_clean_linker_0, # of connection points: 4
#     Node 20, Type 1, BuildingBlock: NAHDIM_clean_linker_0, # of connection points: 4
#     Node 21, Type 1, BuildingBlock: NAHDIM_clean_linker_0, # of connection points: 4
#     Node 22, Type 1, BuildingBlock: NAHDIM_clean_linker_0, # of connection points: 4
#     Node 23, Type 1, BuildingBlock: NAHDIM_clean_linker_0, # of connection points: 4
#     Node 24, Type 1, BuildingBlock: NAHDIM_clean_linker_0, # of connection points: 4
#     Node 25, Type 1, BuildingBlock: NAHDIM_clean_linker_0, # of connection points: 4
#     Node 26, Type 1, BuildingBlock: NAHDIM_clean_linker_0, # of connection points: 4
#     Node 27, Type 1, BuildingBlock: NAHDIM_clean_linker_0, # of connection points: 4
#     Node 28, Type 1, BuildingBlock: NAHDIM_clean_linker_0, # of connection points: 4
#     Node 29, Type 1, BuildingBlock: NAHDIM_clean_linker_0, # of connection points: 4
#     Node 30, Type 1, BuildingBlock: NAHDIM_clean_linker_0, # of connection points: 4
#     Node 31, Type 1, BuildingBlock: NAHDIM_clean_linker_0, # of connection points: 4
#     Node 32, Type 1, BuildingBlock: NAHDIM_clean_linker_0, # of connection points: 4
#     Node 33, Type 1, BuildingBlock: NAHDIM_clean_linker_0, # of connection points: 4
#     Node 34, Type 1, BuildingBlock: NAHDIM_clean_linker_0, # of connection points: 4
#     Node 35, Type 1, BuildingBlock: NAHDIM_clean_linker_0, # of connection points: 4
#     Edge 36, Type (0, 1), BuildingBlock: XUDNAN_clean_linker_2, # of connection points: 2
#     Edge 37, Type (0, 1), BuildingBlock: XUDNAN_clean_linker_2, # of connection points: 2
#     Edge 38, Type (0, 1), BuildingBlock: XUDNAN_clean_linker_2, # of connection points: 2
#     Edge 39, Type (0, 1), BuildingBlock: XUDNAN_clean_linker_2, # of connection points: 2
#     Edge 40, Type (0, 1), BuildingBlock: XUDNAN_clean_linker_2, # of connection points: 2
#     Edge 41, Type (0, 1), BuildingBlock: XUDNAN_clean_linker_2, # of connection points: 2
#     Edge 42, Type (0, 1), BuildingBlock: XUDNAN_clean_linker_2, # of connection points: 2
#     Edge 43, Type (0, 1), BuildingBlock: XUDNAN_clean_linker_2, # of connection points: 2
#     Edge 44, Type (0, 1), BuildingBlock: XUDNAN_clean_linker_2, # of connection points: 2
#     Edge 45, Type (0, 1), BuildingBlock: XUDNAN_clean_linker_2, # of connection points: 2
#     Edge 46, Type (0, 1), BuildingBlock: XUDNAN_clean_linker_2, # of connection points: 2
#     Edge 47, Type (0, 1), BuildingBlock: XUDNAN_clean_linker_2, # of connection points: 2
#     Edge 48, Type (0, 1), BuildingBlock: XUDNAN_clean_linker_2, # of connection points: 2
#     Edge 49, Type (0, 1), BuildingBlock: XUDNAN_clean_linker_2, # of connection points: 2
#     Edge 50, Type (0, 1), BuildingBlock: XUDNAN_clean_linker_2, # of connection points: 2
#     Edge 51, Type (0, 1), BuildingBlock: XUDNAN_clean_linker_2, # of connection points: 2
#     Edge 52, Type (0, 1), BuildingBlock: XUDNAN_clean_linker_2, # of connection points: 2
#     Edge 53, Type (0, 1), BuildingBlock: XUDNAN_clean_linker_2, # of connection points: 2
#     Edge 54, Type (0, 1), BuildingBlock: XUDNAN_clean_linker_2, # of connection points: 2
#     Edge 55, Type (0, 1), BuildingBlock: XUDNAN_clean_linker_2, # of connection points: 2
#     Edge 56, Type (0, 1), BuildingBlock: XUDNAN_clean_linker_2, # of connection points: 2
#     Edge 57, Type (0, 1), BuildingBlock: XUDNAN_clean_linker_2, # of connection points: 2
#     Edge 58, Type (0, 1), BuildingBlock: XUDNAN_clean_linker_2, # of connection points: 2
#     Edge 59, Type (0, 1), BuildingBlock: XUDNAN_clean_linker_2, # of connection points: 2
#     Edge 60, Type (0, 1), BuildingBlock: XUDNAN_clean_linker_2, # of connection points: 2
#     Edge 61, Type (0, 1), BuildingBlock: XUDNAN_clean_linker_2, # of connection points: 2
#     Edge 62, Type (0, 1), BuildingBlock: XUDNAN_clean_linker_2, # of connection points: 2
#     Edge 63, Type (0, 1), BuildingBlock: XUDNAN_clean_linker_2, # of connection points: 2
#     Edge 64, Type (0, 1), BuildingBlock: XUDNAN_clean_linker_2, # of connection points: 2
#     Edge 65, Type (0, 1), BuildingBlock: XUDNAN_clean_linker_2, # of connection points: 2
#     Edge 66, Type (0, 1), BuildingBlock: XUDNAN_clean_linker_2, # of connection points: 2
#     Edge 67, Type (0, 1), BuildingBlock: XUDNAN_clean_linker_2, # of connection points: 2
#     Edge 68, Type (0, 1), BuildingBlock: XUDNAN_clean_linker_2, # of connection points: 2
#     Edge 69, Type (0, 1), BuildingBlock: XUDNAN_clean_linker_2, # of connection points: 2
#     Edge 70, Type (0, 1), BuildingBlock: XUDNAN_clean_linker_2, # of connection points: 2
#     Edge 71, Type (0, 1), BuildingBlock: XUDNAN_clean_linker_2, # of connection points: 2
#     Edge 72, Type (0, 1), BuildingBlock: XUDNAN_clean_linker_2, # of connection points: 2
#     Edge 73, Type (0, 1), BuildingBlock: XUDNAN_clean_linker_2, # of connection points: 2
#     Edge 74, Type (0, 1), BuildingBlock: XUDNAN_clean_linker_2, # of connection points: 2
#     Edge 75, Type (0, 1), BuildingBlock: XUDNAN_clean_linker_2, # of connection points: 2
#     Edge 76, Type (0, 1), BuildingBlock: XUDNAN_clean_linker_2, # of connection points: 2
#     Edge 77, Type (0, 1), BuildingBlock: XUDNAN_clean_linker_2, # of connection points: 2
#     Edge 78, Type (0, 1), BuildingBlock: XUDNAN_clean_linker_2, # of connection points: 2
#     Edge 79, Type (0, 1), BuildingBlock: XUDNAN_clean_linker_2, # of connection points: 2
#     Edge 80, Type (0, 1), BuildingBlock: XUDNAN_clean_linker_2, # of connection points: 2
#     Edge 81, Type (0, 1), BuildingBlock: XUDNAN_clean_linker_2, # of connection points: 2
#     Edge 82, Type (0, 1), BuildingBlock: XUDNAN_clean_linker_2, # of connection points: 2
#     Edge 83, Type (0, 1), BuildingBlock: XUDNAN_clean_linker_2, # of connection points: 2
#     Edge 84, Type (0, 1), BuildingBlock: XUDNAN_clean_linker_2, # of connection points: 2
#     Edge 85, Type (0, 1), BuildingBlock: XUDNAN_clean_linker_2, # of connection points: 2
#     Edge 86, Type (0, 1), BuildingBlock: XUDNAN_clean_linker_2, # of connection points: 2
#     Edge 87, Type (0, 1), BuildingBlock: XUDNAN_clean_linker_2, # of connection points: 2
#     Edge 88, Type (0, 1), BuildingBlock: XUDNAN_clean_linker_2, # of connection points: 2
#     Edge 89, Type (0, 1), BuildingBlock: XUDNAN_clean_linker_2, # of connection points: 2
#     Edge 90, Type (0, 1), BuildingBlock: XUDNAN_clean_linker_2, # of connection points: 2
#     Edge 91, Type (0, 1), BuildingBlock: XUDNAN_clean_linker_2, # of connection points: 2
#     Edge 92, Type (0, 1), BuildingBlock: XUDNAN_clean_linker_2, # of connection points: 2
#     Edge 93, Type (0, 1), BuildingBlock: XUDNAN_clean_linker_2, # of connection points: 2
#     Edge 94, Type (0, 1), BuildingBlock: XUDNAN_clean_linker_2, # of connection points: 2
#     Edge 95, Type (0, 1), BuildingBlock: XUDNAN_clean_linker_2, # of connection points: 2
#     Edge 96, Type (0, 1), BuildingBlock: XUDNAN_clean_linker_2, # of connection points: 2
#     Edge 97, Type (0, 1), BuildingBlock: XUDNAN_clean_linker_2, # of connection points: 2
#     Edge 98, Type (0, 1), BuildingBlock: XUDNAN_clean_linker_2, # of connection points: 2
#     Edge 99, Type (0, 1), BuildingBlock: XUDNAN_clean_linker_2, # of connection points: 2
#     Edge 100, Type (0, 1), BuildingBlock: XUDNAN_clean_linker_2, # of connection points: 2
#     Edge 101, Type (0, 1), BuildingBlock: XUDNAN_clean_linker_2, # of connection points: 2
#     Edge 102, Type (0, 1), BuildingBlock: XUDNAN_clean_linker_2, # of connection points: 2
#     Edge 103, Type (0, 1), BuildingBlock: XUDNAN_clean_linker_2, # of connection points: 2
#     Edge 104, Type (0, 1), BuildingBlock: XUDNAN_clean_linker_2, # of connection points: 2
#     Edge 105, Type (0, 1), BuildingBlock: XUDNAN_clean_linker_2, # of connection points: 2
#     Edge 106, Type (0, 1), BuildingBlock: XUDNAN_clean_linker_2, # of connection points: 2
#     Edge 107, Type (0, 1), BuildingBlock: XUDNAN_clean_linker_2, # of connection points: 2
# Relax obj value: 0.102
# Max RMSD: 0.341
# Mean RMSD: 0.135
data_MOF--net-ptr--node1-AZAVOO_clean_sbu_0--node2-NAHDIM_clean_linker_0--edge1-XUDNAN_clean_linker_2
_symmetry_space_group_name_H-M    P1
_symmetry_Int_Tables_number       1
_symmetry_cell_setting            triclinic
loop_
_symmetry_equiv_pos_as_xyz
'x, y, z'
_cell_length_a     95.23431
_cell_length_b     93.192831
_cell_length_c     77.931878
_cell_angle_alpha  91.791695
_cell_angle_beta   91.175362
_cell_angle_gamma 120.30747
loop_
_atom_site_label
_atom_site_type_symbol
_atom_site_fract_x
_atom_site_fract_y
_atom_site_fract_z
_atom_type_partial_charge
Mg0 Mg 0.02611 0.35071 0.98806 0.0
O1 O 0.01243 0.3558 0.00908 0.0
O2 O 0.98988 0.35355 0.99697 0.0
Mg3 Mg 0.98938 0.34758 0.9681 0.0
C4 C 0.99936 0.35639 0.01006 0.0
C5 C 0.04333 0.33469 0.00779 0.0
O6 O 0.03585 0.32353 0.99511 0.0
O7 O 0.00724 0.32283 0.98666 0.0
O8 O 0.9858 0.3218 0.97316 0.0
O9 O 0.03892 0.37797 0.983 0.0
O10 O 0.01604 0.35883 0.96957 0.0
C11 C 0.99282 0.3146 0.9799 0.0
C12 C 0.0269 0.37425 0.97221 0.0
O13 O 0.04185 0.34752 0.00862 0.0
Mg14 Mg 0.67398 0.65169 0.03106 0.0
O15 O 0.65243 0.64524 0.0127 0.0
O16 O 0.63079 0.63994 0.02781 0.0
Mg17 Mg 0.63885 0.64272 0.05628 0.0
C18 C 0.63754 0.64129 0.01348 0.0
C19 C 0.70305 0.66075 0.00694 0.0
O20 O 0.70557 0.6514 0.01739 0.0
O21 O 0.67678 0.67673 0.03764 0.0
O22 O 0.65583 0.67117 0.05403 0.0
O23 O 0.66679 0.62509 0.03087 0.0
O24 O 0.65812 0.63708 0.04943 0.0
C25 C 0.66881 0.6815 0.04677 0.0
C26 C 0.65753 0.62372 0.04343 0.0
O27 O 0.69098 0.66279 0.00911 0.0
Mg28 Mg 0.3406 0.99287 0.99327 0.0
O29 O 0.36185 0.0053 0.01321 0.0
O30 O 0.38402 0.02443 0.00057 0.0
Mg31 Mg 0.377 0.02353 0.97217 0.0
C32 C 0.37685 0.01664 0.01379 0.0
C33 C 0.30964 0.96961 0.01417 0.0
O34 O 0.30596 0.95943 0.00061 0.0
O35 O 0.33858 0.01611 0.99303 0.0
O36 O 0.36071 0.03417 0.97954 0.0
O37 O 0.34708 0.97341 0.98681 0.0
O38 O 0.35708 0.99751 0.97438 0.0
C39 C 0.34752 0.03035 0.98697 0.0
C40 C 0.35708 0.98382 0.97623 0.0
O41 O 0.3229 0.98346 0.01483 0.0
Mg42 Mg 0.9852 0.65688 0.03252 0.0
O43 O 0.99601 0.648 0.01167 0.0
O44 O 0.01389 0.64204 0.02344 0.0
Mg45 Mg 0.01468 0.64768 0.05246 0.0
C46 C 0.00614 0.64292 0.01034 0.0
C47 C 0.97398 0.67902 0.01338 0.0
O48 O 0.97732 0.68679 0.02858 0.0
O49 O 0.00847 0.682 0.03572 0.0
O50 O 0.02589 0.67581 0.04844 0.0
O51 O 0.96604 0.63048 0.03579 0.0
O52 O 0.9896 0.64345 0.05056 0.0
C53 C 0.02247 0.68635 0.04241 0.0
C54 C 0.97602 0.62992 0.04692 0.0
O55 O 0.97559 0.66635 0.01134 0.0
Mg56 Mg 0.33945 0.35133 0.99388 0.0
O57 O 0.35965 0.35592 0.01328 0.0
O58 O 0.38208 0.36206 0.99931 0.0
Mg59 Mg 0.37615 0.36261 0.97054 0.0
C60 C 0.3745 0.35964 0.01324 0.0
C61 C 0.30891 0.34142 0.01489 0.0
O62 O 0.3085 0.35215 0.00464 0.0
O63 O 0.33666 0.32661 0.98481 0.0
O64 O 0.35793 0.33421 0.96816 0.0
O65 O 0.34691 0.37819 0.99613 0.0
O66 O 0.35642 0.36744 0.97719 0.0
C67 C 0.34466 0.32304 0.97428 0.0
C68 C 0.35659 0.38037 0.98376 0.0
O69 O 0.32059 0.33856 0.01399 0.0
Mg70 Mg 0.67369 0.01454 0.03592 0.0
O71 O 0.65373 0.99983 0.01526 0.0
O72 O 0.63389 0.97672 0.02597 0.0
Mg73 Mg 0.64128 0.97715 0.05428 0.0
C74 C 0.64003 0.98636 0.01357 0.0
C75 C 0.70554 0.03973 0.01827 0.0
O76 O 0.71067 0.04389 0.03443 0.0
O77 O 0.68236 0.99597 0.03449 0.0
O78 O 0.66289 0.97382 0.04701 0.0
O79 O 0.66086 0.02803 0.04379 0.0
O80 O 0.65666 0.00468 0.05481 0.0
C81 C 0.67663 0.98137 0.03994 0.0
C82 C 0.65282 0.01606 0.05398 0.0
O83 O 0.69076 0.02878 0.01484 0.0
Mg84 Mg 0.68017 0.68038 0.3272 0.0
O85 O 0.66327 0.68605 0.34342 0.0
O86 O 0.65153 0.69532 0.32511 0.0
Mg87 Mg 0.66139 0.69695 0.29839 0.0
C88 C 0.65348 0.69132 0.34012 0.0
C89 C 0.69556 0.67094 0.35771 0.0
O90 O 0.70711 0.68645 0.35616 0.0
O91 O 0.65806 0.65711 0.31455 0.0
O92 O 0.64834 0.66845 0.29645 0.0
O93 O 0.70075 0.70658 0.33243 0.0
O94 O 0.6832 0.69858 0.31035 0.0
C95 C 0.64787 0.65573 0.30274 0.0
C96 C 0.69539 0.71048 0.31901 0.0
O97 O 0.68264 0.66502 0.3482 0.0
Mg98 Mg 0.32197 0.97893 0.36656 0.0
O99 O 0.29833 0.97226 0.35113 0.0
O100 O 0.27892 0.96553 0.37012 0.0
Mg101 Mg 0.28955 0.96719 0.39708 0.0
C102 C 0.28367 0.96771 0.35473 0.0
C103 C 0.33337 0.97976 0.32983 0.0
O104 O 0.31976 0.96533 0.32961 0.0
O105 O 0.32493 0.00397 0.37572 0.0
O106 O 0.30543 0.99539 0.39487 0.0
O107 O 0.31568 0.95238 0.36494 0.0
O108 O 0.30847 0.96351 0.38588 0.0
C109 C 0.31717 0.007 0.38711 0.0
C110 C 0.30787 0.95051 0.37885 0.0
O111 O 0.33727 0.98948 0.34313 0.0
Mg112 Mg 0.00572 0.31793 0.32226 0.0
O113 O 0.02554 0.33011 0.34366 0.0
O114 O 0.04981 0.34367 0.33189 0.0
Mg115 Mg 0.0453 0.33976 0.30268 0.0
C116 C 0.04102 0.33914 0.34503 0.0
C117 C 0.97566 0.29977 0.34542 0.0
O118 O 0.97513 0.28663 0.33803 0.0
O119 O 0.0092 0.34317 0.31652 0.0
O120 O 0.03303 0.35573 0.30378 0.0
O121 O 0.00784 0.29522 0.32243 0.0
O122 O 0.02212 0.31648 0.30617 0.0
C123 C 0.02039 0.35562 0.30919 0.0
C124 C 0.01923 0.30235 0.31159 0.0
O125 O 0.98676 0.31417 0.34162 0.0
Mg126 Mg 0.65628 0.97604 0.35749 0.0
O127 O 0.67506 0.97231 0.3431 0.0
O128 O 0.69389 0.97487 0.36247 0.0
Mg129 Mg 0.68659 0.97899 0.38922 0.0
C130 C 0.68823 0.97246 0.34699 0.0
C131 C 0.63282 0.96925 0.32561 0.0
O132 O 0.62449 0.95498 0.33295 0.0
O133 O 0.67432 0.00384 0.36121 0.0
O134 O 0.69104 0.00477 0.38234 0.0
O135 O 0.64139 0.94874 0.36194 0.0
O136 O 0.66109 0.9671 0.37965 0.0
C137 C 0.68623 0.012 0.37207 0.0
C138 C 0.65018 0.95185 0.37596 0.0
O139 O 0.64651 0.98021 0.33236 0.0
Mg140 Mg 0.01364 0.68633 0.32257 0.0
O141 O 0.03011 0.69289 0.34681 0.0
O142 O 0.05455 0.69826 0.33851 0.0
Mg143 Mg 0.05442 0.6978 0.30895 0.0
C144 C 0.04477 0.69664 0.35028 0.0
C145 C 0.97806 0.66324 0.32944 0.0
O146 O 0.97938 0.66049 0.31307 0.0
O147 O 0.01289 0.66157 0.31847 0.0
O148 O 0.03679 0.66953 0.30656 0.0
O149 O 0.02035 0.71308 0.31997 0.0
O150 O 0.03348 0.70163 0.30844 0.0
C151 C 0.02273 0.65822 0.3109 0.0
C152 C 0.03215 0.71459 0.31075 0.0
O153 O 0.99071 0.67399 0.33809 0.0
Mg154 Mg 0.33097 0.35721 0.36235 0.0
O155 O 0.31336 0.34285 0.33948 0.0
O156 O 0.29224 0.31996 0.34908 0.0
Mg157 Mg 0.29611 0.32042 0.37833 0.0
C158 C 0.29975 0.32936 0.33687 0.0
C159 C 0.36553 0.37969 0.35189 0.0
O160 O 0.36661 0.38063 0.36877 0.0
O161 O 0.33869 0.33809 0.36373 0.0
O162 O 0.31792 0.31611 0.37504 0.0
O163 O 0.31859 0.37171 0.36716 0.0
O164 O 0.31188 0.34788 0.37883 0.0
C165 C 0.33231 0.32354 0.36941 0.0
C166 C 0.30915 0.35997 0.377 0.0
O167 O 0.35152 0.37147 0.34443 0.0
Mg168 Mg 0.3545 0.02023 0.66222 0.0
O169 O 0.341 0.02656 0.68226 0.0
O170 O 0.3221 0.02988 0.6685 0.0
Mg171 Mg 0.32439 0.02663 0.63948 0.0
C172 C 0.32939 0.02967 0.68236 0.0
C173 C 0.3761 0.01863 0.69334 0.0
O174 O 0.38417 0.03493 0.69292 0.0
O175 O 0.33258 0.99452 0.65735 0.0
O176 O 0.31502 0.99837 0.64158 0.0
O177 O 0.37265 0.04705 0.66088 0.0
O178 O 0.35022 0.03386 0.64424 0.0
C179 C 0.31914 0.98881 0.64878 0.0
C180 C 0.36312 0.04765 0.64916 0.0
O181 O 0.36401 0.01013 0.68289 0.0
Mg182 Mg 0.99613 0.31735 0.70356 0.0
O183 O 0.97801 0.30782 0.68042 0.0
O184 O 0.95297 0.29105 0.68945 0.0
Mg185 Mg 0.95493 0.2906 0.71873 0.0
C186 C 0.96272 0.29829 0.67748 0.0
C187 C 0.02355 0.33056 0.67744 0.0
O188 O 0.01927 0.31478 0.67765 0.0
O189 O 0.98765 0.33573 0.71075 0.0
O190 O 0.96306 0.31837 0.72053 0.0
O191 O 0.99818 0.29427 0.70214 0.0
O192 O 0.98036 0.29699 0.71736 0.0
C193 C 0.97439 0.33302 0.71737 0.0
C194 C 0.98599 0.28777 0.71209 0.0
O195 O 0.01605 0.33582 0.68665 0.0
Mg196 Mg 0.68069 0.65028 0.66651 0.0
O197 O 0.70244 0.67232 0.68134 0.0
O198 O 0.71865 0.68959 0.66188 0.0
Mg199 Mg 0.70806 0.67824 0.63503 0.0
C200 C 0.71519 0.68573 0.67744 0.0
C201 C 0.65237 0.62982 0.69029 0.0
O202 O 0.64791 0.61966 0.67661 0.0
O203 O 0.67043 0.66672 0.65966 0.0
O204 O 0.68676 0.68284 0.63967 0.0
O205 O 0.69395 0.63621 0.66583 0.0
O206 O 0.69554 0.65362 0.64623 0.0
C207 C 0.67438 0.67806 0.64892 0.0
C208 C 0.70054 0.64417 0.65221 0.0
O209 O 0.66596 0.64334 0.69058 0.0
Mg210 Mg 0.31631 0.31396 0.69208 0.0
O211 O 0.32798 0.30813 0.66946 0.0
O212 O 0.34977 0.30785 0.68025 0.0
Mg213 Mg 0.35098 0.31177 0.70963 0.0
C214 C 0.34045 0.30658 0.66753 0.0
C215 C 0.3073 0.33047 0.66194 0.0
O216 O 0.3223 0.33563 0.65757 0.0
O217 O 0.33706 0.34073 0.69403 0.0
O218 O 0.3571 0.33902 0.70746 0.0
O219 O 0.30024 0.28695 0.69643 0.0
O220 O 0.3247 0.30277 0.7087 0.0
C221 C 0.35127 0.34754 0.70119 0.0
C222 C 0.31184 0.28831 0.7066 0.0
O223 O 0.30162 0.32104 0.67448 0.0
Mg224 Mg 0.68337 0.02582 0.65202 0.0
O225 O 0.70655 0.032 0.66754 0.0
O226 O 0.72683 0.03896 0.64974 0.0
Mg227 Mg 0.71631 0.03745 0.6225 0.0
C228 C 0.72136 0.03657 0.66485 0.0
C229 C 0.67278 0.02246 0.68975 0.0
O230 O 0.68633 0.03695 0.69098 0.0
O231 O 0.68032 0.00103 0.64256 0.0
O232 O 0.69998 0.0089 0.6237 0.0
O233 O 0.69001 0.05232 0.65435 0.0
O234 O 0.69712 0.04148 0.63294 0.0
C235 C 0.68785 0.99756 0.63131 0.0
C236 C 0.69778 0.05438 0.64035 0.0
O237 O 0.6683 0.0144 0.67531 0.0
Mg238 Mg 0.98629 0.68305 0.68234 0.0
O239 O 0.96713 0.67065 0.66046 0.0
O240 O 0.94402 0.65114 0.6712 0.0
Mg241 Mg 0.94803 0.65283 0.7006 0.0
C242 C 0.95233 0.65896 0.65851 0.0
C243 C 0.01984 0.70597 0.66728 0.0
O244 O 0.02133 0.71401 0.68199 0.0
O245 O 0.98814 0.6598 0.68456 0.0
O246 O 0.9658 0.64293 0.6985 0.0
O247 O 0.97946 0.70258 0.68706 0.0
O248 O 0.96849 0.67861 0.69961 0.0
C249 C 0.97936 0.64634 0.69214 0.0
C250 C 0.9691 0.69256 0.69767 0.0
O251 O 0.00636 0.69292 0.66316 0.0
C252 C 0.19326 0.26244 0.04848 0.0
C253 C 0.20154 0.27619 0.06263 0.0
C254 C 0.1918 0.27349 0.09165 0.0
C255 C 0.19674 0.29019 0.09576 0.0
C256 C 0.18943 0.29438 0.10894 0.0
C257 C 0.17678 0.28158 0.11797 0.0
C258 C 0.17209 0.26475 0.11406 0.0
C259 C 0.17996 0.26099 0.10119 0.0
C260 C 0.19503 0.31246 0.11303 0.0
C261 C 0.15839 0.25066 0.12304 0.0
C262 C 0.08683 0.30954 0.07767 0.0
C263 C 0.0927 0.29963 0.08674 0.0
C264 C 0.11209 0.30308 0.10979 0.0
C265 C 0.10947 0.28682 0.10825 0.0
C266 C 0.11988 0.28259 0.11686 0.0
C267 C 0.13347 0.29496 0.12685 0.0
C268 C 0.13611 0.31134 0.12843 0.0
C269 C 0.12518 0.31507 0.12015 0.0
C270 C 0.11642 0.2649 0.11511 0.0
C271 C 0.15068 0.32504 0.13854 0.0
C272 C 0.11026 0.27769 0.23743 0.0
C273 C 0.10986 0.2634 0.2304 0.0
C274 C 0.12251 0.26472 0.22041 0.0
C275 C 0.13604 0.28062 0.21773 0.0
C276 C 0.13686 0.29497 0.22545 0.0
C277 C 0.12389 0.2933 0.23514 0.0
C278 C 0.12126 0.24914 0.2124 0.0
C279 C 0.15122 0.31207 0.22306 0.0
C280 C 0.24328 0.26457 0.22344 0.0
C281 C 0.23802 0.27728 0.22755 0.0
C282 C 0.21019 0.27206 0.22463 0.0
C283 C 0.19429 0.2588 0.22193 0.0
C284 C 0.18207 0.26115 0.21457 0.0
C285 C 0.1858 0.27734 0.21031 0.0
C286 C 0.20175 0.29096 0.21374 0.0
C287 C 0.21383 0.28817 0.22075 0.0
C288 C 0.1652 0.24631 0.21132 0.0
C289 C 0.20605 0.30847 0.20998 0.0
C290 C 0.16759 0.28558 0.13055 0.0
C291 C 0.15597 0.28917 0.12405 0.0
C292 C 0.14536 0.29099 0.13484 0.0
C293 C 0.14614 0.28883 0.15266 0.0
C294 C 0.13484 0.28918 0.16373 0.0
C295 C 0.13566 0.28695 0.18121 0.0
C296 C 0.14796 0.28453 0.18836 0.0
C297 C 0.14884 0.28217 0.20611 0.0
C298 C 0.16144 0.2802 0.21288 0.0
C299 C 0.17301 0.27997 0.20228 0.0
C300 C 0.17196 0.28167 0.18437 0.0
C301 C 0.18288 0.28069 0.17318 0.0
C302 C 0.18157 0.2821 0.15556 0.0
C303 C 0.16932 0.28461 0.14847 0.0
C304 C 0.15839 0.28598 0.15953 0.0
C305 C 0.15951 0.28418 0.17745 0.0
C306 C 0.07225 0.2579 0.23141 0.0
C307 C 0.08255 0.26328 0.24834 0.0
O308 O 0.19809 0.26903 0.07846 0.0
O309 O 0.22164 0.26886 0.23109 0.0
O310 O 0.09776 0.27708 0.24618 0.0
O311 O 0.10242 0.30769 0.1014 0.0
H312 H 0.19635 0.2845 0.06129 0.0
H313 H 0.17988 0.25553 0.05003 0.0
H314 H 0.19774 0.25352 0.04913 0.0
H315 H 0.19567 0.26787 0.03563 0.0
H316 H 0.20629 0.29991 0.08867 0.0
H317 H 0.17639 0.24817 0.09797 0.0
H318 H 0.18556 0.31517 0.10834 0.0
H319 H 0.2066 0.32091 0.10688 0.0
H320 H 0.19674 0.31516 0.12714 0.0
H321 H 0.15488 0.23831 0.11695 0.0
H322 H 0.14751 0.25212 0.12298 0.0
H323 H 0.16221 0.2509 0.13664 0.0
H324 H 0.08322 0.28643 0.08851 0.0
H325 H 0.07317 0.30214 0.07834 0.0
H326 H 0.09888 0.31464 0.05394 0.0
H327 H 0.08834 0.31967 0.08714 0.0
H328 H 0.09928 0.27734 0.10044 0.0
H329 H 0.1271 0.32756 0.12128 0.0
H330 H 0.11774 0.26054 0.12782 0.0
H331 H 0.12536 0.26437 0.10658 0.0
H332 H 0.10399 0.25623 0.10953 0.0
H333 H 0.15218 0.33748 0.13656 0.0
H334 H 0.16197 0.32523 0.13481 0.0
H335 H 0.14924 0.3227 0.15244 0.0
H336 H 0.08399 0.25283 0.25275 0.0
H337 H 0.09964 0.25116 0.23237 0.0
H338 H 0.1242 0.30425 0.24075 0.0
H339 H 0.1221 0.25004 0.19824 0.0
H340 H 0.10969 0.23774 0.21524 0.0
H341 H 0.13157 0.24786 0.21728 0.0
H342 H 0.15064 0.32185 0.23101 0.0
H343 H 0.15161 0.31508 0.20935 0.0
H344 H 0.16272 0.31232 0.22647 0.0
H345 H 0.24008 0.28453 0.21583 0.0
H346 H 0.25637 0.271 0.22043 0.0
H347 H 0.23606 0.2565 0.21207 0.0
H348 H 0.24128 0.25656 0.23446 0.0
H349 H 0.19156 0.24647 0.22522 0.0
H350 H 0.22603 0.29857 0.22336 0.0
H351 H 0.1604 0.24635 0.19823 0.0
H352 H 0.15694 0.24699 0.22071 0.0
H353 H 0.16496 0.23436 0.21273 0.0
H354 H 0.21838 0.31788 0.21524 0.0
H355 H 0.197 0.31129 0.21548 0.0
H356 H 0.20568 0.30964 0.19587 0.0
H357 H 0.15492 0.2902 0.11031 0.0
H358 H 0.12513 0.29101 0.15895 0.0
H359 H 0.12654 0.28722 0.18907 0.0
H360 H 0.16204 0.27847 0.22652 0.0
H361 H 0.19249 0.27867 0.17788 0.0
H362 H 0.19028 0.28121 0.14754 0.0
H363 H 0.05988 0.24725 0.23342 0.0
H364 H 0.07782 0.25387 0.22142 0.0
H365 H 0.07111 0.26834 0.22648 0.0
C366 C 0.74087 0.91506 0.05143 0.0
C367 C 0.73057 0.91763 0.06466 0.0
C368 C 0.73539 0.91544 0.09503 0.0
C369 C 0.71921 0.90634 0.1 0.0
C370 C 0.71519 0.89652 0.11439 0.0
C371 C 0.7276 0.89579 0.12393 0.0
C372 C 0.74406 0.90596 0.11967 0.0
C373 C 0.74775 0.91586 0.10537 0.0
C374 C 0.69758 0.88627 0.11889 0.0
C375 C 0.75766 0.90554 0.12951 0.0
C376 C 0.6854 0.79972 0.07039 0.0
C377 C 0.69699 0.79607 0.08075 0.0
C378 C 0.69905 0.80826 0.10925 0.0
C379 C 0.71577 0.81972 0.11144 0.0
C380 C 0.72145 0.83412 0.12214 0.0
C381 C 0.71013 0.83709 0.13071 0.0
C382 C 0.69332 0.82508 0.1292 0.0
C383 C 0.68802 0.81065 0.11865 0.0
C384 C 0.73949 0.84642 0.12383 0.0
C385 C 0.68089 0.82787 0.13806 0.0
C386 C 0.7253 0.82832 0.2433 0.0
C387 C 0.73998 0.84203 0.23844 0.0
C388 C 0.73997 0.85421 0.22831 0.0
C389 C 0.72501 0.85294 0.22327 0.0
C390 C 0.71025 0.83959 0.22878 0.0
C391 C 0.7106 0.82738 0.2386 0.0
C392 C 0.75598 0.86835 0.22279 0.0
C393 C 0.6941 0.83808 0.22404 0.0
C394 C 0.74651 0.98185 0.23514 0.0
C395 C 0.73666 0.96362 0.2397 0.0
C396 C 0.74186 0.94102 0.23164 0.0
C397 C 0.75411 0.93793 0.22661 0.0
C398 C 0.75038 0.92239 0.21931 0.0
C399 C 0.73391 0.90958 0.21709 0.0
C400 C 0.72143 0.91242 0.22267 0.0
C401 C 0.72553 0.9281 0.23 0.0
C402 C 0.76401 0.91973 0.21374 0.0
C403 C 0.70378 0.89893 0.22071 0.0
C404 C 0.72325 0.88243 0.1362 0.0
C405 C 0.71849 0.86661 0.12913 0.0
C406 C 0.71564 0.85354 0.13949 0.0
C407 C 0.71794 0.85633 0.15751 0.0
C408 C 0.71634 0.84381 0.16824 0.0
C409 C 0.71876 0.84674 0.18597 0.0
C410 C 0.72247 0.86219 0.19367 0.0
C411 C 0.72489 0.86528 0.2117 0.0
C412 C 0.72829 0.88069 0.21892 0.0
C413 C 0.72976 0.89335 0.20859 0.0
C414 C 0.72784 0.89066 0.1905 0.0
C415 C 0.72975 0.90329 0.17967 0.0
C416 C 0.72828 0.90066 0.16186 0.0
C417 C 0.72456 0.88522 0.15425 0.0
C418 C 0.72212 0.87216 0.16494 0.0
C419 C 0.72405 0.87498 0.18306 0.0
C420 C 0.74401 0.80832 0.24199 0.0
C421 C 0.73764 0.81374 0.25739 0.0
O422 O 0.73943 0.92358 0.08017 0.0
O423 O 0.74638 0.95656 0.23803 0.0
O424 O 0.72469 0.81569 0.25224 0.0
O425 O 0.69328 0.79498 0.09795 0.0
H426 H 0.71962 0.90511 0.06588 0.0
H427 H 0.74322 0.90512 0.05552 0.0
H428 H 0.7528 0.92658 0.05022 0.0
H429 H 0.7343 0.91115 0.03866 0.0
H430 H 0.70969 0.90663 0.09246 0.0
H431 H 0.76023 0.92322 0.1016 0.0
H432 H 0.69289 0.87306 0.11477 0.0
H433 H 0.68989 0.89051 0.11245 0.0
H434 H 0.6964 0.88687 0.13301 0.0
H435 H 0.7698 0.91424 0.12458 0.0
H436 H 0.75573 0.89275 0.12866 0.0
H437 H 0.75761 0.90889 0.14329 0.0
H438 H 0.70961 0.80646 0.07906 0.0
H439 H 0.68815 0.80044 0.05655 0.0
H440 H 0.68691 0.81184 0.07497 0.0
H441 H 0.67254 0.78986 0.07189 0.0
H442 H 0.72435 0.8175 0.10465 0.0
H443 H 0.67516 0.80155 0.11702 0.0
H444 H 0.74329 0.85058 0.13751 0.0
H445 H 0.74227 0.85757 0.11658 0.0
H446 H 0.74678 0.8411 0.11873 0.0
H447 H 0.66825 0.81747 0.13526 0.0
H448 H 0.6818 0.83959 0.13389 0.0
H449 H 0.68339 0.82924 0.15216 0.0
H450 H 0.74766 0.82573 0.26319 0.0
H451 H 0.75153 0.84327 0.24225 0.0
H452 H 0.69933 0.81689 0.24254 0.0
H453 H 0.75568 0.86926 0.20863 0.0
H454 H 0.76645 0.86685 0.2266 0.0
H455 H 0.75798 0.88025 0.22873 0.0
H456 H 0.68393 0.82807 0.2309 0.0
H457 H 0.6915 0.83527 0.21001 0.0
H458 H 0.69458 0.85005 0.22705 0.0
H459 H 0.72605 0.95751 0.23034 0.0
H460 H 0.73896 0.98782 0.23607 0.0
H461 H 0.75054 0.98267 0.22174 0.0
H462 H 0.75747 0.9888 0.24391 0.0
H463 H 0.76668 0.94789 0.22816 0.0
H464 H 0.71595 0.93013 0.23443 0.0
H465 H 0.7628 0.91695 0.19965 0.0
H466 H 0.76319 0.90884 0.22006 0.0
H467 H 0.77621 0.93077 0.2169 0.0
H468 H 0.69548 0.90308 0.22568 0.0
H469 H 0.70184 0.88791 0.22769 0.0
H470 H 0.70048 0.89494 0.20693 0.0
H471 H 0.71719 0.86448 0.11526 0.0
H472 H 0.71339 0.83166 0.16301 0.0
H473 H 0.71756 0.83668 0.19356 0.0
H474 H 0.73016 0.88299 0.23274 0.0
H475 H 0.73257 0.91542 0.18483 0.0
H476 H 0.73002 0.91083 0.15411 0.0
H477 H 0.73409 0.7967 0.2355 0.0
H478 H 0.75394 0.80614 0.24634 0.0
H479 H 0.74898 0.81804 0.2324 0.0
C480 C 0.20065 0.93256 0.06767 0.0
C481 C 0.21245 0.93317 0.08179 0.0
C482 C 0.19569 0.90824 0.09804 0.0
C483 C 0.18571 0.91375 0.10528 0.0
C484 C 0.17302 0.90352 0.1158 0.0
C485 C 0.17048 0.88764 0.11951 0.0
C486 C 0.18081 0.88228 0.1127 0.0
C487 C 0.19321 0.89263 0.10195 0.0
C488 C 0.16209 0.90956 0.12266 0.0
C489 C 0.17858 0.8655 0.11652 0.0
C490 C 0.08069 0.81512 0.04855 0.0
C491 C 0.08586 0.80815 0.06337 0.0
C492 C 0.09094 0.82022 0.09241 0.0
C493 C 0.1026 0.81644 0.09846 0.0
C494 C 0.11416 0.82649 0.11145 0.0
C495 C 0.11421 0.84077 0.11829 0.0
C496 C 0.10188 0.84408 0.11283 0.0
C497 C 0.09019 0.83353 0.10013 0.0
C498 C 0.12679 0.82226 0.11728 0.0
C499 C 0.10159 0.85924 0.11971 0.0
C500 C 0.08528 0.82805 0.22837 0.0
C501 C 0.09607 0.82258 0.22392 0.0
C502 C 0.11048 0.833 0.2157 0.0
C503 C 0.11406 0.84916 0.21167 0.0
C504 C 0.10353 0.85497 0.21678 0.0
C505 C 0.08934 0.84436 0.22529 0.0
C506 C 0.12176 0.82664 0.2111 0.0
C507 C 0.10709 0.87221 0.21287 0.0
C508 C 0.22684 0.95847 0.23605 0.0
C509 C 0.21579 0.94582 0.2488 0.0
C510 C 0.19853 0.9189 0.23297 0.0
C511 C 0.19537 0.90258 0.23089 0.0
C512 C 0.18191 0.89051 0.22083 0.0
C513 C 0.1713 0.89491 0.21267 0.0
C514 C 0.17447 0.91144 0.21457 0.0
C515 C 0.18814 0.92332 0.22452 0.0
C516 C 0.179 0.87304 0.21892 0.0
C517 C 0.16337 0.91655 0.2061 0.0
C518 C 0.15645 0.87628 0.12966 0.0
C519 C 0.14237 0.86422 0.12063 0.0
C520 C 0.1284 0.85337 0.12913 0.0
C521 C 0.12833 0.85473 0.14726 0.0
C522 C 0.11443 0.84427 0.15627 0.0
C523 C 0.11442 0.84599 0.17409 0.0
C524 C 0.12843 0.858 0.18361 0.0
C525 C 0.12857 0.85981 0.20173 0.0
C526 C 0.14271 0.87185 0.21077 0.0
C527 C 0.15685 0.88222 0.20222 0.0
C528 C 0.15696 0.88058 0.18412 0.0
C529 C 0.17101 0.89073 0.17513 0.0
C530 C 0.1709 0.88929 0.1573 0.0
C531 C 0.15677 0.8776 0.14779 0.0
C532 C 0.14259 0.86692 0.15661 0.0
C533 C 0.14267 0.86848 0.1748 0.0
C534 C 0.04324 0.79821 0.22706 0.0
C535 C 0.06051 0.8013 0.23011 0.0
O536 O 0.20759 0.91732 0.08706 0.0
O537 O 0.21168 0.92986 0.24315 0.0
O538 O 0.07083 0.81781 0.23541 0.0
O539 O 0.08077 0.81164 0.0787 0.0
H540 H 0.21271 0.94113 0.09289 0.0
H541 H 0.19953 0.92414 0.05665 0.0
H542 H 0.18834 0.92794 0.07265 0.0
H543 H 0.20501 0.94522 0.06301 0.0
H544 H 0.1875 0.92585 0.10259 0.0
H545 H 0.20099 0.88849 0.09639 0.0
H546 H 0.14916 0.90031 0.11916 0.0
H547 H 0.16498 0.92174 0.11766 0.0
H548 H 0.16339 0.91086 0.1369 0.0
H549 H 0.18895 0.86415 0.11229 0.0
H550 H 0.16728 0.85561 0.10976 0.0
H551 H 0.17723 0.8635 0.13051 0.0
H552 H 0.09942 0.81476 0.06339 0.0
H553 H 0.0841 0.81189 0.03608 0.0
H554 H 0.08697 0.82889 0.05023 0.0
H555 H 0.06736 0.81022 0.04819 0.0
H556 H 0.10284 0.80581 0.09277 0.0
H557 H 0.08099 0.8362 0.09547 0.0
H558 H 0.12864 0.82381 0.13148 0.0
H559 H 0.13857 0.8309 0.11163 0.0
H560 H 0.12334 0.80932 0.1132 0.0
H561 H 0.09123 0.86008 0.11409 0.0
H562 H 0.11313 0.87065 0.11687 0.0
H563 H 0.10069 0.85893 0.13388 0.0
H564 H 0.06404 0.79862 0.21736 0.0
H565 H 0.09329 0.8102 0.22686 0.0
H566 H 0.08104 0.84854 0.22901 0.0
H567 H 0.12165 0.82501 0.19692 0.0
H568 H 0.11815 0.81453 0.21678 0.0
H569 H 0.13443 0.83583 0.21558 0.0
H570 H 0.09732 0.87459 0.21704 0.0
H571 H 0.10851 0.87397 0.19885 0.0
H572 H 0.11875 0.8816 0.21949 0.0
H573 H 0.20468 0.94681 0.24977 0.0
H574 H 0.23075 0.97132 0.24095 0.0
H575 H 0.22014 0.95623 0.22351 0.0
H576 H 0.23778 0.95743 0.23383 0.0
H577 H 0.20348 0.89928 0.23731 0.0
H578 H 0.19056 0.93597 0.22551 0.0
H579 H 0.1779 0.86922 0.20509 0.0
H580 H 0.16734 0.8643 0.22473 0.0
H581 H 0.18893 0.87186 0.22519 0.0
H582 H 0.16679 0.92955 0.20986 0.0
H583 H 0.15059 0.9081 0.20956 0.0
H584 H 0.16384 0.91547 0.19192 0.0
H585 H 0.14226 0.8633 0.1067 0.0
H586 H 0.10336 0.83476 0.14961 0.0
H587 H 0.10329 0.83774 0.18031 0.0
H588 H 0.1427 0.87317 0.22465 0.0
H589 H 0.18223 0.89998 0.18177 0.0
H590 H 0.18204 0.89749 0.15105 0.0
H591 H 0.0346 0.78482 0.2238 0.0
H592 H 0.04303 0.80551 0.21615 0.0
H593 H 0.0391 0.80217 0.23854 0.0
C594 C 0.28619 0.09819 0.97234 0.0
C595 C 0.29211 0.09081 0.95836 0.0
C596 C 0.29559 0.10811 0.9336 0.0
C597 C 0.27898 0.10151 0.92926 0.0
C598 C 0.27407 0.10818 0.91609 0.0
C599 C 0.28597 0.12175 0.90723 0.0
C600 C 0.30268 0.12813 0.91131 0.0
C601 C 0.30724 0.12111 0.92437 0.0
C602 C 0.25615 0.10104 0.91192 0.0
C603 C 0.31573 0.14272 0.90227 0.0
C604 C 0.25246 0.20341 0.95152 0.0
C605 C 0.26764 0.20547 0.94285 0.0
C606 C 0.26615 0.18854 0.9177 0.0
C607 C 0.28176 0.19057 0.9181 0.0
C608 C 0.28482 0.17922 0.90907 0.0
C609 C 0.2718 0.16517 0.90006 0.0
C610 C 0.25593 0.16295 0.90001 0.0
C611 C 0.25346 0.175 0.90838 0.0
C612 C 0.30198 0.18229 0.90926 0.0
C613 C 0.24149 0.1478 0.89138 0.0
C614 C 0.26344 0.17494 0.78925 0.0
C615 C 0.27955 0.18065 0.79498 0.0
C616 C 0.28357 0.17028 0.80388 0.0
C617 C 0.27116 0.15398 0.8073 0.0
C618 C 0.2551 0.14789 0.80062 0.0
C619 C 0.2515 0.15844 0.79144 0.0
C620 C 0.30093 0.17697 0.81025 0.0
C621 C 0.24163 0.13049 0.80379 0.0
C622 C 0.27583 0.0465 0.7925 0.0
C623 C 0.28402 0.06062 0.78007 0.0
C624 C 0.29059 0.08619 0.79711 0.0
C625 C 0.30335 0.10134 0.80398 0.0
C626 C 0.30038 0.11304 0.81236 0.0
C627 C 0.28414 0.10932 0.81421 0.0
C628 C 0.27112 0.09392 0.80748 0.0
C629 C 0.27446 0.08257 0.79888 0.0
C630 C 0.31459 0.12945 0.8191 0.0
C631 C 0.25365 0.08949 0.8093 0.0
C632 C 0.28105 0.13046 0.89501 0.0
C633 C 0.27774 0.14237 0.90196 0.0
C634 C 0.27469 0.15245 0.89147 0.0
C635 C 0.27477 0.15048 0.8734 0.0
C636 C 0.27221 0.16068 0.8624 0.0
C637 C 0.27194 0.1584 0.84466 0.0
C638 C 0.2747 0.14614 0.83718 0.0
C639 C 0.27463 0.14388 0.81914 0.0
C640 C 0.27774 0.13182 0.81213 0.0
C641 C 0.28079 0.12174 0.82267 0.0
C642 C 0.28065 0.12363 0.84076 0.0
C643 C 0.28341 0.11355 0.85178 0.0
C644 C 0.2835 0.11571 0.86956 0.0
C645 C 0.28073 0.12796 0.87699 0.0
C646 C 0.27764 0.13807 0.86614 0.0
C647 C 0.27766 0.13594 0.84801 0.0
C648 C 0.25005 0.20384 0.79108 0.0
C649 C 0.2646 0.20148 0.78795 0.0
O650 O 0.30105 0.10267 0.94669 0.0
O651 O 0.29446 0.07553 0.78903 0.0
O652 O 0.25901 0.18523 0.78208 0.0
O653 O 0.26311 0.19967 0.92588 0.0
H654 H 0.28145 0.07996 0.95162 0.0
H655 H 0.27796 0.10211 0.96661 0.0
H656 H 0.29665 0.10922 0.97906 0.0
H657 H 0.27932 0.08875 0.98187 0.0
H658 H 0.26977 0.09137 0.9362 0.0
H659 H 0.32001 0.12605 0.92777 0.0
H660 H 0.25257 0.11021 0.91605 0.0
H661 H 0.24849 0.08927 0.91844 0.0
H662 H 0.25364 0.09863 0.89783 0.0
H663 H 0.32818 0.14639 0.90721 0.0
H664 H 0.31398 0.15358 0.90393 0.0
H665 H 0.31477 0.13955 0.88829 0.0
H666 H 0.27162 0.19771 0.94969 0.0
H667 H 0.25448 0.20548 0.96567 0.0
H668 H 0.24214 0.19051 0.94894 0.0
H669 H 0.24893 0.2122 0.94641 0.0
H670 H 0.29161 0.20118 0.9252 0.0
H671 H 0.24145 0.17362 0.90818 0.0
H672 H 0.30507 0.17975 0.89628 0.0
H673 H 0.30299 0.17377 0.91817 0.0
H674 H 0.31106 0.19528 0.91363 0.0
H675 H 0.22978 0.14604 0.89598 0.0
H676 H 0.24201 0.13638 0.8937 0.0
H677 H 0.24158 0.14927 0.87731 0.0
H678 H 0.27112 0.20404 0.80073 0.0
H679 H 0.28892 0.19328 0.79272 0.0
H680 H 0.23916 0.1541 0.78669 0.0
H681 H 0.30181 0.17908 0.82443 0.0
H682 H 0.30948 0.18891 0.80449 0.0
H683 H 0.3048 0.16778 0.80725 0.0
H684 H 0.22974 0.12771 0.79792 0.0
H685 H 0.24034 0.1288 0.81783 0.0
H686 H 0.24475 0.12133 0.79841 0.0
H687 H 0.27446 0.06173 0.77279 0.0
H688 H 0.26775 0.03452 0.78524 0.0
H689 H 0.26829 0.04892 0.80149 0.0
H690 H 0.28508 0.04529 0.80024 0.0
H691 H 0.31575 0.10406 0.80258 0.0
H692 H 0.26438 0.07093 0.79367 0.0
H693 H 0.31437 0.13042 0.83331 0.0
H694 H 0.31358 0.13989 0.81394 0.0
H695 H 0.32647 0.1309 0.8156 0.0
H696 H 0.24491 0.07635 0.80509 0.0
H697 H 0.25116 0.09771 0.80139 0.0
H698 H 0.25151 0.09155 0.82287 0.0
H699 H 0.27791 0.14409 0.91583 0.0
H700 H 0.2703 0.17051 0.86738 0.0
H701 H 0.26965 0.16649 0.83689 0.0
H702 H 0.27778 0.13027 0.79827 0.0
H703 H 0.28559 0.10391 0.84677 0.0
H704 H 0.28573 0.10764 0.87744 0.0
H705 H 0.2543 0.217 0.79508 0.0
H706 H 0.24283 0.19583 0.80152 0.0
H707 H 0.24193 0.2003 0.77939 0.0
C708 C 0.80883 0.06474 0.96254 0.0
C709 C 0.80243 0.07405 0.9521 0.0
C710 C 0.81155 0.08134 0.92319 0.0
C711 C 0.81067 0.09573 0.9211 0.0
C712 C 0.82033 0.1074 0.90923 0.0
C713 C 0.83135 0.10473 0.89962 0.0
C714 C 0.83213 0.09008 0.90172 0.0
C715 C 0.82186 0.07835 0.91318 0.0
C716 C 0.81891 0.12266 0.90717 0.0
C717 C 0.84412 0.08696 0.89229 0.0
C718 C 0.91466 0.18597 0.95722 0.0
C719 C 0.92581 0.19616 0.943 0.0
C720 C 0.90603 0.18455 0.91836 0.0
C721 C 0.90615 0.1696 0.91585 0.0
C722 C 0.8944 0.1566 0.90492 0.0
C723 C 0.88213 0.15846 0.89652 0.0
C724 C 0.88223 0.17365 0.89866 0.0
C725 C 0.89435 0.18658 0.90937 0.0
C726 C 0.89487 0.14071 0.90269 0.0
C727 C 0.86924 0.17603 0.89012 0.0
C728 C 0.90381 0.16953 0.78381 0.0
C729 C 0.90341 0.15497 0.78878 0.0
C730 C 0.89079 0.14349 0.79866 0.0
C731 C 0.87819 0.1465 0.80337 0.0
C732 C 0.87826 0.16084 0.79784 0.0
C733 C 0.89112 0.17219 0.78818 0.0
C734 C 0.89098 0.12822 0.80421 0.0
C735 C 0.86485 0.16426 0.80233 0.0
C736 C 0.764 0.02635 0.7826 0.0
C737 C 0.77378 0.04451 0.77774 0.0
C738 C 0.80162 0.06446 0.78893 0.0
C739 C 0.81561 0.0651 0.79574 0.0
C740 C 0.82789 0.07946 0.80461 0.0
C741 C 0.82617 0.09364 0.80655 0.0
C742 C 0.81221 0.09324 0.79935 0.0
C743 C 0.80007 0.07866 0.79054 0.0
C744 C 0.84269 0.07948 0.81194 0.0
C745 C 0.81016 0.10824 0.80098 0.0
C746 C 0.8429 0.11775 0.88838 0.0
C747 C 0.85615 0.13187 0.89636 0.0
C748 C 0.86841 0.14401 0.88682 0.0
C749 C 0.86761 0.14195 0.86869 0.0
C750 C 0.88009 0.15348 0.8587 0.0
C751 C 0.87927 0.1512 0.84088 0.0
C752 C 0.86593 0.13732 0.83238 0.0
C753 C 0.86508 0.13478 0.8143 0.0
C754 C 0.85179 0.1207 0.80629 0.0
C755 C 0.83921 0.10894 0.81584 0.0
C756 C 0.83971 0.11136 0.83391 0.0
C757 C 0.82718 0.09988 0.84391 0.0
C758 C 0.82805 0.10209 0.86173 0.0
C759 C 0.84153 0.1158 0.87024 0.0
C760 C 0.85406 0.12782 0.86038 0.0
C761 C 0.85318 0.12555 0.8422 0.0
C762 C 0.94185 0.18712 0.78748 0.0
C763 C 0.93088 0.18272 0.77115 0.0
O764 O 0.80256 0.07015 0.93482 0.0
O765 O 0.79018 0.05003 0.78069 0.0
O766 O 0.91613 0.18143 0.77498 0.0
O767 O 0.91669 0.19716 0.92946 0.0
H768 H 0.81074 0.08763 0.95506 0.0
H769 H 0.82123 0.06818 0.95854 0.0
H770 H 0.80073 0.05107 0.9604 0.0
H771 H 0.8096 0.06807 0.97648 0.0
H772 H 0.80238 0.09777 0.92872 0.0
H773 H 0.82231 0.0671 0.9149 0.0
H774 H 0.82978 0.13365 0.91337 0.0
H775 H 0.8079 0.12145 0.91316 0.0
H776 H 0.81847 0.12504 0.89334 0.0
H777 H 0.84517 0.07662 0.89765 0.0
H778 H 0.85637 0.09834 0.89288 0.0
H779 H 0.84006 0.08365 0.87856 0.0
H780 H 0.93267 0.19018 0.93831 0.0
H781 H 0.92197 0.1854 0.96819 0.0
H782 H 0.90605 0.17303 0.95235 0.0
H783 H 0.90752 0.19165 0.96188 0.0
H784 H 0.91524 0.16787 0.92243 0.0
H785 H 0.8944 0.19818 0.91127 0.0
H786 H 0.89327 0.13666 0.88888 0.0
H787 H 0.88468 0.13071 0.90952 0.0
H788 H 0.90647 0.1421 0.90789 0.0
H789 H 0.87064 0.18834 0.89367 0.0
H790 H 0.85702 0.16611 0.89377 0.0
H791 H 0.86973 0.17493 0.87595 0.0
H792 H 0.92868 0.17076 0.76509 0.0
H793 H 0.91292 0.15251 0.78516 0.0
H794 H 0.89144 0.18337 0.78413 0.0
H795 H 0.89027 0.12752 0.81839 0.0
H796 H 0.90209 0.12813 0.80032 0.0
H797 H 0.88015 0.11691 0.79843 0.0
H798 H 0.86611 0.17538 0.79608 0.0
H799 H 0.86502 0.16628 0.81647 0.0
H800 H 0.85282 0.15332 0.79837 0.0
H801 H 0.76987 0.0516 0.78617 0.0
H802 H 0.75072 0.02157 0.78093 0.0
H803 H 0.76674 0.02533 0.79628 0.0
H804 H 0.76718 0.01845 0.7745 0.0
H805 H 0.81678 0.05415 0.79424 0.0
H806 H 0.78957 0.07852 0.78475 0.0
H807 H 0.8437 0.08194 0.82607 0.0
H808 H 0.85384 0.08962 0.80649 0.0
H809 H 0.84224 0.06748 0.80919 0.0
H810 H 0.79843 0.10587 0.79501 0.0
H811 H 0.8203 0.11886 0.79475 0.0
H812 H 0.81073 0.11199 0.81477 0.0
H813 H 0.85711 0.13328 0.91029 0.0
H814 H 0.89068 0.16434 0.86456 0.0
H815 H 0.88929 0.16044 0.83387 0.0
H816 H 0.85138 0.11872 0.79245 0.0
H817 H 0.81659 0.089 0.83806 0.0
H818 H 0.81806 0.09285 0.86878 0.0
H819 H 0.94382 0.19886 0.79388 0.0
H820 H 0.95383 0.18869 0.78423 0.0
H821 H 0.93631 0.17713 0.79674 0.0
C822 C 0.81251 0.73537 0.95617 0.0
C823 C 0.80047 0.72546 0.94109 0.0
C824 C 0.8162 0.71798 0.92181 0.0
C825 C 0.82685 0.73418 0.91663 0.0
C826 C 0.83918 0.73724 0.90525 0.0
C827 C 0.84067 0.7238 0.89858 0.0
C828 C 0.8298 0.70745 0.90348 0.0
C829 C 0.81776 0.70479 0.91512 0.0
C830 C 0.85075 0.75488 0.90051 0.0
C831 C 0.83095 0.69281 0.89648 0.0
C832 C 0.95897 0.7517 0.92266 0.0
C833 C 0.9437 0.73703 0.92958 0.0
C834 C 0.92094 0.7292 0.90857 0.0
C835 C 0.90967 0.7162 0.89749 0.0
C836 C 0.89673 0.71684 0.88941 0.0
C837 C 0.89528 0.73112 0.89216 0.0
C838 C 0.90682 0.7445 0.90312 0.0
C839 C 0.91949 0.74338 0.91131 0.0
C840 C 0.8845 0.70216 0.8781 0.0
C841 C 0.90572 0.75997 0.90619 0.0
C842 C 0.92062 0.75643 0.7843 0.0
C843 C 0.9097 0.73975 0.78753 0.0
C844 C 0.89547 0.73526 0.79632 0.0
C845 C 0.89228 0.7478 0.80226 0.0
C846 C 0.90287 0.76455 0.79826 0.0
C847 C 0.91684 0.76862 0.78909 0.0
C848 C 0.88409 0.71718 0.79966 0.0
C849 C 0.89973 0.7782 0.80421 0.0
C850 C 0.77921 0.74183 0.79397 0.0
C851 C 0.78882 0.74053 0.77909 0.0
C852 C 0.80718 0.7314 0.7907 0.0
C853 C 0.8102 0.71821 0.7906 0.0
C854 C 0.82424 0.71988 0.79882 0.0
C855 C 0.83555 0.73521 0.80733 0.0
C856 C 0.83258 0.74862 0.8076 0.0
C857 C 0.81835 0.74656 0.79941 0.0
C858 C 0.82697 0.70528 0.79842 0.0
C859 C 0.84443 0.76513 0.81658 0.0
C860 C 0.85396 0.72698 0.88692 0.0
C861 C 0.86801 0.72793 0.89402 0.0
C862 C 0.88135 0.7317 0.88402 0.0
C863 C 0.88091 0.73512 0.86653 0.0
C864 C 0.89445 0.73991 0.85635 0.0
C865 C 0.89376 0.74291 0.83906 0.0
C866 C 0.87943 0.741 0.83122 0.0
C867 C 0.87844 0.7435 0.81352 0.0
C868 C 0.86404 0.74157 0.80617 0.0
C869 C 0.85047 0.73717 0.81604 0.0
C870 C 0.8512 0.73458 0.83375 0.0
C871 C 0.83776 0.73008 0.84404 0.0
C872 C 0.83863 0.72763 0.86146 0.0
C873 C 0.85292 0.72942 0.86923 0.0
C874 C 0.86653 0.73369 0.85905 0.0
C875 C 0.86573 0.73645 0.84133 0.0
C876 C 0.96288 0.77054 0.78435 0.0
C877 C 0.94554 0.75564 0.78213 0.0
O878 O 0.80446 0.71448 0.93331 0.0
O879 O 0.79336 0.72886 0.78233 0.0
O880 O 0.93506 0.76111 0.77706 0.0
O881 O 0.93297 0.72747 0.9161 0.0
H882 H 0.8008 0.73427 0.93158 0.0
H883 H 0.825 0.74315 0.95161 0.0
H884 H 0.81282 0.72689 0.96568 0.0
H885 H 0.80895 0.74377 0.96268 0.0
H886 H 0.82583 0.74457 0.92154 0.0
H887 H 0.80949 0.69233 0.91913 0.0
H888 H 0.86354 0.75797 0.90285 0.0
H889 H 0.84883 0.7641 0.9079 0.0
H890 H 0.84905 0.75611 0.88661 0.0
H891 H 0.8206 0.68074 0.90021 0.0
H892 H 0.84246 0.69385 0.9014 0.0
H893 H 0.83123 0.69287 0.88224 0.0
H894 H 0.93779 0.74184 0.93838 0.0
H895 H 0.96761 0.75936 0.93345 0.0
H896 H 0.95571 0.75977 0.91545 0.0
H897 H 0.96511 0.7472 0.91387 0.0
H898 H 0.91093 0.70535 0.89541 0.0
H899 H 0.92823 0.75365 0.91969 0.0
H900 H 0.88549 0.70582 0.86457 0.0
H901 H 0.87194 0.6982 0.88195 0.0
H902 H 0.88642 0.69137 0.87871 0.0
H903 H 0.91657 0.76998 0.91353 0.0
H904 H 0.89474 0.75686 0.9135 0.0
H905 H 0.90442 0.76475 0.89373 0.0
H906 H 0.94244 0.75039 0.7951 0.0
H907 H 0.91232 0.73023 0.78327 0.0
H908 H 0.92527 0.78144 0.7863 0.0
H909 H 0.88512 0.71514 0.81348 0.0
H910 H 0.88694 0.70879 0.79197 0.0
H911 H 0.87128 0.7137 0.79665 0.0
H912 H 0.90943 0.79067 0.80055 0.0
H913 H 0.89886 0.77831 0.8184 0.0
H914 H 0.8879 0.77577 0.79852 0.0
H915 H 0.79979 0.75295 0.77763 0.0
H916 H 0.77531 0.75096 0.79125 0.0
H917 H 0.78693 0.74611 0.80601 0.0
H918 H 0.76827 0.72955 0.79604 0.0
H919 H 0.80149 0.70654 0.78397 0.0
H920 H 0.8161 0.75682 0.80001 0.0
H921 H 0.82865 0.70232 0.81174 0.0
H922 H 0.83828 0.70856 0.79165 0.0
H923 H 0.81668 0.69399 0.79184 0.0
H924 H 0.8408 0.77463 0.81486 0.0
H925 H 0.85677 0.76987 0.81158 0.0
H926 H 0.84522 0.76345 0.83053 0.0
H927 H 0.86854 0.72561 0.90751 0.0
H928 H 0.90575 0.74145 0.86166 0.0
H929 H 0.9046 0.74663 0.8319 0.0
H930 H 0.86335 0.74342 0.79257 0.0
H931 H 0.82642 0.72845 0.83875 0.0
H932 H 0.82792 0.72419 0.86875 0.0
H933 H 0.97158 0.7663 0.78765 0.0
H934 H 0.96347 0.77909 0.79496 0.0
H935 H 0.96669 0.77764 0.77249 0.0
C936 C 0.88676 0.60075 0.41456 0.0
C937 C 0.88222 0.60981 0.40141 0.0
C938 C 0.86884 0.62205 0.41822 0.0
C939 C 0.87066 0.63693 0.42517 0.0
C940 C 0.8584 0.63712 0.43468 0.0
C941 C 0.8439 0.622 0.4373 0.0
C942 C 0.84182 0.60688 0.43015 0.0
C943 C 0.85431 0.60703 0.42072 0.0
C944 C 0.86102 0.65347 0.44215 0.0
C945 C 0.82651 0.59054 0.43275 0.0
C946 C 0.73057 0.62287 0.40306 0.0
C947 C 0.7405 0.61752 0.41297 0.0
C948 C 0.76871 0.62754 0.42277 0.0
C949 C 0.76566 0.61256 0.42983 0.0
C950 C 0.77814 0.61139 0.43839 0.0
C951 C 0.79389 0.62565 0.44056 0.0
C952 C 0.79694 0.6408 0.43367 0.0
C953 C 0.78435 0.64146 0.42468 0.0
C954 C 0.77446 0.59484 0.44503 0.0
C955 C 0.8135 0.65631 0.43582 0.0
C956 C 0.77807 0.6286 0.55564 0.0
C957 C 0.77539 0.61255 0.55192 0.0
C958 C 0.78549 0.61006 0.54085 0.0
C959 C 0.79879 0.62395 0.53373 0.0
C960 C 0.80162 0.64016 0.53767 0.0
C961 C 0.79101 0.64221 0.54833 0.0
C962 C 0.78199 0.59257 0.53689 0.0
C963 C 0.81593 0.65534 0.53078 0.0
C964 C 0.89558 0.59168 0.54712 0.0
C965 C 0.89153 0.60553 0.5494 0.0
C966 C 0.86504 0.60332 0.54503 0.0
C967 C 0.84877 0.59128 0.54142 0.0
C968 C 0.83803 0.59535 0.53334 0.0
C969 C 0.84364 0.61205 0.52931 0.0
C970 C 0.85993 0.62447 0.53368 0.0
C971 C 0.87053 0.61995 0.54136 0.0
C972 C 0.82075 0.58175 0.52893 0.0
C973 C 0.86617 0.64248 0.53012 0.0
C974 C 0.83125 0.62197 0.44818 0.0
C975 C 0.81895 0.62378 0.44027 0.0
C976 C 0.80713 0.62463 0.44992 0.0
C977 C 0.8078 0.62403 0.46805 0.0
C978 C 0.79663 0.62564 0.47827 0.0
C979 C 0.79723 0.62477 0.49605 0.0
C980 C 0.8091 0.62236 0.50433 0.0
C981 C 0.80989 0.62157 0.52241 0.0
C982 C 0.82145 0.61852 0.53013 0.0
C983 C 0.83244 0.61638 0.52033 0.0
C984 C 0.83222 0.61773 0.5023 0.0
C985 C 0.84339 0.61612 0.49208 0.0
C986 C 0.84323 0.6177 0.4744 0.0
C987 C 0.83158 0.62046 0.46616 0.0
C988 C 0.81994 0.62172 0.47615 0.0
C989 C 0.82045 0.62065 0.49428 0.0
C990 C 0.75256 0.62903 0.59044 0.0
C991 C 0.75814 0.62079 0.57799 0.0
O992 O 0.88143 0.62285 0.40945 0.0
O993 O 0.87504 0.59844 0.55204 0.0
O994 O 0.76852 0.63153 0.56618 0.0
O995 O 0.75706 0.62905 0.41394 0.0
H996 H 0.8702 0.60078 0.39514 0.0
H997 H 0.87723 0.59512 0.42416 0.0
H998 H 0.89849 0.6095 0.4215 0.0
H999 H 0.88784 0.59061 0.408 0.0
H1000 H 0.88186 0.64845 0.42321 0.0
H1001 H 0.85261 0.59534 0.41556 0.0
H1002 H 0.85098 0.65538 0.43764 0.0
H1003 H 0.87279 0.66421 0.43855 0.0
H1004 H 0.86081 0.65319 0.45638 0.0
H1005 H 0.82648 0.5799 0.42588 0.0
H1006 H 0.81572 0.59115 0.42815 0.0
H1007 H 0.82524 0.5882 0.44667 0.0
H1008 H 0.73751 0.60453 0.40966 0.0
H1009 H 0.72508 0.61365 0.39174 0.0
H1010 H 0.73931 0.6334 0.39512 0.0
H1011 H 0.71606 0.62565 0.42192 0.0
H1012 H 0.75365 0.60164 0.42857 0.0
H1013 H 0.78663 0.65297 0.41922 0.0
H1014 H 0.78422 0.59214 0.44176 0.0
H1015 H 0.76263 0.58444 0.4397 0.0
H1016 H 0.77393 0.59527 0.45923 0.0
H1017 H 0.81333 0.66754 0.43172 0.0
H1018 H 0.82227 0.65474 0.42797 0.0
H1019 H 0.81799 0.65838 0.44944 0.0
H1020 H 0.74839 0.6086 0.5722 0.0
H1021 H 0.76536 0.6019 0.55746 0.0
H1022 H 0.79298 0.65454 0.55132 0.0
H1023 H 0.78301 0.59055 0.52296 0.0
H1024 H 0.76967 0.58307 0.54076 0.0
H1025 H 0.79109 0.59069 0.54401 0.0
H1026 H 0.81774 0.66708 0.53701 0.0
H1027 H 0.8139 0.65563 0.51676 0.0
H1028 H 0.82726 0.65485 0.53276 0.0
H1029 H 0.89458 0.61221 0.53718 0.0
H1030 H 0.90875 0.59705 0.54485 0.0
H1031 H 0.88849 0.58335 0.53585 0.0
H1032 H 0.89249 0.58413 0.55868 0.0
H1033 H 0.84463 0.57852 0.5445 0.0
H1034 H 0.88302 0.62942 0.54461 0.0
H1035 H 0.81761 0.58201 0.51518 0.0
H1036 H 0.81231 0.58391 0.53672 0.0
H1037 H 0.81874 0.5692 0.53145 0.0
H1038 H 0.87859 0.65084 0.53589 0.0
H1039 H 0.8578 0.64646 0.53524 0.0
H1040 H 0.86651 0.64395 0.51603 0.0
H1041 H 0.81855 0.62449 0.42642 0.0
H1042 H 0.78729 0.62762 0.47265 0.0
H1043 H 0.78823 0.62597 0.50322 0.0
H1044 H 0.82184 0.61769 0.54398 0.0
H1045 H 0.85251 0.61378 0.49765 0.0
H1046 H 0.85225 0.61653 0.46724 0.0
H1047 H 0.73896 0.62253 0.588 0.0
H1048 H 0.75485 0.64095 0.58469 0.0
H1049 H 0.76351 0.6286 0.61449 0.0
C1050 C 0.39246 0.25358 0.37502 0.0
C1051 C 0.38361 0.25611 0.38996 0.0
C1052 C 0.39058 0.25194 0.41891 0.0
C1053 C 0.37485 0.24255 0.42502 0.0
C1054 C 0.37178 0.23173 0.43839 0.0
C1055 C 0.38473 0.23041 0.44582 0.0
C1056 C 0.40081 0.2409 0.44064 0.0
C1057 C 0.40354 0.25169 0.42731 0.0
C1058 C 0.35456 0.22108 0.44396 0.0
C1059 C 0.41494 0.24001 0.4485 0.0
C1060 C 0.35044 0.1021 0.40841 0.0
C1061 C 0.36154 0.1202 0.41219 0.0
C1062 C 0.35869 0.14247 0.42647 0.0
C1063 C 0.37519 0.1528 0.43152 0.0
C1064 C 0.38029 0.16733 0.44191 0.0
C1065 C 0.36865 0.17151 0.44733 0.0
C1066 C 0.35205 0.16107 0.44227 0.0
C1067 C 0.34732 0.14672 0.43184 0.0
C1068 C 0.3981 0.17831 0.44698 0.0
C1069 C 0.33931 0.16518 0.44772 0.0
C1070 C 0.37608 0.15299 0.55917 0.0
C1071 C 0.39034 0.16487 0.5515 0.0
C1072 C 0.39062 0.17775 0.54238 0.0
C1073 C 0.3763 0.17869 0.54057 0.0
C1074 C 0.36195 0.16686 0.5483 0.0
C1075 C 0.36206 0.15421 0.55757 0.0
C1076 C 0.40625 0.19029 0.53452 0.0
C1077 C 0.34646 0.16748 0.54657 0.0
C1078 C 0.39919 0.30614 0.55866 0.0
C1079 C 0.38546 0.28846 0.5616 0.0
C1080 C 0.38904 0.26439 0.55738 0.0
C1081 C 0.40164 0.2609 0.55615 0.0
C1082 C 0.39928 0.24654 0.54709 0.0
C1083 C 0.38376 0.23518 0.53946 0.0
C1084 C 0.37075 0.23829 0.54131 0.0
C1085 C 0.37354 0.2529 0.55021 0.0
C1086 C 0.41342 0.24363 0.54549 0.0
C1087 C 0.35391 0.22617 0.53387 0.0
C1088 C 0.38114 0.21631 0.45678 0.0
C1089 C 0.37742 0.2013 0.44833 0.0
C1090 C 0.37383 0.18728 0.45743 0.0
C1091 C 0.37432 0.18825 0.47558 0.0
C1092 C 0.37125 0.1745 0.48515 0.0
C1093 C 0.37191 0.17564 0.50302 0.0
C1094 C 0.37539 0.19048 0.51199 0.0
C1095 C 0.3764 0.19184 0.53016 0.0
C1096 C 0.37892 0.20643 0.53868 0.0
C1097 C 0.38115 0.22008 0.52954 0.0
C1098 C 0.38118 0.2193 0.51136 0.0
C1099 C 0.38437 0.2331 0.50174 0.0
C1100 C 0.38445 0.2322 0.48386 0.0
C1101 C 0.3812 0.21744 0.47492 0.0
C1102 C 0.37789 0.20336 0.48435 0.0
C1103 C 0.37809 0.20437 0.50258 0.0
C1104 C 0.38904 0.12748 0.55464 0.0
C1105 C 0.38759 0.13661 0.57065 0.0
O1106 O 0.39358 0.26102 0.40475 0.0
O1107 O 0.39223 0.2788 0.56573 0.0
O1108 O 0.37525 0.14021 0.56805 0.0
O1109 O 0.35314 0.12827 0.41652 0.0
H1110 H 0.37242 0.24379 0.39127 0.0
H1111 H 0.39465 0.24321 0.37764 0.0
H1112 H 0.40443 0.26493 0.37332 0.0
H1113 H 0.38493 0.25034 0.36289 0.0
H1114 H 0.36491 0.24338 0.4191 0.0
H1115 H 0.41571 0.2593 0.42275 0.0
H1116 H 0.34988 0.20799 0.43938 0.0
H1117 H 0.3463 0.22521 0.43873 0.0
H1118 H 0.35427 0.22136 0.4582 0.0
H1119 H 0.42684 0.25002 0.44421 0.0
H1120 H 0.41367 0.22778 0.44484 0.0
H1121 H 0.41488 0.24096 0.46273 0.0
H1122 H 0.37118 0.12685 0.40283 0.0
H1123 H 0.35218 0.10009 0.39445 0.0
H1124 H 0.33785 0.10013 0.40597 0.0
H1125 H 0.35601 0.09054 0.42863 0.0
H1126 H 0.38411 0.14967 0.42726 0.0
H1127 H 0.33464 0.13865 0.42784 0.0
H1128 H 0.39969 0.17994 0.4612 0.0
H1129 H 0.40268 0.19083 0.44186 0.0
H1130 H 0.40559 0.17312 0.44212 0.0
H1131 H 0.32681 0.15536 0.44338 0.0
H1132 H 0.34188 0.17711 0.44231 0.0
H1133 H 0.33981 0.16684 0.46194 0.0
H1134 H 0.39942 0.14835 0.57309 0.0
H1135 H 0.40135 0.16425 0.55239 0.0
H1136 H 0.35111 0.14506 0.56348 0.0
H1137 H 0.40483 0.1885 0.52031 0.0
H1138 H 0.41678 0.18907 0.53881 0.0
H1139 H 0.409 0.20314 0.5379 0.0
H1140 H 0.33613 0.15696 0.55273 0.0
H1141 H 0.34314 0.16717 0.53276 0.0
H1142 H 0.34843 0.17935 0.55257 0.0
H1143 H 0.37809 0.28375 0.54929 0.0
H1144 H 0.39409 0.31415 0.55523 0.0
H1145 H 0.40656 0.30591 0.54791 0.0
H1146 H 0.40731 0.31167 0.57037 0.0
H1147 H 0.41349 0.26973 0.56197 0.0
H1148 H 0.36357 0.25523 0.55172 0.0
H1149 H 0.41492 0.24126 0.53178 0.0
H1150 H 0.41092 0.23241 0.55244 0.0
H1151 H 0.42502 0.25435 0.55085 0.0
H1152 H 0.34477 0.22954 0.53787 0.0
H1153 H 0.35002 0.21342 0.53792 0.0
H1154 H 0.35409 0.22591 0.51963 0.0
H1155 H 0.37707 0.20044 0.43438 0.0
H1156 H 0.36847 0.16276 0.47892 0.0
H1157 H 0.36955 0.16468 0.50973 0.0
H1158 H 0.37951 0.20732 0.55262 0.0
H1159 H 0.38695 0.24478 0.50794 0.0
H1160 H 0.38702 0.24319 0.47709 0.0
H1161 H 0.39832 0.12382 0.55708 0.0
H1162 H 0.39286 0.13569 0.5436 0.0
H1163 H 0.37719 0.11618 0.55095 0.0
C1164 C 0.86539 0.261 0.39798 0.0
C1165 C 0.87821 0.26522 0.4125 0.0
C1166 C 0.8635 0.24169 0.43118 0.0
C1167 C 0.85266 0.24652 0.43738 0.0
C1168 C 0.83998 0.23618 0.44785 0.0
C1169 C 0.83823 0.22081 0.45243 0.0
C1170 C 0.8494 0.21613 0.44667 0.0
C1171 C 0.86189 0.22665 0.4361 0.0
C1172 C 0.82824 0.24154 0.45375 0.0
C1173 C 0.84799 0.19992 0.45152 0.0
C1174 C 0.71967 0.12888 0.42323 0.0
C1175 C 0.7334 0.12864 0.41353 0.0
C1176 C 0.75752 0.14423 0.43341 0.0
C1177 C 0.76837 0.14239 0.44412 0.0
C1178 C 0.78109 0.15605 0.45339 0.0
C1179 C 0.78281 0.17197 0.45213 0.0
C1180 C 0.77189 0.17399 0.44127 0.0
C1181 C 0.75939 0.16009 0.43189 0.0
C1182 C 0.79272 0.15342 0.46449 0.0
C1183 C 0.77338 0.19079 0.43969 0.0
C1184 C 0.74913 0.168 0.55822 0.0
C1185 C 0.75875 0.16079 0.55502 0.0
C1186 C 0.77402 0.16998 0.5478 0.0
C1187 C 0.77961 0.1866 0.54348 0.0
C1188 C 0.77024 0.19408 0.54738 0.0
C1189 C 0.75518 0.1847 0.55492 0.0
C1190 C 0.78398 0.16181 0.5444 0.0
C1191 C 0.77591 0.21183 0.54312 0.0
C1192 C 0.90279 0.27211 0.55321 0.0
C1193 C 0.89527 0.27192 0.57054 0.0
C1194 C 0.8685 0.24676 0.5646 0.0
C1195 C 0.86126 0.22947 0.56386 0.0
C1196 C 0.84667 0.21935 0.55432 0.0
C1197 C 0.83883 0.22675 0.54579 0.0
C1198 C 0.84563 0.24423 0.54726 0.0
C1199 C 0.86056 0.2541 0.55642 0.0
C1200 C 0.83978 0.20076 0.55316 0.0
C1201 C 0.83723 0.25249 0.539 0.0
C1202 C 0.82422 0.20936 0.46253 0.0
C1203 C 0.81035 0.19684 0.45353 0.0
C1204 C 0.79623 0.18643 0.46204 0.0
C1205 C 0.7956 0.18905 0.47991 0.0
C1206 C 0.78115 0.1798 0.48861 0.0
C1207 C 0.78075 0.18224 0.50625 0.0
C1208 C 0.79491 0.19368 0.51594 0.0
C1209 C 0.79476 0.19586 0.53397 0.0
C1210 C 0.80915 0.20697 0.54326 0.0
C1211 C 0.82378 0.21617 0.535 0.0
C1212 C 0.82406 0.21458 0.5169 0.0
C1213 C 0.83846 0.22391 0.50808 0.0
C1214 C 0.8385 0.22245 0.49025 0.0
C1215 C 0.8243 0.21111 0.48062 0.0
C1216 C 0.80982 0.20115 0.48929 0.0
C1217 C 0.80958 0.20319 0.50739 0.0
C1218 C 0.70613 0.13906 0.55852 0.0
C1219 C 0.7234 0.14226 0.56161 0.0
O1220 O 0.87546 0.2509 0.4203 0.0
O1221 O 0.88309 0.25578 0.57332 0.0
O1222 O 0.73396 0.15922 0.56431 0.0
O1223 O 0.74548 0.13028 0.42502 0.0
H1224 H 0.87773 0.27397 0.42219 0.0
H1225 H 0.85303 0.25542 0.4031 0.0
H1226 H 0.86542 0.25198 0.38833 0.0
H1227 H 0.86791 0.27246 0.39149 0.0
H1228 H 0.8538 0.2582 0.43395 0.0
H1229 H 0.87037 0.22306 0.43138 0.0
H1230 H 0.8156 0.2319 0.44964 0.0
H1231 H 0.83091 0.25359 0.44857 0.0
H1232 H 0.82883 0.24278 0.46799 0.0
H1233 H 0.85844 0.19875 0.44725 0.0
H1234 H 0.8366 0.18938 0.44556 0.0
H1235 H 0.84725 0.19885 0.46567 0.0
H1236 H 0.73861 0.13894 0.4045 0.0
H1237 H 0.70992 0.12741 0.41402 0.0
H1238 H 0.72431 0.14086 0.43068 0.0
H1239 H 0.71437 0.11864 0.43229 0.0
H1240 H 0.76684 0.13011 0.44514 0.0
H1241 H 0.75115 0.16174 0.42354 0.0
H1242 H 0.7909 0.15526 0.47823 0.0
H1243 H 0.80551 0.16267 0.46178 0.0
H1244 H 0.79088 0.14073 0.46243 0.0
H1245 H 0.76308 0.19005 0.43197 0.0
H1246 H 0.7849 0.19924 0.43347 0.0
H1247 H 0.77391 0.19639 0.45265 0.0
H1248 H 0.72646 0.13764 0.54971 0.0
H1249 H 0.75437 0.148 0.5581 0.0
H1250 H 0.74775 0.1902 0.55769 0.0
H1251 H 0.78425 0.15975 0.53034 0.0
H1252 H 0.77894 0.14964 0.55047 0.0
H1253 H 0.79674 0.17007 0.54931 0.0
H1254 H 0.76702 0.21571 0.54666 0.0
H1255 H 0.77791 0.2133 0.52914 0.0
H1256 H 0.78772 0.22031 0.55004 0.0
H1257 H 0.89019 0.28034 0.57036 0.0
H1258 H 0.91179 0.28498 0.5499 0.0
H1259 H 0.89321 0.26682 0.54273 0.0
H1260 H 0.90884 0.26457 0.55359 0.0
H1261 H 0.8674 0.22393 0.57039 0.0
H1262 H 0.86581 0.26745 0.55722 0.0
H1263 H 0.8372 0.1961 0.53951 0.0
H1264 H 0.8281 0.19451 0.55979 0.0
H1265 H 0.84817 0.19715 0.55913 0.0
H1266 H 0.84258 0.26567 0.5437 0.0
H1267 H 0.82405 0.24567 0.54159 0.0
H1268 H 0.83838 0.25221 0.52487 0.0
H1269 H 0.81061 0.19508 0.43973 0.0
H1270 H 0.76995 0.17067 0.48184 0.0
H1271 H 0.76924 0.17486 0.51222 0.0
H1272 H 0.80899 0.20835 0.55712 0.0
H1273 H 0.84984 0.2326 0.51482 0.0
H1274 H 0.84988 0.23009 0.48412 0.0
H1275 H 0.69743 0.12553 0.55614 0.0
H1276 H 0.70565 0.14563 0.54706 0.0
H1277 H 0.70229 0.14367 0.56978 0.0
C1278 C 0.04847 0.47727 0.30527 0.0
C1279 C 0.03402 0.46619 0.2929 0.0
C1280 C 0.02944 0.47133 0.26341 0.0
C1281 C 0.01239 0.46147 0.26254 0.0
C1282 C 0.00312 0.46398 0.25004 0.0
C1283 C 0.01107 0.47678 0.2384 0.0
C1284 C 0.02831 0.48617 0.23876 0.0
C1285 C 0.03726 0.48305 0.25108 0.0
C1286 C 0.98481 0.45336 0.24972 0.0
C1287 C 0.03731 0.50014 0.22679 0.0
C1288 C 0.952 0.52948 0.29445 0.0
C1289 C 0.96726 0.53722 0.28377 0.0
C1290 C 0.96895 0.52329 0.25744 0.0
C1291 C 0.98581 0.52973 0.25726 0.0
C1292 C 0.99233 0.52232 0.2466 0.0
C1293 C 0.9817 0.50759 0.23662 0.0
C1294 C 0.96462 0.50085 0.23717 0.0
C1295 C 0.95855 0.50918 0.2471 0.0
C1296 C 0.0106 0.53031 0.24613 0.0
C1297 C 0.95265 0.48471 0.22761 0.0
C1298 C 0.9667 0.51863 0.12555 0.0
C1299 C 0.98328 0.52577 0.13022 0.0
C1300 C 0.989 0.51667 0.13899 0.0
C1301 C 0.97788 0.50012 0.14318 0.0
C1302 C 0.96128 0.49267 0.13779 0.0
C1303 C 0.95594 0.502 0.12884 0.0
C1304 C 0.00686 0.52484 0.14407 0.0
C1305 C 0.94914 0.47501 0.14189 0.0
C1306 C 0.00882 0.40443 0.13456 0.0
C1307 C 0.9979 0.40755 0.12238 0.0
C1308 C 0.00168 0.4354 0.1284 0.0
C1309 C 0.01425 0.45192 0.13106 0.0
C1310 C 0.01169 0.46379 0.13976 0.0
C1311 C 0.9961 0.45899 0.14583 0.0
C1312 C 0.98319 0.44243 0.14274 0.0
C1313 C 0.98606 0.43084 0.13391 0.0
C1314 C 0.02563 0.48142 0.14256 0.0
C1315 C 0.96632 0.43698 0.14872 0.0
C1316 C 0.00152 0.482 0.22764 0.0
C1317 C 0.99554 0.49121 0.23591 0.0
C1318 C 0.98836 0.49862 0.22665 0.0
C1319 C 0.98745 0.49711 0.20848 0.0
C1320 C 0.98168 0.50557 0.1986 0.0
C1321 C 0.98042 0.50363 0.18075 0.0
C1322 C 0.98488 0.49314 0.17209 0.0
C1323 C 0.98349 0.49097 0.15396 0.0
C1324 C 0.98749 0.48 0.1458 0.0
C1325 C 0.99314 0.47128 0.15526 0.0
C1326 C 0.99527 0.47383 0.17335 0.0
C1327 C 0.00156 0.4658 0.18324 0.0
C1328 C 0.00373 0.46852 0.20102 0.0
C1329 C 0.99933 0.47907 0.20962 0.0
C1330 C 0.99253 0.48691 0.19997 0.0
C1331 C 0.99092 0.48464 0.18179 0.0
C1332 C 0.95109 0.54115 0.13629 0.0
C1333 C 0.96397 0.54308 0.12368 0.0
O1334 O 0.03868 0.47016 0.27617 0.0
O1335 O 0.00505 0.42449 0.12006 0.0
O1336 O 0.96081 0.52748 0.11782 0.0
O1337 O 0.96238 0.53066 0.26705 0.0
H1338 H 0.02427 0.46904 0.29597 0.0
H1339 H 0.05229 0.49053 0.30369 0.0
H1340 H 0.059 0.47559 0.30268 0.0
H1341 H 0.04501 0.47426 0.31878 0.0
H1342 H 0.00628 0.45197 0.27173 0.0
H1343 H 0.05044 0.4904 0.25174 0.0
H1344 H 0.9797 0.4606 0.25572 0.0
H1345 H 0.98072 0.44189 0.2569 0.0
H1346 H 0.97977 0.4498 0.23628 0.0
H1347 H 0.05066 0.5071 0.2297 0.0
H1348 H 0.03276 0.50901 0.22769 0.0
H1349 H 0.03508 0.49501 0.21334 0.0
H1350 H 0.9757 0.53344 0.28936 0.0
H1351 H 0.95526 0.53154 0.30841 0.0
H1352 H 0.94489 0.5158 0.29172 0.0
H1353 H 0.94411 0.53471 0.29121 0.0
H1354 H 0.99393 0.54077 0.26515 0.0
H1355 H 0.94555 0.50434 0.24733 0.0
H1356 H 0.0147 0.52363 0.25456 0.0
H1357 H 0.0169 0.54357 0.2508 0.0
H1358 H 0.0144 0.52958 0.2329 0.0
H1359 H 0.94037 0.47908 0.233 0.0
H1360 H 0.9568 0.47553 0.22801 0.0
H1361 H 0.95146 0.48712 0.21396 0.0
H1362 H 0.976 0.55 0.13075 0.0
H1363 H 0.99176 0.53842 0.12698 0.0
H1364 H 0.94322 0.49654 0.12489 0.0
H1365 H 0.00848 0.52659 0.15828 0.0
H1366 H 0.01416 0.53715 0.13841 0.0
H1367 H 0.01168 0.51669 0.13992 0.0
H1368 H 0.93658 0.47118 0.13722 0.0
H1369 H 0.94918 0.47365 0.15599 0.0
H1370 H 0.95271 0.46642 0.13588 0.0
H1371 H 0.98612 0.40256 0.12873 0.0
H1372 H 0.00394 0.39086 0.13549 0.0
H1373 H 0.00916 0.4098 0.1476 0.0
H1374 H 0.02149 0.41041 0.1302 0.0
H1375 H 0.02618 0.45544 0.12648 0.0
H1376 H 0.97594 0.41841 0.1311 0.0
H1377 H 0.0281 0.48468 0.15655 0.0
H1378 H 0.02228 0.49014 0.13691 0.0
H1379 H 0.03695 0.48327 0.13674 0.0
H1380 H 0.95768 0.42353 0.14579 0.0
H1381 H 0.96154 0.44426 0.1424 0.0
H1382 H 0.96682 0.43954 0.1628 0.0
H1383 H 0.99672 0.49285 0.24982 0.0
H1384 H 0.97811 0.51382 0.20456 0.0
H1385 H 0.97579 0.51039 0.17385 0.0
H1386 H 0.98607 0.47815 0.13192 0.0
H1387 H 0.00503 0.45745 0.17731 0.0
H1388 H 0.00872 0.46214 0.20801 0.0
H1389 H 0.93868 0.53401 0.13008 0.0
H1390 H 0.95336 0.55357 0.14096 0.0
H1391 H 0.9516 0.53439 0.14755 0.0
C1392 C 0.44563 0.37464 0.26881 0.0
C1393 C 0.45013 0.3926 0.27335 0.0
C1394 C 0.45972 0.41143 0.24957 0.0
C1395 C 0.4563 0.42227 0.2409 0.0
C1396 C 0.46822 0.43514 0.23159 0.0
C1397 C 0.48385 0.43695 0.23072 0.0
C1398 C 0.48721 0.42561 0.23889 0.0
C1399 C 0.47508 0.4129 0.2482 0.0
C1400 C 0.4642 0.44696 0.22293 0.0
C1401 C 0.50366 0.42701 0.23787 0.0
C1402 C 0.58186 0.56323 0.27567 0.0
C1403 C 0.57359 0.54496 0.27195 0.0
C1404 C 0.54887 0.52397 0.25565 0.0
C1405 C 0.55406 0.51244 0.25276 0.0
C1406 C 0.54456 0.49788 0.24237 0.0
C1407 C 0.52962 0.49485 0.23474 0.0
C1408 C 0.52433 0.50637 0.23781 0.0
C1409 C 0.53403 0.52076 0.24827 0.0
C1410 C 0.55045 0.48574 0.23948 0.0
C1411 C 0.50844 0.5035 0.22997 0.0
C1412 C 0.56791 0.51604 0.12785 0.0
C1413 C 0.56912 0.50319 0.13547 0.0
C1414 C 0.55575 0.49025 0.1432 0.0
C1415 C 0.54084 0.49011 0.14336 0.0
C1416 C 0.53951 0.50294 0.13568 0.0
C1417 C 0.5531 0.51577 0.12804 0.0
C1418 C 0.55762 0.4768 0.15139 0.0
C1419 C 0.52379 0.50317 0.13573 0.0
C1420 C 0.44783 0.36078 0.11322 0.0
C1421 C 0.4483 0.3774 0.11273 0.0
C1422 C 0.47317 0.404 0.11803 0.0
C1423 C 0.48945 0.40898 0.12161 0.0
C1424 C 0.49948 0.42327 0.13209 0.0
C1425 C 0.49317 0.43319 0.13852 0.0
C1426 C 0.47686 0.42861 0.13414 0.0
C1427 C 0.46694 0.41388 0.12418 0.0
C1428 C 0.51676 0.42763 0.13635 0.0
C1429 C 0.46986 0.43922 0.13996 0.0
C1430 C 0.49682 0.451 0.22166 0.0
C1431 C 0.50723 0.46563 0.23136 0.0
C1432 C 0.51942 0.47957 0.22367 0.0
C1433 C 0.52134 0.47898 0.20575 0.0
C1434 C 0.53346 0.49278 0.19758 0.0
C1435 C 0.53527 0.49206 0.17996 0.0
C1436 C 0.52493 0.47756 0.16981 0.0
C1437 C 0.52682 0.47666 0.15193 0.0
C1438 C 0.51603 0.46227 0.1421 0.0
C1439 C 0.50369 0.44834 0.14973 0.0
C1440 C 0.502 0.44879 0.16773 0.0
C1441 C 0.49023 0.43482 0.17603 0.0
C1442 C 0.48851 0.43549 0.19368 0.0
C1443 C 0.4986 0.45011 0.20376 0.0
C1444 C 0.51083 0.46421 0.19576 0.0
C1445 C 0.51253 0.46355 0.17774 0.0
C1446 C 0.60674 0.53873 0.13452 0.0
C1447 C 0.59597 0.5311 0.11805 0.0
O1448 O 0.44787 0.39972 0.25898 0.0
O1449 O 0.46375 0.38964 0.10856 0.0
O1450 O 0.58063 0.52894 0.12036 0.0
O1451 O 0.55779 0.53837 0.2653 0.0
H1452 H 0.4631 0.39952 0.27807 0.0
H1453 H 0.45386 0.3745 0.259 0.0
H1454 H 0.43291 0.36721 0.2635 0.0
H1455 H 0.44699 0.36873 0.2804 0.0
H1456 H 0.44433 0.42086 0.24182 0.0
H1457 H 0.47764 0.40414 0.25427 0.0
H1458 H 0.47273 0.4599 0.22787 0.0
H1459 H 0.45153 0.444 0.22506 0.0
H1460 H 0.46579 0.44644 0.20889 0.0
H1461 H 0.5041 0.41671 0.24418 0.0
H1462 H 0.51312 0.43901 0.24415 0.0
H1463 H 0.50676 0.42697 0.22421 0.0
H1464 H 0.57477 0.53753 0.28222 0.0
H1465 H 0.58431 0.56484 0.29003 0.0
H1466 H 0.57204 0.56661 0.27608 0.0
H1467 H 0.60089 0.57337 0.25782 0.0
H1468 H 0.56547 0.51471 0.25858 0.0
H1469 H 0.53012 0.52972 0.25063 0.0
H1470 H 0.55205 0.48444 0.22555 0.0
H1471 H 0.54118 0.47329 0.24364 0.0
H1472 H 0.56218 0.48972 0.24656 0.0
H1473 H 0.50626 0.51389 0.23323 0.0
H1474 H 0.49822 0.49182 0.23461 0.0
H1475 H 0.50837 0.50199 0.21578 0.0
H1476 H 0.59496 0.51889 0.11486 0.0
H1477 H 0.58045 0.50314 0.13562 0.0
H1478 H 0.55224 0.52571 0.12219 0.0
H1479 H 0.55565 0.47697 0.16536 0.0
H1480 H 0.56985 0.47834 0.14963 0.0
H1481 H 0.54827 0.46441 0.14579 0.0
H1482 H 0.52471 0.51403 0.12921 0.0
H1483 H 0.5203 0.50352 0.14918 0.0
H1484 H 0.5139 0.49157 0.12919 0.0
H1485 H 0.44554 0.38011 0.12588 0.0
H1486 H 0.4356 0.35077 0.11674 0.0
H1487 H 0.45694 0.36171 0.123 0.0
H1488 H 0.45072 0.35736 0.10053 0.0
H1489 H 0.49415 0.40131 0.1166 0.0
H1490 H 0.4544 0.41016 0.12098 0.0
H1491 H 0.51986 0.43111 0.15025 0.0
H1492 H 0.52521 0.43849 0.12902 0.0
H1493 H 0.51883 0.41718 0.13299 0.0
H1494 H 0.45833 0.43579 0.13275 0.0
H1495 H 0.4787 0.4526 0.13834 0.0
H1496 H 0.46729 0.43757 0.15381 0.0
H1497 H 0.5057 0.46623 0.24508 0.0
H1498 H 0.54172 0.50429 0.20472 0.0
H1499 H 0.54484 0.50306 0.17438 0.0
H1500 H 0.51755 0.46175 0.12838 0.0
H1501 H 0.48218 0.42319 0.16897 0.0
H1502 H 0.47916 0.42439 0.19934 0.0
H1503 H 0.60756 0.55067 0.13856 0.0
H1504 H 0.61919 0.54099 0.13242 0.0
H1505 H 0.60165 0.53016 0.14518 0.0
C1506 C 0.44218 0.0017 0.29302 0.0
C1507 C 0.43424 0.00387 0.27673 0.0
C1508 C 0.44835 0.99732 0.2543 0.0
C1509 C 0.46302 0.0127 0.25541 0.0
C1510 C 0.47629 0.01524 0.24573 0.0
C1511 C 0.47498 0.00208 0.23494 0.0
C1512 C 0.46039 0.98648 0.23411 0.0
C1513 C 0.44719 0.98441 0.24363 0.0
C1514 C 0.49168 0.03205 0.24689 0.0
C1515 C 0.45868 0.97204 0.22308 0.0
C1516 C 0.57796 0.98571 0.26779 0.0
C1517 C 0.56315 0.98355 0.25867 0.0
C1518 C 0.55183 7e-05 0.24777 0.0
C1519 C 0.53865 0.98672 0.23847 0.0
C1520 C 0.5267 0.98888 0.2301 0.0
C1521 C 0.52793 0.00466 0.23104 0.0
C1522 C 0.54124 0.01814 0.24025 0.0
C1523 C 0.55307 0.01567 0.24844 0.0
C1524 C 0.51272 0.97427 0.22025 0.0
C1525 C 0.54292 0.03513 0.24146 0.0
C1526 C 0.56325 0.04054 0.12872 0.0
C1527 C 0.55254 0.02341 0.12969 0.0
C1528 C 0.53709 0.0174 0.13641 0.0
C1529 C 0.53258 0.02885 0.14274 0.0
C1530 C 0.54311 0.04613 0.14094 0.0
C1531 C 0.55826 0.05173 0.13365 0.0
C1532 C 0.52591 0.99888 0.13739 0.0
C1533 C 0.53866 0.05872 0.14733 0.0
C1534 C 0.41076 0.01314 0.14041 0.0
C1535 C 0.42489 0.02049 0.12821 0.0
C1536 C 0.44573 0.01234 0.13125 0.0
C1537 C 0.44729 0.99839 0.13349 0.0
C1538 C 0.46194 1e-05 0.1398 0.0
C1539 C 0.47534 0.01605 0.14413 0.0
C1540 C 0.4742 0.03029 0.14089 0.0
C1541 C 0.45948 0.0283 0.13421 0.0
C1542 C 0.46288 0.98454 0.14242 0.0
C1543 C 0.48841 0.0476 0.14487 0.0
C1544 C 0.48873 0.00487 0.22415 0.0
C1545 C 0.50163 0.00389 0.23176 0.0
C1546 C 0.51518 0.00694 0.22245 0.0
C1547 C 0.51609 0.01135 0.20514 0.0
C1548 C 0.5299 0.01535 0.19567 0.0
C1549 C 0.53061 0.01957 0.17861 0.0
C1550 C 0.51727 0.01931 0.17013 0.0
C1551 C 0.51761 0.02301 0.1526 0.0
C1552 C 0.50383 0.02185 0.14442 0.0
C1553 C 0.48989 0.01778 0.1535 0.0
C1554 C 0.48972 0.01508 0.17128 0.0
C1555 C 0.47635 0.01215 0.18107 0.0
C1556 C 0.47613 0.00914 0.19844 0.0
C1557 C 0.4891 0.00854 0.20664 0.0
C1558 C 0.50283 0.01177 0.19711 0.0
C1559 C 0.50327 0.01537 0.17949 0.0
C1560 C 0.60392 0.05902 0.14004 0.0
C1561 C 0.58954 0.04293 0.13208 0.0
O1562 O 0.43506 0.99434 0.26318 0.0
O1563 O 0.43084 0.00971 0.12617 0.0
O1564 O 0.57872 0.04652 0.12386 0.0
O1565 O 0.5635 0.9984 0.25626 0.0
H1566 H 0.44059 0.0172 0.27362 0.0
H1567 H 0.45508 0.00554 0.29094 0.0
H1568 H 0.43565 0.98846 0.29651 0.0
H1569 H 0.44201 0.00953 0.30396 0.0
H1570 H 0.46422 0.02284 0.26364 0.0
H1571 H 0.43587 0.97257 0.24289 0.0
H1572 H 0.50183 0.0308 0.2524 0.0
H1573 H 0.49042 0.04132 0.25502 0.0
H1574 H 0.49503 0.03685 0.23384 0.0
H1575 H 0.44736 0.96022 0.22552 0.0
H1576 H 0.4693 0.97038 0.22548 0.0
H1577 H 0.45843 0.97466 0.20932 0.0
H1578 H 0.55139 0.97361 0.26348 0.0
H1579 H 0.57354 0.97934 0.28023 0.0
H1580 H 0.5844 0.99863 0.27409 0.0
H1581 H 0.58896 0.97776 0.24902 0.0
H1582 H 0.53761 0.97461 0.23767 0.0
H1583 H 0.5633 0.0259 0.25557 0.0
H1584 H 0.51249 0.97732 0.20662 0.0
H1585 H 0.50102 0.97171 0.22565 0.0
H1586 H 0.51354 0.96281 0.22065 0.0
H1587 H 0.55403 0.04436 0.24905 0.0
H1588 H 0.53209 0.03429 0.24752 0.0
H1589 H 0.54338 0.03967 0.22836 0.0
H1590 H 0.58369 0.03477 0.14301 0.0
H1591 H 0.55643 0.01481 0.12548 0.0
H1592 H 0.56664 0.06494 0.13264 0.0
H1593 H 0.52593 0.99531 0.15083 0.0
H1594 H 0.52981 0.99172 0.12907 0.0
H1595 H 0.51323 0.9953 0.13351 0.0
H1596 H 0.54861 0.07173 0.14586 0.0
H1597 H 0.53571 0.05701 0.16109 0.0
H1598 H 0.52766 0.05675 0.14003 0.0
H1599 H 0.43405 0.0326 0.13452 0.0
H1600 H 0.40492 0.02089 0.14109 0.0
H1601 H 0.41543 0.01292 0.15352 0.0
H1602 H 0.40146 0.00017 0.13627 0.0
H1603 H 0.43678 0.98613 0.13071 0.0
H1604 H 0.4589 0.03928 0.13142 0.0
H1605 H 0.46256 0.98231 0.15635 0.0
H1606 H 0.4745 0.98614 0.13773 0.0
H1607 H 0.45258 0.97336 0.1357 0.0
H1608 H 0.4852 0.05736 0.14281 0.0
H1609 H 0.49853 0.04982 0.1365 0.0
H1610 H 0.49289 0.04882 0.15841 0.0
H1611 H 0.50109 0.00067 0.24508 0.0
H1612 H 0.5404 0.01543 0.2014 0.0
H1613 H 0.54167 0.02277 0.17209 0.0
H1614 H 0.50402 0.02428 0.13087 0.0
H1615 H 0.46591 0.01224 0.17544 0.0
H1616 H 0.46553 0.00704 0.20529 0.0
H1617 H 0.61292 0.05642 0.14633 0.0
H1618 H 0.59951 0.06449 0.14992 0.0
H1619 H 0.61002 0.06833 0.13016 0.0
C1620 C 0.58091 0.97032 0.78227 0.0
C1621 C 0.58163 0.98042 0.76677 0.0
C1622 C 0.56601 0.99364 0.77614 0.0
C1623 C 0.56748 0.00877 0.78159 0.0
C1624 C 0.55408 0.00958 0.78747 0.0
C1625 C 0.53883 0.99477 0.78808 0.0
C1626 C 0.53702 0.97949 0.78181 0.0
C1627 C 0.55062 0.97908 0.77577 0.0
C1628 C 0.55638 0.02615 0.7937 0.0
C1629 C 0.52088 0.96351 0.7822 0.0
C1630 C 0.42123 0.98299 0.74358 0.0
C1631 C 0.43246 0.97996 0.75426 0.0
C1632 C 0.46087 0.99335 0.76466 0.0
C1633 C 0.45908 0.97951 0.77327 0.0
C1634 C 0.47213 0.98035 0.78283 0.0
C1635 C 0.48717 0.99553 0.7844 0.0
C1636 C 0.48903 0.00952 0.77584 0.0
C1637 C 0.47588 0.00818 0.76591 0.0
C1638 C 0.46975 0.96497 0.79134 0.0
C1639 C 0.50482 0.02594 0.77736 0.0
C1640 C 0.45908 0.99985 0.88909 0.0
C1641 C 0.45791 0.98437 0.8859 0.0
C1642 C 0.47115 0.98343 0.87973 0.0
C1643 C 0.48592 0.99827 0.87707 0.0
C1644 C 0.48751 0.01385 0.88155 0.0
C1645 C 0.47402 0.01443 0.88758 0.0
C1646 C 0.46921 0.96659 0.87548 0.0
C1647 C 0.50321 0.02989 0.87923 0.0
C1648 C 0.59038 0.98869 0.89238 0.0
C1649 C 0.58386 0.99171 0.90909 0.0
C1650 C 0.55669 0.98623 0.89944 0.0
C1651 C 0.54057 0.97344 0.8966 0.0
C1652 C 0.52935 0.97584 0.88702 0.0
C1653 C 0.53429 0.99165 0.88057 0.0
C1654 C 0.55042 0.00491 0.88404 0.0
C1655 C 0.56154 0.002 0.89316 0.0
C1656 C 0.51227 0.96138 0.88367 0.0
C1657 C 0.55598 0.02212 0.87794 0.0
C1658 C 0.5254 0.99506 0.79708 0.0
C1659 C 0.5133 0.99583 0.78738 0.0
C1660 C 0.50071 0.99671 0.79537 0.0
C1661 C 0.50051 0.99746 0.81353 0.0
C1662 C 0.48857 0.99928 0.82201 0.0
C1663 C 0.48813 0.9994 0.83984 0.0
C1664 C 0.49963 0.99775 0.8499 0.0
C1665 C 0.49906 0.99748 0.86801 0.0
C1666 C 0.51063 0.99579 0.87766 0.0
C1667 C 0.52277 0.99412 0.86965 0.0
C1668 C 0.52351 0.9943 0.85153 0.0
C1669 C 0.5354 0.99242 0.84301 0.0
C1670 C 0.53613 0.9928 0.82522 0.0
C1671 C 0.52479 0.99472 0.81519 0.0
C1672 C 0.51245 0.99619 0.82344 0.0
C1673 C 0.51192 0.99617 0.84164 0.0
C1674 C 0.42503 0.0002 0.87585 0.0
C1675 C 0.43006 0.99084 0.88799 0.0
O1676 O 0.57982 0.99376 0.77181 0.0
O1677 O 0.56698 0.98274 0.90831 0.0
O1678 O 0.44613 0.00124 0.89366 0.0
O1679 O 0.44851 0.99289 0.75506 0.0
H1680 H 0.57177 0.97217 0.75718 0.0
H1681 H 0.5687 0.96449 0.7878 0.0
H1682 H 0.59005 0.97838 0.79251 0.0
H1683 H 0.58327 0.96021 0.77824 0.0
H1684 H 0.57935 0.01997 0.78161 0.0
H1685 H 0.54915 0.96731 0.77121 0.0
H1686 H 0.54648 0.02786 0.78825 0.0
H1687 H 0.56829 0.03672 0.79018 0.0
H1688 H 0.55574 0.02646 0.8079 0.0
H1689 H 0.52136 0.95267 0.77656 0.0
H1690 H 0.5114 0.96475 0.77499 0.0
H1691 H 0.51711 0.96102 0.79568 0.0
H1692 H 0.43103 0.96744 0.75178 0.0
H1693 H 0.41674 0.97326 0.7327 0.0
H1694 H 0.42912 0.99359 0.73524 0.0
H1695 H 0.40526 0.98423 0.76166 0.0
H1696 H 0.44758 0.96793 0.77259 0.0
H1697 H 0.47719 0.0188 0.75927 0.0
H1698 H 0.46876 0.9664 0.80538 0.0
H1699 H 0.48033 0.96325 0.78936 0.0
H1700 H 0.45852 0.95356 0.78635 0.0
H1701 H 0.50387 0.036 0.77114 0.0
H1702 H 0.51453 0.02458 0.77123 0.0
H1703 H 0.50859 0.02969 0.79111 0.0
H1704 H 0.42845 0.97975 0.88045 0.0
H1705 H 0.44667 0.973 0.88809 0.0
H1706 H 0.4749 0.02631 0.89052 0.0
H1707 H 0.47081 0.96537 0.86154 0.0
H1708 H 0.45709 0.95621 0.87877 0.0
H1709 H 0.47878 0.96542 0.88257 0.0
H1710 H 0.50296 0.04088 0.88478 0.0
H1711 H 0.50547 0.03155 0.86531 0.0
H1712 H 0.51356 0.02935 0.88537 0.0
H1713 H 0.5883 0.0052 0.91107 0.0
H1714 H 0.6039 0.99578 0.89295 0.0
H1715 H 0.58609 0.99293 0.88133 0.0
H1716 H 0.58605 0.97523 0.89015 0.0
H1717 H 0.5369 0.96138 0.90161 0.0
H1718 H 0.57389 0.01216 0.89534 0.0
H1719 H 0.50867 0.96011 0.86982 0.0
H1720 H 0.50369 0.96373 0.89097 0.0
H1721 H 0.51099 0.94944 0.88764 0.0
H1722 H 0.56777 0.03162 0.88426 0.0
H1723 H 0.54672 0.02574 0.88049 0.0
H1724 H 0.55751 0.02218 0.86387 0.0
H1725 H 0.51355 0.99549 0.77347 0.0
H1726 H 0.47941 0.0006 0.81496 0.0
H1727 H 0.47858 0.00074 0.8456 0.0
H1728 H 0.51002 0.99551 0.89154 0.0
H1729 H 0.54433 0.99068 0.84998 0.0
H1730 H 0.54562 0.99137 0.81945 0.0
H1731 H 0.4121 0.99217 0.87134 0.0
H1732 H 0.43272 0.00373 0.86446 0.0
H1733 H 0.42658 0.01173 0.88235 0.0
C1734 C 0.04115 0.60275 0.76095 0.0
C1735 C 0.02674 0.58839 0.75067 0.0
C1736 C 0.01361 0.56633 0.77148 0.0
C1737 C 0.99971 0.55783 0.78099 0.0
C1738 C 0.99745 0.5448 0.79123 0.0
C1739 C 0.00958 0.54031 0.79214 0.0
C1740 C 0.02383 0.549 0.78274 0.0
C1741 C 0.0257 0.56191 0.77244 0.0
C1742 C 0.98196 0.53564 0.80083 0.0
C1743 C 0.03699 0.54451 0.78349 0.0
C1744 C 0.96889 0.44215 0.72411 0.0
C1745 C 0.97606 0.43863 0.74007 0.0
C1746 C 0.97551 0.45318 0.76672 0.0
C1747 C 0.99208 0.46131 0.77184 0.0
C1748 C 0.99869 0.47484 0.78392 0.0
C1749 C 0.98847 0.48015 0.79115 0.0
C1750 C 0.9716 0.47135 0.78676 0.0
C1751 C 0.96533 0.45787 0.77467 0.0
C1752 C 0.01667 0.48376 0.78864 0.0
C1753 C 0.96032 0.47656 0.79437 0.0
C1754 C 0.98442 0.45585 0.9043 0.0
C1755 C 0.99915 0.46182 0.89602 0.0
C1756 C 0.00529 0.47617 0.88647 0.0
C1757 C 0.99621 0.48434 0.88478 0.0
C1758 C 0.98137 0.4783 0.89322 0.0
C1759 C 0.97585 0.46431 0.90317 0.0
C1760 C 0.0215 0.48263 0.8783 0.0
C1761 C 0.97127 0.48655 0.89171 0.0
C1762 C 0.05341 0.61971 0.90238 0.0
C1763 C 0.03716 0.60437 0.90618 0.0
C1764 C 0.03324 0.57646 0.90287 0.0
C1765 C 0.04291 0.56926 0.90074 0.0
C1766 C 0.03688 0.5539 0.89165 0.0
C1767 C 0.02061 0.54536 0.88497 0.0
C1768 C 0.01047 0.55219 0.88793 0.0
C1769 C 0.01694 0.56775 0.89675 0.0
C1770 C 0.04799 0.54696 0.88889 0.0
C1771 C 0.99286 0.54312 0.88164 0.0
C1772 C 0.00679 0.52585 0.8021 0.0
C1773 C 0.00028 0.51047 0.79317 0.0
C1774 C 0.99566 0.49592 0.80178 0.0
C1775 C 0.99741 0.49662 0.8199 0.0
C1776 C 0.99221 0.48215 0.82906 0.0
C1777 C 0.99368 0.48298 0.84693 0.0
C1778 C 0.00071 0.49835 0.85632 0.0
C1779 C 0.00229 0.49936 0.87449 0.0
C1780 C 0.00906 0.51485 0.88336 0.0
C1781 C 0.01426 0.52946 0.87464 0.0
C1782 C 0.01295 0.52873 0.85648 0.0
C1783 C 0.01823 0.54321 0.84727 0.0
C1784 C 0.01634 0.54232 0.82945 0.0
C1785 C 0.00926 0.52694 0.82014 0.0
C1786 C 0.00435 0.51223 0.8291 0.0
C1787 C 0.0061 0.51311 0.84731 0.0
C1788 C 0.96025 0.41317 0.91064 0.0
C1789 C 0.97774 0.42743 0.909 0.0
O1790 O 0.01467 0.57861 0.76168 0.0
O1791 O 0.03995 0.59177 0.91091 0.0
O1792 O 0.97834 0.44218 0.91377 0.0
O1793 O 0.96875 0.4406 0.75447 0.0
H1794 H 0.03089 0.58074 0.74357 0.0
H1795 H 0.04626 0.59789 0.77055 0.0
H1796 H 0.0372 0.61065 0.76786 0.0
H1797 H 0.05097 0.61057 0.75225 0.0
H1798 H 0.99048 0.56135 0.78018 0.0
H1799 H 0.03658 0.56842 0.76522 0.0
H1800 H 0.97581 0.5221 0.79741 0.0
H1801 H 0.97334 0.54008 0.798 0.0
H1802 H 0.9849 0.53734 0.81487 0.0
H1803 H 0.04799 0.55342 0.77675 0.0
H1804 H 0.03224 0.53187 0.77743 0.0
H1805 H 0.04053 0.54418 0.79707 0.0
H1806 H 0.98937 0.44759 0.74055 0.0
H1807 H 0.97457 0.44067 0.71237 0.0
H1808 H 0.97133 0.45513 0.72511 0.0
H1809 H 0.95551 0.43355 0.72283 0.0
H1810 H 0.99991 0.45716 0.76654 0.0
H1811 H 0.95248 0.45126 0.77093 0.0
H1812 H 0.02253 0.49667 0.78423 0.0
H1813 H 0.02279 0.47744 0.7828 0.0
H1814 H 0.01858 0.48458 0.80282 0.0
H1815 H 0.94735 0.46767 0.79064 0.0
H1816 H 0.96354 0.48903 0.78995 0.0
H1817 H 0.9618 0.47758 0.8086 0.0
H1818 H 0.98078 0.4274 0.89526 0.0
H1819 H 0.00596 0.45545 0.89731 0.0
H1820 H 0.96457 0.45964 0.9098 0.0
H1821 H 0.01957 0.48047 0.86415 0.0
H1822 H 0.02809 0.47639 0.88292 0.0
H1823 H 0.02929 0.49625 0.88106 0.0
H1824 H 0.95902 0.47898 0.89698 0.0
H1825 H 0.96977 0.48878 0.87805 0.0
H1826 H 0.97761 0.49882 0.89887 0.0
H1827 H 0.02951 0.6007 0.89405 0.0
H1828 H 0.05149 0.62999 0.89849 0.0
H1829 H 0.0591 0.61662 0.89167 0.0
H1830 H 0.06191 0.62401 0.91385 0.0
H1831 H 0.05541 0.576 0.90577 0.0
H1832 H 0.00926 0.57305 0.89896 0.0
H1833 H 0.04832 0.5443 0.87496 0.0
H1834 H 0.04318 0.53502 0.89537 0.0
H1835 H 0.06061 0.55561 0.89398 0.0
H1836 H 0.9861 0.54901 0.88688 0.0
H1837 H 0.98673 0.52996 0.88532 0.0
H1838 H 0.99217 0.54309 0.86741 0.0
H1839 H 0.99842 0.50975 0.77931 0.0
H1840 H 0.98679 0.47 0.82249 0.0
H1841 H 0.98924 0.4714 0.8533 0.0
H1842 H 0.01005 0.51551 0.8973 0.0
H1843 H 0.02376 0.5554 0.85374 0.0
H1844 H 0.02048 0.55384 0.82303 0.0
H1845 H 0.95893 0.40112 0.90609 0.0
H1846 H 0.95179 0.4154 0.90266 0.0
H1847 H 0.95667 0.41229 0.92423 0.0
C1848 C 0.54357 0.59729 0.73992 0.0
C1849 C 0.55439 0.59736 0.75486 0.0
C1850 C 0.53602 0.57258 0.7706 0.0
C1851 C 0.52587 0.5784 0.77659 0.0
C1852 C 0.51249 0.56844 0.78649 0.0
C1853 C 0.50954 0.55259 0.79101 0.0
C1854 C 0.52001 0.5469 0.78542 0.0
C1855 C 0.53301 0.55692 0.77514 0.0
C1856 C 0.50137 0.57477 0.79191 0.0
C1857 C 0.51739 0.53016 0.79015 0.0
C1858 C 0.39104 0.45888 0.76502 0.0
C1859 C 0.40422 0.4608 0.75276 0.0
C1860 C 0.42939 0.47621 0.77108 0.0
C1861 C 0.44129 0.4746 0.78012 0.0
C1862 C 0.45379 0.48803 0.7899 0.0
C1863 C 0.45434 0.50349 0.7907 0.0
C1864 C 0.44236 0.50527 0.78158 0.0
C1865 C 0.43001 0.49163 0.7718 0.0
C1866 C 0.46645 0.48571 0.79934 0.0
C1867 C 0.44262 0.52161 0.78222 0.0
C1868 C 0.42278 0.49534 0.89918 0.0
C1869 C 0.43375 0.4898 0.89593 0.0
C1870 C 0.44833 0.49993 0.88779 0.0
C1871 C 0.45191 0.51586 0.88278 0.0
C1872 C 0.44114 0.52169 0.88666 0.0
C1873 C 0.42678 0.51139 0.89503 0.0
C1874 C 0.45979 0.49355 0.88432 0.0
C1875 C 0.44465 0.53867 0.88165 0.0
C1876 C 0.55965 0.6259 0.90634 0.0
C1877 C 0.55591 0.61208 0.9188 0.0
C1878 C 0.53794 0.58584 0.90204 0.0
C1879 C 0.53676 0.57112 0.89554 0.0
C1880 C 0.52253 0.55872 0.88682 0.0
C1881 C 0.50934 0.56143 0.88398 0.0
C1882 C 0.51032 0.5762 0.89076 0.0
C1883 C 0.52451 0.58814 0.89997 0.0
C1884 C 0.52174 0.54285 0.88048 0.0
C1885 C 0.49645 0.57947 0.88813 0.0
C1886 C 0.4952 0.5417 0.80109 0.0
C1887 C 0.48156 0.52875 0.79221 0.0
C1888 C 0.4677 0.51783 0.80081 0.0
C1889 C 0.46716 0.52009 0.81875 0.0
C1890 C 0.45317 0.50972 0.82771 0.0
C1891 C 0.45288 0.51184 0.84543 0.0
C1892 C 0.46666 0.52424 0.85491 0.0
C1893 C 0.46662 0.52624 0.87298 0.0
C1894 C 0.48065 0.53843 0.88205 0.0
C1895 C 0.49473 0.54902 0.87352 0.0
C1896 C 0.49485 0.54752 0.8554 0.0
C1897 C 0.50863 0.55826 0.84633 0.0
C1898 C 0.50881 0.55637 0.82857 0.0
C1899 C 0.49512 0.54381 0.81914 0.0
C1900 C 0.48101 0.533 0.82798 0.0
C1901 C 0.48083 0.53493 0.84611 0.0
C1902 C 0.38182 0.46529 0.8956 0.0
C1903 C 0.39824 0.46861 0.90302 0.0
O1904 O 0.54863 0.58138 0.76026 0.0
O1905 O 0.55232 0.59745 0.90988 0.0
O1906 O 0.40829 0.48558 0.90636 0.0
O1907 O 0.41763 0.46255 0.76199 0.0
H1908 H 0.55446 0.60546 0.76571 0.0
H1909 H 0.53106 0.59306 0.74405 0.0
H1910 H 0.54274 0.58881 0.7291 0.0
H1911 H 0.54863 0.61005 0.73524 0.0
H1912 H 0.52809 0.59056 0.77343 0.0
H1913 H 0.54092 0.55254 0.77053 0.0
H1914 H 0.48849 0.56527 0.78853 0.0
H1915 H 0.50427 0.58651 0.78579 0.0
H1916 H 0.50252 0.57709 0.80606 0.0
H1917 H 0.52784 0.52858 0.78684 0.0
H1918 H 0.5063 0.52018 0.78315 0.0
H1919 H 0.51545 0.52852 0.80412 0.0
H1920 H 0.40791 0.47187 0.74498 0.0
H1921 H 0.38023 0.45735 0.75762 0.0
H1922 H 0.39563 0.47005 0.77383 0.0
H1923 H 0.38724 0.44786 0.77289 0.0
H1924 H 0.44072 0.46268 0.77947 0.0
H1925 H 0.42095 0.49315 0.76483 0.0
H1926 H 0.46588 0.48764 0.81338 0.0
H1927 H 0.47881 0.49512 0.79551 0.0
H1928 H 0.46472 0.4731 0.79677 0.0
H1929 H 0.43199 0.52079 0.77512 0.0
H1930 H 0.45393 0.5313 0.77657 0.0
H1931 H 0.44273 0.52569 0.79579 0.0
H1932 H 0.40336 0.46391 0.89306 0.0
H1933 H 0.43097 0.47761 0.8998 0.0
H1934 H 0.41834 0.51563 0.89788 0.0
H1935 H 0.46032 0.4918 0.87024 0.0
H1936 H 0.45593 0.48151 0.89029 0.0
H1937 H 0.47227 0.50281 0.88928 0.0
H1938 H 0.43476 0.54112 0.88507 0.0
H1939 H 0.44628 0.53979 0.86759 0.0
H1940 H 0.45618 0.54838 0.88821 0.0
H1941 H 0.54539 0.61001 0.92651 0.0
H1942 H 0.56321 0.63776 0.91364 0.0
H1943 H 0.54881 0.6227 0.89798 0.0
H1944 H 0.56967 0.62783 0.89792 0.0
H1945 H 0.5471 0.56937 0.89735 0.0
H1946 H 0.52506 0.5993 0.90521 0.0
H1947 H 0.52309 0.54301 0.86637 0.0
H1948 H 0.50979 0.53187 0.88315 0.0
H1949 H 0.53156 0.54134 0.88654 0.0
H1950 H 0.4999 0.5924 0.89224 0.0
H1951 H 0.48605 0.57076 0.8957 0.0
H1952 H 0.49226 0.57722 0.87439 0.0
H1953 H 0.48184 0.52696 0.77841 0.0
H1954 H 0.44227 0.49987 0.8211 0.0
H1955 H 0.44175 0.50351 0.85161 0.0
H1956 H 0.4806 0.5397 0.89593 0.0
H1957 H 0.5195 0.56822 0.85287 0.0
H1958 H 0.51983 0.56486 0.82234 0.0
H1959 H 0.37355 0.45175 0.89273 0.0
H1960 H 0.38361 0.47183 0.88345 0.0
H1961 H 0.376 0.46986 0.90477 0.0
C1962 C 0.62052 0.75175 0.63133 0.0
C1963 C 0.62019 0.74027 0.6166 0.0
C1964 C 0.62739 0.75884 0.5924 0.0
C1965 C 0.61196 0.75703 0.58931 0.0
C1966 C 0.60981 0.76702 0.57768 0.0
C1967 C 0.62338 0.77927 0.56921 0.0
C1968 C 0.63891 0.78109 0.57226 0.0
C1969 C 0.64062 0.77064 0.58362 0.0
C1970 C 0.59305 0.76465 0.5746 0.0
C1971 C 0.65374 0.7943 0.5638 0.0
C1972 C 0.62295 0.86812 0.62813 0.0
C1973 C 0.63363 0.87526 0.61264 0.0
C1974 C 0.62304 0.85675 0.58698 0.0
C1975 C 0.63708 0.8568 0.5818 0.0
C1976 C 0.63596 0.84379 0.57122 0.0
C1977 C 0.62045 0.8303 0.56587 0.0
C1978 C 0.60625 0.83041 0.57071 0.0
C1979 C 0.60776 0.84385 0.58096 0.0
C1980 C 0.6514 0.84429 0.56607 0.0
C1981 C 0.58952 0.81613 0.5655 0.0
C1982 C 0.59863 0.83728 0.45611 0.0
C1983 C 0.61494 0.84313 0.46106 0.0
C1984 C 0.61947 0.83279 0.46925 0.0
C1985 C 0.60732 0.81646 0.47303 0.0
C1986 C 0.59097 0.81033 0.46733 0.0
C1987 C 0.58689 0.82078 0.45865 0.0
C1988 C 0.63715 0.83949 0.47433 0.0
C1989 C 0.5777 0.79293 0.47091 0.0
C1990 C 0.60826 0.70462 0.45679 0.0
C1991 C 0.60932 0.71636 0.44289 0.0
C1992 C 0.61939 0.74408 0.45708 0.0
C1993 C 0.63279 0.76019 0.45917 0.0
C1994 C 0.63185 0.77278 0.46851 0.0
C1995 C 0.61701 0.76919 0.47582 0.0
C1996 C 0.60336 0.75291 0.47384 0.0
C1997 C 0.60475 0.74046 0.46474 0.0
C1998 C 0.6467 0.78996 0.47052 0.0
C1999 C 0.58728 0.74867 0.48129 0.0
C2000 C 0.62146 0.79078 0.55798 0.0
C2001 C 0.62116 0.80425 0.56594 0.0
C2002 C 0.61925 0.81562 0.55637 0.0
C2003 C 0.61719 0.81331 0.53828 0.0
C2004 C 0.61466 0.82414 0.52826 0.0
C2005 C 0.61244 0.82163 0.51049 0.0
C2006 C 0.61334 0.80859 0.50195 0.0
C2007 C 0.61145 0.80615 0.48384 0.0
C2008 C 0.61283 0.79333 0.47578 0.0
C2009 C 0.61571 0.78254 0.48533 0.0
C2010 C 0.61716 0.78448 0.50349 0.0
C2011 C 0.61959 0.77359 0.51354 0.0
C2012 C 0.62071 0.77543 0.5314 0.0
C2013 C 0.61998 0.78857 0.53987 0.0
C2014 C 0.61773 0.79983 0.52999 0.0
C2015 C 0.6161 0.79765 0.51179 0.0
C2016 C 0.58362 0.86497 0.4582 0.0
C2017 C 0.59865 0.86324 0.4561 0.0
O2018 O 0.63015 0.74967 0.60376 0.0
O2019 O 0.62119 0.73259 0.44763 0.0
O2020 O 0.59385 0.84744 0.44934 0.0
O2021 O 0.62388 0.86898 0.59769 0.0
H2022 H 0.6075 0.73225 0.61134 0.0
H2023 H 0.61597 0.75984 0.62663 0.0
H2024 H 0.63315 0.75978 0.63676 0.0
H2025 H 0.61259 0.74432 0.64169 0.0
H2026 H 0.60153 0.74791 0.59589 0.0
H2027 H 0.65246 0.77193 0.58606 0.0
H2028 H 0.59281 0.77567 0.58007 0.0
H2029 H 0.58346 0.75338 0.58058 0.0
H2030 H 0.5901 0.76363 0.56059 0.0
H2031 H 0.66513 0.79491 0.56854 0.0
H2032 H 0.65491 0.80667 0.56622 0.0
H2033 H 0.65239 0.79167 0.5497 0.0
H2034 H 0.64261 0.87097 0.61343 0.0
H2035 H 0.63025 0.87364 0.64034 0.0
H2036 H 0.61786 0.85444 0.62796 0.0
H2037 H 0.61258 0.87041 0.62764 0.0
H2038 H 0.64895 0.86697 0.586 0.0
H2039 H 0.59699 0.84402 0.58486 0.0
H2040 H 0.65084 0.84135 0.55207 0.0
H2041 H 0.65267 0.83472 0.57293 0.0
H2042 H 0.6624 0.85661 0.56923 0.0
H2043 H 0.5797 0.8177 0.57105 0.0
H2044 H 0.58824 0.80427 0.56973 0.0
H2045 H 0.58785 0.81506 0.55129 0.0
H2046 H 0.60423 0.86504 0.4693 0.0
H2047 H 0.62409 0.85581 0.45862 0.0
H2048 H 0.57437 0.81637 0.45454 0.0
H2049 H 0.63904 0.84236 0.4884 0.0
H2050 H 0.64531 0.85105 0.46774 0.0
H2051 H 0.6407 0.83006 0.47127 0.0
H2052 H 0.56545 0.79044 0.46659 0.0
H2053 H 0.57765 0.79095 0.4849 0.0
H2054 H 0.58009 0.78375 0.4642 0.0
H2055 H 0.59724 0.71539 0.44137 0.0
H2056 H 0.59909 0.69155 0.45279 0.0
H2057 H 0.60447 0.70789 0.46898 0.0
H2058 H 0.62023 0.70557 0.45926 0.0
H2059 H 0.64407 0.76289 0.45337 0.0
H2060 H 0.59432 0.72801 0.46375 0.0
H2061 H 0.64928 0.7941 0.48432 0.0
H2062 H 0.64433 0.79891 0.4638 0.0
H2063 H 0.65765 0.79043 0.46519 0.0
H2064 H 0.57743 0.73588 0.47728 0.0
H2065 H 0.58359 0.75765 0.47722 0.0
H2066 H 0.58858 0.74968 0.49552 0.0
H2067 H 0.62264 0.80604 0.57984 0.0
H2068 H 0.61415 0.83456 0.53408 0.0
H2069 H 0.61019 0.83019 0.50353 0.0
H2070 H 0.61148 0.79161 0.46189 0.0
H2071 H 0.6205 0.7634 0.50773 0.0
H2072 H 0.62235 0.76653 0.53848 0.0
H2073 H 0.58725 0.87769 0.46332 0.0
H2074 H 0.57544 0.85587 0.46741 0.0
H2075 H 0.5767 0.86249 0.44575 0.0
C2076 C 0.13279 0.72874 0.64478 0.0
C2077 C 0.1294 0.73906 0.63228 0.0
C2078 C 0.14112 0.74904 0.6046 0.0
C2079 C 0.13723 0.76163 0.60319 0.0
C2080 C 0.14506 0.77418 0.59148 0.0
C2081 C 0.15729 0.77434 0.5813 0.0
C2082 C 0.16109 0.76152 0.58264 0.0
C2083 C 0.15262 0.74881 0.59398 0.0
C2084 C 0.14043 0.7874 0.59017 0.0
C2085 C 0.17442 0.76145 0.57252 0.0
C2086 C 0.25887 0.89252 0.62707 0.0
C2087 C 0.24902 0.87612 0.61772 0.0
C2088 C 0.22513 0.8606 0.59833 0.0
C2089 C 0.22813 0.84755 0.59444 0.0
C2090 C 0.21681 0.8334 0.58448 0.0
C2091 C 0.20216 0.8322 0.57832 0.0
C2092 C 0.19923 0.84541 0.58193 0.0
C2093 C 0.21082 0.85949 0.59182 0.0
C2094 C 0.22042 0.81962 0.58069 0.0
C2095 C 0.18372 0.8445 0.57557 0.0
C2096 C 0.22643 0.84404 0.46705 0.0
C2097 C 0.22692 0.83046 0.47377 0.0
C2098 C 0.21407 0.81876 0.48319 0.0
C2099 C 0.20031 0.82049 0.48571 0.0
C2100 C 0.19961 0.83392 0.47868 0.0
C2101 C 0.21275 0.84559 0.46951 0.0
C2102 C 0.2153 0.80468 0.49069 0.0
C2103 C 0.1851 0.83608 0.48113 0.0
C2104 C 0.09547 0.69437 0.46727 0.0
C2105 C 0.09988 0.71217 0.46364 0.0
C2106 C 0.12724 0.73598 0.46978 0.0
C2107 C 0.14303 0.73915 0.47313 0.0
C2108 C 0.15462 0.75368 0.48238 0.0
C2109 C 0.1504 0.76558 0.48794 0.0
C2110 C 0.13457 0.7627 0.48403 0.0
C2111 C 0.1231 0.74787 0.47507 0.0
C2112 C 0.17139 0.75629 0.48607 0.0
C2113 C 0.12981 0.77536 0.48923 0.0
C2114 C 0.16692 0.78846 0.5702 0.0
C2115 C 0.17885 0.80349 0.57825 0.0
C2116 C 0.18964 0.81681 0.56872 0.0
C2117 C 0.18877 0.81506 0.55058 0.0
C2118 C 0.20005 0.82781 0.54061 0.0
C2119 C 0.19947 0.82573 0.52281 0.0
C2120 C 0.18738 0.81092 0.51427 0.0
C2121 C 0.18699 0.8085 0.49623 0.0
C2122 C 0.17457 0.79385 0.48806 0.0
C2123 C 0.16269 0.78116 0.49749 0.0
C2124 C 0.16324 0.78309 0.51564 0.0
C2125 C 0.15196 0.77033 0.52564 0.0
C2126 C 0.15296 0.77216 0.5435 0.0
C2127 C 0.16529 0.78679 0.55205 0.0
C2128 C 0.17646 0.80003 0.54222 0.0
C2129 C 0.17559 0.79807 0.52402 0.0
C2130 C 0.26544 0.8631 0.46944 0.0
C2131 C 0.25321 0.85667 0.454 0.0
O2132 O 0.13414 0.73702 0.61613 0.0
O2133 O 0.11646 0.72149 0.46117 0.0
O2134 O 0.23887 0.85602 0.45838 0.0
O2135 O 0.2356 0.87426 0.6084 0.0
H2136 H 0.13691 0.75232 0.63701 0.0
H2137 H 0.14596 0.73283 0.64511 0.0
H2138 H 0.12573 0.71531 0.64071 0.0
H2139 H 0.12947 0.73044 0.65797 0.0
H2140 H 0.12805 0.76163 0.61115 0.0
H2141 H 0.15543 0.73896 0.59513 0.0
H2142 H 0.15026 0.79925 0.59634 0.0
H2143 H 0.12892 0.78395 0.59662 0.0
H2144 H 0.13903 0.78963 0.57649 0.0
H2145 H 0.17771 0.75237 0.57725 0.0
H2146 H 0.18552 0.774 0.57319 0.0
H2147 H 0.17029 0.75807 0.55882 0.0
H2148 H 0.24624 0.86514 0.62539 0.0
H2149 H 0.25775 0.88968 0.64109 0.0
H2150 H 0.25103 0.89841 0.62753 0.0
H2151 H 0.28162 0.90347 0.61485 0.0
H2152 H 0.23925 0.84829 0.59916 0.0
H2153 H 0.20862 0.86962 0.59477 0.0
H2154 H 0.21925 0.81669 0.56663 0.0
H2155 H 0.21139 0.80818 0.58688 0.0
H2156 H 0.23282 0.82291 0.58541 0.0
H2157 H 0.1832 0.85577 0.57957 0.0
H2158 H 0.17307 0.83341 0.58057 0.0
H2159 H 0.18268 0.84305 0.56133 0.0
H2160 H 0.25064 0.84403 0.44973 0.0
H2161 H 0.23732 0.82894 0.47196 0.0
H2162 H 0.21244 0.85606 0.46426 0.0
H2163 H 0.21448 0.80515 0.50487 0.0
H2164 H 0.22685 0.80512 0.48766 0.0
H2165 H 0.20497 0.7926 0.48562 0.0
H2166 H 0.18614 0.84686 0.47432 0.0
H2167 H 0.18387 0.83794 0.49504 0.0
H2168 H 0.17381 0.82463 0.47635 0.0
H2169 H 0.09664 0.71708 0.47518 0.0
H2170 H 0.08226 0.68663 0.46951 0.0
H2171 H 0.10238 0.69444 0.47896 0.0
H2172 H 0.09854 0.68867 0.45631 0.0
H2173 H 0.14615 0.73 0.46875 0.0
H2174 H 0.11103 0.74572 0.47194 0.0
H2175 H 0.17545 0.76075 0.49964 0.0
H2176 H 0.18011 0.76595 0.4777 0.0
H2177 H 0.17184 0.74473 0.48356 0.0
H2178 H 0.11752 0.77192 0.48398 0.0
H2179 H 0.13882 0.78776 0.48471 0.0
H2180 H 0.12988 0.77649 0.50346 0.0
H2181 H 0.18003 0.80469 0.59218 0.0
H2182 H 0.20963 0.83946 0.54649 0.0
H2183 H 0.20862 0.83589 0.51582 0.0
H2184 H 0.17442 0.7921 0.47421 0.0
H2185 H 0.14234 0.7587 0.51978 0.0
H2186 H 0.144 0.7619 0.55056 0.0
H2187 H 0.27708 0.86408 0.46569 0.0
H2188 H 0.26069 0.85449 0.4801 0.0
H2189 H 0.26791 0.87552 0.47432 0.0
C2190 C 0.1388 0.39657 0.63347 0.0
C2191 C 0.12641 0.39138 0.6183 0.0
C2192 C 0.13871 0.3816 0.59673 0.0
C2193 C 0.15166 0.39738 0.59299 0.0
C2194 C 0.16381 0.39897 0.58199 0.0
C2195 C 0.16298 0.38452 0.57451 0.0
C2196 C 0.14988 0.36864 0.57805 0.0
C2197 C 0.13788 0.36741 0.58908 0.0
C2198 C 0.17759 0.4161 0.57838 0.0
C2199 C 0.14861 0.353 0.57021 0.0
C2200 C 0.28208 0.41034 0.5959 0.0
C2201 C 0.26698 0.39578 0.60335 0.0
C2202 C 0.24311 0.38696 0.58384 0.0
C2203 C 0.23085 0.37316 0.57441 0.0
C2204 C 0.21729 0.37331 0.56729 0.0
C2205 C 0.21624 0.38789 0.56925 0.0
C2206 C 0.22863 0.40196 0.57875 0.0
C2207 C 0.2419 0.40133 0.58605 0.0
C2208 C 0.20418 0.35793 0.55752 0.0
C2209 C 0.22798 0.41776 0.58092 0.0
C2210 C 0.24238 0.4064 0.46195 0.0
C2211 C 0.23104 0.38993 0.46555 0.0
C2212 C 0.21651 0.38607 0.47343 0.0
C2213 C 0.21347 0.39904 0.47806 0.0
C2214 C 0.22445 0.41551 0.47349 0.0
C2215 C 0.2387 0.41892 0.46523 0.0
C2216 C 0.20476 0.36827 0.47744 0.0
C2217 C 0.22148 0.42959 0.47797 0.0
C2218 C 0.1069 0.4025 0.46121 0.0
C2219 C 0.1116 0.39242 0.44913 0.0
C2220 C 0.12856 0.38432 0.46572 0.0
C2221 C 0.12951 0.37059 0.47079 0.0
C2222 C 0.14379 0.37253 0.47863 0.0
C2223 C 0.15732 0.38872 0.48193 0.0
C2224 C 0.15646 0.40272 0.47689 0.0
C2225 C 0.14214 0.40038 0.4687 0.0
C2226 C 0.14437 0.35727 0.48347 0.0
C2227 C 0.17062 0.42016 0.48031 0.0
C2228 C 0.17594 0.3861 0.56309 0.0
C2229 C 0.18953 0.38633 0.57058 0.0
C2230 C 0.20252 0.38859 0.56071 0.0
C2231 C 0.20214 0.39097 0.54292 0.0
C2232 C 0.2154 0.39424 0.5328 0.0
C2233 C 0.21474 0.39608 0.51523 0.0
C2234 C 0.20067 0.39444 0.507 0.0
C2235 C 0.19965 0.39567 0.48902 0.0
C2236 C 0.18542 0.39377 0.48125 0.0
C2237 C 0.1722 0.391 0.49103 0.0
C2238 C 0.17315 0.39016 0.50908 0.0
C2239 C 0.16031 0.38796 0.51938 0.0
C2240 C 0.16123 0.38678 0.53708 0.0
C2241 C 0.17498 0.38762 0.54516 0.0
C2242 C 0.18816 0.39007 0.53505 0.0
C2243 C 0.18733 0.39157 0.51703 0.0
C2244 C 0.28373 0.41898 0.46711 0.0
C2245 C 0.2668 0.40444 0.46171 0.0
O2246 O 0.12688 0.37941 0.60767 0.0
O2247 O 0.11428 0.38147 0.45829 0.0
O2248 O 0.25714 0.41062 0.45584 0.0
O2249 O 0.25595 0.38592 0.59023 0.0
H2250 H 0.12919 0.40244 0.61085 0.0
H2251 H 0.15136 0.40219 0.62889 0.0
H2252 H 0.13627 0.38561 0.64095 0.0
H2253 H 0.13825 0.40598 0.64211 0.0
H2254 H 0.15247 0.40854 0.59861 0.0
H2255 H 0.12784 0.35529 0.59195 0.0
H2256 H 0.18937 0.41728 0.5825 0.0
H2257 H 0.17646 0.42614 0.5851 0.0
H2258 H 0.1779 0.41791 0.56435 0.0
H2259 H 0.13762 0.34157 0.57419 0.0
H2260 H 0.15957 0.35239 0.57408 0.0
H2261 H 0.14818 0.35326 0.55598 0.0
H2262 H 0.26153 0.40123 0.612 0.0
H2263 H 0.29178 0.41709 0.60612 0.0
H2264 H 0.27892 0.41928 0.59051 0.0
H2265 H 0.28681 0.40591 0.58535 0.0
H2266 H 0.23189 0.36215 0.57275 0.0
H2267 H 0.25139 0.41221 0.59313 0.0
H2268 H 0.20471 0.36024 0.5436 0.0
H2269 H 0.19196 0.35498 0.56168 0.0
H2270 H 0.2056 0.34695 0.55933 0.0
H2271 H 0.23911 0.428 0.58764 0.0
H2272 H 0.21728 0.41535 0.58843 0.0
H2273 H 0.22644 0.4219 0.56816 0.0
H2274 H 0.26186 0.39747 0.47357 0.0
H2275 H 0.23366 0.38014 0.46244 0.0
H2276 H 0.24745 0.43155 0.46211 0.0
H2277 H 0.20552 0.36678 0.49144 0.0
H2278 H 0.20747 0.35941 0.47049 0.0
H2279 H 0.19206 0.36497 0.474 0.0
H2280 H 0.2315 0.44179 0.47407 0.0
H2281 H 0.22011 0.43035 0.49204 0.0
H2282 H 0.20996 0.42716 0.47147 0.0
H2283 H 0.12285 0.40129 0.44266 0.0
H2284 H 0.10383 0.41056 0.4537 0.0
H2285 H 0.11719 0.41062 0.47036 0.0
H2286 H 0.09631 0.39419 0.46883 0.0
H2287 H 0.119 0.35826 0.46843 0.0
H2288 H 0.14163 0.41118 0.46494 0.0
H2289 H 0.14468 0.35676 0.49767 0.0
H2290 H 0.15562 0.35792 0.47883 0.0
H2291 H 0.13366 0.3456 0.47809 0.0
H2292 H 0.1675 0.42978 0.4771 0.0
H2293 H 0.18094 0.42193 0.4725 0.0
H2294 H 0.17479 0.42209 0.49404 0.0
H2295 H 0.19 0.38476 0.58428 0.0
H2296 H 0.22648 0.39545 0.53836 0.0
H2297 H 0.22536 0.39863 0.50816 0.0
H2298 H 0.18462 0.39447 0.46742 0.0
H2299 H 0.14937 0.38712 0.51387 0.0
H2300 H 0.15095 0.38503 0.54434 0.0
H2301 H 0.28935 0.42736 0.45638 0.0
H2302 H 0.29181 0.41427 0.47138 0.0
H2303 H 0.28275 0.42637 0.47799 0.0
H2304 H 0.02083 0.37546 0.03645 0.0
H2305 H 0.96954 0.34962 0.0209 0.0
H2306 H 0.96354 0.35967 0.04796 0.0
H2307 H 0.0162 0.36882 0.08194 0.0
H2308 H 0.0329 0.38927 0.08817 0.0
H2309 H 0.03297 0.37934 0.06799 0.0
H2310 H 0.0364 0.40481 0.05198 0.0
H2311 H 0.03627 0.41479 0.07209 0.0
H2312 H 0.02191 0.41163 0.05489 0.0
H2313 H 0.96323 0.37271 0.0767 0.0
H2314 H 0.96864 0.38809 0.10475 0.0
H2315 H 0.02035 0.40681 0.10051 0.0
C2316 C 0.0083 0.37172 0.03884 0.0
C2317 C 0.99561 0.3616 0.02666 0.0
C2318 C 0.97943 0.35731 0.03009 0.0
C2319 C 0.97591 0.36295 0.04542 0.0
C2320 C 0.98874 0.37305 0.05707 0.0
C2321 C 0.00462 0.37747 0.05392 0.0
C2322 C 0.01626 0.38903 0.06819 0.0
C2323 C 0.0251 0.38114 0.0771 0.0
C2324 C 0.02842 0.40607 0.06138 0.0
C2325 C 0.00443 0.39031 0.07995 0.0
C2326 C 0.98861 0.38093 0.07336 0.0
C2327 C 0.97556 0.38004 0.08202 0.0
C2328 C 0.97875 0.3888 0.09794 0.0
C2329 C 0.99485 0.39833 0.10507 0.0
C2330 C 0.00786 0.39933 0.09568 0.0
H2331 H 0.63782 0.61706 0.07082 0.0
H2332 H 0.65336 0.59356 0.03271 0.0
H2333 H 0.63742 0.56672 0.04632 0.0
H2334 H 0.64059 0.59627 0.10593 0.0
H2335 H 0.62286 0.5941 0.11615 0.0
H2336 H 0.63406 0.61109 0.10244 0.0
H2337 H 0.60783 0.6021 0.0838 0.0
H2338 H 0.59649 0.5851 0.09755 0.0
H2339 H 0.5963 0.58108 0.07475 0.0
H2340 H 0.62222 0.54327 0.06565 0.0
H2341 H 0.60801 0.52451 0.08895 0.0
H2342 H 0.60156 0.56291 0.11399 0.0
C2343 C 0.63761 0.60621 0.06511 0.0
C2344 C 0.64679 0.6074 0.05066 0.0
C2345 C 0.64639 0.59294 0.04375 0.0
C2346 C 0.63735 0.57763 0.05137 0.0
C2347 C 0.62867 0.57696 0.06579 0.0
C2348 C 0.6286 0.59082 0.07252 0.0
C2349 C 0.61896 0.58692 0.08865 0.0
C2350 C 0.62977 0.59774 0.10421 0.0
C2351 C 0.60401 0.58892 0.08602 0.0
C2352 C 0.61402 0.56884 0.09021 0.0
C2353 C 0.61967 0.56331 0.07684 0.0
C2354 C 0.61751 0.54736 0.07604 0.0
C2355 C 0.60945 0.53681 0.08934 0.0
C2356 C 0.60364 0.54224 0.10322 0.0
C2357 C 0.60578 0.5584 0.10347 0.0
H2358 H 0.37038 0.99662 0.04093 0.0
H2359 H 0.40479 0.04561 0.02374 0.0
H2360 H 0.42063 0.05216 0.0513 0.0
H2361 H 0.37081 0.00831 0.08534 0.0
H2362 H 0.36979 0.98981 0.09312 0.0
H2363 H 0.36096 0.98921 0.07226 0.0
H2364 H 0.37846 0.97824 0.05835 0.0
H2365 H 0.38731 0.97877 0.07917 0.0
H2366 H 0.40026 0.98982 0.06198 0.0
H2367 H 0.43248 0.05339 0.08095 0.0
H2368 H 0.4401 0.04875 0.10992 0.0
H2369 H 0.39877 0.99838 0.10665 0.0
C2370 C 0.38118 0.00878 0.043 0.0
C2371 C 0.3863 0.02067 0.03027 0.0
C2372 C 0.40066 0.03632 0.03334 0.0
C2373 C 0.4097 0.04017 0.04896 0.0
C2374 C 0.40431 0.02814 0.06124 0.0
C2375 C 0.39047 0.01271 0.05836 0.0
C2376 C 0.38761 0.00177 0.07336 0.0
C2377 C 0.37133 0.997 0.0815 0.0
C2378 C 0.38847 0.98623 0.06788 0.0
C2379 C 0.40192 0.0135 0.08521 0.0
C2380 C 0.41136 0.02869 0.07805 0.0
C2381 C 0.42515 0.04156 0.0867 0.0
C2382 C 0.42935 0.03884 0.10315 0.0
C2383 C 0.41979 0.02338 0.11075 0.0
C2384 C 0.40607 0.01049 0.10145 0.0
H2385 H 0.38787 0.00598 0.96738 0.0
H2386 H 0.35095 0.95373 0.96265 0.0
H2387 H 0.36759 0.94887 0.94178 0.0
H2388 H 0.39557 0.01148 0.925 0.0
H2389 H 0.4172 0.02562 0.92777 0.0
H2390 H 0.40396 0.02429 0.94452 0.0
H2391 H 0.42057 0.01761 0.96629 0.0
H2392 H 0.434 0.01907 0.9496 0.0
H2393 H 0.42383 0.00048 0.96154 0.0
H2394 H 0.38596 0.95093 0.91788 0.0
H2395 H 0.4053 0.95931 0.89439 0.0
H2396 H 0.43008 0.01023 0.91524 0.0
C2397 C 0.38338 0.99348 0.96215 0.0
C2398 C 0.36809 0.98026 0.9664 0.0
C2399 C 0.36274 0.964 0.95958 0.0
C2400 C 0.37209 0.96115 0.94772 0.0
C2401 C 0.38684 0.97467 0.94319 0.0
C2402 C 0.39259 0.99046 0.95047 0.0
C2403 C 0.4081 0.00316 0.94252 0.0
C2404 C 0.40607 0.01694 0.93447 0.0
C2405 C 0.42248 0.01051 0.95578 0.0
C2406 C 0.40975 0.99223 0.92897 0.0
C2407 C 0.39754 0.97579 0.92969 0.0
C2408 C 0.39581 0.96368 0.91748 0.0
C2409 C 0.40679 0.96855 0.90417 0.0
C2410 C 0.41929 0.98535 0.90321 0.0
C2411 C 0.42084 0.99724 0.9159 0.0
H2412 H 0.01427 0.37241 0.94033 0.0
H2413 H 0.03352 0.40441 0.98654 0.0
H2414 H 0.02536 0.42356 0.97436 0.0
H2415 H 0.02633 0.40665 0.91006 0.0
H2416 H 0.00825 0.39427 0.89654 0.0
H2417 H 0.01726 0.38435 0.90828 0.0
H2418 H 0.98968 0.36563 0.92215 0.0
H2419 H 0.98064 0.37556 0.91062 0.0
H2420 H 0.98005 0.37517 0.93371 0.0
H2421 H 0.011 0.43647 0.95875 0.0
H2422 H 0.99427 0.44355 0.94016 0.0
H2423 H 0.98667 0.40426 0.90318 0.0
C2424 C 0.0171 0.38367 0.94769 0.0
C2425 C 0.02452 0.38704 0.9643 0.0
C2426 C 0.028 0.40178 0.97369 0.0
C2427 C 0.02336 0.41266 0.96689 0.0
C2428 C 0.01567 0.40875 0.95056 0.0
C2429 C 0.01292 0.39478 0.94095 0.0
C2430 C 0.00391 0.39292 0.92408 0.0
C2431 C 0.01458 0.39466 0.90884 0.0
C2432 C 0.98761 0.37634 0.92257 0.0
C2433 C 0.00134 0.40761 0.92596 0.0
C2434 C 0.00821 0.41664 0.94128 0.0
C2435 C 0.00597 0.42977 0.94651 0.0
C2436 C 0.99642 0.4337 0.93585 0.0
C2437 C 0.98938 0.42462 0.92002 0.0
C2438 C 0.99216 0.41161 0.91502 0.0
H2439 H 0.60628 0.63554 0.00912 0.0
H2440 H 0.64673 0.63907 0.98093 0.0
H2441 H 0.63046 0.6325 0.95384 0.0
H2442 H 0.5746 0.60137 0.98404 0.0
H2443 H 0.5607 0.60915 0.98479 0.0
H2444 H 0.57561 0.61451 0.00207 0.0
H2445 H 0.58656 0.64584 0.99796 0.0
H2446 H 0.57165 0.64057 0.98068 0.0
H2447 H 0.59296 0.65411 0.9771 0.0
H2448 H 0.60965 0.62451 0.92996 0.0
H2449 H 0.5857 0.61645 0.91061 0.0
H2450 H 0.55897 0.61886 0.95396 0.0
C2451 C 0.61175 0.63499 0.99726 0.0
C2452 C 0.62781 0.63781 0.99721 0.0
C2453 C 0.63449 0.637 0.98135 0.0
C2454 C 0.62534 0.63326 0.96587 0.0
C2455 C 0.60956 0.63046 0.9664 0.0
C2456 C 0.60282 0.63137 0.98163 0.0
C2457 C 0.58555 0.62776 0.97858 0.0
C2458 C 0.5734 0.61228 0.98792 0.0
C2459 C 0.5841 0.64298 0.98389 0.0
C2460 C 0.58359 0.62451 0.95926 0.0
C2461 C 0.5976 0.62613 0.95252 0.0
C2462 C 0.59865 0.62334 0.93506 0.0
C2463 C 0.58502 0.6188 0.92418 0.0
C2464 C 0.57054 0.61716 0.93077 0.0
C2465 C 0.56989 0.62011 0.94856 0.0
H2466 H 0.02751 0.63237 0.00151 0.0
H2467 H 0.98983 0.64064 0.98007 0.0
H2468 H 0.99284 0.63053 0.95159 0.0
H2469 H 0.05295 0.64564 0.96513 0.0
H2470 H 0.05896 0.63024 0.967 0.0
H2471 H 0.05365 0.63786 0.98583 0.0
H2472 H 0.03203 0.60763 0.9924 0.0
H2473 H 0.03719 0.59992 0.9735 0.0
H2474 H 0.01645 0.59481 0.97626 0.0
H2475 H 3e-05 0.61981 0.92532 0.0
H2476 H 0.01179 0.61024 0.90285 0.0
H2477 H 0.04478 0.60895 0.94114 0.0
C2478 C 0.01988 0.63207 0.99085 0.0
C2479 C 0.0084 0.6373 0.99311 0.0
C2480 C 0.99872 0.63673 0.97874 0.0
C2481 C 0.00029 0.63095 0.96248 0.0
C2482 C 0.01162 0.62579 0.96074 0.0
C2483 C 0.02131 0.62637 0.97449 0.0
C2484 C 0.03279 0.62043 0.96903 0.0
C2485 C 0.05064 0.63437 0.97192 0.0
C2486 C 0.0294 0.60476 0.97835 0.0
C2487 C 0.02806 0.61648 0.95005 0.0
C2488 C 0.01576 0.61959 0.94556 0.0
C2489 C 0.00959 0.61723 0.9287 0.0
C2490 C 0.01629 0.61174 0.91604 0.0
C2491 C 0.02899 0.60861 0.92031 0.0
C2492 C 0.03488 0.61097 0.93758 0.0
H2493 H 0.37286 0.38722 0.95396 0.0
H2494 H 0.36194 0.41052 0.99663 0.0
H2495 H 0.37499 0.43715 0.98208 0.0
H2496 H 0.41219 0.42446 0.94289 0.0
H2497 H 0.40776 0.41923 0.92021 0.0
H2498 H 0.40026 0.40297 0.93534 0.0
H2499 H 0.37088 0.39156 0.92291 0.0
H2500 H 0.37824 0.4078 0.90787 0.0
H2501 H 0.36262 0.40521 0.92225 0.0
H2502 H 0.38567 0.45996 0.96117 0.0
H2503 H 0.39317 0.47707 0.93563 0.0
H2504 H 0.39668 0.43867 0.90656 0.0
C2505 C 0.37368 0.39805 0.96052 0.0
C2506 C 0.36652 0.39685 0.9765 0.0
C2507 C 0.36745 0.4112 0.98444 0.0
C2508 C 0.37488 0.42639 0.97629 0.0
C2509 C 0.38135 0.427 0.96025 0.0
C2510 C 0.38091 0.41323 0.95251 0.0
C2511 C 0.3871 0.4166 0.93449 0.0
C2512 C 0.40276 0.41577 0.93316 0.0
C2513 C 0.37392 0.40458 0.9211 0.0
C2514 C 0.39054 0.43422 0.93306 0.0
C2515 C 0.3874 0.44012 0.94814 0.0
C2516 C 0.38852 0.45562 0.94943 0.0
C2517 C 0.39279 0.46526 0.93489 0.0
C2518 C 0.39586 0.45933 0.91927 0.0
C2519 C 0.39483 0.44368 0.91847 0.0
H2520 H 0.64575 0.00733 0.98748 0.0
H2521 H 0.6123 0.95724 0.00278 0.0
H2522 H 0.59509 0.95229 0.97654 0.0
H2523 H 0.61615 0.01594 0.9729 0.0
H2524 H 0.62742 0.02796 0.95522 0.0
H2525 H 0.63809 0.02685 0.97398 0.0
H2526 H 0.65321 0.01604 0.95505 0.0
H2527 H 0.64267 0.01725 0.93617 0.0
H2528 H 0.64162 0.99791 0.94083 0.0
H2529 H 0.58079 0.95348 0.9493 0.0
H2530 H 0.57015 0.96101 0.92404 0.0
H2531 H 0.61251 0.0107 0.92767 0.0
C2532 C 0.63499 0.99518 0.98519 0.0
C2533 C 0.63044 0.98263 0.99715 0.0
C2534 C 0.61608 0.96703 0.99377 0.0
C2535 C 0.60625 0.96409 0.97889 0.0
C2536 C 0.61094 0.97688 0.96756 0.0
C2537 C 0.625 0.9921 0.97055 0.0
C2538 C 0.62679 0.00422 0.95711 0.0
C2539 C 0.62713 0.01964 0.9653 0.0
C2540 C 0.64197 0.00914 0.94667 0.0
C2541 C 0.61134 0.99358 0.94628 0.0
C2542 C 0.60246 0.97777 0.95233 0.0
C2543 C 0.58762 0.96583 0.94449 0.0
C2544 C 0.58163 0.97026 0.93022 0.0
C2545 C 0.59031 0.9866 0.92421 0.0
C2546 C 0.6055 0.99823 0.9322 0.0
H2547 H 0.64285 0.03902 0.05642 0.0
H2548 H 0.63393 0.99217 0.07605 0.0
H2549 H 0.61422 0.99242 0.09575 0.0
H2550 H 0.64304 0.05741 0.09574 0.0
H2551 H 0.63302 0.0682 0.08817 0.0
H2552 H 0.64464 0.06326 0.07372 0.0
H2553 H 0.61945 0.0476 0.05273 0.0
H2554 H 0.60776 0.05258 0.06709 0.0
H2555 H 0.60059 0.03122 0.06042 0.0
H2556 H 0.59814 0.99923 0.11565 0.0
H2557 H 0.58663 0.01223 0.13437 0.0
H2558 H 0.60547 0.05449 0.10189 0.0
C2559 C 0.63646 0.02862 0.06457 0.0
C2560 C 0.63983 0.01549 0.06453 0.0
C2561 C 0.63144 0.00227 0.07565 0.0
C2562 C 0.62019 0.00228 0.08691 0.0
C2563 C 0.61739 0.01557 0.08688 0.0
C2564 C 0.62519 0.02845 0.07594 0.0
C2565 C 0.62098 0.0419 0.0795 0.0
C2566 C 0.63633 0.05868 0.08459 0.0
C2567 C 0.61164 0.04341 0.06401 0.0
C2568 C 0.61009 0.03482 0.09456 0.0
C2569 C 0.60802 0.01952 0.09846 0.0
C2570 C 0.59944 0.01107 0.11257 0.0
C2571 C 0.59299 0.01856 0.12315 0.0
C2572 C 0.5952 0.03436 0.11959 0.0
C2573 C 0.60356 0.04238 0.10486 0.0
H2574 H 0.99279 0.62616 0.07357 0.0
H2575 H 0.95046 0.59843 0.03889 0.0
H2576 H 0.94358 0.57264 0.05356 0.0
H2577 H 0.00335 0.59378 0.07719 0.0
H2578 H 0.00936 0.59894 0.09964 0.0
H2579 H 0.01147 0.61485 0.08559 0.0
H2580 H 0.99415 0.62189 0.1056 0.0
H2581 H 0.99195 0.60601 0.11969 0.0
H2582 H 0.97413 0.60562 0.11081 0.0
H2583 H 0.94065 0.55015 0.07313 0.0
H2584 H 0.9417 0.53301 0.09624 0.0
H2585 H 0.98578 0.57581 0.11801 0.0
C2586 C 0.98221 0.61464 0.06885 0.0
C2587 C 0.97222 0.61428 0.055 0.0
C2588 C 0.95832 0.59898 0.04945 0.0
C2589 C 0.95434 0.58427 0.05767 0.0
C2590 C 0.96439 0.58511 0.07141 0.0
C2591 C 0.97804 0.59992 0.07694 0.0
C2592 C 0.9864 0.59772 0.0925 0.0
C2593 C 0.00367 0.60155 0.08848 0.0
C2594 C 0.98666 0.60844 0.10807 0.0
C2595 C 0.97522 0.57938 0.09503 0.0
C2596 C 0.96266 0.57227 0.08267 0.0
C2597 C 0.95053 0.55556 0.08276 0.0
C2598 C 0.95123 0.54592 0.09588 0.0
C2599 C 0.96396 0.55304 0.10872 0.0
C2600 C 0.97608 0.56998 0.1082 0.0
H2601 H 0.40624 0.36706 0.01924 0.0
H2602 H 0.36259 0.35735 0.04531 0.0
H2603 H 0.37708 0.36196 0.07325 0.0
H2604 H 0.41896 0.34662 0.04906 0.0
H2605 H 0.44034 0.36154 0.04781 0.0
H2606 H 0.42662 0.35767 0.02972 0.0
H2607 H 0.43625 0.38912 0.02977 0.0
H2608 H 0.44991 0.39306 0.04796 0.0
H2609 H 0.435 0.39951 0.04909 0.0
H2610 H 0.39601 0.3675 0.0984 0.0
H2611 H 0.41809 0.37243 0.11923 0.0
H2612 H 0.44948 0.37838 0.07721 0.0
C2613 C 0.39971 0.36587 0.03081 0.0
C2614 C 0.38325 0.36185 0.02999 0.0
C2615 C 0.37518 0.3604 0.0455 0.0
C2616 C 0.38331 0.36305 0.06149 0.0
C2617 C 0.39953 0.36712 0.06182 0.0
C2618 C 0.40764 0.36844 0.04693 0.0
C2619 C 0.425 0.37267 0.05097 0.0
C2620 C 0.42789 0.3588 0.04398 0.0
C2621 C 0.43726 0.3896 0.04403 0.0
C2622 C 0.42532 0.37347 0.07045 0.0
C2623 C 0.41052 0.37032 0.07642 0.0
C2624 C 0.4077 0.37008 0.0939 0.0
C2625 C 0.42031 0.37296 0.10562 0.0
C2626 C 0.43556 0.37609 0.09984 0.0
C2627 C 0.43805 0.37635 0.08199 0.0
H2628 H 0.66233 0.69959 0.37449 0.0
H2629 H 0.6232 0.68714 0.33681 0.0
H2630 H 0.60747 0.69134 0.35914 0.0
H2631 H 0.63703 0.68101 0.4112 0.0
H2632 H 0.65077 0.69756 0.42622 0.0
H2633 H 0.65855 0.6924 0.40759 0.0
H2634 H 0.67201 0.72296 0.39869 0.0
H2635 H 0.66421 0.72819 0.41724 0.0
H2636 H 0.65967 0.73243 0.39607 0.0
H2637 H 0.59619 0.69736 0.38506 0.0
H2638 H 0.59024 0.70563 0.4131 0.0
H2639 H 0.63716 0.7158 0.43398 0.0
C2640 C 0.65035 0.6975 0.37105 0.0
C2641 C 0.6439 0.69292 0.35396 0.0
C2642 C 0.62834 0.69065 0.34983 0.0
C2643 C 0.6193 0.69297 0.36242 0.0
C2644 C 0.62606 0.69773 0.37907 0.0
C2645 C 0.64124 0.70006 0.38344 0.0
C2646 C 0.64599 0.7061 0.40212 0.0
C2647 C 0.64821 0.69351 0.41239 0.0
C2648 C 0.66138 0.72345 0.40361 0.0
C2649 C 0.6311 0.70677 0.40749 0.0
C2650 C 0.61973 0.70176 0.39401 0.0
C2651 C 0.60499 0.7013 0.39574 0.0
C2652 C 0.60173 0.70605 0.41171 0.0
C2653 C 0.6132 0.71132 0.42575 0.0
C2654 C 0.62812 0.71174 0.42352 0.0
H2655 H 0.29112 0.94319 0.40848 0.0
H2656 H 0.30404 0.92081 0.3666 0.0
H2657 H 0.29017 0.89383 0.38045 0.0
H2658 H 0.29749 0.92248 0.44168 0.0
H2659 H 0.28057 0.91992 0.45389 0.0
H2660 H 0.29046 0.93711 0.44008 0.0
H2661 H 0.26288 0.92794 0.42409 0.0
H2662 H 0.25285 0.91077 0.43794 0.0
H2663 H 0.25094 0.907 0.41495 0.0
H2664 H 0.27673 0.8699 0.40008 0.0
H2665 H 0.26386 0.85063 0.42346 0.0
H2666 H 0.25911 0.88865 0.45182 0.0
C2667 C 0.29078 0.93258 0.402 0.0
C2668 C 0.29856 0.93409 0.38639 0.0
C2669 C 0.29808 0.91992 0.37854 0.0
C2670 C 0.29024 0.90455 0.3863 0.0
C2671 C 0.28284 0.90356 0.40181 0.0
C2672 C 0.28294 0.91717 0.4095 0.0
C2673 C 0.27463 0.91302 0.42645 0.0
C2674 C 0.2865 0.92377 0.4414 0.0
C2675 C 0.25942 0.91478 0.42581 0.0
C2676 C 0.2701 0.89501 0.42728 0.0
C2677 C 0.2749 0.88975 0.41294 0.0
C2678 C 0.2727 0.8738 0.41124 0.0
C2679 C 0.2654 0.86296 0.42456 0.0
C2680 C 0.26034 0.86811 0.43932 0.0
C2681 C 0.26269 0.88433 0.44058 0.0
H2682 H 0.07302 0.36221 0.35347 0.0
H2683 H 0.02695 0.32887 0.37599 0.0
H2684 H 0.03998 0.33862 0.40496 0.0
H2685 H 0.09878 0.35749 0.38485 0.0
H2686 H 0.11466 0.379 0.38479 0.0
H2687 H 0.10182 0.36902 0.36578 0.0
H2688 H 0.09407 0.39198 0.3654 0.0
H2689 H 0.10684 0.402 0.38442 0.0
H2690 H 0.08565 0.39607 0.38418 0.0
H2691 H 0.05805 0.35175 0.43149 0.0
H2692 H 0.07974 0.36814 0.45372 0.0
H2693 H 0.11363 0.3937 0.4139 0.0
C2694 C 0.06567 0.35686 0.36447 0.0
C2695 C 0.04896 0.34473 0.36241 0.0
C2696 C 0.03977 0.33818 0.3772 0.0
C2697 C 0.04706 0.34361 0.39372 0.0
C2698 C 0.06352 0.35564 0.39527 0.0
C2699 C 0.07271 0.36221 0.38106 0.0
C2700 C 0.09009 0.37525 0.38626 0.0
C2701 C 0.10204 0.36986 0.38005 0.0
C2702 C 0.09441 0.39233 0.37968 0.0
C2703 C 0.08919 0.37509 0.40563 0.0
C2704 C 0.0738 0.36358 0.41056 0.0
C2705 C 0.07011 0.36092 0.42779 0.0
C2706 C 0.08247 0.37035 0.44031 0.0
C2707 C 0.09826 0.38248 0.43554 0.0
C2708 C 0.10161 0.38473 0.41794 0.0
H2709 H 0.04273 0.31373 0.28773 0.0
H2710 H 0.01718 0.27362 0.32224 0.0
H2711 H 0.03222 0.26022 0.31141 0.0
H2712 H 0.04212 0.28917 0.25263 0.0
H2713 H 0.06211 0.30403 0.24581 0.0
H2714 H 0.05037 0.31111 0.25731 0.0
H2715 H 0.074 0.32655 0.2802 0.0
H2716 H 0.08585 0.31954 0.26872 0.0
H2717 H 0.08198 0.31522 0.29106 0.0
H2718 H 0.04845 0.25013 0.29511 0.0
H2719 H 0.06481 0.24433 0.27479 0.0
H2720 H 0.07995 0.29135 0.2515 0.0
C2721 C 0.04049 0.3023 0.29327 0.0
C2722 C 0.02886 0.29478 0.30591 0.0
C2723 C 0.02609 0.27964 0.31258 0.0
C2724 C 0.03459 0.27195 0.30654 0.0
C2725 C 0.04587 0.27963 0.29394 0.0
C2726 C 0.04889 0.29451 0.28745 0.0
C2727 C 0.06101 0.29982 0.27339 0.0
C2728 C 0.05345 0.3011 0.25628 0.0
C2729 C 0.07664 0.31626 0.27866 0.0
C2730 C 0.06408 0.2854 0.27269 0.0
C2731 C 0.05534 0.27394 0.28472 0.0
C2732 C 0.05556 0.25915 0.28584 0.0
C2733 C 0.06488 0.25597 0.27428 0.0
C2734 C 0.07389 0.26755 0.26184 0.0
C2735 C 0.07349 0.28247 0.26115 0.0
H2736 H 0.68715 0.72185 0.29075 0.0
H2737 H 0.72066 0.73847 0.33526 0.0
H2738 H 0.73397 0.76726 0.32551 0.0
H2739 H 0.71516 0.74694 0.26116 0.0
H2740 H 0.7012 0.7511 0.24942 0.0
H2741 H 0.69362 0.73214 0.2606 0.0
H2742 H 0.67454 0.73922 0.27747 0.0
H2743 H 0.68203 0.75821 0.26628 0.0
H2744 H 0.683 0.75888 0.28944 0.0
H2745 H 0.74496 0.79378 0.30952 0.0
H2746 H 0.75244 0.81592 0.2889 0.0
H2747 H 0.71099 0.78196 0.25557 0.0
C2748 C 0.69706 0.73155 0.29868 0.0
C2749 C 0.70276 0.7279 0.31387 0.0
C2750 C 0.71602 0.74098 0.32363 0.0
C2751 C 0.72364 0.75737 0.3182 0.0
C2752 C 0.71776 0.76049 0.30308 0.0
C2753 C 0.7047 0.74794 0.29353 0.0
C2754 C 0.70113 0.75437 0.27739 0.0
C2755 C 0.70289 0.74562 0.26119 0.0
C2756 C 0.68417 0.75256 0.27767 0.0
C2757 C 0.71445 0.77245 0.27914 0.0
C2758 C 0.72389 0.77577 0.29407 0.0
C2759 C 0.7375 0.79139 0.29794 0.0
C2760 C 0.74164 0.80389 0.28618 0.0
C2761 C 0.73215 0.80072 0.27078 0.0
C2762 C 0.71829 0.78481 0.26738 0.0
H2763 H 0.28494 0.96142 0.32016 0.0
H2764 H 0.25525 0.96782 0.35775 0.0
H2765 H 0.23499 0.96315 0.33482 0.0
H2766 H 0.27677 0.9813 0.28545 0.0
H2767 H 0.27584 0.96675 0.26903 0.0
H2768 H 0.28832 0.971 0.28832 0.0
H2769 H 0.27325 0.93954 0.294 0.0
H2770 H 0.26071 0.93519 0.27473 0.0
H2771 H 0.25138 0.92832 0.29503 0.0
H2772 H 0.2181 0.95814 0.30804 0.0
H2773 H 0.20507 0.95214 0.27899 0.0
H2774 H 0.24484 0.94756 0.25874 0.0
C2775 C 0.27422 0.96193 0.32353 0.0
C2776 C 0.27171 0.96504 0.34075 0.0
C2777 C 0.25742 0.9654 0.34467 0.0
C2778 C 0.24585 0.96282 0.33173 0.0
C2779 C 0.24864 0.95971 0.31493 0.0
C2780 C 0.2624 0.95914 0.31078 0.0
C2781 C 0.26215 0.9551 0.29174 0.0
C2782 C 0.27663 0.96939 0.28313 0.0
C2783 C 0.26185 0.93855 0.2887 0.0
C2784 C 0.24617 0.95359 0.28587 0.0
C2785 C 0.23864 0.9564 0.29946 0.0
C2786 C 0.22385 0.95591 0.29728 0.0
C2787 C 0.21656 0.9525 0.28073 0.0
C2788 C 0.22401 0.94956 0.26655 0.0
C2789 C 0.23895 0.94996 0.26927 0.0
H2790 H 0.68033 0.96718 0.31229 0.0
H2791 H 0.71677 0.97203 0.35019 0.0
H2792 H 0.73222 0.96848 0.3271 0.0
H2793 H 0.6817 0.93601 0.2841 0.0
H2794 H 0.67918 0.94476 0.26478 0.0
H2795 H 0.67052 0.94688 0.28437 0.0
H2796 H 0.68601 0.97892 0.28217 0.0
H2797 H 0.69466 0.9769 0.26256 0.0
H2798 H 0.7078 0.98994 0.28033 0.0
H2799 H 0.74459 0.96611 0.29978 0.0
H2800 H 0.75288 0.96502 0.27015 0.0
H2801 H 0.70821 0.96113 0.25012 0.0
C2802 C 0.69149 0.96738 0.31579 0.0
C2803 C 0.69729 0.96988 0.33312 0.0
C2804 C 0.71202 0.97012 0.33705 0.0
C2805 C 0.72089 0.96808 0.32402 0.0
C2806 C 0.71485 0.96572 0.3071 0.0
C2807 C 0.70048 0.96532 0.30296 0.0
C2808 C 0.69696 0.96316 0.28371 0.0
C2809 C 0.68115 0.94672 0.27897 0.0
C2810 C 0.69633 0.97812 0.27679 0.0
C2811 C 0.71171 0.96265 0.27767 0.0
C2812 C 0.72186 0.96407 0.29137 0.0
C2813 C 0.73662 0.96471 0.28896 0.0
C2814 C 0.7412 0.96401 0.2721 0.0
C2815 C 0.73095 0.96251 0.25786 0.0
C2816 C 0.71604 0.96181 0.26078 0.0
H2817 H 0.03084 0.74345 0.31028 0.0
H2818 H 0.05617 0.71955 0.28917 0.0
H2819 H 0.06914 0.74159 0.26873 0.0
H2820 H 0.02092 0.75382 0.27275 0.0
H2821 H 0.02425 0.774 0.27956 0.0
H2822 H 0.01934 0.75842 0.29504 0.0
H2823 H 0.04552 0.77842 0.31326 0.0
H2824 H 0.0504 0.79425 0.29797 0.0
H2825 H 0.06494 0.78796 0.30335 0.0
H2826 H 0.07414 0.76176 0.24666 0.0
H2827 H 0.07395 0.78146 0.2265 0.0
H2828 H 0.04804 0.79482 0.26288 0.0
C2829 C 0.0396 0.74323 0.30181 0.0
C2830 C 0.04249 0.72976 0.3014 0.0
C2831 C 0.05381 0.72974 0.28988 0.0
C2832 C 0.06126 0.74224 0.27815 0.0
C2833 C 0.05756 0.75489 0.2783 0.0
C2834 C 0.04734 0.75579 0.29009 0.0
C2835 C 0.04441 0.76999 0.28647 0.0
C2836 C 0.02615 0.76367 0.28326 0.0
C2837 C 0.05176 0.78346 0.30114 0.0
C2838 C 0.05372 0.77619 0.27021 0.0
C2839 C 0.06127 0.76733 0.26581 0.0
C2840 C 0.06881 0.76922 0.25025 0.0
C2841 C 0.06861 0.78043 0.23886 0.0
C2842 C 0.06114 0.78983 0.24312 0.0
C2843 C 0.05395 0.78792 0.25925 0.0
H2844 H 0.27184 0.30064 0.32547 0.0
H2845 H 0.31088 0.34741 0.30807 0.0
H2846 H 0.29854 0.33979 0.27869 0.0
H2847 H 0.26881 0.27581 0.28817 0.0
H2848 H 0.24697 0.2629 0.28832 0.0
H2849 H 0.25857 0.27229 0.30813 0.0
H2850 H 0.24112 0.2859 0.31421 0.0
H2851 H 0.22953 0.27662 0.29434 0.0
H2852 H 0.23953 0.29883 0.29846 0.0
H2853 H 0.2824 0.32688 0.25103 0.0
H2854 H 0.26397 0.30907 0.22685 0.0
H2855 H 0.2355 0.27074 0.26211 0.0
C2856 C 0.27779 0.30933 0.31552 0.0
C2857 C 0.29234 0.32466 0.31916 0.0
C2858 C 0.29974 0.3356 0.30567 0.0
C2859 C 0.2928 0.33141 0.28892 0.0
C2860 C 0.27845 0.31624 0.28581 0.0
C2861 C 0.27105 0.30534 0.29871 0.0
C2862 C 0.25594 0.2896 0.29183 0.0
C2863 C 0.25769 0.27425 0.29425 0.0
C2864 C 0.24062 0.28763 0.30021 0.0
C2865 C 0.25609 0.29331 0.27302 0.0
C2866 C 0.26912 0.30879 0.26985 0.0
C2867 C 0.27208 0.3148 0.25338 0.0
C2868 C 0.26153 0.30464 0.23975 0.0
C2869 C 0.24818 0.28869 0.24267 0.0
C2870 C 0.24544 0.28302 0.25957 0.0
H2871 H 0.30359 0.38603 0.37923 0.0
H2872 H 0.28788 0.33733 0.39878 0.0
H2873 H 0.27161 0.34192 0.42007 0.0
H2874 H 0.31046 0.40648 0.41773 0.0
H2875 H 0.30333 0.42034 0.41185 0.0
H2876 H 0.31083 0.41203 0.39571 0.0
H2877 H 0.28369 0.39999 0.37782 0.0
H2878 H 0.27614 0.40849 0.39383 0.0
H2879 H 0.26473 0.38661 0.38768 0.0
H2880 H 0.26156 0.3537 0.44247 0.0
H2881 H 0.25734 0.37141 0.4635 0.0
H2882 H 0.27876 0.41222 0.4292 0.0
C2883 C 0.29624 0.37608 0.38756 0.0
C2884 C 0.29693 0.36128 0.38727 0.0
C2885 C 0.28744 0.34871 0.39865 0.0
C2886 C 0.27813 0.3512 0.4108 0.0
C2887 C 0.27829 0.36623 0.41126 0.0
C2888 C 0.28689 0.37837 0.39977 0.0
C2889 C 0.2865 0.39412 0.40419 0.0
C2890 C 0.3038 0.40911 0.40758 0.0
C2891 C 0.27721 0.3975 0.39004 0.0
C2892 C 0.27711 0.38924 0.4205 0.0
C2893 C 0.27228 0.37302 0.42421 0.0
C2894 C 0.26491 0.36628 0.4395 0.0
C2895 C 0.26264 0.37644 0.45139 0.0
C2896 C 0.26775 0.39317 0.44797 0.0
C2897 C 0.27467 0.39945 0.4321 0.0
H2898 H 0.62478 0.91958 0.3747 0.0
H2899 H 0.66844 0.95453 0.40475 0.0
H2900 H 0.66163 0.93398 0.42677 0.0
H2901 H 0.59973 0.90537 0.40877 0.0
H2902 H 0.58783 0.88395 0.40101 0.0
H2903 H 0.59743 0.90011 0.38602 0.0
H2904 H 0.61226 0.88565 0.37313 0.0
H2905 H 0.60258 0.86932 0.38802 0.0
H2906 H 0.62445 0.88075 0.38706 0.0
H2907 H 0.64835 0.91163 0.44738 0.0
H2908 H 0.62959 0.88856 0.46493 0.0
H2909 H 0.59456 0.86762 0.42177 0.0
C2910 C 0.63317 0.92271 0.38565 0.0
C2911 C 0.64726 0.93863 0.38786 0.0
C2912 C 0.65769 0.9424 0.40261 0.0
C2913 C 0.65393 0.93077 0.41523 0.0
C2914 C 0.63971 0.91538 0.41292 0.0
C2915 C 0.62954 0.91124 0.39844 0.0
C2916 C 0.61422 0.89449 0.39992 0.0
C2917 C 0.59891 0.89609 0.39887 0.0
C2918 C 0.61333 0.8818 0.38622 0.0
C2919 C 0.6171 0.89021 0.41775 0.0
C2920 C 0.63198 0.90234 0.42493 0.0
C2921 C 0.63681 0.90187 0.44179 0.0
C2922 C 0.62607 0.88877 0.45168 0.0
C2923 C 0.61067 0.87632 0.44469 0.0
C2924 C 0.60632 0.87691 0.42738 0.0
H2925 H 0.07373 0.70079 0.36346 0.0
H2926 H 0.02928 0.69913 0.37851 0.0
H2927 H 0.03922 0.70439 0.4088 0.0
H2928 H 0.07727 0.67969 0.3994 0.0
H2929 H 0.09916 0.69205 0.40128 0.0
H2930 H 0.0888 0.68875 0.38069 0.0
H2931 H 0.103 0.72065 0.37774 0.0
H2932 H 0.11332 0.72404 0.39839 0.0
H2933 H 0.10106 0.73338 0.39434 0.0
H2934 H 0.05372 0.7094 0.43752 0.0
H2935 H 0.07131 0.71251 0.46282 0.0
H2936 H 0.10607 0.71047 0.42924 0.0
C2937 C 0.0661 0.7016 0.37309 0.0
C2938 C 0.05072 0.69959 0.36853 0.0
C2939 C 0.04108 0.7006 0.38162 0.0
C2940 C 0.04665 0.70365 0.39888 0.0
C2941 C 0.06186 0.70562 0.4029 0.0
C2942 C 0.07142 0.70454 0.39041 0.0
C2943 C 0.08706 0.70657 0.39825 0.0
C2944 C 0.08812 0.69083 0.39469 0.0
C2945 C 0.10199 0.72208 0.39179 0.0
C2946 C 0.08475 0.70886 0.41711 0.0
C2947 C 0.07019 0.70841 0.4195 0.0
C2948 C 0.0652 0.7099 0.43581 0.0
C2949 C 0.07528 0.71173 0.45008 0.0
C2950 C 0.09018 0.71209 0.44797 0.0
C2951 C 0.09493 0.71063 0.43122 0.0
H2952 H 0.30295 0.03324 0.68882 0.0
H2953 H 0.34547 0.03583 0.7137 0.0
H2954 H 0.33864 0.04415 0.74119 0.0
H2955 H 0.30539 0.06834 0.71154 0.0
H2956 H 0.28369 0.05905 0.7132 0.0
H2957 H 0.29173 0.05302 0.69545 0.0
H2958 H 0.27467 0.02213 0.70317 0.0
H2959 H 0.26651 0.02805 0.72089 0.0
H2960 H 0.27656 0.01636 0.72459 0.0
H2961 H 0.32773 0.05308 0.76583 0.0
H2962 H 0.3126 0.06058 0.78618 0.0
H2963 H 0.27688 0.05149 0.74551 0.0
C2964 C 0.31081 0.03549 0.70004 0.0
C2965 C 0.32478 0.03389 0.69904 0.0
C2966 C 0.33468 0.03691 0.7141 0.0
C2967 C 0.33093 0.0417 0.72979 0.0
C2968 C 0.31718 0.04331 0.73028 0.0
C2969 C 0.30719 0.04017 0.71585 0.0
C2970 C 0.29307 0.04269 0.7199 0.0
C2971 C 0.29351 0.05661 0.7094 0.0
C2972 C 0.27674 0.02633 0.71697 0.0
C2973 C 0.29676 0.04788 0.73882 0.0
C2974 C 0.31075 0.04821 0.74455 0.0
C2975 C 0.31672 0.05281 0.76151 0.0
C2976 C 0.30809 0.05708 0.77295 0.0
C2977 C 0.29362 0.05669 0.76741 0.0
C2978 C 0.28793 0.05199 0.7501 0.0
H2979 H 0.96331 0.27303 0.73613 0.0
H2980 H 0.99205 0.26334 0.70014 0.0
H2981 H 0.98006 0.23464 0.71017 0.0
H2982 H 0.96758 0.25164 0.7702 0.0
H2983 H 0.94724 0.24394 0.7774 0.0
H2984 H 0.9573 0.26312 0.76649 0.0
H2985 H 0.93324 0.25149 0.74393 0.0
H2986 H 0.92307 0.23226 0.75481 0.0
H2987 H 0.92702 0.23203 0.73231 0.0
H2988 H 0.96553 0.20725 0.72544 0.0
H2989 H 0.9501 0.18399 0.74457 0.0
H2990 H 0.9316 0.2126 0.77033 0.0
C2991 C 0.96692 0.26484 0.73009 0.0
C2992 C 0.97849 0.27036 0.71721 0.0
C2993 C 0.98313 0.25932 0.70997 0.0
C2994 C 0.97636 0.24301 0.71557 0.0
C2995 C 0.96502 0.23802 0.72839 0.0
C2996 C 0.96036 0.24867 0.73552 0.0
C2997 C 0.94853 0.24072 0.74961 0.0
C2998 C 0.9556 0.25043 0.76695 0.0
C2999 C 0.93199 0.23902 0.74487 0.0
C3000 C 0.94736 0.22395 0.7495 0.0
C3001 C 0.95683 0.22251 0.73712 0.0
C3002 C 0.95793 0.20819 0.73503 0.0
C3003 C 0.94913 0.19506 0.74589 0.0
C3004 C 0.93935 0.19634 0.75862 0.0
C3005 C 0.93862 0.21107 0.76043 0.0
H3006 H 0.71855 0.67833 0.71059 0.0
H3007 H 0.73799 0.71864 0.67549 0.0
H3008 H 0.75811 0.73727 0.69802 0.0
H3009 H 0.72393 0.70345 0.74972 0.0
H3010 H 0.72988 0.69163 0.76279 0.0
H3011 H 0.71625 0.68173 0.74428 0.0
H3012 H 0.73574 0.67245 0.73224 0.0
H3013 H 0.74945 0.68236 0.75066 0.0
H3014 H 0.75673 0.68785 0.72932 0.0
H3015 H 0.77658 0.75133 0.72396 0.0
H3016 H 0.79273 0.75965 0.75142 0.0
H3017 H 0.76195 0.71003 0.76938 0.0
C3018 C 0.72688 0.69114 0.70773 0.0
C3019 C 0.72664 0.69705 0.69131 0.0
C3020 C 0.73795 0.71382 0.68797 0.0
C3021 C 0.7494 0.72453 0.7007 0.0
C3022 C 0.74944 0.71825 0.71667 0.0
C3023 C 0.73852 0.70195 0.72023 0.0
C3024 C 0.74172 0.69812 0.73816 0.0
C3025 C 0.72707 0.69346 0.7494 0.0
C3026 C 0.74618 0.68438 0.73755 0.0
C3027 C 0.7562 0.7148 0.74406 0.0
C3028 C 0.76037 0.72626 0.73152 0.0
C3029 C 0.77343 0.74247 0.7339 0.0
C3030 C 0.78255 0.74707 0.7495 0.0
C3031 C 0.77865 0.73546 0.76245 0.0
C3032 C 0.76521 0.71915 0.75968 0.0
H3033 H 0.70165 0.61635 0.64365 0.0
H3034 H 0.72932 0.67006 0.643 0.0
H3035 H 0.75156 0.66872 0.62869 0.0
H3036 H 0.73424 0.60798 0.65042 0.0
H3037 H 0.72433 0.58928 0.63671 0.0
H3038 H 0.71235 0.59614 0.64813 0.0
H3039 H 0.69808 0.59592 0.61961 0.0
H3040 H 0.71009 0.58935 0.60782 0.0
H3041 H 0.71007 0.60799 0.60232 0.0
H3042 H 0.77566 0.66513 0.61309 0.0
H3043 H 0.79096 0.65071 0.59257 0.0
H3044 H 0.74106 0.59294 0.60257 0.0
C3045 C 0.71256 0.62772 0.64059 0.0
C3046 C 0.71399 0.64329 0.64438 0.0
C3047 C 0.72809 0.65804 0.64007 0.0
C3048 C 0.74078 0.65739 0.63206 0.0
C3049 C 0.73907 0.6419 0.62816 0.0
C3050 C 0.72501 0.62694 0.63208 0.0
C3051 C 0.72428 0.61065 0.62591 0.0
C3052 C 0.72377 0.60041 0.6412 0.0
C3053 C 0.70977 0.60038 0.61316 0.0
C3054 C 0.73997 0.61694 0.61705 0.0
C3055 C 0.75012 0.63859 0.61897 0.0
C3056 C 0.76982 0.65179 0.61093 0.0
C3057 C 0.77976 0.64294 0.5989 0.0
C3058 C 0.76627 0.62024 0.59289 0.0
C3059 C 0.74819 0.60622 0.60539 0.0
H3060 H 0.34786 0.05261 0.62153 0.0
H3061 H 0.38795 0.07865 0.65926 0.0
H3062 H 0.3967 0.10488 0.64493 0.0
H3063 H 0.3693 0.07289 0.58609 0.0
H3064 H 0.35294 0.07399 0.57537 0.0
H3065 H 0.34843 0.05763 0.58977 0.0
H3066 H 0.33098 0.06629 0.60757 0.0
H3067 H 0.33537 0.08265 0.59313 0.0
H3068 H 0.33983 0.08749 0.61586 0.0
H3069 H 0.40301 0.12741 0.62491 0.0
H3070 H 0.40634 0.14496 0.60056 0.0
H3071 H 0.36182 0.10487 0.57598 0.0
C3072 C 0.35824 0.06391 0.62701 0.0
C3073 C 0.36718 0.06359 0.64157 0.0
C3074 C 0.38088 0.07858 0.64816 0.0
C3075 C 0.38592 0.09357 0.64014 0.0
C3076 C 0.37708 0.09341 0.6256 0.0
C3077 C 0.36345 0.07901 0.61915 0.0
C3078 C 0.35685 0.08205 0.60264 0.0
C3079 C 0.35689 0.07098 0.58758 0.0
C3080 C 0.33974 0.07947 0.60494 0.0
C3081 C 0.36924 0.10024 0.60052 0.0
C3082 C 0.38069 0.10656 0.61402 0.0
C3083 C 0.39398 0.12269 0.6144 0.0
C3084 C 0.39578 0.13256 0.60048 0.0
C3085 C 0.38439 0.12628 0.58632 0.0
C3086 C 0.37072 0.11002 0.58661 0.0
H3087 H 0.93434 0.27236 0.66307 0.0
H3088 H 0.97563 0.32039 0.65212 0.0
H3089 H 0.96316 0.31871 0.62347 0.0
H3090 H 0.92897 0.25384 0.61955 0.0
H3091 H 0.9071 0.24214 0.62035 0.0
H3092 H 0.91952 0.24699 0.6398 0.0
H3093 H 0.90441 0.26085 0.65346 0.0
H3094 H 0.89203 0.25613 0.63403 0.0
H3095 H 0.90371 0.2773 0.64263 0.0
H3096 H 0.94482 0.31306 0.59734 0.0
H3097 H 0.92365 0.30231 0.574 0.0
H3098 H 0.89555 0.25685 0.60107 0.0
C3099 C 0.94081 0.28245 0.65458 0.0
C3100 C 0.95592 0.29653 0.65982 0.0
C3101 C 0.96408 0.30944 0.64832 0.0
C3102 C 0.95707 0.30864 0.63206 0.0
C3103 C 0.94204 0.2947 0.62739 0.0
C3104 C 0.93415 0.2817 0.63818 0.0
C3105 C 0.91819 0.26807 0.62998 0.0
C3106 C 0.91847 0.2518 0.62726 0.0
C3107 C 0.90374 0.26544 0.64066 0.0
C3108 C 0.9182 0.27559 0.61304 0.0
C3109 C 0.93198 0.291 0.61186 0.0
C3110 C 0.93419 0.30079 0.59789 0.0
C3111 C 0.92211 0.29452 0.58464 0.0
C3112 C 0.90816 0.27841 0.58516 0.0
C3113 C 0.9062 0.26898 0.59979 0.0
H3114 H 0.36636 0.30323 0.65803 0.0
H3115 H 0.3229 0.30172 0.63733 0.0
H3116 H 0.32892 0.29548 0.60831 0.0
H3117 H 0.39146 0.32323 0.623 0.0
H3118 H 0.40191 0.31165 0.62386 0.0
H3119 H 0.39386 0.31543 0.64306 0.0
H3120 H 0.37738 0.28373 0.64748 0.0
H3121 H 0.38532 0.27984 0.62821 0.0
H3122 H 0.36363 0.26987 0.63049 0.0
H3123 H 0.34002 0.29007 0.58138 0.0
H3124 H 0.35591 0.28677 0.55847 0.0
H3125 H 0.39206 0.29187 0.59671 0.0
C3126 C 0.35805 0.30154 0.64743 0.0
C3127 C 0.34411 0.30293 0.65004 0.0
C3128 C 0.33364 0.3007 0.63573 0.0
C3129 C 0.33693 0.2971 0.61918 0.0
C3130 C 0.35073 0.29577 0.61711 0.0
C3131 C 0.36115 0.29797 0.63084 0.0
C3132 C 0.3754 0.29634 0.62508 0.0
C3133 C 0.39161 0.31263 0.62898 0.0
C3134 C 0.37542 0.28156 0.63331 0.0
C3135 C 0.37145 0.29302 0.60594 0.0
C3136 C 0.35711 0.29263 0.60162 0.0
C3137 C 0.35119 0.2902 0.58464 0.0
C3138 C 0.36024 0.28828 0.57173 0.0
C3139 C 0.37503 0.28874 0.57586 0.0
C3140 C 0.38063 0.29111 0.59323 0.0
H3141 H 0.70779 0.06089 0.60747 0.0
H3142 H 0.7058 0.08462 0.6554 0.0
H3143 H 0.71591 0.11115 0.64109 0.0
H3144 H 0.74403 0.09803 0.59039 0.0
H3145 H 0.73528 0.0927 0.56878 0.0
H3146 H 0.73084 0.07652 0.58349 0.0
H3147 H 0.69996 0.06515 0.57823 0.0
H3148 H 0.70428 0.08132 0.56366 0.0
H3149 H 0.69199 0.07886 0.58185 0.0
H3150 H 0.72243 0.13382 0.62082 0.0
H3151 H 0.72488 0.15085 0.5961 0.0
H3152 H 0.72212 0.11221 0.56133 0.0
C3153 C 0.71001 0.0718 0.61509 0.0
C3154 C 0.70616 0.07075 0.63257 0.0
C3155 C 0.70876 0.08518 0.64201 0.0
C3156 C 0.71455 0.10032 0.634 0.0
C3157 C 0.7177 0.10081 0.61658 0.0
C3158 C 0.71561 0.08695 0.60725 0.0
C3159 C 0.71811 0.09022 0.58833 0.0
C3160 C 0.73295 0.08932 0.5824 0.0
C3161 C 0.70266 0.07818 0.57739 0.0
C3162 C 0.72131 0.10786 0.58837 0.0
C3163 C 0.72132 0.11386 0.60482 0.0
C3164 C 0.72282 0.1294 0.60793 0.0
C3165 C 0.72421 0.13898 0.59384 0.0
C3166 C 0.72404 0.13296 0.57688 0.0
C3167 C 0.7227 0.11726 0.5742 0.0
H3168 H 0.92304 0.63151 0.64773 0.0
H3169 H 0.96448 0.67592 0.62935 0.0
H3170 H 0.95243 0.66801 0.59988 0.0
H3171 H 0.91894 0.60474 0.61234 0.0
H3172 H 0.89701 0.59302 0.61187 0.0
H3173 H 0.90827 0.60273 0.63178 0.0
H3174 H 0.89238 0.61836 0.63548 0.0
H3175 H 0.88108 0.60871 0.61555 0.0
H3176 H 0.89218 0.63106 0.6186 0.0
H3177 H 0.93677 0.65472 0.57224 0.0
H3178 H 0.91867 0.63645 0.54812 0.0
H3179 H 0.88745 0.60063 0.5842 0.0
C3180 C 0.9295 0.63968 0.63756 0.0
C3181 C 0.94471 0.65437 0.64091 0.0
C3182 C 0.95284 0.66459 0.62715 0.0
C3183 C 0.94606 0.66025 0.61035 0.0
C3184 C 0.93114 0.64565 0.60748 0.0
C3185 C 0.92295 0.63549 0.62067 0.0
C3186 C 0.90747 0.62006 0.61393 0.0
C3187 C 0.90796 0.6042 0.6177 0.0
C3188 C 0.89239 0.61953 0.62133 0.0
C3189 C 0.9084 0.62303 0.59488 0.0
C3190 C 0.92208 0.63794 0.59146 0.0
C3191 C 0.92591 0.64311 0.57476 0.0
C3192 C 0.91557 0.63269 0.56116 0.0
C3193 C 0.90156 0.6173 0.56434 0.0
C3194 C 0.89792 0.61249 0.58145 0.0
H3195 H 0.9694 0.72225 0.69871 0.0
H3196 H 0.94827 0.67449 0.72228 0.0
H3197 H 0.93703 0.68457 0.74455 0.0
H3198 H 0.98254 0.74645 0.73559 0.0
H3199 H 0.97786 0.76206 0.72927 0.0
H3200 H 0.98178 0.75041 0.71319 0.0
H3201 H 0.95388 0.74089 0.6978 0.0
H3202 H 0.94995 0.75276 0.7137 0.0
H3203 H 0.93561 0.73089 0.70976 0.0
H3204 H 0.93299 0.70118 0.76718 0.0
H3205 H 0.93368 0.72256 0.78717 0.0
H3206 H 0.95529 0.75916 0.74835 0.0
C3207 C 0.96191 0.71373 0.70819 0.0
C3208 C 0.95969 0.69756 0.70869 0.0
C3209 C 0.95007 0.68688 0.72151 0.0
C3210 C 0.94362 0.6925 0.73427 0.0
C3211 C 0.94664 0.70873 0.73388 0.0
C3212 C 0.95524 0.7191 0.72099 0.0
C3213 C 0.95783 0.73641 0.72439 0.0
C3214 C 0.97608 0.7496 0.72569 0.0
C3215 C 0.94877 0.74047 0.71059 0.0
C3216 C 0.95011 0.73433 0.74163 0.0
C3217 C 0.94366 0.71823 0.74681 0.0
C3218 C 0.93755 0.7137 0.76307 0.0
C3219 C 0.93806 0.72595 0.77436 0.0
C3220 C 0.94448 0.74251 0.76933 0.0
C3221 C 0.95024 0.74661 0.75257 0.0
H3222 H 0.28509 0.257 0.70674 0.0
H3223 H 0.33337 0.28838 0.73041 0.0
H3224 H 0.32773 0.26722 0.75154 0.0
H3225 H 0.26501 0.24483 0.74348 0.0
H3226 H 0.2506 0.22364 0.73648 0.0
H3227 H 0.25937 0.23938 0.72097 0.0
H3228 H 0.26979 0.22233 0.70432 0.0
H3229 H 0.26081 0.20634 0.71967 0.0
H3230 H 0.28214 0.21569 0.71548 0.0
H3231 H 0.3152 0.24571 0.7732 0.0
H3232 H 0.29719 0.22431 0.79277 0.0
H3233 H 0.25739 0.20592 0.75459 0.0
C3234 C 0.29469 0.25914 0.71597 0.0
C3235 C 0.3097 0.27431 0.71686 0.0
C3236 C 0.32183 0.27681 0.72936 0.0
C3237 C 0.31874 0.26484 0.74144 0.0
C3238 C 0.30356 0.25034 0.7407 0.0
C3239 C 0.29182 0.24728 0.72809 0.0
C3240 C 0.27595 0.23151 0.73118 0.0
C3241 C 0.26192 0.23507 0.73315 0.0
C3242 C 0.27194 0.21818 0.71681 0.0
C3243 C 0.28034 0.22672 0.74799 0.0
C3244 C 0.29638 0.23763 0.75315 0.0
C3245 C 0.30275 0.23683 0.76911 0.0
C3246 C 0.29241 0.22469 0.78016 0.0
C3247 C 0.27588 0.21352 0.77523 0.0
C3248 C 0.26996 0.21429 0.75871 0.0
H3249 H 0.71589 0.0386 0.69902 0.0
H3250 H 0.75193 0.04042 0.66453 0.0
H3251 H 0.77002 0.0441 0.68954 0.0
H3252 H 0.74456 0.06975 0.73044 0.0
H3253 H 0.73264 0.05915 0.74843 0.0
H3254 H 0.72272 0.05704 0.7278 0.0
H3255 H 0.70906 0.025 0.7282 0.0
H3256 H 0.71887 0.02695 0.74883 0.0
H3257 H 0.72155 0.01573 0.73116 0.0
H3258 H 0.78335 0.04571 0.71847 0.0
H3259 H 0.79128 0.04609 0.74891 0.0
H3260 H 0.74712 0.04469 0.76436 0.0
C3261 C 0.72761 0.03983 0.69667 0.0
C3262 C 0.73246 0.03918 0.67977 0.0
C3263 C 0.74794 0.04091 0.67733 0.0
C3264 C 0.7583 0.04301 0.69146 0.0
C3265 C 0.75309 0.04353 0.70794 0.0
C3266 C 0.73814 0.0421 0.71058 0.0
C3267 C 0.73531 0.04288 0.72955 0.0
C3268 C 0.73372 0.05812 0.73433 0.0
C3269 C 0.72032 0.02667 0.73474 0.0
C3270 C 0.75091 0.04474 0.7372 0.0
C3271 C 0.76101 0.04507 0.72454 0.0
C3272 C 0.77569 0.04577 0.7285 0.0
C3273 C 0.78012 0.04606 0.74585 0.0
C3274 C 0.77001 0.04589 0.75906 0.0
C3275 C 0.75527 0.04528 0.75456 0.0
H3276 H 0.0423 0.30581 0.01489 0.0
H3277 H 0.06772 0.35846 0.02927 0.0
H3278 H 0.08618 0.35477 0.04903 0.0
H3279 H 0.04383 0.29066 0.05663 0.0
H3280 H 0.0454 0.27362 0.04724 0.0
H3281 H 0.03474 0.28191 0.03559 0.0
H3282 H 0.05314 0.28691 0.00996 0.0
H3283 H 0.06412 0.27892 0.02143 0.0
H3284 H 0.07492 0.29948 0.01324 0.0
H3285 H 0.10913 0.34937 0.06609 0.0
H3286 H 0.12514 0.3329 0.08123 0.0
H3287 H 0.07831 0.27751 0.05392 0.0
C3288 C 0.05173 0.31648 0.02233 0.0
C3289 C 0.05371 0.33242 0.02054 0.0
C3290 C 0.066 0.34614 0.0305 0.0
C3291 C 0.07654 0.34415 0.04173 0.0
C3292 C 0.0745 0.32835 0.04312 0.0
C3293 C 0.06208 0.31437 0.03368 0.0
C3294 C 0.06129 0.29762 0.03621 0.0
C3295 C 0.04537 0.28522 0.0444 0.0
C3296 C 0.0635 0.29031 0.01921 0.0
C3297 C 0.07547 0.30254 0.04838 0.0
C3298 C 0.08445 0.32385 0.05318 0.0
C3299 C 0.10366 0.33601 0.06463 0.0
C3300 C 0.11418 0.32609 0.07313 0.0
C3301 C 0.10168 0.30276 0.07195 0.0
C3302 C 0.08438 0.29088 0.05592 0.0
H3303 H 0.65617 0.69722 0.06621 0.0
H3304 H 0.696 0.70688 0.03326 0.0
H3305 H 0.70738 0.737 0.03833 0.0
H3306 H 0.6516 0.73172 0.05304 0.0
H3307 H 0.64713 0.73612 0.07427 0.0
H3308 H 0.64183 0.71522 0.06773 0.0
H3309 H 0.65839 0.71439 0.09411 0.0
H3310 H 0.66383 0.73532 0.10067 0.0
H3311 H 0.67952 0.73024 0.09735 0.0
H3312 H 0.71482 0.76605 0.04731 0.0
H3313 H 0.71749 0.79221 0.05936 0.0
H3314 H 0.67294 0.76383 0.08639 0.0
C3315 C 0.66723 0.70565 0.05997 0.0
C3316 C 0.67517 0.69961 0.04934 0.0
C3317 C 0.68966 0.71113 0.04147 0.0
C3318 C 0.69625 0.7283 0.04426 0.0
C3319 C 0.68821 0.7338 0.05493 0.0
C3320 C 0.67399 0.72285 0.06261 0.0
C3321 C 0.66786 0.73207 0.07361 0.0
C3322 C 0.65111 0.72858 0.06675 0.0
C3323 C 0.66738 0.72775 0.09256 0.0
C3324 C 0.68095 0.74989 0.07103 0.0
C3325 C 0.69255 0.7506 0.06019 0.0
C3326 C 0.70584 0.76567 0.05586 0.0
C3327 C 0.70729 0.78043 0.0628 0.0
C3328 C 0.69559 0.78 0.07403 0.0
C3329 C 0.6822 0.7645 0.07806 0.0
H3330 H 0.27977 0.94139 0.01684 0.0
H3331 H 0.31269 0.98957 0.04217 0.0
H3332 H 0.29208 0.98467 0.06337 0.0
H3333 H 0.24411 0.943 0.02077 0.0
H3334 H 0.23119 0.92132 0.02492 0.0
H3335 H 0.24903 0.92781 0.01261 0.0
H3336 H 0.25952 0.91407 0.03378 0.0
H3337 H 0.24164 0.90742 0.04611 0.0
H3338 H 0.26158 0.91969 0.05642 0.0
H3339 H 0.26707 0.9759 0.08002 0.0
H3340 H 0.23966 0.96307 0.09185 0.0
H3341 H 0.22332 0.92024 0.05647 0.0
C3342 C 0.28275 0.9508 0.02701 0.0
C3343 C 0.29785 0.96587 0.02781 0.0
C3344 C 0.30123 0.9779 0.04128 0.0
C3345 C 0.2896 0.97525 0.05341 0.0
C3346 C 0.27472 0.96042 0.05203 0.0
C3347 C 0.27132 0.94831 0.0393 0.0
C3348 C 0.25413 0.93377 0.0403 0.0
C3349 C 0.24403 0.93134 0.02366 0.0
C3350 C 0.25423 0.91779 0.0444 0.0
C3351 C 0.24828 0.93984 0.05525 0.0
C3352 C 0.26036 0.95521 0.06189 0.0
C3353 C 0.25757 0.96375 0.07512 0.0
C3354 C 0.24198 0.9564 0.08173 0.0
C3355 C 0.22942 0.94065 0.07513 0.0
C3356 C 0.23273 0.93225 0.06183 0.0
H3357 H 0.31618 0.02365 0.98421 0.0
H3358 H 0.36622 0.06421 0.98933 0.0
H3359 H 0.35691 0.08444 0.98618 0.0
H3360 H 0.30504 0.03991 0.95106 0.0
H3361 H 0.28459 0.03279 0.95758 0.0
H3362 H 0.2947 0.02167 0.9635 0.0
H3363 H 0.28992 0.02504 0.99562 0.0
H3364 H 0.27965 0.03609 0.98978 0.0
H3365 H 0.29672 0.04552 0.00508 0.0
H3366 H 0.34256 0.09998 0.97988 0.0
H3367 H 0.32442 0.10971 0.96898 0.0
H3368 H 0.28389 0.05891 0.96611 0.0
C3369 C 0.32511 0.03682 0.98524 0.0
C3370 C 0.34188 0.04244 0.98728 0.0
C3371 C 0.3533 0.05971 0.98792 0.0
C3372 C 0.34812 0.07127 0.98622 0.0
C3373 C 0.33151 0.06531 0.98376 0.0
C3374 C 0.32016 0.04849 0.98322 0.0
C3375 C 0.30329 0.04524 0.97831 0.0
C3376 C 0.29652 0.03426 0.96162 0.0
C3377 C 0.29171 0.03752 0.99308 0.0
C3378 C 0.30702 0.06282 0.97566 0.0
C3379 C 0.32329 0.07423 0.97924 0.0
C3380 C 0.32978 0.09117 0.9771 0.0
C3381 C 0.31942 0.09657 0.97083 0.0
C3382 C 0.30285 0.08499 0.96637 0.0
C3383 C 0.29653 0.06798 0.96926 0.0
H3384 H 0.96178 0.29297 0.96715 0.0
H3385 H 0.00499 0.29443 0.98855 0.0
H3386 H 0.99217 0.26416 0.98237 0.0
H3387 H 0.9321 0.25197 0.98255 0.0
H3388 H 0.91923 0.24648 0.96334 0.0
H3389 H 0.93131 0.26795 0.97085 0.0
H3390 H 0.9443 0.27545 0.94117 0.0
H3391 H 0.93244 0.25399 0.93364 0.0
H3392 H 0.95431 0.26485 0.93275 0.0
H3393 H 0.97552 0.23415 0.97157 0.0
H3394 H 0.95564 0.20639 0.95852 0.0
H3395 H 0.92324 0.22461 0.94477 0.0
C3396 C 0.96849 0.28693 0.97083 0.0
C3397 C 0.98444 0.29616 0.97832 0.0
C3398 C 0.99276 0.28769 0.98284 0.0
C3399 C 0.98558 0.27048 0.97935 0.0
C3400 C 0.97003 0.26189 0.97149 0.0
C3401 C 0.9615 0.2698 0.9675 0.0
C3402 C 0.9452 0.25786 0.95859 0.0
C3403 C 0.93113 0.25595 0.96949 0.0
C3404 C 0.94401 0.26337 0.94047 0.0
C3405 C 0.94603 0.24207 0.95783 0.0
C3406 C 0.96043 0.24463 0.96537 0.0
C3407 C 0.96418 0.23199 0.96571 0.0
C3408 C 0.95289 0.21632 0.95818 0.0
C3409 C 0.93808 0.21343 0.95031 0.0
C3410 C 0.93457 0.22648 0.9504 0.0
H3411 H 0.73119 0.66074 0.99996 0.0
H3412 H 0.70177 0.68198 0.98431 0.0
H3413 H 0.72258 0.69932 0.96409 0.0
H3414 H 0.76882 0.69746 1.00004 0.0
H3415 H 0.7799 0.68796 0.99176 0.0
H3416 H 0.762 0.67596 0.00376 0.0
H3417 H 0.74913 0.65398 0.97839 0.0
H3418 H 0.76706 0.66589 0.96632 0.0
H3419 H 0.74732 0.66047 0.95731 0.0
H3420 H 0.74767 0.71631 0.94775 0.0
H3421 H 0.775 0.73106 0.93571 0.0
H3422 H 0.78778 0.69836 0.96142 0.0
C3423 C 0.72898 0.66882 0.99208 0.0
C3424 C 0.71484 0.66998 0.99373 0.0
C3425 C 0.71249 0.68084 0.98327 0.0
C3426 C 0.72423 0.69073 0.97171 0.0
C3427 C 0.73818 0.68953 0.97066 0.0
C3428 C 0.74055 0.67875 0.98044 0.0
C3429 C 0.75697 0.68044 0.97749 0.0
C3430 C 0.76754 0.68578 0.99426 0.0
C3431 C 0.755 0.66423 0.96939 0.0
C3432 C 0.76364 0.69418 0.96488 0.0
C3433 C 0.75258 0.69917 0.96102 0.0
C3434 C 0.75635 0.71233 0.95044 0.0
C3435 C 0.77188 0.72064 0.94368 0.0
C3436 C 0.78341 0.71572 0.94749 0.0
C3437 C 0.77912 0.70222 0.95812 0.0
H3438 H 0.96648 0.70393 0.0135 0.0
H3439 H 0.97082 0.66859 0.97961 0.0
H3440 H 0.96377 0.67967 0.95464 0.0
H3441 H 0.932 0.70163 0.99054 0.0
H3442 H 0.93896 0.72344 0.9942 0.0
H3443 H 0.94442 0.71279 0.00948 0.0
H3444 H 0.97495 0.73445 0.00649 0.0
H3445 H 0.96958 0.74515 0.99117 0.0
H3446 H 0.98341 0.73806 0.98551 0.0
H3447 H 0.95714 0.69506 0.93327 0.0
H3448 H 0.94975 0.71278 0.91698 0.0
H3449 H 0.94888 0.7376 0.96465 0.0
C3450 C 0.96591 0.69849 0.00083 0.0
C3451 C 0.96922 0.68538 0.99852 0.0
C3452 C 0.9683 0.6786 0.98173 0.0
C3453 C 0.96435 0.68483 0.96744 0.0
C3454 C 0.96125 0.6978 0.97016 0.0
C3455 C 0.96187 0.70449 0.98642 0.0
C3456 C 0.95782 0.71825 0.98577 0.0
C3457 C 0.94238 0.71375 0.99557 0.0
C3458 C 0.9723 0.73497 0.99264 0.0
C3459 C 0.95487 0.71825 0.96659 0.0
C3460 C 0.95699 0.70641 0.95783 0.0
C3461 C 0.95524 0.70425 0.94 0.0
C3462 C 0.95101 0.71432 0.93087 0.0
C3463 C 0.94833 0.72626 0.9396 0.0
C3464 C 0.95053 0.72836 0.95768 0.0
H3465 H 0.32466 0.29453 0.99061 0.0
H3466 H 0.34725 0.31247 0.9421 0.0
H3467 H 0.33112 0.28402 0.92888 0.0
H3468 H 0.32277 0.25351 0.98587 0.0
H3469 H 0.30363 0.24295 0.99628 0.0
H3470 H 0.31808 0.26443 0.00218 0.0
H3471 H 0.2959 0.27205 0.99564 0.0
H3472 H 0.28148 0.25068 0.98944 0.0
H3473 H 0.28577 0.26677 0.97466 0.0
H3474 H 0.3095 0.25461 0.91999 0.0
H3475 H 0.28684 0.22567 0.91698 0.0
H3476 H 0.28052 0.22614 0.97205 0.0
C3477 C 0.32648 0.29238 0.97732 0.0
C3478 C 0.33719 0.30567 0.96737 0.0
C3479 C 0.33923 0.30242 0.95 0.0
C3480 C 0.33006 0.28632 0.94235 0.0
C3481 C 0.31922 0.27357 0.95238 0.0
C3482 C 0.31773 0.27632 0.96961 0.0
C3483 C 0.30502 0.26052 0.97744 0.0
C3484 C 0.31285 0.25503 0.99126 0.0
C3485 C 0.29123 0.26264 0.98472 0.0
C3486 C 0.29913 0.24865 0.96177 0.0
C3487 C 0.30739 0.25641 0.94743 0.0
C3488 C 0.30315 0.2483 0.93122 0.0
C3489 C 0.29015 0.23181 0.92965 0.0
C3490 C 0.28157 0.22349 0.94425 0.0
C3491 C 0.28651 0.23207 0.96054 0.0
H3492 H 0.73789 0.06371 0.02088 0.0
H3493 H 0.69986 0.02904 0.98436 0.0
H3494 H 0.72019 0.03619 0.96221 0.0
H3495 H 0.76253 0.09512 0.98909 0.0
H3496 H 0.78142 0.09967 0.99973 0.0
H3497 H 0.76355 0.09342 0.012 0.0
H3498 H 0.76652 0.06941 0.02401 0.0
H3499 H 0.78426 0.07548 0.0117 0.0
H3500 H 0.76724 0.05452 0.00926 0.0
H3501 H 0.74509 0.04379 0.94558 0.0
H3502 H 0.77243 0.0529 0.93502 0.0
H3503 H 0.79416 0.08384 0.98168 0.0
C3504 C 0.73376 0.05792 0.00811 0.0
C3505 C 0.71728 0.04581 0.00437 0.0
C3506 C 0.71241 0.0384 0.98753 0.0
C3507 C 0.72387 0.04239 0.97484 0.0
C3508 C 0.74011 0.05399 0.9791 0.0
C3509 C 0.74502 0.06186 0.99525 0.0
C3510 C 0.76333 0.07311 0.99685 0.0
C3511 C 0.76798 0.09142 0.99958 0.0
C3512 C 0.77076 0.0678 0.01131 0.0
C3513 C 0.76799 0.06983 0.97934 0.0
C3514 C 0.75443 0.05884 0.96924 0.0
C3515 C 0.75578 0.05276 0.95316 0.0
C3516 C 0.7714 0.05802 0.94727 0.0
C3517 C 0.78547 0.0694 0.95739 0.0
C3518 C 0.78362 0.07545 0.97352 0.0
H3519 H 0.66791 0.94932 0.04722 0.0
H3520 H 0.70892 0.99619 0.03275 0.0
H3521 H 0.72702 0.98466 0.03634 0.0
H3522 H 0.68831 0.94107 0.07957 0.0
H3523 H 0.67821 0.91894 0.07487 0.0
H3524 H 0.66807 0.93023 0.06971 0.0
H3525 H 0.66394 0.91933 0.03793 0.0
H3526 H 0.67389 0.90781 0.04304 0.0
H3527 H 0.68128 0.92238 0.02619 0.0
H3528 H 0.7412 0.96931 0.04499 0.0
H3529 H 0.74993 0.94998 0.05486 0.0
H3530 H 0.69957 0.91266 0.06214 0.0
C3531 C 0.68063 0.95708 0.04449 0.0
C3532 C 0.68697 0.97368 0.03974 0.0
C3533 C 0.70373 0.98341 0.03634 0.0
C3534 C 0.71414 0.977 0.0384 0.0
C3535 C 0.70759 0.96077 0.0436 0.0
C3536 C 0.69118 0.95083 0.04631 0.0
C3537 C 0.6873 0.93394 0.05227 0.0
C3538 C 0.68005 0.93088 0.07016 0.0
C3539 C 0.67593 0.92004 0.03906 0.0
C3540 C 0.70415 0.9361 0.0529 0.0
C3541 C 0.71569 0.95167 0.0479 0.0
C3542 C 0.73224 0.95693 0.0485 0.0
C3543 C 0.73708 0.94586 0.0541 0.0
C3544 C 0.72538 0.92963 0.05873 0.0
C3545 C 0.70874 0.92483 0.05827 0.0
H3546 H 0.01714 0.71262 0.04382 0.0
H3547 H 0.05556 0.70051 0.04616 0.0
H3548 H 0.07594 0.73032 0.05156 0.0
H3549 H 0.03972 0.75202 0.02341 0.0
H3550 H 0.03089 0.76182 0.03595 0.0
H3551 H 0.01951 0.73969 0.03119 0.0
H3552 H 0.01583 0.73468 0.06373 0.0
H3553 H 0.0273 0.75678 0.06859 0.0
H3554 H 0.03353 0.74341 0.07817 0.0
H3555 H 0.09207 0.76138 0.05699 0.0
H3556 H 0.10278 0.79148 0.06238 0.0
H3557 H 0.0536 0.78297 0.05848 0.0
C3558 C 0.02987 0.71626 0.0452 0.0
C3559 C 0.0348 0.70427 0.04441 0.0
C3560 C 0.05153 0.7095 0.04666 0.0
C3561 C 0.06319 0.72639 0.04973 0.0
C3562 C 0.05788 0.73785 0.0507 0.0
C3563 C 0.04162 0.73301 0.04856 0.0
C3564 C 0.03905 0.7477 0.05097 0.0
C3565 C 0.03187 0.75047 0.03439 0.0
C3566 C 0.02829 0.7455 0.06628 0.0
C3567 C 0.05641 0.76158 0.05476 0.0
C3568 C 0.0671 0.75565 0.05443 0.0
C3569 C 0.08381 0.76616 0.05728 0.0
C3570 C 0.08977 0.78322 0.06036 0.0
C3571 C 0.07906 0.78959 0.06067 0.0
C3572 C 0.06212 0.77851 0.05812 0.0
H3573 H 0.28124 0.34318 0.0181 0.0
H3574 H 0.30548 0.31749 0.03683 0.0
H3575 H 0.28153 0.29965 0.05358 0.0
H3576 H 0.25981 0.34137 0.05773 0.0
H3577 H 0.24188 0.33801 0.04585 0.0
H3578 H 0.26164 0.34996 0.03694 0.0
H3579 H 0.25147 0.33026 0.0096 0.0
H3580 H 0.23174 0.31827 0.01842 0.0
H3581 H 0.24279 0.30819 0.01173 0.0
H3582 H 0.25386 0.28274 0.0658 0.0
H3583 H 0.22476 0.26832 0.07271 0.0
H3584 H 0.21885 0.30524 0.04617 0.0
C3585 C 0.28167 0.33402 0.02597 0.0
C3586 C 0.29526 0.33176 0.02618 0.0
C3587 C 0.29522 0.31949 0.03651 0.0
C3588 C 0.28169 0.30932 0.0461 0.0
C3589 C 0.26835 0.31167 0.04533 0.0
C3590 C 0.26829 0.32379 0.0356 0.0
C3591 C 0.25206 0.32307 0.03603 0.0
C3592 C 0.25397 0.33905 0.04465 0.0
C3593 C 0.24405 0.31974 0.01787 0.0
C3594 C 0.24284 0.30833 0.04708 0.0
C3595 C 0.25248 0.30203 0.05249 0.0
C3596 C 0.24629 0.28777 0.06194 0.0
C3597 C 0.22979 0.27969 0.06584 0.0
C3598 C 0.2197 0.28594 0.06034 0.0
C3599 C 0.2264 0.30048 0.05092 0.0
H3600 H 0.72055 0.68022 0.3815 0.0
H3601 H 0.67674 0.63716 0.35967 0.0
H3602 H 0.68225 0.61884 0.37719 0.0
H3603 H 0.74608 0.66309 0.38333 0.0
H3604 H 0.75651 0.67443 0.40309 0.0
H3605 H 0.74792 0.68295 0.38861 0.0
H3606 H 0.73114 0.68546 0.4128 0.0
H3607 H 0.73967 0.67714 0.4276 0.0
H3608 H 0.71789 0.6674 0.42444 0.0
H3609 H 0.6897 0.59986 0.3981 0.0
H3610 H 0.70704 0.58983 0.42131 0.0
H3611 H 0.7506 0.65215 0.43088 0.0
C3612 C 0.71213 0.66692 0.38055 0.0
C3613 C 0.69826 0.66008 0.36921 0.0
C3614 C 0.68742 0.64268 0.36829 0.0
C3615 C 0.69048 0.63217 0.37814 0.0
C3616 C 0.70436 0.63916 0.38898 0.0
C3617 C 0.7152 0.65646 0.39056 0.0
C3618 C 0.72996 0.66249 0.40333 0.0
C3619 C 0.74606 0.67126 0.39403 0.0
C3620 C 0.72964 0.67379 0.4179 0.0
C3621 C 0.72736 0.64654 0.41018 0.0
C3622 C 0.70976 0.63052 0.39983 0.0
C3623 C 0.70107 0.60909 0.40444 0.0
C3624 C 0.71122 0.60283 0.41959 0.0
C3625 C 0.73224 0.61974 0.42646 0.0
C3626 C 0.7389 0.6424 0.42564 0.0
H3627 H 0.34662 0.03539 0.38296 0.0
H3628 H 0.29893 0.01763 0.40348 0.0
H3629 H 0.30768 0.04567 0.41555 0.0
H3630 H 0.36994 0.061 0.41742 0.0
H3631 H 0.38538 0.07668 0.40476 0.0
H3632 H 0.37382 0.05545 0.39642 0.0
H3633 H 0.36475 0.06455 0.36949 0.0
H3634 H 0.37653 0.08594 0.3774 0.0
H3635 H 0.35514 0.07688 0.3719 0.0
H3636 H 0.32029 0.07554 0.43313 0.0
H3637 H 0.34214 0.1096 0.44564 0.0
H3638 H 0.38654 0.10867 0.40924 0.0
C3639 C 0.33804 0.03763 0.38972 0.0
C3640 C 0.32214 0.02438 0.39233 0.0
C3641 C 0.31119 0.02756 0.40139 0.0
C3642 C 0.31603 0.04345 0.40828 0.0
C3643 C 0.33184 0.05616 0.40604 0.0
C3644 C 0.34302 0.05364 0.39677 0.0
C3645 C 0.36041 0.06887 0.39612 0.0
C3646 C 0.37312 0.06528 0.40415 0.0
C3647 C 0.36444 0.07439 0.37763 0.0
C3648 C 0.3593 0.08185 0.40687 0.0
C3649 C 0.33935 0.0728 0.4134 0.0
C3650 C 0.33258 0.08235 0.42876 0.0
C3651 C 0.34627 0.10306 0.43736 0.0
C3652 C 0.36593 0.11397 0.42614 0.0
C3653 C 0.37447 0.10249 0.41424 0.0
H3654 H 0.94925 0.27079 0.35504 0.0
H3655 H 0.9737 0.32451 0.36314 0.0
H3656 H 0.95227 0.32145 0.38248 0.0
H3657 H 0.90912 0.26366 0.35349 0.0
H3658 H 0.90053 0.24454 0.36458 0.0
H3659 H 0.91834 0.25088 0.35225 0.0
H3660 H 0.93386 0.24914 0.37908 0.0
H3661 H 0.91608 0.24279 0.39151 0.0
H3662 H 0.93522 0.2607 0.39865 0.0
H3663 H 0.92739 0.31266 0.3996 0.0
H3664 H 0.90085 0.29864 0.41341 0.0
H3665 H 0.89277 0.25076 0.39421 0.0
C3666 C 0.9502 0.28191 0.361 0.0
C3667 C 0.96317 0.29789 0.35758 0.0
C3668 C 0.96389 0.31213 0.36557 0.0
C3669 C 0.95179 0.31053 0.37661 0.0
C3670 C 0.93909 0.29461 0.37957 0.0
C3671 C 0.93824 0.28055 0.37205 0.0
C3672 C 0.923 0.26491 0.37686 0.0
C3673 C 0.91211 0.25545 0.36084 0.0
C3674 C 0.92731 0.25373 0.38714 0.0
C3675 C 0.9153 0.2724 0.38805 0.0
C3676 C 0.92482 0.28954 0.38954 0.0
C3677 C 0.91993 0.29923 0.39872 0.0
C3678 C 0.90488 0.29118 0.40653 0.0
C3679 C 0.89496 0.27363 0.40518 0.0
C3680 C 0.90029 0.26417 0.39577 0.0
H3681 H 0.04154 0.38458 0.29399 0.0
H3682 H 0.99583 0.36054 0.32002 0.0
H3683 H 0.99372 0.38571 0.31751 0.0
H3684 H 0.05681 0.42479 0.31369 0.0
H3685 H 0.06617 0.4357 0.29472 0.0
H3686 H 0.06372 0.41551 0.29783 0.0
H3687 H 0.04799 0.40473 0.26837 0.0
H3688 H 0.05039 0.4249 0.26516 0.0
H3689 H 0.03035 0.40666 0.26409 0.0
H3690 H 0.99723 0.41395 0.31345 0.0
H3691 H 0.00609 0.44324 0.30783 0.0
H3692 H 0.04916 0.44858 0.2841 0.0
C3693 C 0.03101 0.38452 0.29907 0.0
C3694 C 0.01884 0.37053 0.30719 0.0
C3695 C 0.00531 0.37106 0.31371 0.0
C3696 C 0.00398 0.3853 0.31234 0.0
C3697 C 0.01624 0.39887 0.30435 0.0
C3698 C 0.02946 0.39859 0.29778 0.0
C3699 C 0.04117 0.41499 0.2902 0.0
C3700 C 0.05796 0.42323 0.29968 0.0
C3701 C 0.04255 0.41267 0.2708 0.0
C3702 C 0.03256 0.42461 0.29372 0.0
C3703 C 0.01817 0.41508 0.30185 0.0
C3704 C 0.00839 0.42148 0.30694 0.0
C3705 C 0.0135 0.43808 0.3037 0.0
C3706 C 0.02819 0.44805 0.29538 0.0
C3707 C 0.03777 0.44115 0.29028 0.0
H3708 H 0.64552 0.62543 0.30772 0.0
H3709 H 0.62193 0.64841 0.28129 0.0
H3710 H 0.60213 0.62143 0.26736 0.0
H3711 H 0.64354 0.59889 0.27437 0.0
H3712 H 0.6403 0.58225 0.28795 0.0
H3713 H 0.65107 0.60346 0.29644 0.0
H3714 H 0.63083 0.59597 0.32069 0.0
H3715 H 0.62 0.5746 0.31258 0.0
H3716 H 0.60932 0.58584 0.3154 0.0
H3717 H 0.58406 0.59202 0.2488 0.0
H3718 H 0.56973 0.55755 0.23656 0.0
H3719 H 0.60837 0.55242 0.28037 0.0
C3720 C 0.63601 0.62461 0.29916 0.0
C3721 C 0.6353 0.63903 0.29557 0.0
C3722 C 0.62281 0.63761 0.28422 0.0
C3723 C 0.61146 0.62231 0.27625 0.0
C3724 C 0.61257 0.60839 0.2797 0.0
C3725 C 0.62464 0.60918 0.2911 0.0
C3726 C 0.62467 0.59273 0.29309 0.0
C3727 C 0.64085 0.59445 0.28764 0.0
C3728 C 0.62099 0.58695 0.31153 0.0
C3729 C 0.61105 0.58088 0.28088 0.0
C3730 C 0.60272 0.59197 0.27193 0.0
C3731 C 0.58787 0.58405 0.25452 0.0
C3732 C 0.57964 0.56305 0.24615 0.0
C3733 C 0.58537 0.55027 0.2595 0.0
C3734 C 0.60414 0.55976 0.27399 0.0
H3735 H 0.36432 0.00665 0.32831 0.0
H3736 H 0.32984 0.95972 0.30176 0.0
H3737 H 0.35138 0.9622 0.28299 0.0
H3738 H 0.38844 0.02696 0.28962 0.0
H3739 H 0.40728 0.03722 0.30233 0.0
H3740 H 0.38857 0.03309 0.31182 0.0
H3741 H 0.39365 0.01741 0.33581 0.0
H3742 H 0.4122 0.02125 0.32629 0.0
H3743 H 0.39655 0.00023 0.33001 0.0
H3744 H 0.37741 0.96709 0.27087 0.0
H3745 H 0.40559 0.97556 0.26406 0.0
H3746 H 0.42316 0.02019 0.2971 0.0
C3747 C 0.36116 0.99716 0.3182 0.0
C3748 C 0.34538 0.98297 0.31654 0.0
C3749 C 0.34182 0.97072 0.30328 0.0
C3750 C 0.35398 0.97201 0.29254 0.0
C3751 C 0.36959 0.98576 0.29501 0.0
C3752 C 0.37315 0.99831 0.30727 0.0
C3753 C 0.39115 0.01116 0.30811 0.0
C3754 C 0.39402 0.02811 0.30264 0.0
C3755 C 0.39883 0.01258 0.32612 0.0
C3756 C 0.39723 0.0035 0.29495 0.0
C3757 C 0.3846 0.98889 0.28748 0.0
C3758 C 0.38738 0.97876 0.27623 0.0
C3759 C 0.40349 0.98369 0.27247 0.0
C3760 C 0.41666 0.99876 0.27981 0.0
C3761 C 0.41335 0.00879 0.29105 0.0
H3762 H 0.60389 0.94864 0.30824 0.0
H3763 H 0.64583 0.9985 0.3091 0.0
H3764 H 0.63322 0.00549 0.28533 0.0
H3765 H 0.5957 0.94223 0.26256 0.0
H3766 H 0.57402 0.93003 0.26501 0.0
H3767 H 0.58783 0.93032 0.28136 0.0
H3768 H 0.57443 0.93955 0.30413 0.0
H3769 H 0.5607 0.93976 0.28805 0.0
H3770 H 0.57353 0.9582 0.30144 0.0
H3771 H 0.61699 0.01175 0.259 0.0
H3772 H 0.59102 0.00868 0.23615 0.0
H3773 H 0.55604 0.94822 0.2549 0.0
C3774 C 0.6104 0.96095 0.30325 0.0
C3775 C 0.62578 0.97304 0.3105 0.0
C3776 C 0.63403 0.98903 0.30373 0.0
C3777 C 0.62697 0.99312 0.29023 0.0
C3778 C 0.61168 0.98112 0.28351 0.0
C3779 C 0.60326 0.96497 0.28973 0.0
C3780 C 0.58628 0.95297 0.28128 0.0
C3781 C 0.58594 0.93801 0.272 0.0
C3782 C 0.57296 0.94729 0.29451 0.0
C3783 C 0.5844 0.96364 0.26858 0.0
C3784 C 0.60206 0.98311 0.27038 0.0
C3785 C 0.60553 0.00014 0.25763 0.0
C3786 C 0.58981 0.99813 0.24282 0.0
C3787 C 0.56962 0.9788 0.24517 0.0
C3788 C 0.56763 0.95963 0.25447 0.0
H3789 H 0.00383 0.62934 0.32749 0.0
H3790 H 0.02809 0.64831 0.27996 0.0
H3791 H 0.01609 0.61962 0.26764 0.0
H3792 H 0.01026 0.59357 0.32684 0.0
H3793 H 0.99105 0.58011 0.33619 0.0
H3794 H 0.00153 0.60219 0.34122 0.0
H3795 H 0.9758 0.60292 0.33114 0.0
H3796 H 0.96533 0.58089 0.32585 0.0
H3797 H 0.96717 0.59514 0.30974 0.0
H3798 H 0.99954 0.58923 0.25961 0.0
H3799 H 0.98302 0.55879 0.25767 0.0
H3800 H 0.97235 0.55916 0.31168 0.0
C3801 C 0.00671 0.62737 0.31456 0.0
C3802 C 0.01684 0.64096 0.30463 0.0
C3803 C 0.02045 0.63801 0.2878 0.0
C3804 C 0.01361 0.62179 0.28066 0.0
C3805 C 0.00349 0.60865 0.29066 0.0
C3806 C 0.00038 0.6112 0.30739 0.0
C3807 C 0.98963 0.59479 0.31553 0.0
C3808 C 0.99866 0.59253 0.33085 0.0
C3809 C 0.97353 0.59336 0.32088 0.0
C3810 C 0.9869 0.5827 0.30062 0.0
C3811 C 0.99481 0.59098 0.28634 0.0
C3812 C 0.99348 0.58256 0.27079 0.0
C3813 C 0.98399 0.56516 0.26985 0.0
C3814 C 0.97607 0.55621 0.28445 0.0
C3815 C 0.97782 0.56531 0.30008 0.0
H3816 H 0.36771 0.37369 0.31759 0.0
H3817 H 0.39703 0.39899 0.36402 0.0
H3818 H 0.42193 0.40612 0.34862 0.0
H3819 H 0.3902 0.35541 0.30448 0.0
H3820 H 0.38835 0.35773 0.28181 0.0
H3821 H 0.37285 0.35607 0.2958 0.0
H3822 H 0.37663 0.38396 0.2856 0.0
H3823 H 0.39201 0.38561 0.27138 0.0
H3824 H 0.39662 0.40229 0.28693 0.0
H3825 H 0.44337 0.40831 0.32907 0.0
H3826 H 0.46009 0.40671 0.3061 0.0
H3827 H 0.41695 0.38027 0.2723 0.0
C3828 C 0.37938 0.38107 0.32442 0.0
C3829 C 0.38043 0.38584 0.342 0.0
C3830 C 0.39593 0.39523 0.35054 0.0
C3831 C 0.41015 0.39934 0.34191 0.0
C3832 C 0.40867 0.39403 0.32472 0.0
C3833 C 0.39371 0.38525 0.316 0.0
C3834 C 0.39543 0.3803 0.29781 0.0
C3835 C 0.38616 0.36125 0.29481 0.0
C3836 C 0.38984 0.38854 0.28465 0.0
C3837 C 0.41366 0.38743 0.29778 0.0
C3838 C 0.42107 0.39533 0.31341 0.0
C3839 C 0.43774 0.40232 0.31671 0.0
C3840 C 0.44712 0.4013 0.30362 0.0
C3841 C 0.43981 0.39335 0.28745 0.0
C3842 C 0.42285 0.38639 0.28454 0.0
H3843 H 0.32286 0.29127 0.37712 0.0
H3844 H 0.36497 0.33821 0.36459 0.0
H3845 H 0.38252 0.32615 0.36855 0.0
H3846 H 0.3426 0.28093 0.40969 0.0
H3847 H 0.332 0.259 0.40379 0.0
H3848 H 0.32246 0.27109 0.39963 0.0
H3849 H 0.31837 0.26164 0.36738 0.0
H3850 H 0.32778 0.24941 0.37147 0.0
H3851 H 0.33567 0.26484 0.35546 0.0
H3852 H 0.39588 0.30978 0.37572 0.0
H3853 H 0.40372 0.28906 0.38289 0.0
H3854 H 0.35298 0.25234 0.38926 0.0
C3855 C 0.33575 0.29898 0.3751 0.0
C3856 C 0.3425 0.31571 0.37059 0.0
C3857 C 0.35945 0.32535 0.36801 0.0
C3858 C 0.36957 0.31864 0.37029 0.0
C3859 C 0.36258 0.30223 0.37498 0.0
C3860 C 0.34605 0.29243 0.37714 0.0
C3861 C 0.34166 0.2751 0.38205 0.0
C3862 C 0.33424 0.27131 0.39985 0.0
C3863 C 0.33019 0.26197 0.36827 0.0
C3864 C 0.35833 0.27676 0.38245 0.0
C3865 C 0.37024 0.29255 0.37845 0.0
C3866 C 0.38664 0.29728 0.37859 0.0
C3867 C 0.39098 0.28544 0.38263 0.0
C3868 C 0.37892 0.269 0.38619 0.0
C3869 C 0.36242 0.26473 0.38629 0.0
H3870 H 0.70415 0.03221 0.39965 0.0
H3871 H 0.68507 0.03311 0.34889 0.0
H3872 H 0.69621 0.06345 0.35324 0.0
H3873 H 0.69399 0.05981 0.4199 0.0
H3874 H 0.71177 0.06956 0.43424 0.0
H3875 H 0.70366 0.04836 0.42641 0.0
H3876 H 0.7317 0.05594 0.41453 0.0
H3877 H 0.73993 0.07717 0.42239 0.0
H3878 H 0.74125 0.07264 0.40003 0.0
H3879 H 0.70862 0.09373 0.36394 0.0
H3880 H 0.72071 0.12094 0.38022 0.0
H3881 H 0.73003 0.0991 0.4242 0.0
C3882 C 0.70256 0.0388 0.38928 0.0
C3883 C 0.69389 0.03032 0.37385 0.0
C3884 C 0.69175 0.03938 0.36079 0.0
C3885 C 0.69805 0.0566 0.36314 0.0
C3886 C 0.70632 0.06452 0.37866 0.0
C3887 C 0.70853 0.05586 0.3915 0.0
C3888 C 0.7169 0.06692 0.4074 0.0
C3889 C 0.70592 0.0608 0.42289 0.0
C3890 C 0.73343 0.06825 0.41131 0.0
C3891 C 0.71904 0.08318 0.40156 0.0
C3892 C 0.71302 0.08165 0.38491 0.0
C3893 C 0.71349 0.09508 0.37694 0.0
C3894 C 0.72038 0.11046 0.38624 0.0
C3895 C 0.72665 0.11224 0.4033 0.0
C3896 C 0.72572 0.09829 0.41104 0.0
H3897 H 0.97052 0.66583 0.363 0.0
H3898 H 0.94943 0.63923 0.31392 0.0
H3899 H 0.92277 0.6232 0.32683 0.0
H3900 H 0.94779 0.63097 0.38927 0.0
H3901 H 0.94527 0.64304 0.40616 0.0
H3902 H 0.96279 0.65268 0.39308 0.0
H3903 H 0.95559 0.67505 0.38508 0.0
H3904 H 0.93804 0.66548 0.39814 0.0
H3905 H 0.93567 0.66864 0.37581 0.0
H3906 H 0.89856 0.60958 0.34497 0.0
H3907 H 0.87815 0.59941 0.36734 0.0
H3908 H 0.9145 0.63506 0.40461 0.0
C3909 C 0.96029 0.65666 0.35496 0.0
C3910 C 0.96209 0.65381 0.33743 0.0
C3911 C 0.94839 0.64167 0.32737 0.0
C3912 C 0.93317 0.63248 0.33458 0.0
C3913 C 0.93179 0.63558 0.35187 0.0
C3914 C 0.94494 0.64737 0.36195 0.0
C3915 C 0.94011 0.64811 0.38024 0.0
C3916 C 0.94956 0.64342 0.39293 0.0
C3917 C 0.94249 0.66535 0.3851 0.0
C3918 C 0.92222 0.6349 0.37882 0.0
C3919 C 0.9177 0.62781 0.36234 0.0
C3920 C 0.90191 0.61509 0.35791 0.0
C3921 C 0.89041 0.60941 0.37068 0.0
C3922 C 0.89471 0.61651 0.38767 0.0
C3923 C 0.91085 0.62947 0.39171 0.0
H3924 H 0.40176 0.03253 0.71712 0.0
H3925 H 0.36201 0.98515 0.69665 0.0
H3926 H 0.37073 0.97043 0.71584 0.0
H3927 H 0.43201 0.02134 0.72144 0.0
H3928 H 0.44122 0.03422 0.74077 0.0
H3929 H 0.43078 0.03984 0.72523 0.0
H3930 H 0.41221 0.04043 0.74848 0.0
H3931 H 0.42253 0.03495 0.76431 0.0
H3932 H 0.40074 0.0224 0.76091 0.0
H3933 H 0.38101 0.9555 0.73879 0.0
H3934 H 0.40087 0.95014 0.76349 0.0
H3935 H 0.43821 0.0141 0.76993 0.0
C3936 C 0.39495 0.01907 0.7168 0.0
C3937 C 0.38125 0.00999 0.70538 0.0
C3938 C 0.37255 0.9924 0.70526 0.0
C3939 C 0.3774 0.98389 0.7161 0.0
C3940 C 0.39098 0.99305 0.72709 0.0
C3941 C 0.39988 0.01058 0.72775 0.0
C3942 C 0.41465 0.01902 0.74073 0.0
C3943 C 0.4306 0.02921 0.73149 0.0
C3944 C 0.41239 0.02984 0.75441 0.0
C3945 C 0.4143 0.00443 0.74871 0.0
C3946 C 0.39791 0.98661 0.73892 0.0
C3947 C 0.39176 0.96597 0.74488 0.0
C3948 C 0.40344 0.96255 0.76091 0.0
C3949 C 0.42337 0.98151 0.76728 0.0
C3950 C 0.42718 0.00317 0.76495 0.0
H3951 H 0.99532 0.36662 0.71342 0.0
H3952 H 0.9476 0.33135 0.73145 0.0
H3953 H 0.9431 0.35438 0.73935 0.0
H3954 H 0.00549 0.39859 0.74636 0.0
H3955 H 0.01551 0.41552 0.7322 0.0
H3956 H 0.01513 0.39625 0.72766 0.0
H3957 H 0.00208 0.39378 0.6974 0.0
H3958 H 0.00248 0.41308 0.70183 0.0
H3959 H 0.98357 0.39453 0.69541 0.0
H3960 H 0.94334 0.38086 0.74502 0.0
H3961 H 0.94864 0.40961 0.74843 0.0
H3962 H 0.99627 0.42805 0.72739 0.0
C3963 C 0.98392 0.36373 0.719 0.0
C3964 C 0.97184 0.34711 0.72179 0.0
C3965 C 0.95708 0.34392 0.72914 0.0
C3966 C 0.95437 0.35694 0.7337 0.0
C3967 C 0.96651 0.37311 0.73085 0.0
C3968 C 0.98099 0.37661 0.72366 0.0
C3969 C 0.99198 0.39518 0.72199 0.0
C3970 C 0.00797 0.40176 0.73269 0.0
C3971 C 0.99521 0.39938 0.70303 0.0
C3972 C 0.98143 0.40151 0.72948 0.0
C3973 C 0.96677 0.38854 0.73443 0.0
C3974 C 0.95484 0.39116 0.74136 0.0
C3975 C 0.95799 0.40752 0.74333 0.0
C3976 C 0.97305 0.42107 0.73862 0.0
C3977 C 0.98482 0.41795 0.73146 0.0
H3978 H 0.62257 0.60196 0.69375 0.0
H3979 H 0.6558 0.65072 0.71767 0.0
H3980 H 0.63506 0.64681 0.73843 0.0
H3981 H 0.58755 0.60444 0.69581 0.0
H3982 H 0.57416 0.58299 0.70055 0.0
H3983 H 0.5922 0.58871 0.68886 0.0
H3984 H 0.60181 0.57531 0.71143 0.0
H3985 H 0.5837 0.5694 0.72314 0.0
H3986 H 0.60347 0.58165 0.73383 0.0
H3987 H 0.6096 0.639 0.75427 0.0
H3988 H 0.58181 0.62714 0.76501 0.0
H3989 H 0.56561 0.58319 0.73139 0.0
C3990 C 0.62563 0.61168 0.70357 0.0
C3991 C 0.64082 0.62664 0.70408 0.0
C3992 C 0.64428 0.63911 0.71706 0.0
C3993 C 0.63257 0.63701 0.72892 0.0
C3994 C 0.61756 0.6223 0.72775 0.0
C3995 C 0.61414 0.60975 0.71555 0.0
C3996 C 0.5968 0.59552 0.71645 0.0
C3997 C 0.58711 0.59277 0.69941 0.0
C3998 C 0.59643 0.57952 0.72152 0.0
C3999 C 0.59083 0.60225 0.73068 0.0
C4000 C 0.60299 0.61767 0.73712 0.0
C4001 C 0.60005 0.6268 0.74957 0.0
C4002 C 0.58425 0.61999 0.75556 0.0
C4003 C 0.57162 0.6042 0.74914 0.0
C4004 C 0.57508 0.5952 0.73666 0.0
H4005 H 0.68197 0.70703 0.63347 0.0
H4006 H 0.64326 0.66596 0.65938 0.0
H4007 H 0.62543 0.67767 0.65445 0.0
H4008 H 0.67346 0.73869 0.65016 0.0
H4009 H 0.67843 0.74961 0.63049 0.0
H4010 H 0.68824 0.73817 0.63647 0.0
H4011 H 0.67864 0.72137 0.60724 0.0
H4012 H 0.66872 0.73268 0.60122 0.0
H4013 H 0.65727 0.71027 0.60104 0.0
H4014 H 0.6113 0.69298 0.6452 0.0
H4015 H 0.60245 0.71173 0.63365 0.0
H4016 H 0.65088 0.74341 0.61522 0.0
C4017 C 0.66977 0.70052 0.63818 0.0
C4018 C 0.66399 0.68554 0.64675 0.0
C4019 C 0.64798 0.67748 0.65282 0.0
C4020 C 0.63774 0.68401 0.65005 0.0
C4021 C 0.64377 0.69871 0.6414 0.0
C4022 C 0.65947 0.70697 0.63573 0.0
C4023 C 0.66297 0.72256 0.62679 0.0
C4024 C 0.67658 0.73818 0.63656 0.0
C4025 C 0.66714 0.72166 0.60796 0.0
C4026 C 0.6467 0.72161 0.62803 0.0
C4027 C 0.63576 0.70774 0.63646 0.0
C4028 C 0.61978 0.70394 0.63866 0.0
C4029 C 0.61485 0.71459 0.63203 0.0
C4030 C 0.62585 0.72887 0.62332 0.0
C4031 C 0.64206 0.7325 0.62158 0.0
H4032 H 0.29541 0.97116 0.62358 0.0
H4033 H 0.31967 0.96524 0.66814 0.0
H4034 H 0.30491 0.93494 0.66228 0.0
H4035 H 0.25569 0.93253 0.62579 0.0
H4036 H 0.25336 0.93015 0.60268 0.0
H4037 H 0.26458 0.95065 0.61306 0.0
H4038 H 0.28927 0.957 0.59496 0.0
H4039 H 0.27847 0.93646 0.58478 0.0
H4040 H 0.29787 0.94366 0.59583 0.0
H4041 H 0.2934 0.903 0.65046 0.0
H4042 H 0.27723 0.8722 0.62947 0.0
H4043 H 0.25783 0.90155 0.588 0.0
C4044 C 0.29724 0.96333 0.63224 0.0
C4045 C 0.30863 0.9705 0.64631 0.0
C4046 C 0.31102 0.96003 0.65728 0.0
C4047 C 0.30265 0.94279 0.65409 0.0
C4048 C 0.29188 0.93604 0.6399 0.0
C4049 C 0.28895 0.94601 0.62883 0.0
C4050 C 0.27762 0.9369 0.61284 0.0
C4051 C 0.26188 0.9376 0.61364 0.0
C4052 C 0.28633 0.94393 0.59613 0.0
C4053 C 0.27399 0.91939 0.61442 0.0
C4054 C 0.28369 0.919 0.63349 0.0
C4055 C 0.2861 0.9019 0.63915 0.0
C4056 C 0.27712 0.88319 0.62559 0.0
C4057 C 0.26298 0.88246 0.60813 0.0
C4058 C 0.26444 0.90172 0.59952 0.0
H4059 H 0.04518 0.32409 0.66145 0.0
H4060 H 0.03372 0.36313 0.67092 0.0
H4061 H 0.05783 0.3825 0.6551 0.0
H4062 H 0.08769 0.34956 0.66797 0.0
H4063 H 0.09254 0.33892 0.65151 0.0
H4064 H 0.07372 0.32789 0.66234 0.0
H4065 H 0.05762 0.31958 0.63301 0.0
H4066 H 0.07642 0.33062 0.62208 0.0
H4067 H 0.06059 0.33556 0.6186 0.0
H4068 H 0.08402 0.39792 0.63941 0.0
H4069 H 0.11047 0.40831 0.62575 0.0
H4070 H 0.10488 0.35923 0.6274 0.0
C4071 C 0.04759 0.33665 0.66003 0.0
C4072 C 0.03751 0.34208 0.66735 0.0
C4073 C 0.04125 0.35869 0.66539 0.0
C4074 C 0.05489 0.36976 0.65639 0.0
C4075 C 0.06466 0.36402 0.64948 0.0
C4076 C 0.06117 0.34785 0.65123 0.0
C4077 C 0.07403 0.34498 0.64343 0.0
C4078 C 0.0825 0.34006 0.65713 0.0
C4079 C 0.06673 0.33191 0.62839 0.0
C4080 C 0.08544 0.36212 0.63719 0.0
C4081 C 0.07975 0.3729 0.64063 0.0
C4082 C 0.08849 0.38954 0.63648 0.0
C4083 C 0.10345 0.39532 0.62869 0.0
C4084 C 0.10953 0.3845 0.62512 0.0
C4085 C 0.10036 0.3677 0.62954 0.0
H4086 H 0.31446 0.3493 0.63347 0.0
H4087 H 0.27883 0.32744 0.67273 0.0
H4088 H 0.26448 0.34123 0.66157 0.0
H4089 H 0.31719 0.38832 0.63429 0.0
H4090 H 0.31875 0.39071 0.61143 0.0
H4091 H 0.32575 0.37828 0.62168 0.0
H4092 H 0.30682 0.35303 0.60114 0.0
H4093 H 0.2999 0.36545 0.59067 0.0
H4094 H 0.28538 0.34602 0.59943 0.0
H4095 H 0.2552 0.35903 0.64767 0.0
H4096 H 0.25052 0.37821 0.63055 0.0
H4097 H 0.29142 0.38745 0.59958 0.0
C4098 C 0.30351 0.34722 0.63957 0.0
C4099 C 0.2978 0.3373 0.654 0.0
C4100 C 0.28343 0.33492 0.66163 0.0
C4101 C 0.2752 0.34274 0.65541 0.0
C4102 C 0.28135 0.35272 0.64143 0.0
C4103 C 0.29503 0.35479 0.63342 0.0
C4104 C 0.2992 0.36637 0.61873 0.0
C4105 C 0.31623 0.38184 0.62173 0.0
C4106 C 0.29773 0.35716 0.60147 0.0
C4107 C 0.28598 0.37081 0.62005 0.0
C4108 C 0.27583 0.36281 0.63322 0.0
C4109 C 0.26304 0.36533 0.63727 0.0
C4110 C 0.26054 0.37632 0.62757 0.0
C4111 C 0.27084 0.38478 0.61404 0.0
C4112 C 0.28353 0.38164 0.61007 0.0
H4113 H 0.66104 0.96964 0.64263 0.0
H4114 H 0.7015 0.98534 0.60885 0.0
H4115 H 0.69154 0.95603 0.60002 0.0
H4116 H 0.66045 0.93285 0.65648 0.0
H4117 H 0.63857 0.92072 0.65691 0.0
H4118 H 0.64889 0.94297 0.66062 0.0
H4119 H 0.63139 0.94487 0.63588 0.0
H4120 H 0.62107 0.92263 0.63204 0.0
H4121 H 0.63106 0.93615 0.61479 0.0
H4122 H 0.67745 0.92512 0.59502 0.0
H4123 H 0.66045 0.89459 0.59463 0.0
H4124 H 0.62865 0.89908 0.63091 0.0
C4125 C 0.66786 0.96695 0.63341 0.0
C4126 C 0.68209 0.97986 0.62646 0.0
C4127 C 0.69058 0.97572 0.61439 0.0
C4128 C 0.68501 0.9591 0.60926 0.0
C4129 C 0.67091 0.94673 0.61627 0.0
C4130 C 0.66244 0.95042 0.62809 0.0
C4131 C 0.64766 0.93473 0.63369 0.0
C4132 C 0.64898 0.93271 0.65307 0.0
C4133 C 0.63186 0.9346 0.6288 0.0
C4134 C 0.64916 0.92166 0.62317 0.0
C4135 C 0.66267 0.92886 0.61324 0.0
C4136 C 0.66683 0.91933 0.60274 0.0
C4137 C 0.65706 0.90197 0.60259 0.0
C4138 C 0.64328 0.8942 0.61287 0.0
C4139 C 0.63914 0.90434 0.62301 0.0
H4140 H 0.05079 0.73221 0.67349 0.0
H4141 H 0.02155 0.69009 0.63785 0.0
H4142 H 0.04629 0.69583 0.62281 0.0
H4143 H 0.08092 0.75908 0.64209 0.0
H4144 H 0.09746 0.7671 0.65798 0.0
H4145 H 0.07721 0.76107 0.66439 0.0
H4146 H 0.07856 0.74123 0.68607 0.0
H4147 H 0.09872 0.74709 0.67968 0.0
H4148 H 0.08295 0.72548 0.67852 0.0
H4149 H 0.07451 0.70373 0.61427 0.0
H4150 H 0.10394 0.71402 0.61214 0.0
H4151 H 0.11462 0.75127 0.6529 0.0
C4152 C 0.04951 0.72443 0.66227 0.0
C4153 C 0.03423 0.71072 0.65684 0.0
C4154 C 0.03312 0.70072 0.64222 0.0
C4155 C 0.04711 0.70389 0.63357 0.0
C4156 C 0.06207 0.71721 0.63958 0.0
C4157 C 0.06333 0.72745 0.65348 0.0
C4158 C 0.08092 0.74018 0.65818 0.0
C4159 C 0.08432 0.75791 0.65549 0.0
C4160 C 0.08555 0.73837 0.6767 0.0
C4161 C 0.08939 0.73512 0.64517 0.0
C4162 C 0.07832 0.72196 0.63443 0.0
C4163 C 0.0833 0.71431 0.6223 0.0
C4164 C 0.10002 0.72023 0.62117 0.0
C4165 C 0.11154 0.73375 0.63204 0.0
C4166 C 0.10608 0.74126 0.6441 0.0
H4167 H 0.97179 0.62514 0.71818 0.0
H4168 H 0.00281 0.64371 0.6747 0.0
H4169 H 0.01666 0.62847 0.68339 0.0
H4170 H 0.00229 0.63111 0.74716 0.0
H4171 H 0.98992 0.61297 0.75913 0.0
H4172 H 0.98065 0.62285 0.7479 0.0
H4173 H 0.9609 0.59497 0.73127 0.0
H4174 H 0.97004 0.58495 0.74258 0.0
H4175 H 0.96901 0.58404 0.71942 0.0
H4176 H 0.02873 0.61322 0.6985 0.0
H4177 H 0.03834 0.59992 0.71904 0.0
H4178 H 0.00042 0.59336 0.75333 0.0
C4179 C 0.98113 0.62558 0.71014 0.0
C4180 C 0.98607 0.6354 0.69561 0.0
C4181 C 0.99874 0.63612 0.68579 0.0
C4182 C 0.00665 0.62749 0.69061 0.0
C4183 C 0.0018 0.61831 0.70534 0.0
C4184 C 0.98931 0.61732 0.71494 0.0
C4185 C 0.98753 0.60819 0.73118 0.0
C4186 C 0.99027 0.61946 0.74728 0.0
C4187 C 0.97088 0.59208 0.7311 0.0
C4188 C 0.00117 0.60448 0.72944 0.0
C4189 C 0.00909 0.61013 0.71432 0.0
C4190 C 0.02246 0.60856 0.71026 0.0
C4191 C 0.02784 0.60102 0.72198 0.0
C4192 C 0.01998 0.59531 0.73762 0.0
C4193 C 0.00651 0.5972 0.74134 0.0
H4194 H 0.37414 0.36582 0.72665 0.0
H4195 H 0.34858 0.37046 0.68239 0.0
H4196 H 0.3615 0.4007 0.68925 0.0
H4197 H 0.36818 0.39215 0.75403 0.0
H4198 H 0.38759 0.40102 0.76554 0.0
H4199 H 0.37842 0.38038 0.7557 0.0
H4200 H 0.40433 0.38901 0.73856 0.0
H4201 H 0.41365 0.40968 0.74845 0.0
H4202 H 0.41193 0.40678 0.72536 0.0
H4203 H 0.37527 0.4299 0.70249 0.0
H4204 H 0.38845 0.45561 0.72131 0.0
H4205 H 0.40367 0.4312 0.75755 0.0
C4206 C 0.37164 0.37327 0.71809 0.0
C4207 C 0.36055 0.36585 0.70385 0.0
C4208 C 0.35716 0.37594 0.69329 0.0
C4209 C 0.36446 0.39311 0.69707 0.0
C4210 C 0.37502 0.39996 0.71149 0.0
C4211 C 0.3786 0.39034 0.72184 0.0
C4212 C 0.38903 0.40033 0.73751 0.0
C4213 C 0.38028 0.39303 0.75417 0.0
C4214 C 0.40573 0.40152 0.73745 0.0
C4215 C 0.39054 0.417 0.73453 0.0
C4216 C 0.38258 0.41663 0.71935 0.0
C4217 C 0.38176 0.43041 0.71427 0.0
C4218 C 0.38926 0.44493 0.72501 0.0
C4219 C 0.39742 0.44554 0.74065 0.0
C4220 C 0.39793 0.4313 0.74544 0.0
H4221 H 0.64124 0.99667 0.6898 0.0
H4222 H 0.6802 0.03491 0.72302 0.0
H4223 H 0.66161 0.02671 0.74708 0.0
H4224 H 0.61043 0.00277 0.70488 0.0
H4225 H 0.59476 0.98113 0.70353 0.0
H4226 H 0.61154 0.98857 0.68948 0.0
H4227 H 0.61834 0.96662 0.70017 0.0
H4228 H 0.60147 0.95901 0.7142 0.0
H4229 H 0.62164 0.96565 0.72286 0.0
H4230 H 0.63825 0.01631 0.76659 0.0
H4231 H 0.61177 0.00402 0.7804 0.0
H4232 H 0.58806 0.97246 0.73456 0.0
C4233 C 0.64597 0.00309 0.70222 0.0
C4234 C 0.66217 0.01641 0.70455 0.0
C4235 C 0.66782 0.02467 0.72094 0.0
C4236 C 0.65737 0.02008 0.7347 0.0
C4237 C 0.64136 0.00716 0.73185 0.0
C4238 C 0.6357 0.99871 0.71606 0.0
C4239 C 0.61768 0.98604 0.71608 0.0
C4240 C 0.60804 0.98987 0.7027 0.0
C4241 C 0.61461 0.96828 0.71316 0.0
C4242 C 0.614 0.98899 0.73422 0.0
C4243 C 0.62785 0.00112 0.74315 0.0
C4244 C 0.62736 0.00662 0.75982 0.0
C4245 C 0.61229 0.99959 0.76755 0.0
C4246 C 0.59791 0.98721 0.75859 0.0
C4247 C 0.59887 0.98178 0.74177 0.0
loop_
_geom_bond_atom_site_label_1
_geom_bond_atom_site_label_2
_geom_bond_distance
_geom_bond_site_symmetry_2
_ccdc_geom_bond_type
Mg0 O1 2.028 1_556 S
Mg0 O7 1.986 1_455 S
Mg0 O9 2.114 . S
Mg0 O10 2.251 . S
Mg0 O13 2.010 1_556 S
O1 Mg0 2.028 1_554 S
O1 C4 1.250 1_455 S
O2 Mg3 2.028 1_554 S
O2 C4 1.248 . S
Mg3 O2 2.028 1_556 S
Mg3 O8 2.032 . S
Mg3 O10 2.079 1_655 S
C4 O1 1.250 1_655 S
C4 O2 1.248 . S
C5 O6 1.264 . S
C5 O13 1.249 . S
O6 C5 1.264 . S
O7 Mg0 1.986 1_655 S
O7 C11 1.246 . S
O8 Mg3 2.032 . S
O8 C11 1.259 . S
O9 Mg0 2.114 . S
O9 C12 1.252 . S
O10 Mg0 2.251 . S
O10 Mg3 2.079 1_455 S
O10 C12 1.273 . S
C11 O7 1.246 . S
C11 O8 1.259 . S
C12 O9 1.252 . S
C12 O10 1.273 . S
O13 Mg0 2.010 1_554 S
O13 C5 1.249 . S
Mg14 O15 2.028 . S
Mg14 O21 1.986 . S
Mg14 O23 2.114 . S
Mg14 O24 2.251 . S
Mg14 O27 2.010 . S
O15 Mg14 2.028 . S
O15 C18 1.250 . S
O16 Mg17 2.028 . S
O16 C18 1.248 . S
Mg17 O16 2.028 . S
Mg17 O22 2.032 . S
Mg17 O24 2.079 . S
C18 O15 1.250 . S
C18 O16 1.248 . S
C19 O20 1.264 . S
C19 O27 1.249 . S
O20 C19 1.264 . S
O21 Mg14 1.986 . S
O21 C25 1.246 . S
O22 Mg17 2.032 . S
O22 C25 1.259 . S
O23 Mg14 2.114 . S
O23 C26 1.252 . S
O24 Mg14 2.251 . S
O24 Mg17 2.079 . S
O24 C26 1.273 . S
C25 O21 1.246 . S
C25 O22 1.259 . S
C26 O23 1.252 . S
C26 O24 1.273 . S
O27 Mg14 2.010 . S
O27 C19 1.249 . S
Mg28 O29 2.042 1_565 S
Mg28 O35 1.983 1_564 S
Mg28 O37 2.109 1_554 S
Mg28 O38 2.242 1_564 S
Mg28 O41 2.017 . S
O29 Mg28 2.042 1_545 S
O29 C32 1.250 . S
O30 Mg31 2.028 1_554 S
O30 C32 1.248 . S
Mg31 O30 2.028 1_556 S
Mg31 O36 2.032 . S
Mg31 O38 2.079 . S
C32 O29 1.250 . S
C32 O30 1.248 . S
C33 O34 1.264 . S
C33 O41 1.249 . S
O34 C33 1.264 . S
O35 Mg28 1.983 1_546 S
O35 C39 1.264 . S
O36 Mg31 2.032 . S
O36 C39 1.259 . S
O37 Mg28 2.109 1_556 S
O37 C40 1.252 . S
O38 Mg28 2.242 1_546 S
O38 Mg31 2.079 . S
O38 C40 1.273 1_545 S
C39 O35 1.264 . S
C39 O36 1.259 . S
C40 O37 1.252 . S
C40 O38 1.273 1_565 S
O41 Mg28 2.017 . S
O41 C33 1.249 . S
Mg42 O43 1.979 1_654 S
Mg42 O49 1.986 1_655 S
Mg42 O51 2.114 . S
Mg42 O52 2.251 1_655 S
Mg42 O55 2.010 . S
O43 Mg42 1.979 1_456 S
O43 C46 1.264 . S
O44 Mg45 2.028 . S
O44 C46 1.248 1_554 S
Mg45 O44 2.028 . S
Mg45 O50 2.032 . S
Mg45 O52 2.079 . S
C46 O43 1.264 . S
C46 O44 1.248 1_556 S
C47 O48 1.264 . S
C47 O55 1.249 . S
O48 C47 1.264 . S
O49 Mg42 1.986 1_455 S
O49 C53 1.246 . S
O50 Mg45 2.032 . S
O50 C53 1.259 . S
O51 Mg42 2.114 . S
O51 C54 1.252 . S
O52 Mg42 2.251 1_455 S
O52 Mg45 2.079 . S
O52 C54 1.273 1_455 S
C53 O49 1.246 . S
C53 O50 1.259 . S
C54 O51 1.252 . S
C54 O52 1.273 1_655 S
O55 Mg42 2.010 . S
O55 C47 1.249 . S
Mg56 O57 2.028 1_556 S
Mg56 O63 1.986 . S
Mg56 O65 2.114 . S
Mg56 O66 2.251 . S
Mg56 O69 2.010 1_556 S
O57 Mg56 2.028 1_554 S
O57 C60 1.250 . S
O58 Mg59 2.028 1_554 S
O58 C60 1.248 . S
Mg59 O58 2.028 1_556 S
Mg59 O64 2.032 . S
Mg59 O66 2.079 . S
C60 O57 1.250 . S
C60 O58 1.248 . S
C61 O62 1.264 . S
C61 O69 1.249 . S
O62 C61 1.264 . S
O63 Mg56 1.986 . S
O63 C67 1.246 . S
O64 Mg59 2.032 . S
O64 C67 1.259 . S
O65 Mg56 2.114 . S
O65 C68 1.252 . S
O66 Mg56 2.251 . S
O66 Mg59 2.079 . S
O66 C68 1.273 . S
C67 O63 1.246 . S
C67 O64 1.259 . S
C68 O65 1.252 . S
C68 O66 1.273 . S
O69 Mg56 2.010 1_554 S
O69 C61 1.249 . S
Mg70 O71 2.056 . S
Mg70 O77 1.986 1_545 S
Mg70 O79 2.114 . S
Mg70 O80 2.251 . S
Mg70 O83 2.010 . S
O71 Mg70 2.056 . S
O71 C74 1.244 1_544 S
O72 Mg73 2.028 . S
O72 C74 1.248 1_554 S
Mg73 O72 2.028 . S
Mg73 O78 2.032 . S
Mg73 O80 2.079 1_565 S
C74 O71 1.244 1_566 S
C74 O72 1.248 1_556 S
C75 O76 1.264 . S
C75 O83 1.249 . S
O76 C75 1.264 . S
O77 Mg70 1.986 1_565 S
O77 C81 1.246 . S
O78 Mg73 2.032 . S
O78 C81 1.259 . S
O79 Mg70 2.114 . S
O79 C82 1.252 . S
O80 Mg70 2.251 . S
O80 Mg73 2.079 1_545 S
O80 C82 1.273 . S
C81 O77 1.246 . S
C81 O78 1.259 . S
C82 O79 1.252 . S
C82 O80 1.273 . S
O83 Mg70 2.010 . S
O83 C75 1.249 . S
Mg84 O85 2.028 . S
Mg84 O91 1.986 . S
Mg84 O93 2.114 . S
Mg84 O94 2.251 . S
Mg84 O97 2.010 . S
O85 Mg84 2.028 . S
O85 C88 1.250 . S
O86 Mg87 2.028 . S
O86 C88 1.248 . S
Mg87 O86 2.028 . S
Mg87 O92 2.032 . S
Mg87 O94 2.079 . S
C88 O85 1.250 . S
C88 O86 1.248 . S
C89 O90 1.264 . S
C89 O97 1.249 . S
O90 C89 1.264 . S
O91 Mg84 1.986 . S
O91 C95 1.246 . S
O92 Mg87 2.032 . S
O92 C95 1.259 . S
O93 Mg84 2.114 . S
O93 C96 1.252 . S
O94 Mg84 2.251 . S
O94 Mg87 2.079 . S
O94 C96 1.273 . S
C95 O91 1.246 . S
C95 O92 1.259 . S
C96 O93 1.252 . S
C96 O94 1.273 . S
O97 Mg84 2.010 . S
O97 C89 1.249 . S
Mg98 O99 2.028 . S
Mg98 O105 1.986 1_565 S
Mg98 O107 2.114 . S
Mg98 O108 2.251 . S
Mg98 O111 2.010 . S
O99 Mg98 2.028 . S
O99 C102 1.250 . S
O100 Mg101 2.028 . S
O100 C102 1.248 . S
Mg101 O100 2.028 . S
Mg101 O106 2.032 1_565 S
Mg101 O108 2.079 . S
C102 O99 1.250 . S
C102 O100 1.248 . S
C103 O104 1.264 . S
C103 O111 1.249 . S
O104 C103 1.264 . S
O105 Mg98 1.986 1_545 S
O105 C109 1.246 . S
O106 Mg101 2.032 1_545 S
O106 C109 1.259 . S
O107 Mg98 2.114 . S
O107 C110 1.252 . S
O108 Mg98 2.251 . S
O108 Mg101 2.079 . S
O108 C110 1.273 . S
C109 O105 1.246 . S
C109 O106 1.259 . S
C110 O107 1.252 . S
C110 O108 1.273 . S
O111 Mg98 2.010 . S
O111 C103 1.249 . S
Mg112 O113 2.028 . S
Mg112 O119 1.986 . S
Mg112 O121 2.114 . S
Mg112 O122 2.251 . S
Mg112 O125 2.010 1_455 S
O113 Mg112 2.028 . S
O113 C116 1.250 . S
O114 Mg115 2.028 . S
O114 C116 1.248 . S
Mg115 O114 2.028 . S
Mg115 O120 2.032 . S
Mg115 O122 2.079 . S
C116 O113 1.250 . S
C116 O114 1.248 . S
C117 O118 1.264 . S
C117 O125 1.249 . S
O118 C117 1.264 . S
O119 Mg112 1.986 . S
O119 C123 1.246 . S
O120 Mg115 2.032 . S
O120 C123 1.259 . S
O121 Mg112 2.114 . S
O121 C124 1.252 . S
O122 Mg112 2.251 . S
O122 Mg115 2.079 . S
O122 C124 1.273 . S
C123 O119 1.246 . S
C123 O120 1.259 . S
C124 O121 1.252 . S
C124 O122 1.273 . S
O125 Mg112 2.010 1_655 S
O125 C117 1.249 . S
Mg126 O127 2.028 . S
Mg126 O133 1.986 1_565 S
Mg126 O135 2.114 . S
Mg126 O136 2.251 . S
Mg126 O139 2.010 . S
O127 Mg126 2.028 . S
O127 C130 1.250 . S
O128 Mg129 2.028 . S
O128 C130 1.248 . S
Mg129 O128 2.028 . S
Mg129 O134 2.032 1_565 S
Mg129 O136 2.079 . S
C130 O127 1.250 . S
C130 O128 1.248 . S
C131 O132 1.264 . S
C131 O139 1.249 . S
O132 C131 1.264 . S
O133 Mg126 1.986 1_545 S
O133 C137 1.246 . S
O134 Mg129 2.032 1_545 S
O134 C137 1.259 . S
O135 Mg126 2.114 . S
O135 C138 1.252 . S
O136 Mg126 2.251 . S
O136 Mg129 2.079 . S
O136 C138 1.273 . S
C137 O133 1.246 . S
C137 O134 1.259 . S
C138 O135 1.252 . S
C138 O136 1.273 . S
O139 Mg126 2.010 . S
O139 C131 1.249 . S
Mg140 O141 2.028 . S
Mg140 O147 1.986 . S
Mg140 O149 2.114 . S
Mg140 O150 2.251 . S
Mg140 O153 2.010 1_455 S
O141 Mg140 2.028 . S
O141 C144 1.250 . S
O142 Mg143 2.028 . S
O142 C144 1.248 . S
Mg143 O142 2.028 . S
Mg143 O148 2.032 . S
Mg143 O150 2.079 . S
C144 O141 1.250 . S
C144 O142 1.248 . S
C145 O146 1.264 . S
C145 O153 1.249 . S
O146 C145 1.264 . S
O147 Mg140 1.986 . S
O147 C151 1.246 . S
O148 Mg143 2.032 . S
O148 C151 1.259 . S
O149 Mg140 2.114 . S
O149 C152 1.252 . S
O150 Mg140 2.251 . S
O150 Mg143 2.079 . S
O150 C152 1.273 . S
C151 O147 1.246 . S
C151 O148 1.259 . S
C152 O149 1.252 . S
C152 O150 1.273 . S
O153 Mg140 2.010 1_655 S
O153 C145 1.249 . S
Mg154 O155 2.028 . S
Mg154 O161 1.986 . S
Mg154 O163 2.114 . S
Mg154 O164 2.251 . S
Mg154 O167 2.010 . S
O155 Mg154 2.028 . S
O155 C158 1.250 . S
O156 Mg157 2.028 . S
O156 C158 1.248 . S
Mg157 O156 2.028 . S
Mg157 O162 2.032 . S
Mg157 O164 2.079 . S
C158 O155 1.250 . S
C158 O156 1.248 . S
C159 O160 1.264 . S
C159 O167 1.249 . S
O160 C159 1.264 . S
O161 Mg154 1.986 . S
O161 C165 1.246 . S
O162 Mg157 2.032 . S
O162 C165 1.259 . S
O163 Mg154 2.114 . S
O163 C166 1.252 . S
O164 Mg154 2.251 . S
O164 Mg157 2.079 . S
O164 C166 1.273 . S
C165 O161 1.246 . S
C165 O162 1.259 . S
C166 O163 1.252 . S
C166 O164 1.273 . S
O167 Mg154 2.010 . S
O167 C159 1.249 . S
Mg168 O169 2.028 . S
Mg168 O175 1.986 1_545 S
Mg168 O177 2.114 . S
Mg168 O178 2.251 . S
Mg168 O181 2.010 . S
O169 Mg168 2.028 . S
O169 C172 1.250 . S
O170 Mg171 2.028 . S
O170 C172 1.248 . S
Mg171 O170 2.028 . S
Mg171 O176 1.971 1_545 S
Mg171 O178 2.079 . S
C172 O169 1.250 . S
C172 O170 1.248 . S
C173 O174 1.264 . S
C173 O181 1.249 . S
O174 C173 1.264 . S
O175 Mg168 1.986 1_565 S
O175 C179 1.246 . S
O176 Mg171 1.971 1_565 S
O176 C179 1.315 . S
O177 Mg168 2.114 . S
O177 C180 1.252 . S
O178 Mg168 2.251 . S
O178 Mg171 2.079 . S
O178 C180 1.273 . S
C179 O175 1.246 . S
C179 O176 1.315 . S
C180 O177 1.252 . S
C180 O178 1.273 . S
O181 Mg168 2.010 . S
O181 C173 1.249 . S
Mg182 O183 2.028 . S
Mg182 O189 1.986 . S
Mg182 O191 2.114 . S
Mg182 O192 2.251 . S
Mg182 O195 2.010 1_655 S
O183 Mg182 2.028 . S
O183 C186 1.250 . S
O184 Mg185 2.028 . S
O184 C186 1.248 . S
Mg185 O184 2.028 . S
Mg185 O190 2.032 . S
Mg185 O192 2.079 . S
C186 O183 1.250 . S
C186 O184 1.248 . S
C187 O188 1.264 . S
C187 O195 1.249 . S
O188 C187 1.264 . S
O189 Mg182 1.986 . S
O189 C193 1.246 . S
O190 Mg185 2.032 . S
O190 C193 1.259 . S
O191 Mg182 2.114 . S
O191 C194 1.252 . S
O192 Mg182 2.251 . S
O192 Mg185 2.079 . S
O192 C194 1.273 . S
C193 O189 1.246 . S
C193 O190 1.259 . S
C194 O191 1.252 . S
C194 O192 1.273 . S
O195 Mg182 2.010 1_455 S
O195 C187 1.249 . S
Mg196 O197 2.028 . S
Mg196 O203 1.986 . S
Mg196 O205 2.114 . S
Mg196 O206 2.251 . S
Mg196 O209 2.010 . S
O197 Mg196 2.028 . S
O197 C200 1.250 . S
O198 Mg199 2.028 . S
O198 C200 1.248 . S
Mg199 O198 2.028 . S
Mg199 O204 2.032 . S
Mg199 O206 2.079 . S
C200 O197 1.250 . S
C200 O198 1.248 . S
C201 O202 1.264 . S
C201 O209 1.249 . S
O202 C201 1.264 . S
O203 Mg196 1.986 . S
O203 C207 1.246 . S
O204 Mg199 2.032 . S
O204 C207 1.259 . S
O205 Mg196 2.114 . S
O205 C208 1.252 . S
O206 Mg196 2.251 . S
O206 Mg199 2.079 . S
O206 C208 1.273 . S
C207 O203 1.246 . S
C207 O204 1.259 . S
C208 O205 1.252 . S
C208 O206 1.273 . S
O209 Mg196 2.010 . S
O209 C201 1.249 . S
Mg210 O211 2.028 . S
Mg210 O217 1.986 . S
Mg210 O219 2.114 . S
Mg210 O220 2.251 . S
Mg210 O223 2.010 . S
O211 Mg210 2.028 . S
O211 C214 1.250 . S
O212 Mg213 2.028 . S
O212 C214 1.248 . S
Mg213 O212 2.028 . S
Mg213 O218 2.032 . S
Mg213 O220 2.079 . S
C214 O211 1.250 . S
C214 O212 1.248 . S
C215 O216 1.264 . S
C215 O223 1.249 . S
O216 C215 1.264 . S
O217 Mg210 1.986 . S
O217 C221 1.246 . S
O218 Mg213 2.032 . S
O218 C221 1.259 . S
O219 Mg210 2.114 . S
O219 C222 1.252 . S
O220 Mg210 2.251 . S
O220 Mg213 2.079 . S
O220 C222 1.273 . S
C221 O217 1.246 . S
C221 O218 1.259 . S
C222 O219 1.252 . S
C222 O220 1.273 . S
O223 Mg210 2.010 . S
O223 C215 1.249 . S
Mg224 O225 2.028 . S
Mg224 O231 1.986 1_545 S
Mg224 O233 2.114 . S
Mg224 O234 2.251 . S
Mg224 O237 2.010 . S
O225 Mg224 2.028 . S
O225 C228 1.250 . S
O226 Mg227 2.028 . S
O226 C228 1.248 . S
Mg227 O226 2.028 . S
Mg227 O232 2.032 1_545 S
Mg227 O234 2.079 . S
C228 O225 1.250 . S
C228 O226 1.248 . S
C229 O230 1.264 . S
C229 O237 1.249 . S
O230 C229 1.264 . S
O231 Mg224 1.986 1_565 S
O231 C235 1.246 . S
O232 Mg227 2.032 1_565 S
O232 C235 1.259 . S
O233 Mg224 2.114 . S
O233 C236 1.252 . S
O234 Mg224 2.251 . S
O234 Mg227 2.079 . S
O234 C236 1.273 . S
C235 O231 1.246 . S
C235 O232 1.259 . S
C236 O233 1.252 . S
C236 O234 1.273 . S
O237 Mg224 2.010 . S
O237 C229 1.249 . S
Mg238 O239 2.028 . S
Mg238 O245 1.986 . S
Mg238 O247 2.114 . S
Mg238 O248 2.251 . S
Mg238 O251 2.010 1_655 S
O239 Mg238 2.028 . S
O239 C242 1.250 . S
O240 Mg241 2.028 . S
O240 C242 1.248 . S
Mg241 O240 2.028 . S
Mg241 O246 2.032 . S
Mg241 O248 2.079 . S
C242 O239 1.250 . S
C242 O240 1.248 . S
C243 O244 1.264 . S
C243 O251 1.249 . S
O244 C243 1.264 . S
O245 Mg238 1.986 . S
O245 C249 1.246 . S
O246 Mg241 2.032 . S
O246 C249 1.259 . S
O247 Mg238 2.114 . S
O247 C250 1.252 . S
O248 Mg238 2.251 . S
O248 Mg241 2.079 . S
O248 C250 1.273 . S
C249 O245 1.246 . S
C249 O246 1.259 . S
C250 O247 1.252 . S
C250 O248 1.273 . S
O251 Mg238 2.010 1_455 S
O251 C243 1.249 . S
C252 C253 1.560 . S
C252 H313 0.959 . S
C252 H314 0.959 . S
C252 H315 0.960 . S
C253 C252 1.560 . S
C253 O308 1.426 . S
C253 H312 0.980 . S
C254 C255 1.407 . S
C254 C259 1.418 . S
C254 O308 1.334 . S
C255 C254 1.407 . S
C255 C256 1.360 . S
C255 H316 0.929 . S
C256 C255 1.360 . S
C256 C257 1.401 . S
C256 C260 1.527 . S
C257 C256 1.401 . S
C257 C258 1.405 . S
C257 C290 1.587 . S
C258 C257 1.405 . S
C258 C259 1.332 . S
C258 C261 1.496 . S
C259 C254 1.418 . S
C259 C258 1.332 . S
C259 H317 0.929 . S
C260 C256 1.527 . S
C260 H318 0.959 . S
C260 H319 0.961 . S
C260 H320 0.961 . S
C261 C258 1.496 . S
C261 H321 0.960 . S
C261 H322 0.960 . S
C261 H323 0.961 . S
C262 C263 1.517 . S
C262 H325 0.961 . S
C262 H326 0.960 . S
C262 H327 0.959 . S
C263 C262 1.517 . S
C263 O311 1.468 . S
C263 H324 0.980 . S
C264 C265 1.349 . S
C264 C269 1.367 . S
C264 O311 1.408 . S
C265 C264 1.349 . S
C265 C266 1.407 . S
C265 H328 0.930 . S
C266 C265 1.407 . S
C266 C267 1.449 . S
C266 C270 1.535 . S
C267 C266 1.449 . S
C267 C268 1.384 . S
C267 C292 1.553 . S
C268 C267 1.384 . S
C268 C269 1.364 . S
C268 C271 1.450 . S
C269 C264 1.367 . S
C269 C268 1.364 . S
C269 H329 0.931 . S
C270 C266 1.535 . S
C270 H330 0.959 . S
C270 H331 0.961 . S
C270 H332 0.959 . S
C271 C268 1.450 . S
C271 H333 0.960 . S
C271 H334 0.960 . S
C271 H335 0.960 . S
C272 C273 1.309 . S
C272 C277 1.304 . S
C272 O310 1.435 . S
C273 C272 1.309 . S
C273 C274 1.476 . S
C273 H337 0.930 . S
C274 C273 1.476 . S
C274 C275 1.400 . S
C274 C278 1.567 . S
C275 C274 1.400 . S
C275 C276 1.373 . S
C275 C297 1.432 . S
C276 C275 1.373 . S
C276 C277 1.339 . S
C276 C279 1.530 . S
C277 C272 1.304 . S
C277 C276 1.339 . S
C277 H338 0.930 . S
C278 C274 1.567 . S
C278 H339 0.961 . S
C278 H340 0.960 . S
C278 H341 0.958 . S
C279 C276 1.530 . S
C279 H342 0.961 . S
C279 H343 0.960 . S
C279 H344 0.960 . S
C280 C281 1.530 . S
C280 H346 0.961 . S
C280 H347 0.961 . S
C280 H348 0.959 . S
C281 C280 1.530 . S
C281 O309 1.412 . S
C281 H345 0.980 . S
C282 C283 1.288 . S
C282 C287 1.377 . S
C282 O309 1.393 . S
C283 C282 1.288 . S
C283 C284 1.369 . S
C283 H349 0.932 . S
C284 C283 1.369 . S
C284 C285 1.398 . S
C284 C288 1.527 . S
C285 C284 1.398 . S
C285 C286 1.380 . S
C285 C299 1.497 . S
C286 C285 1.380 . S
C286 C287 1.383 . S
C286 C289 1.603 . S
C287 C282 1.377 . S
C287 C286 1.383 . S
C287 H350 0.929 . S
C288 C284 1.527 . S
C288 H351 0.961 . S
C288 H352 0.959 . S
C288 H353 0.959 . S
C289 C286 1.603 . S
C289 H354 0.960 . S
C289 H355 0.962 . S
C289 H356 0.961 . S
C290 C257 1.587 . S
C290 C291 1.360 . S
C290 C303 1.412 . S
C291 C290 1.360 . S
C291 C292 1.365 . S
C291 H357 0.929 . S
C292 C267 1.553 . S
C292 C291 1.365 . S
C292 C293 1.404 . S
C293 C292 1.404 . S
C293 C294 1.395 . S
C293 C304 1.451 . S
C294 C293 1.395 . S
C294 C295 1.322 . S
C294 H358 0.930 . S
C295 C294 1.322 . S
C295 C296 1.459 . S
C295 H359 0.929 . S
C296 C295 1.459 . S
C296 C297 1.445 . S
C296 C305 1.395 . S
C297 C275 1.432 . S
C297 C296 1.445 . S
C297 C298 1.370 . S
C298 C297 1.370 . S
C298 C299 1.438 . S
C298 H360 0.930 . S
C299 C285 1.497 . S
C299 C298 1.438 . S
C299 C300 1.360 . S
C300 C299 1.360 . S
C300 C301 1.401 . S
C300 C305 1.446 . S
C301 C300 1.401 . S
C301 C302 1.347 . S
C301 H361 0.929 . S
C302 C301 1.347 . S
C302 C303 1.455 . S
C302 H362 0.930 . S
C303 C290 1.412 . S
C303 C302 1.455 . S
C303 C304 1.331 . S
C304 C293 1.451 . S
C304 C303 1.331 . S
C304 C305 1.497 . S
C305 C296 1.395 . S
C305 C300 1.446 . S
C305 C304 1.497 . S
C306 C307 1.582 . S
C306 H363 0.962 . S
C306 H364 0.959 . S
C306 H365 0.958 . S
C307 C306 1.582 . S
C307 O310 1.458 . S
C307 H336 0.980 . S
O308 C253 1.426 . S
O308 C254 1.334 . S
O309 C281 1.412 . S
O309 C282 1.393 . S
O310 C272 1.435 . S
O310 C307 1.458 . S
O311 C263 1.468 . S
O311 C264 1.408 . S
H312 C253 0.980 . S
H313 C252 0.959 . S
H314 C252 0.959 . S
H315 C252 0.960 . S
H316 C255 0.929 . S
H317 C259 0.929 . S
H318 C260 0.959 . S
H319 C260 0.961 . S
H320 C260 0.961 . S
H321 C261 0.960 . S
H322 C261 0.960 . S
H323 C261 0.961 . S
H324 C263 0.980 . S
H325 C262 0.961 . S
H326 C262 0.960 . S
H327 C262 0.959 . S
H328 C265 0.930 . S
H329 C269 0.931 . S
H330 C270 0.959 . S
H331 C270 0.961 . S
H332 C270 0.959 . S
H333 C271 0.960 . S
H334 C271 0.960 . S
H335 C271 0.960 . S
H336 C307 0.980 . S
H337 C273 0.930 . S
H338 C277 0.930 . S
H339 C278 0.961 . S
H340 C278 0.960 . S
H341 C278 0.958 . S
H342 C279 0.961 . S
H343 C279 0.960 . S
H344 C279 0.960 . S
H345 C281 0.980 . S
H346 C280 0.961 . S
H347 C280 0.961 . S
H348 C280 0.959 . S
H349 C283 0.932 . S
H350 C287 0.929 . S
H351 C288 0.961 . S
H352 C288 0.959 . S
H353 C288 0.959 . S
H354 C289 0.960 . S
H355 C289 0.962 . S
H356 C289 0.961 . S
H357 C291 0.929 . S
H358 C294 0.930 . S
H359 C295 0.929 . S
H360 C298 0.930 . S
H361 C301 0.929 . S
H362 C302 0.930 . S
H363 C306 0.962 . S
H364 C306 0.959 . S
H365 C306 0.958 . S
C366 C367 1.560 . S
C366 H427 0.959 . S
C366 H428 0.959 . S
C366 H429 0.960 . S
C367 C366 1.560 . S
C367 O422 1.426 . S
C367 H426 0.980 . S
C368 C369 1.407 . S
C368 C373 1.418 . S
C368 O422 1.334 . S
C369 C368 1.407 . S
C369 C370 1.360 . S
C369 H430 0.929 . S
C370 C369 1.360 . S
C370 C371 1.401 . S
C370 C374 1.527 . S
C371 C370 1.401 . S
C371 C372 1.405 . S
C371 C404 1.587 . S
C372 C371 1.405 . S
C372 C373 1.332 . S
C372 C375 1.496 . S
C373 C368 1.418 . S
C373 C372 1.332 . S
C373 H431 0.929 . S
C374 C370 1.527 . S
C374 H432 0.959 . S
C374 H433 0.961 . S
C374 H434 0.961 . S
C375 C372 1.496 . S
C375 H435 0.960 . S
C375 H436 0.960 . S
C375 H437 0.961 . S
C376 C377 1.517 . S
C376 H439 0.961 . S
C376 H440 0.960 . S
C376 H441 0.959 . S
C377 C376 1.517 . S
C377 O425 1.468 . S
C377 H438 0.980 . S
C378 C379 1.349 . S
C378 C383 1.367 . S
C378 O425 1.408 . S
C379 C378 1.349 . S
C379 C380 1.407 . S
C379 H442 0.930 . S
C380 C379 1.407 . S
C380 C381 1.449 . S
C380 C384 1.535 . S
C381 C380 1.449 . S
C381 C382 1.384 . S
C381 C406 1.553 . S
C382 C381 1.384 . S
C382 C383 1.364 . S
C382 C385 1.450 . S
C383 C378 1.367 . S
C383 C382 1.364 . S
C383 H443 0.931 . S
C384 C380 1.535 . S
C384 H444 0.959 . S
C384 H445 0.961 . S
C384 H446 0.959 . S
C385 C382 1.450 . S
C385 H447 0.960 . S
C385 H448 0.960 . S
C385 H449 0.960 . S
C386 C387 1.309 . S
C386 C391 1.304 . S
C386 O424 1.435 . S
C387 C386 1.309 . S
C387 C388 1.476 . S
C387 H451 0.930 . S
C388 C387 1.476 . S
C388 C389 1.400 . S
C388 C392 1.567 . S
C389 C388 1.400 . S
C389 C390 1.373 . S
C389 C411 1.432 . S
C390 C389 1.373 . S
C390 C391 1.339 . S
C390 C393 1.530 . S
C391 C386 1.304 . S
C391 C390 1.339 . S
C391 H452 0.930 . S
C392 C388 1.567 . S
C392 H453 0.961 . S
C392 H454 0.960 . S
C392 H455 0.958 . S
C393 C390 1.530 . S
C393 H456 0.961 . S
C393 H457 0.960 . S
C393 H458 0.960 . S
C394 C395 1.530 . S
C394 H460 0.961 . S
C394 H461 0.961 . S
C394 H462 0.959 . S
C395 C394 1.530 . S
C395 O423 1.412 . S
C395 H459 0.980 . S
C396 C397 1.288 . S
C396 C401 1.377 . S
C396 O423 1.393 . S
C397 C396 1.288 . S
C397 C398 1.369 . S
C397 H463 0.932 . S
C398 C397 1.369 . S
C398 C399 1.398 . S
C398 C402 1.527 . S
C399 C398 1.398 . S
C399 C400 1.380 . S
C399 C413 1.497 . S
C400 C399 1.380 . S
C400 C401 1.383 . S
C400 C403 1.603 . S
C401 C396 1.377 . S
C401 C400 1.383 . S
C401 H464 0.929 . S
C402 C398 1.527 . S
C402 H465 0.961 . S
C402 H466 0.959 . S
C402 H467 0.959 . S
C403 C400 1.603 . S
C403 H468 0.960 . S
C403 H469 0.962 . S
C403 H470 0.961 . S
C404 C371 1.587 . S
C404 C405 1.360 . S
C404 C417 1.412 . S
C405 C404 1.360 . S
C405 C406 1.365 . S
C405 H471 0.929 . S
C406 C381 1.553 . S
C406 C405 1.365 . S
C406 C407 1.404 . S
C407 C406 1.404 . S
C407 C408 1.395 . S
C407 C418 1.451 . S
C408 C407 1.395 . S
C408 C409 1.322 . S
C408 H472 0.930 . S
C409 C408 1.322 . S
C409 C410 1.459 . S
C409 H473 0.929 . S
C410 C409 1.459 . S
C410 C411 1.445 . S
C410 C419 1.395 . S
C411 C389 1.432 . S
C411 C410 1.445 . S
C411 C412 1.370 . S
C412 C411 1.370 . S
C412 C413 1.438 . S
C412 H474 0.930 . S
C413 C399 1.497 . S
C413 C412 1.438 . S
C413 C414 1.360 . S
C414 C413 1.360 . S
C414 C415 1.401 . S
C414 C419 1.446 . S
C415 C414 1.401 . S
C415 C416 1.347 . S
C415 H475 0.929 . S
C416 C415 1.347 . S
C416 C417 1.455 . S
C416 H476 0.930 . S
C417 C404 1.412 . S
C417 C416 1.455 . S
C417 C418 1.331 . S
C418 C407 1.451 . S
C418 C417 1.331 . S
C418 C419 1.497 . S
C419 C410 1.395 . S
C419 C414 1.446 . S
C419 C418 1.497 . S
C420 C421 1.582 . S
C420 H477 0.962 . S
C420 H478 0.959 . S
C420 H479 0.958 . S
C421 C420 1.582 . S
C421 O424 1.458 . S
C421 H450 0.980 . S
O422 C367 1.426 . S
O422 C368 1.334 . S
O423 C395 1.412 . S
O423 C396 1.393 . S
O424 C386 1.435 . S
O424 C421 1.458 . S
O425 C377 1.468 . S
O425 C378 1.408 . S
H426 C367 0.980 . S
H427 C366 0.959 . S
H428 C366 0.959 . S
H429 C366 0.960 . S
H430 C369 0.929 . S
H431 C373 0.929 . S
H432 C374 0.959 . S
H433 C374 0.961 . S
H434 C374 0.961 . S
H435 C375 0.960 . S
H436 C375 0.960 . S
H437 C375 0.961 . S
H438 C377 0.980 . S
H439 C376 0.961 . S
H440 C376 0.960 . S
H441 C376 0.959 . S
H442 C379 0.930 . S
H443 C383 0.931 . S
H444 C384 0.959 . S
H445 C384 0.961 . S
H446 C384 0.959 . S
H447 C385 0.960 . S
H448 C385 0.960 . S
H449 C385 0.960 . S
H450 C421 0.980 . S
H451 C387 0.930 . S
H452 C391 0.930 . S
H453 C392 0.961 . S
H454 C392 0.960 . S
H455 C392 0.958 . S
H456 C393 0.961 . S
H457 C393 0.960 . S
H458 C393 0.960 . S
H459 C395 0.980 . S
H460 C394 0.961 . S
H461 C394 0.961 . S
H462 C394 0.959 . S
H463 C397 0.932 . S
H464 C401 0.929 . S
H465 C402 0.961 . S
H466 C402 0.959 . S
H467 C402 0.959 . S
H468 C403 0.960 . S
H469 C403 0.962 . S
H470 C403 0.961 . S
H471 C405 0.929 . S
H472 C408 0.930 . S
H473 C409 0.929 . S
H474 C412 0.930 . S
H475 C415 0.929 . S
H476 C416 0.930 . S
H477 C420 0.962 . S
H478 C420 0.959 . S
H479 C420 0.958 . S
C480 C481 1.560 . S
C480 H541 0.959 . S
C480 H542 0.959 . S
C480 H543 0.960 . S
C481 C480 1.560 . S
C481 O536 1.426 . S
C481 H540 0.980 . S
C482 C483 1.407 . S
C482 C487 1.418 . S
C482 O536 1.334 . S
C483 C482 1.407 . S
C483 C484 1.360 . S
C483 H544 0.929 . S
C484 C483 1.360 . S
C484 C485 1.401 . S
C484 C488 1.527 . S
C485 C484 1.401 . S
C485 C486 1.405 . S
C485 C518 1.587 . S
C486 C485 1.405 . S
C486 C487 1.332 . S
C486 C489 1.496 . S
C487 C482 1.418 . S
C487 C486 1.332 . S
C487 H545 0.929 . S
C488 C484 1.527 . S
C488 H546 0.959 . S
C488 H547 0.961 . S
C488 H548 0.961 . S
C489 C486 1.496 . S
C489 H549 0.960 . S
C489 H550 0.960 . S
C489 H551 0.961 . S
C490 C491 1.517 . S
C490 H553 0.961 . S
C490 H554 0.960 . S
C490 H555 0.959 . S
C491 C490 1.517 . S
C491 O539 1.468 . S
C491 H552 0.980 . S
C492 C493 1.349 . S
C492 C497 1.367 . S
C492 O539 1.408 . S
C493 C492 1.349 . S
C493 C494 1.407 . S
C493 H556 0.930 . S
C494 C493 1.407 . S
C494 C495 1.449 . S
C494 C498 1.535 . S
C495 C494 1.449 . S
C495 C496 1.384 . S
C495 C520 1.553 . S
C496 C495 1.384 . S
C496 C497 1.364 . S
C496 C499 1.450 . S
C497 C492 1.367 . S
C497 C496 1.364 . S
C497 H557 0.931 . S
C498 C494 1.535 . S
C498 H558 0.959 . S
C498 H559 0.961 . S
C498 H560 0.959 . S
C499 C496 1.450 . S
C499 H561 0.960 . S
C499 H562 0.960 . S
C499 H563 0.960 . S
C500 C501 1.309 . S
C500 C505 1.304 . S
C500 O538 1.435 . S
C501 C500 1.309 . S
C501 C502 1.476 . S
C501 H565 0.930 . S
C502 C501 1.476 . S
C502 C503 1.400 . S
C502 C506 1.567 . S
C503 C502 1.400 . S
C503 C504 1.373 . S
C503 C525 1.432 . S
C504 C503 1.373 . S
C504 C505 1.339 . S
C504 C507 1.530 . S
C505 C500 1.304 . S
C505 C504 1.339 . S
C505 H566 0.930 . S
C506 C502 1.567 . S
C506 H567 0.961 . S
C506 H568 0.960 . S
C506 H569 0.958 . S
C507 C504 1.530 . S
C507 H570 0.961 . S
C507 H571 0.960 . S
C507 H572 0.960 . S
C508 C509 1.530 . S
C508 H574 0.961 . S
C508 H575 0.961 . S
C508 H576 0.959 . S
C509 C508 1.530 . S
C509 O537 1.412 . S
C509 H573 0.980 . S
C510 C511 1.288 . S
C510 C515 1.377 . S
C510 O537 1.393 . S
C511 C510 1.288 . S
C511 C512 1.369 . S
C511 H577 0.932 . S
C512 C511 1.369 . S
C512 C513 1.398 . S
C512 C516 1.527 . S
C513 C512 1.398 . S
C513 C514 1.380 . S
C513 C527 1.497 . S
C514 C513 1.380 . S
C514 C515 1.383 . S
C514 C517 1.603 . S
C515 C510 1.377 . S
C515 C514 1.383 . S
C515 H578 0.929 . S
C516 C512 1.527 . S
C516 H579 0.961 . S
C516 H580 0.959 . S
C516 H581 0.959 . S
C517 C514 1.603 . S
C517 H582 0.960 . S
C517 H583 0.962 . S
C517 H584 0.961 . S
C518 C485 1.587 . S
C518 C519 1.360 . S
C518 C531 1.412 . S
C519 C518 1.360 . S
C519 C520 1.365 . S
C519 H585 0.929 . S
C520 C495 1.553 . S
C520 C519 1.365 . S
C520 C521 1.404 . S
C521 C520 1.404 . S
C521 C522 1.395 . S
C521 C532 1.451 . S
C522 C521 1.395 . S
C522 C523 1.322 . S
C522 H586 0.930 . S
C523 C522 1.322 . S
C523 C524 1.459 . S
C523 H587 0.929 . S
C524 C523 1.459 . S
C524 C525 1.445 . S
C524 C533 1.395 . S
C525 C503 1.432 . S
C525 C524 1.445 . S
C525 C526 1.370 . S
C526 C525 1.370 . S
C526 C527 1.438 . S
C526 H588 0.930 . S
C527 C513 1.497 . S
C527 C526 1.438 . S
C527 C528 1.360 . S
C528 C527 1.360 . S
C528 C529 1.401 . S
C528 C533 1.446 . S
C529 C528 1.401 . S
C529 C530 1.347 . S
C529 H589 0.929 . S
C530 C529 1.347 . S
C530 C531 1.455 . S
C530 H590 0.930 . S
C531 C518 1.412 . S
C531 C530 1.455 . S
C531 C532 1.331 . S
C532 C521 1.451 . S
C532 C531 1.331 . S
C532 C533 1.497 . S
C533 C524 1.395 . S
C533 C528 1.446 . S
C533 C532 1.497 . S
C534 C535 1.582 . S
C534 H591 0.962 . S
C534 H592 0.959 . S
C534 H593 0.958 . S
C535 C534 1.582 . S
C535 O538 1.458 . S
C535 H564 0.980 . S
O536 C481 1.426 . S
O536 C482 1.334 . S
O537 C509 1.412 . S
O537 C510 1.393 . S
O538 C500 1.435 . S
O538 C535 1.458 . S
O539 C491 1.468 . S
O539 C492 1.408 . S
H540 C481 0.980 . S
H541 C480 0.959 . S
H542 C480 0.959 . S
H543 C480 0.960 . S
H544 C483 0.929 . S
H545 C487 0.929 . S
H546 C488 0.959 . S
H547 C488 0.961 . S
H548 C488 0.961 . S
H549 C489 0.960 . S
H550 C489 0.960 . S
H551 C489 0.961 . S
H552 C491 0.980 . S
H553 C490 0.961 . S
H554 C490 0.960 . S
H555 C490 0.959 . S
H556 C493 0.930 . S
H557 C497 0.931 . S
H558 C498 0.959 . S
H559 C498 0.961 . S
H560 C498 0.959 . S
H561 C499 0.960 . S
H562 C499 0.960 . S
H563 C499 0.960 . S
H564 C535 0.980 . S
H565 C501 0.930 . S
H566 C505 0.930 . S
H567 C506 0.961 . S
H568 C506 0.960 . S
H569 C506 0.958 . S
H570 C507 0.961 . S
H571 C507 0.960 . S
H572 C507 0.960 . S
H573 C509 0.980 . S
H574 C508 0.961 . S
H575 C508 0.961 . S
H576 C508 0.959 . S
H577 C511 0.932 . S
H578 C515 0.929 . S
H579 C516 0.961 . S
H580 C516 0.959 . S
H581 C516 0.959 . S
H582 C517 0.960 . S
H583 C517 0.962 . S
H584 C517 0.961 . S
H585 C519 0.929 . S
H586 C522 0.930 . S
H587 C523 0.929 . S
H588 C526 0.930 . S
H589 C529 0.929 . S
H590 C530 0.930 . S
H591 C534 0.962 . S
H592 C534 0.959 . S
H593 C534 0.958 . S
C594 C595 1.560 . S
C594 H655 0.959 . S
C594 H656 0.959 . S
C594 H657 0.960 . S
C595 C594 1.560 . S
C595 O650 1.426 . S
C595 H654 0.980 . S
C596 C597 1.407 . S
C596 C601 1.418 . S
C596 O650 1.334 . S
C597 C596 1.407 . S
C597 C598 1.360 . S
C597 H658 0.929 . S
C598 C597 1.360 . S
C598 C599 1.401 . S
C598 C602 1.527 . S
C599 C598 1.401 . S
C599 C600 1.405 . S
C599 C632 1.587 . S
C600 C599 1.405 . S
C600 C601 1.332 . S
C600 C603 1.496 . S
C601 C596 1.418 . S
C601 C600 1.332 . S
C601 H659 0.929 . S
C602 C598 1.527 . S
C602 H660 0.959 . S
C602 H661 0.961 . S
C602 H662 0.961 . S
C603 C600 1.496 . S
C603 H663 0.960 . S
C603 H664 0.960 . S
C603 H665 0.961 . S
C604 C605 1.517 . S
C604 H667 0.961 . S
C604 H668 0.960 . S
C604 H669 0.959 . S
C605 C604 1.517 . S
C605 O653 1.468 . S
C605 H666 0.980 . S
C606 C607 1.349 . S
C606 C611 1.367 . S
C606 O653 1.408 . S
C607 C606 1.349 . S
C607 C608 1.407 . S
C607 H670 0.930 . S
C608 C607 1.407 . S
C608 C609 1.449 . S
C608 C612 1.535 . S
C609 C608 1.449 . S
C609 C610 1.384 . S
C609 C634 1.553 . S
C610 C609 1.384 . S
C610 C611 1.364 . S
C610 C613 1.450 . S
C611 C606 1.367 . S
C611 C610 1.364 . S
C611 H671 0.931 . S
C612 C608 1.535 . S
C612 H672 0.959 . S
C612 H673 0.961 . S
C612 H674 0.959 . S
C613 C610 1.450 . S
C613 H675 0.960 . S
C613 H676 0.960 . S
C613 H677 0.960 . S
C614 C615 1.309 . S
C614 C619 1.304 . S
C614 O652 1.435 . S
C615 C614 1.309 . S
C615 C616 1.476 . S
C615 H679 0.930 . S
C616 C615 1.476 . S
C616 C617 1.400 . S
C616 C620 1.567 . S
C617 C616 1.400 . S
C617 C618 1.373 . S
C617 C639 1.432 . S
C618 C617 1.373 . S
C618 C619 1.339 . S
C618 C621 1.530 . S
C619 C614 1.304 . S
C619 C618 1.339 . S
C619 H680 0.930 . S
C620 C616 1.567 . S
C620 H681 0.961 . S
C620 H682 0.960 . S
C620 H683 0.958 . S
C621 C618 1.530 . S
C621 H684 0.961 . S
C621 H685 0.960 . S
C621 H686 0.960 . S
C622 C623 1.530 . S
C622 H688 0.961 . S
C622 H689 0.961 . S
C622 H690 0.959 . S
C623 C622 1.530 . S
C623 O651 1.412 . S
C623 H687 0.980 . S
C624 C625 1.288 . S
C624 C629 1.377 . S
C624 O651 1.393 . S
C625 C624 1.288 . S
C625 C626 1.369 . S
C625 H691 0.932 . S
C626 C625 1.369 . S
C626 C627 1.398 . S
C626 C630 1.527 . S
C627 C626 1.398 . S
C627 C628 1.380 . S
C627 C641 1.497 . S
C628 C627 1.380 . S
C628 C629 1.383 . S
C628 C631 1.603 . S
C629 C624 1.377 . S
C629 C628 1.383 . S
C629 H692 0.929 . S
C630 C626 1.527 . S
C630 H693 0.961 . S
C630 H694 0.959 . S
C630 H695 0.959 . S
C631 C628 1.603 . S
C631 H696 0.960 . S
C631 H697 0.962 . S
C631 H698 0.961 . S
C632 C599 1.587 . S
C632 C633 1.360 . S
C632 C645 1.412 . S
C633 C632 1.360 . S
C633 C634 1.365 . S
C633 H699 0.929 . S
C634 C609 1.553 . S
C634 C633 1.365 . S
C634 C635 1.404 . S
C635 C634 1.404 . S
C635 C636 1.395 . S
C635 C646 1.451 . S
C636 C635 1.395 . S
C636 C637 1.322 . S
C636 H700 0.930 . S
C637 C636 1.322 . S
C637 C638 1.459 . S
C637 H701 0.929 . S
C638 C637 1.459 . S
C638 C639 1.445 . S
C638 C647 1.395 . S
C639 C617 1.432 . S
C639 C638 1.445 . S
C639 C640 1.370 . S
C640 C639 1.370 . S
C640 C641 1.438 . S
C640 H702 0.930 . S
C641 C627 1.497 . S
C641 C640 1.438 . S
C641 C642 1.360 . S
C642 C641 1.360 . S
C642 C643 1.401 . S
C642 C647 1.446 . S
C643 C642 1.401 . S
C643 C644 1.347 . S
C643 H703 0.929 . S
C644 C643 1.347 . S
C644 C645 1.455 . S
C644 H704 0.930 . S
C645 C632 1.412 . S
C645 C644 1.455 . S
C645 C646 1.331 . S
C646 C635 1.451 . S
C646 C645 1.331 . S
C646 C647 1.497 . S
C647 C638 1.395 . S
C647 C642 1.446 . S
C647 C646 1.497 . S
C648 C649 1.582 . S
C648 H705 0.962 . S
C648 H706 0.959 . S
C648 H707 0.958 . S
C649 C648 1.582 . S
C649 O652 1.458 . S
C649 H678 0.980 . S
O650 C595 1.426 . S
O650 C596 1.334 . S
O651 C623 1.412 . S
O651 C624 1.393 . S
O652 C614 1.435 . S
O652 C649 1.458 . S
O653 C605 1.468 . S
O653 C606 1.408 . S
H654 C595 0.980 . S
H655 C594 0.959 . S
H656 C594 0.959 . S
H657 C594 0.960 . S
H658 C597 0.929 . S
H659 C601 0.929 . S
H660 C602 0.959 . S
H661 C602 0.961 . S
H662 C602 0.961 . S
H663 C603 0.960 . S
H664 C603 0.960 . S
H665 C603 0.961 . S
H666 C605 0.980 . S
H667 C604 0.961 . S
H668 C604 0.960 . S
H669 C604 0.959 . S
H670 C607 0.930 . S
H671 C611 0.931 . S
H672 C612 0.959 . S
H673 C612 0.961 . S
H674 C612 0.959 . S
H675 C613 0.960 . S
H676 C613 0.960 . S
H677 C613 0.960 . S
H678 C649 0.980 . S
H679 C615 0.930 . S
H680 C619 0.930 . S
H681 C620 0.961 . S
H682 C620 0.960 . S
H683 C620 0.958 . S
H684 C621 0.961 . S
H685 C621 0.960 . S
H686 C621 0.960 . S
H687 C623 0.980 . S
H688 C622 0.961 . S
H689 C622 0.961 . S
H690 C622 0.959 . S
H691 C625 0.932 . S
H692 C629 0.929 . S
H693 C630 0.961 . S
H694 C630 0.959 . S
H695 C630 0.959 . S
H696 C631 0.960 . S
H697 C631 0.962 . S
H698 C631 0.961 . S
H699 C633 0.929 . S
H700 C636 0.930 . S
H701 C637 0.929 . S
H702 C640 0.930 . S
H703 C643 0.929 . S
H704 C644 0.930 . S
H705 C648 0.962 . S
H706 C648 0.959 . S
H707 C648 0.958 . S
C708 C709 1.560 . S
C708 H769 0.959 . S
C708 H770 0.959 . S
C708 H771 0.960 . S
C709 C708 1.560 . S
C709 O764 1.426 . S
C709 H768 0.980 . S
C710 C711 1.407 . S
C710 C715 1.418 . S
C710 O764 1.334 . S
C711 C710 1.407 . S
C711 C712 1.360 . S
C711 H772 0.929 . S
C712 C711 1.360 . S
C712 C713 1.401 . S
C712 C716 1.527 . S
C713 C712 1.401 . S
C713 C714 1.405 . S
C713 C746 1.587 . S
C714 C713 1.405 . S
C714 C715 1.332 . S
C714 C717 1.496 . S
C715 C710 1.418 . S
C715 C714 1.332 . S
C715 H773 0.929 . S
C716 C712 1.527 . S
C716 H774 0.959 . S
C716 H775 0.961 . S
C716 H776 0.961 . S
C717 C714 1.496 . S
C717 H777 0.960 . S
C717 H778 0.960 . S
C717 H779 0.961 . S
C718 C719 1.517 . S
C718 H781 0.961 . S
C718 H782 0.960 . S
C718 H783 0.959 . S
C719 C718 1.517 . S
C719 O767 1.468 . S
C719 H780 0.980 . S
C720 C721 1.349 . S
C720 C725 1.367 . S
C720 O767 1.408 . S
C721 C720 1.349 . S
C721 C722 1.407 . S
C721 H784 0.930 . S
C722 C721 1.407 . S
C722 C723 1.449 . S
C722 C726 1.535 . S
C723 C722 1.449 . S
C723 C724 1.384 . S
C723 C748 1.553 . S
C724 C723 1.384 . S
C724 C725 1.364 . S
C724 C727 1.450 . S
C725 C720 1.367 . S
C725 C724 1.364 . S
C725 H785 0.931 . S
C726 C722 1.535 . S
C726 H786 0.959 . S
C726 H787 0.961 . S
C726 H788 0.959 . S
C727 C724 1.450 . S
C727 H789 0.960 . S
C727 H790 0.960 . S
C727 H791 0.960 . S
C728 C729 1.309 . S
C728 C733 1.304 . S
C728 O766 1.435 . S
C729 C728 1.309 . S
C729 C730 1.476 . S
C729 H793 0.930 . S
C730 C729 1.476 . S
C730 C731 1.400 . S
C730 C734 1.567 . S
C731 C730 1.400 . S
C731 C732 1.373 . S
C731 C753 1.432 . S
C732 C731 1.373 . S
C732 C733 1.339 . S
C732 C735 1.530 . S
C733 C728 1.304 . S
C733 C732 1.339 . S
C733 H794 0.930 . S
C734 C730 1.567 . S
C734 H795 0.961 . S
C734 H796 0.960 . S
C734 H797 0.958 . S
C735 C732 1.530 . S
C735 H798 0.961 . S
C735 H799 0.960 . S
C735 H800 0.960 . S
C736 C737 1.530 . S
C736 H802 0.961 . S
C736 H803 0.961 . S
C736 H804 0.959 . S
C737 C736 1.530 . S
C737 O765 1.412 . S
C737 H801 0.980 . S
C738 C739 1.288 . S
C738 C743 1.377 . S
C738 O765 1.393 . S
C739 C738 1.288 . S
C739 C740 1.369 . S
C739 H805 0.932 . S
C740 C739 1.369 . S
C740 C741 1.398 . S
C740 C744 1.527 . S
C741 C740 1.398 . S
C741 C742 1.380 . S
C741 C755 1.497 . S
C742 C741 1.380 . S
C742 C743 1.383 . S
C742 C745 1.603 . S
C743 C738 1.377 . S
C743 C742 1.383 . S
C743 H806 0.929 . S
C744 C740 1.527 . S
C744 H807 0.961 . S
C744 H808 0.959 . S
C744 H809 0.959 . S
C745 C742 1.603 . S
C745 H810 0.960 . S
C745 H811 0.962 . S
C745 H812 0.961 . S
C746 C713 1.587 . S
C746 C747 1.360 . S
C746 C759 1.412 . S
C747 C746 1.360 . S
C747 C748 1.365 . S
C747 H813 0.929 . S
C748 C723 1.553 . S
C748 C747 1.365 . S
C748 C749 1.404 . S
C749 C748 1.404 . S
C749 C750 1.395 . S
C749 C760 1.451 . S
C750 C749 1.395 . S
C750 C751 1.322 . S
C750 H814 0.930 . S
C751 C750 1.322 . S
C751 C752 1.459 . S
C751 H815 0.929 . S
C752 C751 1.459 . S
C752 C753 1.445 . S
C752 C761 1.395 . S
C753 C731 1.432 . S
C753 C752 1.445 . S
C753 C754 1.370 . S
C754 C753 1.370 . S
C754 C755 1.438 . S
C754 H816 0.930 . S
C755 C741 1.497 . S
C755 C754 1.438 . S
C755 C756 1.360 . S
C756 C755 1.360 . S
C756 C757 1.401 . S
C756 C761 1.446 . S
C757 C756 1.401 . S
C757 C758 1.347 . S
C757 H817 0.929 . S
C758 C757 1.347 . S
C758 C759 1.455 . S
C758 H818 0.930 . S
C759 C746 1.412 . S
C759 C758 1.455 . S
C759 C760 1.331 . S
C760 C749 1.451 . S
C760 C759 1.331 . S
C760 C761 1.497 . S
C761 C752 1.395 . S
C761 C756 1.446 . S
C761 C760 1.497 . S
C762 C763 1.582 . S
C762 H819 0.962 . S
C762 H820 0.959 . S
C762 H821 0.958 . S
C763 C762 1.582 . S
C763 O766 1.458 . S
C763 H792 0.980 . S
O764 C709 1.426 . S
O764 C710 1.334 . S
O765 C737 1.412 . S
O765 C738 1.393 . S
O766 C728 1.435 . S
O766 C763 1.458 . S
O767 C719 1.468 . S
O767 C720 1.408 . S
H768 C709 0.980 . S
H769 C708 0.959 . S
H770 C708 0.959 . S
H771 C708 0.960 . S
H772 C711 0.929 . S
H773 C715 0.929 . S
H774 C716 0.959 . S
H775 C716 0.961 . S
H776 C716 0.961 . S
H777 C717 0.960 . S
H778 C717 0.960 . S
H779 C717 0.961 . S
H780 C719 0.980 . S
H781 C718 0.961 . S
H782 C718 0.960 . S
H783 C718 0.959 . S
H784 C721 0.930 . S
H785 C725 0.931 . S
H786 C726 0.959 . S
H787 C726 0.961 . S
H788 C726 0.959 . S
H789 C727 0.960 . S
H790 C727 0.960 . S
H791 C727 0.960 . S
H792 C763 0.980 . S
H793 C729 0.930 . S
H794 C733 0.930 . S
H795 C734 0.961 . S
H796 C734 0.960 . S
H797 C734 0.958 . S
H798 C735 0.961 . S
H799 C735 0.960 . S
H800 C735 0.960 . S
H801 C737 0.980 . S
H802 C736 0.961 . S
H803 C736 0.961 . S
H804 C736 0.959 . S
H805 C739 0.932 . S
H806 C743 0.929 . S
H807 C744 0.961 . S
H808 C744 0.959 . S
H809 C744 0.959 . S
H810 C745 0.960 . S
H811 C745 0.962 . S
H812 C745 0.961 . S
H813 C747 0.929 . S
H814 C750 0.930 . S
H815 C751 0.929 . S
H816 C754 0.930 . S
H817 C757 0.929 . S
H818 C758 0.930 . S
H819 C762 0.962 . S
H820 C762 0.959 . S
H821 C762 0.958 . S
C822 C823 1.560 . S
C822 H883 0.959 . S
C822 H884 0.959 . S
C822 H885 0.960 . S
C823 C822 1.560 . S
C823 O878 1.426 . S
C823 H882 0.980 . S
C824 C825 1.407 . S
C824 C829 1.418 . S
C824 O878 1.334 . S
C825 C824 1.407 . S
C825 C826 1.360 . S
C825 H886 0.929 . S
C826 C825 1.360 . S
C826 C827 1.401 . S
C826 C830 1.527 . S
C827 C826 1.401 . S
C827 C828 1.405 . S
C827 C860 1.587 . S
C828 C827 1.405 . S
C828 C829 1.332 . S
C828 C831 1.496 . S
C829 C824 1.418 . S
C829 C828 1.332 . S
C829 H887 0.929 . S
C830 C826 1.527 . S
C830 H888 0.959 . S
C830 H889 0.961 . S
C830 H890 0.961 . S
C831 C828 1.496 . S
C831 H891 0.960 . S
C831 H892 0.960 . S
C831 H893 0.961 . S
C832 C833 1.517 . S
C832 H895 0.961 . S
C832 H896 0.960 . S
C832 H897 0.959 . S
C833 C832 1.517 . S
C833 O881 1.468 . S
C833 H894 0.980 . S
C834 C835 1.349 . S
C834 C839 1.367 . S
C834 O881 1.408 . S
C835 C834 1.349 . S
C835 C836 1.407 . S
C835 H898 0.930 . S
C836 C835 1.407 . S
C836 C837 1.449 . S
C836 C840 1.535 . S
C837 C836 1.449 . S
C837 C838 1.384 . S
C837 C862 1.553 . S
C838 C837 1.384 . S
C838 C839 1.364 . S
C838 C841 1.450 . S
C839 C834 1.367 . S
C839 C838 1.364 . S
C839 H899 0.931 . S
C840 C836 1.535 . S
C840 H900 0.959 . S
C840 H901 0.961 . S
C840 H902 0.959 . S
C841 C838 1.450 . S
C841 H903 0.960 . S
C841 H904 0.960 . S
C841 H905 0.960 . S
C842 C843 1.309 . S
C842 C847 1.304 . S
C842 O880 1.435 . S
C843 C842 1.309 . S
C843 C844 1.476 . S
C843 H907 0.930 . S
C844 C843 1.476 . S
C844 C845 1.400 . S
C844 C848 1.567 . S
C845 C844 1.400 . S
C845 C846 1.373 . S
C845 C867 1.432 . S
C846 C845 1.373 . S
C846 C847 1.339 . S
C846 C849 1.530 . S
C847 C842 1.304 . S
C847 C846 1.339 . S
C847 H908 0.930 . S
C848 C844 1.567 . S
C848 H909 0.961 . S
C848 H910 0.960 . S
C848 H911 0.958 . S
C849 C846 1.530 . S
C849 H912 0.961 . S
C849 H913 0.960 . S
C849 H914 0.960 . S
C850 C851 1.530 . S
C850 H916 0.961 . S
C850 H917 0.961 . S
C850 H918 0.959 . S
C851 C850 1.530 . S
C851 O879 1.412 . S
C851 H915 0.980 . S
C852 C853 1.288 . S
C852 C857 1.377 . S
C852 O879 1.393 . S
C853 C852 1.288 . S
C853 C854 1.369 . S
C853 H919 0.932 . S
C854 C853 1.369 . S
C854 C855 1.398 . S
C854 C858 1.527 . S
C855 C854 1.398 . S
C855 C856 1.380 . S
C855 C869 1.497 . S
C856 C855 1.380 . S
C856 C857 1.383 . S
C856 C859 1.603 . S
C857 C852 1.377 . S
C857 C856 1.383 . S
C857 H920 0.929 . S
C858 C854 1.527 . S
C858 H921 0.961 . S
C858 H922 0.959 . S
C858 H923 0.959 . S
C859 C856 1.603 . S
C859 H924 0.960 . S
C859 H925 0.962 . S
C859 H926 0.961 . S
C860 C827 1.587 . S
C860 C861 1.360 . S
C860 C873 1.412 . S
C861 C860 1.360 . S
C861 C862 1.365 . S
C861 H927 0.929 . S
C862 C837 1.553 . S
C862 C861 1.365 . S
C862 C863 1.404 . S
C863 C862 1.404 . S
C863 C864 1.395 . S
C863 C874 1.451 . S
C864 C863 1.395 . S
C864 C865 1.322 . S
C864 H928 0.930 . S
C865 C864 1.322 . S
C865 C866 1.459 . S
C865 H929 0.929 . S
C866 C865 1.459 . S
C866 C867 1.445 . S
C866 C875 1.395 . S
C867 C845 1.432 . S
C867 C866 1.445 . S
C867 C868 1.370 . S
C868 C867 1.370 . S
C868 C869 1.438 . S
C868 H930 0.930 . S
C869 C855 1.497 . S
C869 C868 1.438 . S
C869 C870 1.360 . S
C870 C869 1.360 . S
C870 C871 1.401 . S
C870 C875 1.446 . S
C871 C870 1.401 . S
C871 C872 1.347 . S
C871 H931 0.929 . S
C872 C871 1.347 . S
C872 C873 1.455 . S
C872 H932 0.930 . S
C873 C860 1.412 . S
C873 C872 1.455 . S
C873 C874 1.331 . S
C874 C863 1.451 . S
C874 C873 1.331 . S
C874 C875 1.497 . S
C875 C866 1.395 . S
C875 C870 1.446 . S
C875 C874 1.497 . S
C876 C877 1.582 . S
C876 H933 0.962 . S
C876 H934 0.959 . S
C876 H935 0.958 . S
C877 C876 1.582 . S
C877 O880 1.458 . S
C877 H906 0.980 . S
O878 C823 1.426 . S
O878 C824 1.334 . S
O879 C851 1.412 . S
O879 C852 1.393 . S
O880 C842 1.435 . S
O880 C877 1.458 . S
O881 C833 1.468 . S
O881 C834 1.408 . S
H882 C823 0.980 . S
H883 C822 0.959 . S
H884 C822 0.959 . S
H885 C822 0.960 . S
H886 C825 0.929 . S
H887 C829 0.929 . S
H888 C830 0.959 . S
H889 C830 0.961 . S
H890 C830 0.961 . S
H891 C831 0.960 . S
H892 C831 0.960 . S
H893 C831 0.961 . S
H894 C833 0.980 . S
H895 C832 0.961 . S
H896 C832 0.960 . S
H897 C832 0.959 . S
H898 C835 0.930 . S
H899 C839 0.931 . S
H900 C840 0.959 . S
H901 C840 0.961 . S
H902 C840 0.959 . S
H903 C841 0.960 . S
H904 C841 0.960 . S
H905 C841 0.960 . S
H906 C877 0.980 . S
H907 C843 0.930 . S
H908 C847 0.930 . S
H909 C848 0.961 . S
H910 C848 0.960 . S
H911 C848 0.958 . S
H912 C849 0.961 . S
H913 C849 0.960 . S
H914 C849 0.960 . S
H915 C851 0.980 . S
H916 C850 0.961 . S
H917 C850 0.961 . S
H918 C850 0.959 . S
H919 C853 0.932 . S
H920 C857 0.929 . S
H921 C858 0.961 . S
H922 C858 0.959 . S
H923 C858 0.959 . S
H924 C859 0.960 . S
H925 C859 0.962 . S
H926 C859 0.961 . S
H927 C861 0.929 . S
H928 C864 0.930 . S
H929 C865 0.929 . S
H930 C868 0.930 . S
H931 C871 0.929 . S
H932 C872 0.930 . S
H933 C876 0.962 . S
H934 C876 0.959 . S
H935 C876 0.958 . S
C936 C937 1.560 . S
C936 H997 0.959 . S
C936 H998 0.959 . S
C936 H999 0.960 . S
C937 C936 1.560 . S
C937 O992 1.426 . S
C937 H996 0.980 . S
C938 C939 1.407 . S
C938 C943 1.418 . S
C938 O992 1.334 . S
C939 C938 1.407 . S
C939 C940 1.360 . S
C939 H1000 0.929 . S
C940 C939 1.360 . S
C940 C941 1.401 . S
C940 C944 1.527 . S
C941 C940 1.401 . S
C941 C942 1.405 . S
C941 C974 1.587 . S
C942 C941 1.405 . S
C942 C943 1.332 . S
C942 C945 1.496 . S
C943 C938 1.418 . S
C943 C942 1.332 . S
C943 H1001 0.929 . S
C944 C940 1.527 . S
C944 H1002 0.959 . S
C944 H1003 0.961 . S
C944 H1004 0.961 . S
C945 C942 1.496 . S
C945 H1005 0.960 . S
C945 H1006 0.960 . S
C945 H1007 0.961 . S
C946 C947 1.517 . S
C946 H1009 0.961 . S
C946 H1010 0.960 . S
C946 H1011 0.959 . S
C947 C946 1.517 . S
C947 O995 1.468 . S
C947 H1008 0.980 . S
C948 C949 1.349 . S
C948 C953 1.367 . S
C948 O995 1.408 . S
C949 C948 1.349 . S
C949 C950 1.407 . S
C949 H1012 0.930 . S
C950 C949 1.407 . S
C950 C951 1.449 . S
C950 C954 1.535 . S
C951 C950 1.449 . S
C951 C952 1.384 . S
C951 C976 1.553 . S
C952 C951 1.384 . S
C952 C953 1.364 . S
C952 C955 1.450 . S
C953 C948 1.367 . S
C953 C952 1.364 . S
C953 H1013 0.931 . S
C954 C950 1.535 . S
C954 H1014 0.959 . S
C954 H1015 0.961 . S
C954 H1016 0.959 . S
C955 C952 1.450 . S
C955 H1017 0.960 . S
C955 H1018 0.960 . S
C955 H1019 0.960 . S
C956 C957 1.309 . S
C956 C961 1.304 . S
C956 O994 1.435 . S
C957 C956 1.309 . S
C957 C958 1.476 . S
C957 H1021 0.930 . S
C958 C957 1.476 . S
C958 C959 1.400 . S
C958 C962 1.567 . S
C959 C958 1.400 . S
C959 C960 1.373 . S
C959 C981 1.432 . S
C960 C959 1.373 . S
C960 C961 1.339 . S
C960 C963 1.530 . S
C961 C956 1.304 . S
C961 C960 1.339 . S
C961 H1022 0.930 . S
C962 C958 1.567 . S
C962 H1023 0.961 . S
C962 H1024 0.960 . S
C962 H1025 0.958 . S
C963 C960 1.530 . S
C963 H1026 0.961 . S
C963 H1027 0.960 . S
C963 H1028 0.960 . S
C964 C965 1.530 . S
C964 H1030 0.961 . S
C964 H1031 0.961 . S
C964 H1032 0.959 . S
C965 C964 1.530 . S
C965 O993 1.412 . S
C965 H1029 0.980 . S
C966 C967 1.288 . S
C966 C971 1.377 . S
C966 O993 1.393 . S
C967 C966 1.288 . S
C967 C968 1.369 . S
C967 H1033 0.932 . S
C968 C967 1.369 . S
C968 C969 1.398 . S
C968 C972 1.527 . S
C969 C968 1.398 . S
C969 C970 1.380 . S
C969 C983 1.497 . S
C970 C969 1.380 . S
C970 C971 1.383 . S
C970 C973 1.603 . S
C971 C966 1.377 . S
C971 C970 1.383 . S
C971 H1034 0.929 . S
C972 C968 1.527 . S
C972 H1035 0.961 . S
C972 H1036 0.959 . S
C972 H1037 0.959 . S
C973 C970 1.603 . S
C973 H1038 0.960 . S
C973 H1039 0.962 . S
C973 H1040 0.961 . S
C974 C941 1.587 . S
C974 C975 1.360 . S
C974 C987 1.412 . S
C975 C974 1.360 . S
C975 C976 1.365 . S
C975 H1041 0.929 . S
C976 C951 1.553 . S
C976 C975 1.365 . S
C976 C977 1.404 . S
C977 C976 1.404 . S
C977 C978 1.395 . S
C977 C988 1.451 . S
C978 C977 1.395 . S
C978 C979 1.322 . S
C978 H1042 0.930 . S
C979 C978 1.322 . S
C979 C980 1.459 . S
C979 H1043 0.929 . S
C980 C979 1.459 . S
C980 C981 1.445 . S
C980 C989 1.395 . S
C981 C959 1.432 . S
C981 C980 1.445 . S
C981 C982 1.370 . S
C982 C981 1.370 . S
C982 C983 1.438 . S
C982 H1044 0.930 . S
C983 C969 1.497 . S
C983 C982 1.438 . S
C983 C984 1.360 . S
C984 C983 1.360 . S
C984 C985 1.401 . S
C984 C989 1.446 . S
C985 C984 1.401 . S
C985 C986 1.347 . S
C985 H1045 0.929 . S
C986 C985 1.347 . S
C986 C987 1.455 . S
C986 H1046 0.930 . S
C987 C974 1.412 . S
C987 C986 1.455 . S
C987 C988 1.331 . S
C988 C977 1.451 . S
C988 C987 1.331 . S
C988 C989 1.497 . S
C989 C980 1.395 . S
C989 C984 1.446 . S
C989 C988 1.497 . S
C990 C991 1.582 . S
C990 H1047 0.962 . S
C990 H1048 0.959 . S
C990 H1049 0.958 . S
C991 C990 1.582 . S
C991 O994 1.458 . S
C991 H1020 0.980 . S
O992 C937 1.426 . S
O992 C938 1.334 . S
O993 C965 1.412 . S
O993 C966 1.393 . S
O994 C956 1.435 . S
O994 C991 1.458 . S
O995 C947 1.468 . S
O995 C948 1.408 . S
H996 C937 0.980 . S
H997 C936 0.959 . S
H998 C936 0.959 . S
H999 C936 0.960 . S
H1000 C939 0.929 . S
H1001 C943 0.929 . S
H1002 C944 0.959 . S
H1003 C944 0.961 . S
H1004 C944 0.961 . S
H1005 C945 0.960 . S
H1006 C945 0.960 . S
H1007 C945 0.961 . S
H1008 C947 0.980 . S
H1009 C946 0.961 . S
H1010 C946 0.960 . S
H1011 C946 0.959 . S
H1012 C949 0.930 . S
H1013 C953 0.931 . S
H1014 C954 0.959 . S
H1015 C954 0.961 . S
H1016 C954 0.959 . S
H1017 C955 0.960 . S
H1018 C955 0.960 . S
H1019 C955 0.960 . S
H1020 C991 0.980 . S
H1021 C957 0.930 . S
H1022 C961 0.930 . S
H1023 C962 0.961 . S
H1024 C962 0.960 . S
H1025 C962 0.958 . S
H1026 C963 0.961 . S
H1027 C963 0.960 . S
H1028 C963 0.960 . S
H1029 C965 0.980 . S
H1030 C964 0.961 . S
H1031 C964 0.961 . S
H1032 C964 0.959 . S
H1033 C967 0.932 . S
H1034 C971 0.929 . S
H1035 C972 0.961 . S
H1036 C972 0.959 . S
H1037 C972 0.959 . S
H1038 C973 0.960 . S
H1039 C973 0.962 . S
H1040 C973 0.961 . S
H1041 C975 0.929 . S
H1042 C978 0.930 . S
H1043 C979 0.929 . S
H1044 C982 0.930 . S
H1045 C985 0.929 . S
H1046 C986 0.930 . S
H1047 C990 0.962 . S
H1048 C990 0.959 . S
H1049 C990 0.958 . S
C1050 C1051 1.560 . S
C1050 H1111 0.959 . S
C1050 H1112 0.959 . S
C1050 H1113 0.960 . S
C1051 C1050 1.560 . S
C1051 O1106 1.426 . S
C1051 H1110 0.980 . S
C1052 C1053 1.407 . S
C1052 C1057 1.418 . S
C1052 O1106 1.334 . S
C1053 C1052 1.407 . S
C1053 C1054 1.360 . S
C1053 H1114 0.929 . S
C1054 C1053 1.360 . S
C1054 C1055 1.401 . S
C1054 C1058 1.527 . S
C1055 C1054 1.401 . S
C1055 C1056 1.405 . S
C1055 C1088 1.587 . S
C1056 C1055 1.405 . S
C1056 C1057 1.332 . S
C1056 C1059 1.496 . S
C1057 C1052 1.418 . S
C1057 C1056 1.332 . S
C1057 H1115 0.929 . S
C1058 C1054 1.527 . S
C1058 H1116 0.959 . S
C1058 H1117 0.961 . S
C1058 H1118 0.961 . S
C1059 C1056 1.496 . S
C1059 H1119 0.960 . S
C1059 H1120 0.960 . S
C1059 H1121 0.961 . S
C1060 C1061 1.517 . S
C1060 H1123 0.961 . S
C1060 H1124 0.960 . S
C1060 H1125 0.959 . S
C1061 C1060 1.517 . S
C1061 O1109 1.468 . S
C1061 H1122 0.980 . S
C1062 C1063 1.349 . S
C1062 C1067 1.367 . S
C1062 O1109 1.408 . S
C1063 C1062 1.349 . S
C1063 C1064 1.407 . S
C1063 H1126 0.930 . S
C1064 C1063 1.407 . S
C1064 C1065 1.449 . S
C1064 C1068 1.535 . S
C1065 C1064 1.449 . S
C1065 C1066 1.384 . S
C1065 C1090 1.553 . S
C1066 C1065 1.384 . S
C1066 C1067 1.364 . S
C1066 C1069 1.450 . S
C1067 C1062 1.367 . S
C1067 C1066 1.364 . S
C1067 H1127 0.931 . S
C1068 C1064 1.535 . S
C1068 H1128 0.959 . S
C1068 H1129 0.961 . S
C1068 H1130 0.959 . S
C1069 C1066 1.450 . S
C1069 H1131 0.960 . S
C1069 H1132 0.960 . S
C1069 H1133 0.960 . S
C1070 C1071 1.309 . S
C1070 C1075 1.304 . S
C1070 O1108 1.435 . S
C1071 C1070 1.309 . S
C1071 C1072 1.476 . S
C1071 H1135 0.930 . S
C1072 C1071 1.476 . S
C1072 C1073 1.400 . S
C1072 C1076 1.567 . S
C1073 C1072 1.400 . S
C1073 C1074 1.373 . S
C1073 C1095 1.432 . S
C1074 C1073 1.373 . S
C1074 C1075 1.339 . S
C1074 C1077 1.530 . S
C1075 C1070 1.304 . S
C1075 C1074 1.339 . S
C1075 H1136 0.930 . S
C1076 C1072 1.567 . S
C1076 H1137 0.961 . S
C1076 H1138 0.960 . S
C1076 H1139 0.958 . S
C1077 C1074 1.530 . S
C1077 H1140 0.961 . S
C1077 H1141 0.960 . S
C1077 H1142 0.960 . S
C1078 C1079 1.530 . S
C1078 H1144 0.961 . S
C1078 H1145 0.961 . S
C1078 H1146 0.959 . S
C1079 C1078 1.530 . S
C1079 O1107 1.412 . S
C1079 H1143 0.980 . S
C1080 C1081 1.288 . S
C1080 C1085 1.377 . S
C1080 O1107 1.393 . S
C1081 C1080 1.288 . S
C1081 C1082 1.369 . S
C1081 H1147 0.932 . S
C1082 C1081 1.369 . S
C1082 C1083 1.398 . S
C1082 C1086 1.527 . S
C1083 C1082 1.398 . S
C1083 C1084 1.380 . S
C1083 C1097 1.497 . S
C1084 C1083 1.380 . S
C1084 C1085 1.383 . S
C1084 C1087 1.603 . S
C1085 C1080 1.377 . S
C1085 C1084 1.383 . S
C1085 H1148 0.929 . S
C1086 C1082 1.527 . S
C1086 H1149 0.961 . S
C1086 H1150 0.959 . S
C1086 H1151 0.959 . S
C1087 C1084 1.603 . S
C1087 H1152 0.960 . S
C1087 H1153 0.962 . S
C1087 H1154 0.961 . S
C1088 C1055 1.587 . S
C1088 C1089 1.360 . S
C1088 C1101 1.412 . S
C1089 C1088 1.360 . S
C1089 C1090 1.365 . S
C1089 H1155 0.929 . S
C1090 C1065 1.553 . S
C1090 C1089 1.365 . S
C1090 C1091 1.404 . S
C1091 C1090 1.404 . S
C1091 C1092 1.395 . S
C1091 C1102 1.451 . S
C1092 C1091 1.395 . S
C1092 C1093 1.322 . S
C1092 H1156 0.930 . S
C1093 C1092 1.322 . S
C1093 C1094 1.459 . S
C1093 H1157 0.929 . S
C1094 C1093 1.459 . S
C1094 C1095 1.445 . S
C1094 C1103 1.395 . S
C1095 C1073 1.432 . S
C1095 C1094 1.445 . S
C1095 C1096 1.370 . S
C1096 C1095 1.370 . S
C1096 C1097 1.438 . S
C1096 H1158 0.930 . S
C1097 C1083 1.497 . S
C1097 C1096 1.438 . S
C1097 C1098 1.360 . S
C1098 C1097 1.360 . S
C1098 C1099 1.401 . S
C1098 C1103 1.446 . S
C1099 C1098 1.401 . S
C1099 C1100 1.347 . S
C1099 H1159 0.929 . S
C1100 C1099 1.347 . S
C1100 C1101 1.455 . S
C1100 H1160 0.930 . S
C1101 C1088 1.412 . S
C1101 C1100 1.455 . S
C1101 C1102 1.331 . S
C1102 C1091 1.451 . S
C1102 C1101 1.331 . S
C1102 C1103 1.497 . S
C1103 C1094 1.395 . S
C1103 C1098 1.446 . S
C1103 C1102 1.497 . S
C1104 C1105 1.582 . S
C1104 H1161 0.962 . S
C1104 H1162 0.959 . S
C1104 H1163 0.958 . S
C1105 C1104 1.582 . S
C1105 O1108 1.458 . S
C1105 H1134 0.980 . S
O1106 C1051 1.426 . S
O1106 C1052 1.334 . S
O1107 C1079 1.412 . S
O1107 C1080 1.393 . S
O1108 C1070 1.435 . S
O1108 C1105 1.458 . S
O1109 C1061 1.468 . S
O1109 C1062 1.408 . S
H1110 C1051 0.980 . S
H1111 C1050 0.959 . S
H1112 C1050 0.959 . S
H1113 C1050 0.960 . S
H1114 C1053 0.929 . S
H1115 C1057 0.929 . S
H1116 C1058 0.959 . S
H1117 C1058 0.961 . S
H1118 C1058 0.961 . S
H1119 C1059 0.960 . S
H1120 C1059 0.960 . S
H1121 C1059 0.961 . S
H1122 C1061 0.980 . S
H1123 C1060 0.961 . S
H1124 C1060 0.960 . S
H1125 C1060 0.959 . S
H1126 C1063 0.930 . S
H1127 C1067 0.931 . S
H1128 C1068 0.959 . S
H1129 C1068 0.961 . S
H1130 C1068 0.959 . S
H1131 C1069 0.960 . S
H1132 C1069 0.960 . S
H1133 C1069 0.960 . S
H1134 C1105 0.980 . S
H1135 C1071 0.930 . S
H1136 C1075 0.930 . S
H1137 C1076 0.961 . S
H1138 C1076 0.960 . S
H1139 C1076 0.958 . S
H1140 C1077 0.961 . S
H1141 C1077 0.960 . S
H1142 C1077 0.960 . S
H1143 C1079 0.980 . S
H1144 C1078 0.961 . S
H1145 C1078 0.961 . S
H1146 C1078 0.959 . S
H1147 C1081 0.932 . S
H1148 C1085 0.929 . S
H1149 C1086 0.961 . S
H1150 C1086 0.959 . S
H1151 C1086 0.959 . S
H1152 C1087 0.960 . S
H1153 C1087 0.962 . S
H1154 C1087 0.961 . S
H1155 C1089 0.929 . S
H1156 C1092 0.930 . S
H1157 C1093 0.929 . S
H1158 C1096 0.930 . S
H1159 C1099 0.929 . S
H1160 C1100 0.930 . S
H1161 C1104 0.962 . S
H1162 C1104 0.959 . S
H1163 C1104 0.958 . S
C1164 C1165 1.560 . S
C1164 H1225 0.959 . S
C1164 H1226 0.959 . S
C1164 H1227 0.960 . S
C1165 C1164 1.560 . S
C1165 O1220 1.426 . S
C1165 H1224 0.980 . S
C1166 C1167 1.407 . S
C1166 C1171 1.418 . S
C1166 O1220 1.334 . S
C1167 C1166 1.407 . S
C1167 C1168 1.360 . S
C1167 H1228 0.929 . S
C1168 C1167 1.360 . S
C1168 C1169 1.401 . S
C1168 C1172 1.527 . S
C1169 C1168 1.401 . S
C1169 C1170 1.405 . S
C1169 C1202 1.587 . S
C1170 C1169 1.405 . S
C1170 C1171 1.332 . S
C1170 C1173 1.496 . S
C1171 C1166 1.418 . S
C1171 C1170 1.332 . S
C1171 H1229 0.929 . S
C1172 C1168 1.527 . S
C1172 H1230 0.959 . S
C1172 H1231 0.961 . S
C1172 H1232 0.961 . S
C1173 C1170 1.496 . S
C1173 H1233 0.960 . S
C1173 H1234 0.960 . S
C1173 H1235 0.961 . S
C1174 C1175 1.517 . S
C1174 H1237 0.961 . S
C1174 H1238 0.960 . S
C1174 H1239 0.959 . S
C1175 C1174 1.517 . S
C1175 O1223 1.468 . S
C1175 H1236 0.980 . S
C1176 C1177 1.349 . S
C1176 C1181 1.367 . S
C1176 O1223 1.408 . S
C1177 C1176 1.349 . S
C1177 C1178 1.407 . S
C1177 H1240 0.930 . S
C1178 C1177 1.407 . S
C1178 C1179 1.449 . S
C1178 C1182 1.535 . S
C1179 C1178 1.449 . S
C1179 C1180 1.384 . S
C1179 C1204 1.553 . S
C1180 C1179 1.384 . S
C1180 C1181 1.364 . S
C1180 C1183 1.450 . S
C1181 C1176 1.367 . S
C1181 C1180 1.364 . S
C1181 H1241 0.931 . S
C1182 C1178 1.535 . S
C1182 H1242 0.959 . S
C1182 H1243 0.961 . S
C1182 H1244 0.959 . S
C1183 C1180 1.450 . S
C1183 H1245 0.960 . S
C1183 H1246 0.960 . S
C1183 H1247 0.960 . S
C1184 C1185 1.309 . S
C1184 C1189 1.304 . S
C1184 O1222 1.435 . S
C1185 C1184 1.309 . S
C1185 C1186 1.476 . S
C1185 H1249 0.930 . S
C1186 C1185 1.476 . S
C1186 C1187 1.400 . S
C1186 C1190 1.567 . S
C1187 C1186 1.400 . S
C1187 C1188 1.373 . S
C1187 C1209 1.432 . S
C1188 C1187 1.373 . S
C1188 C1189 1.339 . S
C1188 C1191 1.530 . S
C1189 C1184 1.304 . S
C1189 C1188 1.339 . S
C1189 H1250 0.930 . S
C1190 C1186 1.567 . S
C1190 H1251 0.961 . S
C1190 H1252 0.960 . S
C1190 H1253 0.958 . S
C1191 C1188 1.530 . S
C1191 H1254 0.961 . S
C1191 H1255 0.960 . S
C1191 H1256 0.960 . S
C1192 C1193 1.530 . S
C1192 H1258 0.961 . S
C1192 H1259 0.961 . S
C1192 H1260 0.959 . S
C1193 C1192 1.530 . S
C1193 O1221 1.412 . S
C1193 H1257 0.980 . S
C1194 C1195 1.288 . S
C1194 C1199 1.377 . S
C1194 O1221 1.393 . S
C1195 C1194 1.288 . S
C1195 C1196 1.369 . S
C1195 H1261 0.932 . S
C1196 C1195 1.369 . S
C1196 C1197 1.398 . S
C1196 C1200 1.527 . S
C1197 C1196 1.398 . S
C1197 C1198 1.380 . S
C1197 C1211 1.497 . S
C1198 C1197 1.380 . S
C1198 C1199 1.383 . S
C1198 C1201 1.603 . S
C1199 C1194 1.377 . S
C1199 C1198 1.383 . S
C1199 H1262 0.929 . S
C1200 C1196 1.527 . S
C1200 H1263 0.961 . S
C1200 H1264 0.959 . S
C1200 H1265 0.959 . S
C1201 C1198 1.603 . S
C1201 H1266 0.960 . S
C1201 H1267 0.962 . S
C1201 H1268 0.961 . S
C1202 C1169 1.587 . S
C1202 C1203 1.360 . S
C1202 C1215 1.412 . S
C1203 C1202 1.360 . S
C1203 C1204 1.365 . S
C1203 H1269 0.929 . S
C1204 C1179 1.553 . S
C1204 C1203 1.365 . S
C1204 C1205 1.404 . S
C1205 C1204 1.404 . S
C1205 C1206 1.395 . S
C1205 C1216 1.451 . S
C1206 C1205 1.395 . S
C1206 C1207 1.322 . S
C1206 H1270 0.930 . S
C1207 C1206 1.322 . S
C1207 C1208 1.459 . S
C1207 H1271 0.929 . S
C1208 C1207 1.459 . S
C1208 C1209 1.445 . S
C1208 C1217 1.395 . S
C1209 C1187 1.432 . S
C1209 C1208 1.445 . S
C1209 C1210 1.370 . S
C1210 C1209 1.370 . S
C1210 C1211 1.438 . S
C1210 H1272 0.930 . S
C1211 C1197 1.497 . S
C1211 C1210 1.438 . S
C1211 C1212 1.360 . S
C1212 C1211 1.360 . S
C1212 C1213 1.401 . S
C1212 C1217 1.446 . S
C1213 C1212 1.401 . S
C1213 C1214 1.347 . S
C1213 H1273 0.929 . S
C1214 C1213 1.347 . S
C1214 C1215 1.455 . S
C1214 H1274 0.930 . S
C1215 C1202 1.412 . S
C1215 C1214 1.455 . S
C1215 C1216 1.331 . S
C1216 C1205 1.451 . S
C1216 C1215 1.331 . S
C1216 C1217 1.497 . S
C1217 C1208 1.395 . S
C1217 C1212 1.446 . S
C1217 C1216 1.497 . S
C1218 C1219 1.582 . S
C1218 H1275 0.962 . S
C1218 H1276 0.959 . S
C1218 H1277 0.958 . S
C1219 C1218 1.582 . S
C1219 O1222 1.458 . S
C1219 H1248 0.980 . S
O1220 C1165 1.426 . S
O1220 C1166 1.334 . S
O1221 C1193 1.412 . S
O1221 C1194 1.393 . S
O1222 C1184 1.435 . S
O1222 C1219 1.458 . S
O1223 C1175 1.468 . S
O1223 C1176 1.408 . S
H1224 C1165 0.980 . S
H1225 C1164 0.959 . S
H1226 C1164 0.959 . S
H1227 C1164 0.960 . S
H1228 C1167 0.929 . S
H1229 C1171 0.929 . S
H1230 C1172 0.959 . S
H1231 C1172 0.961 . S
H1232 C1172 0.961 . S
H1233 C1173 0.960 . S
H1234 C1173 0.960 . S
H1235 C1173 0.961 . S
H1236 C1175 0.980 . S
H1237 C1174 0.961 . S
H1238 C1174 0.960 . S
H1239 C1174 0.959 . S
H1240 C1177 0.930 . S
H1241 C1181 0.931 . S
H1242 C1182 0.959 . S
H1243 C1182 0.961 . S
H1244 C1182 0.959 . S
H1245 C1183 0.960 . S
H1246 C1183 0.960 . S
H1247 C1183 0.960 . S
H1248 C1219 0.980 . S
H1249 C1185 0.930 . S
H1250 C1189 0.930 . S
H1251 C1190 0.961 . S
H1252 C1190 0.960 . S
H1253 C1190 0.958 . S
H1254 C1191 0.961 . S
H1255 C1191 0.960 . S
H1256 C1191 0.960 . S
H1257 C1193 0.980 . S
H1258 C1192 0.961 . S
H1259 C1192 0.961 . S
H1260 C1192 0.959 . S
H1261 C1195 0.932 . S
H1262 C1199 0.929 . S
H1263 C1200 0.961 . S
H1264 C1200 0.959 . S
H1265 C1200 0.959 . S
H1266 C1201 0.960 . S
H1267 C1201 0.962 . S
H1268 C1201 0.961 . S
H1269 C1203 0.929 . S
H1270 C1206 0.930 . S
H1271 C1207 0.929 . S
H1272 C1210 0.930 . S
H1273 C1213 0.929 . S
H1274 C1214 0.930 . S
H1275 C1218 0.962 . S
H1276 C1218 0.959 . S
H1277 C1218 0.958 . S
C1278 C1279 1.560 . S
C1278 H1339 0.959 . S
C1278 H1340 0.959 . S
C1278 H1341 0.960 . S
C1279 C1278 1.560 . S
C1279 O1334 1.426 . S
C1279 H1338 0.980 . S
C1280 C1281 1.407 1_455 S
C1280 C1285 1.418 . S
C1280 O1334 1.334 . S
C1281 C1280 1.407 1_655 S
C1281 C1282 1.360 . S
C1281 H1342 0.929 . S
C1282 C1281 1.360 . S
C1282 C1283 1.401 1_655 S
C1282 C1286 1.527 . S
C1283 C1282 1.401 1_455 S
C1283 C1284 1.405 . S
C1283 C1316 1.587 1_455 S
C1284 C1283 1.405 . S
C1284 C1285 1.332 . S
C1284 C1287 1.496 . S
C1285 C1280 1.418 . S
C1285 C1284 1.332 . S
C1285 H1343 0.929 . S
C1286 C1282 1.527 . S
C1286 H1344 0.959 . S
C1286 H1345 0.961 . S
C1286 H1346 0.961 . S
C1287 C1284 1.496 . S
C1287 H1347 0.960 . S
C1287 H1348 0.960 . S
C1287 H1349 0.961 . S
C1288 C1289 1.517 . S
C1288 H1351 0.961 . S
C1288 H1352 0.960 . S
C1288 H1353 0.959 . S
C1289 C1288 1.517 . S
C1289 O1337 1.468 . S
C1289 H1350 0.942 1_655 S
C1290 C1291 1.349 . S
C1290 C1295 1.367 . S
C1290 O1337 1.408 . S
C1291 C1290 1.349 . S
C1291 C1292 1.405 1_655 S
C1291 H1354 0.930 1_655 S
C1292 C1291 1.405 1_455 S
C1292 C1293 1.447 1_455 S
C1292 C1296 1.540 . S
C1293 C1292 1.447 1_655 S
C1293 C1294 1.384 . S
C1293 C1318 1.553 . S
C1294 C1293 1.384 . S
C1294 C1295 1.364 . S
C1294 C1297 1.450 . S
C1295 C1290 1.367 . S
C1295 C1294 1.364 . S
C1295 H1355 0.931 . S
C1296 C1292 1.540 . S
C1296 H1356 0.959 . S
C1296 H1357 0.961 . S
C1296 H1358 0.959 . S
C1297 C1294 1.450 . S
C1297 H1359 0.960 . S
C1297 H1360 0.960 . S
C1297 H1361 0.960 . S
C1298 C1299 1.309 . S
C1298 C1303 1.304 . S
C1298 O1336 1.435 . S
C1299 C1298 1.309 . S
C1299 C1300 1.450 1_655 S
C1299 H1363 0.930 1_655 S
C1300 C1299 1.450 1_455 S
C1300 C1301 1.384 1_455 S
C1300 C1304 1.608 . S
C1301 C1300 1.384 1_655 S
C1301 C1302 1.373 . S
C1301 C1323 1.432 . S
C1302 C1301 1.373 . S
C1302 C1303 1.339 . S
C1302 C1305 1.530 . S
C1303 C1298 1.304 . S
C1303 C1302 1.339 . S
C1303 H1364 0.930 . S
C1304 C1300 1.608 . S
C1304 H1365 0.961 . S
C1304 H1366 0.960 . S
C1304 H1367 0.958 . S
C1305 C1302 1.530 . S
C1305 H1368 0.961 . S
C1305 H1369 0.960 . S
C1305 H1370 0.960 . S
C1306 C1307 1.599 . S
C1306 H1372 0.961 . S
C1306 H1373 0.961 . S
C1306 H1374 0.959 . S
C1307 C1306 1.599 . S
C1307 O1335 1.427 . S
C1307 H1371 0.962 1_455 S
C1308 C1309 1.288 . S
C1308 C1313 1.377 1_455 S
C1308 O1335 1.393 . S
C1309 C1308 1.288 . S
C1309 C1310 1.369 . S
C1309 H1375 0.932 . S
C1310 C1309 1.369 . S
C1310 C1311 1.328 1_455 S
C1310 C1314 1.527 . S
C1311 C1310 1.328 1_655 S
C1311 C1312 1.402 . S
C1311 C1325 1.545 . S
C1312 C1311 1.402 . S
C1312 C1313 1.383 . S
C1312 C1315 1.603 . S
C1313 C1308 1.377 1_655 S
C1313 C1312 1.383 . S
C1313 H1376 0.929 . S
C1314 C1310 1.527 . S
C1314 H1377 0.961 . S
C1314 H1378 0.959 . S
C1314 H1379 0.959 . S
C1315 C1312 1.603 . S
C1315 H1380 0.960 . S
C1315 H1381 0.962 . S
C1315 H1382 0.961 . S
C1316 C1283 1.587 1_655 S
C1316 C1317 1.360 . S
C1316 C1329 1.412 . S
C1317 C1316 1.360 . S
C1317 C1318 1.365 . S
C1317 H1383 0.929 . S
C1318 C1293 1.553 . S
C1318 C1317 1.365 . S
C1318 C1319 1.404 . S
C1319 C1318 1.404 . S
C1319 C1320 1.395 . S
C1319 C1330 1.451 . S
C1320 C1319 1.395 . S
C1320 C1321 1.322 . S
C1320 H1384 0.930 . S
C1321 C1320 1.322 . S
C1321 C1322 1.459 . S
C1321 H1385 0.929 . S
C1322 C1321 1.459 . S
C1322 C1323 1.445 . S
C1322 C1331 1.395 . S
C1323 C1301 1.432 . S
C1323 C1322 1.445 . S
C1323 C1324 1.370 . S
C1324 C1323 1.370 . S
C1324 C1325 1.438 . S
C1324 H1386 0.930 . S
C1325 C1311 1.545 . S
C1325 C1324 1.438 . S
C1325 C1326 1.360 . S
C1326 C1325 1.360 . S
C1326 C1327 1.401 . S
C1326 C1331 1.446 . S
C1327 C1326 1.401 . S
C1327 C1328 1.347 . S
C1327 H1387 0.929 . S
C1328 C1327 1.347 . S
C1328 C1329 1.455 . S
C1328 H1388 0.930 . S
C1329 C1316 1.412 . S
C1329 C1328 1.455 . S
C1329 C1330 1.331 . S
C1330 C1319 1.451 . S
C1330 C1329 1.331 . S
C1330 C1331 1.497 . S
C1331 C1322 1.395 . S
C1331 C1326 1.446 . S
C1331 C1330 1.497 . S
C1332 C1333 1.582 . S
C1332 H1389 0.962 . S
C1332 H1390 0.959 . S
C1332 H1391 0.958 . S
C1333 C1332 1.582 . S
C1333 O1336 1.458 . S
C1333 H1362 0.980 . S
O1334 C1279 1.426 . S
O1334 C1280 1.334 . S
O1335 C1307 1.427 . S
O1335 C1308 1.393 . S
O1336 C1298 1.435 . S
O1336 C1333 1.458 . S
O1337 C1289 1.468 . S
O1337 C1290 1.408 . S
H1338 C1279 0.980 . S
H1339 C1278 0.959 . S
H1340 C1278 0.959 . S
H1341 C1278 0.960 . S
H1342 C1281 0.929 . S
H1343 C1285 0.929 . S
H1344 C1286 0.959 . S
H1345 C1286 0.961 . S
H1346 C1286 0.961 . S
H1347 C1287 0.960 . S
H1348 C1287 0.960 . S
H1349 C1287 0.961 . S
H1350 C1289 0.942 1_455 S
H1351 C1288 0.961 . S
H1352 C1288 0.960 . S
H1353 C1288 0.959 . S
H1354 C1291 0.930 1_455 S
H1355 C1295 0.931 . S
H1356 C1296 0.959 . S
H1357 C1296 0.961 . S
H1358 C1296 0.959 . S
H1359 C1297 0.960 . S
H1360 C1297 0.960 . S
H1361 C1297 0.960 . S
H1362 C1333 0.980 . S
H1363 C1299 0.930 1_455 S
H1364 C1303 0.930 . S
H1365 C1304 0.961 . S
H1366 C1304 0.960 . S
H1367 C1304 0.958 . S
H1368 C1305 0.961 . S
H1369 C1305 0.960 . S
H1370 C1305 0.960 . S
H1371 C1307 0.962 1_655 S
H1372 C1306 0.961 . S
H1373 C1306 0.961 . S
H1374 C1306 0.959 . S
H1375 C1309 0.932 . S
H1376 C1313 0.929 . S
H1377 C1314 0.961 . S
H1378 C1314 0.959 . S
H1379 C1314 0.959 . S
H1380 C1315 0.960 . S
H1381 C1315 0.962 . S
H1382 C1315 0.961 . S
H1383 C1317 0.929 . S
H1384 C1320 0.930 . S
H1385 C1321 0.929 . S
H1386 C1324 0.930 . S
H1387 C1327 0.929 . S
H1388 C1328 0.930 . S
H1389 C1332 0.962 . S
H1390 C1332 0.959 . S
H1391 C1332 0.958 . S
C1392 C1393 1.560 . S
C1392 H1453 0.959 . S
C1392 H1454 0.959 . S
C1392 H1455 0.960 . S
C1393 C1392 1.560 . S
C1393 O1448 1.426 . S
C1393 H1452 0.980 . S
C1394 C1395 1.407 . S
C1394 C1399 1.418 . S
C1394 O1448 1.334 . S
C1395 C1394 1.407 . S
C1395 C1396 1.360 . S
C1395 H1456 0.929 . S
C1396 C1395 1.360 . S
C1396 C1397 1.401 . S
C1396 C1400 1.527 . S
C1397 C1396 1.401 . S
C1397 C1398 1.405 . S
C1397 C1430 1.587 . S
C1398 C1397 1.405 . S
C1398 C1399 1.332 . S
C1398 C1401 1.496 . S
C1399 C1394 1.418 . S
C1399 C1398 1.332 . S
C1399 H1457 0.929 . S
C1400 C1396 1.527 . S
C1400 H1458 0.959 . S
C1400 H1459 0.961 . S
C1400 H1460 0.961 . S
C1401 C1398 1.496 . S
C1401 H1461 0.960 . S
C1401 H1462 0.960 . S
C1401 H1463 0.961 . S
C1402 C1403 1.517 . S
C1402 H1465 0.961 . S
C1402 H1466 0.960 . S
C1402 H1467 0.959 . S
C1403 C1402 1.517 . S
C1403 O1451 1.468 . S
C1403 H1464 0.980 . S
C1404 C1405 1.349 . S
C1404 C1409 1.367 . S
C1404 O1451 1.408 . S
C1405 C1404 1.349 . S
C1405 C1406 1.407 . S
C1405 H1468 0.930 . S
C1406 C1405 1.407 . S
C1406 C1407 1.449 . S
C1406 C1410 1.535 . S
C1407 C1406 1.449 . S
C1407 C1408 1.384 . S
C1407 C1432 1.553 . S
C1408 C1407 1.384 . S
C1408 C1409 1.364 . S
C1408 C1411 1.450 . S
C1409 C1404 1.367 . S
C1409 C1408 1.364 . S
C1409 H1469 0.931 . S
C1410 C1406 1.535 . S
C1410 H1470 0.959 . S
C1410 H1471 0.961 . S
C1410 H1472 0.959 . S
C1411 C1408 1.450 . S
C1411 H1473 0.960 . S
C1411 H1474 0.960 . S
C1411 H1475 0.960 . S
C1412 C1413 1.309 . S
C1412 C1417 1.304 . S
C1412 O1450 1.435 . S
C1413 C1412 1.309 . S
C1413 C1414 1.476 . S
C1413 H1477 0.930 . S
C1414 C1413 1.476 . S
C1414 C1415 1.400 . S
C1414 C1418 1.567 . S
C1415 C1414 1.400 . S
C1415 C1416 1.373 . S
C1415 C1437 1.432 . S
C1416 C1415 1.373 . S
C1416 C1417 1.339 . S
C1416 C1419 1.530 . S
C1417 C1412 1.304 . S
C1417 C1416 1.339 . S
C1417 H1478 0.930 . S
C1418 C1414 1.567 . S
C1418 H1479 0.961 . S
C1418 H1480 0.960 . S
C1418 H1481 0.958 . S
C1419 C1416 1.530 . S
C1419 H1482 0.961 . S
C1419 H1483 0.960 . S
C1419 H1484 0.960 . S
C1420 C1421 1.530 . S
C1420 H1486 0.961 . S
C1420 H1487 0.961 . S
C1420 H1488 0.959 . S
C1421 C1420 1.530 . S
C1421 O1449 1.412 . S
C1421 H1485 0.980 . S
C1422 C1423 1.288 . S
C1422 C1427 1.377 . S
C1422 O1449 1.393 . S
C1423 C1422 1.288 . S
C1423 C1424 1.369 . S
C1423 H1489 0.932 . S
C1424 C1423 1.369 . S
C1424 C1425 1.398 . S
C1424 C1428 1.527 . S
C1425 C1424 1.398 . S
C1425 C1426 1.380 . S
C1425 C1439 1.497 . S
C1426 C1425 1.380 . S
C1426 C1427 1.383 . S
C1426 C1429 1.603 . S
C1427 C1422 1.377 . S
C1427 C1426 1.383 . S
C1427 H1490 0.929 . S
C1428 C1424 1.527 . S
C1428 H1491 0.961 . S
C1428 H1492 0.959 . S
C1428 H1493 0.959 . S
C1429 C1426 1.603 . S
C1429 H1494 0.960 . S
C1429 H1495 0.962 . S
C1429 H1496 0.961 . S
C1430 C1397 1.587 . S
C1430 C1431 1.360 . S
C1430 C1443 1.412 . S
C1431 C1430 1.360 . S
C1431 C1432 1.365 . S
C1431 H1497 0.929 . S
C1432 C1407 1.553 . S
C1432 C1431 1.365 . S
C1432 C1433 1.404 . S
C1433 C1432 1.404 . S
C1433 C1434 1.395 . S
C1433 C1444 1.451 . S
C1434 C1433 1.395 . S
C1434 C1435 1.322 . S
C1434 H1498 0.930 . S
C1435 C1434 1.322 . S
C1435 C1436 1.459 . S
C1435 H1499 0.929 . S
C1436 C1435 1.459 . S
C1436 C1437 1.445 . S
C1436 C1445 1.395 . S
C1437 C1415 1.432 . S
C1437 C1436 1.445 . S
C1437 C1438 1.370 . S
C1438 C1437 1.370 . S
C1438 C1439 1.438 . S
C1438 H1500 0.930 . S
C1439 C1425 1.497 . S
C1439 C1438 1.438 . S
C1439 C1440 1.360 . S
C1440 C1439 1.360 . S
C1440 C1441 1.401 . S
C1440 C1445 1.446 . S
C1441 C1440 1.401 . S
C1441 C1442 1.347 . S
C1441 H1501 0.929 . S
C1442 C1441 1.347 . S
C1442 C1443 1.455 . S
C1442 H1502 0.930 . S
C1443 C1430 1.412 . S
C1443 C1442 1.455 . S
C1443 C1444 1.331 . S
C1444 C1433 1.451 . S
C1444 C1443 1.331 . S
C1444 C1445 1.497 . S
C1445 C1436 1.395 . S
C1445 C1440 1.446 . S
C1445 C1444 1.497 . S
C1446 C1447 1.582 . S
C1446 H1503 0.962 . S
C1446 H1504 0.959 . S
C1446 H1505 0.958 . S
C1447 C1446 1.582 . S
C1447 O1450 1.458 . S
C1447 H1476 0.980 . S
O1448 C1393 1.426 . S
O1448 C1394 1.334 . S
O1449 C1421 1.412 . S
O1449 C1422 1.393 . S
O1450 C1412 1.435 . S
O1450 C1447 1.458 . S
O1451 C1403 1.468 . S
O1451 C1404 1.408 . S
H1452 C1393 0.980 . S
H1453 C1392 0.959 . S
H1454 C1392 0.959 . S
H1455 C1392 0.960 . S
H1456 C1395 0.929 . S
H1457 C1399 0.929 . S
H1458 C1400 0.959 . S
H1459 C1400 0.961 . S
H1460 C1400 0.961 . S
H1461 C1401 0.960 . S
H1462 C1401 0.960 . S
H1463 C1401 0.961 . S
H1464 C1403 0.980 . S
H1465 C1402 0.961 . S
H1466 C1402 0.960 . S
H1467 C1402 0.959 . S
H1468 C1405 0.930 . S
H1469 C1409 0.931 . S
H1470 C1410 0.959 . S
H1471 C1410 0.961 . S
H1472 C1410 0.959 . S
H1473 C1411 0.960 . S
H1474 C1411 0.960 . S
H1475 C1411 0.960 . S
H1476 C1447 0.980 . S
H1477 C1413 0.930 . S
H1478 C1417 0.930 . S
H1479 C1418 0.961 . S
H1480 C1418 0.960 . S
H1481 C1418 0.958 . S
H1482 C1419 0.961 . S
H1483 C1419 0.960 . S
H1484 C1419 0.960 . S
H1485 C1421 0.980 . S
H1486 C1420 0.961 . S
H1487 C1420 0.961 . S
H1488 C1420 0.959 . S
H1489 C1423 0.932 . S
H1490 C1427 0.929 . S
H1491 C1428 0.961 . S
H1492 C1428 0.959 . S
H1493 C1428 0.959 . S
H1494 C1429 0.960 . S
H1495 C1429 0.962 . S
H1496 C1429 0.961 . S
H1497 C1431 0.929 . S
H1498 C1434 0.930 . S
H1499 C1435 0.929 . S
H1500 C1438 0.930 . S
H1501 C1441 0.929 . S
H1502 C1442 0.930 . S
H1503 C1446 0.962 . S
H1504 C1446 0.959 . S
H1505 C1446 0.958 . S
C1506 C1507 1.560 . S
C1506 H1567 0.959 . S
C1506 H1568 0.959 . S
C1506 H1569 0.960 . S
C1507 C1506 1.560 . S
C1507 O1562 1.426 . S
C1507 H1566 0.980 . S
C1508 C1509 1.407 1_565 S
C1508 C1513 1.418 . S
C1508 O1562 1.334 . S
C1509 C1508 1.407 1_545 S
C1509 C1510 1.360 . S
C1509 H1570 0.929 . S
C1510 C1509 1.360 . S
C1510 C1511 1.401 1_545 S
C1510 C1514 1.527 . S
C1511 C1510 1.401 1_565 S
C1511 C1512 1.405 . S
C1511 C1544 1.587 1_565 S
C1512 C1511 1.405 . S
C1512 C1513 1.332 . S
C1512 C1515 1.496 . S
C1513 C1508 1.418 . S
C1513 C1512 1.332 . S
C1513 H1571 0.929 . S
C1514 C1510 1.527 . S
C1514 H1572 0.959 . S
C1514 H1573 0.961 . S
C1514 H1574 0.961 . S
C1515 C1512 1.496 . S
C1515 H1575 0.960 . S
C1515 H1576 0.960 . S
C1515 H1577 0.961 . S
C1516 C1517 1.517 . S
C1516 H1579 0.918 1_545 S
C1516 H1580 0.960 . S
C1516 H1581 0.959 . S
C1517 C1516 1.517 . S
C1517 O1565 1.468 . S
C1517 H1578 0.980 1_545 S
C1518 C1519 1.349 . S
C1518 C1523 1.367 . S
C1518 O1565 1.408 . S
C1519 C1518 1.349 . S
C1519 C1520 1.407 1_545 S
C1519 H1582 0.930 1_545 S
C1520 C1519 1.407 1_565 S
C1520 C1521 1.449 1_565 S
C1520 C1524 1.535 . S
C1521 C1520 1.449 1_545 S
C1521 C1522 1.384 . S
C1521 C1546 1.553 . S
C1522 C1521 1.384 . S
C1522 C1523 1.364 . S
C1522 C1525 1.450 . S
C1523 C1518 1.367 . S
C1523 C1522 1.364 . S
C1523 H1583 0.931 . S
C1524 C1520 1.535 . S
C1524 H1584 0.959 . S
C1524 H1585 0.961 . S
C1524 H1586 0.959 . S
C1525 C1522 1.450 . S
C1525 H1587 0.960 . S
C1525 H1588 0.960 . S
C1525 H1589 0.960 . S
C1526 C1527 1.309 . S
C1526 C1531 1.304 . S
C1526 O1564 1.435 . S
C1527 C1526 1.309 . S
C1527 C1528 1.482 1_545 S
C1527 H1591 0.930 1_545 S
C1528 C1527 1.482 1_565 S
C1528 C1529 1.378 1_565 S
C1528 C1532 1.582 . S
C1529 C1528 1.378 1_545 S
C1529 C1530 1.373 . S
C1529 C1551 1.432 . S
C1530 C1529 1.373 . S
C1530 C1531 1.339 . S
C1530 C1533 1.530 . S
C1531 C1526 1.304 . S
C1531 C1530 1.339 . S
C1531 H1592 0.930 . S
C1532 C1528 1.582 . S
C1532 H1593 0.961 . S
C1532 H1594 0.960 . S
C1532 H1595 0.958 . S
C1533 C1530 1.530 . S
C1533 H1596 0.961 . S
C1533 H1597 0.960 . S
C1533 H1598 0.960 . S
C1534 C1535 1.530 1_565 S
C1534 H1600 0.961 . S
C1534 H1601 0.961 . S
C1534 H1602 0.959 . S
C1535 C1534 1.530 1_545 S
C1535 O1563 1.412 1_545 S
C1535 H1599 0.980 . S
C1536 C1537 1.288 . S
C1536 C1541 1.377 1_565 S
C1536 O1563 1.393 . S
C1537 C1536 1.288 . S
C1537 C1538 1.369 . S
C1537 H1603 0.932 . S
C1538 C1537 1.369 . S
C1538 C1539 1.398 1_565 S
C1538 C1542 1.527 . S
C1539 C1538 1.398 1_545 S
C1539 C1540 1.380 . S
C1539 C1553 1.497 . S
C1540 C1539 1.380 . S
C1540 C1541 1.383 . S
C1540 C1543 1.603 . S
C1541 C1536 1.377 1_545 S
C1541 C1540 1.383 . S
C1541 H1604 0.929 . S
C1542 C1538 1.527 . S
C1542 H1605 0.961 . S
C1542 H1606 0.959 . S
C1542 H1607 0.959 . S
C1543 C1540 1.603 . S
C1543 H1608 0.960 . S
C1543 H1609 0.962 . S
C1543 H1610 0.961 . S
C1544 C1511 1.587 1_545 S
C1544 C1545 1.360 . S
C1544 C1557 1.412 . S
C1545 C1544 1.360 . S
C1545 C1546 1.365 . S
C1545 H1611 0.929 . S
C1546 C1521 1.553 . S
C1546 C1545 1.365 . S
C1546 C1547 1.404 . S
C1547 C1546 1.404 . S
C1547 C1548 1.395 . S
C1547 C1558 1.451 . S
C1548 C1547 1.395 . S
C1548 C1549 1.322 . S
C1548 H1612 0.930 . S
C1549 C1548 1.322 . S
C1549 C1550 1.459 . S
C1549 H1613 0.929 . S
C1550 C1549 1.459 . S
C1550 C1551 1.445 . S
C1550 C1559 1.395 . S
C1551 C1529 1.432 . S
C1551 C1550 1.445 . S
C1551 C1552 1.370 . S
C1552 C1551 1.370 . S
C1552 C1553 1.438 . S
C1552 H1614 0.930 . S
C1553 C1539 1.497 . S
C1553 C1552 1.438 . S
C1553 C1554 1.360 . S
C1554 C1553 1.360 . S
C1554 C1555 1.401 . S
C1554 C1559 1.446 . S
C1555 C1554 1.401 . S
C1555 C1556 1.347 . S
C1555 H1615 0.929 . S
C1556 C1555 1.347 . S
C1556 C1557 1.455 . S
C1556 H1616 0.930 . S
C1557 C1544 1.412 . S
C1557 C1556 1.455 . S
C1557 C1558 1.331 . S
C1558 C1547 1.451 . S
C1558 C1557 1.331 . S
C1558 C1559 1.497 . S
C1559 C1550 1.395 . S
C1559 C1554 1.446 . S
C1559 C1558 1.497 . S
C1560 C1561 1.582 . S
C1560 H1617 0.962 . S
C1560 H1618 0.959 . S
C1560 H1619 0.958 . S
C1561 C1560 1.582 . S
C1561 O1564 1.458 . S
C1561 H1590 0.980 . S
O1562 C1507 1.426 . S
O1562 C1508 1.334 . S
O1563 C1535 1.412 1_565 S
O1563 C1536 1.393 . S
O1564 C1526 1.435 . S
O1564 C1561 1.458 . S
O1565 C1517 1.468 . S
O1565 C1518 1.408 . S
H1566 C1507 0.980 . S
H1567 C1506 0.959 . S
H1568 C1506 0.959 . S
H1569 C1506 0.960 . S
H1570 C1509 0.929 . S
H1571 C1513 0.929 . S
H1572 C1514 0.959 . S
H1573 C1514 0.961 . S
H1574 C1514 0.961 . S
H1575 C1515 0.960 . S
H1576 C1515 0.960 . S
H1577 C1515 0.961 . S
H1578 C1517 0.980 1_565 S
H1579 C1516 0.918 1_565 S
H1580 C1516 0.960 . S
H1581 C1516 0.959 . S
H1582 C1519 0.930 1_565 S
H1583 C1523 0.931 . S
H1584 C1524 0.959 . S
H1585 C1524 0.961 . S
H1586 C1524 0.959 . S
H1587 C1525 0.960 . S
H1588 C1525 0.960 . S
H1589 C1525 0.960 . S
H1590 C1561 0.980 . S
H1591 C1527 0.930 1_565 S
H1592 C1531 0.930 . S
H1593 C1532 0.961 . S
H1594 C1532 0.960 . S
H1595 C1532 0.958 . S
H1596 C1533 0.961 . S
H1597 C1533 0.960 . S
H1598 C1533 0.960 . S
H1599 C1535 0.980 . S
H1600 C1534 0.961 . S
H1601 C1534 0.961 . S
H1602 C1534 0.959 . S
H1603 C1537 0.932 . S
H1604 C1541 0.929 . S
H1605 C1542 0.961 . S
H1606 C1542 0.959 . S
H1607 C1542 0.959 . S
H1608 C1543 0.960 . S
H1609 C1543 0.962 . S
H1610 C1543 0.961 . S
H1611 C1545 0.929 . S
H1612 C1548 0.930 . S
H1613 C1549 0.929 . S
H1614 C1552 0.930 . S
H1615 C1555 0.929 . S
H1616 C1556 0.930 . S
H1617 C1560 0.962 . S
H1618 C1560 0.959 . S
H1619 C1560 0.958 . S
C1620 C1621 1.560 . S
C1620 H1681 0.959 . S
C1620 H1682 0.959 . S
C1620 H1683 0.960 . S
C1621 C1620 1.560 . S
C1621 O1676 1.426 . S
C1621 H1680 0.980 1_565 S
C1622 C1623 1.407 1_565 S
C1622 C1627 1.418 . S
C1622 O1676 1.334 . S
C1623 C1622 1.407 1_545 S
C1623 C1624 1.360 . S
C1623 H1684 0.929 . S
C1624 C1623 1.360 . S
C1624 C1625 1.401 . S
C1624 C1628 1.527 . S
C1625 C1624 1.401 . S
C1625 C1626 1.405 1_545 S
C1625 C1658 1.587 . S
C1626 C1625 1.405 1_565 S
C1626 C1627 1.332 . S
C1626 C1629 1.496 . S
C1627 C1622 1.418 . S
C1627 C1626 1.332 . S
C1627 H1685 0.929 . S
C1628 C1624 1.527 . S
C1628 H1686 0.959 . S
C1628 H1687 0.961 . S
C1628 H1688 0.961 . S
C1629 C1626 1.496 . S
C1629 H1689 0.960 . S
C1629 H1690 0.960 . S
C1629 H1691 0.961 . S
C1630 C1631 1.517 . S
C1630 H1693 0.961 . S
C1630 H1694 0.960 . S
C1630 H1695 0.959 . S
C1631 C1630 1.517 . S
C1631 O1679 1.468 . S
C1631 H1692 0.980 . S
C1632 C1633 1.349 . S
C1632 C1637 1.367 . S
C1632 O1679 1.408 . S
C1633 C1632 1.349 . S
C1633 C1634 1.407 . S
C1633 H1696 0.910 1_545 S
C1634 C1633 1.407 . S
C1634 C1635 1.449 . S
C1634 C1638 1.535 1_545 S
C1635 C1634 1.449 . S
C1635 C1636 1.384 . S
C1635 C1660 1.553 . S
C1636 C1635 1.384 . S
C1636 C1637 1.364 . S
C1636 C1639 1.450 . S
C1637 C1632 1.367 . S
C1637 C1636 1.364 . S
C1637 H1697 0.931 . S
C1638 C1634 1.535 1_565 S
C1638 H1698 0.959 . S
C1638 H1699 0.961 . S
C1638 H1700 0.959 . S
C1639 C1636 1.450 . S
C1639 H1701 0.960 . S
C1639 H1702 0.960 . S
C1639 H1703 0.960 . S
C1640 C1641 1.309 1_545 S
C1640 C1645 1.304 . S
C1640 O1678 1.435 . S
C1641 C1640 1.309 1_565 S
C1641 C1642 1.476 . S
C1641 H1705 0.930 . S
C1642 C1641 1.476 . S
C1642 C1643 1.400 1_565 S
C1642 C1646 1.567 . S
C1643 C1642 1.400 1_545 S
C1643 C1644 1.373 . S
C1643 C1665 1.432 . S
C1644 C1643 1.373 . S
C1644 C1645 1.339 . S
C1644 C1647 1.530 . S
C1645 C1640 1.304 . S
C1645 C1644 1.339 . S
C1645 H1706 0.930 . S
C1646 C1642 1.567 . S
C1646 H1707 0.961 . S
C1646 H1708 0.960 . S
C1646 H1709 0.958 . S
C1647 C1644 1.530 . S
C1647 H1710 0.961 . S
C1647 H1711 0.960 . S
C1647 H1712 0.960 . S
C1648 C1649 1.530 . S
C1648 H1714 0.961 . S
C1648 H1715 0.961 . S
C1648 H1716 0.959 . S
C1649 C1648 1.530 . S
C1649 O1677 1.412 . S
C1649 H1713 0.981 1_565 S
C1650 C1651 1.288 . S
C1650 C1655 1.377 1_565 S
C1650 O1677 1.393 . S
C1651 C1650 1.288 . S
C1651 C1652 1.369 . S
C1651 H1717 0.932 . S
C1652 C1651 1.369 . S
C1652 C1653 1.398 . S
C1652 C1656 1.527 . S
C1653 C1652 1.398 . S
C1653 C1654 1.380 1_565 S
C1653 C1667 1.497 1_565 S
C1654 C1653 1.380 1_545 S
C1654 C1655 1.383 . S
C1654 C1657 1.603 . S
C1655 C1650 1.377 1_545 S
C1655 C1654 1.383 . S
C1655 H1718 0.929 . S
C1656 C1652 1.527 . S
C1656 H1719 0.961 . S
C1656 H1720 0.959 . S
C1656 H1721 0.959 . S
C1657 C1654 1.603 . S
C1657 H1722 0.960 . S
C1657 H1723 0.962 . S
C1657 H1724 0.961 . S
C1658 C1625 1.587 . S
C1658 C1659 1.360 . S
C1658 C1671 1.412 . S
C1659 C1658 1.360 . S
C1659 C1660 1.365 . S
C1659 H1725 0.929 . S
C1660 C1635 1.553 . S
C1660 C1659 1.365 . S
C1660 C1661 1.404 . S
C1661 C1660 1.404 . S
C1661 C1662 1.395 . S
C1661 C1672 1.451 . S
C1662 C1661 1.395 . S
C1662 C1663 1.322 . S
C1662 H1726 0.930 . S
C1663 C1662 1.322 . S
C1663 C1664 1.459 . S
C1663 H1727 0.929 . S
C1664 C1663 1.459 . S
C1664 C1665 1.445 . S
C1664 C1673 1.395 . S
C1665 C1643 1.432 . S
C1665 C1664 1.445 . S
C1665 C1666 1.370 . S
C1666 C1665 1.370 . S
C1666 C1667 1.438 . S
C1666 H1728 0.930 . S
C1667 C1653 1.497 1_545 S
C1667 C1666 1.438 . S
C1667 C1668 1.360 . S
C1668 C1667 1.360 . S
C1668 C1669 1.401 . S
C1668 C1673 1.446 . S
C1669 C1668 1.401 . S
C1669 C1670 1.347 . S
C1669 H1729 0.981 . S
C1670 C1669 1.347 . S
C1670 C1671 1.455 . S
C1670 H1730 0.930 . S
C1671 C1658 1.412 . S
C1671 C1670 1.455 . S
C1671 C1672 1.331 . S
C1672 C1661 1.451 . S
C1672 C1671 1.331 . S
C1672 C1673 1.497 . S
C1673 C1664 1.395 . S
C1673 C1668 1.446 . S
C1673 C1672 1.497 . S
C1674 C1675 1.627 . S
C1674 H1731 0.962 . S
C1674 H1732 0.959 . S
C1674 H1733 0.958 . S
C1675 C1674 1.627 . S
C1675 O1678 1.477 . S
C1675 H1704 0.981 1_545 S
O1676 C1621 1.426 . S
O1676 C1622 1.334 . S
O1677 C1649 1.412 . S
O1677 C1650 1.393 . S
O1678 C1640 1.435 . S
O1678 C1675 1.477 . S
O1679 C1631 1.468 . S
O1679 C1632 1.408 . S
H1680 C1621 0.980 1_545 S
H1681 C1620 0.959 . S
H1682 C1620 0.959 . S
H1683 C1620 0.960 . S
H1684 C1623 0.929 . S
H1685 C1627 0.929 . S
H1686 C1628 0.959 . S
H1687 C1628 0.961 . S
H1688 C1628 0.961 . S
H1689 C1629 0.960 . S
H1690 C1629 0.960 . S
H1691 C1629 0.961 . S
H1692 C1631 0.980 . S
H1693 C1630 0.961 . S
H1694 C1630 0.960 . S
H1695 C1630 0.959 . S
H1696 C1633 0.910 1_565 S
H1697 C1637 0.931 . S
H1698 C1638 0.959 . S
H1699 C1638 0.961 . S
H1700 C1638 0.959 . S
H1701 C1639 0.960 . S
H1702 C1639 0.960 . S
H1703 C1639 0.960 . S
H1704 C1675 0.981 1_565 S
H1705 C1641 0.930 . S
H1706 C1645 0.930 . S
H1707 C1646 0.961 . S
H1708 C1646 0.960 . S
H1709 C1646 0.958 . S
H1710 C1647 0.961 . S
H1711 C1647 0.960 . S
H1712 C1647 0.960 . S
H1713 C1649 0.981 1_545 S
H1714 C1648 0.961 . S
H1715 C1648 0.961 . S
H1716 C1648 0.959 . S
H1717 C1651 0.932 . S
H1718 C1655 0.929 . S
H1719 C1656 0.961 . S
H1720 C1656 0.959 . S
H1721 C1656 0.959 . S
H1722 C1657 0.960 . S
H1723 C1657 0.962 . S
H1724 C1657 0.961 . S
H1725 C1659 0.929 . S
H1726 C1662 0.930 . S
H1727 C1663 0.929 . S
H1728 C1666 0.930 . S
H1729 C1669 0.981 . S
H1730 C1670 0.930 . S
H1731 C1674 0.962 . S
H1732 C1674 0.959 . S
H1733 C1674 0.958 . S
C1734 C1735 1.560 . S
C1734 H1795 0.959 . S
C1734 H1796 0.959 . S
C1734 H1797 0.960 . S
C1735 C1734 1.560 . S
C1735 O1790 1.426 . S
C1735 H1794 0.980 1_455 S
C1736 C1737 1.407 1_455 S
C1736 C1741 1.418 . S
C1736 O1790 1.334 . S
C1737 C1736 1.407 1_655 S
C1737 C1738 1.360 . S
C1737 H1798 0.929 . S
C1738 C1737 1.360 . S
C1738 C1739 1.401 . S
C1738 C1742 1.527 . S
C1739 C1738 1.401 . S
C1739 C1740 1.405 1_655 S
C1739 C1772 1.587 . S
C1740 C1739 1.405 1_455 S
C1740 C1741 1.332 . S
C1740 C1743 1.496 . S
C1741 C1736 1.418 . S
C1741 C1740 1.332 . S
C1741 H1799 0.929 . S
C1742 C1738 1.527 . S
C1742 H1800 0.959 . S
C1742 H1801 0.961 . S
C1742 H1802 0.961 . S
C1743 C1740 1.496 . S
C1743 H1803 0.960 . S
C1743 H1804 0.960 . S
C1743 H1805 0.961 . S
C1744 C1745 1.517 . S
C1744 H1807 0.961 . S
C1744 H1808 0.960 . S
C1744 H1809 0.959 . S
C1745 C1744 1.517 . S
C1745 O1793 1.468 . S
C1745 H1806 0.980 . S
C1746 C1747 1.349 . S
C1746 C1751 1.367 . S
C1746 O1793 1.408 . S
C1747 C1746 1.349 . S
C1747 C1748 1.407 . S
C1747 H1810 0.883 1_655 S
C1748 C1747 1.407 . S
C1748 C1749 1.449 . S
C1748 C1752 1.535 1_655 S
C1749 C1748 1.449 . S
C1749 C1750 1.384 . S
C1749 C1774 1.553 . S
C1750 C1749 1.384 . S
C1750 C1751 1.364 . S
C1750 C1753 1.450 . S
C1751 C1746 1.367 . S
C1751 C1750 1.364 . S
C1751 H1811 0.931 . S
C1752 C1748 1.535 1_455 S
C1752 H1812 0.959 . S
C1752 H1813 0.961 . S
C1752 H1814 0.959 . S
C1753 C1750 1.450 . S
C1753 H1815 0.960 . S
C1753 H1816 0.960 . S
C1753 H1817 0.960 . S
C1754 C1755 1.309 1_655 S
C1754 C1759 1.304 . S
C1754 O1792 1.435 . S
C1755 C1754 1.309 1_455 S
C1755 C1756 1.476 . S
C1755 H1819 0.930 . S
C1756 C1755 1.476 . S
C1756 C1757 1.400 1_455 S
C1756 C1760 1.567 . S
C1757 C1756 1.400 1_655 S
C1757 C1758 1.373 . S
C1757 C1779 1.432 . S
C1758 C1757 1.373 . S
C1758 C1759 1.339 . S
C1758 C1761 1.530 . S
C1759 C1754 1.304 . S
C1759 C1758 1.339 . S
C1759 H1820 0.930 . S
C1760 C1756 1.567 . S
C1760 H1821 0.961 . S
C1760 H1822 0.960 . S
C1760 H1823 0.958 . S
C1761 C1758 1.530 . S
C1761 H1824 0.961 . S
C1761 H1825 0.960 . S
C1761 H1826 0.960 . S
C1762 C1763 1.530 . S
C1762 H1828 0.961 . S
C1762 H1829 0.961 . S
C1762 H1830 0.959 . S
C1763 C1762 1.530 . S
C1763 O1791 1.412 . S
C1763 H1827 0.965 1_455 S
C1764 C1765 1.288 . S
C1764 C1769 1.377 1_455 S
C1764 O1791 1.393 . S
C1765 C1764 1.288 . S
C1765 C1766 1.369 . S
C1765 H1831 0.932 . S
C1766 C1765 1.369 . S
C1766 C1767 1.398 . S
C1766 C1770 1.527 . S
C1767 C1766 1.398 . S
C1767 C1768 1.380 1_455 S
C1767 C1781 1.497 1_455 S
C1768 C1767 1.380 1_655 S
C1768 C1769 1.383 . S
C1768 C1771 1.603 . S
C1769 C1764 1.377 1_655 S
C1769 C1768 1.383 . S
C1769 H1832 0.929 . S
C1770 C1766 1.527 . S
C1770 H1833 0.961 . S
C1770 H1834 0.959 . S
C1770 H1835 0.959 . S
C1771 C1768 1.603 . S
C1771 H1836 0.960 . S
C1771 H1837 0.962 . S
C1771 H1838 0.961 . S
C1772 C1739 1.587 . S
C1772 C1773 1.360 . S
C1772 C1785 1.412 . S
C1773 C1772 1.360 . S
C1773 C1774 1.365 . S
C1773 H1839 0.929 . S
C1774 C1749 1.553 . S
C1774 C1773 1.365 . S
C1774 C1775 1.404 . S
C1775 C1774 1.404 . S
C1775 C1776 1.395 . S
C1775 C1786 1.451 . S
C1776 C1775 1.395 . S
C1776 C1777 1.322 . S
C1776 H1840 0.930 . S
C1777 C1776 1.322 . S
C1777 C1778 1.459 . S
C1777 H1841 0.929 . S
C1778 C1777 1.459 . S
C1778 C1779 1.445 . S
C1778 C1787 1.395 . S
C1779 C1757 1.432 . S
C1779 C1778 1.445 . S
C1779 C1780 1.370 . S
C1780 C1779 1.370 . S
C1780 C1781 1.438 . S
C1780 H1842 0.930 . S
C1781 C1767 1.497 1_655 S
C1781 C1780 1.438 . S
C1781 C1782 1.360 . S
C1782 C1781 1.360 . S
C1782 C1783 1.401 . S
C1782 C1787 1.446 . S
C1783 C1782 1.401 . S
C1783 C1784 1.347 . S
C1783 H1843 0.929 . S
C1784 C1783 1.347 . S
C1784 C1785 1.455 . S
C1784 H1844 0.930 . S
C1785 C1772 1.412 . S
C1785 C1784 1.455 . S
C1785 C1786 1.331 . S
C1786 C1775 1.451 . S
C1786 C1785 1.331 . S
C1786 C1787 1.497 . S
C1787 C1778 1.395 . S
C1787 C1782 1.446 . S
C1787 C1786 1.497 . S
C1788 C1789 1.581 1_655 S
C1788 H1845 0.956 . S
C1788 H1846 0.959 . S
C1788 H1847 0.958 . S
C1789 C1788 1.581 1_455 S
C1789 O1792 1.394 1_455 S
C1789 H1818 1.008 . S
O1790 C1735 1.426 . S
O1790 C1736 1.334 . S
O1791 C1763 1.412 . S
O1791 C1764 1.393 . S
O1792 C1754 1.435 . S
O1792 C1789 1.394 1_655 S
O1793 C1745 1.468 . S
O1793 C1746 1.408 . S
H1794 C1735 0.980 1_655 S
H1795 C1734 0.959 . S
H1796 C1734 0.959 . S
H1797 C1734 0.960 . S
H1798 C1737 0.929 . S
H1799 C1741 0.929 . S
H1800 C1742 0.959 . S
H1801 C1742 0.961 . S
H1802 C1742 0.961 . S
H1803 C1743 0.960 . S
H1804 C1743 0.960 . S
H1805 C1743 0.961 . S
H1806 C1745 0.980 . S
H1807 C1744 0.961 . S
H1808 C1744 0.960 . S
H1809 C1744 0.959 . S
H1810 C1747 0.883 1_455 S
H1811 C1751 0.931 . S
H1812 C1752 0.959 . S
H1813 C1752 0.961 . S
H1814 C1752 0.959 . S
H1815 C1753 0.960 . S
H1816 C1753 0.960 . S
H1817 C1753 0.960 . S
H1818 C1789 1.008 . S
H1819 C1755 0.930 . S
H1820 C1759 0.930 . S
H1821 C1760 0.961 . S
H1822 C1760 0.960 . S
H1823 C1760 0.958 . S
H1824 C1761 0.961 . S
H1825 C1761 0.960 . S
H1826 C1761 0.960 . S
H1827 C1763 0.965 1_655 S
H1828 C1762 0.961 . S
H1829 C1762 0.961 . S
H1830 C1762 0.959 . S
H1831 C1765 0.932 . S
H1832 C1769 0.929 . S
H1833 C1770 0.961 . S
H1834 C1770 0.959 . S
H1835 C1770 0.959 . S
H1836 C1771 0.960 . S
H1837 C1771 0.962 . S
H1838 C1771 0.961 . S
H1839 C1773 0.929 . S
H1840 C1776 0.930 . S
H1841 C1777 0.929 . S
H1842 C1780 0.930 . S
H1843 C1783 0.929 . S
H1844 C1784 0.930 . S
H1845 C1788 0.956 . S
H1846 C1788 0.959 . S
H1847 C1788 0.958 . S
C1848 C1849 1.560 . S
C1848 H1909 0.959 . S
C1848 H1910 0.959 . S
C1848 H1911 0.960 . S
C1849 C1848 1.560 . S
C1849 O1904 1.426 . S
C1849 H1908 0.980 . S
C1850 C1851 1.407 . S
C1850 C1855 1.418 . S
C1850 O1904 1.334 . S
C1851 C1850 1.407 . S
C1851 C1852 1.360 . S
C1851 H1912 0.929 . S
C1852 C1851 1.360 . S
C1852 C1853 1.401 . S
C1852 C1856 1.527 . S
C1853 C1852 1.401 . S
C1853 C1854 1.405 . S
C1853 C1886 1.587 . S
C1854 C1853 1.405 . S
C1854 C1855 1.332 . S
C1854 C1857 1.496 . S
C1855 C1850 1.418 . S
C1855 C1854 1.332 . S
C1855 H1913 0.929 . S
C1856 C1852 1.527 . S
C1856 H1914 0.959 . S
C1856 H1915 0.961 . S
C1856 H1916 0.961 . S
C1857 C1854 1.496 . S
C1857 H1917 0.960 . S
C1857 H1918 0.960 . S
C1857 H1919 0.961 . S
C1858 C1859 1.517 . S
C1858 H1921 0.961 . S
C1858 H1922 0.960 . S
C1858 H1923 0.959 . S
C1859 C1858 1.517 . S
C1859 O1907 1.468 . S
C1859 H1920 0.980 . S
C1860 C1861 1.349 . S
C1860 C1865 1.367 . S
C1860 O1907 1.408 . S
C1861 C1860 1.349 . S
C1861 C1862 1.407 . S
C1861 H1924 0.930 . S
C1862 C1861 1.407 . S
C1862 C1863 1.449 . S
C1862 C1866 1.535 . S
C1863 C1862 1.449 . S
C1863 C1864 1.384 . S
C1863 C1888 1.553 . S
C1864 C1863 1.384 . S
C1864 C1865 1.364 . S
C1864 C1867 1.450 . S
C1865 C1860 1.367 . S
C1865 C1864 1.364 . S
C1865 H1925 0.931 . S
C1866 C1862 1.535 . S
C1866 H1926 0.959 . S
C1866 H1927 0.961 . S
C1866 H1928 0.959 . S
C1867 C1864 1.450 . S
C1867 H1929 0.960 . S
C1867 H1930 0.960 . S
C1867 H1931 0.960 . S
C1868 C1869 1.309 . S
C1868 C1873 1.304 . S
C1868 O1906 1.435 . S
C1869 C1868 1.309 . S
C1869 C1870 1.476 . S
C1869 H1933 0.930 . S
C1870 C1869 1.476 . S
C1870 C1871 1.400 . S
C1870 C1874 1.567 . S
C1871 C1870 1.400 . S
C1871 C1872 1.373 . S
C1871 C1893 1.432 . S
C1872 C1871 1.373 . S
C1872 C1873 1.339 . S
C1872 C1875 1.530 . S
C1873 C1868 1.304 . S
C1873 C1872 1.339 . S
C1873 H1934 0.930 . S
C1874 C1870 1.567 . S
C1874 H1935 0.961 . S
C1874 H1936 0.960 . S
C1874 H1937 0.958 . S
C1875 C1872 1.530 . S
C1875 H1938 0.961 . S
C1875 H1939 0.960 . S
C1875 H1940 0.960 . S
C1876 C1877 1.530 . S
C1876 H1942 0.961 . S
C1876 H1943 0.961 . S
C1876 H1944 0.959 . S
C1877 C1876 1.530 . S
C1877 O1905 1.412 . S
C1877 H1941 0.980 . S
C1878 C1879 1.288 . S
C1878 C1883 1.377 . S
C1878 O1905 1.393 . S
C1879 C1878 1.288 . S
C1879 C1880 1.369 . S
C1879 H1945 0.932 . S
C1880 C1879 1.369 . S
C1880 C1881 1.398 . S
C1880 C1884 1.527 . S
C1881 C1880 1.398 . S
C1881 C1882 1.380 . S
C1881 C1895 1.497 . S
C1882 C1881 1.380 . S
C1882 C1883 1.383 . S
C1882 C1885 1.603 . S
C1883 C1878 1.377 . S
C1883 C1882 1.383 . S
C1883 H1946 0.929 . S
C1884 C1880 1.527 . S
C1884 H1947 0.961 . S
C1884 H1948 0.959 . S
C1884 H1949 0.959 . S
C1885 C1882 1.603 . S
C1885 H1950 0.960 . S
C1885 H1951 0.962 . S
C1885 H1952 0.961 . S
C1886 C1853 1.587 . S
C1886 C1887 1.360 . S
C1886 C1899 1.412 . S
C1887 C1886 1.360 . S
C1887 C1888 1.365 . S
C1887 H1953 0.929 . S
C1888 C1863 1.553 . S
C1888 C1887 1.365 . S
C1888 C1889 1.404 . S
C1889 C1888 1.404 . S
C1889 C1890 1.395 . S
C1889 C1900 1.451 . S
C1890 C1889 1.395 . S
C1890 C1891 1.322 . S
C1890 H1954 0.930 . S
C1891 C1890 1.322 . S
C1891 C1892 1.459 . S
C1891 H1955 0.929 . S
C1892 C1891 1.459 . S
C1892 C1893 1.445 . S
C1892 C1901 1.395 . S
C1893 C1871 1.432 . S
C1893 C1892 1.445 . S
C1893 C1894 1.370 . S
C1894 C1893 1.370 . S
C1894 C1895 1.438 . S
C1894 H1956 0.930 . S
C1895 C1881 1.497 . S
C1895 C1894 1.438 . S
C1895 C1896 1.360 . S
C1896 C1895 1.360 . S
C1896 C1897 1.401 . S
C1896 C1901 1.446 . S
C1897 C1896 1.401 . S
C1897 C1898 1.347 . S
C1897 H1957 0.929 . S
C1898 C1897 1.347 . S
C1898 C1899 1.455 . S
C1898 H1958 0.930 . S
C1899 C1886 1.412 . S
C1899 C1898 1.455 . S
C1899 C1900 1.331 . S
C1900 C1889 1.451 . S
C1900 C1899 1.331 . S
C1900 C1901 1.497 . S
C1901 C1892 1.395 . S
C1901 C1896 1.446 . S
C1901 C1900 1.497 . S
C1902 C1903 1.582 . S
C1902 H1959 0.962 . S
C1902 H1960 0.959 . S
C1902 H1961 0.958 . S
C1903 C1902 1.582 . S
C1903 O1906 1.458 . S
C1903 H1932 0.980 . S
O1904 C1849 1.426 . S
O1904 C1850 1.334 . S
O1905 C1877 1.412 . S
O1905 C1878 1.393 . S
O1906 C1868 1.435 . S
O1906 C1903 1.458 . S
O1907 C1859 1.468 . S
O1907 C1860 1.408 . S
H1908 C1849 0.980 . S
H1909 C1848 0.959 . S
H1910 C1848 0.959 . S
H1911 C1848 0.960 . S
H1912 C1851 0.929 . S
H1913 C1855 0.929 . S
H1914 C1856 0.959 . S
H1915 C1856 0.961 . S
H1916 C1856 0.961 . S
H1917 C1857 0.960 . S
H1918 C1857 0.960 . S
H1919 C1857 0.961 . S
H1920 C1859 0.980 . S
H1921 C1858 0.961 . S
H1922 C1858 0.960 . S
H1923 C1858 0.959 . S
H1924 C1861 0.930 . S
H1925 C1865 0.931 . S
H1926 C1866 0.959 . S
H1927 C1866 0.961 . S
H1928 C1866 0.959 . S
H1929 C1867 0.960 . S
H1930 C1867 0.960 . S
H1931 C1867 0.960 . S
H1932 C1903 0.980 . S
H1933 C1869 0.930 . S
H1934 C1873 0.930 . S
H1935 C1874 0.961 . S
H1936 C1874 0.960 . S
H1937 C1874 0.958 . S
H1938 C1875 0.961 . S
H1939 C1875 0.960 . S
H1940 C1875 0.960 . S
H1941 C1877 0.980 . S
H1942 C1876 0.961 . S
H1943 C1876 0.961 . S
H1944 C1876 0.959 . S
H1945 C1879 0.932 . S
H1946 C1883 0.929 . S
H1947 C1884 0.961 . S
H1948 C1884 0.959 . S
H1949 C1884 0.959 . S
H1950 C1885 0.960 . S
H1951 C1885 0.962 . S
H1952 C1885 0.961 . S
H1953 C1887 0.929 . S
H1954 C1890 0.930 . S
H1955 C1891 0.929 . S
H1956 C1894 0.930 . S
H1957 C1897 0.929 . S
H1958 C1898 0.930 . S
H1959 C1902 0.962 . S
H1960 C1902 0.959 . S
H1961 C1902 0.958 . S
C1962 C1963 1.560 . S
C1962 H2023 0.959 . S
C1962 H2024 0.959 . S
C1962 H2025 0.960 . S
C1963 C1962 1.560 . S
C1963 O2018 1.426 . S
C1963 H2022 0.980 . S
C1964 C1965 1.407 . S
C1964 C1969 1.418 . S
C1964 O2018 1.334 . S
C1965 C1964 1.407 . S
C1965 C1966 1.360 . S
C1965 H2026 0.929 . S
C1966 C1965 1.360 . S
C1966 C1967 1.401 . S
C1966 C1970 1.527 . S
C1967 C1966 1.401 . S
C1967 C1968 1.405 . S
C1967 C2000 1.587 . S
C1968 C1967 1.405 . S
C1968 C1969 1.332 . S
C1968 C1971 1.496 . S
C1969 C1964 1.418 . S
C1969 C1968 1.332 . S
C1969 H2027 0.929 . S
C1970 C1966 1.527 . S
C1970 H2028 0.959 . S
C1970 H2029 0.961 . S
C1970 H2030 0.961 . S
C1971 C1968 1.496 . S
C1971 H2031 0.960 . S
C1971 H2032 0.960 . S
C1971 H2033 0.961 . S
C1972 C1973 1.517 . S
C1972 H2035 0.961 . S
C1972 H2036 0.960 . S
C1972 H2037 0.959 . S
C1973 C1972 1.517 . S
C1973 O2021 1.468 . S
C1973 H2034 0.980 . S
C1974 C1975 1.349 . S
C1974 C1979 1.367 . S
C1974 O2021 1.408 . S
C1975 C1974 1.349 . S
C1975 C1976 1.407 . S
C1975 H2038 0.930 . S
C1976 C1975 1.407 . S
C1976 C1977 1.449 . S
C1976 C1980 1.535 . S
C1977 C1976 1.449 . S
C1977 C1978 1.384 . S
C1977 C2002 1.553 . S
C1978 C1977 1.384 . S
C1978 C1979 1.364 . S
C1978 C1981 1.450 . S
C1979 C1974 1.367 . S
C1979 C1978 1.364 . S
C1979 H2039 0.931 . S
C1980 C1976 1.535 . S
C1980 H2040 0.959 . S
C1980 H2041 0.961 . S
C1980 H2042 0.959 . S
C1981 C1978 1.450 . S
C1981 H2043 0.960 . S
C1981 H2044 0.960 . S
C1981 H2045 0.960 . S
C1982 C1983 1.309 . S
C1982 C1987 1.304 . S
C1982 O2020 1.435 . S
C1983 C1982 1.309 . S
C1983 C1984 1.476 . S
C1983 H2047 0.930 . S
C1984 C1983 1.476 . S
C1984 C1985 1.400 . S
C1984 C1988 1.567 . S
C1985 C1984 1.400 . S
C1985 C1986 1.373 . S
C1985 C2007 1.432 . S
C1986 C1985 1.373 . S
C1986 C1987 1.339 . S
C1986 C1989 1.530 . S
C1987 C1982 1.304 . S
C1987 C1986 1.339 . S
C1987 H2048 0.930 . S
C1988 C1984 1.567 . S
C1988 H2049 0.961 . S
C1988 H2050 0.960 . S
C1988 H2051 0.958 . S
C1989 C1986 1.530 . S
C1989 H2052 0.961 . S
C1989 H2053 0.960 . S
C1989 H2054 0.960 . S
C1990 C1991 1.530 . S
C1990 H2056 0.961 . S
C1990 H2057 0.961 . S
C1990 H2058 0.959 . S
C1991 C1990 1.530 . S
C1991 O2019 1.412 . S
C1991 H2055 0.980 . S
C1992 C1993 1.288 . S
C1992 C1997 1.377 . S
C1992 O2019 1.393 . S
C1993 C1992 1.288 . S
C1993 C1994 1.369 . S
C1993 H2059 0.932 . S
C1994 C1993 1.369 . S
C1994 C1995 1.398 . S
C1994 C1998 1.527 . S
C1995 C1994 1.398 . S
C1995 C1996 1.380 . S
C1995 C2009 1.497 . S
C1996 C1995 1.380 . S
C1996 C1997 1.383 . S
C1996 C1999 1.603 . S
C1997 C1992 1.377 . S
C1997 C1996 1.383 . S
C1997 H2060 0.929 . S
C1998 C1994 1.527 . S
C1998 H2061 0.961 . S
C1998 H2062 0.959 . S
C1998 H2063 0.959 . S
C1999 C1996 1.603 . S
C1999 H2064 0.960 . S
C1999 H2065 0.962 . S
C1999 H2066 0.961 . S
C2000 C1967 1.587 . S
C2000 C2001 1.360 . S
C2000 C2013 1.412 . S
C2001 C2000 1.360 . S
C2001 C2002 1.365 . S
C2001 H2067 0.929 . S
C2002 C1977 1.553 . S
C2002 C2001 1.365 . S
C2002 C2003 1.404 . S
C2003 C2002 1.404 . S
C2003 C2004 1.395 . S
C2003 C2014 1.451 . S
C2004 C2003 1.395 . S
C2004 C2005 1.322 . S
C2004 H2068 0.930 . S
C2005 C2004 1.322 . S
C2005 C2006 1.459 . S
C2005 H2069 0.929 . S
C2006 C2005 1.459 . S
C2006 C2007 1.445 . S
C2006 C2015 1.395 . S
C2007 C1985 1.432 . S
C2007 C2006 1.445 . S
C2007 C2008 1.370 . S
C2008 C2007 1.370 . S
C2008 C2009 1.438 . S
C2008 H2070 0.930 . S
C2009 C1995 1.497 . S
C2009 C2008 1.438 . S
C2009 C2010 1.360 . S
C2010 C2009 1.360 . S
C2010 C2011 1.401 . S
C2010 C2015 1.446 . S
C2011 C2010 1.401 . S
C2011 C2012 1.347 . S
C2011 H2071 0.929 . S
C2012 C2011 1.347 . S
C2012 C2013 1.455 . S
C2012 H2072 0.930 . S
C2013 C2000 1.412 . S
C2013 C2012 1.455 . S
C2013 C2014 1.331 . S
C2014 C2003 1.451 . S
C2014 C2013 1.331 . S
C2014 C2015 1.497 . S
C2015 C2006 1.395 . S
C2015 C2010 1.446 . S
C2015 C2014 1.497 . S
C2016 C2017 1.582 . S
C2016 H2073 0.962 . S
C2016 H2074 0.959 . S
C2016 H2075 0.958 . S
C2017 C2016 1.582 . S
C2017 O2020 1.458 . S
C2017 H2046 0.980 . S
O2018 C1963 1.426 . S
O2018 C1964 1.334 . S
O2019 C1991 1.412 . S
O2019 C1992 1.393 . S
O2020 C1982 1.435 . S
O2020 C2017 1.458 . S
O2021 C1973 1.468 . S
O2021 C1974 1.408 . S
H2022 C1963 0.980 . S
H2023 C1962 0.959 . S
H2024 C1962 0.959 . S
H2025 C1962 0.960 . S
H2026 C1965 0.929 . S
H2027 C1969 0.929 . S
H2028 C1970 0.959 . S
H2029 C1970 0.961 . S
H2030 C1970 0.961 . S
H2031 C1971 0.960 . S
H2032 C1971 0.960 . S
H2033 C1971 0.961 . S
H2034 C1973 0.980 . S
H2035 C1972 0.961 . S
H2036 C1972 0.960 . S
H2037 C1972 0.959 . S
H2038 C1975 0.930 . S
H2039 C1979 0.931 . S
H2040 C1980 0.959 . S
H2041 C1980 0.961 . S
H2042 C1980 0.959 . S
H2043 C1981 0.960 . S
H2044 C1981 0.960 . S
H2045 C1981 0.960 . S
H2046 C2017 0.980 . S
H2047 C1983 0.930 . S
H2048 C1987 0.930 . S
H2049 C1988 0.961 . S
H2050 C1988 0.960 . S
H2051 C1988 0.958 . S
H2052 C1989 0.961 . S
H2053 C1989 0.960 . S
H2054 C1989 0.960 . S
H2055 C1991 0.980 . S
H2056 C1990 0.961 . S
H2057 C1990 0.961 . S
H2058 C1990 0.959 . S
H2059 C1993 0.932 . S
H2060 C1997 0.929 . S
H2061 C1998 0.961 . S
H2062 C1998 0.959 . S
H2063 C1998 0.959 . S
H2064 C1999 0.960 . S
H2065 C1999 0.962 . S
H2066 C1999 0.961 . S
H2067 C2001 0.929 . S
H2068 C2004 0.930 . S
H2069 C2005 0.929 . S
H2070 C2008 0.930 . S
H2071 C2011 0.929 . S
H2072 C2012 0.930 . S
H2073 C2016 0.962 . S
H2074 C2016 0.959 . S
H2075 C2016 0.958 . S
C2076 C2077 1.560 . S
C2076 H2137 0.959 . S
C2076 H2138 0.959 . S
C2076 H2139 0.960 . S
C2077 C2076 1.560 . S
C2077 O2132 1.426 . S
C2077 H2136 0.980 . S
C2078 C2079 1.407 . S
C2078 C2083 1.418 . S
C2078 O2132 1.334 . S
C2079 C2078 1.407 . S
C2079 C2080 1.360 . S
C2079 H2140 0.929 . S
C2080 C2079 1.360 . S
C2080 C2081 1.401 . S
C2080 C2084 1.527 . S
C2081 C2080 1.401 . S
C2081 C2082 1.405 . S
C2081 C2114 1.587 . S
C2082 C2081 1.405 . S
C2082 C2083 1.332 . S
C2082 C2085 1.496 . S
C2083 C2078 1.418 . S
C2083 C2082 1.332 . S
C2083 H2141 0.929 . S
C2084 C2080 1.527 . S
C2084 H2142 0.959 . S
C2084 H2143 0.961 . S
C2084 H2144 0.961 . S
C2085 C2082 1.496 . S
C2085 H2145 0.960 . S
C2085 H2146 0.960 . S
C2085 H2147 0.961 . S
C2086 C2087 1.517 . S
C2086 H2149 0.961 . S
C2086 H2150 0.960 . S
C2086 H2151 0.959 . S
C2087 C2086 1.517 . S
C2087 O2135 1.468 . S
C2087 H2148 0.980 . S
C2088 C2089 1.349 . S
C2088 C2093 1.367 . S
C2088 O2135 1.408 . S
C2089 C2088 1.349 . S
C2089 C2090 1.407 . S
C2089 H2152 0.930 . S
C2090 C2089 1.407 . S
C2090 C2091 1.449 . S
C2090 C2094 1.535 . S
C2091 C2090 1.449 . S
C2091 C2092 1.384 . S
C2091 C2116 1.553 . S
C2092 C2091 1.384 . S
C2092 C2093 1.364 . S
C2092 C2095 1.450 . S
C2093 C2088 1.367 . S
C2093 C2092 1.364 . S
C2093 H2153 0.931 . S
C2094 C2090 1.535 . S
C2094 H2154 0.959 . S
C2094 H2155 0.961 . S
C2094 H2156 0.959 . S
C2095 C2092 1.450 . S
C2095 H2157 0.960 . S
C2095 H2158 0.960 . S
C2095 H2159 0.960 . S
C2096 C2097 1.309 . S
C2096 C2101 1.304 . S
C2096 O2134 1.435 . S
C2097 C2096 1.309 . S
C2097 C2098 1.476 . S
C2097 H2161 0.930 . S
C2098 C2097 1.476 . S
C2098 C2099 1.400 . S
C2098 C2102 1.567 . S
C2099 C2098 1.400 . S
C2099 C2100 1.373 . S
C2099 C2121 1.432 . S
C2100 C2099 1.373 . S
C2100 C2101 1.339 . S
C2100 C2103 1.530 . S
C2101 C2096 1.304 . S
C2101 C2100 1.339 . S
C2101 H2162 0.930 . S
C2102 C2098 1.567 . S
C2102 H2163 0.961 . S
C2102 H2164 0.960 . S
C2102 H2165 0.958 . S
C2103 C2100 1.530 . S
C2103 H2166 0.961 . S
C2103 H2167 0.960 . S
C2103 H2168 0.960 . S
C2104 C2105 1.530 . S
C2104 H2170 0.961 . S
C2104 H2171 0.961 . S
C2104 H2172 0.959 . S
C2105 C2104 1.530 . S
C2105 O2133 1.412 . S
C2105 H2169 0.980 . S
C2106 C2107 1.288 . S
C2106 C2111 1.377 . S
C2106 O2133 1.393 . S
C2107 C2106 1.288 . S
C2107 C2108 1.369 . S
C2107 H2173 0.932 . S
C2108 C2107 1.369 . S
C2108 C2109 1.398 . S
C2108 C2112 1.527 . S
C2109 C2108 1.398 . S
C2109 C2110 1.380 . S
C2109 C2123 1.497 . S
C2110 C2109 1.380 . S
C2110 C2111 1.383 . S
C2110 C2113 1.603 . S
C2111 C2106 1.377 . S
C2111 C2110 1.383 . S
C2111 H2174 0.929 . S
C2112 C2108 1.527 . S
C2112 H2175 0.961 . S
C2112 H2176 0.959 . S
C2112 H2177 0.959 . S
C2113 C2110 1.603 . S
C2113 H2178 0.960 . S
C2113 H2179 0.962 . S
C2113 H2180 0.961 . S
C2114 C2081 1.587 . S
C2114 C2115 1.360 . S
C2114 C2127 1.412 . S
C2115 C2114 1.360 . S
C2115 C2116 1.365 . S
C2115 H2181 0.929 . S
C2116 C2091 1.553 . S
C2116 C2115 1.365 . S
C2116 C2117 1.404 . S
C2117 C2116 1.404 . S
C2117 C2118 1.395 . S
C2117 C2128 1.451 . S
C2118 C2117 1.395 . S
C2118 C2119 1.322 . S
C2118 H2182 0.930 . S
C2119 C2118 1.322 . S
C2119 C2120 1.459 . S
C2119 H2183 0.929 . S
C2120 C2119 1.459 . S
C2120 C2121 1.445 . S
C2120 C2129 1.395 . S
C2121 C2099 1.432 . S
C2121 C2120 1.445 . S
C2121 C2122 1.370 . S
C2122 C2121 1.370 . S
C2122 C2123 1.438 . S
C2122 H2184 0.930 . S
C2123 C2109 1.497 . S
C2123 C2122 1.438 . S
C2123 C2124 1.360 . S
C2124 C2123 1.360 . S
C2124 C2125 1.401 . S
C2124 C2129 1.446 . S
C2125 C2124 1.401 . S
C2125 C2126 1.347 . S
C2125 H2185 0.929 . S
C2126 C2125 1.347 . S
C2126 C2127 1.455 . S
C2126 H2186 0.930 . S
C2127 C2114 1.412 . S
C2127 C2126 1.455 . S
C2127 C2128 1.331 . S
C2128 C2117 1.451 . S
C2128 C2127 1.331 . S
C2128 C2129 1.497 . S
C2129 C2120 1.395 . S
C2129 C2124 1.446 . S
C2129 C2128 1.497 . S
C2130 C2131 1.582 . S
C2130 H2187 0.962 . S
C2130 H2188 0.959 . S
C2130 H2189 0.958 . S
C2131 C2130 1.582 . S
C2131 O2134 1.458 . S
C2131 H2160 0.980 . S
O2132 C2077 1.426 . S
O2132 C2078 1.334 . S
O2133 C2105 1.412 . S
O2133 C2106 1.393 . S
O2134 C2096 1.435 . S
O2134 C2131 1.458 . S
O2135 C2087 1.468 . S
O2135 C2088 1.408 . S
H2136 C2077 0.980 . S
H2137 C2076 0.959 . S
H2138 C2076 0.959 . S
H2139 C2076 0.960 . S
H2140 C2079 0.929 . S
H2141 C2083 0.929 . S
H2142 C2084 0.959 . S
H2143 C2084 0.961 . S
H2144 C2084 0.961 . S
H2145 C2085 0.960 . S
H2146 C2085 0.960 . S
H2147 C2085 0.961 . S
H2148 C2087 0.980 . S
H2149 C2086 0.961 . S
H2150 C2086 0.960 . S
H2151 C2086 0.959 . S
H2152 C2089 0.930 . S
H2153 C2093 0.931 . S
H2154 C2094 0.959 . S
H2155 C2094 0.961 . S
H2156 C2094 0.959 . S
H2157 C2095 0.960 . S
H2158 C2095 0.960 . S
H2159 C2095 0.960 . S
H2160 C2131 0.980 . S
H2161 C2097 0.930 . S
H2162 C2101 0.930 . S
H2163 C2102 0.961 . S
H2164 C2102 0.960 . S
H2165 C2102 0.958 . S
H2166 C2103 0.961 . S
H2167 C2103 0.960 . S
H2168 C2103 0.960 . S
H2169 C2105 0.980 . S
H2170 C2104 0.961 . S
H2171 C2104 0.961 . S
H2172 C2104 0.959 . S
H2173 C2107 0.932 . S
H2174 C2111 0.929 . S
H2175 C2112 0.961 . S
H2176 C2112 0.959 . S
H2177 C2112 0.959 . S
H2178 C2113 0.960 . S
H2179 C2113 0.962 . S
H2180 C2113 0.961 . S
H2181 C2115 0.929 . S
H2182 C2118 0.930 . S
H2183 C2119 0.929 . S
H2184 C2122 0.930 . S
H2185 C2125 0.929 . S
H2186 C2126 0.930 . S
H2187 C2130 0.962 . S
H2188 C2130 0.959 . S
H2189 C2130 0.958 . S
C2190 C2191 1.560 . S
C2190 H2251 0.959 . S
C2190 H2252 0.959 . S
C2190 H2253 0.960 . S
C2191 C2190 1.560 . S
C2191 O2246 1.426 . S
C2191 H2250 0.980 . S
C2192 C2193 1.407 . S
C2192 C2197 1.418 . S
C2192 O2246 1.334 . S
C2193 C2192 1.407 . S
C2193 C2194 1.360 . S
C2193 H2254 0.929 . S
C2194 C2193 1.360 . S
C2194 C2195 1.401 . S
C2194 C2198 1.527 . S
C2195 C2194 1.401 . S
C2195 C2196 1.405 . S
C2195 C2228 1.587 . S
C2196 C2195 1.405 . S
C2196 C2197 1.332 . S
C2196 C2199 1.496 . S
C2197 C2192 1.418 . S
C2197 C2196 1.332 . S
C2197 H2255 0.929 . S
C2198 C2194 1.527 . S
C2198 H2256 0.959 . S
C2198 H2257 0.961 . S
C2198 H2258 0.961 . S
C2199 C2196 1.496 . S
C2199 H2259 0.960 . S
C2199 H2260 0.960 . S
C2199 H2261 0.961 . S
C2200 C2201 1.517 . S
C2200 H2263 0.961 . S
C2200 H2264 0.960 . S
C2200 H2265 0.959 . S
C2201 C2200 1.517 . S
C2201 O2249 1.468 . S
C2201 H2262 0.980 . S
C2202 C2203 1.349 . S
C2202 C2207 1.367 . S
C2202 O2249 1.408 . S
C2203 C2202 1.349 . S
C2203 C2204 1.407 . S
C2203 H2266 0.930 . S
C2204 C2203 1.407 . S
C2204 C2205 1.449 . S
C2204 C2208 1.535 . S
C2205 C2204 1.449 . S
C2205 C2206 1.384 . S
C2205 C2230 1.553 . S
C2206 C2205 1.384 . S
C2206 C2207 1.364 . S
C2206 C2209 1.450 . S
C2207 C2202 1.367 . S
C2207 C2206 1.364 . S
C2207 H2267 0.931 . S
C2208 C2204 1.535 . S
C2208 H2268 0.959 . S
C2208 H2269 0.961 . S
C2208 H2270 0.959 . S
C2209 C2206 1.450 . S
C2209 H2271 0.960 . S
C2209 H2272 0.960 . S
C2209 H2273 0.960 . S
C2210 C2211 1.309 . S
C2210 C2215 1.304 . S
C2210 O2248 1.435 . S
C2211 C2210 1.309 . S
C2211 C2212 1.476 . S
C2211 H2275 0.930 . S
C2212 C2211 1.476 . S
C2212 C2213 1.400 . S
C2212 C2216 1.567 . S
C2213 C2212 1.400 . S
C2213 C2214 1.373 . S
C2213 C2235 1.432 . S
C2214 C2213 1.373 . S
C2214 C2215 1.339 . S
C2214 C2217 1.530 . S
C2215 C2210 1.304 . S
C2215 C2214 1.339 . S
C2215 H2276 0.930 . S
C2216 C2212 1.567 . S
C2216 H2277 0.961 . S
C2216 H2278 0.960 . S
C2216 H2279 0.958 . S
C2217 C2214 1.530 . S
C2217 H2280 0.961 . S
C2217 H2281 0.960 . S
C2217 H2282 0.960 . S
C2218 C2219 1.530 . S
C2218 H2284 0.961 . S
C2218 H2285 0.961 . S
C2218 H2286 0.959 . S
C2219 C2218 1.530 . S
C2219 O2247 1.412 . S
C2219 H2283 0.980 . S
C2220 C2221 1.288 . S
C2220 C2225 1.377 . S
C2220 O2247 1.393 . S
C2221 C2220 1.288 . S
C2221 C2222 1.369 . S
C2221 H2287 0.932 . S
C2222 C2221 1.369 . S
C2222 C2223 1.398 . S
C2222 C2226 1.527 . S
C2223 C2222 1.398 . S
C2223 C2224 1.380 . S
C2223 C2237 1.497 . S
C2224 C2223 1.380 . S
C2224 C2225 1.383 . S
C2224 C2227 1.603 . S
C2225 C2220 1.377 . S
C2225 C2224 1.383 . S
C2225 H2288 0.929 . S
C2226 C2222 1.527 . S
C2226 H2289 0.961 . S
C2226 H2290 0.959 . S
C2226 H2291 0.959 . S
C2227 C2224 1.603 . S
C2227 H2292 0.960 . S
C2227 H2293 0.962 . S
C2227 H2294 0.961 . S
C2228 C2195 1.587 . S
C2228 C2229 1.360 . S
C2228 C2241 1.412 . S
C2229 C2228 1.360 . S
C2229 C2230 1.365 . S
C2229 H2295 0.929 . S
C2230 C2205 1.553 . S
C2230 C2229 1.365 . S
C2230 C2231 1.404 . S
C2231 C2230 1.404 . S
C2231 C2232 1.395 . S
C2231 C2242 1.451 . S
C2232 C2231 1.395 . S
C2232 C2233 1.322 . S
C2232 H2296 0.930 . S
C2233 C2232 1.322 . S
C2233 C2234 1.459 . S
C2233 H2297 0.929 . S
C2234 C2233 1.459 . S
C2234 C2235 1.445 . S
C2234 C2243 1.395 . S
C2235 C2213 1.432 . S
C2235 C2234 1.445 . S
C2235 C2236 1.370 . S
C2236 C2235 1.370 . S
C2236 C2237 1.438 . S
C2236 H2298 0.930 . S
C2237 C2223 1.497 . S
C2237 C2236 1.438 . S
C2237 C2238 1.360 . S
C2238 C2237 1.360 . S
C2238 C2239 1.401 . S
C2238 C2243 1.446 . S
C2239 C2238 1.401 . S
C2239 C2240 1.347 . S
C2239 H2299 0.929 . S
C2240 C2239 1.347 . S
C2240 C2241 1.455 . S
C2240 H2300 0.930 . S
C2241 C2228 1.412 . S
C2241 C2240 1.455 . S
C2241 C2242 1.331 . S
C2242 C2231 1.451 . S
C2242 C2241 1.331 . S
C2242 C2243 1.497 . S
C2243 C2234 1.395 . S
C2243 C2238 1.446 . S
C2243 C2242 1.497 . S
C2244 C2245 1.582 . S
C2244 H2301 0.962 . S
C2244 H2302 0.959 . S
C2244 H2303 0.958 . S
C2245 C2244 1.582 . S
C2245 O2248 1.458 . S
C2245 H2274 0.980 . S
O2246 C2191 1.426 . S
O2246 C2192 1.334 . S
O2247 C2219 1.412 . S
O2247 C2220 1.393 . S
O2248 C2210 1.435 . S
O2248 C2245 1.458 . S
O2249 C2201 1.468 . S
O2249 C2202 1.408 . S
H2250 C2191 0.980 . S
H2251 C2190 0.959 . S
H2252 C2190 0.959 . S
H2253 C2190 0.960 . S
H2254 C2193 0.929 . S
H2255 C2197 0.929 . S
H2256 C2198 0.959 . S
H2257 C2198 0.961 . S
H2258 C2198 0.961 . S
H2259 C2199 0.960 . S
H2260 C2199 0.960 . S
H2261 C2199 0.961 . S
H2262 C2201 0.980 . S
H2263 C2200 0.961 . S
H2264 C2200 0.960 . S
H2265 C2200 0.959 . S
H2266 C2203 0.930 . S
H2267 C2207 0.931 . S
H2268 C2208 0.959 . S
H2269 C2208 0.961 . S
H2270 C2208 0.959 . S
H2271 C2209 0.960 . S
H2272 C2209 0.960 . S
H2273 C2209 0.960 . S
H2274 C2245 0.980 . S
H2275 C2211 0.930 . S
H2276 C2215 0.930 . S
H2277 C2216 0.961 . S
H2278 C2216 0.960 . S
H2279 C2216 0.958 . S
H2280 C2217 0.961 . S
H2281 C2217 0.960 . S
H2282 C2217 0.960 . S
H2283 C2219 0.980 . S
H2284 C2218 0.961 . S
H2285 C2218 0.961 . S
H2286 C2218 0.959 . S
H2287 C2221 0.932 . S
H2288 C2225 0.929 . S
H2289 C2226 0.961 . S
H2290 C2226 0.959 . S
H2291 C2226 0.959 . S
H2292 C2227 0.960 . S
H2293 C2227 0.962 . S
H2294 C2227 0.961 . S
H2295 C2229 0.929 . S
H2296 C2232 0.930 . S
H2297 C2233 0.929 . S
H2298 C2236 0.930 . S
H2299 C2239 0.929 . S
H2300 C2240 0.930 . S
H2301 C2244 0.962 . S
H2302 C2244 0.959 . S
H2303 C2244 0.958 . S
H2304 C2316 0.930 . S
H2305 C2318 0.930 . S
H2306 C2319 0.930 . S
H2307 C2323 0.959 . S
H2308 C2323 0.959 . S
H2309 C2323 0.961 . S
H2310 C2324 0.960 . S
H2311 C2324 0.961 . S
H2312 C2324 0.959 1_655 S
H2313 C2327 0.929 . S
H2314 C2328 0.931 . S
H2315 C2330 0.930 . S
C2316 H2304 0.930 . S
C2316 C2317 1.399 1_455 S
C2316 C2321 1.399 . S
C2317 C2316 1.399 1_655 S
C2317 C2318 1.376 . S
C2318 H2305 0.930 . S
C2318 C2317 1.376 . S
C2318 C2319 1.388 . S
C2319 H2306 0.930 . S
C2319 C2318 1.388 . S
C2319 C2320 1.390 . S
C2320 C2319 1.390 . S
C2320 C2321 1.394 1_655 S
C2320 C2326 1.465 . S
C2321 C2316 1.399 . S
C2321 C2320 1.394 1_455 S
C2321 C2322 1.516 . S
C2322 C2321 1.516 . S
C2322 C2323 1.502 . S
C2322 C2324 1.561 . S
C2322 C2325 1.526 . S
C2323 H2307 0.959 . S
C2323 H2308 0.959 . S
C2323 H2309 0.961 . S
C2323 C2322 1.502 . S
C2324 H2310 0.960 . S
C2324 H2311 0.961 . S
C2324 H2312 0.959 1_455 S
C2324 C2322 1.561 . S
C2325 C2322 1.526 . S
C2325 C2326 1.396 1_455 S
C2325 C2330 1.390 . S
C2326 C2320 1.465 . S
C2326 C2325 1.396 1_655 S
C2326 C2327 1.399 . S
C2327 H2313 0.929 . S
C2327 C2326 1.399 . S
C2327 C2328 1.385 . S
C2328 H2314 0.931 . S
C2328 C2327 1.385 . S
C2328 C2329 1.389 . S
C2329 C2328 1.389 . S
C2329 C2330 1.387 1_655 S
C2330 H2315 0.930 . S
C2330 C2325 1.390 . S
C2330 C2329 1.387 1_455 S
H2331 C2343 0.930 . S
H2332 C2345 0.930 . S
H2333 C2346 0.930 . S
H2334 C2350 0.959 . S
H2335 C2350 0.959 . S
H2336 C2350 0.961 . S
H2337 C2351 0.960 . S
H2338 C2351 0.961 . S
H2339 C2351 0.959 . S
H2340 C2354 0.929 . S
H2341 C2355 0.931 . S
H2342 C2357 0.930 . S
C2343 H2331 0.930 . S
C2343 C2344 1.399 . S
C2343 C2348 1.399 . S
C2344 C2343 1.399 . S
C2344 C2345 1.376 . S
C2345 H2332 0.930 . S
C2345 C2344 1.376 . S
C2345 C2346 1.388 . S
C2346 H2333 0.930 . S
C2346 C2345 1.388 . S
C2346 C2347 1.390 . S
C2347 C2346 1.390 . S
C2347 C2348 1.394 . S
C2347 C2353 1.465 . S
C2348 C2343 1.399 . S
C2348 C2347 1.394 . S
C2348 C2349 1.516 . S
C2349 C2348 1.516 . S
C2349 C2350 1.502 . S
C2349 C2351 1.561 . S
C2349 C2352 1.526 . S
C2350 H2334 0.959 . S
C2350 H2335 0.959 . S
C2350 H2336 0.961 . S
C2350 C2349 1.502 . S
C2351 H2337 0.960 . S
C2351 H2338 0.961 . S
C2351 H2339 0.959 . S
C2351 C2349 1.561 . S
C2352 C2349 1.526 . S
C2352 C2353 1.396 . S
C2352 C2357 1.390 . S
C2353 C2347 1.465 . S
C2353 C2352 1.396 . S
C2353 C2354 1.399 . S
C2354 H2340 0.929 . S
C2354 C2353 1.399 . S
C2354 C2355 1.385 . S
C2355 H2341 0.931 . S
C2355 C2354 1.385 . S
C2355 C2356 1.389 . S
C2356 C2355 1.389 . S
C2356 C2357 1.387 . S
C2357 H2342 0.930 . S
C2357 C2352 1.390 . S
C2357 C2356 1.387 . S
H2358 C2370 0.930 1_565 S
H2359 C2372 0.930 . S
H2360 C2373 0.930 . S
H2361 C2377 0.959 . S
H2362 C2377 0.959 . S
H2363 C2377 0.961 . S
H2364 C2378 0.960 . S
H2365 C2378 0.961 . S
H2366 C2378 0.959 . S
H2367 C2381 0.929 . S
H2368 C2382 0.931 . S
H2369 C2384 0.930 . S
C2370 H2358 0.930 1_545 S
C2370 C2371 1.399 . S
C2370 C2375 1.399 . S
C2371 C2370 1.399 . S
C2371 C2372 1.376 . S
C2372 H2359 0.930 . S
C2372 C2371 1.376 . S
C2372 C2373 1.388 . S
C2373 H2360 0.930 . S
C2373 C2372 1.388 . S
C2373 C2374 1.390 . S
C2374 C2373 1.390 . S
C2374 C2375 1.394 . S
C2374 C2380 1.465 . S
C2375 C2370 1.399 . S
C2375 C2374 1.394 . S
C2375 C2376 1.516 1_545 S
C2376 C2375 1.516 1_565 S
C2376 C2377 1.502 . S
C2376 C2378 1.561 . S
C2376 C2379 1.526 1_565 S
C2377 H2361 0.959 . S
C2377 H2362 0.959 . S
C2377 H2363 0.961 . S
C2377 C2376 1.502 . S
C2378 H2364 0.960 . S
C2378 H2365 0.961 . S
C2378 H2366 0.959 . S
C2378 C2376 1.561 . S
C2379 C2376 1.526 1_545 S
C2379 C2380 1.396 . S
C2379 C2384 1.390 1_545 S
C2380 C2374 1.465 . S
C2380 C2379 1.396 . S
C2380 C2381 1.399 . S
C2381 H2367 0.929 . S
C2381 C2380 1.399 . S
C2381 C2382 1.385 . S
C2382 H2368 0.931 . S
C2382 C2381 1.385 . S
C2382 C2383 1.389 . S
C2383 C2382 1.389 . S
C2383 C2384 1.387 1_545 S
C2384 H2369 0.930 . S
C2384 C2379 1.390 1_565 S
C2384 C2383 1.387 1_565 S
H2385 C2397 0.930 1_545 S
H2386 C2399 0.930 . S
H2387 C2400 0.930 . S
H2388 C2404 0.959 . S
H2389 C2404 0.959 . S
H2390 C2404 0.961 . S
H2391 C2405 0.960 . S
H2392 C2405 0.961 . S
H2393 C2405 0.959 . S
H2394 C2408 0.929 . S
H2395 C2409 0.931 . S
H2396 C2411 0.930 . S
C2397 H2385 0.930 1_565 S
C2397 C2398 1.399 . S
C2397 C2402 1.399 . S
C2398 C2397 1.399 . S
C2398 C2399 1.376 . S
C2399 H2386 0.930 . S
C2399 C2398 1.376 . S
C2399 C2400 1.388 . S
C2400 H2387 0.930 . S
C2400 C2399 1.388 . S
C2400 C2401 1.390 . S
C2401 C2400 1.390 . S
C2401 C2402 1.394 . S
C2401 C2407 1.465 . S
C2402 C2397 1.399 . S
C2402 C2401 1.394 . S
C2402 C2403 1.516 1_565 S
C2403 C2402 1.516 1_545 S
C2403 C2404 1.502 . S
C2403 C2405 1.561 . S
C2403 C2406 1.526 1_545 S
C2404 H2388 0.959 . S
C2404 H2389 0.959 . S
C2404 H2390 0.961 . S
C2404 C2403 1.502 . S
C2405 H2391 0.960 . S
C2405 H2392 0.961 . S
C2405 H2393 0.959 . S
C2405 C2403 1.561 . S
C2406 C2403 1.526 1_565 S
C2406 C2407 1.396 . S
C2406 C2411 1.390 1_565 S
C2407 C2401 1.465 . S
C2407 C2406 1.396 . S
C2407 C2408 1.399 . S
C2408 H2394 0.929 . S
C2408 C2407 1.399 . S
C2408 C2409 1.385 . S
C2409 H2395 0.931 . S
C2409 C2408 1.385 . S
C2409 C2410 1.389 . S
C2410 C2409 1.389 . S
C2410 C2411 1.387 1_565 S
C2411 H2396 0.930 . S
C2411 C2406 1.390 1_545 S
C2411 C2410 1.387 1_545 S
H2412 C2424 0.930 . S
H2413 C2426 0.930 . S
H2414 C2427 0.930 1_655 S
H2415 C2431 0.959 . S
H2416 C2431 0.959 . S
H2417 C2431 0.961 . S
H2418 C2432 0.960 . S
H2419 C2432 0.961 . S
H2420 C2432 0.959 . S
H2421 C2435 0.929 . S
H2422 C2436 0.967 . S
H2423 C2438 0.930 . S
C2424 H2412 0.930 . S
C2424 C2425 1.399 . S
C2424 C2429 1.399 . S
C2425 C2424 1.399 . S
C2425 C2426 1.376 . S
C2426 H2413 0.930 . S
C2426 C2425 1.376 . S
C2426 C2427 1.388 . S
C2427 H2414 0.930 1_455 S
C2427 C2426 1.388 . S
C2427 C2428 1.390 . S
C2428 C2427 1.390 . S
C2428 C2429 1.394 . S
C2428 C2434 1.465 . S
C2429 C2424 1.399 . S
C2429 C2428 1.394 . S
C2429 C2430 1.516 . S
C2430 C2429 1.516 . S
C2430 C2431 1.502 . S
C2430 C2432 1.561 . S
C2430 C2433 1.526 . S
C2431 H2415 0.959 . S
C2431 H2416 0.959 . S
C2431 H2417 0.961 . S
C2431 C2430 1.502 . S
C2432 H2418 0.960 . S
C2432 H2419 0.961 . S
C2432 H2420 0.959 . S
C2432 C2430 1.561 . S
C2433 C2430 1.526 . S
C2433 C2434 1.396 . S
C2433 C2438 1.390 . S
C2434 C2428 1.465 . S
C2434 C2433 1.396 . S
C2434 C2435 1.399 1_455 S
C2435 H2421 0.929 . S
C2435 C2434 1.399 1_655 S
C2435 C2436 1.373 . S
C2436 H2422 0.967 . S
C2436 C2435 1.373 . S
C2436 C2437 1.367 1_655 S
C2437 C2436 1.367 1_455 S
C2437 C2438 1.387 . S
C2438 H2423 0.930 . S
C2438 C2433 1.390 . S
C2438 C2437 1.387 . S
H2439 C2451 0.930 . S
H2440 C2453 0.930 . S
H2441 C2454 0.930 . S
H2442 C2458 0.959 . S
H2443 C2458 0.959 . S
H2444 C2458 0.961 . S
H2445 C2459 0.960 . S
H2446 C2459 0.961 . S
H2447 C2459 0.959 . S
H2448 C2462 0.929 . S
H2449 C2463 0.931 . S
H2450 C2465 0.930 . S
C2451 H2439 0.930 . S
C2451 C2452 1.399 . S
C2451 C2456 1.399 . S
C2452 C2451 1.399 . S
C2452 C2453 1.376 . S
C2453 H2440 0.930 . S
C2453 C2452 1.376 . S
C2453 C2454 1.388 . S
C2454 H2441 0.930 . S
C2454 C2453 1.388 . S
C2454 C2455 1.390 . S
C2455 C2454 1.390 . S
C2455 C2456 1.394 . S
C2455 C2461 1.465 . S
C2456 C2451 1.399 . S
C2456 C2455 1.394 . S
C2456 C2457 1.516 . S
C2457 C2456 1.516 . S
C2457 C2458 1.502 . S
C2457 C2459 1.561 . S
C2457 C2460 1.526 . S
C2458 H2442 0.959 . S
C2458 H2443 0.959 . S
C2458 H2444 0.961 . S
C2458 C2457 1.502 . S
C2459 H2445 0.960 . S
C2459 H2446 0.961 . S
C2459 H2447 0.959 . S
C2459 C2457 1.561 . S
C2460 C2457 1.526 . S
C2460 C2461 1.396 . S
C2460 C2465 1.390 . S
C2461 C2455 1.465 . S
C2461 C2460 1.396 . S
C2461 C2462 1.399 . S
C2462 H2448 0.929 . S
C2462 C2461 1.399 . S
C2462 C2463 1.385 . S
C2463 H2449 0.931 . S
C2463 C2462 1.385 . S
C2463 C2464 1.389 . S
C2464 C2463 1.389 . S
C2464 C2465 1.387 . S
C2465 H2450 0.930 . S
C2465 C2460 1.390 . S
C2465 C2464 1.387 . S
H2466 C2478 0.930 . S
H2467 C2480 0.925 1_654 S
H2468 C2481 0.934 . S
H2469 C2485 0.959 . S
H2470 C2485 0.959 . S
H2471 C2485 0.961 . S
H2472 C2486 0.960 . S
H2473 C2486 0.961 . S
H2474 C2486 0.959 . S
H2475 C2489 0.929 . S
H2476 C2490 0.931 . S
H2477 C2492 0.930 . S
C2478 H2466 0.930 . S
C2478 C2479 1.399 . S
C2478 C2483 1.399 . S
C2479 C2478 1.399 . S
C2479 C2480 1.376 . S
C2480 H2467 0.925 1_456 S
C2480 C2479 1.376 . S
C2480 C2481 1.401 1_455 S
C2481 H2468 0.934 . S
C2481 C2480 1.401 1_655 S
C2481 C2482 1.376 1_655 S
C2482 C2481 1.376 1_455 S
C2482 C2483 1.394 . S
C2482 C2488 1.465 . S
C2483 C2478 1.399 . S
C2483 C2482 1.394 . S
C2483 C2484 1.516 . S
C2484 C2483 1.516 . S
C2484 C2485 1.502 . S
C2484 C2486 1.561 . S
C2484 C2487 1.526 . S
C2485 H2469 0.959 . S
C2485 H2470 0.959 . S
C2485 H2471 0.961 . S
C2485 C2484 1.502 . S
C2486 H2472 0.960 . S
C2486 H2473 0.961 . S
C2486 H2474 0.959 . S
C2486 C2484 1.561 . S
C2487 C2484 1.526 . S
C2487 C2488 1.396 . S
C2487 C2492 1.390 . S
C2488 C2482 1.465 . S
C2488 C2487 1.396 . S
C2488 C2489 1.399 1_455 S
C2489 H2475 0.929 . S
C2489 C2488 1.399 1_655 S
C2489 C2490 1.385 . S
C2490 H2476 0.931 . S
C2490 C2489 1.385 . S
C2490 C2491 1.377 1_655 S
C2491 C2490 1.377 1_455 S
C2491 C2492 1.387 . S
C2492 H2477 0.930 . S
C2492 C2487 1.390 . S
C2492 C2491 1.387 . S
H2493 C2505 0.930 . S
H2494 C2507 0.930 . S
H2495 C2508 0.930 . S
H2496 C2512 0.959 . S
H2497 C2512 0.959 . S
H2498 C2512 0.961 . S
H2499 C2513 0.960 . S
H2500 C2513 0.961 . S
H2501 C2513 0.959 . S
H2502 C2516 0.929 . S
H2503 C2517 0.931 . S
H2504 C2519 0.930 . S
C2505 H2493 0.930 . S
C2505 C2506 1.399 . S
C2505 C2510 1.399 . S
C2506 C2505 1.399 . S
C2506 C2507 1.376 . S
C2507 H2494 0.930 . S
C2507 C2506 1.376 . S
C2507 C2508 1.388 . S
C2508 H2495 0.930 . S
C2508 C2507 1.388 . S
C2508 C2509 1.390 . S
C2509 C2508 1.390 . S
C2509 C2510 1.394 . S
C2509 C2515 1.465 . S
C2510 C2505 1.399 . S
C2510 C2509 1.394 . S
C2510 C2511 1.516 . S
C2511 C2510 1.516 . S
C2511 C2512 1.502 . S
C2511 C2513 1.561 . S
C2511 C2514 1.526 . S
C2512 H2496 0.959 . S
C2512 H2497 0.959 . S
C2512 H2498 0.961 . S
C2512 C2511 1.502 . S
C2513 H2499 0.960 . S
C2513 H2500 0.961 . S
C2513 H2501 0.959 . S
C2513 C2511 1.561 . S
C2514 C2511 1.526 . S
C2514 C2515 1.396 . S
C2514 C2519 1.390 . S
C2515 C2509 1.465 . S
C2515 C2514 1.396 . S
C2515 C2516 1.399 . S
C2516 H2502 0.929 . S
C2516 C2515 1.399 . S
C2516 C2517 1.385 . S
C2517 H2503 0.931 . S
C2517 C2516 1.385 . S
C2517 C2518 1.389 . S
C2518 C2517 1.389 . S
C2518 C2519 1.387 . S
C2519 H2504 0.930 . S
C2519 C2514 1.390 . S
C2519 C2518 1.387 . S
H2520 C2532 0.930 . S
H2521 C2534 0.930 . S
H2522 C2535 0.930 . S
H2523 C2539 0.959 . S
H2524 C2539 0.959 . S
H2525 C2539 0.961 . S
H2526 C2540 0.960 . S
H2527 C2540 0.961 . S
H2528 C2540 0.959 . S
H2529 C2543 0.929 . S
H2530 C2544 0.931 . S
H2531 C2546 0.930 . S
C2532 H2520 0.930 . S
C2532 C2533 1.399 1_545 S
C2532 C2537 1.399 . S
C2533 C2532 1.399 1_565 S
C2533 C2534 1.376 . S
C2534 H2521 0.930 . S
C2534 C2533 1.376 . S
C2534 C2535 1.388 . S
C2535 H2522 0.930 . S
C2535 C2534 1.388 . S
C2535 C2536 1.390 . S
C2536 C2535 1.390 . S
C2536 C2537 1.394 1_565 S
C2536 C2542 1.465 . S
C2537 C2532 1.399 . S
C2537 C2536 1.394 1_545 S
C2537 C2538 1.516 . S
C2538 C2537 1.516 . S
C2538 C2539 1.502 . S
C2538 C2540 1.561 . S
C2538 C2541 1.526 . S
C2539 H2523 0.959 . S
C2539 H2524 0.959 . S
C2539 H2525 0.961 . S
C2539 C2538 1.502 . S
C2540 H2526 0.960 . S
C2540 H2527 0.961 . S
C2540 H2528 0.959 . S
C2540 C2538 1.561 . S
C2541 C2538 1.526 . S
C2541 C2542 1.396 1_545 S
C2541 C2546 1.390 . S
C2542 C2536 1.465 . S
C2542 C2541 1.396 1_565 S
C2542 C2543 1.399 . S
C2543 H2529 0.929 . S
C2543 C2542 1.399 . S
C2543 C2544 1.385 . S
C2544 H2530 0.931 . S
C2544 C2543 1.385 . S
C2544 C2545 1.389 . S
C2545 C2544 1.389 . S
C2545 C2546 1.387 1_565 S
C2546 H2531 0.930 . S
C2546 C2541 1.390 . S
C2546 C2545 1.387 1_545 S
H2547 C2559 0.930 . S
H2548 C2561 0.968 . S
H2549 C2562 0.930 . S
H2550 C2566 0.959 . S
H2551 C2566 0.959 . S
H2552 C2566 0.961 . S
H2553 C2567 0.960 . S
H2554 C2567 0.961 . S
H2555 C2567 0.959 . S
H2556 C2570 0.929 . S
H2557 C2571 0.931 . S
H2558 C2573 0.930 . S
C2559 H2547 0.930 . S
C2559 C2560 1.399 . S
C2559 C2564 1.399 . S
C2560 C2559 1.399 . S
C2560 C2561 1.341 1_545 S
C2561 H2548 0.968 . S
C2561 C2560 1.341 1_565 S
C2561 C2562 1.388 . S
C2562 H2549 0.930 . S
C2562 C2561 1.388 . S
C2562 C2563 1.390 1_565 S
C2563 C2562 1.390 1_545 S
C2563 C2564 1.394 . S
C2563 C2569 1.461 . S
C2564 C2559 1.399 . S
C2564 C2563 1.394 . S
C2564 C2565 1.516 . S
C2565 C2564 1.516 . S
C2565 C2566 1.502 . S
C2565 C2567 1.561 . S
C2565 C2568 1.526 . S
C2566 H2550 0.959 . S
C2566 H2551 0.959 . S
C2566 H2552 0.961 . S
C2566 C2565 1.502 . S
C2567 H2553 0.960 . S
C2567 H2554 0.961 . S
C2567 H2555 0.959 . S
C2567 C2565 1.561 . S
C2568 C2565 1.526 . S
C2568 C2569 1.416 . S
C2568 C2573 1.390 . S
C2569 C2563 1.461 . S
C2569 C2568 1.416 . S
C2569 C2570 1.387 1_545 S
C2570 H2556 0.929 . S
C2570 C2569 1.387 1_565 S
C2570 C2571 1.385 . S
C2571 H2557 0.931 . S
C2571 C2570 1.385 . S
C2571 C2572 1.389 1_565 S
C2572 C2571 1.389 1_545 S
C2572 C2573 1.387 . S
C2573 H2558 0.930 . S
C2573 C2568 1.390 . S
C2573 C2572 1.387 . S
H2574 C2586 0.930 . S
H2575 C2588 0.930 . S
H2576 C2589 0.930 1_455 S
H2577 C2593 0.959 1_455 S
H2578 C2593 0.959 . S
H2579 C2593 0.961 . S
H2580 C2594 0.960 . S
H2581 C2594 0.961 . S
H2582 C2594 0.959 . S
H2583 C2597 0.929 . S
H2584 C2598 0.931 . S
H2585 C2600 0.930 . S
C2586 H2574 0.930 . S
C2586 C2587 1.399 . S
C2586 C2591 1.399 . S
C2587 C2586 1.399 . S
C2587 C2588 1.376 . S
C2588 H2575 0.930 . S
C2588 C2587 1.376 . S
C2588 C2589 1.388 . S
C2589 H2576 0.930 1_655 S
C2589 C2588 1.388 . S
C2589 C2590 1.390 . S
C2590 C2589 1.390 . S
C2590 C2591 1.394 . S
C2590 C2596 1.465 . S
C2591 C2586 1.399 . S
C2591 C2590 1.394 . S
C2591 C2592 1.516 . S
C2592 C2591 1.516 . S
C2592 C2593 1.502 . S
C2592 C2594 1.561 . S
C2592 C2595 1.526 . S
C2593 H2577 0.959 1_655 S
C2593 H2578 0.959 . S
C2593 H2579 0.961 . S
C2593 C2592 1.502 . S
C2594 H2580 0.960 . S
C2594 H2581 0.961 . S
C2594 H2582 0.959 . S
C2594 C2592 1.561 . S
C2595 C2592 1.526 . S
C2595 C2596 1.396 . S
C2595 C2600 1.390 . S
C2596 C2590 1.465 . S
C2596 C2595 1.396 . S
C2596 C2597 1.399 1_655 S
C2597 H2583 0.929 . S
C2597 C2596 1.399 1_455 S
C2597 C2598 1.385 . S
C2598 H2584 0.931 . S
C2598 C2597 1.385 . S
C2598 C2599 1.389 1_455 S
C2599 C2598 1.389 1_655 S
C2599 C2600 1.387 . S
C2600 H2585 0.930 . S
C2600 C2595 1.390 . S
C2600 C2599 1.387 . S
H2601 C2613 0.930 . S
H2602 C2615 0.930 . S
H2603 C2616 0.930 . S
H2604 C2620 0.959 . S
H2605 C2620 0.959 . S
H2606 C2620 0.961 . S
H2607 C2621 0.960 . S
H2608 C2621 0.961 . S
H2609 C2621 0.959 . S
H2610 C2624 0.929 . S
H2611 C2625 0.931 . S
H2612 C2627 0.930 . S
C2613 H2601 0.930 . S
C2613 C2614 1.399 . S
C2613 C2618 1.399 . S
C2614 C2613 1.399 . S
C2614 C2615 1.376 . S
C2615 H2602 0.930 . S
C2615 C2614 1.376 . S
C2615 C2616 1.388 . S
C2616 H2603 0.930 . S
C2616 C2615 1.388 . S
C2616 C2617 1.390 . S
C2617 C2616 1.390 . S
C2617 C2618 1.394 . S
C2617 C2623 1.465 . S
C2618 C2613 1.399 . S
C2618 C2617 1.394 . S
C2618 C2619 1.516 . S
C2619 C2618 1.516 . S
C2619 C2620 1.502 . S
C2619 C2621 1.561 . S
C2619 C2622 1.526 . S
C2620 H2604 0.959 . S
C2620 H2605 0.959 . S
C2620 H2606 0.961 . S
C2620 C2619 1.502 . S
C2621 H2607 0.960 . S
C2621 H2608 0.961 . S
C2621 H2609 0.959 . S
C2621 C2619 1.561 . S
C2622 C2619 1.526 . S
C2622 C2623 1.396 . S
C2622 C2627 1.390 . S
C2623 C2617 1.465 . S
C2623 C2622 1.396 . S
C2623 C2624 1.399 . S
C2624 H2610 0.929 . S
C2624 C2623 1.399 . S
C2624 C2625 1.385 . S
C2625 H2611 0.931 . S
C2625 C2624 1.385 . S
C2625 C2626 1.389 . S
C2626 C2625 1.389 . S
C2626 C2627 1.387 . S
C2627 H2612 0.930 . S
C2627 C2622 1.390 . S
C2627 C2626 1.387 . S
H2628 C2640 0.930 . S
H2629 C2642 0.930 . S
H2630 C2643 0.930 . S
H2631 C2647 0.959 . S
H2632 C2647 0.959 . S
H2633 C2647 0.961 . S
H2634 C2648 0.960 . S
H2635 C2648 0.961 . S
H2636 C2648 0.959 . S
H2637 C2651 0.929 . S
H2638 C2652 0.931 . S
H2639 C2654 0.930 . S
C2640 H2628 0.930 . S
C2640 C2641 1.399 . S
C2640 C2645 1.399 . S
C2641 C2640 1.399 . S
C2641 C2642 1.376 . S
C2642 H2629 0.930 . S
C2642 C2641 1.376 . S
C2642 C2643 1.388 . S
C2643 H2630 0.930 . S
C2643 C2642 1.388 . S
C2643 C2644 1.390 . S
C2644 C2643 1.390 . S
C2644 C2645 1.394 . S
C2644 C2650 1.465 . S
C2645 C2640 1.399 . S
C2645 C2644 1.394 . S
C2645 C2646 1.516 . S
C2646 C2645 1.516 . S
C2646 C2647 1.502 . S
C2646 C2648 1.561 . S
C2646 C2649 1.526 . S
C2647 H2631 0.959 . S
C2647 H2632 0.959 . S
C2647 H2633 0.961 . S
C2647 C2646 1.502 . S
C2648 H2634 0.960 . S
C2648 H2635 0.961 . S
C2648 H2636 0.959 . S
C2648 C2646 1.561 . S
C2649 C2646 1.526 . S
C2649 C2650 1.396 . S
C2649 C2654 1.390 . S
C2650 C2644 1.465 . S
C2650 C2649 1.396 . S
C2650 C2651 1.399 . S
C2651 H2637 0.929 . S
C2651 C2650 1.399 . S
C2651 C2652 1.385 . S
C2652 H2638 0.931 . S
C2652 C2651 1.385 . S
C2652 C2653 1.389 . S
C2653 C2652 1.389 . S
C2653 C2654 1.387 . S
C2654 H2639 0.930 . S
C2654 C2649 1.390 . S
C2654 C2653 1.387 . S
H2655 C2667 0.930 . S
H2656 C2669 0.930 . S
H2657 C2670 0.930 . S
H2658 C2674 0.959 . S
H2659 C2674 0.959 . S
H2660 C2674 0.961 . S
H2661 C2675 0.960 . S
H2662 C2675 0.961 . S
H2663 C2675 0.959 . S
H2664 C2678 0.929 . S
H2665 C2679 0.931 . S
H2666 C2681 0.930 . S
C2667 H2655 0.930 . S
C2667 C2668 1.399 . S
C2667 C2672 1.399 . S
C2668 C2667 1.399 . S
C2668 C2669 1.376 . S
C2669 H2656 0.930 . S
C2669 C2668 1.376 . S
C2669 C2670 1.388 . S
C2670 H2657 0.930 . S
C2670 C2669 1.388 . S
C2670 C2671 1.390 . S
C2671 C2670 1.390 . S
C2671 C2672 1.394 . S
C2671 C2677 1.465 . S
C2672 C2667 1.399 . S
C2672 C2671 1.394 . S
C2672 C2673 1.516 . S
C2673 C2672 1.516 . S
C2673 C2674 1.502 . S
C2673 C2675 1.561 . S
C2673 C2676 1.526 . S
C2674 H2658 0.959 . S
C2674 H2659 0.959 . S
C2674 H2660 0.961 . S
C2674 C2673 1.502 . S
C2675 H2661 0.960 . S
C2675 H2662 0.961 . S
C2675 H2663 0.959 . S
C2675 C2673 1.561 . S
C2676 C2673 1.526 . S
C2676 C2677 1.396 . S
C2676 C2681 1.390 . S
C2677 C2671 1.465 . S
C2677 C2676 1.396 . S
C2677 C2678 1.399 . S
C2678 H2664 0.929 . S
C2678 C2677 1.399 . S
C2678 C2679 1.385 . S
C2679 H2665 0.931 . S
C2679 C2678 1.385 . S
C2679 C2680 1.389 . S
C2680 C2679 1.389 . S
C2680 C2681 1.387 . S
C2681 H2666 0.930 . S
C2681 C2676 1.390 . S
C2681 C2680 1.387 . S
H2682 C2694 0.930 . S
H2683 C2696 0.930 . S
H2684 C2697 0.930 . S
H2685 C2701 0.959 . S
H2686 C2701 0.959 . S
H2687 C2701 0.961 . S
H2688 C2702 0.960 . S
H2689 C2702 0.961 . S
H2690 C2702 0.959 . S
H2691 C2705 0.929 . S
H2692 C2706 0.931 . S
H2693 C2708 0.930 . S
C2694 H2682 0.930 . S
C2694 C2695 1.399 . S
C2694 C2699 1.399 . S
C2695 C2694 1.399 . S
C2695 C2696 1.376 . S
C2696 H2683 0.930 . S
C2696 C2695 1.376 . S
C2696 C2697 1.388 . S
C2697 H2684 0.930 . S
C2697 C2696 1.388 . S
C2697 C2698 1.390 . S
C2698 C2697 1.390 . S
C2698 C2699 1.394 . S
C2698 C2704 1.465 . S
C2699 C2694 1.399 . S
C2699 C2698 1.394 . S
C2699 C2700 1.516 . S
C2700 C2699 1.516 . S
C2700 C2701 1.502 . S
C2700 C2702 1.561 . S
C2700 C2703 1.526 . S
C2701 H2685 0.959 . S
C2701 H2686 0.959 . S
C2701 H2687 0.961 . S
C2701 C2700 1.502 . S
C2702 H2688 0.960 . S
C2702 H2689 0.961 . S
C2702 H2690 0.959 . S
C2702 C2700 1.561 . S
C2703 C2700 1.526 . S
C2703 C2704 1.396 . S
C2703 C2708 1.390 . S
C2704 C2698 1.465 . S
C2704 C2703 1.396 . S
C2704 C2705 1.399 . S
C2705 H2691 0.929 . S
C2705 C2704 1.399 . S
C2705 C2706 1.385 . S
C2706 H2692 0.931 . S
C2706 C2705 1.385 . S
C2706 C2707 1.389 . S
C2707 C2706 1.389 . S
C2707 C2708 1.387 . S
C2708 H2693 0.930 . S
C2708 C2703 1.390 . S
C2708 C2707 1.387 . S
H2709 C2721 0.930 . S
H2710 C2723 0.930 . S
H2711 C2724 0.930 . S
H2712 C2728 0.959 . S
H2713 C2728 0.959 . S
H2714 C2728 0.961 . S
H2715 C2729 0.960 . S
H2716 C2729 0.961 . S
H2717 C2729 0.959 . S
H2718 C2732 0.929 . S
H2719 C2733 0.931 . S
H2720 C2735 0.930 . S
C2721 H2709 0.930 . S
C2721 C2722 1.399 . S
C2721 C2726 1.399 . S
C2722 C2721 1.399 . S
C2722 C2723 1.376 . S
C2723 H2710 0.930 . S
C2723 C2722 1.376 . S
C2723 C2724 1.388 . S
C2724 H2711 0.930 . S
C2724 C2723 1.388 . S
C2724 C2725 1.390 . S
C2725 C2724 1.390 . S
C2725 C2726 1.394 . S
C2725 C2731 1.465 . S
C2726 C2721 1.399 . S
C2726 C2725 1.394 . S
C2726 C2727 1.516 . S
C2727 C2726 1.516 . S
C2727 C2728 1.502 . S
C2727 C2729 1.561 . S
C2727 C2730 1.526 . S
C2728 H2712 0.959 . S
C2728 H2713 0.959 . S
C2728 H2714 0.961 . S
C2728 C2727 1.502 . S
C2729 H2715 0.960 . S
C2729 H2716 0.961 . S
C2729 H2717 0.959 . S
C2729 C2727 1.561 . S
C2730 C2727 1.526 . S
C2730 C2731 1.396 . S
C2730 C2735 1.390 . S
C2731 C2725 1.465 . S
C2731 C2730 1.396 . S
C2731 C2732 1.399 . S
C2732 H2718 0.929 . S
C2732 C2731 1.399 . S
C2732 C2733 1.385 . S
C2733 H2719 0.931 . S
C2733 C2732 1.385 . S
C2733 C2734 1.389 . S
C2734 C2733 1.389 . S
C2734 C2735 1.387 . S
C2735 H2720 0.930 . S
C2735 C2730 1.390 . S
C2735 C2734 1.387 . S
H2736 C2748 0.930 . S
H2737 C2750 0.930 . S
H2738 C2751 0.930 . S
H2739 C2755 0.959 . S
H2740 C2755 0.959 . S
H2741 C2755 0.961 . S
H2742 C2756 0.960 . S
H2743 C2756 0.961 . S
H2744 C2756 0.959 . S
H2745 C2759 0.929 . S
H2746 C2760 0.931 . S
H2747 C2762 0.930 . S
C2748 H2736 0.930 . S
C2748 C2749 1.399 . S
C2748 C2753 1.399 . S
C2749 C2748 1.399 . S
C2749 C2750 1.376 . S
C2750 H2737 0.930 . S
C2750 C2749 1.376 . S
C2750 C2751 1.388 . S
C2751 H2738 0.930 . S
C2751 C2750 1.388 . S
C2751 C2752 1.390 . S
C2752 C2751 1.390 . S
C2752 C2753 1.394 . S
C2752 C2758 1.465 . S
C2753 C2748 1.399 . S
C2753 C2752 1.394 . S
C2753 C2754 1.516 . S
C2754 C2753 1.516 . S
C2754 C2755 1.502 . S
C2754 C2756 1.561 . S
C2754 C2757 1.526 . S
C2755 H2739 0.959 . S
C2755 H2740 0.959 . S
C2755 H2741 0.961 . S
C2755 C2754 1.502 . S
C2756 H2742 0.960 . S
C2756 H2743 0.961 . S
C2756 H2744 0.959 . S
C2756 C2754 1.561 . S
C2757 C2754 1.526 . S
C2757 C2758 1.396 . S
C2757 C2762 1.390 . S
C2758 C2752 1.465 . S
C2758 C2757 1.396 . S
C2758 C2759 1.399 . S
C2759 H2745 0.929 . S
C2759 C2758 1.399 . S
C2759 C2760 1.385 . S
C2760 H2746 0.931 . S
C2760 C2759 1.385 . S
C2760 C2761 1.389 . S
C2761 C2760 1.389 . S
C2761 C2762 1.387 . S
C2762 H2747 0.930 . S
C2762 C2757 1.390 . S
C2762 C2761 1.387 . S
H2763 C2775 0.930 . S
H2764 C2777 0.930 . S
H2765 C2778 0.930 . S
H2766 C2782 0.959 . S
H2767 C2782 0.959 . S
H2768 C2782 0.961 . S
H2769 C2783 0.960 . S
H2770 C2783 0.961 . S
H2771 C2783 0.959 . S
H2772 C2786 0.929 . S
H2773 C2787 0.931 . S
H2774 C2789 0.930 . S
C2775 H2763 0.930 . S
C2775 C2776 1.399 . S
C2775 C2780 1.399 . S
C2776 C2775 1.399 . S
C2776 C2777 1.376 . S
C2777 H2764 0.930 . S
C2777 C2776 1.376 . S
C2777 C2778 1.388 . S
C2778 H2765 0.930 . S
C2778 C2777 1.388 . S
C2778 C2779 1.390 . S
C2779 C2778 1.390 . S
C2779 C2780 1.394 . S
C2779 C2785 1.465 . S
C2780 C2775 1.399 . S
C2780 C2779 1.394 . S
C2780 C2781 1.516 . S
C2781 C2780 1.516 . S
C2781 C2782 1.502 . S
C2781 C2783 1.561 . S
C2781 C2784 1.526 . S
C2782 H2766 0.959 . S
C2782 H2767 0.959 . S
C2782 H2768 0.961 . S
C2782 C2781 1.502 . S
C2783 H2769 0.960 . S
C2783 H2770 0.961 . S
C2783 H2771 0.959 . S
C2783 C2781 1.561 . S
C2784 C2781 1.526 . S
C2784 C2785 1.396 . S
C2784 C2789 1.390 . S
C2785 C2779 1.465 . S
C2785 C2784 1.396 . S
C2785 C2786 1.399 . S
C2786 H2772 0.929 . S
C2786 C2785 1.399 . S
C2786 C2787 1.385 . S
C2787 H2773 0.931 . S
C2787 C2786 1.385 . S
C2787 C2788 1.389 . S
C2788 C2787 1.389 . S
C2788 C2789 1.387 . S
C2789 H2774 0.930 . S
C2789 C2784 1.390 . S
C2789 C2788 1.387 . S
H2790 C2802 0.930 . S
H2791 C2804 0.930 . S
H2792 C2805 0.930 . S
H2793 C2809 0.959 . S
H2794 C2809 0.959 . S
H2795 C2809 0.961 . S
H2796 C2810 0.960 . S
H2797 C2810 0.961 . S
H2798 C2810 0.959 . S
H2799 C2813 0.929 . S
H2800 C2814 0.931 . S
H2801 C2816 0.930 . S
C2802 H2790 0.930 . S
C2802 C2803 1.399 . S
C2802 C2807 1.399 . S
C2803 C2802 1.399 . S
C2803 C2804 1.376 . S
C2804 H2791 0.930 . S
C2804 C2803 1.376 . S
C2804 C2805 1.388 . S
C2805 H2792 0.930 . S
C2805 C2804 1.388 . S
C2805 C2806 1.390 . S
C2806 C2805 1.390 . S
C2806 C2807 1.394 . S
C2806 C2812 1.465 . S
C2807 C2802 1.399 . S
C2807 C2806 1.394 . S
C2807 C2808 1.516 . S
C2808 C2807 1.516 . S
C2808 C2809 1.502 . S
C2808 C2810 1.561 . S
C2808 C2811 1.526 . S
C2809 H2793 0.959 . S
C2809 H2794 0.959 . S
C2809 H2795 0.961 . S
C2809 C2808 1.502 . S
C2810 H2796 0.960 . S
C2810 H2797 0.961 . S
C2810 H2798 0.959 . S
C2810 C2808 1.561 . S
C2811 C2808 1.526 . S
C2811 C2812 1.396 . S
C2811 C2816 1.390 . S
C2812 C2806 1.465 . S
C2812 C2811 1.396 . S
C2812 C2813 1.399 . S
C2813 H2799 0.929 . S
C2813 C2812 1.399 . S
C2813 C2814 1.385 . S
C2814 H2800 0.931 . S
C2814 C2813 1.385 . S
C2814 C2815 1.389 . S
C2815 C2814 1.389 . S
C2815 C2816 1.387 . S
C2816 H2801 0.930 . S
C2816 C2811 1.390 . S
C2816 C2815 1.387 . S
H2817 C2829 0.930 . S
H2818 C2831 0.930 . S
H2819 C2832 0.930 . S
H2820 C2836 0.959 . S
H2821 C2836 0.959 . S
H2822 C2836 0.961 . S
H2823 C2837 0.960 . S
H2824 C2837 0.961 . S
H2825 C2837 0.959 . S
H2826 C2840 0.929 . S
H2827 C2841 0.931 . S
H2828 C2843 0.930 . S
C2829 H2817 0.930 . S
C2829 C2830 1.399 . S
C2829 C2834 1.399 . S
C2830 C2829 1.399 . S
C2830 C2831 1.376 . S
C2831 H2818 0.930 . S
C2831 C2830 1.376 . S
C2831 C2832 1.388 . S
C2832 H2819 0.930 . S
C2832 C2831 1.388 . S
C2832 C2833 1.390 . S
C2833 C2832 1.390 . S
C2833 C2834 1.394 . S
C2833 C2839 1.465 . S
C2834 C2829 1.399 . S
C2834 C2833 1.394 . S
C2834 C2835 1.516 . S
C2835 C2834 1.516 . S
C2835 C2836 1.502 . S
C2835 C2837 1.561 . S
C2835 C2838 1.526 . S
C2836 H2820 0.959 . S
C2836 H2821 0.959 . S
C2836 H2822 0.961 . S
C2836 C2835 1.502 . S
C2837 H2823 0.960 . S
C2837 H2824 0.961 . S
C2837 H2825 0.959 . S
C2837 C2835 1.561 . S
C2838 C2835 1.526 . S
C2838 C2839 1.396 . S
C2838 C2843 1.390 . S
C2839 C2833 1.465 . S
C2839 C2838 1.396 . S
C2839 C2840 1.399 . S
C2840 H2826 0.929 . S
C2840 C2839 1.399 . S
C2840 C2841 1.385 . S
C2841 H2827 0.931 . S
C2841 C2840 1.385 . S
C2841 C2842 1.389 . S
C2842 C2841 1.389 . S
C2842 C2843 1.387 . S
C2843 H2828 0.930 . S
C2843 C2838 1.390 . S
C2843 C2842 1.387 . S
H2844 C2856 0.930 . S
H2845 C2858 0.930 . S
H2846 C2859 0.930 . S
H2847 C2863 0.959 . S
H2848 C2863 0.959 . S
H2849 C2863 0.961 . S
H2850 C2864 0.960 . S
H2851 C2864 0.961 . S
H2852 C2864 0.959 . S
H2853 C2867 0.929 . S
H2854 C2868 0.931 . S
H2855 C2870 0.930 . S
C2856 H2844 0.930 . S
C2856 C2857 1.399 . S
C2856 C2861 1.399 . S
C2857 C2856 1.399 . S
C2857 C2858 1.376 . S
C2858 H2845 0.930 . S
C2858 C2857 1.376 . S
C2858 C2859 1.388 . S
C2859 H2846 0.930 . S
C2859 C2858 1.388 . S
C2859 C2860 1.390 . S
C2860 C2859 1.390 . S
C2860 C2861 1.394 . S
C2860 C2866 1.465 . S
C2861 C2856 1.399 . S
C2861 C2860 1.394 . S
C2861 C2862 1.516 . S
C2862 C2861 1.516 . S
C2862 C2863 1.502 . S
C2862 C2864 1.561 . S
C2862 C2865 1.526 . S
C2863 H2847 0.959 . S
C2863 H2848 0.959 . S
C2863 H2849 0.961 . S
C2863 C2862 1.502 . S
C2864 H2850 0.960 . S
C2864 H2851 0.961 . S
C2864 H2852 0.959 . S
C2864 C2862 1.561 . S
C2865 C2862 1.526 . S
C2865 C2866 1.396 . S
C2865 C2870 1.390 . S
C2866 C2860 1.465 . S
C2866 C2865 1.396 . S
C2866 C2867 1.399 . S
C2867 H2853 0.929 . S
C2867 C2866 1.399 . S
C2867 C2868 1.385 . S
C2868 H2854 0.931 . S
C2868 C2867 1.385 . S
C2868 C2869 1.389 . S
C2869 C2868 1.389 . S
C2869 C2870 1.387 . S
C2870 H2855 0.930 . S
C2870 C2865 1.390 . S
C2870 C2869 1.387 . S
H2871 C2883 0.930 . S
H2872 C2885 0.930 . S
H2873 C2886 0.930 . S
H2874 C2890 0.959 . S
H2875 C2890 0.959 . S
H2876 C2890 0.961 . S
H2877 C2891 0.960 . S
H2878 C2891 0.961 . S
H2879 C2891 0.959 . S
H2880 C2894 0.929 . S
H2881 C2895 0.931 . S
H2882 C2897 0.930 . S
C2883 H2871 0.930 . S
C2883 C2884 1.399 . S
C2883 C2888 1.399 . S
C2884 C2883 1.399 . S
C2884 C2885 1.376 . S
C2885 H2872 0.930 . S
C2885 C2884 1.376 . S
C2885 C2886 1.388 . S
C2886 H2873 0.930 . S
C2886 C2885 1.388 . S
C2886 C2887 1.390 . S
C2887 C2886 1.390 . S
C2887 C2888 1.394 . S
C2887 C2893 1.465 . S
C2888 C2883 1.399 . S
C2888 C2887 1.394 . S
C2888 C2889 1.516 . S
C2889 C2888 1.516 . S
C2889 C2890 1.502 . S
C2889 C2891 1.561 . S
C2889 C2892 1.526 . S
C2890 H2874 0.959 . S
C2890 H2875 0.959 . S
C2890 H2876 0.961 . S
C2890 C2889 1.502 . S
C2891 H2877 0.960 . S
C2891 H2878 0.961 . S
C2891 H2879 0.959 . S
C2891 C2889 1.561 . S
C2892 C2889 1.526 . S
C2892 C2893 1.396 . S
C2892 C2897 1.390 . S
C2893 C2887 1.465 . S
C2893 C2892 1.396 . S
C2893 C2894 1.399 . S
C2894 H2880 0.929 . S
C2894 C2893 1.399 . S
C2894 C2895 1.385 . S
C2895 H2881 0.931 . S
C2895 C2894 1.385 . S
C2895 C2896 1.389 . S
C2896 C2895 1.389 . S
C2896 C2897 1.387 . S
C2897 H2882 0.930 . S
C2897 C2892 1.390 . S
C2897 C2896 1.387 . S
H2898 C2910 0.930 . S
H2899 C2912 0.930 . S
H2900 C2913 0.930 . S
H2901 C2917 0.959 . S
H2902 C2917 0.959 . S
H2903 C2917 0.961 . S
H2904 C2918 0.960 . S
H2905 C2918 0.961 . S
H2906 C2918 0.959 . S
H2907 C2921 0.929 . S
H2908 C2922 0.931 . S
H2909 C2924 0.930 . S
C2910 H2898 0.930 . S
C2910 C2911 1.399 . S
C2910 C2915 1.399 . S
C2911 C2910 1.399 . S
C2911 C2912 1.376 . S
C2912 H2899 0.930 . S
C2912 C2911 1.376 . S
C2912 C2913 1.388 . S
C2913 H2900 0.930 . S
C2913 C2912 1.388 . S
C2913 C2914 1.390 . S
C2914 C2913 1.390 . S
C2914 C2915 1.394 . S
C2914 C2920 1.465 . S
C2915 C2910 1.399 . S
C2915 C2914 1.394 . S
C2915 C2916 1.516 . S
C2916 C2915 1.516 . S
C2916 C2917 1.502 . S
C2916 C2918 1.561 . S
C2916 C2919 1.526 . S
C2917 H2901 0.959 . S
C2917 H2902 0.959 . S
C2917 H2903 0.961 . S
C2917 C2916 1.502 . S
C2918 H2904 0.960 . S
C2918 H2905 0.961 . S
C2918 H2906 0.959 . S
C2918 C2916 1.561 . S
C2919 C2916 1.526 . S
C2919 C2920 1.396 . S
C2919 C2924 1.390 . S
C2920 C2914 1.465 . S
C2920 C2919 1.396 . S
C2920 C2921 1.399 . S
C2921 H2907 0.929 . S
C2921 C2920 1.399 . S
C2921 C2922 1.385 . S
C2922 H2908 0.931 . S
C2922 C2921 1.385 . S
C2922 C2923 1.389 . S
C2923 C2922 1.389 . S
C2923 C2924 1.387 . S
C2924 H2909 0.930 . S
C2924 C2919 1.390 . S
C2924 C2923 1.387 . S
H2925 C2937 0.930 . S
H2926 C2939 0.930 . S
H2927 C2940 0.930 . S
H2928 C2944 0.959 . S
H2929 C2944 0.959 . S
H2930 C2944 0.961 . S
H2931 C2945 0.960 . S
H2932 C2945 0.961 . S
H2933 C2945 0.959 . S
H2934 C2948 0.929 . S
H2935 C2949 0.931 . S
H2936 C2951 0.930 . S
C2937 H2925 0.930 . S
C2937 C2938 1.399 . S
C2937 C2942 1.399 . S
C2938 C2937 1.399 . S
C2938 C2939 1.376 . S
C2939 H2926 0.930 . S
C2939 C2938 1.376 . S
C2939 C2940 1.388 . S
C2940 H2927 0.930 . S
C2940 C2939 1.388 . S
C2940 C2941 1.390 . S
C2941 C2940 1.390 . S
C2941 C2942 1.394 . S
C2941 C2947 1.465 . S
C2942 C2937 1.399 . S
C2942 C2941 1.394 . S
C2942 C2943 1.516 . S
C2943 C2942 1.516 . S
C2943 C2944 1.502 . S
C2943 C2945 1.561 . S
C2943 C2946 1.526 . S
C2944 H2928 0.959 . S
C2944 H2929 0.959 . S
C2944 H2930 0.961 . S
C2944 C2943 1.502 . S
C2945 H2931 0.960 . S
C2945 H2932 0.961 . S
C2945 H2933 0.959 . S
C2945 C2943 1.561 . S
C2946 C2943 1.526 . S
C2946 C2947 1.396 . S
C2946 C2951 1.390 . S
C2947 C2941 1.465 . S
C2947 C2946 1.396 . S
C2947 C2948 1.399 . S
C2948 H2934 0.929 . S
C2948 C2947 1.399 . S
C2948 C2949 1.385 . S
C2949 H2935 0.931 . S
C2949 C2948 1.385 . S
C2949 C2950 1.389 . S
C2950 C2949 1.389 . S
C2950 C2951 1.387 . S
C2951 H2936 0.930 . S
C2951 C2946 1.390 . S
C2951 C2950 1.387 . S
H2952 C2964 0.930 . S
H2953 C2966 0.930 . S
H2954 C2967 0.930 . S
H2955 C2971 0.959 . S
H2956 C2971 0.959 . S
H2957 C2971 0.961 . S
H2958 C2972 0.960 . S
H2959 C2972 0.961 . S
H2960 C2972 0.959 . S
H2961 C2975 0.929 . S
H2962 C2976 0.931 . S
H2963 C2978 0.930 . S
C2964 H2952 0.930 . S
C2964 C2965 1.399 . S
C2964 C2969 1.399 . S
C2965 C2964 1.399 . S
C2965 C2966 1.376 . S
C2966 H2953 0.930 . S
C2966 C2965 1.376 . S
C2966 C2967 1.388 . S
C2967 H2954 0.930 . S
C2967 C2966 1.388 . S
C2967 C2968 1.390 . S
C2968 C2967 1.390 . S
C2968 C2969 1.394 . S
C2968 C2974 1.465 . S
C2969 C2964 1.399 . S
C2969 C2968 1.394 . S
C2969 C2970 1.516 . S
C2970 C2969 1.516 . S
C2970 C2971 1.502 . S
C2970 C2972 1.561 . S
C2970 C2973 1.526 . S
C2971 H2955 0.959 . S
C2971 H2956 0.959 . S
C2971 H2957 0.961 . S
C2971 C2970 1.502 . S
C2972 H2958 0.960 . S
C2972 H2959 0.961 . S
C2972 H2960 0.959 . S
C2972 C2970 1.561 . S
C2973 C2970 1.526 . S
C2973 C2974 1.396 . S
C2973 C2978 1.390 . S
C2974 C2968 1.465 . S
C2974 C2973 1.396 . S
C2974 C2975 1.399 . S
C2975 H2961 0.929 . S
C2975 C2974 1.399 . S
C2975 C2976 1.385 . S
C2976 H2962 0.931 . S
C2976 C2975 1.385 . S
C2976 C2977 1.389 . S
C2977 C2976 1.389 . S
C2977 C2978 1.387 . S
C2978 H2963 0.930 . S
C2978 C2973 1.390 . S
C2978 C2977 1.387 . S
H2979 C2991 0.930 . S
H2980 C2993 0.930 . S
H2981 C2994 0.930 . S
H2982 C2998 0.959 . S
H2983 C2998 0.959 . S
H2984 C2998 0.961 . S
H2985 C2999 0.960 . S
H2986 C2999 0.961 . S
H2987 C2999 0.959 . S
H2988 C3002 0.929 . S
H2989 C3003 0.931 . S
H2990 C3005 0.930 . S
C2991 H2979 0.930 . S
C2991 C2992 1.399 . S
C2991 C2996 1.399 . S
C2992 C2991 1.399 . S
C2992 C2993 1.376 . S
C2993 H2980 0.930 . S
C2993 C2992 1.376 . S
C2993 C2994 1.388 . S
C2994 H2981 0.930 . S
C2994 C2993 1.388 . S
C2994 C2995 1.390 . S
C2995 C2994 1.390 . S
C2995 C2996 1.394 . S
C2995 C3001 1.465 . S
C2996 C2991 1.399 . S
C2996 C2995 1.394 . S
C2996 C2997 1.516 . S
C2997 C2996 1.516 . S
C2997 C2998 1.502 . S
C2997 C2999 1.561 . S
C2997 C3000 1.526 . S
C2998 H2982 0.959 . S
C2998 H2983 0.959 . S
C2998 H2984 0.961 . S
C2998 C2997 1.502 . S
C2999 H2985 0.960 . S
C2999 H2986 0.961 . S
C2999 H2987 0.959 . S
C2999 C2997 1.561 . S
C3000 C2997 1.526 . S
C3000 C3001 1.396 . S
C3000 C3005 1.390 . S
C3001 C2995 1.465 . S
C3001 C3000 1.396 . S
C3001 C3002 1.399 . S
C3002 H2988 0.929 . S
C3002 C3001 1.399 . S
C3002 C3003 1.385 . S
C3003 H2989 0.931 . S
C3003 C3002 1.385 . S
C3003 C3004 1.389 . S
C3004 C3003 1.389 . S
C3004 C3005 1.387 . S
C3005 H2990 0.930 . S
C3005 C3000 1.390 . S
C3005 C3004 1.387 . S
H3006 C3018 0.930 . S
H3007 C3020 0.930 . S
H3008 C3021 0.930 . S
H3009 C3025 0.959 . S
H3010 C3025 0.959 . S
H3011 C3025 0.961 . S
H3012 C3026 0.960 . S
H3013 C3026 0.961 . S
H3014 C3026 0.959 . S
H3015 C3029 0.929 . S
H3016 C3030 0.931 . S
H3017 C3032 0.930 . S
C3018 H3006 0.930 . S
C3018 C3019 1.399 . S
C3018 C3023 1.399 . S
C3019 C3018 1.399 . S
C3019 C3020 1.376 . S
C3020 H3007 0.930 . S
C3020 C3019 1.376 . S
C3020 C3021 1.388 . S
C3021 H3008 0.930 . S
C3021 C3020 1.388 . S
C3021 C3022 1.390 . S
C3022 C3021 1.390 . S
C3022 C3023 1.394 . S
C3022 C3028 1.465 . S
C3023 C3018 1.399 . S
C3023 C3022 1.394 . S
C3023 C3024 1.516 . S
C3024 C3023 1.516 . S
C3024 C3025 1.502 . S
C3024 C3026 1.561 . S
C3024 C3027 1.526 . S
C3025 H3009 0.959 . S
C3025 H3010 0.959 . S
C3025 H3011 0.961 . S
C3025 C3024 1.502 . S
C3026 H3012 0.960 . S
C3026 H3013 0.961 . S
C3026 H3014 0.959 . S
C3026 C3024 1.561 . S
C3027 C3024 1.526 . S
C3027 C3028 1.396 . S
C3027 C3032 1.390 . S
C3028 C3022 1.465 . S
C3028 C3027 1.396 . S
C3028 C3029 1.399 . S
C3029 H3015 0.929 . S
C3029 C3028 1.399 . S
C3029 C3030 1.385 . S
C3030 H3016 0.931 . S
C3030 C3029 1.385 . S
C3030 C3031 1.389 . S
C3031 C3030 1.389 . S
C3031 C3032 1.387 . S
C3032 H3017 0.930 . S
C3032 C3027 1.390 . S
C3032 C3031 1.387 . S
H3033 C3045 0.930 . S
H3034 C3047 0.930 . S
H3035 C3048 0.930 . S
H3036 C3052 0.959 . S
H3037 C3052 0.959 . S
H3038 C3052 0.961 . S
H3039 C3053 0.960 . S
H3040 C3053 0.961 . S
H3041 C3053 0.959 . S
H3042 C3056 0.929 . S
H3043 C3057 0.931 . S
H3044 C3059 0.930 . S
C3045 H3033 0.930 . S
C3045 C3046 1.399 . S
C3045 C3050 1.399 . S
C3046 C3045 1.399 . S
C3046 C3047 1.376 . S
C3047 H3034 0.930 . S
C3047 C3046 1.376 . S
C3047 C3048 1.388 . S
C3048 H3035 0.930 . S
C3048 C3047 1.388 . S
C3048 C3049 1.390 . S
C3049 C3048 1.390 . S
C3049 C3050 1.394 . S
C3049 C3055 1.465 . S
C3050 C3045 1.399 . S
C3050 C3049 1.394 . S
C3050 C3051 1.516 . S
C3051 C3050 1.516 . S
C3051 C3052 1.502 . S
C3051 C3053 1.561 . S
C3051 C3054 1.526 . S
C3052 H3036 0.959 . S
C3052 H3037 0.959 . S
C3052 H3038 0.961 . S
C3052 C3051 1.502 . S
C3053 H3039 0.960 . S
C3053 H3040 0.961 . S
C3053 H3041 0.959 . S
C3053 C3051 1.561 . S
C3054 C3051 1.526 . S
C3054 C3055 1.396 . S
C3054 C3059 1.390 . S
C3055 C3049 1.465 . S
C3055 C3054 1.396 . S
C3055 C3056 1.399 . S
C3056 H3042 0.929 . S
C3056 C3055 1.399 . S
C3056 C3057 1.385 . S
C3057 H3043 0.931 . S
C3057 C3056 1.385 . S
C3057 C3058 1.389 . S
C3058 C3057 1.389 . S
C3058 C3059 1.387 . S
C3059 H3044 0.930 . S
C3059 C3054 1.390 . S
C3059 C3058 1.387 . S
H3060 C3072 0.930 . S
H3061 C3074 0.930 . S
H3062 C3075 0.930 . S
H3063 C3079 0.959 . S
H3064 C3079 0.959 . S
H3065 C3079 0.961 . S
H3066 C3080 0.960 . S
H3067 C3080 0.961 . S
H3068 C3080 0.959 . S
H3069 C3083 0.929 . S
H3070 C3084 0.931 . S
H3071 C3086 0.930 . S
C3072 H3060 0.930 . S
C3072 C3073 1.399 . S
C3072 C3077 1.399 . S
C3073 C3072 1.399 . S
C3073 C3074 1.376 . S
C3074 H3061 0.930 . S
C3074 C3073 1.376 . S
C3074 C3075 1.388 . S
C3075 H3062 0.930 . S
C3075 C3074 1.388 . S
C3075 C3076 1.390 . S
C3076 C3075 1.390 . S
C3076 C3077 1.394 . S
C3076 C3082 1.465 . S
C3077 C3072 1.399 . S
C3077 C3076 1.394 . S
C3077 C3078 1.516 . S
C3078 C3077 1.516 . S
C3078 C3079 1.502 . S
C3078 C3080 1.561 . S
C3078 C3081 1.526 . S
C3079 H3063 0.959 . S
C3079 H3064 0.959 . S
C3079 H3065 0.961 . S
C3079 C3078 1.502 . S
C3080 H3066 0.960 . S
C3080 H3067 0.961 . S
C3080 H3068 0.959 . S
C3080 C3078 1.561 . S
C3081 C3078 1.526 . S
C3081 C3082 1.396 . S
C3081 C3086 1.390 . S
C3082 C3076 1.465 . S
C3082 C3081 1.396 . S
C3082 C3083 1.399 . S
C3083 H3069 0.929 . S
C3083 C3082 1.399 . S
C3083 C3084 1.385 . S
C3084 H3070 0.931 . S
C3084 C3083 1.385 . S
C3084 C3085 1.389 . S
C3085 C3084 1.389 . S
C3085 C3086 1.387 . S
C3086 H3071 0.930 . S
C3086 C3081 1.390 . S
C3086 C3085 1.387 . S
H3087 C3099 0.930 . S
H3088 C3101 0.930 . S
H3089 C3102 0.930 . S
H3090 C3106 0.959 . S
H3091 C3106 0.959 . S
H3092 C3106 0.961 . S
H3093 C3107 0.960 . S
H3094 C3107 0.961 . S
H3095 C3107 0.959 . S
H3096 C3110 0.929 . S
H3097 C3111 0.931 . S
H3098 C3113 0.930 . S
C3099 H3087 0.930 . S
C3099 C3100 1.399 . S
C3099 C3104 1.399 . S
C3100 C3099 1.399 . S
C3100 C3101 1.376 . S
C3101 H3088 0.930 . S
C3101 C3100 1.376 . S
C3101 C3102 1.388 . S
C3102 H3089 0.930 . S
C3102 C3101 1.388 . S
C3102 C3103 1.390 . S
C3103 C3102 1.390 . S
C3103 C3104 1.394 . S
C3103 C3109 1.465 . S
C3104 C3099 1.399 . S
C3104 C3103 1.394 . S
C3104 C3105 1.516 . S
C3105 C3104 1.516 . S
C3105 C3106 1.502 . S
C3105 C3107 1.561 . S
C3105 C3108 1.526 . S
C3106 H3090 0.959 . S
C3106 H3091 0.959 . S
C3106 H3092 0.961 . S
C3106 C3105 1.502 . S
C3107 H3093 0.960 . S
C3107 H3094 0.961 . S
C3107 H3095 0.959 . S
C3107 C3105 1.561 . S
C3108 C3105 1.526 . S
C3108 C3109 1.396 . S
C3108 C3113 1.390 . S
C3109 C3103 1.465 . S
C3109 C3108 1.396 . S
C3109 C3110 1.399 . S
C3110 H3096 0.929 . S
C3110 C3109 1.399 . S
C3110 C3111 1.385 . S
C3111 H3097 0.931 . S
C3111 C3110 1.385 . S
C3111 C3112 1.389 . S
C3112 C3111 1.389 . S
C3112 C3113 1.387 . S
C3113 H3098 0.930 . S
C3113 C3108 1.390 . S
C3113 C3112 1.387 . S
H3114 C3126 0.930 . S
H3115 C3128 0.930 . S
H3116 C3129 0.930 . S
H3117 C3133 0.959 . S
H3118 C3133 0.959 . S
H3119 C3133 0.961 . S
H3120 C3134 0.960 . S
H3121 C3134 0.961 . S
H3122 C3134 0.959 . S
H3123 C3137 0.929 . S
H3124 C3138 0.931 . S
H3125 C3140 0.930 . S
C3126 H3114 0.930 . S
C3126 C3127 1.399 . S
C3126 C3131 1.399 . S
C3127 C3126 1.399 . S
C3127 C3128 1.376 . S
C3128 H3115 0.930 . S
C3128 C3127 1.376 . S
C3128 C3129 1.388 . S
C3129 H3116 0.930 . S
C3129 C3128 1.388 . S
C3129 C3130 1.390 . S
C3130 C3129 1.390 . S
C3130 C3131 1.394 . S
C3130 C3136 1.465 . S
C3131 C3126 1.399 . S
C3131 C3130 1.394 . S
C3131 C3132 1.516 . S
C3132 C3131 1.516 . S
C3132 C3133 1.502 . S
C3132 C3134 1.561 . S
C3132 C3135 1.526 . S
C3133 H3117 0.959 . S
C3133 H3118 0.959 . S
C3133 H3119 0.961 . S
C3133 C3132 1.502 . S
C3134 H3120 0.960 . S
C3134 H3121 0.961 . S
C3134 H3122 0.959 . S
C3134 C3132 1.561 . S
C3135 C3132 1.526 . S
C3135 C3136 1.396 . S
C3135 C3140 1.390 . S
C3136 C3130 1.465 . S
C3136 C3135 1.396 . S
C3136 C3137 1.399 . S
C3137 H3123 0.929 . S
C3137 C3136 1.399 . S
C3137 C3138 1.385 . S
C3138 H3124 0.931 . S
C3138 C3137 1.385 . S
C3138 C3139 1.389 . S
C3139 C3138 1.389 . S
C3139 C3140 1.387 . S
C3140 H3125 0.930 . S
C3140 C3135 1.390 . S
C3140 C3139 1.387 . S
H3141 C3153 0.930 . S
H3142 C3155 0.930 . S
H3143 C3156 0.930 . S
H3144 C3160 0.959 . S
H3145 C3160 0.959 . S
H3146 C3160 0.961 . S
H3147 C3161 0.960 . S
H3148 C3161 0.961 . S
H3149 C3161 0.959 . S
H3150 C3164 0.929 . S
H3151 C3165 0.931 . S
H3152 C3167 0.930 . S
C3153 H3141 0.930 . S
C3153 C3154 1.399 . S
C3153 C3158 1.399 . S
C3154 C3153 1.399 . S
C3154 C3155 1.376 . S
C3155 H3142 0.930 . S
C3155 C3154 1.376 . S
C3155 C3156 1.388 . S
C3156 H3143 0.930 . S
C3156 C3155 1.388 . S
C3156 C3157 1.390 . S
C3157 C3156 1.390 . S
C3157 C3158 1.394 . S
C3157 C3163 1.465 . S
C3158 C3153 1.399 . S
C3158 C3157 1.394 . S
C3158 C3159 1.516 . S
C3159 C3158 1.516 . S
C3159 C3160 1.502 . S
C3159 C3161 1.561 . S
C3159 C3162 1.526 . S
C3160 H3144 0.959 . S
C3160 H3145 0.959 . S
C3160 H3146 0.961 . S
C3160 C3159 1.502 . S
C3161 H3147 0.960 . S
C3161 H3148 0.961 . S
C3161 H3149 0.959 . S
C3161 C3159 1.561 . S
C3162 C3159 1.526 . S
C3162 C3163 1.396 . S
C3162 C3167 1.390 . S
C3163 C3157 1.465 . S
C3163 C3162 1.396 . S
C3163 C3164 1.399 . S
C3164 H3150 0.929 . S
C3164 C3163 1.399 . S
C3164 C3165 1.385 . S
C3165 H3151 0.931 . S
C3165 C3164 1.385 . S
C3165 C3166 1.389 . S
C3166 C3165 1.389 . S
C3166 C3167 1.387 . S
C3167 H3152 0.930 . S
C3167 C3162 1.390 . S
C3167 C3166 1.387 . S
H3168 C3180 0.930 . S
H3169 C3182 0.930 . S
H3170 C3183 0.930 . S
H3171 C3187 0.959 . S
H3172 C3187 0.959 . S
H3173 C3187 0.961 . S
H3174 C3188 0.960 . S
H3175 C3188 0.961 . S
H3176 C3188 0.959 . S
H3177 C3191 0.929 . S
H3178 C3192 0.931 . S
H3179 C3194 0.930 . S
C3180 H3168 0.930 . S
C3180 C3181 1.399 . S
C3180 C3185 1.399 . S
C3181 C3180 1.399 . S
C3181 C3182 1.376 . S
C3182 H3169 0.930 . S
C3182 C3181 1.376 . S
C3182 C3183 1.388 . S
C3183 H3170 0.930 . S
C3183 C3182 1.388 . S
C3183 C3184 1.390 . S
C3184 C3183 1.390 . S
C3184 C3185 1.394 . S
C3184 C3190 1.465 . S
C3185 C3180 1.399 . S
C3185 C3184 1.394 . S
C3185 C3186 1.516 . S
C3186 C3185 1.516 . S
C3186 C3187 1.502 . S
C3186 C3188 1.561 . S
C3186 C3189 1.526 . S
C3187 H3171 0.959 . S
C3187 H3172 0.959 . S
C3187 H3173 0.961 . S
C3187 C3186 1.502 . S
C3188 H3174 0.960 . S
C3188 H3175 0.961 . S
C3188 H3176 0.959 . S
C3188 C3186 1.561 . S
C3189 C3186 1.526 . S
C3189 C3190 1.396 . S
C3189 C3194 1.390 . S
C3190 C3184 1.465 . S
C3190 C3189 1.396 . S
C3190 C3191 1.399 . S
C3191 H3177 0.929 . S
C3191 C3190 1.399 . S
C3191 C3192 1.385 . S
C3192 H3178 0.931 . S
C3192 C3191 1.385 . S
C3192 C3193 1.389 . S
C3193 C3192 1.389 . S
C3193 C3194 1.387 . S
C3194 H3179 0.930 . S
C3194 C3189 1.390 . S
C3194 C3193 1.387 . S
H3195 C3207 0.930 . S
H3196 C3209 0.930 . S
H3197 C3210 0.930 . S
H3198 C3214 0.959 . S
H3199 C3214 0.959 . S
H3200 C3214 0.961 . S
H3201 C3215 0.960 . S
H3202 C3215 0.961 . S
H3203 C3215 0.959 . S
H3204 C3218 0.929 . S
H3205 C3219 0.931 . S
H3206 C3221 0.930 . S
C3207 H3195 0.930 . S
C3207 C3208 1.399 . S
C3207 C3212 1.399 . S
C3208 C3207 1.399 . S
C3208 C3209 1.376 . S
C3209 H3196 0.930 . S
C3209 C3208 1.376 . S
C3209 C3210 1.388 . S
C3210 H3197 0.930 . S
C3210 C3209 1.388 . S
C3210 C3211 1.390 . S
C3211 C3210 1.390 . S
C3211 C3212 1.394 . S
C3211 C3217 1.465 . S
C3212 C3207 1.399 . S
C3212 C3211 1.394 . S
C3212 C3213 1.516 . S
C3213 C3212 1.516 . S
C3213 C3214 1.502 . S
C3213 C3215 1.561 . S
C3213 C3216 1.526 . S
C3214 H3198 0.959 . S
C3214 H3199 0.959 . S
C3214 H3200 0.961 . S
C3214 C3213 1.502 . S
C3215 H3201 0.960 . S
C3215 H3202 0.961 . S
C3215 H3203 0.959 . S
C3215 C3213 1.561 . S
C3216 C3213 1.526 . S
C3216 C3217 1.396 . S
C3216 C3221 1.390 . S
C3217 C3211 1.465 . S
C3217 C3216 1.396 . S
C3217 C3218 1.399 . S
C3218 H3204 0.929 . S
C3218 C3217 1.399 . S
C3218 C3219 1.385 . S
C3219 H3205 0.931 . S
C3219 C3218 1.385 . S
C3219 C3220 1.389 . S
C3220 C3219 1.389 . S
C3220 C3221 1.387 . S
C3221 H3206 0.930 . S
C3221 C3216 1.390 . S
C3221 C3220 1.387 . S
H3222 C3234 0.930 . S
H3223 C3236 0.930 . S
H3224 C3237 0.930 . S
H3225 C3241 0.959 . S
H3226 C3241 0.959 . S
H3227 C3241 0.961 . S
H3228 C3242 0.960 . S
H3229 C3242 0.961 . S
H3230 C3242 0.959 . S
H3231 C3245 0.929 . S
H3232 C3246 0.931 . S
H3233 C3248 0.930 . S
C3234 H3222 0.930 . S
C3234 C3235 1.399 . S
C3234 C3239 1.399 . S
C3235 C3234 1.399 . S
C3235 C3236 1.376 . S
C3236 H3223 0.930 . S
C3236 C3235 1.376 . S
C3236 C3237 1.388 . S
C3237 H3224 0.930 . S
C3237 C3236 1.388 . S
C3237 C3238 1.390 . S
C3238 C3237 1.390 . S
C3238 C3239 1.394 . S
C3238 C3244 1.465 . S
C3239 C3234 1.399 . S
C3239 C3238 1.394 . S
C3239 C3240 1.516 . S
C3240 C3239 1.516 . S
C3240 C3241 1.502 . S
C3240 C3242 1.561 . S
C3240 C3243 1.526 . S
C3241 H3225 0.959 . S
C3241 H3226 0.959 . S
C3241 H3227 0.961 . S
C3241 C3240 1.502 . S
C3242 H3228 0.960 . S
C3242 H3229 0.961 . S
C3242 H3230 0.959 . S
C3242 C3240 1.561 . S
C3243 C3240 1.526 . S
C3243 C3244 1.396 . S
C3243 C3248 1.390 . S
C3244 C3238 1.465 . S
C3244 C3243 1.396 . S
C3244 C3245 1.399 . S
C3245 H3231 0.929 . S
C3245 C3244 1.399 . S
C3245 C3246 1.385 . S
C3246 H3232 0.931 . S
C3246 C3245 1.385 . S
C3246 C3247 1.389 . S
C3247 C3246 1.389 . S
C3247 C3248 1.387 . S
C3248 H3233 0.930 . S
C3248 C3243 1.390 . S
C3248 C3247 1.387 . S
H3249 C3261 0.930 . S
H3250 C3263 0.930 . S
H3251 C3264 0.930 . S
H3252 C3268 0.959 . S
H3253 C3268 0.959 . S
H3254 C3268 0.961 . S
H3255 C3269 0.960 . S
H3256 C3269 0.961 . S
H3257 C3269 0.959 . S
H3258 C3272 0.929 . S
H3259 C3273 0.931 . S
H3260 C3275 0.930 . S
C3261 H3249 0.930 . S
C3261 C3262 1.399 . S
C3261 C3266 1.399 . S
C3262 C3261 1.399 . S
C3262 C3263 1.376 . S
C3263 H3250 0.930 . S
C3263 C3262 1.376 . S
C3263 C3264 1.388 . S
C3264 H3251 0.930 . S
C3264 C3263 1.388 . S
C3264 C3265 1.390 . S
C3265 C3264 1.390 . S
C3265 C3266 1.394 . S
C3265 C3271 1.465 . S
C3266 C3261 1.399 . S
C3266 C3265 1.394 . S
C3266 C3267 1.516 . S
C3267 C3266 1.516 . S
C3267 C3268 1.502 . S
C3267 C3269 1.561 . S
C3267 C3270 1.526 . S
C3268 H3252 0.959 . S
C3268 H3253 0.959 . S
C3268 H3254 0.961 . S
C3268 C3267 1.502 . S
C3269 H3255 0.960 . S
C3269 H3256 0.961 . S
C3269 H3257 0.959 . S
C3269 C3267 1.561 . S
C3270 C3267 1.526 . S
C3270 C3271 1.396 . S
C3270 C3275 1.390 . S
C3271 C3265 1.465 . S
C3271 C3270 1.396 . S
C3271 C3272 1.399 . S
C3272 H3258 0.929 . S
C3272 C3271 1.399 . S
C3272 C3273 1.385 . S
C3273 H3259 0.931 . S
C3273 C3272 1.385 . S
C3273 C3274 1.389 . S
C3274 C3273 1.389 . S
C3274 C3275 1.387 . S
C3275 H3260 0.930 . S
C3275 C3270 1.390 . S
C3275 C3274 1.387 . S
H3276 C3288 0.930 . S
H3277 C3290 0.930 . S
H3278 C3291 0.930 . S
H3279 C3295 0.959 . S
H3280 C3295 0.959 . S
H3281 C3295 0.961 . S
H3282 C3296 0.960 . S
H3283 C3296 0.961 . S
H3284 C3296 0.959 . S
H3285 C3299 0.929 . S
H3286 C3300 0.931 . S
H3287 C3302 0.930 . S
C3288 H3276 0.930 . S
C3288 C3289 1.399 . S
C3288 C3293 1.399 . S
C3289 C3288 1.399 . S
C3289 C3290 1.376 . S
C3290 H3277 0.930 . S
C3290 C3289 1.376 . S
C3290 C3291 1.388 . S
C3291 H3278 0.930 . S
C3291 C3290 1.388 . S
C3291 C3292 1.390 . S
C3292 C3291 1.390 . S
C3292 C3293 1.394 . S
C3292 C3298 1.465 . S
C3293 C3288 1.399 . S
C3293 C3292 1.394 . S
C3293 C3294 1.516 . S
C3294 C3293 1.516 . S
C3294 C3295 1.502 . S
C3294 C3296 1.561 . S
C3294 C3297 1.526 . S
C3295 H3279 0.959 . S
C3295 H3280 0.959 . S
C3295 H3281 0.961 . S
C3295 C3294 1.502 . S
C3296 H3282 0.960 . S
C3296 H3283 0.961 . S
C3296 H3284 0.959 . S
C3296 C3294 1.561 . S
C3297 C3294 1.526 . S
C3297 C3298 1.396 . S
C3297 C3302 1.390 . S
C3298 C3292 1.465 . S
C3298 C3297 1.396 . S
C3298 C3299 1.399 . S
C3299 H3285 0.929 . S
C3299 C3298 1.399 . S
C3299 C3300 1.385 . S
C3300 H3286 0.931 . S
C3300 C3299 1.385 . S
C3300 C3301 1.389 . S
C3301 C3300 1.389 . S
C3301 C3302 1.387 . S
C3302 H3287 0.930 . S
C3302 C3297 1.390 . S
C3302 C3301 1.387 . S
H3303 C3315 0.930 . S
H3304 C3317 0.930 . S
H3305 C3318 0.930 . S
H3306 C3322 0.959 . S
H3307 C3322 0.959 . S
H3308 C3322 0.961 . S
H3309 C3323 0.960 . S
H3310 C3323 0.961 . S
H3311 C3323 0.959 . S
H3312 C3326 0.929 . S
H3313 C3327 0.931 . S
H3314 C3329 0.930 . S
C3315 H3303 0.930 . S
C3315 C3316 1.399 . S
C3315 C3320 1.399 . S
C3316 C3315 1.399 . S
C3316 C3317 1.376 . S
C3317 H3304 0.930 . S
C3317 C3316 1.376 . S
C3317 C3318 1.388 . S
C3318 H3305 0.930 . S
C3318 C3317 1.388 . S
C3318 C3319 1.390 . S
C3319 C3318 1.390 . S
C3319 C3320 1.394 . S
C3319 C3325 1.465 . S
C3320 C3315 1.399 . S
C3320 C3319 1.394 . S
C3320 C3321 1.516 . S
C3321 C3320 1.516 . S
C3321 C3322 1.502 . S
C3321 C3323 1.561 . S
C3321 C3324 1.526 . S
C3322 H3306 0.959 . S
C3322 H3307 0.959 . S
C3322 H3308 0.961 . S
C3322 C3321 1.502 . S
C3323 H3309 0.960 . S
C3323 H3310 0.961 . S
C3323 H3311 0.959 . S
C3323 C3321 1.561 . S
C3324 C3321 1.526 . S
C3324 C3325 1.396 . S
C3324 C3329 1.390 . S
C3325 C3319 1.465 . S
C3325 C3324 1.396 . S
C3325 C3326 1.399 . S
C3326 H3312 0.929 . S
C3326 C3325 1.399 . S
C3326 C3327 1.385 . S
C3327 H3313 0.931 . S
C3327 C3326 1.385 . S
C3327 C3328 1.389 . S
C3328 C3327 1.389 . S
C3328 C3329 1.387 . S
C3329 H3314 0.930 . S
C3329 C3324 1.390 . S
C3329 C3328 1.387 . S
H3330 C3342 0.930 . S
H3331 C3344 0.930 . S
H3332 C3345 0.930 . S
H3333 C3349 0.959 . S
H3334 C3349 0.959 . S
H3335 C3349 0.961 . S
H3336 C3350 0.960 . S
H3337 C3350 0.961 . S
H3338 C3350 0.959 . S
H3339 C3353 0.929 . S
H3340 C3354 0.931 . S
H3341 C3356 0.930 . S
C3342 H3330 0.930 . S
C3342 C3343 1.399 . S
C3342 C3347 1.399 . S
C3343 C3342 1.399 . S
C3343 C3344 1.376 . S
C3344 H3331 0.930 . S
C3344 C3343 1.376 . S
C3344 C3345 1.388 . S
C3345 H3332 0.930 . S
C3345 C3344 1.388 . S
C3345 C3346 1.390 . S
C3346 C3345 1.390 . S
C3346 C3347 1.394 . S
C3346 C3352 1.465 . S
C3347 C3342 1.399 . S
C3347 C3346 1.394 . S
C3347 C3348 1.516 . S
C3348 C3347 1.516 . S
C3348 C3349 1.502 . S
C3348 C3350 1.561 . S
C3348 C3351 1.526 . S
C3349 H3333 0.959 . S
C3349 H3334 0.959 . S
C3349 H3335 0.961 . S
C3349 C3348 1.502 . S
C3350 H3336 0.960 . S
C3350 H3337 0.961 . S
C3350 H3338 0.959 . S
C3350 C3348 1.561 . S
C3351 C3348 1.526 . S
C3351 C3352 1.396 . S
C3351 C3356 1.390 . S
C3352 C3346 1.465 . S
C3352 C3351 1.396 . S
C3352 C3353 1.399 . S
C3353 H3339 0.929 . S
C3353 C3352 1.399 . S
C3353 C3354 1.385 . S
C3354 H3340 0.931 . S
C3354 C3353 1.385 . S
C3354 C3355 1.389 . S
C3355 C3354 1.389 . S
C3355 C3356 1.387 . S
C3356 H3341 0.930 . S
C3356 C3351 1.390 . S
C3356 C3355 1.387 . S
H3357 C3369 0.930 . S
H3358 C3371 0.930 . S
H3359 C3372 0.930 . S
H3360 C3376 0.959 . S
H3361 C3376 0.959 . S
H3362 C3376 0.961 . S
H3363 C3377 0.960 . S
H3364 C3377 0.961 . S
H3365 C3377 0.959 . S
H3366 C3380 0.929 . S
H3367 C3381 0.931 . S
H3368 C3383 0.930 . S
C3369 H3357 0.930 . S
C3369 C3370 1.399 . S
C3369 C3374 1.399 . S
C3370 C3369 1.399 . S
C3370 C3371 1.376 . S
C3371 H3358 0.930 . S
C3371 C3370 1.376 . S
C3371 C3372 1.388 . S
C3372 H3359 0.930 . S
C3372 C3371 1.388 . S
C3372 C3373 1.390 . S
C3373 C3372 1.390 . S
C3373 C3374 1.394 . S
C3373 C3379 1.465 . S
C3374 C3369 1.399 . S
C3374 C3373 1.394 . S
C3374 C3375 1.516 . S
C3375 C3374 1.516 . S
C3375 C3376 1.502 . S
C3375 C3377 1.561 . S
C3375 C3378 1.526 . S
C3376 H3360 0.959 . S
C3376 H3361 0.959 . S
C3376 H3362 0.961 . S
C3376 C3375 1.502 . S
C3377 H3363 0.960 . S
C3377 H3364 0.961 . S
C3377 H3365 0.959 . S
C3377 C3375 1.561 . S
C3378 C3375 1.526 . S
C3378 C3379 1.396 . S
C3378 C3383 1.390 . S
C3379 C3373 1.465 . S
C3379 C3378 1.396 . S
C3379 C3380 1.399 . S
C3380 H3366 0.929 . S
C3380 C3379 1.399 . S
C3380 C3381 1.385 . S
C3381 H3367 0.931 . S
C3381 C3380 1.385 . S
C3381 C3382 1.389 . S
C3382 C3381 1.389 . S
C3382 C3383 1.387 . S
C3383 H3368 0.930 . S
C3383 C3378 1.390 . S
C3383 C3382 1.387 . S
H3384 C3396 0.930 . S
H3385 C3398 0.930 1_554 S
H3386 C3399 0.930 . S
H3387 C3403 0.959 . S
H3388 C3403 0.959 . S
H3389 C3403 0.961 . S
H3390 C3404 0.960 . S
H3391 C3404 0.961 . S
H3392 C3404 0.959 . S
H3393 C3407 0.929 . S
H3394 C3408 0.931 . S
H3395 C3410 0.930 . S
C3396 H3384 0.930 . S
C3396 C3397 1.399 . S
C3396 C3401 1.399 . S
C3397 C3396 1.399 . S
C3397 C3398 1.376 . S
C3398 H3385 0.930 1_556 S
C3398 C3397 1.376 . S
C3398 C3399 1.388 . S
C3399 H3386 0.930 . S
C3399 C3398 1.388 . S
C3399 C3400 1.390 . S
C3400 C3399 1.390 . S
C3400 C3401 1.394 . S
C3400 C3406 1.465 . S
C3401 C3396 1.399 . S
C3401 C3400 1.394 . S
C3401 C3402 1.516 . S
C3402 C3401 1.516 . S
C3402 C3403 1.502 . S
C3402 C3404 1.561 . S
C3402 C3405 1.526 . S
C3403 H3387 0.959 . S
C3403 H3388 0.959 . S
C3403 H3389 0.961 . S
C3403 C3402 1.502 . S
C3404 H3390 0.960 . S
C3404 H3391 0.961 . S
C3404 H3392 0.959 . S
C3404 C3402 1.561 . S
C3405 C3402 1.526 . S
C3405 C3406 1.396 . S
C3405 C3410 1.390 . S
C3406 C3400 1.465 . S
C3406 C3405 1.396 . S
C3406 C3407 1.399 . S
C3407 H3393 0.929 . S
C3407 C3406 1.399 . S
C3407 C3408 1.385 . S
C3408 H3394 0.931 . S
C3408 C3407 1.385 . S
C3408 C3409 1.389 . S
C3409 C3408 1.389 . S
C3409 C3410 1.387 . S
C3410 H3395 0.930 . S
C3410 C3405 1.390 . S
C3410 C3409 1.387 . S
H3411 C3423 0.930 . S
H3412 C3425 0.930 . S
H3413 C3426 0.930 . S
H3414 C3430 0.959 . S
H3415 C3430 0.959 . S
H3416 C3430 0.961 . S
H3417 C3431 0.960 . S
H3418 C3431 0.961 . S
H3419 C3431 0.959 . S
H3420 C3434 0.929 . S
H3421 C3435 0.931 . S
H3422 C3437 0.930 . S
C3423 H3411 0.930 . S
C3423 C3424 1.399 . S
C3423 C3428 1.399 . S
C3424 C3423 1.399 . S
C3424 C3425 1.376 . S
C3425 H3412 0.930 . S
C3425 C3424 1.376 . S
C3425 C3426 1.388 . S
C3426 H3413 0.930 . S
C3426 C3425 1.388 . S
C3426 C3427 1.390 . S
C3427 C3426 1.390 . S
C3427 C3428 1.394 . S
C3427 C3433 1.465 . S
C3428 C3423 1.399 . S
C3428 C3427 1.394 . S
C3428 C3429 1.516 . S
C3429 C3428 1.516 . S
C3429 C3430 1.502 . S
C3429 C3431 1.561 . S
C3429 C3432 1.526 . S
C3430 H3414 0.959 . S
C3430 H3415 0.959 . S
C3430 H3416 0.961 . S
C3430 C3429 1.502 . S
C3431 H3417 0.960 . S
C3431 H3418 0.961 . S
C3431 H3419 0.959 . S
C3431 C3429 1.561 . S
C3432 C3429 1.526 . S
C3432 C3433 1.396 . S
C3432 C3437 1.390 . S
C3433 C3427 1.465 . S
C3433 C3432 1.396 . S
C3433 C3434 1.399 . S
C3434 H3420 0.929 . S
C3434 C3433 1.399 . S
C3434 C3435 1.385 . S
C3435 H3421 0.931 . S
C3435 C3434 1.385 . S
C3435 C3436 1.389 . S
C3436 C3435 1.389 . S
C3436 C3437 1.387 . S
C3437 H3422 0.930 . S
C3437 C3432 1.390 . S
C3437 C3436 1.387 . S
H3438 C3450 0.930 1_554 S
H3439 C3452 0.930 . S
H3440 C3453 0.930 . S
H3441 C3457 0.959 . S
H3442 C3457 0.959 . S
H3443 C3457 0.961 1_554 S
H3444 C3458 0.960 . S
H3445 C3458 0.961 . S
H3446 C3458 0.959 . S
H3447 C3461 0.929 . S
H3448 C3462 0.931 . S
H3449 C3464 0.930 . S
C3450 H3438 0.930 1_556 S
C3450 C3451 1.399 . S
C3450 C3455 1.399 . S
C3451 C3450 1.399 . S
C3451 C3452 1.376 . S
C3452 H3439 0.930 . S
C3452 C3451 1.376 . S
C3452 C3453 1.388 . S
C3453 H3440 0.930 . S
C3453 C3452 1.388 . S
C3453 C3454 1.390 . S
C3454 C3453 1.390 . S
C3454 C3455 1.394 . S
C3454 C3460 1.465 . S
C3455 C3450 1.399 . S
C3455 C3454 1.394 . S
C3455 C3456 1.516 . S
C3456 C3455 1.516 . S
C3456 C3457 1.502 . S
C3456 C3458 1.561 . S
C3456 C3459 1.526 . S
C3457 H3441 0.959 . S
C3457 H3442 0.959 . S
C3457 H3443 0.961 1_556 S
C3457 C3456 1.502 . S
C3458 H3444 0.960 . S
C3458 H3445 0.961 . S
C3458 H3446 0.959 . S
C3458 C3456 1.561 . S
C3459 C3456 1.526 . S
C3459 C3460 1.396 . S
C3459 C3464 1.390 . S
C3460 C3454 1.465 . S
C3460 C3459 1.396 . S
C3460 C3461 1.399 . S
C3461 H3447 0.929 . S
C3461 C3460 1.399 . S
C3461 C3462 1.385 . S
C3462 H3448 0.931 . S
C3462 C3461 1.385 . S
C3462 C3463 1.389 . S
C3463 C3462 1.389 . S
C3463 C3464 1.387 . S
C3464 H3449 0.930 . S
C3464 C3459 1.390 . S
C3464 C3463 1.387 . S
H3465 C3477 0.930 . S
H3466 C3479 0.930 . S
H3467 C3480 0.930 . S
H3468 C3484 0.959 . S
H3469 C3484 0.959 . S
H3470 C3484 0.961 . S
H3471 C3485 0.960 . S
H3472 C3485 0.961 . S
H3473 C3485 0.959 . S
H3474 C3488 0.929 . S
H3475 C3489 0.931 . S
H3476 C3491 0.930 . S
C3477 H3465 0.930 . S
C3477 C3478 1.399 . S
C3477 C3482 1.399 . S
C3478 C3477 1.399 . S
C3478 C3479 1.376 . S
C3479 H3466 0.930 . S
C3479 C3478 1.376 . S
C3479 C3480 1.388 . S
C3480 H3467 0.930 . S
C3480 C3479 1.388 . S
C3480 C3481 1.390 . S
C3481 C3480 1.390 . S
C3481 C3482 1.394 . S
C3481 C3487 1.465 . S
C3482 C3477 1.399 . S
C3482 C3481 1.394 . S
C3482 C3483 1.516 . S
C3483 C3482 1.516 . S
C3483 C3484 1.502 . S
C3483 C3485 1.561 . S
C3483 C3486 1.526 . S
C3484 H3468 0.959 . S
C3484 H3469 0.959 . S
C3484 H3470 0.961 . S
C3484 C3483 1.502 . S
C3485 H3471 0.960 . S
C3485 H3472 0.961 . S
C3485 H3473 0.959 . S
C3485 C3483 1.561 . S
C3486 C3483 1.526 . S
C3486 C3487 1.396 . S
C3486 C3491 1.390 . S
C3487 C3481 1.465 . S
C3487 C3486 1.396 . S
C3487 C3488 1.399 . S
C3488 H3474 0.929 . S
C3488 C3487 1.399 . S
C3488 C3489 1.385 . S
C3489 H3475 0.931 . S
C3489 C3488 1.385 . S
C3489 C3490 1.389 . S
C3490 C3489 1.389 . S
C3490 C3491 1.387 . S
C3491 H3476 0.930 . S
C3491 C3486 1.390 . S
C3491 C3490 1.387 . S
H3492 C3504 0.930 . S
H3493 C3506 0.930 . S
H3494 C3507 0.930 . S
H3495 C3511 0.959 . S
H3496 C3511 0.959 . S
H3497 C3511 0.961 . S
H3498 C3512 0.960 1_554 S
H3499 C3512 0.961 . S
H3500 C3512 0.959 . S
H3501 C3515 0.929 . S
H3502 C3516 0.931 . S
H3503 C3518 0.930 . S
C3504 H3492 0.930 . S
C3504 C3505 1.399 . S
C3504 C3509 1.399 . S
C3505 C3504 1.399 . S
C3505 C3506 1.376 . S
C3506 H3493 0.930 . S
C3506 C3505 1.376 . S
C3506 C3507 1.388 . S
C3507 H3494 0.930 . S
C3507 C3506 1.388 . S
C3507 C3508 1.390 . S
C3508 C3507 1.390 . S
C3508 C3509 1.394 . S
C3508 C3514 1.465 . S
C3509 C3504 1.399 . S
C3509 C3508 1.394 . S
C3509 C3510 1.516 . S
C3510 C3509 1.516 . S
C3510 C3511 1.502 . S
C3510 C3512 1.561 . S
C3510 C3513 1.526 . S
C3511 H3495 0.959 . S
C3511 H3496 0.959 . S
C3511 H3497 0.961 . S
C3511 C3510 1.502 . S
C3512 H3498 0.960 1_556 S
C3512 H3499 0.961 . S
C3512 H3500 0.959 . S
C3512 C3510 1.561 . S
C3513 C3510 1.526 . S
C3513 C3514 1.396 . S
C3513 C3518 1.390 . S
C3514 C3508 1.465 . S
C3514 C3513 1.396 . S
C3514 C3515 1.399 . S
C3515 H3501 0.929 . S
C3515 C3514 1.399 . S
C3515 C3516 1.385 . S
C3516 H3502 0.931 . S
C3516 C3515 1.385 . S
C3516 C3517 1.389 . S
C3517 C3516 1.389 . S
C3517 C3518 1.387 . S
C3518 H3503 0.930 . S
C3518 C3513 1.390 . S
C3518 C3517 1.387 . S
H3519 C3531 0.930 . S
H3520 C3533 0.930 . S
H3521 C3534 0.930 . S
H3522 C3538 0.959 . S
H3523 C3538 0.959 . S
H3524 C3538 0.961 . S
H3525 C3539 0.960 . S
H3526 C3539 0.961 . S
H3527 C3539 0.959 . S
H3528 C3542 0.929 . S
H3529 C3543 0.931 . S
H3530 C3545 0.930 . S
C3531 H3519 0.930 . S
C3531 C3532 1.399 . S
C3531 C3536 1.399 . S
C3532 C3531 1.399 . S
C3532 C3533 1.376 . S
C3533 H3520 0.930 . S
C3533 C3532 1.376 . S
C3533 C3534 1.388 . S
C3534 H3521 0.930 . S
C3534 C3533 1.388 . S
C3534 C3535 1.390 . S
C3535 C3534 1.390 . S
C3535 C3536 1.394 . S
C3535 C3541 1.465 . S
C3536 C3531 1.399 . S
C3536 C3535 1.394 . S
C3536 C3537 1.516 . S
C3537 C3536 1.516 . S
C3537 C3538 1.502 . S
C3537 C3539 1.561 . S
C3537 C3540 1.526 . S
C3538 H3522 0.959 . S
C3538 H3523 0.959 . S
C3538 H3524 0.961 . S
C3538 C3537 1.502 . S
C3539 H3525 0.960 . S
C3539 H3526 0.961 . S
C3539 H3527 0.959 . S
C3539 C3537 1.561 . S
C3540 C3537 1.526 . S
C3540 C3541 1.396 . S
C3540 C3545 1.390 . S
C3541 C3535 1.465 . S
C3541 C3540 1.396 . S
C3541 C3542 1.399 . S
C3542 H3528 0.929 . S
C3542 C3541 1.399 . S
C3542 C3543 1.385 . S
C3543 H3529 0.931 . S
C3543 C3542 1.385 . S
C3543 C3544 1.389 . S
C3544 C3543 1.389 . S
C3544 C3545 1.387 . S
C3545 H3530 0.930 . S
C3545 C3540 1.390 . S
C3545 C3544 1.387 . S
H3546 C3558 0.930 . S
H3547 C3560 0.930 . S
H3548 C3561 0.930 . S
H3549 C3565 0.959 . S
H3550 C3565 0.959 . S
H3551 C3565 0.961 . S
H3552 C3566 0.960 . S
H3553 C3566 0.961 . S
H3554 C3566 0.959 . S
H3555 C3569 0.929 . S
H3556 C3570 0.931 . S
H3557 C3572 0.930 . S
C3558 H3546 0.930 . S
C3558 C3559 1.399 . S
C3558 C3563 1.399 . S
C3559 C3558 1.399 . S
C3559 C3560 1.376 . S
C3560 H3547 0.930 . S
C3560 C3559 1.376 . S
C3560 C3561 1.388 . S
C3561 H3548 0.930 . S
C3561 C3560 1.388 . S
C3561 C3562 1.390 . S
C3562 C3561 1.390 . S
C3562 C3563 1.394 . S
C3562 C3568 1.465 . S
C3563 C3558 1.399 . S
C3563 C3562 1.394 . S
C3563 C3564 1.516 . S
C3564 C3563 1.516 . S
C3564 C3565 1.502 . S
C3564 C3566 1.561 . S
C3564 C3567 1.526 . S
C3565 H3549 0.959 . S
C3565 H3550 0.959 . S
C3565 H3551 0.961 . S
C3565 C3564 1.502 . S
C3566 H3552 0.960 . S
C3566 H3553 0.961 . S
C3566 H3554 0.959 . S
C3566 C3564 1.561 . S
C3567 C3564 1.526 . S
C3567 C3568 1.396 . S
C3567 C3572 1.390 . S
C3568 C3562 1.465 . S
C3568 C3567 1.396 . S
C3568 C3569 1.399 . S
C3569 H3555 0.929 . S
C3569 C3568 1.399 . S
C3569 C3570 1.385 . S
C3570 H3556 0.931 . S
C3570 C3569 1.385 . S
C3570 C3571 1.389 . S
C3571 C3570 1.389 . S
C3571 C3572 1.387 . S
C3572 H3557 0.930 . S
C3572 C3567 1.390 . S
C3572 C3571 1.387 . S
H3573 C3585 0.930 . S
H3574 C3587 0.930 . S
H3575 C3588 0.930 . S
H3576 C3592 0.959 . S
H3577 C3592 0.959 . S
H3578 C3592 0.961 . S
H3579 C3593 0.960 . S
H3580 C3593 0.961 . S
H3581 C3593 0.959 . S
H3582 C3596 0.929 . S
H3583 C3597 0.931 . S
H3584 C3599 0.930 . S
C3585 H3573 0.930 . S
C3585 C3586 1.399 . S
C3585 C3590 1.399 . S
C3586 C3585 1.399 . S
C3586 C3587 1.376 . S
C3587 H3574 0.930 . S
C3587 C3586 1.376 . S
C3587 C3588 1.388 . S
C3588 H3575 0.930 . S
C3588 C3587 1.388 . S
C3588 C3589 1.390 . S
C3589 C3588 1.390 . S
C3589 C3590 1.394 . S
C3589 C3595 1.465 . S
C3590 C3585 1.399 . S
C3590 C3589 1.394 . S
C3590 C3591 1.516 . S
C3591 C3590 1.516 . S
C3591 C3592 1.502 . S
C3591 C3593 1.561 . S
C3591 C3594 1.526 . S
C3592 H3576 0.959 . S
C3592 H3577 0.959 . S
C3592 H3578 0.961 . S
C3592 C3591 1.502 . S
C3593 H3579 0.960 . S
C3593 H3580 0.961 . S
C3593 H3581 0.959 . S
C3593 C3591 1.561 . S
C3594 C3591 1.526 . S
C3594 C3595 1.396 . S
C3594 C3599 1.390 . S
C3595 C3589 1.465 . S
C3595 C3594 1.396 . S
C3595 C3596 1.399 . S
C3596 H3582 0.929 . S
C3596 C3595 1.399 . S
C3596 C3597 1.385 . S
C3597 H3583 0.931 . S
C3597 C3596 1.385 . S
C3597 C3598 1.389 . S
C3598 C3597 1.389 . S
C3598 C3599 1.387 . S
C3599 H3584 0.930 . S
C3599 C3594 1.390 . S
C3599 C3598 1.387 . S
H3600 C3612 0.930 . S
H3601 C3614 0.930 . S
H3602 C3615 0.930 . S
H3603 C3619 0.959 . S
H3604 C3619 0.959 . S
H3605 C3619 0.961 . S
H3606 C3620 0.960 . S
H3607 C3620 0.961 . S
H3608 C3620 0.959 . S
H3609 C3623 0.929 . S
H3610 C3624 0.931 . S
H3611 C3626 0.930 . S
C3612 H3600 0.930 . S
C3612 C3613 1.399 . S
C3612 C3617 1.399 . S
C3613 C3612 1.399 . S
C3613 C3614 1.376 . S
C3614 H3601 0.930 . S
C3614 C3613 1.376 . S
C3614 C3615 1.388 . S
C3615 H3602 0.930 . S
C3615 C3614 1.388 . S
C3615 C3616 1.390 . S
C3616 C3615 1.390 . S
C3616 C3617 1.394 . S
C3616 C3622 1.465 . S
C3617 C3612 1.399 . S
C3617 C3616 1.394 . S
C3617 C3618 1.516 . S
C3618 C3617 1.516 . S
C3618 C3619 1.502 . S
C3618 C3620 1.561 . S
C3618 C3621 1.526 . S
C3619 H3603 0.959 . S
C3619 H3604 0.959 . S
C3619 H3605 0.961 . S
C3619 C3618 1.502 . S
C3620 H3606 0.960 . S
C3620 H3607 0.961 . S
C3620 H3608 0.959 . S
C3620 C3618 1.561 . S
C3621 C3618 1.526 . S
C3621 C3622 1.396 . S
C3621 C3626 1.390 . S
C3622 C3616 1.465 . S
C3622 C3621 1.396 . S
C3622 C3623 1.399 . S
C3623 H3609 0.929 . S
C3623 C3622 1.399 . S
C3623 C3624 1.385 . S
C3624 H3610 0.931 . S
C3624 C3623 1.385 . S
C3624 C3625 1.389 . S
C3625 C3624 1.389 . S
C3625 C3626 1.387 . S
C3626 H3611 0.930 . S
C3626 C3621 1.390 . S
C3626 C3625 1.387 . S
H3627 C3639 0.930 . S
H3628 C3641 0.930 . S
H3629 C3642 0.930 . S
H3630 C3646 0.959 . S
H3631 C3646 0.959 . S
H3632 C3646 0.961 . S
H3633 C3647 0.960 . S
H3634 C3647 0.961 . S
H3635 C3647 0.959 . S
H3636 C3650 0.929 . S
H3637 C3651 0.931 . S
H3638 C3653 0.930 . S
C3639 H3627 0.930 . S
C3639 C3640 1.399 . S
C3639 C3644 1.399 . S
C3640 C3639 1.399 . S
C3640 C3641 1.376 . S
C3641 H3628 0.930 . S
C3641 C3640 1.376 . S
C3641 C3642 1.388 . S
C3642 H3629 0.930 . S
C3642 C3641 1.388 . S
C3642 C3643 1.390 . S
C3643 C3642 1.390 . S
C3643 C3644 1.394 . S
C3643 C3649 1.465 . S
C3644 C3639 1.399 . S
C3644 C3643 1.394 . S
C3644 C3645 1.516 . S
C3645 C3644 1.516 . S
C3645 C3646 1.502 . S
C3645 C3647 1.561 . S
C3645 C3648 1.526 . S
C3646 H3630 0.959 . S
C3646 H3631 0.959 . S
C3646 H3632 0.961 . S
C3646 C3645 1.502 . S
C3647 H3633 0.960 . S
C3647 H3634 0.961 . S
C3647 H3635 0.959 . S
C3647 C3645 1.561 . S
C3648 C3645 1.526 . S
C3648 C3649 1.396 . S
C3648 C3653 1.390 . S
C3649 C3643 1.465 . S
C3649 C3648 1.396 . S
C3649 C3650 1.399 . S
C3650 H3636 0.929 . S
C3650 C3649 1.399 . S
C3650 C3651 1.385 . S
C3651 H3637 0.931 . S
C3651 C3650 1.385 . S
C3651 C3652 1.389 . S
C3652 C3651 1.389 . S
C3652 C3653 1.387 . S
C3653 H3638 0.930 . S
C3653 C3648 1.390 . S
C3653 C3652 1.387 . S
H3654 C3666 0.930 . S
H3655 C3668 0.930 . S
H3656 C3669 0.930 . S
H3657 C3673 0.959 . S
H3658 C3673 0.959 . S
H3659 C3673 0.961 . S
H3660 C3674 0.960 . S
H3661 C3674 0.961 . S
H3662 C3674 0.959 . S
H3663 C3677 0.929 . S
H3664 C3678 0.931 . S
H3665 C3680 0.930 . S
C3666 H3654 0.930 . S
C3666 C3667 1.399 . S
C3666 C3671 1.399 . S
C3667 C3666 1.399 . S
C3667 C3668 1.376 . S
C3668 H3655 0.930 . S
C3668 C3667 1.376 . S
C3668 C3669 1.388 . S
C3669 H3656 0.930 . S
C3669 C3668 1.388 . S
C3669 C3670 1.390 . S
C3670 C3669 1.390 . S
C3670 C3671 1.394 . S
C3670 C3676 1.465 . S
C3671 C3666 1.399 . S
C3671 C3670 1.394 . S
C3671 C3672 1.516 . S
C3672 C3671 1.516 . S
C3672 C3673 1.502 . S
C3672 C3674 1.561 . S
C3672 C3675 1.526 . S
C3673 H3657 0.959 . S
C3673 H3658 0.959 . S
C3673 H3659 0.961 . S
C3673 C3672 1.502 . S
C3674 H3660 0.960 . S
C3674 H3661 0.961 . S
C3674 H3662 0.959 . S
C3674 C3672 1.561 . S
C3675 C3672 1.526 . S
C3675 C3676 1.396 . S
C3675 C3680 1.390 . S
C3676 C3670 1.465 . S
C3676 C3675 1.396 . S
C3676 C3677 1.399 . S
C3677 H3663 0.929 . S
C3677 C3676 1.399 . S
C3677 C3678 1.385 . S
C3678 H3664 0.931 . S
C3678 C3677 1.385 . S
C3678 C3679 1.389 . S
C3679 C3678 1.389 . S
C3679 C3680 1.387 . S
C3680 H3665 0.930 . S
C3680 C3675 1.390 . S
C3680 C3679 1.387 . S
H3681 C3693 0.930 . S
H3682 C3695 0.930 . S
H3683 C3696 0.901 1_655 S
H3684 C3700 0.959 . S
H3685 C3700 0.959 . S
H3686 C3700 0.961 . S
H3687 C3701 0.960 . S
H3688 C3701 0.961 . S
H3689 C3701 0.959 1_655 S
H3690 C3704 0.909 1_655 S
H3691 C3705 0.868 1_655 S
H3692 C3707 0.930 . S
C3693 H3681 0.930 . S
C3693 C3694 1.399 . S
C3693 C3698 1.399 . S
C3694 C3693 1.399 . S
C3694 C3695 1.376 . S
C3695 H3682 0.930 . S
C3695 C3694 1.376 . S
C3695 C3696 1.388 . S
C3696 H3683 0.901 1_455 S
C3696 C3695 1.388 . S
C3696 C3697 1.390 . S
C3697 C3696 1.390 . S
C3697 C3698 1.394 . S
C3697 C3703 1.465 . S
C3698 C3693 1.399 . S
C3698 C3697 1.394 . S
C3698 C3699 1.516 . S
C3699 C3698 1.516 . S
C3699 C3700 1.502 . S
C3699 C3701 1.561 . S
C3699 C3702 1.526 . S
C3700 H3684 0.959 . S
C3700 H3685 0.959 . S
C3700 H3686 0.961 . S
C3700 C3699 1.502 . S
C3701 H3687 0.960 . S
C3701 H3688 0.961 . S
C3701 H3689 0.959 1_455 S
C3701 C3699 1.561 . S
C3702 C3699 1.526 . S
C3702 C3703 1.396 . S
C3702 C3707 1.390 . S
C3703 C3697 1.465 . S
C3703 C3702 1.396 . S
C3703 C3704 1.436 . S
C3704 H3690 0.909 1_455 S
C3704 C3703 1.436 . S
C3704 C3705 1.397 . S
C3705 H3691 0.868 1_455 S
C3705 C3704 1.397 . S
C3705 C3706 1.427 . S
C3706 C3705 1.427 . S
C3706 C3707 1.387 . S
C3707 H3692 0.930 . S
C3707 C3702 1.390 . S
C3707 C3706 1.387 . S
H3708 C3720 0.930 . S
H3709 C3722 0.930 . S
H3710 C3723 0.930 . S
H3711 C3727 0.959 . S
H3712 C3727 0.959 . S
H3713 C3727 0.961 . S
H3714 C3728 0.960 . S
H3715 C3728 0.961 . S
H3716 C3728 0.959 . S
H3717 C3731 0.929 . S
H3718 C3732 0.931 . S
H3719 C3734 0.930 . S
C3720 H3708 0.930 . S
C3720 C3721 1.399 . S
C3720 C3725 1.399 . S
C3721 C3720 1.399 . S
C3721 C3722 1.376 . S
C3722 H3709 0.930 . S
C3722 C3721 1.376 . S
C3722 C3723 1.388 . S
C3723 H3710 0.930 . S
C3723 C3722 1.388 . S
C3723 C3724 1.390 . S
C3724 C3723 1.390 . S
C3724 C3725 1.394 . S
C3724 C3730 1.465 . S
C3725 C3720 1.399 . S
C3725 C3724 1.394 . S
C3725 C3726 1.516 . S
C3726 C3725 1.516 . S
C3726 C3727 1.502 . S
C3726 C3728 1.561 . S
C3726 C3729 1.526 . S
C3727 H3711 0.959 . S
C3727 H3712 0.959 . S
C3727 H3713 0.961 . S
C3727 C3726 1.502 . S
C3728 H3714 0.960 . S
C3728 H3715 0.961 . S
C3728 H3716 0.959 . S
C3728 C3726 1.561 . S
C3729 C3726 1.526 . S
C3729 C3730 1.396 . S
C3729 C3734 1.390 . S
C3730 C3724 1.465 . S
C3730 C3729 1.396 . S
C3730 C3731 1.399 . S
C3731 H3717 0.929 . S
C3731 C3730 1.399 . S
C3731 C3732 1.385 . S
C3732 H3718 0.931 . S
C3732 C3731 1.385 . S
C3732 C3733 1.389 . S
C3733 C3732 1.389 . S
C3733 C3734 1.387 . S
C3734 H3719 0.930 . S
C3734 C3729 1.390 . S
C3734 C3733 1.387 . S
H3735 C3747 0.930 1_545 S
H3736 C3749 0.930 . S
H3737 C3750 0.930 . S
H3738 C3754 0.959 . S
H3739 C3754 0.959 . S
H3740 C3754 0.961 . S
H3741 C3755 0.960 . S
H3742 C3755 0.961 . S
H3743 C3755 0.959 . S
H3744 C3758 0.929 . S
H3745 C3759 0.931 . S
H3746 C3761 0.930 . S
C3747 H3735 0.930 1_565 S
C3747 C3748 1.399 . S
C3747 C3752 1.399 . S
C3748 C3747 1.399 . S
C3748 C3749 1.376 . S
C3749 H3736 0.930 . S
C3749 C3748 1.376 . S
C3749 C3750 1.388 . S
C3750 H3737 0.930 . S
C3750 C3749 1.388 . S
C3750 C3751 1.390 . S
C3751 C3750 1.390 . S
C3751 C3752 1.394 . S
C3751 C3757 1.465 . S
C3752 C3747 1.399 . S
C3752 C3751 1.394 . S
C3752 C3753 1.516 1_565 S
C3753 C3752 1.516 1_545 S
C3753 C3754 1.502 . S
C3753 C3755 1.561 . S
C3753 C3756 1.526 1_545 S
C3754 H3738 0.959 . S
C3754 H3739 0.959 . S
C3754 H3740 0.961 . S
C3754 C3753 1.502 . S
C3755 H3741 0.960 . S
C3755 H3742 0.961 . S
C3755 H3743 0.959 . S
C3755 C3753 1.561 . S
C3756 C3753 1.526 1_565 S
C3756 C3757 1.396 . S
C3756 C3761 1.390 1_565 S
C3757 C3751 1.465 . S
C3757 C3756 1.396 . S
C3757 C3758 1.399 . S
C3758 H3744 0.929 . S
C3758 C3757 1.399 . S
C3758 C3759 1.385 . S
C3759 H3745 0.931 . S
C3759 C3758 1.385 . S
C3759 C3760 1.389 . S
C3760 C3759 1.389 . S
C3760 C3761 1.387 1_565 S
C3761 H3746 0.930 . S
C3761 C3756 1.390 1_545 S
C3761 C3760 1.387 1_545 S
H3762 C3774 0.930 . S
H3763 C3776 0.930 . S
H3764 C3777 0.930 . S
H3765 C3781 0.959 . S
H3766 C3781 0.959 . S
H3767 C3781 0.961 . S
H3768 C3782 0.960 . S
H3769 C3782 0.961 . S
H3770 C3782 0.959 . S
H3771 C3785 0.929 . S
H3772 C3786 0.931 . S
H3773 C3788 0.930 . S
C3774 H3762 0.930 . S
C3774 C3775 1.399 . S
C3774 C3779 1.399 . S
C3775 C3774 1.399 . S
C3775 C3776 1.376 1_565 S
C3776 H3763 0.930 . S
C3776 C3775 1.376 1_545 S
C3776 C3777 1.388 . S
C3777 H3764 0.930 . S
C3777 C3776 1.388 . S
C3777 C3778 1.390 1_545 S
C3778 C3777 1.390 1_565 S
C3778 C3779 1.394 . S
C3778 C3784 1.443 1_565 S
C3779 C3774 1.399 . S
C3779 C3778 1.394 . S
C3779 C3780 1.516 . S
C3780 C3779 1.516 . S
C3780 C3781 1.502 . S
C3780 C3782 1.561 . S
C3780 C3783 1.526 . S
C3781 H3765 0.959 . S
C3781 H3766 0.959 . S
C3781 H3767 0.961 . S
C3781 C3780 1.502 . S
C3782 H3768 0.960 . S
C3782 H3769 0.961 . S
C3782 H3770 0.959 . S
C3782 C3780 1.561 . S
C3783 C3780 1.526 . S
C3783 C3784 1.372 1_565 S
C3783 C3788 1.390 . S
C3784 C3778 1.443 1_545 S
C3784 C3783 1.372 1_545 S
C3784 C3785 1.439 . S
C3785 H3771 0.929 . S
C3785 C3784 1.439 . S
C3785 C3786 1.385 . S
C3786 H3772 0.931 . S
C3786 C3785 1.385 . S
C3786 C3787 1.369 1_545 S
C3787 C3786 1.369 1_565 S
C3787 C3788 1.420 . S
C3788 H3773 0.930 . S
C3788 C3783 1.390 . S
C3788 C3787 1.420 . S
H3789 C3801 0.930 . S
H3790 C3803 0.930 . S
H3791 C3804 0.930 . S
H3792 C3808 0.959 . S
H3793 C3808 0.959 . S
H3794 C3808 0.961 . S
H3795 C3809 0.960 . S
H3796 C3809 0.961 . S
H3797 C3809 0.959 . S
H3798 C3812 0.929 . S
H3799 C3813 0.934 1_655 S
H3800 C3815 0.930 . S
C3801 H3789 0.930 . S
C3801 C3802 1.399 . S
C3801 C3806 1.399 . S
C3802 C3801 1.399 . S
C3802 C3803 1.376 . S
C3803 H3790 0.930 . S
C3803 C3802 1.376 . S
C3803 C3804 1.388 . S
C3804 H3791 0.930 . S
C3804 C3803 1.388 . S
C3804 C3805 1.390 . S
C3805 C3804 1.390 . S
C3805 C3806 1.394 . S
C3805 C3811 1.465 . S
C3806 C3801 1.399 . S
C3806 C3805 1.394 . S
C3806 C3807 1.516 . S
C3807 C3806 1.516 . S
C3807 C3808 1.502 . S
C3807 C3809 1.561 1_455 S
C3807 C3810 1.526 . S
C3808 H3792 0.959 . S
C3808 H3793 0.959 . S
C3808 H3794 0.961 . S
C3808 C3807 1.502 . S
C3809 H3795 0.960 . S
C3809 H3796 0.961 . S
C3809 H3797 0.959 . S
C3809 C3807 1.561 1_655 S
C3810 C3807 1.526 . S
C3810 C3811 1.396 . S
C3810 C3815 1.390 . S
C3811 C3805 1.465 . S
C3811 C3810 1.396 . S
C3811 C3812 1.399 . S
C3812 H3798 0.929 . S
C3812 C3811 1.399 . S
C3812 C3813 1.378 . S
C3813 H3799 0.934 1_455 S
C3813 C3812 1.378 . S
C3813 C3814 1.398 1_455 S
C3814 C3813 1.398 1_655 S
C3814 C3815 1.387 1_655 S
C3815 H3800 0.930 . S
C3815 C3810 1.390 . S
C3815 C3814 1.387 1_455 S
H3816 C3828 0.930 . S
H3817 C3830 0.930 . S
H3818 C3831 0.930 . S
H3819 C3835 0.959 . S
H3820 C3835 0.959 . S
H3821 C3835 0.961 . S
H3822 C3836 0.960 . S
H3823 C3836 0.961 . S
H3824 C3836 0.959 . S
H3825 C3839 0.929 . S
H3826 C3840 0.931 . S
H3827 C3842 0.930 . S
C3828 H3816 0.930 . S
C3828 C3829 1.399 . S
C3828 C3833 1.399 . S
C3829 C3828 1.399 . S
C3829 C3830 1.376 . S
C3830 H3817 0.930 . S
C3830 C3829 1.376 . S
C3830 C3831 1.388 . S
C3831 H3818 0.930 . S
C3831 C3830 1.388 . S
C3831 C3832 1.390 . S
C3832 C3831 1.390 . S
C3832 C3833 1.394 . S
C3832 C3838 1.465 . S
C3833 C3828 1.399 . S
C3833 C3832 1.394 . S
C3833 C3834 1.516 . S
C3834 C3833 1.516 . S
C3834 C3835 1.502 . S
C3834 C3836 1.561 . S
C3834 C3837 1.526 . S
C3835 H3819 0.959 . S
C3835 H3820 0.959 . S
C3835 H3821 0.961 . S
C3835 C3834 1.502 . S
C3836 H3822 0.960 . S
C3836 H3823 0.961 . S
C3836 H3824 0.959 . S
C3836 C3834 1.561 . S
C3837 C3834 1.526 . S
C3837 C3838 1.396 . S
C3837 C3842 1.390 . S
C3838 C3832 1.465 . S
C3838 C3837 1.396 . S
C3838 C3839 1.399 . S
C3839 H3825 0.929 . S
C3839 C3838 1.399 . S
C3839 C3840 1.385 . S
C3840 H3826 0.931 . S
C3840 C3839 1.385 . S
C3840 C3841 1.389 . S
C3841 C3840 1.389 . S
C3841 C3842 1.387 . S
C3842 H3827 0.930 . S
C3842 C3837 1.390 . S
C3842 C3841 1.387 . S
H3843 C3855 0.930 . S
H3844 C3857 0.930 . S
H3845 C3858 0.930 . S
H3846 C3862 0.959 . S
H3847 C3862 0.959 . S
H3848 C3862 0.961 . S
H3849 C3863 0.960 . S
H3850 C3863 0.961 . S
H3851 C3863 0.959 . S
H3852 C3866 0.929 . S
H3853 C3867 0.931 . S
H3854 C3869 0.930 . S
C3855 H3843 0.930 . S
C3855 C3856 1.399 . S
C3855 C3860 1.399 . S
C3856 C3855 1.399 . S
C3856 C3857 1.376 . S
C3857 H3844 0.930 . S
C3857 C3856 1.376 . S
C3857 C3858 1.388 . S
C3858 H3845 0.930 . S
C3858 C3857 1.388 . S
C3858 C3859 1.390 . S
C3859 C3858 1.390 . S
C3859 C3860 1.394 . S
C3859 C3865 1.465 . S
C3860 C3855 1.399 . S
C3860 C3859 1.394 . S
C3860 C3861 1.516 . S
C3861 C3860 1.516 . S
C3861 C3862 1.502 . S
C3861 C3863 1.561 . S
C3861 C3864 1.526 . S
C3862 H3846 0.959 . S
C3862 H3847 0.959 . S
C3862 H3848 0.961 . S
C3862 C3861 1.502 . S
C3863 H3849 0.960 . S
C3863 H3850 0.961 . S
C3863 H3851 0.959 . S
C3863 C3861 1.561 . S
C3864 C3861 1.526 . S
C3864 C3865 1.396 . S
C3864 C3869 1.390 . S
C3865 C3859 1.465 . S
C3865 C3864 1.396 . S
C3865 C3866 1.399 . S
C3866 H3852 0.929 . S
C3866 C3865 1.399 . S
C3866 C3867 1.385 . S
C3867 H3853 0.931 . S
C3867 C3866 1.385 . S
C3867 C3868 1.389 . S
C3868 C3867 1.389 . S
C3868 C3869 1.387 . S
C3869 H3854 0.930 . S
C3869 C3864 1.390 . S
C3869 C3868 1.387 . S
H3870 C3882 0.930 . S
H3871 C3884 0.930 . S
H3872 C3885 0.930 . S
H3873 C3889 0.959 . S
H3874 C3889 0.959 . S
H3875 C3889 0.961 . S
H3876 C3890 0.960 . S
H3877 C3890 0.961 . S
H3878 C3890 0.959 . S
H3879 C3893 0.929 . S
H3880 C3894 0.931 . S
H3881 C3896 0.930 . S
C3882 H3870 0.930 . S
C3882 C3883 1.399 . S
C3882 C3887 1.399 . S
C3883 C3882 1.399 . S
C3883 C3884 1.376 . S
C3884 H3871 0.930 . S
C3884 C3883 1.376 . S
C3884 C3885 1.388 . S
C3885 H3872 0.930 . S
C3885 C3884 1.388 . S
C3885 C3886 1.390 . S
C3886 C3885 1.390 . S
C3886 C3887 1.394 . S
C3886 C3892 1.465 . S
C3887 C3882 1.399 . S
C3887 C3886 1.394 . S
C3887 C3888 1.516 . S
C3888 C3887 1.516 . S
C3888 C3889 1.502 . S
C3888 C3890 1.561 . S
C3888 C3891 1.526 . S
C3889 H3873 0.959 . S
C3889 H3874 0.959 . S
C3889 H3875 0.961 . S
C3889 C3888 1.502 . S
C3890 H3876 0.960 . S
C3890 H3877 0.961 . S
C3890 H3878 0.959 . S
C3890 C3888 1.561 . S
C3891 C3888 1.526 . S
C3891 C3892 1.396 . S
C3891 C3896 1.390 . S
C3892 C3886 1.465 . S
C3892 C3891 1.396 . S
C3892 C3893 1.399 . S
C3893 H3879 0.929 . S
C3893 C3892 1.399 . S
C3893 C3894 1.385 . S
C3894 H3880 0.931 . S
C3894 C3893 1.385 . S
C3894 C3895 1.389 . S
C3895 C3894 1.389 . S
C3895 C3896 1.387 . S
C3896 H3881 0.930 . S
C3896 C3891 1.390 . S
C3896 C3895 1.387 . S
H3897 C3909 0.930 . S
H3898 C3911 0.930 . S
H3899 C3912 0.930 . S
H3900 C3916 0.959 . S
H3901 C3916 0.959 . S
H3902 C3916 0.961 . S
H3903 C3917 0.960 . S
H3904 C3917 0.961 . S
H3905 C3917 0.959 . S
H3906 C3920 0.929 . S
H3907 C3921 0.931 . S
H3908 C3923 0.930 . S
C3909 H3897 0.930 . S
C3909 C3910 1.399 . S
C3909 C3914 1.399 . S
C3910 C3909 1.399 . S
C3910 C3911 1.376 . S
C3911 H3898 0.930 . S
C3911 C3910 1.376 . S
C3911 C3912 1.388 . S
C3912 H3899 0.930 . S
C3912 C3911 1.388 . S
C3912 C3913 1.390 . S
C3913 C3912 1.390 . S
C3913 C3914 1.394 . S
C3913 C3919 1.465 . S
C3914 C3909 1.399 . S
C3914 C3913 1.394 . S
C3914 C3915 1.516 . S
C3915 C3914 1.516 . S
C3915 C3916 1.502 . S
C3915 C3917 1.561 . S
C3915 C3918 1.526 . S
C3916 H3900 0.959 . S
C3916 H3901 0.959 . S
C3916 H3902 0.961 . S
C3916 C3915 1.502 . S
C3917 H3903 0.960 . S
C3917 H3904 0.961 . S
C3917 H3905 0.959 . S
C3917 C3915 1.561 . S
C3918 C3915 1.526 . S
C3918 C3919 1.396 . S
C3918 C3923 1.390 . S
C3919 C3913 1.465 . S
C3919 C3918 1.396 . S
C3919 C3920 1.399 . S
C3920 H3906 0.929 . S
C3920 C3919 1.399 . S
C3920 C3921 1.385 . S
C3921 H3907 0.931 . S
C3921 C3920 1.385 . S
C3921 C3922 1.389 . S
C3922 C3921 1.389 . S
C3922 C3923 1.387 . S
C3923 H3908 0.930 . S
C3923 C3918 1.390 . S
C3923 C3922 1.387 . S
H3924 C3936 0.930 . S
H3925 C3938 0.932 . S
H3926 C3939 0.930 . S
H3927 C3943 0.959 . S
H3928 C3943 0.959 . S
H3929 C3943 0.961 . S
H3930 C3944 0.960 . S
H3931 C3944 0.961 . S
H3932 C3944 0.959 . S
H3933 C3947 0.929 . S
H3934 C3948 0.931 . S
H3935 C3950 0.930 . S
C3936 H3924 0.930 . S
C3936 C3937 1.399 . S
C3936 C3941 1.399 . S
C3937 C3936 1.399 . S
C3937 C3938 1.372 1_545 S
C3938 H3925 0.932 . S
C3938 C3937 1.372 1_565 S
C3938 C3939 1.392 . S
C3939 H3926 0.930 . S
C3939 C3938 1.392 . S
C3939 C3940 1.390 1_565 S
C3940 C3939 1.390 1_545 S
C3940 C3941 1.394 . S
C3940 C3946 1.465 . S
C3941 C3936 1.399 . S
C3941 C3940 1.394 . S
C3941 C3942 1.516 . S
C3942 C3941 1.516 . S
C3942 C3943 1.502 . S
C3942 C3944 1.561 . S
C3942 C3945 1.526 . S
C3943 H3927 0.959 . S
C3943 H3928 0.959 . S
C3943 H3929 0.961 . S
C3943 C3942 1.502 . S
C3944 H3930 0.960 . S
C3944 H3931 0.961 . S
C3944 H3932 0.959 . S
C3944 C3942 1.561 . S
C3945 C3942 1.526 . S
C3945 C3946 1.396 . S
C3945 C3950 1.390 . S
C3946 C3940 1.465 . S
C3946 C3945 1.396 . S
C3946 C3947 1.399 1_545 S
C3947 H3933 0.929 . S
C3947 C3946 1.399 1_565 S
C3947 C3948 1.385 . S
C3948 H3934 0.931 . S
C3948 C3947 1.385 . S
C3948 C3949 1.389 1_565 S
C3949 C3948 1.389 1_545 S
C3949 C3950 1.387 . S
C3950 H3935 0.930 . S
C3950 C3945 1.390 . S
C3950 C3949 1.387 . S
H3951 C3963 0.930 1_455 S
H3952 C3965 0.930 . S
H3953 C3966 0.930 . S
H3954 C3970 0.959 . S
H3955 C3970 0.959 . S
H3956 C3970 0.961 . S
H3957 C3971 0.960 . S
H3958 C3971 0.958 . S
H3959 C3971 0.959 . S
H3960 C3974 0.929 . S
H3961 C3975 0.931 . S
H3962 C3977 0.921 1_455 S
C3963 H3951 0.930 1_655 S
C3963 C3964 1.399 . S
C3963 C3968 1.399 . S
C3964 C3963 1.399 . S
C3964 C3965 1.376 . S
C3965 H3952 0.930 . S
C3965 C3964 1.376 . S
C3965 C3966 1.388 . S
C3966 H3953 0.930 . S
C3966 C3965 1.388 . S
C3966 C3967 1.390 . S
C3967 C3966 1.390 . S
C3967 C3968 1.394 . S
C3967 C3973 1.465 . S
C3968 C3963 1.399 . S
C3968 C3967 1.394 . S
C3968 C3969 1.516 1_655 S
C3969 C3968 1.516 1_455 S
C3969 C3970 1.502 . S
C3969 C3971 1.561 1_455 S
C3969 C3972 1.526 1_455 S
C3970 H3954 0.959 . S
C3970 H3955 0.959 . S
C3970 H3956 0.961 . S
C3970 C3969 1.502 . S
C3971 H3957 0.960 . S
C3971 H3958 0.958 . S
C3971 H3959 0.959 . S
C3971 C3969 1.561 1_655 S
C3972 C3969 1.526 1_655 S
C3972 C3973 1.396 . S
C3972 C3977 1.379 . S
C3973 C3967 1.465 . S
C3973 C3972 1.396 . S
C3973 C3974 1.399 . S
C3974 H3960 0.929 . S
C3974 C3973 1.399 . S
C3974 C3975 1.385 . S
C3975 H3961 0.931 . S
C3975 C3974 1.385 . S
C3975 C3976 1.389 . S
C3976 C3975 1.389 . S
C3976 C3977 1.408 . S
C3977 H3962 0.921 1_655 S
C3977 C3972 1.379 . S
C3977 C3976 1.408 . S
H3978 C3990 0.930 . S
H3979 C3992 0.930 . S
H3980 C3993 0.930 . S
H3981 C3997 0.959 . S
H3982 C3997 0.959 . S
H3983 C3997 0.961 . S
H3984 C3998 0.960 . S
H3985 C3998 0.961 . S
H3986 C3998 0.959 . S
H3987 C4001 0.929 . S
H3988 C4002 0.931 . S
H3989 C4004 0.930 . S
C3990 H3978 0.930 . S
C3990 C3991 1.399 . S
C3990 C3995 1.399 . S
C3991 C3990 1.399 . S
C3991 C3992 1.376 . S
C3992 H3979 0.930 . S
C3992 C3991 1.376 . S
C3992 C3993 1.388 . S
C3993 H3980 0.930 . S
C3993 C3992 1.388 . S
C3993 C3994 1.390 . S
C3994 C3993 1.390 . S
C3994 C3995 1.394 . S
C3994 C4000 1.465 . S
C3995 C3990 1.399 . S
C3995 C3994 1.394 . S
C3995 C3996 1.516 . S
C3996 C3995 1.516 . S
C3996 C3997 1.502 . S
C3996 C3998 1.561 . S
C3996 C3999 1.526 . S
C3997 H3981 0.959 . S
C3997 H3982 0.959 . S
C3997 H3983 0.961 . S
C3997 C3996 1.502 . S
C3998 H3984 0.960 . S
C3998 H3985 0.961 . S
C3998 H3986 0.959 . S
C3998 C3996 1.561 . S
C3999 C3996 1.526 . S
C3999 C4000 1.396 . S
C3999 C4004 1.390 . S
C4000 C3994 1.465 . S
C4000 C3999 1.396 . S
C4000 C4001 1.399 . S
C4001 H3987 0.929 . S
C4001 C4000 1.399 . S
C4001 C4002 1.385 . S
C4002 H3988 0.931 . S
C4002 C4001 1.385 . S
C4002 C4003 1.389 . S
C4003 C4002 1.389 . S
C4003 C4004 1.387 . S
C4004 H3989 0.930 . S
C4004 C3999 1.390 . S
C4004 C4003 1.387 . S
H4005 C4017 0.930 . S
H4006 C4019 0.930 . S
H4007 C4020 0.930 . S
H4008 C4024 0.959 . S
H4009 C4024 0.959 . S
H4010 C4024 0.961 . S
H4011 C4025 0.960 . S
H4012 C4025 0.961 . S
H4013 C4025 0.959 . S
H4014 C4028 0.929 . S
H4015 C4029 0.931 . S
H4016 C4031 0.930 . S
C4017 H4005 0.930 . S
C4017 C4018 1.399 . S
C4017 C4022 1.399 . S
C4018 C4017 1.399 . S
C4018 C4019 1.376 . S
C4019 H4006 0.930 . S
C4019 C4018 1.376 . S
C4019 C4020 1.388 . S
C4020 H4007 0.930 . S
C4020 C4019 1.388 . S
C4020 C4021 1.390 . S
C4021 C4020 1.390 . S
C4021 C4022 1.394 . S
C4021 C4027 1.465 . S
C4022 C4017 1.399 . S
C4022 C4021 1.394 . S
C4022 C4023 1.516 . S
C4023 C4022 1.516 . S
C4023 C4024 1.502 . S
C4023 C4025 1.561 . S
C4023 C4026 1.526 . S
C4024 H4008 0.959 . S
C4024 H4009 0.959 . S
C4024 H4010 0.961 . S
C4024 C4023 1.502 . S
C4025 H4011 0.960 . S
C4025 H4012 0.961 . S
C4025 H4013 0.959 . S
C4025 C4023 1.561 . S
C4026 C4023 1.526 . S
C4026 C4027 1.396 . S
C4026 C4031 1.390 . S
C4027 C4021 1.465 . S
C4027 C4026 1.396 . S
C4027 C4028 1.399 . S
C4028 H4014 0.929 . S
C4028 C4027 1.399 . S
C4028 C4029 1.385 . S
C4029 H4015 0.931 . S
C4029 C4028 1.385 . S
C4029 C4030 1.389 . S
C4030 C4029 1.389 . S
C4030 C4031 1.387 . S
C4031 H4016 0.930 . S
C4031 C4026 1.390 . S
C4031 C4030 1.387 . S
H4032 C4044 0.930 . S
H4033 C4046 0.930 . S
H4034 C4047 0.930 . S
H4035 C4051 0.959 . S
H4036 C4051 0.959 . S
H4037 C4051 0.961 . S
H4038 C4052 0.960 . S
H4039 C4052 0.961 . S
H4040 C4052 0.959 . S
H4041 C4055 0.929 . S
H4042 C4056 0.931 . S
H4043 C4058 0.930 . S
C4044 H4032 0.930 . S
C4044 C4045 1.399 . S
C4044 C4049 1.399 . S
C4045 C4044 1.399 . S
C4045 C4046 1.376 . S
C4046 H4033 0.930 . S
C4046 C4045 1.376 . S
C4046 C4047 1.388 . S
C4047 H4034 0.930 . S
C4047 C4046 1.388 . S
C4047 C4048 1.390 . S
C4048 C4047 1.390 . S
C4048 C4049 1.394 . S
C4048 C4054 1.465 . S
C4049 C4044 1.399 . S
C4049 C4048 1.394 . S
C4049 C4050 1.516 . S
C4050 C4049 1.516 . S
C4050 C4051 1.502 . S
C4050 C4052 1.561 . S
C4050 C4053 1.526 . S
C4051 H4035 0.959 . S
C4051 H4036 0.959 . S
C4051 H4037 0.961 . S
C4051 C4050 1.502 . S
C4052 H4038 0.960 . S
C4052 H4039 0.961 . S
C4052 H4040 0.959 . S
C4052 C4050 1.561 . S
C4053 C4050 1.526 . S
C4053 C4054 1.396 . S
C4053 C4058 1.390 . S
C4054 C4048 1.465 . S
C4054 C4053 1.396 . S
C4054 C4055 1.399 . S
C4055 H4041 0.929 . S
C4055 C4054 1.399 . S
C4055 C4056 1.385 . S
C4056 H4042 0.931 . S
C4056 C4055 1.385 . S
C4056 C4057 1.389 . S
C4057 C4056 1.389 . S
C4057 C4058 1.387 . S
C4058 H4043 0.930 . S
C4058 C4053 1.390 . S
C4058 C4057 1.387 . S
H4059 C4071 0.930 . S
H4060 C4073 0.930 . S
H4061 C4074 0.930 . S
H4062 C4078 0.959 . S
H4063 C4078 0.959 . S
H4064 C4078 0.961 . S
H4065 C4079 0.960 . S
H4066 C4079 0.961 . S
H4067 C4079 0.959 . S
H4068 C4082 0.929 . S
H4069 C4083 0.931 . S
H4070 C4085 0.930 . S
C4071 H4059 0.930 . S
C4071 C4072 1.399 . S
C4071 C4076 1.399 . S
C4072 C4071 1.399 . S
C4072 C4073 1.376 . S
C4073 H4060 0.930 . S
C4073 C4072 1.376 . S
C4073 C4074 1.388 . S
C4074 H4061 0.930 . S
C4074 C4073 1.388 . S
C4074 C4075 1.390 . S
C4075 C4074 1.390 . S
C4075 C4076 1.394 . S
C4075 C4081 1.465 . S
C4076 C4071 1.399 . S
C4076 C4075 1.394 . S
C4076 C4077 1.516 . S
C4077 C4076 1.516 . S
C4077 C4078 1.502 . S
C4077 C4079 1.561 . S
C4077 C4080 1.526 . S
C4078 H4062 0.959 . S
C4078 H4063 0.959 . S
C4078 H4064 0.961 . S
C4078 C4077 1.502 . S
C4079 H4065 0.960 . S
C4079 H4066 0.961 . S
C4079 H4067 0.959 . S
C4079 C4077 1.561 . S
C4080 C4077 1.526 . S
C4080 C4081 1.396 . S
C4080 C4085 1.390 . S
C4081 C4075 1.465 . S
C4081 C4080 1.396 . S
C4081 C4082 1.399 . S
C4082 H4068 0.929 . S
C4082 C4081 1.399 . S
C4082 C4083 1.385 . S
C4083 H4069 0.931 . S
C4083 C4082 1.385 . S
C4083 C4084 1.389 . S
C4084 C4083 1.389 . S
C4084 C4085 1.387 . S
C4085 H4070 0.930 . S
C4085 C4080 1.390 . S
C4085 C4084 1.387 . S
H4086 C4098 0.930 . S
H4087 C4100 0.930 . S
H4088 C4101 0.930 . S
H4089 C4105 0.959 . S
H4090 C4105 0.959 . S
H4091 C4105 0.961 . S
H4092 C4106 0.960 . S
H4093 C4106 0.961 . S
H4094 C4106 0.959 . S
H4095 C4109 0.929 . S
H4096 C4110 0.931 . S
H4097 C4112 0.930 . S
C4098 H4086 0.930 . S
C4098 C4099 1.399 . S
C4098 C4103 1.399 . S
C4099 C4098 1.399 . S
C4099 C4100 1.376 . S
C4100 H4087 0.930 . S
C4100 C4099 1.376 . S
C4100 C4101 1.388 . S
C4101 H4088 0.930 . S
C4101 C4100 1.388 . S
C4101 C4102 1.390 . S
C4102 C4101 1.390 . S
C4102 C4103 1.394 . S
C4102 C4108 1.465 . S
C4103 C4098 1.399 . S
C4103 C4102 1.394 . S
C4103 C4104 1.516 . S
C4104 C4103 1.516 . S
C4104 C4105 1.502 . S
C4104 C4106 1.561 . S
C4104 C4107 1.526 . S
C4105 H4089 0.959 . S
C4105 H4090 0.959 . S
C4105 H4091 0.961 . S
C4105 C4104 1.502 . S
C4106 H4092 0.960 . S
C4106 H4093 0.961 . S
C4106 H4094 0.959 . S
C4106 C4104 1.561 . S
C4107 C4104 1.526 . S
C4107 C4108 1.396 . S
C4107 C4112 1.390 . S
C4108 C4102 1.465 . S
C4108 C4107 1.396 . S
C4108 C4109 1.399 . S
C4109 H4095 0.929 . S
C4109 C4108 1.399 . S
C4109 C4110 1.385 . S
C4110 H4096 0.931 . S
C4110 C4109 1.385 . S
C4110 C4111 1.389 . S
C4111 C4110 1.389 . S
C4111 C4112 1.387 . S
C4112 H4097 0.930 . S
C4112 C4107 1.390 . S
C4112 C4111 1.387 . S
H4113 C4125 0.930 . S
H4114 C4127 0.930 . S
H4115 C4128 0.930 . S
H4116 C4132 0.959 . S
H4117 C4132 0.959 . S
H4118 C4132 0.961 . S
H4119 C4133 0.960 . S
H4120 C4133 0.961 . S
H4121 C4133 0.959 . S
H4122 C4136 0.929 . S
H4123 C4137 0.931 . S
H4124 C4139 0.930 . S
C4125 H4113 0.930 . S
C4125 C4126 1.399 . S
C4125 C4130 1.399 . S
C4126 C4125 1.399 . S
C4126 C4127 1.376 . S
C4127 H4114 0.930 . S
C4127 C4126 1.376 . S
C4127 C4128 1.388 . S
C4128 H4115 0.930 . S
C4128 C4127 1.388 . S
C4128 C4129 1.390 . S
C4129 C4128 1.390 . S
C4129 C4130 1.394 . S
C4129 C4135 1.465 . S
C4130 C4125 1.399 . S
C4130 C4129 1.394 . S
C4130 C4131 1.516 . S
C4131 C4130 1.516 . S
C4131 C4132 1.502 . S
C4131 C4133 1.561 . S
C4131 C4134 1.526 . S
C4132 H4116 0.959 . S
C4132 H4117 0.959 . S
C4132 H4118 0.961 . S
C4132 C4131 1.502 . S
C4133 H4119 0.960 . S
C4133 H4120 0.961 . S
C4133 H4121 0.959 . S
C4133 C4131 1.561 . S
C4134 C4131 1.526 . S
C4134 C4135 1.396 . S
C4134 C4139 1.390 . S
C4135 C4129 1.465 . S
C4135 C4134 1.396 . S
C4135 C4136 1.399 . S
C4136 H4122 0.929 . S
C4136 C4135 1.399 . S
C4136 C4137 1.385 . S
C4137 H4123 0.931 . S
C4137 C4136 1.385 . S
C4137 C4138 1.389 . S
C4138 C4137 1.389 . S
C4138 C4139 1.387 . S
C4139 H4124 0.930 . S
C4139 C4134 1.390 . S
C4139 C4138 1.387 . S
H4140 C4152 0.930 . S
H4141 C4154 0.930 . S
H4142 C4155 0.930 . S
H4143 C4159 0.959 . S
H4144 C4159 0.959 . S
H4145 C4159 0.961 . S
H4146 C4160 0.960 . S
H4147 C4160 0.961 . S
H4148 C4160 0.959 . S
H4149 C4163 0.929 . S
H4150 C4164 0.931 . S
H4151 C4166 0.930 . S
C4152 H4140 0.930 . S
C4152 C4153 1.399 . S
C4152 C4157 1.399 . S
C4153 C4152 1.399 . S
C4153 C4154 1.376 . S
C4154 H4141 0.930 . S
C4154 C4153 1.376 . S
C4154 C4155 1.388 . S
C4155 H4142 0.930 . S
C4155 C4154 1.388 . S
C4155 C4156 1.390 . S
C4156 C4155 1.390 . S
C4156 C4157 1.394 . S
C4156 C4162 1.465 . S
C4157 C4152 1.399 . S
C4157 C4156 1.394 . S
C4157 C4158 1.516 . S
C4158 C4157 1.516 . S
C4158 C4159 1.502 . S
C4158 C4160 1.561 . S
C4158 C4161 1.526 . S
C4159 H4143 0.959 . S
C4159 H4144 0.959 . S
C4159 H4145 0.961 . S
C4159 C4158 1.502 . S
C4160 H4146 0.960 . S
C4160 H4147 0.961 . S
C4160 H4148 0.959 . S
C4160 C4158 1.561 . S
C4161 C4158 1.526 . S
C4161 C4162 1.396 . S
C4161 C4166 1.390 . S
C4162 C4156 1.465 . S
C4162 C4161 1.396 . S
C4162 C4163 1.399 . S
C4163 H4149 0.929 . S
C4163 C4162 1.399 . S
C4163 C4164 1.385 . S
C4164 H4150 0.931 . S
C4164 C4163 1.385 . S
C4164 C4165 1.389 . S
C4165 C4164 1.389 . S
C4165 C4166 1.387 . S
C4166 H4151 0.930 . S
C4166 C4161 1.390 . S
C4166 C4165 1.387 . S
H4167 C4179 0.930 . S
H4168 C4181 0.930 . S
H4169 C4182 0.925 . S
H4170 C4186 0.959 1_455 S
H4171 C4186 0.959 . S
H4172 C4186 0.961 . S
H4173 C4187 0.960 . S
H4174 C4187 0.961 . S
H4175 C4187 0.959 . S
H4176 C4190 0.964 . S
H4177 C4191 0.931 . S
H4178 C4193 0.930 . S
C4179 H4167 0.930 . S
C4179 C4180 1.399 . S
C4179 C4184 1.399 . S
C4180 C4179 1.399 . S
C4180 C4181 1.376 . S
C4181 H4168 0.930 . S
C4181 C4180 1.376 . S
C4181 C4182 1.388 . S
C4182 H4169 0.925 . S
C4182 C4181 1.388 . S
C4182 C4183 1.390 . S
C4183 C4182 1.390 . S
C4183 C4184 1.394 . S
C4183 C4189 1.465 . S
C4184 C4179 1.399 . S
C4184 C4183 1.394 . S
C4184 C4185 1.516 . S
C4185 C4184 1.516 . S
C4185 C4186 1.502 . S
C4185 C4187 1.561 . S
C4185 C4188 1.526 . S
C4186 H4170 0.959 1_655 S
C4186 H4171 0.959 . S
C4186 H4172 0.961 . S
C4186 C4185 1.502 . S
C4187 H4173 0.960 . S
C4187 H4174 0.961 . S
C4187 H4175 0.959 . S
C4187 C4185 1.561 . S
C4188 C4185 1.526 . S
C4188 C4189 1.396 . S
C4188 C4193 1.390 . S
C4189 C4183 1.465 . S
C4189 C4188 1.396 . S
C4189 C4190 1.334 1_655 S
C4190 H4176 0.964 . S
C4190 C4189 1.334 1_455 S
C4190 C4191 1.420 . S
C4191 H4177 0.931 . S
C4191 C4190 1.420 . S
C4191 C4192 1.389 1_455 S
C4192 C4191 1.389 1_655 S
C4192 C4193 1.387 . S
C4193 H4178 0.930 . S
C4193 C4188 1.390 . S
C4193 C4192 1.387 . S
H4194 C4206 0.930 . S
H4195 C4208 0.930 . S
H4196 C4209 0.930 . S
H4197 C4213 0.959 . S
H4198 C4213 0.959 . S
H4199 C4213 0.961 . S
H4200 C4214 0.960 . S
H4201 C4214 0.961 . S
H4202 C4214 0.959 . S
H4203 C4217 0.929 . S
H4204 C4218 0.931 . S
H4205 C4220 0.930 . S
C4206 H4194 0.930 . S
C4206 C4207 1.399 . S
C4206 C4211 1.399 . S
C4207 C4206 1.399 . S
C4207 C4208 1.376 . S
C4208 H4195 0.930 . S
C4208 C4207 1.376 . S
C4208 C4209 1.388 . S
C4209 H4196 0.930 . S
C4209 C4208 1.388 . S
C4209 C4210 1.390 . S
C4210 C4209 1.390 . S
C4210 C4211 1.394 . S
C4210 C4216 1.465 . S
C4211 C4206 1.399 . S
C4211 C4210 1.394 . S
C4211 C4212 1.516 . S
C4212 C4211 1.516 . S
C4212 C4213 1.502 . S
C4212 C4214 1.561 . S
C4212 C4215 1.526 . S
C4213 H4197 0.959 . S
C4213 H4198 0.959 . S
C4213 H4199 0.961 . S
C4213 C4212 1.502 . S
C4214 H4200 0.960 . S
C4214 H4201 0.961 . S
C4214 H4202 0.959 . S
C4214 C4212 1.561 . S
C4215 C4212 1.526 . S
C4215 C4216 1.396 . S
C4215 C4220 1.390 . S
C4216 C4210 1.465 . S
C4216 C4215 1.396 . S
C4216 C4217 1.399 . S
C4217 H4203 0.929 . S
C4217 C4216 1.399 . S
C4217 C4218 1.385 . S
C4218 H4204 0.931 . S
C4218 C4217 1.385 . S
C4218 C4219 1.389 . S
C4219 C4218 1.389 . S
C4219 C4220 1.387 . S
C4220 H4205 0.930 . S
C4220 C4215 1.390 . S
C4220 C4219 1.387 . S
H4221 C4233 0.930 1_565 S
H4222 C4235 0.930 . S
H4223 C4236 0.930 . S
H4224 C4240 0.959 1_545 S
H4225 C4240 0.959 . S
H4226 C4240 0.961 . S
H4227 C4241 0.960 . S
H4228 C4241 0.961 . S
H4229 C4241 0.959 . S
H4230 C4244 0.929 . S
H4231 C4245 0.931 . S
H4232 C4247 0.930 . S
C4233 H4221 0.930 1_545 S
C4233 C4234 1.399 . S
C4233 C4238 1.399 . S
C4234 C4233 1.399 . S
C4234 C4235 1.376 . S
C4235 H4222 0.930 . S
C4235 C4234 1.376 . S
C4235 C4236 1.388 . S
C4236 H4223 0.930 . S
C4236 C4235 1.388 . S
C4236 C4237 1.390 . S
C4237 C4236 1.390 . S
C4237 C4238 1.394 . S
C4237 C4243 1.465 . S
C4238 C4233 1.399 . S
C4238 C4237 1.394 . S
C4238 C4239 1.516 1_545 S
C4239 C4238 1.516 1_565 S
C4239 C4240 1.502 . S
C4239 C4241 1.561 . S
C4239 C4242 1.549 . S
C4240 H4224 0.959 1_565 S
C4240 H4225 0.959 . S
C4240 H4226 0.961 . S
C4240 C4239 1.502 . S
C4241 H4227 0.960 . S
C4241 H4228 0.961 . S
C4241 H4229 0.959 . S
C4241 C4239 1.561 . S
C4242 C4239 1.549 . S
C4242 C4243 1.382 1_565 S
C4242 C4247 1.382 . S
C4243 C4237 1.465 . S
C4243 C4242 1.382 1_545 S
C4243 C4244 1.399 . S
C4244 H4230 0.929 . S
C4244 C4243 1.399 . S
C4244 C4245 1.385 . S
C4245 H4231 0.931 . S
C4245 C4244 1.385 . S
C4245 C4246 1.389 . S
C4246 C4245 1.389 . S
C4246 C4247 1.387 1_545 S
C4247 H4232 0.930 . S
C4247 C4242 1.382 . S
C4247 C4246 1.387 1_565 S
C2317 C4 1.278 . S
C2329 C1307 1.069 1_655 S
C2344 C26 1.651 . S
C2356 C1447 1.118 . S
C2383 C1535 1.148 . S
C2371 C32 1.216 . S
C2398 C40 1.351 . S
C2410 C1675 1.080 1_565 S
C2425 C12 1.324 . S
C2437 C1789 1.086 . S
C2452 C18 1.587 1_556 S
C2464 C1877 1.090 . S
C2479 C46 1.206 . S
C2491 C1763 1.144 . S
C2518 C1903 1.274 . S
C2506 C68 1.559 . S
C2545 C1649 0.976 . S
C2533 C74 1.300 . S
C2560 C82 1.300 . S
C2572 C1561 1.043 . S
C2599 C1333 1.095 . S
C2587 C54 1.373 . S
C2614 C60 1.500 . S
C2626 C1421 1.280 . S
C2641 C88 1.684 . S
C2653 C1991 1.331 . S
C2668 C110 1.764 . S
C2680 C2131 1.124 . S
C2707 C2219 1.241 . S
C2695 C116 1.680 . S
C2722 C124 1.602 . S
C2734 C307 1.058 . S
C2749 C96 1.680 . S
C2761 C421 1.144 . S
C2776 C102 1.635 . S
C2788 C509 1.295 . S
C2803 C130 1.424 . S
C2815 C395 1.407 . S
C2830 C152 1.664 . S
C2842 C535 1.424 . S
C2869 C281 1.485 . S
C2857 C158 1.606 . S
C2896 C2245 1.319 . S
C2884 C166 1.651 . S
C2923 C2017 1.299 . S
C2911 C138 1.543 . S
C2950 C2105 1.428 . S
C2938 C144 1.617 . S
C2965 C172 1.586 . S
C2977 C623 1.124 . S
C2992 C194 1.775 . S
C3004 C763 1.073 . S
C3019 C200 1.674 . S
C3031 C851 1.344 . S
C3046 C208 1.727 . S
C3058 C991 1.016 . S
C3085 C1105 1.099 . S
C3073 C180 1.644 . S
C3112 C1193 1.315 . S
C3100 C186 1.653 . S
C3139 C1079 1.432 . S
C3127 C214 1.633 . S
C3166 C1219 1.414 . S
C3154 C236 1.655 . S
C3181 C242 1.566 . S
C3193 C965 1.450 . S
C3220 C877 1.321 . S
C3208 C250 1.493 . S
C3235 C222 1.598 . S
C3247 C649 1.338 . S
C3274 C737 1.504 . S
C3262 C228 1.536 . S
C3301 C263 0.949 . S
C3289 C5 1.636 . S
C3316 C25 1.610 . S
C3328 C377 0.829 . S
C3355 C481 1.304 . S
C3343 C33 1.553 . S
C3382 C595 1.014 . S
C3370 C39 1.527 . S
C3409 C719 0.852 . S
C3397 C11 1.728 . S
C3436 C823 1.196 . S
C3424 C19 1.367 1_556 S
C3451 C47 1.745 1_556 S
C3463 C833 1.577 . S
C3478 C67 1.714 . S
C3490 C605 1.420 . S
C3505 C75 1.648 1_556 S
C3517 C709 1.711 . S
C3532 C81 1.632 . S
C3544 C367 1.488 . S
C3571 C491 1.486 . S
C3559 C53 1.828 . S
C3586 C61 1.365 . S
C3598 C253 1.438 . S
C3625 C947 0.992 . S
C3613 C89 1.468 . S
C3640 C109 1.732 . S
C3652 C1061 0.867 . S
C3667 C117 1.455 . S
C3679 C1165 1.307 . S
C3706 C1279 0.854 . S
C3694 C123 1.090 . S
C3721 C95 1.556 . S
C3733 C1403 0.720 . S
C3748 C103 1.022 . S
C3760 C1507 0.857 . S
C3775 C131 1.085 . S
C3787 C1517 0.737 1_565 S
C3802 C151 1.187 . S
C3814 C1289 0.950 . S
C3841 C1393 1.419 . S
C3829 C159 1.380 . S
C3856 C165 1.566 . S
C3868 C1051 1.415 . S
C3883 C137 1.812 . S
C3895 C1175 1.351 . S
C3922 C937 1.519 . S
C3910 C145 1.473 . S
C3949 C1631 0.891 . S
C3937 C173 1.159 . S
C3964 C193 1.098 . S
C3976 C1745 0.804 . S
C3991 C201 1.325 . S
C4003 C1849 1.169 . S
C4030 C1963 1.147 . S
C4018 C207 1.428 . S
C4057 C2087 1.070 . S
C4045 C179 1.700 . S
C4072 C187 1.430 . S
C4084 C2191 1.268 . S
C4099 C215 1.503 . S
C4111 C2201 1.354 . S
C4126 C235 1.830 . S
C4138 C1973 1.508 . S
C4165 C2077 1.589 . S
C4153 C243 1.476 . S
C4192 C1735 0.797 1_655 S
C4180 C249 1.068 . S
C4219 C1859 1.207 . S
C4207 C221 1.680 . S
C4234 C229 1.160 . S
C4246 C1621 1.091 1_545 S
