# Generated by pormake.
# Topology sqc, (4,8)-cn, num edge types: 1
# Building blocks:
#     Node 0, Type 0, BuildingBlock: KUFVIS_clean_linker_0, # of connection points: 4
#     Node 1, Type 0, BuildingBlock: KUFVIS_clean_linker_0, # of connection points: 4
#     Node 2, Type 0, BuildingBlock: KUFVIS_clean_linker_0, # of connection points: 4
#     Node 3, Type 0, BuildingBlock: KUFVIS_clean_linker_0, # of connection points: 4
#     Node 4, Type 0, BuildingBlock: KUFVIS_clean_linker_0, # of connection points: 4
#     Node 5, Type 0, BuildingBlock: KUFVIS_clean_linker_0, # of connection points: 4
#     Node 6, Type 0, BuildingBlock: KUFVIS_clean_linker_0, # of connection points: 4
#     Node 7, Type 0, BuildingBlock: KUFVIS_clean_linker_0, # of connection points: 4
#     Node 8, Type 1, BuildingBlock: TAGTUT_clean_sbu_3, # of connection points: 8
#     Node 9, Type 1, BuildingBlock: TAGTUT_clean_sbu_3, # of connection points: 8
#     Node 10, Type 1, BuildingBlock: TAGTUT_clean_sbu_3, # of connection points: 8
#     Node 11, Type 1, BuildingBlock: TAGTUT_clean_sbu_3, # of connection points: 8
#     Edge 12, Type (0, 1), None
#     Edge 13, Type (0, 1), None
#     Edge 14, Type (0, 1), None
#     Edge 15, Type (0, 1), None
#     Edge 16, Type (0, 1), None
#     Edge 17, Type (0, 1), None
#     Edge 18, Type (0, 1), None
#     Edge 19, Type (0, 1), None
#     Edge 20, Type (0, 1), None
#     Edge 21, Type (0, 1), None
#     Edge 22, Type (0, 1), None
#     Edge 23, Type (0, 1), None
#     Edge 24, Type (0, 1), None
#     Edge 25, Type (0, 1), None
#     Edge 26, Type (0, 1), None
#     Edge 27, Type (0, 1), None
#     Edge 28, Type (0, 1), None
#     Edge 29, Type (0, 1), None
#     Edge 30, Type (0, 1), None
#     Edge 31, Type (0, 1), None
#     Edge 32, Type (0, 1), None
#     Edge 33, Type (0, 1), None
#     Edge 34, Type (0, 1), None
#     Edge 35, Type (0, 1), None
#     Edge 36, Type (0, 1), None
#     Edge 37, Type (0, 1), None
#     Edge 38, Type (0, 1), None
#     Edge 39, Type (0, 1), None
#     Edge 40, Type (0, 1), None
#     Edge 41, Type (0, 1), None
#     Edge 42, Type (0, 1), None
#     Edge 43, Type (0, 1), None
# Relax obj value: 0.167
# Max RMSD: 0.265
# Mean RMSD: 0.217
data_MOF--net-sqc--node1-TAGTUT_clean_sbu_3--node2-KUFVIS_clean_linker_0--edge1-none
_symmetry_space_group_name_H-M    P1
_symmetry_Int_Tables_number       1
_symmetry_cell_setting            triclinic
loop_
_symmetry_equiv_pos_as_xyz
'x, y, z'
_cell_length_a     12.698731
_cell_length_b     12.549694
_cell_length_c     34.221481
_cell_angle_alpha  91.969892
_cell_angle_beta   89.963416
_cell_angle_gamma 90.050977
loop_
_atom_site_label
_atom_site_type_symbol
_atom_site_fract_x
_atom_site_fract_y
_atom_site_fract_z
_atom_type_partial_charge
H0 H 0.66251 -0.01093 0.49967 0.0
H1 H 0.95685 0.0319 0.56053 0.0
H2 H 0.95722 0.94565 0.43902 0.0
H3 H 0.11395 0.89395 0.44534 0.0
H4 H 0.40222 0.98803 0.4999 0.0
H5 H 0.11394 0.08289 0.55433 0.0
C6 C 0.74775 -0.01106 0.4997 0.0
C7 C 0.80473 0.94678 0.46636 0.0
C8 C 0.80465 0.03103 0.53308 0.0
C9 C 0.91535 0.01656 0.53346 0.0
C10 C 0.97343 -0.01135 0.49979 0.0
C11 C 0.91552 0.96098 0.46607 0.0
C12 C 0.09359 -0.01156 0.49983 0.0
C13 C 0.15228 0.9363 0.46933 0.0
C14 C 0.26314 0.94068 0.46887 0.0
C15 C 0.31667 0.98813 0.49989 0.0
C16 C 0.26312 0.03577 0.53088 0.0
C17 C 0.15228 0.04041 0.53037 0.0
H18 H 0.32091 0.01716 0.741 0.0
H19 H 0.36069 0.75386 0.81387 0.0
H20 H 0.39311 0.71004 0.68813 0.0
H21 H 0.46869 0.55791 0.70366 0.0
H22 H 0.34226 0.28783 0.76234 0.0
H23 H 0.28447 0.60258 0.80857 0.0
C24 C 0.33609 0.93253 0.74346 0.0
C25 C 0.35967 0.86799 0.7104 0.0
C26 C 0.33377 0.89053 0.7801 0.0
C27 C 0.35737 0.78286 0.78449 0.0
C28 C 0.37557 0.7139 0.75164 0.0
C29 C 0.37897 0.75878 0.71428 0.0
C30 C 0.3799 0.59562 0.75652 0.0
C31 C 0.42664 0.52651 0.72827 0.0
C32 C 0.41136 0.41615 0.72964 0.0
C33 C 0.35622 0.37298 0.7617 0.0
C34 C 0.31355 0.44016 0.79147 0.0
C35 C 0.32519 0.55074 0.78783 0.0
H36 H 0.06896 0.98769 -0.00026 0.0
H37 H 0.78014 0.90433 0.05446 0.0
H38 H 0.78078 0.0746 0.94557 0.0
H39 H 0.62977 -0.00106 0.93661 0.0
H40 H 0.34142 -0.00967 5e-05 0.0
H41 H 0.62959 0.98055 0.06344 0.0
C42 C -0.01654 0.98812 -0.0002 0.0
C43 C 0.9295 0.03053 0.96814 0.0
C44 C 0.92923 0.94645 0.03157 0.0
C45 C 0.81987 0.94217 0.03067 0.0
C46 C 0.76369 -0.01057 -0.0 0.0
C47 C 0.82022 0.03616 0.96926 0.0
C48 C 0.64678 -0.01014 3e-05 0.0
C49 C 0.59033 -0.00296 0.96459 0.0
C50 C 0.48078 -0.00155 0.96483 0.0
C51 C 0.42693 -0.00974 5e-05 0.0
C52 C 0.48066 0.98171 0.03526 0.0
C53 C 0.59022 0.98282 0.03549 0.0
H54 H 0.34257 0.6895 0.23709 0.0
H55 H 0.46774 0.41948 0.29596 0.0
H56 H 0.28347 0.37462 0.19115 0.0
H57 H 0.35884 0.2232 0.18594 0.0
H58 H 0.32007 0.9599 0.25889 0.0
H59 H 0.39257 0.26725 0.31161 0.0
C60 C 0.35616 0.60433 0.23779 0.0
C61 C 0.31331 0.5371 0.20806 0.0
C62 C 0.41105 0.56118 0.26988 0.0
C63 C 0.42586 0.45081 0.27134 0.0
C64 C 0.37888 0.38163 0.24317 0.0
C65 C 0.32442 0.42649 0.21183 0.0
C66 C 0.37429 0.26334 0.24812 0.0
C67 C 0.35576 0.19428 0.21533 0.0
C68 C 0.33233 0.08656 0.21978 0.0
C69 C 0.33511 0.04457 0.25641 0.0
C70 C 0.35902 0.10918 0.28942 0.0
C71 C 0.37815 0.21847 0.2855 0.0
H72 H 0.82076 0.5172 0.24096 0.0
H73 H 0.86052 0.25389 0.31383 0.0
H74 H 0.8929 0.21006 0.18809 0.0
H75 H 0.96853 0.05796 0.20364 0.0
H76 H 0.84222 0.78786 0.26233 0.0
H77 H 0.78424 0.10263 0.30852 0.0
C78 C 0.83592 0.43257 0.24342 0.0
C79 C 0.85949 0.36803 0.21036 0.0
C80 C 0.83362 0.39058 0.28006 0.0
C81 C 0.85719 0.2829 0.28444 0.0
C82 C 0.87537 0.21393 0.2516 0.0
C83 C 0.87877 0.25881 0.21424 0.0
C84 C 0.87971 0.09566 0.25648 0.0
C85 C 0.92649 0.02655 0.22824 0.0
C86 C 0.91127 0.91619 0.22962 0.0
C87 C 0.85613 0.87302 0.26168 0.0
C88 C 0.81342 0.9402 0.29145 0.0
C89 C 0.82501 0.05078 0.28779 0.0
H90 H 0.84262 0.18954 0.73709 0.0
H91 H 0.96789 0.91952 0.79593 0.0
H92 H 0.7837 0.87466 0.69111 0.0
H93 H 0.85901 0.72323 0.6859 0.0
H94 H 0.82021 0.45994 0.75885 0.0
H95 H 0.89277 0.76727 0.81158 0.0
C96 C 0.85625 0.10437 0.73778 0.0
C97 C 0.81344 0.03714 0.70803 0.0
C98 C 0.91115 0.06121 0.76987 0.0
C99 C 0.926 0.95085 0.77131 0.0
C100 C 0.87906 0.88167 0.74313 0.0
C101 C 0.82461 0.92653 0.71179 0.0
C102 C 0.87448 0.76337 0.74808 0.0
C103 C 0.85593 0.69432 0.7153 0.0
C104 C 0.83248 0.5866 0.71974 0.0
C105 C 0.83527 0.54461 0.75637 0.0
C106 C 0.8592 0.60921 0.78938 0.0
C107 C 0.87835 0.7185 0.78546 0.0
H108 H 0.90222 0.48819 -0.00013 0.0
H109 H 0.61393 0.39412 0.9453 0.0
H110 H 0.61395 0.58307 0.05429 0.0
H111 H 0.45689 0.53202 0.06052 0.0
H112 H 0.1625 0.48902 -0.0003 0.0
H113 H 0.45718 0.44579 0.939 0.0
C114 C 0.81666 0.48829 -0.00015 0.0
C115 C 0.76312 0.53594 0.03084 0.0
C116 C 0.76313 0.44083 0.96883 0.0
C117 C 0.65227 0.43647 0.96929 0.0
C118 C 0.59359 0.48861 -0.0002 0.0
C119 C 0.65228 0.54059 0.03033 0.0
C120 C 0.47343 0.48879 -0.00023 0.0
C121 C 0.41537 0.51666 0.03345 0.0
C122 C 0.30465 0.53105 0.03309 0.0
C123 C 0.24775 0.48895 -0.00029 0.0
C124 C 0.30471 0.44683 0.96636 0.0
C125 C 0.4155 0.4611 0.96605 0.0
H126 H 0.56896 0.48761 0.49975 0.0
H127 H 0.28009 0.40438 0.55446 0.0
H128 H 0.28083 0.57465 0.44557 0.0
H129 H 0.12982 0.49902 0.43659 0.0
H130 H 0.84142 0.49046 0.50001 0.0
H131 H 0.12954 0.48062 0.56342 0.0
C132 C 0.48346 0.48808 0.4998 0.0
C133 C 0.42953 0.53051 0.46815 0.0
C134 C 0.42921 0.44644 0.53157 0.0
C135 C 0.31984 0.44221 0.53067 0.0
C136 C 0.26369 0.48948 0.49999 0.0
C137 C 0.32025 0.53619 0.46926 0.0
C138 C 0.14678 0.48994 0.50001 0.0
C139 C 0.09036 0.49712 0.46456 0.0
C140 C 0.98081 0.49855 0.4648 0.0
C141 C 0.92693 0.49038 0.50002 0.0
C142 C 0.98063 0.4818 0.53523 0.0
C143 C 0.09019 0.4829 0.53546 0.0
C144 C 0.2437 0.57541 0.17575 0.0
C145 C 0.87363 0.42282 0.17372 0.0
C146 C 0.82613 0.56956 0.06485 0.0
Mg147 Mg 0.34055 0.78374 0.1344 0.0
Mg148 Mg 0.19967 -0.01091 0.10769 0.0
O149 O 0.21277 0.84218 0.10968 0.0
Mg150 Mg 0.10291 0.7412 0.12542 0.0
O151 O 0.00387 0.63112 0.14156 0.0
Mg152 Mg 0.05748 0.50468 0.11175 0.0
Mg153 Mg 0.858 0.65042 0.14441 0.0
C154 C -0.00998 0.92101 0.06667 0.0
O155 O 0.02539 0.8491 0.17736 0.0
O156 O 0.4388 0.88691 0.09194 0.0
O157 O 0.85952 0.78498 0.18366 0.0
O158 O 0.34152 0.92551 0.18111 0.0
O159 O 0.33012 0.01553 0.07202 0.0
O160 O 0.23561 0.05772 0.16243 0.0
O161 O 0.1635 0.61673 0.07465 0.0
O162 O 0.33182 0.65347 0.08647 0.0
C163 C 0.2619 0.60039 0.06702 0.0
C164 C 0.41759 0.96587 0.07036 0.0
O165 O -0.00716 0.8249 0.07924 0.0
O166 O 0.95826 0.40528 0.15412 0.0
O167 O 0.05292 -0.00499 0.07843 0.0
O168 O 0.9129 0.51963 0.07075 0.0
O169 O 0.81944 0.50762 0.17082 0.0
O170 O 0.79087 0.64075 0.08864 0.0
O171 O 0.2271 0.67493 0.17011 0.0
O172 O 0.19186 0.50392 0.1562 0.0
C173 C 0.30096 0.01888 0.18617 0.0
C174 C 0.93431 0.84739 0.19464 0.0
C175 C 0.76201 0.87763 0.43235 0.0
C176 C 0.91791 0.51348 0.42963 0.0
C177 C 0.80234 0.45816 0.31371 0.0
Mg178 Mg 0.55758 0.97243 0.38782 0.0
Mg179 Mg 0.358 0.82659 0.35526 0.0
O180 O 0.50388 0.84599 0.35805 0.0
Mg181 Mg 0.60294 0.736 0.37411 0.0
O182 O 0.71292 0.63526 0.38977 0.0
Mg183 Mg 0.84088 0.69406 0.36513 0.0
Mg184 Mg 0.70045 0.48838 0.39215 0.0
C185 C 0.43419 0.62999 0.30486 0.0
O186 O 0.49297 0.65202 0.42036 0.0
O187 O 0.4583 0.07189 0.34552 0.0
O188 O 0.55354 0.48219 0.42133 0.0
O189 O 0.413 0.95725 0.42892 0.0
O190 O 0.31928 0.96949 0.32901 0.0
O191 O 0.29098 0.83589 0.41107 0.0
O192 O 0.72743 0.80221 0.32937 0.0
O193 O 0.69163 0.97316 0.34324 0.0
C194 C 0.74351 0.9018 0.32366 0.0
C195 C 0.3735 0.05435 0.32604 0.0
O196 O 0.52521 0.62818 0.32214 0.0
O197 O 0.93922 0.5919 0.40778 0.0
O198 O 0.35946 0.69232 0.31589 0.0
O199 O 0.84232 0.5519 0.31859 0.0
O200 O 0.83053 0.46352 0.42807 0.0
O201 O 0.7373 0.41908 0.33756 0.0
O202 O 0.66368 0.86036 0.42486 0.0
O203 O 0.83202 0.82482 0.41287 0.0
C204 C 0.32624 0.90714 0.43486 0.0
C205 C 0.49043 0.556 0.43304 0.0
C206 C 0.74381 0.07544 0.67574 0.0
C207 C 0.37379 0.92278 0.67376 0.0
C208 C 0.32614 0.06942 0.56488 0.0
Mg209 Mg 0.84059 0.28378 0.63437 0.0
Mg210 Mg 0.69966 0.48911 0.60767 0.0
O211 O 0.71278 0.34221 0.60967 0.0
Mg212 Mg 0.60294 0.2412 0.62541 0.0
O213 O 0.50394 0.1311 0.64156 0.0
Mg214 Mg 0.55755 0.00465 0.61176 0.0
Mg215 Mg 0.35806 0.15037 0.64443 0.0
C216 C 0.48998 0.421 0.56667 0.0
O217 O 0.52545 0.34909 0.67736 0.0
O218 O 0.93879 0.38698 0.5919 0.0
O219 O 0.35959 0.28494 0.68367 0.0
O220 O 0.84161 0.42555 0.68107 0.0
O221 O 0.83006 0.51555 0.57197 0.0
O222 O 0.7357 0.55777 0.66241 0.0
O223 O 0.66351 0.11672 0.57464 0.0
O224 O 0.83183 0.1535 0.58644 0.0
C225 C 0.76191 0.10041 0.567 0.0
C226 C 0.91755 0.46593 0.57031 0.0
O227 O 0.49284 0.32489 0.57924 0.0
O228 O 0.4584 0.90525 0.65415 0.0
O229 O 0.55287 0.49502 0.57844 0.0
O230 O 0.41293 0.01954 0.57078 0.0
O231 O 0.31959 0.00758 0.67087 0.0
O232 O 0.29086 0.14061 0.58868 0.0
O233 O 0.72719 0.17496 0.67009 0.0
O234 O 0.69196 0.00394 0.65619 0.0
C235 C 0.80106 0.51893 0.68613 0.0
C236 C 0.43438 0.34737 0.69465 0.0
C237 C 0.26202 0.37762 0.93237 0.0
C238 C 0.41787 0.01342 0.92967 0.0
C239 C 0.30244 0.95811 0.81375 0.0
Mg240 Mg 0.05764 0.47245 0.88782 0.0
Mg241 Mg 0.85806 0.32664 0.85524 0.0
O242 O 0.00394 0.346 0.85804 0.0
Mg243 Mg 0.10297 0.236 0.87412 0.0
O244 O 0.21293 0.13524 0.88978 0.0
Mg245 Mg 0.34092 0.19402 0.86517 0.0
Mg246 Mg 0.20044 -0.01164 0.89216 0.0
C247 C 0.93426 0.13001 0.80485 0.0
O248 O -0.00703 0.15204 0.92036 0.0
O249 O 0.95843 0.57192 0.84549 0.0
O250 O 0.05348 0.98219 0.92132 0.0
O251 O 0.91303 0.45734 0.9289 0.0
O252 O 0.81942 0.46952 0.82896 0.0
O253 O 0.79098 0.33602 0.91104 0.0
O254 O 0.22751 0.30218 0.82938 0.0
O255 O 0.19173 0.47314 0.84325 0.0
C256 C 0.24361 0.40177 0.82368 0.0
C257 C 0.87365 0.55438 0.826 0.0
O258 O 0.02527 0.12819 0.82214 0.0
O259 O 0.4392 0.09184 0.90783 0.0
O260 O 0.85953 0.19236 0.81587 0.0
O261 O 0.34241 0.05186 0.81863 0.0
O262 O 0.33047 0.96349 0.92812 0.0
O263 O 0.23739 0.91903 0.83759 0.0
O264 O 0.16369 0.36036 0.92487 0.0
O265 O 0.33203 0.32478 0.91291 0.0
C266 C 0.82623 0.40726 0.93483 0.0
C267 C -0.00961 0.05601 0.93303 0.0
loop_
_geom_bond_atom_site_label_1
_geom_bond_atom_site_label_2
_geom_bond_distance
_geom_bond_site_symmetry_2
_ccdc_geom_bond_type
H0 C6 0.930 . S
H1 C9 0.931 . S
H2 C11 0.931 . S
H3 C13 0.930 . S
H4 C15 0.930 . S
H5 C17 0.931 . S
C6 H0 0.930 . S
C6 C7 1.380 1_545 S
C6 C8 1.394 . S
C7 C6 1.380 1_565 S
C7 C11 1.382 . S
C8 C6 1.394 . S
C8 C9 1.400 . S
C9 H1 0.931 . S
C9 C8 1.400 . S
C9 C10 1.375 1_545 S
C10 C9 1.375 1_565 S
C10 C11 1.415 . S
C10 C12 1.501 1_655 S
C11 H2 0.931 . S
C11 C7 1.382 . S
C11 C10 1.415 . S
C12 C10 1.501 1_455 S
C12 C13 1.384 . S
C12 C17 1.408 1_565 S
C13 H3 0.930 . S
C13 C12 1.384 . S
C13 C14 1.389 . S
C14 C13 1.389 . S
C14 C15 1.405 . S
C15 H4 0.930 . S
C15 C14 1.405 . S
C15 C16 1.364 1_565 S
C16 C15 1.364 1_545 S
C16 C17 1.400 . S
C17 H5 0.931 . S
C17 C12 1.408 1_545 S
C17 C16 1.400 . S
H18 C24 0.930 1_545 S
H19 C27 0.931 . S
H20 C29 0.931 . S
H21 C31 0.930 . S
H22 C33 0.930 . S
H23 C35 0.931 . S
C24 H18 0.930 1_565 S
C24 C25 1.380 . S
C24 C26 1.394 . S
C25 C24 1.380 . S
C25 C29 1.382 . S
C26 C24 1.394 . S
C26 C27 1.400 . S
C27 H19 0.931 . S
C27 C26 1.400 . S
C27 C28 1.375 . S
C28 C27 1.375 . S
C28 C29 1.415 . S
C28 C30 1.501 . S
C29 H20 0.931 . S
C29 C25 1.382 . S
C29 C28 1.415 . S
C30 C28 1.501 . S
C30 C31 1.384 . S
C30 C35 1.408 . S
C31 H21 0.930 . S
C31 C30 1.384 . S
C31 C32 1.389 . S
C32 C31 1.389 . S
C32 C33 1.405 . S
C33 H22 0.930 . S
C33 C32 1.405 . S
C33 C34 1.364 . S
C34 C33 1.364 . S
C34 C35 1.400 . S
C35 H23 0.931 . S
C35 C30 1.408 . S
C35 C34 1.400 . S
H36 C42 0.930 . S
H37 C45 0.931 . S
H38 C47 0.931 . S
H39 C49 0.930 . S
H40 C51 0.930 . S
H41 C53 0.931 . S
C42 H36 0.930 . S
C42 C43 1.380 1_464 S
C42 C44 1.394 1_455 S
C43 C42 1.380 1_646 S
C43 C47 1.382 . S
C44 C42 1.394 1_655 S
C44 C45 1.400 . S
C45 H37 0.931 . S
C45 C44 1.400 . S
C45 C46 1.375 1_565 S
C46 C45 1.375 1_545 S
C46 C47 1.415 1_554 S
C46 C48 1.501 . S
C47 H38 0.931 . S
C47 C43 1.382 . S
C47 C46 1.415 1_556 S
C48 C46 1.501 . S
C48 C49 1.384 1_554 S
C48 C53 1.408 1_545 S
C49 H39 0.930 . S
C49 C48 1.384 1_556 S
C49 C50 1.389 . S
C50 C49 1.389 . S
C50 C51 1.405 1_556 S
C51 H40 0.930 . S
C51 C50 1.405 1_554 S
C51 C52 1.364 1_545 S
C52 C51 1.364 1_565 S
C52 C53 1.400 . S
C53 H41 0.931 . S
C53 C48 1.408 1_565 S
C53 C52 1.400 . S
H54 C60 0.930 . S
H55 C63 0.931 . S
H56 C65 0.931 . S
H57 C67 0.930 . S
H58 C69 0.930 1_565 S
H59 C71 0.931 . S
C60 H54 0.930 . S
C60 C61 1.380 . S
C60 C62 1.394 . S
C61 C60 1.380 . S
C61 C65 1.382 . S
C62 C60 1.394 . S
C62 C63 1.400 . S
C63 H55 0.931 . S
C63 C62 1.400 . S
C63 C64 1.375 . S
C64 C63 1.375 . S
C64 C65 1.415 . S
C64 C66 1.501 . S
C65 H56 0.931 . S
C65 C61 1.382 . S
C65 C64 1.415 . S
C66 C64 1.501 . S
C66 C67 1.384 . S
C66 C71 1.408 . S
C67 H57 0.930 . S
C67 C66 1.384 . S
C67 C68 1.389 . S
C68 C67 1.389 . S
C68 C69 1.405 . S
C69 H58 0.930 1_545 S
C69 C68 1.405 . S
C69 C70 1.364 . S
C70 C69 1.364 . S
C70 C71 1.400 . S
C71 H59 0.931 . S
C71 C66 1.408 . S
C71 C70 1.400 . S
H72 C78 0.930 . S
H73 C81 0.931 . S
H74 C83 0.931 . S
H75 C85 0.930 . S
H76 C87 0.930 . S
H77 C89 0.931 . S
C78 H72 0.930 . S
C78 C79 1.380 . S
C78 C80 1.394 . S
C79 C78 1.380 . S
C79 C83 1.382 . S
C80 C78 1.394 . S
C80 C81 1.400 . S
C81 H73 0.931 . S
C81 C80 1.400 . S
C81 C82 1.375 . S
C82 C81 1.375 . S
C82 C83 1.415 . S
C82 C84 1.501 . S
C83 H74 0.931 . S
C83 C79 1.382 . S
C83 C82 1.415 . S
C84 C82 1.501 . S
C84 C85 1.384 . S
C84 C89 1.408 . S
C85 H75 0.930 . S
C85 C84 1.384 . S
C85 C86 1.389 1_545 S
C86 C85 1.389 1_565 S
C86 C87 1.405 . S
C87 H76 0.930 . S
C87 C86 1.405 . S
C87 C88 1.364 . S
C88 C87 1.364 . S
C88 C89 1.400 1_565 S
C89 H77 0.931 . S
C89 C84 1.408 . S
C89 C88 1.400 1_545 S
H90 C96 0.930 . S
H91 C99 0.931 . S
H92 C101 0.931 . S
H93 C103 0.930 . S
H94 C105 0.930 . S
H95 C107 0.931 . S
C96 H90 0.930 . S
C96 C97 1.380 . S
C96 C98 1.394 . S
C97 C96 1.380 . S
C97 C101 1.382 1_545 S
C98 C96 1.394 . S
C98 C99 1.400 1_545 S
C99 H91 0.931 . S
C99 C98 1.400 1_565 S
C99 C100 1.375 . S
C100 C99 1.375 . S
C100 C101 1.415 . S
C100 C102 1.501 . S
C101 H92 0.931 . S
C101 C97 1.382 1_565 S
C101 C100 1.415 . S
C102 C100 1.501 . S
C102 C103 1.384 . S
C102 C107 1.408 . S
C103 H93 0.930 . S
C103 C102 1.384 . S
C103 C104 1.389 . S
C104 C103 1.389 . S
C104 C105 1.405 . S
C105 H94 0.930 . S
C105 C104 1.405 . S
C105 C106 1.364 . S
C106 C105 1.364 . S
C106 C107 1.400 . S
C107 H95 0.931 . S
C107 C102 1.408 . S
C107 C106 1.400 . S
H108 C114 0.930 . S
H109 C117 0.931 . S
H110 C119 0.931 . S
H111 C121 0.930 . S
H112 C123 0.930 . S
H113 C125 0.931 . S
C114 H108 0.930 . S
C114 C115 1.380 . S
C114 C116 1.394 1_554 S
C115 C114 1.380 . S
C115 C119 1.382 . S
C116 C114 1.394 1_556 S
C116 C117 1.400 . S
C117 H109 0.931 . S
C117 C116 1.400 . S
C117 C118 1.375 1_556 S
C118 C117 1.375 1_554 S
C118 C119 1.415 . S
C118 C120 1.501 . S
C119 H110 0.931 . S
C119 C115 1.382 . S
C119 C118 1.415 . S
C120 C118 1.501 . S
C120 C121 1.384 . S
C120 C125 1.408 1_554 S
C121 H111 0.930 . S
C121 C120 1.384 . S
C121 C122 1.389 . S
C122 C121 1.389 . S
C122 C123 1.405 . S
C123 H112 0.930 . S
C123 C122 1.405 . S
C123 C124 1.364 1_554 S
C124 C123 1.364 1_556 S
C124 C125 1.400 . S
C125 H113 0.931 . S
C125 C120 1.408 1_556 S
C125 C124 1.400 . S
H126 C132 0.930 . S
H127 C135 0.931 . S
H128 C137 0.931 . S
H129 C139 0.930 . S
H130 C141 0.930 . S
H131 C143 0.931 . S
C132 H126 0.930 . S
C132 C133 1.380 . S
C132 C134 1.394 . S
C133 C132 1.380 . S
C133 C137 1.382 . S
C134 C132 1.394 . S
C134 C135 1.400 . S
C135 H127 0.931 . S
C135 C134 1.400 . S
C135 C136 1.375 . S
C136 C135 1.375 . S
C136 C137 1.415 . S
C136 C138 1.501 . S
C137 H128 0.931 . S
C137 C133 1.382 . S
C137 C136 1.415 . S
C138 C136 1.501 . S
C138 C139 1.384 . S
C138 C143 1.408 . S
C139 H129 0.930 . S
C139 C138 1.384 . S
C139 C140 1.389 . S
C140 C139 1.389 . S
C140 C141 1.405 1_455 S
C141 H130 0.930 . S
C141 C140 1.405 1_655 S
C141 C142 1.364 1_655 S
C142 C141 1.364 1_455 S
C142 C143 1.400 . S
C143 H131 0.931 . S
C143 C138 1.408 . S
C143 C142 1.400 . S
C144 O171 1.312 . S
C144 O172 1.208 . S
C145 O166 1.331 . S
C145 O169 1.244 . S
C146 O168 1.264 . S
C146 O170 1.273 . S
Mg147 O149 1.936 . S
Mg147 O156 2.081 . S
Mg147 O158 2.023 . S
Mg147 O162 2.031 . S
Mg147 O171 2.291 . S
Mg148 O149 1.963 1_545 S
Mg148 O159 1.942 . S
Mg148 O160 1.955 . S
Mg148 O167 1.986 1_545 S
O149 Mg147 1.936 . S
O149 Mg148 1.963 1_565 S
O149 Mg150 1.915 . S
Mg150 O149 1.915 . S
Mg150 O151 1.915 . S
Mg150 O155 2.013 . S
Mg150 O161 2.114 . S
Mg150 O165 2.013 . S
Mg150 O171 2.114 . S
O151 Mg150 1.915 . S
O151 Mg152 1.936 . S
O151 Mg153 1.963 1_455 S
Mg152 O151 1.936 . S
Mg152 O161 2.291 . S
Mg152 O166 2.081 1_455 S
Mg152 O168 2.023 1_455 S
Mg152 O172 2.031 . S
Mg153 O151 1.963 1_655 S
Mg153 O157 1.986 . S
Mg153 O169 1.942 . S
Mg153 O170 1.955 . S
C154 O165 1.191 . S
C154 O167 1.307 . S
O155 Mg150 2.013 . S
O155 C174 1.191 1_455 S
O156 Mg147 2.081 . S
O156 C164 1.331 . S
O157 Mg153 1.986 . S
O157 C174 1.307 . S
O158 Mg147 2.023 . S
O158 C173 1.264 . S
O159 Mg148 1.942 . S
O159 C164 1.244 1_545 S
O160 Mg148 1.955 . S
O160 C173 1.273 1_545 S
O161 Mg150 2.114 . S
O161 Mg152 2.291 . S
O161 C163 1.312 . S
O162 Mg147 2.031 . S
O162 C163 1.208 . S
C163 O161 1.312 . S
C163 O162 1.208 . S
C164 O156 1.331 . S
C164 O159 1.244 1_565 S
O165 Mg150 2.013 . S
O165 C154 1.191 . S
O166 C145 1.331 . S
O166 Mg152 2.081 1_655 S
O167 Mg148 1.986 1_565 S
O167 C154 1.307 . S
O168 C146 1.264 . S
O168 Mg152 2.023 1_655 S
O169 C145 1.244 . S
O169 Mg153 1.942 . S
O170 C146 1.273 . S
O170 Mg153 1.955 . S
O171 C144 1.312 . S
O171 Mg147 2.291 . S
O171 Mg150 2.114 . S
O172 C144 1.208 . S
O172 Mg152 2.031 . S
C173 O158 1.264 . S
C173 O160 1.273 1_565 S
C174 O155 1.191 1_655 S
C174 O157 1.307 . S
C175 O202 1.312 . S
C175 O203 1.208 . S
C176 O197 1.331 . S
C176 O200 1.244 . S
C177 O199 1.264 . S
C177 O201 1.273 . S
Mg178 O180 1.936 . S
Mg178 O187 2.081 1_565 S
Mg178 O189 2.023 1_565 S
Mg178 O193 2.031 . S
Mg178 O202 2.291 . S
Mg179 O180 1.963 . S
Mg179 O190 1.942 . S
Mg179 O191 1.955 . S
Mg179 O198 1.986 . S
O180 Mg178 1.936 . S
O180 Mg179 1.963 . S
O180 Mg181 1.915 . S
Mg181 O180 1.915 . S
Mg181 O182 1.915 . S
Mg181 O186 2.013 . S
Mg181 O192 2.114 . S
Mg181 O196 2.013 . S
Mg181 O202 2.114 . S
O182 Mg181 1.915 . S
O182 Mg183 1.936 . S
O182 Mg184 1.963 . S
Mg183 O182 1.936 . S
Mg183 O192 2.291 . S
Mg183 O197 2.081 . S
Mg183 O199 2.023 . S
Mg183 O203 2.031 . S
Mg184 O182 1.963 . S
Mg184 O188 1.986 . S
Mg184 O200 1.942 . S
Mg184 O201 1.955 . S
C185 O196 1.191 . S
C185 O198 1.307 . S
O186 Mg181 2.013 . S
O186 C205 1.191 . S
O187 Mg178 2.081 1_545 S
O187 C195 1.331 . S
O188 Mg184 1.986 . S
O188 C205 1.307 . S
O189 Mg178 2.023 1_545 S
O189 C204 1.264 1_545 S
O190 Mg179 1.942 . S
O190 C195 1.244 1_565 S
O191 Mg179 1.955 . S
O191 C204 1.273 . S
O192 Mg181 2.114 . S
O192 Mg183 2.291 . S
O192 C194 1.312 . S
O193 Mg178 2.031 . S
O193 C194 1.208 . S
C194 O192 1.312 . S
C194 O193 1.208 . S
C195 O187 1.331 . S
C195 O190 1.244 1_545 S
O196 Mg181 2.013 . S
O196 C185 1.191 . S
O197 C176 1.331 . S
O197 Mg183 2.081 . S
O198 Mg179 1.986 . S
O198 C185 1.307 . S
O199 C177 1.264 . S
O199 Mg183 2.023 . S
O200 C176 1.244 . S
O200 Mg184 1.942 . S
O201 C177 1.273 . S
O201 Mg184 1.955 . S
O202 C175 1.312 . S
O202 Mg178 2.291 . S
O202 Mg181 2.114 . S
O203 C175 1.208 . S
O203 Mg183 2.031 . S
C204 O189 1.264 1_565 S
C204 O191 1.273 . S
C205 O186 1.191 . S
C205 O188 1.307 . S
C206 O233 1.312 . S
C206 O234 1.208 . S
C207 O228 1.331 . S
C207 O231 1.244 1_565 S
C208 O230 1.264 1_545 S
C208 O232 1.273 . S
Mg209 O211 1.936 . S
Mg209 O218 2.081 . S
Mg209 O220 2.023 . S
Mg209 O224 2.031 . S
Mg209 O233 2.291 . S
Mg210 O211 1.963 . S
Mg210 O221 1.942 . S
Mg210 O222 1.955 . S
Mg210 O229 1.986 . S
O211 Mg209 1.936 . S
O211 Mg210 1.963 . S
O211 Mg212 1.915 . S
Mg212 O211 1.915 . S
Mg212 O213 1.915 . S
Mg212 O217 2.013 . S
Mg212 O223 2.114 . S
Mg212 O227 2.013 . S
Mg212 O233 2.114 . S
O213 Mg212 1.915 . S
O213 Mg214 1.936 . S
O213 Mg215 1.963 . S
Mg214 O213 1.936 . S
Mg214 O223 2.291 . S
Mg214 O228 2.081 1_545 S
Mg214 O230 2.023 1_545 S
Mg214 O234 2.031 . S
Mg215 O213 1.963 . S
Mg215 O219 1.986 . S
Mg215 O231 1.942 . S
Mg215 O232 1.955 . S
C216 O227 1.191 . S
C216 O229 1.307 . S
O217 Mg212 2.013 . S
O217 C236 1.191 . S
O218 Mg209 2.081 . S
O218 C226 1.331 . S
O219 Mg215 1.986 . S
O219 C236 1.307 . S
O220 Mg209 2.023 . S
O220 C235 1.264 . S
O221 Mg210 1.942 . S
O221 C226 1.244 . S
O222 Mg210 1.955 . S
O222 C235 1.273 . S
O223 Mg212 2.114 . S
O223 Mg214 2.291 . S
O223 C225 1.312 . S
O224 Mg209 2.031 . S
O224 C225 1.208 . S
C225 O223 1.312 . S
C225 O224 1.208 . S
C226 O218 1.331 . S
C226 O221 1.244 . S
O227 Mg212 2.013 . S
O227 C216 1.191 . S
O228 C207 1.331 . S
O228 Mg214 2.081 1_565 S
O229 Mg210 1.986 . S
O229 C216 1.307 . S
O230 C208 1.264 1_565 S
O230 Mg214 2.023 1_565 S
O231 C207 1.244 1_545 S
O231 Mg215 1.942 . S
O232 C208 1.273 . S
O232 Mg215 1.955 . S
O233 C206 1.312 . S
O233 Mg209 2.291 . S
O233 Mg212 2.114 . S
O234 C206 1.208 . S
O234 Mg214 2.031 . S
C235 O220 1.264 . S
C235 O222 1.273 . S
C236 O217 1.191 . S
C236 O219 1.307 . S
C237 O264 1.312 . S
C237 O265 1.208 . S
C238 O259 1.331 . S
C238 O262 1.244 1_545 S
C239 O261 1.264 . S
C239 O263 1.273 1_545 S
Mg240 O242 1.936 . S
Mg240 O249 2.081 1_455 S
Mg240 O251 2.023 1_455 S
Mg240 O255 2.031 . S
Mg240 O264 2.291 . S
Mg241 O242 1.963 1_655 S
Mg241 O252 1.942 . S
Mg241 O253 1.955 . S
Mg241 O260 1.986 . S
O242 Mg240 1.936 . S
O242 Mg241 1.963 1_455 S
O242 Mg243 1.915 . S
Mg243 O242 1.915 . S
Mg243 O244 1.915 . S
Mg243 O248 2.013 . S
Mg243 O254 2.114 . S
Mg243 O258 2.013 . S
Mg243 O264 2.114 . S
O244 Mg243 1.915 . S
O244 Mg245 1.936 . S
O244 Mg246 1.963 1_545 S
Mg245 O244 1.936 . S
Mg245 O254 2.291 . S
Mg245 O259 2.081 . S
Mg245 O261 2.023 . S
Mg245 O265 2.031 . S
Mg246 O244 1.963 1_565 S
Mg246 O250 1.986 1_565 S
Mg246 O262 1.942 . S
Mg246 O263 1.955 . S
C247 O258 1.191 1_655 S
C247 O260 1.307 . S
O248 Mg243 2.013 . S
O248 C267 1.191 . S
O249 Mg240 2.081 1_655 S
O249 C257 1.331 . S
O250 Mg246 1.986 1_545 S
O250 C267 1.307 . S
O251 Mg240 2.023 1_655 S
O251 C266 1.264 . S
O252 Mg241 1.942 . S
O252 C257 1.244 . S
O253 Mg241 1.955 . S
O253 C266 1.273 . S
O254 Mg243 2.114 . S
O254 Mg245 2.291 . S
O254 C256 1.312 . S
O255 Mg240 2.031 . S
O255 C256 1.208 . S
C256 O254 1.312 . S
C256 O255 1.208 . S
C257 O249 1.331 . S
C257 O252 1.244 . S
O258 Mg243 2.013 . S
O258 C247 1.191 1_455 S
O259 C238 1.331 . S
O259 Mg245 2.081 . S
O260 Mg241 1.986 . S
O260 C247 1.307 . S
O261 C239 1.264 . S
O261 Mg245 2.023 . S
O262 C238 1.244 1_565 S
O262 Mg246 1.942 . S
O263 C239 1.273 1_565 S
O263 Mg246 1.955 . S
O264 C237 1.312 . S
O264 Mg240 2.291 . S
O264 Mg243 2.114 . S
O265 C237 1.208 . S
O265 Mg245 2.031 . S
C266 O251 1.264 . S
C266 O253 1.273 . S
C267 O248 1.191 . S
C267 O250 1.307 . S
C204 C14 2.119 . S
C25 C207 2.009 . S
C50 C238 2.031 . S
C173 C68 2.102 1_565 S
C208 C16 2.055 . S
C239 C26 2.083 1_545 S
C164 C52 1.961 . S
C195 C70 1.980 . S
C8 C225 1.667 . S
C88 C194 1.646 . S
C44 C154 1.545 1_655 S
C247 C98 1.573 . S
C175 C7 1.669 . S
C86 C174 1.580 . S
C43 C267 1.550 1_655 S
C206 C97 1.646 . S
C116 C266 2.098 . S
C79 C145 2.010 . S
C140 C176 2.032 1_455 S
C104 C235 2.103 . S
C146 C115 2.084 . S
C80 C177 2.082 . S
C142 C226 1.960 1_455 S
C257 C106 1.979 . S
C122 C163 1.668 . S
C34 C256 1.648 . S
C134 C216 1.544 . S
C185 C62 1.573 . S
C237 C124 1.675 . S
C236 C32 1.580 . S
C205 C133 1.551 . S
C144 C61 1.646 . S
