# Generated by pormake.
# Topology hwx, (6,3)-cn, num edge types: 1
# Building blocks:
#     Node 0, Type 0, BuildingBlock: OJICUG_clean_sbu_0, # of connection points: 6
#     Node 1, Type 0, BuildingBlock: OJICUG_clean_sbu_0, # of connection points: 6
#     Node 2, Type 0, BuildingBlock: OJICUG_clean_sbu_0, # of connection points: 6
#     Node 3, Type 0, BuildingBlock: OJICUG_clean_sbu_0, # of connection points: 6
#     Node 4, Type 1, BuildingBlock: BETDAH_clean_linker_0, # of connection points: 3
#     Node 5, Type 1, BuildingBlock: BETDAH_clean_linker_0, # of connection points: 3
#     Node 6, Type 1, BuildingBlock: BETDAH_clean_linker_0, # of connection points: 3
#     Node 7, Type 1, BuildingBlock: BETDAH_clean_linker_0, # of connection points: 3
#     Node 8, Type 1, BuildingBlock: BETDAH_clean_linker_0, # of connection points: 3
#     Node 9, Type 1, BuildingBlock: BETDAH_clean_linker_0, # of connection points: 3
#     Node 10, Type 1, BuildingBlock: BETDAH_clean_linker_0, # of connection points: 3
#     Node 11, Type 1, BuildingBlock: BETDAH_clean_linker_0, # of connection points: 3
#     Edge 12, Type (0, 1), BuildingBlock: ZUJKAS_clean_linker_0, # of connection points: 2
#     Edge 13, Type (0, 1), BuildingBlock: ZUJKAS_clean_linker_0, # of connection points: 2
#     Edge 14, Type (0, 1), BuildingBlock: ZUJKAS_clean_linker_0, # of connection points: 2
#     Edge 15, Type (0, 1), BuildingBlock: ZUJKAS_clean_linker_0, # of connection points: 2
#     Edge 16, Type (0, 1), BuildingBlock: ZUJKAS_clean_linker_0, # of connection points: 2
#     Edge 17, Type (0, 1), BuildingBlock: ZUJKAS_clean_linker_0, # of connection points: 2
#     Edge 18, Type (0, 1), BuildingBlock: ZUJKAS_clean_linker_0, # of connection points: 2
#     Edge 19, Type (0, 1), BuildingBlock: ZUJKAS_clean_linker_0, # of connection points: 2
#     Edge 20, Type (0, 1), BuildingBlock: ZUJKAS_clean_linker_0, # of connection points: 2
#     Edge 21, Type (0, 1), BuildingBlock: ZUJKAS_clean_linker_0, # of connection points: 2
#     Edge 22, Type (0, 1), BuildingBlock: ZUJKAS_clean_linker_0, # of connection points: 2
#     Edge 23, Type (0, 1), BuildingBlock: ZUJKAS_clean_linker_0, # of connection points: 2
#     Edge 24, Type (0, 1), BuildingBlock: ZUJKAS_clean_linker_0, # of connection points: 2
#     Edge 25, Type (0, 1), BuildingBlock: ZUJKAS_clean_linker_0, # of connection points: 2
#     Edge 26, Type (0, 1), BuildingBlock: ZUJKAS_clean_linker_0, # of connection points: 2
#     Edge 27, Type (0, 1), BuildingBlock: ZUJKAS_clean_linker_0, # of connection points: 2
#     Edge 28, Type (0, 1), BuildingBlock: ZUJKAS_clean_linker_0, # of connection points: 2
#     Edge 29, Type (0, 1), BuildingBlock: ZUJKAS_clean_linker_0, # of connection points: 2
#     Edge 30, Type (0, 1), BuildingBlock: ZUJKAS_clean_linker_0, # of connection points: 2
#     Edge 31, Type (0, 1), BuildingBlock: ZUJKAS_clean_linker_0, # of connection points: 2
#     Edge 32, Type (0, 1), BuildingBlock: ZUJKAS_clean_linker_0, # of connection points: 2
#     Edge 33, Type (0, 1), BuildingBlock: ZUJKAS_clean_linker_0, # of connection points: 2
#     Edge 34, Type (0, 1), BuildingBlock: ZUJKAS_clean_linker_0, # of connection points: 2
#     Edge 35, Type (0, 1), BuildingBlock: ZUJKAS_clean_linker_0, # of connection points: 2
# Relax obj value: 0.008
# Max RMSD: 0.047
# Mean RMSD: 0.043
data_MOF--net-hwx--node1-OJICUG_clean_sbu_0--node2-BETDAH_clean_linker_0--edge1-ZUJKAS_clean_linker_0
_symmetry_space_group_name_H-M    P1
_symmetry_Int_Tables_number       1
_symmetry_cell_setting            triclinic
loop_
_symmetry_equiv_pos_as_xyz
'x, y, z'
_cell_length_a     68.083715
_cell_length_b     68.086614
_cell_length_c     26.328742
_cell_angle_alpha  91.730631
_cell_angle_beta   91.69196
_cell_angle_gamma 89.999784
loop_
_atom_site_label
_atom_site_type_symbol
_atom_site_fract_x
_atom_site_fract_y
_atom_site_fract_z
_atom_type_partial_charge
Sc0 Sc 0.22375 0.22475 0.06904 0.0
Sc1 Sc 0.19245 0.19191 -0.00079 0.0
Sc2 Sc 0.22392 0.22329 0.93507 0.0
O3 O 0.21338 0.21333 0.0011 0.0
C4 C 0.22034 0.26307 0.00231 0.0
C5 C 0.17792 0.22004 0.08956 0.0
C6 C 0.17809 0.21833 0.90715 0.0
C7 C 0.22047 0.17912 0.09194 0.0
C8 C 0.26296 0.22243 0.00537 0.0
C9 C 0.2205 0.17706 0.91078 0.0
O10 O 0.22087 0.25456 0.04467 0.0
O11 O 0.17484 0.20713 0.05436 0.0
O12 O 0.19492 0.22578 0.90043 0.0
O13 O 0.22781 0.19612 0.10047 0.0
O14 O 0.25409 0.22201 0.96215 0.0
O15 O 0.20763 0.1742 0.94379 0.0
O16 O 0.25394 0.22355 0.04694 0.0
O17 O 0.20747 0.17554 0.05724 0.0
O18 O 0.22769 0.19395 0.90325 0.0
O19 O 0.19478 0.22749 0.0994 0.0
O20 O 0.22141 0.25374 0.95984 0.0
O21 O 0.17506 0.2059 0.9411 0.0
Sc22 Sc 0.28444 0.71889 0.42898 0.0
Sc23 Sc 0.31448 0.68724 0.50133 0.0
Sc24 Sc 0.28058 0.71839 0.56218 0.0
O25 O 0.29315 0.70817 0.49747 0.0
C26 C 0.28467 0.75777 0.50049 0.0
C27 C 0.33081 0.71509 0.41634 0.0
C28 C 0.32597 0.71513 0.59686 0.0
C29 C 0.28901 0.67278 0.40376 0.0
C30 C 0.24348 0.7161 0.48461 0.0
C31 C 0.28474 0.67281 0.58438 0.0
O32 O 0.28527 0.74912 0.457 0.0
O33 O 0.33299 0.70184 0.44901 0.0
O34 O 0.30859 0.7216 0.60222 0.0
O35 O 0.28253 0.6898 0.39351 0.0
O36 O 0.25122 0.71654 0.52923 0.0
O37 O 0.29883 0.66999 0.5544 0.0
O38 O 0.25361 0.71663 0.44483 0.0
O39 O 0.30047 0.66959 0.4416 0.0
O40 O 0.27648 0.68941 0.59041 0.0
O41 O 0.31421 0.7227 0.40557 0.0
O42 O 0.28316 0.74853 0.54141 0.0
O43 O 0.33043 0.70283 0.56177 0.0
Sc44 Sc 0.77565 0.77713 0.95508 0.0
Sc45 Sc 0.80863 0.80874 0.02309 0.0
Sc46 Sc 0.78003 0.77512 0.08865 0.0
O47 O 0.78811 0.78698 0.0223 0.0
C48 C 0.73879 0.77819 0.02712 0.0
C49 C 0.77854 0.82329 0.93746 0.0
C50 C 0.78343 0.82082 0.11954 0.0
C51 C 0.82047 0.78214 0.92641 0.0
C52 C 0.78066 0.73711 0.01495 0.0
C53 C 0.82649 0.78042 0.10724 0.0
O54 O 0.74634 0.7792 0.98362 0.0
O55 O 0.79144 0.82661 0.97248 0.0
O56 O 0.77663 0.80366 0.12553 0.0
O57 O 0.80372 0.774 0.9202 0.0
O58 O 0.7823 0.74529 0.05896 0.0
O59 O 0.82816 0.7935 0.07418 0.0
O60 O 0.77783 0.74678 0.97488 0.0
O61 O 0.82418 0.79519 0.96099 0.0
O62 O 0.81008 0.77261 0.11693 0.0
O63 O 0.77192 0.80621 0.92619 0.0
O64 O 0.74908 0.77628 0.06785 0.0
O65 O 0.79533 0.82467 0.08489 0.0
Sc66 Sc 0.73238 0.27097 0.5805 0.0
Sc67 Sc 0.69895 0.30193 0.51669 0.0
Sc68 Sc 0.72928 0.26986 0.44645 0.0
O69 O 0.7202 0.28091 0.51454 0.0
C70 C 0.76981 0.27354 0.51036 0.0
C71 C 0.72866 0.31705 0.60563 0.0
C72 C 0.72424 0.3155 0.424 0.0
C73 C 0.68709 0.27502 0.60796 0.0
C74 C 0.72839 0.23132 0.51287 0.0
C75 C 0.68292 0.27339 0.42613 0.0
O76 O 0.76186 0.27282 0.55338 0.0
O77 O 0.71485 0.31968 0.57302 0.0
O78 O 0.73126 0.29854 0.41425 0.0
O79 O 0.70421 0.26796 0.61504 0.0
O80 O 0.72834 0.23994 0.47069 0.0
O81 O 0.68057 0.28668 0.46036 0.0
O82 O 0.72965 0.24058 0.55554 0.0
O83 O 0.68305 0.28736 0.57393 0.0
O84 O 0.69958 0.2658 0.41702 0.0
O85 O 0.73649 0.30034 0.61259 0.0
O86 O 0.75993 0.27272 0.46858 0.0
O87 O 0.71252 0.31889 0.45988 0.0
H88 H 0.24583 0.54913 0.9904 0.0
H89 H 0.21159 0.50503 0.06184 0.0
H90 H 0.20771 0.51098 0.89993 0.0
C91 C 0.23594 0.53664 0.98774 0.0
C92 C 0.2282 0.53062 0.93984 0.0
C93 C 0.23004 0.52771 0.03229 0.0
C94 C 0.21645 0.51211 0.02811 0.0
C95 C 0.20848 0.50612 0.98029 0.0
C96 C 0.21415 0.51555 0.93654 0.0
N97 N 0.1936 0.49164 0.97597 0.0
C98 C 0.19719 0.47217 0.98732 0.0
H99 H 0.94569 0.73789 0.50623 0.0
H100 H 0.00452 0.73798 0.45058 0.0
H101 H 0.99502 0.74171 0.61144 0.0
C102 C 0.96145 0.73779 0.51355 0.0
C103 C 0.96875 0.73949 0.56379 0.0
C104 C 0.97416 0.73723 0.47244 0.0
C105 C 0.99462 0.73815 0.48204 0.0
C106 C 0.00209 0.73963 0.53254 0.0
C107 C 0.98911 0.74044 0.57279 0.0
N108 N 0.02246 0.74104 0.54501 0.0
C109 C 0.03769 0.7367 0.5126 0.0
H110 H 0.76796 0.44024 0.00597 0.0
H111 H 0.75837 0.49757 0.94505 0.0
H112 H 0.7465 0.48728 0.10139 0.0
C113 C 0.76404 0.45558 0.01136 0.0
C114 C 0.75768 0.4623 0.05893 0.0
C115 C 0.76423 0.46808 0.96988 0.0
C116 C 0.75875 0.48788 0.97697 0.0
C117 C 0.75271 0.49482 0.02492 0.0
C118 C 0.75199 0.48197 0.06527 0.0
N119 N 0.74546 0.51412 0.03272 0.0
C120 C 0.75431 0.53076 0.01459 0.0
H121 H 0.05263 0.25842 0.49515 0.0
H122 H 0.01217 0.29564 0.57564 0.0
H123 H 0.01464 0.29758 0.41296 0.0
C124 C 0.04071 0.269 0.49475 0.0
C125 C 0.03428 0.27675 0.44838 0.0
C126 C 0.03301 0.27578 0.54092 0.0
C127 C 0.01822 0.29015 0.54033 0.0
C128 C 0.01145 0.29777 0.49408 0.0
C129 C 0.01969 0.29131 0.44838 0.0
N130 N 0.99696 0.3126 0.49349 0.0
C131 C 0.97728 0.30791 0.49784 0.0
H132 H 0.73826 0.94541 0.52906 0.0
H133 H 0.70446 0.98811 0.44749 0.0
H134 H 0.70254 0.98731 0.61027 0.0
C135 C 0.72877 0.9582 0.52954 0.0
C136 C 0.72167 0.96558 0.57592 0.0
C137 C 0.7228 0.96624 0.48315 0.0
C138 C 0.7095 0.98198 0.48308 0.0
C139 C 0.70234 0.98956 0.52908 0.0
C140 C 0.70833 0.98133 0.57518 0.0
N141 N 0.68804 0.00458 0.52909 0.0
C142 C 0.6931 0.02401 0.52201 0.0
H143 H 0.55941 0.23387 0.0145 0.0
H144 H 0.50437 0.24989 0.08062 0.0
H145 H 0.51156 0.25432 0.92004 0.0
C146 C 0.54415 0.2382 0.01 0.0
C147 C 0.53676 0.24302 0.96164 0.0
C148 C 0.53269 0.24063 0.05329 0.0
C149 C 0.51328 0.24747 0.04758 0.0
C150 C 0.50574 0.25228 -0.00067 0.0
C151 C 0.5175 0.25019 0.95684 0.0
N152 N 0.48718 0.26135 0.99348 0.0
C153 C 0.46981 0.2523 0.00607 0.0
H154 H 0.26411 0.05346 0.50474 0.0
H155 H 0.24969 0.9984 0.57079 0.0
H156 H 0.24579 0.00421 0.40896 0.0
C157 C 0.26034 0.03803 0.50026 0.0
C158 C 0.256 0.03009 0.45142 0.0
C159 C 0.25806 0.02684 0.5437 0.0
C160 C 0.25198 0.00713 0.53773 0.0
C161 C 0.24775 0.99901 0.48894 0.0
C162 C 0.24957 0.01054 0.44624 0.0
N163 N 0.23945 0.98006 0.48236 0.0
C164 C 0.24927 0.96316 0.49656 0.0
H165 H 0.44402 0.76984 0.03243 0.0
H166 H 0.48829 0.79624 0.94338 0.0
H167 H 0.49557 0.7954 0.1062 0.0
C168 C 0.45801 0.77734 0.03011 0.0
C169 C 0.46886 0.78204 0.07492 0.0
C170 C 0.4649 0.78221 0.98247 0.0
C171 C 0.48305 0.79181 0.97979 0.0
C172 C 0.49422 0.79634 0.02423 0.0
C173 C 0.48723 0.79126 0.07182 0.0
N174 N 0.51117 0.80816 0.02104 0.0
C175 C 0.53001 0.80084 0.02867 0.0
H176 H 0.1782 0.24748 0.16788 0.0
H177 H 0.15099 0.25699 0.22173 0.0
H178 H 0.11265 0.21677 0.13691 0.0
H179 H 0.1397 0.20724 0.08232 0.0
H180 H 0.09566 0.25442 0.15915 0.0
H181 H 0.12955 0.22054 0.32978 0.0
H182 H 0.14515 0.23766 0.29957 0.0
H183 H 0.13787 0.21526 0.26635 0.0
C184 C 0.164 0.24066 0.16046 0.0
C185 C 0.16123 0.22643 0.121 0.0
C186 C 0.14847 0.24609 0.19139 0.0
C187 C 0.12993 0.23736 0.18369 0.0
C188 C 0.1269 0.22361 0.14353 0.0
H189 H 0.04218 0.23935 0.41536 0.0
H190 H 0.0631 0.2292 0.34532 0.0
C191 C 0.14242 0.21815 0.1125 0.0
C192 C 0.11386 0.24219 0.21854 0.0
H193 H 0.10138 0.24031 0.34274 0.0
C194 C 0.09681 0.25127 0.19927 0.0
C195 C 0.11533 0.23776 0.27061 0.0
C196 C 0.13287 0.22711 0.29286 0.0
C197 C 0.08135 0.25651 0.23117 0.0
C198 C 0.08317 0.25274 0.28362 0.0
C199 C 0.10005 0.24327 0.30253 0.0
C200 C 0.06803 0.25873 0.32026 0.0
C201 C 0.06317 0.26586 0.20843 0.0
C202 C 0.06348 0.27866 0.3286 0.0
C203 C 0.05146 0.28448 0.3685 0.0
C204 C 0.04402 0.27046 0.40102 0.0
C205 C 0.04786 0.25046 0.39108 0.0
C206 C 0.05976 0.24465 0.3511 0.0
H207 H 0.0617 0.26267 0.16685 0.0
H208 H 0.04973 0.26065 0.22681 0.0
H209 H 0.06413 0.28204 0.21445 0.0
H210 H 0.07003 0.28981 0.30596 0.0
H211 H 0.04894 0.30001 0.37572 0.0
H212 H 0.25554 0.673 0.65376 0.0
H213 H 0.24576 0.64622 0.70718 0.0
H214 H 0.28865 0.60826 0.63777 0.0
H215 H 0.29854 0.63491 0.58364 0.0
H216 H 0.25053 0.59044 0.65192 0.0
H217 H 0.28167 0.6278 0.82675 0.0
H218 H 0.2648 0.64243 0.79023 0.0
H219 H 0.28776 0.63503 0.76372 0.0
C220 C 0.26288 0.65896 0.64953 0.0
C221 C 0.278 0.65621 0.6147 0.0
C222 C 0.25727 0.64368 0.68021 0.0
C223 C 0.26668 0.6254 0.67682 0.0
C224 C 0.28128 0.62233 0.64099 0.0
H225 H 0.26534 0.54012 0.91371 0.0
H226 H 0.27505 0.56109 0.84497 0.0
C227 C 0.28694 0.63761 0.61024 0.0
C228 C 0.26178 0.60977 0.71214 0.0
H229 H 0.26269 0.59921 0.83795 0.0
C230 C 0.25323 0.59227 0.69259 0.0
C231 C 0.26561 0.61215 0.76502 0.0
C232 C 0.27563 0.63028 0.7878 0.0
C233 C 0.24798 0.57719 0.72489 0.0
C234 C 0.25122 0.57987 0.77795 0.0
C235 C 0.26013 0.59723 0.79724 0.0
C236 C 0.24547 0.56502 0.81468 0.0
C237 C 0.23921 0.55848 0.70201 0.0
C238 C 0.22564 0.55998 0.81984 0.0
C239 C 0.22005 0.54796 0.8591 0.0
C240 C 0.2342 0.541 0.8941 0.0
C241 C 0.25411 0.54545 0.88757 0.0
C242 C 0.25968 0.55737 0.84828 0.0
H243 H 0.24249 0.55662 0.66105 0.0
H244 H 0.24481 0.54546 0.72232 0.0
H245 H 0.22301 0.55895 0.70539 0.0
H246 H 0.21439 0.56605 0.79496 0.0
H247 H 0.20459 0.54495 0.86361 0.0
H248 H 0.83009 0.7516 0.17775 0.0
H249 H 0.8595 0.74273 0.22764 0.0
H250 H 0.89297 0.78634 0.15223 0.0
H251 H 0.86374 0.79541 0.10226 0.0
H252 H 0.89887 0.73049 0.19256 0.0
H253 H 0.89906 0.80044 0.30777 0.0
H254 H 0.87763 0.7918 0.27176 0.0
H255 H 0.89774 0.80253 0.23982 0.0
C256 C 0.84369 0.75929 0.17158 0.0
C257 C 0.84444 0.77435 0.1362 0.0
C258 C 0.8605 0.75414 0.20001 0.0
C259 C 0.87832 0.76401 0.19388 0.0
C260 C 0.87928 0.7787 0.15786 0.0
H261 H 0.98236 0.7621 0.39621 0.0
H262 H 0.96219 0.76727 0.31898 0.0
C263 C 0.86253 0.78382 0.12929 0.0
C264 C 0.89571 0.75942 0.22655 0.0
H265 H 0.92428 0.77794 0.32532 0.0
C266 C 0.90454 0.74088 0.22141 0.0
C267 C 0.90315 0.77308 0.26379 0.0
C268 C 0.89389 0.79305 0.27162 0.0
C269 C 0.92052 0.73552 0.2531 0.0
C270 C 0.92752 0.74894 0.29159 0.0
C271 C 0.91901 0.7677 0.29562 0.0
C272 C 0.94216 0.74331 0.33153 0.0
C273 C 0.9297 0.71556 0.24503 0.0
C274 C 0.93802 0.72774 0.36327 0.0
C275 C 0.94958 0.7247 0.40697 0.0
C276 C 0.9654 0.7373 0.42018 0.0
C277 C 0.97039 0.75205 0.38666 0.0
C278 C 0.95879 0.75509 0.34278 0.0
H279 H 0.92779 0.71027 0.20484 0.0
H280 H 0.94563 0.71577 0.25541 0.0
H281 H 0.92234 0.70485 0.26913 0.0
H282 H 0.92508 0.71871 0.35616 0.0
H283 H 0.94542 0.71322 0.43217 0.0
H284 H 0.76192 0.31982 0.66685 0.0
H285 H 0.77319 0.34811 0.71929 0.0
H286 H 0.72288 0.38138 0.66807 0.0
H287 H 0.71175 0.35342 0.61458 0.0
H288 H 0.75671 0.40353 0.67173 0.0
H289 H 0.74833 0.36432 0.85183 0.0
H290 H 0.76446 0.35231 0.80807 0.0
H291 H 0.73875 0.35466 0.79158 0.0
C292 C 0.75324 0.33315 0.66672 0.0
C293 C 0.7358 0.33424 0.63689 0.0
C294 C 0.75969 0.3493 0.6968 0.0
C295 C 0.74869 0.36674 0.69827 0.0
C296 C 0.73157 0.36805 0.66761 0.0
H297 H 0.74061 0.47082 0.88508 0.0
H298 H 0.74018 0.44813 0.81122 0.0
C299 C 0.7252 0.35199 0.63718 0.0
C300 C 0.75456 0.38342 0.733 0.0
H301 H 0.76167 0.39621 0.85848 0.0
C302 C 0.75789 0.40193 0.71257 0.0
C303 C 0.75598 0.38134 0.78629 0.0
C304 C 0.75152 0.36215 0.8109 0.0
C305 C 0.7626 0.41841 0.74409 0.0
C306 C 0.7639 0.41629 0.79728 0.0
C307 C 0.76088 0.39774 0.81757 0.0
C308 C 0.76699 0.43317 0.83352 0.0
C309 C 0.76615 0.43792 0.72036 0.0
C310 C 0.78259 0.43279 0.86949 0.0
C311 C 0.78286 0.44575 0.91164 0.0
C312 C 0.76744 0.45919 0.9187 0.0
C313 C 0.75281 0.46079 0.88027 0.0
C314 C 0.75254 0.44778 0.83806 0.0
H315 H 0.76987 0.43609 0.67967 0.0
H316 H 0.75261 0.44694 0.72257 0.0
H317 H 0.77822 0.44609 0.74093 0.0
H318 H 0.79386 0.42161 0.86672 0.0
H319 H 0.79433 0.44427 0.94068 0.0
H320 H 0.67955 0.24069 0.36318 0.0
H321 H 0.65133 0.23073 0.30885 0.0
H322 H 0.61895 0.28121 0.363 0.0
H323 H 0.64685 0.291 0.41852 0.0
H324 H 0.59583 0.24825 0.35423 0.0
H325 H 0.63731 0.25775 0.17818 0.0
H326 H 0.64845 0.24067 0.22084 0.0
H327 H 0.64662 0.26619 0.23983 0.0
C328 C 0.66641 0.24966 0.36366 0.0
C329 C 0.66556 0.26679 0.39479 0.0
C330 C 0.65031 0.24397 0.33246 0.0
C331 C 0.63318 0.25545 0.33109 0.0
C332 C 0.63205 0.27217 0.3633 0.0
H333 H 0.53126 0.2661 0.13529 0.0
H334 H 0.55366 0.26693 0.20969 0.0
C335 C 0.64805 0.27778 0.39492 0.0
C336 C 0.61673 0.2505 0.29477 0.0
H337 H 0.60531 0.24468 0.16813 0.0
C338 C 0.59789 0.24742 0.31353 0.0
C339 C 0.61942 0.24956 0.24164 0.0
C340 C 0.63898 0.2539 0.2188 0.0
C341 C 0.5817 0.24332 0.28051 0.0
C342 C 0.58447 0.24235 0.22756 0.0
C343 C 0.60331 0.24522 0.20888 0.0
C344 C 0.56801 0.2395 0.19004 0.0
C345 C 0.56179 0.24 0.30234 0.0
C346 C 0.56825 0.2235 0.15526 0.0
C347 C 0.55543 0.22295 0.11286 0.0
C348 C 0.54229 0.23853 0.10421 0.0
C349 C 0.54104 0.25378 0.14119 0.0
C350 C 0.55386 0.25429 0.18373 0.0
H351 H 0.56291 0.23667 0.34338 0.0
H352 H 0.5528 0.25348 0.29819 0.0
H353 H 0.55397 0.22775 0.28157 0.0
H354 H 0.5791 0.21197 0.15945 0.0
H355 H 0.5566 0.21093 0.08521 0.0
H356 H 0.20549 0.13969 0.90636 0.0
H357 H 0.21585 0.11192 0.85296 0.0
H358 H 0.26134 0.14756 0.79188 0.0
H359 H 0.25082 0.17562 0.84437 0.0
H360 H 0.24005 0.12847 0.71833 0.0
H361 H 0.26249 0.07557 0.86486 0.0
H362 H 0.23797 0.08459 0.87254 0.0
H363 H 0.25844 0.10129 0.8797 0.0
C364 C 0.21782 0.14163 0.88194 0.0
C365 C 0.22728 0.15996 0.87967 0.0
C366 C 0.22384 0.12564 0.85173 0.0
C367 C 0.23962 0.12752 0.81913 0.0
C368 C 0.24922 0.14573 0.81706 0.0
H369 H 0.28683 0.05182 0.5807 0.0
H370 H 0.28448 0.07496 0.6533 0.0
C371 C 0.24314 0.16178 0.84703 0.0
C372 C 0.24509 0.111 0.78428 0.0
H373 H 0.25812 0.06247 0.77967 0.0
C374 C 0.24424 0.11412 0.73183 0.0
C375 C 0.25048 0.09224 0.80193 0.0
C376 C 0.2526 0.08824 0.85786 0.0
C377 C 0.24812 0.09891 0.6965 0.0
C378 C 0.25319 0.0801 0.71409 0.0
C379 C 0.25424 0.07694 0.76646 0.0
C380 C 0.25679 0.06357 0.67784 0.0
C381 C 0.24628 0.10291 0.64046 0.0
C382 C 0.24253 0.04887 0.66948 0.0
C383 C 0.24382 0.03562 0.62803 0.0
C384 C 0.25941 0.03695 0.59442 0.0
C385 C 0.27455 0.0506 0.60569 0.0
C386 C 0.27324 0.06381 0.64707 0.0
H387 H 0.23898 0.11719 0.63318 0.0
H388 H 0.26115 0.10328 0.62433 0.0
H389 H 0.23779 0.09104 0.61998 0.0
H390 H 0.22972 0.04849 0.69291 0.0
H391 H 0.23186 0.02539 0.62011 0.0
H392 H 0.36892 0.70206 0.42583 0.0
H393 H 0.39778 0.71435 0.38335 0.0
H394 H 0.36144 0.75646 0.30562 0.0
H395 H 0.33261 0.74449 0.34793 0.0
H396 H 0.40374 0.71526 0.27888 0.0
H397 H 0.4067 0.79035 0.36506 0.0
H398 H 0.39275 0.77076 0.3916 0.0
H399 H 0.38278 0.78416 0.3389 0.0
C400 C 0.36706 0.714 0.39987 0.0
C401 C 0.34839 0.72229 0.39043 0.0
C402 C 0.38359 0.72101 0.37573 0.0
C403 C 0.38181 0.73656 0.34214 0.0
C404 C 0.36322 0.74476 0.33237 0.0
H405 H 0.43304 0.79359 0.10577 0.0
H406 H 0.41563 0.78272 0.17961 0.0
C407 C 0.34671 0.73776 0.35631 0.0
C408 C 0.39905 0.74361 0.3148 0.0
H409 H 0.42349 0.78545 0.2863 0.0
C410 C 0.40841 0.7305 0.28124 0.0
C411 C 0.40517 0.76347 0.31831 0.0
C412 C 0.39646 0.77795 0.35582 0.0
C413 C 0.42271 0.73705 0.24827 0.0
C414 C 0.42796 0.75718 0.24963 0.0
C415 C 0.41944 0.77003 0.28535 0.0
C416 C 0.4399 0.76561 0.20947 0.0
C417 C 0.4311 0.72268 0.20992 0.0
C418 C 0.4596 0.76018 0.20277 0.0
C419 C 0.46963 0.76644 0.16036 0.0
C420 C 0.46 0.7781 0.12425 0.0
C421 C 0.44071 0.78443 0.13284 0.0
C422 C 0.43079 0.77828 0.17506 0.0
H423 H 0.42351 0.70823 0.20943 0.0
H424 H 0.42998 0.72866 0.17117 0.0
H425 H 0.44689 0.72025 0.21935 0.0
H426 H 0.46697 0.75061 0.22936 0.0
H427 H 0.4845 0.76139 0.15446 0.0
H428 H 0.76526 0.82225 0.83894 0.0
H429 H 0.75478 0.84987 0.78779 0.0
H430 H 0.76386 0.88935 0.91776 0.0
H431 H 0.77544 0.86183 0.96836 0.0
H432 H 0.72564 0.87394 0.7931 0.0
H433 H 0.79417 0.91775 0.81675 0.0
H434 H 0.79242 0.89296 0.83823 0.0
H435 H 0.78284 0.91311 0.87581 0.0
C436 C 0.76506 0.83683 0.85657 0.0
C437 C 0.77133 0.83993 0.90747 0.0
C438 C 0.75905 0.85262 0.82733 0.0
C439 C 0.75887 0.8718 0.84856 0.0
C440 C 0.76447 0.87483 0.89999 0.0
H441 H 0.6989 0.95901 0.65858 0.0
H442 H 0.70736 0.93939 0.73218 0.0
C443 C 0.77095 0.85907 0.92898 0.0
C444 C 0.75268 0.88841 0.81644 0.0
H445 H 0.76772 0.93238 0.77194 0.0
C446 C 0.73484 0.88674 0.78852 0.0
C447 C 0.76475 0.90507 0.81024 0.0
C448 C 0.78469 0.90729 0.83644 0.0
C449 C 0.72903 0.90081 0.75327 0.0
C450 C 0.74097 0.9176 0.7475 0.0
C451 C 0.75849 0.91962 0.77673 0.0
C452 C 0.73663 0.93213 0.70769 0.0
C453 C 0.71074 0.89688 0.72068 0.0
C454 C 0.75078 0.93589 0.67154 0.0
C455 C 0.74627 0.94773 0.6305 0.0
C456 C 0.72736 0.9558 0.62405 0.0
C457 C 0.7136 0.95303 0.66206 0.0
C458 C 0.71829 0.94151 0.70383 0.0
H459 H 0.70636 0.88116 0.72057 0.0
H460 H 0.6984 0.90566 0.73596 0.0
H461 H 0.71291 0.90103 0.68078 0.0
H462 H 0.76514 0.92907 0.67397 0.0
H463 H 0.75748 0.95005 0.60297 0.0
H464 H 0.8574 0.79792 0.92154 0.0
H465 H 0.88309 0.78869 0.86254 0.0
H466 H 0.84551 0.74354 0.79463 0.0
H467 H 0.81959 0.7528 0.8528 0.0
H468 H 0.9022 0.75265 0.84633 0.0
H469 H 0.86086 0.77552 0.67294 0.0
H470 H 0.85351 0.78258 0.7362 0.0
H471 H 0.84802 0.75838 0.71048 0.0
C472 C 0.85454 0.78603 0.89406 0.0
C473 C 0.83631 0.77624 0.89165 0.0
C474 C 0.86928 0.78076 0.86045 0.0
C475 C 0.86607 0.76565 0.82376 0.0
C476 C 0.84812 0.75552 0.822 0.0
H477 H 0.93518 0.71839 0.57686 0.0
H478 H 0.91094 0.72343 0.64281 0.0
C479 C 0.83334 0.76081 0.85544 0.0
C480 C 0.88147 0.7606 0.78709 0.0
H481 H 0.89094 0.75893 0.66049 0.0
C482 C 0.89979 0.75404 0.80569 0.0
C483 C 0.87824 0.76247 0.73414 0.0
C484 C 0.85917 0.77028 0.71214 0.0
C485 C 0.91491 0.74905 0.77257 0.0
C486 C 0.91166 0.75093 0.71967 0.0
C487 C 0.89332 0.75741 0.70111 0.0
C488 C 0.92717 0.74677 0.68269 0.0
C489 C 0.93413 0.74154 0.79435 0.0
C490 C 0.94434 0.75818 0.68349 0.0
C491 C 0.95816 0.75541 0.64575 0.0
C492 C 0.95497 0.74125 0.60636 0.0
C493 C 0.93795 0.72955 0.60638 0.0
C494 C 0.92414 0.73235 0.64411 0.0
H495 H 0.93256 0.73618 0.83346 0.0
H496 H 0.94 0.72943 0.77 0.0
H497 H 0.94505 0.75366 0.7961 0.0
H498 H 0.94674 0.76968 0.71234 0.0
H499 H 0.97096 0.76487 0.64635 0.0
H500 H 0.74716 0.31439 0.34 0.0
H501 H 0.75468 0.34149 0.28502 0.0
H502 H 0.7214 0.3811 0.38007 0.0
H503 H 0.71355 0.35412 0.43495 0.0
H504 H 0.71119 0.38316 0.27874 0.0
H505 H 0.79205 0.38817 0.30755 0.0
H506 H 0.78357 0.36383 0.29037 0.0
H507 H 0.7766 0.37511 0.3498 0.0
C508 C 0.74157 0.32889 0.34955 0.0
C509 C 0.72968 0.33203 0.39186 0.0
C510 C 0.74602 0.34439 0.31827 0.0
C511 C 0.73882 0.36334 0.32894 0.0
C512 C 0.72718 0.36659 0.3714 0.0
H513 H 0.76833 0.46775 0.15958 0.0
H514 H 0.76374 0.44478 0.22843 0.0
C515 C 0.72269 0.35112 0.40265 0.0
C516 C 0.74222 0.37943 0.29374 0.0
H517 H 0.77814 0.40495 0.23638 0.0
C518 C 0.72582 0.38806 0.26986 0.0
C519 C 0.76131 0.38596 0.28275 0.0
C520 C 0.7794 0.37794 0.30932 0.0
C521 C 0.72802 0.40257 0.23384 0.0
C522 C 0.74712 0.40835 0.22091 0.0
C523 C 0.76352 0.40029 0.24612 0.0
C524 C 0.75028 0.42212 0.17966 0.0
C525 C 0.70987 0.41151 0.20969 0.0
C526 C 0.74447 0.4168 0.12963 0.0
C527 C 0.74701 0.42981 0.0905 0.0
C528 C 0.75554 0.44838 0.10064 0.0
C529 C 0.76158 0.4536 0.15078 0.0
C530 C 0.75907 0.4405 0.18999 0.0
H531 H 0.69674 0.40944 0.23303 0.0
H532 H 0.71196 0.42747 0.20413 0.0
H533 H 0.70692 0.40429 0.17189 0.0
H534 H 0.73787 0.40257 0.12089 0.0
H535 H 0.74197 0.42546 0.0524 0.0
H536 H 0.14003 0.20514 0.90755 0.0
H537 H 0.11262 0.21438 0.85124 0.0
H538 H 0.15028 0.25455 0.77619 0.0
H539 H 0.17789 0.24529 0.83179 0.0
H540 H 0.09521 0.25136 0.83381 0.0
H541 H 0.12787 0.21897 0.65971 0.0
H542 H 0.13704 0.21361 0.72281 0.0
H543 H 0.14358 0.23624 0.69409 0.0
C544 C 0.14255 0.21594 0.87909 0.0
C545 C 0.16128 0.22431 0.87393 0.0
C546 C 0.12682 0.22124 0.84706 0.0
C547 C 0.1295 0.23493 0.80916 0.0
C548 C 0.148 0.24368 0.80465 0.0
H549 H 0.04655 0.29823 0.6221 0.0
H550 H 0.06769 0.28747 0.69275 0.0
C551 C 0.16376 0.23839 0.83659 0.0
C552 C 0.11306 0.2398 0.77369 0.0
H553 H 0.09946 0.23866 0.64797 0.0
C554 C 0.09605 0.24851 0.79318 0.0
C555 C 0.11409 0.23576 0.72086 0.0
C556 C 0.13154 0.22546 0.69805 0.0
C557 C 0.08021 0.25376 0.76091 0.0
C558 C 0.08159 0.2504 0.70787 0.0
C559 C 0.09844 0.24129 0.68865 0.0
C560 C 0.06609 0.25657 0.67096 0.0
C561 C 0.06211 0.26266 0.7839 0.0
C562 C 0.05791 0.24277 0.63573 0.0
C563 C 0.04598 0.24891 0.59522 0.0
C564 C 0.042 0.26897 0.5892 0.0
C565 C 0.04916 0.28266 0.62625 0.0
C566 C 0.06123 0.27652 0.66665 0.0
H567 H 0.06097 0.25895 0.82452 0.0
H568 H 0.06291 0.2789 0.78187 0.0
H569 H 0.04857 0.25758 0.7629 0.0
H570 H 0.06147 0.22732 0.63834 0.0
H571 H 0.04056 0.23806 0.56729 0.0
H572 H 0.27567 0.67274 0.30466 0.0
H573 H 0.26494 0.64448 0.25145 0.0
H574 H 0.27607 0.6062 0.37676 0.0
H575 H 0.28767 0.63426 0.42936 0.0
H576 H 0.28887 0.5896 0.29482 0.0
H577 H 0.21394 0.61625 0.25065 0.0
H578 H 0.23182 0.6336 0.23138 0.0
H579 H 0.22984 0.62836 0.29778 0.0
C580 C 0.27577 0.65831 0.32088 0.0
C581 C 0.28248 0.65575 0.37123 0.0
C582 C 0.26947 0.64216 0.29057 0.0
C583 C 0.2692 0.62322 0.31041 0.0
C584 C 0.27602 0.62065 0.36061 0.0
H585 H 0.20856 0.53396 0.11792 0.0
H586 H 0.21818 0.55351 0.19403 0.0
C587 C 0.28268 0.63672 0.39063 0.0
C588 C 0.26249 0.60603 0.27825 0.0
H589 H 0.2259 0.59037 0.19543 0.0
C590 C 0.27496 0.58967 0.27363 0.0
C591 C 0.2441 0.60575 0.25166 0.0
C592 C 0.22908 0.62184 0.2586 0.0
C593 C 0.27 0.57353 0.24129 0.0
C594 C 0.25242 0.57407 0.21126 0.0
C595 C 0.23951 0.58998 0.21782 0.0
C596 C 0.24775 0.55919 0.1701 0.0
C597 C 0.28368 0.5561 0.23995 0.0
C598 C 0.26133 0.55525 0.13203 0.0
C599 C 0.25604 0.54367 0.08919 0.0
C600 C 0.23683 0.53621 0.08256 0.0
C601 C 0.22353 0.5393 0.1219 0.0
C602 C 0.22895 0.55067 0.16525 0.0
H603 H 0.29139 0.55441 0.27736 0.0
H604 H 0.27572 0.54224 0.22973 0.0
H605 H 0.29507 0.55848 0.21148 0.0
H606 H 0.27576 0.56196 0.13401 0.0
H607 H 0.26676 0.54134 0.06002 0.0
H608 H 0.32212 0.73889 0.68179 0.0
H609 H 0.34804 0.75059 0.74129 0.0
H610 H 0.39134 0.71951 0.65378 0.0
H611 H 0.36555 0.70774 0.59371 0.0
H612 H 0.37468 0.72564 0.79776 0.0
H613 H 0.41344 0.77661 0.67296 0.0
H614 H 0.38853 0.76844 0.65944 0.0
H615 H 0.40872 0.75214 0.64782 0.0
C616 C 0.33714 0.73458 0.67491 0.0
C617 C 0.34171 0.72234 0.63288 0.0
C618 C 0.35193 0.7413 0.70898 0.0
C619 C 0.37158 0.73609 0.70152 0.0
C620 C 0.37627 0.72394 0.65969 0.0
H621 H 0.47603 0.7642 0.89337 0.0
H622 H 0.45438 0.75285 0.82195 0.0
C623 C 0.36148 0.71712 0.62563 0.0
C624 C 0.38697 0.74271 0.739 0.0
H625 H 0.42688 0.77288 0.75587 0.0
C626 C 0.38612 0.73593 0.78862 0.0
C627 C 0.40197 0.75597 0.72664 0.0
C628 C 0.40327 0.76387 0.67395 0.0
C629 C 0.39977 0.74222 0.82654 0.0
C630 C 0.41437 0.756 0.81473 0.0
C631 C 0.41559 0.76239 0.76475 0.0
C632 C 0.42785 0.76451 0.85466 0.0
C633 C 0.39846 0.734 0.87895 0.0
C634 C 0.42017 0.77544 0.89544 0.0
C635 C 0.43241 0.78184 0.93596 0.0
C636 C 0.45261 0.77758 0.93628 0.0
C637 C 0.46051 0.76766 0.89399 0.0
C638 C 0.44818 0.76114 0.85338 0.0
H639 H 0.39031 0.71985 0.87806 0.0
H640 H 0.4133 0.73164 0.89629 0.0
H641 H 0.39049 0.74458 0.90373 0.0
H642 H 0.40459 0.77859 0.89652 0.0
H643 H 0.426 0.7898 0.96765 0.0
H644 H 0.79598 0.85909 0.12207 0.0
H645 H 0.78557 0.88596 0.17858 0.0
H646 H 0.74566 0.8469 0.24992 0.0
H647 H 0.75615 0.81978 0.19411 0.0
H648 H 0.74837 0.90237 0.19298 0.0
H649 H 0.77869 0.86995 0.36965 0.0
H650 H 0.78502 0.86087 0.30715 0.0
H651 H 0.76203 0.85411 0.33366 0.0
C652 C 0.78502 0.85613 0.14984 0.0
C653 C 0.77705 0.83716 0.15381 0.0
C654 C 0.77904 0.87156 0.18198 0.0
C655 C 0.76504 0.86835 0.21881 0.0
C656 C 0.75676 0.84958 0.22233 0.0
H657 H 0.7003 0.95266 0.40203 0.0
H658 H 0.71092 0.93078 0.33246 0.0
C659 C 0.76276 0.83411 0.19031 0.0
C660 C 0.7593 0.88462 0.25397 0.0
H661 H 0.7589 0.89834 0.37956 0.0
C662 C 0.75071 0.90156 0.23379 0.0
C663 C 0.76265 0.88361 0.30707 0.0
C664 C 0.77277 0.86625 0.33076 0.0
C665 C 0.74507 0.91742 0.26552 0.0
C666 C 0.74788 0.91613 0.31874 0.0
C667 C 0.7567 0.89928 0.33873 0.0
C668 C 0.74177 0.93191 0.35498 0.0
C669 C 0.73643 0.9355 0.24179 0.0
C670 C 0.75558 0.94006 0.39018 0.0
C671 C 0.74952 0.95238 0.43 0.0
C672 C 0.72953 0.95681 0.43533 0.0
C673 C 0.71583 0.94967 0.39832 0.0
C674 C 0.72189 0.93718 0.35859 0.0
H675 H 0.74028 0.93642 0.20121 0.0
H676 H 0.72018 0.9349 0.24358 0.0
H677 H 0.7416 0.94907 0.26252 0.0
H678 H 0.77098 0.9362 0.38808 0.0
H679 H 0.76036 0.95776 0.45802 0.0
H680 H 0.65092 0.29184 0.61826 0.0
H681 H 0.62494 0.28223 0.67433 0.0
H682 H 0.6606 0.23417 0.727 0.0
H683 H 0.68697 0.24398 0.67193 0.0
H684 H 0.60383 0.24838 0.67937 0.0
H685 H 0.64722 0.26221 0.85903 0.0
H686 H 0.65535 0.2702 0.79844 0.0
H687 H 0.65825 0.24497 0.81556 0.0
C688 C 0.65329 0.27922 0.64175 0.0
C689 C 0.67113 0.2688 0.64098 0.0
C690 C 0.63839 0.27373 0.67371 0.0
C691 C 0.64096 0.25769 0.70541 0.0
C692 C 0.6585 0.24689 0.70374 0.0
H693 H 0.56392 0.21479 0.9374 0.0
H694 H 0.58847 0.21594 0.87143 0.0
C695 C 0.67353 0.25248 0.67211 0.0
C696 C 0.6253 0.25255 0.74056 0.0
H697 H 0.6154 0.2491 0.86633 0.0
C698 C 0.60637 0.24846 0.72024 0.0
C699 C 0.62865 0.2527 0.79388 0.0
C700 C 0.64841 0.25792 0.81817 0.0
C701 C 0.59067 0.2447 0.7519 0.0
C702 C 0.59401 0.24511 0.80509 0.0
C703 C 0.61298 0.2487 0.82539 0.0
C704 C 0.57783 0.24319 0.84078 0.0
C705 C 0.5706 0.2404 0.72839 0.0
C706 C 0.56369 0.25807 0.84493 0.0
C707 C 0.54983 0.25762 0.88293 0.0
C708 C 0.54988 0.24225 0.91748 0.0
C709 C 0.56365 0.22696 0.91184 0.0
C710 C 0.57759 0.22752 0.87404 0.0
H711 H 0.57139 0.23608 0.68747 0.0
H712 H 0.56324 0.2285 0.74861 0.0
H713 H 0.56136 0.25379 0.73164 0.0
H714 H 0.56389 0.27048 0.82013 0.0
H715 H 0.5397 0.2698 0.88666 0.0
H716 H 0.25098 0.17921 0.16228 0.0
H717 H 0.26134 0.15246 0.21682 0.0
H718 H 0.21533 0.11561 0.15017 0.0
H719 H 0.20512 0.14202 0.09478 0.0
H720 H 0.23989 0.13537 0.28782 0.0
H721 H 0.26186 0.07889 0.14484 0.0
H722 H 0.25805 0.10428 0.12936 0.0
H723 H 0.23744 0.08787 0.13295 0.0
C724 C 0.24316 0.16536 0.15885 0.0
C725 C 0.2272 0.16279 0.12407 0.0
C726 C 0.24914 0.15008 0.18999 0.0
C727 C 0.23933 0.13193 0.18692 0.0
C728 C 0.22346 0.12929 0.15221 0.0
H729 H 0.22889 0.032 0.37287 0.0
H730 H 0.22731 0.05608 0.30584 0.0
C731 C 0.21753 0.1445 0.12084 0.0
C732 C 0.2447 0.11628 0.22265 0.0
H733 H 0.25657 0.06764 0.22895 0.0
C734 C 0.24382 0.12064 0.27497 0.0
C735 C 0.24981 0.09707 0.20574 0.0
C736 C 0.25205 0.09178 0.15016 0.0
C737 C 0.2472 0.10613 0.31082 0.0
C738 C 0.25176 0.08682 0.29385 0.0
C739 C 0.25304 0.08249 0.24166 0.0
C740 C 0.25428 0.0708 0.33004 0.0
C741 C 0.24521 0.11136 0.36656 0.0
C742 C 0.27033 0.07079 0.36463 0.0
C743 C 0.27137 0.05696 0.40274 0.0
C744 C 0.25635 0.04295 0.40688 0.0
C745 C 0.2408 0.04244 0.37046 0.0
C746 C 0.23981 0.05623 0.33228 0.0
H747 H 0.23843 0.12605 0.37275 0.0
H748 H 0.23616 0.10023 0.38513 0.0
H749 H 0.25998 0.11151 0.38556 0.0
H750 H 0.28174 0.08182 0.363 0.0
H751 H 0.28369 0.05754 0.42974 0.0
H752 H 0.21858 0.28844 0.08494 0.0
H753 H 0.2152 0.32414 0.08538 0.0
H754 H 0.2141 0.32282 0.92151 0.0
H755 H 0.21774 0.28708 0.92047 0.0
H756 H 0.23887 0.35184 0.9655 0.0
H757 H 0.16495 0.35441 0.04915 0.0
H758 H 0.18305 0.3412 0.08551 0.0
H759 H 0.17542 0.33204 0.02328 0.0
C760 C 0.21759 0.29568 0.04888 0.0
C761 C 0.21835 0.2848 0.00262 0.0
C762 C 0.21556 0.31611 0.04928 0.0
C763 C 0.21411 0.32609 0.0035 0.0
C764 C 0.21512 0.31537 0.95728 0.0
H765 H 0.17332 0.44377 0.94956 0.0
H766 H 0.1781 0.40818 0.95532 0.0
C767 C 0.21716 0.29493 0.9568 0.0
C768 C 0.21173 0.34773 0.00374 0.0
H769 H 0.18099 0.38491 0.03976 0.0
C770 C 0.22623 0.3591 0.98174 0.0
C771 C 0.19512 0.35712 0.02454 0.0
C772 C 0.17864 0.34559 0.04657 0.0
C773 C 0.22461 0.37964 0.98013 0.0
C774 C 0.2082 0.38905 0.00183 0.0
C775 C 0.19366 0.37767 0.02366 0.0
C776 C 0.20528 0.41061 -0.00012 0.0
C777 C 0.24022 0.39102 0.95402 0.0
C778 C 0.21882 0.42376 0.02371 0.0
C779 C 0.21609 0.44408 0.02033 0.0
C780 C 0.19973 0.45138 0.99348 0.0
C781 C 0.18602 0.43832 0.97056 0.0
C782 C 0.18874 0.41806 0.97384 0.0
H783 H 0.24925 0.38134 0.92926 0.0
H784 H 0.23353 0.40269 0.93056 0.0
H785 H 0.25017 0.39817 0.98317 0.0
H786 H 0.23148 0.41832 0.04477 0.0
H787 H 0.22679 0.45403 0.03827 0.0
H788 H 0.22089 0.71764 0.39658 0.0
H789 H 0.18509 0.72032 0.38846 0.0
H790 H 0.18088 0.71682 0.55097 0.0
H791 H 0.21657 0.71435 0.55974 0.0
H792 H 0.15434 0.69564 0.41895 0.0
H793 H 0.15286 0.76862 0.51806 0.0
H794 H 0.17519 0.75776 0.49489 0.0
H795 H 0.16543 0.75019 0.55396 0.0
C796 C 0.21237 0.71732 0.43065 0.0
C797 C 0.2217 0.716 0.47892 0.0
C798 C 0.1919 0.71884 0.42586 0.0
C799 C 0.18039 0.71914 0.46917 0.0
C800 C 0.18954 0.71703 0.51713 0.0
H801 H 0.05835 0.70342 0.52082 0.0
H802 H 0.09286 0.69875 0.49975 0.0
C803 C 0.20997 0.71553 0.52202 0.0
C804 C 0.15884 0.72212 0.46463 0.0
H805 H 0.12211 0.75223 0.50546 0.0
C806 C 0.14727 0.7081 0.43742 0.0
C807 C 0.14969 0.73859 0.48782 0.0
C808 C 0.16143 0.75477 0.5149 0.0
C809 C 0.12667 0.70968 0.43473 0.0
C810 C 0.11746 0.72556 0.46052 0.0
C811 C 0.12913 0.73999 0.48588 0.0
C812 C 0.0958 0.72698 0.46489 0.0
C813 C 0.115 0.69433 0.40439 0.0
C814 C 0.08586 0.74433 0.45203 0.0
C815 C 0.06617 0.74702 0.46441 0.0
C816 C 0.0562 0.73239 0.48964 0.0
C817 C 0.06575 0.71471 0.50036 0.0
C818 C 0.08543 0.71202 0.48819 0.0
H819 H 0.1239 0.68741 0.37401 0.0
H820 H 0.11055 0.68258 0.43001 0.0
H821 H 0.10152 0.7007 0.38672 0.0
H822 H 0.0936 0.75613 0.43446 0.0
H823 H 0.05908 0.76091 0.45667 0.0
H824 H 0.77528 0.71425 0.92832 0.0
H825 H 0.77443 0.67845 0.92055 0.0
H826 H 0.78676 0.67461 0.08142 0.0
H827 H 0.78767 0.71053 0.08992 0.0
H828 H 0.80927 0.64767 0.01045 0.0
H829 H 0.72795 0.64616 0.9806 0.0
H830 H 0.74149 0.66245 0.94199 0.0
H831 H 0.74074 0.66711 0.00934 0.0
C832 C 0.77793 0.70587 0.96215 0.0
C833 C 0.78138 0.71535 0.0099 0.0
C834 C 0.77742 0.68539 0.95754 0.0
C835 C 0.78035 0.67397 0.00046 0.0
C836 C 0.78442 0.68325 0.04789 0.0
H837 H 0.77607 0.55306 0.07964 0.0
H838 H 0.78475 0.58762 0.07051 0.0
C839 C 0.78487 0.70377 0.05265 0.0
C840 C 0.77837 0.65236 0.99616 0.0
H841 H 0.74441 0.61585 0.97716 0.0
C842 C 0.79513 0.64065 0.00301 0.0
C843 C 0.75991 0.64334 0.98602 0.0
C844 C 0.74142 0.65533 0.97934 0.0
C845 C 0.7939 0.62005 0.00014 0.0
C846 C 0.77533 0.61099 0.99141 0.0
C847 C 0.75865 0.62278 0.9836 0.0
C848 C 0.77248 0.58944 0.99393 0.0
C849 C 0.81251 0.60821 0.00609 0.0
C850 C 0.7626 0.57893 0.95406 0.0
C851 C 0.75747 0.55921 0.95955 0.0
C852 C 0.7622 0.54984 0.0049 0.0
C853 C 0.77262 0.56004 0.04402 0.0
C854 C 0.77766 0.57973 0.03869 0.0
H855 H 0.82554 0.61672 0.99493 0.0
H856 H 0.81472 0.60448 0.04659 0.0
H857 H 0.81174 0.59433 0.98286 0.0
H858 H 0.75829 0.58618 0.91939 0.0
H859 H 0.74918 0.55156 0.92926 0.0
H860 H 0.79622 0.276 0.59099 0.0
H861 H 0.83169 0.28118 0.58864 0.0
H862 H 0.82808 0.28146 0.42492 0.0
H863 H 0.79257 0.27649 0.42665 0.0
H864 H 0.86072 0.25813 0.54044 0.0
H865 H 0.85646 0.33328 0.46442 0.0
H866 H 0.83563 0.3213 0.49097 0.0
H867 H 0.8429 0.31496 0.4275 0.0
C868 C 0.80292 0.27715 0.55439 0.0
C869 C 0.79146 0.27594 0.50899 0.0
C870 C 0.82321 0.28009 0.55319 0.0
C871 C 0.83244 0.282 0.50668 0.0
C872 C 0.82117 0.2804 0.46127 0.0
H873 H 0.95196 0.30353 0.41826 0.0
H874 H 0.91666 0.29632 0.42106 0.0
C875 C 0.80087 0.27745 0.46237 0.0
C876 C 0.85387 0.28562 0.5057 0.0
H877 H 0.88805 0.31877 0.46996 0.0
C878 C 0.86673 0.27141 0.52523 0.0
C879 C 0.86161 0.30297 0.48587 0.0
C880 C 0.84847 0.31911 0.46639 0.0
C881 C 0.88719 0.27392 0.52451 0.0
C882 C 0.89493 0.29125 0.50452 0.0
C883 C 0.88206 0.30548 0.48514 0.0
C884 C 0.91635 0.29495 0.50309 0.0
C885 C 0.90035 0.25782 0.54409 0.0
C886 C 0.92781 0.29668 0.54828 0.0
C887 C 0.94791 0.30077 0.54663 0.0
C888 C 0.9567 0.30327 0.49983 0.0
C889 C 0.94534 0.30158 0.4547 0.0
C890 C 0.92526 0.29749 0.45631 0.0
H891 H 0.89238 0.24364 0.54608 0.0
H892 H 0.91321 0.25565 0.51956 0.0
H893 H 0.90589 0.262 0.58298 0.0
H894 H 0.92114 0.29515 0.58481 0.0
H895 H 0.95653 0.30215 0.58182 0.0
H896 H 0.72736 0.20594 0.42996 0.0
H897 H 0.72274 0.17036 0.42869 0.0
H898 H 0.71992 0.1718 0.59213 0.0
H899 H 0.72482 0.20737 0.59405 0.0
H900 H 0.74328 0.14137 0.55387 0.0
H901 H 0.67043 0.14315 0.45339 0.0
H902 H 0.68978 0.1551 0.42117 0.0
H903 H 0.68198 0.16491 0.48144 0.0
C904 C 0.7258 0.19874 0.46574 0.0
C905 C 0.72635 0.2096 0.51213 0.0
C906 C 0.72306 0.17838 0.46485 0.0
C907 C 0.72066 0.1685 0.51023 0.0
C908 C 0.72166 0.17918 0.55665 0.0
H909 H 0.67126 0.05405 0.55618 0.0
H910 H 0.67879 0.08921 0.55199 0.0
C911 C 0.72444 0.19953 0.55764 0.0
C912 C 0.71696 0.14704 0.50941 0.0
H913 H 0.68419 0.11179 0.46733 0.0
C914 C 0.73039 0.13487 0.5349 0.0
C915 C 0.70001 0.13866 0.48506 0.0
C916 C 0.68461 0.15111 0.45908 0.0
C917 C 0.72734 0.1145 0.53663 0.0
C918 C 0.71056 0.10609 0.51154 0.0
C919 C 0.69713 0.11827 0.48611 0.0
C920 C 0.70613 0.08482 0.51329 0.0
C921 C 0.74181 0.10225 0.56644 0.0
C922 C 0.7189 0.07072 0.49236 0.0
C923 C 0.7146 0.05067 0.49484 0.0
C924 C 0.69745 0.04457 0.51794 0.0
C925 C 0.68457 0.05858 0.5382 0.0
C926 C 0.68885 0.07858 0.53578 0.0
H927 H 0.75124 0.11142 0.59287 0.0
H928 H 0.73407 0.0912 0.58874 0.0
H929 H 0.7515 0.09427 0.53968 0.0
H930 H 0.73213 0.07524 0.47403 0.0
H931 H 0.72466 0.03997 0.47891 0.0
H932 H 0.28752 0.22992 0.088 0.0
H933 H 0.32337 0.23183 0.08993 0.0
H934 H 0.32372 0.21592 0.93019 0.0
H935 H 0.28784 0.21442 0.92747 0.0
H936 H 0.35235 0.20506 0.06762 0.0
H937 H 0.35399 0.26721 0.93619 0.0
H938 H 0.33167 0.25919 0.96448 0.0
H939 H 0.34111 0.24606 0.91012 0.0
C940 C 0.29519 0.22676 0.05324 0.0
C941 C 0.28475 0.22226 0.00739 0.0
C942 C 0.3157 0.22783 0.05448 0.0
C943 C 0.32618 0.2244 0.01001 0.0
C944 C 0.31588 0.21911 0.96468 0.0
H945 H 0.44869 0.2323 0.93461 0.0
H946 H 0.4139 0.22316 0.9381 0.0
C947 C 0.29537 0.21819 0.96326 0.0
C948 C 0.34782 0.22687 0.01083 0.0
H949 H 0.3846 0.25279 0.95826 0.0
C950 C 0.35942 0.21552 0.04382 0.0
C951 C 0.35699 0.24064 0.98001 0.0
C952 C 0.34531 0.25412 0.94607 0.0
C953 C 0.38 0.21735 0.04607 0.0
C954 C 0.3891 0.23092 0.01475 0.0
C955 C 0.37753 0.24228 0.98191 0.0
C956 C 0.41063 0.23392 0.01557 0.0
C957 C 0.39189 0.20459 0.08128 0.0
C958 C 0.42032 0.24273 0.05826 0.0
C959 C 0.44016 0.24797 0.05622 0.0
C960 C 0.45043 0.24439 0.01154 0.0
C961 C 0.44098 0.23497 0.96957 0.0
C962 C 0.42117 0.22981 0.97151 0.0
H963 H 0.38308 0.19223 0.09522 0.0
H964 H 0.40493 0.19853 0.06185 0.0
H965 H 0.39724 0.21362 0.11466 0.0
H966 H 0.41233 0.24633 0.09227 0.0
H967 H 0.44724 0.25548 0.0887 0.0
H968 H 0.28235 0.78145 0.58602 0.0
H969 H 0.28026 0.81722 0.59123 0.0
H970 H 0.28533 0.81955 0.42876 0.0
H971 H 0.28751 0.78365 0.42284 0.0
H972 H 0.30908 0.8485 0.49207 0.0
H973 H 0.22981 0.84636 0.53771 0.0
H974 H 0.24603 0.83164 0.57595 0.0
H975 H 0.24234 0.82554 0.50956 0.0
C976 C 0.28316 0.78949 0.55127 0.0
C977 C 0.2849 0.77958 0.50387 0.0
C978 C 0.28193 0.80996 0.55443 0.0
C979 C 0.2824 0.82095 0.51034 0.0
C980 C 0.28488 0.81126 0.46319 0.0
H981 H 0.26728 0.94102 0.42642 0.0
H982 H 0.27778 0.90681 0.43411 0.0
C983 C 0.28607 0.79075 0.45991 0.0
C984 C 0.27945 0.84247 0.51327 0.0
H985 H 0.24478 0.87747 0.53704 0.0
C986 C 0.29506 0.85489 0.50199 0.0
C987 C 0.26117 0.85069 0.52657 0.0
C988 C 0.24378 0.83793 0.53783 0.0
C989 C 0.29286 0.87542 0.5037 0.0
C990 C 0.27442 0.88365 0.5159 0.0
C991 C 0.25893 0.87117 0.52795 0.0
C992 C 0.27036 0.90501 0.51329 0.0
C993 C 0.31034 0.88809 0.49294 0.0
C994 C 0.26256 0.91537 0.5551 0.0
C995 C 0.2564 0.93487 0.55049 0.0
C996 C 0.25798 0.94417 0.50407 0.0
C997 C 0.26624 0.93409 0.46277 0.0
C998 C 0.27233 0.91462 0.46725 0.0
H999 H 0.32438 0.8803 0.50098 0.0
H1000 H 0.3099 0.89171 0.45211 0.0
H1001 H 0.31023 0.90204 0.51589 0.0
H1002 H 0.26074 0.90818 0.59081 0.0
H1003 H 0.24983 0.94243 0.58257 0.0
H1004 H 0.71152 0.78148 0.94909 0.0
H1005 H 0.67582 0.78336 0.95468 0.0
H1006 H 0.68091 0.7789 0.1175 0.0
H1007 H 0.71668 0.77719 0.11258 0.0
H1008 H 0.6498 0.75576 0.99569 0.0
H1009 H 0.647 0.82836 0.09779 0.0
H1010 H 0.66868 0.81965 0.06632 0.0
H1011 H 0.66257 0.81033 0.12696 0.0
C1012 C 0.70511 0.78095 0.9862 0.0
C1013 C 0.71706 0.77927 0.03043 0.0
C1014 C 0.68468 0.78199 0.98925 0.0
C1015 C 0.67575 0.7815 0.03652 0.0
C1016 C 0.68754 0.77964 0.08071 0.0
H1017 H 0.55213 0.7952 0.11399 0.0
H1018 H 0.58765 0.78834 0.11848 0.0
C1019 C 0.708 0.77857 0.07774 0.0
C1020 C 0.65406 0.78276 0.03929 0.0
H1021 H 0.61688 0.81172 0.08313 0.0
C1022 C 0.64258 0.76797 0.01488 0.0
C1023 C 0.64471 0.79865 0.06459 0.0
C1024 C 0.65631 0.81527 0.09011 0.0
C1025 C 0.62197 0.76864 0.01501 0.0
C1026 C 0.6126 0.78475 0.03936 0.0
C1027 C 0.62409 0.79936 0.0646 0.0
C1028 C 0.59094 0.78732 0.03687 0.0
C1029 C 0.61043 0.75201 0.98939 0.0
C1030 C 0.58105 0.78901 0.98962 0.0
C1031 C 0.56089 0.79281 0.98715 0.0
C1032 C 0.55036 0.79509 0.03184 0.0
C1033 C 0.56007 0.79326 0.07912 0.0
C1034 C 0.58028 0.78942 0.08164 0.0
H1035 H 0.6193 0.73834 0.98687 0.0
H1036 H 0.59683 0.74892 0.01001 0.0
H1037 H 0.60618 0.75611 0.9501 0.0
H1038 H 0.58903 0.78796 0.95466 0.0
H1039 H 0.55362 0.79446 0.95034 0.0
loop_
_geom_bond_atom_site_label_1
_geom_bond_atom_site_label_2
_geom_bond_distance
_geom_bond_site_symmetry_2
_ccdc_geom_bond_type
Sc0 O3 2.025 . S
Sc0 O10 2.105 . S
Sc0 O13 2.105 . S
Sc0 O16 2.105 . S
Sc0 O19 2.105 . S
Sc1 O3 2.025 . S
Sc1 O11 2.105 . S
Sc1 O15 2.105 1_554 S
Sc1 O17 2.105 . S
Sc1 O21 2.105 1_554 S
Sc2 O3 2.025 1_556 S
Sc2 O12 2.105 . S
Sc2 O14 2.105 . S
Sc2 O18 2.105 . S
Sc2 O20 2.105 . S
O3 Sc0 2.025 . S
O3 Sc1 2.025 . S
O3 Sc2 2.025 1_554 S
C4 O10 1.268 . S
C4 O20 1.268 1_554 S
C5 O11 1.268 . S
C5 O19 1.268 . S
C6 O12 1.268 . S
C6 O21 1.268 . S
C7 O13 1.268 . S
C7 O17 1.268 . S
C8 O14 1.268 1_554 S
C8 O16 1.268 . S
C9 O15 1.268 . S
C9 O18 1.268 . S
O10 Sc0 2.105 . S
O10 C4 1.268 . S
O11 Sc1 2.105 . S
O11 C5 1.268 . S
O12 Sc2 2.105 . S
O12 C6 1.268 . S
O13 Sc0 2.105 . S
O13 C7 1.268 . S
O14 Sc2 2.105 . S
O14 C8 1.268 1_556 S
O15 Sc1 2.105 1_556 S
O15 C9 1.268 . S
O16 Sc0 2.105 . S
O16 C8 1.268 . S
O17 Sc1 2.105 . S
O17 C7 1.268 . S
O18 Sc2 2.105 . S
O18 C9 1.268 . S
O19 Sc0 2.105 . S
O19 C5 1.268 . S
O20 Sc2 2.105 . S
O20 C4 1.268 1_556 S
O21 Sc1 2.105 1_556 S
O21 C6 1.268 . S
Sc22 O25 2.025 . S
Sc22 O32 2.105 . S
Sc22 O35 2.105 . S
Sc22 O38 2.105 . S
Sc22 O41 2.105 . S
Sc23 O25 2.025 . S
Sc23 O33 2.105 . S
Sc23 O37 2.105 . S
Sc23 O39 2.105 . S
Sc23 O43 2.105 . S
Sc24 O25 2.025 . S
Sc24 O34 2.105 . S
Sc24 O36 2.105 . S
Sc24 O40 2.105 . S
Sc24 O42 2.105 . S
O25 Sc22 2.025 . S
O25 Sc23 2.025 . S
O25 Sc24 2.025 . S
C26 O32 1.268 . S
C26 O42 1.268 . S
C27 O33 1.268 . S
C27 O41 1.268 . S
C28 O34 1.268 . S
C28 O43 1.268 . S
C29 O35 1.268 . S
C29 O39 1.268 . S
C30 O36 1.268 . S
C30 O38 1.268 . S
C31 O37 1.268 . S
C31 O40 1.268 . S
O32 Sc22 2.105 . S
O32 C26 1.268 . S
O33 Sc23 2.105 . S
O33 C27 1.268 . S
O34 Sc24 2.105 . S
O34 C28 1.268 . S
O35 Sc22 2.105 . S
O35 C29 1.268 . S
O36 Sc24 2.105 . S
O36 C30 1.268 . S
O37 Sc23 2.105 . S
O37 C31 1.268 . S
O38 Sc22 2.105 . S
O38 C30 1.268 . S
O39 Sc23 2.105 . S
O39 C29 1.268 . S
O40 Sc24 2.105 . S
O40 C31 1.268 . S
O41 Sc22 2.105 . S
O41 C27 1.268 . S
O42 Sc24 2.105 . S
O42 C26 1.268 . S
O43 Sc23 2.105 . S
O43 C28 1.268 . S
Sc44 O47 2.025 1_556 S
Sc44 O54 2.105 . S
Sc44 O57 2.105 . S
Sc44 O60 2.105 . S
Sc44 O63 2.105 . S
Sc45 O47 2.025 . S
Sc45 O55 2.105 1_554 S
Sc45 O59 2.105 . S
Sc45 O61 2.105 1_554 S
Sc45 O65 2.105 . S
Sc46 O47 2.025 . S
Sc46 O56 2.105 . S
Sc46 O58 2.105 . S
Sc46 O62 2.105 . S
Sc46 O64 2.105 . S
O47 Sc44 2.025 1_554 S
O47 Sc45 2.025 . S
O47 Sc46 2.025 . S
C48 O54 1.268 1_554 S
C48 O64 1.268 . S
C49 O55 1.268 . S
C49 O63 1.268 . S
C50 O56 1.268 . S
C50 O65 1.268 . S
C51 O57 1.268 . S
C51 O61 1.268 . S
C52 O58 1.268 . S
C52 O60 1.268 1_554 S
C53 O59 1.268 . S
C53 O62 1.268 . S
O54 Sc44 2.105 . S
O54 C48 1.268 1_556 S
O55 Sc45 2.105 1_556 S
O55 C49 1.268 . S
O56 Sc46 2.105 . S
O56 C50 1.268 . S
O57 Sc44 2.105 . S
O57 C51 1.268 . S
O58 Sc46 2.105 . S
O58 C52 1.268 . S
O59 Sc45 2.105 . S
O59 C53 1.268 . S
O60 Sc44 2.105 . S
O60 C52 1.268 1_556 S
O61 Sc45 2.105 1_556 S
O61 C51 1.268 . S
O62 Sc46 2.105 . S
O62 C53 1.268 . S
O63 Sc44 2.105 . S
O63 C49 1.268 . S
O64 Sc46 2.105 . S
O64 C48 1.268 . S
O65 Sc45 2.105 . S
O65 C50 1.268 . S
Sc66 O69 2.025 . S
Sc66 O76 2.105 . S
Sc66 O79 2.105 . S
Sc66 O82 2.105 . S
Sc66 O85 2.105 . S
Sc67 O69 2.025 . S
Sc67 O77 2.105 . S
Sc67 O81 2.105 . S
Sc67 O83 2.105 . S
Sc67 O87 2.105 . S
Sc68 O69 2.025 . S
Sc68 O78 2.105 . S
Sc68 O80 2.105 . S
Sc68 O84 2.105 . S
Sc68 O86 2.105 . S
O69 Sc66 2.025 . S
O69 Sc67 2.025 . S
O69 Sc68 2.025 . S
C70 O76 1.268 . S
C70 O86 1.268 . S
C71 O77 1.268 . S
C71 O85 1.268 . S
C72 O78 1.268 . S
C72 O87 1.268 . S
C73 O79 1.268 . S
C73 O83 1.268 . S
C74 O80 1.268 . S
C74 O82 1.268 . S
C75 O81 1.268 . S
C75 O84 1.268 . S
O76 Sc66 2.105 . S
O76 C70 1.268 . S
O77 Sc67 2.105 . S
O77 C71 1.268 . S
O78 Sc68 2.105 . S
O78 C72 1.268 . S
O79 Sc66 2.105 . S
O79 C73 1.268 . S
O80 Sc68 2.105 . S
O80 C74 1.268 . S
O81 Sc67 2.105 . S
O81 C75 1.268 . S
O82 Sc66 2.105 . S
O82 C74 1.268 . S
O83 Sc67 2.105 . S
O83 C73 1.268 . S
O84 Sc68 2.105 . S
O84 C75 1.268 . S
O85 Sc66 2.105 . S
O85 C71 1.268 . S
O86 Sc68 2.105 . S
O86 C70 1.268 . S
O87 Sc67 2.105 . S
O87 C72 1.268 . S
H88 C91 0.931 . S
H89 C94 0.929 . S
H90 C96 0.930 . S
C91 H88 0.931 . S
C91 C92 1.382 1_554 S
C91 C93 1.411 . S
C92 C91 1.382 1_556 S
C92 C96 1.407 . S
C93 C91 1.411 . S
C93 C94 1.394 . S
C94 H89 0.929 . S
C94 C93 1.394 . S
C94 C95 1.382 1_554 S
C95 C94 1.382 1_556 S
C95 C96 1.392 . S
C95 N97 1.420 . S
C96 H90 0.930 . S
C96 C92 1.407 . S
C96 C95 1.392 . S
N97 C95 1.420 . S
N97 C98 1.244 1_556 S
C98 N97 1.244 1_554 S
H99 C102 0.929 . S
H100 C105 0.929 . S
H101 C107 0.930 . S
C102 H99 0.929 . S
C102 C103 1.398 . S
C102 C104 1.396 . S
C103 C102 1.398 . S
C103 C107 1.407 . S
C104 C102 1.396 . S
C104 C105 1.394 . S
C105 H100 0.929 . S
C105 C104 1.394 . S
C105 C106 1.382 . S
C106 C105 1.382 . S
C106 C107 1.392 . S
C106 N108 1.420 1_655 S
C107 H101 0.930 . S
C107 C103 1.407 . S
C107 C106 1.392 . S
N108 C106 1.420 1_455 S
N108 C109 1.244 . S
C109 N108 1.244 . S
H110 C113 0.929 . S
H111 C116 0.929 . S
H112 C118 0.930 . S
C113 H110 0.929 . S
C113 C114 1.398 . S
C113 C115 1.396 1_554 S
C114 C113 1.398 . S
C114 C118 1.407 . S
C115 C113 1.396 1_556 S
C115 C116 1.394 . S
C116 H111 0.929 . S
C116 C115 1.394 . S
C116 C117 1.382 1_556 S
C117 C116 1.382 1_554 S
C117 C118 1.392 . S
C117 N119 1.420 . S
C118 H112 0.930 . S
C118 C114 1.407 . S
C118 C117 1.392 . S
N119 C117 1.420 . S
N119 C120 1.244 . S
C120 N119 1.244 . S
H121 C124 0.929 . S
H122 C127 0.929 . S
H123 C129 0.930 . S
C124 H121 0.929 . S
C124 C125 1.398 . S
C124 C126 1.396 . S
C125 C124 1.398 . S
C125 C129 1.407 . S
C126 C124 1.396 . S
C126 C127 1.394 . S
C127 H122 0.929 . S
C127 C126 1.394 . S
C127 C128 1.382 . S
C128 C127 1.382 . S
C128 C129 1.392 . S
C128 N130 1.420 1_455 S
C129 H123 0.930 . S
C129 C125 1.407 . S
C129 C128 1.392 . S
N130 C128 1.420 1_655 S
N130 C131 1.244 . S
C131 N130 1.244 . S
H132 C135 0.929 . S
H133 C138 0.929 . S
H134 C140 0.930 . S
C135 H132 0.929 . S
C135 C136 1.398 . S
C135 C137 1.396 . S
C136 C135 1.398 . S
C136 C140 1.407 . S
C137 C135 1.396 . S
C137 C138 1.394 . S
C138 H133 0.929 . S
C138 C137 1.394 . S
C138 C139 1.382 . S
C139 C138 1.382 . S
C139 C140 1.392 . S
C139 N141 1.420 1_565 S
C140 H134 0.930 . S
C140 C136 1.407 . S
C140 C139 1.392 . S
N141 C139 1.420 1_545 S
N141 C142 1.244 . S
C142 N141 1.244 . S
H143 C146 0.931 . S
H144 C149 0.929 . S
H145 C151 0.930 . S
C146 H143 0.931 . S
C146 C147 1.386 1_554 S
C146 C148 1.407 . S
C147 C146 1.386 1_556 S
C147 C151 1.407 . S
C148 C146 1.407 . S
C148 C149 1.394 . S
C149 H144 0.929 . S
C149 C148 1.394 . S
C149 C150 1.382 1_554 S
C150 C149 1.382 1_556 S
C150 C151 1.392 . S
C150 N152 1.420 . S
C151 H145 0.930 . S
C151 C147 1.407 . S
C151 C150 1.392 . S
N152 C150 1.420 . S
N152 C153 1.244 1_556 S
C153 N152 1.244 1_554 S
H154 C157 0.929 . S
H155 C160 0.929 . S
H156 C162 0.930 . S
C157 H154 0.929 . S
C157 C158 1.398 . S
C157 C159 1.396 . S
C158 C157 1.398 . S
C158 C162 1.407 . S
C159 C157 1.396 . S
C159 C160 1.394 . S
C160 H155 0.929 . S
C160 C159 1.394 . S
C160 C161 1.382 . S
C161 C160 1.382 . S
C161 C162 1.392 . S
C161 N163 1.420 1_545 S
C162 H156 0.930 . S
C162 C158 1.407 . S
C162 C161 1.392 . S
N163 C161 1.420 1_565 S
N163 C164 1.244 . S
C164 N163 1.244 . S
H165 C168 0.929 . S
H166 C171 0.929 . S
H167 C173 0.930 . S
C168 H165 0.929 . S
C168 C169 1.398 . S
C168 C170 1.396 1_554 S
C169 C168 1.398 . S
C169 C173 1.407 . S
C170 C168 1.396 1_556 S
C170 C171 1.394 . S
C171 H166 0.929 . S
C171 C170 1.394 . S
C171 C172 1.382 1_556 S
C172 C171 1.382 1_554 S
C172 C173 1.392 . S
C172 N174 1.420 . S
C173 H167 0.930 . S
C173 C169 1.407 . S
C173 C172 1.392 . S
N174 C172 1.420 . S
N174 C175 1.244 . S
C175 N174 1.244 . S
H176 C184 0.929 . S
H177 C186 0.930 . S
H178 C188 0.930 . S
H179 C191 0.929 . S
H180 C194 0.930 . S
H181 C196 0.960 . S
H182 C196 0.960 . S
H183 C196 0.960 . S
C184 H176 0.929 . S
C184 C185 1.377 . S
C184 C186 1.384 . S
C185 C184 1.377 . S
C185 C191 1.390 . S
C186 H177 0.930 . S
C186 C184 1.384 . S
C186 C187 1.372 . S
C187 C186 1.372 . S
C187 C188 1.400 . S
C187 C192 1.490 . S
C188 H178 0.930 . S
C188 C187 1.400 . S
C188 C191 1.386 . S
H189 C205 0.930 . S
H190 C206 0.931 . S
C191 H179 0.929 . S
C191 C185 1.390 . S
C191 C188 1.386 . S
C192 C187 1.490 . S
C192 C194 1.395 . S
C192 C195 1.403 . S
H193 C199 0.930 . S
C194 H180 0.930 . S
C194 C192 1.395 . S
C194 C197 1.403 . S
C195 C192 1.403 . S
C195 C196 1.524 . S
C195 C199 1.400 . S
C196 H181 0.960 . S
C196 H182 0.960 . S
C196 H183 0.960 . S
C196 C195 1.524 . S
C197 C194 1.403 . S
C197 C198 1.392 . S
C197 C201 1.495 . S
C198 C197 1.392 . S
C198 C199 1.385 . S
C198 C200 1.478 . S
C199 H193 0.930 . S
C199 C195 1.400 . S
C199 C198 1.385 . S
C200 C198 1.478 . S
C200 C202 1.381 . S
C200 C206 1.383 . S
C201 C197 1.495 . S
C201 H207 0.959 . S
C201 H208 0.961 . S
C201 H209 0.960 . S
C202 C200 1.381 . S
C202 C203 1.394 . S
C202 H210 0.930 . S
C203 C202 1.394 . S
C203 C204 1.383 . S
C203 H211 0.929 . S
C204 C203 1.383 . S
C204 C205 1.377 . S
C205 H189 0.930 . S
C205 C204 1.377 . S
C205 C206 1.379 . S
C206 H190 0.931 . S
C206 C200 1.383 . S
C206 C205 1.379 . S
H207 C201 0.959 . S
H208 C201 0.961 . S
H209 C201 0.960 . S
H210 C202 0.930 . S
H211 C203 0.929 . S
H212 C220 0.929 . S
H213 C222 0.930 . S
H214 C224 0.930 . S
H215 C227 0.929 . S
H216 C230 0.930 . S
H217 C232 0.960 . S
H218 C232 0.960 . S
H219 C232 0.960 . S
C220 H212 0.929 . S
C220 C221 1.377 . S
C220 C222 1.384 . S
C221 C220 1.377 . S
C221 C227 1.390 . S
C222 H213 0.930 . S
C222 C220 1.384 . S
C222 C223 1.372 . S
C223 C222 1.372 . S
C223 C224 1.400 . S
C223 C228 1.490 . S
C224 H214 0.930 . S
C224 C223 1.400 . S
C224 C227 1.386 . S
H225 C241 0.930 . S
H226 C242 0.931 . S
C227 H215 0.929 . S
C227 C221 1.390 . S
C227 C224 1.386 . S
C228 C223 1.490 . S
C228 C230 1.395 . S
C228 C231 1.403 . S
H229 C235 0.930 . S
C230 H216 0.930 . S
C230 C228 1.395 . S
C230 C233 1.403 . S
C231 C228 1.403 . S
C231 C232 1.524 . S
C231 C235 1.400 . S
C232 H217 0.960 . S
C232 H218 0.960 . S
C232 H219 0.960 . S
C232 C231 1.524 . S
C233 C230 1.403 . S
C233 C234 1.392 . S
C233 C237 1.495 . S
C234 C233 1.392 . S
C234 C235 1.385 . S
C234 C236 1.478 . S
C235 H229 0.930 . S
C235 C231 1.400 . S
C235 C234 1.385 . S
C236 C234 1.478 . S
C236 C238 1.381 . S
C236 C242 1.383 . S
C237 C233 1.495 . S
C237 H243 0.959 . S
C237 H244 0.961 . S
C237 H245 0.960 . S
C238 C236 1.381 . S
C238 C239 1.394 . S
C238 H246 0.930 . S
C239 C238 1.394 . S
C239 C240 1.383 . S
C239 H247 0.929 . S
C240 C239 1.383 . S
C240 C241 1.377 . S
C241 H225 0.930 . S
C241 C240 1.377 . S
C241 C242 1.379 . S
C242 H226 0.931 . S
C242 C236 1.383 . S
C242 C241 1.379 . S
H243 C237 0.959 . S
H244 C237 0.961 . S
H245 C237 0.960 . S
H246 C238 0.930 . S
H247 C239 0.929 . S
H248 C256 0.929 . S
H249 C258 0.930 . S
H250 C260 0.930 . S
H251 C263 0.929 . S
H252 C266 0.930 . S
H253 C268 0.960 . S
H254 C268 0.960 . S
H255 C268 0.960 . S
C256 H248 0.929 . S
C256 C257 1.377 . S
C256 C258 1.384 . S
C257 C256 1.377 . S
C257 C263 1.390 . S
C258 H249 0.930 . S
C258 C256 1.384 . S
C258 C259 1.372 . S
C259 C258 1.372 . S
C259 C260 1.400 . S
C259 C264 1.490 . S
C260 H250 0.930 . S
C260 C259 1.400 . S
C260 C263 1.386 . S
H261 C277 0.930 . S
H262 C278 0.931 . S
C263 H251 0.929 . S
C263 C257 1.390 . S
C263 C260 1.386 . S
C264 C259 1.490 . S
C264 C266 1.395 . S
C264 C267 1.403 . S
H265 C271 0.930 . S
C266 H252 0.930 . S
C266 C264 1.395 . S
C266 C269 1.403 . S
C267 C264 1.403 . S
C267 C268 1.524 . S
C267 C271 1.400 . S
C268 H253 0.960 . S
C268 H254 0.960 . S
C268 H255 0.960 . S
C268 C267 1.524 . S
C269 C266 1.403 . S
C269 C270 1.392 . S
C269 C273 1.495 . S
C270 C269 1.392 . S
C270 C271 1.385 . S
C270 C272 1.478 . S
C271 H265 0.930 . S
C271 C267 1.400 . S
C271 C270 1.385 . S
C272 C270 1.478 . S
C272 C274 1.381 . S
C272 C278 1.383 . S
C273 C269 1.495 . S
C273 H279 0.959 . S
C273 H280 0.961 . S
C273 H281 0.960 . S
C274 C272 1.381 . S
C274 C275 1.394 . S
C274 H282 0.930 . S
C275 C274 1.394 . S
C275 C276 1.383 . S
C275 H283 0.929 . S
C276 C275 1.383 . S
C276 C277 1.377 . S
C277 H261 0.930 . S
C277 C276 1.377 . S
C277 C278 1.379 . S
C278 H262 0.931 . S
C278 C272 1.383 . S
C278 C277 1.379 . S
H279 C273 0.959 . S
H280 C273 0.961 . S
H281 C273 0.960 . S
H282 C274 0.930 . S
H283 C275 0.929 . S
H284 C292 0.929 . S
H285 C294 0.930 . S
H286 C296 0.930 . S
H287 C299 0.929 . S
H288 C302 0.930 . S
H289 C304 0.960 . S
H290 C304 0.960 . S
H291 C304 0.960 . S
C292 H284 0.929 . S
C292 C293 1.377 . S
C292 C294 1.384 . S
C293 C292 1.377 . S
C293 C299 1.390 . S
C294 H285 0.930 . S
C294 C292 1.384 . S
C294 C295 1.372 . S
C295 C294 1.372 . S
C295 C296 1.400 . S
C295 C300 1.490 . S
C296 H286 0.930 . S
C296 C295 1.400 . S
C296 C299 1.386 . S
H297 C313 0.930 . S
H298 C314 0.931 . S
C299 H287 0.929 . S
C299 C293 1.390 . S
C299 C296 1.386 . S
C300 C295 1.490 . S
C300 C302 1.395 . S
C300 C303 1.403 . S
H301 C307 0.930 . S
C302 H288 0.930 . S
C302 C300 1.395 . S
C302 C305 1.403 . S
C303 C300 1.403 . S
C303 C304 1.524 . S
C303 C307 1.400 . S
C304 H289 0.960 . S
C304 H290 0.960 . S
C304 H291 0.960 . S
C304 C303 1.524 . S
C305 C302 1.403 . S
C305 C306 1.392 . S
C305 C309 1.495 . S
C306 C305 1.392 . S
C306 C307 1.385 . S
C306 C308 1.478 . S
C307 H301 0.930 . S
C307 C303 1.400 . S
C307 C306 1.385 . S
C308 C306 1.478 . S
C308 C310 1.381 . S
C308 C314 1.383 . S
C309 C305 1.495 . S
C309 H315 0.959 . S
C309 H316 0.961 . S
C309 H317 0.960 . S
C310 C308 1.381 . S
C310 C311 1.394 . S
C310 H318 0.930 . S
C311 C310 1.394 . S
C311 C312 1.383 . S
C311 H319 0.929 . S
C312 C311 1.383 . S
C312 C313 1.377 . S
C313 H297 0.930 . S
C313 C312 1.377 . S
C313 C314 1.379 . S
C314 H298 0.931 . S
C314 C308 1.383 . S
C314 C313 1.379 . S
H315 C309 0.959 . S
H316 C309 0.961 . S
H317 C309 0.960 . S
H318 C310 0.930 . S
H319 C311 0.929 . S
H320 C328 0.929 . S
H321 C330 0.930 . S
H322 C332 0.930 . S
H323 C335 0.929 . S
H324 C338 0.930 . S
H325 C340 0.960 . S
H326 C340 0.960 . S
H327 C340 0.960 . S
C328 H320 0.929 . S
C328 C329 1.377 . S
C328 C330 1.384 . S
C329 C328 1.377 . S
C329 C335 1.390 . S
C330 H321 0.930 . S
C330 C328 1.384 . S
C330 C331 1.372 . S
C331 C330 1.372 . S
C331 C332 1.400 . S
C331 C336 1.490 . S
C332 H322 0.930 . S
C332 C331 1.400 . S
C332 C335 1.386 . S
H333 C349 0.930 . S
H334 C350 0.931 . S
C335 H323 0.929 . S
C335 C329 1.390 . S
C335 C332 1.386 . S
C336 C331 1.490 . S
C336 C338 1.395 . S
C336 C339 1.403 . S
H337 C343 0.930 . S
C338 H324 0.930 . S
C338 C336 1.395 . S
C338 C341 1.403 . S
C339 C336 1.403 . S
C339 C340 1.524 . S
C339 C343 1.400 . S
C340 H325 0.960 . S
C340 H326 0.960 . S
C340 H327 0.960 . S
C340 C339 1.524 . S
C341 C338 1.403 . S
C341 C342 1.392 . S
C341 C345 1.495 . S
C342 C341 1.392 . S
C342 C343 1.385 . S
C342 C344 1.478 . S
C343 H337 0.930 . S
C343 C339 1.400 . S
C343 C342 1.385 . S
C344 C342 1.478 . S
C344 C346 1.381 . S
C344 C350 1.383 . S
C345 C341 1.495 . S
C345 H351 0.959 . S
C345 H352 0.961 . S
C345 H353 0.960 . S
C346 C344 1.381 . S
C346 C347 1.394 . S
C346 H354 0.930 . S
C347 C346 1.394 . S
C347 C348 1.383 . S
C347 H355 0.929 . S
C348 C347 1.383 . S
C348 C349 1.377 . S
C349 H333 0.930 . S
C349 C348 1.377 . S
C349 C350 1.379 . S
C350 H334 0.931 . S
C350 C344 1.383 . S
C350 C349 1.379 . S
H351 C345 0.959 . S
H352 C345 0.961 . S
H353 C345 0.960 . S
H354 C346 0.930 . S
H355 C347 0.929 . S
H356 C364 0.929 . S
H357 C366 0.930 . S
H358 C368 0.930 . S
H359 C371 0.929 . S
H360 C374 0.930 . S
H361 C376 0.960 . S
H362 C376 0.960 . S
H363 C376 0.960 . S
C364 H356 0.929 . S
C364 C365 1.377 . S
C364 C366 1.384 . S
C365 C364 1.377 . S
C365 C371 1.390 . S
C366 H357 0.930 . S
C366 C364 1.384 . S
C366 C367 1.372 . S
C367 C366 1.372 . S
C367 C368 1.400 . S
C367 C372 1.490 . S
C368 H358 0.930 . S
C368 C367 1.400 . S
C368 C371 1.386 . S
H369 C385 0.930 . S
H370 C386 0.931 . S
C371 H359 0.929 . S
C371 C365 1.390 . S
C371 C368 1.386 . S
C372 C367 1.490 . S
C372 C374 1.395 . S
C372 C375 1.403 . S
H373 C379 0.930 . S
C374 H360 0.930 . S
C374 C372 1.395 . S
C374 C377 1.403 . S
C375 C372 1.403 . S
C375 C376 1.524 . S
C375 C379 1.400 . S
C376 H361 0.960 . S
C376 H362 0.960 . S
C376 H363 0.960 . S
C376 C375 1.524 . S
C377 C374 1.403 . S
C377 C378 1.392 . S
C377 C381 1.495 . S
C378 C377 1.392 . S
C378 C379 1.385 . S
C378 C380 1.478 . S
C379 H373 0.930 . S
C379 C375 1.400 . S
C379 C378 1.385 . S
C380 C378 1.478 . S
C380 C382 1.381 . S
C380 C386 1.383 . S
C381 C377 1.495 . S
C381 H387 0.959 . S
C381 H388 0.961 . S
C381 H389 0.960 . S
C382 C380 1.381 . S
C382 C383 1.394 . S
C382 H390 0.930 . S
C383 C382 1.394 . S
C383 C384 1.383 . S
C383 H391 0.929 . S
C384 C383 1.383 . S
C384 C385 1.377 . S
C385 H369 0.930 . S
C385 C384 1.377 . S
C385 C386 1.379 . S
C386 H370 0.931 . S
C386 C380 1.383 . S
C386 C385 1.379 . S
H387 C381 0.959 . S
H388 C381 0.961 . S
H389 C381 0.960 . S
H390 C382 0.930 . S
H391 C383 0.929 . S
H392 C400 0.929 . S
H393 C402 0.930 . S
H394 C404 0.930 . S
H395 C407 0.929 . S
H396 C410 0.930 . S
H397 C412 0.960 . S
H398 C412 0.960 . S
H399 C412 0.960 . S
C400 H392 0.929 . S
C400 C401 1.377 . S
C400 C402 1.384 . S
C401 C400 1.377 . S
C401 C407 1.390 . S
C402 H393 0.930 . S
C402 C400 1.384 . S
C402 C403 1.372 . S
C403 C402 1.372 . S
C403 C404 1.400 . S
C403 C408 1.490 . S
C404 H394 0.930 . S
C404 C403 1.400 . S
C404 C407 1.386 . S
H405 C421 0.930 . S
H406 C422 0.931 . S
C407 H395 0.929 . S
C407 C401 1.390 . S
C407 C404 1.386 . S
C408 C403 1.490 . S
C408 C410 1.395 . S
C408 C411 1.403 . S
H409 C415 0.930 . S
C410 H396 0.930 . S
C410 C408 1.395 . S
C410 C413 1.403 . S
C411 C408 1.403 . S
C411 C412 1.524 . S
C411 C415 1.400 . S
C412 H397 0.960 . S
C412 H398 0.960 . S
C412 H399 0.960 . S
C412 C411 1.524 . S
C413 C410 1.403 . S
C413 C414 1.392 . S
C413 C417 1.495 . S
C414 C413 1.392 . S
C414 C415 1.385 . S
C414 C416 1.478 . S
C415 H409 0.930 . S
C415 C411 1.400 . S
C415 C414 1.385 . S
C416 C414 1.478 . S
C416 C418 1.381 . S
C416 C422 1.383 . S
C417 C413 1.495 . S
C417 H423 0.959 . S
C417 H424 0.961 . S
C417 H425 0.960 . S
C418 C416 1.381 . S
C418 C419 1.394 . S
C418 H426 0.930 . S
C419 C418 1.394 . S
C419 C420 1.383 . S
C419 H427 0.929 . S
C420 C419 1.383 . S
C420 C421 1.377 . S
C421 H405 0.930 . S
C421 C420 1.377 . S
C421 C422 1.379 . S
C422 H406 0.931 . S
C422 C416 1.383 . S
C422 C421 1.379 . S
H423 C417 0.959 . S
H424 C417 0.961 . S
H425 C417 0.960 . S
H426 C418 0.930 . S
H427 C419 0.929 . S
H428 C436 0.929 . S
H429 C438 0.930 . S
H430 C440 0.930 . S
H431 C443 0.929 . S
H432 C446 0.930 . S
H433 C448 0.960 . S
H434 C448 0.960 . S
H435 C448 0.960 . S
C436 H428 0.929 . S
C436 C437 1.377 . S
C436 C438 1.384 . S
C437 C436 1.377 . S
C437 C443 1.390 . S
C438 H429 0.930 . S
C438 C436 1.384 . S
C438 C439 1.372 . S
C439 C438 1.372 . S
C439 C440 1.400 . S
C439 C444 1.490 . S
C440 H430 0.930 . S
C440 C439 1.400 . S
C440 C443 1.386 . S
H441 C457 0.930 . S
H442 C458 0.931 . S
C443 H431 0.929 . S
C443 C437 1.390 . S
C443 C440 1.386 . S
C444 C439 1.490 . S
C444 C446 1.395 . S
C444 C447 1.403 . S
H445 C451 0.930 . S
C446 H432 0.930 . S
C446 C444 1.395 . S
C446 C449 1.403 . S
C447 C444 1.403 . S
C447 C448 1.524 . S
C447 C451 1.400 . S
C448 H433 0.960 . S
C448 H434 0.960 . S
C448 H435 0.960 . S
C448 C447 1.524 . S
C449 C446 1.403 . S
C449 C450 1.392 . S
C449 C453 1.495 . S
C450 C449 1.392 . S
C450 C451 1.385 . S
C450 C452 1.478 . S
C451 H445 0.930 . S
C451 C447 1.400 . S
C451 C450 1.385 . S
C452 C450 1.478 . S
C452 C454 1.381 . S
C452 C458 1.383 . S
C453 C449 1.495 . S
C453 H459 0.959 . S
C453 H460 0.961 . S
C453 H461 0.960 . S
C454 C452 1.381 . S
C454 C455 1.394 . S
C454 H462 0.930 . S
C455 C454 1.394 . S
C455 C456 1.383 . S
C455 H463 0.929 . S
C456 C455 1.383 . S
C456 C457 1.377 . S
C457 H441 0.930 . S
C457 C456 1.377 . S
C457 C458 1.379 . S
C458 H442 0.931 . S
C458 C452 1.383 . S
C458 C457 1.379 . S
H459 C453 0.959 . S
H460 C453 0.961 . S
H461 C453 0.960 . S
H462 C454 0.930 . S
H463 C455 0.929 . S
H464 C472 0.929 . S
H465 C474 0.930 . S
H466 C476 0.930 . S
H467 C479 0.929 . S
H468 C482 0.930 . S
H469 C484 0.960 . S
H470 C484 0.960 . S
H471 C484 0.960 . S
C472 H464 0.929 . S
C472 C473 1.377 . S
C472 C474 1.384 . S
C473 C472 1.377 . S
C473 C479 1.390 . S
C474 H465 0.930 . S
C474 C472 1.384 . S
C474 C475 1.372 . S
C475 C474 1.372 . S
C475 C476 1.400 . S
C475 C480 1.490 . S
C476 H466 0.930 . S
C476 C475 1.400 . S
C476 C479 1.386 . S
H477 C493 0.930 . S
H478 C494 0.931 . S
C479 H467 0.929 . S
C479 C473 1.390 . S
C479 C476 1.386 . S
C480 C475 1.490 . S
C480 C482 1.395 . S
C480 C483 1.403 . S
H481 C487 0.930 . S
C482 H468 0.930 . S
C482 C480 1.395 . S
C482 C485 1.403 . S
C483 C480 1.403 . S
C483 C484 1.524 . S
C483 C487 1.400 . S
C484 H469 0.960 . S
C484 H470 0.960 . S
C484 H471 0.960 . S
C484 C483 1.524 . S
C485 C482 1.403 . S
C485 C486 1.392 . S
C485 C489 1.495 . S
C486 C485 1.392 . S
C486 C487 1.385 . S
C486 C488 1.478 . S
C487 H481 0.930 . S
C487 C483 1.400 . S
C487 C486 1.385 . S
C488 C486 1.478 . S
C488 C490 1.381 . S
C488 C494 1.383 . S
C489 C485 1.495 . S
C489 H495 0.959 . S
C489 H496 0.961 . S
C489 H497 0.960 . S
C490 C488 1.381 . S
C490 C491 1.394 . S
C490 H498 0.930 . S
C491 C490 1.394 . S
C491 C492 1.383 . S
C491 H499 0.929 . S
C492 C491 1.383 . S
C492 C493 1.377 . S
C493 H477 0.930 . S
C493 C492 1.377 . S
C493 C494 1.379 . S
C494 H478 0.931 . S
C494 C488 1.383 . S
C494 C493 1.379 . S
H495 C489 0.959 . S
H496 C489 0.961 . S
H497 C489 0.960 . S
H498 C490 0.930 . S
H499 C491 0.929 . S
H500 C508 0.929 . S
H501 C510 0.930 . S
H502 C512 0.930 . S
H503 C515 0.929 . S
H504 C518 0.930 . S
H505 C520 0.960 . S
H506 C520 0.960 . S
H507 C520 0.960 . S
C508 H500 0.929 . S
C508 C509 1.377 . S
C508 C510 1.384 . S
C509 C508 1.377 . S
C509 C515 1.390 . S
C510 H501 0.930 . S
C510 C508 1.384 . S
C510 C511 1.372 . S
C511 C510 1.372 . S
C511 C512 1.400 . S
C511 C516 1.490 . S
C512 H502 0.930 . S
C512 C511 1.400 . S
C512 C515 1.386 . S
H513 C529 0.930 . S
H514 C530 0.931 . S
C515 H503 0.929 . S
C515 C509 1.390 . S
C515 C512 1.386 . S
C516 C511 1.490 . S
C516 C518 1.395 . S
C516 C519 1.403 . S
H517 C523 0.930 . S
C518 H504 0.930 . S
C518 C516 1.395 . S
C518 C521 1.403 . S
C519 C516 1.403 . S
C519 C520 1.524 . S
C519 C523 1.400 . S
C520 H505 0.960 . S
C520 H506 0.960 . S
C520 H507 0.960 . S
C520 C519 1.524 . S
C521 C518 1.403 . S
C521 C522 1.392 . S
C521 C525 1.495 . S
C522 C521 1.392 . S
C522 C523 1.385 . S
C522 C524 1.478 . S
C523 H517 0.930 . S
C523 C519 1.400 . S
C523 C522 1.385 . S
C524 C522 1.478 . S
C524 C526 1.381 . S
C524 C530 1.383 . S
C525 C521 1.495 . S
C525 H531 0.959 . S
C525 H532 0.961 . S
C525 H533 0.960 . S
C526 C524 1.381 . S
C526 C527 1.394 . S
C526 H534 0.930 . S
C527 C526 1.394 . S
C527 C528 1.383 . S
C527 H535 0.929 . S
C528 C527 1.383 . S
C528 C529 1.377 . S
C529 H513 0.930 . S
C529 C528 1.377 . S
C529 C530 1.379 . S
C530 H514 0.931 . S
C530 C524 1.383 . S
C530 C529 1.379 . S
H531 C525 0.959 . S
H532 C525 0.961 . S
H533 C525 0.960 . S
H534 C526 0.930 . S
H535 C527 0.929 . S
H536 C544 0.929 . S
H537 C546 0.930 . S
H538 C548 0.930 . S
H539 C551 0.929 . S
H540 C554 0.930 . S
H541 C556 0.960 . S
H542 C556 0.960 . S
H543 C556 0.960 . S
C544 H536 0.929 . S
C544 C545 1.377 . S
C544 C546 1.384 . S
C545 C544 1.377 . S
C545 C551 1.390 . S
C546 H537 0.930 . S
C546 C544 1.384 . S
C546 C547 1.372 . S
C547 C546 1.372 . S
C547 C548 1.400 . S
C547 C552 1.490 . S
C548 H538 0.930 . S
C548 C547 1.400 . S
C548 C551 1.386 . S
H549 C565 0.930 . S
H550 C566 0.931 . S
C551 H539 0.929 . S
C551 C545 1.390 . S
C551 C548 1.386 . S
C552 C547 1.490 . S
C552 C554 1.395 . S
C552 C555 1.403 . S
H553 C559 0.930 . S
C554 H540 0.930 . S
C554 C552 1.395 . S
C554 C557 1.403 . S
C555 C552 1.403 . S
C555 C556 1.524 . S
C555 C559 1.400 . S
C556 H541 0.960 . S
C556 H542 0.960 . S
C556 H543 0.960 . S
C556 C555 1.524 . S
C557 C554 1.403 . S
C557 C558 1.392 . S
C557 C561 1.495 . S
C558 C557 1.392 . S
C558 C559 1.385 . S
C558 C560 1.478 . S
C559 H553 0.930 . S
C559 C555 1.400 . S
C559 C558 1.385 . S
C560 C558 1.478 . S
C560 C562 1.381 . S
C560 C566 1.383 . S
C561 C557 1.495 . S
C561 H567 0.959 . S
C561 H568 0.961 . S
C561 H569 0.960 . S
C562 C560 1.381 . S
C562 C563 1.394 . S
C562 H570 0.930 . S
C563 C562 1.394 . S
C563 C564 1.383 . S
C563 H571 0.929 . S
C564 C563 1.383 . S
C564 C565 1.377 . S
C565 H549 0.930 . S
C565 C564 1.377 . S
C565 C566 1.379 . S
C566 H550 0.931 . S
C566 C560 1.383 . S
C566 C565 1.379 . S
H567 C561 0.959 . S
H568 C561 0.961 . S
H569 C561 0.960 . S
H570 C562 0.930 . S
H571 C563 0.929 . S
H572 C580 0.929 . S
H573 C582 0.930 . S
H574 C584 0.930 . S
H575 C587 0.929 . S
H576 C590 0.930 . S
H577 C592 0.960 . S
H578 C592 0.960 . S
H579 C592 0.960 . S
C580 H572 0.929 . S
C580 C581 1.377 . S
C580 C582 1.384 . S
C581 C580 1.377 . S
C581 C587 1.390 . S
C582 H573 0.930 . S
C582 C580 1.384 . S
C582 C583 1.372 . S
C583 C582 1.372 . S
C583 C584 1.400 . S
C583 C588 1.490 . S
C584 H574 0.930 . S
C584 C583 1.400 . S
C584 C587 1.386 . S
H585 C601 0.930 . S
H586 C602 0.931 . S
C587 H575 0.929 . S
C587 C581 1.390 . S
C587 C584 1.386 . S
C588 C583 1.490 . S
C588 C590 1.395 . S
C588 C591 1.403 . S
H589 C595 0.930 . S
C590 H576 0.930 . S
C590 C588 1.395 . S
C590 C593 1.403 . S
C591 C588 1.403 . S
C591 C592 1.524 . S
C591 C595 1.400 . S
C592 H577 0.960 . S
C592 H578 0.960 . S
C592 H579 0.960 . S
C592 C591 1.524 . S
C593 C590 1.403 . S
C593 C594 1.392 . S
C593 C597 1.495 . S
C594 C593 1.392 . S
C594 C595 1.385 . S
C594 C596 1.478 . S
C595 H589 0.930 . S
C595 C591 1.400 . S
C595 C594 1.385 . S
C596 C594 1.478 . S
C596 C598 1.381 . S
C596 C602 1.383 . S
C597 C593 1.495 . S
C597 H603 0.959 . S
C597 H604 0.961 . S
C597 H605 0.960 . S
C598 C596 1.381 . S
C598 C599 1.394 . S
C598 H606 0.930 . S
C599 C598 1.394 . S
C599 C600 1.383 . S
C599 H607 0.929 . S
C600 C599 1.383 . S
C600 C601 1.377 . S
C601 H585 0.930 . S
C601 C600 1.377 . S
C601 C602 1.379 . S
C602 H586 0.931 . S
C602 C596 1.383 . S
C602 C601 1.379 . S
H603 C597 0.959 . S
H604 C597 0.961 . S
H605 C597 0.960 . S
H606 C598 0.930 . S
H607 C599 0.929 . S
H608 C616 0.929 . S
H609 C618 0.930 . S
H610 C620 0.930 . S
H611 C623 0.929 . S
H612 C626 0.930 . S
H613 C628 0.960 . S
H614 C628 0.960 . S
H615 C628 0.960 . S
C616 H608 0.929 . S
C616 C617 1.377 . S
C616 C618 1.384 . S
C617 C616 1.377 . S
C617 C623 1.390 . S
C618 H609 0.930 . S
C618 C616 1.384 . S
C618 C619 1.372 . S
C619 C618 1.372 . S
C619 C620 1.400 . S
C619 C624 1.490 . S
C620 H610 0.930 . S
C620 C619 1.400 . S
C620 C623 1.386 . S
H621 C637 0.930 . S
H622 C638 0.931 . S
C623 H611 0.929 . S
C623 C617 1.390 . S
C623 C620 1.386 . S
C624 C619 1.490 . S
C624 C626 1.395 . S
C624 C627 1.403 . S
H625 C631 0.930 . S
C626 H612 0.930 . S
C626 C624 1.395 . S
C626 C629 1.403 . S
C627 C624 1.403 . S
C627 C628 1.524 . S
C627 C631 1.400 . S
C628 H613 0.960 . S
C628 H614 0.960 . S
C628 H615 0.960 . S
C628 C627 1.524 . S
C629 C626 1.403 . S
C629 C630 1.392 . S
C629 C633 1.495 . S
C630 C629 1.392 . S
C630 C631 1.385 . S
C630 C632 1.478 . S
C631 H625 0.930 . S
C631 C627 1.400 . S
C631 C630 1.385 . S
C632 C630 1.478 . S
C632 C634 1.381 . S
C632 C638 1.383 . S
C633 C629 1.495 . S
C633 H639 0.959 . S
C633 H640 0.961 . S
C633 H641 0.960 . S
C634 C632 1.381 . S
C634 C635 1.394 . S
C634 H642 0.930 . S
C635 C634 1.394 . S
C635 C636 1.383 . S
C635 H643 0.929 . S
C636 C635 1.383 . S
C636 C637 1.377 . S
C637 H621 0.930 . S
C637 C636 1.377 . S
C637 C638 1.379 . S
C638 H622 0.931 . S
C638 C632 1.383 . S
C638 C637 1.379 . S
H639 C633 0.959 . S
H640 C633 0.961 . S
H641 C633 0.960 . S
H642 C634 0.930 . S
H643 C635 0.929 . S
H644 C652 0.929 . S
H645 C654 0.930 . S
H646 C656 0.930 . S
H647 C659 0.929 . S
H648 C662 0.930 . S
H649 C664 0.960 . S
H650 C664 0.960 . S
H651 C664 0.960 . S
C652 H644 0.929 . S
C652 C653 1.377 . S
C652 C654 1.384 . S
C653 C652 1.377 . S
C653 C659 1.390 . S
C654 H645 0.930 . S
C654 C652 1.384 . S
C654 C655 1.372 . S
C655 C654 1.372 . S
C655 C656 1.400 . S
C655 C660 1.490 . S
C656 H646 0.930 . S
C656 C655 1.400 . S
C656 C659 1.386 . S
H657 C673 0.930 . S
H658 C674 0.931 . S
C659 H647 0.929 . S
C659 C653 1.390 . S
C659 C656 1.386 . S
C660 C655 1.490 . S
C660 C662 1.395 . S
C660 C663 1.403 . S
H661 C667 0.930 . S
C662 H648 0.930 . S
C662 C660 1.395 . S
C662 C665 1.403 . S
C663 C660 1.403 . S
C663 C664 1.524 . S
C663 C667 1.400 . S
C664 H649 0.960 . S
C664 H650 0.960 . S
C664 H651 0.960 . S
C664 C663 1.524 . S
C665 C662 1.403 . S
C665 C666 1.392 . S
C665 C669 1.495 . S
C666 C665 1.392 . S
C666 C667 1.385 . S
C666 C668 1.478 . S
C667 H661 0.930 . S
C667 C663 1.400 . S
C667 C666 1.385 . S
C668 C666 1.478 . S
C668 C670 1.381 . S
C668 C674 1.383 . S
C669 C665 1.495 . S
C669 H675 0.959 . S
C669 H676 0.961 . S
C669 H677 0.960 . S
C670 C668 1.381 . S
C670 C671 1.394 . S
C670 H678 0.930 . S
C671 C670 1.394 . S
C671 C672 1.383 . S
C671 H679 0.929 . S
C672 C671 1.383 . S
C672 C673 1.377 . S
C673 H657 0.930 . S
C673 C672 1.377 . S
C673 C674 1.379 . S
C674 H658 0.931 . S
C674 C668 1.383 . S
C674 C673 1.379 . S
H675 C669 0.959 . S
H676 C669 0.961 . S
H677 C669 0.960 . S
H678 C670 0.930 . S
H679 C671 0.929 . S
H680 C688 0.929 . S
H681 C690 0.930 . S
H682 C692 0.930 . S
H683 C695 0.929 . S
H684 C698 0.930 . S
H685 C700 0.960 . S
H686 C700 0.960 . S
H687 C700 0.960 . S
C688 H680 0.929 . S
C688 C689 1.377 . S
C688 C690 1.384 . S
C689 C688 1.377 . S
C689 C695 1.390 . S
C690 H681 0.930 . S
C690 C688 1.384 . S
C690 C691 1.372 . S
C691 C690 1.372 . S
C691 C692 1.400 . S
C691 C696 1.490 . S
C692 H682 0.930 . S
C692 C691 1.400 . S
C692 C695 1.386 . S
H693 C709 0.930 . S
H694 C710 0.931 . S
C695 H683 0.929 . S
C695 C689 1.390 . S
C695 C692 1.386 . S
C696 C691 1.490 . S
C696 C698 1.395 . S
C696 C699 1.403 . S
H697 C703 0.930 . S
C698 H684 0.930 . S
C698 C696 1.395 . S
C698 C701 1.403 . S
C699 C696 1.403 . S
C699 C700 1.524 . S
C699 C703 1.400 . S
C700 H685 0.960 . S
C700 H686 0.960 . S
C700 H687 0.960 . S
C700 C699 1.524 . S
C701 C698 1.403 . S
C701 C702 1.392 . S
C701 C705 1.495 . S
C702 C701 1.392 . S
C702 C703 1.385 . S
C702 C704 1.478 . S
C703 H697 0.930 . S
C703 C699 1.400 . S
C703 C702 1.385 . S
C704 C702 1.478 . S
C704 C706 1.381 . S
C704 C710 1.383 . S
C705 C701 1.495 . S
C705 H711 0.959 . S
C705 H712 0.961 . S
C705 H713 0.960 . S
C706 C704 1.381 . S
C706 C707 1.394 . S
C706 H714 0.930 . S
C707 C706 1.394 . S
C707 C708 1.383 . S
C707 H715 0.929 . S
C708 C707 1.383 . S
C708 C709 1.377 . S
C709 H693 0.930 . S
C709 C708 1.377 . S
C709 C710 1.379 . S
C710 H694 0.931 . S
C710 C704 1.383 . S
C710 C709 1.379 . S
H711 C705 0.959 . S
H712 C705 0.961 . S
H713 C705 0.960 . S
H714 C706 0.930 . S
H715 C707 0.929 . S
H716 C724 0.929 . S
H717 C726 0.930 . S
H718 C728 0.930 . S
H719 C731 0.929 . S
H720 C734 0.930 . S
H721 C736 0.960 . S
H722 C736 0.960 . S
H723 C736 0.960 . S
C724 H716 0.929 . S
C724 C725 1.377 . S
C724 C726 1.384 . S
C725 C724 1.377 . S
C725 C731 1.390 . S
C726 H717 0.930 . S
C726 C724 1.384 . S
C726 C727 1.372 . S
C727 C726 1.372 . S
C727 C728 1.400 . S
C727 C732 1.490 . S
C728 H718 0.930 . S
C728 C727 1.400 . S
C728 C731 1.386 . S
H729 C745 0.930 . S
H730 C746 0.931 . S
C731 H719 0.929 . S
C731 C725 1.390 . S
C731 C728 1.386 . S
C732 C727 1.490 . S
C732 C734 1.395 . S
C732 C735 1.403 . S
H733 C739 0.930 . S
C734 H720 0.930 . S
C734 C732 1.395 . S
C734 C737 1.403 . S
C735 C732 1.403 . S
C735 C736 1.524 . S
C735 C739 1.400 . S
C736 H721 0.960 . S
C736 H722 0.960 . S
C736 H723 0.960 . S
C736 C735 1.524 . S
C737 C734 1.403 . S
C737 C738 1.392 . S
C737 C741 1.495 . S
C738 C737 1.392 . S
C738 C739 1.385 . S
C738 C740 1.478 . S
C739 H733 0.930 . S
C739 C735 1.400 . S
C739 C738 1.385 . S
C740 C738 1.478 . S
C740 C742 1.381 . S
C740 C746 1.383 . S
C741 C737 1.495 . S
C741 H747 0.959 . S
C741 H748 0.961 . S
C741 H749 0.960 . S
C742 C740 1.381 . S
C742 C743 1.394 . S
C742 H750 0.930 . S
C743 C742 1.394 . S
C743 C744 1.383 . S
C743 H751 0.929 . S
C744 C743 1.383 . S
C744 C745 1.377 . S
C745 H729 0.930 . S
C745 C744 1.377 . S
C745 C746 1.379 . S
C746 H730 0.931 . S
C746 C740 1.383 . S
C746 C745 1.379 . S
H747 C741 0.959 . S
H748 C741 0.961 . S
H749 C741 0.960 . S
H750 C742 0.930 . S
H751 C743 0.929 . S
H752 C760 0.929 . S
H753 C762 0.930 . S
H754 C764 0.930 . S
H755 C767 0.929 . S
H756 C770 0.930 . S
H757 C772 0.960 . S
H758 C772 0.960 . S
H759 C772 0.960 . S
C760 H752 0.929 . S
C760 C761 1.377 . S
C760 C762 1.384 . S
C761 C760 1.377 . S
C761 C767 1.390 1_554 S
C762 H753 0.930 . S
C762 C760 1.384 . S
C762 C763 1.372 . S
C763 C762 1.372 . S
C763 C764 1.400 1_554 S
C763 C768 1.490 . S
C764 H754 0.930 . S
C764 C763 1.400 1_556 S
C764 C767 1.386 . S
H765 C781 0.930 . S
H766 C782 0.931 . S
C767 H755 0.929 . S
C767 C761 1.390 1_556 S
C767 C764 1.386 . S
C768 C763 1.490 . S
C768 C770 1.395 1_554 S
C768 C771 1.403 . S
H769 C775 0.930 . S
C770 H756 0.930 . S
C770 C768 1.395 1_556 S
C770 C773 1.403 . S
C771 C768 1.403 . S
C771 C772 1.524 . S
C771 C775 1.400 . S
C772 H757 0.960 . S
C772 H758 0.960 . S
C772 H759 0.960 . S
C772 C771 1.524 . S
C773 C770 1.403 . S
C773 C774 1.392 1_556 S
C773 C777 1.495 . S
C774 C773 1.392 1_554 S
C774 C775 1.385 . S
C774 C776 1.478 . S
C775 H769 0.930 . S
C775 C771 1.400 . S
C775 C774 1.385 . S
C776 C774 1.478 . S
C776 C778 1.381 . S
C776 C782 1.383 1_554 S
C777 C773 1.495 . S
C777 H783 0.959 . S
C777 H784 0.961 . S
C777 H785 0.960 . S
C778 C776 1.381 . S
C778 C779 1.394 . S
C778 H786 0.930 . S
C779 C778 1.394 . S
C779 C780 1.383 . S
C779 H787 0.929 . S
C780 C779 1.383 . S
C780 C781 1.377 1_554 S
C781 H765 0.930 . S
C781 C780 1.377 1_556 S
C781 C782 1.379 . S
C782 H766 0.931 . S
C782 C776 1.383 1_556 S
C782 C781 1.379 . S
H783 C777 0.959 . S
H784 C777 0.961 . S
H785 C777 0.960 . S
H786 C778 0.930 . S
H787 C779 0.929 . S
H788 C796 0.929 . S
H789 C798 0.930 . S
H790 C800 0.930 . S
H791 C803 0.929 . S
H792 C806 0.930 . S
H793 C808 0.960 . S
H794 C808 0.960 . S
H795 C808 0.960 . S
C796 H788 0.929 . S
C796 C797 1.377 . S
C796 C798 1.384 . S
C797 C796 1.377 . S
C797 C803 1.390 . S
C798 H789 0.930 . S
C798 C796 1.384 . S
C798 C799 1.372 . S
C799 C798 1.372 . S
C799 C800 1.400 . S
C799 C804 1.490 . S
C800 H790 0.930 . S
C800 C799 1.400 . S
C800 C803 1.386 . S
H801 C817 0.930 . S
H802 C818 0.931 . S
C803 H791 0.929 . S
C803 C797 1.390 . S
C803 C800 1.386 . S
C804 C799 1.490 . S
C804 C806 1.395 . S
C804 C807 1.403 . S
H805 C811 0.930 . S
C806 H792 0.930 . S
C806 C804 1.395 . S
C806 C809 1.403 . S
C807 C804 1.403 . S
C807 C808 1.524 . S
C807 C811 1.400 . S
C808 H793 0.960 . S
C808 H794 0.960 . S
C808 H795 0.960 . S
C808 C807 1.524 . S
C809 C806 1.403 . S
C809 C810 1.392 . S
C809 C813 1.495 . S
C810 C809 1.392 . S
C810 C811 1.385 . S
C810 C812 1.478 . S
C811 H805 0.930 . S
C811 C807 1.400 . S
C811 C810 1.385 . S
C812 C810 1.478 . S
C812 C814 1.381 . S
C812 C818 1.383 . S
C813 C809 1.495 . S
C813 H819 0.959 . S
C813 H820 0.961 . S
C813 H821 0.960 . S
C814 C812 1.381 . S
C814 C815 1.394 . S
C814 H822 0.930 . S
C815 C814 1.394 . S
C815 C816 1.383 . S
C815 H823 0.929 . S
C816 C815 1.383 . S
C816 C817 1.377 . S
C817 H801 0.930 . S
C817 C816 1.377 . S
C817 C818 1.379 . S
C818 H802 0.931 . S
C818 C812 1.383 . S
C818 C817 1.379 . S
H819 C813 0.959 . S
H820 C813 0.961 . S
H821 C813 0.960 . S
H822 C814 0.930 . S
H823 C815 0.929 . S
H824 C832 0.929 . S
H825 C834 0.930 . S
H826 C836 0.930 . S
H827 C839 0.929 . S
H828 C842 0.930 . S
H829 C844 0.960 . S
H830 C844 0.960 1_556 S
H831 C844 0.960 . S
C832 H824 0.929 . S
C832 C833 1.377 1_556 S
C832 C834 1.384 . S
C833 C832 1.377 1_554 S
C833 C839 1.390 . S
C834 H825 0.930 . S
C834 C832 1.384 . S
C834 C835 1.372 1_556 S
C835 C834 1.372 1_554 S
C835 C836 1.400 . S
C835 C840 1.490 . S
C836 H826 0.930 . S
C836 C835 1.400 . S
C836 C839 1.386 . S
H837 C853 0.930 . S
H838 C854 0.931 . S
C839 H827 0.929 . S
C839 C833 1.390 . S
C839 C836 1.386 . S
C840 C835 1.490 . S
C840 C842 1.395 . S
C840 C843 1.403 . S
H841 C847 0.930 . S
C842 H828 0.930 . S
C842 C840 1.395 . S
C842 C845 1.403 . S
C843 C840 1.403 . S
C843 C844 1.524 . S
C843 C847 1.400 . S
C844 H829 0.960 . S
C844 H830 0.960 1_554 S
C844 H831 0.960 . S
C844 C843 1.524 . S
C845 C842 1.403 . S
C845 C846 1.392 . S
C845 C849 1.495 . S
C846 C845 1.392 . S
C846 C847 1.385 . S
C846 C848 1.478 . S
C847 H841 0.930 . S
C847 C843 1.400 . S
C847 C846 1.385 . S
C848 C846 1.478 . S
C848 C850 1.381 1_554 S
C848 C854 1.383 . S
C849 C845 1.495 . S
C849 H855 0.959 . S
C849 H856 0.961 . S
C849 H857 0.960 1_554 S
C850 C848 1.381 1_556 S
C850 C851 1.394 . S
C850 H858 0.930 . S
C851 C850 1.394 . S
C851 C852 1.383 1_556 S
C851 H859 0.929 . S
C852 C851 1.383 1_554 S
C852 C853 1.377 . S
C853 H837 0.930 . S
C853 C852 1.377 . S
C853 C854 1.379 . S
C854 H838 0.931 . S
C854 C848 1.383 . S
C854 C853 1.379 . S
H855 C849 0.959 . S
H856 C849 0.961 . S
H857 C849 0.960 1_556 S
H858 C850 0.930 . S
H859 C851 0.929 . S
H860 C868 0.929 . S
H861 C870 0.930 . S
H862 C872 0.930 . S
H863 C875 0.929 . S
H864 C878 0.930 . S
H865 C880 0.960 . S
H866 C880 0.960 . S
H867 C880 0.960 . S
C868 H860 0.929 . S
C868 C869 1.377 . S
C868 C870 1.384 . S
C869 C868 1.377 . S
C869 C875 1.390 . S
C870 H861 0.930 . S
C870 C868 1.384 . S
C870 C871 1.372 . S
C871 C870 1.372 . S
C871 C872 1.400 . S
C871 C876 1.490 . S
C872 H862 0.930 . S
C872 C871 1.400 . S
C872 C875 1.386 . S
H873 C889 0.930 . S
H874 C890 0.931 . S
C875 H863 0.929 . S
C875 C869 1.390 . S
C875 C872 1.386 . S
C876 C871 1.490 . S
C876 C878 1.395 . S
C876 C879 1.403 . S
H877 C883 0.930 . S
C878 H864 0.930 . S
C878 C876 1.395 . S
C878 C881 1.403 . S
C879 C876 1.403 . S
C879 C880 1.524 . S
C879 C883 1.400 . S
C880 H865 0.960 . S
C880 H866 0.960 . S
C880 H867 0.960 . S
C880 C879 1.524 . S
C881 C878 1.403 . S
C881 C882 1.392 . S
C881 C885 1.495 . S
C882 C881 1.392 . S
C882 C883 1.385 . S
C882 C884 1.478 . S
C883 H877 0.930 . S
C883 C879 1.400 . S
C883 C882 1.385 . S
C884 C882 1.478 . S
C884 C886 1.381 . S
C884 C890 1.383 . S
C885 C881 1.495 . S
C885 H891 0.959 . S
C885 H892 0.961 . S
C885 H893 0.960 . S
C886 C884 1.381 . S
C886 C887 1.394 . S
C886 H894 0.930 . S
C887 C886 1.394 . S
C887 C888 1.383 . S
C887 H895 0.929 . S
C888 C887 1.383 . S
C888 C889 1.377 . S
C889 H873 0.930 . S
C889 C888 1.377 . S
C889 C890 1.379 . S
C890 H874 0.931 . S
C890 C884 1.383 . S
C890 C889 1.379 . S
H891 C885 0.959 . S
H892 C885 0.961 . S
H893 C885 0.960 . S
H894 C886 0.930 . S
H895 C887 0.929 . S
H896 C904 0.929 . S
H897 C906 0.930 . S
H898 C908 0.930 . S
H899 C911 0.929 . S
H900 C914 0.930 . S
H901 C916 0.960 . S
H902 C916 0.960 . S
H903 C916 0.960 . S
C904 H896 0.929 . S
C904 C905 1.377 . S
C904 C906 1.384 . S
C905 C904 1.377 . S
C905 C911 1.390 . S
C906 H897 0.930 . S
C906 C904 1.384 . S
C906 C907 1.372 . S
C907 C906 1.372 . S
C907 C908 1.400 . S
C907 C912 1.490 . S
C908 H898 0.930 . S
C908 C907 1.400 . S
C908 C911 1.386 . S
H909 C925 0.930 . S
H910 C926 0.931 . S
C911 H899 0.929 . S
C911 C905 1.390 . S
C911 C908 1.386 . S
C912 C907 1.490 . S
C912 C914 1.395 . S
C912 C915 1.403 . S
H913 C919 0.930 . S
C914 H900 0.930 . S
C914 C912 1.395 . S
C914 C917 1.403 . S
C915 C912 1.403 . S
C915 C916 1.524 . S
C915 C919 1.400 . S
C916 H901 0.960 . S
C916 H902 0.960 . S
C916 H903 0.960 . S
C916 C915 1.524 . S
C917 C914 1.403 . S
C917 C918 1.392 . S
C917 C921 1.495 . S
C918 C917 1.392 . S
C918 C919 1.385 . S
C918 C920 1.478 . S
C919 H913 0.930 . S
C919 C915 1.400 . S
C919 C918 1.385 . S
C920 C918 1.478 . S
C920 C922 1.381 . S
C920 C926 1.383 . S
C921 C917 1.495 . S
C921 H927 0.959 . S
C921 H928 0.961 . S
C921 H929 0.960 . S
C922 C920 1.381 . S
C922 C923 1.394 . S
C922 H930 0.930 . S
C923 C922 1.394 . S
C923 C924 1.383 . S
C923 H931 0.929 . S
C924 C923 1.383 . S
C924 C925 1.377 . S
C925 H909 0.930 . S
C925 C924 1.377 . S
C925 C926 1.379 . S
C926 H910 0.931 . S
C926 C920 1.383 . S
C926 C925 1.379 . S
H927 C921 0.959 . S
H928 C921 0.961 . S
H929 C921 0.960 . S
H930 C922 0.930 . S
H931 C923 0.929 . S
H932 C940 0.929 . S
H933 C942 0.930 . S
H934 C944 0.930 . S
H935 C947 0.929 . S
H936 C950 0.930 . S
H937 C952 0.960 . S
H938 C952 0.960 . S
H939 C952 0.960 . S
C940 H932 0.929 . S
C940 C941 1.377 . S
C940 C942 1.384 . S
C941 C940 1.377 . S
C941 C947 1.390 1_554 S
C942 H933 0.930 . S
C942 C940 1.384 . S
C942 C943 1.372 . S
C943 C942 1.372 . S
C943 C944 1.400 1_554 S
C943 C948 1.490 . S
C944 H934 0.930 . S
C944 C943 1.400 1_556 S
C944 C947 1.386 . S
H945 C961 0.930 . S
H946 C962 0.931 . S
C947 H935 0.929 . S
C947 C941 1.390 1_556 S
C947 C944 1.386 . S
C948 C943 1.490 . S
C948 C950 1.395 . S
C948 C951 1.403 1_554 S
H949 C955 0.930 . S
C950 H936 0.930 . S
C950 C948 1.395 . S
C950 C953 1.403 . S
C951 C948 1.403 1_556 S
C951 C952 1.524 . S
C951 C955 1.400 . S
C952 H937 0.960 . S
C952 H938 0.960 . S
C952 H939 0.960 . S
C952 C951 1.524 . S
C953 C950 1.403 . S
C953 C954 1.392 . S
C953 C957 1.495 . S
C954 C953 1.392 . S
C954 C955 1.385 1_554 S
C954 C956 1.478 . S
C955 H949 0.930 . S
C955 C951 1.400 . S
C955 C954 1.385 1_556 S
C956 C954 1.478 . S
C956 C958 1.381 . S
C956 C962 1.383 1_554 S
C957 C953 1.495 . S
C957 H963 0.959 . S
C957 H964 0.961 . S
C957 H965 0.960 . S
C958 C956 1.381 . S
C958 C959 1.394 . S
C958 H966 0.930 . S
C959 C958 1.394 . S
C959 C960 1.383 . S
C959 H967 0.929 . S
C960 C959 1.383 . S
C960 C961 1.377 1_554 S
C961 H945 0.930 . S
C961 C960 1.377 1_556 S
C961 C962 1.379 . S
C962 H946 0.931 . S
C962 C956 1.383 1_556 S
C962 C961 1.379 . S
H963 C957 0.959 . S
H964 C957 0.961 . S
H965 C957 0.960 . S
H966 C958 0.930 . S
H967 C959 0.929 . S
H968 C976 0.929 . S
H969 C978 0.930 . S
H970 C980 0.930 . S
H971 C983 0.929 . S
H972 C986 0.930 . S
H973 C988 0.960 . S
H974 C988 0.960 . S
H975 C988 0.960 . S
C976 H968 0.929 . S
C976 C977 1.377 . S
C976 C978 1.384 . S
C977 C976 1.377 . S
C977 C983 1.390 . S
C978 H969 0.930 . S
C978 C976 1.384 . S
C978 C979 1.372 . S
C979 C978 1.372 . S
C979 C980 1.400 . S
C979 C984 1.490 . S
C980 H970 0.930 . S
C980 C979 1.400 . S
C980 C983 1.386 . S
H981 C997 0.930 . S
H982 C998 0.931 . S
C983 H971 0.929 . S
C983 C977 1.390 . S
C983 C980 1.386 . S
C984 C979 1.490 . S
C984 C986 1.395 . S
C984 C987 1.403 . S
H985 C991 0.930 . S
C986 H972 0.930 . S
C986 C984 1.395 . S
C986 C989 1.403 . S
C987 C984 1.403 . S
C987 C988 1.524 . S
C987 C991 1.400 . S
C988 H973 0.960 . S
C988 H974 0.960 . S
C988 H975 0.960 . S
C988 C987 1.524 . S
C989 C986 1.403 . S
C989 C990 1.392 . S
C989 C993 1.495 . S
C990 C989 1.392 . S
C990 C991 1.385 . S
C990 C992 1.478 . S
C991 H985 0.930 . S
C991 C987 1.400 . S
C991 C990 1.385 . S
C992 C990 1.478 . S
C992 C994 1.381 . S
C992 C998 1.383 . S
C993 C989 1.495 . S
C993 H999 0.959 . S
C993 H1000 0.961 . S
C993 H1001 0.960 . S
C994 C992 1.381 . S
C994 C995 1.394 . S
C994 H1002 0.930 . S
C995 C994 1.394 . S
C995 C996 1.383 . S
C995 H1003 0.929 . S
C996 C995 1.383 . S
C996 C997 1.377 . S
C997 H981 0.930 . S
C997 C996 1.377 . S
C997 C998 1.379 . S
C998 H982 0.931 . S
C998 C992 1.383 . S
C998 C997 1.379 . S
H999 C993 0.959 . S
H1000 C993 0.961 . S
H1001 C993 0.960 . S
H1002 C994 0.930 . S
H1003 C995 0.929 . S
H1004 C1012 0.929 . S
H1005 C1014 0.930 . S
H1006 C1016 0.930 . S
H1007 C1019 0.929 . S
H1008 C1022 0.930 . S
H1009 C1024 0.960 . S
H1010 C1024 0.960 . S
H1011 C1024 0.960 . S
C1012 H1004 0.929 . S
C1012 C1013 1.377 1_556 S
C1012 C1014 1.384 . S
C1013 C1012 1.377 1_554 S
C1013 C1019 1.390 . S
C1014 H1005 0.930 . S
C1014 C1012 1.384 . S
C1014 C1015 1.372 1_556 S
C1015 C1014 1.372 1_554 S
C1015 C1016 1.400 . S
C1015 C1020 1.490 . S
C1016 H1006 0.930 . S
C1016 C1015 1.400 . S
C1016 C1019 1.386 . S
H1017 C1033 0.930 . S
H1018 C1034 0.931 . S
C1019 H1007 0.929 . S
C1019 C1013 1.390 . S
C1019 C1016 1.386 . S
C1020 C1015 1.490 . S
C1020 C1022 1.395 1_554 S
C1020 C1023 1.403 . S
H1021 C1027 0.930 . S
C1022 H1008 0.930 . S
C1022 C1020 1.395 1_556 S
C1022 C1025 1.403 . S
C1023 C1020 1.403 . S
C1023 C1024 1.524 . S
C1023 C1027 1.400 . S
C1024 H1009 0.960 . S
C1024 H1010 0.960 . S
C1024 H1011 0.960 . S
C1024 C1023 1.524 . S
C1025 C1022 1.403 . S
C1025 C1026 1.392 1_556 S
C1025 C1029 1.495 . S
C1026 C1025 1.392 1_554 S
C1026 C1027 1.385 . S
C1026 C1028 1.478 . S
C1027 H1021 0.930 . S
C1027 C1023 1.400 . S
C1027 C1026 1.385 . S
C1028 C1026 1.478 . S
C1028 C1030 1.381 1_554 S
C1028 C1034 1.383 . S
C1029 C1025 1.495 . S
C1029 H1035 0.959 . S
C1029 H1036 0.961 . S
C1029 H1037 0.960 . S
C1030 C1028 1.381 1_556 S
C1030 C1031 1.394 . S
C1030 H1038 0.930 . S
C1031 C1030 1.394 . S
C1031 C1032 1.383 1_556 S
C1031 H1039 0.929 . S
C1032 C1031 1.383 1_554 S
C1032 C1033 1.377 . S
C1033 H1017 0.930 . S
C1033 C1032 1.377 . S
C1033 C1034 1.379 . S
C1034 H1018 0.931 . S
C1034 C1028 1.383 . S
C1034 C1033 1.379 . S
H1035 C1029 0.959 . S
H1036 C1029 0.961 . S
H1037 C1029 0.960 . S
H1038 C1030 0.930 . S
H1039 C1031 0.929 . S
C185 C5 1.438 . S
C204 C125 1.457 . S
C221 C31 1.449 . S
C240 C92 1.469 . S
C276 C104 1.479 . S
C257 C53 1.473 . S
C293 C71 1.461 . S
C312 C115 1.467 . S
C348 C148 1.465 . S
C329 C75 1.461 . S
C384 C159 1.437 . S
C365 C9 1.475 . S
C420 C169 1.449 . S
C401 C27 1.454 . S
C456 C136 1.439 . S
C437 C49 1.434 . S
C473 C51 1.433 . S
C492 C103 1.450 . S
C509 C72 1.449 . S
C528 C114 1.450 . S
C545 C6 1.472 . S
C564 C126 1.467 . S
C600 C93 1.454 . S
C581 C29 1.457 . S
C617 C28 1.462 . S
C636 C170 1.431 . S
C672 C137 1.466 . S
C653 C50 1.472 . S
C708 C147 1.465 . S
C689 C73 1.448 . S
C725 C7 1.440 . S
C744 C158 1.436 . S
C780 C98 1.504 . S
C761 C4 1.501 . S
C816 C109 1.509 . S
C797 C30 1.498 . S
C833 C52 1.500 . S
C852 C120 1.515 . S
C869 C70 1.503 . S
C888 C131 1.499 . S
C924 C142 1.506 . S
C905 C74 1.500 . S
C941 C8 1.498 . S
C960 C153 1.510 . S
C977 C26 1.500 . S
C996 C164 1.515 . S
C1013 C48 1.503 . S
C1032 C175 1.497 . S
