# Generated by pormake.
# Topology anh, (6,3)-cn, num edge types: 1
# Building blocks:
#     Node 0, Type 0, BuildingBlock: NUHQIS_clean_sbu_0, # of connection points: 6
#     Node 1, Type 0, BuildingBlock: NUHQIS_clean_sbu_0, # of connection points: 6
#     Node 2, Type 0, BuildingBlock: NUHQIS_clean_sbu_0, # of connection points: 6
#     Node 3, Type 1, BuildingBlock: CUQRIR_clean_linker_1, # of connection points: 3
#     Node 4, Type 1, BuildingBlock: CUQRIR_clean_linker_1, # of connection points: 3
#     Node 5, Type 1, BuildingBlock: CUQRIR_clean_linker_1, # of connection points: 3
#     Node 6, Type 1, BuildingBlock: CUQRIR_clean_linker_1, # of connection points: 3
#     Node 7, Type 1, BuildingBlock: CUQRIR_clean_linker_1, # of connection points: 3
#     Node 8, Type 1, BuildingBlock: CUQRIR_clean_linker_1, # of connection points: 3
#     Edge 9, Type (0, 1), BuildingBlock: EZIPEK_clean_linker_0, # of connection points: 2
#     Edge 10, Type (0, 1), BuildingBlock: EZIPEK_clean_linker_0, # of connection points: 2
#     Edge 11, Type (0, 1), BuildingBlock: EZIPEK_clean_linker_0, # of connection points: 2
#     Edge 12, Type (0, 1), BuildingBlock: EZIPEK_clean_linker_0, # of connection points: 2
#     Edge 13, Type (0, 1), BuildingBlock: EZIPEK_clean_linker_0, # of connection points: 2
#     Edge 14, Type (0, 1), BuildingBlock: EZIPEK_clean_linker_0, # of connection points: 2
#     Edge 15, Type (0, 1), BuildingBlock: EZIPEK_clean_linker_0, # of connection points: 2
#     Edge 16, Type (0, 1), BuildingBlock: EZIPEK_clean_linker_0, # of connection points: 2
#     Edge 17, Type (0, 1), BuildingBlock: EZIPEK_clean_linker_0, # of connection points: 2
#     Edge 18, Type (0, 1), BuildingBlock: EZIPEK_clean_linker_0, # of connection points: 2
#     Edge 19, Type (0, 1), BuildingBlock: EZIPEK_clean_linker_0, # of connection points: 2
#     Edge 20, Type (0, 1), BuildingBlock: EZIPEK_clean_linker_0, # of connection points: 2
#     Edge 21, Type (0, 1), BuildingBlock: EZIPEK_clean_linker_0, # of connection points: 2
#     Edge 22, Type (0, 1), BuildingBlock: EZIPEK_clean_linker_0, # of connection points: 2
#     Edge 23, Type (0, 1), BuildingBlock: EZIPEK_clean_linker_0, # of connection points: 2
#     Edge 24, Type (0, 1), BuildingBlock: EZIPEK_clean_linker_0, # of connection points: 2
#     Edge 25, Type (0, 1), BuildingBlock: EZIPEK_clean_linker_0, # of connection points: 2
#     Edge 26, Type (0, 1), BuildingBlock: EZIPEK_clean_linker_0, # of connection points: 2
# Relax obj value: 0.455
# Max RMSD: 0.234
# Mean RMSD: 0.169
data_MOF--net-anh--node1-NUHQIS_clean_sbu_0--node2-CUQRIR_clean_linker_1--edge1-EZIPEK_clean_linker_0
_symmetry_space_group_name_H-M    P1
_symmetry_Int_Tables_number       1
_symmetry_cell_setting            triclinic
loop_
_symmetry_equiv_pos_as_xyz
'x, y, z'
_cell_length_a     20.372737
_cell_length_b     20.331459
_cell_length_c     33.943684
_cell_angle_alpha  85.685139
_cell_angle_beta   91.815047
_cell_angle_gamma 119.16112
loop_
_atom_site_label
_atom_site_type_symbol
_atom_site_fract_x
_atom_site_fract_y
_atom_site_fract_z
_atom_type_partial_charge
Tb0 Tb 0.2741 0.60542 0.17552 0.0
Eu1 Eu 0.19184 0.69629 0.1542 0.0
C2 C 0.22851 0.67805 0.24346 0.0
C3 C 1.0842 0.51011 0.17728 0.0
C4 C 0.39152 0.52017 0.2169 0.0
C5 C 0.44959 0.44968 0.24726 0.0
C6 C 0.3867 0.45161 0.23104 0.0
C7 C 0.45735 0.58763 0.22273 0.0
C8 C 0.52043 0.58601 0.23883 0.0
C9 C 0.51947 0.51649 0.24894 0.0
C10 C 0.32902 0.51942 0.19407 0.0
O11 O 0.29003 0.63043 0.11072 0.0
O12 O 0.18186 0.63269 0.10083 0.0
O13 O 0.31764 0.79196 0.16589 0.0
O14 O 0.37655 0.72264 0.17966 0.0
C15 C 0.23826 0.62918 0.08635 0.0
O16 O 0.20497 0.78721 0.11145 0.0
O17 O 1.10855 0.73449 0.15111 0.0
O18 O 0.19188 0.70064 0.2189 0.0
O19 O 0.26785 0.64716 0.23208 0.0
O20 O 1.15037 0.5113 0.17405 0.0
O21 O 1.08683 0.57733 0.17276 0.0
C22 C 0.38179 0.79117 0.17496 0.0
O23 O 0.27677 0.52106 0.21419 0.0
O24 O 0.34626 0.5638 0.16192 0.0
C25 C 1.08928 0.76062 0.08435 0.0
C26 C 0.98464 0.72596 0.02256 0.0
C27 C 1.04023 0.80136 0.02744 0.0
C28 C 1.09138 0.81858 0.05857 0.0
C29 C 1.04219 0.68541 0.07602 0.0
C30 C 0.99057 0.66808 0.04546 0.0
C31 C 1.13838 0.77752 0.11885 0.0
H32 H 0.4437 0.39488 0.25576 0.0
H33 H 0.33524 0.39897 0.22768 0.0
H34 H 0.46136 0.64138 0.21282 0.0
H35 H 0.57113 0.63975 0.2401 0.0
H36 H 1.04098 0.84762 0.00927 0.0
H37 H 1.13051 0.87708 0.06338 0.0
H38 H 1.04265 0.63979 0.09445 0.0
H39 H 0.95112 0.60899 0.04259 0.0
Tb40 Tb 0.82677 0.2231 0.50721 0.0
Eu41 Eu 0.65121 0.1445 0.49094 0.0
C42 C 0.71468 0.16042 0.5793 0.0
C43 C 0.73122 1.03381 0.51345 0.0
C44 C 1.02377 0.2817 0.48925 0.0
C45 C 1.14786 0.36216 0.46224 0.0
C46 C 1.0988 0.33523 0.49446 0.0
C47 C 1.0017 0.24524 0.45388 0.0
C48 C 1.05069 0.27251 0.4215 0.0
C49 C 1.12086 0.33807 0.4241 0.0
C50 C 0.96683 0.27807 0.51581 0.0
O51 O 0.8231 0.2268 0.44172 0.0
O52 O 0.69694 0.17038 0.42843 0.0
O53 O 0.68413 0.27181 0.49538 0.0
O54 O 0.80442 0.32052 0.51768 0.0
C55 C 0.76703 0.20293 0.41635 0.0
O56 O 0.5452 1.06161 0.46594 0.0
O57 O 0.54812 0.14808 0.50071 0.0
O58 O 0.65821 0.12498 0.55584 0.0
O59 O 0.78265 0.20748 0.56633 0.0
O60 O 0.79608 1.09884 0.51265 0.0
O61 O 0.66848 1.03825 0.50617 0.0
C62 C 0.74459 0.32997 0.50952 0.0
O63 O 0.93466 0.31699 0.50237 0.0
O64 O 0.91789 0.21118 0.53007 0.0
C65 C 0.44218 1.02839 0.50761 0.0
C66 C 0.32439 0.90274 0.54859 0.0
C67 C 0.31272 0.92974 0.51088 0.0
C68 C 0.37125 0.99152 0.4905 0.0
C69 C 0.45239 1.00742 0.54672 0.0
C70 C 0.39363 0.9456 0.56724 0.0
C71 C 0.5059 1.08562 0.48386 0.0
H72 H 0.20289 0.40991 0.4665 0.0
H73 H 1.11722 0.36259 0.52197 0.0
H74 H 0.94422 0.20167 0.4499 0.0
H75 H 1.02951 0.24896 0.39337 0.0
H76 H 0.2601 0.89975 0.49552 0.0
H77 H 0.36209 1.00795 0.4606 0.0
H78 H 0.50662 1.03675 0.56081 0.0
H79 H 0.4041 0.92972 0.59684 0.0
Tb80 Tb 0.70938 0.75597 0.84451 0.0
Eu81 Eu 0.62087 0.58229 0.83434 0.0
C82 C 0.64962 0.64311 0.91817 0.0
C83 C 0.80706 0.66158 0.84773 0.0
C84 C 0.86748 0.9437 0.83636 0.0
C85 C 0.93507 1.07057 0.80692 0.0
C86 C 0.89804 1.02116 0.83948 0.0
C87 C 0.89089 0.91816 0.8052 0.0
C88 C 0.92857 0.96791 0.77284 0.0
C89 C 0.93702 1.04109 0.7707 0.0
C90 C 0.797 0.89157 0.85697 0.0
O91 O 0.71775 0.75682 0.77981 0.0
O92 O 0.63797 0.63211 0.77049 0.0
O93 O 0.52452 0.61112 0.84608 0.0
O94 O 0.59034 0.73974 0.84515 0.0
C95 C 0.68263 0.70157 0.75615 0.0
O96 O 0.59817 0.47963 0.80683 0.0
O97 O 0.52236 0.47518 0.85157 0.0
O98 O 0.65784 0.59584 0.89764 0.0
O99 O 0.65004 0.70204 0.89991 0.0
O100 O 0.80327 0.72533 0.84759 0.0
O101 O 0.74262 0.5981 0.84333 0.0
C102 C 0.52395 0.67602 0.84847 0.0
O103 O 0.73769 0.8695 0.83449 0.0
O104 O 0.79684 0.83527 0.87807 0.0
C105 C 0.53972 0.3693 0.84899 0.0
C106 C 0.55964 0.24876 0.88067 0.0
C107 C 0.53186 0.24841 0.84215 0.0
C108 C 0.52189 0.3081 0.82648 0.0
C109 C 0.5618 0.36735 0.88855 0.0
C110 C 0.57035 0.30655 0.90457 0.0
C111 C 0.54046 0.43654 0.82966 0.0
H112 H 0.94788 0.12865 0.80825 0.0
H113 H 0.88397 1.04232 0.86441 0.0
H114 H 0.87082 0.85847 0.80313 0.0
H115 H 0.93674 0.94478 0.74695 0.0
H116 H 0.52267 0.20433 0.82313 0.0
H117 H 0.50423 0.3084 0.79604 0.0
H118 H 0.5757 0.41417 0.90646 0.0
H119 H 0.58926 0.30692 0.93475 0.0
C120 C 0.73632 0.15234 0.18684 0.0
N121 N 0.78679 0.20597 0.21239 0.0
N122 N 0.673 1.09137 0.20568 0.0
C123 C 0.75007 0.15812 0.14338 0.0
C124 C 0.68733 1.11165 0.24364 0.0
N125 N 0.7543 0.17683 0.24819 0.0
C126 C 0.63394 1.06661 0.2773 0.0
H127 H 0.72642 0.19212 0.12822 0.0
H128 H 0.72183 1.10125 0.13169 0.0
H129 H 0.81128 0.18683 0.137 0.0
H130 H 0.57512 1.03601 0.26676 0.0
H131 H 0.637 1.10347 0.30057 0.0
H132 H 0.64918 1.02441 0.29068 0.0
C133 C 0.73822 0.68313 0.52698 0.0
N134 N 0.73282 0.73146 0.55262 0.0
N135 N 0.73519 0.61808 0.54591 0.0
C136 C 0.74697 0.69934 0.48315 0.0
C137 C 0.72764 0.62939 0.5842 0.0
N138 N 0.72746 0.69606 0.58869 0.0
C139 C 0.72183 0.57477 0.61838 0.0
H140 H 0.69099 0.66859 0.46921 0.0
H141 H 0.78348 0.67875 0.47152 0.0
H142 H 0.77081 0.76065 0.47512 0.0
H143 H 0.7784 0.59394 0.63135 0.0
H144 H 0.70104 0.51689 0.60914 0.0
H145 H 0.68391 0.5728 0.64173 0.0
C146 C 1.17026 0.67183 0.85863 0.0
N147 N 0.22443 0.66735 0.8835 0.0
N148 N 1.10618 0.66097 0.87846 0.0
C149 C 1.18083 0.68925 0.81494 0.0
C150 C 1.12406 0.6488 0.91631 0.0
N151 N 0.19393 0.65444 0.91978 0.0
C152 C 1.07127 0.62975 0.95062 0.0
H153 H 0.24141 0.72432 0.80742 0.0
H154 H 1.14943 0.71859 0.80377 0.0
H155 H 1.15848 0.63559 0.80023 0.0
H156 H 1.01317 0.5899 0.9417 0.0
H157 H 1.07264 0.68196 0.95924 0.0
H158 H 1.08629 0.60362 0.97667 0.0
C159 C 1.17661 0.60348 0.46594 0.0
N160 N 0.18166 0.59979 0.42668 0.0
N161 N 0.19668 0.67488 0.47428 0.0
C162 C 1.15482 0.53817 0.49598 0.0
C163 C 0.21293 0.71405 0.4386 0.0
N164 N 0.20414 0.66838 0.40974 0.0
C165 C 0.24051 0.79731 0.43236 0.0
H166 H 1.10329 0.48835 0.48615 0.0
H167 H 1.14495 0.55204 0.52545 0.0
H168 H 0.20035 0.52304 0.49818 0.0
H169 H 0.29386 0.82814 0.44866 0.0
H170 H 0.19865 0.81041 0.44454 0.0
H171 H 0.25007 0.81706 0.40065 0.0
C172 C 0.70785 1.07675 0.80355 0.0
N173 N 0.72077 1.08035 0.76443 0.0
N174 N 0.65497 1.09682 0.80995 0.0
C175 C 0.75186 1.06095 0.83536 0.0
C176 C 0.63501 1.11114 0.77326 0.0
N177 N 0.67569 1.10207 0.74575 0.0
C178 C 0.58151 0.14135 0.76463 0.0
H179 H 0.72575 1.05215 0.86485 0.0
H180 H 0.81 1.10905 0.83545 0.0
H181 H 0.7549 1.01 0.82879 0.0
H182 H 0.6088 0.2011 0.77222 0.0
H183 H 0.53032 1.10893 0.78324 0.0
H184 H 0.56532 0.13829 0.73304 0.0
C185 C 0.74172 0.57421 0.1195 0.0
N186 N 0.72916 0.59039 0.08168 0.0
N187 N 0.67927 0.55124 0.14158 0.0
C188 C 0.81579 0.58447 0.13494 0.0
C189 C 0.62802 0.55297 0.11562 0.0
N190 N 0.65861 0.57681 0.07912 0.0
C191 C 0.5502 0.53579 0.12666 0.0
H192 H 0.80982 0.5568 0.16506 0.0
H193 H 0.85608 0.64568 0.13568 0.0
H194 H 0.83932 0.56087 0.11458 0.0
H195 H 0.51855 0.54117 0.10056 0.0
H196 H 0.55398 0.57503 0.14877 0.0
H197 H 0.51934 0.47767 0.14079 0.0
C198 C 0.65869 0.58206 0.24605 0.0
C199 C 0.59194 0.51314 0.25268 0.0
C200 C 0.62559 0.46193 0.19961 0.0
C201 C 0.67007 0.5369 0.18364 0.0
N202 N 0.74229 0.66963 0.19477 0.0
N203 N 0.56103 0.38305 0.25852 0.0
C204 C 0.69338 0.59767 0.20839 0.0
C205 C 0.59198 0.45072 0.23719 0.0
N206 N 0.68294 0.63329 0.27404 0.0
N207 N 0.61234 0.40299 0.17796 0.0
H208 H 0.53874 0.37736 0.28668 0.0
H209 H 0.56319 0.33618 0.24962 0.0
H210 H 0.63832 0.41149 0.15058 0.0
H211 H 0.57454 0.34705 0.18678 0.0
H212 H 0.7333 0.6841 0.27166 0.0
H213 H 0.65346 0.6208 0.30066 0.0
H214 H 0.75512 0.71654 0.21043 0.0
H215 H 0.7677 0.68213 0.16707 0.0
C216 C 1.09748 0.41858 0.37659 0.0
C217 C 1.14968 0.39524 0.38954 0.0
C218 C 0.23733 0.52411 0.40435 0.0
C219 C 1.17449 0.53626 0.40713 0.0
N220 N 1.04268 0.4932 0.39564 0.0
N221 N 0.28053 0.43557 0.38893 0.0
C222 C 1.10403 0.48404 0.39199 0.0
C223 C 0.22457 0.45307 0.39237 0.0
N224 N 1.04014 0.37572 0.35247 0.0
N225 N 0.30614 0.57663 0.41681 0.0
H226 H 0.26787 0.3811 0.3826 0.0
H227 H 0.3375 0.47472 0.39 0.0
H228 H 0.31468 0.6264 0.42812 0.0
H229 H 0.35342 0.56956 0.41765 0.0
H230 H 1.0016 0.39211 0.3413 0.0
H231 H 1.03715 0.3282 0.34086 0.0
H232 H 0.98894 0.45302 0.38739 0.0
H233 H 1.04492 0.53723 0.41054 0.0
C234 C 0.84122 1.01219 0.72022 0.0
C235 C 0.911 1.06787 0.73403 0.0
C236 C 0.85413 0.14609 0.74379 0.0
C237 C 0.78355 1.07935 0.74667 0.0
N238 N 0.70854 0.94706 0.7357 0.0
N239 N 0.9893 0.20121 0.73064 0.0
C240 C 0.77582 1.01183 0.73318 0.0
C241 C 0.91906 0.14066 0.73428 0.0
N242 N 0.83815 0.95851 0.69746 0.0
N243 N 0.8575 0.21111 0.7537 0.0
H244 H 1.03557 0.19348 0.72621 0.0
H245 H 1.00074 0.25708 0.72965 0.0
H246 H 0.90688 0.26258 0.75477 0.0
H247 H 0.90688 0.26258 0.75477 0.0
H248 H 0.78806 0.9177 0.68569 0.0
H249 H 0.88736 0.96069 0.68775 0.0
H250 H 0.70223 0.89519 0.72872 0.0
H251 H 0.6613 0.94478 0.74815 0.0
C252 C 0.87838 0.74846 0.01892 0.0
C253 C 0.91101 0.70888 0.00361 0.0
C254 C 0.79903 0.59093 0.02316 0.0
C255 C 0.78513 0.63066 0.05146 0.0
N256 N 0.81103 0.74989 0.07552 0.0
N257 N 0.87974 0.60006 0.96881 0.0
C258 C 0.82364 0.71063 0.04875 0.0
C259 C 0.86138 0.63254 -0.00305 0.0
N260 N 0.90111 0.82122 0.00579 0.0
N261 N 0.75651 0.51437 0.02354 0.0
H262 H 0.92784 0.6324 0.95153 0.0
H263 H 0.84656 0.54452 0.96145 0.0
H264 H 0.71285 0.48375 0.04385 0.0
H265 H 0.7656 0.48136 0.00481 0.0
H266 H 0.8764 0.85164 0.01543 0.0
H267 H 0.939 0.8469 0.98225 0.0
H268 H 0.84256 0.80846 0.07597 0.0
H269 H 0.77262 0.72312 0.09867 0.0
C270 C 0.19592 0.79361 0.5518 0.0
C271 C 0.27202 0.82267 0.56263 0.0
C272 C 0.27906 0.72291 0.53199 0.0
C273 C 0.21133 0.70684 0.51199 0.0
N274 N 1.09445 0.70858 0.51013 0.0
N275 N 0.35465 0.77781 0.58931 0.0
C276 C 1.16488 0.7347 0.5253 0.0
C277 C 0.30268 0.77391 0.56205 0.0
N278 N 1.15856 0.82935 0.56311 0.0
N279 N 0.32351 0.69494 0.52034 0.0
H280 H 0.36752 0.81152 0.61313 0.0
H281 H 0.37651 0.74078 0.59096 0.0
H282 H 0.3088 0.65864 0.49765 0.0
H283 H 0.37714 0.71193 0.5317 0.0
H284 H 1.10334 0.8141 0.55551 0.0
H285 H 0.18452 0.87433 0.58137 0.0
H286 H 1.05773 0.72773 0.51736 0.0
H287 H 1.07252 0.6655 0.49064 0.0
C288 C 0.66829 0.22831 0.8845 0.0
C289 C 0.59046 0.19698 0.89109 0.0
C290 C 0.56945 1.08073 0.86363 0.0
C291 C 0.64102 0.12238 0.84546 0.0
N292 N 0.76114 0.23654 0.83924 0.0
N293 N 0.47001 1.08689 0.89863 0.0
C294 C 0.69242 0.19555 0.85709 0.0
C295 C 0.5426 1.11954 0.88581 0.0
N296 N 0.71798 0.29143 0.90248 0.0
N297 N 0.52656 1.00611 0.8572 0.0
H298 H 0.45163 1.11669 0.9148 0.0
H299 H 0.42901 1.03222 0.89327 0.0
H300 H 0.54658 0.97854 0.84039 0.0
H301 H 0.47406 0.97114 0.87006 0.0
H302 H 0.77606 0.31427 0.9003 0.0
H303 H 0.7008 0.31501 0.92335 0.0
H304 H 0.79682 0.29347 0.84336 0.0
H305 H 0.7805 0.21548 0.81815 0.0
C306 C 0.67937 0.8847 0.5057 0.0
C307 C 0.72977 0.95387 0.52388 0.0
C308 C 0.78709 0.87674 0.55711 0.0
C309 C 0.73154 0.80605 0.54289 0.0
N310 N 0.61549 0.74607 0.50734 0.0
N311 N 0.81956 1.00212 0.57674 0.0
C312 C 0.67525 0.81154 0.51826 0.0
C313 C 0.78 0.9455 0.5523 0.0
N314 N 0.63724 0.88856 0.4745 0.0
N315 N 0.85068 0.88044 0.57318 0.0
H316 H 0.81343 1.0501 0.5766 0.0
H317 H 0.85101 0.99692 0.60039 0.0
H318 H 0.86112 0.83531 0.57263 0.0
H319 H 0.89654 0.93054 0.58136 0.0
H320 H 0.60566 0.84343 0.45715 0.0
H321 H 0.64029 0.93903 0.46319 0.0
H322 H 0.56815 0.74372 0.49345 0.0
H323 H 0.61034 0.69333 0.51571 0.0
C324 C 0.94557 0.71505 0.87811 0.0
C325 C 0.8865 0.66246 0.85378 0.0
C326 C 0.97495 0.60849 0.84485 0.0
C327 C 1.03565 0.66546 0.86596 0.0
N328 N 1.0793 0.78318 0.89514 0.0
N329 N 0.85922 0.56909 0.80671 0.0
C330 C 1.02063 0.72164 0.88001 0.0
C331 C 0.9055 0.61193 0.83533 0.0
N332 N 0.92916 0.75568 0.9024 0.0
N333 N 0.98228 0.54884 0.83463 0.0
H334 H 0.81186 0.57245 0.79704 0.0
H335 H 0.87244 0.53688 0.78945 0.0
H336 H 1.03112 0.54533 0.84048 0.0
H337 H 0.93823 0.50073 0.82344 0.0
H338 H 0.96652 0.78934 0.92334 0.0
H339 H 0.87521 0.74804 0.90567 0.0
H340 H 1.07596 0.83039 0.90233 0.0
H341 H 1.13347 0.78996 0.89644 0.0
C342 C 0.52194 0.8745 0.2058 0.0
C343 C 0.46099 0.86953 0.18049 0.0
C344 C 0.54364 1.01423 0.17026 0.0
C345 C 0.60591 1.01742 0.19277 0.0
N346 N 0.65535 0.94192 0.22443 0.0
N347 N 0.43229 0.94248 0.13021 0.0
C348 C 0.59469 0.94469 0.20804 0.0
C349 C 0.47745 0.94196 0.16063 0.0
N350 N 0.51018 0.81318 0.23015 0.0
N351 N 0.54614 1.081 0.15856 0.0
H352 H 0.38879 0.89335 0.11965 0.0
H353 H 0.44403 0.99071 0.11214 0.0
H354 H 0.59241 0.13287 0.16432 0.0
H355 H 0.50035 1.08455 0.14628 0.0
H356 H 0.54739 0.81507 0.25237 0.0
H357 H 0.45998 0.76258 0.23153 0.0
H358 H 0.65593 0.89168 0.23226 0.0
H359 H 0.70771 0.99024 0.22609 0.0
C360 C 0.80686 0.48189 0.51066 0.0
C361 C 0.74314 0.40694 0.51728 0.0
C362 C 0.67196 0.47591 0.53394 0.0
C363 C 0.73715 0.54937 0.53163 0.0
N364 N 0.87081 0.61681 0.52328 0.0
N365 N 0.61825 0.33926 0.54557 0.0
C366 C 0.80553 0.55028 0.52149 0.0
C367 C 0.67656 0.40637 0.53136 0.0
N368 N 0.86873 0.48915 0.49214 0.0
N369 N 0.60404 0.47217 0.5389 0.0
H370 H 0.62052 0.28905 0.54786 0.0
H371 H 0.57161 0.33493 0.55979 0.0
H372 H 0.59914 0.52049 0.54135 0.0
H373 H 0.55296 0.42276 0.53673 0.0
H374 H 0.91391 0.5411 0.48275 0.0
H375 H 0.87158 0.44321 0.48242 0.0
H376 H 0.9237 0.62124 0.52115 0.0
H377 H 0.87156 0.66642 0.53005 0.0
C378 C 0.4404 0.7267 0.88181 0.0
C379 C 0.44623 0.67605 0.85628 0.0
C380 C 0.30334 0.61643 0.85089 0.0
C381 C 0.29911 0.67149 0.87327 0.0
N382 N 0.37277 0.79209 0.8997 0.0
N383 N 0.3771 0.58258 0.80948 0.0
C384 C 0.37045 0.72995 0.88581 0.0
C385 C 0.37562 0.6236 0.83913 0.0
N386 N 0.50082 0.77023 0.90428 0.0
N387 N 0.23762 0.555 0.84145 0.0
H388 H 0.42691 0.58867 0.79826 0.0
H389 H 0.33003 0.54936 0.79289 0.0
H390 H 0.18533 0.54787 0.84926 0.0
H391 H 0.23522 0.5083 0.82934 0.0
H392 H 0.49833 0.80221 0.92619 0.0
H393 H 0.55068 0.76778 0.90432 0.0
H394 H 0.42257 0.83996 0.90642 0.0
H395 H 0.32542 0.79903 0.89914 0.0
C396 C 0.93376 0.41443 0.16874 0.0
C397 C 1.00568 0.43092 0.18626 0.0
C398 C 0.9331 0.29462 0.21684 0.0
C399 C 0.86025 0.28119 0.20307 0.0
N400 N 0.79535 0.34019 0.16917 0.0
N401 N 1.06148 0.38322 0.23628 0.0
C402 C 0.86244 0.34482 0.17994 0.0
C403 C 1.00122 0.36959 0.21277 0.0
N404 N 0.93315 0.46365 0.13932 0.0
N405 N 0.93913 0.23395 0.23197 0.0
H406 H 1.10958 0.43591 0.23633 0.0
H407 H 1.06005 0.34504 0.25896 0.0
H408 H 0.89388 0.17955 0.23161 0.0
H409 H 0.99025 0.23643 0.23944 0.0
H410 H 0.88609 0.45287 0.12219 0.0
H411 H 0.98182 0.51168 0.12914 0.0
H412 H 0.79025 0.38586 0.15669 0.0
H413 H 0.74414 0.29206 0.17616 0.0
C414 C 0.22824 0.57715 0.01857 0.0
C415 C 0.24868 0.63944 0.04195 0.0
C416 C 0.24997 0.71656 0.98207 0.0
C417 C 0.22891 0.6546 0.95824 0.0
N418 N 0.20766 0.529 0.95283 0.0
N419 N 0.30142 0.77365 0.04392 0.0
C420 C 0.2225 0.58621 0.97626 0.0
C421 C 0.26724 0.71085 0.02286 0.0
N422 N 0.21086 0.50861 0.0371 0.0
N423 N 0.24706 0.77902 0.96655 0.0
H424 H 0.31558 0.77127 0.07362 0.0
H425 H 0.32269 0.82836 0.03104 0.0
H426 H 0.23303 0.78496 0.93724 0.0
H427 H 0.25213 0.82188 0.9835 0.0
H428 H 0.18837 0.4586 0.02291 0.0
H429 H 0.21684 0.50154 0.06754 0.0
H430 H 0.20737 0.47918 0.96274 0.0
H431 H 0.20009 0.53389 0.92246 0.0
C432 C 0.76801 0.26036 0.34633 0.0
C433 C 0.7824 0.21026 0.37216 0.0
C434 C 0.80315 0.15664 0.31372 0.0
C435 C 0.78319 0.20253 0.28763 0.0
N436 N 0.74526 0.297 0.27916 0.0
N437 N 0.83223 0.12441 0.38007 0.0
C438 C 0.76731 0.25563 0.30409 0.0
C439 C 0.80677 0.16358 0.35562 0.0
N440 N 0.75641 0.31351 0.36241 0.0
N441 N 0.81032 1.09998 0.29865 0.0
H442 H 0.83083 0.12359 0.41077 0.0
H443 H 0.85992 1.09724 0.37005 0.0
H444 H 0.80486 1.09082 0.26867 0.0
H445 H 0.81503 1.05792 0.31585 0.0
H446 H 0.75122 0.35605 0.34604 0.0
H447 H 0.75722 0.31835 0.39284 0.0
H448 H 0.72486 0.33138 0.28826 0.0
H449 H 0.74493 0.29444 0.2486 0.0
C450 C 0.64252 0.71013 0.68431 0.0
C451 C 0.69913 0.7163 0.71187 0.0
C452 C 0.78257 0.73547 0.65535 0.0
C453 C 0.72286 0.72005 0.62799 0.0
N454 N 0.59381 0.68656 0.61729 0.0
N455 N 0.82378 0.7343 0.72355 0.0
C456 C 0.65268 0.70722 0.64275 0.0
C457 C 0.77001 0.7307 0.69722 0.0
N458 N 0.57906 0.7079 0.69794 0.0
N459 N 0.85087 0.75088 0.64108 0.0
H460 H 0.81725 0.73148 0.75406 0.0
H461 H 0.87353 0.73598 0.71574 0.0
H462 H 0.8592 0.74498 0.61172 0.0
H463 H 0.89996 0.77214 0.65761 0.0
H464 H 0.53856 0.71087 0.67958 0.0
H465 H 0.57013 0.70962 0.72787 0.0
H466 H 0.53866 0.66756 0.62615 0.0
H467 H 0.59975 0.68402 0.58716 0.0
C468 C 0.72192 0.20802 0.64609 0.0
C469 C 0.7005 0.1464 0.62216 0.0
C470 C 0.64277 1.05817 0.67939 0.0
C471 C 0.67647 1.11868 0.70393 0.0
N472 N 0.7494 0.25184 0.71217 0.0
N473 N 0.65038 1.01187 0.61748 0.0
C474 C 0.71625 0.19405 0.68774 0.0
C475 C 0.66298 1.07097 0.63907 0.0
N476 N 0.74427 0.2789 0.6291 0.0
N477 N 0.59017 0.98882 0.6947 0.0
H478 H 0.66775 1.01869 0.58826 0.0
H479 H 0.62981 0.95689 0.6299 0.0
H480 H 0.57267 0.9796 0.72414 0.0
H481 H 0.55878 0.94347 0.67741 0.0
H482 H 0.75378 0.32444 0.64511 0.0
H483 H 0.74602 0.29076 0.59861 0.0
H484 H 0.7864 0.30733 0.70224 0.0
H485 H 0.74373 0.2433 0.74282 0.0
C486 C 0.58853 0.54975 0.97626 0.0
C487 C 0.63322 0.62605 0.96137 0.0
C488 C 0.64707 0.66326 0.02926 0.0
C489 C 0.62563 0.58869 0.04306 0.0
N490 N 0.56893 0.45777 0.03073 0.0
N491 N 0.71013 0.75757 0.97637 0.0
C492 C 0.59296 0.53061 0.0169 0.0
C493 C 0.66244 0.68406 0.98845 0.0
N494 N 0.53974 0.49667 0.95216 0.0
N495 N 0.65594 0.71425 0.05558 0.0
H496 H 0.72998 0.77559 0.9476 0.0
H497 H 0.73679 0.79966 -0.00389 0.0
H498 H 0.64467 0.69823 0.08563 0.0
H499 H 0.66706 0.76905 0.04701 0.0
H500 H 0.50253 0.44135 0.96233 0.0
H501 H 0.52995 0.51081 0.92326 0.0
H502 H 0.55226 0.41374 0.01221 0.0
H503 H 0.56963 0.44284 0.06079 0.0
C504 C 1.15198 0.65405 0.30438 0.0
C505 C 0.22361 0.68569 0.28595 0.0
C506 C 0.28486 0.71909 0.3501 0.0
C507 C 0.21315 0.68711 0.36792 0.0
N508 N 1.08368 0.65427 0.3613 0.0
N509 N 0.35749 0.76807 0.28942 0.0
C510 C 1.14833 0.66454 0.34469 0.0
C511 C 0.29018 0.72419 0.30827 0.0
N512 N 1.08775 0.60981 0.28443 0.0
N513 N 0.34734 0.74404 0.3732 0.0
H514 H 0.36179 0.77638 0.25875 0.0
H515 H 0.40721 0.80219 0.3039 0.0
H516 H 0.34496 0.74639 0.40367 0.0
H517 H 0.40061 0.75967 0.36241 0.0
H518 H 1.03527 0.57979 0.29819 0.0
H519 H 1.08752 0.59667 0.25532 0.0
H520 H 1.0357 0.6435 0.34495 0.0
H521 H 1.08131 0.66437 0.3908 0.0
loop_
_geom_bond_atom_site_label_1
_geom_bond_atom_site_label_2
_geom_bond_distance
_geom_bond_site_symmetry_2
_ccdc_geom_bond_type
Tb0 C10 2.825 . S
Tb0 O11 2.347 . S
Tb0 O14 2.366 . S
Tb0 O19 2.418 . S
Tb0 O20 2.384 1_455 S
Tb0 O23 2.479 . S
Tb0 O24 2.471 . S
Eu1 O12 2.418 . S
Eu1 O13 2.384 1_655 S
Eu1 O16 2.479 . S
Eu1 O17 2.471 . S
Eu1 O18 2.347 . S
Eu1 O21 2.366 . S
Eu1 C31 2.825 . S
C2 O18 1.259 1_455 S
C2 O19 1.265 . S
C3 O20 1.255 . S
C3 O21 1.265 . S
C4 C6 1.380 . S
C4 C7 1.374 . S
C4 C10 1.507 . S
C5 C6 1.384 . S
C5 C9 1.387 . S
C5 H32 0.930 . S
C6 C4 1.380 . S
C6 C5 1.384 . S
C6 H33 0.931 . S
C7 C4 1.374 . S
C7 C8 1.390 . S
C7 H34 0.930 . S
C8 C7 1.390 . S
C8 C9 1.391 . S
C8 H35 0.930 . S
C9 C5 1.387 . S
C9 C8 1.391 . S
C10 Tb0 2.825 . S
C10 C4 1.507 . S
C10 O23 1.238 . S
C10 O24 1.247 . S
O11 Tb0 2.347 . S
O11 C15 1.259 . S
O12 Eu1 2.418 . S
O12 C15 1.265 1_655 S
O13 Eu1 2.384 1_455 S
O13 C22 1.255 . S
O14 Tb0 2.366 . S
O14 C22 1.265 . S
C15 O11 1.259 . S
C15 O12 1.265 1_455 S
O16 Eu1 2.479 . S
O16 C31 1.238 . S
O17 Eu1 2.471 . S
O17 C31 1.247 . S
O18 Eu1 2.347 . S
O18 C2 1.259 1_655 S
O19 Tb0 2.418 . S
O19 C2 1.265 . S
O20 Tb0 2.384 1_655 S
O20 C3 1.255 . S
O21 Eu1 2.366 . S
O21 C3 1.265 . S
C22 O13 1.255 . S
C22 O14 1.265 . S
O23 Tb0 2.479 . S
O23 C10 1.238 . S
O24 Tb0 2.471 . S
O24 C10 1.247 . S
C25 C28 1.380 . S
C25 C29 1.374 . S
C25 C31 1.507 . S
C26 C27 1.387 . S
C26 C30 1.391 . S
C27 C26 1.387 . S
C27 C28 1.384 . S
C27 H36 0.930 . S
C28 C25 1.380 . S
C28 C27 1.384 . S
C28 H37 0.931 . S
C29 C25 1.374 . S
C29 C30 1.390 . S
C29 H38 0.930 . S
C30 C26 1.391 . S
C30 C29 1.390 . S
C30 H39 0.930 . S
C31 Eu1 2.825 . S
C31 O16 1.238 . S
C31 O17 1.247 . S
C31 C25 1.507 . S
H32 C5 0.930 . S
H33 C6 0.931 . S
H34 C7 0.930 . S
H35 C8 0.930 . S
H36 C27 0.930 . S
H37 C28 0.931 . S
H38 C29 0.930 . S
H39 C30 0.930 . S
Tb40 C50 2.825 . S
Tb40 O51 2.347 . S
Tb40 O54 2.366 . S
Tb40 O59 2.418 . S
Tb40 O60 2.384 1_545 S
Tb40 O63 2.479 . S
Tb40 O64 2.471 . S
Eu41 O52 2.418 1_565 S
Eu41 O53 2.384 1_565 S
Eu41 O56 2.479 . S
Eu41 O57 2.471 . S
Eu41 O58 2.347 1_565 S
Eu41 O61 2.366 . S
Eu41 C71 2.825 . S
C42 O58 1.259 . S
C42 O59 1.265 . S
C43 O60 1.255 . S
C43 O61 1.265 . S
C44 C46 1.380 . S
C44 C47 1.374 . S
C44 C50 1.507 . S
C45 C46 1.384 . S
C45 C49 1.387 . S
C45 H72 0.930 . S
C46 C44 1.380 . S
C46 C45 1.384 . S
C46 H73 0.931 . S
C47 C44 1.374 . S
C47 C48 1.390 . S
C47 H74 0.930 . S
C48 C47 1.390 . S
C48 C49 1.391 . S
C48 H75 0.930 . S
C49 C45 1.387 . S
C49 C48 1.391 . S
C50 Tb40 2.825 . S
C50 C44 1.507 . S
C50 O63 1.238 . S
C50 O64 1.247 . S
O51 Tb40 2.347 . S
O51 C55 1.259 . S
O52 Eu41 2.418 1_545 S
O52 C55 1.265 . S
O53 Eu41 2.384 1_545 S
O53 C62 1.255 . S
O54 Tb40 2.366 . S
O54 C62 1.265 . S
C55 O51 1.259 . S
C55 O52 1.265 . S
O56 Eu41 2.479 . S
O56 C71 1.238 . S
O57 Eu41 2.471 . S
O57 C71 1.247 . S
O58 Eu41 2.347 1_545 S
O58 C42 1.259 . S
O59 Tb40 2.418 . S
O59 C42 1.265 . S
O60 Tb40 2.384 1_565 S
O60 C43 1.255 . S
O61 Eu41 2.366 . S
O61 C43 1.265 . S
C62 O53 1.255 . S
C62 O54 1.265 . S
O63 Tb40 2.479 . S
O63 C50 1.238 . S
O64 Tb40 2.471 . S
O64 C50 1.247 . S
C65 C68 1.380 . S
C65 C69 1.374 . S
C65 C71 1.507 . S
C66 C67 1.387 . S
C66 C70 1.391 . S
C67 C66 1.387 . S
C67 C68 1.384 . S
C67 H76 0.930 . S
C68 C65 1.380 . S
C68 C67 1.384 . S
C68 H77 0.931 . S
C69 C65 1.374 . S
C69 C70 1.390 . S
C69 H78 0.930 . S
C70 C66 1.391 . S
C70 C69 1.390 . S
C70 H79 0.930 . S
C71 Eu41 2.825 . S
C71 O56 1.238 . S
C71 O57 1.247 . S
C71 C65 1.507 . S
H72 C45 0.930 . S
H73 C46 0.931 . S
H74 C47 0.930 . S
H75 C48 0.930 . S
H76 C67 0.930 . S
H77 C68 0.931 . S
H78 C69 0.930 . S
H79 C70 0.930 . S
Tb80 C90 2.825 . S
Tb80 O91 2.347 . S
Tb80 O94 2.366 . S
Tb80 O99 2.418 . S
Tb80 O100 2.384 . S
Tb80 O103 2.479 . S
Tb80 O104 2.471 . S
Eu81 O92 2.418 . S
Eu81 O93 2.384 . S
Eu81 O96 2.479 . S
Eu81 O97 2.471 . S
Eu81 O98 2.347 . S
Eu81 O101 2.366 . S
Eu81 C111 2.825 . S
C82 O98 1.259 . S
C82 O99 1.265 . S
C83 O100 1.255 . S
C83 O101 1.265 . S
C84 C86 1.380 . S
C84 C87 1.374 . S
C84 C90 1.507 . S
C85 C86 1.384 . S
C85 C89 1.387 . S
C85 H112 0.930 . S
C86 C84 1.380 . S
C86 C85 1.384 . S
C86 H113 0.931 . S
C87 C84 1.374 . S
C87 C88 1.390 . S
C87 H114 0.930 . S
C88 C87 1.390 . S
C88 C89 1.391 . S
C88 H115 0.930 . S
C89 C85 1.387 . S
C89 C88 1.391 . S
C90 Tb80 2.825 . S
C90 C84 1.507 . S
C90 O103 1.238 . S
C90 O104 1.247 . S
O91 Tb80 2.347 . S
O91 C95 1.259 . S
O92 Eu81 2.418 . S
O92 C95 1.265 . S
O93 Eu81 2.384 . S
O93 C102 1.255 . S
O94 Tb80 2.366 . S
O94 C102 1.265 . S
C95 O91 1.259 . S
C95 O92 1.265 . S
O96 Eu81 2.479 . S
O96 C111 1.238 . S
O97 Eu81 2.471 . S
O97 C111 1.247 . S
O98 Eu81 2.347 . S
O98 C82 1.259 . S
O99 Tb80 2.418 . S
O99 C82 1.265 . S
O100 Tb80 2.384 . S
O100 C83 1.255 . S
O101 Eu81 2.366 . S
O101 C83 1.265 . S
C102 O93 1.255 . S
C102 O94 1.265 . S
O103 Tb80 2.479 . S
O103 C90 1.238 . S
O104 Tb80 2.471 . S
O104 C90 1.247 . S
C105 C108 1.380 . S
C105 C109 1.374 . S
C105 C111 1.507 . S
C106 C107 1.387 . S
C106 C110 1.391 . S
C107 C106 1.387 . S
C107 C108 1.384 . S
C107 H116 0.930 . S
C108 C105 1.380 . S
C108 C107 1.384 . S
C108 H117 0.931 . S
C109 C105 1.374 . S
C109 C110 1.390 . S
C109 H118 0.930 . S
C110 C106 1.391 . S
C110 C109 1.390 . S
C110 H119 0.930 . S
C111 Eu81 2.825 . S
C111 O96 1.238 . S
C111 O97 1.247 . S
C111 C105 1.507 . S
H112 C85 0.930 . S
H113 C86 0.931 . S
H114 C87 0.930 . S
H115 C88 0.930 . S
H116 C107 0.930 . S
H117 C108 0.931 . S
H118 C109 0.930 . S
H119 C110 0.930 . S
C120 N121 1.317 1_565 S
C120 N122 1.348 . S
C120 C123 1.485 1_565 S
N121 C120 1.317 1_545 S
N121 N125 1.370 . S
N122 C120 1.348 . S
N122 C124 1.346 . S
C123 C120 1.485 1_545 S
C123 H127 0.960 . S
C123 H128 0.961 1_545 S
C123 H129 0.960 . S
C124 N122 1.346 . S
C124 N125 1.307 1_565 S
C124 C126 1.486 . S
N125 N121 1.370 . S
N125 C124 1.307 1_545 S
C126 C124 1.486 . S
C126 H130 0.960 . S
C126 H131 0.960 . S
C126 H132 0.959 . S
H127 C123 0.960 . S
H128 C123 0.961 1_565 S
H129 C123 0.960 . S
H130 C126 0.960 . S
H131 C126 0.960 . S
H132 C126 0.959 . S
C133 N134 1.317 . S
C133 N135 1.348 . S
C133 C136 1.485 . S
N134 C133 1.317 . S
N134 N138 1.370 . S
N135 C133 1.348 . S
N135 C137 1.346 . S
C136 C133 1.485 . S
C136 H140 0.960 . S
C136 H141 0.961 . S
C136 H142 0.960 . S
C137 N135 1.346 . S
C137 N138 1.307 . S
C137 C139 1.486 . S
N138 N134 1.370 . S
N138 C137 1.307 . S
C139 C137 1.486 . S
C139 H143 0.960 . S
C139 H144 0.960 . S
C139 H145 0.959 . S
H140 C136 0.960 . S
H141 C136 0.961 . S
H142 C136 0.960 . S
H143 C139 0.960 . S
H144 C139 0.960 . S
H145 C139 0.959 . S
C146 N147 1.317 . S
C146 N148 1.348 1_455 S
C146 C149 1.485 . S
N147 C146 1.317 . S
N147 N151 1.370 . S
N148 C146 1.348 1_655 S
N148 C150 1.346 . S
C149 C146 1.485 . S
C149 H153 0.960 . S
C149 H154 0.961 . S
C149 H155 0.960 . S
C150 N148 1.346 . S
C150 N151 1.307 1_655 S
C150 C152 1.486 . S
N151 N147 1.370 . S
N151 C150 1.307 1_455 S
C152 C150 1.486 . S
C152 H156 0.960 . S
C152 H157 0.960 . S
C152 H158 0.959 . S
H153 C149 0.960 . S
H154 C149 0.961 . S
H155 C149 0.960 . S
H156 C152 0.960 . S
H157 C152 0.960 . S
H158 C152 0.959 . S
C159 N160 1.317 1_455 S
C159 N161 1.348 . S
C159 C162 1.485 . S
N160 C159 1.317 1_655 S
N160 N164 1.370 1_655 S
N161 C159 1.348 . S
N161 C163 1.346 . S
C162 C159 1.485 . S
C162 H166 0.959 . S
C162 H167 0.961 . S
C162 H168 0.960 1_455 S
C163 N161 1.346 . S
C163 N164 1.307 . S
C163 C165 1.486 . S
N164 N160 1.370 1_455 S
N164 C163 1.307 . S
C165 C163 1.486 . S
C165 H169 0.960 . S
C165 H170 0.960 . S
C165 H171 0.959 . S
H166 C162 0.959 . S
H167 C162 0.961 . S
H168 C162 0.960 1_655 S
H169 C165 0.960 . S
H170 C165 0.960 . S
H171 C165 0.959 . S
C172 N173 1.317 1_545 S
C172 N174 1.348 . S
C172 C175 1.485 . S
N173 C172 1.317 1_565 S
N173 N177 1.370 1_565 S
N174 C172 1.348 . S
N174 C176 1.346 . S
C175 C172 1.485 . S
C175 H179 0.960 1_545 S
C175 H180 0.961 . S
C175 H181 0.960 1_545 S
C176 N174 1.346 . S
C176 N177 1.307 . S
C176 C178 1.486 . S
N177 N173 1.370 1_545 S
N177 C176 1.307 . S
C178 C176 1.486 . S
C178 H182 0.960 . S
C178 H183 0.960 . S
C178 H184 0.959 . S
H179 C175 0.960 1_565 S
H180 C175 0.961 . S
H181 C175 0.960 1_565 S
H182 C178 0.960 . S
H183 C178 0.960 . S
H184 C178 0.959 . S
C185 N186 1.317 . S
C185 N187 1.348 . S
C185 C188 1.485 . S
N186 C185 1.317 . S
N186 N190 1.370 . S
N187 C185 1.348 . S
N187 C189 1.346 . S
C188 C185 1.485 . S
C188 H192 0.960 . S
C188 H193 0.961 . S
C188 H194 0.960 . S
C189 N187 1.346 . S
C189 N190 1.307 . S
C189 C191 1.486 . S
N190 N186 1.370 . S
N190 C189 1.307 . S
C191 C189 1.486 . S
C191 H195 0.960 . S
C191 H196 0.960 . S
C191 H197 0.959 . S
H192 C188 0.960 . S
H193 C188 0.961 . S
H194 C188 0.960 . S
H195 C191 0.960 . S
H196 C191 0.960 . S
H197 C191 0.959 . S
C198 C199 1.363 . S
C198 C204 1.379 . S
C198 N206 1.356 . S
C199 C198 1.363 . S
C199 C205 1.363 . S
C200 C201 1.363 . S
C200 C205 1.379 . S
C200 N207 1.356 . S
C201 C200 1.363 . S
C201 C204 1.363 . S
N202 C204 1.356 . S
N202 H214 0.984 . S
N202 H215 0.985 . S
N203 C205 1.356 . S
N203 H208 0.984 . S
N203 H209 0.985 . S
C204 C198 1.379 . S
C204 C201 1.363 . S
C204 N202 1.356 . S
C205 C199 1.363 . S
C205 C200 1.379 . S
C205 N203 1.356 . S
N206 C198 1.356 . S
N206 H212 0.984 . S
N206 H213 0.984 . S
N207 C200 1.356 . S
N207 H210 0.984 . S
N207 H211 0.985 . S
H208 N203 0.984 . S
H209 N203 0.985 . S
H210 N207 0.984 . S
H211 N207 0.985 . S
H212 N206 0.984 . S
H213 N206 0.984 . S
H214 N202 0.984 . S
H215 N202 0.985 . S
C216 C217 1.363 . S
C216 C222 1.379 . S
C216 N224 1.356 . S
C217 C216 1.363 . S
C217 C223 1.363 . S
C218 C219 1.363 . S
C218 C223 1.379 . S
C218 N225 1.356 1_655 S
C219 C218 1.363 . S
C219 C222 1.363 . S
N220 C222 1.356 . S
N220 H232 0.984 . S
N220 H233 0.985 . S
N221 C223 1.356 . S
N221 H226 0.984 . S
N221 H227 0.985 . S
C222 C216 1.379 . S
C222 C219 1.363 . S
C222 N220 1.356 . S
C223 C217 1.363 . S
C223 C218 1.379 . S
C223 N221 1.356 . S
N224 C216 1.356 . S
N224 H230 0.984 . S
N224 H231 0.984 . S
N225 C218 1.356 1_455 S
N225 H228 0.984 . S
N225 H229 0.985 . S
H226 N221 0.984 . S
H227 N221 0.985 . S
H228 N225 0.984 . S
H229 N225 0.985 . S
H230 N224 0.984 . S
H231 N224 0.984 . S
H232 N220 0.984 . S
H233 N220 0.985 . S
C234 C235 1.363 . S
C234 C240 1.379 . S
C234 N242 1.356 . S
C235 C234 1.363 . S
C235 C241 1.363 . S
C236 C237 1.363 . S
C236 C241 1.379 . S
C236 N243 1.356 1_565 S
C237 C236 1.363 . S
C237 C240 1.363 . S
N238 C240 1.356 . S
N238 H250 0.984 . S
N238 H251 0.985 . S
N239 C241 1.356 . S
N239 H244 0.984 . S
N239 H245 0.985 1_565 S
C240 C234 1.379 . S
C240 C237 1.363 . S
C240 N238 1.356 . S
C241 C235 1.363 . S
C241 C236 1.379 . S
C241 N239 1.356 . S
N242 C234 1.356 . S
N242 H248 0.984 . S
N242 H249 0.984 . S
N243 C236 1.356 1_545 S
N243 H246 0.984 . S
N243 H247 0.985 . S
H244 N239 0.984 . S
H245 N239 0.985 1_545 S
H246 N243 0.984 . S
H247 N243 0.985 . S
H248 N242 0.984 . S
H249 N242 0.984 . S
H250 N238 0.984 . S
H251 N238 0.985 . S
C252 C253 1.363 . S
C252 C258 1.379 . S
C252 N260 1.356 . S
C253 C252 1.363 . S
C253 C259 1.363 . S
C254 C255 1.363 . S
C254 C259 1.379 . S
C254 N261 1.356 . S
C255 C254 1.363 . S
C255 C258 1.363 . S
N256 C258 1.356 . S
N256 H268 0.984 . S
N256 H269 0.985 . S
N257 C259 1.356 . S
N257 H262 0.984 . S
N257 H263 0.985 . S
C258 C252 1.379 . S
C258 C255 1.363 . S
C258 N256 1.356 . S
C259 C253 1.363 . S
C259 C254 1.379 . S
C259 N257 1.356 . S
N260 C252 1.356 . S
N260 H266 0.984 . S
N260 H267 0.984 . S
N261 C254 1.356 . S
N261 H264 0.984 . S
N261 H265 0.985 . S
H262 N257 0.984 . S
H263 N257 0.985 . S
H264 N261 0.984 . S
H265 N261 0.985 . S
H266 N260 0.984 . S
H267 N260 0.984 . S
H268 N256 0.984 . S
H269 N256 0.985 . S
C270 C271 1.363 . S
C270 C276 1.379 . S
C270 N278 1.356 . S
C271 C270 1.363 . S
C271 C277 1.363 . S
C272 C273 1.363 . S
C272 C277 1.379 . S
C272 N279 1.356 . S
C273 C272 1.363 . S
C273 C276 1.363 . S
N274 C276 1.356 . S
N274 H286 0.984 . S
N274 H287 0.985 . S
N275 C277 1.356 . S
N275 H280 0.984 . S
N275 H281 0.985 . S
C276 C270 1.379 . S
C276 C273 1.363 . S
C276 N274 1.356 . S
C277 C271 1.363 . S
C277 C272 1.379 . S
C277 N275 1.356 . S
N278 C270 1.356 . S
N278 H284 0.984 . S
N278 H285 0.984 . S
N279 C272 1.356 . S
N279 H282 0.984 . S
N279 H283 0.985 . S
H280 N275 0.984 . S
H281 N275 0.985 . S
H282 N279 0.984 . S
H283 N279 0.985 . S
H284 N278 0.984 . S
H285 N278 0.984 . S
H286 N274 0.984 . S
H287 N274 0.985 . S
C288 C289 1.363 . S
C288 C294 1.379 . S
C288 N296 1.356 . S
C289 C288 1.363 . S
C289 C295 1.363 . S
C290 C291 1.363 . S
C290 C295 1.379 . S
C290 N297 1.356 . S
C291 C290 1.363 . S
C291 C294 1.363 . S
N292 C294 1.356 . S
N292 H304 0.984 . S
N292 H305 0.985 . S
N293 C295 1.356 . S
N293 H298 0.984 . S
N293 H299 0.985 . S
C294 C288 1.379 . S
C294 C291 1.363 . S
C294 N292 1.356 . S
C295 C289 1.363 . S
C295 C290 1.379 . S
C295 N293 1.356 . S
N296 C288 1.356 . S
N296 H302 0.984 . S
N296 H303 0.984 . S
N297 C290 1.356 . S
N297 H300 0.984 . S
N297 H301 0.985 . S
H298 N293 0.984 . S
H299 N293 0.985 . S
H300 N297 0.984 . S
H301 N297 0.985 . S
H302 N296 0.984 . S
H303 N296 0.984 . S
H304 N292 0.984 . S
H305 N292 0.985 . S
C306 C307 1.363 . S
C306 C312 1.379 . S
C306 N314 1.356 . S
C307 C306 1.363 . S
C307 C313 1.363 . S
C308 C309 1.363 . S
C308 C313 1.379 . S
C308 N315 1.356 . S
C309 C308 1.363 . S
C309 C312 1.363 . S
N310 C312 1.356 . S
N310 H322 0.984 . S
N310 H323 0.985 . S
N311 C313 1.356 . S
N311 H316 0.984 . S
N311 H317 0.985 . S
C312 C306 1.379 . S
C312 C309 1.363 . S
C312 N310 1.356 . S
C313 C307 1.363 . S
C313 C308 1.379 . S
C313 N311 1.356 . S
N314 C306 1.356 . S
N314 H320 0.984 . S
N314 H321 0.984 . S
N315 C308 1.356 . S
N315 H318 0.984 . S
N315 H319 0.985 . S
H316 N311 0.984 . S
H317 N311 0.985 . S
H318 N315 0.984 . S
H319 N315 0.985 . S
H320 N314 0.984 . S
H321 N314 0.984 . S
H322 N310 0.984 . S
H323 N310 0.985 . S
C324 C325 1.363 . S
C324 C330 1.379 . S
C324 N332 1.356 . S
C325 C324 1.363 . S
C325 C331 1.363 . S
C326 C327 1.363 . S
C326 C331 1.379 . S
C326 N333 1.356 . S
C327 C326 1.363 . S
C327 C330 1.363 . S
N328 C330 1.356 . S
N328 H340 0.984 . S
N328 H341 0.985 . S
N329 C331 1.356 . S
N329 H334 0.984 . S
N329 H335 0.985 . S
C330 C324 1.379 . S
C330 C327 1.363 . S
C330 N328 1.356 . S
C331 C325 1.363 . S
C331 C326 1.379 . S
C331 N329 1.356 . S
N332 C324 1.356 . S
N332 H338 0.984 . S
N332 H339 0.984 . S
N333 C326 1.356 . S
N333 H336 0.984 . S
N333 H337 0.985 . S
H334 N329 0.984 . S
H335 N329 0.985 . S
H336 N333 0.984 . S
H337 N333 0.985 . S
H338 N332 0.984 . S
H339 N332 0.984 . S
H340 N328 0.984 . S
H341 N328 0.985 . S
C342 C343 1.363 . S
C342 C348 1.379 . S
C342 N350 1.356 . S
C343 C342 1.363 . S
C343 C349 1.363 . S
C344 C345 1.363 . S
C344 C349 1.379 . S
C344 N351 1.356 . S
C345 C344 1.363 . S
C345 C348 1.363 . S
N346 C348 1.356 . S
N346 H358 0.984 . S
N346 H359 0.985 . S
N347 C349 1.356 . S
N347 H352 0.984 . S
N347 H353 0.985 . S
C348 C342 1.379 . S
C348 C345 1.363 . S
C348 N346 1.356 . S
C349 C343 1.363 . S
C349 C344 1.379 . S
C349 N347 1.356 . S
N350 C342 1.356 . S
N350 H356 0.984 . S
N350 H357 0.984 . S
N351 C344 1.356 . S
N351 H354 0.984 . S
N351 H355 0.985 . S
H352 N347 0.984 . S
H353 N347 0.985 . S
H354 N351 0.984 . S
H355 N351 0.985 . S
H356 N350 0.984 . S
H357 N350 0.984 . S
H358 N346 0.984 . S
H359 N346 0.985 . S
C360 C361 1.363 . S
C360 C366 1.379 . S
C360 N368 1.356 . S
C361 C360 1.363 . S
C361 C367 1.363 . S
C362 C363 1.363 . S
C362 C367 1.379 . S
C362 N369 1.356 . S
C363 C362 1.363 . S
C363 C366 1.363 . S
N364 C366 1.356 . S
N364 H376 0.984 . S
N364 H377 0.985 . S
N365 C367 1.356 . S
N365 H370 0.984 . S
N365 H371 0.985 . S
C366 C360 1.379 . S
C366 C363 1.363 . S
C366 N364 1.356 . S
C367 C361 1.363 . S
C367 C362 1.379 . S
C367 N365 1.356 . S
N368 C360 1.356 . S
N368 H374 0.984 . S
N368 H375 0.984 . S
N369 C362 1.356 . S
N369 H372 0.984 . S
N369 H373 0.985 . S
H370 N365 0.984 . S
H371 N365 0.985 . S
H372 N369 0.984 . S
H373 N369 0.985 . S
H374 N368 0.984 . S
H375 N368 0.984 . S
H376 N364 0.984 . S
H377 N364 0.985 . S
C378 C379 1.363 . S
C378 C384 1.379 . S
C378 N386 1.356 . S
C379 C378 1.363 . S
C379 C385 1.363 . S
C380 C381 1.363 . S
C380 C385 1.379 . S
C380 N387 1.356 . S
C381 C380 1.363 . S
C381 C384 1.363 . S
N382 C384 1.356 . S
N382 H394 0.984 . S
N382 H395 0.985 . S
N383 C385 1.356 . S
N383 H388 0.984 . S
N383 H389 0.985 . S
C384 C378 1.379 . S
C384 C381 1.363 . S
C384 N382 1.356 . S
C385 C379 1.363 . S
C385 C380 1.379 . S
C385 N383 1.356 . S
N386 C378 1.356 . S
N386 H392 0.984 . S
N386 H393 0.984 . S
N387 C380 1.356 . S
N387 H390 0.984 . S
N387 H391 0.985 . S
H388 N383 0.984 . S
H389 N383 0.985 . S
H390 N387 0.984 . S
H391 N387 0.985 . S
H392 N386 0.984 . S
H393 N386 0.984 . S
H394 N382 0.984 . S
H395 N382 0.985 . S
C396 C397 1.363 . S
C396 C402 1.379 . S
C396 N404 1.356 . S
C397 C396 1.363 . S
C397 C403 1.363 . S
C398 C399 1.363 . S
C398 C403 1.379 . S
C398 N405 1.356 . S
C399 C398 1.363 . S
C399 C402 1.363 . S
N400 C402 1.356 . S
N400 H412 0.984 . S
N400 H413 0.985 . S
N401 C403 1.356 . S
N401 H406 0.984 . S
N401 H407 0.985 . S
C402 C396 1.379 . S
C402 C399 1.363 . S
C402 N400 1.356 . S
C403 C397 1.363 . S
C403 C398 1.379 . S
C403 N401 1.356 . S
N404 C396 1.356 . S
N404 H410 0.984 . S
N404 H411 0.984 . S
N405 C398 1.356 . S
N405 H408 0.984 . S
N405 H409 0.985 . S
H406 N401 0.984 . S
H407 N401 0.985 . S
H408 N405 0.984 . S
H409 N405 0.985 . S
H410 N404 0.984 . S
H411 N404 0.984 . S
H412 N400 0.984 . S
H413 N400 0.985 . S
C414 C415 1.363 . S
C414 C420 1.379 1_554 S
C414 N422 1.356 . S
C415 C414 1.363 . S
C415 C421 1.363 . S
C416 C417 1.363 . S
C416 C421 1.379 1_556 S
C416 N423 1.356 . S
C417 C416 1.363 . S
C417 C420 1.363 . S
N418 C420 1.356 . S
N418 H430 0.984 . S
N418 H431 0.985 . S
N419 C421 1.356 . S
N419 H424 0.984 . S
N419 H425 0.985 . S
C420 C414 1.379 1_556 S
C420 C417 1.363 . S
C420 N418 1.356 . S
C421 C415 1.363 . S
C421 C416 1.379 1_554 S
C421 N419 1.356 . S
N422 C414 1.356 . S
N422 H428 0.984 . S
N422 H429 0.984 . S
N423 C416 1.356 . S
N423 H426 0.984 . S
N423 H427 0.985 . S
H424 N419 0.984 . S
H425 N419 0.985 . S
H426 N423 0.984 . S
H427 N423 0.985 . S
H428 N422 0.984 . S
H429 N422 0.984 . S
H430 N418 0.984 . S
H431 N418 0.985 . S
C432 C433 1.363 . S
C432 C438 1.379 . S
C432 N440 1.356 . S
C433 C432 1.363 . S
C433 C439 1.363 1_545 S
C434 C435 1.363 1_565 S
C434 C439 1.379 . S
C434 N441 1.356 . S
C435 C434 1.363 1_545 S
C435 C438 1.363 . S
N436 C438 1.356 . S
N436 H448 0.984 . S
N436 H449 0.985 . S
N437 C439 1.356 . S
N437 H442 0.984 . S
N437 H443 0.985 . S
C438 C432 1.379 . S
C438 C435 1.363 . S
C438 N436 1.356 . S
C439 C433 1.363 1_565 S
C439 C434 1.379 . S
C439 N437 1.356 . S
N440 C432 1.356 . S
N440 H446 0.984 . S
N440 H447 0.984 . S
N441 C434 1.356 . S
N441 H444 0.984 . S
N441 H445 0.985 . S
H442 N437 0.984 . S
H443 N437 0.985 . S
H444 N441 0.984 . S
H445 N441 0.985 . S
H446 N440 0.984 . S
H447 N440 0.984 . S
H448 N436 0.984 . S
H449 N436 0.985 . S
C450 C451 1.363 . S
C450 C456 1.379 . S
C450 N458 1.356 . S
C451 C450 1.363 . S
C451 C457 1.363 . S
C452 C453 1.363 . S
C452 C457 1.379 . S
C452 N459 1.356 . S
C453 C452 1.363 . S
C453 C456 1.363 . S
N454 C456 1.356 . S
N454 H466 0.984 . S
N454 H467 0.985 . S
N455 C457 1.356 . S
N455 H460 0.984 . S
N455 H461 0.985 . S
C456 C450 1.379 . S
C456 C453 1.363 . S
C456 N454 1.356 . S
C457 C451 1.363 . S
C457 C452 1.379 . S
C457 N455 1.356 . S
N458 C450 1.356 . S
N458 H464 0.984 . S
N458 H465 0.984 . S
N459 C452 1.356 . S
N459 H462 0.984 . S
N459 H463 0.985 . S
H460 N455 0.984 . S
H461 N455 0.985 . S
H462 N459 0.984 . S
H463 N459 0.985 . S
H464 N458 0.984 . S
H465 N458 0.984 . S
H466 N454 0.984 . S
H467 N454 0.985 . S
C468 C469 1.363 . S
C468 C474 1.379 . S
C468 N476 1.356 . S
C469 C468 1.363 . S
C469 C475 1.363 1_545 S
C470 C471 1.363 1_565 S
C470 C475 1.379 . S
C470 N477 1.356 . S
C471 C470 1.363 1_545 S
C471 C474 1.363 . S
N472 C474 1.356 . S
N472 H484 0.984 . S
N472 H485 0.985 . S
N473 C475 1.356 . S
N473 H478 0.984 . S
N473 H479 0.985 . S
C474 C468 1.379 . S
C474 C471 1.363 . S
C474 N472 1.356 . S
C475 C469 1.363 1_565 S
C475 C470 1.379 . S
C475 N473 1.356 . S
N476 C468 1.356 . S
N476 H482 0.984 . S
N476 H483 0.984 . S
N477 C470 1.356 . S
N477 H480 0.984 . S
N477 H481 0.985 . S
H478 N473 0.984 . S
H479 N473 0.985 . S
H480 N477 0.984 . S
H481 N477 0.985 . S
H482 N476 0.984 . S
H483 N476 0.984 . S
H484 N472 0.984 . S
H485 N472 0.985 . S
C486 C487 1.363 . S
C486 C492 1.379 1_556 S
C486 N494 1.356 . S
C487 C486 1.363 . S
C487 C493 1.363 . S
C488 C489 1.363 . S
C488 C493 1.379 1_554 S
C488 N495 1.356 . S
C489 C488 1.363 . S
C489 C492 1.363 . S
N490 C492 1.356 . S
N490 H502 0.984 . S
N490 H503 0.985 . S
N491 C493 1.356 . S
N491 H496 0.984 . S
N491 H497 0.985 . S
C492 C486 1.379 1_554 S
C492 C489 1.363 . S
C492 N490 1.356 . S
C493 C487 1.363 . S
C493 C488 1.379 1_556 S
C493 N491 1.356 . S
N494 C486 1.356 . S
N494 H500 0.984 . S
N494 H501 0.984 . S
N495 C488 1.356 . S
N495 H498 0.984 . S
N495 H499 0.985 . S
H496 N491 0.984 . S
H497 N491 0.985 . S
H498 N495 0.984 . S
H499 N495 0.985 . S
H500 N494 0.984 . S
H501 N494 0.984 . S
H502 N490 0.984 . S
H503 N490 0.985 . S
C504 C505 1.363 1_655 S
C504 C510 1.379 . S
C504 N512 1.356 . S
C505 C504 1.363 1_455 S
C505 C511 1.363 . S
C506 C507 1.372 . S
C506 C511 1.379 . S
C506 N513 1.356 . S
C507 C506 1.372 . S
C507 C510 1.358 1_455 S
N508 C510 1.356 . S
N508 H520 0.984 . S
N508 H521 0.985 . S
N509 C511 1.356 . S
N509 H514 0.984 . S
N509 H515 0.985 . S
C510 C504 1.379 . S
C510 C507 1.358 1_655 S
C510 N508 1.356 . S
C511 C505 1.363 . S
C511 C506 1.379 . S
C511 N509 1.356 . S
N512 C504 1.356 . S
N512 H518 0.984 . S
N512 H519 0.984 . S
N513 C506 1.356 . S
N513 H516 0.984 . S
N513 H517 0.985 . S
H514 N509 0.984 . S
H515 N509 0.985 . S
H516 N513 0.984 . S
H517 N513 0.985 . S
H518 N512 0.984 . S
H519 N512 0.984 . S
H520 N508 0.984 . S
H521 N508 0.985 . S
C199 C9 0.663 . S
C201 N187 0.606 . S
C217 C49 0.709 . S
C219 N160 0.716 . S
C235 C89 0.673 . S
C237 N173 0.686 . S
C253 C26 0.884 . S
C255 N186 0.926 . S
C273 N161 1.083 . S
C271 C66 0.945 . S
C291 N174 1.090 . S
C289 C106 0.948 . S
C307 C43 2.953 . S
C309 N134 2.954 . S
C325 C83 2.908 . S
C327 N148 2.845 . S
C343 C22 3.158 . S
C345 N122 3.120 . S
C363 N135 3.138 . S
C361 C62 3.169 . S
C381 N147 3.281 . S
C379 C102 3.264 . S
C397 C3 2.960 . S
C399 N121 2.966 . S
C417 N151 1.805 . S
C415 C15 1.800 . S
C433 C55 1.737 . S
C435 N125 1.825 . S
C451 C95 1.732 . S
C453 N138 1.812 . S
C471 N177 1.148 . S
C469 C42 1.177 . S
C489 N190 1.079 . S
C487 C82 1.099 . S
C505 C2 1.142 . S
C507 N164 1.123 . S
