# Generated by pormake.
# Topology nom, (4,4)-cn, num edge types: 1
# Building blocks:
#     Node 0, Type 0, BuildingBlock: GIZVER_clean_linker_0, # of connection points: 4
#     Node 1, Type 0, BuildingBlock: GIZVER_clean_linker_0, # of connection points: 4
#     Node 2, Type 0, BuildingBlock: GIZVER_clean_linker_0, # of connection points: 4
#     Node 3, Type 0, BuildingBlock: GIZVER_clean_linker_0, # of connection points: 4
#     Node 4, Type 0, BuildingBlock: GIZVER_clean_linker_0, # of connection points: 4
#     Node 5, Type 0, BuildingBlock: GIZVER_clean_linker_0, # of connection points: 4
#     Node 6, Type 1, BuildingBlock: KUFVIS_clean_sbu_0, # of connection points: 4
#     Node 7, Type 1, BuildingBlock: KUFVIS_clean_sbu_0, # of connection points: 4
#     Node 8, Type 1, BuildingBlock: KUFVIS_clean_sbu_0, # of connection points: 4
#     Node 9, Type 1, BuildingBlock: KUFVIS_clean_sbu_0, # of connection points: 4
#     Node 10, Type 1, BuildingBlock: KUFVIS_clean_sbu_0, # of connection points: 4
#     Node 11, Type 1, BuildingBlock: KUFVIS_clean_sbu_0, # of connection points: 4
#     Edge 12, Type (0, 1), BuildingBlock: EZIPEK_clean_linker_0, # of connection points: 2
#     Edge 13, Type (0, 1), BuildingBlock: EZIPEK_clean_linker_0, # of connection points: 2
#     Edge 14, Type (0, 1), BuildingBlock: EZIPEK_clean_linker_0, # of connection points: 2
#     Edge 15, Type (0, 1), BuildingBlock: EZIPEK_clean_linker_0, # of connection points: 2
#     Edge 16, Type (0, 1), BuildingBlock: EZIPEK_clean_linker_0, # of connection points: 2
#     Edge 17, Type (0, 1), BuildingBlock: EZIPEK_clean_linker_0, # of connection points: 2
#     Edge 18, Type (0, 1), BuildingBlock: EZIPEK_clean_linker_0, # of connection points: 2
#     Edge 19, Type (0, 1), BuildingBlock: EZIPEK_clean_linker_0, # of connection points: 2
#     Edge 20, Type (0, 1), BuildingBlock: EZIPEK_clean_linker_0, # of connection points: 2
#     Edge 21, Type (0, 1), BuildingBlock: EZIPEK_clean_linker_0, # of connection points: 2
#     Edge 22, Type (0, 1), BuildingBlock: EZIPEK_clean_linker_0, # of connection points: 2
#     Edge 23, Type (0, 1), BuildingBlock: EZIPEK_clean_linker_0, # of connection points: 2
#     Edge 24, Type (0, 1), BuildingBlock: EZIPEK_clean_linker_0, # of connection points: 2
#     Edge 25, Type (0, 1), BuildingBlock: EZIPEK_clean_linker_0, # of connection points: 2
#     Edge 26, Type (0, 1), BuildingBlock: EZIPEK_clean_linker_0, # of connection points: 2
#     Edge 27, Type (0, 1), BuildingBlock: EZIPEK_clean_linker_0, # of connection points: 2
#     Edge 28, Type (0, 1), BuildingBlock: EZIPEK_clean_linker_0, # of connection points: 2
#     Edge 29, Type (0, 1), BuildingBlock: EZIPEK_clean_linker_0, # of connection points: 2
#     Edge 30, Type (0, 1), BuildingBlock: EZIPEK_clean_linker_0, # of connection points: 2
#     Edge 31, Type (0, 1), BuildingBlock: EZIPEK_clean_linker_0, # of connection points: 2
#     Edge 32, Type (0, 1), BuildingBlock: EZIPEK_clean_linker_0, # of connection points: 2
#     Edge 33, Type (0, 1), BuildingBlock: EZIPEK_clean_linker_0, # of connection points: 2
#     Edge 34, Type (0, 1), BuildingBlock: EZIPEK_clean_linker_0, # of connection points: 2
#     Edge 35, Type (0, 1), BuildingBlock: EZIPEK_clean_linker_0, # of connection points: 2
# Relax obj value: 0.005
# Max RMSD: 0.075
# Mean RMSD: 0.051
data_MOF--net-nom--node1-KUFVIS_clean_sbu_0--node2-GIZVER_clean_linker_0--edge1-EZIPEK_clean_linker_0
_symmetry_space_group_name_H-M    P1
_symmetry_Int_Tables_number       1
_symmetry_cell_setting            triclinic
loop_
_symmetry_equiv_pos_as_xyz
'x, y, z'
_cell_length_a     33.943358
_cell_length_b     34.349659
_cell_length_c     34.72845
_cell_angle_alpha  90.554179
_cell_angle_beta   91.148326
_cell_angle_gamma 119.7312
loop_
_atom_site_label
_atom_site_type_symbol
_atom_site_fract_x
_atom_site_fract_y
_atom_site_fract_z
_atom_type_partial_charge
H0 H 0.96403 0.57376 0.35377 0.0
H1 H 0.99169 0.55263 0.23717 0.0
H2 H 0.85446 0.48765 0.27636 0.0
H3 H 0.03114 0.63153 0.32394 0.0
H4 H 0.03249 0.63092 0.27274 0.0
H5 H 0.04764 0.56947 0.35438 0.0
H6 H 0.18594 0.61304 0.3242 0.0
H7 H 0.10186 0.64111 0.2512 0.0
C8 C 0.95241 0.55714 0.32581 0.0
C9 C 0.9059 0.52677 0.31904 0.0
C10 C 0.98324 0.56843 0.29562 0.0
C11 C 0.96786 0.5453 0.26003 0.0
C12 C 0.92123 0.51626 0.25265 0.0
C13 C 0.89065 0.50873 0.28204 0.0
C14 C 0.02919 0.61062 0.29852 0.0
C15 C 0.06904 0.60243 0.3014 0.0
C16 C 0.07477 0.58209 0.3344 0.0
C17 C 0.11602 0.58248 0.34263 0.0
C18 C 0.15191 0.60635 0.31728 0.0
C19 C 0.14689 0.62654 0.28438 0.0
C20 C 0.10494 0.62342 0.27572 0.0
H21 H 0.3973 0.95827 0.51482 0.0
H22 H 0.46559 1.00619 0.40747 0.0
H23 H 0.39656 0.86529 0.43139 0.0
H24 H 0.41203 0.03083 0.49234 0.0
H25 H 0.41633 0.03776 0.44149 0.0
H26 H 0.49137 0.0438 0.52375 0.0
H27 H 0.58857 0.18256 0.50305 0.0
H28 H 0.4748 0.111 0.427 0.0
C29 C 0.40797 0.95199 0.48738 0.0
C30 C 0.39674 0.90784 0.47677 0.0
C31 C 0.43095 0.98748 0.46142 0.0
C32 C 0.44627 0.9789 0.42671 0.0
C33 C 0.43349 0.93472 0.41542 0.0
C34 C 0.40748 0.89965 0.44019 0.0
C35 C 0.4326 0.03215 0.46735 0.0
C36 C 0.48007 0.07183 0.47355 0.0
C37 C 0.50577 0.07303 0.50626 0.0
C38 C 0.54667 0.11211 0.51723 0.0
C39 C 0.56026 0.1503 0.49432 0.0
C40 C 0.53561 0.15009 0.46172 0.0
C41 C 0.49536 0.11063 0.45111 0.0
H42 H 0.3921 0.48835 0.59792 0.0
H43 H 0.42777 0.45029 0.70542 0.0
H44 H 0.39857 0.55833 0.70307 0.0
H45 H 0.39187 0.41879 0.60131 0.0
H46 H 0.38605 0.39578 0.64774 0.0
H47 H 0.47109 0.46478 0.5745 0.0
H48 H 0.54634 0.39666 0.59721 0.0
H49 H 0.44678 0.38569 0.67655 0.0
C50 C 0.40087 0.49466 0.62839 0.0
C51 C 0.39574 0.52808 0.64782 0.0
C52 C 0.41365 0.467 0.6489 0.0
C53 C 0.42109 0.47317 0.68898 0.0
C54 C 0.4144 0.50526 0.70841 0.0
C55 C 0.40426 0.53401 0.68764 0.0
C56 C 0.40901 0.42492 0.63017 0.0
C57 C 0.45345 0.42509 0.62587 0.0
C58 C 0.47914 0.44426 0.59296 0.0
C59 C 0.51206 0.43325 0.5819 0.0
C60 C 0.52161 0.40616 0.60579 0.0
C61 C 0.50069 0.39143 0.64084 0.0
C62 C 0.46569 0.4001 0.6508 0.0
H63 H 0.92902 0.42993 0.75614 0.0
H64 H 0.99683 0.47363 0.86724 0.0
H65 H 0.85349 0.42305 0.85553 0.0
H66 H 0.99784 0.43018 0.76788 0.0
H67 H 0.01555 0.43155 0.8162 0.0
H68 H 0.03277 0.49739 0.72858 0.0
H69 H 0.17414 0.58 0.7586 0.0
H70 H 0.08234 0.49627 0.84361 0.0
C71 C 0.92894 0.43952 0.78596 0.0
C72 C 0.88717 0.42774 0.80272 0.0
C73 C 0.96902 0.45622 0.80909 0.0
C74 C 0.96718 0.46397 0.84872 0.0
C75 C 0.9253 0.4513 0.86546 0.0
C76 C 0.88607 0.43524 0.84215 0.0
C77 C 1.0081 0.45114 0.79481 0.0
C78 C 0.05137 0.49461 0.78796 0.0
C79 C 0.05968 0.51176 0.75051 0.0
C80 C 0.10421 0.54167 0.73963 0.0
C81 C 0.13952 0.55834 0.76735 0.0
C82 C 0.13186 0.54269 0.80494 0.0
C83 C 0.08761 0.51116 0.81546 0.0
H84 H 0.62963 0.07869 0.0153 0.0
H85 H 0.58793 0.03889 0.89692 0.0
H86 H 0.61083 0.16625 0.93963 0.0
H87 H 0.63882 0.02052 0.98518 0.0
H88 H 0.62689 1.00804 0.93522 0.0
H89 H 0.57321 0.98693 0.03194 0.0
H90 H 0.48705 0.84743 0.0018 0.0
H91 H 0.55908 0.94124 0.9137 0.0
C92 C 0.61694 0.08386 0.98805 0.0
C93 C 0.62085 0.12582 0.98097 0.0
C94 C 0.60383 0.05158 0.95792 0.0
C95 C 0.59357 0.06148 0.92107 0.0
C96 C 0.59605 0.10285 0.91438 0.0
C97 C 0.60647 0.13331 0.94524 0.0
C98 C 0.61243 0.01272 0.96222 0.0
C99 C 0.5706 0.96928 0.9717 0.0
C100 C 0.55738 0.96034 0.01021 0.0
C101 C 0.52735 0.91627 0.02138 0.0
C102 C 0.50905 0.88177 -0.00669 0.0
C103 C 0.51924 0.89069 0.95447 0.0
C104 C 0.54951 0.9347 0.94353 0.0
H105 H 0.62723 0.5516 0.09062 0.0
H106 H 0.612 0.58061 0.20873 0.0
H107 H 0.63834 0.47364 0.18181 0.0
H108 H 0.63809 0.62472 0.10923 0.0
H109 H 0.63902 0.63932 0.1586 0.0
H110 H 0.57135 0.59998 0.06954 0.0
H111 H 0.45945 0.60872 0.11582 0.0
H112 H 0.57053 0.6286 0.18998 0.0
C113 C 0.62408 0.54302 0.12079 0.0
C114 C 0.63204 0.50849 0.13297 0.0
C115 C 0.61694 0.56945 0.14806 0.0
C116 C 0.6156 0.55947 0.18735 0.0
C117 C 0.62295 0.52469 0.19936 0.0
C118 C 0.63051 0.49907 0.17216 0.0
C119 C 0.6192 0.61273 0.13636 0.0
C120 C 0.57278 0.60814 0.13131 0.0
C121 C 0.55313 0.60194 0.09407 0.0
C122 C 0.51185 0.60162 0.08818 0.0
C123 C 0.49038 0.60716 0.1202 0.0
C124 C 0.51354 0.62138 0.15574 0.0
C125 C 0.5526 0.6178 0.16235 0.0
Mn126 Mn 0.64494 0.41261 0.40875 0.0
Mn127 Mn 0.69447 0.52287 0.43375 0.0
C128 C 0.60793 0.43976 0.44705 0.0
C129 C 0.62291 0.3369 0.41955 0.0
C130 C 0.65361 0.48626 0.35473 0.0
O131 O 0.71271 0.43492 0.39966 0.0
O132 O 0.74053 0.50722 0.41705 0.0
C133 C 0.74643 0.52199 0.50308 0.0
N134 N 0.7161 0.53199 0.48613 0.0
C135 C 0.70995 0.56611 0.54485 0.0
C136 C 0.74217 0.5574 0.5626 0.0
C137 C 0.76009 0.53478 0.54173 0.0
C138 C 0.69756 0.55244 0.5063 0.0
H139 H 0.75975 0.50404 0.48731 0.0
C140 C 0.74628 0.47481 0.40574 0.0
O141 O 0.62327 0.35148 0.3852 0.0
O142 O 0.63942 0.36692 0.44723 0.0
N143 N 0.65347 0.54202 0.4509 0.0
C144 C 0.62009 0.54444 0.43048 0.0
C145 C 0.5956 0.56233 0.4483 0.0
C146 C 0.60625 0.57828 0.48664 0.0
C147 C 0.64119 0.57601 0.50688 0.0
C148 C 0.6641 0.55741 0.48774 0.0
H149 H 0.61203 0.53252 0.40092 0.0
O150 O 0.58513 0.40363 0.42602 0.0
O151 O 0.65158 0.46008 0.44366 0.0
O152 O 0.6418 0.44554 0.36111 0.0
O153 O 0.67306 0.5179 0.37982 0.0
C154 C 0.65395 0.59113 0.54538 0.0
C155 C 0.68855 0.58649 0.56427 0.0
H156 H 0.75263 0.56703 0.59246 0.0
H157 H 0.78429 0.52714 0.55544 0.0
H158 H 0.56869 0.56397 0.43248 0.0
H159 H 0.58732 0.59212 0.50027 0.0
H160 H 0.637 0.60586 0.56089 0.0
H161 H 0.6975 0.5975 0.59408 0.0
Mn162 Mn 0.25165 0.65153 0.53899 0.0
Mn163 Mn 0.21452 0.54161 0.52136 0.0
C164 C 0.20302 0.61541 0.48669 0.0
C165 C 0.30313 0.72853 0.53351 0.0
C166 C 0.1833 0.5768 0.58808 0.0
O167 O 0.29504 0.63769 0.57152 0.0
O168 O 0.27432 0.56819 0.5479 0.0
C169 C 0.2811 0.54416 0.46638 0.0
N170 N 0.23733 0.5309 0.47506 0.0
C171 C 0.2093 0.48592 0.41684 0.0
C172 C 0.25408 0.49917 0.40718 0.0
C173 C 0.29014 0.52862 0.43197 0.0
C174 C 0.20243 0.50281 0.45134 0.0
H175 H 0.30882 0.56628 0.48567 0.0
C176 C 0.30007 0.60303 0.5686 0.0
O177 O 0.27631 0.71296 0.56227 0.0
O178 O 0.30274 0.69924 0.50927 0.0
N179 N 0.15644 0.51178 0.49516 0.0
C180 C 0.11588 0.50628 0.50655 0.0
C181 C 0.07638 0.47902 0.48428 0.0
C182 C 0.0791 0.45828 0.45017 0.0
C183 C 0.12141 0.46546 0.43841 0.0
C184 C 0.15953 0.49265 0.46199 0.0
H185 H 0.11394 0.52383 0.53168 0.0
O186 O 0.20779 0.6528 0.50044 0.0
O187 O 0.2278 0.6009 0.50333 0.0
O188 O 0.19991 0.61642 0.57567 0.0
O189 O 0.18895 0.5471 0.57078 0.0
C190 C 0.12738 0.44725 0.40395 0.0
C191 C 0.17127 0.45729 0.39326 0.0
H192 H 0.26118 0.48722 0.38068 0.0
H193 H 0.32479 0.53904 0.42469 0.0
H194 H 0.04403 0.47461 0.49305 0.0
H195 H 0.04863 0.43769 0.43284 0.0
H196 H 0.09851 0.42598 0.38519 0.0
H197 H 0.1755 0.44362 0.36643 0.0
Mn198 Mn 0.61546 0.24618 0.70917 0.0
Mn199 Mn 0.68317 0.20028 0.69747 0.0
C200 C 0.59821 0.19068 0.66215 0.0
C201 C 0.59049 0.29753 0.69612 0.0
C202 C 0.62018 0.1808 0.76445 0.0
O203 O 0.67616 0.29196 0.73656 0.0
O204 O 0.71932 0.2616 0.71914 0.0
C205 C 0.74734 0.25829 0.63924 0.0
N206 N 0.71502 0.21689 0.65038 0.0
C207 C 0.72679 0.18169 0.59499 0.0
C208 C 0.76018 0.22395 0.58288 0.0
C209 C 0.77028 0.26242 0.60498 0.0
C210 C 0.70478 0.1797 0.62917 0.0
H211 H 0.75573 0.28788 0.65647 0.0
C212 C 0.71441 0.29262 0.73507 0.0
O213 O 0.58184 0.27619 0.72809 0.0
O214 O 0.61661 0.29178 0.67257 0.0
N215 N 0.6518 0.14074 0.67577 0.0
C216 C 0.61862 0.10253 0.69135 0.0
C217 C 0.60297 0.06129 0.67178 0.0
C218 C 0.62231 0.05962 0.63686 0.0
C219 C 0.65719 0.09924 0.62186 0.0
C220 C 0.67102 0.13941 0.64243 0.0
H221 H 0.60416 0.10349 0.71846 0.0
O222 O 0.56672 0.19776 0.67524 0.0
O223 O 0.63838 0.21554 0.67729 0.0
O224 O 0.60128 0.20262 0.75293 0.0
O225 O 0.65251 0.17995 0.7471 0.0
C226 C 0.67891 0.10042 0.58739 0.0
C227 C 0.71391 0.14157 0.5741 0.0
H228 H 0.77799 0.22727 0.55651 0.0
H229 H 0.79593 0.29515 0.59579 0.0
H230 H 0.57623 0.03082 0.68368 0.0
H231 H 0.61023 0.02773 0.62189 0.0
H232 H 0.66896 0.06988 0.57086 0.0
H233 H 0.73022 0.14208 0.54748 0.0
Mn234 Mn 0.4011 0.63663 0.89518 0.0
Mn235 Mn 0.33661 0.53509 0.93371 0.0
C236 C 0.4312 0.6108 0.94247 0.0
C237 C 0.42948 0.7137 0.89451 0.0
C238 C 0.3829 0.54732 0.85808 0.0
O239 O 0.33756 0.62246 0.87807 0.0
O240 O 0.29921 0.55278 0.90133 0.0
C241 C 0.28968 0.56733 0.98522 0.0
N242 N 0.31555 0.54755 0.98047 0.0
C243 C 0.32433 0.54393 0.0491 0.0
C244 C 0.29786 0.56434 0.05466 0.0
C245 C 0.28046 0.57608 0.02257 0.0
C246 C 0.33295 0.53668 0.0112 0.0
H247 H 0.27631 0.57656 0.96075 0.0
C248 C 0.30103 0.58558 0.88273 0.0
O249 O 0.42952 0.69196 0.86373 0.0
O250 O 0.41108 0.6906 0.92478 0.0
N251 N 0.36625 0.51227 0.9662 0.0
C252 C 0.38399 0.48595 0.95564 0.0
C253 C 0.39877 0.46704 0.98418 0.0
C254 C 0.39448 0.47476 0.02326 0.0
C255 C 0.37402 0.50006 0.0334 0.0
C256 C 0.35882 0.51696 0.00362 0.0
H257 H 0.38669 0.47935 0.92562 0.0
O258 O 0.45749 0.64224 0.9197 0.0
O259 O 0.38798 0.59607 0.93742 0.0
O260 O 0.39758 0.58948 0.85682 0.0
O261 O 0.36097 0.52287 0.88633 0.0
C262 C 0.36648 0.50764 0.0718 0.0
C263 C 0.34209 0.53004 0.07966 0.0
H264 H 0.29044 0.57088 0.08342 0.0
H265 H 0.25997 0.59182 0.0266 0.0
H266 H 0.41357 0.44667 0.97607 0.0
H267 H 0.40626 0.46043 0.04521 0.0
H268 H 0.37864 0.49573 0.09546 0.0
H269 H 0.3362 0.53541 0.10928 0.0
Mn270 Mn 0.77334 0.39809 0.06092 0.0
Mn271 Mn 0.83573 0.35081 0.08905 0.0
C272 C 0.83095 0.43272 0.10734 0.0
C273 C 0.71583 0.41574 0.06677 0.0
C274 C 0.8507 0.40013 0.01479 0.0
O275 O 0.73205 0.33305 0.04391 0.0
O276 O 0.77886 0.30645 0.06082 0.0
C277 C 0.77215 0.28654 0.14468 0.0
N278 N 0.81401 0.32115 0.13669 0.0
C279 C 0.84295 0.31904 0.20001 0.0
C280 C 0.80019 0.28331 0.20886 0.0
C281 C 0.76456 0.26721 0.18116 0.0
C282 C 0.8483 0.3374 0.16338 0.0
H283 H 0.74479 0.2736 0.12335 0.0
C284 C 0.74139 0.3014 0.04644 0.0
O285 O 0.7348 0.41874 0.03406 0.0
O286 O 0.72676 0.39804 0.09492 0.0
N287 N 0.89082 0.38935 0.11739 0.0
C288 C 0.92943 0.42525 0.10488 0.0
C289 C 0.96747 0.44706 0.12999 0.0
C290 C 0.96583 0.43102 0.16731 0.0
C291 C 0.92607 0.39341 0.17924 0.0
C292 C 0.88893 0.37359 0.1532 0.0
H293 H 0.93108 0.4374 0.07606 0.0
O294 O 0.81855 0.45603 0.08636 0.0
O295 O 0.81045 0.38992 0.09967 0.0
O296 O 0.81693 0.4065 0.01766 0.0
O297 O 0.86218 0.38139 0.0407 0.0
C298 C 0.92177 0.37486 0.21597 0.0
C299 C 0.88033 0.33753 0.22627 0.0
H300 H 0.79426 0.26816 0.2369 0.0
H301 H 0.73143 0.23972 0.1878 0.0
H302 H 0.99808 0.47598 0.12051 0.0
H303 H 0.99533 0.44779 0.18653 0.0
H304 H 0.94998 0.38934 0.23665 0.0
H305 H 0.87725 0.32391 0.25476 0.0
Mn306 Mn 0.40701 0.78936 0.23031 0.0
Mn307 Mn 0.51799 0.84148 0.25694 0.0
C308 C 0.43527 0.84754 0.27517 0.0
C309 C 0.33105 0.73461 0.23753 0.0
C310 C 0.4833 0.85361 0.17901 0.0
O311 O 0.42759 0.7451 0.21273 0.0
O312 O 0.49939 0.78008 0.2379 0.0
C313 C 0.51891 0.78796 0.32278 0.0
N314 N 0.52748 0.82806 0.30835 0.0
C315 C 0.5639 0.86667 0.36794 0.0
C316 C 0.55536 0.82577 0.3835 0.0
C317 C 0.53259 0.78622 0.36086 0.0
C318 C 0.54937 0.8663 0.32987 0.0
H319 H 0.50187 0.75757 0.30531 0.0
C320 C 0.46558 0.74692 0.22047 0.0
O321 O 0.34559 0.75395 0.20488 0.0
O322 O 0.36112 0.74457 0.26514 0.0
N323 N 0.53905 0.90108 0.27656 0.0
C324 C 0.53903 0.93636 0.25905 0.0
C325 C 0.55774 0.97794 0.27868 0.0
C326 C 0.57587 0.98268 0.31626 0.0
C327 C 0.57433 0.94554 0.33413 0.0
C328 C 0.55516 0.90495 0.31314 0.0
H329 H 0.52353 0.93238 0.23082 0.0
O330 O 0.3984 0.83671 0.25528 0.0
O331 O 0.45499 0.8242 0.26769 0.0
O332 O 0.44146 0.83202 0.18706 0.0
O333 O 0.51423 0.85796 0.20298 0.0
C334 C 0.5901 0.94695 0.37224 0.0
C335 C 0.58528 0.90762 0.38902 0.0
H336 H 0.56574 0.82427 0.41289 0.0
H337 H 0.5258 0.75451 0.37268 0.0
H338 H 0.55774 1.00612 0.26503 0.0
H339 H 0.59003 0.01473 0.3314 0.0
H340 H 0.60535 0.97793 0.38911 0.0
H341 H 0.59692 0.90896 0.41853 0.0
C342 C 0.21484 0.70205 0.27713 0.0
C343 C 0.189 0.65697 0.26374 0.0
C344 C 0.25404 0.66548 0.22703 0.0
C345 C 0.28158 0.70828 0.24494 0.0
N346 N 0.28888 0.76728 0.28815 0.0
N347 N 0.18261 0.59481 0.22629 0.0
C348 C 0.26206 0.72668 0.27005 0.0
C349 C 0.20808 0.63861 0.23828 0.0
N350 N 0.19411 0.7213 0.29683 0.0
N351 N 0.27198 0.65039 0.19968 0.0
H352 H 0.14832 0.57531 0.2325 0.0
H353 H 0.19555 0.57728 0.21157 0.0
H354 H 0.30597 0.66822 0.1922 0.0
H355 H 0.25282 0.62159 0.18274 0.0
H356 H 0.20957 0.75538 0.30369 0.0
H357 H 0.15988 0.70403 0.30347 0.0
H358 H 0.2783 0.77959 0.31083 0.0
H359 H 0.32289 0.78797 0.2822 0.0
C360 C 0.53703 0.22381 0.46099 0.0
C361 C 0.55015 0.19452 0.44376 0.0
C362 C 0.61134 0.25838 0.41048 0.0
C363 C 0.59787 0.28765 0.42746 0.0
N364 N 0.54105 0.29605 0.46166 0.0
N365 N 0.5939 0.18152 0.39721 0.0
C366 C 0.55873 0.2697 0.45062 0.0
C367 C 0.58536 0.21116 0.41672 0.0
N368 N 0.50504 0.20812 0.48877 0.0
N369 N 0.65028 0.27601 0.39004 0.0
H370 H 0.57536 0.14702 0.4015 0.0
H371 H 0.61632 0.19034 0.37469 0.0
H372 H 0.67025 0.31028 0.38535 0.0
H373 H 0.66473 0.2574 0.3801 0.0
H374 H 0.49877 0.22886 0.50664 0.0
H375 H 0.48637 0.1743 0.49557 0.0
H376 H 0.50966 0.28368 0.47438 0.0
H377 H 0.55568 0.32977 0.45519 0.0
C378 C 0.39659 0.58348 0.59922 0.0
C379 C 0.37416 0.55201 0.62857 0.0
C380 C 0.31402 0.57205 0.62763 0.0
C381 C 0.33228 0.59753 0.59433 0.0
N382 N 0.38974 0.62634 0.54669 0.0
N383 N 0.30642 0.51011 0.66533 0.0
C384 C 0.37355 0.60327 0.5798 0.0
C385 C 0.33162 0.54488 0.64159 0.0
N386 N 0.44003 0.59503 0.59042 0.0
N387 N 0.27887 0.57298 0.64528 0.0
H388 H 0.3164 0.48732 0.67429 0.0
H389 H 0.27336 0.50081 0.67271 0.0
H390 H 0.26551 0.59278 0.63549 0.0
H391 H 0.26645 0.5581 0.6716 0.0
H392 H 0.45966 0.62076 0.57187 0.0
H393 H 0.45775 0.5812 0.60408 0.0
H394 H 0.41657 0.62732 0.53186 0.0
H395 H 0.37465 0.64293 0.53321 0.0
C396 C 0.81558 0.40817 0.76365 0.0
C397 C 0.84363 0.39453 0.78327 0.0
C398 C 0.78303 0.31623 0.77794 0.0
C399 C 0.75638 0.32897 0.75464 0.0
N400 N 0.75077 0.38695 0.72026 0.0
N401 N 0.85701 0.33502 0.80396 0.0
C402 C 0.77338 0.37501 0.74631 0.0
C403 C 0.8282 0.34841 0.78878 0.0
N404 N 0.8291 0.45275 0.76193 0.0
N405 N 0.76483 0.27338 0.7909 0.0
H406 H 0.89 0.35716 0.81384 0.0
H407 H 0.84962 0.30174 0.80375 0.0
H408 H 0.73248 0.24771 0.78316 0.0
H409 H 0.78028 0.26402 0.81227 0.0
H410 H 0.80812 0.46478 0.75188 0.0
H411 H 0.86051 0.47769 0.77299 0.0
H412 H 0.76396 0.4193 0.70996 0.0
H413 H 0.72037 0.36387 0.70644 0.0
C414 C 0.52522 0.83165 0.91623 0.0
C415 C 0.49933 0.85207 0.92658 0.0
C416 C 0.42987 0.78629 0.90126 0.0
C417 C 0.45452 0.76326 0.89737 0.0
N418 N 0.52542 0.76302 0.8993 0.0
N419 N 0.42844 0.85201 0.92616 0.0
C420 C 0.50237 0.78603 0.90331 0.0
C421 C 0.45208 0.83056 0.91751 0.0
N422 N 0.57153 0.85555 0.91969 0.0
N423 N 0.38524 0.76543 0.88946 0.0
H424 H 0.44444 0.88531 0.93604 0.0
H425 H 0.39324 0.83693 0.92455 0.0
H426 H 0.36869 0.73309 0.8773 0.0
H427 H 0.36552 0.78087 0.88892 0.0
H428 H 0.59275 0.84441 0.90909 0.0
H429 H 0.5893 0.88834 0.9306 0.0
H430 H 0.5591 0.77547 0.9081 0.0
H431 H 0.51022 0.73015 0.88855 0.0
C432 C 0.69605 0.51055 0.09642 0.0
C433 C 0.64978 0.48669 0.10665 0.0
C434 C 0.64442 0.41597 0.08462 0.0
C435 C 0.69062 0.43993 0.07441 0.0
N436 N 0.75716 0.51115 0.06148 0.0
N437 N 0.57725 0.41913 0.10308 0.0
C438 C 0.71512 0.48759 0.07688 0.0
C439 C 0.62304 0.44007 0.09813 0.0
N440 N 0.72298 0.55434 0.10818 0.0
N441 N 0.62146 0.37017 0.08231 0.0
H442 H 0.56104 0.43631 0.11276 0.0
H443 H 0.55498 0.38603 0.09461 0.0
H444 H 0.63557 0.35187 0.07064 0.0
H445 H 0.5894 0.35027 0.09336 0.0
H446 H 0.75819 0.5715 0.10637 0.0
H447 H 0.71097 0.57286 0.12269 0.0
H448 H 0.77386 0.54578 0.05832 0.0
H449 H 0.77406 0.49627 0.04878 0.0
C450 C 0.39876 0.84809 0.5166 0.0
C451 C 0.37362 0.86822 0.5023 0.0
C452 C 0.30235 0.7983 0.5127 0.0
C453 C 0.32752 0.77756 0.52555 0.0
N454 N 0.39842 0.78444 0.54727 0.0
N455 N 0.30231 0.86658 0.4947 0.0
C456 C 0.37544 0.80311 0.5299 0.0
C457 C 0.32562 0.84465 0.50329 0.0
N458 N 0.4451 0.87174 0.51591 0.0
N459 N 0.25631 0.77299 0.50727 0.0
H460 H 0.31838 0.90008 0.48685 0.0
H461 H 0.26766 0.85308 0.49849 0.0
H462 H 0.23775 0.73931 0.51435 0.0
H463 H 0.23648 0.7843 0.49351 0.0
H464 H 0.46581 0.85787 0.52105 0.0
H465 H 0.46297 0.90556 0.50886 0.0
H466 H 0.43287 0.80211 0.55464 0.0
H467 H 0.3822 0.75155 0.55692 0.0
C468 C 0.55434 0.38679 0.68914 0.0
C469 C 0.51541 0.36444 0.66426 0.0
C470 C 0.52645 0.29919 0.6598 0.0
C471 C 0.56539 0.32129 0.68487 0.0
N472 N 0.61163 0.38238 0.72913 0.0
N473 N 0.45802 0.29628 0.63368 0.0
C474 C 0.57763 0.36385 0.70158 0.0
C475 C 0.49933 0.31944 0.65238 0.0
N476 N 0.57021 0.43072 0.69928 0.0
N477 N 0.51611 0.25945 0.64203 0.0
H478 H 0.43771 0.31062 0.628 0.0
H479 H 0.44197 0.26207 0.6272 0.0
H480 H 0.53457 0.24314 0.64691 0.0
H481 H 0.49145 0.24425 0.62016 0.0
H482 H 0.60142 0.45096 0.71325 0.0
H483 H 0.55262 0.44752 0.69214 0.0
H484 H 0.61917 0.41102 0.74533 0.0
H485 H 0.63069 0.36748 0.7375 0.0
C486 C 0.19161 0.58694 0.85667 0.0
C487 C 0.17233 0.55131 0.82889 0.0
C488 C 0.24098 0.54495 0.83212 0.0
C489 C 0.25866 0.57744 0.86247 0.0
N490 N 0.25004 0.6273 0.90635 0.0
N491 N 0.1746 0.49043 0.79568 0.0
C492 C 0.23378 0.59799 0.87555 0.0
C493 C 0.19576 0.52836 0.8185 0.0
N494 N 0.17022 0.61089 0.86411 0.0
N495 N 0.26837 0.5317 0.81487 0.0
H496 H 0.14132 0.47708 0.78506 0.0
H497 H 0.18844 0.46984 0.79036 0.0
H498 H 0.30249 0.54504 0.82287 0.0
H499 H 0.25887 0.51157 0.78999 0.0
H500 H 0.1847 0.64032 0.88078 0.0
H501 H 0.13862 0.60245 0.85175 0.0
H502 H 0.23139 0.6397 0.92002 0.0
H503 H 0.2816 0.63746 0.91962 0.0
C504 C 0.69829 0.18979 -0.00473 0.0
C505 C 0.6518 0.16634 0.00476 0.0
C506 C 0.66408 0.23085 0.04504 0.0
C507 C 0.70854 0.25611 0.03055 0.0
N508 N 0.76222 0.26254 0.98329 0.0
N509 N 0.58891 0.16549 0.03626 0.0
C510 C 0.7241 0.2363 0.00337 0.0
C511 C 0.63419 0.18716 0.02905 0.0
N512 N 0.71795 0.16792 0.97822 0.0
N513 N 0.65093 0.24781 0.07472 0.0
H514 H 0.5669 0.13269 0.02651 0.0
H515 H 0.57301 0.18078 0.05011 0.0
H516 H 0.67194 0.27944 0.08722 0.0
H517 H 0.6206 0.22917 0.08889 0.0
H518 H 0.75277 0.18311 0.97402 0.0
H519 H 0.7005 0.1337 0.97164 0.0
H520 H 0.77292 0.25031 0.96058 0.0
H521 H 0.77945 0.29742 0.98602 0.0
C522 C 0.46579 0.6369 0.20166 0.0
C523 C 0.50482 0.65306 0.17871 0.0
C524 C 0.511 0.72711 0.17798 0.0
C525 C 0.475 0.71252 0.20392 0.0
N526 N 0.42132 0.65521 0.24471 0.0
N527 N 0.57062 0.71686 0.15241 0.0
C528 C 0.45313 0.66778 0.21701 0.0
C529 C 0.52953 0.69926 0.16957 0.0
N530 N 0.44049 0.59203 0.20807 0.0
N531 N 0.526 0.76687 0.1596 0.0
H532 H 0.58538 0.69807 0.14382 0.0
H533 H 0.59204 0.75123 0.14951 0.0
H534 H 0.51175 0.78736 0.16353 0.0
H535 H 0.54871 0.77691 0.13716 0.0
H536 H 0.40893 0.57732 0.22078 0.0
H537 H 0.45034 0.56919 0.19883 0.0
H538 H 0.40743 0.62446 0.25827 0.0
H539 H 0.41092 0.67685 0.25591 0.0
C540 C 0.84571 0.46855 0.36045 0.0
C541 C 0.87153 0.51414 0.34952 0.0
C542 C 0.82817 0.53297 0.39341 0.0
C543 C 0.79415 0.48686 0.39518 0.0
N544 N 0.77811 0.41017 0.39001 0.0
N545 N 0.88352 0.5896 0.35324 0.0
C546 C 0.8052 0.45427 0.38162 0.0
C547 C 0.86198 0.54642 0.36553 0.0
N548 N 0.8609 0.4395 0.35151 0.0
N549 N 0.83047 0.56369 0.41989 0.0
H550 H 0.90781 0.60105 0.33202 0.0
H551 H 0.87391 0.61284 0.36174 0.0
H552 H 0.81138 0.5544 0.44461 0.0
H553 H 0.85651 0.59702 0.42067 0.0
H554 H 0.84586 0.40656 0.36064 0.0
H555 H 0.89131 0.44968 0.33752 0.0
H556 H 0.77974 0.384 0.3762 0.0
H557 H 0.75475 0.3999 0.41196 0.0
C558 C 0.16773 0.56679 0.38486 0.0
C559 C 0.12633 0.56687 0.38038 0.0
C560 C 0.12886 0.58369 0.44908 0.0
C561 C 0.17522 0.59474 0.45107 0.0
N562 N 0.24062 0.60179 0.41799 0.0
N563 N 0.0573 0.53877 0.4147 0.0
C564 C 0.19509 0.58681 0.41842 0.0
C565 C 0.10328 0.56504 0.41428 0.0
N566 N 0.18044 0.54763 0.35676 0.0
N567 N 0.10901 0.59064 0.48023 0.0
H568 H 0.03938 0.51704 0.39157 0.0
H569 H 0.03855 0.53311 0.43949 0.0
H570 H 0.1252 0.60092 0.50725 0.0
H571 H 0.07692 0.58765 0.47858 0.0
H572 H 0.20973 0.54507 0.35871 0.0
H573 H 0.15906 0.5312 0.33289 0.0
H574 H 0.25694 0.60028 0.39339 0.0
H575 H 0.26283 0.61935 0.44098 0.0
C576 C 0.6136 0.15699 0.56164 0.0
C577 C 0.57171 0.11751 0.55533 0.0
C578 C 0.55538 0.11832 0.62341 0.0
C579 C 0.59066 0.16384 0.62634 0.0
N580 N 0.64954 0.22877 0.59448 0.0
N581 N 0.52743 0.04834 0.58754 0.0
C582 C 0.61951 0.18376 0.5947 0.0
C583 C 0.54875 0.09397 0.58824 0.0
N584 N 0.64613 0.1696 0.53468 0.0
N585 N 0.52821 0.09839 0.65384 0.0
H586 H 0.53103 0.03084 0.56438 0.0
H587 H 0.51306 0.02896 0.61162 0.0
H588 H 0.53373 0.11415 0.68079 0.0
H589 H 0.4991 0.06693 0.65164 0.0
H590 H 0.67796 0.19823 0.5375 0.0
H591 H 0.64135 0.14899 0.51066 0.0
H592 H 0.66826 0.24485 0.57048 0.0
H593 H 0.6525 0.25091 0.61653 0.0
C594 C 0.3684 0.47748 0.76728 0.0
C595 C 0.41105 0.50557 0.75083 0.0
C596 C 0.43866 0.54901 0.8111 0.0
C597 C 0.39348 0.52696 0.82469 0.0
N598 N 0.31466 0.46936 0.81558 0.0
N599 N 0.48784 0.56623 0.75655 0.0
C600 C 0.35834 0.49009 0.8033 0.0
C601 C 0.44679 0.54026 0.77292 0.0
N602 N 0.33713 0.43933 0.74795 0.0
N603 N 0.47378 0.5783 0.83482 0.0
H604 H 0.49539 0.5588 0.72939 0.0
H605 H 0.51361 0.59595 0.76895 0.0
H606 H 0.4691 0.58627 0.86269 0.0
H607 H 0.50782 0.59193 0.82819 0.0
H608 H 0.30744 0.41484 0.76007 0.0
H609 H 0.34263 0.42994 0.72086 0.0
H610 H 0.28681 0.44688 0.79858 0.0
H611 H 0.30512 0.4765 0.84179 0.0
C612 C 0.91036 0.47369 0.92997 0.0
C613 C 0.91901 0.44434 0.90749 0.0
C614 C 0.88847 0.38766 0.9575 0.0
C615 C 0.87868 0.41665 0.97986 0.0
N616 N 0.89251 0.49177 -0.00756 0.0
N617 N 0.92707 0.37844 0.90327 0.0
C618 C 0.89346 0.46114 0.96763 0.0
C619 C 0.91198 0.4032 0.92261 0.0
N620 N 0.91682 0.51288 0.91468 0.0
N621 N 0.87264 0.34417 0.96788 0.0
H622 H 0.94237 0.38713 0.87668 0.0
H623 H 0.92812 0.35121 0.91509 0.0
H624 H 0.85664 0.33092 -0.00647 0.0
H625 H 0.87246 0.31979 0.94971 0.0
H626 H 0.90556 0.53306 0.92738 0.0
H627 H 0.9317 0.52415 0.88808 0.0
H628 H 0.90689 0.52574 0.98667 0.0
H629 H 0.88118 0.4841 0.02046 0.0
C630 C 0.47151 0.87744 0.07338 0.0
C631 C 0.51708 0.90457 0.06266 0.0
C632 C 0.54103 0.90582 0.12983 0.0
C633 C 0.49598 0.87181 0.13899 0.0
N634 N 0.42452 0.813 0.1103 0.0
N635 N 0.5962 0.93239 0.0798 0.0
C636 C 0.46262 0.85413 0.10831 0.0
C637 C 0.55226 0.91536 0.09055 0.0
N638 N 0.43657 0.87286 0.05003 0.0
N639 N 0.57325 0.93029 0.1576 0.0
H640 H 0.60589 0.93708 0.05118 0.0
H641 H 0.62205 0.93665 0.0991 0.0
H642 H 0.56777 0.92768 0.18687 0.0
H643 H 0.60463 0.95758 0.15107 0.0
H644 H 0.40284 0.85519 0.05832 0.0
H645 H 0.44183 0.89063 0.02466 0.0
H646 H 0.40114 0.79883 0.0873 0.0
H647 H 0.42017 0.78998 0.13142 0.0
C648 C 0.59238 0.48798 0.26228 0.0
C649 C 0.62963 0.5187 0.24067 0.0
C650 C 0.6826 0.52671 0.29318 0.0
C651 C 0.6452 0.49781 0.31569 0.0
N652 N 0.56437 0.45659 0.32469 0.0
N653 N 0.70912 0.57353 0.23718 0.0
C654 C 0.59998 0.48001 0.30109 0.0
C655 C 0.67442 0.54015 0.25675 0.0
N656 N 0.54999 0.4655 0.24529 0.0
N657 N 0.72587 0.53927 0.30565 0.0
H658 H 0.70464 0.58365 0.21 0.0
H659 H 0.74154 0.59378 0.24913 0.0
H660 H 0.73335 0.52947 0.33186 0.0
H661 H 0.75417 0.55608 0.28865 0.0
H662 H 0.52235 0.43874 0.25783 0.0
H663 H 0.54298 0.47189 0.21741 0.0
H664 H 0.53087 0.44699 0.31722 0.0
H665 H 0.56866 0.44959 0.35308 0.0
C666 C 0.43425 0.93407 0.34195 0.0
C667 C 0.44629 0.92291 0.37799 0.0
C668 C 0.45284 0.86287 0.34647 0.0
C669 C 0.44587 0.87689 0.30989 0.0
N670 N 0.44151 0.93385 0.27279 0.0
N671 N 0.48291 0.88752 0.41119 0.0
C672 C 0.44103 0.91558 0.30764 0.0
C673 C 0.46202 0.89165 0.37874 0.0
N674 N 0.41244 0.95843 0.34012 0.0
N675 N 0.44624 0.8207 0.3516 0.0
H676 H 0.49185 0.90974 0.43472 0.0
H677 H 0.49472 0.8648 0.41317 0.0
H678 H 0.43466 0.79621 0.32981 0.0
H679 H 0.44728 0.80845 0.37873 0.0
H680 H 0.3992 0.96325 0.31442 0.0
H681 H 0.40303 0.96969 0.36426 0.0
H682 H 0.44195 0.96428 0.27016 0.0
H683 H 0.44629 0.92107 0.24703 0.0
C684 C 0.51568 0.43681 0.50856 0.0
C685 C 0.53773 0.44851 0.54557 0.0
C686 C 0.60591 0.45508 0.51794 0.0
C687 C 0.58606 0.44813 0.48031 0.0
N688 N 0.52559 0.44417 0.43968 0.0
N689 N 0.60854 0.48454 0.58195 0.0
C690 C 0.54223 0.44335 0.47555 0.0
C691 C 0.58495 0.46439 0.54854 0.0
N692 N 0.46949 0.41582 0.50468 0.0
N693 N 0.6416 0.44822 0.52568 0.0
H694 H 0.59386 0.49282 0.60444 0.0
H695 H 0.6431 0.496 0.58585 0.0
H696 H 0.65506 0.4359 0.50541 0.0
H697 H 0.65415 0.44944 0.55357 0.0
H698 H 0.45228 0.40266 0.47841 0.0
H699 H 0.448 0.40753 0.52781 0.0
H700 H 0.49533 0.44456 0.43512 0.0
H701 H 0.54448 0.44939 0.41507 0.0
C702 C 0.14207 0.59328 0.68548 0.0
C703 C 0.1168 0.54898 0.69848 0.0
C704 C 0.12744 0.5214 0.63644 0.0
C705 C 0.15951 0.56626 0.62595 0.0
N706 N 0.20896 0.64219 0.65146 0.0
N707 N 0.09709 0.47129 0.6896 0.0
C708 C 0.1699 0.60176 0.65328 0.0
C709 C 0.11249 0.51303 0.67491 0.0
N710 N 0.14127 0.6276 0.70491 0.0
N711 N 0.11031 0.48633 0.61051 0.0
H712 H 0.08774 0.46343 0.71807 0.0
H713 H 0.09843 0.44561 0.67449 0.0
H714 H 0.11917 0.48867 0.58201 0.0
H715 H 0.0833 0.45481 0.61677 0.0
H716 H 0.15692 0.66024 0.69473 0.0
H717 H 0.12117 0.62226 0.72882 0.0
H718 H 0.21852 0.66743 0.67244 0.0
H719 H 0.23532 0.64804 0.63333 0.0
C720 C 0.6408 0.15965 0.8656 0.0
C721 C 0.60023 0.12001 0.87456 0.0
C722 C 0.57052 0.11873 0.80922 0.0
C723 C 0.60925 0.16113 0.80298 0.0
N724 N 0.67058 0.22869 0.83165 0.0
N725 N 0.52312 0.06489 0.85651 0.0
C726 C 0.64109 0.18375 0.83317 0.0
C727 C 0.56393 0.10016 0.84677 0.0
N728 N 0.67979 0.17334 0.887 0.0
N729 N 0.5405 0.09635 0.77948 0.0
H730 H 0.51732 0.05097 0.8838 0.0
H731 H 0.49423 0.05173 0.83857 0.0
H732 H 0.54357 0.11028 0.75238 0.0
H733 H 0.51421 0.06335 0.78116 0.0
H734 H 0.71073 0.2008 0.87976 0.0
H735 H 0.68223 0.15374 0.90856 0.0
H736 H 0.69233 0.24705 0.85471 0.0
H737 H 0.66942 0.24805 0.80914 0.0
C738 C 0.49039 0.57548 0.01771 0.0
C739 C 0.495 0.6048 0.04878 0.0
C740 C 0.45289 0.63257 0.01124 0.0
C741 C 0.45081 0.60581 0.97922 0.0
N742 N 0.4797 0.56202 0.94866 0.0
N743 N 0.50028 0.67592 0.06511 0.0
C744 C 0.47399 0.58093 0.98122 0.0
C745 C 0.48209 0.63781 0.04262 0.0
N746 N 0.49912 0.54113 0.02321 0.0
N747 N 0.42796 0.65386 0.01178 0.0
H748 H 0.49414 0.70231 0.05983 0.0
H749 H 0.5263 0.68362 0.08536 0.0
H750 H 0.40585 0.65124 -0.01058 0.0
H751 H 0.42612 0.67057 0.03633 0.0
H752 H 0.4944 0.51777 0.00168 0.0
H753 H 0.50624 0.53287 0.05024 0.0
H754 H 0.50051 0.54772 0.94781 0.0
H755 H 0.46505 0.56257 0.92223 0.0
C756 C 0.91427 0.51898 0.17978 0.0
C757 C 0.90292 0.49403 0.2142 0.0
C758 C 0.84106 0.43052 0.1791 0.0
C759 C 0.85731 0.45256 0.14375 0.0
N760 N 0.91628 0.5151 0.11045 0.0
N761 N 0.86307 0.42124 0.24326 0.0
C762 C 0.89627 0.4959 0.14406 0.0
C763 C 0.86895 0.44806 0.21265 0.0
N764 N 0.93888 0.56474 0.18097 0.0
N765 N 0.79822 0.39469 0.18152 0.0
H766 H 0.88588 0.43173 0.26678 0.0
H767 H 0.83856 0.38741 0.24341 0.0
H768 H 0.77472 0.38274 0.15857 0.0
H769 H 0.78416 0.38029 0.20762 0.0
H770 H 0.94433 0.584 0.15655 0.0
H771 H 0.94892 0.58369 0.20653 0.0
H772 H 0.94706 0.54509 0.10969 0.0
H773 H 0.90483 0.49853 0.08386 0.0
loop_
_geom_bond_atom_site_label_1
_geom_bond_atom_site_label_2
_geom_bond_distance
_geom_bond_site_symmetry_2
_ccdc_geom_bond_type
H0 C8 0.930 . S
H1 C11 0.930 . S
H2 C13 0.930 . S
H3 C14 0.970 1_655 S
H4 C14 0.970 . S
H5 C16 0.930 . S
H6 C18 0.930 . S
H7 C20 0.930 . S
C8 H0 0.930 . S
C8 C9 1.382 . S
C8 C10 1.426 . S
C9 C8 1.382 . S
C9 C13 1.389 . S
C10 C8 1.426 . S
C10 C11 1.375 . S
C10 C14 1.532 1_655 S
C11 H1 0.930 . S
C11 C10 1.375 . S
C11 C12 1.416 . S
C12 C11 1.416 . S
C12 C13 1.371 . S
C13 H2 0.930 . S
C13 C9 1.389 . S
C13 C12 1.371 . S
C14 H3 0.970 1_455 S
C14 H4 0.970 . S
C14 C10 1.532 1_455 S
C14 C15 1.499 . S
C15 C14 1.499 . S
C15 C16 1.370 . S
C15 C20 1.415 . S
C16 H5 0.930 . S
C16 C15 1.370 . S
C16 C17 1.407 . S
C17 C16 1.407 . S
C17 C18 1.365 . S
C18 H6 0.930 . S
C18 C17 1.365 . S
C18 C19 1.393 . S
C19 C18 1.393 . S
C19 C20 1.387 . S
C20 H7 0.930 . S
C20 C15 1.415 . S
C20 C19 1.387 . S
H21 C29 0.930 . S
H22 C32 0.930 . S
H23 C34 0.930 . S
H24 C35 0.970 . S
H25 C35 0.970 . S
H26 C37 0.930 . S
H27 C39 0.930 . S
H28 C41 0.930 . S
C29 H21 0.930 . S
C29 C30 1.382 . S
C29 C31 1.426 . S
C30 C29 1.382 . S
C30 C34 1.389 . S
C31 C29 1.426 . S
C31 C32 1.375 . S
C31 C35 1.532 1_565 S
C32 H22 0.930 . S
C32 C31 1.375 . S
C32 C33 1.416 . S
C33 C32 1.416 . S
C33 C34 1.371 . S
C34 H23 0.930 . S
C34 C30 1.389 . S
C34 C33 1.371 . S
C35 H24 0.970 . S
C35 H25 0.970 . S
C35 C31 1.532 1_545 S
C35 C36 1.499 . S
C36 C35 1.499 . S
C36 C37 1.370 . S
C36 C41 1.415 . S
C37 H26 0.930 . S
C37 C36 1.370 . S
C37 C38 1.407 . S
C38 C37 1.407 . S
C38 C39 1.365 . S
C39 H27 0.930 . S
C39 C38 1.365 . S
C39 C40 1.393 . S
C40 C39 1.393 . S
C40 C41 1.387 . S
C41 H28 0.930 . S
C41 C36 1.415 . S
C41 C40 1.387 . S
H42 C50 0.930 . S
H43 C53 0.930 . S
H44 C55 0.930 . S
H45 C56 0.970 . S
H46 C56 0.970 . S
H47 C58 0.930 . S
H48 C60 0.930 . S
H49 C62 0.930 . S
C50 H42 0.930 . S
C50 C51 1.382 . S
C50 C52 1.426 . S
C51 C50 1.382 . S
C51 C55 1.389 . S
C52 C50 1.426 . S
C52 C53 1.375 . S
C52 C56 1.532 . S
C53 H43 0.930 . S
C53 C52 1.375 . S
C53 C54 1.416 . S
C54 C53 1.416 . S
C54 C55 1.371 . S
C55 H44 0.930 . S
C55 C51 1.389 . S
C55 C54 1.371 . S
C56 H45 0.970 . S
C56 H46 0.970 . S
C56 C52 1.532 . S
C56 C57 1.499 . S
C57 C56 1.499 . S
C57 C58 1.370 . S
C57 C62 1.415 . S
C58 H47 0.930 . S
C58 C57 1.370 . S
C58 C59 1.407 . S
C59 C58 1.407 . S
C59 C60 1.365 . S
C60 H48 0.930 . S
C60 C59 1.365 . S
C60 C61 1.393 . S
C61 C60 1.393 . S
C61 C62 1.387 . S
C62 H49 0.930 . S
C62 C57 1.415 . S
C62 C61 1.387 . S
H63 C71 0.930 . S
H64 C74 0.930 . S
H65 C76 0.930 . S
H66 C77 0.968 . S
H67 C77 0.970 . S
H68 C79 0.930 . S
H69 C81 0.930 . S
H70 C83 0.930 . S
C71 H63 0.930 . S
C71 C72 1.382 . S
C71 C73 1.426 . S
C72 C71 1.382 . S
C72 C76 1.389 . S
C73 C71 1.426 . S
C73 C74 1.375 . S
C73 C77 1.532 1_655 S
C74 H64 0.930 . S
C74 C73 1.375 . S
C74 C75 1.416 . S
C75 C74 1.416 . S
C75 C76 1.371 . S
C76 H65 0.930 . S
C76 C72 1.389 . S
C76 C75 1.371 . S
C77 H66 0.968 . S
C77 H67 0.970 . S
C77 C73 1.532 1_455 S
C77 C78 1.499 . S
C78 C77 1.499 . S
C78 C79 1.370 . S
C78 C83 1.415 . S
C79 H68 0.930 . S
C79 C78 1.370 . S
C79 C80 1.407 . S
C80 C79 1.407 . S
C80 C81 1.365 . S
C81 H69 0.930 . S
C81 C80 1.365 . S
C81 C82 1.393 . S
C82 C81 1.393 . S
C82 C83 1.387 . S
C83 H70 0.930 . S
C83 C78 1.415 . S
C83 C82 1.387 . S
H84 C92 0.930 . S
H85 C95 0.930 . S
H86 C97 0.930 . S
H87 C98 0.970 1_554 S
H88 C98 0.970 . S
H89 C100 0.930 . S
H90 C102 0.930 . S
H91 C104 0.930 . S
C92 H84 0.930 . S
C92 C93 1.382 . S
C92 C94 1.426 1_554 S
C93 C92 1.382 . S
C93 C97 1.389 1_554 S
C94 C92 1.426 1_556 S
C94 C95 1.375 . S
C94 C98 1.532 . S
C95 H85 0.930 . S
C95 C94 1.375 . S
C95 C96 1.416 . S
C96 C95 1.416 . S
C96 C97 1.371 . S
C97 H86 0.930 . S
C97 C93 1.389 1_556 S
C97 C96 1.371 . S
C98 H87 0.970 1_556 S
C98 H88 0.970 . S
C98 C94 1.532 . S
C98 C99 1.499 1_546 S
C99 C98 1.499 1_564 S
C99 C100 1.370 . S
C99 C104 1.415 1_554 S
C100 H89 0.930 . S
C100 C99 1.370 . S
C100 C101 1.407 . S
C101 C100 1.407 . S
C101 C102 1.365 . S
C102 H90 0.930 . S
C102 C101 1.365 . S
C102 C103 1.393 1_554 S
C103 C102 1.393 1_556 S
C103 C104 1.387 . S
C104 H91 0.930 . S
C104 C99 1.415 1_556 S
C104 C103 1.387 . S
H105 C113 0.930 . S
H106 C116 0.930 . S
H107 C118 0.930 . S
H108 C119 0.970 . S
H109 C119 0.970 . S
H110 C121 0.930 . S
H111 C123 0.930 . S
H112 C125 0.930 . S
C113 H105 0.930 . S
C113 C114 1.382 . S
C113 C115 1.426 . S
C114 C113 1.382 . S
C114 C118 1.389 . S
C115 C113 1.426 . S
C115 C116 1.375 . S
C115 C119 1.532 . S
C116 H106 0.930 . S
C116 C115 1.375 . S
C116 C117 1.416 . S
C117 C116 1.416 . S
C117 C118 1.371 . S
C118 H107 0.930 . S
C118 C114 1.389 . S
C118 C117 1.371 . S
C119 H108 0.970 . S
C119 H109 0.970 . S
C119 C115 1.532 . S
C119 C120 1.499 . S
C120 C119 1.499 . S
C120 C121 1.370 . S
C120 C125 1.415 . S
C121 H110 0.930 . S
C121 C120 1.370 . S
C121 C122 1.407 . S
C122 C121 1.407 . S
C122 C123 1.365 . S
C123 H111 0.930 . S
C123 C122 1.365 . S
C123 C124 1.393 . S
C124 C123 1.393 . S
C124 C125 1.387 . S
C125 H112 0.930 . S
C125 C120 1.415 . S
C125 C124 1.387 . S
Mn126 O131 2.095 . S
Mn126 O141 2.162 . S
Mn126 O142 2.297 . S
Mn126 O150 2.385 . S
Mn126 O151 2.209 . S
Mn126 O152 2.094 . S
Mn127 O132 2.121 . S
Mn127 N134 2.257 . S
Mn127 N143 2.282 . S
Mn127 O151 2.215 . S
Mn127 O153 2.117 . S
C128 O150 1.234 . S
C128 O151 1.283 . S
C129 O141 1.281 . S
C129 O142 1.236 . S
C130 O152 1.240 . S
C130 O153 1.264 . S
O131 Mn126 2.095 . S
O131 C140 1.250 . S
O132 Mn127 2.121 . S
O132 C140 1.258 . S
C133 N134 1.326 . S
C133 C137 1.460 . S
C133 H139 0.929 . S
N134 Mn127 2.257 . S
N134 C133 1.326 . S
N134 C138 1.362 . S
C135 C136 1.258 . S
C135 C138 1.431 . S
C135 C155 1.449 . S
C136 C135 1.258 . S
C136 C137 1.477 . S
C136 H156 0.931 . S
C137 C133 1.460 . S
C137 C136 1.477 . S
C137 H157 0.930 . S
C138 N134 1.362 . S
C138 C135 1.431 . S
C138 C148 1.476 . S
H139 C133 0.929 . S
C140 O131 1.250 . S
C140 O132 1.258 . S
O141 Mn126 2.162 . S
O141 C129 1.281 . S
O142 Mn126 2.297 . S
O142 C129 1.236 . S
N143 Mn127 2.282 . S
N143 C144 1.328 . S
N143 C148 1.318 . S
C144 N143 1.328 . S
C144 C145 1.457 . S
C144 H149 0.929 . S
C145 C144 1.457 . S
C145 C146 1.291 . S
C145 H158 0.931 . S
C146 C145 1.291 . S
C146 C147 1.373 . S
C146 H159 0.929 . S
C147 C146 1.373 . S
C147 C148 1.396 . S
C147 C154 1.403 . S
C148 C138 1.476 . S
C148 N143 1.318 . S
C148 C147 1.396 . S
H149 C144 0.929 . S
O150 Mn126 2.385 . S
O150 C128 1.234 . S
O151 Mn126 2.209 . S
O151 Mn127 2.215 . S
O151 C128 1.283 . S
O152 Mn126 2.094 . S
O152 C130 1.240 . S
O153 Mn127 2.117 . S
O153 C130 1.264 . S
C154 C147 1.403 . S
C154 C155 1.399 . S
C154 H160 0.929 . S
C155 C135 1.449 . S
C155 C154 1.399 . S
C155 H161 0.930 . S
H156 C136 0.931 . S
H157 C137 0.930 . S
H158 C145 0.931 . S
H159 C146 0.929 . S
H160 C154 0.929 . S
H161 C155 0.930 . S
Mn162 O167 2.095 . S
Mn162 O177 2.162 . S
Mn162 O178 2.297 . S
Mn162 O186 2.385 . S
Mn162 O187 2.209 . S
Mn162 O188 2.094 . S
Mn163 O168 2.121 . S
Mn163 N170 2.257 . S
Mn163 N179 2.282 . S
Mn163 O187 2.215 . S
Mn163 O189 2.117 . S
C164 O186 1.234 . S
C164 O187 1.283 . S
C165 O177 1.281 . S
C165 O178 1.236 . S
C166 O188 1.240 . S
C166 O189 1.264 . S
O167 Mn162 2.095 . S
O167 C176 1.250 . S
O168 Mn163 2.121 . S
O168 C176 1.258 . S
C169 N170 1.326 . S
C169 C173 1.460 . S
C169 H175 0.929 . S
N170 Mn163 2.257 . S
N170 C169 1.326 . S
N170 C174 1.362 . S
C171 C172 1.258 . S
C171 C174 1.431 . S
C171 C191 1.449 . S
C172 C171 1.258 . S
C172 C173 1.477 . S
C172 H192 0.931 . S
C173 C169 1.460 . S
C173 C172 1.477 . S
C173 H193 0.930 . S
C174 N170 1.362 . S
C174 C171 1.431 . S
C174 C184 1.476 . S
H175 C169 0.929 . S
C176 O167 1.250 . S
C176 O168 1.258 . S
O177 Mn162 2.162 . S
O177 C165 1.281 . S
O178 Mn162 2.297 . S
O178 C165 1.236 . S
N179 Mn163 2.282 . S
N179 C180 1.328 . S
N179 C184 1.318 . S
C180 N179 1.328 . S
C180 C181 1.457 . S
C180 H185 0.929 . S
C181 C180 1.457 . S
C181 C182 1.291 . S
C181 H194 0.931 . S
C182 C181 1.291 . S
C182 C183 1.373 . S
C182 H195 0.929 . S
C183 C182 1.373 . S
C183 C184 1.396 . S
C183 C190 1.403 . S
C184 C174 1.476 . S
C184 N179 1.318 . S
C184 C183 1.396 . S
H185 C180 0.929 . S
O186 Mn162 2.385 . S
O186 C164 1.234 . S
O187 Mn162 2.209 . S
O187 Mn163 2.215 . S
O187 C164 1.283 . S
O188 Mn162 2.094 . S
O188 C166 1.240 . S
O189 Mn163 2.117 . S
O189 C166 1.264 . S
C190 C183 1.403 . S
C190 C191 1.399 . S
C190 H196 0.929 . S
C191 C171 1.449 . S
C191 C190 1.399 . S
C191 H197 0.930 . S
H192 C172 0.931 . S
H193 C173 0.930 . S
H194 C181 0.931 . S
H195 C182 0.929 . S
H196 C190 0.929 . S
H197 C191 0.930 . S
Mn198 O203 2.095 . S
Mn198 O213 2.162 . S
Mn198 O214 2.297 . S
Mn198 O222 2.385 . S
Mn198 O223 2.209 . S
Mn198 O224 2.094 . S
Mn199 O204 2.121 . S
Mn199 N206 2.257 . S
Mn199 N215 2.282 . S
Mn199 O223 2.215 . S
Mn199 O225 2.117 . S
C200 O222 1.234 . S
C200 O223 1.283 . S
C201 O213 1.281 . S
C201 O214 1.236 . S
C202 O224 1.240 . S
C202 O225 1.264 . S
O203 Mn198 2.095 . S
O203 C212 1.250 . S
O204 Mn199 2.121 . S
O204 C212 1.258 . S
C205 N206 1.326 . S
C205 C209 1.460 . S
C205 H211 0.929 . S
N206 Mn199 2.257 . S
N206 C205 1.326 . S
N206 C210 1.362 . S
C207 C208 1.258 . S
C207 C210 1.431 . S
C207 C227 1.449 . S
C208 C207 1.258 . S
C208 C209 1.477 . S
C208 H228 0.931 . S
C209 C205 1.460 . S
C209 C208 1.477 . S
C209 H229 0.930 . S
C210 N206 1.362 . S
C210 C207 1.431 . S
C210 C220 1.476 . S
H211 C205 0.929 . S
C212 O203 1.250 . S
C212 O204 1.258 . S
O213 Mn198 2.162 . S
O213 C201 1.281 . S
O214 Mn198 2.297 . S
O214 C201 1.236 . S
N215 Mn199 2.282 . S
N215 C216 1.328 . S
N215 C220 1.318 . S
C216 N215 1.328 . S
C216 C217 1.457 . S
C216 H221 0.929 . S
C217 C216 1.457 . S
C217 C218 1.291 . S
C217 H230 0.931 . S
C218 C217 1.291 . S
C218 C219 1.373 . S
C218 H231 0.929 . S
C219 C218 1.373 . S
C219 C220 1.396 . S
C219 C226 1.403 . S
C220 C210 1.476 . S
C220 N215 1.318 . S
C220 C219 1.396 . S
H221 C216 0.929 . S
O222 Mn198 2.385 . S
O222 C200 1.234 . S
O223 Mn198 2.209 . S
O223 Mn199 2.215 . S
O223 C200 1.283 . S
O224 Mn198 2.094 . S
O224 C202 1.240 . S
O225 Mn199 2.117 . S
O225 C202 1.264 . S
C226 C219 1.403 . S
C226 C227 1.399 . S
C226 H232 0.929 . S
C227 C207 1.449 . S
C227 C226 1.399 . S
C227 H233 0.930 . S
H228 C208 0.931 . S
H229 C209 0.930 . S
H230 C217 0.931 . S
H231 C218 0.929 . S
H232 C226 0.929 . S
H233 C227 0.930 . S
Mn234 O239 2.095 . S
Mn234 O249 2.162 . S
Mn234 O250 2.297 . S
Mn234 O258 2.385 . S
Mn234 O259 2.209 . S
Mn234 O260 2.094 . S
Mn235 O240 2.121 . S
Mn235 N242 2.257 . S
Mn235 N251 2.282 . S
Mn235 O259 2.215 . S
Mn235 O261 2.117 . S
C236 O258 1.234 . S
C236 O259 1.283 . S
C237 O249 1.281 . S
C237 O250 1.236 . S
C238 O260 1.240 . S
C238 O261 1.264 . S
O239 Mn234 2.095 . S
O239 C248 1.250 . S
O240 Mn235 2.121 . S
O240 C248 1.258 . S
C241 N242 1.326 . S
C241 C245 1.460 1_556 S
C241 H247 0.929 . S
N242 Mn235 2.257 . S
N242 C241 1.326 . S
N242 C246 1.362 . S
C243 C244 1.258 . S
C243 C246 1.431 1_554 S
C243 C263 1.449 . S
C244 C243 1.258 . S
C244 C245 1.477 . S
C244 H264 0.931 . S
C245 C241 1.460 1_554 S
C245 C244 1.477 . S
C245 H265 0.930 . S
C246 N242 1.362 . S
C246 C243 1.431 1_556 S
C246 C256 1.476 . S
H247 C241 0.929 . S
C248 O239 1.250 . S
C248 O240 1.258 . S
O249 Mn234 2.162 . S
O249 C237 1.281 . S
O250 Mn234 2.297 . S
O250 C237 1.236 . S
N251 Mn235 2.282 . S
N251 C252 1.328 . S
N251 C256 1.318 . S
C252 N251 1.328 . S
C252 C253 1.457 . S
C252 H257 0.929 . S
C253 C252 1.457 . S
C253 C254 1.291 . S
C253 H266 0.931 . S
C254 C253 1.291 . S
C254 C255 1.373 . S
C254 H267 0.929 . S
C255 C254 1.373 . S
C255 C256 1.396 . S
C255 C262 1.403 1_556 S
C256 C246 1.476 . S
C256 N251 1.318 . S
C256 C255 1.396 . S
H257 C252 0.929 . S
O258 Mn234 2.385 . S
O258 C236 1.234 . S
O259 Mn234 2.209 . S
O259 Mn235 2.215 . S
O259 C236 1.283 . S
O260 Mn234 2.094 . S
O260 C238 1.240 . S
O261 Mn235 2.117 . S
O261 C238 1.264 . S
C262 C255 1.403 1_554 S
C262 C263 1.399 . S
C262 H268 0.929 . S
C263 C243 1.449 . S
C263 C262 1.399 . S
C263 H269 0.930 . S
H264 C244 0.931 . S
H265 C245 0.930 . S
H266 C253 0.931 . S
H267 C254 0.929 . S
H268 C262 0.929 . S
H269 C263 0.930 . S
Mn270 O275 2.095 . S
Mn270 O285 2.162 . S
Mn270 O286 2.297 . S
Mn270 O294 2.385 . S
Mn270 O295 2.209 . S
Mn270 O296 2.094 . S
Mn271 O276 2.121 . S
Mn271 N278 2.257 . S
Mn271 N287 2.282 . S
Mn271 O295 2.215 . S
Mn271 O297 2.117 . S
C272 O294 1.234 . S
C272 O295 1.283 . S
C273 O285 1.281 . S
C273 O286 1.236 . S
C274 O296 1.240 . S
C274 O297 1.264 . S
O275 Mn270 2.095 . S
O275 C284 1.250 . S
O276 Mn271 2.121 . S
O276 C284 1.258 . S
C277 N278 1.326 . S
C277 C281 1.460 . S
C277 H283 0.929 . S
N278 Mn271 2.257 . S
N278 C277 1.326 . S
N278 C282 1.362 . S
C279 C280 1.258 . S
C279 C282 1.431 . S
C279 C299 1.449 . S
C280 C279 1.258 . S
C280 C281 1.477 . S
C280 H300 0.931 . S
C281 C277 1.460 . S
C281 C280 1.477 . S
C281 H301 0.930 . S
C282 N278 1.362 . S
C282 C279 1.431 . S
C282 C292 1.476 . S
H283 C277 0.929 . S
C284 O275 1.250 . S
C284 O276 1.258 . S
O285 Mn270 2.162 . S
O285 C273 1.281 . S
O286 Mn270 2.297 . S
O286 C273 1.236 . S
N287 Mn271 2.282 . S
N287 C288 1.328 . S
N287 C292 1.318 . S
C288 N287 1.328 . S
C288 C289 1.457 . S
C288 H293 0.929 . S
C289 C288 1.457 . S
C289 C290 1.291 . S
C289 H302 0.931 . S
C290 C289 1.291 . S
C290 C291 1.373 . S
C290 H303 0.929 . S
C291 C290 1.373 . S
C291 C292 1.396 . S
C291 C298 1.403 . S
C292 C282 1.476 . S
C292 N287 1.318 . S
C292 C291 1.396 . S
H293 C288 0.929 . S
O294 Mn270 2.385 . S
O294 C272 1.234 . S
O295 Mn270 2.209 . S
O295 Mn271 2.215 . S
O295 C272 1.283 . S
O296 Mn270 2.094 . S
O296 C274 1.240 . S
O297 Mn271 2.117 . S
O297 C274 1.264 . S
C298 C291 1.403 . S
C298 C299 1.399 . S
C298 H304 0.929 . S
C299 C279 1.449 . S
C299 C298 1.399 . S
C299 H305 0.930 . S
H300 C280 0.931 . S
H301 C281 0.930 . S
H302 C289 0.931 . S
H303 C290 0.929 . S
H304 C298 0.929 . S
H305 C299 0.930 . S
Mn306 O311 2.095 . S
Mn306 O321 2.162 . S
Mn306 O322 2.297 . S
Mn306 O330 2.385 . S
Mn306 O331 2.209 . S
Mn306 O332 2.094 . S
Mn307 O312 2.121 . S
Mn307 N314 2.257 . S
Mn307 N323 2.282 . S
Mn307 O331 2.215 . S
Mn307 O333 2.117 . S
C308 O330 1.234 . S
C308 O331 1.283 . S
C309 O321 1.281 . S
C309 O322 1.236 . S
C310 O332 1.240 . S
C310 O333 1.264 . S
O311 Mn306 2.095 . S
O311 C320 1.250 . S
O312 Mn307 2.121 . S
O312 C320 1.258 . S
C313 N314 1.326 . S
C313 C317 1.460 . S
C313 H319 0.929 . S
N314 Mn307 2.257 . S
N314 C313 1.326 . S
N314 C318 1.362 . S
C315 C316 1.258 . S
C315 C318 1.431 . S
C315 C335 1.449 . S
C316 C315 1.258 . S
C316 C317 1.477 . S
C316 H336 0.931 . S
C317 C313 1.460 . S
C317 C316 1.477 . S
C317 H337 0.930 . S
C318 N314 1.362 . S
C318 C315 1.431 . S
C318 C328 1.476 . S
H319 C313 0.929 . S
C320 O311 1.250 . S
C320 O312 1.258 . S
O321 Mn306 2.162 . S
O321 C309 1.281 . S
O322 Mn306 2.297 . S
O322 C309 1.236 . S
N323 Mn307 2.282 . S
N323 C324 1.328 . S
N323 C328 1.318 . S
C324 N323 1.328 . S
C324 C325 1.457 . S
C324 H329 0.929 . S
C325 C324 1.457 . S
C325 C326 1.291 . S
C325 H338 0.931 . S
C326 C325 1.291 . S
C326 C327 1.373 . S
C326 H339 0.929 . S
C327 C326 1.373 . S
C327 C328 1.396 . S
C327 C334 1.403 . S
C328 C318 1.476 . S
C328 N323 1.318 . S
C328 C327 1.396 . S
H329 C324 0.929 . S
O330 Mn306 2.385 . S
O330 C308 1.234 . S
O331 Mn306 2.209 . S
O331 Mn307 2.215 . S
O331 C308 1.283 . S
O332 Mn306 2.094 . S
O332 C310 1.240 . S
O333 Mn307 2.117 . S
O333 C310 1.264 . S
C334 C327 1.403 . S
C334 C335 1.399 . S
C334 H340 0.929 . S
C335 C315 1.449 . S
C335 C334 1.399 . S
C335 H341 0.930 . S
H336 C316 0.931 . S
H337 C317 0.930 . S
H338 C325 0.931 . S
H339 C326 0.929 . S
H340 C334 0.929 . S
H341 C335 0.930 . S
C342 C343 1.363 . S
C342 C348 1.379 . S
C342 N350 1.356 . S
C343 C342 1.363 . S
C343 C349 1.363 . S
C344 C345 1.363 . S
C344 C349 1.379 . S
C344 N351 1.356 . S
C345 C344 1.363 . S
C345 C348 1.363 . S
N346 C348 1.356 . S
N346 H358 0.984 . S
N346 H359 0.985 . S
N347 C349 1.356 . S
N347 H352 0.984 . S
N347 H353 0.985 . S
C348 C342 1.379 . S
C348 C345 1.363 . S
C348 N346 1.356 . S
C349 C343 1.363 . S
C349 C344 1.379 . S
C349 N347 1.356 . S
N350 C342 1.356 . S
N350 H356 0.984 . S
N350 H357 0.984 . S
N351 C344 1.356 . S
N351 H354 0.984 . S
N351 H355 0.985 . S
H352 N347 0.984 . S
H353 N347 0.985 . S
H354 N351 0.984 . S
H355 N351 0.985 . S
H356 N350 0.984 . S
H357 N350 0.984 . S
H358 N346 0.984 . S
H359 N346 0.985 . S
C360 C361 1.363 . S
C360 C366 1.379 . S
C360 N368 1.356 . S
C361 C360 1.363 . S
C361 C367 1.363 . S
C362 C363 1.363 . S
C362 C367 1.379 . S
C362 N369 1.356 . S
C363 C362 1.363 . S
C363 C366 1.363 . S
N364 C366 1.356 . S
N364 H376 0.984 . S
N364 H377 0.985 . S
N365 C367 1.356 . S
N365 H370 0.984 . S
N365 H371 0.985 . S
C366 C360 1.379 . S
C366 C363 1.363 . S
C366 N364 1.356 . S
C367 C361 1.363 . S
C367 C362 1.379 . S
C367 N365 1.356 . S
N368 C360 1.356 . S
N368 H374 0.984 . S
N368 H375 0.984 . S
N369 C362 1.356 . S
N369 H372 0.984 . S
N369 H373 0.985 . S
H370 N365 0.984 . S
H371 N365 0.985 . S
H372 N369 0.984 . S
H373 N369 0.985 . S
H374 N368 0.984 . S
H375 N368 0.984 . S
H376 N364 0.984 . S
H377 N364 0.985 . S
C378 C379 1.363 . S
C378 C384 1.379 . S
C378 N386 1.356 . S
C379 C378 1.363 . S
C379 C385 1.363 . S
C380 C381 1.363 . S
C380 C385 1.379 . S
C380 N387 1.356 . S
C381 C380 1.363 . S
C381 C384 1.363 . S
N382 C384 1.356 . S
N382 H394 0.984 . S
N382 H395 0.985 . S
N383 C385 1.356 . S
N383 H388 0.984 . S
N383 H389 0.985 . S
C384 C378 1.379 . S
C384 C381 1.363 . S
C384 N382 1.356 . S
C385 C379 1.363 . S
C385 C380 1.379 . S
C385 N383 1.356 . S
N386 C378 1.356 . S
N386 H392 0.984 . S
N386 H393 0.984 . S
N387 C380 1.356 . S
N387 H390 0.984 . S
N387 H391 0.985 . S
H388 N383 0.984 . S
H389 N383 0.985 . S
H390 N387 0.984 . S
H391 N387 0.985 . S
H392 N386 0.984 . S
H393 N386 0.984 . S
H394 N382 0.984 . S
H395 N382 0.985 . S
C396 C397 1.363 . S
C396 C402 1.379 . S
C396 N404 1.356 . S
C397 C396 1.363 . S
C397 C403 1.363 . S
C398 C399 1.363 . S
C398 C403 1.379 . S
C398 N405 1.356 . S
C399 C398 1.363 . S
C399 C402 1.363 . S
N400 C402 1.356 . S
N400 H412 0.984 . S
N400 H413 0.985 . S
N401 C403 1.356 . S
N401 H406 0.984 . S
N401 H407 0.985 . S
C402 C396 1.379 . S
C402 C399 1.363 . S
C402 N400 1.356 . S
C403 C397 1.363 . S
C403 C398 1.379 . S
C403 N401 1.356 . S
N404 C396 1.356 . S
N404 H410 0.984 . S
N404 H411 0.984 . S
N405 C398 1.356 . S
N405 H408 0.984 . S
N405 H409 0.985 . S
H406 N401 0.984 . S
H407 N401 0.985 . S
H408 N405 0.984 . S
H409 N405 0.985 . S
H410 N404 0.984 . S
H411 N404 0.984 . S
H412 N400 0.984 . S
H413 N400 0.985 . S
C414 C415 1.363 . S
C414 C420 1.379 . S
C414 N422 1.356 1_556 S
C415 C414 1.363 . S
C415 C421 1.363 . S
C416 C417 1.363 . S
C416 C421 1.379 . S
C416 N423 1.356 . S
C417 C416 1.363 . S
C417 C420 1.363 . S
N418 C420 1.356 . S
N418 H430 0.984 1_556 S
N418 H431 0.985 . S
N419 C421 1.356 . S
N419 H424 0.984 . S
N419 H425 0.985 . S
C420 C414 1.379 . S
C420 C417 1.363 . S
C420 N418 1.356 . S
C421 C415 1.363 . S
C421 C416 1.379 . S
C421 N419 1.356 . S
N422 C414 1.356 1_554 S
N422 H428 0.984 . S
N422 H429 0.984 . S
N423 C416 1.356 . S
N423 H426 0.984 . S
N423 H427 0.985 . S
H424 N419 0.984 . S
H425 N419 0.985 . S
H426 N423 0.984 . S
H427 N423 0.985 . S
H428 N422 0.984 . S
H429 N422 0.984 . S
H430 N418 0.984 1_554 S
H431 N418 0.985 . S
C432 C433 1.363 . S
C432 C438 1.379 . S
C432 N440 1.356 . S
C433 C432 1.363 . S
C433 C439 1.363 . S
C434 C435 1.363 . S
C434 C439 1.379 . S
C434 N441 1.356 . S
C435 C434 1.363 . S
C435 C438 1.363 . S
N436 C438 1.356 . S
N436 H448 0.984 . S
N436 H449 0.985 . S
N437 C439 1.356 . S
N437 H442 0.984 . S
N437 H443 0.985 . S
C438 C432 1.379 . S
C438 C435 1.363 . S
C438 N436 1.356 . S
C439 C433 1.363 . S
C439 C434 1.379 . S
C439 N437 1.356 . S
N440 C432 1.356 . S
N440 H446 0.984 . S
N440 H447 0.984 . S
N441 C434 1.356 . S
N441 H444 0.984 . S
N441 H445 0.985 . S
H442 N437 0.984 . S
H443 N437 0.985 . S
H444 N441 0.984 . S
H445 N441 0.985 . S
H446 N440 0.984 . S
H447 N440 0.984 . S
H448 N436 0.984 . S
H449 N436 0.985 . S
C450 C451 1.363 . S
C450 C456 1.379 . S
C450 N458 1.356 . S
C451 C450 1.363 . S
C451 C457 1.363 . S
C452 C453 1.363 . S
C452 C457 1.379 . S
C452 N459 1.356 . S
C453 C452 1.363 . S
C453 C456 1.363 . S
N454 C456 1.356 . S
N454 H466 0.984 . S
N454 H467 0.985 . S
N455 C457 1.356 . S
N455 H460 0.984 . S
N455 H461 0.985 . S
C456 C450 1.379 . S
C456 C453 1.363 . S
C456 N454 1.356 . S
C457 C451 1.363 . S
C457 C452 1.379 . S
C457 N455 1.356 . S
N458 C450 1.356 . S
N458 H464 0.984 . S
N458 H465 0.984 . S
N459 C452 1.356 . S
N459 H462 0.984 . S
N459 H463 0.985 . S
H460 N455 0.984 . S
H461 N455 0.985 . S
H462 N459 0.984 . S
H463 N459 0.985 . S
H464 N458 0.984 . S
H465 N458 0.984 . S
H466 N454 0.984 . S
H467 N454 0.985 . S
C468 C469 1.363 . S
C468 C474 1.379 . S
C468 N476 1.356 . S
C469 C468 1.363 . S
C469 C475 1.363 . S
C470 C471 1.363 . S
C470 C475 1.379 . S
C470 N477 1.356 . S
C471 C470 1.363 . S
C471 C474 1.363 . S
N472 C474 1.356 . S
N472 H484 0.984 . S
N472 H485 0.985 . S
N473 C475 1.356 . S
N473 H478 0.984 . S
N473 H479 0.985 . S
C474 C468 1.379 . S
C474 C471 1.363 . S
C474 N472 1.356 . S
C475 C469 1.363 . S
C475 C470 1.379 . S
C475 N473 1.356 . S
N476 C468 1.356 . S
N476 H482 0.984 . S
N476 H483 0.984 . S
N477 C470 1.356 . S
N477 H480 0.984 . S
N477 H481 0.985 . S
H478 N473 0.984 . S
H479 N473 0.985 . S
H480 N477 0.984 . S
H481 N477 0.985 . S
H482 N476 0.984 . S
H483 N476 0.984 . S
H484 N472 0.984 . S
H485 N472 0.985 . S
C486 C487 1.363 . S
C486 C492 1.379 . S
C486 N494 1.356 . S
C487 C486 1.363 . S
C487 C493 1.363 . S
C488 C489 1.363 . S
C488 C493 1.379 . S
C488 N495 1.356 . S
C489 C488 1.363 . S
C489 C492 1.363 . S
N490 C492 1.356 . S
N490 H502 0.984 . S
N490 H503 0.985 . S
N491 C493 1.356 . S
N491 H496 0.984 . S
N491 H497 0.985 . S
C492 C486 1.379 . S
C492 C489 1.363 . S
C492 N490 1.356 . S
C493 C487 1.363 . S
C493 C488 1.379 . S
C493 N491 1.356 . S
N494 C486 1.356 . S
N494 H500 0.984 . S
N494 H501 0.984 . S
N495 C488 1.356 . S
N495 H498 0.984 . S
N495 H499 0.985 . S
H496 N491 0.984 . S
H497 N491 0.985 . S
H498 N495 0.984 . S
H499 N495 0.985 . S
H500 N494 0.984 . S
H501 N494 0.984 . S
H502 N490 0.984 . S
H503 N490 0.985 . S
C504 C505 1.363 . S
C504 C510 1.379 . S
C504 N512 1.356 1_554 S
C505 C504 1.363 . S
C505 C511 1.363 . S
C506 C507 1.363 . S
C506 C511 1.379 . S
C506 N513 1.356 . S
C507 C506 1.363 . S
C507 C510 1.363 . S
N508 C510 1.356 . S
N508 H520 0.984 1_554 S
N508 H521 0.985 . S
N509 C511 1.356 . S
N509 H514 0.984 . S
N509 H515 0.985 . S
C510 C504 1.379 . S
C510 C507 1.363 . S
C510 N508 1.356 . S
C511 C505 1.363 . S
C511 C506 1.379 . S
C511 N509 1.356 . S
N512 C504 1.356 1_556 S
N512 H518 0.984 . S
N512 H519 0.984 . S
N513 C506 1.356 . S
N513 H516 0.984 . S
N513 H517 0.985 . S
H514 N509 0.984 . S
H515 N509 0.985 . S
H516 N513 0.984 . S
H517 N513 0.985 . S
H518 N512 0.984 . S
H519 N512 0.984 . S
H520 N508 0.984 1_556 S
H521 N508 0.985 . S
C522 C523 1.363 . S
C522 C528 1.379 . S
C522 N530 1.356 . S
C523 C522 1.363 . S
C523 C529 1.363 . S
C524 C525 1.363 . S
C524 C529 1.379 . S
C524 N531 1.356 . S
C525 C524 1.363 . S
C525 C528 1.363 . S
N526 C528 1.356 . S
N526 H538 0.984 . S
N526 H539 0.985 . S
N527 C529 1.356 . S
N527 H532 0.984 . S
N527 H533 0.985 . S
C528 C522 1.379 . S
C528 C525 1.363 . S
C528 N526 1.356 . S
C529 C523 1.363 . S
C529 C524 1.379 . S
C529 N527 1.356 . S
N530 C522 1.356 . S
N530 H536 0.984 . S
N530 H537 0.984 . S
N531 C524 1.356 . S
N531 H534 0.984 . S
N531 H535 0.985 . S
H532 N527 0.984 . S
H533 N527 0.985 . S
H534 N531 0.984 . S
H535 N531 0.985 . S
H536 N530 0.984 . S
H537 N530 0.984 . S
H538 N526 0.984 . S
H539 N526 0.985 . S
C540 C541 1.363 . S
C540 C546 1.379 . S
C540 N548 1.356 . S
C541 C540 1.363 . S
C541 C547 1.363 . S
C542 C543 1.363 . S
C542 C547 1.379 . S
C542 N549 1.356 . S
C543 C542 1.363 . S
C543 C546 1.363 . S
N544 C546 1.356 . S
N544 H556 0.984 . S
N544 H557 0.985 . S
N545 C547 1.356 . S
N545 H550 0.984 . S
N545 H551 0.985 . S
C546 C540 1.379 . S
C546 C543 1.363 . S
C546 N544 1.356 . S
C547 C541 1.363 . S
C547 C542 1.379 . S
C547 N545 1.356 . S
N548 C540 1.356 . S
N548 H554 0.984 . S
N548 H555 0.984 . S
N549 C542 1.356 . S
N549 H552 0.984 . S
N549 H553 0.985 . S
H550 N545 0.984 . S
H551 N545 0.985 . S
H552 N549 0.984 . S
H553 N549 0.985 . S
H554 N548 0.984 . S
H555 N548 0.984 . S
H556 N544 0.984 . S
H557 N544 0.985 . S
C558 C559 1.363 . S
C558 C564 1.379 . S
C558 N566 1.356 . S
C559 C558 1.363 . S
C559 C565 1.363 . S
C560 C561 1.363 . S
C560 C565 1.379 . S
C560 N567 1.356 . S
C561 C560 1.363 . S
C561 C564 1.363 . S
N562 C564 1.356 . S
N562 H574 0.984 . S
N562 H575 0.985 . S
N563 C565 1.356 . S
N563 H568 0.984 . S
N563 H569 0.985 . S
C564 C558 1.379 . S
C564 C561 1.363 . S
C564 N562 1.356 . S
C565 C559 1.363 . S
C565 C560 1.379 . S
C565 N563 1.356 . S
N566 C558 1.356 . S
N566 H572 0.984 . S
N566 H573 0.984 . S
N567 C560 1.356 . S
N567 H570 0.984 . S
N567 H571 0.985 . S
H568 N563 0.984 . S
H569 N563 0.985 . S
H570 N567 0.984 . S
H571 N567 0.985 . S
H572 N566 0.984 . S
H573 N566 0.984 . S
H574 N562 0.984 . S
H575 N562 0.985 . S
C576 C577 1.363 . S
C576 C582 1.379 . S
C576 N584 1.356 . S
C577 C576 1.363 . S
C577 C583 1.363 . S
C578 C579 1.363 . S
C578 C583 1.379 . S
C578 N585 1.356 . S
C579 C578 1.363 . S
C579 C582 1.363 . S
N580 C582 1.356 . S
N580 H592 0.984 . S
N580 H593 0.985 . S
N581 C583 1.356 . S
N581 H586 0.984 . S
N581 H587 0.985 . S
C582 C576 1.379 . S
C582 C579 1.363 . S
C582 N580 1.356 . S
C583 C577 1.363 . S
C583 C578 1.379 . S
C583 N581 1.356 . S
N584 C576 1.356 . S
N584 H590 0.984 . S
N584 H591 0.984 . S
N585 C578 1.356 . S
N585 H588 0.984 . S
N585 H589 0.985 . S
H586 N581 0.984 . S
H587 N581 0.985 . S
H588 N585 0.984 . S
H589 N585 0.985 . S
H590 N584 0.984 . S
H591 N584 0.984 . S
H592 N580 0.984 . S
H593 N580 0.985 . S
C594 C595 1.363 . S
C594 C600 1.379 . S
C594 N602 1.356 . S
C595 C594 1.363 . S
C595 C601 1.363 . S
C596 C597 1.363 . S
C596 C601 1.379 . S
C596 N603 1.356 . S
C597 C596 1.363 . S
C597 C600 1.363 . S
N598 C600 1.356 . S
N598 H610 0.984 . S
N598 H611 0.985 . S
N599 C601 1.356 . S
N599 H604 0.984 . S
N599 H605 0.985 . S
C600 C594 1.379 . S
C600 C597 1.363 . S
C600 N598 1.356 . S
C601 C595 1.363 . S
C601 C596 1.379 . S
C601 N599 1.356 . S
N602 C594 1.356 . S
N602 H608 0.984 . S
N602 H609 0.984 . S
N603 C596 1.356 . S
N603 H606 0.984 . S
N603 H607 0.985 . S
H604 N599 0.984 . S
H605 N599 0.985 . S
H606 N603 0.984 . S
H607 N603 0.985 . S
H608 N602 0.984 . S
H609 N602 0.984 . S
H610 N598 0.984 . S
H611 N598 0.985 . S
C612 C613 1.363 . S
C612 C618 1.379 . S
C612 N620 1.356 . S
C613 C612 1.363 . S
C613 C619 1.363 . S
C614 C615 1.363 . S
C614 C619 1.379 . S
C614 N621 1.356 . S
C615 C614 1.363 . S
C615 C618 1.363 . S
N616 C618 1.356 1_554 S
N616 H628 0.984 . S
N616 H629 0.985 . S
N617 C619 1.356 . S
N617 H622 0.984 . S
N617 H623 0.985 . S
C618 C612 1.379 . S
C618 C615 1.363 . S
C618 N616 1.356 1_556 S
C619 C613 1.363 . S
C619 C614 1.379 . S
C619 N617 1.356 . S
N620 C612 1.356 . S
N620 H626 0.984 . S
N620 H627 0.984 . S
N621 C614 1.356 . S
N621 H624 0.984 . S
N621 H625 0.985 . S
H622 N617 0.984 . S
H623 N617 0.985 . S
H624 N621 0.984 . S
H625 N621 0.985 . S
H626 N620 0.984 . S
H627 N620 0.984 . S
H628 N616 0.984 . S
H629 N616 0.985 . S
C630 C631 1.363 . S
C630 C636 1.379 . S
C630 N638 1.356 . S
C631 C630 1.363 . S
C631 C637 1.363 . S
C632 C633 1.363 . S
C632 C637 1.379 . S
C632 N639 1.356 . S
C633 C632 1.363 . S
C633 C636 1.363 . S
N634 C636 1.356 . S
N634 H646 0.984 . S
N634 H647 0.985 . S
N635 C637 1.356 . S
N635 H640 0.984 . S
N635 H641 0.985 . S
C636 C630 1.379 . S
C636 C633 1.363 . S
C636 N634 1.356 . S
C637 C631 1.363 . S
C637 C632 1.379 . S
C637 N635 1.356 . S
N638 C630 1.356 . S
N638 H644 0.984 . S
N638 H645 0.984 . S
N639 C632 1.356 . S
N639 H642 0.984 . S
N639 H643 0.985 . S
H640 N635 0.984 . S
H641 N635 0.985 . S
H642 N639 0.984 . S
H643 N639 0.985 . S
H644 N638 0.984 . S
H645 N638 0.984 . S
H646 N634 0.984 . S
H647 N634 0.985 . S
C648 C649 1.363 . S
C648 C654 1.379 . S
C648 N656 1.356 . S
C649 C648 1.363 . S
C649 C655 1.363 . S
C650 C651 1.363 . S
C650 C655 1.379 . S
C650 N657 1.356 . S
C651 C650 1.363 . S
C651 C654 1.363 . S
N652 C654 1.356 . S
N652 H664 0.984 . S
N652 H665 0.985 . S
N653 C655 1.356 . S
N653 H658 0.984 . S
N653 H659 0.985 . S
C654 C648 1.379 . S
C654 C651 1.363 . S
C654 N652 1.356 . S
C655 C649 1.363 . S
C655 C650 1.379 . S
C655 N653 1.356 . S
N656 C648 1.356 . S
N656 H662 0.984 . S
N656 H663 0.984 . S
N657 C650 1.356 . S
N657 H660 0.984 . S
N657 H661 0.985 . S
H658 N653 0.984 . S
H659 N653 0.985 . S
H660 N657 0.984 . S
H661 N657 0.985 . S
H662 N656 0.984 . S
H663 N656 0.984 . S
H664 N652 0.984 . S
H665 N652 0.985 . S
C666 C667 1.363 . S
C666 C672 1.379 . S
C666 N674 1.356 . S
C667 C666 1.363 . S
C667 C673 1.363 . S
C668 C669 1.363 . S
C668 C673 1.379 . S
C668 N675 1.356 . S
C669 C668 1.363 . S
C669 C672 1.363 . S
N670 C672 1.356 . S
N670 H682 0.984 . S
N670 H683 0.985 . S
N671 C673 1.356 . S
N671 H676 0.984 . S
N671 H677 0.985 . S
C672 C666 1.379 . S
C672 C669 1.363 . S
C672 N670 1.356 . S
C673 C667 1.363 . S
C673 C668 1.379 . S
C673 N671 1.356 . S
N674 C666 1.356 . S
N674 H680 0.984 . S
N674 H681 0.984 . S
N675 C668 1.356 . S
N675 H678 0.984 . S
N675 H679 0.985 . S
H676 N671 0.984 . S
H677 N671 0.985 . S
H678 N675 0.984 . S
H679 N675 0.985 . S
H680 N674 0.984 . S
H681 N674 0.984 . S
H682 N670 0.984 . S
H683 N670 0.985 . S
C684 C685 1.363 . S
C684 C690 1.379 . S
C684 N692 1.356 . S
C685 C684 1.363 . S
C685 C691 1.363 . S
C686 C687 1.363 . S
C686 C691 1.379 . S
C686 N693 1.356 . S
C687 C686 1.363 . S
C687 C690 1.363 . S
N688 C690 1.356 . S
N688 H700 0.984 . S
N688 H701 0.985 . S
N689 C691 1.356 . S
N689 H694 0.984 . S
N689 H695 0.985 . S
C690 C684 1.379 . S
C690 C687 1.363 . S
C690 N688 1.356 . S
C691 C685 1.363 . S
C691 C686 1.379 . S
C691 N689 1.356 . S
N692 C684 1.356 . S
N692 H698 0.984 . S
N692 H699 0.984 . S
N693 C686 1.356 . S
N693 H696 0.984 . S
N693 H697 0.985 . S
H694 N689 0.984 . S
H695 N689 0.985 . S
H696 N693 0.984 . S
H697 N693 0.985 . S
H698 N692 0.984 . S
H699 N692 0.984 . S
H700 N688 0.984 . S
H701 N688 0.985 . S
C702 C703 1.363 . S
C702 C708 1.379 . S
C702 N710 1.356 . S
C703 C702 1.363 . S
C703 C709 1.363 . S
C704 C705 1.363 . S
C704 C709 1.379 . S
C704 N711 1.356 . S
C705 C704 1.363 . S
C705 C708 1.363 . S
N706 C708 1.356 . S
N706 H718 0.984 . S
N706 H719 0.985 . S
N707 C709 1.356 . S
N707 H712 0.984 . S
N707 H713 0.985 . S
C708 C702 1.379 . S
C708 C705 1.363 . S
C708 N706 1.356 . S
C709 C703 1.363 . S
C709 C704 1.379 . S
C709 N707 1.356 . S
N710 C702 1.356 . S
N710 H716 0.984 . S
N710 H717 0.984 . S
N711 C704 1.356 . S
N711 H714 0.984 . S
N711 H715 0.985 . S
H712 N707 0.984 . S
H713 N707 0.985 . S
H714 N711 0.984 . S
H715 N711 0.985 . S
H716 N710 0.984 . S
H717 N710 0.984 . S
H718 N706 0.984 . S
H719 N706 0.985 . S
C720 C721 1.363 . S
C720 C726 1.379 . S
C720 N728 1.356 . S
C721 C720 1.363 . S
C721 C727 1.363 . S
C722 C723 1.363 . S
C722 C727 1.379 . S
C722 N729 1.356 . S
C723 C722 1.363 . S
C723 C726 1.363 . S
N724 C726 1.356 . S
N724 H736 0.984 . S
N724 H737 0.985 . S
N725 C727 1.356 . S
N725 H730 0.984 . S
N725 H731 0.985 . S
C726 C720 1.379 . S
C726 C723 1.363 . S
C726 N724 1.356 . S
C727 C721 1.363 . S
C727 C722 1.379 . S
C727 N725 1.356 . S
N728 C720 1.356 . S
N728 H734 0.984 . S
N728 H735 0.984 . S
N729 C722 1.356 . S
N729 H732 0.984 . S
N729 H733 0.985 . S
H730 N725 0.984 . S
H731 N725 0.985 . S
H732 N729 0.984 . S
H733 N729 0.985 . S
H734 N728 0.984 . S
H735 N728 0.984 . S
H736 N724 0.984 . S
H737 N724 0.985 . S
C738 C739 1.363 . S
C738 C744 1.379 1_554 S
C738 N746 1.356 . S
C739 C738 1.363 . S
C739 C745 1.363 . S
C740 C741 1.363 1_554 S
C740 C745 1.379 . S
C740 N747 1.356 . S
C741 C740 1.363 1_556 S
C741 C744 1.363 . S
N742 C744 1.356 . S
N742 H754 0.984 . S
N742 H755 0.985 . S
N743 C745 1.356 . S
N743 H748 0.984 . S
N743 H749 0.985 . S
C744 C738 1.379 1_556 S
C744 C741 1.363 . S
C744 N742 1.356 . S
C745 C739 1.363 . S
C745 C740 1.379 . S
C745 N743 1.356 . S
N746 C738 1.356 . S
N746 H752 0.996 . S
N746 H753 0.984 . S
N747 C740 1.356 . S
N747 H750 0.984 . S
N747 H751 0.985 . S
H748 N743 0.984 . S
H749 N743 0.985 . S
H750 N747 0.984 . S
H751 N747 0.985 . S
H752 N746 0.996 . S
H753 N746 0.984 . S
H754 N742 0.984 . S
H755 N742 0.985 . S
C756 C757 1.363 . S
C756 C762 1.379 . S
C756 N764 1.356 . S
C757 C756 1.363 . S
C757 C763 1.363 . S
C758 C759 1.363 . S
C758 C763 1.379 . S
C758 N765 1.356 . S
C759 C758 1.363 . S
C759 C762 1.363 . S
N760 C762 1.356 . S
N760 H772 0.984 . S
N760 H773 0.985 . S
N761 C763 1.356 . S
N761 H766 0.984 . S
N761 H767 0.985 . S
C762 C756 1.379 . S
C762 C759 1.363 . S
C762 N760 1.356 . S
C763 C757 1.363 . S
C763 C758 1.379 . S
C763 N761 1.356 . S
N764 C756 1.356 . S
N764 H770 0.984 . S
N764 H771 0.984 . S
N765 C758 1.356 . S
N765 H768 0.984 . S
N765 H769 0.985 . S
H766 N761 0.984 . S
H767 N761 0.985 . S
H768 N765 0.984 . S
H769 N765 0.985 . S
H770 N764 0.984 . S
H771 N764 0.984 . S
H772 N760 0.984 . S
H773 N760 0.985 . S
C345 C309 1.569 . S
C343 C19 1.479 . S
C361 C40 1.502 . S
C363 C129 1.599 . S
C379 C51 1.476 . S
C381 C176 1.559 . S
C397 C72 1.442 . S
C399 C212 1.507 . S
C417 C237 1.552 . S
C415 C103 1.459 . S
C433 C114 1.452 . S
C435 C273 1.565 . S
C451 C30 1.482 . S
C453 C165 1.600 . S
C469 C61 1.465 . S
C471 C201 1.553 . S
C487 C82 1.441 . S
C489 C248 1.491 . S
C507 C284 1.529 . S
C505 C93 1.451 . S
C525 C320 1.537 . S
C523 C124 1.482 . S
C543 C140 1.552 . S
C541 C9 1.475 . S
C559 C17 1.430 . S
C561 C164 1.505 . S
C577 C38 1.432 . S
C579 C200 1.510 . S
C597 C238 1.506 . S
C595 C54 1.422 . S
C613 C75 1.428 . S
C615 C274 1.513 1_556 S
C633 C310 1.484 . S
C631 C101 1.396 . S
C651 C130 1.473 . S
C649 C117 1.385 . S
C669 C308 1.491 . S
C667 C33 1.411 . S
C685 C59 1.421 . S
C687 C128 1.497 . S
C705 C166 1.500 . S
C703 C80 1.423 . S
C721 C96 1.417 . S
C723 C202 1.504 . S
C739 C122 1.461 . S
C741 C236 1.533 . S
C757 C12 1.450 . S
C759 C272 1.523 . S
