# Generated by pormake.
# Topology rtl, (3,6)-cn, num edge types: 1
# Building blocks:
#     Node 0, Type 0, BuildingBlock: PAMTOO_clean_linker_0, # of connection points: 3
#     Node 1, Type 0, BuildingBlock: PAMTOO_clean_linker_0, # of connection points: 3
#     Node 2, Type 0, BuildingBlock: PAMTOO_clean_linker_0, # of connection points: 3
#     Node 3, Type 0, BuildingBlock: PAMTOO_clean_linker_0, # of connection points: 3
#     Node 4, Type 1, BuildingBlock: FUNLAD_clean_sbu_0, # of connection points: 6
#     Node 5, Type 1, BuildingBlock: FUNLAD_clean_sbu_0, # of connection points: 6
#     Edge 6, Type (0, 1), BuildingBlock: TEMPAE_clean_linker_10, # of connection points: 2
#     Edge 7, Type (0, 1), BuildingBlock: TEMPAE_clean_linker_10, # of connection points: 2
#     Edge 8, Type (0, 1), BuildingBlock: TEMPAE_clean_linker_10, # of connection points: 2
#     Edge 9, Type (0, 1), BuildingBlock: TEMPAE_clean_linker_10, # of connection points: 2
#     Edge 10, Type (0, 1), BuildingBlock: TEMPAE_clean_linker_10, # of connection points: 2
#     Edge 11, Type (0, 1), BuildingBlock: TEMPAE_clean_linker_10, # of connection points: 2
#     Edge 12, Type (0, 1), BuildingBlock: TEMPAE_clean_linker_10, # of connection points: 2
#     Edge 13, Type (0, 1), BuildingBlock: TEMPAE_clean_linker_10, # of connection points: 2
#     Edge 14, Type (0, 1), BuildingBlock: TEMPAE_clean_linker_10, # of connection points: 2
#     Edge 15, Type (0, 1), BuildingBlock: TEMPAE_clean_linker_10, # of connection points: 2
#     Edge 16, Type (0, 1), BuildingBlock: TEMPAE_clean_linker_10, # of connection points: 2
#     Edge 17, Type (0, 1), BuildingBlock: TEMPAE_clean_linker_10, # of connection points: 2
# Relax obj value: 0.003
# Max RMSD: 0.041
# Mean RMSD: 0.031
data_MOF--net-rtl--node1-FUNLAD_clean_sbu_0--node2-PAMTOO_clean_linker_0--edge1-TEMPAE_clean_linker_10
_symmetry_space_group_name_H-M    P1
_symmetry_Int_Tables_number       1
_symmetry_cell_setting            triclinic
loop_
_symmetry_equiv_pos_as_xyz
'x, y, z'
_cell_length_a     40.682593
_cell_length_b     40.682832
_cell_length_c     21.261553
_cell_angle_alpha  92.446244
_cell_angle_beta   91.033297
_cell_angle_gamma 90.034386
loop_
_atom_site_label
_atom_site_type_symbol
_atom_site_fract_x
_atom_site_fract_y
_atom_site_fract_z
_atom_type_partial_charge
H0 H 0.12493 0.88404 0.00124 0.0
H1 H 0.19303 0.82231 0.09854 0.0
H2 H 0.18357 0.8134 0.89708 0.0
H3 H 0.18777 0.75088 0.96222 0.0
C4 C 0.20485 0.7585 0.00169 0.0
O5 O 0.2135 0.79106 -0.00347 0.0
H6 H 0.19186 0.75535 0.04667 0.0
C7 C 0.14341 0.86487 0.00023 0.0
C8 C 0.15233 0.85012 0.94216 0.0
C9 C 0.15774 0.85521 0.05704 0.0
C10 C 0.18156 0.83021 0.05537 0.0
C11 C 0.19077 0.81526 -0.00232 0.0
C12 C 0.17637 0.82533 0.94123 0.0
H13 H 0.62317 0.62293 0.5242 0.0
H14 H 0.69185 0.68346 0.4299 0.0
H15 H 0.68242 0.69395 0.63056 0.0
H16 H 0.68826 0.75627 0.56539 0.0
C17 C 0.7042 0.74794 0.52581 0.0
O18 O 0.71253 0.71539 0.53245 0.0
H19 H 0.69012 0.75069 0.48097 0.0
C20 C 0.6418 0.642 0.52596 0.0
C21 C 0.65086 0.65712 0.58428 0.0
C22 C 0.65625 0.65112 0.46986 0.0
C23 C 0.68026 0.67599 0.4725 0.0
C24 C 0.68958 0.69134 0.53043 0.0
C25 C 0.6751 0.68177 0.5862 0.0
H26 H 0.88869 0.12371 0.01225 0.0
H27 H 0.82922 0.19372 0.91564 0.0
H28 H 0.81881 0.18352 0.11444 0.0
H29 H 0.75708 0.19163 0.04929 0.0
C30 C 0.76488 0.20603 0.00879 0.0
O31 O 0.79768 0.21427 0.0159 0.0
H32 H 0.76123 0.19048 0.96482 0.0
C33 C 0.86998 0.14265 0.01308 0.0
C34 C 0.85498 0.15158 0.07021 0.0
C35 C 0.86113 0.15758 0.95695 0.0
C36 C 0.83657 0.18184 0.95831 0.0
C37 C 0.82146 0.19112 0.01512 0.0
C38 C 0.83086 0.17627 0.07101 0.0
H39 H 0.38936 0.38015 0.49349 0.0
H40 H 0.32939 0.31089 0.58724 0.0
H41 H 0.31935 0.31989 0.38736 0.0
H42 H 0.25718 0.31115 0.44662 0.0
C43 C 0.2651 0.29832 0.48948 0.0
O44 O 0.29785 0.28986 0.48512 0.0
H45 H 0.26166 0.31543 0.53116 0.0
C46 C 0.37058 0.36123 0.49169 0.0
C47 C 0.35562 0.352 0.43361 0.0
C48 C 0.36156 0.34668 0.54752 0.0
C49 C 0.33689 0.32247 0.54484 0.0
C50 C 0.32182 0.31288 0.4871 0.0
C51 C 0.33139 0.32735 0.43155 0.0
C52 C 0.03846 0.96703 0.41433 0.0
N53 N 0.06018 0.05709 0.50868 0.0
C54 C 0.0926 0.04886 0.50796 0.0
C55 C 0.11671 0.07331 0.50619 0.0
C56 C 0.10738 0.10656 0.50535 0.0
C57 C 0.07373 0.11426 0.50711 0.0
C58 C 0.0505 0.08909 0.5085 0.0
Zn59 Zn 0.02458 0.02142 0.50766 0.0
C60 C 0.97026 0.03588 0.4173 0.0
N61 N 0.94928 0.94806 0.50351 0.0
C62 C 0.95686 0.91546 0.49936 0.0
C63 C 0.91754 0.9583 0.50766 0.0
C64 C 0.89194 0.93548 0.50793 0.0
C65 C 0.89894 0.90165 0.50379 0.0
C66 C 0.93195 0.89173 0.49945 0.0
Zn67 Zn 0.98558 0.98306 0.50479 0.0
O68 O 0.05071 0.99296 0.44063 0.0
C69 C 0.03976 0.96831 0.59483 0.0
O70 O 0.00995 0.95758 0.42942 0.0
H71 H 0.912 0.9843 0.51118 0.0
H72 H 0.09978 0.02326 0.50801 0.0
H73 H 0.98225 0.90783 0.49606 0.0
O74 O 0.04961 0.99667 0.58039 0.0
O75 O 0.01366 0.95636 0.56931 0.0
H76 H 0.02464 0.09517 0.50905 0.0
O77 O 0.9621 0.00924 0.58032 0.0
O78 O 0.99792 0.04932 0.5749 0.0
O79 O 0.95812 0.01034 0.44015 0.0
O80 O 0.99889 0.04539 0.43475 0.0
C81 C 0.97218 0.03771 0.59853 0.0
H82 H 0.14233 0.06618 0.50427 0.0
H83 H 0.06536 0.13953 0.50768 0.0
H84 H 0.86694 0.94428 0.51238 0.0
H85 H 0.93846 0.86593 0.49557 0.0
C86 C 0.47212 0.46778 0.91331 0.0
N87 N 0.5604 0.44813 0.00766 0.0
C88 C 0.55077 0.41607 0.00571 0.0
C89 C 0.57404 0.39093 0.00635 0.0
C90 C 0.6077 0.3987 0.0096 0.0
C91 C 0.61698 0.43204 0.01128 0.0
C92 C 0.59282 0.45646 0.01016 0.0
Zn93 Zn 0.52471 0.48364 0.00811 0.0
C94 C 0.5394 0.53768 0.92342 0.0
N95 N 0.44908 0.55647 0.00995 0.0
C96 C 0.41734 0.5462 0.00302 0.0
C97 C 0.45663 0.58902 0.01714 0.0
C98 C 0.4317 0.61269 0.01767 0.0
C99 C 0.39867 0.60276 0.01068 0.0
C100 C 0.39171 0.56898 0.00313 0.0
Zn101 Zn 0.48548 0.52165 0.00926 0.0
O102 O 0.49792 0.45624 0.93842 0.0
C103 C 0.4706 0.46789 0.09416 0.0
O104 O 0.46189 0.49609 0.93139 0.0
H105 H 0.48202 0.59667 0.02263 0.0
H106 H 0.5249 0.4099 0.00377 0.0
H107 H 0.41182 0.52024 -0.00276 0.0
O108 O 0.49932 0.45879 0.07858 0.0
O109 O 0.45828 0.49349 0.0711 0.0
H110 H 0.59996 0.4821 0.01176 0.0
O111 O 0.50994 0.54648 0.08702 0.0
O112 O 0.55095 0.51157 0.07769 0.0
O113 O 0.51325 0.54924 0.94752 0.0
O114 O 0.54942 0.50929 0.93776 0.0
C115 C 0.5385 0.53717 0.10389 0.0
H116 H 0.56568 0.36562 0.00381 0.0
H117 H 0.64261 0.43922 0.01444 0.0
H118 H 0.4382 0.63844 0.02427 0.0
H119 H 0.36671 0.56018 -0.00344 0.0
C120 C 0.2474 0.24147 0.45068 0.0
C121 C 0.24426 0.26794 0.49452 0.0
C122 C 0.22682 0.21381 0.45249 0.0
C123 C 0.20219 0.21292 0.49864 0.0
C124 C 0.19905 0.23956 0.54321 0.0
C125 C 0.22012 0.26677 0.54056 0.0
C126 C 0.231 0.18584 0.40433 0.0
C127 C 0.17291 0.23968 0.59276 0.0
C128 C 0.12634 0.16025 0.46483 0.0
C129 C 0.13237 0.13317 0.50211 0.0
C130 C 0.14899 0.18617 0.46287 0.0
C131 C 0.17863 0.18491 0.49856 0.0
C132 C 0.18526 0.15736 0.53526 0.0
C133 C 0.162 0.13187 0.53677 0.0
C134 C 0.14098 0.21513 0.42317 0.0
C135 C 0.21668 0.15508 0.57367 0.0
H136 H 0.26578 0.24262 0.41454 0.0
H137 H 0.21739 0.28742 0.574 0.0
H138 H 0.23413 0.16229 0.42819 0.0
H139 H 0.20859 0.18344 0.37396 0.0
H140 H 0.25249 0.18951 0.37388 0.0
H141 H 0.1745 0.26173 0.62535 0.0
H142 H 0.1482 0.23907 0.56979 0.0
H143 H 0.17511 0.21736 0.62074 0.0
H144 H 0.10384 0.16119 0.43688 0.0
H145 H 0.16675 0.11122 0.56618 0.0
H146 H 0.16052 0.21842 0.38826 0.0
H147 H 0.14013 0.238 0.45346 0.0
H148 H 0.11704 0.21216 0.39762 0.0
H149 H 0.23824 0.15777 0.54306 0.0
H150 H 0.2188 0.13137 0.59747 0.0
H151 H 0.2178 0.17547 0.61 0.0
C152 C 0.2397 0.71291 0.95388 0.0
C153 C 0.23521 0.73734 0.0014 0.0
C154 C 0.26717 0.69205 0.95495 0.0
C155 C 0.29073 0.69585 0.00462 0.0
C156 C 0.2866 0.72095 0.05205 0.0
C157 C 0.25879 0.74135 0.04995 0.0
C158 C 0.27062 0.66551 0.90365 0.0
C159 C 0.31125 0.72589 0.10555 0.0
C160 C 0.34213 0.621 0.04183 0.0
C161 C 0.37155 0.62733 0.01102 0.0
C162 C 0.31581 0.64324 0.04061 0.0
C163 C 0.31898 0.6727 0.00812 0.0
C164 C 0.34878 0.67958 0.9779 0.0
C165 C 0.37469 0.65679 0.97959 0.0
C166 C 0.28444 0.63501 0.0735 0.0
C167 C 0.35311 0.71078 0.94293 0.0
H168 H 0.22146 0.70981 0.9163 0.0
H169 H 0.2552 0.76028 0.08664 0.0
H170 H 0.29464 0.66788 0.88036 0.0
H171 H 0.27012 0.64096 0.92443 0.0
H172 H 0.25072 0.6665 0.86731 0.0
H173 H 0.30521 0.74744 0.13706 0.0
H174 H 0.3121 0.70363 0.13392 0.0
H175 H 0.33621 0.72941 0.08676 0.0
H176 H 0.33968 0.5986 0.06718 0.0
H177 H 0.39717 0.66173 0.95507 0.0
H178 H 0.26368 0.63351 0.03891 0.0
H179 H 0.27852 0.65479 0.10903 0.0
H180 H 0.28609 0.6113 0.09741 0.0
H181 H 0.33513 0.71129 0.90312 0.0
H182 H 0.37826 0.7131 0.92408 0.0
H183 H 0.34813 0.73254 0.97454 0.0
C184 C 0.73994 0.79488 0.56826 0.0
C185 C 0.73483 0.76869 0.52422 0.0
C186 C 0.76757 0.81539 0.56512 0.0
C187 C 0.79065 0.80949 0.51683 0.0
C188 C 0.78585 0.7827 0.47284 0.0
C189 C 0.75788 0.76269 0.47693 0.0
C190 C 0.77173 0.84378 0.61272 0.0
C191 C 0.80994 0.77553 0.42088 0.0
C192 C 0.8423 0.88231 0.47162 0.0
C193 C 0.87186 0.87707 0.50473 0.0
C194 C 0.81589 0.86026 0.47446 0.0
C195 C 0.81909 0.83214 0.51108 0.0
C196 C 0.84908 0.82628 0.54352 0.0
C197 C 0.87509 0.84883 0.54003 0.0
C198 C 0.78435 0.86735 0.43903 0.0
C199 C 0.85345 0.79654 0.58294 0.0
H200 H 0.72205 0.79961 0.60471 0.0
H201 H 0.75376 0.74249 0.44277 0.0
H202 H 0.79593 0.84216 0.63728 0.0
H203 H 0.77128 0.86736 0.58834 0.0
H204 H 0.75213 0.8444 0.64847 0.0
H205 H 0.80341 0.75291 0.39222 0.0
H206 H 0.81073 0.79654 0.38935 0.0
H207 H 0.83506 0.77258 0.44105 0.0
H208 H 0.83979 0.90375 0.44337 0.0
H209 H 0.89771 0.84477 0.56628 0.0
H210 H 0.7639 0.87049 0.47259 0.0
H211 H 0.77789 0.84627 0.40629 0.0
H212 H 0.78609 0.88988 0.41155 0.0
H213 H 0.8359 0.79773 0.62231 0.0
H214 H 0.87878 0.79472 0.60287 0.0
H215 H 0.84788 0.77376 0.55419 0.0
C216 C 0.74801 0.26182 0.05347 0.0
C217 C 0.74411 0.23664 0.00684 0.0
C218 C 0.72754 0.28962 0.05436 0.0
C219 C 0.70223 0.29194 0.00816 0.0
C220 C 0.69827 0.26659 0.96088 0.0
C221 C 0.71924 0.23922 0.96086 0.0
C222 C 0.73261 0.3162 0.10537 0.0
C223 C 0.67137 0.26799 0.91119 0.0
C224 C 0.62716 0.34403 0.04584 0.0
C225 C 0.63276 0.37207 0.01128 0.0
C226 C 0.64973 0.31798 0.04575 0.0
C227 C 0.67888 0.3201 0.0108 0.0
C228 C 0.68514 0.34863 0.97704 0.0
C229 C 0.66196 0.37422 0.97747 0.0
C230 C 0.64212 0.28795 0.08231 0.0
C231 C 0.71606 0.35185 0.93956 0.0
H232 H 0.76693 0.25956 0.0896 0.0
H233 H 0.7159 0.21954 0.92531 0.0
H234 H 0.73558 0.34044 0.08413 0.0
H235 H 0.71065 0.31785 0.13552 0.0
H236 H 0.75451 0.31154 0.13565 0.0
H237 H 0.67228 0.24681 0.87652 0.0
H238 H 0.647 0.26813 0.93384 0.0
H239 H 0.67334 0.29108 0.88557 0.0
H240 H 0.60503 0.3424 0.07316 0.0
H241 H 0.66638 0.39561 0.95012 0.0
H242 H 0.66218 0.28356 0.11694 0.0
H243 H 0.64059 0.26591 0.04979 0.0
H244 H 0.6186 0.29038 0.10784 0.0
H245 H 0.73802 0.34808 0.97009 0.0
H246 H 0.71806 0.37629 0.91851 0.0
H247 H 0.71647 0.33254 0.90113 0.0
C248 C 0.13946 0.90464 0.12099 0.0
C249 C 0.14643 0.87084 0.11732 0.0
C250 C 0.12343 0.91903 0.17293 0.0
C251 C 0.11509 0.89937 0.22357 0.0
C252 C 0.12418 0.86575 0.22238 0.0
C253 C 0.1395 0.85176 0.1689 0.0
C254 C 0.11403 0.95494 0.17214 0.0
C255 C 0.11656 0.84428 0.27643 0.0
C256 C 0.09225 0.94848 0.37177 0.0
C257 C 0.05781 0.94786 0.36773 0.0
C258 C 0.11127 0.93128 0.32699 0.0
C259 C 0.09543 0.91391 0.27596 0.0
C260 C 0.06061 0.91272 0.2723 0.0
C261 C 0.04218 0.92936 0.31887 0.0
C262 C 0.14828 0.93231 0.33351 0.0
C263 C 0.04284 0.89504 0.21783 0.0
H264 H 0.14556 0.91974 0.08205 0.0
H265 H 0.14473 0.82562 0.16643 0.0
H266 H 0.08688 0.95735 0.17346 0.0
H267 H 0.12424 0.96848 0.21446 0.0
H268 H 0.12291 0.96692 0.12963 0.0
H269 H 0.12883 0.81993 0.27176 0.0
H270 H 0.12439 0.85658 0.32184 0.0
H271 H 0.08963 0.84024 0.27833 0.0
H272 H 0.10437 0.96239 0.41018 0.0
H273 H 0.01555 0.9289 0.31579 0.0
H274 H 0.15866 0.94657 0.29521 0.0
H275 H 0.15855 0.90708 0.32893 0.0
H276 H 0.15662 0.94383 0.37938 0.0
H277 H 0.04896 0.90673 0.17328 0.0
H278 H 0.01572 0.89548 0.22311 0.0
H279 H 0.05101 0.86905 0.21342 0.0
C280 C 0.65372 0.64033 0.69672 0.0
C281 C 0.635 0.64614 0.64227 0.0
C282 C 0.63957 0.62534 0.74813 0.0
C283 C 0.60618 0.61546 0.74428 0.0
C284 C 0.58683 0.62277 0.69076 0.0
C285 C 0.60134 0.63848 0.64097 0.0
C286 C 0.66069 0.61883 0.80533 0.0
C287 C 0.55117 0.61248 0.68454 0.0
C288 C 0.57737 0.54221 0.83329 0.0
C289 C 0.55813 0.55751 0.87993 0.0
C290 C 0.59384 0.56089 0.78965 0.0
C291 C 0.5917 0.59568 0.79405 0.0
C292 C 0.5735 0.61126 0.84291 0.0
C293 C 0.5565 0.59195 0.88473 0.0
C294 C 0.61242 0.54334 0.73735 0.0
C295 C 0.57143 0.64828 0.85021 0.0
H296 H 0.67973 0.64616 0.69813 0.0
H297 H 0.58649 0.64378 0.5998 0.0
H298 H 0.64777 0.62662 0.84901 0.0
H299 H 0.66546 0.59206 0.80737 0.0
H300 H 0.68468 0.63185 0.80457 0.0
H301 H 0.53934 0.62084 0.64053 0.0
H302 H 0.54935 0.58526 0.68477 0.0
H303 H 0.53713 0.62257 0.72517 0.0
H304 H 0.57863 0.51557 0.82958 0.0
H305 H 0.542 0.60384 0.92144 0.0
H306 H 0.6382 0.55219 0.73716 0.0
H307 H 0.60103 0.54895 0.6912 0.0
H308 H 0.61257 0.51623 0.74175 0.0
H309 H 0.59638 0.65928 0.84971 0.0
H310 H 0.55929 0.65652 0.89454 0.0
H311 H 0.55728 0.65803 0.81002 0.0
C312 C 0.87205 0.10109 0.12524 0.0
C313 C 0.86536 0.13496 0.12823 0.0
C314 C 0.88701 0.08572 0.17593 0.0
C315 C 0.89459 0.10444 0.23189 0.0
C316 C 0.88568 0.13809 0.23708 0.0
C317 C 0.87139 0.15308 0.18488 0.0
C318 C 0.89629 0.04983 0.16825 0.0
C319 C 0.89255 0.15857 0.29673 0.0
C320 C 0.91648 0.05356 0.37199 0.0
C321 C 0.95093 0.05463 0.37175 0.0
C322 C 0.8977 0.071 0.32863 0.0
C323 C 0.91383 0.0891 0.2829 0.0
C324 C 0.94864 0.09054 0.28296 0.0
C325 C 0.96678 0.07362 0.32802 0.0
C326 C 0.86066 0.06963 0.33112 0.0
C327 C 0.96675 0.10898 0.23404 0.0
H328 H 0.86656 0.08673 0.08221 0.0
H329 H 0.8663 0.17924 0.1876 0.0
H330 H 0.92342 0.0473 0.17141 0.0
H331 H 0.88583 0.03574 0.20668 0.0
H332 H 0.8876 0.03851 0.12244 0.0
H333 H 0.88026 0.18294 0.29616 0.0
H334 H 0.8842 0.1455 0.33834 0.0
H335 H 0.91941 0.1626 0.30259 0.0
H336 H 0.90418 0.03924 0.40645 0.0
H337 H 0.99342 0.07445 0.32781 0.0
H338 H 0.8507 0.05622 0.28843 0.0
H339 H 0.8503 0.09487 0.3316 0.0
H340 H 0.852 0.05713 0.37323 0.0
H341 H 0.96082 0.09808 0.18644 0.0
H342 H 0.99383 0.10835 0.24155 0.0
H343 H 0.95869 0.13503 0.23475 0.0
C344 C 0.35877 0.36444 0.662 0.0
C345 C 0.37748 0.35817 0.60801 0.0
C346 C 0.37295 0.37979 0.71642 0.0
C347 C 0.40634 0.38962 0.71617 0.0
C348 C 0.42567 0.38196 0.66291 0.0
C349 C 0.41113 0.36586 0.60998 0.0
C350 C 0.35186 0.3867 0.77315 0.0
C351 C 0.46132 0.39221 0.66053 0.0
C352 C 0.43491 0.46313 0.81872 0.0
C353 C 0.45388 0.44792 0.86468 0.0
C354 C 0.41872 0.44434 0.77068 0.0
C355 C 0.42087 0.40956 0.76987 0.0
C356 C 0.43888 0.39407 0.81779 0.0
C357 C 0.4556 0.41348 0.86415 0.0
C358 C 0.40033 0.46176 0.71955 0.0
C359 C 0.44096 0.35706 0.8195 0.0
H360 H 0.33276 0.35865 0.6609 0.0
H361 H 0.42597 0.36025 0.56907 0.0
H362 H 0.36472 0.37898 0.81656 0.0
H363 H 0.3473 0.41353 0.77886 0.0
H364 H 0.32777 0.37385 0.7688 0.0
H365 H 0.47311 0.38363 0.61607 0.0
H366 H 0.46316 0.41944 0.66485 0.0
H367 H 0.47539 0.38232 0.70065 0.0
H368 H 0.43359 0.48975 0.81915 0.0
H369 H 0.46989 0.40166 0.90031 0.0
H370 H 0.3745 0.45305 0.71616 0.0
H371 H 0.41175 0.45588 0.67341 0.0
H372 H 0.40032 0.4889 0.72794 0.0
H373 H 0.41598 0.3461 0.81597 0.0
H374 H 0.45326 0.34891 0.86323 0.0
H375 H 0.45491 0.34719 0.77855 0.0
C376 C 0.63781 0.60119 0.40611 0.0
C377 C 0.64497 0.63498 0.40921 0.0
C378 C 0.62202 0.58634 0.35321 0.0
C379 C 0.61409 0.6055 0.3011 0.0
C380 C 0.6233 0.6391 0.30197 0.0
C381 C 0.6384 0.65356 0.35635 0.0
C382 C 0.61246 0.55047 0.35437 0.0
C383 C 0.61607 0.66004 0.24648 0.0
C384 C 0.59211 0.55544 0.15184 0.0
C385 C 0.55765 0.55621 0.15244 0.0
C386 C 0.61087 0.57278 0.19822 0.0
C387 C 0.59474 0.59048 0.24733 0.0
C388 C 0.55993 0.59174 0.24762 0.0
C389 C 0.54177 0.57492 0.19956 0.0
C390 C 0.64792 0.57162 0.19534 0.0
C391 C 0.54184 0.60979 0.29998 0.0
H392 H 0.64364 0.58646 0.44612 0.0
H393 H 0.64377 0.67968 0.35836 0.0
H394 H 0.58531 0.54807 0.35066 0.0
H395 H 0.62286 0.53654 0.31343 0.0
H396 H 0.62103 0.53889 0.39812 0.0
H397 H 0.62826 0.68448 0.25158 0.0
H398 H 0.62429 0.6474 0.20224 0.0
H399 H 0.58917 0.6639 0.24179 0.0
H400 H 0.60444 0.54136 0.1148 0.0
H401 H 0.51513 0.57552 0.20002 0.0
H402 H 0.65793 0.55788 0.23534 0.0
H403 H 0.65825 0.59688 0.19975 0.0
H404 H 0.65655 0.55953 0.15081 0.0
H405 H 0.54768 0.59848 0.34544 0.0
H406 H 0.51476 0.60924 0.29224 0.0
H407 H 0.55001 0.63581 0.30437 0.0
C408 C 0.85859 0.14052 0.84192 0.0
C409 C 0.87717 0.1465 0.89746 0.0
C410 C 0.87287 0.12546 0.78833 0.0
C411 C 0.90625 0.11566 0.79098 0.0
C412 C 0.92546 0.1231 0.84584 0.0
C413 C 0.91082 0.13889 0.89794 0.0
C414 C 0.85189 0.11878 0.7299 0.0
C415 C 0.96109 0.11287 0.85079 0.0
C416 C 0.93478 0.04232 0.69021 0.0
C417 C 0.95392 0.05758 0.6458 0.0
C418 C 0.91853 0.06104 0.73705 0.0
C419 C 0.9208 0.09583 0.73824 0.0
C420 C 0.939 0.11137 0.69182 0.0
C421 C 0.95576 0.09202 0.64665 0.0
C422 C 0.89994 0.04355 0.78661 0.0
C423 C 0.94122 0.14839 0.69051 0.0
H424 H 0.83258 0.14626 0.84114 0.0
H425 H 0.92557 0.14429 0.9401 0.0
H426 H 0.8649 0.12657 0.68758 0.0
H427 H 0.84717 0.09198 0.72358 0.0
H428 H 0.82787 0.1317 0.73251 0.0
H429 H 0.97283 0.12139 0.89618 0.0
H430 H 0.96287 0.08565 0.84647 0.0
H431 H 0.97524 0.12283 0.81179 0.0
H432 H 0.93336 0.0157 0.68955 0.0
H433 H 0.97018 0.10388 0.61167 0.0
H434 H 0.87414 0.05229 0.78804 0.0
H435 H 0.91126 0.04933 0.83368 0.0
H436 H 0.89984 0.01642 0.77804 0.0
H437 H 0.91627 0.15937 0.69223 0.0
H438 H 0.95363 0.1566 0.64778 0.0
H439 H 0.95513 0.15817 0.73258 0.0
C440 C 0.37212 0.35002 0.32009 0.0
C441 C 0.36607 0.36835 0.37604 0.0
C442 C 0.38642 0.36483 0.26864 0.0
C443 C 0.39532 0.39851 0.27393 0.0
C444 C 0.38776 0.41743 0.32911 0.0
C445 C 0.37277 0.40224 0.37899 0.0
C446 C 0.39325 0.34413 0.20973 0.0
C447 C 0.39703 0.45337 0.33689 0.0
C448 C 0.46734 0.42971 0.18257 0.0
C449 C 0.45139 0.44868 0.1379 0.0
C450 C 0.44929 0.41257 0.22627 0.0
C451 C 0.41448 0.41375 0.22395 0.0
C452 C 0.39825 0.43172 0.17709 0.0
C453 C 0.41693 0.44939 0.13516 0.0
C454 C 0.4675 0.39426 0.27643 0.0
C455 C 0.3612 0.4328 0.17204 0.0
H456 H 0.367 0.32385 0.31741 0.0
H457 H 0.36727 0.41677 0.42141 0.0
H458 H 0.3849 0.35701 0.16735 0.0
H459 H 0.42012 0.34015 0.20575 0.0
H460 H 0.38096 0.31974 0.20982 0.0
H461 H 0.38849 0.4648 0.38209 0.0
H462 H 0.42415 0.45599 0.33523 0.0
H463 H 0.38641 0.46729 0.2977 0.0
H464 H 0.49398 0.42914 0.1847 0.0
H465 H 0.40455 0.46368 0.09995 0.0
H466 H 0.4594 0.36821 0.2755 0.0
H467 H 0.46172 0.40529 0.32359 0.0
H468 H 0.49457 0.39491 0.27052 0.0
H469 H 0.35093 0.40752 0.17147 0.0
H470 H 0.35249 0.44497 0.12902 0.0
H471 H 0.35122 0.44644 0.21373 0.0
C472 C 0.15502 0.86728 0.8301 0.0
C473 C 0.13642 0.86146 0.88344 0.0
C474 C 0.14077 0.88226 0.77784 0.0
C475 C 0.10741 0.89214 0.77969 0.0
C476 C 0.08821 0.88496 0.83218 0.0
C477 C 0.10281 0.86924 0.88283 0.0
C478 C 0.16172 0.88866 0.72178 0.0
C479 C 0.0526 0.89526 0.83626 0.0
C480 C 0.07806 0.96463 0.68732 0.0
C481 C 0.0587 0.94892 0.63994 0.0
C482 C 0.09476 0.94634 0.73235 0.0
C483 C 0.09273 0.91153 0.72864 0.0
C484 C 0.0744 0.89553 0.6791 0.0
C485 C 0.05718 0.91446 0.63585 0.0
C486 C 0.11347 0.96431 0.78532 0.0
C487 C 0.0724 0.85847 0.67256 0.0
H488 H 0.18099 0.86137 0.83017 0.0
H489 H 0.08803 0.86394 0.92309 0.0
H490 H 0.14876 0.88047 0.67747 0.0
H491 H 0.16627 0.91546 0.71941 0.0
H492 H 0.18582 0.87591 0.72429 0.0
H493 H 0.04096 0.88724 0.87993 0.0
H494 H 0.0508 0.92245 0.83512 0.0
H495 H 0.03835 0.88482 0.79517 0.0
H496 H 0.07923 0.99128 0.69048 0.0
H497 H 0.0426 0.90224 0.59858 0.0
H498 H 0.13926 0.95556 0.78728 0.0
H499 H 0.10221 0.959 0.83096 0.0
H500 H 0.11358 0.99137 0.7802 0.0
H501 H 0.0974 0.84763 0.67464 0.0
H502 H 0.06009 0.84988 0.62776 0.0
H503 H 0.05847 0.84892 0.71226 0.0
loop_
_geom_bond_atom_site_label_1
_geom_bond_atom_site_label_2
_geom_bond_distance
_geom_bond_site_symmetry_2
_ccdc_geom_bond_type
H0 C7 0.929 . S
H1 C10 0.930 . S
H2 C12 0.929 . S
H3 C4 0.969 . S
C4 H3 0.969 . S
C4 O5 1.550 1_554 S
C4 H6 0.973 . S
O5 C4 1.550 1_556 S
O5 C11 1.409 1_556 S
H6 C4 0.973 . S
C7 H0 0.929 . S
C7 C8 1.400 1_554 S
C7 C9 1.364 . S
C8 C7 1.400 1_556 S
C8 C12 1.377 . S
C9 C7 1.364 . S
C9 C10 1.374 . S
C10 H1 0.930 . S
C10 C9 1.374 . S
C10 C11 1.399 . S
C11 O5 1.409 1_554 S
C11 C10 1.399 . S
C11 C12 1.380 1_554 S
C12 H2 0.929 . S
C12 C8 1.377 . S
C12 C11 1.380 1_556 S
H13 C20 0.929 . S
H14 C23 0.930 . S
H15 C25 0.929 . S
H16 C17 0.969 . S
C17 H16 0.969 . S
C17 O18 1.550 . S
C17 H19 0.973 . S
O18 C17 1.550 . S
O18 C24 1.412 . S
H19 C17 0.973 . S
C20 H13 0.929 . S
C20 C21 1.400 . S
C20 C22 1.364 . S
C21 C20 1.400 . S
C21 C25 1.377 . S
C22 C20 1.364 . S
C22 C23 1.374 . S
C23 H14 0.930 . S
C23 C22 1.374 . S
C23 C24 1.383 . S
C24 O18 1.412 . S
C24 C23 1.383 . S
C24 C25 1.394 . S
C25 H15 0.929 . S
C25 C21 1.377 . S
C25 C24 1.394 . S
H26 C33 0.929 . S
H27 C36 0.930 . S
H28 C38 0.929 . S
H29 C30 0.969 . S
C30 H29 0.969 . S
C30 O31 1.550 1_556 S
C30 H32 0.973 . S
O31 C30 1.550 1_554 S
O31 C37 1.412 . S
H32 C30 0.973 . S
C33 H26 0.929 . S
C33 C34 1.400 . S
C33 C35 1.364 1_554 S
C34 C33 1.400 . S
C34 C38 1.377 . S
C35 C33 1.364 1_556 S
C35 C36 1.374 . S
C36 H27 0.930 . S
C36 C35 1.374 . S
C36 C37 1.383 1_556 S
C37 O31 1.412 . S
C37 C36 1.383 1_554 S
C37 C38 1.394 . S
C38 H28 0.929 . S
C38 C34 1.377 . S
C38 C37 1.394 . S
H39 C46 0.929 . S
H40 C49 0.930 . S
H41 C51 0.929 . S
H42 C43 0.969 . S
C43 H42 0.969 . S
C43 O44 1.550 . S
C43 H45 0.973 . S
O44 C43 1.550 . S
O44 C50 1.412 . S
H45 C43 0.973 . S
C46 H39 0.929 . S
C46 C47 1.400 . S
C46 C48 1.364 . S
C47 C46 1.400 . S
C47 C51 1.377 . S
C48 C46 1.364 . S
C48 C49 1.374 . S
C49 H40 0.930 . S
C49 C48 1.374 . S
C49 C50 1.383 . S
C50 O44 1.412 . S
C50 C49 1.383 . S
C50 C51 1.394 . S
C51 H41 0.929 . S
C51 C47 1.377 . S
C51 C50 1.394 . S
C52 O68 1.251 . S
C52 O70 1.254 . S
N53 C54 1.333 . S
N53 C58 1.307 . S
N53 Zn59 2.020 . S
C54 N53 1.333 . S
C54 C55 1.379 . S
C54 H72 0.952 . S
C55 C54 1.379 . S
C55 C56 1.390 . S
C55 H82 0.949 . S
C56 C55 1.390 . S
C56 C57 1.357 . S
C57 C56 1.357 . S
C57 C58 1.370 . S
C57 H83 0.950 . S
C58 N53 1.307 . S
C58 C57 1.370 . S
C58 H76 0.948 . S
Zn59 N53 2.020 . S
Zn59 O68 2.039 1_545 S
Zn59 O74 2.034 1_545 S
Zn59 O78 2.025 1_455 S
Zn59 O80 2.024 1_455 S
C60 O79 1.246 . S
C60 O80 1.249 . S
N61 C62 1.307 . S
N61 C63 1.333 . S
N61 Zn67 2.020 . S
C62 N61 1.307 . S
C62 C66 1.370 . S
C62 H73 0.948 . S
C63 N61 1.333 . S
C63 C64 1.379 . S
C63 H71 0.952 . S
C64 C63 1.379 . S
C64 C65 1.390 . S
C64 H84 0.949 . S
C65 C64 1.390 . S
C65 C66 1.357 . S
C66 C62 1.370 . S
C66 C65 1.357 . S
C66 H85 0.950 . S
Zn67 N61 2.020 . S
Zn67 O70 2.025 1_655 S
Zn67 O75 2.024 1_655 S
Zn67 O77 2.039 1_565 S
Zn67 O79 2.034 1_565 S
O68 C52 1.251 . S
O68 Zn59 2.039 1_565 S
C69 O74 1.246 . S
C69 O75 1.249 . S
O70 C52 1.254 . S
O70 Zn67 2.025 1_455 S
H71 C63 0.952 . S
H72 C54 0.952 . S
H73 C62 0.948 . S
O74 Zn59 2.034 1_565 S
O74 C69 1.246 . S
O75 Zn67 2.024 1_455 S
O75 C69 1.249 . S
H76 C58 0.948 . S
O77 Zn67 2.039 1_545 S
O77 C81 1.251 . S
O78 Zn59 2.025 1_655 S
O78 C81 1.254 . S
O79 C60 1.246 . S
O79 Zn67 2.034 1_545 S
O80 Zn59 2.024 1_655 S
O80 C60 1.249 . S
C81 O77 1.251 . S
C81 O78 1.254 . S
H82 C55 0.949 . S
H83 C57 0.950 . S
H84 C64 0.949 . S
H85 C66 0.950 . S
C86 O102 1.251 . S
C86 O104 1.254 . S
N87 C88 1.333 1_554 S
N87 C92 1.307 . S
N87 Zn93 2.020 . S
C88 N87 1.333 1_556 S
C88 C89 1.379 . S
C88 H106 0.952 . S
C89 C88 1.379 . S
C89 C90 1.390 1_556 S
C89 H116 0.949 . S
C90 C89 1.390 1_554 S
C90 C91 1.357 . S
C91 C90 1.357 . S
C91 C92 1.370 . S
C91 H117 0.950 . S
C92 N87 1.307 . S
C92 C91 1.370 . S
C92 H110 0.948 . S
Zn93 N87 2.020 . S
Zn93 O102 2.039 1_554 S
Zn93 O108 2.034 . S
Zn93 O112 2.025 . S
Zn93 O114 2.024 1_554 S
C94 O113 1.246 . S
C94 O114 1.249 . S
N95 C96 1.307 1_554 S
N95 C97 1.333 . S
N95 Zn101 2.020 . S
C96 N95 1.307 1_556 S
C96 C100 1.370 . S
C96 H107 0.948 . S
C97 N95 1.333 . S
C97 C98 1.379 . S
C97 H105 0.952 . S
C98 C97 1.379 . S
C98 C99 1.390 . S
C98 H118 0.949 . S
C99 C98 1.390 . S
C99 C100 1.356 1_554 S
C100 C96 1.370 . S
C100 C99 1.356 1_556 S
C100 H119 0.951 . S
Zn101 N95 2.020 . S
Zn101 O104 2.025 1_554 S
Zn101 O109 2.024 . S
Zn101 O111 2.039 . S
Zn101 O113 2.034 1_554 S
O102 C86 1.251 . S
O102 Zn93 2.039 1_556 S
C103 O108 1.246 . S
C103 O109 1.249 . S
O104 C86 1.254 . S
O104 Zn101 2.025 1_556 S
H105 C97 0.952 . S
H106 C88 0.952 . S
H107 C96 0.948 . S
O108 Zn93 2.034 . S
O108 C103 1.246 . S
O109 Zn101 2.024 . S
O109 C103 1.249 . S
H110 C92 0.948 . S
O111 Zn101 2.039 . S
O111 C115 1.251 . S
O112 Zn93 2.025 . S
O112 C115 1.254 . S
O113 C94 1.246 . S
O113 Zn101 2.034 1_556 S
O114 Zn93 2.024 1_556 S
O114 C94 1.249 . S
C115 O111 1.251 . S
C115 O112 1.254 . S
H116 C89 0.949 . S
H117 C91 0.950 . S
H118 C98 0.949 . S
H119 C100 0.951 . S
C120 C121 1.391 . S
C120 C122 1.394 . S
C120 H136 0.931 . S
C121 C120 1.391 . S
C121 C125 1.376 . S
C122 C120 1.394 . S
C122 C123 1.369 . S
C122 C126 1.531 . S
C123 C122 1.369 . S
C123 C124 1.410 . S
C123 C131 1.503 . S
C124 C123 1.410 . S
C124 C125 1.392 . S
C124 C127 1.511 . S
C125 C121 1.376 . S
C125 C124 1.392 . S
C125 H137 0.929 . S
C126 C122 1.531 . S
C126 H138 0.960 . S
C126 H139 0.962 . S
C126 H140 0.960 . S
C127 C124 1.511 . S
C127 H141 0.961 . S
C127 H142 0.961 . S
C127 H143 0.961 . S
C128 C129 1.370 . S
C128 C130 1.363 . S
C128 H144 0.931 . S
C129 C128 1.370 . S
C129 C133 1.408 . S
C130 C128 1.363 . S
C130 C131 1.370 . S
C130 C134 1.524 . S
C131 C123 1.503 . S
C131 C130 1.370 . S
C131 C132 1.403 . S
C132 C131 1.403 . S
C132 C133 1.404 . S
C132 C135 1.539 . S
C133 C129 1.408 . S
C133 C132 1.404 . S
C133 H145 0.930 . S
C134 C130 1.524 . S
C134 H146 0.956 . S
C134 H147 0.961 . S
C134 H148 0.961 . S
C135 C132 1.539 . S
C135 H149 0.958 . S
C135 H150 0.961 . S
C135 H151 0.960 . S
H136 C120 0.931 . S
H137 C125 0.929 . S
H138 C126 0.960 . S
H139 C126 0.962 . S
H140 C126 0.960 . S
H141 C127 0.961 . S
H142 C127 0.961 . S
H143 C127 0.961 . S
H144 C128 0.931 . S
H145 C133 0.930 . S
H146 C134 0.956 . S
H147 C134 0.961 . S
H148 C134 0.961 . S
H149 C135 0.958 . S
H150 C135 0.961 . S
H151 C135 0.960 . S
C152 C153 1.391 1_556 S
C152 C154 1.394 . S
C152 H168 0.931 . S
C153 C152 1.391 1_554 S
C153 C157 1.376 . S
C154 C152 1.394 . S
C154 C155 1.369 1_556 S
C154 C158 1.531 . S
C155 C154 1.369 1_554 S
C155 C156 1.410 . S
C155 C163 1.503 . S
C156 C155 1.410 . S
C156 C157 1.392 . S
C156 C159 1.511 . S
C157 C153 1.376 . S
C157 C156 1.392 . S
C157 H169 0.929 . S
C158 C154 1.531 . S
C158 H170 0.960 . S
C158 H171 0.962 . S
C158 H172 0.960 . S
C159 C156 1.511 . S
C159 H173 0.961 . S
C159 H174 0.961 . S
C159 H175 0.961 . S
C160 C161 1.370 . S
C160 C162 1.363 . S
C160 H176 0.931 . S
C161 C160 1.370 . S
C161 C165 1.408 1_554 S
C162 C160 1.363 . S
C162 C163 1.370 . S
C162 C166 1.524 . S
C163 C155 1.503 . S
C163 C162 1.370 . S
C163 C164 1.403 1_554 S
C164 C163 1.403 1_556 S
C164 C165 1.404 . S
C164 C167 1.539 . S
C165 C161 1.408 1_556 S
C165 C164 1.404 . S
C165 H177 0.930 . S
C166 C162 1.524 . S
C166 H178 0.956 . S
C166 H179 0.961 . S
C166 H180 0.961 . S
C167 C164 1.539 . S
C167 H181 0.958 . S
C167 H182 0.961 . S
C167 H183 0.960 . S
H168 C152 0.931 . S
H169 C157 0.929 . S
H170 C158 0.960 . S
H171 C158 0.962 . S
H172 C158 0.960 . S
H173 C159 0.961 . S
H174 C159 0.961 . S
H175 C159 0.961 . S
H176 C160 0.931 . S
H177 C165 0.930 . S
H178 C166 0.956 . S
H179 C166 0.961 . S
H180 C166 0.961 . S
H181 C167 0.958 . S
H182 C167 0.961 . S
H183 C167 0.960 . S
C184 C185 1.391 . S
C184 C186 1.394 . S
C184 H200 0.931 . S
C185 C184 1.391 . S
C185 C189 1.376 . S
C186 C184 1.394 . S
C186 C187 1.369 . S
C186 C190 1.531 . S
C187 C186 1.369 . S
C187 C188 1.410 . S
C187 C195 1.503 . S
C188 C187 1.410 . S
C188 C189 1.392 . S
C188 C191 1.511 . S
C189 C185 1.376 . S
C189 C188 1.392 . S
C189 H201 0.929 . S
C190 C186 1.531 . S
C190 H202 0.960 . S
C190 H203 0.962 . S
C190 H204 0.960 . S
C191 C188 1.511 . S
C191 H205 0.961 . S
C191 H206 0.961 . S
C191 H207 0.961 . S
C192 C193 1.370 . S
C192 C194 1.363 . S
C192 H208 0.931 . S
C193 C192 1.370 . S
C193 C197 1.408 . S
C194 C192 1.363 . S
C194 C195 1.370 . S
C194 C198 1.524 . S
C195 C187 1.503 . S
C195 C194 1.370 . S
C195 C196 1.403 . S
C196 C195 1.403 . S
C196 C197 1.404 . S
C196 C199 1.539 . S
C197 C193 1.408 . S
C197 C196 1.404 . S
C197 H209 0.930 . S
C198 C194 1.524 . S
C198 H210 0.956 . S
C198 H211 0.961 . S
C198 H212 0.961 . S
C199 C196 1.539 . S
C199 H213 0.958 . S
C199 H214 0.961 . S
C199 H215 0.960 . S
H200 C184 0.931 . S
H201 C189 0.929 . S
H202 C190 0.960 . S
H203 C190 0.962 . S
H204 C190 0.960 . S
H205 C191 0.961 . S
H206 C191 0.961 . S
H207 C191 0.961 . S
H208 C192 0.931 . S
H209 C197 0.930 . S
H210 C198 0.956 . S
H211 C198 0.961 . S
H212 C198 0.961 . S
H213 C199 0.958 . S
H214 C199 0.961 . S
H215 C199 0.960 . S
C216 C217 1.376 1_554 S
C216 C218 1.394 . S
C216 H232 0.931 . S
C217 C216 1.376 1_556 S
C217 C221 1.391 . S
C218 C216 1.394 . S
C218 C219 1.369 . S
C218 C222 1.531 . S
C219 C218 1.369 . S
C219 C220 1.410 1_554 S
C219 C227 1.503 . S
C220 C219 1.410 1_556 S
C220 C221 1.392 . S
C220 C223 1.511 . S
C221 C217 1.391 . S
C221 C220 1.392 . S
C221 H233 0.929 . S
C222 C218 1.531 . S
C222 H234 0.960 . S
C222 H235 0.962 . S
C222 H236 0.960 . S
C223 C220 1.511 . S
C223 H237 0.961 . S
C223 H238 0.961 . S
C223 H239 0.961 . S
C224 C225 1.370 1_556 S
C224 C226 1.363 . S
C224 H240 0.931 . S
C225 C224 1.370 1_554 S
C225 C229 1.408 . S
C226 C224 1.363 . S
C226 C227 1.370 1_556 S
C226 C230 1.524 . S
C227 C219 1.503 . S
C227 C226 1.370 1_554 S
C227 C228 1.403 . S
C228 C227 1.403 . S
C228 C229 1.404 . S
C228 C231 1.539 . S
C229 C225 1.408 . S
C229 C228 1.404 . S
C229 H241 0.930 . S
C230 C226 1.524 . S
C230 H242 0.956 1_556 S
C230 H243 0.961 . S
C230 H244 0.961 . S
C231 C228 1.539 . S
C231 H245 0.958 . S
C231 H246 0.961 1_554 S
C231 H247 0.960 1_554 S
H232 C216 0.931 . S
H233 C221 0.929 . S
H234 C222 0.960 . S
H235 C222 0.962 . S
H236 C222 0.960 . S
H237 C223 0.961 . S
H238 C223 0.961 . S
H239 C223 0.961 . S
H240 C224 0.931 . S
H241 C229 0.930 . S
H242 C230 0.956 1_554 S
H243 C230 0.961 . S
H244 C230 0.961 . S
H245 C231 0.958 . S
H246 C231 0.961 1_556 S
H247 C231 0.960 1_556 S
C248 C249 1.391 . S
C248 C250 1.394 . S
C248 H264 0.931 . S
C249 C248 1.391 . S
C249 C253 1.376 . S
C250 C248 1.394 . S
C250 C251 1.369 . S
C250 C254 1.531 . S
C251 C250 1.369 . S
C251 C252 1.410 . S
C251 C259 1.503 . S
C252 C251 1.410 . S
C252 C253 1.392 . S
C252 C255 1.511 . S
C253 C249 1.376 . S
C253 C252 1.392 . S
C253 H265 0.929 . S
C254 C250 1.531 . S
C254 H266 0.960 . S
C254 H267 0.962 . S
C254 H268 0.960 . S
C255 C252 1.511 . S
C255 H269 0.961 . S
C255 H270 0.961 . S
C255 H271 0.961 . S
C256 C257 1.370 . S
C256 C258 1.363 . S
C256 H272 0.931 . S
C257 C256 1.370 . S
C257 C261 1.408 . S
C258 C256 1.363 . S
C258 C259 1.370 . S
C258 C262 1.524 . S
C259 C251 1.503 . S
C259 C258 1.370 . S
C259 C260 1.403 . S
C260 C259 1.403 . S
C260 C261 1.404 . S
C260 C263 1.539 . S
C261 C257 1.408 . S
C261 C260 1.404 . S
C261 H273 0.930 . S
C262 C258 1.524 . S
C262 H274 0.956 . S
C262 H275 0.961 . S
C262 H276 0.961 . S
C263 C260 1.539 . S
C263 H277 0.958 . S
C263 H278 0.961 . S
C263 H279 0.960 . S
H264 C248 0.931 . S
H265 C253 0.929 . S
H266 C254 0.960 . S
H267 C254 0.962 . S
H268 C254 0.960 . S
H269 C255 0.961 . S
H270 C255 0.961 . S
H271 C255 0.961 . S
H272 C256 0.931 . S
H273 C261 0.930 . S
H274 C262 0.956 . S
H275 C262 0.961 . S
H276 C262 0.961 . S
H277 C263 0.958 . S
H278 C263 0.961 . S
H279 C263 0.960 . S
C280 C281 1.391 . S
C280 C282 1.394 . S
C280 H296 0.931 . S
C281 C280 1.391 . S
C281 C285 1.376 . S
C282 C280 1.394 . S
C282 C283 1.369 . S
C282 C286 1.531 . S
C283 C282 1.369 . S
C283 C284 1.410 . S
C283 C291 1.503 . S
C284 C283 1.410 . S
C284 C285 1.392 . S
C284 C287 1.511 . S
C285 C281 1.376 . S
C285 C284 1.392 . S
C285 H297 0.929 . S
C286 C282 1.531 . S
C286 H298 0.960 . S
C286 H299 0.962 . S
C286 H300 0.960 . S
C287 C284 1.511 . S
C287 H301 0.961 . S
C287 H302 0.961 . S
C287 H303 0.961 . S
C288 C289 1.370 . S
C288 C290 1.363 . S
C288 H304 0.931 . S
C289 C288 1.370 . S
C289 C293 1.408 . S
C290 C288 1.363 . S
C290 C291 1.370 . S
C290 C294 1.524 . S
C291 C283 1.503 . S
C291 C290 1.370 . S
C291 C292 1.403 . S
C292 C291 1.403 . S
C292 C293 1.404 . S
C292 C295 1.539 . S
C293 C289 1.408 . S
C293 C292 1.404 . S
C293 H305 0.930 . S
C294 C290 1.524 . S
C294 H306 0.956 . S
C294 H307 0.961 . S
C294 H308 0.961 . S
C295 C292 1.539 . S
C295 H309 0.958 . S
C295 H310 0.961 . S
C295 H311 0.960 . S
H296 C280 0.931 . S
H297 C285 0.929 . S
H298 C286 0.960 . S
H299 C286 0.962 . S
H300 C286 0.960 . S
H301 C287 0.961 . S
H302 C287 0.961 . S
H303 C287 0.961 . S
H304 C288 0.931 . S
H305 C293 0.930 . S
H306 C294 0.956 . S
H307 C294 0.961 . S
H308 C294 0.961 . S
H309 C295 0.958 . S
H310 C295 0.961 . S
H311 C295 0.960 . S
C312 C313 1.391 . S
C312 C314 1.394 . S
C312 H328 0.931 . S
C313 C312 1.391 . S
C313 C317 1.376 . S
C314 C312 1.394 . S
C314 C315 1.369 . S
C314 C318 1.531 . S
C315 C314 1.369 . S
C315 C316 1.410 . S
C315 C323 1.503 . S
C316 C315 1.410 . S
C316 C317 1.392 . S
C316 C319 1.511 . S
C317 C313 1.376 . S
C317 C316 1.392 . S
C317 H329 0.929 . S
C318 C314 1.531 . S
C318 H330 0.960 . S
C318 H331 0.962 . S
C318 H332 0.960 . S
C319 C316 1.511 . S
C319 H333 0.961 . S
C319 H334 0.961 . S
C319 H335 0.961 . S
C320 C321 1.370 . S
C320 C322 1.363 . S
C320 H336 0.931 . S
C321 C320 1.370 . S
C321 C325 1.408 . S
C322 C320 1.363 . S
C322 C323 1.370 . S
C322 C326 1.524 . S
C323 C315 1.503 . S
C323 C322 1.370 . S
C323 C324 1.403 . S
C324 C323 1.403 . S
C324 C325 1.404 . S
C324 C327 1.539 . S
C325 C321 1.408 . S
C325 C324 1.404 . S
C325 H337 0.930 . S
C326 C322 1.524 . S
C326 H338 0.956 . S
C326 H339 0.961 . S
C326 H340 0.961 . S
C327 C324 1.539 . S
C327 H341 0.958 . S
C327 H342 0.961 . S
C327 H343 0.960 . S
H328 C312 0.931 . S
H329 C317 0.929 . S
H330 C318 0.960 . S
H331 C318 0.962 . S
H332 C318 0.960 . S
H333 C319 0.961 . S
H334 C319 0.961 . S
H335 C319 0.961 . S
H336 C320 0.931 . S
H337 C325 0.930 . S
H338 C326 0.956 . S
H339 C326 0.961 . S
H340 C326 0.961 . S
H341 C327 0.958 . S
H342 C327 0.961 . S
H343 C327 0.960 . S
C344 C345 1.391 . S
C344 C346 1.394 . S
C344 H360 0.931 . S
C345 C344 1.391 . S
C345 C349 1.376 . S
C346 C344 1.394 . S
C346 C347 1.369 . S
C346 C350 1.531 . S
C347 C346 1.369 . S
C347 C348 1.410 . S
C347 C355 1.503 . S
C348 C347 1.410 . S
C348 C349 1.392 . S
C348 C351 1.511 . S
C349 C345 1.376 . S
C349 C348 1.392 . S
C349 H361 0.929 . S
C350 C346 1.531 . S
C350 H362 0.960 . S
C350 H363 0.962 . S
C350 H364 0.960 . S
C351 C348 1.511 . S
C351 H365 0.961 . S
C351 H366 0.961 . S
C351 H367 0.961 . S
C352 C353 1.370 . S
C352 C354 1.363 . S
C352 H368 0.931 . S
C353 C352 1.370 . S
C353 C357 1.408 . S
C354 C352 1.363 . S
C354 C355 1.370 . S
C354 C358 1.524 . S
C355 C347 1.503 . S
C355 C354 1.370 . S
C355 C356 1.403 . S
C356 C355 1.403 . S
C356 C357 1.404 . S
C356 C359 1.539 . S
C357 C353 1.408 . S
C357 C356 1.404 . S
C357 H369 0.930 . S
C358 C354 1.524 . S
C358 H370 0.956 . S
C358 H371 0.961 . S
C358 H372 0.961 . S
C359 C356 1.539 . S
C359 H373 0.958 . S
C359 H374 0.961 . S
C359 H375 0.960 . S
H360 C344 0.931 . S
H361 C349 0.929 . S
H362 C350 0.960 . S
H363 C350 0.962 . S
H364 C350 0.960 . S
H365 C351 0.961 . S
H366 C351 0.961 . S
H367 C351 0.961 . S
H368 C352 0.931 . S
H369 C357 0.930 . S
H370 C358 0.956 . S
H371 C358 0.961 . S
H372 C358 0.961 . S
H373 C359 0.958 . S
H374 C359 0.961 . S
H375 C359 0.960 . S
C376 C377 1.391 . S
C376 C378 1.394 . S
C376 H392 0.931 . S
C377 C376 1.391 . S
C377 C381 1.376 . S
C378 C376 1.394 . S
C378 C379 1.369 . S
C378 C382 1.531 . S
C379 C378 1.369 . S
C379 C380 1.410 . S
C379 C387 1.503 . S
C380 C379 1.410 . S
C380 C381 1.392 . S
C380 C383 1.511 . S
C381 C377 1.376 . S
C381 C380 1.392 . S
C381 H393 0.929 . S
C382 C378 1.531 . S
C382 H394 0.960 . S
C382 H395 0.962 . S
C382 H396 0.960 . S
C383 C380 1.511 . S
C383 H397 0.961 . S
C383 H398 0.961 . S
C383 H399 0.961 . S
C384 C385 1.370 . S
C384 C386 1.363 . S
C384 H400 0.931 . S
C385 C384 1.370 . S
C385 C389 1.408 . S
C386 C384 1.363 . S
C386 C387 1.370 . S
C386 C390 1.524 . S
C387 C379 1.503 . S
C387 C386 1.370 . S
C387 C388 1.403 . S
C388 C387 1.403 . S
C388 C389 1.404 . S
C388 C391 1.539 . S
C389 C385 1.408 . S
C389 C388 1.404 . S
C389 H401 0.930 . S
C390 C386 1.524 . S
C390 H402 0.956 . S
C390 H403 0.961 . S
C390 H404 0.961 . S
C391 C388 1.539 . S
C391 H405 0.958 . S
C391 H406 0.961 . S
C391 H407 0.960 . S
H392 C376 0.931 . S
H393 C381 0.929 . S
H394 C382 0.960 . S
H395 C382 0.962 . S
H396 C382 0.960 . S
H397 C383 0.961 . S
H398 C383 0.961 . S
H399 C383 0.961 . S
H400 C384 0.931 . S
H401 C389 0.930 . S
H402 C390 0.956 . S
H403 C390 0.961 . S
H404 C390 0.961 . S
H405 C391 0.958 . S
H406 C391 0.961 . S
H407 C391 0.960 . S
C408 C409 1.391 . S
C408 C410 1.394 . S
C408 H424 0.931 . S
C409 C408 1.391 . S
C409 C413 1.376 . S
C410 C408 1.394 . S
C410 C411 1.369 . S
C410 C414 1.531 . S
C411 C410 1.369 . S
C411 C412 1.410 . S
C411 C419 1.503 . S
C412 C411 1.410 . S
C412 C413 1.392 . S
C412 C415 1.511 . S
C413 C409 1.376 . S
C413 C412 1.392 . S
C413 H425 0.929 . S
C414 C410 1.531 . S
C414 H426 0.960 . S
C414 H427 0.962 . S
C414 H428 0.960 . S
C415 C412 1.511 . S
C415 H429 0.961 . S
C415 H430 0.961 . S
C415 H431 0.961 . S
C416 C417 1.370 . S
C416 C418 1.363 . S
C416 H432 0.931 . S
C417 C416 1.370 . S
C417 C421 1.408 . S
C418 C416 1.363 . S
C418 C419 1.370 . S
C418 C422 1.524 . S
C419 C411 1.503 . S
C419 C418 1.370 . S
C419 C420 1.403 . S
C420 C419 1.403 . S
C420 C421 1.404 . S
C420 C423 1.539 . S
C421 C417 1.408 . S
C421 C420 1.404 . S
C421 H433 0.930 . S
C422 C418 1.524 . S
C422 H434 0.956 . S
C422 H435 0.961 . S
C422 H436 0.961 . S
C423 C420 1.539 . S
C423 H437 0.958 . S
C423 H438 0.961 . S
C423 H439 0.960 . S
H424 C408 0.931 . S
H425 C413 0.929 . S
H426 C414 0.960 . S
H427 C414 0.962 . S
H428 C414 0.960 . S
H429 C415 0.961 . S
H430 C415 0.961 . S
H431 C415 0.961 . S
H432 C416 0.931 . S
H433 C421 0.930 . S
H434 C422 0.956 . S
H435 C422 0.961 . S
H436 C422 0.961 . S
H437 C423 0.958 . S
H438 C423 0.961 . S
H439 C423 0.960 . S
C440 C441 1.391 . S
C440 C442 1.394 . S
C440 H456 0.931 . S
C441 C440 1.391 . S
C441 C445 1.376 . S
C442 C440 1.394 . S
C442 C443 1.369 . S
C442 C446 1.531 . S
C443 C442 1.369 . S
C443 C444 1.410 . S
C443 C451 1.503 . S
C444 C443 1.410 . S
C444 C445 1.392 . S
C444 C447 1.511 . S
C445 C441 1.376 . S
C445 C444 1.392 . S
C445 H457 0.929 . S
C446 C442 1.531 . S
C446 H458 0.960 . S
C446 H459 0.962 . S
C446 H460 0.960 . S
C447 C444 1.511 . S
C447 H461 0.961 . S
C447 H462 0.961 . S
C447 H463 0.961 . S
C448 C449 1.370 . S
C448 C450 1.363 . S
C448 H464 0.931 . S
C449 C448 1.370 . S
C449 C453 1.408 . S
C450 C448 1.363 . S
C450 C451 1.370 . S
C450 C454 1.524 . S
C451 C443 1.503 . S
C451 C450 1.370 . S
C451 C452 1.403 . S
C452 C451 1.403 . S
C452 C453 1.404 . S
C452 C455 1.539 . S
C453 C449 1.408 . S
C453 C452 1.404 . S
C453 H465 0.930 . S
C454 C450 1.524 . S
C454 H466 0.956 . S
C454 H467 0.961 . S
C454 H468 0.961 . S
C455 C452 1.539 . S
C455 H469 0.958 . S
C455 H470 0.961 . S
C455 H471 0.960 . S
H456 C440 0.931 . S
H457 C445 0.929 . S
H458 C446 0.960 . S
H459 C446 0.962 . S
H460 C446 0.960 . S
H461 C447 0.961 . S
H462 C447 0.961 . S
H463 C447 0.961 . S
H464 C448 0.931 . S
H465 C453 0.930 . S
H466 C454 0.956 . S
H467 C454 0.961 . S
H468 C454 0.961 . S
H469 C455 0.958 . S
H470 C455 0.961 . S
H471 C455 0.960 . S
C472 C473 1.391 . S
C472 C474 1.394 . S
C472 H488 0.931 . S
C473 C472 1.391 . S
C473 C477 1.376 . S
C474 C472 1.394 . S
C474 C475 1.369 . S
C474 C478 1.531 . S
C475 C474 1.369 . S
C475 C476 1.410 . S
C475 C483 1.503 . S
C476 C475 1.410 . S
C476 C477 1.392 . S
C476 C479 1.511 . S
C477 C473 1.376 . S
C477 C476 1.392 . S
C477 H489 0.929 . S
C478 C474 1.531 . S
C478 H490 0.960 . S
C478 H491 0.962 . S
C478 H492 0.960 . S
C479 C476 1.511 . S
C479 H493 0.961 . S
C479 H494 0.961 . S
C479 H495 0.961 . S
C480 C481 1.370 . S
C480 C482 1.363 . S
C480 H496 0.931 . S
C481 C480 1.370 . S
C481 C485 1.408 . S
C482 C480 1.363 . S
C482 C483 1.370 . S
C482 C486 1.524 . S
C483 C475 1.503 . S
C483 C482 1.370 . S
C483 C484 1.403 . S
C484 C483 1.403 . S
C484 C485 1.404 . S
C484 C487 1.539 . S
C485 C481 1.408 . S
C485 C484 1.404 . S
C485 H497 0.930 . S
C486 C482 1.524 . S
C486 H498 0.956 . S
C486 H499 0.961 . S
C486 H500 0.961 . S
C487 C484 1.539 . S
C487 H501 0.958 . S
C487 H502 0.961 . S
C487 H503 0.960 . S
H488 C472 0.931 . S
H489 C477 0.929 . S
H490 C478 0.960 . S
H491 C478 0.962 . S
H492 C478 0.960 . S
H493 C479 0.961 . S
H494 C479 0.961 . S
H495 C479 0.961 . S
H496 C480 0.931 . S
H497 C485 0.930 . S
H498 C486 0.956 . S
H499 C486 0.961 . S
H500 C486 0.961 . S
H501 C487 0.958 . S
H502 C487 0.961 . S
H503 C487 0.960 . S
C129 C56 1.507 . S
C121 C43 1.457 . S
C153 C4 1.486 . S
C161 C99 1.508 . S
C185 C17 1.485 . S
C193 C65 1.508 . S
C217 C30 1.481 . S
C225 C90 1.507 . S
C257 C52 1.511 . S
C249 C9 1.466 . S
C289 C94 1.508 . S
C281 C21 1.507 . S
C313 C34 1.497 . S
C321 C60 1.510 . S
C345 C48 1.497 . S
C353 C86 1.509 . S
C385 C115 1.510 . S
C377 C22 1.469 . S
C417 C81 1.510 . S
C409 C35 1.486 . S
C449 C103 1.505 . S
C441 C47 1.508 . S
C473 C8 1.500 . S
C481 C69 1.507 . S
