# Generated by pormake.
# Topology zzz, (3,6)-cn, num edge types: 1
# Building blocks:
#     Node 0, Type 0, BuildingBlock: MIDCAF_clean_linker_0, # of connection points: 3
#     Node 1, Type 0, BuildingBlock: MIDCAF_clean_linker_0, # of connection points: 3
#     Node 2, Type 0, BuildingBlock: MIDCAF_clean_linker_0, # of connection points: 3
#     Node 3, Type 0, BuildingBlock: MIDCAF_clean_linker_0, # of connection points: 3
#     Node 4, Type 0, BuildingBlock: MIDCAF_clean_linker_0, # of connection points: 3
#     Node 5, Type 0, BuildingBlock: MIDCAF_clean_linker_0, # of connection points: 3
#     Node 6, Type 0, BuildingBlock: MIDCAF_clean_linker_0, # of connection points: 3
#     Node 7, Type 0, BuildingBlock: MIDCAF_clean_linker_0, # of connection points: 3
#     Node 8, Type 1, BuildingBlock: VOLQOD_clean_sbu_1, # of connection points: 6
#     Node 9, Type 1, BuildingBlock: VOLQOD_clean_sbu_1, # of connection points: 6
#     Node 10, Type 1, BuildingBlock: VOLQOD_clean_sbu_1, # of connection points: 6
#     Node 11, Type 1, BuildingBlock: VOLQOD_clean_sbu_1, # of connection points: 6
#     Edge 12, Type (0, 1), BuildingBlock: EZIPEK_clean_linker_0, # of connection points: 2
#     Edge 13, Type (0, 1), BuildingBlock: EZIPEK_clean_linker_0, # of connection points: 2
#     Edge 14, Type (0, 1), BuildingBlock: EZIPEK_clean_linker_0, # of connection points: 2
#     Edge 15, Type (0, 1), BuildingBlock: EZIPEK_clean_linker_0, # of connection points: 2
#     Edge 16, Type (0, 1), BuildingBlock: EZIPEK_clean_linker_0, # of connection points: 2
#     Edge 17, Type (0, 1), BuildingBlock: EZIPEK_clean_linker_0, # of connection points: 2
#     Edge 18, Type (0, 1), BuildingBlock: EZIPEK_clean_linker_0, # of connection points: 2
#     Edge 19, Type (0, 1), BuildingBlock: EZIPEK_clean_linker_0, # of connection points: 2
#     Edge 20, Type (0, 1), BuildingBlock: EZIPEK_clean_linker_0, # of connection points: 2
#     Edge 21, Type (0, 1), BuildingBlock: EZIPEK_clean_linker_0, # of connection points: 2
#     Edge 22, Type (0, 1), BuildingBlock: EZIPEK_clean_linker_0, # of connection points: 2
#     Edge 23, Type (0, 1), BuildingBlock: EZIPEK_clean_linker_0, # of connection points: 2
#     Edge 24, Type (0, 1), BuildingBlock: EZIPEK_clean_linker_0, # of connection points: 2
#     Edge 25, Type (0, 1), BuildingBlock: EZIPEK_clean_linker_0, # of connection points: 2
#     Edge 26, Type (0, 1), BuildingBlock: EZIPEK_clean_linker_0, # of connection points: 2
#     Edge 27, Type (0, 1), BuildingBlock: EZIPEK_clean_linker_0, # of connection points: 2
#     Edge 28, Type (0, 1), BuildingBlock: EZIPEK_clean_linker_0, # of connection points: 2
#     Edge 29, Type (0, 1), BuildingBlock: EZIPEK_clean_linker_0, # of connection points: 2
#     Edge 30, Type (0, 1), BuildingBlock: EZIPEK_clean_linker_0, # of connection points: 2
#     Edge 31, Type (0, 1), BuildingBlock: EZIPEK_clean_linker_0, # of connection points: 2
#     Edge 32, Type (0, 1), BuildingBlock: EZIPEK_clean_linker_0, # of connection points: 2
#     Edge 33, Type (0, 1), BuildingBlock: EZIPEK_clean_linker_0, # of connection points: 2
#     Edge 34, Type (0, 1), BuildingBlock: EZIPEK_clean_linker_0, # of connection points: 2
#     Edge 35, Type (0, 1), BuildingBlock: EZIPEK_clean_linker_0, # of connection points: 2
# Relax obj value: 0.362
# Max RMSD: 0.259
# Mean RMSD: 0.209
data_MOF--net-zzz--node1-VOLQOD_clean_sbu_1--node2-MIDCAF_clean_linker_0--edge1-EZIPEK_clean_linker_0
_symmetry_space_group_name_H-M    P1
_symmetry_Int_Tables_number       1
_symmetry_cell_setting            triclinic
loop_
_symmetry_equiv_pos_as_xyz
'x, y, z'
_cell_length_a     45.211891
_cell_length_b     44.564438
_cell_length_c     17.84896
_cell_angle_alpha  89.992113
_cell_angle_beta   90.203916
_cell_angle_gamma 92.374202
loop_
_atom_site_label
_atom_site_type_symbol
_atom_site_fract_x
_atom_site_fract_y
_atom_site_fract_z
_atom_type_partial_charge
C0 C 0.81746 0.51178 0.34458 0.0
C1 C 0.83848 0.49602 0.3854 0.0
C2 C 0.83948 0.46484 0.377 0.0
C3 C 0.82164 0.44991 0.32399 0.0
H4 H 0.72974 0.41838 0.98956 0.0
H5 H 0.68552 0.43252 0.92206 0.0
H6 H 0.6731 0.5043 0.07899 0.0
H7 H 0.7177 0.49037 0.14787 0.0
H8 H 0.79622 0.40056 0.95922 0.0
H9 H 0.83737 0.39668 0.87173 0.0
H10 H 0.89954 0.40954 0.05353 0.0
H11 H 0.85893 0.41261 0.14168 0.0
H12 H 0.78489 0.50954 0.25634 0.0
H13 H 0.81636 0.53588 0.35071 0.0
H14 H 0.85538 0.4523 0.40843 0.0
H15 H 0.82429 0.42609 0.31545 0.0
N16 N 0.76419 0.45811 0.17832 0.0
N17 N 0.77463 0.42801 0.0741 0.0
N18 N 0.80887 0.43324 0.17162 0.0
C19 C 0.75576 0.44584 0.11101 0.0
C20 C 0.80126 0.42164 0.10391 0.0
C21 C 0.79066 0.45127 0.20936 0.0
C22 C 0.72748 0.45335 0.07417 0.0
C23 C 0.71767 0.43713 0.01036 0.0
C24 C 0.69234 0.44511 0.97156 0.0
C25 C 0.67624 0.46947 0.99543 0.0
C26 C 0.68538 0.48542 0.05987 0.0
C27 C 0.71079 0.47736 0.09917 0.0
C28 C 0.82427 0.40818 0.05703 0.0
C29 C 0.81859 0.40121 0.98125 0.0
C30 C 0.84207 0.39875 0.9311 0.0
C31 C 0.87133 0.40356 0.95633 0.0
C32 C 0.87704 0.40606 0.03322 0.0
C33 C 0.85366 0.40805 0.08343 0.0
C34 C 0.80232 0.46583 0.27839 0.0
C35 C 0.79937 0.4967 0.29127 0.0
C36 C 0.97191 0.81034 0.38229 0.0
C37 C 0.99284 0.81638 0.43911 0.0
C38 C 0.01717 0.79799 0.44626 0.0
C39 C 0.02286 0.77692 0.39078 0.0
H40 H 0.9913 0.68266 0.19481 0.0
H41 H 0.98147 0.63707 0.11911 0.0
H42 H 0.01557 0.68329 0.92365 0.0
H43 H 0.02523 0.72848 0.99722 0.0
H44 H 0.05183 0.79073 0.00394 0.0
H45 H 0.06857 0.83682 0.94127 0.0
H46 H 0.09561 0.87549 0.15335 0.0
H47 H 0.07782 0.82954 0.2176 0.0
H48 H 0.96297 0.78726 0.27879 0.0
H49 H 0.95316 0.82448 0.37562 0.0
H50 H 0.03363 0.80249 0.48952 0.0
H51 H 0.04376 0.76586 0.392 0.0
N52 N 0.00789 0.7405 0.21778 0.0
N53 N 0.03729 0.75701 0.11622 0.0
N54 N 0.03604 0.78607 0.22458 0.0
C55 C 0.01846 0.73599 0.14731 0.0
C56 C 0.04625 0.78202 0.15438 0.0
C57 C 0.01706 0.76553 0.25662 0.0
C58 C 0.00942 0.70912 0.10244 0.0
C59 C 0.99626 0.6832 0.1355 0.0
C60 C 0.99059 0.65722 0.09248 0.0
C61 C 0.99792 0.65701 0.01608 0.0
C62 C 0.00982 0.68313 0.98256 0.0
C63 C 0.01548 0.70889 0.02509 0.0
C64 C 0.06289 0.80673 0.11595 0.0
C65 C 0.06195 0.80867 0.0374 0.0
C66 C 0.07152 0.83502 0.00136 0.0
C67 C 0.08265 0.85969 0.04299 0.0
C68 C 0.08669 0.85674 0.12059 0.0
C69 C 0.07645 0.83054 0.15706 0.0
C70 C 0.00403 0.77372 0.32845 0.0
C71 C 0.97745 0.78893 0.32725 0.0
C72 C 0.69894 0.03494 0.36826 0.0
C73 C 0.70007 0.0054 0.39465 0.0
C74 C 0.72173 0.98673 0.36611 0.0
C75 C 0.74014 0.99675 0.30706 0.0
H76 H 0.83881 0.03062 0.16074 0.0
H77 H 0.88488 0.02096 0.09324 0.0
H78 H 0.8338 0.98893 0.9028 0.0
H79 H 0.78803 0.99964 0.96866 0.0
H80 H 0.72754 0.042 0.94047 0.0
H81 H 0.68288 0.05506 0.87256 0.0
H82 H 0.66086 0.11629 0.04894 0.0
H83 H 0.70502 0.10227 0.11906 0.0
H84 H 0.71469 0.06742 0.28867 0.0
H85 H 0.68274 0.04986 0.39021 0.0
H86 H 0.72318 0.96396 0.38655 0.0
H87 H 0.75509 0.98128 0.28205 0.0
N88 N 0.77475 0.02211 0.17474 0.0
N89 N 0.76523 0.0441 0.05734 0.0
N90 N 0.73304 0.05106 0.15714 0.0
C91 C 0.78276 0.02762 0.10209 0.0
C92 C 0.74059 0.05628 0.08504 0.0
C93 C 0.7496 0.03391 0.20231 0.0
C94 C 0.80998 0.0159 0.06972 0.0
C95 C 0.83752 0.02082 0.10524 0.0
C96 C 0.86378 0.01543 0.06666 0.0
C97 C 0.86274 0.00444 0.99276 0.0
C98 C 0.83511 0.99751 0.95955 0.0
C99 C 0.80902 0.00358 0.99725 0.0
C100 C 0.71936 0.07076 0.03545 0.0
C101 C 0.71372 0.05895 0.96372 0.0
C102 C 0.68818 0.06633 0.92501 0.0
C103 C 0.66829 0.08601 0.9569 0.0
C104 C 0.67579 0.10072 0.02419 0.0
C105 C 0.70094 0.09269 0.06402 0.0
C106 C 0.73719 0.02561 0.27658 0.0
C107 C 0.71732 0.04496 0.31024 0.0
C108 C 0.45473 0.66777 0.01148 0.0
C109 C 0.46797 0.63992 0.00498 0.0
C110 C 0.49298 0.63416 0.04846 0.0
C111 C 0.50567 0.65638 0.09447 0.0
H112 H 0.49187 0.78189 0.03966 0.0
H113 H 0.49914 0.82834 0.96945 0.0
H114 H 0.57465 0.85347 0.10699 0.0
H115 H 0.56793 0.80635 0.17797 0.0
H116 H 0.53915 0.74324 0.37852 0.0
H117 H 0.54691 0.71073 0.48743 0.0
H118 H 0.59018 0.64771 0.34598 0.0
H119 H 0.58295 0.68018 0.23814 0.0
H120 H 0.4584 0.71231 0.05757 0.0
H121 H 0.43518 0.67241 0.97892 0.0
H122 H 0.50338 0.61274 0.0446 0.0
H123 H 0.52558 0.65151 0.12535 0.0
N124 N 0.51034 0.73792 0.11381 0.0
N125 N 0.54391 0.75255 0.20965 0.0
N126 N 0.52679 0.70225 0.1981 0.0
C127 C 0.52734 0.75975 0.14848 0.0
C128 C 0.54352 0.7236 0.23431 0.0
C129 C 0.50994 0.7092 0.13849 0.0
C130 C 0.52954 0.79011 0.11417 0.0
C131 C 0.50996 0.79724 0.05585 0.0
C132 C 0.51403 0.82382 0.01544 0.0
C133 C 0.53758 0.84401 0.03257 0.0
C134 C 0.55642 0.83793 0.09293 0.0
C135 C 0.55245 0.8111 0.13352 0.0
C136 C 0.56024 0.71397 0.3002 0.0
C137 C 0.55207 0.72348 0.37189 0.0
C138 C 0.55633 0.70482 0.43398 0.0
C139 C 0.56846 0.67651 0.42407 0.0
C140 C 0.58059 0.66932 0.35459 0.0
C141 C 0.57654 0.68796 0.29305 0.0
C142 C 0.49394 0.68505 0.09671 0.0
C143 C 0.46804 0.69047 0.05594 0.0
C144 C 0.17004 0.4961 0.03777 0.0
C145 C 0.18017 0.50219 0.96511 0.0
C146 C 0.20892 0.51482 0.9548 0.0
C147 C 0.22624 0.52373 0.01706 0.0
H148 H 0.30705 0.50782 0.1984 0.0
H149 H 0.35305 0.4957 0.26361 0.0
H150 H 0.33022 0.55305 0.44705 0.0
H151 H 0.28478 0.56549 0.38324 0.0
H152 H 0.20887 0.56663 0.40271 0.0
H153 H 0.16267 0.57805 0.46474 0.0
H154 H 0.13226 0.62106 0.26389 0.0
H155 H 0.17804 0.60822 0.19996 0.0
H156 H 0.17792 0.50205 0.15505 0.0
H157 H 0.14796 0.4864 0.04678 0.0
H158 H 0.21699 0.51976 0.89891 0.0
H159 H 0.24732 0.53563 0.00833 0.0
N160 N 0.25459 0.5311 0.18325 0.0
N161 N 0.24525 0.56374 0.28341 0.0
N162 N 0.20994 0.55616 0.18892 0.0
C163 C 0.26363 0.54479 0.24844 0.0
C164 C 0.21864 0.56987 0.25324 0.0
C165 C 0.2276 0.53689 0.1536 0.0
C166 C 0.29207 0.53765 0.28531 0.0
C167 C 0.31184 0.51791 0.25251 0.0
C168 C 0.33807 0.51088 0.28967 0.0
C169 C 0.34482 0.52336 0.36027 0.0
C170 C 0.3253 0.54311 0.39277 0.0
C171 C 0.2993 0.55023 0.35582 0.0
C172 C 0.19666 0.58606 0.29629 0.0
C173 C 0.19286 0.57951 0.37259 0.0
C174 C 0.16642 0.58596 0.408 0.0
C175 C 0.1438 0.59957 0.36798 0.0
C176 C 0.14934 0.61011 0.2951 0.0
C177 C 0.17543 0.60278 0.25879 0.0
C178 C 0.21484 0.51998 0.08965 0.0
C179 C 0.18718 0.505 0.09947 0.0
C180 C 0.04423 0.18008 0.93055 0.0
C181 C 0.07482 0.17838 0.92052 0.0
C182 C 0.09407 0.20003 0.95415 0.0
C183 C 0.0829 0.22089 0.00459 0.0
H184 H 0.02097 0.322 0.14668 0.0
H185 H 0.02229 0.36772 0.224 0.0
H186 H 0.0817 0.3265 0.379 0.0
H187 H 0.0797 0.28061 0.30305 0.0
H188 H 0.00309 0.22758 0.3552 0.0
H189 H 0.99277 0.18693 0.44478 0.0
H190 H 0.9938 0.12217 0.26569 0.0
H191 H 0.00356 0.16231 0.17552 0.0
H192 H 0.00962 0.19987 0.99199 0.0
H193 H 0.02905 0.16379 0.90425 0.0
H194 H 0.11776 0.1991 0.94638 0.0
H195 H 0.09826 0.23537 0.03601 0.0
N196 N 0.05037 0.26011 0.11802 0.0
N197 N 0.02666 0.24878 0.23268 0.0
N198 N 0.02599 0.21315 0.13714 0.0
C199 C 0.04224 0.26844 0.18826 0.0
C200 C 0.0183 0.22107 0.20728 0.0
C201 C 0.04189 0.23227 0.09229 0.0
C202 C 0.05043 0.29813 0.21903 0.0
C203 C 0.03523 0.3233 0.19559 0.0
C204 C 0.03585 0.34925 0.23982 0.0
C205 C 0.05189 0.35027 0.30738 0.0
C206 C 0.06923 0.32607 0.32704 0.0
C207 C 0.06819 0.30001 0.2836 0.0
C208 C 0.00495 0.19816 0.2584 0.0
C209 C 1.0002 0.20482 0.33439 0.0
C210 C 0.99411 0.18169 0.38565 0.0
C211 C 0.99289 0.15171 0.36149 0.0
C212 C 0.99472 0.14524 0.28501 0.0
C213 C 1.00052 0.16829 0.23371 0.0
C214 C 0.05248 0.22019 0.02098 0.0
C215 C 0.03315 0.20082 0.98027 0.0
C216 C 0.33534 0.01641 0.99825 0.0
C217 C 0.352 0.99919 0.94911 0.0
C218 C 0.34707 0.96796 0.94737 0.0
C219 C 0.32819 0.9538 0.9992 0.0
H220 H 0.22443 0.98149 0.18571 0.0
H221 H 0.18138 0.99331 0.2629 0.0
H222 H 0.22027 0.94938 0.45206 0.0
H223 H 0.26276 0.93731 0.37664 0.0
H224 H 0.31514 0.89535 0.35931 0.0
H225 H 0.3577 0.88986 0.44231 0.0
H226 H 0.41672 0.91404 0.26114 0.0
H227 H 0.37474 0.91871 0.17722 0.0
H228 H 0.30578 0.01558 0.09247 0.0
H229 H 0.33884 0.04059 0.00011 0.0
H230 H 0.35955 0.95433 0.90953 0.0
H231 H 0.32675 0.92947 0.00069 0.0
N232 N 0.2792 0.96287 0.16118 0.0
N233 N 0.29256 0.93083 0.25939 0.0
N234 N 0.32263 0.9358 0.1541 0.0
C235 C 0.27317 0.95009 0.22939 0.0
C236 C 0.31735 0.92357 0.22229 0.0
C237 C 0.30385 0.9552 0.12289 0.0
C238 C 0.24708 0.95828 0.27454 0.0
C239 C 0.22384 0.97444 0.24377 0.0
C240 C 0.19927 0.98123 0.28771 0.0
C241 C 0.19776 0.97222 0.36315 0.0
C242 C 0.22104 0.95652 0.39403 0.0
C243 C 0.24532 0.94957 0.35039 0.0
C244 C 0.34149 0.90876 0.26251 0.0
C245 C 0.33719 0.8981 0.33608 0.0
C246 C 0.36149 0.89469 0.38355 0.0
C247 C 0.39014 0.90233 0.35795 0.0
C248 C 0.39469 0.90834 0.2818 0.0
C249 C 0.37051 0.91121 0.23405 0.0
C250 C 0.31379 0.97061 0.05363 0.0
C251 C 0.31626 0.00214 0.0504 0.0
C252 C 0.57016 0.3527 0.25557 0.0
C253 C 0.56417 0.35197 0.3325 0.0
C254 C 0.55501 0.32484 0.36654 0.0
C255 C 0.54893 0.29934 0.32294 0.0
H256 H 0.47965 0.22537 0.31602 0.0
H257 H 0.47581 0.1806 0.39555 0.0
H258 H 0.51711 0.1292 0.22326 0.0
H259 H 0.52031 0.17403 0.14241 0.0
H260 H 0.45454 0.26323 0.0326 0.0
H261 H 0.43523 0.29906 0.9413 0.0
H262 H 0.52443 0.32995 0.88956 0.0
H263 H 0.54367 0.29424 0.97903 0.0
H264 H 0.56646 0.32904 0.15157 0.0
H265 H 0.57721 0.37358 0.22867 0.0
H266 H 0.5503 0.32403 0.42601 0.0
H267 H 0.53977 0.27934 0.35015 0.0
N268 N 0.52704 0.25098 0.22739 0.0
N269 N 0.50169 0.23823 0.11548 0.0
N270 N 0.52924 0.28396 0.12613 0.0
C271 C 0.50992 0.23117 0.18678 0.0
C272 C 0.51167 0.26482 0.08495 0.0
C273 C 0.53701 0.27734 0.19721 0.0
C274 C 0.50006 0.20292 0.22316 0.0
C275 C 0.48675 0.20419 0.29399 0.0
C276 C 0.48462 0.17873 0.33944 0.0
C277 C 0.49632 0.15177 0.31527 0.0
C278 C 0.50783 0.14985 0.24247 0.0
C279 C 0.50949 0.17532 0.1963 0.0
C280 C 0.50058 0.27617 0.01299 0.0
C281 C 0.46998 0.27657 0.99879 0.0
C282 C 0.45893 0.29721 0.94734 0.0
C283 C 0.47847 0.31756 0.91036 0.0
C284 C 0.50904 0.31467 0.91835 0.0
C285 C 0.52 0.29413 0.9691 0.0
C286 C 0.55154 0.30087 0.24455 0.0
C287 C 0.56379 0.32729 0.21172 0.0
O288 O 0.10595 0.99642 0.63545 0.0
Zn289 Zn 0.07867 0.00347 0.72323 0.0
O290 O 0.03671 0.99841 0.69261 0.0
Zn291 Zn 0.01572 0.03363 0.72265 0.0
Zn292 Zn 0.03377 0.99299 0.58453 0.0
Zn293 Zn 0.01751 0.9634 0.73942 0.0
O294 O 0.98093 0.02329 0.78945 0.0
O295 O 0.97938 0.97339 0.79218 0.0
O296 O 0.08802 0.04553 0.76276 0.0
O297 O 0.04297 0.0633 0.77452 0.0
O298 O 0.00237 0.0563 0.63276 0.0
O299 O 0.01588 0.02855 0.53607 0.0
O300 O 0.0116 0.95446 0.55609 0.0
O301 O 0.08757 0.9743 0.80693 0.0
O302 O 0.00954 0.92998 0.66451 0.0
O303 O 0.04472 0.94804 0.81699 0.0
C304 C 0.10072 0.99156 0.5662 0.0
C305 C 0.96873 0.99841 0.81036 0.0
C306 C 0.00449 0.05189 0.56268 0.0
C307 C 0.07089 0.06604 0.78269 0.0
C308 C 0.00653 0.93047 0.59356 0.0
C309 C 0.07135 0.9537 0.83748 0.0
O310 O 0.07449 0.98982 0.54004 0.0
O311 O 0.5079 0.06522 0.60723 0.0
Zn312 Zn 0.51292 0.04057 0.70141 0.0
O313 O 0.52577 -0.00024 0.67646 0.0
Zn314 Zn 0.49626 0.97007 0.71207 0.0
Zn315 Zn 0.5307 0.99596 0.56808 0.0
Zn316 Zn 0.56349 0.99131 0.72411 0.0
O317 O 0.51297 0.94164 0.78711 0.0
O318 O 0.56035 0.95659 0.79696 0.0
O319 O 0.47364 0.0391 0.75763 0.0
O320 O 0.46314 0.98995 0.76385 0.0
O321 O 0.47766 0.94738 0.62617 0.0
O322 O 0.50318 0.96335 0.5264 0.0
O323 O 0.5734 0.99016 0.53989 0.0
O324 O 0.54382 0.0625 0.76598 0.0
O325 O 0.596 0.98459 0.64937 0.0
O326 O 0.57704 0.02739 0.78185 0.0
C327 C 0.5111 0.05923 0.53802 0.0
C328 C 0.53856 0.93924 0.81576 0.0
C329 C 0.48285 0.94674 0.55623 0.0
C330 C 0.45684 0.0169 0.77787 0.0
C331 C 0.59677 0.98625 0.5782 0.0
C332 C 0.56806 0.05366 0.79309 0.0
O333 O 0.51948 0.03384 0.51591 0.0
O334 O 0.44267 0.49549 0.61341 0.0
Zn335 Zn 0.46995 0.49133 0.70294 0.0
O336 O 0.51195 0.49766 0.67326 0.0
Zn337 Zn 0.53337 0.46147 0.69289 0.0
Zn338 Zn 0.51417 0.50736 0.56669 0.0
Zn339 Zn 0.53137 0.53049 0.72983 0.0
O340 O 0.56806 0.46888 0.7628 0.0
O341 O 0.56483 0.51681 0.79523 0.0
O342 O 0.4623 0.45 0.74964 0.0
O343 O 0.50667 0.43039 0.74125 0.0
O344 O 0.5468 0.44301 0.5974 0.0
O345 O 0.53503 0.47584 0.50933 0.0
O346 O 0.53331 0.54824 0.54966 0.0
O347 O 0.4584 0.52345 0.77661 0.0
O348 O 0.54639 0.56447 0.66323 0.0
O349 O 0.50135 0.54886 0.79419 0.0
C350 C 0.44743 0.50313 0.54557 0.0
C351 C 0.57717 0.49172 0.80047 0.0
C352 C 0.54597 0.4512 0.52923 0.0
C353 C 0.47958 0.42848 0.76016 0.0
C354 C 0.54498 0.56823 0.59269 0.0
C355 C 0.47387 0.54463 0.80727 0.0
O356 O 0.47351 0.50859 0.52117 0.0
O357 O 0.95576 0.5412 0.58765 0.0
Zn358 Zn 0.99629 0.54371 0.63832 0.0
O359 O 0.01122 0.50332 0.65826 0.0
Zn360 Zn 0.01545 0.49665 0.76576 0.0
Zn361 Zn 0.98362 0.47315 0.61628 0.0
Zn362 Zn 0.04982 0.49857 0.61289 0.0
O363 O 0.05754 0.48912 0.79638 0.0
O364 O 0.08229 0.49572 0.68988 0.0
O365 O 0.99361 0.56723 0.73498 0.0
O366 O 0.00598 0.53399 0.82154 0.0
O367 O 0.98654 0.46454 0.80215 0.0
O368 O 0.96317 0.44956 0.69795 0.0
O369 O 0.00344 0.44554 0.54489 0.0
O370 O 0.02423 0.56711 0.56885 0.0
O371 O 0.05039 0.46249 0.54485 0.0
O372 O 0.05971 0.53459 0.55112 0.0
C373 C 0.94158 0.51895 0.55773 0.0
C374 C 0.08176 0.49121 0.76025 0.0
C375 C 0.96668 0.44846 0.76858 0.0
C376 C 0.99813 0.56005 0.80307 0.0
C377 C 0.03001 0.44409 0.52218 0.0
C378 C 0.04852 0.55987 0.5393 0.0
O379 O 0.95072 0.49241 0.5617 0.0
C380 C 0.16737 0.00728 0.43956 0.0
C381 C 0.17156 0.97808 0.41054 0.0
C382 C 0.1315 0.95759 0.49014 0.0
C383 C 0.12568 0.98704 0.51441 0.0
N384 N 0.13483 0.04055 0.50452 0.0
N385 N 0.15393 0.92657 0.3964 0.0
C386 C 0.14267 0.01212 0.48682 0.0
C387 C 0.15246 0.95357 0.4323 0.0
N388 N 0.1876 0.0301 0.42443 0.0
N389 N 0.11789 0.93339 0.5246 0.0
H390 H 0.16881 0.9229 0.35314 0.0
H391 H 0.13858 0.90879 0.40446 0.0
H392 H 0.10304 0.93552 0.56871 0.0
H393 H 0.12339 0.91129 0.5145 0.0
H394 H 0.18762 0.05097 0.45066 0.0
H395 H 0.2058 0.0275 0.38963 0.0
H396 H 0.14425 0.05978 0.47961 0.0
H397 H 0.11728 0.04488 0.54022 0.0
C398 C 0.5256 0.12876 0.41823 0.0
C399 C 0.50039 0.12728 0.37034 0.0
C400 C 0.48103 0.08241 0.43651 0.0
C401 C 0.50699 0.08301 0.48156 0.0
N402 N 0.55593 0.10364 0.50932 0.0
N403 N 0.45592 0.10126 0.32651 0.0
C404 C 0.5298 0.10539 0.47091 0.0
C405 C 0.47862 0.10361 0.37726 0.0
N406 N 0.54528 0.15289 0.41423 0.0
N407 N 0.45835 0.06215 0.45216 0.0
H408 H 0.45318 0.11687 0.28373 0.0
H409 H 0.44097 0.08292 0.3233 0.0
H410 H 0.4595 0.04642 0.49523 0.0
H411 H 0.43764 0.06222 0.42658 0.0
H412 H 0.56189 0.15734 0.45366 0.0
H413 H 0.54402 0.16968 0.37378 0.0
H414 H 0.57475 0.11707 0.49789 0.0
H415 H 0.55966 0.0872 0.54948 0.0
C416 C 0.37509 0.48871 0.43847 0.0
C417 C 0.37256 0.51656 0.40081 0.0
C418 C 0.41831 0.53593 0.46069 0.0
C419 C 0.42196 0.50744 0.49451 0.0
N420 N 0.40727 0.4549 0.50302 0.0
N421 N 0.39487 0.56413 0.36252 0.0
C422 C 0.40133 0.48326 0.47975 0.0
C423 C 0.39523 0.53935 0.40761 0.0
N424 N 0.352 0.46793 0.43726 0.0
N425 N 0.43582 0.56018 0.48232 0.0
H426 H 0.37832 0.56729 0.32272 0.0
H427 H 0.41236 0.58004 0.35948 0.0
H428 H 0.45231 0.55899 0.52301 0.0
H429 H 0.43211 0.58209 0.46543 0.0
H430 H 0.35118 0.44875 0.47065 0.0
H431 H 0.33256 0.47093 0.40702 0.0
H432 H 0.3946 0.43588 0.48729 0.0
H433 H 0.42647 0.44998 0.53239 0.0
C434 C 0.05829 0.40423 0.34881 0.0
C435 C 0.0472 0.37454 0.36261 0.0
C436 C 0.02938 0.38987 0.48566 0.0
C437 C 0.03721 0.4202 0.46825 0.0
N438 N 0.05449 0.45707 0.37726 0.0
N439 N 0.01654 0.3404 0.43727 0.0
C440 C 0.05057 0.42767 0.39827 0.0
C441 C 0.03116 0.36769 0.42915 0.0
N442 N 0.07665 0.40993 0.28939 0.0
N443 N 0.02126 0.382 0.55696 0.0
H444 H 0.01652 0.32366 0.39648 0.0
H445 H 0.002 0.3355 0.48117 0.0
H446 H 0.02061 0.39744 0.6008 0.0
H447 H 0.01824 0.35977 0.57439 0.0
H448 H 0.08791 0.43052 0.28103 0.0
H449 H 0.08265 0.39328 0.25198 0.0
H450 H 0.06125 0.46368 0.3238 0.0
H451 H 0.04837 0.47496 0.41065 0.0
C452 C 0.91231 0.98226 0.96626 0.0
C453 C 0.89026 0.00273 0.94721 0.0
C454 C 0.91765 0.01656 0.83312 0.0
C455 C 0.94139 0.99888 0.85661 0.0
N456 N 0.96369 0.96972 0.95449 0.0
N457 N 0.87572 0.04465 0.87153 0.0
C458 C 0.9394 0.98295 0.92563 0.0
C459 C 0.89403 0.02144 0.88322 0.0
N460 N 0.90711 0.96158 0.0217 0.0
N461 N 0.91694 0.02772 0.76181 0.0
H462 H 0.85874 0.04976 0.90821 0.0
H463 H 0.87938 0.06073 0.82982 0.0
H464 H 0.93309 0.02354 0.72198 0.0
H465 H 0.89869 0.03826 0.73975 0.0
H466 H 0.92113 0.94412 0.03263 0.0
H467 H 0.88746 0.96021 0.05218 0.0
H468 H 0.96422 0.96049 0.00808 0.0
H469 H 0.98428 0.97062 0.92829 0.0
C470 C 0.52661 0.897 0.99829 0.0
C471 C 0.54258 0.87088 0.98437 0.0
C472 C 0.55851 0.89083 0.86218 0.0
C473 C 0.54236 0.91686 0.87593 0.0
N474 N 0.5169 0.94823 0.96245 0.0
N475 N 0.57854 0.84513 0.91185 0.0
C476 C 0.52821 0.92102 0.94582 0.0
C477 C 0.56023 0.86861 0.91915 0.0
N478 N 0.50914 0.89835 0.06048 0.0
N479 N 0.57084 0.88664 0.7933 0.0
H480 H 0.57983 0.82817 0.95186 0.0
H481 H 0.59416 0.84363 0.86949 0.0
H482 H 0.57035 0.9026 0.75061 0.0
H483 H 0.57992 0.86666 0.77646 0.0
H484 H 0.49405 0.91499 0.0694 0.0
H485 H 0.50861 0.88179 0.10186 0.0
H486 H 0.50885 0.95377 0.015 0.0
H487 H 0.51787 0.96635 0.92538 0.0
C488 C 0.65449 0.49749 0.88752 0.0
C489 C 0.65024 0.47841 0.95077 0.0
C490 C 0.59787 0.47031 0.91868 0.0
C491 C 0.60203 0.48851 0.85388 0.0
N492 N 0.63297 0.52236 0.77994 0.0
N493 N 0.61786 0.44752 0.02888 0.0
C494 C 0.62997 0.50315 0.83952 0.0
C495 C 0.62194 0.46532 0.96709 0.0
N496 N 0.68227 0.5092 0.87217 0.0
N497 N 0.5709 0.45755 0.93666 0.0
H498 H 0.63479 0.44326 0.06683 0.0
H499 H 0.59739 0.43722 0.04226 0.0
H500 H 0.55153 0.46035 0.90586 0.0
H501 H 0.55153 0.46035 0.90586 0.0
H502 H 0.68802 0.52079 0.82346 0.0
H503 H 0.70033 0.50644 0.90769 0.0
H504 H 0.65169 0.53603 0.76959 0.0
H505 H 0.61602 0.52575 0.7415 0.0
C506 C 0.96998 0.62179 0.92848 0.0
C507 C 0.99586 0.62907 0.97095 0.0
C508 C 0.0231 0.59146 0.9028 0.0
C509 C 0.99693 0.58328 0.8621 0.0
N510 N 0.94416 0.58611 0.84589 0.0
N511 N 0.04485 0.6168 0.01105 0.0
C512 C 0.96992 0.59712 0.87778 0.0
C513 C 0.02167 0.61245 0.96229 0.0
N514 N 0.94582 0.63903 0.93506 0.0
N515 N 0.0497 0.5806 0.88172 0.0
H516 H 0.04471 0.63234 0.05474 0.0
H517 H 0.063 0.60316 0.01259 0.0
H518 H 0.05201 0.56582 0.83708 0.0
H519 H 0.06995 0.58833 0.90385 0.0
H520 H 0.92755 0.63721 0.89943 0.0
H521 H 0.94476 0.65644 0.97393 0.0
H522 H 0.92334 0.59324 0.86068 0.0
H523 H 0.94336 0.56796 0.80891 0.0
C524 C 0.02382 0.12029 0.44428 0.0
C525 C 0.99546 0.12704 0.41624 0.0
C526 C 0.9723 0.08568 0.48853 0.0
C527 C 0.00087 0.0777 0.51251 0.0
N528 N 0.0541 0.08575 0.51216 0.0
N529 N 0.94393 0.11686 0.40349 0.0
C530 C 0.02672 0.09462 0.49026 0.0
C531 C 0.96992 0.1098 0.43666 0.0
N532 N 0.04788 0.13872 0.42754 0.0
N533 N 0.94784 0.07039 0.51606 0.0
H534 H 0.92381 0.10492 0.41033 0.0
H535 H 0.92381 0.10492 0.41033 0.0
H536 H 0.94925 0.05213 0.55231 0.0
H537 H 0.92621 0.07658 0.50694 0.0
H538 H 0.06845 0.13745 0.45337 0.0
H539 H 0.04708 0.1567 0.39035 0.0
H540 H 0.07395 0.09457 0.49056 0.0
H541 H 0.05732 0.06829 0.54986 0.0
C542 C 0.41241 0.9419 0.44171 0.0
C543 C 0.41343 0.91234 0.41202 0.0
C544 C 0.45939 0.90418 0.48139 0.0
C545 C 0.45918 0.93424 0.50712 0.0
N546 N 0.43753 0.9829 0.5083 0.0
N547 N 0.43819 0.86594 0.39738 0.0
C548 C 0.43615 0.95336 0.48665 0.0
C549 C 0.43702 0.89357 0.43024 0.0
N550 N 0.38856 0.95902 0.42726 0.0
N551 N 0.4807 0.88582 0.507 0.0
H552 H 0.42155 0.85727 0.36187 0.0
H553 H 0.45612 0.85216 0.40201 0.0
H554 H 0.49762 0.89334 0.54318 0.0
H555 H 0.48083 0.86289 0.49619 0.0
H556 H 0.38424 0.97867 0.45594 0.0
H557 H 0.37184 0.953 0.38919 0.0
H558 H 0.42378 0.99907 0.48728 0.0
H559 H 0.45371 0.99209 0.54432 0.0
C560 C 0.58531 0.39232 0.41805 0.0
C561 C 0.56137 0.38025 0.37461 0.0
C562 C 0.52793 0.4158 0.42973 0.0
C563 C 0.55206 0.42872 0.47138 0.0
N564 N 0.60434 0.43317 0.49721 0.0
N565 N 0.51172 0.38428 0.32607 0.0
C566 C 0.58103 0.41816 0.46303 0.0
C567 C 0.53333 0.39338 0.37597 0.0
N568 N 0.61176 0.37855 0.41772 0.0
N569 N 0.49953 0.42332 0.44522 0.0
H570 H 0.51421 0.36704 0.28743 0.0
H571 H 0.49219 0.39553 0.31855 0.0
H572 H 0.49413 0.43922 0.48519 0.0
H573 H 0.48091 0.41185 0.42332 0.0
H574 H 0.62915 0.38412 0.45416 0.0
H575 H 0.61577 0.36027 0.38319 0.0
H576 H 0.62638 0.42835 0.48825 0.0
H577 H 0.60172 0.45216 0.53035 0.0
C578 C 0.09195 0.57681 0.37027 0.0
C579 C 0.11342 0.59806 0.39943 0.0
C580 C 0.0844 0.60277 0.51405 0.0
C581 C 0.06434 0.58015 0.48654 0.0
N582 N 0.04235 0.5543 0.38127 0.0
N583 N 0.1257 0.63771 0.48692 0.0
C584 C 0.06573 0.57054 0.4115 0.0
C585 C 0.10794 0.61345 0.46719 0.0
N586 N 0.09767 0.56047 0.3075 0.0
N587 N 0.08203 0.61243 0.58628 0.0
H588 H 0.143 0.64576 0.45282 0.0
H589 H 0.12173 0.65128 0.53298 0.0
H590 H 0.06434 0.60558 0.62051 0.0
H591 H 0.09796 0.62624 0.6129 0.0
H592 H 0.08428 0.54224 0.28971 0.0
H593 H 0.11687 0.5633 0.27594 0.0
H594 H 0.04088 0.54859 0.32474 0.0
H595 H 0.02307 0.54935 0.41176 0.0
C596 C 0.10791 0.8926 0.94727 0.0
C597 C 0.08652 0.88917 0.00489 0.0
C598 C 0.06592 0.93692 0.96862 0.0
C599 C 0.08237 0.93634 0.90149 0.0
N600 N 0.11992 0.91434 0.826 0.0
N601 N 0.04359 0.90757 0.06855 0.0
C602 C 0.10422 0.91483 0.8912 0.0
C603 C 0.06551 0.91157 0.01645 0.0
N604 N 0.13134 0.87423 0.94593 0.0
N605 N 0.05019 0.96156 0.98537 0.0
H606 H 0.04178 0.88912 0.10424 0.0
H607 H 0.02571 0.92148 0.07248 0.0
H608 H 0.05035 0.98047 0.95077 0.0
H609 H 0.03969 0.96446 0.03657 0.0
H610 H 0.14901 0.87704 0.90898 0.0
H611 H 0.13435 0.85786 0.98683 0.0
H612 H 0.13354 0.897 0.81142 0.0
H613 H 0.11817 0.93061 0.78445 0.0
C614 C 0.61374 0.07239 0.95849 0.0
C615 C 0.6383 0.08769 0.92355 0.0
C616 C 0.61043 0.09071 0.80625 0.0
C617 C 0.58699 0.07367 0.84001 0.0
N618 N 0.56146 0.05772 0.95135 0.0
N619 N 0.65699 0.11916 0.82346 0.0
C620 C 0.58695 0.06815 0.91772 0.0
C621 C 0.63545 0.09971 0.85046 0.0
N622 N 0.6167 0.05949 0.02749 0.0
N623 N 0.60946 0.09652 0.73117 0.0
H624 H 0.67542 0.126 0.85554 0.0
H625 H 0.65536 0.13042 0.7726 0.0
H626 H 0.59077 0.09111 0.6986 0.0
H627 H 0.62732 0.10562 0.70092 0.0
H628 H 0.60061 0.04508 0.05119 0.0
H629 H 0.63601 0.06124 0.05936 0.0
H630 H 0.55915 0.0555 0.00915 0.0
H631 H 0.54174 0.05424 0.9213 0.0
C632 C 0.44868 0.58802 0.97482 0.0
C633 C 0.45788 0.61706 0.94901 0.0
C634 C 0.4611 0.59739 0.82174 0.0
C635 C 0.45968 0.56797 0.85129 0.0
N636 N 0.44983 0.53419 0.95404 0.0
N637 N 0.47367 0.64956 0.84646 0.0
C638 C 0.45201 0.56286 0.92705 0.0
C639 C 0.46346 0.62207 0.87159 0.0
N640 N 0.43752 0.58472 0.04546 0.0
N641 N 0.46121 0.60143 0.74586 0.0
H642 H 0.47638 0.66839 0.88062 0.0
H643 H 0.48155 0.65323 0.79233 0.0
H644 H 0.45951 0.58335 0.70864 0.0
H645 H 0.45985 0.62238 0.72044 0.0
H646 H 0.42851 0.56451 0.06615 0.0
H647 H 0.43487 0.60308 0.08082 0.0
H648 H 0.4477 0.52902 0.0107 0.0
H649 H 0.45136 0.51548 0.91935 0.0
C650 C 0.89606 0.44452 0.88151 0.0
C651 C 0.89478 0.4138 0.9033 0.0
C652 C 0.93948 0.40479 0.83034 0.0
C653 C 0.94189 0.43587 0.81356 0.0
N654 N 0.92398 0.48603 0.82449 0.0
N655 N 0.91535 0.36485 0.90378 0.0
C656 C 0.92048 0.45589 0.83916 0.0
C657 C 0.91648 0.39389 0.87894 0.0
N658 N 0.87371 0.46283 0.90087 0.0
N659 N 0.95897 0.38583 0.799 0.0
H660 H 0.89815 0.35607 0.9371 0.0
H661 H 0.93196 0.34981 0.8947 0.0
H662 H 0.97637 0.39343 0.7647 0.0
H663 H 0.95706 0.36254 0.80303 0.0
H664 H 0.87102 0.48402 0.87804 0.0
H665 H 0.85651 0.45644 0.93692 0.0
H666 H 0.91175 0.50241 0.85007 0.0
H667 H 0.94031 0.49528 0.78929 0.0
C668 C 0.08371 0.1493 0.80338 0.0
C669 C 0.08571 0.15137 0.88244 0.0
C670 C 0.0882 0.09666 0.89268 0.0
C671 C 0.08312 0.09451 0.81455 0.0
N672 N 0.08417 0.1174 0.69268 0.0
N673 N 0.09798 0.12878 0.00065 0.0
C674 C 0.08383 0.12053 0.76886 0.0
C675 C 0.09103 0.12556 0.92641 0.0
N676 N 0.08022 0.1748 0.76229 0.0
N677 N 0.08835 0.07105 0.93485 0.0
H678 H 0.09957 0.1496 0.02722 0.0
H679 H 0.10445 0.11128 0.03477 0.0
H680 H 0.08748 0.04964 0.91102 0.0
H681 H 0.08829 0.07074 0.99313 0.0
H682 H 0.0754 0.17496 0.70527 0.0
H683 H 0.08153 0.19614 0.78648 0.0
H684 H 0.08645 0.13526 0.65533 0.0
H685 H 0.08448 0.09641 0.66683 0.0
C686 C 0.40518 0.01798 0.94252 0.0
C687 C 0.37744 0.01257 0.90601 0.0
C688 C 0.4015 0.01747 0.78341 0.0
C689 C 0.42927 0.02171 0.82003 0.0
N690 N 0.45704 0.03395 0.93188 0.0
N691 N 0.34782 0.01438 0.79419 0.0
C692 C 0.43084 0.02489 0.89886 0.0
C693 C 0.37519 0.01485 0.82701 0.0
N694 N 0.4074 0.0144 0.01842 0.0
N695 N 0.40055 0.01479 0.70713 0.0
H696 H 0.32834 0.01256 0.82538 0.0
H697 H 0.3443 0.01829 0.73745 0.0
H698 H 0.41929 0.01817 0.67367 0.0
H699 H 0.38161 0.00813 0.67715 0.0
H700 H 0.42747 0.01419 0.04713 0.0
H701 H 0.38921 0.00972 0.05281 0.0
H702 H 0.45911 0.03949 0.98837 0.0
H703 H 0.47631 0.03855 0.90128 0.0
C704 C 0.46801 0.3454 0.79159 0.0
C705 C 0.46801 0.34457 0.87095 0.0
C706 C 0.46653 0.39951 0.8763 0.0
C707 C 0.46885 0.40041 0.79718 0.0
N708 N 0.46391 0.37539 0.67832 0.0
N709 N 0.45936 0.36932 0.9885 0.0
C710 C 0.4668 0.3736 0.75442 0.0
C711 C 0.4643 0.37118 0.9131 0.0
N712 N 0.47055 0.3193 0.75238 0.0
N713 N 0.46859 0.42568 0.91637 0.0
H714 H 0.45845 0.34902 0.01753 0.0
H715 H 0.45374 0.38747 0.02146 0.0
H716 H 0.46927 0.4468 0.89111 0.0
H717 H 0.47101 0.42664 0.97432 0.0
H718 H 0.47408 0.31835 0.69488 0.0
H719 H 0.46999 0.29832 0.77846 0.0
H720 H 0.46021 0.35687 0.64353 0.0
H721 H 0.4628 0.39591 0.65043 0.0
C722 C 0.14468 0.5255 0.87618 0.0
C723 C 0.1586 0.49942 0.90211 0.0
C724 C 0.12317 0.46746 0.8303 0.0
C725 C 0.10983 0.49359 0.80316 0.0
N726 N 0.11147 0.54741 0.78665 0.0
N727 N 0.16508 0.44622 0.8942 0.0
C728 C 0.12191 0.52258 0.82139 0.0
C729 C 0.14908 0.47054 0.87589 0.0
N730 N 0.1518 0.5529 0.90749 0.0
N731 N 0.11061 0.4398 0.81392 0.0
H732 H 0.18414 0.44799 0.92731 0.0
H733 H 0.161 0.42486 0.87193 0.0
H734 H 0.09237 0.43686 0.77827 0.0
H735 H 0.11716 0.41995 0.83846 0.0
H736 H 0.13972 0.57195 0.89816 0.0
H737 H 0.16837 0.55632 0.94768 0.0
H738 H 0.12164 0.56874 0.7912 0.0
H739 H 0.09402 0.54647 0.74827 0.0
C740 C 0.01506 0.86825 0.45064 0.0
C741 C 0.99406 0.84616 0.47659 0.0
C742 C 0.97756 0.88137 0.57193 0.0
C743 C 0.00139 0.90169 0.55243 0.0
N744 N 0.04722 0.91049 0.48428 0.0
N745 N 0.95682 0.83018 0.56565 0.0
C746 C 0.02128 0.89415 0.49454 0.0
C747 C 0.97563 0.85229 0.53831 0.0
N748 N 0.02886 0.86475 0.38329 0.0
N749 N 0.95627 0.8902 0.62037 0.0
H750 H 0.95454 0.80896 0.54107 0.0
H751 H 0.94508 0.83218 0.61538 0.0
H752 H 0.9566 0.91155 0.64442 0.0
H753 H 0.93694 0.87747 0.63139 0.0
H754 H 0.04197 0.88173 0.35836 0.0
H755 H 0.02487 0.8462 0.34854 0.0
H756 H 0.06378 0.90389 0.44808 0.0
H757 H 0.05389 0.92867 0.51775 0.0
C758 C 0.65348 0.97455 0.42563 0.0
C759 C 0.67709 0.99447 0.44908 0.0
C760 C 0.64902 0.00753 0.5607 0.0
C761 C 0.62582 0.98669 0.53898 0.0
N762 N 0.60993 0.94453 0.46214 0.0
N763 N 0.70086 0.02285 0.54857 0.0
C764 C 0.62939 0.96826 0.47509 0.0
C765 C 0.67605 0.0084 0.52024 0.0
N766 N 0.65301 0.96305 0.35464 0.0
N767 N 0.64463 0.02826 0.61564 0.0
H768 H 0.72099 0.02371 0.51997 0.0
H769 H 0.70222 0.03112 0.60314 0.0
H770 H 0.62474 0.03006 0.64419 0.0
H771 H 0.65979 0.04587 0.62761 0.0
H772 H 0.63467 0.95137 0.33191 0.0
H773 H 0.67 0.96711 0.3162 0.0
H774 H 0.61298 0.92866 0.4203 0.0
H775 H 0.59244 0.93895 0.49821 0.0
C776 C 0.53308 0.63902 0.48394 0.0
C777 C 0.56235 0.65178 0.4785 0.0
C778 C 0.58086 0.61041 0.55416 0.0
C779 C 0.55143 0.59847 0.56104 0.0
N780 N 0.49908 0.60637 0.55328 0.0
N781 N 0.61318 0.65312 0.51924 0.0
C782 C 0.52741 0.61446 0.53272 0.0
C783 C 0.58599 0.63858 0.51739 0.0
N784 N 0.51095 0.64885 0.43878 0.0
N785 N 0.60383 0.59428 0.58001 0.0
H786 H 0.61737 0.67374 0.49276 0.0
H787 H 0.63077 0.64612 0.55177 0.0
H788 H 0.60063 0.57393 0.60833 0.0
H789 H 0.62598 0.60011 0.56974 0.0
H790 H 0.49022 0.63785 0.43464 0.0
H791 H 0.51389 0.66613 0.39988 0.0
H792 H 0.48095 0.61913 0.54032 0.0
H793 H 0.49408 0.58869 0.59006 0.0
C794 C 0.88817 0.52306 0.39675 0.0
C795 C 0.86181 0.51163 0.43168 0.0
C796 C 0.88633 0.51358 0.55433 0.0
C797 C 0.91311 0.52307 0.51866 0.0
N798 N 0.93808 0.54477 0.41178 0.0
N799 N 0.83317 0.50352 0.54344 0.0
C800 C 0.91341 0.53073 0.44174 0.0
C801 C 0.86004 0.50958 0.51073 0.0
N802 N 0.88966 0.52458 0.32033 0.0
N803 N 0.88651 0.50718 0.62924 0.0
H804 H 0.81372 0.50063 0.51209 0.0
H805 H 0.82966 0.50383 0.60101 0.0
H806 H 0.90511 0.51141 0.66305 0.0
H807 H 0.86878 0.49683 0.65752 0.0
H808 H 0.90918 0.52904 0.29091 0.0
H809 H 0.87149 0.51986 0.28556 0.0
H810 H 0.93901 0.55339 0.3576 0.0
H811 H 0.95696 0.55018 0.44361 0.0
loop_
_geom_bond_atom_site_label_1
_geom_bond_atom_site_label_2
_geom_bond_distance
_geom_bond_site_symmetry_2
_ccdc_geom_bond_type
C0 C1 1.384 . S
C0 H13 0.947 . S
C0 C35 1.382 . S
C1 C0 1.384 . S
C1 C2 1.378 . S
C2 C1 1.378 . S
C2 C3 1.378 . S
C2 H14 0.952 . S
C3 C2 1.378 . S
C3 H15 0.950 . S
C3 C34 1.383 . S
H4 C23 0.947 . S
H5 C24 0.946 . S
H6 C26 0.953 . S
H7 C27 0.945 . S
H8 C29 0.952 . S
H9 C30 0.949 . S
H10 C32 0.950 . S
H11 C33 0.948 . S
H12 C35 0.951 . S
H13 C0 0.947 . S
H14 C2 0.952 . S
H15 C3 0.950 . S
N16 C19 1.382 . S
N16 C21 1.363 . S
N17 C19 1.371 1_556 S
N17 C20 1.372 . S
N18 C20 1.361 1_554 S
N18 C21 1.377 . S
C19 N16 1.382 . S
C19 N17 1.371 1_554 S
C19 C22 1.480 1_554 S
C20 N17 1.372 . S
C20 N18 1.361 1_556 S
C20 C28 1.457 . S
C21 N16 1.363 . S
C21 N18 1.377 . S
C21 C34 1.479 . S
C22 C19 1.480 1_556 S
C22 C23 1.383 1_556 S
C22 C27 1.385 . S
C23 H4 0.947 . S
C23 C22 1.383 1_554 S
C23 C24 1.388 . S
C24 H5 0.946 . S
C24 C23 1.388 . S
C24 C25 1.384 1_554 S
C25 C24 1.384 1_556 S
C25 C26 1.377 . S
C26 H6 0.953 . S
C26 C25 1.377 . S
C26 C27 1.369 . S
C27 H7 0.945 . S
C27 C22 1.385 . S
C27 C26 1.369 . S
C28 C20 1.457 . S
C28 C29 1.372 . S
C28 C33 1.364 . S
C29 H8 0.952 . S
C29 C28 1.372 . S
C29 C30 1.389 . S
C30 H9 0.949 . S
C30 C29 1.389 . S
C30 C31 1.387 . S
C31 C30 1.387 . S
C31 C32 1.372 . S
C32 H10 0.950 . S
C32 C31 1.372 . S
C32 C33 1.379 . S
C33 H11 0.948 . S
C33 C28 1.364 . S
C33 C32 1.379 . S
C34 C3 1.383 . S
C34 C21 1.479 . S
C34 C35 1.398 . S
C35 C0 1.382 . S
C35 H12 0.951 . S
C35 C34 1.398 . S
C36 C37 1.384 . S
C36 H49 0.947 . S
C36 C71 1.382 . S
C37 C36 1.384 . S
C37 C38 1.378 . S
C38 C37 1.378 . S
C38 C39 1.378 . S
C38 H50 0.952 . S
C39 C38 1.378 . S
C39 H51 0.950 1_655 S
C39 C70 1.383 . S
H40 C59 0.947 . S
H41 C60 0.946 . S
H42 C62 0.953 . S
H43 C63 0.944 . S
H44 C65 0.952 . S
H45 C66 0.949 . S
H46 C68 0.950 . S
H47 C69 0.948 . S
H48 C71 0.951 . S
H49 C36 0.947 . S
H50 C38 0.952 . S
H51 C39 0.950 1_455 S
N52 C55 1.382 . S
N52 C57 1.363 . S
N53 C55 1.371 . S
N53 C56 1.372 . S
N54 C56 1.361 . S
N54 C57 1.377 . S
C55 N52 1.382 . S
C55 N53 1.371 . S
C55 C58 1.480 . S
C56 N53 1.372 . S
C56 N54 1.361 . S
C56 C64 1.457 1_554 S
C57 N52 1.363 . S
C57 N54 1.377 . S
C57 C70 1.479 . S
C58 C55 1.480 . S
C58 C59 1.383 . S
C58 C63 1.385 1_554 S
C59 H40 0.947 . S
C59 C58 1.383 . S
C59 C60 1.388 . S
C60 H41 0.946 . S
C60 C59 1.388 . S
C60 C61 1.384 . S
C61 C60 1.384 . S
C61 C62 1.377 1_554 S
C62 H42 0.953 . S
C62 C61 1.377 1_556 S
C62 C63 1.369 . S
C63 H43 0.944 . S
C63 C58 1.385 1_556 S
C63 C62 1.369 . S
C64 C56 1.457 1_556 S
C64 C65 1.380 . S
C64 C69 1.362 1_656 S
C65 H44 0.952 . S
C65 C64 1.380 . S
C65 C66 1.389 . S
C66 H45 0.949 . S
C66 C65 1.389 . S
C66 C67 1.387 . S
C67 C66 1.387 . S
C67 C68 1.372 1_655 S
C68 H46 0.950 . S
C68 C67 1.372 1_455 S
C68 C69 1.379 1_556 S
C69 H47 0.948 . S
C69 C64 1.362 1_454 S
C69 C68 1.379 1_554 S
C70 C39 1.383 . S
C70 C57 1.479 . S
C70 C71 1.398 . S
C71 C36 1.382 . S
C71 H48 0.951 . S
C71 C70 1.398 . S
C72 C73 1.384 1_565 S
C72 H85 0.947 . S
C72 C107 1.382 1_565 S
C73 C72 1.384 1_545 S
C73 C74 1.378 . S
C74 C73 1.378 . S
C74 C75 1.378 . S
C74 H86 0.952 . S
C75 C74 1.378 . S
C75 H87 0.950 . S
C75 C106 1.383 . S
H76 C95 0.947 . S
H77 C96 0.946 . S
H78 C98 0.953 . S
H79 C99 0.945 . S
H80 C101 0.947 1_565 S
H81 C102 0.955 . S
H82 C104 0.950 . S
H83 C105 0.948 1_554 S
H84 C107 0.951 1_565 S
H85 C72 0.947 . S
H86 C74 0.952 . S
H87 C75 0.950 . S
N88 C91 1.382 . S
N88 C93 1.363 . S
N89 C91 1.371 1_556 S
N89 C92 1.372 1_556 S
N90 C92 1.361 . S
N90 C93 1.377 . S
C91 N88 1.382 . S
C91 N89 1.371 1_554 S
C91 C94 1.480 . S
C92 N89 1.372 1_554 S
C92 N90 1.361 . S
C92 C100 1.457 1_554 S
C93 N88 1.363 . S
C93 N90 1.377 . S
C93 C106 1.479 . S
C94 C91 1.480 . S
C94 C95 1.383 . S
C94 C99 1.385 1_554 S
C95 H76 0.947 . S
C95 C94 1.383 . S
C95 C96 1.388 1_545 S
C96 H77 0.946 . S
C96 C95 1.388 1_565 S
C96 C97 1.384 1_564 S
C97 C96 1.384 1_546 S
C97 C98 1.377 . S
C98 H78 0.953 . S
C98 C97 1.377 . S
C98 C99 1.369 . S
C99 H79 0.945 . S
C99 C94 1.385 1_556 S
C99 C98 1.369 . S
C100 C92 1.457 1_556 S
C100 C101 1.378 . S
C100 C105 1.364 . S
C101 H80 0.947 1_545 S
C101 C100 1.378 . S
C101 C102 1.389 1_545 S
C102 H81 0.955 . S
C102 C101 1.389 1_565 S
C102 C103 1.382 1_565 S
C103 C102 1.382 1_545 S
C103 C104 1.372 . S
C104 H82 0.950 . S
C104 C103 1.372 . S
C104 C105 1.379 . S
C105 H83 0.948 1_556 S
C105 C100 1.364 . S
C105 C104 1.379 . S
C106 C75 1.383 . S
C106 C93 1.479 . S
C106 C107 1.399 . S
C107 C72 1.382 1_545 S
C107 H84 0.951 1_545 S
C107 C106 1.399 . S
C108 C109 1.384 . S
C108 H121 0.947 . S
C108 C143 1.382 . S
C109 C108 1.384 . S
C109 C110 1.378 . S
C110 C109 1.378 . S
C110 C111 1.378 . S
C110 H122 0.952 . S
C111 C110 1.378 . S
C111 H123 0.950 . S
C111 C142 1.383 . S
H112 C131 0.947 . S
H113 C132 0.946 . S
H114 C134 0.953 . S
H115 C135 0.945 . S
H116 C137 0.952 . S
H117 C138 0.949 . S
H118 C140 0.950 . S
H119 C141 0.948 . S
H120 C143 0.951 1_554 S
H121 C108 0.947 . S
H122 C110 0.952 . S
H123 C111 0.950 . S
N124 C127 1.382 1_556 S
N124 C129 1.363 1_556 S
N125 C127 1.371 . S
N125 C128 1.372 . S
N126 C128 1.361 . S
N126 C129 1.377 . S
C127 N124 1.382 1_554 S
C127 N125 1.371 . S
C127 C130 1.480 . S
C128 N125 1.372 . S
C128 N126 1.361 . S
C128 C136 1.457 . S
C129 N124 1.363 1_554 S
C129 N126 1.377 . S
C129 C142 1.479 1_554 S
C130 C127 1.480 . S
C130 C131 1.383 1_554 S
C130 C135 1.385 . S
C131 H112 0.947 . S
C131 C130 1.383 1_556 S
C131 C132 1.388 . S
C132 H113 0.946 . S
C132 C131 1.388 . S
C132 C133 1.384 . S
C133 C132 1.384 . S
C133 C134 1.377 1_556 S
C134 H114 0.953 . S
C134 C133 1.377 1_554 S
C134 C135 1.369 . S
C135 H115 0.945 . S
C135 C130 1.385 . S
C135 C134 1.369 . S
C136 C128 1.457 . S
C136 C137 1.372 . S
C136 C141 1.364 . S
C137 H116 0.952 . S
C137 C136 1.372 . S
C137 C138 1.389 . S
C138 H117 0.949 . S
C138 C137 1.389 . S
C138 C139 1.387 . S
C139 C138 1.387 . S
C139 C140 1.372 . S
C140 H118 0.950 . S
C140 C139 1.372 . S
C140 C141 1.379 . S
C141 H119 0.948 . S
C141 C136 1.364 . S
C141 C140 1.379 . S
C142 C111 1.383 . S
C142 C129 1.479 1_556 S
C142 C143 1.398 . S
C143 C108 1.382 . S
C143 H120 0.951 1_556 S
C143 C142 1.398 . S
C144 C145 1.384 1_554 S
C144 H157 0.947 . S
C144 C179 1.382 . S
C145 C144 1.384 1_556 S
C145 C146 1.378 . S
C146 C145 1.378 . S
C146 C147 1.378 1_556 S
C146 H158 0.952 . S
C147 C146 1.378 1_554 S
C147 H159 0.950 . S
C147 C178 1.383 . S
H148 C167 0.947 . S
H149 C168 0.946 . S
H150 C170 0.953 . S
H151 C171 0.945 . S
H152 C173 0.952 . S
H153 C174 0.949 . S
H154 C176 0.950 . S
H155 C177 0.948 . S
H156 C179 0.951 . S
H157 C144 0.947 . S
H158 C146 0.952 . S
H159 C147 0.950 . S
N160 C163 1.382 . S
N160 C165 1.363 . S
N161 C163 1.371 . S
N161 C164 1.372 . S
N162 C164 1.361 . S
N162 C165 1.377 . S
C163 N160 1.382 . S
C163 N161 1.371 . S
C163 C166 1.480 . S
C164 N161 1.372 . S
C164 N162 1.361 . S
C164 C172 1.457 . S
C165 N160 1.363 . S
C165 N162 1.377 . S
C165 C178 1.479 . S
C166 C163 1.480 . S
C166 C167 1.383 . S
C166 C171 1.385 . S
C167 H148 0.947 . S
C167 C166 1.383 . S
C167 C168 1.388 . S
C168 H149 0.946 . S
C168 C167 1.388 . S
C168 C169 1.384 . S
C169 C168 1.384 . S
C169 C170 1.377 . S
C170 H150 0.953 . S
C170 C169 1.377 . S
C170 C171 1.369 . S
C171 H151 0.945 . S
C171 C166 1.385 . S
C171 C170 1.369 . S
C172 C164 1.457 . S
C172 C173 1.372 . S
C172 C177 1.364 . S
C173 H152 0.952 . S
C173 C172 1.372 . S
C173 C174 1.389 . S
C174 H153 0.949 . S
C174 C173 1.389 . S
C174 C175 1.387 . S
C175 C174 1.387 . S
C175 C176 1.372 . S
C176 H154 0.950 . S
C176 C175 1.372 . S
C176 C177 1.379 . S
C177 H155 0.948 . S
C177 C172 1.364 . S
C177 C176 1.379 . S
C178 C147 1.383 . S
C178 C165 1.479 . S
C178 C179 1.398 . S
C179 C144 1.382 . S
C179 H156 0.951 . S
C179 C178 1.398 . S
C180 C181 1.384 . S
C180 H193 0.947 . S
C180 C215 1.382 . S
C181 C180 1.384 . S
C181 C182 1.378 . S
C182 C181 1.378 . S
C182 C183 1.378 . S
C182 H194 0.952 . S
C183 C182 1.378 . S
C183 H195 0.950 . S
C183 C214 1.383 . S
H184 C203 0.947 . S
H185 C204 0.946 . S
H186 C206 0.953 . S
H187 C207 0.945 . S
H188 C209 0.952 . S
H189 C210 0.949 . S
H190 C212 0.950 . S
H191 C213 0.948 . S
H192 C215 0.951 . S
H193 C180 0.947 . S
H194 C182 0.952 . S
H195 C183 0.950 . S
N196 C199 1.382 . S
N196 C201 1.363 . S
N197 C199 1.371 . S
N197 C200 1.372 . S
N198 C200 1.361 . S
N198 C201 1.377 . S
C199 N196 1.382 . S
C199 N197 1.371 . S
C199 C202 1.480 . S
C200 N197 1.372 . S
C200 N198 1.361 . S
C200 C208 1.457 . S
C201 N196 1.363 . S
C201 N198 1.377 . S
C201 C214 1.479 . S
C202 C199 1.480 . S
C202 C203 1.383 . S
C202 C207 1.385 . S
C203 H184 0.947 . S
C203 C202 1.383 . S
C203 C204 1.388 . S
C204 H185 0.946 . S
C204 C203 1.388 . S
C204 C205 1.384 . S
C205 C204 1.384 . S
C205 C206 1.377 . S
C206 H186 0.953 . S
C206 C205 1.377 . S
C206 C207 1.369 . S
C207 H187 0.945 . S
C207 C202 1.385 . S
C207 C206 1.369 . S
C208 C200 1.457 . S
C208 C209 1.372 . S
C208 C213 1.364 . S
C209 H188 0.952 . S
C209 C208 1.372 . S
C209 C210 1.389 . S
C210 H189 0.949 . S
C210 C209 1.389 . S
C210 C211 1.387 . S
C211 C210 1.387 . S
C211 C212 1.372 . S
C212 H190 0.950 . S
C212 C211 1.372 . S
C212 C213 1.379 . S
C213 H191 0.948 . S
C213 C208 1.364 . S
C213 C212 1.379 . S
C214 C183 1.383 . S
C214 C201 1.479 . S
C214 C215 1.398 . S
C215 C180 1.382 . S
C215 H192 0.951 . S
C215 C214 1.398 . S
C216 C217 1.384 1_554 S
C216 H229 0.947 1_545 S
C216 C251 1.382 . S
C217 C216 1.384 1_556 S
C217 C218 1.378 1_556 S
C218 C217 1.378 1_554 S
C218 C219 1.378 . S
C218 H230 0.952 1_554 S
C219 C218 1.378 . S
C219 H231 0.950 . S
C219 C250 1.383 . S
H220 C239 0.947 . S
H221 C240 0.953 . S
H222 C242 0.953 . S
H223 C243 0.945 . S
H224 C245 0.948 1_565 S
H225 C246 0.953 . S
H226 C248 0.950 . S
H227 C249 0.948 . S
H228 C251 0.949 1_565 S
H229 C216 0.947 1_565 S
H230 C218 0.952 1_556 S
H231 C219 0.950 . S
N232 C235 1.382 . S
N232 C237 1.363 . S
N233 C235 1.371 . S
N233 C236 1.372 . S
N234 C236 1.361 . S
N234 C237 1.377 . S
C235 N232 1.382 . S
C235 N233 1.371 . S
C235 C238 1.480 . S
C236 N233 1.372 . S
C236 N234 1.361 . S
C236 C244 1.457 . S
C237 N232 1.363 . S
C237 N234 1.377 . S
C237 C250 1.479 . S
C238 C235 1.480 . S
C238 C239 1.383 . S
C238 C243 1.385 . S
C239 H220 0.947 . S
C239 C238 1.383 . S
C239 C240 1.386 1_545 S
C240 H221 0.953 . S
C240 C239 1.386 1_565 S
C240 C241 1.380 1_565 S
C241 C240 1.380 1_545 S
C241 C242 1.377 . S
C242 H222 0.953 . S
C242 C241 1.377 . S
C242 C243 1.369 . S
C243 H223 0.945 . S
C243 C238 1.385 . S
C243 C242 1.369 . S
C244 C236 1.457 . S
C244 C245 1.380 . S
C244 C249 1.364 . S
C245 H224 0.948 1_545 S
C245 C244 1.380 . S
C245 C246 1.385 1_545 S
C246 H225 0.953 . S
C246 C245 1.385 1_565 S
C246 C247 1.385 1_565 S
C247 C246 1.385 1_545 S
C247 C248 1.372 . S
C248 H226 0.950 . S
C248 C247 1.372 . S
C248 C249 1.379 . S
C249 H227 0.948 . S
C249 C244 1.364 . S
C249 C248 1.379 . S
C250 C219 1.383 . S
C250 C237 1.479 . S
C250 C251 1.401 . S
C251 C216 1.382 . S
C251 H228 0.949 1_545 S
C251 C250 1.401 . S
C252 C253 1.384 . S
C252 H265 0.947 . S
C252 C287 1.382 . S
C253 C252 1.384 . S
C253 C254 1.378 . S
C254 C253 1.378 . S
C254 C255 1.378 . S
C254 H266 0.952 . S
C255 C254 1.378 . S
C255 H267 0.950 . S
C255 C286 1.383 . S
H256 C275 0.947 . S
H257 C276 0.946 . S
H258 C278 0.953 . S
H259 C279 0.945 . S
H260 C281 0.952 . S
H261 C282 0.949 . S
H262 C284 0.947 1_556 S
H263 C285 0.948 . S
H264 C287 0.951 . S
H265 C252 0.947 . S
H266 C254 0.952 . S
H267 C255 0.950 . S
N268 C271 1.382 . S
N268 C273 1.363 . S
N269 C271 1.371 . S
N269 C272 1.372 . S
N270 C272 1.361 . S
N270 C273 1.377 . S
C271 N268 1.382 . S
C271 N269 1.371 . S
C271 C274 1.480 . S
C272 N269 1.372 . S
C272 N270 1.361 . S
C272 C280 1.457 . S
C273 N268 1.363 . S
C273 N270 1.377 . S
C273 C286 1.479 . S
C274 C271 1.480 . S
C274 C275 1.383 . S
C274 C279 1.385 . S
C275 H256 0.947 . S
C275 C274 1.383 . S
C275 C276 1.388 . S
C276 H257 0.946 . S
C276 C275 1.388 . S
C276 C277 1.384 . S
C277 C276 1.384 . S
C277 C278 1.377 . S
C278 H258 0.953 . S
C278 C277 1.377 . S
C278 C279 1.369 . S
C279 H259 0.945 . S
C279 C274 1.385 . S
C279 C278 1.369 . S
C280 C272 1.457 . S
C280 C281 1.372 . S
C280 C285 1.364 . S
C281 H260 0.952 . S
C281 C280 1.372 . S
C281 C282 1.389 1_554 S
C282 H261 0.949 . S
C282 C281 1.389 1_556 S
C282 C283 1.387 . S
C283 C282 1.387 . S
C283 C284 1.372 1_556 S
C284 H262 0.947 1_554 S
C284 C283 1.372 1_554 S
C284 C285 1.379 . S
C285 H263 0.948 . S
C285 C280 1.364 . S
C285 C284 1.379 . S
C286 C255 1.383 . S
C286 C273 1.479 . S
C286 C287 1.398 . S
C287 C252 1.382 . S
C287 H264 0.951 . S
C287 C286 1.398 . S
O288 Zn289 1.953 . S
O288 C304 1.225 . S
Zn289 O288 1.953 . S
Zn289 O290 1.950 . S
Zn289 O296 1.919 1_565 S
Zn289 O301 1.924 . S
O290 Zn289 1.950 . S
O290 Zn291 1.900 1_565 S
O290 Zn292 1.953 . S
O290 Zn293 1.964 . S
Zn291 O290 1.900 1_545 S
Zn291 O294 1.933 1_455 S
Zn291 O297 1.941 . S
Zn291 O298 1.965 . S
Zn292 O290 1.953 . S
Zn292 O299 1.938 1_565 S
Zn292 O300 1.906 . S
Zn292 O310 1.953 . S
Zn293 O290 1.964 . S
Zn293 O295 1.932 1_455 S
Zn293 O302 1.977 1_455 S
Zn293 O303 1.910 . S
O294 Zn291 1.933 1_655 S
O294 C305 1.226 . S
O295 Zn293 1.932 1_655 S
O295 C305 1.307 1_565 S
O296 Zn289 1.919 1_545 S
O296 C307 1.253 . S
O297 Zn291 1.941 . S
O297 C307 1.283 . S
O298 Zn291 1.965 . S
O298 C306 1.303 . S
O299 Zn292 1.938 1_545 S
O299 C306 1.247 . S
O300 Zn292 1.906 . S
O300 C308 1.304 1_455 S
O301 Zn289 1.924 . S
O301 C309 1.311 . S
O302 Zn293 1.977 1_655 S
O302 C308 1.272 . S
O303 Zn293 1.910 . S
O303 C309 1.231 . S
C304 O288 1.225 . S
C304 O310 1.298 . S
C305 O294 1.226 . S
C305 O295 1.307 1_545 S
C306 O298 1.303 . S
C306 O299 1.247 . S
C307 O296 1.253 . S
C307 O297 1.283 . S
C308 O300 1.304 1_655 S
C308 O302 1.272 . S
C309 O301 1.311 . S
C309 O303 1.231 . S
O310 Zn292 1.953 . S
O310 C304 1.298 . S
O311 Zn312 1.953 . S
O311 C327 1.225 . S
Zn312 O311 1.953 . S
Zn312 O313 1.949 . S
Zn312 O319 1.919 . S
Zn312 O324 1.924 . S
O313 Zn312 1.949 . S
O313 Zn314 1.923 1_545 S
O313 Zn315 1.950 . S
O313 Zn316 1.945 1_545 S
Zn314 O313 1.923 1_565 S
Zn314 O317 1.933 . S
Zn314 O320 1.941 . S
Zn314 O321 1.965 . S
Zn315 O313 1.950 . S
Zn315 O322 1.938 . S
Zn315 O323 1.906 1_545 S
Zn315 O333 1.953 . S
Zn316 O313 1.945 1_565 S
Zn316 O318 1.932 . S
Zn316 O325 1.977 . S
Zn316 O326 1.910 1_565 S
O317 Zn314 1.933 . S
O317 C328 1.226 . S
O318 Zn316 1.932 . S
O318 C328 1.307 . S
O319 Zn312 1.919 . S
O319 C330 1.253 . S
O320 Zn314 1.941 . S
O320 C330 1.283 1_565 S
O321 Zn314 1.965 . S
O321 C329 1.303 . S
O322 Zn315 1.938 . S
O322 C329 1.247 1_545 S
O323 Zn315 1.906 1_565 S
O323 C331 1.304 . S
O324 Zn312 1.924 . S
O324 C332 1.311 . S
O325 Zn316 1.977 . S
O325 C331 1.272 . S
O326 Zn316 1.910 1_545 S
O326 C332 1.231 . S
C327 O311 1.225 . S
C327 O333 1.298 . S
C328 O317 1.226 . S
C328 O318 1.307 . S
C329 O321 1.303 . S
C329 O322 1.247 1_565 S
C330 O319 1.253 . S
C330 O320 1.283 1_545 S
C331 O323 1.304 . S
C331 O325 1.272 . S
C332 O324 1.311 . S
C332 O326 1.231 . S
O333 Zn315 1.953 . S
O333 C327 1.298 . S
O334 Zn335 1.953 . S
O334 C350 1.225 . S
Zn335 O334 1.953 . S
Zn335 O336 1.949 . S
Zn335 O342 1.919 . S
Zn335 O347 1.924 . S
O336 Zn335 1.949 . S
O336 Zn337 1.923 . S
O336 Zn338 1.950 . S
O336 Zn339 1.945 . S
Zn337 O336 1.923 . S
Zn337 O340 1.933 . S
Zn337 O343 1.941 . S
Zn337 O344 1.965 . S
Zn338 O336 1.950 . S
Zn338 O345 1.938 . S
Zn338 O346 1.906 . S
Zn338 O356 1.953 . S
Zn339 O336 1.945 . S
Zn339 O341 1.932 . S
Zn339 O348 1.977 . S
Zn339 O349 1.910 . S
O340 Zn337 1.933 . S
O340 C351 1.226 . S
O341 Zn339 1.932 . S
O341 C351 1.307 . S
O342 Zn335 1.919 . S
O342 C353 1.253 . S
O343 Zn337 1.941 . S
O343 C353 1.283 . S
O344 Zn337 1.965 . S
O344 C352 1.303 . S
O345 Zn338 1.938 . S
O345 C352 1.247 . S
O346 Zn338 1.906 . S
O346 C354 1.304 . S
O347 Zn335 1.924 . S
O347 C355 1.311 . S
O348 Zn339 1.977 . S
O348 C354 1.272 . S
O349 Zn339 1.910 . S
O349 C355 1.231 . S
C350 O334 1.225 . S
C350 O356 1.298 . S
C351 O340 1.226 . S
C351 O341 1.307 . S
C352 O344 1.303 . S
C352 O345 1.247 . S
C353 O342 1.253 . S
C353 O343 1.283 . S
C354 O346 1.304 . S
C354 O348 1.272 . S
C355 O347 1.311 . S
C355 O349 1.231 . S
O356 Zn338 1.953 . S
O356 C350 1.298 . S
O357 Zn358 1.953 1_655 S
O357 C373 1.225 . S
Zn358 O357 1.953 1_455 S
Zn358 O359 1.949 . S
Zn358 O365 1.919 . S
Zn358 O370 1.924 . S
O359 Zn358 1.949 . S
O359 Zn360 1.923 . S
O359 Zn361 1.950 1_455 S
O359 Zn362 1.945 . S
Zn360 O359 1.923 . S
Zn360 O363 1.933 . S
Zn360 O366 1.941 1_455 S
Zn360 O367 1.965 1_455 S
Zn361 O359 1.950 1_655 S
Zn361 O368 1.938 . S
Zn361 O369 1.906 1_655 S
Zn361 O379 1.953 . S
Zn362 O359 1.945 . S
Zn362 O364 1.932 . S
Zn362 O371 1.977 . S
Zn362 O372 1.910 . S
O363 Zn360 1.933 . S
O363 C374 1.226 . S
O364 Zn362 1.932 . S
O364 C374 1.307 . S
O365 Zn358 1.919 . S
O365 C376 1.253 . S
O366 Zn360 1.941 1_655 S
O366 C376 1.283 1_655 S
O367 Zn360 1.965 1_655 S
O367 C375 1.303 . S
O368 Zn361 1.938 . S
O368 C375 1.247 . S
O369 Zn361 1.906 1_455 S
O369 C377 1.304 . S
O370 Zn358 1.924 . S
O370 C378 1.311 . S
O371 Zn362 1.977 . S
O371 C377 1.272 . S
O372 Zn362 1.910 . S
O372 C378 1.231 . S
C373 O357 1.225 . S
C373 O379 1.298 . S
C374 O363 1.226 . S
C374 O364 1.307 . S
C375 O367 1.303 . S
C375 O368 1.247 . S
C376 O365 1.253 . S
C376 O366 1.283 1_455 S
C377 O369 1.304 . S
C377 O371 1.272 . S
C378 O370 1.311 . S
C378 O372 1.231 . S
O379 Zn361 1.953 . S
O379 C373 1.298 . S
C380 C381 1.363 1_545 S
C380 C386 1.379 . S
C380 N388 1.356 . S
C381 C380 1.363 1_565 S
C381 C387 1.363 . S
C382 C383 1.363 . S
C382 C387 1.379 . S
C382 N389 1.356 . S
C383 C382 1.363 . S
C383 C386 1.363 1_565 S
N384 C386 1.356 . S
N384 H396 0.984 . S
N384 H397 0.985 . S
N385 C387 1.356 . S
N385 H390 0.984 . S
N385 H391 0.985 . S
C386 C380 1.379 . S
C386 C383 1.363 1_545 S
C386 N384 1.356 . S
C387 C381 1.363 . S
C387 C382 1.379 . S
C387 N385 1.356 . S
N388 C380 1.356 . S
N388 H394 0.984 . S
N388 H395 0.984 . S
N389 C382 1.356 . S
N389 H392 0.984 . S
N389 H393 0.985 . S
H390 N385 0.984 . S
H391 N385 0.985 . S
H392 N389 0.984 . S
H393 N389 0.985 . S
H394 N388 0.984 . S
H395 N388 0.984 . S
H396 N384 0.984 . S
H397 N384 0.985 . S
C398 C399 1.363 . S
C398 C404 1.379 . S
C398 N406 1.356 . S
C399 C398 1.363 . S
C399 C405 1.363 . S
C400 C401 1.363 . S
C400 C405 1.379 . S
C400 N407 1.356 . S
C401 C400 1.363 . S
C401 C404 1.363 . S
N402 C404 1.356 . S
N402 H414 0.984 . S
N402 H415 0.985 . S
N403 C405 1.356 . S
N403 H408 0.984 . S
N403 H409 0.985 . S
C404 C398 1.379 . S
C404 C401 1.363 . S
C404 N402 1.356 . S
C405 C399 1.363 . S
C405 C400 1.379 . S
C405 N403 1.356 . S
N406 C398 1.356 . S
N406 H412 0.984 . S
N406 H413 0.984 . S
N407 C400 1.356 . S
N407 H410 0.984 . S
N407 H411 0.985 . S
H408 N403 0.984 . S
H409 N403 0.985 . S
H410 N407 0.984 . S
H411 N407 0.985 . S
H412 N406 0.984 . S
H413 N406 0.984 . S
H414 N402 0.984 . S
H415 N402 0.985 . S
C416 C417 1.363 . S
C416 C422 1.379 . S
C416 N424 1.356 . S
C417 C416 1.363 . S
C417 C423 1.363 . S
C418 C419 1.363 . S
C418 C423 1.379 . S
C418 N425 1.356 . S
C419 C418 1.363 . S
C419 C422 1.363 . S
N420 C422 1.356 . S
N420 H432 0.984 . S
N420 H433 0.985 . S
N421 C423 1.356 . S
N421 H426 0.984 . S
N421 H427 0.985 . S
C422 C416 1.379 . S
C422 C419 1.363 . S
C422 N420 1.356 . S
C423 C417 1.363 . S
C423 C418 1.379 . S
C423 N421 1.356 . S
N424 C416 1.356 . S
N424 H430 0.984 . S
N424 H431 0.984 . S
N425 C418 1.356 . S
N425 H428 0.984 . S
N425 H429 0.985 . S
H426 N421 0.984 . S
H427 N421 0.985 . S
H428 N425 0.984 . S
H429 N425 0.985 . S
H430 N424 0.984 . S
H431 N424 0.984 . S
H432 N420 0.984 . S
H433 N420 0.985 . S
C434 C435 1.363 . S
C434 C440 1.379 . S
C434 N442 1.356 . S
C435 C434 1.363 . S
C435 C441 1.363 . S
C436 C437 1.363 . S
C436 C441 1.379 . S
C436 N443 1.356 . S
C437 C436 1.363 . S
C437 C440 1.363 . S
N438 C440 1.356 . S
N438 H450 0.984 . S
N438 H451 0.985 . S
N439 C441 1.356 . S
N439 H444 0.984 . S
N439 H445 0.985 . S
C440 C434 1.379 . S
C440 C437 1.363 . S
C440 N438 1.356 . S
C441 C435 1.363 . S
C441 C436 1.379 . S
C441 N439 1.356 . S
N442 C434 1.356 . S
N442 H448 0.984 . S
N442 H449 0.984 . S
N443 C436 1.356 . S
N443 H446 0.984 . S
N443 H447 0.985 1_455 S
H444 N439 0.984 . S
H445 N439 0.985 . S
H446 N443 0.984 . S
H447 N443 0.985 1_655 S
H448 N442 0.984 . S
H449 N442 0.984 . S
H450 N438 0.984 . S
H451 N438 0.985 . S
C452 C453 1.363 1_565 S
C452 C458 1.379 . S
C452 N460 1.356 . S
C453 C452 1.363 1_545 S
C453 C459 1.363 . S
C454 C455 1.363 . S
C454 C459 1.379 . S
C454 N461 1.356 . S
C455 C454 1.363 . S
C455 C458 1.363 1_545 S
N456 C458 1.356 . S
N456 H468 0.984 . S
N456 H469 0.985 . S
N457 C459 1.356 . S
N457 H462 0.984 . S
N457 H463 0.985 . S
C458 C452 1.379 . S
C458 C455 1.363 1_565 S
C458 N456 1.356 . S
C459 C453 1.363 . S
C459 C454 1.379 . S
C459 N457 1.356 . S
N460 C452 1.356 . S
N460 H466 0.984 . S
N460 H467 0.984 1_556 S
N461 C454 1.356 . S
N461 H464 0.984 . S
N461 H465 0.985 . S
H462 N457 0.984 . S
H463 N457 0.985 . S
H464 N461 0.984 . S
H465 N461 0.985 . S
H466 N460 0.984 . S
H467 N460 0.984 1_554 S
H468 N456 0.984 . S
H469 N456 0.985 . S
C470 C471 1.363 . S
C470 C476 1.379 . S
C470 N478 1.356 1_556 S
C471 C470 1.363 . S
C471 C477 1.363 . S
C472 C473 1.363 . S
C472 C477 1.379 . S
C472 N479 1.356 . S
C473 C472 1.363 . S
C473 C476 1.363 . S
N474 C476 1.356 . S
N474 H486 0.984 . S
N474 H487 0.985 . S
N475 C477 1.356 . S
N475 H480 0.984 . S
N475 H481 0.985 . S
C476 C470 1.379 . S
C476 C473 1.363 . S
C476 N474 1.356 . S
C477 C471 1.363 . S
C477 C472 1.379 . S
C477 N475 1.356 . S
N478 C470 1.356 1_554 S
N478 H484 0.984 . S
N478 H485 0.984 . S
N479 C472 1.356 . S
N479 H482 0.984 . S
N479 H483 0.985 . S
H480 N475 0.984 . S
H481 N475 0.985 . S
H482 N479 0.984 . S
H483 N479 0.985 . S
H484 N478 0.984 . S
H485 N478 0.984 . S
H486 N474 0.984 . S
H487 N474 0.985 . S
C488 C489 1.363 . S
C488 C494 1.379 . S
C488 N496 1.356 . S
C489 C488 1.363 . S
C489 C495 1.363 . S
C490 C491 1.363 . S
C490 C495 1.379 . S
C490 N497 1.356 . S
C491 C490 1.363 . S
C491 C494 1.363 . S
N492 C494 1.356 . S
N492 H504 0.984 . S
N492 H505 0.985 . S
N493 C495 1.356 . S
N493 H498 0.984 . S
N493 H499 0.985 . S
C494 C488 1.379 . S
C494 C491 1.363 . S
C494 N492 1.356 . S
C495 C489 1.363 . S
C495 C490 1.379 . S
C495 N493 1.356 . S
N496 C488 1.356 . S
N496 H502 0.984 . S
N496 H503 0.984 . S
N497 C490 1.356 . S
N497 H500 0.984 . S
N497 H501 0.985 . S
H498 N493 0.984 . S
H499 N493 0.985 . S
H500 N497 0.984 . S
H501 N497 0.985 . S
H502 N496 0.984 . S
H503 N496 0.984 . S
H504 N492 0.984 . S
H505 N492 0.985 . S
C506 C507 1.363 . S
C506 C512 1.379 . S
C506 N514 1.356 . S
C507 C506 1.363 . S
C507 C513 1.363 1_655 S
C508 C509 1.363 . S
C508 C513 1.379 . S
C508 N515 1.356 . S
C509 C508 1.363 . S
C509 C512 1.363 1_455 S
N510 C512 1.356 . S
N510 H522 0.984 . S
N510 H523 0.985 . S
N511 C513 1.356 1_554 S
N511 H516 0.980 1_455 S
N511 H517 0.985 . S
C512 C506 1.379 . S
C512 C509 1.363 1_655 S
C512 N510 1.356 . S
C513 C507 1.363 1_455 S
C513 C508 1.379 . S
C513 N511 1.356 1_556 S
N514 C506 1.356 . S
N514 H520 0.984 . S
N514 H521 0.984 . S
N515 C508 1.356 . S
N515 H518 0.984 . S
N515 H519 0.985 . S
H516 N511 0.980 1_655 S
H517 N511 0.985 . S
H518 N515 0.984 . S
H519 N515 0.985 . S
H520 N514 0.984 . S
H521 N514 0.984 . S
H522 N510 0.984 . S
H523 N510 0.985 . S
C524 C525 1.363 . S
C524 C530 1.379 . S
C524 N532 1.356 . S
C525 C524 1.363 . S
C525 C531 1.363 . S
C526 C527 1.363 . S
C526 C531 1.379 . S
C526 N533 1.356 . S
C527 C526 1.363 . S
C527 C530 1.363 . S
N528 C530 1.356 . S
N528 H540 0.984 . S
N528 H541 0.985 . S
N529 C531 1.356 . S
N529 H534 0.984 . S
N529 H535 0.985 . S
C530 C524 1.379 . S
C530 C527 1.363 . S
C530 N528 1.356 . S
C531 C525 1.363 . S
C531 C526 1.379 . S
C531 N529 1.356 . S
N532 C524 1.356 . S
N532 H538 0.984 . S
N532 H539 0.984 . S
N533 C526 1.356 . S
N533 H536 0.984 . S
N533 H537 0.985 . S
H534 N529 0.984 . S
H535 N529 0.985 . S
H536 N533 0.984 . S
H537 N533 0.985 . S
H538 N532 0.984 . S
H539 N532 0.984 . S
H540 N528 0.984 . S
H541 N528 0.985 . S
C542 C543 1.363 . S
C542 C548 1.379 . S
C542 N550 1.356 . S
C543 C542 1.363 . S
C543 C549 1.363 1_545 S
C544 C545 1.363 . S
C544 C549 1.379 . S
C544 N551 1.356 . S
C545 C544 1.363 . S
C545 C548 1.363 1_565 S
N546 C548 1.356 . S
N546 H558 0.984 . S
N546 H559 0.983 1_545 S
N547 C549 1.356 . S
N547 H552 0.984 . S
N547 H553 0.985 . S
C548 C542 1.379 . S
C548 C545 1.363 1_545 S
C548 N546 1.356 . S
C549 C543 1.363 1_565 S
C549 C544 1.379 . S
C549 N547 1.356 . S
N550 C542 1.356 . S
N550 H556 0.984 . S
N550 H557 0.984 . S
N551 C544 1.356 . S
N551 H554 0.984 . S
N551 H555 0.985 . S
H552 N547 0.984 . S
H553 N547 0.985 . S
H554 N551 0.984 . S
H555 N551 0.985 . S
H556 N550 0.984 . S
H557 N550 0.984 . S
H558 N546 0.984 . S
H559 N546 0.983 1_565 S
C560 C561 1.363 . S
C560 C566 1.379 . S
C560 N568 1.356 . S
C561 C560 1.363 . S
C561 C567 1.363 . S
C562 C563 1.363 . S
C562 C567 1.379 . S
C562 N569 1.356 . S
C563 C562 1.363 . S
C563 C566 1.363 . S
N564 C566 1.356 . S
N564 H576 0.984 . S
N564 H577 0.985 . S
N565 C567 1.356 . S
N565 H570 0.984 . S
N565 H571 0.985 . S
C566 C560 1.379 . S
C566 C563 1.363 . S
C566 N564 1.356 . S
C567 C561 1.363 . S
C567 C562 1.379 . S
C567 N565 1.356 . S
N568 C560 1.356 . S
N568 H574 0.984 . S
N568 H575 0.984 . S
N569 C562 1.356 . S
N569 H572 0.984 . S
N569 H573 0.985 . S
H570 N565 0.984 . S
H571 N565 0.985 . S
H572 N569 0.984 . S
H573 N569 0.985 . S
H574 N568 0.984 . S
H575 N568 0.984 . S
H576 N564 0.984 . S
H577 N564 0.985 . S
C578 C579 1.363 . S
C578 C584 1.379 . S
C578 N586 1.356 . S
C579 C578 1.363 . S
C579 C585 1.363 . S
C580 C581 1.363 . S
C580 C585 1.379 . S
C580 N587 1.356 . S
C581 C580 1.363 . S
C581 C584 1.363 . S
N582 C584 1.356 . S
N582 H594 0.984 . S
N582 H595 0.985 . S
N583 C585 1.356 . S
N583 H588 0.984 . S
N583 H589 0.985 . S
C584 C578 1.379 . S
C584 C581 1.363 . S
C584 N582 1.356 . S
C585 C579 1.363 . S
C585 C580 1.379 . S
C585 N583 1.356 . S
N586 C578 1.356 . S
N586 H592 0.984 . S
N586 H593 0.984 . S
N587 C580 1.356 . S
N587 H590 0.984 . S
N587 H591 0.985 . S
H588 N583 0.984 . S
H589 N583 0.985 . S
H590 N587 0.984 . S
H591 N587 0.985 . S
H592 N586 0.984 . S
H593 N586 0.984 . S
H594 N582 0.984 . S
H595 N582 0.985 . S
C596 C597 1.363 1_455 S
C596 C602 1.379 . S
C596 N604 1.356 . S
C597 C596 1.363 1_655 S
C597 C603 1.364 . S
C598 C599 1.363 . S
C598 C603 1.368 1_455 S
C598 N605 1.356 . S
C599 C598 1.363 . S
C599 C602 1.363 . S
N600 C602 1.356 . S
N600 H612 0.984 . S
N600 H613 0.985 . S
N601 C603 1.368 . S
N601 H606 0.984 . S
N601 H607 0.985 . S
C602 C596 1.379 . S
C602 C599 1.363 . S
C602 N600 1.356 . S
C603 C597 1.364 . S
C603 C598 1.368 1_655 S
C603 N601 1.368 . S
N604 C596 1.356 . S
N604 H610 0.984 . S
N604 H611 0.984 1_455 S
N605 C598 1.356 . S
N605 H608 0.984 . S
N605 H609 0.985 . S
H606 N601 0.984 . S
H607 N601 0.985 . S
H608 N605 0.984 . S
H609 N605 0.985 . S
H610 N604 0.984 . S
H611 N604 0.984 1_655 S
H612 N600 0.984 . S
H613 N600 0.985 . S
C614 C615 1.363 . S
C614 C620 1.392 . S
C614 N622 1.342 1_545 S
C615 C614 1.363 . S
C615 C621 1.363 . S
C616 C617 1.363 . S
C616 C621 1.379 . S
C616 N623 1.356 . S
C617 C616 1.363 . S
C617 C620 1.363 . S
N618 C620 1.356 . S
N618 H630 0.984 . S
N618 H631 0.985 . S
N619 C621 1.356 . S
N619 H624 0.990 . S
N619 H625 0.985 . S
C620 C614 1.392 . S
C620 C617 1.363 . S
C620 N618 1.356 . S
C621 C615 1.363 . S
C621 C616 1.379 . S
C621 N619 1.356 . S
N622 C614 1.342 1_565 S
N622 H628 0.984 . S
N622 H629 0.984 . S
N623 C616 1.356 . S
N623 H626 0.984 . S
N623 H627 0.985 . S
H624 N619 0.990 . S
H625 N619 0.985 . S
H626 N623 0.984 . S
H627 N623 0.985 . S
H628 N622 0.984 . S
H629 N622 0.984 . S
H630 N618 0.984 . S
H631 N618 0.985 . S
C632 C633 1.363 . S
C632 C638 1.379 . S
C632 N640 1.356 . S
C633 C632 1.363 . S
C633 C639 1.363 . S
C634 C635 1.363 . S
C634 C639 1.379 . S
C634 N641 1.356 . S
C635 C634 1.363 . S
C635 C638 1.363 . S
N636 C638 1.356 . S
N636 H648 0.984 . S
N636 H649 0.985 . S
N637 C639 1.356 . S
N637 H642 0.984 . S
N637 H643 0.985 . S
C638 C632 1.379 . S
C638 C635 1.363 . S
C638 N636 1.356 . S
C639 C633 1.363 . S
C639 C634 1.379 . S
C639 N637 1.356 . S
N640 C632 1.356 . S
N640 H646 0.984 . S
N640 H647 0.984 . S
N641 C634 1.356 . S
N641 H644 0.984 . S
N641 H645 0.985 . S
H642 N637 0.984 . S
H643 N637 0.985 . S
H644 N641 0.984 . S
H645 N641 0.985 . S
H646 N640 0.984 . S
H647 N640 0.984 . S
H648 N636 0.984 . S
H649 N636 0.985 . S
C650 C651 1.363 . S
C650 C656 1.379 . S
C650 N658 1.356 . S
C651 C650 1.363 . S
C651 C657 1.363 . S
C652 C653 1.363 . S
C652 C657 1.379 . S
C652 N659 1.356 . S
C653 C652 1.363 . S
C653 C656 1.363 . S
N654 C656 1.356 . S
N654 H666 0.984 . S
N654 H667 0.985 . S
N655 C657 1.356 . S
N655 H660 0.984 . S
N655 H661 0.985 . S
C656 C650 1.379 . S
C656 C653 1.363 . S
C656 N654 1.356 . S
C657 C651 1.363 . S
C657 C652 1.379 . S
C657 N655 1.356 . S
N658 C650 1.356 . S
N658 H664 0.984 . S
N658 H665 0.984 . S
N659 C652 1.356 . S
N659 H662 0.984 . S
N659 H663 0.985 . S
H660 N655 0.984 . S
H661 N655 0.985 . S
H662 N659 0.984 . S
H663 N659 0.985 . S
H664 N658 0.984 . S
H665 N658 0.984 . S
H666 N654 0.984 . S
H667 N654 0.985 . S
C668 C669 1.363 . S
C668 C674 1.379 . S
C668 N676 1.356 . S
C669 C668 1.363 . S
C669 C675 1.363 . S
C670 C671 1.363 . S
C670 C675 1.379 . S
C670 N677 1.356 . S
C671 C670 1.363 . S
C671 C674 1.363 . S
N672 C674 1.356 . S
N672 H684 0.984 . S
N672 H685 0.985 . S
N673 C675 1.356 1_554 S
N673 H678 0.984 . S
N673 H679 0.985 . S
C674 C668 1.379 . S
C674 C671 1.363 . S
C674 N672 1.356 . S
C675 C669 1.363 . S
C675 C670 1.379 . S
C675 N673 1.356 1_556 S
N676 C668 1.356 . S
N676 H682 0.984 . S
N676 H683 0.984 . S
N677 C670 1.356 . S
N677 H680 0.984 . S
N677 H681 0.985 1_556 S
H678 N673 0.984 . S
H679 N673 0.985 . S
H680 N677 0.984 . S
H681 N677 0.985 1_554 S
H682 N676 0.984 . S
H683 N676 0.984 . S
H684 N672 0.984 . S
H685 N672 0.985 . S
C686 C687 1.361 . S
C686 C692 1.379 . S
C686 N694 1.356 . S
C687 C686 1.361 . S
C687 C693 1.365 1_565 S
C688 C689 1.348 1_545 S
C688 C693 1.379 . S
C688 N695 1.356 . S
C689 C688 1.348 1_565 S
C689 C692 1.377 . S
N690 C692 1.356 . S
N690 H702 0.984 . S
N690 H703 0.985 . S
N691 C693 1.356 . S
N691 H696 0.984 . S
N691 H697 0.985 . S
C692 C686 1.379 . S
C692 C689 1.377 . S
C692 N690 1.356 . S
C693 C687 1.365 1_545 S
C693 C688 1.379 . S
C693 N691 1.356 . S
N694 C686 1.356 . S
N694 H700 0.984 1_556 S
N694 H701 0.984 1_556 S
N695 C688 1.356 . S
N695 H698 0.984 . S
N695 H699 0.985 . S
H696 N691 0.984 . S
H697 N691 0.985 . S
H698 N695 0.984 . S
H699 N695 0.985 . S
H700 N694 0.984 1_554 S
H701 N694 0.984 1_554 S
H702 N690 0.984 . S
H703 N690 0.985 . S
C704 C705 1.363 . S
C704 C710 1.379 . S
C704 N712 1.356 . S
C705 C704 1.363 . S
C705 C711 1.363 . S
C706 C707 1.363 . S
C706 C711 1.379 . S
C706 N713 1.356 . S
C707 C706 1.363 . S
C707 C710 1.363 . S
N708 C710 1.356 . S
N708 H720 0.984 . S
N708 H721 0.985 . S
N709 C711 1.356 . S
N709 H714 0.984 . S
N709 H715 0.985 1_556 S
C710 C704 1.379 . S
C710 C707 1.363 . S
C710 N708 1.356 . S
C711 C705 1.363 . S
C711 C706 1.379 . S
C711 N709 1.356 . S
N712 C704 1.356 . S
N712 H718 0.984 . S
N712 H719 0.984 . S
N713 C706 1.356 . S
N713 H716 0.984 . S
N713 H717 0.985 . S
H714 N709 0.984 . S
H715 N709 0.985 1_554 S
H716 N713 0.984 . S
H717 N713 0.985 . S
H718 N712 0.984 . S
H719 N712 0.984 . S
H720 N708 0.984 . S
H721 N708 0.985 . S
C722 C723 1.363 . S
C722 C728 1.379 . S
C722 N730 1.356 . S
C723 C722 1.363 . S
C723 C729 1.363 . S
C724 C725 1.363 . S
C724 C729 1.379 . S
C724 N731 1.356 . S
C725 C724 1.363 . S
C725 C728 1.363 . S
N726 C728 1.356 . S
N726 H738 0.984 . S
N726 H739 0.985 . S
N727 C729 1.356 . S
N727 H732 0.984 . S
N727 H733 0.985 . S
C728 C722 1.379 . S
C728 C725 1.363 . S
C728 N726 1.356 . S
C729 C723 1.363 . S
C729 C724 1.379 . S
C729 N727 1.356 . S
N730 C722 1.356 . S
N730 H736 0.984 . S
N730 H737 0.984 . S
N731 C724 1.356 . S
N731 H734 0.984 . S
N731 H735 0.985 . S
H732 N727 0.984 . S
H733 N727 0.985 . S
H734 N731 0.984 . S
H735 N731 0.985 . S
H736 N730 0.984 . S
H737 N730 0.984 . S
H738 N726 0.984 . S
H739 N726 0.985 . S
C740 C741 1.359 1_455 S
C740 C746 1.377 1_455 S
C740 N748 1.360 . S
C741 C740 1.359 1_655 S
C741 C747 1.363 . S
C742 C743 1.363 . S
C742 C747 1.379 . S
C742 N749 1.356 . S
C743 C742 1.363 . S
C743 C746 1.367 . S
N744 C746 1.354 1_455 S
N744 H756 0.984 . S
N744 H757 0.985 . S
N745 C747 1.356 . S
N745 H750 0.984 . S
N745 H751 0.985 . S
C746 C740 1.377 1_655 S
C746 C743 1.367 . S
C746 N744 1.354 1_655 S
C747 C741 1.363 . S
C747 C742 1.379 . S
C747 N745 1.356 . S
N748 C740 1.360 . S
N748 H754 0.984 . S
N748 H755 0.984 . S
N749 C742 1.356 . S
N749 H752 0.984 . S
N749 H753 0.985 . S
H750 N745 0.984 . S
H751 N745 0.985 . S
H752 N749 0.984 . S
H753 N749 0.985 . S
H754 N748 0.984 . S
H755 N748 0.984 . S
H756 N744 0.984 . S
H757 N744 0.985 . S
C758 C759 1.363 . S
C758 C764 1.379 . S
C758 N766 1.356 . S
C759 C758 1.363 . S
C759 C765 1.363 1_565 S
C760 C761 1.363 1_545 S
C760 C765 1.379 . S
C760 N767 1.356 . S
C761 C760 1.363 1_565 S
C761 C764 1.363 . S
N762 C764 1.356 . S
N762 H774 0.984 . S
N762 H775 0.985 . S
N763 C765 1.356 . S
N763 H768 0.984 . S
N763 H769 0.985 . S
C764 C758 1.379 . S
C764 C761 1.363 . S
C764 N762 1.356 . S
C765 C759 1.363 1_545 S
C765 C760 1.379 . S
C765 N763 1.356 . S
N766 C758 1.356 . S
N766 H772 0.984 . S
N766 H773 0.984 . S
N767 C760 1.356 . S
N767 H770 0.984 . S
N767 H771 0.985 . S
H768 N763 0.984 . S
H769 N763 0.985 . S
H770 N767 0.984 . S
H771 N767 0.985 . S
H772 N766 0.984 . S
H773 N766 0.984 . S
H774 N762 0.984 . S
H775 N762 0.985 . S
C776 C777 1.363 . S
C776 C782 1.379 . S
C776 N784 1.356 . S
C777 C776 1.363 . S
C777 C783 1.363 . S
C778 C779 1.363 . S
C778 C783 1.379 . S
C778 N785 1.356 . S
C779 C778 1.363 . S
C779 C782 1.363 . S
N780 C782 1.356 . S
N780 H792 0.984 . S
N780 H793 0.985 . S
N781 C783 1.356 . S
N781 H786 0.984 . S
N781 H787 0.985 . S
C782 C776 1.379 . S
C782 C779 1.363 . S
C782 N780 1.356 . S
C783 C777 1.363 . S
C783 C778 1.379 . S
C783 N781 1.356 . S
N784 C776 1.356 . S
N784 H790 0.984 . S
N784 H791 0.984 . S
N785 C778 1.356 . S
N785 H788 0.984 . S
N785 H789 0.985 . S
H786 N781 0.984 . S
H787 N781 0.985 . S
H788 N785 0.984 . S
H789 N785 0.985 . S
H790 N784 0.984 . S
H791 N784 0.984 . S
H792 N780 0.984 . S
H793 N780 0.985 . S
C794 C795 1.363 . S
C794 C800 1.379 . S
C794 N802 1.356 . S
C795 C794 1.363 . S
C795 C801 1.363 . S
C796 C797 1.363 . S
C796 C801 1.379 . S
C796 N803 1.356 . S
C797 C796 1.363 . S
C797 C800 1.363 . S
N798 C800 1.356 . S
N798 H810 0.984 . S
N798 H811 0.985 . S
N799 C801 1.356 . S
N799 H804 0.984 . S
N799 H805 0.985 . S
C800 C794 1.379 . S
C800 C797 1.363 . S
C800 N798 1.356 . S
C801 C795 1.363 . S
C801 C796 1.379 . S
C801 N799 1.356 . S
N802 C794 1.356 . S
N802 H808 0.984 . S
N802 H809 0.984 . S
N803 C796 1.356 . S
N803 H806 0.984 . S
N803 H807 0.985 . S
H804 N799 0.984 . S
H805 N799 0.985 . S
H806 N803 0.984 . S
H807 N803 0.985 . S
H808 N802 0.984 . S
H809 N802 0.984 . S
H810 N798 0.984 . S
H811 N798 0.985 . S
C381 C241 1.797 1_565 S
C383 C304 1.836 . S
C401 C327 2.026 . S
C399 C277 1.991 . S
C419 C350 1.864 . S
C417 C169 1.794 . S
C437 C377 1.739 . S
C435 C205 1.849 . S
C455 C305 1.707 . S
C453 C97 1.650 . S
C471 C133 1.805 . S
C473 C328 1.813 . S
C489 C25 1.599 . S
C491 C351 1.650 . S
C507 C61 1.768 1_556 S
C509 C376 1.853 . S
C527 C306 0.849 . S
C525 C211 0.800 . S
C545 C329 0.433 . S
C543 C247 0.597 . S
C563 C352 0.635 . S
C561 C253 0.693 . S
C579 C175 0.713 . S
C581 C378 0.731 . S
C597 C67 0.839 . S
C599 C309 0.815 . S
C617 C332 0.767 . S
C615 C103 0.779 . S
C635 C355 0.859 . S
C633 C109 0.961 . S
C651 C31 0.522 . S
C653 C375 0.382 . S
C669 C181 2.050 1_556 S
C671 C307 2.025 . S
C687 C217 1.962 1_565 S
C689 C330 1.990 1_565 S
C707 C353 2.048 . S
C705 C283 1.926 . S
C725 C374 1.885 . S
C723 C145 1.742 . S
C741 C37 2.106 . S
C743 C308 2.067 . S
C761 C331 1.908 . S
C759 C73 1.964 1_565 S
C779 C354 1.934 . S
C777 C139 1.913 . S
C795 C1 2.064 . S
C797 C373 2.163 . S
