# Generated by pormake.
# Topology sit, (3,6)-cn, num edge types: 1
# Building blocks:
#     Node 0, Type 0, BuildingBlock: VETTIZ_charged_linker_0, # of connection points: 3
#     Node 1, Type 0, BuildingBlock: VETTIZ_charged_linker_0, # of connection points: 3
#     Node 2, Type 0, BuildingBlock: VETTIZ_charged_linker_0, # of connection points: 3
#     Node 3, Type 0, BuildingBlock: VETTIZ_charged_linker_0, # of connection points: 3
#     Node 4, Type 1, BuildingBlock: MIDCAF_clean_sbu_0, # of connection points: 6
#     Node 5, Type 1, BuildingBlock: MIDCAF_clean_sbu_0, # of connection points: 6
#     Edge 6, Type (0, 1), None
#     Edge 7, Type (0, 1), None
#     Edge 8, Type (0, 1), None
#     Edge 9, Type (0, 1), None
#     Edge 10, Type (0, 1), None
#     Edge 11, Type (0, 1), None
#     Edge 12, Type (0, 1), None
#     Edge 13, Type (0, 1), None
#     Edge 14, Type (0, 1), None
#     Edge 15, Type (0, 1), None
#     Edge 16, Type (0, 1), None
#     Edge 17, Type (0, 1), None
# Relax obj value: 0.113
# Max RMSD: 0.194
# Mean RMSD: 0.109
data_MOF--net-sit--node1-MIDCAF_clean_sbu_0--node2-VETTIZ_charged_linker_0--edge1-none
_symmetry_space_group_name_H-M    P1
_symmetry_Int_Tables_number       1
_symmetry_cell_setting            triclinic
loop_
_symmetry_equiv_pos_as_xyz
'x, y, z'
_cell_length_a     16.288407
_cell_length_b     19.950526
_cell_length_c     23.889175
_cell_angle_alpha  90.100169
_cell_angle_beta   89.857816
_cell_angle_gamma 82.75207
loop_
_atom_site_label
_atom_site_type_symbol
_atom_site_fract_x
_atom_site_fract_y
_atom_site_fract_z
_atom_type_partial_charge
C0 C 0.00852 0.18777 0.15635 0.0
C1 C 0.07642 0.15679 0.18648 0.0
C2 C 0.15702 0.15743 0.1655 0.0
C3 C 0.10152 0.22583 0.08755 0.0
C4 C 0.02235 0.22198 0.10705 0.0
C5 C 0.9575 0.26368 0.07301 0.0
H6 H 0.85384 0.43504 0.83543 0.0
C7 C 0.09478 0.26859 0.03735 0.0
C8 C 0.01067 0.28888 0.02732 0.0
H9 H 0.7005 0.41058 0.97974 0.0
H10 H 0.81729 0.35126 0.02821 0.0
H11 H -0.023 0.48649 0.87161 0.0
H12 H -0.01384 0.28108 0.84654 0.0
H13 H 0.07937 0.31361 0.8267 0.0
H14 H -0.01851 0.35269 0.80032 0.0
H15 H 0.0607 0.44788 0.83334 0.0
H16 H 0.07156 0.46291 0.90765 0.0
C17 C 0.91561 0.32224 0.11039 0.0
C18 C 0.89714 0.2166 0.04979 0.0
C19 C 0.33863 0.37312 0.96168 0.0
C20 C 0.34707 0.41243 0.91379 0.0
C21 C 0.28673 0.41534 0.87146 0.0
C22 C 0.21545 0.38416 0.87885 0.0
C23 C 0.20288 0.3531 0.92989 0.0
C24 C 0.26571 0.34371 0.96884 0.0
C25 C 0.2454 0.2983 0.01579 0.0
C26 C 0.15525 0.29228 0.00259 0.0
C27 C 0.13077 0.32555 0.95248 0.0
C28 C 0.25509 0.33448 0.07223 0.0
C29 C 0.30129 0.22954 0.01042 0.0
C30 C 0.84657 0.41766 0.87789 0.0
C31 C 0.76913 0.42742 0.90447 0.0
C32 C 0.76055 0.40448 0.95938 0.0
C33 C 0.82806 0.3695 -0.01289 0.0
C34 C 0.90509 0.35882 0.95997 0.0
C35 C 0.91459 0.38515 0.9072 0.0
C36 C 0.00377 0.37644 0.88835 0.0
C37 C 0.04558 0.34224 0.93989 0.0
C38 C -0.01355 0.32783 0.9793 0.0
C39 C 0.03033 0.44667 0.87483 0.0
C40 C 0.01338 0.32833 0.8375 0.0
H41 H 0.23242 0.19228 0.10172 0.0
H42 H 0.94628 0.1895 0.17298 0.0
H43 H 0.93196 0.1715 0.02936 0.0
H44 H 0.85468 0.2412 0.01792 0.0
H45 H 0.85916 0.19869 0.08406 0.0
H46 H 0.95155 0.32916 0.14907 0.0
H47 H 0.85269 0.31291 0.1238 0.0
H48 H 0.91138 0.37181 0.08893 0.0
H49 H 0.38759 0.36548 -0.00753 0.0
H50 H 0.29613 0.43983 0.8319 0.0
H51 H 0.17402 0.38261 0.84433 0.0
H52 H 0.21787 0.38522 0.07243 0.0
H53 H 0.32083 0.34126 0.07967 0.0
H54 H 0.23434 0.30615 0.10813 0.0
H55 H 0.33486 0.22421 0.96972 0.0
H56 H 0.26466 0.18629 0.01202 0.0
H57 H 0.34883 0.22322 0.04392 0.0
H58 H 0.20994 0.13488 0.1893 0.0
C59 C 0.16992 0.19131 0.11546 0.0
C60 C 0.26045 0.69818 0.94 0.0
C61 C 0.27956 0.63944 0.90768 0.0
C62 C 0.22051 0.59446 0.90182 0.0
C63 C 0.12297 0.66916 0.95769 0.0
C64 C 0.18265 0.71174 0.96478 0.0
C65 C 0.15455 0.77098 0.0019 0.0
H66 H 0.87423 0.91588 0.18512 0.0
C67 C 0.04799 0.69924 -0.01195 0.0
C68 C 0.06674 0.75837 0.01456 0.0
H69 H 0.12177 0.96304 0.15473 0.0
H70 H 0.13325 0.89001 0.0734 0.0
H71 H 0.82115 0.91717 0.05068 0.0
H72 H 0.9039 0.76344 0.1704 0.0
H73 H 0.8195 0.73841 0.13273 0.0
H74 H 0.8053 0.81528 0.17268 0.0
H75 H 0.74946 0.88069 0.09462 0.0
H76 H 0.78081 0.84448 0.02734 0.0
C77 C 0.15659 0.83653 0.9675 0.0
C78 C 0.20997 0.76596 0.05494 0.0
C79 C 0.77463 0.60961 0.95614 0.0
C80 C 0.69347 0.63709 0.96902 0.0
C81 C 0.67999 0.68816 0.01019 0.0
C82 C 0.7465 0.7159 0.03415 0.0
C83 C 0.82724 0.6929 0.01624 0.0
C84 C 0.84047 0.63932 0.97919 0.0
C85 C 0.92963 0.62449 0.96221 0.0
C86 C -0.03322 0.68083 -0.00816 0.0
C87 C 0.90655 0.72022 0.02408 0.0
C88 C 0.93422 0.63093 0.89766 0.0
C89 C -0.03811 0.55435 -0.01353 0.0
C90 C 0.92945 0.91238 0.15934 0.0
C91 C -0.00241 0.94421 0.1762 0.0
C92 C 0.06854 0.93914 0.14214 0.0
C93 C 0.07561 0.89548 0.09579 0.0
C94 C 0.01086 0.85714 0.08372 0.0
C95 C 0.93739 0.86882 0.1132 0.0
C96 C 0.87517 0.8237 0.09424 0.0
C97 C 0.92668 0.77836 0.05278 0.0
C98 C 0.00587 0.79813 0.04698 0.0
C99 C 0.8025 0.86842 0.06549 0.0
C100 C 0.84891 0.78309 0.14505 0.0
H101 H 0.09944 0.57338 0.9204 0.0
H102 H 0.3056 0.73302 0.94626 0.0
H103 H 0.23667 0.71286 0.06353 0.0
H104 H 0.17519 0.78213 0.09345 0.0
H105 H 0.26245 0.79607 0.05021 0.0
H106 H 0.13413 0.82992 0.92412 0.0
H107 H 0.2205 0.85016 0.96456 0.0
H108 H 0.11552 0.87999 -0.01526 0.0
H109 H 0.78644 0.57085 0.92437 0.0
H110 H 0.6176 0.70975 0.02113 0.0
H111 H 0.73232 0.75628 0.06369 0.0
H112 H 0.89916 0.67963 0.88401 0.0
H113 H 0.90616 0.58997 0.87649 0.0
H114 H -0.00292 0.63121 0.88106 0.0
H115 H 0.93545 0.51385 0.96349 0.0
H116 H 0.9426 0.55101 0.031 0.0
H117 H 0.02982 0.54348 -0.0128 0.0
H118 H 0.23384 0.54959 0.87643 0.0
C119 C 0.14222 0.60895 0.92688 0.0
C120 C 0.50852 0.68777 0.65636 0.0
C121 C 0.57642 0.65679 0.68648 0.0
C122 C 0.65702 0.65744 0.66551 0.0
C123 C 0.60152 0.72584 0.58755 0.0
C124 C 0.52236 0.72199 0.60706 0.0
C125 C 0.4575 0.76369 0.57302 0.0
H126 H 0.35384 0.93504 0.33544 0.0
C127 C 0.59478 0.76859 0.53735 0.0
C128 C 0.51067 0.78888 0.52732 0.0
H129 H 0.2005 0.91059 0.47974 0.0
H130 H 0.31729 0.85126 0.52821 0.0
H131 H 0.477 0.98649 0.37161 0.0
H132 H 0.48616 0.78108 0.34655 0.0
H133 H 0.57938 0.81361 0.32671 0.0
H134 H 0.48149 0.85269 0.30032 0.0
H135 H 0.5607 0.94788 0.33334 0.0
H136 H 0.57156 0.96291 0.40765 0.0
C137 C 0.41561 0.82224 0.6104 0.0
C138 C 0.39714 0.7166 0.54979 0.0
C139 C 0.83863 0.87313 0.46169 0.0
C140 C 0.84708 0.91243 0.41379 0.0
C141 C 0.78673 0.91534 0.37146 0.0
C142 C 0.71545 0.88416 0.37885 0.0
C143 C 0.70289 0.85311 0.42989 0.0
C144 C 0.76571 0.84371 0.46884 0.0
C145 C 0.7454 0.79831 0.51579 0.0
C146 C 0.65526 0.79229 0.50259 0.0
C147 C 0.63077 0.82556 0.45248 0.0
C148 C 0.75509 0.83449 0.57223 0.0
C149 C 0.80129 0.72954 0.51043 0.0
C150 C 0.34657 0.91766 0.3779 0.0
C151 C 0.26913 0.92743 0.40447 0.0
C152 C 0.26055 0.90448 0.45939 0.0
C153 C 0.32806 0.8695 0.48711 0.0
C154 C 0.40509 0.85882 0.45998 0.0
C155 C 0.41459 0.88515 0.4072 0.0
C156 C 0.50377 0.87645 0.38835 0.0
C157 C 0.54559 0.84224 0.43989 0.0
C158 C 0.48646 0.82784 0.4793 0.0
C159 C 0.53033 0.94667 0.37483 0.0
C160 C 0.51339 0.82833 0.33751 0.0
H161 H 0.73242 0.69229 0.60173 0.0
H162 H 0.44629 0.6895 0.67298 0.0
H163 H 0.43196 0.6715 0.52937 0.0
H164 H 0.35468 0.7412 0.51793 0.0
H165 H 0.35917 0.6987 0.58406 0.0
H166 H 0.45155 0.82917 0.64908 0.0
H167 H 0.35269 0.81291 0.6238 0.0
H168 H 0.41138 0.87182 0.58893 0.0
H169 H 0.88759 0.86548 0.49248 0.0
H170 H 0.79613 0.93984 0.3319 0.0
H171 H 0.67402 0.88261 0.34434 0.0
H172 H 0.71787 0.88522 0.57244 0.0
H173 H 0.82083 0.84126 0.57967 0.0
H174 H 0.73434 0.80616 0.60813 0.0
H175 H 0.83486 0.72422 0.46972 0.0
H176 H 0.76466 0.68629 0.51202 0.0
H177 H 0.84883 0.72322 0.54392 0.0
H178 H 0.70994 0.63489 0.6893 0.0
C179 C 0.66992 0.69132 0.61546 0.0
C180 C 0.76045 0.19819 0.44 0.0
C181 C 0.77956 0.13944 0.40768 0.0
C182 C 0.72051 0.09446 0.40182 0.0
C183 C 0.62297 0.16916 0.45769 0.0
C184 C 0.68265 0.21175 0.46478 0.0
C185 C 0.65455 0.27098 0.5019 0.0
H186 H 0.37423 0.41589 0.68511 0.0
C187 C 0.54799 0.19924 0.48804 0.0
C188 C 0.56675 0.25837 0.51456 0.0
H189 H 0.62177 0.46304 0.65473 0.0
H190 H 0.63325 0.39001 0.5734 0.0
H191 H 0.32115 0.41718 0.55067 0.0
H192 H 0.4039 0.26345 0.6704 0.0
H193 H 0.3195 0.23841 0.63272 0.0
H194 H 0.3053 0.31529 0.67267 0.0
H195 H 0.24946 0.38069 0.59461 0.0
H196 H 0.28081 0.34448 0.52734 0.0
C197 C 0.65659 0.33653 0.4675 0.0
C198 C 0.70997 0.26596 0.55494 0.0
C199 C 0.27464 0.10962 0.45614 0.0
C200 C 0.19347 0.13709 0.46902 0.0
C201 C 0.17999 0.18816 0.51018 0.0
C202 C 0.2465 0.21591 0.53414 0.0
C203 C 0.32724 0.1929 0.51623 0.0
C204 C 0.34047 0.13932 0.47918 0.0
C205 C 0.42963 0.12449 0.4622 0.0
C206 C 0.46679 0.18084 0.49184 0.0
C207 C 0.40655 0.22023 0.52407 0.0
C208 C 0.43422 0.13094 0.39766 0.0
C209 C 0.46189 0.05436 0.48647 0.0
C210 C 0.42945 0.41239 0.65933 0.0
C211 C 0.49759 0.44422 0.6762 0.0
C212 C 0.56854 0.43914 0.64214 0.0
C213 C 0.57561 0.39548 0.59579 0.0
C214 C 0.51086 0.35714 0.58372 0.0
C215 C 0.43739 0.36883 0.61319 0.0
C216 C 0.37517 0.32371 0.59424 0.0
C217 C 0.42668 0.27837 0.55278 0.0
C218 C 0.50588 0.29814 0.54698 0.0
C219 C 0.3025 0.36843 0.56548 0.0
C220 C 0.34891 0.2831 0.64504 0.0
H221 H 0.59944 0.07338 0.4204 0.0
H222 H 0.8056 0.23302 0.44626 0.0
H223 H 0.73668 0.21286 0.56353 0.0
H224 H 0.67519 0.28214 0.59345 0.0
H225 H 0.76245 0.29607 0.55021 0.0
H226 H 0.63413 0.32992 0.42412 0.0
H227 H 0.72051 0.35016 0.46456 0.0
H228 H 0.61553 0.37999 0.48474 0.0
H229 H 0.28644 0.07085 0.42437 0.0
H230 H 0.11761 0.20975 0.52113 0.0
H231 H 0.23232 0.25628 0.56368 0.0
H232 H 0.39916 0.17963 0.38401 0.0
H233 H 0.40616 0.08997 0.37649 0.0
H234 H 0.49709 0.13122 0.38106 0.0
H235 H 0.43545 1.01385 0.46349 0.0
H236 H 0.4426 0.05101 0.531 0.0
H237 H 0.52982 0.04349 0.4872 0.0
H238 H 0.73384 0.04959 0.37643 0.0
C239 C 0.64222 0.10895 0.42688 0.0
Zn240 Zn 0.00982 0.16281 0.35217 0.0
Zn241 Zn 0.04978 0.92695 0.34001 0.0
Zn242 Zn 0.03026 0.04143 0.34339 0.0
C243 C 0.00427 0.96094 0.23566 0.0
C244 C 0.92422 0.94026 0.40249 0.0
O245 O 0.12555 0.07046 0.40271 0.0
O246 O 0.07239 0.17543 0.42061 0.0
C247 C 0.06336 0.13968 0.24472 0.0
O248 O 0.03686 1.01258 0.25338 0.0
O249 O -0.01218 0.91693 0.27021 0.0
O250 O -0.00854 0.90205 0.40842 0.0
O251 O 0.92324 0.9962 0.37541 0.0
O252 O 0.05706 0.1871 0.27999 0.0
O253 O 0.04838 0.08033 0.25896 0.0
O254 O 0.90453 0.07024 0.37845 0.0
O255 O 0.89035 0.17998 0.36243 0.0
C256 C 0.8605 0.12851 0.37973 0.0
O257 O 0.14433 1.0014 0.38787 0.0
O258 O 0.17197 0.90897 0.33708 0.0
C259 C 0.12548 0.12556 0.43108 0.0
C260 C 0.1946 0.94947 0.37264 0.0
Zn261 Zn 0.50982 0.66281 0.85217 0.0
Zn262 Zn 0.54978 0.42695 0.84001 0.0
Zn263 Zn 0.53026 0.54143 0.84339 0.0
C264 C 0.50427 0.46094 0.73566 0.0
C265 C 0.42422 0.44026 0.90249 0.0
O266 O 0.62555 0.57046 0.90271 0.0
O267 O 0.57239 0.67543 0.92061 0.0
C268 C 0.56336 0.63968 0.74473 0.0
O269 O 0.53685 0.51259 0.75338 0.0
O270 O 0.48782 0.41693 0.77021 0.0
O271 O 0.49146 0.40204 0.90841 0.0
O272 O 0.42324 0.4962 0.87541 0.0
O273 O 0.55706 0.6871 0.78 0.0
O274 O 0.54837 0.58033 0.75896 0.0
O275 O 0.40453 0.57023 0.87845 0.0
O276 O 0.39035 0.67997 0.86243 0.0
C277 C 0.3605 0.62851 0.87973 0.0
O278 O 0.64433 0.5014 0.88787 0.0
O279 O 0.67197 0.40897 0.83708 0.0
C280 C 0.62547 0.62556 0.93108 0.0
C281 C 0.69459 0.44947 0.87264 0.0
loop_
_geom_bond_atom_site_label_1
_geom_bond_atom_site_label_2
_geom_bond_distance
_geom_bond_site_symmetry_2
_ccdc_geom_bond_type
C0 C1 1.391 . S
C0 C4 1.391 . S
C0 H42 0.948 . S
C1 C0 1.391 . S
C1 C2 1.391 . S
C2 C1 1.391 . S
C2 H58 0.947 . S
C2 C59 1.392 . S
C3 C4 1.391 . S
C3 C7 1.397 . S
C3 C59 1.419 . S
C4 C0 1.391 . S
C4 C3 1.391 . S
C4 C5 1.399 . S
C5 C4 1.399 . S
C5 C8 1.396 . S
C5 C17 1.453 1_455 S
C5 C18 1.684 1_455 S
H6 C30 0.948 . S
C7 C3 1.397 . S
C7 C8 1.394 . S
C7 C26 1.723 . S
C8 C5 1.396 . S
C8 C7 1.394 . S
C8 C38 1.723 . S
H9 C32 0.947 . S
H10 C33 0.948 1_554 S
H11 C39 0.982 . S
H12 C40 0.979 . S
H13 C40 0.980 . S
H14 C40 0.983 . S
H15 C39 0.979 . S
H16 C39 0.977 . S
C17 C5 1.453 1_655 S
C17 H46 0.982 . S
C17 H47 0.979 . S
C17 H48 0.977 . S
C18 C5 1.684 1_655 S
C18 H43 0.979 . S
C18 H44 0.980 . S
C18 H45 0.983 . S
C19 C20 1.391 . S
C19 C24 1.391 . S
C19 H49 0.948 . S
C20 C19 1.391 . S
C20 C21 1.391 . S
C21 C20 1.391 . S
C21 C22 1.392 . S
C21 H50 0.947 . S
C22 C21 1.392 . S
C22 C23 1.419 . S
C22 H51 0.948 . S
C23 C22 1.419 . S
C23 C24 1.391 . S
C23 C27 1.397 . S
C24 C19 1.391 . S
C24 C23 1.391 . S
C24 C25 1.399 1_556 S
C25 C24 1.399 1_554 S
C25 C26 1.396 . S
C25 C28 1.453 . S
C25 C29 1.684 . S
C26 C7 1.723 . S
C26 C25 1.396 . S
C26 C27 1.394 1_554 S
C27 C23 1.397 . S
C27 C26 1.394 1_556 S
C27 C37 1.723 . S
C28 C25 1.453 . S
C28 H52 0.982 . S
C28 H53 0.979 . S
C28 H54 0.977 . S
C29 C25 1.684 . S
C29 H55 0.973 1_554 S
C29 H56 0.980 . S
C29 H57 0.983 . S
C30 H6 0.948 . S
C30 C31 1.391 . S
C30 C35 1.391 . S
C31 C30 1.391 . S
C31 C32 1.391 . S
C32 H9 0.947 . S
C32 C31 1.391 . S
C32 C33 1.392 . S
C33 H10 0.948 1_556 S
C33 C32 1.392 . S
C33 C34 1.419 . S
C34 C33 1.419 . S
C34 C35 1.391 . S
C34 C38 1.397 1_656 S
C35 C30 1.391 . S
C35 C34 1.391 . S
C35 C36 1.399 1_655 S
C36 C35 1.399 1_455 S
C36 C37 1.396 . S
C36 C39 1.453 . S
C36 C40 1.684 . S
C37 C27 1.723 . S
C37 C36 1.396 . S
C37 C38 1.394 1_556 S
C38 C8 1.723 . S
C38 C34 1.397 1_454 S
C38 C37 1.394 1_554 S
C39 H11 0.982 . S
C39 H15 0.979 . S
C39 H16 0.977 . S
C39 C36 1.453 . S
C40 H12 0.979 . S
C40 H13 0.980 . S
C40 H14 0.983 . S
C40 C36 1.684 . S
H41 C59 0.948 . S
H42 C0 0.948 . S
H43 C18 0.979 . S
H44 C18 0.980 . S
H45 C18 0.983 . S
H46 C17 0.982 . S
H47 C17 0.979 . S
H48 C17 0.977 . S
H49 C19 0.948 . S
H50 C21 0.947 . S
H51 C22 0.948 . S
H52 C28 0.982 . S
H53 C28 0.979 . S
H54 C28 0.977 . S
H55 C29 0.973 1_556 S
H56 C29 0.980 . S
H57 C29 0.983 . S
H58 C2 0.947 . S
C59 C2 1.392 . S
C59 C3 1.419 . S
C59 H41 0.948 . S
C60 C61 1.391 . S
C60 C64 1.391 . S
C60 H102 0.948 . S
C61 C60 1.391 . S
C61 C62 1.391 . S
C62 C61 1.391 . S
C62 H118 0.947 . S
C62 C119 1.392 . S
C63 C64 1.391 . S
C63 C67 1.397 . S
C63 C119 1.419 . S
C64 C60 1.391 . S
C64 C63 1.391 . S
C64 C65 1.399 1_556 S
C65 C64 1.399 1_554 S
C65 C68 1.396 . S
C65 C77 1.453 . S
C65 C78 1.684 . S
H66 C90 0.948 . S
C67 C63 1.397 . S
C67 C68 1.394 1_556 S
C67 C86 1.723 1_455 S
C68 C65 1.396 . S
C68 C67 1.394 1_554 S
C68 C98 1.723 . S
H69 C92 0.947 . S
H70 C93 0.948 . S
H71 C99 0.982 . S
H72 C100 0.979 . S
H73 C100 0.980 . S
H74 C100 0.983 . S
H75 C99 0.979 . S
H76 C99 0.977 . S
C77 C65 1.453 . S
C77 H106 0.982 1_554 S
C77 H107 0.979 . S
C77 H108 0.977 . S
C78 C65 1.684 . S
C78 H103 0.979 . S
C78 H104 0.980 . S
C78 H105 0.983 . S
C79 C80 1.391 . S
C79 C84 1.391 . S
C79 H109 0.948 . S
C80 C79 1.391 . S
C80 C81 1.391 . S
C81 C80 1.391 . S
C81 C82 1.392 1_556 S
C81 H110 0.947 1_556 S
C82 C81 1.392 1_554 S
C82 C83 1.419 1_554 S
C82 H111 0.948 . S
C83 C82 1.419 1_556 S
C83 C84 1.391 . S
C83 C87 1.397 1_556 S
C84 C79 1.391 . S
C84 C83 1.391 . S
C84 C85 1.399 . S
C85 C84 1.399 . S
C85 C86 1.396 . S
C85 C88 1.453 . S
C85 C89 1.684 . S
C86 C67 1.723 1_655 S
C86 C85 1.396 . S
C86 C87 1.394 1_556 S
C87 C83 1.397 1_554 S
C87 C86 1.394 1_554 S
C87 C97 1.723 . S
C88 C85 1.453 . S
C88 H112 0.982 . S
C88 H113 0.979 . S
C88 H114 0.977 1_655 S
C89 C85 1.684 . S
C89 H115 0.979 . S
C89 H116 0.980 1_655 S
C89 H117 0.983 . S
C90 H66 0.948 . S
C90 C91 1.391 1_655 S
C90 C95 1.391 . S
C91 C90 1.391 1_455 S
C91 C92 1.391 . S
C92 H69 0.947 . S
C92 C91 1.391 . S
C92 C93 1.392 . S
C93 H70 0.948 . S
C93 C92 1.392 . S
C93 C94 1.419 . S
C94 C93 1.419 . S
C94 C95 1.391 1_455 S
C94 C98 1.397 . S
C95 C90 1.391 . S
C95 C94 1.391 1_655 S
C95 C96 1.399 . S
C96 C95 1.399 . S
C96 C97 1.396 . S
C96 C99 1.453 . S
C96 C100 1.684 . S
C97 C87 1.723 . S
C97 C96 1.396 . S
C97 C98 1.394 1_655 S
C98 C68 1.723 . S
C98 C94 1.397 . S
C98 C97 1.394 1_455 S
C99 H71 0.982 . S
C99 H75 0.979 . S
C99 H76 0.977 . S
C99 C96 1.453 . S
C100 H72 0.979 . S
C100 H73 0.980 . S
C100 H74 0.983 . S
C100 C96 1.684 . S
H101 C119 0.948 . S
H102 C60 0.948 . S
H103 C78 0.979 . S
H104 C78 0.980 . S
H105 C78 0.983 . S
H106 C77 0.982 1_556 S
H107 C77 0.979 . S
H108 C77 0.977 . S
H109 C79 0.948 . S
H110 C81 0.947 1_554 S
H111 C82 0.948 . S
H112 C88 0.982 . S
H113 C88 0.979 . S
H114 C88 0.977 1_455 S
H115 C89 0.979 . S
H116 C89 0.980 1_455 S
H117 C89 0.983 . S
H118 C62 0.947 . S
C119 C62 1.392 . S
C119 C63 1.419 . S
C119 H101 0.948 . S
C120 C121 1.391 . S
C120 C124 1.391 . S
C120 H162 0.948 . S
C121 C120 1.391 . S
C121 C122 1.391 . S
C122 C121 1.391 . S
C122 H178 0.947 . S
C122 C179 1.392 . S
C123 C124 1.391 . S
C123 C127 1.397 . S
C123 C179 1.419 . S
C124 C120 1.391 . S
C124 C123 1.391 . S
C124 C125 1.399 . S
C125 C124 1.399 . S
C125 C128 1.396 . S
C125 C137 1.453 . S
C125 C138 1.684 . S
H126 C150 0.948 . S
C127 C123 1.397 . S
C127 C128 1.394 . S
C127 C146 1.723 . S
C128 C125 1.396 . S
C128 C127 1.394 . S
C128 C158 1.723 . S
H129 C152 0.947 . S
H130 C153 0.948 . S
H131 C159 0.982 . S
H132 C160 0.979 . S
H133 C160 0.980 . S
H134 C160 0.983 . S
H135 C159 0.979 . S
H136 C159 0.977 . S
C137 C125 1.453 . S
C137 H166 0.982 . S
C137 H167 0.979 . S
C137 H168 0.977 . S
C138 C125 1.684 . S
C138 H163 0.979 . S
C138 H164 0.980 . S
C138 H165 0.983 . S
C139 C140 1.391 . S
C139 C144 1.391 . S
C139 H169 0.948 . S
C140 C139 1.391 . S
C140 C141 1.391 . S
C141 C140 1.391 . S
C141 C142 1.392 . S
C141 H170 0.947 . S
C142 C141 1.392 . S
C142 C143 1.419 . S
C142 H171 0.948 . S
C143 C142 1.419 . S
C143 C144 1.391 . S
C143 C147 1.397 . S
C144 C139 1.391 . S
C144 C143 1.391 . S
C144 C145 1.399 . S
C145 C144 1.399 . S
C145 C146 1.396 . S
C145 C148 1.453 . S
C145 C149 1.684 . S
C146 C127 1.723 . S
C146 C145 1.396 . S
C146 C147 1.394 . S
C147 C143 1.397 . S
C147 C146 1.394 . S
C147 C157 1.723 . S
C148 C145 1.453 . S
C148 H172 0.982 . S
C148 H173 0.979 . S
C148 H174 0.977 . S
C149 C145 1.684 . S
C149 H175 0.979 . S
C149 H176 0.980 . S
C149 H177 0.983 . S
C150 H126 0.948 . S
C150 C151 1.391 . S
C150 C155 1.391 . S
C151 C150 1.391 . S
C151 C152 1.391 . S
C152 H129 0.947 . S
C152 C151 1.391 . S
C152 C153 1.392 . S
C153 H130 0.948 . S
C153 C152 1.392 . S
C153 C154 1.419 . S
C154 C153 1.419 . S
C154 C155 1.391 . S
C154 C158 1.397 . S
C155 C150 1.391 . S
C155 C154 1.391 . S
C155 C156 1.399 . S
C156 C155 1.399 . S
C156 C157 1.396 . S
C156 C159 1.453 . S
C156 C160 1.684 . S
C157 C147 1.723 . S
C157 C156 1.396 . S
C157 C158 1.394 . S
C158 C128 1.723 . S
C158 C154 1.397 . S
C158 C157 1.394 . S
C159 H131 0.982 . S
C159 H135 0.979 . S
C159 H136 0.977 . S
C159 C156 1.453 . S
C160 H132 0.979 . S
C160 H133 0.980 . S
C160 H134 0.983 . S
C160 C156 1.684 . S
H161 C179 0.948 . S
H162 C120 0.948 . S
H163 C138 0.979 . S
H164 C138 0.980 . S
H165 C138 0.983 . S
H166 C137 0.982 . S
H167 C137 0.979 . S
H168 C137 0.977 . S
H169 C139 0.948 . S
H170 C141 0.947 . S
H171 C142 0.948 . S
H172 C148 0.982 . S
H173 C148 0.979 . S
H174 C148 0.977 . S
H175 C149 0.979 . S
H176 C149 0.980 . S
H177 C149 0.983 . S
H178 C122 0.947 . S
C179 C122 1.392 . S
C179 C123 1.419 . S
C179 H161 0.948 . S
C180 C181 1.391 . S
C180 C184 1.391 . S
C180 H222 0.948 . S
C181 C180 1.391 . S
C181 C182 1.391 . S
C182 C181 1.391 . S
C182 H238 0.947 . S
C182 C239 1.392 . S
C183 C184 1.391 . S
C183 C187 1.397 . S
C183 C239 1.419 . S
C184 C180 1.391 . S
C184 C183 1.391 . S
C184 C185 1.399 . S
C185 C184 1.399 . S
C185 C188 1.396 . S
C185 C197 1.453 . S
C185 C198 1.684 . S
H186 C210 0.948 . S
C187 C183 1.397 . S
C187 C188 1.394 . S
C187 C206 1.723 . S
C188 C185 1.396 . S
C188 C187 1.394 . S
C188 C218 1.723 . S
H189 C212 0.947 . S
H190 C213 0.948 . S
H191 C219 0.982 . S
H192 C220 0.979 . S
H193 C220 0.980 . S
H194 C220 0.983 . S
H195 C219 0.979 . S
H196 C219 0.977 . S
C197 C185 1.453 . S
C197 H226 0.982 . S
C197 H227 0.979 . S
C197 H228 0.977 . S
C198 C185 1.684 . S
C198 H223 0.979 . S
C198 H224 0.980 . S
C198 H225 0.983 . S
C199 C200 1.391 . S
C199 C204 1.391 . S
C199 H229 0.948 . S
C200 C199 1.391 . S
C200 C201 1.391 . S
C201 C200 1.391 . S
C201 C202 1.392 . S
C201 H230 0.947 . S
C202 C201 1.392 . S
C202 C203 1.419 . S
C202 H231 0.948 . S
C203 C202 1.419 . S
C203 C204 1.391 . S
C203 C207 1.397 . S
C204 C199 1.391 . S
C204 C203 1.391 . S
C204 C205 1.399 . S
C205 C204 1.399 . S
C205 C206 1.396 . S
C205 C208 1.453 . S
C205 C209 1.684 . S
C206 C187 1.723 . S
C206 C205 1.396 . S
C206 C207 1.394 . S
C207 C203 1.397 . S
C207 C206 1.394 . S
C207 C217 1.723 . S
C208 C205 1.453 . S
C208 H232 0.982 . S
C208 H233 0.979 . S
C208 H234 0.977 . S
C209 C205 1.684 . S
C209 H235 0.979 . S
C209 H236 0.980 . S
C209 H237 0.983 . S
C210 H186 0.948 . S
C210 C211 1.391 . S
C210 C215 1.391 . S
C211 C210 1.391 . S
C211 C212 1.391 . S
C212 H189 0.947 . S
C212 C211 1.391 . S
C212 C213 1.392 . S
C213 H190 0.948 . S
C213 C212 1.392 . S
C213 C214 1.419 . S
C214 C213 1.419 . S
C214 C215 1.391 . S
C214 C218 1.397 . S
C215 C210 1.391 . S
C215 C214 1.391 . S
C215 C216 1.399 . S
C216 C215 1.399 . S
C216 C217 1.396 . S
C216 C219 1.453 . S
C216 C220 1.684 . S
C217 C207 1.723 . S
C217 C216 1.396 . S
C217 C218 1.394 . S
C218 C188 1.723 . S
C218 C214 1.397 . S
C218 C217 1.394 . S
C219 H191 0.982 . S
C219 H195 0.979 . S
C219 H196 0.977 . S
C219 C216 1.453 . S
C220 H192 0.979 . S
C220 H193 0.980 . S
C220 H194 0.983 . S
C220 C216 1.684 . S
H221 C239 0.948 . S
H222 C180 0.948 . S
H223 C198 0.979 . S
H224 C198 0.980 . S
H225 C198 0.983 . S
H226 C197 0.982 . S
H227 C197 0.979 . S
H228 C197 0.977 . S
H229 C199 0.948 . S
H230 C201 0.947 . S
H231 C202 0.948 . S
H232 C208 0.982 . S
H233 C208 0.979 . S
H234 C208 0.977 . S
H235 C209 0.979 . S
H236 C209 0.980 . S
H237 C209 0.983 . S
H238 C182 0.947 . S
C239 C182 1.392 . S
C239 C183 1.419 . S
C239 H221 0.948 . S
Zn240 O246 1.920 . S
Zn240 O252 1.898 . S
Zn240 O255 1.905 1_455 S
Zn241 O249 1.905 . S
Zn241 O250 1.898 1_455 S
Zn241 O258 1.920 . S
Zn242 O245 2.080 . S
Zn242 O248 2.114 1_545 S
Zn242 O251 2.120 1_545 S
Zn242 O253 2.120 . S
Zn242 O254 2.114 1_455 S
Zn242 O257 2.080 1_545 S
C243 O248 1.166 . S
C243 O249 1.182 . S
C244 O250 1.167 . S
C244 O251 1.299 1_655 S
O245 Zn242 2.080 . S
O245 C259 1.305 . S
O246 Zn240 1.920 . S
O246 C259 1.234 . S
C247 O252 1.167 . S
C247 O253 1.299 . S
O248 Zn242 2.114 1_565 S
O248 C243 1.166 . S
O249 Zn241 1.905 . S
O249 C243 1.182 . S
O250 Zn241 1.898 1_655 S
O250 C244 1.167 . S
O251 Zn242 2.120 1_565 S
O251 C244 1.299 1_455 S
O252 Zn240 1.898 . S
O252 C247 1.167 . S
O253 Zn242 2.120 . S
O253 C247 1.299 . S
O254 Zn242 2.114 1_655 S
O254 C256 1.166 . S
O255 Zn240 1.905 1_655 S
O255 C256 1.182 . S
C256 O254 1.166 . S
C256 O255 1.182 . S
O257 Zn242 2.080 1_565 S
O257 C260 1.305 . S
O258 Zn241 1.920 . S
O258 C260 1.234 . S
C259 O245 1.305 . S
C259 O246 1.234 . S
C260 O257 1.305 . S
C260 O258 1.234 . S
Zn261 O267 1.920 . S
Zn261 O273 1.898 . S
Zn261 O276 1.905 . S
Zn262 O270 1.905 . S
Zn262 O271 1.898 . S
Zn262 O279 1.920 . S
Zn263 O266 2.080 . S
Zn263 O269 2.114 . S
Zn263 O272 2.120 . S
Zn263 O274 2.120 . S
Zn263 O275 2.114 . S
Zn263 O278 2.080 . S
C264 O269 1.166 . S
C264 O270 1.182 . S
C265 O271 1.167 . S
C265 O272 1.299 . S
O266 Zn263 2.080 . S
O266 C280 1.305 . S
O267 Zn261 1.920 . S
O267 C280 1.234 . S
C268 O273 1.167 . S
C268 O274 1.299 . S
O269 Zn263 2.114 . S
O269 C264 1.166 . S
O270 Zn262 1.905 . S
O270 C264 1.182 . S
O271 Zn262 1.898 . S
O271 C265 1.167 . S
O272 Zn263 2.120 . S
O272 C265 1.299 . S
O273 Zn261 1.898 . S
O273 C268 1.167 . S
O274 Zn263 2.120 . S
O274 C268 1.299 . S
O275 Zn263 2.114 . S
O275 C277 1.166 . S
O276 Zn261 1.905 . S
O276 C277 1.182 . S
C277 O275 1.166 . S
C277 O276 1.182 . S
O278 Zn263 2.080 . S
O278 C281 1.305 . S
O279 Zn262 1.920 . S
O279 C281 1.234 . S
C280 O266 1.305 . S
C280 O267 1.234 . S
C281 O278 1.305 . S
C281 O279 1.234 . S
C247 C1 2.068 . S
C243 C91 1.724 . S
C268 C121 2.068 . S
C211 C264 1.725 . S
C20 C265 1.322 . S
C280 C80 1.236 . S
C31 C281 1.617 . S
C277 C61 1.515 . S
C244 C140 1.322 . S
C200 C259 1.237 . S
C260 C151 1.616 . S
C256 C181 1.515 . S
