# Generated by pormake.
# Topology zzz, (3,6)-cn, num edge types: 1
# Building blocks:
#     Node 0, Type 0, BuildingBlock: QEWDON_clean_linker_0, # of connection points: 3
#     Node 1, Type 0, BuildingBlock: QEWDON_clean_linker_0, # of connection points: 3
#     Node 2, Type 0, BuildingBlock: QEWDON_clean_linker_0, # of connection points: 3
#     Node 3, Type 0, BuildingBlock: QEWDON_clean_linker_0, # of connection points: 3
#     Node 4, Type 0, BuildingBlock: QEWDON_clean_linker_0, # of connection points: 3
#     Node 5, Type 0, BuildingBlock: QEWDON_clean_linker_0, # of connection points: 3
#     Node 6, Type 0, BuildingBlock: QEWDON_clean_linker_0, # of connection points: 3
#     Node 7, Type 0, BuildingBlock: QEWDON_clean_linker_0, # of connection points: 3
#     Node 8, Type 1, BuildingBlock: LEVNOQ01_clean_sbu_1, # of connection points: 6
#     Node 9, Type 1, BuildingBlock: LEVNOQ01_clean_sbu_1, # of connection points: 6
#     Node 10, Type 1, BuildingBlock: LEVNOQ01_clean_sbu_1, # of connection points: 6
#     Node 11, Type 1, BuildingBlock: LEVNOQ01_clean_sbu_1, # of connection points: 6
#     Edge 12, Type (0, 1), BuildingBlock: TEMPAE_clean_linker_10, # of connection points: 2
#     Edge 13, Type (0, 1), BuildingBlock: TEMPAE_clean_linker_10, # of connection points: 2
#     Edge 14, Type (0, 1), BuildingBlock: TEMPAE_clean_linker_10, # of connection points: 2
#     Edge 15, Type (0, 1), BuildingBlock: TEMPAE_clean_linker_10, # of connection points: 2
#     Edge 16, Type (0, 1), BuildingBlock: TEMPAE_clean_linker_10, # of connection points: 2
#     Edge 17, Type (0, 1), BuildingBlock: TEMPAE_clean_linker_10, # of connection points: 2
#     Edge 18, Type (0, 1), BuildingBlock: TEMPAE_clean_linker_10, # of connection points: 2
#     Edge 19, Type (0, 1), BuildingBlock: TEMPAE_clean_linker_10, # of connection points: 2
#     Edge 20, Type (0, 1), BuildingBlock: TEMPAE_clean_linker_10, # of connection points: 2
#     Edge 21, Type (0, 1), BuildingBlock: TEMPAE_clean_linker_10, # of connection points: 2
#     Edge 22, Type (0, 1), BuildingBlock: TEMPAE_clean_linker_10, # of connection points: 2
#     Edge 23, Type (0, 1), BuildingBlock: TEMPAE_clean_linker_10, # of connection points: 2
#     Edge 24, Type (0, 1), BuildingBlock: TEMPAE_clean_linker_10, # of connection points: 2
#     Edge 25, Type (0, 1), BuildingBlock: TEMPAE_clean_linker_10, # of connection points: 2
#     Edge 26, Type (0, 1), BuildingBlock: TEMPAE_clean_linker_10, # of connection points: 2
#     Edge 27, Type (0, 1), BuildingBlock: TEMPAE_clean_linker_10, # of connection points: 2
#     Edge 28, Type (0, 1), BuildingBlock: TEMPAE_clean_linker_10, # of connection points: 2
#     Edge 29, Type (0, 1), BuildingBlock: TEMPAE_clean_linker_10, # of connection points: 2
#     Edge 30, Type (0, 1), BuildingBlock: TEMPAE_clean_linker_10, # of connection points: 2
#     Edge 31, Type (0, 1), BuildingBlock: TEMPAE_clean_linker_10, # of connection points: 2
#     Edge 32, Type (0, 1), BuildingBlock: TEMPAE_clean_linker_10, # of connection points: 2
#     Edge 33, Type (0, 1), BuildingBlock: TEMPAE_clean_linker_10, # of connection points: 2
#     Edge 34, Type (0, 1), BuildingBlock: TEMPAE_clean_linker_10, # of connection points: 2
#     Edge 35, Type (0, 1), BuildingBlock: TEMPAE_clean_linker_10, # of connection points: 2
# Relax obj value: 0.085
# Max RMSD: 0.176
# Mean RMSD: 0.065
data_MOF--net-zzz--node1-LEVNOQ01_clean_sbu_1--node2-QEWDON_clean_linker_0--edge1-TEMPAE_clean_linker_10
_symmetry_space_group_name_H-M    P1
_symmetry_Int_Tables_number       1
_symmetry_cell_setting            triclinic
loop_
_symmetry_equiv_pos_as_xyz
'x, y, z'
_cell_length_a     54.200472
_cell_length_b     54.107119
_cell_length_c     15.682445
_cell_angle_alpha  90.150342
_cell_angle_beta   89.892476
_cell_angle_gamma 89.972105
loop_
_atom_site_label
_atom_site_type_symbol
_atom_site_fract_x
_atom_site_fract_y
_atom_site_fract_z
_atom_type_partial_charge
H0 H 0.77862 0.57494 0.00199 0.0
C1 C 0.78833 0.56836 0.05785 0.0
C2 C 0.81219 0.55876 0.0489 0.0
C3 C 0.77771 0.57079 0.13988 0.0
H4 H 0.84346 0.54336 0.11244 0.0
C5 C 0.82498 0.55082 0.12062 0.0
C6 C 0.81647 0.55621 0.20245 0.0
C7 C 0.79233 0.56537 0.21264 0.0
C8 C 0.7524 0.58134 0.14887 0.0
H9 H 0.78536 0.56901 0.27622 0.0
C10 C 0.73301 0.57354 0.09498 0.0
C11 C 0.70943 0.58453 0.10054 0.0
C12 C 0.74771 0.60002 0.2092 0.0
H13 H 0.76222 0.60667 0.25071 0.0
C14 C 0.7244 0.6109 0.21496 0.0
H15 H 0.73629 0.55909 0.04832 0.0
C16 C 0.70542 0.60334 0.16081 0.0
H17 H 0.68746 0.61199 0.16678 0.0
H18 H 0.72106 0.62537 0.26134 0.0
H19 H 0.95804 0.781 0.99222 0.0
C20 C 0.95561 0.79196 0.04932 0.0
C21 C 0.95596 0.81775 0.04137 0.0
C22 C 0.95281 0.78083 0.13046 0.0
H23 H 0.95284 0.85253 0.10565 0.0
C24 C 0.95216 0.83256 0.11285 0.0
C25 C 0.95301 0.82256 0.19441 0.0
C26 C 0.95277 0.79664 0.2036 0.0
C27 C 0.95094 0.75307 0.13927 0.0
H28 H 0.95384 0.78903 0.26723 0.0
C29 C 0.96002 0.73642 0.076 0.0
C30 C 0.95752 0.71056 0.08569 0.0
C31 C 0.93913 0.74287 0.21128 0.0
H32 H 0.93096 0.75452 0.25984 0.0
C33 C 0.93709 0.71734 0.22144 0.0
H34 H 0.96949 0.74316 0.01999 0.0
C35 C 0.94628 0.7013 0.15948 0.0
H36 H 0.9442 0.68155 0.16843 0.0
H37 H 0.92804 0.70994 0.27742 0.0
H38 H 0.74306 0.95395 0.03249 0.0
C39 C 0.73374 0.95159 0.09309 0.0
C40 C 0.71083 0.96317 0.10636 0.0
C41 C 0.74405 0.9363 0.15696 0.0
H42 H 0.67997 0.96736 0.19137 0.0
C43 C 0.69815 0.95925 0.18248 0.0
C44 C 0.70738 0.94362 0.24502 0.0
C45 C 0.73046 0.93234 0.23328 0.0
C46 C 0.76801 0.92319 0.14165 0.0
H47 H 0.73755 0.92041 0.28287 0.0
C48 C 0.78769 0.93451 0.09674 0.0
C49 C 0.80985 0.9215 0.08028 0.0
C50 C 0.77107 0.89875 0.17023 0.0
H51 H 0.75632 0.88918 0.20302 0.0
C52 C 0.79302 0.886 0.15522 0.0
H53 H 0.78573 0.95329 0.074 0.0
C54 C 0.81224 0.89721 0.11063 0.0
H55 H 0.8291 0.88686 0.10032 0.0
H56 H 0.79508 0.86723 0.17779 0.0
H57 H 0.56518 0.74303 0.00485 0.0
C58 C 0.5644 0.73345 0.06538 0.0
C59 C 0.55375 0.70988 0.06899 0.0
C60 C 0.57421 0.74439 0.14009 0.0
H61 H 0.54551 0.67856 0.14765 0.0
C62 C 0.55334 0.69704 0.14586 0.0
C63 C 0.56229 0.70747 0.22074 0.0
C64 C 0.57301 0.73112 0.21814 0.0
C65 C 0.58615 0.76926 0.13618 0.0
H66 H 0.57984 0.73928 0.27665 0.0
C67 C 0.57644 0.78845 0.085 0.0
C68 C 0.58854 0.81153 0.07926 0.0
C69 C 0.60793 0.77372 0.18231 0.0
H70 H 0.61613 0.75938 0.22113 0.0
C71 C 0.6198 0.79654 0.17736 0.0
H72 H 0.55963 0.78544 0.04923 0.0
C73 C 0.61028 0.81528 0.12613 0.0
H74 H 0.61983 0.83286 0.1238 0.0
H75 H 0.63659 0.79968 0.2131 0.0
H76 H 0.24495 0.47269 0.3354 0.0
C77 C 0.23445 0.46668 0.28047 0.0
C78 C 0.21085 0.45641 0.29316 0.0
C79 C 0.24364 0.47064 0.19696 0.0
H80 H 0.17861 0.4419 0.23086 0.0
C81 C 0.19687 0.44963 0.22185 0.0
C82 C 0.20359 0.4572 0.14008 0.0
C83 C 0.22767 0.46597 0.12703 0.0
C84 C 0.26862 0.48203 0.18258 0.0
H85 H 0.2333 0.4703 0.06268 0.0
C86 C 0.28853 0.47828 0.23986 0.0
C87 C 0.3118 0.48936 0.22502 0.0
C88 C 0.27264 0.49728 0.11102 0.0
H89 H 0.2579 0.50201 0.06768 0.0
C90 C 0.29579 0.50724 0.09429 0.0
H91 H 0.2859 0.46714 0.29636 0.0
C92 C 0.31524 0.50317 0.15006 0.0
H93 H 0.33299 0.51124 0.13494 0.0
H94 H 0.29858 0.51853 0.03819 0.0
H95 H 0.0409 0.24745 0.32349 0.0
C96 C 0.04967 0.23678 0.2734 0.0
C97 C 0.05125 0.21106 0.28255 0.0
C98 C 0.05803 0.24832 0.19779 0.0
H99 H 0.06059 0.17669 0.22361 0.0
C100 C 0.06094 0.19667 0.21692 0.0
C101 C 0.06787 0.20708 0.13927 0.0
C102 C 0.06686 0.23298 0.13019 0.0
C103 C 0.05545 0.27588 0.18698 0.0
H104 H 0.07264 0.24087 0.07008 0.0
C105 C 0.05623 0.29244 0.25761 0.0
C106 C 0.05231 0.31805 0.24622 0.0
C107 C 0.05099 0.28586 0.10543 0.0
H108 H 0.04929 0.27414 0.04982 0.0
C109 C 0.04775 0.31122 0.0942 0.0
H110 H 0.05953 0.28559 0.32137 0.0
C111 C 0.04827 0.32719 0.16394 0.0
H112 H 0.04507 0.34674 0.1539 0.0
H113 H 0.04427 0.31848 0.03109 0.0
H114 H 0.28507 0.05452 0.34227 0.0
C115 C 0.29435 0.05763 0.28205 0.0
C116 C 0.31965 0.06375 0.28205 0.0
C117 C 0.28164 0.05397 0.20413 0.0
H118 H 0.35182 0.06918 0.20295 0.0
C119 C 0.33199 0.06631 0.20409 0.0
C120 C 0.32037 0.06132 0.12731 0.0
C121 C 0.29514 0.05586 0.12671 0.0
C122 C 0.25514 0.04584 0.20283 0.0
H123 H 0.28647 0.05225 0.06584 0.0
C124 C 0.23778 0.05378 0.26508 0.0
C125 C 0.21282 0.04637 0.25969 0.0
C126 C 0.247 0.02963 0.13809 0.0
H127 H 0.25969 0.02197 0.09169 0.0
C128 C 0.22237 0.02255 0.13261 0.0
H129 H 0.24341 0.06592 0.31648 0.0
C130 C 0.20537 0.03097 0.19241 0.0
H131 H 0.18638 0.02483 0.18758 0.0
H132 H 0.21649 0.01019 0.08219 0.0
H133 H 0.46948 0.28176 0.33076 0.0
C134 C 0.46272 0.29161 0.27546 0.0
C135 C 0.45964 0.31735 0.28043 0.0
C136 C 0.45917 0.27909 0.1973 0.0
H137 H 0.45207 0.35066 0.21143 0.0
C138 C 0.45266 0.3306 0.20815 0.0
C139 C 0.45114 0.31908 0.12884 0.0
C140 C 0.45361 0.29328 0.12373 0.0
C141 C 0.46446 0.25196 0.1901 0.0
H142 H 0.45218 0.2846 0.06167 0.0
C143 C 0.45926 0.23525 0.25752 0.0
C144 C 0.46516 0.20983 0.24984 0.0
C145 C 0.47582 0.24271 0.11573 0.0
H146 H 0.48109 0.25481 0.06401 0.0
C147 C 0.48142 0.21774 0.10762 0.0
H148 H 0.45054 0.24192 0.31534 0.0
C149 C 0.47627 0.20148 0.17378 0.0
H150 H 0.48182 0.18238 0.16607 0.0
H151 H 0.49033 0.21101 0.05023 0.0
O152 O 0.04739 0.97719 0.82222 0.0
Mg153 Mg 0.04296 0.984 0.69096 0.0
O154 O 0.00877 0.98162 0.79005 0.0
Mg155 Mg 0.00604 0.01408 0.69018 0.0
O156 O 0.04779 0.01752 0.63309 0.0
O157 O 0.07595 0.98678 0.63515 0.0
O158 O 1.00117 0.04731 0.59405 0.0
O159 O 0.02007 0.0435 0.79075 0.0
Mg160 Mg 0.96608 0.04844 0.73532 0.0
O161 O 0.96475 0.01095 0.74381 0.0
O162 O 0.96471 0.06412 0.61463 0.0
O163 O 0.98816 0.06689 0.82571 0.0
O164 O 0.93323 0.03649 0.77677 0.0
C165 C 0.0025 0.9623 0.58369 0.0
C166 C 0.02518 0.97166 0.8365 0.0
C167 C 0.0696 0.00881 0.61317 0.0
C168 C 0.9849 0.0634 0.57457 0.0
C169 C 0.01083 0.06166 0.83237 0.0
C170 C 0.94217 0.01443 0.77124 0.0
O171 O 0.02202 0.95743 0.62438 0.0
O172 O 0.99339 0.98413 0.58764 0.0
O173 O 0.45925 0.9925 0.73165 0.0
Mg174 Mg 0.48197 0.97079 0.65235 0.0
O175 O 0.4863 0.02186 0.765 0.0
Mg176 Mg 0.51708 0.00978 0.66616 0.0
O177 O 0.51642 0.96757 0.70775 0.0
O178 O 0.48958 0.93615 0.69226 0.0
O179 O 0.54563 0.99141 0.56984 0.0
O180 O 0.54913 0.01322 0.7668 0.0
Mg181 Mg 0.54818 0.03624 0.58721 0.0
O182 O 0.51564 0.05312 0.61958 0.0
O183 O 0.55385 0.01787 0.47003 0.0
O184 O 0.57549 0.03031 0.67839 0.0
O185 O 0.54849 0.07216 0.56208 0.0
C186 C 0.47197 0.99824 0.51804 0.0
C187 C 0.46468 0.01229 0.77098 0.0
C188 C 0.51045 0.94443 0.7197 0.0
C189 C 0.55584 0.99625 0.49869 0.0
C190 C 0.57094 0.0208 0.75009 0.0
C191 C 0.52578 0.07284 0.58613 0.0
O192 O 0.47217 0.97492 0.52118 0.0
O193 O 0.48608 0.00997 0.568 0.0
O194 O 0.53195 0.4541 0.75557 0.0
Mg195 Mg 0.55454 0.47682 0.67675 0.0
O196 O 0.50289 0.48227 0.77963 0.0
Mg197 Mg 0.51338 0.51278 0.68069 0.0
O198 O 0.5554 0.51261 0.71942 0.0
O199 O 0.58835 0.48746 0.71838 0.0
O200 O 0.52373 0.54346 0.58148 0.0
O201 O 0.51414 0.54395 0.78514 0.0
Mg202 Mg 0.47568 0.54489 0.69956 0.0
O203 O 0.47077 0.51181 0.63893 0.0
O204 O 0.4974 0.57114 0.63169 0.0
O205 O 0.47679 0.54695 0.83328 0.0
O206 O 0.44101 0.54039 0.65749 0.0
C207 C 0.52832 0.46945 0.53051 0.0
C208 C 0.51201 0.46075 0.7915 0.0
C209 C 0.57867 0.50868 0.73576 0.0
C210 C 0.51578 0.56569 0.5851 0.0
C211 C 0.49915 0.55298 0.83931 0.0
C212 C 0.44794 0.51906 0.62928 0.0
O213 O 0.55115 0.47097 0.54478 0.0
O214 O 0.51354 0.48162 0.57766 0.0
O215 O 0.9686 0.48981 0.83572 0.0
Mg216 Mg 0.97347 0.47335 0.71359 0.0
O217 O 0.98356 0.52274 0.77313 0.0
Mg218 Mg 0.01294 0.51439 0.67083 0.0
O219 O 0.00869 0.47167 0.66795 0.0
O220 O 0.98703 0.43786 0.6974 0.0
O221 O 0.04256 0.50493 0.57072 0.0
O222 O 0.04496 0.50895 0.76729 0.0
Mg223 Mg 0.05051 0.55135 0.62093 0.0
O224 O 0.01695 0.55804 0.67742 0.0
O225 O 0.05482 0.53651 0.49643 0.0
O226 O 0.07339 0.53412 0.7128 0.0
O227 O 0.04274 0.58793 0.63578 0.0
C228 C 0.95959 0.5088 0.56652 0.0
C229 C 0.96979 0.5131 0.82974 0.0
C230 C 0.00665 0.44773 0.66562 0.0
C231 C 0.05568 0.51355 0.51072 0.0
C232 C 0.067 0.51748 0.76549 0.0
C233 C 0.02256 0.58151 0.67361 0.0
O234 O 0.95305 0.4909 0.61406 0.0
O235 O 0.98074 0.51923 0.57347 0.0
C236 C 0.17229 0.06475 0.30155 0.0
C237 C 0.19416 0.05278 0.32559 0.0
C238 C 0.15125 0.06421 0.35417 0.0
C239 C 0.15197 0.05089 0.43177 0.0
C240 C 0.17476 0.04093 0.45999 0.0
C241 C 0.19564 0.04207 0.40658 0.0
C242 C 0.12762 0.07565 0.32233 0.0
C243 C 0.17647 0.02665 0.54228 0.0
C244 C 0.09676 0.04562 0.58395 0.0
C245 C 0.08718 0.02263 0.55928 0.0
C246 C 0.11739 0.05577 0.54131 0.0
C247 C 0.12842 0.04259 0.47263 0.0
C248 C 0.11768 0.0201 0.44487 0.0
C249 C 0.09739 0.0104 0.48883 0.0
C250 C 0.12813 0.07981 0.57276 0.0
C251 C 0.12836 0.00552 0.37117 0.0
H252 H 0.17112 0.07302 0.23877 0.0
H253 H 0.21245 0.03262 0.42491 0.0
H254 H 0.11561 0.06097 0.29554 0.0
H255 H 0.11737 0.08469 0.3752 0.0
H256 H 0.13115 0.08951 0.27158 0.0
H257 H 0.19592 0.02359 0.56187 0.0
H258 H 0.16662 0.0365 0.5943 0.0
H259 H 0.16751 0.00836 0.53395 0.0
H260 H 0.08907 0.05492 0.63927 0.0
H261 H 0.08996 0.9926 0.46992 0.0
H262 H 0.13328 0.0919 0.51855 0.0
H263 H 0.14518 0.07597 0.60946 0.0
H264 H 0.11506 0.08992 0.61494 0.0
H265 H 0.12973 0.01733 0.31366 0.0
H266 H 0.11706 0.98902 0.35507 0.0
H267 H 0.14728 0.99925 0.38725 0.0
C268 C 0.46833 0.19805 0.40542 0.0
C269 C 0.46181 0.19183 0.32143 0.0
C270 C 0.47191 0.17954 0.46738 0.0
C271 C 0.46978 0.15428 0.44398 0.0
C272 C 0.46008 0.14824 0.36272 0.0
C273 C 0.4558 0.16711 0.30326 0.0
C274 C 0.48063 0.18695 0.55503 0.0
C275 C 0.45758 0.12179 0.33312 0.0
C276 C 0.52269 0.11308 0.51084 0.0
C277 C 0.51125 0.09525 0.56261 0.0
C278 C 0.5094 0.13243 0.47397 0.0
C279 C 0.48395 0.13507 0.49198 0.0
C280 C 0.47245 0.11825 0.54911 0.0
C281 C 0.48612 0.09817 0.58243 0.0
C282 C 0.52258 0.14928 0.41183 0.0
C283 C 0.44563 0.12104 0.573 0.0
H284 H 0.47259 0.21708 0.42123 0.0
H285 H 0.44971 0.16215 0.23966 0.0
H286 H 0.47345 0.1741 0.60422 0.0
H287 H 0.50108 0.18626 0.55712 0.0
H288 H 0.47477 0.20608 0.57117 0.0
H289 H 0.44333 0.12001 0.28264 0.0
H290 H 0.47548 0.11562 0.30589 0.0
H291 H 0.45284 0.10919 0.38612 0.0
H292 H 0.54207 0.11131 0.49491 0.0
H293 H 0.47706 0.0846 0.62244 0.0
H294 H 0.52211 0.1686 0.43542 0.0
H295 H 0.51316 0.14887 0.34904 0.0
H296 H 0.54217 0.14397 0.40191 0.0
H297 H 0.4413 0.14065 0.58762 0.0
H298 H 0.44067 0.10948 0.62893 0.0
H299 H 0.43387 0.11537 0.51864 0.0
C300 C 0.33795 0.46618 0.3327 0.0
C301 C 0.33237 0.48802 0.28837 0.0
C302 C 0.35773 0.4653 0.39117 0.0
C303 C 0.37225 0.48671 0.40534 0.0
C304 C 0.36677 0.50865 0.36018 0.0
C305 C 0.34686 0.50909 0.30344 0.0
C306 C 0.36286 0.44164 0.43863 0.0
C307 C 0.38161 0.53201 0.37311 0.0
C308 C 0.40475 0.50541 0.60739 0.0
C309 C 0.42956 0.50407 0.58247 0.0
C310 C 0.38585 0.49702 0.55378 0.0
C311 C 0.39186 0.48747 0.47222 0.0
C312 C 0.41703 0.48371 0.45036 0.0
C313 C 0.43568 0.49197 0.5062 0.0
C314 C 0.35938 0.50085 0.58109 0.0
C315 C 0.42437 0.47334 0.36463 0.0
H316 H 0.32702 0.44975 0.32123 0.0
H317 H 0.34242 0.52626 0.27149 0.0
H318 H 0.38246 0.43621 0.43054 0.0
H319 H 0.35969 0.44454 0.50785 0.0
H320 H 0.35095 0.42619 0.41662 0.0
H321 H 0.37605 0.54697 0.32871 0.0
H322 H 0.37916 0.53881 0.43939 0.0
H323 H 0.40154 0.52819 0.36364 0.0
H324 H 0.39999 0.51442 0.66707 0.0
H325 H 0.45487 0.49082 0.48686 0.0
H326 H 0.34787 0.4847 0.56341 0.0
H327 H 0.35175 0.51726 0.54797 0.0
H328 H 0.35779 0.50398 0.65093 0.0
H329 H 0.41175 0.45827 0.34473 0.0
H330 H 0.44359 0.46617 0.36515 0.0
H331 H 0.42318 0.48819 0.31614 0.0
C332 C 0.07123 0.34655 0.35508 0.0
C333 C 0.05026 0.3355 0.31924 0.0
C334 C 0.06899 0.36577 0.41578 0.0
C335 C 0.04523 0.37412 0.4409 0.0
C336 C 0.02407 0.36259 0.40556 0.0
C337 C 0.02686 0.34353 0.34518 0.0
C338 C 0.09198 0.37736 0.45218 0.0
C339 C 0.99836 0.37073 0.43019 0.0
C340 C 0.02845 0.4076 0.64599 0.0
C341 C 0.02375 0.43161 0.61667 0.0
C342 C 0.0379 0.38924 0.59127 0.0
C343 C 0.04203 0.39476 0.50417 0.0
C344 C 0.03932 0.41957 0.47609 0.0
C345 C 0.03044 0.43777 0.53301 0.0
C346 C 0.04137 0.3634 0.62522 0.0
C347 C 0.0435 0.42645 0.38404 0.0
H348 H 0.08934 0.34061 0.33386 0.0
H349 H 0.01067 0.33522 0.31645 0.0
H350 H 0.09154 0.39765 0.44269 0.0
H351 H 0.09272 0.37409 0.52192 0.0
H352 H 0.10906 0.36986 0.4226 0.0
H353 H 0.98385 0.36001 0.39652 0.0
H354 H 0.99562 0.36851 0.49987 0.0
H355 H 0.99589 0.39061 0.41527 0.0
H356 H 0.02334 0.40276 0.71072 0.0
H357 H 0.02656 0.45621 0.50968 0.0
H358 H 0.05871 0.35516 0.60048 0.0
H359 H 0.02588 0.35156 0.60351 0.0
H360 H 0.04182 0.3631 0.69604 0.0
H361 H 0.06067 0.41789 0.35919 0.0
H362 H 0.04466 0.4468 0.37537 0.0
H363 H 0.02795 0.41937 0.34507 0.0
C364 C 0.84297 0.91916 0.96793 0.0
C365 C 0.83058 0.93285 0.0312 0.0
C366 C 0.86287 0.92926 0.92211 0.0
C367 C 0.87074 0.95366 0.93996 0.0
C368 C 0.85853 0.96748 0.00451 0.0
C369 C 0.83853 0.95697 0.04892 0.0
C370 C 0.87508 0.91403 0.85311 0.0
C371 C 0.86644 0.9935 0.02613 0.0
C372 C 0.93328 0.97856 0.86677 0.0
C373 C 0.92611 0.99403 0.79979 0.0
C374 C 0.91561 0.96443 0.91138 0.0
C375 C 0.8904 0.96554 0.88702 0.0
C376 C 0.8836 0.97968 0.81497 0.0
C377 C 0.90146 0.99393 0.77301 0.0
C378 C 0.92363 0.94972 0.98804 0.0
C379 C 0.85712 0.98109 0.78545 0.0
H380 H 0.83681 0.90058 0.9532 0.0
H381 H 0.82932 0.96753 0.09844 0.0
H382 H 0.87211 0.92291 0.79025 0.0
H383 H 0.89529 0.91319 0.86369 0.0
H384 H 0.86776 0.89488 0.85034 0.0
H385 H 0.85618 1.00116 0.08163 0.0
H386 H 0.88647 0.99393 0.04056 0.0
H387 H 0.86333 0.00573 0.97051 0.0
H388 H 0.95227 0.97897 0.88842 0.0
H389 H 0.8959 0.00607 0.72155 0.0
H390 H 0.91759 0.93023 0.98166 0.0
H391 H 0.91475 0.95732 0.04631 0.0
H392 H 0.94394 0.95015 -0.00316 0.0
H393 H 0.84916 0.96229 0.77933 0.0
H394 H 0.85534 0.99069 0.72321 0.0
H395 H 0.84595 0.99126 0.83342 0.0
C396 C 0.5538 0.83861 0.02886 0.0
C397 C 0.57874 0.83183 0.02474 0.0
C398 C 0.5446 0.85833 0.97991 0.0
C399 C 0.56061 0.87134 0.92418 0.0
C400 C 0.5858 0.86453 0.91964 0.0
C401 C 0.59458 0.845 0.97032 0.0
C402 C 0.5177 0.86524 0.98779 0.0
C403 C 0.60339 0.87754 0.86002 0.0
C404 C 0.52792 0.90236 0.73898 0.0
C405 C 0.52681 0.92708 0.76568 0.0
C406 C 0.53996 0.88436 0.78792 0.0
C407 C 0.55054 0.89104 0.86715 0.0
C408 C 0.55019 0.91619 0.89324 0.0
C409 C 0.53868 0.93404 0.8413 0.0
C410 C 0.54049 0.85798 0.7562 0.0
C411 C 0.56104 0.92409 0.97754 0.0
H412 H 0.54155 0.82875 0.07162 0.0
H413 H 0.61385 0.83974 0.9664 0.0
H414 H 0.51592 0.88517 0.00355 0.0
H415 H 0.50826 0.86217 0.92596 0.0
H416 H 0.50804 0.85432 0.03757 0.0
H417 H 0.62245 0.8701 0.86424 0.0
H418 H 0.59688 0.87558 0.79328 0.0
H419 H 0.60387 0.89759 0.8748 0.0
H420 H 0.51886 0.89697 0.68019 0.0
H421 H 0.5377 0.95313 0.86227 0.0
H422 H 0.52889 0.84625 0.79806 0.0
H423 H 0.55957 0.85056 0.75867 0.0
H424 H 0.53357 0.85628 0.6898 0.0
H425 H 0.55357 0.9125 0.02987 0.0
H426 H 0.55707 0.94378 0.9923 0.0
H427 H 0.58132 0.92142 0.97639 0.0
C428 C 0.67501 0.59368 -0.00182 0.0
C429 C 0.68885 0.57635 0.04442 0.0
C430 C 0.65535 0.5862 0.94552 0.0
C431 C 0.64905 0.56084 0.9404 0.0
C432 C 0.66268 0.54336 0.98847 0.0
C433 C 0.68257 0.55129 0.03901 0.0
C434 C 0.64178 0.60534 0.89372 0.0
C435 C 0.65634 0.51619 0.98615 0.0
C436 C 0.58713 0.53776 0.85647 0.0
C437 C 0.59433 0.52724 0.7786 0.0
C438 C 0.60447 0.54994 0.90866 0.0
C439 C 0.62933 0.55212 0.88091 0.0
C440 C 0.63597 0.54344 0.79874 0.0
C441 C 0.61851 0.53075 0.74935 0.0
C442 C 0.59664 0.55871 -0.00398 0.0
C443 C 0.66195 0.5461 0.76509 0.0
H444 H 0.6799 0.61307 0.00201 0.0
H445 H 0.69302 0.53792 0.07554 0.0
H446 H 0.64431 0.60143 0.82475 0.0
H447 H 0.6217 0.60447 0.90704 0.0
H448 H 0.64836 0.6244 0.90708 0.0
H449 H 0.66748 0.50528 0.03203 0.0
H450 H 0.6365 0.51352 0.00109 0.0
H451 H 0.6596 0.50873 0.92115 0.0
H452 H 0.56849 0.53479 0.8795 0.0
H453 H 0.62406 0.5226 0.68901 0.0
H454 H 0.60262 0.57805 0.00685 0.0
H455 H 0.60568 0.54714 0.04526 0.0
H456 H 0.57634 0.55761 0.00514 0.0
H457 H 0.66882 0.56518 0.77554 0.0
H458 H 0.66319 0.54171 0.69596 0.0
H459 H 0.67439 0.53338 0.8 0.0
C460 C 0.95499 0.69178 0.93911 0.0
C461 C 0.96627 0.69278 0.01945 0.0
C462 C 0.96136 0.67328 0.87936 0.0
C463 C 0.97991 0.65575 0.89954 0.0
C464 C 0.99143 0.65689 0.9806 0.0
C465 C 0.98427 0.67516 0.03975 0.0
C466 C 0.94796 0.67218 0.79524 0.0
C467 C 0.01129 0.63868 0.00503 0.0
C468 C 0.98912 0.59478 0.77767 0.0
C469 C 0.00873 0.60079 0.72292 0.0
C470 C 0.97883 0.61262 0.83345 0.0
C471 C 0.98841 0.63707 0.83476 0.0
C472 C 0.00756 0.64338 0.77735 0.0
C473 C 0.01724 0.62535 0.72201 0.0
C474 C 0.95775 0.60511 0.89079 0.0
C475 C 0.01877 0.66895 0.77722 0.0
H476 H 0.94065 0.70503 0.92406 0.0
H477 H 0.99277 0.6757 0.10227 0.0
H478 H 0.96123 0.67438 0.74188 0.0
H479 H 0.93912 0.6538 0.78767 0.0
H480 H 0.93355 0.6867 0.78991 0.0
H481 H 0.01862 0.64215 0.07007 0.0
H482 H 0.00382 0.61959 0.00246 0.0
H483 H 0.02678 0.63967 0.95877 0.0
H484 H 0.9823 0.57598 0.77892 0.0
H485 H 0.03232 0.63041 0.68008 0.0
H486 H 0.94016 0.61062 0.8602 0.0
H487 H 0.95869 0.61434 0.95393 0.0
H488 H 0.95734 0.58482 0.90094 0.0
H489 H 0.00424 0.68311 0.76778 0.0
H490 H 0.03296 0.6712 0.72663 0.0
H491 H 0.02749 0.67267 0.83994 0.0
C492 C 0.05288 0.18503 0.41178 0.0
C493 C 0.03868 0.19747 0.351 0.0
C494 C 0.04351 0.16417 0.45389 0.0
C495 C 0.01973 0.15529 0.43232 0.0
C496 C 0.00476 0.16885 0.37524 0.0
C497 C 0.01435 0.19001 0.33605 0.0
C498 C 0.05969 0.15071 0.5168 0.0
C499 C 0.97943 0.15986 0.34986 0.0
C500 C 0.00773 0.08635 0.45937 0.0
C501 C 0.99266 0.08638 0.53187 0.0
C502 C 0.01641 0.10878 0.42512 0.0
C503 C 0.01074 0.13141 0.46698 0.0
C504 C 0.99607 0.13133 0.54138 0.0
C505 C 0.98688 0.10891 0.57191 0.0
C506 C 0.03162 0.1083 0.34438 0.0
C507 C 0.99053 0.15486 0.58994 0.0
H508 H 0.07193 0.19048 0.42141 0.0
H509 H 0.00373 0.19927 0.287 0.0
H510 H 0.04908 0.14576 0.57488 0.0
H511 H 0.06644 0.13325 0.48773 0.0
H512 H 0.07594 0.16194 0.53591 0.0
H513 H 0.96958 0.17335 0.30888 0.0
H514 H 0.98119 0.14216 0.31439 0.0
H515 H 0.968 0.15621 0.40717 0.0
H516 H 0.01254 0.06892 0.42942 0.0
H517 H 0.97591 0.10895 0.62983 0.0
H518 H 0.05032 0.11574 0.3572 0.0
H519 H 0.02302 0.12034 0.2955 0.0
H520 H 0.03351 0.08935 0.31771 0.0
H521 H 0.00803 0.16399 0.60886 0.0
H522 H 0.97939 0.15147 0.64827 0.0
H523 H 0.98036 0.16798 0.54867 0.0
C524 C 0.35589 0.07806 0.36468 0.0
C525 C 0.33555 0.06207 0.35882 0.0
C526 C 0.37837 0.06974 0.39769 0.0
C527 C 0.37962 0.04589 0.43443 0.0
C528 C 0.3576 0.03213 0.4458 0.0
C529 C 0.33585 0.04005 0.40563 0.0
C530 C 0.40083 0.08573 0.38305 0.0
C531 C 0.35748 0.00802 0.49392 0.0
C532 C 0.43687 0.00526 0.41557 0.0
C533 C 0.44944 0.01141 0.49038 0.0
C534 C 0.41453 0.01713 0.39491 0.0
C535 C 0.4039 0.0343 0.4532 0.0
C536 C 0.4166 0.04052 0.52868 0.0
C537 C 0.43939 0.02944 0.5453 0.0
C538 C 0.40247 0.01156 0.3103 0.0
C539 C 0.40605 0.05878 0.5921 0.0
H540 H 0.35543 0.09552 0.33079 0.0
H541 H 0.32004 0.0278 0.40352 0.0
H542 H 0.418 0.07835 0.41142 0.0
H543 H 0.40385 0.08786 0.31339 0.0
H544 H 0.39742 0.10451 0.40928 0.0
H545 H 0.33855 0.00293 0.51468 0.0
H546 H 0.3646 0.99304 0.45226 0.0
H547 H 0.36957 0.00915 0.55087 0.0
H548 H 0.44462 0.99147 0.37299 0.0
H549 H 0.44893 0.03429 0.60367 0.0
H550 H 0.39741 0.02901 0.27754 0.0
H551 H 0.38523 1.00096 0.32069 0.0
H552 H 0.41469 1.00061 0.26757 0.0
H553 H 0.40454 0.07729 0.56249 0.0
H554 H 0.41759 0.06057 0.65019 0.0
H555 H 0.38715 0.05307 0.61093 0.0
C556 C 0.45498 0.34778 0.39772 0.0
C557 C 0.47029 0.33212 0.35 0.0
C558 C 0.46452 0.36913 0.43647 0.0
C559 C 0.48969 0.37524 0.4241 0.0
C560 C 0.50553 0.35846 0.38145 0.0
C561 C 0.49565 0.33683 0.34613 0.0
C562 C 0.44723 0.38605 0.48457 0.0
C563 C 0.53235 0.36447 0.36559 0.0
C564 C 0.50687 0.44343 0.42097 0.0
C565 C 0.51919 0.44567 0.49869 0.0
C566 C 0.49718 0.42045 0.39548 0.0
C567 C 0.49921 0.39978 0.45078 0.0
C568 C 0.511 0.40238 0.53052 0.0
C569 C 0.52124 0.42519 0.55267 0.0
C570 C 0.48489 0.41825 0.30948 0.0
C571 C 0.51276 0.38114 0.5926 0.0
H572 H 0.43527 0.34436 0.39898 0.0
H573 H 0.50729 0.32501 0.30711 0.0
H574 H 0.45645 0.39431 0.54095 0.0
H575 H 0.44141 0.40138 0.44229 0.0
H576 H 0.43041 0.37611 0.50611 0.0
H577 H 0.54251 0.34873 0.33643 0.0
H578 H 0.53365 0.38056 0.32203 0.0
H579 H 0.54163 0.36969 0.42593 0.0
H580 H 0.50498 0.45949 0.38032 0.0
H581 H 0.53049 0.42719 0.61352 0.0
H582 H 0.46522 0.41316 0.31786 0.0
H583 H 0.49376 0.40333 0.27159 0.0
H584 H 0.48584 0.43573 0.27262 0.0
H585 H 0.49462 0.37185 0.59935 0.0
H586 H 0.51901 0.38727 0.65671 0.0
H587 H 0.52603 0.36721 0.56815 0.0
C588 C 0.19479 0.48236 0.41205 0.0
C589 C 0.19705 0.45882 0.37499 0.0
C590 C 0.17307 0.48913 0.45537 0.0
C591 C 0.15307 0.47232 0.45815 0.0
C592 C 0.15702 0.44741 0.43434 0.0
C593 C 0.17947 0.44072 0.39591 0.0
C594 C 0.17055 0.51505 0.4898 0.0
C595 C 0.13659 0.42856 0.43974 0.0
C596 C 0.09098 0.4878 0.55907 0.0
C597 C 0.07899 0.50031 0.49227 0.0
C598 C 0.11521 0.47905 0.55037 0.0
C599 C 0.12743 0.48168 0.47118 0.0
C600 C 0.11493 0.49324 0.40225 0.0
C601 C 0.09111 0.50296 0.41427 0.0
C602 C 0.12743 0.46795 0.6279 0.0
C603 C 0.12665 0.49515 0.31528 0.0
H604 H 0.20853 0.49638 0.39867 0.0
H605 H 0.18161 0.42222 0.37016 0.0
H606 H 0.16042 0.52664 0.44326 0.0
H607 H 0.1599 0.51506 0.55038 0.0
H608 H 0.18887 0.52364 0.5012 0.0
H609 H 0.14296 0.40972 0.42197 0.0
H610 H 0.12898 0.42798 0.5054 0.0
H611 H 0.12136 0.43395 0.3963 0.0
H612 H 0.08197 0.48599 0.6205 0.0
H613 H 0.08197 0.51271 0.36292 0.0
H614 H 0.14673 0.46197 0.6168 0.0
H615 H 0.1165 0.45185 0.65015 0.0
H616 H 0.12732 0.4817 0.68063 0.0
H617 H 0.14385 0.50617 0.31851 0.0
H618 H 0.11418 0.50391 0.26808 0.0
H619 H 0.13164 0.47636 0.29264 0.0
C620 C 0.95485 0.8473 0.92153 0.0
C621 C 0.96829 0.83031 0.97006 0.0
C622 C 0.96622 0.86877 0.89023 0.0
C623 C 0.99115 0.87364 0.91166 0.0
C624 C 0.0053 0.8553 0.95314 0.0
C625 C 0.99382 0.83339 0.979 0.0
C626 C 0.95097 0.88725 0.84121 0.0
C627 C 0.03164 0.85998 0.98007 0.0
C628 C 0.02552 0.92693 0.81041 0.0
C629 C 0.01977 0.94649 0.8658 0.0
C630 C 0.01623 0.90316 0.82423 0.0
C631 C 0.00177 0.89859 0.89741 0.0
C632 C 0.99718 0.91797 0.9567 0.0
C633 C 0.0056 0.94201 0.93868 0.0
C634 C 0.02072 0.88335 0.75799 0.0
C635 C 0.98323 0.91329 0.03856 0.0
H636 H 0.93505 0.84507 0.9157 0.0
H637 H 0.00403 0.82043 0.01818 0.0
H638 H 0.94672 0.90337 0.88253 0.0
H639 H 0.96144 0.89417 0.78524 0.0
H640 H 0.93329 0.87916 0.81887 0.0
H641 H 0.04092 0.84283 0.00196 0.0
H642 H 0.04259 0.86805 0.92731 0.0
H643 H 0.03173 0.87352 0.03338 0.0
H644 H 0.03623 0.93056 0.75341 0.0
H645 H 1.00094 0.95725 0.98075 0.0
H646 H 0.00311 0.87933 0.72476 0.0
H647 H 0.02694 0.86589 0.78782 0.0
H648 H 0.0347 0.88904 0.71005 0.0
H649 H 0.9641 0.90736 0.02417 0.0
H650 H 0.98248 0.92993 0.0801 0.0
H651 H 0.99212 0.89804 0.07444 0.0
C652 C 0.68986 0.96446 0.96576 0.0
C653 C 0.69754 0.97692 0.03938 0.0
C654 C 0.6701 0.9735 0.9171 0.0
C655 C 0.65779 0.99536 0.94344 0.0
C656 C 0.66681 0.009 0.01381 0.0
C657 C 0.68676 0.99972 0.06042 0.0
C658 C 0.66132 0.95876 0.84114 0.0
C659 C 0.65413 0.03227 0.04428 0.0
C660 C 0.61522 0.02656 0.78614 0.0
C661 C 0.59208 0.01663 0.80813 0.0
C662 C 0.63664 0.02 0.83018 0.0
C663 C 0.63496 0.00347 0.89933 0.0
C664 C 0.61155 0.99437 0.92519 0.0
C665 C 0.59034 1.00088 0.87866 0.0
C666 C 0.66121 0.03006 0.80051 0.0
C667 C 0.60901 0.97702 -7e-05 0.0
H668 H 0.69793 0.94665 0.9503 0.0
H669 H 0.69261 0.0092 0.11797 0.0
H670 H 0.64311 0.9504 0.8558 0.0
H671 H 0.65884 0.97098 0.78507 0.0
H672 H 0.67437 0.94372 0.82383 0.0
H673 H 0.66481 0.0419 0.09481 0.0
H674 H 0.65121 0.04523 0.99056 0.0
H675 H 0.63568 0.02751 0.07034 0.0
H676 H 0.61684 0.03889 0.73208 0.0
H677 H 0.57262 0.99302 0.8958 0.0
H678 H 0.67313 0.01462 0.77851 0.0
H679 H 0.67089 0.0393 0.85404 0.0
H680 H 0.65923 0.04348 0.74748 0.0
H681 H 0.61587 0.95845 0.98134 0.0
H682 H 0.58954 0.97525 0.02117 0.0
H683 H 0.62025 0.98347 0.05472 0.0
C684 C 0.51776 0.69008 0.00447 0.0
C685 C 0.54246 0.69724 0.99557 0.0
C686 C 0.50941 0.66779 0.9696 0.0
C687 C 0.52573 0.65341 0.91924 0.0
C688 C 0.5493 0.66294 0.89768 0.0
C689 C 0.55765 0.68461 0.93787 0.0
C690 C 0.48409 0.65856 0.99446 0.0
C691 C 0.56672 0.64943 0.83858 0.0
C692 C 0.52201 0.58326 0.93013 0.0
C693 C 0.50454 0.5783 0.86718 0.0
C694 C 0.52885 0.60776 0.94848 0.0
C695 C 0.51914 0.62742 0.89855 0.0
C696 C 0.50212 0.62218 0.83271 0.0
C697 C 0.49447 0.59778 0.81988 0.0
C698 C 0.54648 0.61247 0.02121 0.0
C699 C 0.49194 0.64189 0.77443 0.0
H700 H 0.50609 0.70005 0.04913 0.0
H701 H 0.57676 0.69018 0.93073 0.0
H702 H 0.47188 0.65865 0.93792 0.0
H703 H 0.48512 0.63929 0.01834 0.0
H704 H 0.47536 0.67022 0.04453 0.0
H705 H 0.57628 0.66279 0.79624 0.0
H706 H 0.58114 0.64 0.8767 0.0
H707 H 0.55721 0.63548 0.79839 0.0
H708 H 0.53014 0.56806 0.96514 0.0
H709 H 0.48124 0.59382 0.76991 0.0
H710 H 0.54049 0.62864 0.0598 0.0
H711 H 0.56507 0.61653 0.99521 0.0
H712 H 0.54807 0.5962 0.06394 0.0
H713 H 0.47272 0.64627 0.79366 0.0
H714 H 0.49108 0.63495 0.70779 0.0
H715 H 0.50297 0.65915 0.77513 0.0
C716 C 0.83238 0.5409 0.92221 0.0
C717 C 0.82741 0.56181 0.97192 0.0
C718 C 0.8559 0.53737 0.88648 0.0
C719 C 0.87485 0.55464 0.90457 0.0
C720 C 0.86891 0.57725 0.945 0.0
C721 C 0.84484 0.58096 0.97531 0.0
C722 C 0.86114 0.51392 0.8375 0.0
C723 C 0.88849 0.59627 0.96461 0.0
C724 C 0.93628 0.52222 0.93563 0.0
C725 C 0.94834 0.52769 0.85907 0.0
C726 C 0.91296 0.5324 0.95374 0.0
C727 C 0.90109 0.54743 0.89201 0.0
C728 C 0.91377 0.55397 0.81669 0.0
C729 C 0.93729 0.54418 0.80153 0.0
C730 C 0.90059 0.52624 0.03743 0.0
C731 C 0.90204 0.56949 0.74808 0.0
H732 H 0.81894 0.52609 0.91969 0.0
H733 H 0.84091 0.59711 0.01422 0.0
H734 H 0.87288 0.51787 0.78106 0.0
H735 H 0.87134 0.50082 0.87885 0.0
H736 H 0.84388 0.5048 0.81584 0.0
H737 H 0.88098 0.61246 -0.00023 0.0
H738 H 0.90337 0.58782 0.00344 0.0
H739 H 0.89697 0.60287 0.90449 0.0
H740 H 0.94471 0.50942 0.97994 0.0
H741 H 0.94624 0.54814 0.74122 0.0
H742 H 0.88455 0.51398 0.02576 0.0
H743 H 0.89355 0.54334 0.06839 0.0
H744 H 0.91332 0.5168 0.08225 0.0
H745 H 0.91623 0.58047 0.7138 0.0
H746 H 0.88779 0.58228 0.7732 0.0
H747 H 0.89308 0.55698 0.70131 0.0
C748 C 0.05479 0.19044 -0.00211 0.0
C749 C 0.07129 0.18962 0.06653 0.0
C750 C 0.04987 0.16911 0.94911 0.0
C751 C 0.06149 0.14645 0.97041 0.0
C752 C 0.08043 0.14639 0.03241 0.0
C753 C 0.08536 0.16808 0.07881 0.0
C754 C 0.03025 0.17025 0.88112 0.0
C755 C 0.09341 0.12281 0.05728 0.0
C756 C 0.01862 0.09111 0.95157 0.0
C757 C 0.02686 0.07976 0.87639 0.0
C758 C 0.03055 0.11207 0.98467 0.0
C759 C 0.05077 0.12254 0.93988 0.0
C760 C 0.05971 0.11063 0.86533 0.0
C761 C 0.0478 0.0892 0.83497 0.0
C762 C 0.02079 0.12363 0.06584 0.0
C763 C 0.08079 0.12135 0.81445 0.0
H764 H 0.04382 0.20694 0.98795 0.0
H765 H 0.09827 0.1674 0.13152 0.0
H766 H 0.03588 0.15942 0.82413 0.0
H767 H 0.01293 0.16204 0.90602 0.0
H768 H 0.02635 0.18957 0.86144 0.0
H769 H 0.11038 0.12651 0.09484 0.0
H770 H 0.08078 0.11142 0.09679 0.0
H771 H 0.09841 0.11177 0.00012 0.0
H772 H 0.00229 0.08399 0.98311 0.0
H773 H 0.05382 0.08085 0.77554 0.0
H774 H 0.01285 0.14207 0.05169 0.0
H775 H 0.036 0.12638 0.11216 0.0
H776 H 0.00628 0.11215 0.09641 0.0
H777 H 0.07415 0.13781 0.77921 0.0
H778 H 0.08826 0.10787 0.76744 0.0
H779 H 0.09595 0.12749 0.85687 0.0
C780 C 0.34693 0.07487 0.0058 0.0
C781 C 0.33676 0.05576 0.05454 0.0
C782 C 0.36792 0.07068 0.95467 0.0
C783 C 0.37942 0.04713 0.95546 0.0
C784 C 0.36881 0.02772 0.00358 0.0
C785 C 0.34743 0.03221 0.05147 0.0
C786 C 0.3783 0.09161 0.90235 0.0
C787 C 0.3806 0.00244 0.00738 0.0
C788 C 0.4204 0.02286 0.77942 0.0
C789 C 0.44405 0.0249 0.81522 0.0
C790 C 0.39945 0.03152 0.8221 0.0
C791 C 0.40201 0.04215 0.90389 0.0
C792 C 0.42594 0.0453 0.93928 0.0
C793 C 0.44683 0.03684 0.89386 0.0
C794 C 0.37443 0.02821 0.7812 0.0
C795 C 0.42931 0.05617 0.02716 0.0
H796 H 0.33911 0.09327 0.0106 0.0
H797 H 0.34 0.01772 0.09173 0.0
H798 H 0.39666 0.09695 0.92745 0.0
H799 H 0.38095 0.08562 0.83522 0.0
H800 H 0.36612 0.10813 0.90336 0.0
H801 H 0.37031 0.98956 0.04947 0.0
H802 H 0.38158 0.99424 0.94256 0.0
H803 H 0.39979 0.00405 0.03135 0.0
H804 H 0.41816 0.01391 0.71796 0.0
H805 H 0.46505 0.03835 0.92176 0.0
H806 H 0.3649 0.04632 0.77684 0.0
H807 H 0.36275 0.01597 0.82104 0.0
H808 H 0.3757 0.02003 0.71631 0.0
H809 H 0.41904 0.07383 0.03315 0.0
H810 H 0.44905 0.05957 0.0422 0.0
H811 H 0.42166 0.0433 0.0754 0.0
C812 C 0.47685 0.33596 0.01241 0.0
C813 C 0.45386 0.33523 0.05328 0.0
C814 C 0.48388 0.35647 0.96337 0.0
C815 C 0.46726 0.37648 0.95343 0.0
C816 C 0.44316 0.37476 0.98805 0.0
C817 C 0.43686 0.35429 0.03873 0.0
C818 C 0.50982 0.35761 0.92834 0.0
C819 C 0.4246 0.39526 0.97634 0.0
C820 C 0.4975 0.43944 0.92357 0.0
C821 C 0.49748 0.44155 0.8348 0.0
C822 C 0.48688 0.4187 0.96337 0.0
C823 C 0.4759 0.39986 0.91281 0.0
C824 C 0.4749 0.40265 0.82317 0.0
C825 C 0.48597 0.42334 0.78523 0.0
C826 C 0.48847 0.41637 0.05915 0.0
C827 C 0.46315 0.38331 0.76686 0.0
H828 H 0.49023 0.32154 0.02538 0.0
H829 H 0.41924 0.35392 0.07152 0.0
H830 H 0.50954 0.36216 0.85946 0.0
H831 H 0.5202 0.3725 0.9613 0.0
H832 H 0.51994 0.33992 0.93696 0.0
H833 H 0.40578 0.3896 -0.00349 0.0
H834 H 0.43019 0.41155 0.01479 0.0
H835 H 0.42399 0.40112 0.90861 0.0
H836 H 0.50671 0.45344 0.96145 0.0
H837 H 0.48621 0.42498 0.71629 0.0
H838 H 0.50002 0.40015 0.07586 0.0
H839 H 0.46988 0.4132 0.08666 0.0
H840 H 0.49656 0.43307 0.08948 0.0
H841 H 0.47557 0.36706 0.76188 0.0
H842 H 0.45969 0.39037 0.70154 0.0
H843 H 0.44543 0.37686 0.79444 0.0
C844 C 0.16055 0.46982 0.1045 0.0
C845 C 0.18359 0.46111 0.07583 0.0
C846 C 0.14144 0.4753 0.04835 0.0
C847 C 0.14561 0.47342 0.95977 0.0
C848 C 0.16856 0.46437 0.92921 0.0
C849 C 0.18734 0.45819 0.98775 0.0
C850 C 0.11739 0.48467 0.08546 0.0
C851 C 0.17349 0.462 0.83483 0.0
C852 C 0.08639 0.48065 0.83387 0.0
C853 C 0.0866 0.50608 0.81721 0.0
C854 C 0.10643 0.46925 0.87478 0.0
C855 C 0.12681 0.48377 0.90101 0.0
C856 C 0.12715 0.50941 0.88322 0.0
C857 C 0.10716 0.52018 0.84083 0.0
C858 C 0.1053 0.44195 0.89355 0.0
C859 C 0.14817 0.5257 0.91217 0.0
H860 H 0.15753 0.47342 0.17157 0.0
H861 H 0.20496 0.45151 0.96457 0.0
H862 H 0.11924 0.50468 0.09976 0.0
H863 H 0.10144 0.48211 0.04233 0.0
H864 H 0.11313 0.47498 0.146 0.0
H865 H 0.19133 0.45267 0.8213 0.0
H866 H 0.15842 0.45147 0.80365 0.0
H867 H 0.17383 0.48063 0.80542 0.0
H868 H 0.0708 0.46959 0.81346 0.0
H869 H 0.10748 0.5398 0.82697 0.0
H870 H 0.10258 0.43921 0.96306 0.0
H871 H 0.12293 0.43287 0.87571 0.0
H872 H 0.08996 0.43269 0.85912 0.0
H873 H 0.14812 0.5269 0.98284 0.0
H874 H 0.1468 0.54472 0.8861 0.0
H875 H 0.16612 0.51764 0.89245 0.0
C876 C 0.94334 0.84426 0.33389 0.0
C877 C 0.95919 0.84005 0.26469 0.0
C878 C 0.94754 0.86422 0.39044 0.0
C879 C 0.96776 0.88042 0.37631 0.0
C880 C 0.98401 0.87576 0.3074 0.0
C881 C 0.97975 0.85553 0.25369 0.0
C882 C 0.93014 0.86829 0.46429 0.0
C883 C 0.00593 0.89226 0.28979 0.0
C884 C 0.97358 0.94559 0.46986 0.0
C885 C 0.99092 0.94168 0.53467 0.0
C886 C 0.96478 0.92561 0.42016 0.0
C887 C 0.9734 0.90124 0.4362 0.0
C888 C 0.99007 0.8972 0.50386 0.0
C889 C 0.99846 0.91732 0.55209 0.0
C890 C 0.94719 0.9307 0.3479 0.0
C891 C 0.99982 0.87165 0.5235 0.0
H892 H 0.92731 0.83252 0.342 0.0
H893 H 0.99209 0.8523 0.20025 0.0
H894 H 0.94052 0.86793 0.52518 0.0
H895 H 0.92146 0.8868 0.45916 0.0
H896 H 0.91537 0.85407 0.46692 0.0
H897 H 0.01619 0.88663 0.23147 0.0
H898 H 0.99975 0.91167 0.28193 0.0
H899 H 0.01882 0.8918 0.34467 0.0
H900 H 0.96756 0.96425 0.45606 0.0
H901 H 0.01152 0.91391 0.60288 0.0
H902 H 0.93125 0.91787 0.35082 0.0
H903 H 0.95669 0.92742 0.28614 0.0
H904 H 0.94023 0.95001 0.349 0.0
H905 H 0.98449 0.85976 0.54609 0.0
H906 H 0.01445 0.87192 0.57288 0.0
H907 H 0.0076 0.8629 0.46531 0.0
C908 C 0.67112 0.92198 0.30241 0.0
C909 C 0.69064 0.93845 0.31707 0.0
C910 C 0.64805 0.92558 0.34152 0.0
C911 C 0.64466 0.94599 0.39696 0.0
C912 C 0.66535 0.9604 0.42122 0.0
C913 C 0.68814 0.95651 0.38051 0.0
C914 C 0.62668 0.90948 0.31489 0.0
C915 C 0.66274 0.98194 0.48192 0.0
C916 C 0.58653 0.98491 0.38576 0.0
C917 C 0.57509 0.97949 0.46372 0.0
C918 C 0.60843 0.97296 0.36111 0.0
C919 C 0.61931 0.95527 0.41614 0.0
C920 C 0.6069 0.9484 0.4919 0.0
C921 C 0.58487 0.96052 0.51463 0.0
C922 C 0.62072 0.98045 0.2785 0.0
C923 C 0.61767 0.92957 0.55212 0.0
H924 H 0.67294 0.90825 0.25224 0.0
H925 H 0.70309 0.96948 0.39086 0.0
H926 H 0.61424 0.90569 0.36956 0.0
H927 H 0.61575 0.91923 0.26552 0.0
H928 H 0.6331 0.89163 0.28759 0.0
H929 H 0.68095 0.98864 0.50476 0.0
H930 H 0.65329 0.99741 0.44896 0.0
H931 H 0.65133 0.97677 0.53787 0.0
H932 H 0.57903 0.99939 0.3458 0.0
H933 H 0.57622 0.95617 0.57515 0.0
H934 H 0.62524 0.96388 0.23968 0.0
H935 H 0.63832 0.99012 0.29245 0.0
H936 H 0.60894 0.99292 0.23982 0.0
H937 H 0.62583 0.91378 0.51667 0.0
H938 H 0.60359 0.92242 0.59735 0.0
H939 H 0.63264 0.93832 0.58974 0.0
C940 C 0.53496 0.68532 0.32077 0.0
C941 C 0.55896 0.69274 0.29942 0.0
C942 C 0.53075 0.66481 0.37307 0.0
C943 C 0.55107 0.65171 0.40715 0.0
C944 C 0.57537 0.66043 0.39189 0.0
C945 C 0.57906 0.68074 0.33713 0.0
C946 C 0.50454 0.65613 0.38672 0.0
C947 C 0.59747 0.64744 0.42907 0.0
C948 C 0.53157 0.60868 0.58498 0.0
C949 C 0.52863 0.58619 0.54141 0.0
C950 C 0.54058 0.62976 0.54353 0.0
C951 C 0.54649 0.62847 0.45578 0.0
C952 C 0.54484 0.60541 0.41247 0.0
C953 C 0.53613 0.5844 0.45622 0.0
C954 C 0.54252 0.65373 0.59259 0.0
C955 C 0.55074 0.6033 0.31863 0.0
H956 H 0.51944 0.69439 0.29044 0.0
H957 H 0.59763 0.68615 0.31933 0.0
H958 H 0.50215 0.63748 0.35826 0.0
H959 H 0.50048 0.65458 0.45583 0.0
H960 H 0.49079 0.66879 0.35761 0.0
H961 H 0.61458 0.65857 0.42225 0.0
H962 H 0.59445 0.64339 0.49763 0.0
H963 H 0.60025 0.62952 0.39587 0.0
H964 H 0.5263 0.60989 0.65157 0.0
H965 H 0.5339 0.56701 0.42263 0.0
H966 H 0.52863 0.66707 0.56862 0.0
H967 H 0.56098 0.66213 0.58292 0.0
H968 H 0.5394 0.65114 0.66197 0.0
H969 H 0.53688 0.61382 0.28137 0.0
H970 H 0.55067 0.58381 0.29617 0.0
H971 H 0.56906 0.6115 0.30484 0.0
C972 C 0.85828 0.56615 0.25627 0.0
C973 C 0.8351 0.55538 0.27185 0.0
C974 C 0.87881 0.56034 0.30606 0.0
C975 C 0.87591 0.54451 0.37685 0.0
C976 C 0.85202 0.5357 0.39861 0.0
C977 C 0.83184 0.54092 0.34484 0.0
C978 C 0.9039 0.56966 0.27881 0.0
C979 C 0.84808 0.51976 0.47619 0.0
C980 C 0.93056 0.50514 0.44475 0.0
C981 C 0.94065 0.51939 0.51046 0.0
C982 C 0.90976 0.51337 0.39964 0.0
C983 C 0.8982 0.53587 0.42362 0.0
C984 C 0.90855 0.55044 0.48962 0.0
C985 C 0.92983 0.5421 0.53183 0.0
C986 C 0.90013 0.49796 0.32652 0.0
C987 C 0.89663 0.57432 0.51797 0.0
H988 H 0.86074 0.57776 0.20059 0.0
H989 H 0.81397 0.53268 0.35732 0.0
H990 H 0.91316 0.5793 0.33237 0.0
H991 H 0.91574 0.55377 0.26035 0.0
H992 H 0.90281 0.58252 0.22381 0.0
H993 H 0.82817 0.51708 0.4905 0.0
H994 H 0.85662 0.50137 0.46567 0.0
H995 H 0.85715 0.52819 0.53261 0.0
H996 H 0.93881 0.48741 0.42933 0.0
H997 H 0.93736 0.55278 0.58425 0.0
H998 H 0.89894 0.50936 0.26792 0.0
H999 H 0.88124 0.49134 0.34127 0.0
H1000 H 0.91202 0.48168 0.31304 0.0
H1001 H 0.89146 0.5859 0.46263 0.0
H1002 H 0.90893 0.58531 0.56003 0.0
H1003 H 0.87939 0.57005 0.55325 0.0
loop_
_geom_bond_atom_site_label_1
_geom_bond_atom_site_label_2
_geom_bond_distance
_geom_bond_site_symmetry_2
_ccdc_geom_bond_type
H0 C1 0.949 . S
C1 H0 0.949 . S
C1 C2 1.395 1_556 S
C1 C3 1.391 1_556 S
C2 C1 1.395 1_554 S
C2 C5 1.390 . S
C3 C1 1.391 1_554 S
C3 C7 1.387 . S
C3 C8 1.491 . S
H4 C5 0.950 . S
C5 C2 1.390 . S
C5 H4 0.950 . S
C5 C6 1.378 . S
C6 C5 1.378 . S
C6 C7 1.409 . S
C7 C3 1.387 . S
C7 C6 1.409 . S
C7 H9 0.951 . S
C8 C3 1.491 . S
C8 C10 1.382 . S
C8 C12 1.404 . S
H9 C7 0.951 . S
C10 C8 1.382 . S
C10 C11 1.390 . S
C10 H15 0.949 1_554 S
C11 C10 1.390 . S
C11 C16 1.401 . S
C12 C8 1.404 . S
C12 H13 0.950 . S
C12 C14 1.375 . S
H13 C12 0.950 . S
C14 C12 1.375 . S
C14 C16 1.382 . S
C14 H18 0.950 . S
H15 C10 0.949 1_556 S
C16 C11 1.401 . S
C16 C14 1.382 . S
C16 H17 0.952 . S
H17 C16 0.952 . S
H18 C14 0.950 . S
H19 C20 0.949 . S
C20 H19 0.949 . S
C20 C21 1.395 1_556 S
C20 C22 1.391 1_556 S
C21 C20 1.395 1_554 S
C21 C24 1.390 . S
C22 C20 1.391 1_554 S
C22 C26 1.387 . S
C22 C27 1.491 . S
H23 C24 0.950 . S
C24 C21 1.390 . S
C24 H23 0.950 . S
C24 C25 1.378 . S
C25 C24 1.378 . S
C25 C26 1.409 . S
C26 C22 1.387 . S
C26 C25 1.409 . S
C26 H28 0.951 . S
C27 C22 1.491 . S
C27 C29 1.382 . S
C27 C31 1.404 . S
H28 C26 0.951 . S
C29 C27 1.382 . S
C29 C30 1.390 . S
C29 H34 0.949 1_554 S
C30 C29 1.390 . S
C30 C35 1.401 . S
C31 C27 1.404 . S
C31 H32 0.950 . S
C31 C33 1.375 . S
H32 C31 0.950 . S
C33 C31 1.375 . S
C33 C35 1.382 . S
C33 H37 0.950 . S
H34 C29 0.949 1_556 S
C35 C30 1.401 . S
C35 C33 1.382 . S
C35 H36 0.952 . S
H36 C35 0.952 . S
H37 C33 0.950 . S
H38 C39 0.949 . S
C39 H38 0.949 . S
C39 C40 1.395 1_556 S
C39 C41 1.391 1_556 S
C40 C39 1.395 1_554 S
C40 C43 1.390 . S
C41 C39 1.391 1_554 S
C41 C45 1.387 . S
C41 C46 1.491 . S
H42 C43 0.950 . S
C43 C40 1.390 . S
C43 H42 0.950 . S
C43 C44 1.378 . S
C44 C43 1.378 . S
C44 C45 1.409 . S
C45 C41 1.387 . S
C45 C44 1.409 . S
C45 H47 0.951 . S
C46 C41 1.491 . S
C46 C48 1.382 . S
C46 C50 1.404 . S
H47 C45 0.951 . S
C48 C46 1.382 . S
C48 C49 1.390 . S
C48 H53 0.949 1_554 S
C49 C48 1.390 . S
C49 C54 1.401 . S
C50 C46 1.404 . S
C50 H51 0.950 . S
C50 C52 1.375 . S
H51 C50 0.950 . S
C52 C50 1.375 . S
C52 C54 1.382 . S
C52 H56 0.950 . S
H53 C48 0.949 1_556 S
C54 C49 1.401 . S
C54 C52 1.382 . S
C54 H55 0.952 . S
H55 C54 0.952 . S
H56 C52 0.950 . S
H57 C58 0.949 . S
C58 H57 0.949 . S
C58 C59 1.395 1_556 S
C58 C60 1.391 1_556 S
C59 C58 1.395 1_554 S
C59 C62 1.390 . S
C60 C58 1.391 1_554 S
C60 C64 1.387 . S
C60 C65 1.491 . S
H61 C62 0.950 . S
C62 C59 1.390 . S
C62 H61 0.950 . S
C62 C63 1.378 . S
C63 C62 1.378 . S
C63 C64 1.409 . S
C64 C60 1.387 . S
C64 C63 1.409 . S
C64 H66 0.951 . S
C65 C60 1.491 . S
C65 C67 1.382 . S
C65 C69 1.404 . S
H66 C64 0.951 . S
C67 C65 1.382 . S
C67 C68 1.390 . S
C67 H72 0.949 1_554 S
C68 C67 1.390 . S
C68 C73 1.401 . S
C69 C65 1.404 . S
C69 H70 0.950 . S
C69 C71 1.375 . S
H70 C69 0.950 . S
C71 C69 1.375 . S
C71 C73 1.382 . S
C71 H75 0.950 . S
H72 C67 0.949 1_556 S
C73 C68 1.401 . S
C73 C71 1.382 . S
C73 H74 0.952 . S
H74 C73 0.952 . S
H75 C71 0.950 . S
H76 C77 0.949 . S
C77 H76 0.949 . S
C77 C78 1.395 . S
C77 C79 1.391 . S
C78 C77 1.395 . S
C78 C81 1.390 . S
C79 C77 1.391 . S
C79 C83 1.387 . S
C79 C84 1.491 . S
H80 C81 0.950 . S
C81 C78 1.390 . S
C81 H80 0.950 . S
C81 C82 1.378 . S
C82 C81 1.378 . S
C82 C83 1.409 . S
C83 C79 1.387 . S
C83 C82 1.409 . S
C83 H85 0.951 . S
C84 C79 1.491 . S
C84 C86 1.382 . S
C84 C88 1.404 . S
H85 C83 0.951 . S
C86 C84 1.382 . S
C86 C87 1.390 . S
C86 H91 0.949 . S
C87 C86 1.390 . S
C87 C92 1.399 . S
C88 C84 1.404 . S
C88 H89 0.950 . S
C88 C90 1.375 . S
H89 C88 0.950 . S
C90 C88 1.375 . S
C90 C92 1.382 . S
C90 H94 0.950 . S
H91 C86 0.949 . S
C92 C87 1.399 . S
C92 C90 1.382 . S
C92 H93 0.952 . S
H93 C92 0.952 . S
H94 C90 0.950 . S
H95 C96 0.949 . S
C96 H95 0.949 . S
C96 C97 1.395 . S
C96 C98 1.391 . S
C97 C96 1.395 . S
C97 C100 1.390 . S
C98 C96 1.391 . S
C98 C102 1.387 . S
C98 C103 1.491 . S
H99 C100 0.950 . S
C100 C97 1.390 . S
C100 H99 0.950 . S
C100 C101 1.378 . S
C101 C100 1.378 . S
C101 C102 1.409 . S
C102 C98 1.387 . S
C102 C101 1.409 . S
C102 H104 0.951 . S
C103 C98 1.491 . S
C103 C105 1.382 . S
C103 C107 1.404 . S
H104 C102 0.951 . S
C105 C103 1.382 . S
C105 C106 1.390 . S
C105 H110 0.949 . S
C106 C105 1.390 . S
C106 C111 1.399 . S
C107 C103 1.404 . S
C107 H108 0.950 . S
C107 C109 1.375 . S
H108 C107 0.950 . S
C109 C107 1.375 . S
C109 C111 1.382 . S
C109 H113 0.958 . S
H110 C105 0.949 . S
C111 C106 1.399 . S
C111 C109 1.382 . S
C111 H112 0.952 . S
H112 C111 0.952 . S
H113 C109 0.958 . S
H114 C115 0.949 . S
C115 H114 0.949 . S
C115 C116 1.395 . S
C115 C117 1.391 . S
C116 C115 1.395 . S
C116 C119 1.390 . S
C117 C115 1.391 . S
C117 C121 1.387 . S
C117 C122 1.491 . S
H118 C119 0.950 . S
C119 C116 1.390 . S
C119 H118 0.950 . S
C119 C120 1.378 . S
C120 C119 1.378 . S
C120 C121 1.409 . S
C121 C117 1.387 . S
C121 C120 1.409 . S
C121 H123 0.951 . S
C122 C117 1.491 . S
C122 C124 1.382 . S
C122 C126 1.404 . S
H123 C121 0.951 . S
C124 C122 1.382 . S
C124 C125 1.390 . S
C124 H129 0.949 . S
C125 C124 1.390 . S
C125 C130 1.399 . S
C126 C122 1.404 . S
C126 H127 0.950 . S
C126 C128 1.375 . S
H127 C126 0.950 . S
C128 C126 1.375 . S
C128 C130 1.382 . S
C128 H132 0.927 1_545 S
H129 C124 0.949 . S
C130 C125 1.399 . S
C130 C128 1.382 . S
C130 H131 0.952 . S
H131 C130 0.952 . S
H132 C128 0.927 1_565 S
H133 C134 0.949 . S
C134 H133 0.949 . S
C134 C135 1.395 . S
C134 C136 1.391 . S
C135 C134 1.395 . S
C135 C138 1.390 . S
C136 C134 1.391 . S
C136 C140 1.387 . S
C136 C141 1.491 . S
H137 C138 0.950 . S
C138 C135 1.390 . S
C138 H137 0.950 . S
C138 C139 1.378 . S
C139 C138 1.378 . S
C139 C140 1.409 . S
C140 C136 1.387 . S
C140 C139 1.409 . S
C140 H142 0.951 . S
C141 C136 1.491 . S
C141 C143 1.382 . S
C141 C145 1.404 . S
H142 C140 0.951 . S
C143 C141 1.382 . S
C143 C144 1.390 . S
C143 H148 0.949 . S
C144 C143 1.390 . S
C144 C149 1.399 . S
C145 C141 1.404 . S
C145 H146 0.950 . S
C145 C147 1.375 . S
H146 C145 0.950 . S
C147 C145 1.375 . S
C147 C149 1.382 . S
C147 H151 0.950 . S
H148 C143 0.949 . S
C149 C144 1.399 . S
C149 C147 1.382 . S
C149 H150 0.952 . S
H150 C149 0.952 . S
H151 C147 0.950 . S
O152 Mg153 1.990 . S
O152 C166 1.253 . S
Mg153 O152 1.990 . S
Mg153 O156 2.154 1_565 S
Mg153 O157 2.117 . S
Mg153 O171 2.030 . S
O154 Mg155 2.072 1_565 S
O154 C166 1.260 . S
Mg155 O154 2.072 1_545 S
Mg155 O156 2.105 . S
Mg155 O158 2.079 . S
Mg155 O159 2.072 . S
Mg155 O161 2.099 1_455 S
Mg155 O172 2.079 1_445 S
O156 Mg153 2.154 1_545 S
O156 Mg155 2.105 . S
O156 C167 1.281 . S
O157 Mg153 2.117 . S
O157 C167 1.250 1_565 S
O158 Mg155 2.079 . S
O158 C168 1.264 . S
O159 Mg155 2.072 . S
O159 C169 1.260 . S
Mg160 O161 2.180 . S
Mg160 O162 2.030 . S
Mg160 O163 1.990 . S
Mg160 O164 2.117 . S
O161 Mg155 2.099 1_655 S
O161 Mg160 2.180 . S
O161 C170 1.279 . S
O162 Mg160 2.030 . S
O162 C168 1.248 1_655 S
O163 Mg160 1.990 . S
O163 C169 1.253 1_655 S
O164 Mg160 2.117 . S
O164 C170 1.250 . S
C165 O171 1.248 . S
C165 O172 1.264 1_455 S
C166 O152 1.253 . S
C166 O154 1.260 . S
C167 O156 1.281 . S
C167 O157 1.250 1_545 S
C168 O158 1.264 . S
C168 O162 1.248 1_455 S
C169 O159 1.260 . S
C169 O163 1.253 1_455 S
C170 O161 1.279 . S
C170 O164 1.250 . S
O171 Mg153 2.030 . S
O171 C165 1.248 . S
O172 Mg155 2.079 1_665 S
O172 C165 1.264 1_655 S
O173 Mg174 1.990 . S
O173 C187 1.253 1_565 S
Mg174 O173 1.990 . S
Mg174 O177 2.180 . S
Mg174 O178 2.117 . S
Mg174 O192 2.030 . S
O175 Mg176 2.072 . S
O175 C187 1.260 . S
Mg176 O175 2.072 . S
Mg176 O177 2.099 1_545 S
Mg176 O179 2.079 1_545 S
Mg176 O180 2.072 . S
Mg176 O182 2.099 . S
Mg176 O193 2.079 . S
O177 Mg174 2.180 . S
O177 Mg176 2.099 1_565 S
O177 C188 1.279 . S
O178 Mg174 2.117 . S
O178 C188 1.250 . S
O179 Mg176 2.079 1_565 S
O179 C189 1.264 1_565 S
O180 Mg176 2.072 . S
O180 C190 1.260 . S
Mg181 O182 2.180 . S
Mg181 O183 2.030 . S
Mg181 O184 1.990 . S
Mg181 O185 2.117 . S
O182 Mg176 2.099 . S
O182 Mg181 2.180 . S
O182 C191 1.279 . S
O183 Mg181 2.030 . S
O183 C189 1.248 . S
O184 Mg181 1.990 . S
O184 C190 1.253 . S
O185 Mg181 2.117 . S
O185 C191 1.250 . S
C186 O192 1.248 1_545 S
C186 O193 1.264 . S
C187 O173 1.253 1_545 S
C187 O175 1.260 . S
C188 O177 1.279 . S
C188 O178 1.250 . S
C189 O179 1.264 1_545 S
C189 O183 1.248 . S
C190 O180 1.260 . S
C190 O184 1.253 . S
C191 O182 1.279 . S
C191 O185 1.250 . S
O192 Mg174 2.030 . S
O192 C186 1.248 1_565 S
O193 Mg176 2.079 . S
O193 C186 1.264 . S
O194 Mg195 1.990 . S
O194 C208 1.253 . S
Mg195 O194 1.990 . S
Mg195 O198 2.180 . S
Mg195 O199 2.117 . S
Mg195 O213 2.030 . S
O196 Mg197 2.072 . S
O196 C208 1.260 . S
Mg197 O196 2.072 . S
Mg197 O198 2.099 . S
Mg197 O200 2.079 . S
Mg197 O201 2.072 . S
Mg197 O203 2.099 . S
Mg197 O214 2.079 . S
O198 Mg195 2.180 . S
O198 Mg197 2.099 . S
O198 C209 1.279 . S
O199 Mg195 2.117 . S
O199 C209 1.250 . S
O200 Mg197 2.079 . S
O200 C210 1.264 . S
O201 Mg197 2.072 . S
O201 C211 1.260 . S
Mg202 O203 2.180 . S
Mg202 O204 2.030 . S
Mg202 O205 1.990 . S
Mg202 O206 2.117 . S
O203 Mg197 2.099 . S
O203 Mg202 2.180 . S
O203 C212 1.279 . S
O204 Mg202 2.030 . S
O204 C210 1.248 . S
O205 Mg202 1.990 . S
O205 C211 1.253 . S
O206 Mg202 2.117 . S
O206 C212 1.250 . S
C207 O213 1.248 . S
C207 O214 1.264 . S
C208 O194 1.253 . S
C208 O196 1.260 . S
C209 O198 1.279 . S
C209 O199 1.250 . S
C210 O200 1.264 . S
C210 O204 1.248 . S
C211 O201 1.260 . S
C211 O205 1.253 . S
C212 O203 1.279 . S
C212 O206 1.250 . S
O213 Mg195 2.030 . S
O213 C207 1.248 . S
O214 Mg197 2.079 . S
O214 C207 1.264 . S
O215 Mg216 1.990 . S
O215 C229 1.253 . S
Mg216 O215 1.990 . S
Mg216 O219 2.180 1_655 S
Mg216 O220 2.117 . S
Mg216 O234 2.030 . S
O217 Mg218 2.072 1_655 S
O217 C229 1.260 . S
Mg218 O217 2.072 1_455 S
Mg218 O219 2.099 . S
Mg218 O221 2.079 . S
Mg218 O222 2.072 . S
Mg218 O224 2.099 . S
Mg218 O235 2.079 1_455 S
O219 Mg216 2.180 1_455 S
O219 Mg218 2.099 . S
O219 C230 1.279 . S
O220 Mg216 2.117 . S
O220 C230 1.250 1_655 S
O221 Mg218 2.079 . S
O221 C231 1.264 . S
O222 Mg218 2.072 . S
O222 C232 1.260 . S
Mg223 O224 2.180 . S
Mg223 O225 2.030 . S
Mg223 O226 1.990 . S
Mg223 O227 2.117 . S
O224 Mg218 2.099 . S
O224 Mg223 2.180 . S
O224 C233 1.279 . S
O225 Mg223 2.030 . S
O225 C231 1.248 . S
O226 Mg223 1.990 . S
O226 C232 1.253 . S
O227 Mg223 2.117 . S
O227 C233 1.250 . S
C228 O234 1.248 . S
C228 O235 1.264 . S
C229 O215 1.253 . S
C229 O217 1.260 . S
C230 O219 1.279 . S
C230 O220 1.250 1_455 S
C231 O221 1.264 . S
C231 O225 1.248 . S
C232 O222 1.260 . S
C232 O226 1.253 . S
C233 O224 1.279 . S
C233 O227 1.250 . S
O234 Mg216 2.030 . S
O234 C228 1.248 . S
O235 Mg218 2.079 1_655 S
O235 C228 1.264 . S
C236 C237 1.391 . S
C236 C238 1.394 . S
C236 H252 0.931 . S
C237 C236 1.391 . S
C237 C241 1.376 . S
C238 C236 1.394 . S
C238 C239 1.369 . S
C238 C242 1.531 . S
C239 C238 1.369 . S
C239 C240 1.410 . S
C239 C247 1.503 . S
C240 C239 1.410 . S
C240 C241 1.392 . S
C240 C243 1.511 1_545 S
C241 C237 1.376 . S
C241 C240 1.392 . S
C241 H253 0.929 . S
C242 C238 1.531 . S
C242 H254 0.960 . S
C242 H255 0.962 . S
C242 H256 0.960 . S
C243 C240 1.511 1_565 S
C243 H257 0.961 . S
C243 H258 0.952 1_565 S
C243 H259 0.961 . S
C244 C245 1.370 . S
C244 C246 1.363 . S
C244 H260 0.931 . S
C245 C244 1.370 . S
C245 C249 1.408 . S
C246 C244 1.363 . S
C246 C247 1.370 . S
C246 C250 1.524 . S
C247 C239 1.503 . S
C247 C246 1.370 . S
C247 C248 1.403 . S
C248 C247 1.403 . S
C248 C249 1.404 . S
C248 C251 1.539 1_545 S
C249 C245 1.408 . S
C249 C248 1.404 . S
C249 H261 0.930 1_545 S
C250 C246 1.524 . S
C250 H262 0.956 . S
C250 H263 0.961 . S
C250 H264 0.961 . S
C251 C248 1.539 1_565 S
C251 H265 0.958 . S
C251 H266 0.961 . S
C251 H267 0.960 . S
H252 C236 0.931 . S
H253 C241 0.929 . S
H254 C242 0.960 . S
H255 C242 0.962 . S
H256 C242 0.960 . S
H257 C243 0.961 . S
H258 C243 0.952 1_545 S
H259 C243 0.961 . S
H260 C244 0.931 . S
H261 C249 0.930 1_565 S
H262 C250 0.956 . S
H263 C250 0.961 . S
H264 C250 0.961 . S
H265 C251 0.958 . S
H266 C251 0.961 . S
H267 C251 0.960 . S
C268 C269 1.391 . S
C268 C270 1.394 . S
C268 H284 0.931 . S
C269 C268 1.391 . S
C269 C273 1.376 . S
C270 C268 1.394 . S
C270 C271 1.369 . S
C270 C274 1.531 . S
C271 C270 1.369 . S
C271 C272 1.410 . S
C271 C279 1.503 . S
C272 C271 1.410 . S
C272 C273 1.392 . S
C272 C275 1.511 . S
C273 C269 1.376 . S
C273 C272 1.392 . S
C273 H285 0.929 . S
C274 C270 1.531 . S
C274 H286 0.960 . S
C274 H287 0.962 . S
C274 H288 0.960 . S
C275 C272 1.511 . S
C275 H289 0.961 . S
C275 H290 0.961 . S
C275 H291 0.961 . S
C276 C277 1.370 . S
C276 C278 1.363 . S
C276 H292 0.931 . S
C277 C276 1.370 . S
C277 C281 1.408 . S
C278 C276 1.363 . S
C278 C279 1.370 . S
C278 C282 1.524 . S
C279 C271 1.503 . S
C279 C278 1.370 . S
C279 C280 1.403 . S
C280 C279 1.403 . S
C280 C281 1.404 . S
C280 C283 1.539 . S
C281 C277 1.408 . S
C281 C280 1.404 . S
C281 H293 0.930 . S
C282 C278 1.524 . S
C282 H294 0.956 . S
C282 H295 0.961 . S
C282 H296 0.961 . S
C283 C280 1.539 . S
C283 H297 0.958 . S
C283 H298 0.961 . S
C283 H299 0.960 . S
H284 C268 0.931 . S
H285 C273 0.929 . S
H286 C274 0.960 . S
H287 C274 0.962 . S
H288 C274 0.960 . S
H289 C275 0.961 . S
H290 C275 0.961 . S
H291 C275 0.961 . S
H292 C276 0.931 . S
H293 C281 0.930 . S
H294 C282 0.956 . S
H295 C282 0.961 . S
H296 C282 0.961 . S
H297 C283 0.958 . S
H298 C283 0.961 . S
H299 C283 0.960 . S
C300 C301 1.391 . S
C300 C302 1.394 . S
C300 H316 0.931 . S
C301 C300 1.391 . S
C301 C305 1.376 . S
C302 C300 1.394 . S
C302 C303 1.369 . S
C302 C306 1.531 . S
C303 C302 1.369 . S
C303 C304 1.410 . S
C303 C311 1.503 . S
C304 C303 1.410 . S
C304 C305 1.392 . S
C304 C307 1.511 . S
C305 C301 1.376 . S
C305 C304 1.392 . S
C305 H317 0.929 . S
C306 C302 1.531 . S
C306 H318 0.960 . S
C306 H319 0.962 . S
C306 H320 0.960 . S
C307 C304 1.511 . S
C307 H321 0.961 . S
C307 H322 0.961 . S
C307 H323 0.961 . S
C308 C309 1.370 . S
C308 C310 1.363 . S
C308 H324 0.931 . S
C309 C308 1.370 . S
C309 C313 1.408 . S
C310 C308 1.363 . S
C310 C311 1.370 . S
C310 C314 1.524 . S
C311 C303 1.503 . S
C311 C310 1.370 . S
C311 C312 1.403 . S
C312 C311 1.403 . S
C312 C313 1.404 . S
C312 C315 1.539 . S
C313 C309 1.408 . S
C313 C312 1.404 . S
C313 H325 0.930 . S
C314 C310 1.524 . S
C314 H326 0.956 . S
C314 H327 0.961 . S
C314 H328 0.961 . S
C315 C312 1.539 . S
C315 H329 0.958 . S
C315 H330 0.961 . S
C315 H331 0.960 . S
H316 C300 0.931 . S
H317 C305 0.929 . S
H318 C306 0.960 . S
H319 C306 0.962 . S
H320 C306 0.960 . S
H321 C307 0.961 . S
H322 C307 0.961 . S
H323 C307 0.961 . S
H324 C308 0.931 . S
H325 C313 0.930 . S
H326 C314 0.956 . S
H327 C314 0.961 . S
H328 C314 0.961 . S
H329 C315 0.958 . S
H330 C315 0.961 . S
H331 C315 0.960 . S
C332 C333 1.391 . S
C332 C334 1.394 . S
C332 H348 0.931 . S
C333 C332 1.391 . S
C333 C337 1.376 . S
C334 C332 1.394 . S
C334 C335 1.369 . S
C334 C338 1.531 . S
C335 C334 1.369 . S
C335 C336 1.410 . S
C335 C343 1.503 . S
C336 C335 1.410 . S
C336 C337 1.392 . S
C336 C339 1.511 1_455 S
C337 C333 1.376 . S
C337 C336 1.392 . S
C337 H349 0.929 . S
C338 C334 1.531 . S
C338 H350 0.960 . S
C338 H351 0.962 . S
C338 H352 0.960 . S
C339 C336 1.511 1_655 S
C339 H353 0.961 . S
C339 H354 0.961 . S
C339 H355 0.961 . S
C340 C341 1.370 . S
C340 C342 1.363 . S
C340 H356 0.931 . S
C341 C340 1.370 . S
C341 C345 1.408 . S
C342 C340 1.363 . S
C342 C343 1.370 . S
C342 C346 1.524 . S
C343 C335 1.503 . S
C343 C342 1.370 . S
C343 C344 1.403 . S
C344 C343 1.403 . S
C344 C345 1.404 . S
C344 C347 1.539 1_455 S
C345 C341 1.408 . S
C345 C344 1.404 . S
C345 H357 0.930 1_455 S
C346 C342 1.524 . S
C346 H358 0.956 . S
C346 H359 0.961 . S
C346 H360 0.961 . S
C347 C344 1.539 1_655 S
C347 H361 0.958 1_655 S
C347 H362 0.961 . S
C347 H363 0.960 . S
H348 C332 0.931 . S
H349 C337 0.929 . S
H350 C338 0.960 . S
H351 C338 0.962 . S
H352 C338 0.960 . S
H353 C339 0.961 . S
H354 C339 0.961 . S
H355 C339 0.961 . S
H356 C340 0.931 . S
H357 C345 0.930 1_655 S
H358 C346 0.956 . S
H359 C346 0.961 . S
H360 C346 0.961 . S
H361 C347 0.958 1_455 S
H362 C347 0.961 . S
H363 C347 0.960 . S
C364 C365 1.391 . S
C364 C366 1.394 . S
C364 H380 0.931 . S
C365 C364 1.391 . S
C365 C369 1.389 . S
C366 C364 1.394 . S
C366 C367 1.369 . S
C366 C370 1.531 . S
C367 C366 1.369 . S
C367 C368 1.410 1_565 S
C367 C375 1.503 . S
C368 C367 1.410 1_545 S
C368 C369 1.389 1_545 S
C368 C371 1.511 . S
C369 C365 1.389 . S
C369 C368 1.389 1_565 S
C369 H381 0.920 1_566 S
C370 C366 1.531 . S
C370 H382 0.960 . S
C370 H383 0.962 . S
C370 H384 0.960 . S
C371 C368 1.511 . S
C371 H385 0.961 1_556 S
C371 H386 0.961 . S
C371 H387 0.961 . S
C372 C373 1.370 1_565 S
C372 C374 1.363 . S
C372 H388 0.931 . S
C373 C372 1.370 1_545 S
C373 C377 1.408 . S
C374 C372 1.363 . S
C374 C375 1.370 . S
C374 C378 1.524 . S
C375 C367 1.503 . S
C375 C374 1.370 . S
C375 C376 1.403 1_565 S
C376 C375 1.403 1_545 S
C376 C377 1.404 . S
C376 C379 1.539 . S
C377 C373 1.408 . S
C377 C376 1.404 . S
C377 H389 0.930 . S
C378 C374 1.524 . S
C378 H390 0.956 . S
C378 H391 0.961 . S
C378 H392 0.961 . S
C379 C376 1.539 . S
C379 H393 0.958 . S
C379 H394 0.961 . S
C379 H395 0.960 . S
H380 C364 0.931 . S
H381 C369 0.920 1_544 S
H382 C370 0.960 . S
H383 C370 0.962 . S
H384 C370 0.960 . S
H385 C371 0.961 1_554 S
H386 C371 0.961 . S
H387 C371 0.961 . S
H388 C372 0.931 . S
H389 C377 0.930 . S
H390 C378 0.956 . S
H391 C378 0.961 . S
H392 C378 0.961 . S
H393 C379 0.958 . S
H394 C379 0.961 . S
H395 C379 0.960 . S
C396 C397 1.391 . S
C396 C398 1.394 . S
C396 H412 0.931 . S
C397 C396 1.391 . S
C397 C401 1.376 . S
C398 C396 1.394 . S
C398 C399 1.369 . S
C398 C402 1.531 . S
C399 C398 1.369 . S
C399 C400 1.410 . S
C399 C407 1.503 . S
C400 C399 1.410 . S
C400 C401 1.392 . S
C400 C403 1.511 . S
C401 C397 1.376 . S
C401 C400 1.392 . S
C401 H413 0.929 . S
C402 C398 1.531 . S
C402 H414 0.960 . S
C402 H415 0.962 . S
C402 H416 0.960 . S
C403 C400 1.511 . S
C403 H417 0.961 . S
C403 H418 0.961 . S
C403 H419 0.961 . S
C404 C405 1.370 . S
C404 C406 1.363 . S
C404 H420 0.931 . S
C405 C404 1.370 . S
C405 C409 1.408 . S
C406 C404 1.363 . S
C406 C407 1.370 . S
C406 C410 1.524 . S
C407 C399 1.503 . S
C407 C406 1.370 . S
C407 C408 1.403 . S
C408 C407 1.403 . S
C408 C409 1.404 . S
C408 C411 1.539 . S
C409 C405 1.408 . S
C409 C408 1.404 . S
C409 H421 0.930 . S
C410 C406 1.524 . S
C410 H422 0.956 . S
C410 H423 0.961 . S
C410 H424 0.961 . S
C411 C408 1.539 . S
C411 H425 0.958 1_556 S
C411 H426 0.961 . S
C411 H427 0.960 . S
H412 C396 0.931 . S
H413 C401 0.929 . S
H414 C402 0.960 . S
H415 C402 0.962 . S
H416 C402 0.960 . S
H417 C403 0.961 . S
H418 C403 0.961 . S
H419 C403 0.961 . S
H420 C404 0.931 . S
H421 C409 0.930 . S
H422 C410 0.956 . S
H423 C410 0.961 . S
H424 C410 0.961 . S
H425 C411 0.958 1_554 S
H426 C411 0.961 . S
H427 C411 0.960 . S
C428 C429 1.391 . S
C428 C430 1.394 . S
C428 H444 0.931 . S
C429 C428 1.391 . S
C429 C433 1.376 . S
C430 C428 1.394 . S
C430 C431 1.369 . S
C430 C434 1.531 . S
C431 C430 1.369 . S
C431 C432 1.410 . S
C431 C439 1.503 . S
C432 C431 1.410 . S
C432 C433 1.392 . S
C432 C435 1.511 . S
C433 C429 1.376 . S
C433 C432 1.392 . S
C433 H445 0.929 . S
C434 C430 1.531 . S
C434 H446 0.960 . S
C434 H447 0.962 . S
C434 H448 0.960 . S
C435 C432 1.511 . S
C435 H449 0.961 . S
C435 H450 0.961 . S
C435 H451 0.961 . S
C436 C437 1.370 . S
C436 C438 1.363 . S
C436 H452 0.931 . S
C437 C436 1.370 . S
C437 C441 1.408 . S
C438 C436 1.363 . S
C438 C439 1.370 . S
C438 C442 1.524 . S
C439 C431 1.503 . S
C439 C438 1.370 . S
C439 C440 1.403 . S
C440 C439 1.403 . S
C440 C441 1.404 . S
C440 C443 1.539 . S
C441 C437 1.408 . S
C441 C440 1.404 . S
C441 H453 0.930 . S
C442 C438 1.524 . S
C442 H454 0.956 . S
C442 H455 0.961 . S
C442 H456 0.961 . S
C443 C440 1.539 . S
C443 H457 0.958 . S
C443 H458 0.961 . S
C443 H459 0.960 . S
H444 C428 0.931 . S
H445 C433 0.929 . S
H446 C434 0.960 . S
H447 C434 0.962 . S
H448 C434 0.960 . S
H449 C435 0.961 . S
H450 C435 0.961 . S
H451 C435 0.961 . S
H452 C436 0.931 . S
H453 C441 0.930 . S
H454 C442 0.956 . S
H455 C442 0.961 . S
H456 C442 0.961 . S
H457 C443 0.958 . S
H458 C443 0.961 . S
H459 C443 0.960 . S
C460 C461 1.391 . S
C460 C462 1.394 . S
C460 H476 0.931 . S
C461 C460 1.391 . S
C461 C465 1.376 . S
C462 C460 1.394 . S
C462 C463 1.369 . S
C462 C466 1.531 . S
C463 C462 1.369 . S
C463 C464 1.411 . S
C463 C471 1.503 . S
C464 C463 1.411 . S
C464 C465 1.394 . S
C464 C467 1.508 1_656 S
C465 C461 1.376 . S
C465 C464 1.394 . S
C465 H477 0.929 1_556 S
C466 C462 1.531 . S
C466 H478 0.960 . S
C466 H479 0.962 . S
C466 H480 0.960 . S
C467 C464 1.508 1_454 S
C467 H481 0.961 . S
C467 H482 0.961 1_554 S
C467 H483 0.961 1_554 S
C468 C469 1.370 1_655 S
C468 C470 1.363 . S
C468 H484 0.931 . S
C469 C468 1.370 1_455 S
C469 C473 1.408 . S
C470 C468 1.363 . S
C470 C471 1.370 . S
C470 C474 1.524 . S
C471 C463 1.503 . S
C471 C470 1.370 . S
C471 C472 1.403 1_655 S
C472 C471 1.403 1_455 S
C472 C473 1.404 . S
C472 C475 1.539 . S
C473 C469 1.408 . S
C473 C472 1.404 . S
C473 H485 0.930 . S
C474 C470 1.524 . S
C474 H486 0.956 . S
C474 H487 0.961 . S
C474 H488 0.961 . S
C475 C472 1.539 . S
C475 H489 0.958 . S
C475 H490 0.961 . S
C475 H491 0.960 . S
H476 C460 0.931 . S
H477 C465 0.929 1_554 S
H478 C466 0.960 . S
H479 C466 0.962 . S
H480 C466 0.960 . S
H481 C467 0.961 . S
H482 C467 0.961 1_556 S
H483 C467 0.961 1_556 S
H484 C468 0.931 . S
H485 C473 0.930 . S
H486 C474 0.956 . S
H487 C474 0.961 . S
H488 C474 0.961 . S
H489 C475 0.958 . S
H490 C475 0.961 . S
H491 C475 0.960 . S
C492 C493 1.391 . S
C492 C494 1.394 . S
C492 H508 0.931 . S
C493 C492 1.391 . S
C493 C497 1.376 . S
C494 C492 1.394 . S
C494 C495 1.369 . S
C494 C498 1.531 . S
C495 C494 1.369 . S
C495 C496 1.410 . S
C495 C503 1.503 . S
C496 C495 1.410 . S
C496 C497 1.392 . S
C496 C499 1.514 . S
C497 C493 1.376 . S
C497 C496 1.392 . S
C497 H509 0.929 . S
C498 C494 1.531 . S
C498 H510 0.960 . S
C498 H511 0.962 . S
C498 H512 0.960 . S
C499 C496 1.514 . S
C499 H513 0.961 . S
C499 H514 0.962 . S
C499 H515 0.956 1_455 S
C500 C501 1.370 . S
C500 C502 1.363 . S
C500 H516 0.931 . S
C501 C500 1.370 . S
C501 C505 1.408 1_455 S
C502 C500 1.363 . S
C502 C503 1.370 . S
C502 C506 1.524 . S
C503 C495 1.503 . S
C503 C502 1.370 . S
C503 C504 1.371 1_455 S
C504 C503 1.371 1_655 S
C504 C505 1.415 . S
C504 C507 1.564 . S
C505 C501 1.408 1_655 S
C505 C504 1.415 . S
C505 H517 0.930 . S
C506 C502 1.524 . S
C506 H518 0.956 . S
C506 H519 0.961 . S
C506 H520 0.961 . S
C507 C504 1.564 . S
C507 H521 0.958 . S
C507 H522 0.961 . S
C507 H523 0.960 . S
H508 C492 0.931 . S
H509 C497 0.929 . S
H510 C498 0.960 . S
H511 C498 0.962 . S
H512 C498 0.960 . S
H513 C499 0.961 . S
H514 C499 0.962 . S
H515 C499 0.956 1_655 S
H516 C500 0.931 . S
H517 C505 0.930 . S
H518 C506 0.956 . S
H519 C506 0.961 . S
H520 C506 0.961 . S
H521 C507 0.958 . S
H522 C507 0.961 . S
H523 C507 0.960 . S
C524 C525 1.391 . S
C524 C526 1.394 . S
C524 H540 0.931 . S
C525 C524 1.391 . S
C525 C529 1.376 . S
C526 C524 1.394 . S
C526 C527 1.369 . S
C526 C530 1.531 . S
C527 C526 1.369 . S
C527 C528 1.410 . S
C527 C535 1.503 . S
C528 C527 1.410 . S
C528 C529 1.392 . S
C528 C531 1.507 1_545 S
C529 C525 1.376 . S
C529 C528 1.392 . S
C529 H541 0.929 . S
C530 C526 1.531 . S
C530 H542 0.960 . S
C530 H543 0.962 . S
C530 H544 0.960 . S
C531 C528 1.507 1_565 S
C531 H545 0.965 . S
C531 H546 0.964 . S
C531 H547 0.958 1_565 S
C532 C533 1.368 1_565 S
C532 C534 1.361 1_565 S
C532 H548 0.934 . S
C533 C532 1.368 1_545 S
C533 C537 1.408 . S
C534 C532 1.361 1_545 S
C534 C535 1.370 . S
C534 C538 1.524 1_545 S
C535 C527 1.503 . S
C535 C534 1.370 . S
C535 C536 1.403 . S
C536 C535 1.403 . S
C536 C537 1.404 . S
C536 C539 1.539 . S
C537 C533 1.408 . S
C537 C536 1.404 . S
C537 H549 0.930 . S
C538 C534 1.524 1_565 S
C538 H550 0.956 1_565 S
C538 H551 0.961 . S
C538 H552 0.961 . S
C539 C536 1.539 . S
C539 H553 0.958 . S
C539 H554 0.961 . S
C539 H555 0.960 . S
H540 C524 0.931 . S
H541 C529 0.929 . S
H542 C530 0.960 . S
H543 C530 0.962 . S
H544 C530 0.960 . S
H545 C531 0.965 . S
H546 C531 0.964 . S
H547 C531 0.958 1_545 S
H548 C532 0.934 . S
H549 C537 0.930 . S
H550 C538 0.956 1_545 S
H551 C538 0.961 . S
H552 C538 0.961 . S
H553 C539 0.958 . S
H554 C539 0.961 . S
H555 C539 0.960 . S
C556 C557 1.391 . S
C556 C558 1.394 . S
C556 H572 0.931 . S
C557 C556 1.391 . S
C557 C561 1.376 . S
C558 C556 1.394 . S
C558 C559 1.369 . S
C558 C562 1.531 . S
C559 C558 1.369 . S
C559 C560 1.410 . S
C559 C567 1.503 . S
C560 C559 1.410 . S
C560 C561 1.392 . S
C560 C563 1.511 . S
C561 C557 1.376 . S
C561 C560 1.392 . S
C561 H573 0.929 . S
C562 C558 1.531 . S
C562 H574 0.960 . S
C562 H575 0.962 . S
C562 H576 0.960 . S
C563 C560 1.511 . S
C563 H577 0.961 . S
C563 H578 0.961 . S
C563 H579 0.961 . S
C564 C565 1.370 . S
C564 C566 1.363 . S
C564 H580 0.931 . S
C565 C564 1.370 . S
C565 C569 1.408 . S
C566 C564 1.363 . S
C566 C567 1.370 . S
C566 C570 1.524 . S
C567 C559 1.503 . S
C567 C566 1.370 . S
C567 C568 1.403 . S
C568 C567 1.403 . S
C568 C569 1.404 . S
C568 C571 1.539 . S
C569 C565 1.408 . S
C569 C568 1.404 . S
C569 H581 0.930 . S
C570 C566 1.524 . S
C570 H582 0.956 . S
C570 H583 0.961 . S
C570 H584 0.961 . S
C571 C568 1.539 . S
C571 H585 0.958 . S
C571 H586 0.961 . S
C571 H587 0.960 . S
H572 C556 0.931 . S
H573 C561 0.929 . S
H574 C562 0.960 . S
H575 C562 0.962 . S
H576 C562 0.960 . S
H577 C563 0.961 . S
H578 C563 0.961 . S
H579 C563 0.961 . S
H580 C564 0.931 . S
H581 C569 0.930 . S
H582 C570 0.956 . S
H583 C570 0.961 . S
H584 C570 0.961 . S
H585 C571 0.958 . S
H586 C571 0.961 . S
H587 C571 0.960 . S
C588 C589 1.391 . S
C588 C590 1.394 . S
C588 H604 0.931 . S
C589 C588 1.391 . S
C589 C593 1.376 . S
C590 C588 1.394 . S
C590 C591 1.369 . S
C590 C594 1.531 . S
C591 C590 1.369 . S
C591 C592 1.410 . S
C591 C599 1.503 . S
C592 C591 1.410 . S
C592 C593 1.392 . S
C592 C595 1.511 . S
C593 C589 1.376 . S
C593 C592 1.392 . S
C593 H605 0.929 . S
C594 C590 1.531 . S
C594 H606 0.960 . S
C594 H607 0.962 . S
C594 H608 0.960 . S
C595 C592 1.511 . S
C595 H609 0.961 . S
C595 H610 0.961 . S
C595 H611 0.961 . S
C596 C597 1.370 . S
C596 C598 1.363 . S
C596 H612 0.931 . S
C597 C596 1.370 . S
C597 C601 1.408 . S
C598 C596 1.363 . S
C598 C599 1.370 . S
C598 C602 1.524 . S
C599 C591 1.503 . S
C599 C598 1.370 . S
C599 C600 1.403 . S
C600 C599 1.403 . S
C600 C601 1.404 . S
C600 C603 1.539 . S
C601 C597 1.408 . S
C601 C600 1.404 . S
C601 H613 0.930 . S
C602 C598 1.524 . S
C602 H614 0.956 . S
C602 H615 0.961 . S
C602 H616 0.961 . S
C603 C600 1.539 . S
C603 H617 0.958 . S
C603 H618 0.961 . S
C603 H619 0.960 . S
H604 C588 0.931 . S
H605 C593 0.929 . S
H606 C594 0.960 . S
H607 C594 0.962 . S
H608 C594 0.960 . S
H609 C595 0.961 . S
H610 C595 0.961 . S
H611 C595 0.961 . S
H612 C596 0.931 . S
H613 C601 0.930 . S
H614 C602 0.956 . S
H615 C602 0.961 . S
H616 C602 0.961 . S
H617 C603 0.958 . S
H618 C603 0.961 . S
H619 C603 0.960 . S
C620 C621 1.391 . S
C620 C622 1.394 . S
C620 H636 0.931 . S
C621 C620 1.391 . S
C621 C625 1.408 . S
C622 C620 1.394 . S
C622 C623 1.369 . S
C622 C626 1.531 . S
C623 C622 1.369 . S
C623 C624 1.410 1_655 S
C623 C631 1.503 . S
C624 C623 1.410 1_455 S
C624 C625 1.384 1_455 S
C624 C627 1.511 . S
C625 C621 1.408 . S
C625 C624 1.384 1_655 S
C625 H637 0.906 1_656 S
C626 C622 1.531 . S
C626 H638 0.960 . S
C626 H639 0.962 . S
C626 H640 0.960 . S
C627 C624 1.511 . S
C627 H641 0.961 . S
C627 H642 0.961 . S
C627 H643 0.961 1_556 S
C628 C629 1.370 . S
C628 C630 1.363 . S
C628 H644 0.931 . S
C629 C628 1.370 . S
C629 C633 1.408 . S
C630 C628 1.363 . S
C630 C631 1.370 1_455 S
C630 C634 1.524 . S
C631 C623 1.503 . S
C631 C630 1.370 1_655 S
C631 C632 1.403 . S
C632 C631 1.403 . S
C632 C633 1.404 1_655 S
C632 C635 1.539 1_556 S
C633 C629 1.408 . S
C633 C632 1.404 1_455 S
C633 H645 0.931 . S
C634 C630 1.524 . S
C634 H646 0.956 1_455 S
C634 H647 0.961 . S
C634 H648 0.961 . S
C635 C632 1.539 1_554 S
C635 H649 0.958 . S
C635 H650 0.961 . S
C635 H651 0.960 . S
H636 C620 0.931 . S
H637 C625 0.906 1_454 S
H638 C626 0.960 . S
H639 C626 0.962 . S
H640 C626 0.960 . S
H641 C627 0.961 . S
H642 C627 0.961 . S
H643 C627 0.961 1_554 S
H644 C628 0.931 . S
H645 C633 0.931 . S
H646 C634 0.956 1_655 S
H647 C634 0.961 . S
H648 C634 0.961 . S
H649 C635 0.958 . S
H650 C635 0.961 . S
H651 C635 0.960 . S
C652 C653 1.391 . S
C652 C654 1.394 . S
C652 H668 0.931 . S
C653 C652 1.391 . S
C653 C657 1.376 1_556 S
C654 C652 1.394 . S
C654 C655 1.369 . S
C654 C658 1.531 . S
C655 C654 1.369 . S
C655 C656 1.410 . S
C655 C663 1.503 . S
C656 C655 1.410 . S
C656 C657 1.392 1_556 S
C656 C659 1.511 1_556 S
C657 C653 1.376 1_554 S
C657 C656 1.392 1_554 S
C657 H669 0.929 . S
C658 C654 1.531 . S
C658 H670 0.960 . S
C658 H671 0.962 . S
C658 H672 0.960 . S
C659 C656 1.511 1_554 S
C659 H673 0.961 1_565 S
C659 H674 0.961 1_565 S
C659 H675 0.961 . S
C660 C661 1.370 . S
C660 C662 1.363 . S
C660 H676 0.931 . S
C661 C660 1.370 . S
C661 C665 1.408 1_545 S
C662 C660 1.363 . S
C662 C663 1.370 1_545 S
C662 C666 1.524 . S
C663 C655 1.503 . S
C663 C662 1.370 1_565 S
C663 C664 1.403 . S
C664 C663 1.403 . S
C664 C665 1.404 . S
C664 C667 1.539 . S
C665 C661 1.408 1_565 S
C665 C664 1.404 . S
C665 H677 0.930 . S
C666 C662 1.524 . S
C666 H678 0.956 . S
C666 H679 0.961 . S
C666 H680 0.961 . S
C667 C664 1.539 . S
C667 H681 0.958 . S
C667 H682 0.961 . S
C667 H683 0.960 . S
H668 C652 0.931 . S
H669 C657 0.929 . S
H670 C658 0.960 . S
H671 C658 0.962 . S
H672 C658 0.960 . S
H673 C659 0.961 1_545 S
H674 C659 0.961 1_545 S
H675 C659 0.961 . S
H676 C660 0.931 . S
H677 C665 0.930 . S
H678 C666 0.956 . S
H679 C666 0.961 . S
H680 C666 0.961 . S
H681 C667 0.958 . S
H682 C667 0.961 . S
H683 C667 0.960 . S
C684 C685 1.391 1_554 S
C684 C686 1.394 1_554 S
C684 H700 0.931 . S
C685 C684 1.391 1_556 S
C685 C689 1.376 . S
C686 C684 1.394 1_556 S
C686 C687 1.369 . S
C686 C690 1.531 1_556 S
C687 C686 1.369 . S
C687 C688 1.410 . S
C687 C695 1.503 . S
C688 C687 1.410 . S
C688 C689 1.392 . S
C688 C691 1.511 . S
C689 C685 1.376 . S
C689 C688 1.392 . S
C689 H701 0.929 . S
C690 C686 1.531 1_554 S
C690 H702 0.960 . S
C690 H703 0.962 . S
C690 H704 0.960 . S
C691 C688 1.511 . S
C691 H705 0.961 . S
C691 H706 0.961 . S
C691 H707 0.961 . S
C692 C693 1.370 . S
C692 C694 1.363 . S
C692 H708 0.931 . S
C693 C692 1.370 . S
C693 C697 1.408 . S
C694 C692 1.363 . S
C694 C695 1.370 . S
C694 C698 1.524 . S
C695 C687 1.503 . S
C695 C694 1.370 . S
C695 C696 1.403 . S
C696 C695 1.403 . S
C696 C697 1.404 . S
C696 C699 1.539 . S
C697 C693 1.408 . S
C697 C696 1.404 . S
C697 H709 0.930 . S
C698 C694 1.524 . S
C698 H710 0.956 . S
C698 H711 0.961 . S
C698 H712 0.961 . S
C699 C696 1.539 . S
C699 H713 0.958 . S
C699 H714 0.961 . S
C699 H715 0.960 . S
H700 C684 0.931 . S
H701 C689 0.929 . S
H702 C690 0.960 . S
H703 C690 0.962 . S
H704 C690 0.960 . S
H705 C691 0.961 . S
H706 C691 0.961 . S
H707 C691 0.961 . S
H708 C692 0.931 . S
H709 C697 0.930 . S
H710 C698 0.956 . S
H711 C698 0.961 . S
H712 C698 0.961 . S
H713 C699 0.958 . S
H714 C699 0.961 . S
H715 C699 0.960 . S
C716 C717 1.391 . S
C716 C718 1.394 . S
C716 H732 0.931 . S
C717 C716 1.391 . S
C717 C721 1.376 1_556 S
C718 C716 1.394 . S
C718 C719 1.369 . S
C718 C722 1.531 . S
C719 C718 1.369 . S
C719 C720 1.410 . S
C719 C727 1.503 . S
C720 C719 1.410 . S
C720 C721 1.392 1_556 S
C720 C723 1.511 1_556 S
C721 C717 1.376 1_554 S
C721 C720 1.392 1_554 S
C721 H733 0.929 . S
C722 C718 1.531 . S
C722 H734 0.960 . S
C722 H735 0.962 . S
C722 H736 0.960 . S
C723 C720 1.511 1_554 S
C723 H737 0.961 . S
C723 H738 0.961 . S
C723 H739 0.961 . S
C724 C725 1.370 . S
C724 C726 1.363 . S
C724 H740 0.931 . S
C725 C724 1.370 . S
C725 C729 1.408 . S
C726 C724 1.363 . S
C726 C727 1.370 . S
C726 C730 1.524 . S
C727 C719 1.503 . S
C727 C726 1.370 . S
C727 C728 1.403 . S
C728 C727 1.403 . S
C728 C729 1.404 . S
C728 C731 1.539 . S
C729 C725 1.408 . S
C729 C728 1.404 . S
C729 H741 0.930 . S
C730 C726 1.524 . S
C730 H742 0.956 . S
C730 H743 0.961 . S
C730 H744 0.961 . S
C731 C728 1.539 . S
C731 H745 0.958 . S
C731 H746 0.961 . S
C731 H747 0.960 . S
H732 C716 0.931 . S
H733 C721 0.929 . S
H734 C722 0.960 . S
H735 C722 0.962 . S
H736 C722 0.960 . S
H737 C723 0.961 . S
H738 C723 0.961 . S
H739 C723 0.961 . S
H740 C724 0.931 . S
H741 C729 0.930 . S
H742 C730 0.956 . S
H743 C730 0.961 . S
H744 C730 0.961 . S
H745 C731 0.958 . S
H746 C731 0.961 . S
H747 C731 0.960 . S
C748 C749 1.391 . S
C748 C750 1.394 1_554 S
C748 H764 0.931 . S
C749 C748 1.391 . S
C749 C753 1.376 . S
C750 C748 1.394 1_556 S
C750 C751 1.369 1_556 S
C750 C754 1.531 . S
C751 C750 1.369 1_554 S
C751 C752 1.410 . S
C751 C759 1.503 1_554 S
C752 C751 1.410 . S
C752 C753 1.392 . S
C752 C755 1.511 . S
C753 C749 1.376 . S
C753 C752 1.392 . S
C753 H765 0.929 . S
C754 C750 1.531 . S
C754 H766 0.960 . S
C754 H767 0.962 . S
C754 H768 0.960 . S
C755 C752 1.511 . S
C755 H769 0.961 . S
C755 H770 0.961 . S
C755 H771 0.961 . S
C756 C757 1.370 . S
C756 C758 1.363 . S
C756 H772 0.943 . S
C757 C756 1.370 . S
C757 C761 1.408 . S
C758 C756 1.363 . S
C758 C759 1.370 . S
C758 C762 1.545 1_556 S
C759 C751 1.503 1_556 S
C759 C758 1.370 . S
C759 C760 1.403 . S
C760 C759 1.403 . S
C760 C761 1.404 . S
C760 C763 1.539 . S
C761 C757 1.408 . S
C761 C760 1.404 . S
C761 H773 0.930 . S
C762 C758 1.545 1_554 S
C762 H774 0.941 1_455 S
C762 H775 0.977 . S
C762 H776 0.939 1_455 S
C763 C760 1.539 . S
C763 H777 0.958 . S
C763 H778 0.961 . S
C763 H779 0.960 . S
H764 C748 0.931 . S
H765 C753 0.929 . S
H766 C754 0.960 . S
H767 C754 0.962 . S
H768 C754 0.960 . S
H769 C755 0.961 . S
H770 C755 0.961 . S
H771 C755 0.961 . S
H772 C756 0.943 . S
H773 C761 0.930 . S
H774 C762 0.941 1_655 S
H775 C762 0.977 . S
H776 C762 0.939 1_655 S
H777 C763 0.958 . S
H778 C763 0.961 . S
H779 C763 0.960 . S
C780 C781 1.391 . S
C780 C782 1.394 . S
C780 H796 0.931 . S
C781 C780 1.391 . S
C781 C785 1.376 . S
C782 C780 1.394 . S
C782 C783 1.369 . S
C782 C786 1.531 1_554 S
C783 C782 1.369 . S
C783 C784 1.410 . S
C783 C791 1.503 1_554 S
C784 C783 1.410 . S
C784 C785 1.392 . S
C784 C787 1.511 . S
C785 C781 1.376 . S
C785 C784 1.392 . S
C785 H797 0.929 . S
C786 C782 1.531 1_556 S
C786 H798 0.960 . S
C786 H799 0.962 . S
C786 H800 0.960 . S
C787 C784 1.511 . S
C787 H801 0.961 1_545 S
C787 H802 0.961 1_545 S
C787 H803 0.961 . S
C788 C789 1.370 . S
C788 C790 1.363 . S
C788 H804 0.931 . S
C789 C788 1.370 . S
C789 C793 1.408 . S
C790 C788 1.363 . S
C790 C791 1.370 . S
C790 C794 1.524 . S
C791 C783 1.503 1_556 S
C791 C790 1.370 . S
C791 C792 1.402 1_556 S
C792 C791 1.402 1_554 S
C792 C793 1.401 1_554 S
C792 C795 1.543 . S
C793 C789 1.408 . S
C793 C792 1.401 1_556 S
C793 H805 0.930 . S
C794 C790 1.524 . S
C794 H806 0.956 . S
C794 H807 0.961 . S
C794 H808 0.961 . S
C795 C792 1.543 . S
C795 H809 0.958 . S
C795 H810 0.961 . S
C795 H811 0.960 . S
H796 C780 0.931 . S
H797 C785 0.929 . S
H798 C786 0.960 . S
H799 C786 0.962 . S
H800 C786 0.960 . S
H801 C787 0.961 1_565 S
H802 C787 0.961 1_565 S
H803 C787 0.961 . S
H804 C788 0.931 . S
H805 C793 0.930 . S
H806 C794 0.956 . S
H807 C794 0.961 . S
H808 C794 0.961 . S
H809 C795 0.958 . S
H810 C795 0.961 . S
H811 C795 0.960 . S
C812 C813 1.391 . S
C812 C814 1.394 . S
C812 H828 0.931 . S
C813 C812 1.391 . S
C813 C817 1.376 . S
C814 C812 1.394 . S
C814 C815 1.369 . S
C814 C818 1.531 . S
C815 C814 1.369 . S
C815 C816 1.410 . S
C815 C823 1.503 1_554 S
C816 C815 1.410 . S
C816 C817 1.392 . S
C816 C819 1.511 1_554 S
C817 C813 1.376 . S
C817 C816 1.392 . S
C817 H829 0.929 . S
C818 C814 1.531 . S
C818 H830 0.960 1_554 S
C818 H831 0.962 . S
C818 H832 0.960 . S
C819 C816 1.511 1_556 S
C819 H833 0.961 1_556 S
C819 H834 0.961 . S
C819 H835 0.961 . S
C820 C821 1.370 . S
C820 C822 1.363 . S
C820 H836 0.931 . S
C821 C820 1.370 . S
C821 C825 1.408 . S
C822 C820 1.363 . S
C822 C823 1.370 . S
C822 C826 1.524 1_556 S
C823 C815 1.503 1_556 S
C823 C822 1.370 . S
C823 C824 1.403 . S
C824 C823 1.403 . S
C824 C825 1.404 . S
C824 C827 1.539 . S
C825 C821 1.408 . S
C825 C824 1.404 . S
C825 H837 0.930 . S
C826 C822 1.524 1_554 S
C826 H838 0.956 . S
C826 H839 0.961 . S
C826 H840 0.961 . S
C827 C824 1.539 . S
C827 H841 0.958 . S
C827 H842 0.961 . S
C827 H843 0.960 . S
H828 C812 0.931 . S
H829 C817 0.929 . S
H830 C818 0.960 1_556 S
H831 C818 0.962 . S
H832 C818 0.960 . S
H833 C819 0.961 1_554 S
H834 C819 0.961 . S
H835 C819 0.961 . S
H836 C820 0.931 . S
H837 C825 0.930 . S
H838 C826 0.956 . S
H839 C826 0.961 . S
H840 C826 0.961 . S
H841 C827 0.958 . S
H842 C827 0.961 . S
H843 C827 0.960 . S
C844 C845 1.391 . S
C844 C846 1.394 . S
C844 H860 0.931 . S
C845 C844 1.391 . S
C845 C849 1.376 . S
C846 C844 1.394 . S
C846 C847 1.369 . S
C846 C850 1.531 . S
C847 C846 1.369 . S
C847 C848 1.410 1_554 S
C847 C855 1.503 1_554 S
C848 C847 1.410 1_556 S
C848 C849 1.392 1_556 S
C848 C851 1.511 . S
C849 C845 1.376 . S
C849 C848 1.392 1_554 S
C849 H861 0.929 . S
C850 C846 1.531 . S
C850 H862 0.960 . S
C850 H863 0.962 . S
C850 H864 0.960 . S
C851 C848 1.511 . S
C851 H865 0.961 . S
C851 H866 0.961 . S
C851 H867 0.961 . S
C852 C853 1.370 . S
C852 C854 1.363 . S
C852 H868 0.931 . S
C853 C852 1.370 . S
C853 C857 1.408 . S
C854 C852 1.363 . S
C854 C855 1.370 . S
C854 C858 1.524 . S
C855 C847 1.503 1_556 S
C855 C854 1.370 . S
C855 C856 1.403 . S
C856 C855 1.403 . S
C856 C857 1.404 . S
C856 C859 1.539 . S
C857 C853 1.408 . S
C857 C856 1.404 . S
C857 H869 0.930 . S
C858 C854 1.524 . S
C858 H870 0.956 1_556 S
C858 H871 0.961 . S
C858 H872 0.961 . S
C859 C856 1.539 . S
C859 H873 0.958 1_556 S
C859 H874 0.961 . S
C859 H875 0.960 . S
H860 C844 0.931 . S
H861 C849 0.929 . S
H862 C850 0.960 . S
H863 C850 0.962 . S
H864 C850 0.960 . S
H865 C851 0.961 . S
H866 C851 0.961 . S
H867 C851 0.961 . S
H868 C852 0.931 . S
H869 C857 0.930 . S
H870 C858 0.956 1_554 S
H871 C858 0.961 . S
H872 C858 0.961 . S
H873 C859 0.958 1_554 S
H874 C859 0.961 . S
H875 C859 0.960 . S
C876 C877 1.391 . S
C876 C878 1.394 . S
C876 H892 0.931 . S
C877 C876 1.391 . S
C877 C881 1.358 1_655 S
C878 C876 1.394 . S
C878 C879 1.369 . S
C878 C882 1.531 . S
C879 C878 1.369 . S
C879 C880 1.410 1_655 S
C879 C887 1.503 . S
C880 C879 1.410 1_455 S
C880 C881 1.396 . S
C880 C883 1.511 . S
C881 C877 1.358 1_455 S
C881 C880 1.396 . S
C881 H893 0.943 . S
C882 C878 1.531 . S
C882 H894 0.960 . S
C882 H895 0.962 . S
C882 H896 0.960 . S
C883 C880 1.511 . S
C883 H897 0.961 . S
C883 H898 0.961 . S
C883 H899 0.961 . S
C884 C885 1.370 . S
C884 C886 1.363 . S
C884 H900 0.931 . S
C885 C884 1.370 . S
C885 C889 1.407 1_655 S
C886 C884 1.363 . S
C886 C887 1.370 . S
C886 C890 1.524 . S
C887 C879 1.503 . S
C887 C886 1.370 . S
C887 C888 1.403 . S
C888 C887 1.403 . S
C888 C889 1.403 1_655 S
C888 C891 1.539 1_655 S
C889 C885 1.407 1_455 S
C889 C888 1.403 1_455 S
C889 H901 0.931 . S
C890 C886 1.524 . S
C890 H902 0.956 . S
C890 H903 0.961 . S
C890 H904 0.961 . S
C891 C888 1.539 1_455 S
C891 H905 0.958 1_455 S
C891 H906 0.961 . S
C891 H907 0.960 . S
H892 C876 0.931 . S
H893 C881 0.943 . S
H894 C882 0.960 . S
H895 C882 0.962 . S
H896 C882 0.960 . S
H897 C883 0.961 . S
H898 C883 0.961 . S
H899 C883 0.961 . S
H900 C884 0.931 . S
H901 C889 0.931 . S
H902 C890 0.956 . S
H903 C890 0.961 . S
H904 C890 0.961 . S
H905 C891 0.958 1_655 S
H906 C891 0.961 . S
H907 C891 0.960 . S
C908 C909 1.391 . S
C908 C910 1.394 . S
C908 H924 0.931 . S
C909 C908 1.391 . S
C909 C913 1.376 . S
C910 C908 1.394 . S
C910 C911 1.369 . S
C910 C914 1.531 . S
C911 C910 1.369 . S
C911 C912 1.410 . S
C911 C919 1.503 . S
C912 C911 1.410 . S
C912 C913 1.392 . S
C912 C915 1.511 . S
C913 C909 1.376 . S
C913 C912 1.392 . S
C913 H925 0.929 . S
C914 C910 1.531 . S
C914 H926 0.960 . S
C914 H927 0.962 . S
C914 H928 0.960 . S
C915 C912 1.511 . S
C915 H929 0.961 1_565 S
C915 H930 0.961 1_565 S
C915 H931 0.961 . S
C916 C917 1.370 1_545 S
C916 C918 1.363 . S
C916 H932 0.931 . S
C917 C916 1.370 1_565 S
C917 C921 1.408 . S
C918 C916 1.363 . S
C918 C919 1.370 1_545 S
C918 C922 1.524 . S
C919 C911 1.503 . S
C919 C918 1.370 1_565 S
C919 C920 1.403 . S
C920 C919 1.403 . S
C920 C921 1.404 . S
C920 C923 1.539 . S
C921 C917 1.408 . S
C921 C920 1.404 . S
C921 H933 0.930 . S
C922 C918 1.524 . S
C922 H934 0.956 . S
C922 H935 0.961 . S
C922 H936 0.961 . S
C923 C920 1.539 . S
C923 H937 0.958 . S
C923 H938 0.961 . S
C923 H939 0.960 . S
H924 C908 0.931 . S
H925 C913 0.929 . S
H926 C914 0.960 . S
H927 C914 0.962 . S
H928 C914 0.960 . S
H929 C915 0.961 1_545 S
H930 C915 0.961 1_545 S
H931 C915 0.961 . S
H932 C916 0.931 . S
H933 C921 0.930 . S
H934 C922 0.956 . S
H935 C922 0.961 . S
H936 C922 0.961 . S
H937 C923 0.958 . S
H938 C923 0.961 . S
H939 C923 0.960 . S
C940 C941 1.391 . S
C940 C942 1.394 . S
C940 H956 0.931 . S
C941 C940 1.391 . S
C941 C945 1.376 . S
C942 C940 1.394 . S
C942 C943 1.369 . S
C942 C946 1.531 . S
C943 C942 1.369 . S
C943 C944 1.410 . S
C943 C951 1.503 . S
C944 C943 1.410 . S
C944 C945 1.392 . S
C944 C947 1.511 . S
C945 C941 1.376 . S
C945 C944 1.392 . S
C945 H957 0.929 . S
C946 C942 1.531 . S
C946 H958 0.960 . S
C946 H959 0.962 . S
C946 H960 0.960 . S
C947 C944 1.511 . S
C947 H961 0.961 . S
C947 H962 0.961 . S
C947 H963 0.961 . S
C948 C949 1.370 . S
C948 C950 1.363 . S
C948 H964 0.931 . S
C949 C948 1.370 . S
C949 C953 1.408 . S
C950 C948 1.363 . S
C950 C951 1.370 . S
C950 C954 1.524 . S
C951 C943 1.503 . S
C951 C950 1.370 . S
C951 C952 1.403 . S
C952 C951 1.403 . S
C952 C953 1.404 . S
C952 C955 1.539 . S
C953 C949 1.408 . S
C953 C952 1.404 . S
C953 H965 0.930 . S
C954 C950 1.524 . S
C954 H966 0.956 . S
C954 H967 0.961 . S
C954 H968 0.961 . S
C955 C952 1.539 . S
C955 H969 0.958 . S
C955 H970 0.961 . S
C955 H971 0.960 . S
H956 C940 0.931 . S
H957 C945 0.929 . S
H958 C946 0.960 . S
H959 C946 0.962 . S
H960 C946 0.960 . S
H961 C947 0.961 . S
H962 C947 0.961 . S
H963 C947 0.961 . S
H964 C948 0.931 . S
H965 C953 0.930 . S
H966 C954 0.956 . S
H967 C954 0.961 . S
H968 C954 0.961 . S
H969 C955 0.958 . S
H970 C955 0.961 . S
H971 C955 0.960 . S
C972 C973 1.391 . S
C972 C974 1.394 . S
C972 H988 0.931 . S
C973 C972 1.391 . S
C973 C977 1.376 . S
C974 C972 1.394 . S
C974 C975 1.369 . S
C974 C978 1.531 . S
C975 C974 1.369 . S
C975 C976 1.410 . S
C975 C983 1.503 . S
C976 C975 1.410 . S
C976 C977 1.392 . S
C976 C979 1.511 . S
C977 C973 1.376 . S
C977 C976 1.392 . S
C977 H989 0.929 . S
C978 C974 1.531 . S
C978 H990 0.960 . S
C978 H991 0.962 . S
C978 H992 0.960 . S
C979 C976 1.511 . S
C979 H993 0.961 . S
C979 H994 0.961 . S
C979 H995 0.961 . S
C980 C981 1.370 . S
C980 C982 1.363 . S
C980 H996 0.931 . S
C981 C980 1.370 . S
C981 C985 1.408 . S
C982 C980 1.363 . S
C982 C983 1.370 . S
C982 C986 1.524 . S
C983 C975 1.503 . S
C983 C982 1.370 . S
C983 C984 1.403 . S
C984 C983 1.403 . S
C984 C985 1.404 . S
C984 C987 1.539 . S
C985 C981 1.408 . S
C985 C984 1.404 . S
C985 H997 0.930 . S
C986 C982 1.524 . S
C986 H998 0.956 . S
C986 H999 0.961 . S
C986 H1000 0.961 . S
C987 C984 1.539 . S
C987 H1001 0.958 . S
C987 H1002 0.961 . S
C987 H1003 0.960 . S
H988 C972 0.931 . S
H989 C977 0.929 . S
H990 C978 0.960 . S
H991 C978 0.962 . S
H992 C978 0.960 . S
H993 C979 0.961 . S
H994 C979 0.961 . S
H995 C979 0.961 . S
H996 C980 0.931 . S
H997 C985 0.930 . S
H998 C986 0.956 . S
H999 C986 0.961 . S
H1000 C986 0.961 . S
H1001 C987 0.958 . S
H1002 C987 0.961 . S
H1003 C987 0.960 . S
C237 C125 1.466 . S
C245 C167 1.415 . S
C277 C191 1.457 . S
C269 C144 1.547 . S
C309 C212 1.438 . S
C301 C87 1.509 . S
C341 C230 1.416 . S
C333 C106 1.468 . S
C373 C170 1.362 . S
C365 C49 1.528 1_556 S
C397 C68 1.471 1_556 S
C405 C188 1.377 . S
C429 C11 1.516 1_556 S
C437 C209 1.380 . S
C461 C30 1.525 1_556 S
C469 C233 1.353 . S
C501 C168 0.704 . S
C493 C97 0.742 . S
C533 C186 0.696 . S
C525 C116 0.797 . S
C565 C207 0.694 . S
C557 C135 0.775 . S
C589 C78 0.640 . S
C597 C231 0.744 . S
C621 C21 0.761 1_556 S
C629 C166 0.844 . S
C661 C190 0.843 . S
C653 C40 0.823 1_556 S
C693 C211 0.810 . S
C685 C59 0.822 1_556 S
C717 C2 0.836 1_556 S
C725 C229 0.841 . S
C749 C101 1.622 . S
C757 C169 1.569 . S
C781 C120 1.585 . S
C789 C187 1.567 . S
C821 C208 1.552 . S
C813 C139 1.627 . S
C853 C232 1.541 . S
C845 C82 1.596 . S
C877 C25 1.488 . S
C885 C165 1.399 1_655 S
C917 C189 1.421 1_565 S
C909 C44 1.479 . S
C949 C210 1.432 . S
C941 C63 1.440 . S
C973 C6 1.478 . S
C981 C228 1.422 . S
