# Generated by pormake.
# Topology anh, (6,3)-cn, num edge types: 1
# Building blocks:
#     Node 0, Type 0, BuildingBlock: NUHQIS_clean_sbu_0, # of connection points: 6
#     Node 1, Type 0, BuildingBlock: NUHQIS_clean_sbu_0, # of connection points: 6
#     Node 2, Type 0, BuildingBlock: NUHQIS_clean_sbu_0, # of connection points: 6
#     Node 3, Type 1, BuildingBlock: QEWDON_clean_linker_0, # of connection points: 3
#     Node 4, Type 1, BuildingBlock: QEWDON_clean_linker_0, # of connection points: 3
#     Node 5, Type 1, BuildingBlock: QEWDON_clean_linker_0, # of connection points: 3
#     Node 6, Type 1, BuildingBlock: QEWDON_clean_linker_0, # of connection points: 3
#     Node 7, Type 1, BuildingBlock: QEWDON_clean_linker_0, # of connection points: 3
#     Node 8, Type 1, BuildingBlock: QEWDON_clean_linker_0, # of connection points: 3
#     Edge 9, Type (0, 1), BuildingBlock: TEMPAE_clean_linker_10, # of connection points: 2
#     Edge 10, Type (0, 1), BuildingBlock: TEMPAE_clean_linker_10, # of connection points: 2
#     Edge 11, Type (0, 1), BuildingBlock: TEMPAE_clean_linker_10, # of connection points: 2
#     Edge 12, Type (0, 1), BuildingBlock: TEMPAE_clean_linker_10, # of connection points: 2
#     Edge 13, Type (0, 1), BuildingBlock: TEMPAE_clean_linker_10, # of connection points: 2
#     Edge 14, Type (0, 1), BuildingBlock: TEMPAE_clean_linker_10, # of connection points: 2
#     Edge 15, Type (0, 1), BuildingBlock: TEMPAE_clean_linker_10, # of connection points: 2
#     Edge 16, Type (0, 1), BuildingBlock: TEMPAE_clean_linker_10, # of connection points: 2
#     Edge 17, Type (0, 1), BuildingBlock: TEMPAE_clean_linker_10, # of connection points: 2
#     Edge 18, Type (0, 1), BuildingBlock: TEMPAE_clean_linker_10, # of connection points: 2
#     Edge 19, Type (0, 1), BuildingBlock: TEMPAE_clean_linker_10, # of connection points: 2
#     Edge 20, Type (0, 1), BuildingBlock: TEMPAE_clean_linker_10, # of connection points: 2
#     Edge 21, Type (0, 1), BuildingBlock: TEMPAE_clean_linker_10, # of connection points: 2
#     Edge 22, Type (0, 1), BuildingBlock: TEMPAE_clean_linker_10, # of connection points: 2
#     Edge 23, Type (0, 1), BuildingBlock: TEMPAE_clean_linker_10, # of connection points: 2
#     Edge 24, Type (0, 1), BuildingBlock: TEMPAE_clean_linker_10, # of connection points: 2
#     Edge 25, Type (0, 1), BuildingBlock: TEMPAE_clean_linker_10, # of connection points: 2
#     Edge 26, Type (0, 1), BuildingBlock: TEMPAE_clean_linker_10, # of connection points: 2
# Relax obj value: 0.214
# Max RMSD: 0.136
# Mean RMSD: 0.120
data_MOF--net-anh--node1-NUHQIS_clean_sbu_0--node2-QEWDON_clean_linker_0--edge1-TEMPAE_clean_linker_10
_symmetry_space_group_name_H-M    P1
_symmetry_Int_Tables_number       1
_symmetry_cell_setting            triclinic
loop_
_symmetry_equiv_pos_as_xyz
'x, y, z'
_cell_length_a     32.677816
_cell_length_b     32.624703
_cell_length_c     49.308672
_cell_angle_alpha  92.742547
_cell_angle_beta   96.688822
_cell_angle_gamma 119.95917
loop_
_atom_site_label
_atom_site_type_symbol
_atom_site_fract_x
_atom_site_fract_y
_atom_site_fract_z
_atom_type_partial_charge
Tb0 Tb 0.17688 0.56911 0.15382 0.0
Eu1 Eu 0.11697 0.62239 0.15166 0.0
C2 C 0.14477 0.59274 0.2061 0.0
C3 C 1.06149 0.50492 0.15072 0.0
C4 C 0.28774 0.56956 0.16134 0.0
C5 C 0.36495 0.61539 0.19136 0.0
C6 C 0.31658 0.57957 0.18707 0.0
C7 C 0.30898 0.59441 0.13963 0.0
C8 C 0.35713 0.63003 0.14391 0.0
C9 C 0.38547 0.64167 0.16995 0.0
C10 C 0.23494 0.5396 0.15851 0.0
O11 O 0.1493 0.56152 0.10991 0.0
O12 O 0.13982 0.62626 0.11048 0.0
O13 O 0.19581 0.68173 0.16512 0.0
O14 O 0.23086 0.64288 0.14828 0.0
C15 C 0.14483 0.59391 0.09707 0.0
O16 O 1.06033 0.63495 0.13416 0.0
O17 O 0.11097 0.68017 0.17057 0.0
O18 O 1.10831 0.58955 0.19042 0.0
O19 O 0.18259 0.60013 0.19561 0.0
O20 O 1.10407 0.50865 0.15677 0.0
O21 O 1.05854 0.54267 0.14458 0.0
C22 C 0.23398 0.68302 0.15776 0.0
O23 O 0.21635 0.54629 0.17902 0.0
O24 O 0.21041 0.53718 0.13508 0.0
C25 C 1.0335 0.66763 0.16721 0.0
C26 C 0.95983 0.66958 0.19046 0.0
C27 C 1.00337 0.71192 0.18997 0.0
C28 C 1.0397 0.71088 0.17844 0.0
C29 C 0.99141 0.6248 0.16903 0.0
C30 C 0.95464 0.6258 0.18051 0.0
C31 C 1.07186 0.66891 0.15392 0.0
H32 H 0.38605 0.62313 0.21156 0.0
H33 H 0.30119 0.56116 0.2042 0.0
H34 H 0.28795 0.58812 0.11958 0.0
H35 H 0.37157 0.64997 0.12705 0.0
H36 H 1.00836 0.7464 0.1968 0.0
H37 H 1.0722 0.74418 0.17746 0.0
H38 H 0.98643 0.59087 0.16093 0.0
H39 H 0.92151 0.59267 0.18059 0.0
Tb40 Tb 0.71766 0.13608 0.4977 0.0
Eu41 Eu 0.60401 1.07349 0.48406 0.0
C42 C 0.65543 0.09962 0.54342 0.0
C43 C 0.66807 1.0211 0.49154 0.0
C44 C 0.82955 0.24793 0.51324 0.0
C45 C 0.84626 0.32074 0.54037 0.0
C46 C 0.83217 0.27231 0.53834 0.0
C47 C 0.84356 0.27364 0.49072 0.0
C48 C 0.8568 0.32156 0.49261 0.0
C49 C 0.85779 0.34576 0.51733 0.0
C50 C 0.80597 0.19517 0.50904 0.0
O51 O 0.69973 0.11045 0.45342 0.0
O52 O 0.62641 0.10355 0.44512 0.0
O53 O 0.6194 0.14932 0.49682 0.0
O54 O 0.69667 0.1899 0.48909 0.0
C55 C 0.66426 0.10774 0.43616 0.0
O56 O 0.53654 1.01986 0.45919 0.0
O57 O 0.53666 1.05445 0.49809 0.0
O58 O 0.62836 1.06253 0.52544 0.0
O59 O 0.68843 0.13838 0.53525 0.0
O60 O 0.70558 1.06313 0.50253 0.0
O61 O 0.62834 1.01871 0.47955 0.0
C62 C 0.65773 0.18994 0.49398 0.0
O63 O 0.78034 0.17195 0.52736 0.0
O64 O 0.78372 0.17522 0.4842 0.0
C65 C 0.48434 0.97223 0.4886 0.0
C66 C 0.43118 0.88398 0.50806 0.0
C67 C 0.47205 0.89423 0.49654 0.0
C68 C 0.4987 0.93821 0.48708 0.0
C69 C 0.44496 0.96295 0.50132 0.0
C70 C 0.41858 0.91916 0.51104 0.0
C71 C 0.51216 1.01858 0.47872 0.0
H72 H 0.84737 0.33828 0.55987 0.0
H73 H 0.82173 0.25363 0.55615 0.0
H74 H 0.84193 0.25609 0.47107 0.0
H75 H 0.86434 0.33895 0.47417 0.0
H76 H 0.4822 0.86752 0.49386 0.0
H77 H 0.52989 0.94515 0.47806 0.0
H78 H 0.43405 0.9892 0.50322 0.0
H79 H 0.38662 0.91174 0.51936 0.0
Tb80 Tb 0.71483 0.70888 0.81882 0.0
Eu81 Eu 0.66147 0.60308 0.83559 0.0
C82 C 0.71278 0.69543 0.87917 0.0
C83 C 0.77607 0.65563 0.82988 0.0
C84 C 0.71997 0.80631 0.78512 0.0
C85 C 0.6691 0.84091 0.78393 0.0
C86 C 0.70621 0.83622 0.7975 0.0
C87 C 0.69953 0.78549 0.75771 0.0
C88 C 0.66234 0.79006 0.74418 0.0
C89 C 0.6453 0.81596 0.75767 0.0
C90 C 0.74728 0.78938 0.80239 0.0
O91 O 0.66935 0.66154 0.78195 0.0
O92 O 0.67018 0.59435 0.79112 0.0
O93 O 0.60013 0.61657 0.8232 0.0
O94 O 0.64417 0.69795 0.82753 0.0
C95 C 0.66719 0.62181 0.77333 0.0
O96 O 0.60382 0.52897 0.82996 0.0
O97 O 0.65571 0.55782 0.86771 0.0
O98 O 0.67204 0.65601 0.87079 0.0
O99 O 0.74231 0.71561 0.8619 0.0
O100 O 0.77193 0.69009 0.81891 0.0
O101 O 0.73966 0.62134 0.83961 0.0
C102 C 0.60203 0.65792 0.82533 0.0
O103 O 0.73578 0.78106 0.82685 0.0
O104 O 0.75133 0.75511 0.79068 0.0
C105 C 0.61794 0.47546 0.8538 0.0
C106 C 0.60965 0.38552 0.84983 0.0
C107 C 0.64702 0.42389 0.8397 0.0
C108 C 0.65107 0.46866 0.84162 0.0
C109 C 0.58225 0.43813 0.86516 0.0
C110 C 0.5781 0.39342 0.86322 0.0
C111 C 0.61822 0.52028 0.85367 0.0
H112 H 0.65673 0.86116 0.79485 0.0
H113 H 0.72151 0.85293 0.81852 0.0
H114 H 0.70988 0.76296 0.74731 0.0
H115 H 0.64529 0.77135 0.72369 0.0
H116 H 0.67207 0.41884 0.82949 0.0
H117 H 0.67902 0.49746 0.83291 0.0
H118 H 0.5565 0.44309 0.87467 0.0
H119 H 0.54857 0.36446 0.87085 0.0
H120 H 0.68343 0.12376 0.2187 0.0
C121 C 0.65094 0.0908 0.21033 0.0
C122 C 0.62395 1.06042 0.22874 0.0
C123 C 0.63594 0.07977 0.1816 0.0
H124 H 0.55876 0.99798 0.23325 0.0
C125 C 0.58039 1.01837 0.21847 0.0
C126 C 0.56348 1.00303 0.19014 0.0
C127 C 0.59199 1.03458 0.17177 0.0
C128 C 0.66441 0.11699 0.16256 0.0
H129 H 0.58005 1.02346 0.14993 0.0
C130 C 0.71418 0.15565 0.16962 0.0
C131 C 0.73731 0.19013 0.15092 0.0
C132 C 0.63969 0.11552 0.13684 0.0
H133 H 0.60222 0.08936 0.1305 0.0
C134 C 0.66174 0.14876 0.1189 0.0
H135 H 0.73515 0.15859 0.18904 0.0
C136 C 0.70931 0.18517 0.12573 0.0
H137 H 0.72418 0.21033 0.11105 0.0
H138 H 0.64133 0.14658 0.09938 0.0
H139 H 0.65343 0.62098 0.55865 0.0
C140 C 0.65674 0.59162 0.55039 0.0
C141 C 0.65922 0.56053 0.56846 0.0
C142 C 0.65748 0.58465 0.52206 0.0
H143 H 0.66113 0.49671 0.57275 0.0
C144 C 0.66168 0.52094 0.55835 0.0
C145 C 0.66297 0.51117 0.53039 0.0
C146 C 0.66094 0.5438 0.51236 0.0
C147 C 0.65111 0.61791 0.50281 0.0
H148 H 0.6628 0.53755 0.49094 0.0
C149 C 0.66237 0.66643 0.51116 0.0
C150 C 0.65374 0.69445 0.49186 0.0
C151 C 0.63031 0.59921 0.4752 0.0
H152 H 0.61905 0.56289 0.46768 0.0
C153 C 0.62163 0.62592 0.45666 0.0
H154 H 0.67852 0.68271 0.53212 0.0
C155 C 0.63306 0.67237 0.46474 0.0
H156 H 0.6249 0.69111 0.44943 0.0
H157 H 0.60525 0.61011 0.43562 0.0
H158 H 0.19982 0.627 0.88493 0.0
C159 C 0.17167 0.63391 0.87729 0.0
C160 C 0.13931 0.631 0.89476 0.0
C161 C 0.16578 0.64173 0.84961 0.0
H162 H 1.07705 0.63587 0.89873 0.0
C163 C 1.10139 0.63812 0.88491 0.0
C164 C 1.09349 0.64715 0.85778 0.0
C165 C 0.12594 0.64837 0.84007 0.0
C166 C 0.19706 0.63631 0.83025 0.0
H167 H 0.12028 0.65483 0.81903 0.0
C168 C 0.24638 0.64769 0.83811 0.0
C169 C 0.27165 0.63788 0.81884 0.0
C170 C 0.17473 0.61473 0.80325 0.0
H171 H 0.1377 0.60387 0.7963 0.0
C172 C 0.19826 0.60398 0.78494 0.0
H173 H 0.26498 0.66451 0.8587 0.0
C174 C 0.24521 0.61472 0.79258 0.0
H175 H 0.26057 0.6038 0.7775 0.0
H176 H 0.17944 0.58621 0.76452 0.0
H177 H 1.02345 0.63943 0.38178 0.0
C178 C 1.05059 0.64814 0.3995 0.0
C179 C 1.09064 0.64372 0.39653 0.0
C180 C 1.04494 0.66244 0.4255 0.0
H181 H 0.15669 0.65229 0.41759 0.0
C182 C 0.12468 0.65356 0.41979 0.0
C183 C 0.11993 0.66903 0.44554 0.0
C184 C 1.08037 0.67368 0.4483 0.0
C185 C 1.00117 0.66322 0.4297 0.0
H186 H 1.07757 0.68676 0.46824 0.0
C187 C 0.97852 0.64226 0.45183 0.0
C188 C 0.93621 0.64058 0.45639 0.0
C189 C 0.9812 0.68336 0.41197 0.0
H190 H 0.99811 0.69995 0.39476 0.0
C191 C 0.93916 0.68231 0.41654 0.0
H192 H 0.99258 0.62467 0.46477 0.0
C193 C 0.91637 0.66056 0.4385 0.0
H194 H 0.88307 0.65863 0.44125 0.0
H195 H 0.9238 0.69772 0.40277 0.0
H196 H 0.45773 0.98018 0.69236 0.0
C197 C 0.46675 1.00485 0.7106 0.0
C198 C 0.50803 1.05005 0.71365 0.0
C199 C 0.4372 0.99114 0.73099 0.0
H200 H 0.55188 0.1167 0.73962 0.0
C201 C 0.51988 0.08168 0.73723 0.0
C202 C 0.49093 1.06854 0.75777 0.0
C203 C 0.44909 1.02361 0.75442 0.0
C204 C 0.39786 0.94108 0.72931 0.0
H205 H 0.42727 1.01327 0.77059 0.0
C206 C 0.40725 0.90466 0.72292 0.0
C207 C 0.37327 0.85691 0.72396 0.0
C208 C 0.35286 0.92906 0.73599 0.0
H209 H 0.34471 0.95659 0.74106 0.0
C210 C 0.31824 0.88116 0.73646 0.0
H211 H 0.44265 0.91373 0.719 0.0
C212 C 0.32861 0.84509 0.73091 0.0
H213 H 0.30242 0.80841 0.73253 0.0
H214 H 0.28376 0.87209 0.74184 0.0
H215 H 0.75511 0.88266 0.07315 0.0
C216 C 0.77296 0.8698 0.0872 0.0
C217 C 0.78648 0.83786 0.07714 0.0
C218 C 0.77871 0.882 0.11569 0.0
H219 H 0.81896 0.7962 0.08882 0.0
C220 C 0.80769 0.82028 0.09608 0.0
C221 C 0.81211 0.83118 0.12447 0.0
C222 C 0.79798 0.8623 0.13414 0.0
C223 C 0.75782 0.9089 0.12671 0.0
H224 H 0.80086 0.87031 0.15614 0.0
C225 C 0.72266 0.88684 0.14327 0.0
C226 C 0.70172 0.91065 0.15465 0.0
C227 C 0.77236 0.95557 0.12125 0.0
H228 H 0.79954 0.97316 0.10844 0.0
C229 C 0.75215 0.97997 0.13276 0.0
H230 H 0.71021 0.84999 0.14633 0.0
C231 C 0.71688 0.95767 0.14933 0.0
H232 H 0.70113 0.97688 0.15767 0.0
H233 H 0.76355 1.01611 0.12865 0.0
C234 C 0.45329 0.71607 0.19825 0.0
C235 C 0.43554 0.68251 0.17467 0.0
C236 C 0.49883 0.7574 0.20132 0.0
C237 C 0.52702 0.76524 0.18029 0.0
C238 C 0.51005 0.73051 0.15704 0.0
C239 C 0.46466 0.68963 0.15456 0.0
C240 C 0.51654 0.79292 0.22679 0.0
C241 C 0.53937 0.73705 0.13435 0.0
C242 C 0.61806 0.88395 0.16137 0.0
C243 C 0.66032 0.88332 0.16894 0.0
C244 C 0.57457 0.84798 0.16757 0.0
C245 C 0.57336 0.81045 0.18147 0.0
C246 C 0.61676 0.81295 0.19206 0.0
C247 C 0.65988 0.84972 0.18587 0.0
C248 C 0.5294 0.84744 0.15654 0.0
C249 C 0.61746 0.77408 0.20715 0.0
H250 H 0.43092 0.71093 0.21385 0.0
H251 H 0.4516 0.66339 0.13658 0.0
H252 H 0.54753 0.79364 0.23915 0.0
H253 H 0.5292 0.82936 0.22108 0.0
H254 H 0.4885 0.78405 0.23991 0.0
H255 H 0.52199 0.70562 0.11833 0.0
H256 H 0.54478 0.76877 0.12435 0.0
H257 H 0.57524 0.74343 0.143 0.0
H258 H 0.61806 0.90988 0.14841 0.0
H259 H 0.69283 0.8499 0.19241 0.0
H260 H 0.50499 0.83641 0.17194 0.0
H261 H 0.51111 0.82119 0.13778 0.0
H262 H 0.53666 0.88284 0.15106 0.0
H263 H 0.59037 0.76093 0.22106 0.0
H264 H 0.65325 0.78648 0.21937 0.0
H265 H 0.60872 0.74351 0.19195 0.0
C266 C 0.90136 0.42693 0.5022 0.0
C267 C 0.86887 0.39616 0.51823 0.0
C268 C 0.90663 0.47153 0.4988 0.0
C269 C 0.88025 0.48699 0.51274 0.0
C270 C 0.85098 0.45836 0.53109 0.0
C271 C 0.84486 0.41279 0.53326 0.0
C272 C 0.93908 0.50119 0.47927 0.0
C273 C 0.82482 0.475 0.54764 0.0
C274 C 0.93594 0.61539 0.50317 0.0
C275 C 0.91043 0.61088 0.47719 0.0
C276 C 0.92188 0.57606 0.51791 0.0
C277 C 0.88176 0.53168 0.50612 0.0
C278 C 0.85114 0.5298 0.4826 0.0
C279 C 0.86589 0.56977 0.46835 0.0
C280 C 0.95403 0.58048 0.54381 0.0
C281 C 0.80589 0.48408 0.47057 0.0
H282 H 0.92182 0.41555 0.49151 0.0
H283 H 0.81974 0.38963 0.54584 0.0
H284 H 0.91824 0.50793 0.4625 0.0
H285 H 0.9675 0.53627 0.49032 0.0
H286 H 0.95653 0.48361 0.46983 0.0
H287 H 0.81446 0.45534 0.56576 0.0
H288 H 0.84706 0.5137 0.5549 0.0
H289 H 0.79195 0.46906 0.53453 0.0
H290 H 0.96995 0.6478 0.51034 0.0
H291 H 0.84562 0.56667 0.44854 0.0
H292 H 0.98086 0.57145 0.5384 0.0
H293 H 0.9334 0.55571 0.55817 0.0
H294 H 0.97365 0.61751 0.55448 0.0
H295 H 0.81406 0.45563 0.46568 0.0
H296 H 0.78712 0.48817 0.45155 0.0
H297 H 0.78126 0.47244 0.48591 0.0
C298 C 0.59513 0.85297 0.74744 0.0
C299 C 0.59969 0.81254 0.74601 0.0
C300 C 0.55056 0.84909 0.73989 0.0
C301 C 0.50946 0.80353 0.73099 0.0
C302 C 0.5142 0.76279 0.72833 0.0
C303 C 0.5594 0.76787 0.73577 0.0
C304 C 0.54724 0.89367 0.74231 0.0
C305 C 0.47216 0.71362 0.71795 0.0
C306 C 0.40255 0.80924 0.74696 0.0
C307 C 0.38965 0.82243 0.7223 0.0
C308 C 0.43888 0.79807 0.74948 0.0
C309 C 0.46173 0.79925 0.72654 0.0
C310 C 0.44354 0.80537 0.70056 0.0
C311 C 0.4077 0.81729 0.69877 0.0
C312 C 0.45677 0.79189 0.77772 0.0
C313 C 0.46597 0.80534 0.67552 0.0
H314 H 0.62636 0.88759 0.75499 0.0
H315 H 0.56268 0.73639 0.73468 0.0
H316 H 0.52834 0.89606 0.72277 0.0
H317 H 0.52622 0.89225 0.75873 0.0
H318 H 0.58301 0.92658 0.74731 0.0
H319 H 0.47521 0.68637 0.72926 0.0
H320 H 0.43718 0.71041 0.71964 0.0
H321 H 0.47258 0.70517 0.69595 0.0
H322 H 0.38883 0.81368 0.7652 0.0
H323 H 0.39765 0.82776 0.67973 0.0
H324 H 0.47998 0.8275 0.78988 0.0
H325 H 0.47791 0.77399 0.77697 0.0
H326 H 0.42634 0.77111 0.78878 0.0
H327 H 0.5017 0.83817 0.67766 0.0
H328 H 0.44376 0.80418 0.6563 0.0
H329 H 0.47127 0.77434 0.67368 0.0
C330 C 0.87642 0.65089 0.17615 0.0
C331 C 0.91809 0.67335 0.19589 0.0
C332 C 0.84732 0.67093 0.17217 0.0
C333 C 0.861 0.71432 0.18813 0.0
C334 C 0.89644 0.73064 0.21178 0.0
C335 C 0.92466 0.70955 0.21556 0.0
C336 C 0.80754 0.65057 0.14777 0.0
C337 C 0.91005 0.77511 0.2303 0.0
C338 C 0.86922 0.8054 0.14135 0.0
C339 C 0.8276 0.80645 0.14372 0.0
C340 C 0.88144 0.77721 0.15683 0.0
C341 C 0.85082 0.74888 0.17496 0.0
C342 C 0.80963 0.75129 0.17829 0.0
C343 C 0.79871 0.78054 0.16273 0.0
C344 C 0.92619 0.77632 0.15281 0.0
C345 C 0.7767 0.72262 0.19778 0.0
H346 H 0.87012 0.62195 0.16129 0.0
H347 H 0.95569 0.72559 0.23168 0.0
H348 H 0.77723 0.65473 0.15227 0.0
H349 H 0.82123 0.67009 0.13001 0.0
H350 H 0.79418 0.6122 0.14173 0.0
H351 H 0.92916 0.77645 0.25079 0.0
H352 H 0.93418 0.80684 0.22075 0.0
H353 H 0.87796 0.77728 0.23306 0.0
H354 H 0.89167 0.8259 0.12682 0.0
H355 H 0.76643 0.7815 0.16452 0.0
H356 H 0.91646 0.74017 0.14382 0.0
H357 H 0.94969 0.78479 0.17288 0.0
H358 H 0.94704 0.8022 0.13894 0.0
H359 H 0.77172 0.68636 0.19727 0.0
H360 H 0.74102 0.71933 0.193 0.0
H361 H 0.79275 0.74076 0.21908 0.0
C362 C 0.37736 0.80036 0.48805 0.0
C363 C 0.39589 0.83445 0.51125 0.0
C364 C 0.33156 0.7603 0.48557 0.0
C365 C 0.30473 0.75418 0.50718 0.0
C366 C 0.3276 0.78288 0.53279 0.0
C367 C 0.37278 0.82392 0.53436 0.0
C368 C 0.3094 0.72921 0.45819 0.0
C369 C 0.30205 0.77382 0.55732 0.0
C370 C 0.18684 0.73757 0.47557 0.0
C371 C 0.16065 0.68836 0.46807 0.0
C372 C 0.23279 0.75942 0.49087 0.0
C373 C 0.25206 0.73078 0.49966 0.0
C374 C 0.22292 0.68048 0.49522 0.0
C375 C 0.17773 0.65972 0.47871 0.0
C376 C 0.26232 0.81334 0.49477 0.0
C377 C 0.24011 0.64833 0.50604 0.0
H378 H 0.39572 0.80809 0.47036 0.0
H379 H 0.38796 0.84964 0.55271 0.0
H380 H 0.29313 0.69114 0.46129 0.0
H381 H 0.28058 0.73456 0.44796 0.0
H382 H 0.33601 0.73728 0.44414 0.0
H383 H 0.32795 0.7857 0.57677 0.0
H384 H 0.28342 0.79439 0.55756 0.0
H385 H 0.27504 0.73543 0.5566 0.0
H386 H 0.17313 0.75935 0.46724 0.0
H387 H 0.15678 0.62139 0.47313 0.0
H388 H 0.29418 0.82561 0.4844 0.0
H389 H 0.27518 0.82683 0.51692 0.0
H390 H 0.24176 0.82986 0.4863 0.0
H391 H 0.2477 0.63143 0.48877 0.0
H392 H 0.21142 0.61906 0.51509 0.0
H393 H 0.27272 0.66761 0.5219 0.0
C394 C 0.58427 0.30362 0.86263 0.0
C395 C 0.59942 0.33626 0.84327 0.0
C396 C 0.56731 0.25512 0.85503 0.0
C397 C 0.56508 0.23921 0.82742 0.0
C398 C 0.58262 0.27245 0.8082 0.0
C399 C 0.59962 0.32055 0.8164 0.0
C400 C 0.54976 0.22083 0.87617 0.0
C401 C 0.58111 0.25694 0.77852 0.0
C402 C 0.55138 0.12485 0.79695 0.0
C403 C 0.50483 0.10321 0.78218 0.0
C404 C 0.5701 0.16693 0.81486 0.0
C405 C 0.54164 0.18779 0.81753 0.0
C406 C 0.49281 0.16291 0.80517 0.0
C407 C 0.47483 0.12055 0.78759 0.0
C408 C 0.62187 0.19167 0.82832 0.0
C409 C 0.46117 0.18381 0.80781 0.0
H410 H 0.58451 0.31581 0.88352 0.0
H411 H 0.6106 0.34546 0.80126 0.0
H412 H 0.51007 0.20113 0.87285 0.0
H413 H 0.5612 0.19417 0.87414 0.0
H414 H 0.56295 0.23963 0.89747 0.0
H415 H 0.59789 0.2876 0.76654 0.0
H416 H 0.59991 0.23663 0.77741 0.0
H417 H 0.5434 0.23297 0.76853 0.0
H418 H 0.57422 0.11075 0.79295 0.0
H419 H 0.43877 0.10351 0.77617 0.0
H420 H 0.62676 0.20865 0.8494 0.0
H421 H 0.64396 0.22019 0.81613 0.0
H422 H 0.63545 0.16653 0.8294 0.0
H423 H 0.42273 0.1569 0.80093 0.0
H424 H 0.4713 0.2134 0.79493 0.0
H425 H 0.46599 0.19876 0.82938 0.0
C426 C 0.70754 0.9734 0.50925 0.0
C427 C 0.66908 0.9746 0.49368 0.0
C428 C 0.70777 0.92998 0.51181 0.0
C429 C 0.66882 0.88537 0.49838 0.0
C430 C 0.62991 0.88643 0.48272 0.0
C431 C 0.63041 0.93021 0.48069 0.0
C432 C 0.75011 0.93192 0.52901 0.0
C433 C 0.58748 0.84098 0.46765 0.0
C434 C 0.68735 0.77917 0.47896 0.0
C435 C 0.6651 0.74632 0.49771 0.0
C436 C 0.68966 0.82397 0.47942 0.0
C437 C 0.6697 0.83835 0.49935 0.0
C438 C 0.64911 0.80648 0.51923 0.0
C439 C 0.6469 0.76133 0.51814 0.0
C440 C 0.71197 0.85524 0.45758 0.0
C441 C 0.62773 0.81938 0.54124 0.0
H442 H 0.73769 1.00663 0.51972 0.0
H443 H 0.60012 0.9295 0.46862 0.0
H444 H 0.73785 0.90742 0.54496 0.0
H445 H 0.76824 0.91967 0.51589 0.0
H446 H 0.77658 0.96841 0.53929 0.0
H447 H 0.55938 0.84691 0.45693 0.0
H448 H 0.59935 0.82502 0.45223 0.0
H449 H 0.57149 0.81466 0.48229 0.0
H450 H 0.70171 0.7689 0.46293 0.0
H451 H 0.62887 0.73688 0.53259 0.0
H452 H 0.74035 0.89141 0.46725 0.0
H453 H 0.68443 0.85919 0.4445 0.0
H454 H 0.72781 0.84049 0.44419 0.0
H455 H 0.65353 0.85577 0.55183 0.0
H456 H 0.61742 0.79388 0.55678 0.0
H457 H 0.59542 0.81964 0.53168 0.0
C458 C 0.86303 0.68972 0.82075 0.0
C459 C 0.82325 0.65522 0.83155 0.0
C460 C 0.90706 0.68972 0.82259 0.0
C461 C 0.91292 0.65452 0.83571 0.0
C462 C 0.87276 0.61942 0.84644 0.0
C463 C 0.82914 0.62012 0.84421 0.0
C464 C 0.94777 0.72801 0.81062 0.0
C465 C 0.87601 0.58108 0.86076 0.0
C466 C 1.01637 0.62966 0.82533 0.0
C467 C 1.05027 0.65378 0.84945 0.0
C468 C 0.97258 0.63034 0.82027 0.0
C469 C 0.96129 0.65575 0.83961 0.0
C470 C 0.99623 0.68145 0.86342 0.0
C471 C 1.03946 0.68028 0.86789 0.0
C472 C 0.93756 0.60249 0.79443 0.0
C473 C 0.98738 0.70942 0.88486 0.0
H474 H 0.85993 0.71717 0.81081 0.0
H475 H 0.79949 0.59296 0.85273 0.0
H476 H 0.97852 0.75027 0.82723 0.0
H477 H 0.96015 0.71157 0.79583 0.0
H478 H 0.93749 0.7515 0.7999 0.0
H479 H 0.84169 0.55533 0.86723 0.0
H480 H 0.88646 0.56127 0.84693 0.0
H481 H 0.90423 0.59758 0.87923 0.0
H482 H 1.02309 0.60857 0.81083 0.0
H483 H 1.06482 0.69975 0.88651 0.0
H484 H 0.92734 0.62562 0.78329 0.0
H485 H 0.9044 0.57277 0.7999 0.0
H486 H 0.95234 0.58747 0.7804 0.0
H487 H 0.97973 0.73545 0.87526 0.0
H488 H 1.01833 0.729 0.90178 0.0
H489 H 0.95546 0.68492 0.89383 0.0
C490 C 0.32112 0.7328 0.14974 0.0
C491 C 0.28149 0.73044 0.15993 0.0
C492 C 0.36569 0.77626 0.15161 0.0
C493 C 0.37271 0.81986 0.16459 0.0
C494 C 0.3326 0.81775 0.17469 0.0
C495 C 0.28808 0.7738 0.17215 0.0
C496 C 0.40553 0.77449 0.14011 0.0
C497 C 0.33695 0.8621 0.18879 0.0
C498 C 0.50111 0.91822 0.19904 0.0
C499 C 0.51587 0.95463 0.18146 0.0
C500 C 0.45537 0.8758 0.19399 0.0
C501 C 0.42243 0.86622 0.16977 0.0
C502 C 0.43751 0.90127 0.15108 0.0
C503 C 0.48318 0.94465 0.15715 0.0
C504 C 0.44218 0.84083 0.2149 0.0
C505 C 0.40492 0.89312 0.12461 0.0
H506 H 0.31747 0.70029 0.14017 0.0
H507 H 0.25844 0.77342 0.18019 0.0
H508 H 0.39146 0.74415 0.12361 0.0
H509 H 0.42863 0.80797 0.13167 0.0
H510 H 0.42762 0.76926 0.15682 0.0
H511 H 0.30244 0.85576 0.19436 0.0
H512 H 0.36389 0.87519 0.20782 0.0
H513 H 0.3497 0.89078 0.17525 0.0
H514 H 0.52551 0.92249 0.21724 0.0
H515 H 0.4927 0.97116 0.14299 0.0
H516 H 0.43547 0.80613 0.2053 0.0
H517 H 0.40855 0.83434 0.22182 0.0
H518 H 0.47048 0.85365 0.23327 0.0
H519 H 0.39506 0.85879 0.11277 0.0
H520 H 0.42173 0.92219 0.11159 0.0
H521 H 0.37129 0.89045 0.12921 0.0
C522 C 0.62007 0.2402 0.50624 0.0
C523 C 0.65748 0.23693 0.49653 0.0
C524 C 0.62049 0.28418 0.50964 0.0
C525 C 0.65891 0.32713 0.50292 0.0
C526 C 0.69618 0.32367 0.49256 0.0
C527 C 0.69524 0.27946 0.48973 0.0
C528 C 0.57991 0.28478 0.52103 0.0
C529 C 0.7376 0.36703 0.48447 0.0
C530 C 0.64285 0.43805 0.49564 0.0
C531 C 0.66545 0.46625 0.52144 0.0
C532 C 0.6412 0.39384 0.48909 0.0
C533 C 0.66191 0.37575 0.5087 0.0
C534 C 0.68559 0.4045 0.5344 0.0
C535 C 0.6879 0.44887 0.54009 0.0
C536 C 0.61629 0.36587 0.46116 0.0
C537 C 0.70766 0.38768 0.5565 0.0
H538 H 0.59052 0.2083 0.51175 0.0
H539 H 0.72451 0.27835 0.48211 0.0
H540 H 0.59388 0.30816 0.54096 0.0
H541 H 0.56346 0.29983 0.50681 0.0
H542 H 0.55171 0.24864 0.52433 0.0
H543 H 0.76533 0.35992 0.47831 0.0
H544 H 0.72438 0.37995 0.46707 0.0
H545 H 0.75432 0.3959 0.50188 0.0
H546 H 0.62517 0.44979 0.48069 0.0
H547 H 0.7074 0.46989 0.55974 0.0
H548 H 0.58463 0.33125 0.46345 0.0
H549 H 0.6406 0.35787 0.45111 0.0
H550 H 0.60431 0.38527 0.4475 0.0
H551 H 0.67918 0.35472 0.56306 0.0
H552 H 0.72714 0.41475 0.57487 0.0
H553 H 0.73277 0.37861 0.54834 0.0
C554 C 0.55473 0.70077 0.83296 0.0
C555 C 0.55537 0.65852 0.82631 0.0
C556 C 0.51118 0.7007 0.83446 0.0
C557 C 0.46588 0.65744 0.82902 0.0
C558 C 0.46642 0.61482 0.82222 0.0
C559 C 0.51038 0.61582 0.82116 0.0
C560 C 0.51365 0.74735 0.84176 0.0
C561 C 0.42009 0.56771 0.81545 0.0
C562 C 0.34699 0.64467 0.84879 0.0
C563 C 0.3244 0.64971 0.824 0.0
C564 C 0.39318 0.64871 0.85113 0.0
C565 C 0.41808 0.65704 0.82809 0.0
C566 C 0.39595 0.66342 0.80343 0.0
C567 C 0.35112 0.66106 0.80199 0.0
C568 C 0.41483 0.64265 0.87821 0.0
C569 C 0.41805 0.6698 0.7776 0.0
H570 H 0.5885 0.73423 0.83717 0.0
H571 H 0.50927 0.5826 0.81595 0.0
H572 H 0.49297 0.75387 0.82481 0.0
H573 H 0.49698 0.74559 0.86036 0.0
H574 H 0.55101 0.77796 0.8457 0.0
H575 H 0.42596 0.53741 0.81137 0.0
H576 H 0.39938 0.56104 0.83266 0.0
H577 H 0.39787 0.56882 0.797 0.0
H578 H 0.32797 0.63596 0.86618 0.0
H579 H 0.33617 0.66685 0.78278 0.0
H580 H 0.45232 0.67243 0.88425 0.0
H581 H 0.41579 0.60915 0.87607 0.0
H582 H 0.39426 0.64128 0.89491 0.0
H583 H 0.40252 0.68379 0.76198 0.0
H584 H 0.41121 0.63475 0.76851 0.0
H585 H 0.45739 0.69405 0.78204 0.0
C586 C 0.96947 0.451 0.14373 0.0
C587 C 1.01537 0.4575 0.15226 0.0
C588 C 0.92634 0.40762 0.14549 0.0
C589 C 0.92761 0.36852 0.15643 0.0
C590 C 0.97383 0.37506 0.1654 0.0
C591 C 1.01645 0.41866 0.16312 0.0
C592 C 0.87897 0.40352 0.13523 0.0
C593 C 0.97839 0.33569 0.17752 0.0
C594 C 0.81007 0.26731 0.17854 0.0
C595 C 0.7897 0.2319 0.15555 0.0
C596 C 0.85495 0.31079 0.17955 0.0
C597 C 0.88103 0.32041 0.157 0.0
C598 C 0.86135 0.28395 0.1343 0.0
C599 C 0.81701 0.24097 0.13396 0.0
C600 C 0.87375 0.34733 0.20454 0.0
C601 C 0.88633 0.29102 0.10958 0.0
H602 H 0.96705 0.47998 0.1354 0.0
H603 H 1.05093 0.42236 0.17015 0.0
H604 H 0.85702 0.39489 0.15194 0.0
H605 H 0.88331 0.43681 0.12773 0.0
H606 H 0.85878 0.37388 0.1182 0.0
H607 H 1.01625 0.34648 0.18485 0.0
H608 H 0.95827 0.32486 0.19502 0.0
H609 H 0.9624 0.30392 0.16188 0.0
H610 H 0.78995 0.26207 0.19532 0.0
H611 H 0.80262 0.2146 0.11596 0.0
H612 H 0.85249 0.33349 0.22139 0.0
H613 H 0.87274 0.37935 0.19887 0.0
H614 H 0.91165 0.35887 0.21227 0.0
H615 H 0.88815 0.32179 0.09991 0.0
H616 H 0.86778 0.2591 0.09388 0.0
H617 H 0.92365 0.29942 0.11598 0.0
C618 C 0.13813 0.62861 0.05372 0.0
C619 C 0.14562 0.59509 0.0669 0.0
C620 C 0.13949 0.63173 0.02552 0.0
C621 C 0.14861 0.60063 0.00977 0.0
C622 C 0.15641 0.56674 0.02284 0.0
C623 C 0.15478 0.56433 0.05125 0.0
C624 C 0.13075 0.66829 0.01254 0.0
C625 C 0.16628 0.53297 0.00679 0.0
C626 C 1.10261 0.5852 0.93336 0.0
C627 C 0.14353 0.61895 0.92343 0.0
C628 C 1.10437 0.57697 0.96106 0.0
C629 C 0.14818 0.60304 0.97949 0.0
C630 C 0.1902 0.6353 0.9693 0.0
C631 C 0.1874 0.64281 0.94139 0.0
C632 C 1.05872 0.5421 0.97088 0.0
C633 C 0.23765 0.66377 0.98818 0.0
H634 H 0.13105 0.65266 0.06542 0.0
H635 H 0.16088 0.53846 0.0612 0.0
H636 H 0.16164 0.69216 0.00262 0.0
H637 H 1.09875 0.65016 -0.00378 0.0
H638 H 0.12508 0.69048 0.02773 0.0
H639 H 0.17275 0.5095 0.02002 0.0
H640 H 0.1355 0.51031 -0.00974 0.0
H641 H 0.19802 0.55342 -0.00333 0.0
H642 H 1.06875 0.56586 0.91949 0.0
H643 H 0.21916 0.66892 0.93391 0.0
H644 H 1.04803 0.56176 0.98465 0.0
H645 H 1.06434 0.51702 0.98298 0.0
H646 H 1.02878 0.52119 0.95357 0.0
H647 H 0.23655 0.69043 0.00246 0.0
H648 H 0.2678 0.68288 0.97664 0.0
H649 H 0.24476 0.64018 0.00091 0.0
C650 C 0.62322 0.09497 0.38772 0.0
C651 C 0.66475 0.106 0.40592 0.0
C652 C 0.62158 0.09102 0.35909 0.0
C653 C 0.66264 0.09873 0.34808 0.0
C654 C 0.70516 0.11108 0.36626 0.0
C655 C 0.70564 0.11429 0.39496 0.0
C656 C 0.57531 0.07733 0.34058 0.0
C657 C 0.74988 0.12019 0.35537 0.0
C658 C 0.63474 1.03638 0.2755 0.0
C659 C 0.63999 1.07239 0.25923 0.0
C660 C 0.64403 1.04504 0.30437 0.0
C661 C 0.65965 0.09112 0.31754 0.0
C662 C 0.66769 0.12837 0.30129 0.0
C663 C 0.65761 0.11856 0.27235 0.0
C664 C 0.63478 1.00415 0.32076 0.0
C665 C 0.68482 0.17813 0.31445 0.0
H666 H 0.59132 0.08843 0.39582 0.0
H667 H 0.738 0.12311 0.40878 0.0
H668 H 0.58144 0.10442 0.32633 0.0
H669 H 0.56206 1.04286 0.3278 0.0
H670 H 0.54695 1.0738 0.35235 0.0
H671 H 0.78089 0.13263 0.3721 0.0
H672 H 0.74345 0.087 0.34375 0.0
H673 H 0.75922 0.14733 0.34086 0.0
H674 H 0.62214 1.00082 0.26559 0.0
H675 H 0.66166 0.14663 0.26006 0.0
H676 H 0.60435 0.9958 0.33184 0.0
H677 H 0.66646 1.01415 0.33646 0.0
H678 H 0.62611 0.97142 0.30753 0.0
H679 H 0.65593 0.17834 0.32414 0.0
H680 H 0.69518 0.20428 0.29927 0.0
H681 H 0.71595 0.18992 0.33095 0.0
C682 C 0.67935 0.647 0.72652 0.0
C683 C 0.66323 0.61004 0.74323 0.0
C684 C 0.67773 0.63813 0.69816 0.0
C685 C 0.65854 0.59079 0.68578 0.0
C686 C 0.64144 0.55305 0.70242 0.0
C687 C 0.64459 0.56318 0.73102 0.0
C688 C 0.69753 0.67969 0.68154 0.0
C689 C 0.61971 0.50198 0.68997 0.0
C690 C 0.62057 0.57002 0.60769 0.0
C691 C 0.65894 0.56877 0.59842 0.0
C692 C 0.6192 0.57564 0.63603 0.0
C693 C 0.65771 0.58138 0.6556 0.0
C694 C 0.69674 0.58058 0.64623 0.0
C695 C 0.69656 0.57368 0.61781 0.0
C696 C 0.57649 0.57533 0.64506 0.0
C697 C 0.73918 0.5879 0.66621 0.0
H698 H 0.69448 0.6834 0.73578 0.0
H699 H 0.63195 0.5344 0.74375 0.0
H700 H 0.72706 0.68098 0.67182 0.0
H701 H 0.66938 0.67514 0.66472 0.0
H702 H 0.71135 0.71438 0.69428 0.0
H703 H 0.606 0.47654 0.70537 0.0
H704 H 0.5898 0.49281 0.6731 0.0
H705 H 0.64679 0.49732 0.68084 0.0
H706 H 0.59119 0.56567 0.59272 0.0
H707 H 0.72628 0.57278 0.61066 0.0
H708 H 0.58783 0.6104 0.6565 0.0
H709 H 0.56086 0.54811 0.65929 0.0
H710 H 0.54826 0.5677 0.6274 0.0
H711 H 0.75609 0.62315 0.67883 0.0
H712 H 0.76661 0.58619 0.65563 0.0
H713 H 0.72731 0.56043 0.68053 0.0
C714 C 0.67377 0.12566 0.59433 0.0
C715 C 0.64075 0.09938 0.57055 0.0
C716 C 0.65858 0.1224 0.62014 0.0
C717 C 0.60929 0.09327 0.62176 0.0
C718 C 0.57586 1.0681 0.59757 0.0
C719 C 0.59208 1.07106 0.57239 0.0
C720 C 0.69519 0.14894 0.64566 0.0
C721 C 0.52282 1.03751 0.5982 0.0
C722 C 0.55678 1.03574 0.68338 0.0
C723 C 0.53895 1.06426 0.69224 0.0
C724 C 0.58365 1.04727 0.66186 0.0
C725 C 0.59171 0.08757 0.64854 0.0
C726 C 0.57555 0.11766 0.65829 0.0
C727 C 0.54965 0.10581 0.68025 0.0
C728 C 0.601 1.01478 0.65236 0.0
C729 C 0.58246 0.16031 0.64427 0.0
H730 H 0.71139 0.14747 0.59284 0.0
H731 H 0.56628 1.0512 0.55397 0.0
H732 H 0.68533 0.17166 0.65742 0.0
H733 H 0.6958 0.12305 0.65926 0.0
H734 H 0.73175 0.17173 0.64079 0.0
H735 H 0.50144 1.0224 0.57727 0.0
H736 H 0.5161 1.00757 0.6103 0.0
H737 H 0.50974 1.05877 0.60843 0.0
H738 H 0.54906 1.00402 0.69305 0.0
H739 H 0.5358 0.12782 0.68723 0.0
H740 H 0.63868 1.03592 0.64894 0.0
H741 H 0.57901 0.99362 0.63246 0.0
H742 H 0.59851 0.98967 0.66742 0.0
H743 H 0.6199 0.18193 0.64058 0.0
H744 H 0.5736 0.18346 0.65651 0.0
H745 H 0.55895 0.1479 0.62392 0.0
C746 C 0.77109 0.74594 0.92096 0.0
C747 C 0.72369 0.71904 0.90744 0.0
C748 C 0.78174 0.76759 0.94813 0.0
C749 C 0.74414 0.76344 0.96167 0.0
C750 C 0.69633 0.7377 0.94767 0.0
C751 C 0.6866 0.71511 0.92085 0.0
C752 C 0.83297 0.79345 0.96266 0.0
C753 C 0.65541 0.73352 0.96113 0.0
C754 C 0.76075 0.77146 0.03941 0.0
C755 C 0.775 0.81928 0.04734 0.0
C756 C 0.75138 0.75325 0.01169 0.0
C757 C 0.75438 0.78291 -0.00888 0.0
C758 C 0.76708 0.83071 -0.00124 0.0
C759 C 0.7778 0.84853 0.0268 0.0
C760 C 0.73855 0.70223 0.00445 0.0
C761 C 0.76935 0.86297 0.97731 0.0
H762 H 0.79973 0.74884 0.91055 0.0
H763 H 0.64996 0.69487 0.9102 0.0
H764 H 0.84404 0.83047 0.97063 0.0
H765 H 0.83612 0.77537 0.98062 0.0
H766 H 0.85816 0.79465 0.94897 0.0
H767 H 0.6211 0.71627 0.94655 0.0
H768 H 0.65076 0.71218 0.97857 0.0
H769 H 0.6634 0.76933 0.96963 0.0
H770 H 0.75662 0.74783 0.05491 0.0
H771 H 0.78883 0.88548 0.0326 0.0
H772 H 0.76346 0.70101 -0.00862 0.0
H773 H 0.70195 0.68134 -0.00759 0.0
H774 H 0.73998 0.6846 0.02298 0.0
H775 H 0.79722 0.86809 0.96476 0.0
H776 H 0.77756 0.89848 0.9866 0.0
H777 H 0.7347 0.84623 0.96311 0.0
C778 C 0.18217 0.62474 0.25526 0.0
C779 C 0.14299 0.592 0.23572 0.0
C780 C 0.17653 0.63081 0.28275 0.0
C781 C 0.1309 0.603 0.2906 0.0
C782 C 1.09237 0.56735 0.27126 0.0
C783 C 1.09885 0.56254 0.24402 0.0
C784 C 0.21842 0.66915 0.30286 0.0
C785 C 1.04337 0.53643 0.27884 0.0
C786 C 0.11529 0.59954 0.3657 0.0
C787 C 1.09903 0.63168 0.36913 0.0
C788 C 0.1267 0.59041 0.34039 0.0
C789 C 0.12175 0.61405 0.31804 0.0
C790 C 1.10525 0.64645 0.32137 0.0
C791 C 1.09396 0.65477 0.34687 0.0
C792 C 0.14364 0.55525 0.3375 0.0
C793 C 1.09949 0.67234 0.29796 0.0
H794 H 0.21618 0.6477 0.24871 0.0
H795 H 1.06865 0.53691 0.22883 0.0
H796 H 0.21212 0.69897 0.30754 0.0
H797 H 0.2221 0.65525 0.32252 0.0
H798 H 0.25258 0.68344 0.29459 0.0
H799 H 1.01896 0.50689 0.26231 0.0
H800 H 1.04611 0.52097 0.29804 0.0
H801 H 1.02707 0.55849 0.28268 0.0
H802 H 0.11899 0.58141 0.38285 0.0
H803 H 1.0822 0.68022 0.34958 0.0
H804 H 0.17876 0.57236 0.33027 0.0
H805 H 0.11802 0.52483 0.32179 0.0
H806 H 0.14723 0.54119 0.35716 0.0
H807 H 0.13381 0.69238 0.29006 0.0
H808 H 1.08796 0.69768 0.30423 0.0
H809 H 1.07254 0.64623 0.28072 0.0
loop_
_geom_bond_atom_site_label_1
_geom_bond_atom_site_label_2
_geom_bond_distance
_geom_bond_site_symmetry_2
_ccdc_geom_bond_type
Tb0 C10 2.825 . S
Tb0 O11 2.347 . S
Tb0 O14 2.366 . S
Tb0 O19 2.418 . S
Tb0 O20 2.384 1_455 S
Tb0 O23 2.479 . S
Tb0 O24 2.471 . S
Eu1 O12 2.418 . S
Eu1 O13 2.384 . S
Eu1 O16 2.479 1_455 S
Eu1 O17 2.471 1_455 S
Eu1 O18 2.347 . S
Eu1 O21 2.366 1_455 S
Eu1 C31 2.825 1_455 S
C2 O18 1.259 . S
C2 O19 1.265 . S
C3 O20 1.255 . S
C3 O21 1.265 . S
C4 C6 1.380 . S
C4 C7 1.374 . S
C4 C10 1.507 . S
C5 C6 1.384 . S
C5 C9 1.387 . S
C5 H32 0.930 . S
C6 C4 1.380 . S
C6 C5 1.384 . S
C6 H33 0.931 . S
C7 C4 1.374 . S
C7 C8 1.390 . S
C7 H34 0.930 . S
C8 C7 1.390 . S
C8 C9 1.391 . S
C8 H35 0.930 . S
C9 C5 1.387 . S
C9 C8 1.391 . S
C10 Tb0 2.825 . S
C10 C4 1.507 . S
C10 O23 1.238 . S
C10 O24 1.247 . S
O11 Tb0 2.347 . S
O11 C15 1.259 . S
O12 Eu1 2.418 . S
O12 C15 1.265 . S
O13 Eu1 2.384 . S
O13 C22 1.255 . S
O14 Tb0 2.366 . S
O14 C22 1.265 . S
C15 O11 1.259 . S
C15 O12 1.265 . S
O16 Eu1 2.479 1_655 S
O16 C31 1.238 . S
O17 Eu1 2.471 1_655 S
O17 C31 1.247 . S
O18 Eu1 2.347 . S
O18 C2 1.259 . S
O19 Tb0 2.418 . S
O19 C2 1.265 . S
O20 Tb0 2.384 1_655 S
O20 C3 1.255 . S
O21 Eu1 2.366 1_655 S
O21 C3 1.265 . S
C22 O13 1.255 . S
C22 O14 1.265 . S
O23 Tb0 2.479 . S
O23 C10 1.238 . S
O24 Tb0 2.471 . S
O24 C10 1.247 . S
C25 C28 1.380 . S
C25 C29 1.374 . S
C25 C31 1.507 . S
C26 C27 1.387 . S
C26 C30 1.391 . S
C27 C26 1.387 . S
C27 C28 1.384 . S
C27 H36 0.930 . S
C28 C25 1.380 . S
C28 C27 1.384 . S
C28 H37 0.931 . S
C29 C25 1.374 . S
C29 C30 1.390 . S
C29 H38 0.930 . S
C30 C26 1.391 . S
C30 C29 1.390 . S
C30 H39 0.930 . S
C31 Eu1 2.825 1_655 S
C31 O16 1.238 . S
C31 O17 1.247 . S
C31 C25 1.507 . S
H32 C5 0.930 . S
H33 C6 0.931 . S
H34 C7 0.930 . S
H35 C8 0.930 . S
H36 C27 0.930 . S
H37 C28 0.931 . S
H38 C29 0.930 . S
H39 C30 0.930 . S
Tb40 C50 2.825 . S
Tb40 O51 2.347 . S
Tb40 O54 2.366 . S
Tb40 O59 2.418 . S
Tb40 O60 2.384 . S
Tb40 O63 2.479 . S
Tb40 O64 2.471 . S
Eu41 O52 2.418 . S
Eu41 O53 2.384 . S
Eu41 O56 2.479 1_545 S
Eu41 O57 2.471 1_545 S
Eu41 O58 2.347 . S
Eu41 O61 2.366 1_545 S
Eu41 C71 2.825 1_545 S
C42 O58 1.259 . S
C42 O59 1.265 . S
C43 O60 1.255 1_565 S
C43 O61 1.265 . S
C44 C46 1.380 . S
C44 C47 1.374 . S
C44 C50 1.507 . S
C45 C46 1.384 . S
C45 C49 1.387 . S
C45 H72 0.930 . S
C46 C44 1.380 . S
C46 C45 1.384 . S
C46 H73 0.931 . S
C47 C44 1.374 . S
C47 C48 1.390 . S
C47 H74 0.930 . S
C48 C47 1.390 . S
C48 C49 1.391 . S
C48 H75 0.930 . S
C49 C45 1.387 . S
C49 C48 1.391 . S
C50 Tb40 2.825 . S
C50 C44 1.507 . S
C50 O63 1.238 . S
C50 O64 1.247 . S
O51 Tb40 2.347 . S
O51 C55 1.259 . S
O52 Eu41 2.418 . S
O52 C55 1.265 . S
O53 Eu41 2.384 . S
O53 C62 1.255 . S
O54 Tb40 2.366 . S
O54 C62 1.265 . S
C55 O51 1.259 . S
C55 O52 1.265 . S
O56 Eu41 2.479 1_565 S
O56 C71 1.238 . S
O57 Eu41 2.471 1_565 S
O57 C71 1.247 . S
O58 Eu41 2.347 . S
O58 C42 1.259 . S
O59 Tb40 2.418 . S
O59 C42 1.265 . S
O60 Tb40 2.384 . S
O60 C43 1.255 1_545 S
O61 Eu41 2.366 1_565 S
O61 C43 1.265 . S
C62 O53 1.255 . S
C62 O54 1.265 . S
O63 Tb40 2.479 . S
O63 C50 1.238 . S
O64 Tb40 2.471 . S
O64 C50 1.247 . S
C65 C68 1.380 . S
C65 C69 1.374 . S
C65 C71 1.507 . S
C66 C67 1.387 . S
C66 C70 1.391 . S
C67 C66 1.387 . S
C67 C68 1.384 . S
C67 H76 0.930 . S
C68 C65 1.380 . S
C68 C67 1.384 . S
C68 H77 0.931 . S
C69 C65 1.374 . S
C69 C70 1.390 . S
C69 H78 0.930 . S
C70 C66 1.391 . S
C70 C69 1.390 . S
C70 H79 0.930 . S
C71 Eu41 2.825 1_565 S
C71 O56 1.238 . S
C71 O57 1.247 . S
C71 C65 1.507 . S
H72 C45 0.930 . S
H73 C46 0.931 . S
H74 C47 0.930 . S
H75 C48 0.930 . S
H76 C67 0.930 . S
H77 C68 0.931 . S
H78 C69 0.930 . S
H79 C70 0.930 . S
Tb80 C90 2.825 . S
Tb80 O91 2.347 . S
Tb80 O94 2.366 . S
Tb80 O99 2.418 . S
Tb80 O100 2.384 . S
Tb80 O103 2.479 . S
Tb80 O104 2.471 . S
Eu81 O92 2.418 . S
Eu81 O93 2.384 . S
Eu81 O96 2.479 . S
Eu81 O97 2.471 . S
Eu81 O98 2.347 . S
Eu81 O101 2.366 . S
Eu81 C111 2.825 . S
C82 O98 1.259 . S
C82 O99 1.265 . S
C83 O100 1.255 . S
C83 O101 1.265 . S
C84 C86 1.380 . S
C84 C87 1.374 . S
C84 C90 1.507 . S
C85 C86 1.384 . S
C85 C89 1.387 . S
C85 H112 0.930 . S
C86 C84 1.380 . S
C86 C85 1.384 . S
C86 H113 0.931 . S
C87 C84 1.374 . S
C87 C88 1.390 . S
C87 H114 0.930 . S
C88 C87 1.390 . S
C88 C89 1.391 . S
C88 H115 0.930 . S
C89 C85 1.387 . S
C89 C88 1.391 . S
C90 Tb80 2.825 . S
C90 C84 1.507 . S
C90 O103 1.238 . S
C90 O104 1.247 . S
O91 Tb80 2.347 . S
O91 C95 1.259 . S
O92 Eu81 2.418 . S
O92 C95 1.265 . S
O93 Eu81 2.384 . S
O93 C102 1.255 . S
O94 Tb80 2.366 . S
O94 C102 1.265 . S
C95 O91 1.259 . S
C95 O92 1.265 . S
O96 Eu81 2.479 . S
O96 C111 1.238 . S
O97 Eu81 2.471 . S
O97 C111 1.247 . S
O98 Eu81 2.347 . S
O98 C82 1.259 . S
O99 Tb80 2.418 . S
O99 C82 1.265 . S
O100 Tb80 2.384 . S
O100 C83 1.255 . S
O101 Eu81 2.366 . S
O101 C83 1.265 . S
C102 O93 1.255 . S
C102 O94 1.265 . S
O103 Tb80 2.479 . S
O103 C90 1.238 . S
O104 Tb80 2.471 . S
O104 C90 1.247 . S
C105 C108 1.380 . S
C105 C109 1.374 . S
C105 C111 1.507 . S
C106 C107 1.387 . S
C106 C110 1.391 . S
C107 C106 1.387 . S
C107 C108 1.384 . S
C107 H116 0.930 . S
C108 C105 1.380 . S
C108 C107 1.384 . S
C108 H117 0.931 . S
C109 C105 1.374 . S
C109 C110 1.390 . S
C109 H118 0.930 . S
C110 C106 1.391 . S
C110 C109 1.390 . S
C110 H119 0.930 . S
C111 Eu81 2.825 . S
C111 O96 1.238 . S
C111 O97 1.247 . S
C111 C105 1.507 . S
H112 C85 0.930 . S
H113 C86 0.931 . S
H114 C87 0.930 . S
H115 C88 0.930 . S
H116 C107 0.930 . S
H117 C108 0.931 . S
H118 C109 0.930 . S
H119 C110 0.930 . S
H120 C121 0.949 . S
C121 H120 0.949 . S
C121 C122 1.395 . S
C121 C123 1.391 . S
C122 C121 1.395 . S
C122 C125 1.390 . S
C123 C121 1.391 . S
C123 C127 1.387 . S
C123 C128 1.491 . S
H124 C125 0.945 1_565 S
C125 C122 1.390 . S
C125 H124 0.945 1_545 S
C125 C126 1.378 . S
C126 C125 1.378 . S
C126 C127 1.409 . S
C127 C123 1.387 . S
C127 C126 1.409 . S
C127 H129 0.951 . S
C128 C123 1.491 . S
C128 C130 1.382 . S
C128 C132 1.404 . S
H129 C127 0.951 . S
C130 C128 1.382 . S
C130 C131 1.390 . S
C130 H135 0.949 . S
C131 C130 1.390 . S
C131 C136 1.399 . S
C132 C128 1.404 . S
C132 H133 0.950 . S
C132 C134 1.375 . S
H133 C132 0.950 . S
C134 C132 1.375 . S
C134 C136 1.382 . S
C134 H138 0.950 . S
H135 C130 0.949 . S
C136 C131 1.399 . S
C136 C134 1.382 . S
C136 H137 0.952 . S
H137 C136 0.952 . S
H138 C134 0.950 . S
H139 C140 0.949 . S
C140 H139 0.949 . S
C140 C141 1.395 . S
C140 C142 1.391 . S
C141 C140 1.395 . S
C141 C144 1.390 . S
C142 C140 1.391 . S
C142 C146 1.387 . S
C142 C147 1.491 . S
H143 C144 0.950 . S
C144 C141 1.390 . S
C144 H143 0.950 . S
C144 C145 1.378 . S
C145 C144 1.378 . S
C145 C146 1.409 . S
C146 C142 1.387 . S
C146 C145 1.409 . S
C146 H148 0.951 . S
C147 C142 1.491 . S
C147 C149 1.382 . S
C147 C151 1.404 . S
H148 C146 0.951 . S
C149 C147 1.382 . S
C149 C150 1.390 . S
C149 H154 0.949 . S
C150 C149 1.390 . S
C150 C155 1.399 . S
C151 C147 1.404 . S
C151 H152 0.950 . S
C151 C153 1.375 . S
H152 C151 0.950 . S
C153 C151 1.375 . S
C153 C155 1.382 . S
C153 H157 0.950 . S
H154 C149 0.949 . S
C155 C150 1.399 . S
C155 C153 1.382 . S
C155 H156 0.952 . S
H156 C155 0.952 . S
H157 C153 0.950 . S
H158 C159 0.949 . S
C159 H158 0.949 . S
C159 C160 1.395 . S
C159 C161 1.391 . S
C160 C159 1.395 . S
C160 C163 1.390 1_455 S
C161 C159 1.391 . S
C161 C165 1.387 . S
C161 C166 1.491 . S
H162 C163 0.950 . S
C163 C160 1.390 1_655 S
C163 H162 0.950 . S
C163 C164 1.378 . S
C164 C163 1.378 . S
C164 C165 1.409 1_655 S
C165 C161 1.387 . S
C165 C164 1.409 1_455 S
C165 H167 0.951 1_455 S
C166 C161 1.491 . S
C166 C168 1.382 . S
C166 C170 1.404 . S
H167 C165 0.951 1_655 S
C168 C166 1.382 . S
C168 C169 1.390 . S
C168 H173 0.949 . S
C169 C168 1.390 . S
C169 C174 1.399 . S
C170 C166 1.404 . S
C170 H171 0.950 . S
C170 C172 1.375 . S
H171 C170 0.950 . S
C172 C170 1.375 . S
C172 C174 1.382 . S
C172 H176 0.950 . S
H173 C168 0.949 . S
C174 C169 1.399 . S
C174 C172 1.382 . S
C174 H175 0.952 . S
H175 C174 0.952 . S
H176 C172 0.950 . S
H177 C178 0.949 1_655 S
C178 H177 0.949 1_455 S
C178 C179 1.395 . S
C178 C180 1.391 . S
C179 C178 1.395 . S
C179 C182 1.390 . S
C180 C178 1.391 . S
C180 C184 1.387 . S
C180 C185 1.491 1_455 S
H181 C182 0.950 . S
C182 C179 1.390 . S
C182 H181 0.950 . S
C182 C183 1.378 . S
C183 C182 1.378 . S
C183 C184 1.409 . S
C184 C180 1.387 . S
C184 C183 1.409 . S
C184 H186 0.951 . S
C185 C180 1.491 1_655 S
C185 C187 1.382 . S
C185 C189 1.404 . S
H186 C184 0.951 . S
C187 C185 1.382 . S
C187 C188 1.390 . S
C187 H192 0.949 . S
C188 C187 1.390 . S
C188 C193 1.399 . S
C189 C185 1.404 . S
C189 H190 0.950 . S
C189 C191 1.375 . S
H190 C189 0.950 . S
C191 C189 1.375 . S
C191 C193 1.382 . S
C191 H195 0.950 . S
H192 C187 0.949 . S
C193 C188 1.399 . S
C193 C191 1.382 . S
C193 H194 0.952 . S
H194 C193 0.952 . S
H195 C191 0.950 . S
H196 C197 0.949 1_565 S
C197 H196 0.949 1_545 S
C197 C198 1.395 . S
C197 C199 1.391 . S
C198 C197 1.395 . S
C198 C201 1.390 . S
C199 C197 1.391 . S
C199 C203 1.387 . S
C199 C204 1.491 1_545 S
H200 C201 0.950 . S
C201 C198 1.390 . S
C201 H200 0.950 . S
C201 C202 1.378 . S
C202 C201 1.378 . S
C202 C203 1.409 . S
C203 C199 1.387 . S
C203 C202 1.409 . S
C203 H205 0.951 . S
C204 C199 1.491 1_565 S
C204 C206 1.382 . S
C204 C208 1.404 . S
H205 C203 0.951 . S
C206 C204 1.382 . S
C206 C207 1.390 . S
C206 H211 0.949 . S
C207 C206 1.390 . S
C207 C212 1.399 . S
C208 C204 1.404 . S
C208 H209 0.950 . S
C208 C210 1.375 . S
H209 C208 0.950 . S
C210 C208 1.375 . S
C210 C212 1.382 . S
C210 H214 0.950 . S
H211 C206 0.949 . S
C212 C207 1.399 . S
C212 C210 1.382 . S
C212 H213 0.952 . S
H213 C212 0.952 . S
H214 C210 0.950 . S
H215 C216 0.949 . S
C216 H215 0.949 . S
C216 C217 1.395 . S
C216 C218 1.391 . S
C217 C216 1.395 . S
C217 C220 1.390 . S
C218 C216 1.391 . S
C218 C222 1.387 . S
C218 C223 1.491 . S
H219 C220 0.950 . S
C220 C217 1.390 . S
C220 H219 0.950 . S
C220 C221 1.378 . S
C221 C220 1.378 . S
C221 C222 1.409 . S
C222 C218 1.387 . S
C222 C221 1.409 . S
C222 H224 0.951 . S
C223 C218 1.491 . S
C223 C225 1.382 . S
C223 C227 1.404 . S
H224 C222 0.951 . S
C225 C223 1.382 . S
C225 C226 1.390 . S
C225 H230 0.949 . S
C226 C225 1.390 . S
C226 C231 1.399 . S
C227 C223 1.404 . S
C227 H228 0.950 . S
C227 C229 1.375 . S
H228 C227 0.950 . S
C229 C227 1.375 . S
C229 C231 1.382 . S
C229 H233 0.950 . S
H230 C225 0.949 . S
C231 C226 1.399 . S
C231 C229 1.382 . S
C231 H232 0.952 . S
H232 C231 0.952 . S
H233 C229 0.950 . S
C234 C235 1.391 . S
C234 C236 1.394 . S
C234 H250 0.931 . S
C235 C234 1.391 . S
C235 C239 1.376 . S
C236 C234 1.394 . S
C236 C237 1.369 . S
C236 C240 1.531 . S
C237 C236 1.369 . S
C237 C238 1.410 . S
C237 C245 1.503 . S
C238 C237 1.410 . S
C238 C239 1.392 . S
C238 C241 1.511 . S
C239 C235 1.376 . S
C239 C238 1.392 . S
C239 H251 0.929 . S
C240 C236 1.531 . S
C240 H252 0.960 . S
C240 H253 0.962 . S
C240 H254 0.960 . S
C241 C238 1.511 . S
C241 H255 0.961 . S
C241 H256 0.961 . S
C241 H257 0.961 . S
C242 C243 1.370 . S
C242 C244 1.363 . S
C242 H258 0.931 . S
C243 C242 1.370 . S
C243 C247 1.408 . S
C244 C242 1.363 . S
C244 C245 1.370 . S
C244 C248 1.524 . S
C245 C237 1.503 . S
C245 C244 1.370 . S
C245 C246 1.403 . S
C246 C245 1.403 . S
C246 C247 1.404 . S
C246 C249 1.539 . S
C247 C243 1.408 . S
C247 C246 1.404 . S
C247 H259 0.930 . S
C248 C244 1.524 . S
C248 H260 0.956 . S
C248 H261 0.961 . S
C248 H262 0.961 . S
C249 C246 1.539 . S
C249 H263 0.958 . S
C249 H264 0.961 . S
C249 H265 0.960 . S
H250 C234 0.931 . S
H251 C239 0.929 . S
H252 C240 0.960 . S
H253 C240 0.962 . S
H254 C240 0.960 . S
H255 C241 0.961 . S
H256 C241 0.961 . S
H257 C241 0.961 . S
H258 C242 0.931 . S
H259 C247 0.930 . S
H260 C248 0.956 . S
H261 C248 0.961 . S
H262 C248 0.961 . S
H263 C249 0.958 . S
H264 C249 0.961 . S
H265 C249 0.960 . S
C266 C267 1.391 . S
C266 C268 1.394 . S
C266 H282 0.931 . S
C267 C266 1.391 . S
C267 C271 1.376 . S
C268 C266 1.394 . S
C268 C269 1.369 . S
C268 C272 1.531 . S
C269 C268 1.369 . S
C269 C270 1.410 . S
C269 C277 1.503 . S
C270 C269 1.410 . S
C270 C271 1.392 . S
C270 C273 1.511 . S
C271 C267 1.376 . S
C271 C270 1.392 . S
C271 H283 0.929 . S
C272 C268 1.531 . S
C272 H284 0.960 . S
C272 H285 0.962 . S
C272 H286 0.960 . S
C273 C270 1.511 . S
C273 H287 0.961 . S
C273 H288 0.961 . S
C273 H289 0.961 . S
C274 C275 1.370 . S
C274 C276 1.363 . S
C274 H290 0.931 . S
C275 C274 1.370 . S
C275 C279 1.408 . S
C276 C274 1.363 . S
C276 C277 1.370 . S
C276 C280 1.524 . S
C277 C269 1.503 . S
C277 C276 1.370 . S
C277 C278 1.403 . S
C278 C277 1.403 . S
C278 C279 1.404 . S
C278 C281 1.539 . S
C279 C275 1.408 . S
C279 C278 1.404 . S
C279 H291 0.930 . S
C280 C276 1.524 . S
C280 H292 0.956 . S
C280 H293 0.961 . S
C280 H294 0.961 . S
C281 C278 1.539 . S
C281 H295 0.958 . S
C281 H296 0.961 . S
C281 H297 0.960 . S
H282 C266 0.931 . S
H283 C271 0.929 . S
H284 C272 0.960 . S
H285 C272 0.962 . S
H286 C272 0.960 . S
H287 C273 0.961 . S
H288 C273 0.961 . S
H289 C273 0.961 . S
H290 C274 0.931 . S
H291 C279 0.930 . S
H292 C280 0.956 . S
H293 C280 0.961 . S
H294 C280 0.961 . S
H295 C281 0.958 . S
H296 C281 0.961 . S
H297 C281 0.960 . S
C298 C299 1.391 . S
C298 C300 1.394 . S
C298 H314 0.931 . S
C299 C298 1.391 . S
C299 C303 1.376 . S
C300 C298 1.394 . S
C300 C301 1.369 . S
C300 C304 1.531 . S
C301 C300 1.369 . S
C301 C302 1.410 . S
C301 C309 1.503 . S
C302 C301 1.410 . S
C302 C303 1.392 . S
C302 C305 1.511 . S
C303 C299 1.376 . S
C303 C302 1.392 . S
C303 H315 0.929 . S
C304 C300 1.531 . S
C304 H316 0.960 . S
C304 H317 0.962 . S
C304 H318 0.960 . S
C305 C302 1.511 . S
C305 H319 0.961 . S
C305 H320 0.961 . S
C305 H321 0.961 . S
C306 C307 1.370 . S
C306 C308 1.363 . S
C306 H322 0.931 . S
C307 C306 1.370 . S
C307 C311 1.408 . S
C308 C306 1.363 . S
C308 C309 1.370 . S
C308 C312 1.524 . S
C309 C301 1.503 . S
C309 C308 1.370 . S
C309 C310 1.403 . S
C310 C309 1.403 . S
C310 C311 1.404 . S
C310 C313 1.539 . S
C311 C307 1.408 . S
C311 C310 1.404 . S
C311 H323 0.930 . S
C312 C308 1.524 . S
C312 H324 0.956 . S
C312 H325 0.961 . S
C312 H326 0.961 . S
C313 C310 1.539 . S
C313 H327 0.958 . S
C313 H328 0.961 . S
C313 H329 0.960 . S
H314 C298 0.931 . S
H315 C303 0.929 . S
H316 C304 0.960 . S
H317 C304 0.962 . S
H318 C304 0.960 . S
H319 C305 0.961 . S
H320 C305 0.961 . S
H321 C305 0.961 . S
H322 C306 0.931 . S
H323 C311 0.930 . S
H324 C312 0.956 . S
H325 C312 0.961 . S
H326 C312 0.961 . S
H327 C313 0.958 . S
H328 C313 0.961 . S
H329 C313 0.960 . S
C330 C331 1.391 . S
C330 C332 1.394 . S
C330 H346 0.931 . S
C331 C330 1.391 . S
C331 C335 1.376 . S
C332 C330 1.394 . S
C332 C333 1.369 . S
C332 C336 1.531 . S
C333 C332 1.369 . S
C333 C334 1.410 . S
C333 C341 1.503 . S
C334 C333 1.410 . S
C334 C335 1.392 . S
C334 C337 1.511 . S
C335 C331 1.376 . S
C335 C334 1.392 . S
C335 H347 0.929 . S
C336 C332 1.531 . S
C336 H348 0.960 . S
C336 H349 0.962 . S
C336 H350 0.960 . S
C337 C334 1.511 . S
C337 H351 0.961 . S
C337 H352 0.961 . S
C337 H353 0.961 . S
C338 C339 1.370 . S
C338 C340 1.363 . S
C338 H354 0.931 . S
C339 C338 1.370 . S
C339 C343 1.408 . S
C340 C338 1.363 . S
C340 C341 1.370 . S
C340 C344 1.524 . S
C341 C333 1.503 . S
C341 C340 1.370 . S
C341 C342 1.403 . S
C342 C341 1.403 . S
C342 C343 1.404 . S
C342 C345 1.539 . S
C343 C339 1.408 . S
C343 C342 1.404 . S
C343 H355 0.930 . S
C344 C340 1.524 . S
C344 H356 0.956 . S
C344 H357 0.961 . S
C344 H358 0.961 . S
C345 C342 1.539 . S
C345 H359 0.958 . S
C345 H360 0.961 . S
C345 H361 0.960 . S
H346 C330 0.931 . S
H347 C335 0.929 . S
H348 C336 0.960 . S
H349 C336 0.962 . S
H350 C336 0.960 . S
H351 C337 0.961 . S
H352 C337 0.961 . S
H353 C337 0.961 . S
H354 C338 0.931 . S
H355 C343 0.930 . S
H356 C344 0.956 . S
H357 C344 0.961 . S
H358 C344 0.961 . S
H359 C345 0.958 . S
H360 C345 0.961 . S
H361 C345 0.960 . S
C362 C363 1.391 . S
C362 C364 1.394 . S
C362 H378 0.931 . S
C363 C362 1.391 . S
C363 C367 1.376 . S
C364 C362 1.394 . S
C364 C365 1.369 . S
C364 C368 1.531 . S
C365 C364 1.369 . S
C365 C366 1.410 . S
C365 C373 1.503 . S
C366 C365 1.410 . S
C366 C367 1.392 . S
C366 C369 1.511 . S
C367 C363 1.376 . S
C367 C366 1.392 . S
C367 H379 0.929 . S
C368 C364 1.531 . S
C368 H380 0.960 . S
C368 H381 0.962 . S
C368 H382 0.960 . S
C369 C366 1.511 . S
C369 H383 0.961 . S
C369 H384 0.961 . S
C369 H385 0.961 . S
C370 C371 1.370 . S
C370 C372 1.363 . S
C370 H386 0.931 . S
C371 C370 1.370 . S
C371 C375 1.408 . S
C372 C370 1.363 . S
C372 C373 1.370 . S
C372 C376 1.524 . S
C373 C365 1.503 . S
C373 C372 1.370 . S
C373 C374 1.403 . S
C374 C373 1.403 . S
C374 C375 1.404 . S
C374 C377 1.539 . S
C375 C371 1.408 . S
C375 C374 1.404 . S
C375 H387 0.930 . S
C376 C372 1.524 . S
C376 H388 0.956 . S
C376 H389 0.961 . S
C376 H390 0.961 . S
C377 C374 1.539 . S
C377 H391 0.958 . S
C377 H392 0.961 . S
C377 H393 0.960 . S
H378 C362 0.931 . S
H379 C367 0.929 . S
H380 C368 0.960 . S
H381 C368 0.962 . S
H382 C368 0.960 . S
H383 C369 0.961 . S
H384 C369 0.961 . S
H385 C369 0.961 . S
H386 C370 0.931 . S
H387 C375 0.930 . S
H388 C376 0.956 . S
H389 C376 0.961 . S
H390 C376 0.961 . S
H391 C377 0.958 . S
H392 C377 0.961 . S
H393 C377 0.960 . S
C394 C395 1.391 . S
C394 C396 1.394 . S
C394 H410 0.931 . S
C395 C394 1.391 . S
C395 C399 1.376 . S
C396 C394 1.394 . S
C396 C397 1.369 . S
C396 C400 1.531 . S
C397 C396 1.369 . S
C397 C398 1.410 . S
C397 C405 1.503 . S
C398 C397 1.410 . S
C398 C399 1.392 . S
C398 C401 1.511 . S
C399 C395 1.376 . S
C399 C398 1.392 . S
C399 H411 0.929 . S
C400 C396 1.531 . S
C400 H412 0.960 . S
C400 H413 0.962 . S
C400 H414 0.960 . S
C401 C398 1.511 . S
C401 H415 0.961 . S
C401 H416 0.961 . S
C401 H417 0.961 . S
C402 C403 1.370 . S
C402 C404 1.363 . S
C402 H418 0.931 . S
C403 C402 1.370 . S
C403 C407 1.408 . S
C404 C402 1.363 . S
C404 C405 1.370 . S
C404 C408 1.524 . S
C405 C397 1.503 . S
C405 C404 1.370 . S
C405 C406 1.403 . S
C406 C405 1.403 . S
C406 C407 1.404 . S
C406 C409 1.539 . S
C407 C403 1.408 . S
C407 C406 1.404 . S
C407 H419 0.930 . S
C408 C404 1.524 . S
C408 H420 0.956 . S
C408 H421 0.961 . S
C408 H422 0.961 . S
C409 C406 1.539 . S
C409 H423 0.958 . S
C409 H424 0.961 . S
C409 H425 0.960 . S
H410 C394 0.931 . S
H411 C399 0.929 . S
H412 C400 0.960 . S
H413 C400 0.962 . S
H414 C400 0.960 . S
H415 C401 0.961 . S
H416 C401 0.961 . S
H417 C401 0.961 . S
H418 C402 0.931 . S
H419 C407 0.930 . S
H420 C408 0.956 . S
H421 C408 0.961 . S
H422 C408 0.961 . S
H423 C409 0.958 . S
H424 C409 0.961 . S
H425 C409 0.960 . S
C426 C427 1.391 . S
C426 C428 1.394 . S
C426 H442 0.931 . S
C427 C426 1.391 . S
C427 C431 1.376 . S
C428 C426 1.394 . S
C428 C429 1.369 . S
C428 C432 1.531 . S
C429 C428 1.369 . S
C429 C430 1.410 . S
C429 C437 1.503 . S
C430 C429 1.410 . S
C430 C431 1.392 . S
C430 C433 1.511 . S
C431 C427 1.376 . S
C431 C430 1.392 . S
C431 H443 0.929 . S
C432 C428 1.531 . S
C432 H444 0.960 . S
C432 H445 0.962 . S
C432 H446 0.960 . S
C433 C430 1.511 . S
C433 H447 0.961 . S
C433 H448 0.961 . S
C433 H449 0.961 . S
C434 C435 1.370 . S
C434 C436 1.363 . S
C434 H450 0.931 . S
C435 C434 1.370 . S
C435 C439 1.408 . S
C436 C434 1.363 . S
C436 C437 1.370 . S
C436 C440 1.524 . S
C437 C429 1.503 . S
C437 C436 1.370 . S
C437 C438 1.403 . S
C438 C437 1.403 . S
C438 C439 1.404 . S
C438 C441 1.539 . S
C439 C435 1.408 . S
C439 C438 1.404 . S
C439 H451 0.930 . S
C440 C436 1.524 . S
C440 H452 0.956 . S
C440 H453 0.961 . S
C440 H454 0.961 . S
C441 C438 1.539 . S
C441 H455 0.958 . S
C441 H456 0.961 . S
C441 H457 0.960 . S
H442 C426 0.931 . S
H443 C431 0.929 . S
H444 C432 0.960 . S
H445 C432 0.962 . S
H446 C432 0.960 . S
H447 C433 0.961 . S
H448 C433 0.961 . S
H449 C433 0.961 . S
H450 C434 0.931 . S
H451 C439 0.930 . S
H452 C440 0.956 . S
H453 C440 0.961 . S
H454 C440 0.961 . S
H455 C441 0.958 . S
H456 C441 0.961 . S
H457 C441 0.960 . S
C458 C459 1.391 . S
C458 C460 1.394 . S
C458 H474 0.931 . S
C459 C458 1.391 . S
C459 C463 1.376 . S
C460 C458 1.394 . S
C460 C461 1.369 . S
C460 C464 1.531 . S
C461 C460 1.369 . S
C461 C462 1.410 . S
C461 C469 1.503 . S
C462 C461 1.410 . S
C462 C463 1.392 . S
C462 C465 1.511 . S
C463 C459 1.376 . S
C463 C462 1.392 . S
C463 H475 0.929 . S
C464 C460 1.531 . S
C464 H476 0.960 . S
C464 H477 0.962 . S
C464 H478 0.960 . S
C465 C462 1.511 . S
C465 H479 0.961 . S
C465 H480 0.961 . S
C465 H481 0.961 . S
C466 C467 1.370 . S
C466 C468 1.363 . S
C466 H482 0.931 . S
C467 C466 1.370 . S
C467 C471 1.408 . S
C468 C466 1.363 . S
C468 C469 1.370 . S
C468 C472 1.524 . S
C469 C461 1.503 . S
C469 C468 1.370 . S
C469 C470 1.403 . S
C470 C469 1.403 . S
C470 C471 1.404 . S
C470 C473 1.539 . S
C471 C467 1.408 . S
C471 C470 1.404 . S
C471 H483 0.930 . S
C472 C468 1.524 . S
C472 H484 0.956 . S
C472 H485 0.961 . S
C472 H486 0.961 . S
C473 C470 1.539 . S
C473 H487 0.958 . S
C473 H488 0.961 . S
C473 H489 0.960 . S
H474 C458 0.931 . S
H475 C463 0.929 . S
H476 C464 0.960 . S
H477 C464 0.962 . S
H478 C464 0.960 . S
H479 C465 0.961 . S
H480 C465 0.961 . S
H481 C465 0.961 . S
H482 C466 0.931 . S
H483 C471 0.930 . S
H484 C472 0.956 . S
H485 C472 0.961 . S
H486 C472 0.961 . S
H487 C473 0.958 . S
H488 C473 0.961 . S
H489 C473 0.960 . S
C490 C491 1.391 . S
C490 C492 1.394 . S
C490 H506 0.931 . S
C491 C490 1.391 . S
C491 C495 1.376 . S
C492 C490 1.394 . S
C492 C493 1.369 . S
C492 C496 1.531 . S
C493 C492 1.369 . S
C493 C494 1.410 . S
C493 C501 1.503 . S
C494 C493 1.410 . S
C494 C495 1.392 . S
C494 C497 1.511 . S
C495 C491 1.376 . S
C495 C494 1.392 . S
C495 H507 0.929 . S
C496 C492 1.531 . S
C496 H508 0.960 . S
C496 H509 0.962 . S
C496 H510 0.960 . S
C497 C494 1.511 . S
C497 H511 0.961 . S
C497 H512 0.961 . S
C497 H513 0.961 . S
C498 C499 1.370 . S
C498 C500 1.363 . S
C498 H514 0.931 . S
C499 C498 1.370 . S
C499 C503 1.408 . S
C500 C498 1.363 . S
C500 C501 1.370 . S
C500 C504 1.524 . S
C501 C493 1.503 . S
C501 C500 1.370 . S
C501 C502 1.403 . S
C502 C501 1.403 . S
C502 C503 1.404 . S
C502 C505 1.539 . S
C503 C499 1.408 . S
C503 C502 1.404 . S
C503 H515 0.930 . S
C504 C500 1.524 . S
C504 H516 0.956 . S
C504 H517 0.961 . S
C504 H518 0.961 . S
C505 C502 1.539 . S
C505 H519 0.958 . S
C505 H520 0.961 . S
C505 H521 0.960 . S
H506 C490 0.931 . S
H507 C495 0.929 . S
H508 C496 0.960 . S
H509 C496 0.962 . S
H510 C496 0.960 . S
H511 C497 0.961 . S
H512 C497 0.961 . S
H513 C497 0.961 . S
H514 C498 0.931 . S
H515 C503 0.930 . S
H516 C504 0.956 . S
H517 C504 0.961 . S
H518 C504 0.961 . S
H519 C505 0.958 . S
H520 C505 0.961 . S
H521 C505 0.960 . S
C522 C523 1.391 . S
C522 C524 1.394 . S
C522 H538 0.931 . S
C523 C522 1.391 . S
C523 C527 1.376 . S
C524 C522 1.394 . S
C524 C525 1.369 . S
C524 C528 1.531 . S
C525 C524 1.369 . S
C525 C526 1.410 . S
C525 C533 1.503 . S
C526 C525 1.410 . S
C526 C527 1.392 . S
C526 C529 1.511 . S
C527 C523 1.376 . S
C527 C526 1.392 . S
C527 H539 0.929 . S
C528 C524 1.531 . S
C528 H540 0.960 . S
C528 H541 0.962 . S
C528 H542 0.960 . S
C529 C526 1.511 . S
C529 H543 0.961 . S
C529 H544 0.961 . S
C529 H545 0.961 . S
C530 C531 1.370 . S
C530 C532 1.363 . S
C530 H546 0.931 . S
C531 C530 1.370 . S
C531 C535 1.408 . S
C532 C530 1.363 . S
C532 C533 1.370 . S
C532 C536 1.524 . S
C533 C525 1.503 . S
C533 C532 1.370 . S
C533 C534 1.403 . S
C534 C533 1.403 . S
C534 C535 1.404 . S
C534 C537 1.539 . S
C535 C531 1.408 . S
C535 C534 1.404 . S
C535 H547 0.930 . S
C536 C532 1.524 . S
C536 H548 0.956 . S
C536 H549 0.961 . S
C536 H550 0.961 . S
C537 C534 1.539 . S
C537 H551 0.958 . S
C537 H552 0.961 . S
C537 H553 0.960 . S
H538 C522 0.931 . S
H539 C527 0.929 . S
H540 C528 0.960 . S
H541 C528 0.962 . S
H542 C528 0.960 . S
H543 C529 0.961 . S
H544 C529 0.961 . S
H545 C529 0.961 . S
H546 C530 0.931 . S
H547 C535 0.930 . S
H548 C536 0.956 . S
H549 C536 0.961 . S
H550 C536 0.961 . S
H551 C537 0.958 . S
H552 C537 0.961 . S
H553 C537 0.960 . S
C554 C555 1.391 . S
C554 C556 1.394 . S
C554 H570 0.931 . S
C555 C554 1.391 . S
C555 C559 1.376 . S
C556 C554 1.394 . S
C556 C557 1.369 . S
C556 C560 1.531 . S
C557 C556 1.369 . S
C557 C558 1.410 . S
C557 C565 1.503 . S
C558 C557 1.410 . S
C558 C559 1.392 . S
C558 C561 1.511 . S
C559 C555 1.376 . S
C559 C558 1.392 . S
C559 H571 0.929 . S
C560 C556 1.531 . S
C560 H572 0.960 . S
C560 H573 0.962 . S
C560 H574 0.960 . S
C561 C558 1.511 . S
C561 H575 0.961 . S
C561 H576 0.961 . S
C561 H577 0.961 . S
C562 C563 1.370 . S
C562 C564 1.363 . S
C562 H578 0.931 . S
C563 C562 1.370 . S
C563 C567 1.408 . S
C564 C562 1.363 . S
C564 C565 1.370 . S
C564 C568 1.524 . S
C565 C557 1.503 . S
C565 C564 1.370 . S
C565 C566 1.403 . S
C566 C565 1.403 . S
C566 C567 1.404 . S
C566 C569 1.539 . S
C567 C563 1.408 . S
C567 C566 1.404 . S
C567 H579 0.930 . S
C568 C564 1.524 . S
C568 H580 0.956 . S
C568 H581 0.961 . S
C568 H582 0.961 . S
C569 C566 1.539 . S
C569 H583 0.958 . S
C569 H584 0.961 . S
C569 H585 0.960 . S
H570 C554 0.931 . S
H571 C559 0.929 . S
H572 C560 0.960 . S
H573 C560 0.962 . S
H574 C560 0.960 . S
H575 C561 0.961 . S
H576 C561 0.961 . S
H577 C561 0.961 . S
H578 C562 0.931 . S
H579 C567 0.930 . S
H580 C568 0.956 . S
H581 C568 0.961 . S
H582 C568 0.961 . S
H583 C569 0.958 . S
H584 C569 0.961 . S
H585 C569 0.960 . S
C586 C587 1.391 . S
C586 C588 1.394 . S
C586 H602 0.931 . S
C587 C586 1.391 . S
C587 C591 1.376 . S
C588 C586 1.394 . S
C588 C589 1.369 . S
C588 C592 1.531 . S
C589 C588 1.369 . S
C589 C590 1.410 . S
C589 C597 1.503 . S
C590 C589 1.410 . S
C590 C591 1.392 . S
C590 C593 1.511 . S
C591 C587 1.376 . S
C591 C590 1.392 . S
C591 H603 0.929 . S
C592 C588 1.531 . S
C592 H604 0.960 . S
C592 H605 0.962 . S
C592 H606 0.960 . S
C593 C590 1.511 . S
C593 H607 0.961 . S
C593 H608 0.961 . S
C593 H609 0.961 . S
C594 C595 1.370 . S
C594 C596 1.363 . S
C594 H610 0.931 . S
C595 C594 1.370 . S
C595 C599 1.408 . S
C596 C594 1.363 . S
C596 C597 1.370 . S
C596 C600 1.524 . S
C597 C589 1.503 . S
C597 C596 1.370 . S
C597 C598 1.403 . S
C598 C597 1.403 . S
C598 C599 1.404 . S
C598 C601 1.539 . S
C599 C595 1.408 . S
C599 C598 1.404 . S
C599 H611 0.930 . S
C600 C596 1.524 . S
C600 H612 0.956 . S
C600 H613 0.961 . S
C600 H614 0.961 . S
C601 C598 1.539 . S
C601 H615 0.958 . S
C601 H616 0.961 . S
C601 H617 0.960 . S
H602 C586 0.931 . S
H603 C591 0.929 . S
H604 C592 0.960 . S
H605 C592 0.962 . S
H606 C592 0.960 . S
H607 C593 0.961 . S
H608 C593 0.961 . S
H609 C593 0.961 . S
H610 C594 0.931 . S
H611 C599 0.930 . S
H612 C600 0.956 . S
H613 C600 0.961 . S
H614 C600 0.961 . S
H615 C601 0.958 . S
H616 C601 0.961 . S
H617 C601 0.960 . S
C618 C619 1.391 . S
C618 C620 1.394 . S
C618 H634 0.931 . S
C619 C618 1.391 . S
C619 C623 1.376 . S
C620 C618 1.394 . S
C620 C621 1.369 . S
C620 C624 1.531 . S
C621 C620 1.369 . S
C621 C622 1.410 . S
C621 C629 1.503 1_554 S
C622 C621 1.410 . S
C622 C623 1.392 . S
C622 C625 1.511 . S
C623 C619 1.376 . S
C623 C622 1.392 . S
C623 H635 0.929 . S
C624 C620 1.531 . S
C624 H636 0.969 . S
C624 H637 0.962 1_455 S
C624 H638 0.960 . S
C625 C622 1.511 . S
C625 H639 0.961 . S
C625 H640 0.961 . S
C625 H641 0.961 . S
C626 C627 1.370 1_655 S
C626 C628 1.363 1_655 S
C626 H642 0.931 . S
C627 C626 1.370 1_455 S
C627 C631 1.408 . S
C628 C626 1.363 1_455 S
C628 C629 1.370 . S
C628 C632 1.524 1_455 S
C629 C621 1.503 1_556 S
C629 C628 1.370 . S
C629 C630 1.403 . S
C630 C629 1.403 . S
C630 C631 1.404 . S
C630 C633 1.538 . S
C631 C627 1.408 . S
C631 C630 1.404 . S
C631 H643 0.930 . S
C632 C628 1.524 1_655 S
C632 H644 0.956 . S
C632 H645 0.961 1_556 S
C632 H646 0.961 . S
C633 C630 1.538 . S
C633 H647 0.958 . S
C633 H648 0.959 . S
C633 H649 0.964 1_556 S
H634 C618 0.931 . S
H635 C623 0.929 . S
H636 C624 0.969 . S
H637 C624 0.962 1_655 S
H638 C624 0.960 . S
H639 C625 0.961 . S
H640 C625 0.961 . S
H641 C625 0.961 . S
H642 C626 0.931 . S
H643 C631 0.930 . S
H644 C632 0.956 . S
H645 C632 0.961 1_554 S
H646 C632 0.961 . S
H647 C633 0.958 . S
H648 C633 0.959 . S
H649 C633 0.964 1_554 S
C650 C651 1.391 . S
C650 C652 1.394 . S
C650 H666 0.931 . S
C651 C650 1.391 . S
C651 C655 1.376 . S
C652 C650 1.394 . S
C652 C653 1.369 . S
C652 C656 1.531 . S
C653 C652 1.369 . S
C653 C654 1.410 . S
C653 C661 1.503 . S
C654 C653 1.410 . S
C654 C655 1.392 . S
C654 C657 1.511 . S
C655 C651 1.376 . S
C655 C654 1.392 . S
C655 H667 0.929 . S
C656 C652 1.531 . S
C656 H668 0.960 . S
C656 H669 0.962 . S
C656 H670 0.960 . S
C657 C654 1.511 . S
C657 H671 0.961 . S
C657 H672 0.961 . S
C657 H673 0.961 . S
C658 C659 1.370 . S
C658 C660 1.363 . S
C658 H674 0.931 . S
C659 C658 1.370 . S
C659 C663 1.408 . S
C660 C658 1.363 . S
C660 C661 1.370 . S
C660 C664 1.524 1_545 S
C661 C653 1.503 . S
C661 C660 1.370 . S
C661 C662 1.403 . S
C662 C661 1.403 . S
C662 C663 1.404 . S
C662 C665 1.539 . S
C663 C659 1.408 . S
C663 C662 1.404 . S
C663 H675 0.930 . S
C664 C660 1.524 1_565 S
C664 H676 0.956 1_565 S
C664 H677 0.961 . S
C664 H678 0.961 . S
C665 C662 1.539 . S
C665 H679 0.958 . S
C665 H680 0.961 . S
C665 H681 0.960 . S
H666 C650 0.931 . S
H667 C655 0.929 . S
H668 C656 0.960 . S
H669 C656 0.962 . S
H670 C656 0.960 . S
H671 C657 0.961 . S
H672 C657 0.961 . S
H673 C657 0.961 . S
H674 C658 0.931 . S
H675 C663 0.930 . S
H676 C664 0.956 1_545 S
H677 C664 0.961 . S
H678 C664 0.961 . S
H679 C665 0.958 . S
H680 C665 0.961 . S
H681 C665 0.960 . S
C682 C683 1.391 . S
C682 C684 1.394 . S
C682 H698 0.931 . S
C683 C682 1.391 . S
C683 C687 1.376 . S
C684 C682 1.394 . S
C684 C685 1.369 . S
C684 C688 1.531 . S
C685 C684 1.369 . S
C685 C686 1.410 . S
C685 C693 1.503 . S
C686 C685 1.410 . S
C686 C687 1.392 . S
C686 C689 1.511 . S
C687 C683 1.376 . S
C687 C686 1.392 . S
C687 H699 0.929 . S
C688 C684 1.531 . S
C688 H700 0.960 . S
C688 H701 0.962 . S
C688 H702 0.960 . S
C689 C686 1.511 . S
C689 H703 0.961 . S
C689 H704 0.961 . S
C689 H705 0.961 . S
C690 C691 1.370 . S
C690 C692 1.363 . S
C690 H706 0.931 . S
C691 C690 1.370 . S
C691 C695 1.408 . S
C692 C690 1.363 . S
C692 C693 1.370 . S
C692 C696 1.524 . S
C693 C685 1.503 . S
C693 C692 1.370 . S
C693 C694 1.403 . S
C694 C693 1.403 . S
C694 C695 1.404 . S
C694 C697 1.539 . S
C695 C691 1.408 . S
C695 C694 1.404 . S
C695 H707 0.930 . S
C696 C692 1.524 . S
C696 H708 0.956 . S
C696 H709 0.961 . S
C696 H710 0.961 . S
C697 C694 1.539 . S
C697 H711 0.958 . S
C697 H712 0.961 . S
C697 H713 0.960 . S
H698 C682 0.931 . S
H699 C687 0.929 . S
H700 C688 0.960 . S
H701 C688 0.962 . S
H702 C688 0.960 . S
H703 C689 0.961 . S
H704 C689 0.961 . S
H705 C689 0.961 . S
H706 C690 0.931 . S
H707 C695 0.930 . S
H708 C696 0.956 . S
H709 C696 0.961 . S
H710 C696 0.961 . S
H711 C697 0.958 . S
H712 C697 0.961 . S
H713 C697 0.960 . S
C714 C715 1.391 . S
C714 C716 1.394 . S
C714 H730 0.931 . S
C715 C714 1.391 . S
C715 C719 1.376 . S
C716 C714 1.394 . S
C716 C717 1.369 . S
C716 C720 1.531 . S
C717 C716 1.369 . S
C717 C718 1.410 . S
C717 C725 1.503 . S
C718 C717 1.410 . S
C718 C719 1.392 . S
C718 C721 1.511 . S
C719 C715 1.376 . S
C719 C718 1.392 . S
C719 H731 0.929 . S
C720 C716 1.531 . S
C720 H732 0.960 . S
C720 H733 0.962 . S
C720 H734 0.960 . S
C721 C718 1.511 . S
C721 H735 0.961 1_545 S
C721 H736 0.961 . S
C721 H737 0.961 . S
C722 C723 1.370 . S
C722 C724 1.363 . S
C722 H738 0.931 . S
C723 C722 1.370 . S
C723 C727 1.408 . S
C724 C722 1.363 . S
C724 C725 1.370 . S
C724 C728 1.524 . S
C725 C717 1.503 . S
C725 C724 1.370 . S
C725 C726 1.403 . S
C726 C725 1.403 . S
C726 C727 1.404 . S
C726 C729 1.539 . S
C727 C723 1.408 . S
C727 C726 1.404 . S
C727 H739 0.930 . S
C728 C724 1.524 . S
C728 H740 0.956 . S
C728 H741 0.960 1_545 S
C728 H742 0.961 1_545 S
C729 C726 1.539 . S
C729 H743 0.958 . S
C729 H744 0.961 . S
C729 H745 0.960 . S
H730 C714 0.931 . S
H731 C719 0.929 . S
H732 C720 0.960 . S
H733 C720 0.962 . S
H734 C720 0.960 . S
H735 C721 0.961 1_565 S
H736 C721 0.961 . S
H737 C721 0.961 . S
H738 C722 0.931 . S
H739 C727 0.930 . S
H740 C728 0.956 . S
H741 C728 0.960 1_565 S
H742 C728 0.961 1_565 S
H743 C729 0.958 . S
H744 C729 0.961 . S
H745 C729 0.960 . S
C746 C747 1.391 . S
C746 C748 1.394 . S
C746 H762 0.931 . S
C747 C746 1.391 . S
C747 C751 1.376 . S
C748 C746 1.394 . S
C748 C749 1.369 . S
C748 C752 1.531 . S
C749 C748 1.369 . S
C749 C750 1.410 . S
C749 C757 1.503 1_556 S
C750 C749 1.410 . S
C750 C751 1.392 . S
C750 C753 1.511 . S
C751 C747 1.376 . S
C751 C750 1.392 . S
C751 H763 0.929 . S
C752 C748 1.531 . S
C752 H764 0.960 1_556 S
C752 H765 0.962 . S
C752 H766 0.960 . S
C753 C750 1.511 . S
C753 H767 0.961 . S
C753 H768 0.961 . S
C753 H769 0.961 . S
C754 C755 1.370 . S
C754 C756 1.363 . S
C754 H770 0.931 . S
C755 C754 1.370 . S
C755 C759 1.408 . S
C756 C754 1.363 . S
C756 C757 1.370 . S
C756 C760 1.524 1_554 S
C757 C749 1.503 1_554 S
C757 C756 1.370 . S
C757 C758 1.403 . S
C758 C757 1.403 . S
C758 C759 1.404 . S
C758 C761 1.539 . S
C759 C755 1.408 . S
C759 C758 1.404 . S
C759 H771 0.930 . S
C760 C756 1.524 1_556 S
C760 H772 0.956 . S
C760 H773 0.961 . S
C760 H774 0.961 . S
C761 C758 1.539 . S
C761 H775 0.958 . S
C761 H776 0.961 . S
C761 H777 0.960 1_554 S
H762 C746 0.931 . S
H763 C751 0.929 . S
H764 C752 0.960 1_554 S
H765 C752 0.962 . S
H766 C752 0.960 . S
H767 C753 0.961 . S
H768 C753 0.961 . S
H769 C753 0.961 . S
H770 C754 0.931 . S
H771 C759 0.930 . S
H772 C760 0.956 . S
H773 C760 0.961 . S
H774 C760 0.961 . S
H775 C761 0.958 . S
H776 C761 0.961 . S
H777 C761 0.960 1_556 S
C778 C779 1.391 . S
C778 C780 1.394 . S
C778 H794 0.931 . S
C779 C778 1.391 . S
C779 C783 1.376 . S
C780 C778 1.394 . S
C780 C781 1.369 . S
C780 C784 1.531 . S
C781 C780 1.369 . S
C781 C782 1.410 . S
C781 C789 1.503 . S
C782 C781 1.410 . S
C782 C783 1.392 . S
C782 C785 1.511 1_455 S
C783 C779 1.376 . S
C783 C782 1.392 . S
C783 H795 0.929 1_455 S
C784 C780 1.531 . S
C784 H796 0.960 . S
C784 H797 0.962 . S
C784 H798 0.960 . S
C785 C782 1.511 1_655 S
C785 H799 0.961 . S
C785 H800 0.961 . S
C785 H801 0.961 . S
C786 C787 1.370 . S
C786 C788 1.363 . S
C786 H802 0.931 . S
C787 C786 1.370 . S
C787 C791 1.408 . S
C788 C786 1.363 . S
C788 C789 1.370 . S
C788 C792 1.524 . S
C789 C781 1.503 . S
C789 C788 1.370 . S
C789 C790 1.403 . S
C790 C789 1.403 . S
C790 C791 1.404 . S
C790 C793 1.539 . S
C791 C787 1.408 . S
C791 C790 1.404 . S
C791 H803 0.930 . S
C792 C788 1.524 . S
C792 H804 0.956 . S
C792 H805 0.961 . S
C792 H806 0.961 . S
C793 C790 1.539 . S
C793 H807 0.958 . S
C793 H808 0.961 . S
C793 H809 0.960 . S
H794 C778 0.931 . S
H795 C783 0.929 1_655 S
H796 C784 0.960 . S
H797 C784 0.962 . S
H798 C784 0.960 . S
H799 C785 0.961 . S
H800 C785 0.961 . S
H801 C785 0.961 . S
H802 C786 0.931 . S
H803 C791 0.930 . S
H804 C792 0.956 . S
H805 C792 0.961 . S
H806 C792 0.961 . S
H807 C793 0.958 . S
H808 C793 0.961 . S
H809 C793 0.960 . S
C235 C9 0.640 . S
C243 C226 0.701 . S
C267 C49 0.381 . S
C275 C188 0.588 . S
C299 C89 0.296 . S
C307 C207 0.536 . S
C331 C26 0.328 . S
C339 C221 0.325 . S
C371 C183 0.164 . S
C363 C66 0.235 . S
C403 C202 0.211 . S
C395 C106 0.332 . S
C427 C43 3.098 . S
C435 C150 3.010 . S
C459 C83 3.013 . S
C467 C164 2.968 . S
C491 C22 3.052 . S
C499 C126 3.009 1_565 S
C531 C145 3.002 . S
C523 C62 3.050 . S
C563 C169 3.029 . S
C555 C102 3.124 . S
C587 C3 3.092 . S
C595 C131 3.021 . S
C627 C160 1.722 . S
C619 C15 1.710 . S
C651 C55 1.755 . S
C659 C122 1.751 . S
C683 C95 1.738 . S
C691 C141 1.739 . S
C723 C198 1.332 . S
C715 C42 1.328 . S
C755 C217 1.335 . S
C747 C82 1.290 . S
C779 C2 1.313 . S
C787 C179 1.303 . S
