# Generated by pormake.
# Topology zzz, (3,6)-cn, num edge types: 1
# Building blocks:
#     Node 0, Type 0, BuildingBlock: ESEHIV_clean_linker_0, # of connection points: 3
#     Node 1, Type 0, BuildingBlock: ESEHIV_clean_linker_0, # of connection points: 3
#     Node 2, Type 0, BuildingBlock: ESEHIV_clean_linker_0, # of connection points: 3
#     Node 3, Type 0, BuildingBlock: ESEHIV_clean_linker_0, # of connection points: 3
#     Node 4, Type 0, BuildingBlock: ESEHIV_clean_linker_0, # of connection points: 3
#     Node 5, Type 0, BuildingBlock: ESEHIV_clean_linker_0, # of connection points: 3
#     Node 6, Type 0, BuildingBlock: ESEHIV_clean_linker_0, # of connection points: 3
#     Node 7, Type 0, BuildingBlock: ESEHIV_clean_linker_0, # of connection points: 3
#     Node 8, Type 1, BuildingBlock: VOLQOD_clean_sbu_1, # of connection points: 6
#     Node 9, Type 1, BuildingBlock: VOLQOD_clean_sbu_1, # of connection points: 6
#     Node 10, Type 1, BuildingBlock: VOLQOD_clean_sbu_1, # of connection points: 6
#     Node 11, Type 1, BuildingBlock: VOLQOD_clean_sbu_1, # of connection points: 6
#     Edge 12, Type (0, 1), BuildingBlock: UVAHIK_clean_linker_0, # of connection points: 2
#     Edge 13, Type (0, 1), BuildingBlock: UVAHIK_clean_linker_0, # of connection points: 2
#     Edge 14, Type (0, 1), BuildingBlock: UVAHIK_clean_linker_0, # of connection points: 2
#     Edge 15, Type (0, 1), BuildingBlock: UVAHIK_clean_linker_0, # of connection points: 2
#     Edge 16, Type (0, 1), BuildingBlock: UVAHIK_clean_linker_0, # of connection points: 2
#     Edge 17, Type (0, 1), BuildingBlock: UVAHIK_clean_linker_0, # of connection points: 2
#     Edge 18, Type (0, 1), BuildingBlock: UVAHIK_clean_linker_0, # of connection points: 2
#     Edge 19, Type (0, 1), BuildingBlock: UVAHIK_clean_linker_0, # of connection points: 2
#     Edge 20, Type (0, 1), BuildingBlock: UVAHIK_clean_linker_0, # of connection points: 2
#     Edge 21, Type (0, 1), BuildingBlock: UVAHIK_clean_linker_0, # of connection points: 2
#     Edge 22, Type (0, 1), BuildingBlock: UVAHIK_clean_linker_0, # of connection points: 2
#     Edge 23, Type (0, 1), BuildingBlock: UVAHIK_clean_linker_0, # of connection points: 2
#     Edge 24, Type (0, 1), BuildingBlock: UVAHIK_clean_linker_0, # of connection points: 2
#     Edge 25, Type (0, 1), BuildingBlock: UVAHIK_clean_linker_0, # of connection points: 2
#     Edge 26, Type (0, 1), BuildingBlock: UVAHIK_clean_linker_0, # of connection points: 2
#     Edge 27, Type (0, 1), BuildingBlock: UVAHIK_clean_linker_0, # of connection points: 2
#     Edge 28, Type (0, 1), BuildingBlock: UVAHIK_clean_linker_0, # of connection points: 2
#     Edge 29, Type (0, 1), BuildingBlock: UVAHIK_clean_linker_0, # of connection points: 2
#     Edge 30, Type (0, 1), BuildingBlock: UVAHIK_clean_linker_0, # of connection points: 2
#     Edge 31, Type (0, 1), BuildingBlock: UVAHIK_clean_linker_0, # of connection points: 2
#     Edge 32, Type (0, 1), BuildingBlock: UVAHIK_clean_linker_0, # of connection points: 2
#     Edge 33, Type (0, 1), BuildingBlock: UVAHIK_clean_linker_0, # of connection points: 2
#     Edge 34, Type (0, 1), BuildingBlock: UVAHIK_clean_linker_0, # of connection points: 2
#     Edge 35, Type (0, 1), BuildingBlock: UVAHIK_clean_linker_0, # of connection points: 2
# Relax obj value: 0.361
# Max RMSD: 0.258
# Mean RMSD: 0.208
data_MOF--net-zzz--node1-VOLQOD_clean_sbu_1--node2-ESEHIV_clean_linker_0--edge1-UVAHIK_clean_linker_0
_symmetry_space_group_name_H-M    P1
_symmetry_Int_Tables_number       1
_symmetry_cell_setting            triclinic
loop_
_symmetry_equiv_pos_as_xyz
'x, y, z'
_cell_length_a     58.319669
_cell_length_b     57.34566
_cell_length_c     22.940329
_cell_angle_alpha  90.147956
_cell_angle_beta   90.209963
_cell_angle_gamma 92.20675
loop_
_atom_site_label
_atom_site_type_symbol
_atom_site_fract_x
_atom_site_fract_y
_atom_site_fract_z
_atom_type_partial_charge
H0 H 0.82936 0.45905 0.16147 0.0
H1 H 0.77507 0.44325 0.03782 0.0
H2 H 0.76292 0.48669 0.18648 0.0
C3 C 0.81169 0.45984 0.1473 0.0
C4 C 0.79665 0.4727 0.18119 0.0
C5 C 0.80445 0.44942 0.09442 0.0
C6 C 0.78149 0.45176 0.0771 0.0
C7 C 0.7666 0.46561 0.109 0.0
C8 C 0.7742 0.47588 0.16159 0.0
H9 H 0.04435 0.7867 0.27899 0.0
H10 H 0.04949 0.74999 0.11632 0.0
H11 H 0.01428 0.71756 0.26123 0.0
C12 C 0.04129 0.77115 0.25271 0.0
C13 C 0.02846 0.75233 0.27646 0.0
C14 C 0.0484 0.77097 0.1944 0.0
C15 C 0.04462 0.75039 0.16181 0.0
C16 C 0.03304 0.7307 0.18596 0.0
C17 C 0.02426 0.73208 0.24295 0.0
H18 H 0.70932 0.04378 0.18868 0.0
H19 H 0.75668 0.05953 0.04988 0.0
H20 H 0.77583 0.01462 0.19115 0.0
C21 C 0.72607 0.04228 0.16892 0.0
C22 C 0.74187 0.02782 0.19514 0.0
C23 C 0.73104 0.05366 0.11621 0.0
C24 C 0.75294 0.05161 0.09179 0.0
C25 C 0.76941 0.03777 0.1187 0.0
C26 C 0.7637 0.02593 0.17077 0.0
H27 H 0.50551 0.69817 0.24583 0.0
H28 H 0.54189 0.76473 0.24709 0.0
H29 H 0.5062 0.7406 0.09193 0.0
C30 C 0.5106 0.71421 0.22363 0.0
C31 C 0.50439 0.71721 0.16516 0.0
C32 C 0.52414 0.73115 0.25331 0.0
C33 C 0.5311 0.75178 0.22452 0.0
C34 C 0.52438 0.75548 0.16632 0.0
C35 C 0.51105 0.73807 0.13704 0.0
H36 H 0.20999 0.57947 0.15749 0.0
H37 H 0.2596 0.5892 0.29552 0.0
H38 H 0.27314 0.54378 0.1508 0.0
C39 C 0.22687 0.57674 0.1756 0.0
C40 C 0.24123 0.56137 0.14714 0.0
C41 C 0.23313 0.58665 0.22969 0.0
C42 C 0.25468 0.58184 0.25354 0.0
C43 C 0.26927 0.56637 0.2256 0.0
C44 C 0.26232 0.55607 0.17237 0.0
H45 H 0.0745 0.19298 0.13829 0.0
H46 H 0.0577 0.24405 0.26624 0.0
H47 H 0.0863 0.26581 0.10099 0.0
C48 C 0.07462 0.21099 0.15282 0.0
C49 C 0.08278 0.22859 0.11501 0.0
C50 C 0.06511 0.21637 0.20685 0.0
C51 C 0.06435 0.23981 0.22362 0.0
C52 C 0.07164 0.25787 0.18574 0.0
C53 C 0.081 0.25215 0.13116 0.0
H54 H 0.32667 0.95876 0.13692 0.0
H55 H 0.28715 0.9544 0.29453 0.0
H56 H 0.26555 0.99768 0.15288 0.0
C57 C 0.31187 0.96344 0.16223 0.0
C58 C 0.29652 0.97911 0.13854 0.0
C59 C 0.30903 0.95479 0.21896 0.0
C60 C 0.28963 0.96098 0.25069 0.0
C61 C 0.27359 0.97607 0.22698 0.0
C62 C 0.27732 0.9854 0.17092 0.0
H63 H 0.47415 0.29992 0.12809 0.0
H64 H 0.45223 0.22746 0.11567 0.0
H65 H 0.49193 0.25264 0.26374 0.0
C66 C 0.47339 0.28245 0.14627 0.0
C67 C 0.48449 0.2783 0.19901 0.0
C68 C 0.46181 0.2643 0.11583 0.0
C69 C 0.46128 0.24154 0.13877 0.0
C70 C 0.47175 0.23739 0.19306 0.0
C71 C 0.48365 0.25578 0.22222 0.0
O72 O 0.07584 0.99072 0.646 0.0
Zn73 Zn 0.05204 0.9946 0.70967 0.0
O74 O 0.02062 0.99122 0.67614 0.0
Zn75 Zn 0.0047 0.02021 0.68534 0.0
Zn76 Zn 0.02193 0.98324 0.59352 0.0
Zn77 Zn 0.00272 0.96668 0.71533 0.0
O78 O 0.97704 0.01656 0.73719 0.0
O79 O 0.97561 0.97887 0.75876 0.0
O80 O 0.05793 0.02721 0.74401 0.0
O81 O 0.02574 0.04459 0.72111 0.0
O82 O 0.99519 0.03319 0.60835 0.0
O83 O 0.00796 0.00784 0.54413 0.0
O84 O 0.00658 0.95188 0.57578 0.0
O85 O 0.05704 0.96986 0.77209 0.0
O86 O 0.992 0.94087 0.66091 0.0
O87 O 0.02277 0.95151 0.77246 0.0
C88 C 0.07411 0.98583 0.59183 0.0
C89 C 0.96765 0.99916 0.7634 0.0
C90 C 0.99807 0.02667 0.55592 0.0
C91 C 0.04586 0.0453 0.74283 0.0
C92 C 0.99531 0.93712 0.60695 0.0
C93 C 0.04332 0.95374 0.79094 0.0
O94 O 0.0546 0.98229 0.56767 0.0
O95 O 0.50746 0.04517 0.61684 0.0
Zn96 Zn 0.51249 0.02608 0.68939 0.0
O97 O 0.52163 0.99449 0.66686 0.0
Zn98 Zn 0.49841 0.97157 0.6926 0.0
Zn99 Zn 0.52515 0.99218 0.58221 0.0
Zn100 Zn 0.55066 0.98742 0.7038 0.0
O101 O 0.5107 0.9503 0.75366 0.0
O102 O 0.54729 0.96168 0.76363 0.0
O103 O 0.48229 0.02509 0.73392 0.0
O104 O 0.47195 0.98748 0.72827 0.0
O105 O 0.48573 0.95215 0.62611 0.0
O106 O 0.50363 0.96725 0.54902 0.0
O107 O 0.55744 0.98424 0.56009 0.0
O108 O 0.53753 0.04315 0.73715 0.0
O109 O 0.57446 0.97885 0.64541 0.0
O110 O 0.56367 0.01602 0.74253 0.0
C111 C 0.51025 0.04172 0.56242 0.0
C112 C 0.53019 0.94846 0.77803 0.0
C113 C 0.48919 0.95268 0.57138 0.0
C114 C 0.46783 0.00827 0.74339 0.0
C115 C 0.57497 0.97903 0.58999 0.0
C116 C 0.55725 0.03656 0.75289 0.0
O117 O 0.51738 0.02243 0.54324 0.0
O118 O 0.45617 0.49952 0.63785 0.0
Zn119 Zn 0.47666 0.49343 0.70719 0.0
O120 O 0.50933 0.49758 0.68495 0.0
Zn121 Zn 0.5254 0.46909 0.70045 0.0
Zn122 Zn 0.51206 0.50503 0.60211 0.0
Zn123 Zn 0.5241 0.52287 0.72985 0.0
O124 O 0.5511 0.47393 0.75904 0.0
O125 O 0.55084 0.51198 0.7763 0.0
O126 O 0.46941 0.46026 0.73609 0.0
O127 O 0.50348 0.44434 0.72992 0.0
O128 O 0.53808 0.45568 0.62727 0.0
O129 O 0.52825 0.48018 0.55767 0.0
O130 O 0.52856 0.53604 0.58958 0.0
O131 O 0.46846 0.51646 0.77068 0.0
O132 O 0.53505 0.54972 0.67889 0.0
O133 O 0.50203 0.53515 0.78725 0.0
C134 C 0.46029 0.505 0.58498 0.0
C135 C 0.55928 0.49214 0.78477 0.0
C136 C 0.53765 0.46159 0.57388 0.0
C137 C 0.48216 0.4428 0.74156 0.0
C138 C 0.53609 0.55213 0.62378 0.0
C139 C 0.48086 0.53156 0.79844 0.0
O140 O 0.48077 0.50753 0.56631 0.0
O141 O 0.98111 0.53133 0.59529 0.0
Zn142 Zn 0.01263 0.53301 0.63451 0.0
O143 O 0.02365 0.50147 0.65081 0.0
Zn144 Zn 0.02633 0.49649 0.73476 0.0
Zn145 Zn 0.00241 0.47801 0.61814 0.0
Zn146 Zn 0.05354 0.49744 0.61538 0.0
O147 O 0.05877 0.48977 0.75812 0.0
O148 O 0.07842 0.49541 0.67622 0.0
O149 O 0.01021 0.55138 0.70959 0.0
O150 O 0.01858 0.52575 0.77819 0.0
O151 O 0.00478 0.47054 0.76235 0.0
O152 O 0.98934 0.45674 0.68014 0.0
O153 O 0.01692 0.45902 0.55524 0.0
O154 O 0.03466 0.55089 0.58094 0.0
O155 O 0.05399 0.4691 0.56279 0.0
O156 O 0.06131 0.5249 0.56486 0.0
C157 C 0.96872 0.51383 0.57796 0.0
C158 C 0.07772 0.49134 0.73074 0.0
C159 C 0.9913 0.45618 0.73541 0.0
C160 C 0.01285 0.5461 0.76311 0.0
C161 C 0.03769 0.45669 0.54018 0.0
C162 C 0.05295 0.54475 0.5559 0.0
O163 O 0.97537 0.4931 0.58377 0.0
C164 C 0.23109 0.98018 0.2364 0.0
C165 C 0.25309 0.98185 0.26152 0.0
C166 C 0.2116 0.98263 0.27092 0.0
C167 C 0.19154 0.00359 0.41445 0.0
H168 H 0.14297 0.95631 0.39193 0.0
C169 C 0.11697 0.98963 0.5787 0.0
C170 C 0.09495 0.98519 0.55502 0.0
C171 C 0.13637 0.9899 0.54281 0.0
C172 C 0.15623 0.96983 0.39842 0.0
H173 H 0.272 0.98888 0.3416 0.0
H174 H 0.23805 0.99298 0.40184 0.0
H175 H 0.17609 0.9572 0.32764 0.0
H176 H 0.07617 0.97752 0.47483 0.0
H177 H 0.10975 0.97826 0.41275 0.0
H178 H 0.17164 0.01617 0.4854 0.0
C179 C 0.23579 0.98975 0.3556 0.0
C180 C 0.1752 0.97036 0.36142 0.0
C181 C 0.25524 0.9872 0.32118 0.0
C182 C 0.09284 0.98088 0.49479 0.0
C183 C 0.11215 0.98119 0.45907 0.0
C184 C 0.1725 0.00309 0.45142 0.0
C185 C 0.21373 0.98696 0.33115 0.0
C186 C 0.1931 0.98722 0.36902 0.0
C187 C 0.13416 0.98574 0.48252 0.0
C188 C 0.15461 0.98618 0.44386 0.0
H189 H 0.22892 0.97601 0.19057 0.0
H190 H 0.19482 0.98072 0.25064 0.0
H191 H 0.20496 0.01692 0.42113 0.0
H192 H 0.11924 0.99302 0.62487 0.0
H193 H 0.15311 0.99319 0.5624 0.0
C194 C 0.47884 0.19444 0.19607 0.0
C195 C 0.46994 0.21436 0.22196 0.0
C196 C 0.48108 0.17401 0.22881 0.0
C197 C 0.48914 0.15757 0.38163 0.0
H198 H 0.47734 0.09387 0.32962 0.0
C199 C 0.49472 0.08091 0.54034 0.0
C200 C 0.5048 0.06047 0.52066 0.0
C201 C 0.48959 0.09863 0.50134 0.0
C202 C 0.48096 0.11157 0.34451 0.0
H203 H 0.4547 0.22815 0.3001 0.0
H204 H 0.4582 0.19257 0.3567 0.0
H205 H 0.46896 0.12629 0.26447 0.0
H206 H 0.5172 0.04262 0.4441 0.0
H207 H 0.50861 0.07382 0.37616 0.0
H208 H 0.50142 0.14318 0.46102 0.0
C209 C 0.464 0.19276 0.31189 0.0
C210 C 0.47611 0.1301 0.30723 0.0
C211 C 0.46185 0.21306 0.27944 0.0
C212 C 0.50944 0.05813 0.46081 0.0
C213 C 0.50438 0.07595 0.42174 0.0
C214 C 0.49407 0.13916 0.41859 0.0
C215 C 0.47443 0.1733 0.28775 0.0
C216 C 0.47989 0.15331 0.32578 0.0
C217 C 0.49453 0.09649 0.44163 0.0
C218 C 0.48981 0.11592 0.40088 0.0
H219 H 0.48527 0.19512 0.15185 0.0
H220 H 0.48917 0.15927 0.20904 0.0
H221 H 0.49282 0.17525 0.39669 0.0
H222 H 0.49069 0.08324 0.58599 0.0
H223 H 0.48161 0.11401 0.51807 0.0
C224 C 0.30499 0.57632 0.28332 0.0
C225 C 0.29073 0.55953 0.25491 0.0
C226 C 0.32413 0.56963 0.31508 0.0
C227 C 0.36986 0.55173 0.356 0.0
H228 H 0.36224 0.49763 0.45624 0.0
C229 C 0.44533 0.51563 0.48635 0.0
C230 C 0.441 0.50929 0.5446 0.0
C231 C 0.42732 0.52073 0.44878 0.0
C232 C 0.3646 0.51283 0.42868 0.0
H233 H 0.28558 0.52254 0.23694 0.0
H234 H 0.31923 0.5109 0.29148 0.0
H235 H 0.33056 0.50893 0.394 0.0
H236 H 0.41418 0.50298 0.60861 0.0
H237 H 0.38276 0.51205 0.54308 0.0
H238 H 0.4037 0.556 0.39176 0.0
C239 C 0.31547 0.52923 0.28967 0.0
C240 C 0.34655 0.51915 0.3925 0.0
C241 C 0.29636 0.53594 0.2578 0.0
C242 C 0.41815 0.50777 0.56405 0.0
C243 C 0.40012 0.51286 0.52638 0.0
C244 C 0.38793 0.54539 0.39208 0.0
C245 C 0.32941 0.54597 0.31927 0.0
C246 C 0.34893 0.53875 0.35598 0.0
C247 C 0.40452 0.5196 0.46847 0.0
C248 C 0.38547 0.52594 0.42907 0.0
H249 H 0.30119 0.59465 0.28155 0.0
H250 H 0.33441 0.58294 0.33775 0.0
H251 H 0.37231 0.5668 0.32803 0.0
H252 H 0.4627 0.51688 0.46971 0.0
H253 H 0.43126 0.52552 0.40419 0.0
C254 C 0.04776 0.28796 0.23188 0.0
C255 C 0.06817 0.28242 0.20359 0.0
C256 C 0.04525 0.30989 0.25658 0.0
C257 C 0.0798 0.36084 0.31223 0.0
H258 H 0.01893 0.38341 0.33821 0.0
C259 C 0.02838 0.43777 0.44478 0.0
C260 C 0.04279 0.4399 0.49369 0.0
C261 C 0.03296 0.42189 0.40048 0.0
C262 C 0.03621 0.3779 0.33074 0.0
H263 H 0.10137 0.2962 0.17526 0.0
H264 H 0.09663 0.3352 0.21639 0.0
H265 H 0.02394 0.35166 0.27121 0.0
H266 H 0.07334 0.42735 0.53492 0.0
H267 H 0.08046 0.39827 0.4602 0.0
H268 H 0.09221 0.38797 0.36947 0.0
C269 C 0.08284 0.32218 0.22129 0.0
C270 C 0.03902 0.35919 0.29282 0.0
C271 C 0.08548 0.29994 0.19703 0.0
C272 C 0.06199 0.426 0.49746 0.0
C273 C 0.06617 0.4095 0.45408 0.0
C274 C 0.07707 0.38004 0.34905 0.0
C275 C 0.06287 0.32726 0.25265 0.0
C276 C 0.0607 0.34976 0.28474 0.0
C277 C 0.05163 0.40707 0.40495 0.0
C278 C 0.05511 0.3884 0.36042 0.0
H279 H 0.03387 0.27502 0.23664 0.0
H280 H 0.02975 0.31275 0.28095 0.0
H281 H 0.09679 0.35415 0.3074 0.0
H282 H 0.01369 0.44866 0.4404 0.0
H283 H 0.02173 0.42129 0.36283 0.0
C284 C 0.80027 0.01148 0.08538 0.0
C285 C 0.79162 0.03398 0.08915 0.0
C286 C 0.82016 0.00756 0.05359 0.0
C287 C 0.87129 0.03732 0.98787 0.0
H288 H 0.87051 0.98289 0.88707 0.0
C289 C 0.93894 0.02518 0.80849 0.0
C290 C 0.9475 0.00277 0.80121 0.0
C291 C 0.92037 0.02875 0.84534 0.0
C292 C 0.87113 0.99801 0.9155 0.0
H293 H 0.79751 0.07013 0.06403 0.0
H294 H 0.83201 0.06324 0.00775 0.0
H295 H 0.83777 0.98963 0.94972 0.0
H296 H 0.94311 0.9665 0.82707 0.0
H297 H 0.91078 0.97275 0.89155 0.0
H298 H 0.90459 0.0458 0.95317 0.0
C299 C 0.82353 0.04864 0.02979 0.0
C300 C 0.85237 0.00187 0.95149 0.0
C301 C 0.80364 0.05257 0.06158 0.0
C302 C 0.93694 0.98397 0.83145 0.0
C303 C 0.91833 0.98754 0.86826 0.0
C304 C 0.89005 0.03348 0.95182 0.0
C305 C 0.83186 0.02603 0.02477 0.0
C306 C 0.85218 0.02161 0.98796 0.0
C307 C 0.90988 0.00998 0.87579 0.0
C308 C 0.89015 0.01383 0.91501 0.0
H309 H 0.7913 0.99671 0.10546 0.0
H310 H 0.82627 0.98999 0.05123 0.0
H311 H 0.87183 0.05252 0.01604 0.0
H312 H 0.94662 0.04008 0.78583 0.0
H313 H 0.91407 0.04618 0.84951 0.0
C314 C 0.52866 0.79918 0.16217 0.0
C315 C 0.53119 0.77737 0.13544 0.0
C316 C 0.53255 0.81978 0.13057 0.0
C317 C 0.5577 0.8438 0.99333 0.0
H318 H 0.50903 0.88775 0.00516 0.0
C319 C 0.55434 0.92682 0.84948 0.0
C320 C 0.53279 0.93074 0.82433 0.0
C321 C 0.55655 0.90995 0.89296 0.0
C322 C 0.52277 0.87566 0.0014 0.0
H323 H 0.54131 0.76005 0.05598 0.0
H324 H 0.54775 0.79585 0.00067 0.0
H325 H 0.5097 0.85479 0.07178 0.0
H326 H 0.49666 0.92006 0.82562 0.0
H327 H 0.50057 0.89073 0.9008 0.0
H328 H 0.57017 0.86421 0.9212 0.0
C329 C 0.54283 0.79715 0.046 0.0
C330 C 0.52333 0.85692 0.04007 0.0
C331 C 0.53886 0.7766 0.07748 0.0
C332 C 0.51353 0.91755 0.84395 0.0
C333 C 0.51572 0.90083 0.88747 0.0
C334 C 0.55717 0.86261 0.9547 0.0
C335 C 0.5392 0.81897 0.07172 0.0
C336 C 0.54049 0.84047 0.03566 0.0
C337 C 0.53724 0.8968 0.91247 0.0
C338 C 0.53938 0.87842 0.95744 0.0
H339 H 0.52274 0.80031 0.20676 0.0
H340 H 0.52988 0.83634 0.15181 0.0
H341 H 0.5713 0.83157 0.98924 0.0
H342 H 0.56952 0.93669 0.83546 0.0
H343 H 0.57333 0.90732 0.91163 0.0
C344 C 0.72374 0.46826 0.11728 0.0
C345 C 0.74388 0.47067 0.08407 0.0
C346 C 0.70236 0.47209 0.0917 0.0
C347 C 0.67558 0.50102 0.96652 0.0
H348 H 0.62637 0.45415 0.98396 0.0
C349 C 0.58798 0.5103 0.85446 0.0
C350 C 0.57887 0.49032 0.82563 0.0
C351 C 0.60665 0.50878 0.8923 0.0
C352 C 0.63997 0.46737 0.9787 0.0
H353 H 0.75763 0.47984 -0.00086 0.0
H354 H 0.72053 0.48646 0.9547 0.0
H355 H 0.662 0.45062 0.03934 0.0
H356 H 0.58207 0.45296 0.81496 0.0
H357 H 0.61489 0.45041 0.88057 0.0
H358 H 0.65402 0.51739 0.90458 0.0
C359 C 0.72112 0.48161 0.00028 0.0
C360 C 0.66024 0.46549 0.01087 0.0
C361 C 0.74234 0.47759 0.02555 0.0
C362 C 0.58867 0.46871 0.83634 0.0
C363 C 0.60736 0.4672 0.87431 0.0
C364 C 0.65533 0.50296 0.93463 0.0
C365 C 0.70088 0.47875 0.03284 0.0
C366 C 0.67841 0.48206 0.0042 0.0
C367 C 0.61668 0.48727 0.9023 0.0
C368 C 0.63744 0.48596 0.93961 0.0
H369 H 0.72451 0.46293 0.16248 0.0
H370 H 0.687 0.46989 0.11785 0.0
H371 H 0.68922 0.51417 0.96091 0.0
H372 H 0.58078 0.5272 0.84763 0.0
H373 H 0.61326 0.52451 0.91376 0.0
C374 C 0.04727 0.70157 0.11474 0.0
C375 C 0.02933 0.70939 0.1496 0.0
C376 C 0.04351 0.68313 0.07569 0.0
C377 C 0.00493 0.63294 0.03783 0.0
H378 H 0.0312 0.64233 0.88416 0.0
C379 C 0.01358 0.55888 0.86792 0.0
C380 C 0.0104 0.56425 0.80868 0.0
C381 C 0.01312 0.57634 0.91051 0.0
C382 C 0.02351 0.6395 0.92659 0.0
H383 H 0.99356 0.70336 0.17238 0.0
H384 H 0.98698 0.67087 0.10401 0.0
H385 H 0.03605 0.67279 0.95761 0.0
H386 H 0.00326 0.59214 0.74825 0.0
H387 H 0.00237 0.62252 0.82261 0.0
H388 H 0.99237 0.59956 0.00641 0.0
C389 C 0.00398 0.67907 0.10717 0.0
C390 C 0.02655 0.65686 0.96896 0.0
C391 C 0.00775 0.69763 0.14637 0.0
C392 C 0.00594 0.58737 0.79335 0.0
C393 C 0.00553 0.60483 0.83595 0.0
C394 C 0.00197 0.61547 0.99537 0.0
C395 C 0.02171 0.67199 0.07048 0.0
C396 C 0.01753 0.6537 0.02525 0.0
C397 C 0.00952 0.59959 0.89491 0.0
C398 C 0.01137 0.61851 0.93936 0.0
H399 H 0.0642 0.70998 0.11705 0.0
H400 H 0.05767 0.67773 0.04906 0.0
H401 H 0.99781 0.62998 0.08084 0.0
H402 H 0.01699 0.54126 0.88141 0.0
H403 H 0.01646 0.57174 0.95544 0.0
C404 C 0.03358 0.20116 0.27264 0.0
C405 C 0.05429 0.19756 0.24316 0.0
C406 C 0.0224 0.18291 0.3027 0.0
C407 C 0.01483 0.11992 0.30424 0.0
H408 H 0.00237 0.12566 0.46934 0.0
C409 C 0.00504 0.0412 0.45498 0.0
C410 C 0.99369 0.04332 0.50851 0.0
C411 C 0.00617 0.05982 0.41602 0.0
C412 C 0.00504 0.12385 0.42291 0.0
H413 H 0.07986 0.17206 0.2243 0.0
H414 H 0.05985 0.14007 0.2752 0.0
H415 H 0.01752 0.15937 0.41569 0.0
H416 H 0.97217 0.06546 0.55994 0.0
H417 H 0.97329 0.09763 0.4907 0.0
H418 H 0.00238 0.08449 0.31091 0.0
C419 C 0.05232 0.15705 0.27454 0.0
C420 C 0.01393 0.14316 0.39241 0.0
C421 C 0.06373 0.17536 0.24542 0.0
C422 C 0.98138 0.06346 0.51941 0.0
C423 C 0.9822 0.08197 0.47995 0.0
C424 C 0.00554 0.1007 0.33443 0.0
C425 C 0.03149 0.16064 0.30294 0.0
C426 C 0.01953 0.14112 0.33333 0.0
C427 C 0.99563 0.08085 0.42927 0.0
C428 C 0.00125 0.10219 0.39462 0.0
H429 H 0.02558 0.21788 0.27105 0.0
H430 H 0.00633 0.18602 0.32442 0.0
H431 H 0.01873 0.11812 0.25834 0.0
H432 H 0.01468 0.02591 0.44513 0.0
H433 H 0.01679 0.05824 0.37773 0.0
C434 C 0.32213 0.92356 0.28765 0.0
C435 C 0.32738 0.94125 0.24683 0.0
C436 C 0.33963 0.91312 0.31897 0.0
C437 C 0.3785 0.91489 0.40934 0.0
H438 H 0.43834 0.90314 0.34482 0.0
C439 C 0.47521 0.94114 0.47187 0.0
C440 C 0.47429 0.938 0.53253 0.0
C441 C 0.45832 0.93089 0.43584 0.0
C442 C 0.42171 0.90619 0.36361 0.0
H443 H 0.35542 0.96114 0.20587 0.0
H444 H 0.38558 0.94257 0.25883 0.0
H445 H 0.40506 0.90467 0.28019 0.0
H446 H 0.4563 0.91957 0.60228 0.0
H447 H 0.42699 0.90139 0.53914 0.0
H448 H 0.3952 0.91843 0.49188 0.0
C449 C 0.36799 0.93661 0.26634 0.0
C450 C 0.40267 0.90695 0.32664 0.0
C451 C 0.35058 0.94727 0.23584 0.0
C452 C 0.4573 0.92266 0.55578 0.0
C453 C 0.44045 0.91228 0.51963 0.0
C454 C 0.39755 0.91434 0.44623 0.0
C455 C 0.3627 0.9199 0.30931 0.0
C456 C 0.38112 0.91245 0.34887 0.0
C457 C 0.44019 0.91712 0.45958 0.0
C458 C 0.41958 0.91119 0.42336 0.0
H459 H 0.30449 0.91816 0.2965 0.0
H460 H 0.33512 0.90024 0.35185 0.0
H461 H 0.36212 0.91931 0.42765 0.0
H462 H 0.48814 0.95269 0.45237 0.0
H463 H 0.45863 0.93523 0.38994 0.0
C464 C 0.51932 0.29631 0.24809 0.0
C465 C 0.49636 0.29779 0.23037 0.0
C466 C 0.53054 0.31514 0.27648 0.0
C467 C 0.52426 0.37849 0.3097 0.0
H468 H 0.56415 0.36559 0.44013 0.0
C469 C 0.5474 0.45137 0.47078 0.0
C470 C 0.54498 0.44476 0.52941 0.0
C471 C 0.54957 0.43444 0.42735 0.0
C472 C 0.553 0.36955 0.40394 0.0
H473 H 0.46692 0.31963 0.22913 0.0
H474 H 0.48594 0.35198 0.28082 0.0
H475 H 0.55028 0.33376 0.37786 0.0
H476 H 0.54484 0.41541 0.58896 0.0
H477 H 0.54745 0.38609 0.51395 0.0
H478 H 0.52511 0.41379 0.33863 0.0
C479 C 0.49576 0.33684 0.27097 0.0
C480 C 0.54529 0.35127 0.36757 0.0
C481 C 0.48473 0.31822 0.24186 0.0
C482 C 0.54661 0.42112 0.54417 0.0
C483 C 0.5483 0.40421 0.50081 0.0
C484 C 0.53155 0.39664 0.34672 0.0
C485 C 0.51886 0.33565 0.28841 0.0
C486 C 0.53011 0.35539 0.32129 0.0
C487 C 0.54885 0.41054 0.44158 0.0
C488 C 0.54533 0.39229 0.39567 0.0
H489 H 0.52866 0.28073 0.23914 0.0
H490 H 0.54837 0.31365 0.28868 0.0
H491 H 0.51322 0.38248 0.27331 0.0
H492 H 0.54657 0.46951 0.45816 0.0
H493 H 0.5507 0.44008 0.38242 0.0
C494 C 0.21313 0.59351 0.3243 0.0
C495 C 0.21568 0.59871 0.26476 0.0
C496 C 0.19383 0.60033 0.3547 0.0
C497 C 0.13392 0.60623 0.32244 0.0
H498 H 0.13076 0.61336 0.49033 0.0
C499 C 0.06839 0.58456 0.52761 0.0
C500 C 0.0651 0.56066 0.51518 0.0
C501 C 0.08304 0.59857 0.4928 0.0
C502 C 0.13116 0.61198 0.44324 0.0
H503 H 0.20112 0.61744 0.1923 0.0
H504 H 0.16706 0.62896 0.24534 0.0
H505 H 0.16646 0.62371 0.43956 0.0
H506 H 0.07301 0.53296 0.45501 0.0
H507 H 0.09791 0.55734 0.39373 0.0
H508 H 0.09916 0.59293 0.32668 0.0
C509 C 0.17998 0.61939 0.26819 0.0
C510 C 0.15165 0.61772 0.41423 0.0
C511 C 0.19943 0.61271 0.2378 0.0
C512 C 0.07537 0.55133 0.46558 0.0
C513 C 0.08946 0.56535 0.43024 0.0
C514 C 0.1135 0.60042 0.35144 0.0
C515 C 0.17651 0.6124 0.32627 0.0
C516 C 0.15361 0.61363 0.354 0.0
C517 C 0.09397 0.58893 0.44432 0.0
C518 C 0.11236 0.60199 0.41245 0.0
H519 H 0.22506 0.58254 0.34651 0.0
H520 H 0.1916 0.59436 0.39915 0.0
H521 H 0.1348 0.6028 0.27607 0.0
H522 H 0.0607 0.59207 0.56588 0.0
H523 H 0.08635 0.61668 0.50464 0.0
C524 C 0.07184 0.79292 0.11794 0.0
C525 C 0.05677 0.79308 0.16579 0.0
C526 C 0.0763 0.81322 0.08539 0.0
C527 C 0.04607 0.86621 0.05045 0.0
H528 H 0.09989 0.88231 0.95786 0.0
C529 C 0.03766 0.91576 0.84137 0.0
C530 C 0.05086 0.93658 0.83436 0.0
C531 C 0.04281 0.90008 0.88502 0.0
C532 C 0.08491 0.87818 0.98421 0.0
H533 H 0.03593 0.81565 0.21871 0.0
H534 H 0.04501 0.85076 0.16512 0.0
H535 H 0.10194 0.85208 0.03348 0.0
H536 H 0.08078 0.95656 0.86559 0.0
H537 H 0.08978 0.92873 0.94343 0.0
H538 H 0.02888 0.89173 0.00092 0.0
C539 C 0.05274 0.83479 0.15134 0.0
C540 C 0.08598 0.86079 0.02698 0.0
C541 C 0.04785 0.81453 0.1829 0.0
C542 C 0.07021 0.94074 0.87029 0.0
C543 C 0.0754 0.92486 0.91455 0.0
C544 C 0.04503 0.88341 0.00811 0.0
C545 C 0.06604 0.83419 0.10054 0.0
C546 C 0.06639 0.85434 0.05984 0.0
C547 C 0.06127 0.90474 0.92309 0.0
C548 C 0.06419 0.88912 0.9735 0.0
H549 H 0.07953 0.77694 0.10417 0.0
H550 H 0.08667 0.81212 0.0465 0.0
H551 H 0.03049 0.86151 0.0739 0.0
H552 H 0.02294 0.91167 0.8137 0.0
H553 H 0.03195 0.88445 0.88995 0.0
C554 C 0.71643 0.08531 0.05052 0.0
C555 C 0.71233 0.06497 0.0837 0.0
C556 C 0.69876 0.09462 0.01721 0.0
C557 C 0.63534 0.08972 0.99311 0.0
H558 H 0.65079 0.09481 0.82947 0.0
C559 C 0.5666 0.07082 0.81903 0.0
C560 C 0.57376 0.05286 0.78237 0.0
C561 C 0.58278 0.08386 0.85235 0.0
C562 C 0.64616 0.09384 0.87512 0.0
H563 H 0.68638 0.03843 0.10701 0.0
H564 H 0.65601 0.05465 0.05054 0.0
H565 H 0.68131 0.096 0.90229 0.0
H566 H 0.60339 0.03585 0.74773 0.0
H567 H 0.63123 0.05816 0.80523 0.0
H568 H 0.60042 0.08506 0.96572 0.0
C569 C 0.67257 0.06388 0.05115 0.0
C570 C 0.66367 0.09474 0.91693 0.0
C571 C 0.69012 0.05451 0.08368 0.0
C572 C 0.59731 0.04934 0.77631 0.0
C573 C 0.61336 0.06245 0.80875 0.0
C574 C 0.61786 0.08862 0.95131 0.0
C575 C 0.67667 0.08385 0.01693 0.0
C576 C 0.65849 0.09106 0.97601 0.0
C577 C 0.60631 0.07936 0.84859 0.0
C578 C 0.62325 0.08903 0.89168 0.0
H579 H 0.73331 0.09387 0.04981 0.0
H580 H 0.70245 0.10999 0.991 0.0
H581 H 0.63082 0.08743 0.03856 0.0
H582 H 0.54853 0.07396 0.82419 0.0
H583 H 0.57683 0.09683 0.88256 0.0
C584 C 0.49931 0.67477 0.14129 0.0
C585 C 0.49249 0.69775 0.13279 0.0
C586 C 0.48891 0.65632 0.11025 0.0
C587 C 0.45849 0.61836 0.05815 0.0
H588 H 0.45673 0.62553 0.89023 0.0
C589 C 0.48266 0.54862 0.89741 0.0
C590 C 0.4709 0.54585 0.84434 0.0
C591 C 0.47625 0.56544 0.93741 0.0
C592 C 0.45647 0.62335 0.93712 0.0
H593 H 0.46913 0.71932 0.08523 0.0
H594 H 0.45104 0.68686 0.02992 0.0
H595 H 0.46284 0.65989 0.95214 0.0
H596 H 0.44275 0.55767 0.79175 0.0
H597 H 0.43187 0.58798 0.86152 0.0
H598 H 0.45389 0.58162 0.04273 0.0
C599 C 0.46447 0.68326 0.061 0.0
C600 C 0.46001 0.64303 0.97263 0.0
C601 C 0.47487 0.70182 0.09244 0.0
C602 C 0.45186 0.5594 0.83287 0.0
C603 C 0.44575 0.57673 0.87247 0.0
C604 C 0.45512 0.59871 0.02269 0.0
C605 C 0.47144 0.6603 0.06955 0.0
C606 C 0.46218 0.64059 0.03334 0.0
C607 C 0.45826 0.58021 0.92449 0.0
C608 C 0.45515 0.60094 0.96178 0.0
H609 H 0.51322 0.67103 0.17084 0.0
H610 H 0.49519 0.63898 0.11671 0.0
H611 H 0.45952 0.61599 0.1049 0.0
H612 H 0.49748 0.53841 0.90686 0.0
H613 H 0.48641 0.56793 0.97673 0.0
C614 C 0.81823 0.43875 0.99394 0.0
C615 C 0.82131 0.43831 0.05487 0.0
C616 C 0.83528 0.43138 0.95651 0.0
C617 C 0.89436 0.40669 0.95223 0.0
H618 H 0.89891 0.44591 0.81506 0.0
C619 C 0.97618 0.44062 0.83049 0.0
C620 C 0.97489 0.44128 0.76925 0.0
C621 C 0.95769 0.43157 0.86306 0.0
C622 C 0.89769 0.4345 0.8526 0.0
H623 H 0.84445 0.42735 0.12326 0.0
H624 H 0.87502 0.41711 0.05834 0.0
H625 H 0.86538 0.44737 0.87585 0.0
H626 H 0.95421 0.43054 0.69419 0.0
H627 H 0.92185 0.41532 0.75123 0.0
H628 H 0.92815 0.39571 0.93043 0.0
C629 C 0.85909 0.42248 0.03924 0.0
C630 C 0.87829 0.43516 0.88758 0.0
C631 C 0.84159 0.42896 0.07685 0.0
C632 C 0.95573 0.43055 0.74126 0.0
C633 C 0.93717 0.42178 0.77381 0.0
C634 C 0.91415 0.40653 0.91777 0.0
C635 C 0.85648 0.42436 0.97843 0.0
C636 C 0.87634 0.42148 0.93837 0.0
C637 C 0.9376 0.42322 0.83487 0.0
C638 C 0.91598 0.4206 0.86796 0.0
H639 H 0.80316 0.44587 0.97426 0.0
H640 H 0.83207 0.43218 0.91008 0.0
H641 H 0.89345 0.39556 0.99024 0.0
H642 H 0.99079 0.44853 0.85341 0.0
H643 H 0.95834 0.43294 0.91015 0.0
C644 C 0.10617 0.20358 0.05178 0.0
C645 C 0.09026 0.22128 0.05641 0.0
C646 C 0.10676 0.18968 0.0018 0.0
C647 C 0.06401 0.16798 0.8973 0.0
H648 H 0.11322 0.12992 0.84321 0.0
C649 C 0.04435 0.08863 0.75149 0.0
C650 C 0.05512 0.06791 0.76621 0.0
C651 C 0.05193 0.10997 0.77524 0.0
C652 C 0.0993 0.14037 0.85805 0.0
H653 H 0.06475 0.24043 0.00994 0.0
H654 H 0.06629 0.21667 0.9215 0.0
H655 H 0.12226 0.16505 0.90099 0.0
H656 H 0.08291 0.05355 0.81589 0.0
H657 H 0.09581 0.09092 0.85898 0.0
H658 H 0.04098 0.14305 0.85684 0.0
C659 C 0.07784 0.21305 0.95713 0.0
C660 C 0.10448 0.16056 0.89087 0.0
C661 C 0.07719 0.22691 0.00737 0.0
C662 C 0.0742 0.06919 0.80384 0.0
C663 C 0.08169 0.09063 0.82817 0.0
C664 C 0.05886 0.1479 0.86466 0.0
C665 C 0.09149 0.1933 0.95543 0.0
C666 C 0.08683 0.17437 0.91188 0.0
C667 C 0.07033 0.11122 0.81495 0.0
C668 C 0.07637 0.13359 0.84545 0.0
H669 H 0.11643 0.19894 0.08918 0.0
H670 H 0.11752 0.17471 0.00224 0.0
H671 H 0.04988 0.17774 0.91387 0.0
H672 H 0.02987 0.08839 0.72177 0.0
H673 H 0.0431 0.12551 0.76301 0.0
C674 C 0.30918 0.01399 0.08077 0.0
C675 C 0.30251 0.99022 0.08233 0.0
C676 C 0.32157 0.02306 0.03324 0.0
C677 C 0.34287 0.00901 0.88446 0.0
H678 H 0.40025 0.03723 0.94105 0.0
C679 C 0.42838 0.99479 0.77322 0.0
C680 C 0.44568 0.01256 0.77235 0.0
C681 C 0.40777 0.998 0.80217 0.0
C682 C 0.38418 0.02991 0.92406 0.0
H683 H 0.3017 0.95774 0.03417 0.0
H684 H 0.32292 0.97347 0.95094 0.0
H685 H 0.36767 0.03291 0.00667 0.0
H686 H 0.45455 0.04795 0.80015 0.0
H687 H 0.41837 0.05348 0.85161 0.0
H688 H 0.35981 0.00495 0.80264 0.0
C689 C 0.31867 0.98525 0.98592 0.0
C690 C 0.36544 0.02746 0.9617 0.0
C691 C 0.30652 0.97618 0.03356 0.0
C692 C 0.44161 0.03389 0.80014 0.0
C693 C 0.42093 0.03705 0.82967 0.0
C694 C 0.36159 0.01149 0.84683 0.0
C695 C 0.32728 0.00851 0.98643 0.0
C696 C 0.34488 0.0161 0.94299 0.0
C697 C 0.40385 0.01903 0.83132 0.0
C698 C 0.38276 0.02105 0.86694 0.0
H699 H 0.30649 0.02506 0.11827 0.0
H700 H 0.32779 0.0411 0.03461 0.0
H701 H 0.32715 0.00053 0.8685 0.0
H702 H 0.43082 0.97816 0.75207 0.0
H703 H 0.39521 0.9836 0.80341 0.0
C704 C 0.43518 0.28778 0.05798 0.0
C705 C 0.45121 0.27014 0.05944 0.0
C706 C 0.43178 0.30044 0.00699 0.0
C707 C 0.46867 0.31991 0.8886 0.0
H708 H 0.41696 0.35705 0.84673 0.0
C709 C 0.48277 0.39944 0.74286 0.0
C710 C 0.47248 0.41995 0.76117 0.0
C711 C 0.47565 0.37782 0.76539 0.0
C712 C 0.43157 0.34684 0.858 0.0
H713 H 0.47413 0.24988 0.00767 0.0
H714 H 0.46775 0.27155 0.91765 0.0
H715 H 0.41096 0.32263 0.90851 0.0
H716 H 0.44581 0.43379 0.81514 0.0
H717 H 0.43387 0.39597 0.85673 0.0
H718 H 0.48953 0.3445 0.84131 0.0
C719 C 0.45816 0.27598 0.9562 0.0
C720 C 0.4281 0.32704 0.8931 0.0
C721 C 0.46159 0.26334 0.00742 0.0
C722 C 0.45407 0.41825 0.80039 0.0
C723 C 0.44716 0.39654 0.82389 0.0
C724 C 0.47212 0.33962 0.85386 0.0
C725 C 0.44441 0.29567 0.95654 0.0
C726 C 0.44674 0.31366 0.90999 0.0
C727 C 0.45834 0.37614 0.80783 0.0
C728 C 0.45375 0.35368 0.83911 0.0
H729 H 0.4271 0.29338 0.09784 0.0
H730 H 0.42109 0.31544 0.00911 0.0
H731 H 0.48355 0.31046 0.90173 0.0
H732 H 0.4967 0.40015 0.7117 0.0
H733 H 0.48421 0.36246 0.75068 0.0
C734 C 0.22645 0.56131 0.04492 0.0
C735 C 0.23254 0.54884 0.09482 0.0
C736 C 0.21446 0.55005 -0.0006 0.0
C737 C 0.16998 0.50725 0.98065 0.0
H738 H 0.18372 0.50852 0.81551 0.0
C739 C 0.10057 0.47792 0.81588 0.0
C740 C 0.09933 0.49092 0.76432 0.0
C741 C 0.12001 0.47997 0.85164 0.0
C742 C 0.17944 0.50821 0.86137 0.0
H743 H 0.23159 0.51494 0.13619 0.0
H744 H 0.20984 0.49532 0.0571 0.0
H745 H 0.21278 0.52234 0.88583 0.0
H746 H 0.11762 0.51569 0.70866 0.0
H747 H 0.15082 0.52042 0.77222 0.0
H748 H 0.13624 0.49511 0.95735 0.0
C749 C 0.21483 0.51363 0.05275 0.0
C750 C 0.19622 0.51592 0.90153 0.0
C751 C 0.22728 0.52478 0.09767 0.0
C752 C 0.11821 0.50532 0.74801 0.0
C753 C 0.13737 0.50789 0.78453 0.0
C754 C 0.15304 0.50012 0.94064 0.0
C755 C 0.20792 0.5263 0.00386 0.0
C756 C 0.19149 0.51572 0.96139 0.0
C757 C 0.13835 0.49567 0.83763 0.0
C758 C 0.15735 0.50081 0.88024 0.0
H759 H 0.23019 0.57993 0.04226 0.0
H760 H 0.20907 0.5602 0.96236 0.0
H761 H 0.16586 0.50726 0.02668 0.0
H762 H 0.08632 0.46648 0.8291 0.0
H763 H 0.12031 0.46964 0.89103 0.0
C764 C 0.02982 0.76452 0.38052 0.0
C765 C 0.01685 0.75622 0.33263 0.0
C766 C 0.0195 0.77721 0.4246 0.0
C767 C 0.97418 0.81852 0.42834 0.0
H768 H 0.99808 0.8301 0.58403 0.0
C769 C 0.99036 0.91014 0.52136 0.0
C770 C 0.98797 0.91424 0.5814 0.0
C771 C 0.9865 0.88775 0.49833 0.0
C772 C 0.9908 0.82694 0.54111 0.0
H773 H 0.98261 0.75207 0.29654 0.0
H774 H 0.96439 0.77392 0.37423 0.0
H775 H 0.00421 0.79271 0.53671 0.0
H776 H 0.97843 0.89816 0.66388 0.0
H777 H 0.97179 0.85903 0.62347 0.0
H778 H 0.9616 0.85307 0.43177 0.0
C779 C 0.98258 0.77098 0.37732 0.0
C780 C 0.99446 0.80555 0.51384 0.0
C781 C 0.99294 0.7582 0.33325 0.0
C782 C 0.9805 0.89563 0.61742 0.0
C783 C 0.97679 0.87317 0.59439 0.0
C784 C 0.97055 0.83987 0.45555 0.0
C785 C 0.99602 0.7819 0.42139 0.0
C786 C 0.98705 0.80149 0.45618 0.0
C787 C 0.98025 0.86889 0.53479 0.0
C788 C 0.97968 0.8447 0.51121 0.0
H789 H 0.04832 0.76328 0.38074 0.0
H790 H 0.03044 0.78536 0.45768 0.0
H791 H 0.96836 0.81614 0.38377 0.0
H792 H 0.99602 0.92405 0.49231 0.0
H793 H 0.98959 0.88504 0.45233 0.0
C794 C 0.74295 0.01553 0.30005 0.0
C795 C 0.7339 0.01278 0.24364 0.0
C796 C 0.73187 0.00454 0.34731 0.0
C797 C 0.68349 0.96205 0.38485 0.0
H798 H 0.67182 0.00683 0.50704 0.0
C799 C 0.61782 0.97724 0.59036 0.0
C800 C 0.59685 0.97483 0.55998 0.0
C801 C 0.63864 0.97608 0.5607 0.0
C802 C 0.67523 0.99389 0.474 0.0
H803 H 0.70761 0.99522 0.19108 0.0
H804 H 0.6882 0.9764 0.27252 0.0
H805 H 0.70285 0.0148 0.43852 0.0
H806 H 0.58128 0.96793 0.47538 0.0
H807 H 0.61765 0.96556 0.42382 0.0
H808 H 0.65456 0.94212 0.41798 0.0
C809 C 0.70382 0.98665 0.28122 0.0
C810 C 0.69312 0.99839 0.43478 0.0
C811 C 0.71482 0.99759 0.23441 0.0
C812 C 0.59714 0.96997 0.49994 0.0
C813 C 0.61795 0.96844 0.47051 0.0
C814 C 0.6654 0.95773 0.42359 0.0
C815 C 0.71167 0.99063 0.33855 0.0
C816 C 0.69684 0.98301 0.38818 0.0
C817 C 0.63889 0.97204 0.50034 0.0
C818 C 0.66059 0.97405 0.46712 0.0
H819 H 0.75768 0.02721 0.30794 0.0
H820 H 0.73852 0.00773 0.39085 0.0
H821 H 0.68623 0.94955 0.35035 0.0
H822 H 0.61819 0.98103 0.63665 0.0
H823 H 0.65456 0.97888 0.58466 0.0
C824 C 0.55584 0.72329 0.32314 0.0
C825 C 0.53232 0.72559 0.31256 0.0
C826 C 0.56319 0.71116 0.37227 0.0
C827 C 0.54252 0.68075 0.50793 0.0
H828 H 0.58119 0.63173 0.45364 0.0
C829 C 0.54864 0.5944 0.63419 0.0
C830 C 0.5446 0.57462 0.59863 0.0
C831 C 0.55389 0.61623 0.60932 0.0
C832 C 0.57052 0.64537 0.46975 0.0
H833 H 0.49822 0.71935 0.3473 0.0
H834 H 0.51082 0.69828 0.43261 0.0
H835 H 0.57745 0.6667 0.39525 0.0
H836 H 0.54425 0.56208 0.50928 0.0
H837 H 0.55315 0.59991 0.46621 0.0
H838 H 0.53419 0.65852 0.58014 0.0
C839 C 0.52376 0.70576 0.40372 0.0
C840 C 0.56861 0.66562 0.43664 0.0
C841 C 0.51646 0.71777 0.35467 0.0
C842 C 0.54713 0.57693 0.53801 0.0
C843 C 0.55247 0.59866 0.51327 0.0
C844 C 0.54439 0.66045 0.54098 0.0
C845 C 0.54711 0.70123 0.41154 0.0
C846 C 0.55375 0.68309 0.45399 0.0
C847 C 0.55539 0.61868 0.54847 0.0
C848 C 0.55759 0.64209 0.52085 0.0
H849 H 0.56838 0.72909 0.29105 0.0
H850 H 0.58133 0.70828 0.37753 0.0
H851 H 0.53123 0.69404 0.52299 0.0
H852 H 0.54691 0.59323 0.68109 0.0
H853 H 0.55625 0.63128 0.63764 0.0
C854 C 0.80944 0.5079 0.2389 0.0
C855 C 0.80536 0.48365 0.23553 0.0
C856 C 0.82184 0.51769 0.28595 0.0
C857 C 0.84437 0.50516 0.43355 0.0
H858 H 0.89916 0.53977 0.38305 0.0
C859 C 0.93015 0.49799 0.5477 0.0
C860 C 0.946 0.51704 0.55074 0.0
C861 C 0.9093 0.49989 0.51873 0.0
C862 C 0.88372 0.53069 0.39837 0.0
H863 H 0.80979 0.45071 0.27896 0.0
H864 H 0.83096 0.46771 0.36167 0.0
H865 H 0.86766 0.53232 0.31444 0.0
H866 H 0.95201 0.55336 0.52739 0.0
H867 H 0.91533 0.55662 0.47558 0.0
H868 H 0.86084 0.50256 0.51664 0.0
C869 C 0.82464 0.47926 0.32848 0.0
C870 C 0.86565 0.52641 0.35901 0.0
C871 C 0.81261 0.46948 0.28117 0.0
C872 C 0.94015 0.53837 0.52566 0.0
C873 C 0.91922 0.54021 0.49593 0.0
C874 C 0.86235 0.50953 0.47292 0.0
C875 C 0.82998 0.50337 0.33056 0.0
C876 C 0.84626 0.51269 0.37551 0.0
C877 C 0.90369 0.52086 0.49167 0.0
C878 C 0.88267 0.52137 0.45495 0.0
H879 H 0.80418 0.51906 0.20366 0.0
H880 H 0.82571 0.53632 0.28652 0.0
H881 H 0.82946 0.49486 0.44769 0.0
H882 H 0.93399 0.48134 0.56692 0.0
H883 H 0.89798 0.48451 0.5155 0.0
loop_
_geom_bond_atom_site_label_1
_geom_bond_atom_site_label_2
_geom_bond_distance
_geom_bond_site_symmetry_2
_ccdc_geom_bond_type
H0 C3 0.931 . S
H1 C6 0.928 . S
H2 C8 0.930 . S
C3 H0 0.931 . S
C3 C4 1.413 . S
C3 C5 1.360 1_554 S
C4 C3 1.413 . S
C4 C8 1.429 . S
C5 C3 1.360 1_556 S
C5 C6 1.372 . S
C6 H1 0.928 . S
C6 C5 1.372 . S
C6 C7 1.404 1_556 S
C7 C6 1.404 1_554 S
C7 C8 1.391 . S
C8 H2 0.930 . S
C8 C4 1.429 . S
C8 C7 1.391 . S
H9 C12 0.931 . S
H10 C15 0.928 . S
H11 C17 0.930 . S
C12 H9 0.931 . S
C12 C13 1.413 . S
C12 C14 1.360 . S
C13 C12 1.413 . S
C13 C17 1.429 . S
C14 C12 1.360 . S
C14 C15 1.372 . S
C15 H10 0.928 . S
C15 C14 1.372 . S
C15 C16 1.404 . S
C16 C15 1.404 . S
C16 C17 1.391 . S
C17 H11 0.930 . S
C17 C13 1.429 . S
C17 C16 1.391 . S
H18 C21 0.931 . S
H19 C24 0.928 1_556 S
H20 C26 0.930 1_545 S
C21 H18 0.931 . S
C21 C22 1.413 . S
C21 C23 1.360 . S
C22 C21 1.413 . S
C22 C26 1.430 . S
C23 C21 1.360 . S
C23 C24 1.373 . S
C24 H19 0.928 1_554 S
C24 C23 1.373 . S
C24 C25 1.404 . S
C25 C24 1.404 . S
C25 C26 1.390 . S
C26 H20 0.930 1_565 S
C26 C22 1.430 . S
C26 C25 1.390 . S
H27 C30 0.931 . S
H28 C33 0.928 . S
H29 C35 0.930 . S
C30 H27 0.931 . S
C30 C31 1.413 . S
C30 C32 1.360 . S
C31 C30 1.413 . S
C31 C35 1.429 1_554 S
C32 C30 1.360 . S
C32 C33 1.372 . S
C33 H28 0.928 . S
C33 C32 1.372 . S
C33 C34 1.404 . S
C34 C33 1.404 . S
C34 C35 1.391 1_554 S
C35 H29 0.930 . S
C35 C31 1.429 1_556 S
C35 C34 1.391 1_556 S
H36 C39 0.931 . S
H37 C42 0.928 . S
H38 C44 0.930 . S
C39 H36 0.931 . S
C39 C40 1.413 . S
C39 C41 1.360 . S
C40 C39 1.413 . S
C40 C44 1.429 . S
C41 C39 1.360 . S
C41 C42 1.372 . S
C42 H37 0.928 . S
C42 C41 1.372 . S
C42 C43 1.404 . S
C43 C42 1.404 . S
C43 C44 1.391 . S
C44 H38 0.930 . S
C44 C40 1.429 . S
C44 C43 1.391 . S
H45 C48 0.931 . S
H46 C51 0.928 . S
H47 C53 0.930 . S
C48 H45 0.931 . S
C48 C49 1.413 . S
C48 C50 1.360 . S
C49 C48 1.413 . S
C49 C53 1.429 . S
C50 C48 1.360 . S
C50 C51 1.372 . S
C51 H46 0.928 . S
C51 C50 1.372 . S
C51 C52 1.404 . S
C52 C51 1.404 . S
C52 C53 1.391 . S
C53 H47 0.930 . S
C53 C49 1.429 . S
C53 C52 1.391 . S
H54 C57 0.930 . S
H55 C60 0.928 . S
H56 C62 0.929 . S
C57 H54 0.930 . S
C57 C58 1.413 . S
C57 C59 1.360 . S
C58 C57 1.413 . S
C58 C62 1.429 1_565 S
C59 C57 1.360 . S
C59 C60 1.372 . S
C60 H55 0.928 . S
C60 C59 1.372 . S
C60 C61 1.404 . S
C61 C60 1.404 . S
C61 C62 1.391 1_565 S
C62 H56 0.929 . S
C62 C58 1.429 1_545 S
C62 C61 1.391 1_545 S
H63 C66 0.931 . S
H64 C69 0.928 . S
H65 C71 0.930 . S
C66 H63 0.931 . S
C66 C67 1.413 . S
C66 C68 1.360 . S
C67 C66 1.413 . S
C67 C71 1.429 . S
C68 C66 1.360 . S
C68 C69 1.372 . S
C69 H64 0.928 . S
C69 C68 1.372 . S
C69 C70 1.404 . S
C70 C69 1.404 . S
C70 C71 1.391 . S
C71 H65 0.930 . S
C71 C67 1.429 . S
C71 C70 1.391 . S
O72 Zn73 1.954 . S
O72 C88 1.233 . S
Zn73 O72 1.954 . S
Zn73 O74 1.948 . S
Zn73 O80 1.884 1_565 S
Zn73 O85 1.967 . S
O74 Zn73 1.948 . S
O74 Zn75 1.902 1_565 S
O74 Zn76 1.953 . S
O74 Zn77 1.962 . S
Zn75 O74 1.902 1_545 S
Zn75 O78 1.933 1_455 S
Zn75 O81 1.941 . S
Zn75 O82 1.965 . S
Zn76 O74 1.953 . S
Zn76 O83 1.938 1_565 S
Zn76 O84 1.906 . S
Zn76 O94 1.953 . S
Zn77 O74 1.962 . S
Zn77 O79 1.932 1_455 S
Zn77 O86 1.977 . S
Zn77 O87 1.910 . S
O78 Zn75 1.933 1_655 S
O78 C89 1.226 . S
O79 Zn77 1.932 1_655 S
O79 C89 1.307 1_565 S
O80 Zn73 1.884 1_545 S
O80 C91 1.253 . S
O81 Zn75 1.941 . S
O81 C91 1.283 . S
O82 Zn75 1.965 . S
O82 C90 1.303 . S
O83 Zn76 1.938 1_545 S
O83 C90 1.247 . S
O84 Zn76 1.906 . S
O84 C92 1.304 . S
O85 Zn73 1.967 . S
O85 C93 1.311 . S
O86 Zn77 1.977 . S
O86 C92 1.272 . S
O87 Zn77 1.910 . S
O87 C93 1.231 . S
C88 O72 1.233 . S
C88 O94 1.298 . S
C89 O78 1.226 . S
C89 O79 1.307 1_545 S
C90 O82 1.303 . S
C90 O83 1.247 . S
C91 O80 1.253 . S
C91 O81 1.283 . S
C92 O84 1.304 . S
C92 O86 1.272 . S
C93 O85 1.311 . S
C93 O87 1.231 . S
O94 Zn76 1.953 . S
O94 C88 1.298 . S
O95 Zn96 1.953 . S
O95 C111 1.225 . S
Zn96 O95 1.953 . S
Zn96 O97 1.949 . S
Zn96 O103 1.919 . S
Zn96 O108 1.924 . S
O97 Zn96 1.949 . S
O97 Zn98 1.923 1_545 S
O97 Zn99 1.950 . S
O97 Zn100 1.945 1_545 S
Zn98 O97 1.923 1_565 S
Zn98 O101 1.933 . S
Zn98 O104 1.941 . S
Zn98 O105 1.965 . S
Zn99 O97 1.950 . S
Zn99 O106 1.938 . S
Zn99 O107 1.888 1_545 S
Zn99 O117 1.953 . S
Zn100 O97 1.945 1_565 S
Zn100 O102 1.932 . S
Zn100 O109 1.977 . S
Zn100 O110 1.910 1_565 S
O101 Zn98 1.933 . S
O101 C112 1.226 . S
O102 Zn100 1.932 . S
O102 C112 1.307 . S
O103 Zn96 1.919 . S
O103 C114 1.253 . S
O104 Zn98 1.941 . S
O104 C114 1.283 1_565 S
O105 Zn98 1.965 . S
O105 C113 1.303 . S
O106 Zn99 1.938 . S
O106 C113 1.247 1_545 S
O107 Zn99 1.888 1_565 S
O107 C115 1.331 . S
O108 Zn96 1.924 . S
O108 C116 1.311 . S
O109 Zn100 1.977 . S
O109 C115 1.272 . S
O110 Zn100 1.910 1_545 S
O110 C116 1.231 . S
C111 O95 1.225 . S
C111 O117 1.298 . S
C112 O101 1.226 . S
C112 O102 1.307 . S
C113 O105 1.303 . S
C113 O106 1.247 1_565 S
C114 O103 1.253 . S
C114 O104 1.283 1_545 S
C115 O107 1.331 . S
C115 O109 1.272 . S
C116 O108 1.311 . S
C116 O110 1.231 . S
O117 Zn99 1.953 . S
O117 C111 1.298 . S
O118 Zn119 1.953 . S
O118 C134 1.225 . S
Zn119 O118 1.953 . S
Zn119 O120 1.949 . S
Zn119 O126 1.919 . S
Zn119 O131 1.924 . S
O120 Zn119 1.949 . S
O120 Zn121 1.923 . S
O120 Zn122 1.950 . S
O120 Zn123 1.945 . S
Zn121 O120 1.923 . S
Zn121 O124 1.933 . S
Zn121 O127 1.941 . S
Zn121 O128 1.965 . S
Zn122 O120 1.950 . S
Zn122 O129 1.938 . S
Zn122 O130 1.906 . S
Zn122 O140 1.953 . S
Zn123 O120 1.945 . S
Zn123 O125 1.932 . S
Zn123 O132 1.977 . S
Zn123 O133 1.910 . S
O124 Zn121 1.933 . S
O124 C135 1.226 . S
O125 Zn123 1.932 . S
O125 C135 1.307 . S
O126 Zn119 1.919 . S
O126 C137 1.253 . S
O127 Zn121 1.941 . S
O127 C137 1.283 . S
O128 Zn121 1.965 . S
O128 C136 1.303 . S
O129 Zn122 1.938 . S
O129 C136 1.247 . S
O130 Zn122 1.906 . S
O130 C138 1.304 . S
O131 Zn119 1.924 . S
O131 C139 1.311 . S
O132 Zn123 1.977 . S
O132 C138 1.272 . S
O133 Zn123 1.910 . S
O133 C139 1.231 . S
C134 O118 1.225 . S
C134 O140 1.298 . S
C135 O124 1.226 . S
C135 O125 1.307 . S
C136 O128 1.303 . S
C136 O129 1.247 . S
C137 O126 1.253 . S
C137 O127 1.283 . S
C138 O130 1.304 . S
C138 O132 1.272 . S
C139 O131 1.311 . S
C139 O133 1.231 . S
O140 Zn122 1.953 . S
O140 C134 1.298 . S
O141 Zn142 1.953 1_655 S
O141 C157 1.225 . S
Zn142 O141 1.953 1_455 S
Zn142 O143 1.949 . S
Zn142 O149 1.919 . S
Zn142 O154 1.924 . S
O143 Zn142 1.949 . S
O143 Zn144 1.923 . S
O143 Zn145 1.950 1_455 S
O143 Zn146 1.945 . S
Zn144 O143 1.923 . S
Zn144 O147 1.933 . S
Zn144 O150 1.941 . S
Zn144 O151 1.965 1_455 S
Zn145 O143 1.950 1_655 S
Zn145 O152 1.938 . S
Zn145 O153 1.906 1_655 S
Zn145 O163 1.953 . S
Zn146 O143 1.945 . S
Zn146 O148 1.932 . S
Zn146 O155 1.977 . S
Zn146 O156 1.910 . S
O147 Zn144 1.933 . S
O147 C158 1.226 . S
O148 Zn146 1.932 . S
O148 C158 1.307 . S
O149 Zn142 1.919 . S
O149 C160 1.253 . S
O150 Zn144 1.941 . S
O150 C160 1.283 . S
O151 Zn144 1.965 1_655 S
O151 C159 1.303 . S
O152 Zn145 1.938 . S
O152 C159 1.247 . S
O153 Zn145 1.906 1_455 S
O153 C161 1.304 . S
O154 Zn142 1.924 . S
O154 C162 1.311 . S
O155 Zn146 1.977 . S
O155 C161 1.272 . S
O156 Zn146 1.910 . S
O156 C162 1.231 . S
C157 O141 1.225 . S
C157 O163 1.298 . S
C158 O147 1.226 . S
C158 O148 1.307 . S
C159 O151 1.303 . S
C159 O152 1.247 . S
C160 O149 1.253 . S
C160 O150 1.283 . S
C161 O153 1.304 . S
C161 O155 1.272 . S
C162 O154 1.311 . S
C162 O156 1.231 . S
O163 Zn145 1.953 . S
O163 C157 1.298 . S
C164 C165 1.361 . S
C164 C166 1.327 . S
C164 H189 0.950 . S
C165 C164 1.361 . S
C165 C181 1.336 1_565 S
C166 C164 1.327 . S
C166 C185 1.429 . S
C166 H190 0.950 . S
C167 C184 1.574 . S
C167 C186 1.368 1_545 S
C167 H191 0.949 . S
H168 C172 0.949 . S
C169 C170 1.349 1_545 S
C169 C171 1.327 . S
C169 H192 0.950 . S
C170 C169 1.349 1_565 S
C170 C182 1.349 . S
C171 C169 1.327 . S
C171 C187 1.429 1_545 S
C171 H193 0.950 . S
C172 H168 0.949 . S
C172 C180 1.574 . S
C172 C188 1.368 . S
H173 C181 0.950 . S
H174 C179 0.950 . S
H175 C180 0.949 . S
H176 C182 0.950 . S
H177 C183 0.950 . S
H178 C184 0.949 . S
C179 H174 0.950 . S
C179 C181 1.327 . S
C179 C185 1.429 1_545 S
C180 C172 1.574 . S
C180 H175 0.949 . S
C180 C186 1.368 . S
C181 C165 1.336 1_545 S
C181 H173 0.950 . S
C181 C179 1.327 . S
C182 C170 1.349 . S
C182 H176 0.950 . S
C182 C183 1.327 . S
C183 H177 0.950 . S
C183 C182 1.327 . S
C183 C187 1.429 . S
C184 C167 1.574 . S
C184 H178 0.949 . S
C184 C188 1.368 1_545 S
C185 C166 1.429 . S
C185 C179 1.429 1_565 S
C185 C186 1.523 . S
C186 C167 1.368 1_565 S
C186 C180 1.368 . S
C186 C185 1.523 . S
C187 C171 1.429 1_565 S
C187 C183 1.429 . S
C187 C188 1.523 . S
C188 C172 1.368 . S
C188 C184 1.368 1_565 S
C188 C187 1.523 . S
H189 C164 0.950 . S
H190 C166 0.950 . S
H191 C167 0.949 . S
H192 C169 0.950 . S
H193 C171 0.950 . S
C194 C195 1.349 . S
C194 C196 1.327 . S
C194 H219 0.950 . S
C195 C194 1.349 . S
C195 C211 1.349 . S
C196 C194 1.327 . S
C196 C215 1.429 . S
C196 H220 0.950 . S
C197 C214 1.574 . S
C197 C216 1.368 . S
C197 H221 0.949 . S
H198 C202 0.949 . S
C199 C200 1.349 . S
C199 C201 1.327 . S
C199 H222 0.950 . S
C200 C199 1.349 . S
C200 C212 1.349 . S
C201 C199 1.327 . S
C201 C217 1.429 . S
C201 H223 0.950 . S
C202 H198 0.949 . S
C202 C210 1.574 . S
C202 C218 1.368 . S
H203 C211 0.950 . S
H204 C209 0.950 . S
H205 C210 0.949 . S
H206 C212 0.950 . S
H207 C213 0.950 . S
H208 C214 0.949 . S
C209 H204 0.950 . S
C209 C211 1.327 . S
C209 C215 1.429 . S
C210 C202 1.574 . S
C210 H205 0.949 . S
C210 C216 1.368 . S
C211 C195 1.349 . S
C211 H203 0.950 . S
C211 C209 1.327 . S
C212 C200 1.349 . S
C212 H206 0.950 . S
C212 C213 1.327 . S
C213 H207 0.950 . S
C213 C212 1.327 . S
C213 C217 1.429 . S
C214 C197 1.574 . S
C214 H208 0.949 . S
C214 C218 1.368 . S
C215 C196 1.429 . S
C215 C209 1.429 . S
C215 C216 1.523 . S
C216 C197 1.368 . S
C216 C210 1.368 . S
C216 C215 1.523 . S
C217 C201 1.429 . S
C217 C213 1.429 . S
C217 C218 1.523 . S
C218 C202 1.368 . S
C218 C214 1.368 . S
C218 C217 1.523 . S
H219 C194 0.950 . S
H220 C196 0.950 . S
H221 C197 0.949 . S
H222 C199 0.950 . S
H223 C201 0.950 . S
C224 C225 1.349 . S
C224 C226 1.327 . S
C224 H249 0.950 . S
C225 C224 1.349 . S
C225 C241 1.349 . S
C226 C224 1.327 . S
C226 C245 1.429 . S
C226 H250 0.950 . S
C227 C244 1.574 . S
C227 C246 1.368 . S
C227 H251 0.949 . S
H228 C232 0.949 . S
C229 C230 1.349 . S
C229 C231 1.327 . S
C229 H252 0.950 . S
C230 C229 1.349 . S
C230 C242 1.349 . S
C231 C229 1.327 . S
C231 C247 1.429 . S
C231 H253 0.950 . S
C232 H228 0.949 . S
C232 C240 1.574 . S
C232 C248 1.368 . S
H233 C241 0.950 . S
H234 C239 0.950 . S
H235 C240 0.949 . S
H236 C242 0.950 . S
H237 C243 0.950 . S
H238 C244 0.949 . S
C239 H234 0.950 . S
C239 C241 1.327 . S
C239 C245 1.429 . S
C240 C232 1.574 . S
C240 H235 0.949 . S
C240 C246 1.368 . S
C241 C225 1.349 . S
C241 H233 0.950 . S
C241 C239 1.327 . S
C242 C230 1.349 . S
C242 H236 0.950 . S
C242 C243 1.327 . S
C243 H237 0.950 . S
C243 C242 1.327 . S
C243 C247 1.429 . S
C244 C227 1.574 . S
C244 H238 0.949 . S
C244 C248 1.368 . S
C245 C226 1.429 . S
C245 C239 1.429 . S
C245 C246 1.523 . S
C246 C227 1.368 . S
C246 C240 1.368 . S
C246 C245 1.523 . S
C247 C231 1.429 . S
C247 C243 1.429 . S
C247 C248 1.523 . S
C248 C232 1.368 . S
C248 C244 1.368 . S
C248 C247 1.523 . S
H249 C224 0.950 . S
H250 C226 0.950 . S
H251 C227 0.949 . S
H252 C229 0.950 . S
H253 C231 0.950 . S
C254 C255 1.349 . S
C254 C256 1.327 . S
C254 H279 0.950 . S
C255 C254 1.349 . S
C255 C271 1.349 . S
C256 C254 1.327 . S
C256 C275 1.429 . S
C256 H280 0.950 . S
C257 C274 1.574 . S
C257 C276 1.368 . S
C257 H281 0.949 . S
H258 C262 0.949 . S
C259 C260 1.349 . S
C259 C261 1.327 . S
C259 H282 0.950 . S
C260 C259 1.349 . S
C260 C272 1.349 . S
C261 C259 1.327 . S
C261 C277 1.429 . S
C261 H283 0.950 . S
C262 H258 0.949 . S
C262 C270 1.574 . S
C262 C278 1.368 . S
H263 C271 0.950 . S
H264 C269 0.950 . S
H265 C270 0.949 . S
H266 C272 0.950 . S
H267 C273 0.950 . S
H268 C274 0.949 . S
C269 H264 0.950 . S
C269 C271 1.327 . S
C269 C275 1.429 . S
C270 C262 1.574 . S
C270 H265 0.949 . S
C270 C276 1.368 . S
C271 C255 1.349 . S
C271 H263 0.950 . S
C271 C269 1.327 . S
C272 C260 1.349 . S
C272 H266 0.950 . S
C272 C273 1.327 . S
C273 H267 0.950 . S
C273 C272 1.327 . S
C273 C277 1.429 . S
C274 C257 1.574 . S
C274 H268 0.949 . S
C274 C278 1.368 . S
C275 C256 1.429 . S
C275 C269 1.429 . S
C275 C276 1.523 . S
C276 C257 1.368 . S
C276 C270 1.368 . S
C276 C275 1.523 . S
C277 C261 1.429 . S
C277 C273 1.429 . S
C277 C278 1.523 . S
C278 C262 1.368 . S
C278 C274 1.368 . S
C278 C277 1.523 . S
H279 C254 0.950 . S
H280 C256 0.950 . S
H281 C257 0.949 . S
H282 C259 0.950 . S
H283 C261 0.950 . S
C284 C285 1.338 1_566 S
C284 C286 1.327 . S
C284 H309 0.950 . S
C285 C284 1.338 1_544 S
C285 C301 1.359 . S
C286 C284 1.327 . S
C286 C305 1.429 1_565 S
C286 H310 0.950 . S
C287 C304 1.574 . S
C287 C306 1.368 . S
C287 H311 0.949 . S
H288 C292 0.949 . S
C289 C290 1.349 . S
C289 C291 1.327 . S
C289 H312 0.950 . S
C290 C289 1.349 . S
C290 C302 1.349 1_545 S
C291 C289 1.327 . S
C291 C307 1.429 . S
C291 H313 0.950 . S
C292 H288 0.949 . S
C292 C300 1.574 . S
C292 C308 1.368 1_565 S
H293 C301 0.950 . S
H294 C299 0.950 . S
H295 C300 0.949 . S
H296 C302 0.950 . S
H297 C303 0.950 . S
H298 C304 0.949 . S
C299 H294 0.950 . S
C299 C301 1.327 . S
C299 C305 1.429 1_554 S
C300 C292 1.574 . S
C300 H295 0.949 . S
C300 C306 1.368 1_565 S
C301 C285 1.359 . S
C301 H293 0.950 . S
C301 C299 1.327 . S
C302 C290 1.349 1_565 S
C302 H296 0.950 . S
C302 C303 1.327 . S
C303 H297 0.950 . S
C303 C302 1.327 . S
C303 C307 1.429 1_565 S
C304 C287 1.574 . S
C304 H298 0.949 . S
C304 C308 1.368 . S
C305 C286 1.429 1_545 S
C305 C299 1.429 1_556 S
C305 C306 1.523 . S
C306 C287 1.368 . S
C306 C300 1.368 1_545 S
C306 C305 1.523 . S
C307 C291 1.429 . S
C307 C303 1.429 1_545 S
C307 C308 1.523 . S
C308 C292 1.368 1_545 S
C308 C304 1.368 . S
C308 C307 1.523 . S
H309 C284 0.950 . S
H310 C286 0.950 . S
H311 C287 0.949 . S
H312 C289 0.950 . S
H313 C291 0.950 . S
C314 C315 1.349 1_556 S
C314 C316 1.327 . S
C314 H339 0.950 . S
C315 C314 1.349 1_554 S
C315 C331 1.349 . S
C316 C314 1.327 . S
C316 C335 1.429 . S
C316 H340 0.950 . S
C317 C334 1.574 . S
C317 C336 1.368 . S
C317 H341 0.949 . S
H318 C322 0.949 . S
C319 C320 1.349 . S
C319 C321 1.327 . S
C319 H342 0.950 . S
C320 C319 1.349 . S
C320 C332 1.349 . S
C321 C319 1.327 . S
C321 C337 1.429 . S
C321 H343 0.950 . S
C322 H318 0.949 . S
C322 C330 1.574 . S
C322 C338 1.368 . S
H323 C331 0.950 . S
H324 C329 0.950 . S
H325 C330 0.949 . S
H326 C332 0.950 . S
H327 C333 0.950 . S
H328 C334 0.949 . S
C329 H324 0.950 . S
C329 C331 1.327 . S
C329 C335 1.429 1_554 S
C330 C322 1.574 . S
C330 H325 0.949 . S
C330 C336 1.368 . S
C331 C315 1.349 . S
C331 H323 0.950 . S
C331 C329 1.327 . S
C332 C320 1.349 . S
C332 H326 0.950 . S
C332 C333 1.327 . S
C333 H327 0.950 . S
C333 C332 1.327 . S
C333 C337 1.429 . S
C334 C317 1.574 . S
C334 H328 0.949 . S
C334 C338 1.368 . S
C335 C316 1.429 . S
C335 C329 1.429 1_556 S
C335 C336 1.523 . S
C336 C317 1.368 . S
C336 C330 1.368 . S
C336 C335 1.523 . S
C337 C321 1.429 . S
C337 C333 1.429 . S
C337 C338 1.523 . S
C338 C322 1.368 . S
C338 C334 1.368 . S
C338 C337 1.523 . S
H339 C314 0.950 . S
H340 C316 0.950 . S
H341 C317 0.949 . S
H342 C319 0.950 . S
H343 C321 0.950 . S
C344 C345 1.354 . S
C344 C346 1.327 . S
C344 H369 0.950 . S
C345 C344 1.354 . S
C345 C361 1.347 1_556 S
C346 C344 1.327 . S
C346 C365 1.429 . S
C346 H370 0.950 . S
C347 C364 1.574 . S
C347 C366 1.368 . S
C347 H371 0.949 . S
H348 C352 0.949 . S
C349 C350 1.349 . S
C349 C351 1.327 . S
C349 H372 0.950 . S
C350 C349 1.349 . S
C350 C362 1.349 . S
C351 C349 1.327 . S
C351 C367 1.429 . S
C351 H373 0.950 . S
C352 H348 0.949 . S
C352 C360 1.574 . S
C352 C368 1.368 . S
H353 C361 0.950 . S
H354 C359 0.950 1_554 S
H355 C360 0.949 . S
H356 C362 0.950 . S
H357 C363 0.950 . S
H358 C364 0.949 . S
C359 H354 0.950 1_556 S
C359 C361 1.327 1_556 S
C359 C365 1.429 . S
C360 C352 1.574 . S
C360 H355 0.949 . S
C360 C366 1.368 . S
C361 C345 1.347 1_554 S
C361 H353 0.950 . S
C361 C359 1.327 1_554 S
C362 C350 1.349 . S
C362 H356 0.950 . S
C362 C363 1.327 . S
C363 H357 0.950 . S
C363 C362 1.327 . S
C363 C367 1.429 . S
C364 C347 1.574 . S
C364 H358 0.949 . S
C364 C368 1.368 . S
C365 C346 1.429 . S
C365 C359 1.429 . S
C365 C366 1.523 . S
C366 C347 1.368 . S
C366 C360 1.368 . S
C366 C365 1.523 . S
C367 C351 1.429 . S
C367 C363 1.429 . S
C367 C368 1.523 . S
C368 C352 1.368 . S
C368 C364 1.368 . S
C368 C367 1.523 . S
H369 C344 0.950 . S
H370 C346 0.950 . S
H371 C347 0.949 . S
H372 C349 0.950 . S
H373 C351 0.950 . S
C374 C375 1.349 1_455 S
C374 C376 1.327 1_554 S
C374 H399 0.950 . S
C375 C374 1.349 1_655 S
C375 C391 1.349 . S
C376 C374 1.327 1_556 S
C376 C395 1.429 1_455 S
C376 H400 0.950 . S
C377 C394 1.574 . S
C377 C396 1.368 . S
C377 H401 0.949 . S
H378 C382 0.949 . S
C379 C380 1.349 1_655 S
C379 C381 1.327 . S
C379 H402 0.950 . S
C380 C379 1.349 1_455 S
C380 C392 1.349 . S
C381 C379 1.327 . S
C381 C397 1.429 1_655 S
C381 H403 0.950 . S
C382 H378 0.949 . S
C382 C390 1.574 . S
C382 C398 1.368 . S
H383 C391 0.950 . S
H384 C389 0.950 . S
H385 C390 0.949 . S
H386 C392 0.950 . S
H387 C393 0.950 . S
H388 C394 0.949 . S
C389 H384 0.950 . S
C389 C391 1.327 . S
C389 C395 1.429 1_554 S
C390 C382 1.574 . S
C390 H385 0.949 . S
C390 C396 1.368 1_455 S
C391 C375 1.349 . S
C391 H383 0.950 . S
C391 C389 1.327 . S
C392 C380 1.349 . S
C392 H386 0.950 . S
C392 C393 1.327 . S
C393 H387 0.950 . S
C393 C392 1.327 . S
C393 C397 1.429 . S
C394 C377 1.574 . S
C394 H388 0.949 . S
C394 C398 1.368 1_655 S
C395 C376 1.429 1_655 S
C395 C389 1.429 1_556 S
C395 C396 1.523 . S
C396 C377 1.368 . S
C396 C390 1.368 1_655 S
C396 C395 1.523 . S
C397 C381 1.429 1_455 S
C397 C393 1.429 . S
C397 C398 1.523 . S
C398 C382 1.368 . S
C398 C394 1.368 1_455 S
C398 C397 1.523 . S
H399 C374 0.950 . S
H400 C376 0.950 . S
H401 C377 0.949 . S
H402 C379 0.950 . S
H403 C381 0.950 . S
C404 C405 1.349 . S
C404 C406 1.327 . S
C404 H429 0.950 . S
C405 C404 1.349 . S
C405 C421 1.349 . S
C406 C404 1.327 . S
C406 C425 1.429 . S
C406 H430 0.950 . S
C407 C424 1.574 . S
C407 C426 1.368 . S
C407 H431 0.949 . S
H408 C412 0.949 . S
C409 C410 1.349 . S
C409 C411 1.327 . S
C409 H432 0.950 . S
C410 C409 1.349 . S
C410 C422 1.349 . S
C411 C409 1.327 . S
C411 C427 1.429 . S
C411 H433 0.950 . S
C412 H408 0.949 . S
C412 C420 1.574 . S
C412 C428 1.368 . S
H413 C421 0.950 . S
H414 C419 0.950 . S
H415 C420 0.949 . S
H416 C422 0.950 . S
H417 C423 0.950 . S
H418 C424 0.949 . S
C419 H414 0.950 . S
C419 C421 1.327 . S
C419 C425 1.429 . S
C420 C412 1.574 . S
C420 H415 0.949 . S
C420 C426 1.368 . S
C421 C405 1.349 . S
C421 H413 0.950 . S
C421 C419 1.327 . S
C422 C410 1.349 . S
C422 H416 0.950 . S
C422 C423 1.327 . S
C423 H417 0.950 . S
C423 C422 1.327 . S
C423 C427 1.429 . S
C424 C407 1.574 . S
C424 H418 0.949 . S
C424 C428 1.368 . S
C425 C406 1.429 . S
C425 C419 1.429 . S
C425 C426 1.523 . S
C426 C407 1.368 . S
C426 C420 1.368 . S
C426 C425 1.523 . S
C427 C411 1.429 . S
C427 C423 1.429 . S
C427 C428 1.523 . S
C428 C412 1.368 . S
C428 C424 1.368 . S
C428 C427 1.523 . S
H429 C404 0.950 . S
H430 C406 0.950 . S
H431 C407 0.949 . S
H432 C409 0.950 . S
H433 C411 0.950 . S
C434 C435 1.337 1_565 S
C434 C436 1.327 . S
C434 H459 0.950 . S
C435 C434 1.337 1_545 S
C435 C451 1.360 . S
C436 C434 1.327 . S
C436 C455 1.440 . S
C436 H460 0.950 . S
C437 C454 1.574 . S
C437 C456 1.338 1_545 S
C437 H461 0.949 . S
H438 C442 0.949 . S
C439 C440 1.349 1_545 S
C439 C441 1.327 . S
C439 H462 0.950 . S
C440 C439 1.349 1_565 S
C440 C452 1.349 . S
C441 C439 1.327 . S
C441 C457 1.429 1_545 S
C441 H463 0.950 . S
C442 H438 0.949 . S
C442 C450 1.574 . S
C442 C458 1.368 . S
H443 C451 0.950 . S
H444 C449 0.950 . S
H445 C450 0.949 . S
H446 C452 0.950 . S
H447 C453 0.950 . S
H448 C454 0.949 . S
C449 H444 0.950 . S
C449 C451 1.327 . S
C449 C455 1.417 1_545 S
C450 C442 1.574 . S
C450 H445 0.949 . S
C450 C456 1.400 . S
C451 C435 1.360 . S
C451 H443 0.950 . S
C451 C449 1.327 . S
C452 C440 1.349 . S
C452 H446 0.950 . S
C452 C453 1.327 . S
C453 H447 0.950 . S
C453 C452 1.327 . S
C453 C457 1.429 . S
C454 C437 1.574 . S
C454 H448 0.949 . S
C454 C458 1.368 1_545 S
C455 C436 1.440 . S
C455 C449 1.417 1_565 S
C455 C456 1.522 . S
C456 C437 1.338 1_565 S
C456 C450 1.400 . S
C456 C455 1.522 . S
C457 C441 1.429 1_565 S
C457 C453 1.429 . S
C457 C458 1.523 . S
C458 C442 1.368 . S
C458 C454 1.368 1_565 S
C458 C457 1.523 . S
H459 C434 0.950 . S
H460 C436 0.950 . S
H461 C437 0.949 . S
H462 C439 0.950 . S
H463 C441 0.950 . S
C464 C465 1.349 . S
C464 C466 1.327 . S
C464 H489 0.950 . S
C465 C464 1.349 . S
C465 C481 1.349 . S
C466 C464 1.327 . S
C466 C485 1.429 . S
C466 H490 0.950 . S
C467 C484 1.574 . S
C467 C486 1.368 . S
C467 H491 0.949 . S
H468 C472 0.949 . S
C469 C470 1.349 . S
C469 C471 1.327 . S
C469 H492 0.950 . S
C470 C469 1.349 . S
C470 C482 1.349 . S
C471 C469 1.327 . S
C471 C487 1.429 . S
C471 H493 0.950 . S
C472 H468 0.949 . S
C472 C480 1.574 . S
C472 C488 1.368 . S
H473 C481 0.950 . S
H474 C479 0.950 . S
H475 C480 0.949 . S
H476 C482 0.950 . S
H477 C483 0.950 . S
H478 C484 0.949 . S
C479 H474 0.950 . S
C479 C481 1.327 . S
C479 C485 1.429 . S
C480 C472 1.574 . S
C480 H475 0.949 . S
C480 C486 1.368 . S
C481 C465 1.349 . S
C481 H473 0.950 . S
C481 C479 1.327 . S
C482 C470 1.349 . S
C482 H476 0.950 . S
C482 C483 1.327 . S
C483 H477 0.950 . S
C483 C482 1.327 . S
C483 C487 1.429 . S
C484 C467 1.574 . S
C484 H478 0.949 . S
C484 C488 1.368 . S
C485 C466 1.429 . S
C485 C479 1.429 . S
C485 C486 1.523 . S
C486 C467 1.368 . S
C486 C480 1.368 . S
C486 C485 1.523 . S
C487 C471 1.429 . S
C487 C483 1.429 . S
C487 C488 1.523 . S
C488 C472 1.368 . S
C488 C484 1.368 . S
C488 C487 1.523 . S
H489 C464 0.950 . S
H490 C466 0.950 . S
H491 C467 0.949 . S
H492 C469 0.950 . S
H493 C471 0.950 . S
C494 C495 1.349 . S
C494 C496 1.327 . S
C494 H519 0.950 . S
C495 C494 1.349 . S
C495 C511 1.349 . S
C496 C494 1.327 . S
C496 C515 1.429 . S
C496 H520 0.950 . S
C497 C514 1.574 . S
C497 C516 1.368 . S
C497 H521 0.949 . S
H498 C502 0.949 . S
C499 C500 1.349 . S
C499 C501 1.327 . S
C499 H522 0.950 . S
C500 C499 1.349 . S
C500 C512 1.349 . S
C501 C499 1.327 . S
C501 C517 1.429 . S
C501 H523 0.950 . S
C502 H498 0.949 . S
C502 C510 1.574 . S
C502 C518 1.368 . S
H503 C511 0.950 . S
H504 C509 0.950 . S
H505 C510 0.949 . S
H506 C512 0.950 . S
H507 C513 0.950 . S
H508 C514 0.949 . S
C509 H504 0.950 . S
C509 C511 1.327 . S
C509 C515 1.429 . S
C510 C502 1.574 . S
C510 H505 0.949 . S
C510 C516 1.368 . S
C511 C495 1.349 . S
C511 H503 0.950 . S
C511 C509 1.327 . S
C512 C500 1.349 . S
C512 H506 0.950 . S
C512 C513 1.327 . S
C513 H507 0.950 . S
C513 C512 1.327 . S
C513 C517 1.429 . S
C514 C497 1.574 . S
C514 H508 0.949 . S
C514 C518 1.368 . S
C515 C496 1.429 . S
C515 C509 1.429 . S
C515 C516 1.523 . S
C516 C497 1.368 . S
C516 C510 1.368 . S
C516 C515 1.523 . S
C517 C501 1.429 . S
C517 C513 1.429 . S
C517 C518 1.523 . S
C518 C502 1.368 . S
C518 C514 1.368 . S
C518 C517 1.523 . S
H519 C494 0.950 . S
H520 C496 0.950 . S
H521 C497 0.949 . S
H522 C499 0.950 . S
H523 C501 0.950 . S
C524 C525 1.349 1_455 S
C524 C526 1.327 . S
C524 H549 0.950 . S
C525 C524 1.349 1_655 S
C525 C541 1.349 . S
C526 C524 1.327 . S
C526 C545 1.429 1_554 S
C526 H550 0.950 . S
C527 C544 1.574 1_655 S
C527 C546 1.368 1_655 S
C527 H551 0.949 . S
H528 C532 0.949 . S
C529 C530 1.349 . S
C529 C531 1.327 . S
C529 H552 0.950 . S
C530 C529 1.349 . S
C530 C542 1.349 . S
C531 C529 1.327 . S
C531 C547 1.429 . S
C531 H553 0.950 . S
C532 H528 0.949 . S
C532 C540 1.574 . S
C532 C548 1.368 . S
H533 C541 0.950 . S
H534 C539 0.950 . S
H535 C540 0.949 1_554 S
H536 C542 0.950 . S
H537 C543 0.950 . S
H538 C544 0.949 1_655 S
C539 H534 0.950 . S
C539 C541 1.327 1_556 S
C539 C545 1.429 1_655 S
C540 C532 1.574 . S
C540 H535 0.949 1_556 S
C540 C546 1.368 . S
C541 C525 1.349 . S
C541 H533 0.950 . S
C541 C539 1.327 1_554 S
C542 C530 1.349 . S
C542 H536 0.950 . S
C542 C543 1.327 . S
C543 H537 0.950 . S
C543 C542 1.327 . S
C543 C547 1.429 . S
C544 C527 1.574 1_455 S
C544 H538 0.949 1_455 S
C544 C548 1.368 . S
C545 C526 1.429 1_556 S
C545 C539 1.429 1_455 S
C545 C546 1.523 . S
C546 C527 1.368 1_455 S
C546 C540 1.368 . S
C546 C545 1.523 . S
C547 C531 1.429 . S
C547 C543 1.429 . S
C547 C548 1.523 . S
C548 C532 1.368 . S
C548 C544 1.368 . S
C548 C547 1.523 . S
H549 C524 0.950 . S
H550 C526 0.950 . S
H551 C527 0.949 . S
H552 C529 0.950 . S
H553 C531 0.950 . S
C554 C555 1.349 1_546 S
C554 C556 1.327 . S
C554 H579 0.950 . S
C555 C554 1.349 1_564 S
C555 C571 1.349 . S
C556 C554 1.327 . S
C556 C575 1.429 . S
C556 H580 0.950 . S
C557 C574 1.573 . S
C557 C576 1.368 1_565 S
C557 H581 0.949 . S
H558 C562 0.949 . S
C559 C560 1.349 . S
C559 C561 1.327 . S
C559 H582 0.950 . S
C560 C559 1.349 . S
C560 C572 1.349 . S
C561 C559 1.327 . S
C561 C577 1.429 . S
C561 H583 0.950 1_545 S
C562 H558 0.949 . S
C562 C570 1.574 . S
C562 C578 1.368 . S
H563 C571 0.950 . S
H564 C569 0.950 . S
H565 C570 0.949 . S
H566 C572 0.950 . S
H567 C573 0.950 . S
H568 C574 0.948 . S
C569 H564 0.950 . S
C569 C571 1.327 1_556 S
C569 C575 1.429 1_565 S
C570 C562 1.574 . S
C570 H565 0.949 . S
C570 C576 1.368 . S
C571 C555 1.349 . S
C571 H563 0.950 . S
C571 C569 1.327 1_554 S
C572 C560 1.349 . S
C572 H566 0.950 . S
C572 C573 1.327 . S
C573 H567 0.950 . S
C573 C572 1.327 . S
C573 C577 1.429 . S
C574 C557 1.573 . S
C574 H568 0.948 . S
C574 C578 1.370 1_565 S
C575 C556 1.429 . S
C575 C569 1.429 1_545 S
C575 C576 1.523 . S
C576 C557 1.368 1_545 S
C576 C570 1.368 . S
C576 C575 1.523 . S
C577 C561 1.429 . S
C577 C573 1.429 . S
C577 C578 1.523 . S
C578 C562 1.368 . S
C578 C574 1.370 1_545 S
C578 C577 1.523 . S
H579 C554 0.950 . S
H580 C556 0.950 . S
H581 C557 0.949 . S
H582 C559 0.950 . S
H583 C561 0.950 1_565 S
C584 C585 1.349 1_556 S
C584 C586 1.327 . S
C584 H609 0.950 . S
C585 C584 1.349 1_554 S
C585 C601 1.349 . S
C586 C584 1.327 . S
C586 C605 1.429 . S
C586 H610 0.950 . S
C587 C604 1.574 . S
C587 C606 1.368 . S
C587 H611 0.949 . S
H588 C592 0.949 . S
C589 C590 1.349 . S
C589 C591 1.327 . S
C589 H612 0.950 . S
C590 C589 1.349 . S
C590 C602 1.349 . S
C591 C589 1.327 . S
C591 C607 1.429 . S
C591 H613 0.950 . S
C592 H588 0.949 . S
C592 C600 1.574 . S
C592 C608 1.368 . S
H593 C601 0.950 . S
H594 C599 0.950 1_554 S
H595 C600 0.949 . S
H596 C602 0.950 . S
H597 C603 0.950 . S
H598 C604 0.949 . S
C599 H594 0.950 1_556 S
C599 C601 1.327 1_556 S
C599 C605 1.429 . S
C600 C592 1.574 . S
C600 H595 0.949 . S
C600 C606 1.368 . S
C601 C585 1.349 . S
C601 H593 0.950 . S
C601 C599 1.327 1_554 S
C602 C590 1.349 . S
C602 H596 0.950 . S
C602 C603 1.327 . S
C603 H597 0.950 . S
C603 C602 1.327 . S
C603 C607 1.429 . S
C604 C587 1.574 . S
C604 H598 0.949 . S
C604 C608 1.368 . S
C605 C586 1.429 . S
C605 C599 1.429 . S
C605 C606 1.523 . S
C606 C587 1.368 . S
C606 C600 1.368 . S
C606 C605 1.523 . S
C607 C591 1.429 . S
C607 C603 1.429 . S
C607 C608 1.523 . S
C608 C592 1.368 . S
C608 C604 1.368 . S
C608 C607 1.523 . S
H609 C584 0.950 . S
H610 C586 0.950 . S
H611 C587 0.949 . S
H612 C589 0.950 . S
H613 C591 0.950 . S
C614 C615 1.349 1_554 S
C614 C616 1.327 1_554 S
C614 H639 0.950 . S
C615 C614 1.349 1_556 S
C615 C631 1.349 . S
C616 C614 1.327 1_556 S
C616 C635 1.429 . S
C616 H640 0.950 . S
C617 C634 1.574 . S
C617 C636 1.368 . S
C617 H641 0.949 . S
H618 C622 0.949 . S
C619 C620 1.349 . S
C619 C621 1.327 . S
C619 H642 0.950 . S
C620 C619 1.349 . S
C620 C632 1.349 . S
C621 C619 1.327 . S
C621 C637 1.429 . S
C621 H643 0.950 . S
C622 H618 0.949 . S
C622 C630 1.574 . S
C622 C638 1.368 . S
H623 C631 0.950 . S
H624 C629 0.950 . S
H625 C630 0.949 . S
H626 C632 0.950 . S
H627 C633 0.950 . S
H628 C634 0.949 . S
C629 H624 0.950 . S
C629 C631 1.327 . S
C629 C635 1.429 . S
C630 C622 1.574 . S
C630 H625 0.949 . S
C630 C636 1.368 . S
C631 C615 1.349 . S
C631 H623 0.950 . S
C631 C629 1.327 . S
C632 C620 1.349 . S
C632 H626 0.950 . S
C632 C633 1.327 . S
C633 H627 0.950 . S
C633 C632 1.327 . S
C633 C637 1.429 . S
C634 C617 1.574 . S
C634 H628 0.949 . S
C634 C638 1.368 . S
C635 C616 1.429 . S
C635 C629 1.429 . S
C635 C636 1.523 . S
C636 C617 1.368 . S
C636 C630 1.368 . S
C636 C635 1.523 . S
C637 C621 1.429 . S
C637 C633 1.429 . S
C637 C638 1.523 . S
C638 C622 1.368 . S
C638 C634 1.368 . S
C638 C637 1.523 . S
H639 C614 0.950 . S
H640 C616 0.950 . S
H641 C617 0.949 . S
H642 C619 0.950 . S
H643 C621 0.950 . S
C644 C645 1.349 . S
C644 C646 1.327 . S
C644 H669 0.950 . S
C645 C644 1.349 . S
C645 C661 1.349 . S
C646 C644 1.327 . S
C646 C665 1.429 . S
C646 H670 0.950 . S
C647 C664 1.574 . S
C647 C666 1.368 . S
C647 H671 0.949 . S
H648 C652 0.949 . S
C649 C650 1.349 . S
C649 C651 1.327 . S
C649 H672 0.950 . S
C650 C649 1.349 . S
C650 C662 1.349 . S
C651 C649 1.327 . S
C651 C667 1.429 . S
C651 H673 0.950 1_556 S
C652 H648 0.949 . S
C652 C660 1.574 1_556 S
C652 C668 1.368 1_556 S
H653 C661 0.950 . S
H654 C659 0.950 . S
H655 C660 0.949 . S
H656 C662 0.950 . S
H657 C663 0.950 . S
H658 C664 0.949 . S
C659 H654 0.950 . S
C659 C661 1.327 . S
C659 C665 1.429 . S
C660 C652 1.574 1_554 S
C660 H655 0.949 . S
C660 C666 1.368 . S
C661 C645 1.349 . S
C661 H653 0.950 . S
C661 C659 1.327 . S
C662 C650 1.349 . S
C662 H656 0.950 . S
C662 C663 1.327 . S
C663 H657 0.950 . S
C663 C662 1.327 . S
C663 C667 1.429 . S
C664 C647 1.574 . S
C664 H658 0.949 . S
C664 C668 1.368 . S
C665 C646 1.429 . S
C665 C659 1.429 . S
C665 C666 1.523 . S
C666 C647 1.368 . S
C666 C660 1.368 . S
C666 C665 1.523 . S
C667 C651 1.429 . S
C667 C663 1.429 . S
C667 C668 1.523 1_556 S
C668 C652 1.368 1_554 S
C668 C664 1.368 . S
C668 C667 1.523 1_554 S
H669 C644 0.950 . S
H670 C646 0.950 . S
H671 C647 0.949 . S
H672 C649 0.950 . S
H673 C651 0.950 1_554 S
C674 C675 1.349 . S
C674 C676 1.327 . S
C674 H699 0.950 . S
C675 C674 1.349 . S
C675 C691 1.349 1_545 S
C676 C674 1.327 . S
C676 C695 1.425 . S
C676 H700 0.950 . S
C677 C694 1.574 1_554 S
C677 C696 1.366 . S
C677 H701 0.949 . S
H678 C682 0.950 . S
C679 C680 1.357 . S
C679 C681 1.327 . S
C679 H702 0.950 . S
C680 C679 1.357 . S
C680 C692 1.341 1_565 S
C681 C679 1.327 . S
C681 C697 1.433 . S
C681 H703 0.950 . S
C682 H678 0.950 . S
C682 C690 1.574 . S
C682 C698 1.366 1_544 S
H683 C691 0.950 . S
H684 C689 0.950 . S
H685 C690 0.949 . S
H686 C692 0.950 . S
H687 C693 0.950 . S
H688 C694 0.949 . S
C689 H684 0.950 . S
C689 C691 1.327 . S
C689 C695 1.432 1_565 S
C690 C682 1.574 . S
C690 H685 0.949 . S
C690 C696 1.370 1_545 S
C691 C675 1.349 1_565 S
C691 H683 0.950 . S
C691 C689 1.327 . S
C692 C680 1.341 1_545 S
C692 H686 0.950 . S
C692 C693 1.327 . S
C693 H687 0.950 . S
C693 C692 1.327 . S
C693 C697 1.425 1_545 S
C694 C677 1.574 1_556 S
C694 H688 0.949 . S
C694 C698 1.370 . S
C695 C676 1.425 . S
C695 C689 1.432 1_545 S
C695 C696 1.523 1_545 S
C696 C677 1.366 . S
C696 C690 1.370 1_565 S
C696 C695 1.523 1_565 S
C697 C681 1.433 . S
C697 C693 1.425 1_565 S
C697 C698 1.523 . S
C698 C682 1.366 1_566 S
C698 C694 1.370 . S
C698 C697 1.523 . S
H699 C674 0.950 . S
H700 C676 0.950 . S
H701 C677 0.949 . S
H702 C679 0.950 . S
H703 C681 0.950 . S
C704 C705 1.349 . S
C704 C706 1.327 . S
C704 H729 0.950 . S
C705 C704 1.349 . S
C705 C721 1.349 . S
C706 C704 1.327 . S
C706 C725 1.429 . S
C706 H730 0.950 . S
C707 C724 1.572 1_554 S
C707 C726 1.369 . S
C707 H731 0.950 . S
H708 C712 0.949 . S
C709 C710 1.349 . S
C709 C711 1.327 . S
C709 H732 0.950 . S
C710 C709 1.349 . S
C710 C722 1.349 . S
C711 C709 1.327 . S
C711 C727 1.429 . S
C711 H733 0.950 . S
C712 H708 0.949 . S
C712 C720 1.574 1_556 S
C712 C728 1.368 . S
H713 C721 0.950 . S
H714 C719 0.950 . S
H715 C720 0.949 . S
H716 C722 0.950 . S
H717 C723 0.950 . S
H718 C724 0.949 . S
C719 H714 0.950 . S
C719 C721 1.327 . S
C719 C725 1.429 . S
C720 C712 1.574 1_554 S
C720 H715 0.949 . S
C720 C726 1.368 . S
C721 C705 1.349 . S
C721 H713 0.950 . S
C721 C719 1.327 . S
C722 C710 1.349 . S
C722 H716 0.950 . S
C722 C723 1.327 . S
C723 H717 0.950 . S
C723 C722 1.327 . S
C723 C727 1.429 . S
C724 C707 1.572 1_556 S
C724 H718 0.949 . S
C724 C728 1.368 . S
C725 C706 1.429 . S
C725 C719 1.429 . S
C725 C726 1.523 . S
C726 C707 1.369 . S
C726 C720 1.368 . S
C726 C725 1.523 . S
C727 C711 1.429 . S
C727 C723 1.429 . S
C727 C728 1.523 . S
C728 C712 1.368 . S
C728 C724 1.368 . S
C728 C727 1.523 . S
H729 C704 0.950 . S
H730 C706 0.950 . S
H731 C707 0.950 . S
H732 C709 0.950 . S
H733 C711 0.950 . S
C734 C735 1.349 . S
C734 C736 1.327 . S
C734 H759 0.950 . S
C735 C734 1.349 . S
C735 C751 1.349 . S
C736 C734 1.327 . S
C736 C755 1.429 . S
C736 H760 0.950 . S
C737 C754 1.574 1_554 S
C737 C756 1.368 . S
C737 H761 0.949 . S
H738 C742 0.949 . S
C739 C740 1.349 . S
C739 C741 1.327 . S
C739 H762 0.950 . S
C740 C739 1.349 . S
C740 C752 1.349 . S
C741 C739 1.327 . S
C741 C757 1.429 . S
C741 H763 0.950 . S
C742 H738 0.949 . S
C742 C750 1.574 . S
C742 C758 1.368 . S
H743 C751 0.950 . S
H744 C749 0.950 . S
H745 C750 0.949 . S
H746 C752 0.950 . S
H747 C753 0.950 . S
H748 C754 0.949 . S
C749 H744 0.950 . S
C749 C751 1.327 . S
C749 C755 1.429 . S
C750 C742 1.574 . S
C750 H745 0.949 . S
C750 C756 1.368 1_556 S
C751 C735 1.349 . S
C751 H743 0.950 . S
C751 C749 1.327 . S
C752 C740 1.349 . S
C752 H746 0.950 . S
C752 C753 1.327 . S
C753 H747 0.950 . S
C753 C752 1.327 . S
C753 C757 1.429 . S
C754 C737 1.574 1_556 S
C754 H748 0.949 . S
C754 C758 1.368 . S
C755 C736 1.429 . S
C755 C749 1.429 . S
C755 C756 1.523 . S
C756 C737 1.368 . S
C756 C750 1.368 1_554 S
C756 C755 1.523 . S
C757 C741 1.429 . S
C757 C753 1.429 . S
C757 C758 1.523 . S
C758 C742 1.368 . S
C758 C754 1.368 . S
C758 C757 1.523 . S
H759 C734 0.950 . S
H760 C736 0.950 . S
H761 C737 0.949 . S
H762 C739 0.950 . S
H763 C741 0.950 . S
C764 C765 1.349 1_455 S
C764 C766 1.327 . S
C764 H789 0.950 . S
C765 C764 1.349 1_655 S
C765 C781 1.349 . S
C766 C764 1.327 . S
C766 C785 1.429 1_455 S
C766 H790 0.950 . S
C767 C784 1.574 . S
C767 C786 1.368 . S
C767 H791 0.949 . S
H768 C772 0.949 . S
C769 C770 1.349 . S
C769 C771 1.327 . S
C769 H792 0.950 . S
C770 C769 1.349 . S
C770 C782 1.349 1_655 S
C771 C769 1.327 . S
C771 C787 1.429 . S
C771 H793 0.950 . S
C772 H768 0.949 . S
C772 C780 1.574 . S
C772 C788 1.368 1_455 S
H773 C781 0.950 . S
H774 C779 0.950 . S
H775 C780 0.949 . S
H776 C782 0.950 . S
H777 C783 0.950 . S
H778 C784 0.949 . S
C779 H774 0.950 . S
C779 C781 1.327 . S
C779 C785 1.429 . S
C780 C772 1.574 . S
C780 H775 0.949 . S
C780 C786 1.368 1_455 S
C781 C765 1.349 . S
C781 H773 0.950 . S
C781 C779 1.327 . S
C782 C770 1.349 1_455 S
C782 H776 0.950 . S
C782 C783 1.327 . S
C783 H777 0.950 . S
C783 C782 1.327 . S
C783 C787 1.429 1_455 S
C784 C767 1.574 . S
C784 H778 0.949 . S
C784 C788 1.368 . S
C785 C766 1.429 1_655 S
C785 C779 1.429 . S
C785 C786 1.523 . S
C786 C767 1.368 . S
C786 C780 1.368 1_655 S
C786 C785 1.523 . S
C787 C771 1.429 . S
C787 C783 1.429 1_655 S
C787 C788 1.523 . S
C788 C772 1.368 1_655 S
C788 C784 1.368 . S
C788 C787 1.523 . S
H789 C764 0.950 . S
H790 C766 0.950 . S
H791 C767 0.949 . S
H792 C769 0.950 . S
H793 C771 0.950 . S
C794 C795 1.349 1_545 S
C794 C796 1.327 . S
C794 H819 0.950 . S
C795 C794 1.349 1_565 S
C795 C811 1.349 . S
C796 C794 1.327 . S
C796 C815 1.429 1_545 S
C796 H820 0.950 . S
C797 C814 1.574 . S
C797 C816 1.368 . S
C797 H821 0.949 . S
H798 C802 0.949 . S
C799 C800 1.349 . S
C799 C801 1.327 . S
C799 H822 0.950 . S
C800 C799 1.349 . S
C800 C812 1.349 . S
C801 C799 1.327 . S
C801 C817 1.429 . S
C801 H823 0.950 . S
C802 H798 0.949 . S
C802 C810 1.574 . S
C802 C818 1.368 1_545 S
H803 C811 0.950 . S
H804 C809 0.950 . S
H805 C810 0.949 . S
H806 C812 0.950 1_545 S
H807 C813 0.954 . S
H808 C814 0.949 . S
C809 H804 0.950 . S
C809 C811 1.327 . S
C809 C815 1.429 . S
C810 C802 1.574 . S
C810 H805 0.949 . S
C810 C816 1.368 1_545 S
C811 C795 1.349 . S
C811 H803 0.950 . S
C811 C809 1.327 . S
C812 C800 1.349 . S
C812 H806 0.950 1_565 S
C812 C813 1.327 1_565 S
C813 H807 0.954 . S
C813 C812 1.327 1_545 S
C813 C817 1.425 1_545 S
C814 C797 1.574 . S
C814 H808 0.949 . S
C814 C818 1.368 . S
C815 C796 1.429 1_565 S
C815 C809 1.429 . S
C815 C816 1.523 . S
C816 C797 1.368 . S
C816 C810 1.368 1_565 S
C816 C815 1.523 . S
C817 C801 1.429 . S
C817 C813 1.425 1_565 S
C817 C818 1.523 . S
C818 C802 1.368 1_565 S
C818 C814 1.368 . S
C818 C817 1.523 . S
H819 C794 0.950 . S
H820 C796 0.950 . S
H821 C797 0.949 . S
H822 C799 0.950 . S
H823 C801 0.950 . S
C824 C825 1.349 . S
C824 C826 1.327 . S
C824 H849 0.950 . S
C825 C824 1.349 . S
C825 C841 1.349 . S
C826 C824 1.327 . S
C826 C845 1.429 . S
C826 H850 0.950 . S
C827 C844 1.574 . S
C827 C846 1.368 . S
C827 H851 0.949 . S
H828 C832 0.949 . S
C829 C830 1.349 . S
C829 C831 1.327 . S
C829 H852 0.950 . S
C830 C829 1.349 . S
C830 C842 1.349 . S
C831 C829 1.327 . S
C831 C847 1.429 . S
C831 H853 0.950 . S
C832 H828 0.949 . S
C832 C840 1.574 . S
C832 C848 1.368 . S
H833 C841 0.950 . S
H834 C839 0.950 . S
H835 C840 0.949 . S
H836 C842 0.950 . S
H837 C843 0.950 . S
H838 C844 0.949 . S
C839 H834 0.950 . S
C839 C841 1.327 . S
C839 C845 1.429 . S
C840 C832 1.574 . S
C840 H835 0.949 . S
C840 C846 1.368 . S
C841 C825 1.349 . S
C841 H833 0.950 . S
C841 C839 1.327 . S
C842 C830 1.349 . S
C842 H836 0.950 . S
C842 C843 1.327 . S
C843 H837 0.950 . S
C843 C842 1.327 . S
C843 C847 1.429 . S
C844 C827 1.574 . S
C844 H838 0.949 . S
C844 C848 1.368 . S
C845 C826 1.429 . S
C845 C839 1.429 . S
C845 C846 1.523 . S
C846 C827 1.368 . S
C846 C840 1.368 . S
C846 C845 1.523 . S
C847 C831 1.429 . S
C847 C843 1.429 . S
C847 C848 1.523 . S
C848 C832 1.368 . S
C848 C844 1.368 . S
C848 C847 1.523 . S
H849 C824 0.950 . S
H850 C826 0.950 . S
H851 C827 0.949 . S
H852 C829 0.950 . S
H853 C831 0.950 . S
C854 C855 1.349 . S
C854 C856 1.327 . S
C854 H879 0.950 . S
C855 C854 1.349 . S
C855 C871 1.349 . S
C856 C854 1.327 . S
C856 C875 1.429 . S
C856 H880 0.950 . S
C857 C874 1.574 . S
C857 C876 1.368 . S
C857 H881 0.949 . S
H858 C862 0.949 . S
C859 C860 1.349 . S
C859 C861 1.327 . S
C859 H882 0.950 . S
C860 C859 1.349 . S
C860 C872 1.349 . S
C861 C859 1.327 . S
C861 C877 1.429 . S
C861 H883 0.950 . S
C862 H858 0.949 . S
C862 C870 1.574 . S
C862 C878 1.368 . S
H863 C871 0.950 . S
H864 C869 0.950 . S
H865 C870 0.949 . S
H866 C872 0.950 . S
H867 C873 0.950 . S
H868 C874 0.949 . S
C869 H864 0.950 . S
C869 C871 1.327 . S
C869 C875 1.429 . S
C870 C862 1.574 . S
C870 H865 0.949 . S
C870 C876 1.368 . S
C871 C855 1.349 . S
C871 H863 0.950 . S
C871 C869 1.327 . S
C872 C860 1.349 . S
C872 H866 0.950 . S
C872 C873 1.327 . S
C873 H867 0.950 . S
C873 C872 1.327 . S
C873 C877 1.429 . S
C874 C857 1.574 . S
C874 H868 0.949 . S
C874 C878 1.368 . S
C875 C856 1.429 . S
C875 C869 1.429 . S
C875 C876 1.523 . S
C876 C857 1.368 . S
C876 C870 1.368 . S
C876 C875 1.523 . S
C877 C861 1.429 . S
C877 C873 1.429 . S
C877 C878 1.523 . S
C878 C862 1.368 . S
C878 C874 1.368 . S
C878 C877 1.523 . S
H879 C854 0.950 . S
H880 C856 0.950 . S
H881 C857 0.949 . S
H882 C859 0.950 . S
H883 C861 0.950 . S
C165 C61 1.450 . S
C170 C88 1.458 . S
C200 C111 1.593 . S
C195 C70 1.586 . S
C230 C134 1.550 . S
C225 C43 1.537 . S
C260 C161 1.450 . S
C255 C52 1.504 . S
C290 C89 1.464 . S
C285 C25 1.453 1_545 S
C315 C34 1.414 . S
C320 C112 1.431 . S
C345 C7 1.307 1_556 S
C350 C135 1.322 . S
C375 C16 1.480 . S
C380 C160 1.486 . S
C410 C90 0.288 . S
C405 C50 0.484 . S
C440 C113 0.387 . S
C435 C59 0.382 1_545 S
C470 C136 0.257 . S
C465 C67 0.293 . S
C495 C41 0.241 . S
C500 C162 0.492 . S
C525 C14 0.227 . S
C530 C93 0.545 . S
C560 C116 0.609 . S
C555 C23 0.214 . S
C590 C139 0.579 . S
C585 C31 0.309 . S
C615 C5 0.251 . S
C620 C159 0.299 . S
C645 C49 1.613 . S
C650 C91 1.616 . S
C675 C58 1.501 1_545 S
C680 C114 1.514 1_565 S
C710 C137 1.520 . S
C705 C68 1.499 . S
C740 C158 1.247 . S
C735 C40 1.211 . S
C765 C13 1.559 . S
C770 C92 1.518 1_655 S
C800 C115 1.464 . S
C795 C22 1.504 . S
C830 C138 1.443 . S
C825 C32 1.482 . S
C855 C4 1.619 . S
C860 C157 1.667 . S
