# Generated by pormake.
# Topology tsx, (6,3)-cn, num edge types: 1
# Building blocks:
#     Node 0, Type 0, BuildingBlock: FUNLAD_clean_sbu_0, # of connection points: 6
#     Node 1, Type 0, BuildingBlock: FUNLAD_clean_sbu_0, # of connection points: 6
#     Node 2, Type 1, BuildingBlock: QEWDON_clean_linker_0, # of connection points: 3
#     Node 3, Type 1, BuildingBlock: QEWDON_clean_linker_0, # of connection points: 3
#     Node 4, Type 1, BuildingBlock: QEWDON_clean_linker_0, # of connection points: 3
#     Node 5, Type 1, BuildingBlock: QEWDON_clean_linker_0, # of connection points: 3
#     Edge 6, Type (0, 1), BuildingBlock: XIVTED_clean_linker_0, # of connection points: 2
#     Edge 7, Type (0, 1), BuildingBlock: XIVTED_clean_linker_0, # of connection points: 2
#     Edge 8, Type (0, 1), BuildingBlock: XIVTED_clean_linker_0, # of connection points: 2
#     Edge 9, Type (0, 1), BuildingBlock: XIVTED_clean_linker_0, # of connection points: 2
#     Edge 10, Type (0, 1), BuildingBlock: XIVTED_clean_linker_0, # of connection points: 2
#     Edge 11, Type (0, 1), BuildingBlock: XIVTED_clean_linker_0, # of connection points: 2
#     Edge 12, Type (0, 1), BuildingBlock: XIVTED_clean_linker_0, # of connection points: 2
#     Edge 13, Type (0, 1), BuildingBlock: XIVTED_clean_linker_0, # of connection points: 2
#     Edge 14, Type (0, 1), BuildingBlock: XIVTED_clean_linker_0, # of connection points: 2
#     Edge 15, Type (0, 1), BuildingBlock: XIVTED_clean_linker_0, # of connection points: 2
#     Edge 16, Type (0, 1), BuildingBlock: XIVTED_clean_linker_0, # of connection points: 2
#     Edge 17, Type (0, 1), BuildingBlock: XIVTED_clean_linker_0, # of connection points: 2
# Relax obj value: 0.120
# Max RMSD: 0.176
# Mean RMSD: 0.152
data_MOF--net-tsx--node1-FUNLAD_clean_sbu_0--node2-QEWDON_clean_linker_0--edge1-XIVTED_clean_linker_0
_symmetry_space_group_name_H-M    P1
_symmetry_Int_Tables_number       1
_symmetry_cell_setting            triclinic
loop_
_symmetry_equiv_pos_as_xyz
'x, y, z'
_cell_length_a     19.10113
_cell_length_b     22.778299
_cell_length_c     36.258016
_cell_angle_alpha  90.325145
_cell_angle_beta   104.36428
_cell_angle_gamma 89.103599
loop_
_atom_site_label
_atom_site_type_symbol
_atom_site_fract_x
_atom_site_fract_y
_atom_site_fract_z
_atom_type_partial_charge
C0 C 0.94758 0.89815 0.02982 0.0
N1 N 0.07103 0.98728 0.12897 0.0
C2 C 1.01351 0.98128 0.14447 0.0
C3 C 1.02159 0.98896 0.18368 0.0
C4 C 0.08927 0.00422 0.20731 0.0
C5 C 0.14755 0.00969 0.19026 0.0
C6 C 0.13747 0.00023 0.15124 0.0
Zn7 Zn 0.05867 0.98326 0.0708 0.0
C8 C 0.16331 0.8968 0.05132 0.0
N9 N 1.03946 0.98101 0.94981 0.0
C10 C 0.97423 0.99662 0.92672 0.0
C11 C 0.09827 0.97309 0.93537 0.0
C12 C 0.09314 0.9823 0.89661 0.0
C13 C 1.02717 0.0012 0.87229 0.0
C14 C 0.96706 0.00758 0.88805 0.0
Zn15 Zn 1.05071 0.97992 1.00808 0.0
O16 O 0.97639 0.91627 0.06353 0.0
C17 C 0.95298 0.07065 0.03207 0.0
O18 O 0.96955 0.91792 1.00207 0.0
H19 H 0.14993 0.96124 0.9541 0.0
H20 H 0.96094 0.9713 0.12636 0.0
H21 H 0.92791 0.00273 0.93852 0.0
O22 O 0.97881 0.04727 0.06422 0.0
O23 O 0.97276 0.05148 1.00308 0.0
H24 H 0.18282 0.00456 0.13865 0.0
O25 O 0.12928 0.04104 1.01313 0.0
O26 O 0.13889 0.05171 0.07429 0.0
O27 O 0.13287 0.91113 1.01698 0.0
O28 O 0.14074 0.91964 0.07829 0.0
C29 C 0.15733 0.06645 0.04421 0.0
H30 H 0.97504 0.98295 0.19516 0.0
H31 H 0.20055 0.02256 0.20652 0.0
H32 H 0.14087 0.9752 0.88609 0.0
H33 H 0.91514 0.02287 0.87119 0.0
C34 C 0.48044 0.38908 0.53041 0.0
N35 N 0.60193 0.47315 0.63194 0.0
C36 C 0.54403 0.46747 0.64718 0.0
C37 C 0.55165 0.47493 0.68641 0.0
C38 C 0.61926 0.4897 0.71039 0.0
C39 C 0.67812 0.49411 0.69365 0.0
C40 C 0.66845 0.48494 0.65458 0.0
Zn41 Zn 0.58984 0.47287 0.5735 0.0
C42 C 0.69777 0.39142 0.55105 0.0
N43 N 0.57296 0.48097 0.4524 0.0
C44 C 0.57507 0.43253 0.43051 0.0
C45 C 0.56583 0.53566 0.43673 0.0
C46 C 0.56062 0.54329 0.39791 0.0
C47 C 0.56311 0.49429 0.37457 0.0
C48 C 0.57038 0.43822 0.39143 0.0
Zn49 Zn 0.58342 0.47538 0.51067 0.0
O50 O 0.50919 0.40585 0.5644 0.0
C51 C 0.48215 0.56099 0.53629 0.0
O52 O 0.5028 0.41014 0.503 0.0
H53 H 0.56503 0.57385 0.45447 0.0
H54 H 0.49139 0.45843 0.62881 0.0
H55 H 0.58079 0.38942 0.44337 0.0
O56 O 0.50885 0.53683 0.56818 0.0
O57 O 0.50196 0.54313 0.50701 0.0
H58 H 0.71409 0.48916 0.6422 0.0
O59 O 0.66149 0.53961 0.51837 0.0
O60 O 0.6674 0.54221 0.57948 0.0
O61 O 0.66855 0.41033 0.51761 0.0
O62 O 0.67346 0.40895 0.57892 0.0
C63 C 0.68738 0.56162 0.55092 0.0
H64 H 0.50463 0.46957 0.69758 0.0
H65 H 0.73119 0.50642 0.71012 0.0
H66 H 0.55621 0.58739 0.38649 0.0
H67 H 0.57182 0.39905 0.37456 0.0
H68 H 0.1807 0.11683 0.51117 0.0
C69 C 0.19964 0.07263 0.51832 0.0
C70 C 0.19533 0.03107 0.48933 0.0
C71 C 0.23264 0.05842 0.55647 0.0
H72 H 0.22275 0.94349 0.47572 0.0
C73 C 0.22473 0.97514 0.49845 0.0
C74 C 0.26125 0.96069 0.53586 0.0
C75 C 0.26438 0.00221 0.56519 0.0
C76 C 0.2393 0.10539 0.58565 0.0
H77 H 0.29322 0.99169 0.59414 0.0
C78 C 0.17687 0.13376 0.59129 0.0
C79 C 0.18099 0.18811 0.61035 0.0
C80 C 0.30712 0.12883 0.60273 0.0
H81 H 0.35601 0.1081 0.59854 0.0
C82 C 0.31197 0.18128 0.62346 0.0
H83 H 0.12484 0.11489 0.57911 0.0
C84 C 0.2493 0.21159 0.62647 0.0
H85 H 0.25409 0.25351 0.64107 0.0
H86 H 0.36443 0.19976 0.6359 0.0
H87 H 0.98534 0.11229 0.56812 0.0
C88 C 0.96649 0.06785 0.56295 0.0
C89 C 0.95974 0.03339 0.59386 0.0
C90 C 0.94706 0.04519 0.52532 0.0
H91 H 0.92757 0.95076 0.61142 0.0
C92 C 0.93236 0.97703 0.5873 0.0
C93 C 0.90989 0.9543 0.55046 0.0
C94 C 0.91895 0.98778 0.51956 0.0
C95 C 0.95586 0.08131 0.49228 0.0
H96 H 0.90343 0.9692 0.4912 0.0
C97 C 1.01365 0.12044 0.49658 0.0
C98 C 1.0242 0.15406 0.46595 0.0
C99 C 0.90756 0.07665 0.45612 0.0
H100 H 0.86137 0.04816 0.45149 0.0
C101 C 0.91778 0.10946 0.42539 0.0
H102 H 0.05219 0.12352 0.5236 0.0
C103 C 0.97587 0.14774 0.43013 0.0
H104 H 0.9825 0.17278 0.40596 0.0
H105 H 0.88032 0.10526 0.39774 0.0
H106 H 0.69 0.62914 1.00922 0.0
C107 C 0.71081 0.58617 1.01885 0.0
C108 C 0.71443 0.54192 0.99226 0.0
C109 C 0.73471 0.57519 0.05825 0.0
H110 H 0.74742 0.4533 0.98459 0.0
C111 C 0.74347 0.48724 1.00518 0.0
C112 C 0.76981 0.47601 0.04407 0.0
C113 C 0.76486 0.51979 0.07088 0.0
C114 C 0.7277 0.62252 0.08545 0.0
H115 H 0.7849 0.51113 0.10105 0.0
C116 C 0.65902 0.63891 0.08967 0.0
C117 C 0.64733 0.69149 0.10833 0.0
C118 C 0.78731 0.65624 0.1032 0.0
H119 H 0.8408 0.64472 0.1001 0.0
C120 C 0.77762 0.7065 0.12384 0.0
H121 H 0.61474 0.61085 0.07733 0.0
C122 C 0.70825 0.72464 0.1259 0.0
H123 H 0.70254 0.76577 0.14001 0.0
H124 H 0.82379 0.73289 0.13702 0.0
H125 H 0.50078 0.584 0.07075 0.0
C126 C 0.49096 0.53861 0.06362 0.0
C127 C 0.49996 0.49751 0.09324 0.0
C128 C 0.4674 0.52101 1.02509 0.0
H129 H 0.48313 0.40887 0.10751 0.0
C130 C 0.48077 0.43932 0.08434 0.0
C131 C 0.45308 0.4212 0.04663 0.0
C132 C 0.44804 0.46201 1.01702 0.0
C133 C 0.46074 0.56414 0.99333 0.0
H134 H 0.42844 0.44795 0.98771 0.0
C135 C 0.51656 0.60363 0.99307 0.0
C136 C 0.50945 0.64635 0.96435 0.0
C137 C 0.39861 0.56601 0.96287 0.0
H138 H 0.35448 0.53632 0.96198 0.0
C139 C 0.39232 0.60695 0.93349 0.0
H140 H 0.56572 0.6012 1.01529 0.0
C141 C 0.44727 0.6472 0.93426 0.0
H142 H 0.44083 0.67943 0.91177 0.0
H143 H 0.34409 0.60804 0.9103 0.0
H144 H 0.16118 0.1324 0.98314 0.0
H145 H 0.50471 0.3176 0.08288 0.0
H146 H 0.26511 0.11147 0.10258 0.0
H147 H 0.32877 0.38909 0.99502 0.0
H148 H 0.43635 0.22738 0.08202 0.0
H149 H 0.24125 0.21312 0.97982 0.0
C150 C 0.20127 0.14458 1.00871 0.0
C151 C 0.20653 0.11528 0.04331 0.0
C152 C 0.41342 0.26273 0.06271 0.0
C153 C 0.29881 0.20729 0.0393 0.0
C154 C 0.45221 0.31414 0.06304 0.0
C155 C 0.42174 0.3617 0.03956 0.0
C156 C 0.34464 0.25828 0.03803 0.0
C157 C 0.35461 0.35383 1.0136 0.0
C158 C 0.24674 0.19072 1.00669 0.0
C159 C 0.25912 0.13324 0.07548 0.0
N160 N 0.31807 0.30323 1.01372 0.0
N161 N 0.30376 0.17819 0.07269 0.0
H162 H 0.2237 0.82939 1.00352 0.0
H163 H 0.59443 0.76527 0.15784 0.0
H164 H 0.25487 0.87965 0.12143 0.0
H165 H 0.52605 0.67272 0.05155 0.0
H166 H 0.47361 0.8111 0.14576 0.0
H167 H 0.33851 0.77451 1.02065 0.0
C168 C 0.25425 0.82847 0.033 0.0
C169 C 0.22932 0.859 0.061 0.0
C170 C 0.48531 0.77998 0.12533 0.0
C171 C 0.36144 0.7972 0.08082 0.0
C172 C 0.55456 0.75396 0.13206 0.0
C173 C 0.57187 0.71471 0.10534 0.0
C174 C 0.43319 0.76709 0.09149 0.0
C175 C 0.51632 0.7013 0.07323 0.0
C176 C 0.31982 0.79717 0.04283 0.0
C177 C 0.27164 0.85649 0.09884 0.0
N178 N 0.45043 0.72766 0.06693 0.0
N179 N 0.33584 0.82668 0.10757 0.0
H180 H 0.85455 0.8715 0.07442 0.0
H181 H 0.61033 0.65534 0.92216 0.0
H182 H 0.89812 0.83355 0.96542 0.0
H183 H 0.53348 0.74374 1.00955 0.0
H184 H 0.72037 0.71464 0.93875 0.0
H185 H 0.74381 0.81362 0.05534 0.0
C186 C 0.84135 0.85048 0.04673 0.0
C187 C 0.88549 0.85766 1.02144 0.0
C188 C 0.67978 0.72054 0.95471 0.0
C189 C 0.75874 0.79221 0.99923 0.0
C190 C 0.61724 0.68662 0.94526 0.0
C191 C 0.56636 0.6909 0.96714 0.0
C192 C 0.69056 0.75922 0.986 0.0
C193 C 0.57523 0.73482 0.99501 0.0
C194 C 0.77782 0.81803 0.03567 0.0
C195 C 0.86547 0.8296 0.98576 0.0
N196 N 0.63683 0.76647 1.00429 0.0
N197 N 0.8037 0.79821 0.97574 0.0
H198 H 0.86396 0.10316 0.07714 0.0
H199 H 0.89776 0.44009 0.03296 0.0
H200 H 0.95294 0.16525 0.98643 0.0
H201 H 0.71822 0.3811 0.07444 0.0
H202 H 0.9368 0.33803 0.02887 0.0
H203 H 0.82088 0.20326 0.08561 0.0
C204 C 0.87287 0.13765 0.05843 0.0
C205 C 0.91166 0.12604 0.03088 0.0
C206 C 0.88959 0.3474 0.03952 0.0
C207 C 0.86557 0.24031 0.04159 0.0
C208 C 0.86824 0.4055 0.04257 0.0
C209 C 0.80539 0.41862 0.0545 0.0
C210 C 0.84797 0.30212 0.04863 0.0
C211 C 0.76772 0.37246 0.06576 0.0
C212 C 0.84883 0.19463 0.06351 0.0
C213 C 0.92252 0.17222 1.00766 0.0
N214 N 0.7894 0.31584 0.06236 0.0
N215 N 0.90067 0.2276 1.01399 0.0
H216 H 0.71578 0.64327 0.60804 0.0
H217 H 0.93568 0.8598 0.50737 0.0
H218 H 0.76015 0.60013 0.49988 0.0
H219 H 0.80585 0.91621 0.5833 0.0
H220 H 0.88872 0.75981 0.50864 0.0
H221 H 0.7724 0.73847 0.60644 0.0
C222 C 0.73866 0.65336 0.58434 0.0
C223 C 0.73276 0.61406 0.55392 0.0
C224 C 0.87059 0.79438 0.52486 0.0
C225 C 0.79669 0.72285 0.55168 0.0
C226 C 0.89674 0.85133 0.52384 0.0
C227 C 0.87533 0.89601 0.54567 0.0
C228 C 0.82363 0.78247 0.54815 0.0
C229 C 0.82501 0.88273 0.5667 0.0
C230 C 0.77024 0.70787 0.58322 0.0
C231 C 0.76309 0.62951 0.52378 0.0
N232 N 0.80158 0.82714 0.56777 0.0
N233 N 0.79355 0.68292 0.5233 0.0
H234 H 0.74499 0.31082 0.60773 0.0
H235 H 0.14933 0.30142 0.58642 0.0
H236 H 0.80609 0.39342 0.51387 0.0
H237 H 0.05991 0.15371 0.63115 0.0
H238 H 1.02961 0.34951 0.57148 0.0
H239 H 0.86473 0.26297 0.6261 0.0
C240 C 0.7833 0.31828 0.59072 0.0
C241 C 0.76533 0.35565 0.55897 0.0
C242 C 1.03636 0.30668 0.58483 0.0
C243 C 0.90309 0.30315 0.58081 0.0
C244 C 0.10475 0.27962 0.59386 0.0
C245 C 0.11372 0.22268 0.60909 0.0
C246 C 0.97723 0.27747 0.5924 0.0
C247 C 0.0543 0.19668 0.61835 0.0
C248 C 0.85158 0.29124 0.60133 0.0
C249 C 0.81732 0.36428 0.53819 0.0
N250 N 0.9884 0.22406 0.60977 0.0
N251 N 0.88419 0.33889 0.54977 0.0
H252 H 0.39883 0.35288 0.57866 0.0
H253 H 0.11699 0.17148 0.41956 0.0
H254 H 0.41568 0.33682 0.46249 0.0
H255 H 0.07523 0.22693 0.52575 0.0
H256 H 0.23049 0.22582 0.43555 0.0
H257 H 0.28646 0.29735 0.56177 0.0
C258 C 0.37945 0.33717 0.54972 0.0
C259 C 0.41686 0.3498 0.52196 0.0
C260 C 0.19633 0.22638 0.45534 0.0
C261 C 0.28761 0.28669 0.50229 0.0
C262 C 0.13118 0.1958 0.44605 0.0
C263 C 0.08719 0.19397 0.47184 0.0
C264 C 0.21754 0.25549 0.49061 0.0
C265 C 0.10862 0.22621 0.50573 0.0
C266 C 0.31492 0.30586 0.54001 0.0
C267 C 0.38869 0.3284 0.48484 0.0
N268 N 0.1724 0.25507 0.51436 0.0
N269 N 0.32586 0.29806 0.4761 0.0
H270 H 0.41469 0.60177 0.59001 0.0
H271 H 0.36104 0.92173 0.49994 0.0
H272 H 0.45194 0.64485 0.48072 0.0
H273 H 0.24959 0.87019 0.58417 0.0
H274 H 0.40896 0.8221 0.49938 0.0
H275 H 0.36209 0.70001 0.59298 0.0
C276 C 0.4107 0.63151 0.56634 0.0
C277 C 0.43793 0.61512 0.53506 0.0
C278 C 0.37433 0.8324 0.51816 0.0
C279 C 0.37967 0.72776 0.53888 0.0
C280 C 0.34756 0.88936 0.51877 0.0
C281 C 0.30094 0.90387 0.54194 0.0
C282 C 0.35492 0.78937 0.54112 0.0
C283 C 0.28558 0.86059 0.56602 0.0
C284 C 0.38098 0.68758 0.5682 0.0
C285 C 0.43147 0.65542 0.50529 0.0
N286 N 0.31228 0.80489 0.56486 0.0
N287 N 0.40386 0.71008 0.50818 0.0
H288 H 0.98955 0.04539 0.24606 0.0
H289 H 0.27763 0.07335 0.44533 0.0
H290 H 0.21245 0.98737 0.26535 0.0
H291 H 0.06087 0.01908 0.44117 0.0
H292 H 0.24785 0.07413 0.37552 0.0
H293 H 1.00929 0.06238 0.31465 0.0
C294 C 1.04248 0.03593 0.26434 0.0
C295 C 0.0994 0.01489 0.24919 0.0
C296 C 0.20635 0.06331 0.38989 0.0
C297 C 0.12251 0.03706 0.32761 0.0
C298 C 0.22305 0.06349 0.42956 0.0
C299 C 0.1713 0.04672 0.44869 0.0
C300 C 0.1373 0.04648 0.36926 0.0
C301 C 0.10174 0.03297 0.42719 0.0
C302 C 0.05362 0.04631 0.30349 0.0
C303 C 0.16707 0.00504 0.27486 0.0
N304 N 0.08661 0.03295 0.38842 0.0
N305 N 0.17672 0.0166 0.31256 0.0
H306 H 0.13268 0.04223 0.83864 0.0
H307 H 0.86605 0.07764 0.63215 0.0
H308 H 0.90776 0.9932 0.81101 0.0
H309 H 0.0899 0.02922 0.64627 0.0
H310 H 0.88476 0.07858 0.70159 0.0
H311 H 0.12095 0.06377 0.77135 0.0
C312 C 0.0809 0.03562 0.81876 0.0
C313 C 1.02122 0.01533 0.83118 0.0
C314 C 0.93025 0.06932 0.68951 0.0
C315 C 1.0072 0.04287 0.75409 0.0
C316 C 0.91987 0.06972 0.65002 0.0
C317 C 0.97685 0.05434 0.63368 0.0
C318 C 0.99817 0.05355 0.71282 0.0
C319 C 1.04507 0.04232 0.65795 0.0
C320 C 0.07429 0.04868 0.78033 0.0
C321 C 0.95522 0.00968 0.80358 0.0
N322 N 0.05387 0.04186 0.69642 0.0
N323 N 0.95004 0.02354 0.76657 0.0
H324 H 0.51822 0.53246 0.74782 0.0
H325 H 0.80003 0.57695 0.94751 0.0
H326 H 0.74166 0.47498 0.76959 0.0
H327 H 0.58325 0.52235 0.943 0.0
H328 H 0.77398 0.56865 0.87785 0.0
H329 H 0.53636 0.5531 0.81583 0.0
C330 C 0.57094 0.52373 0.76652 0.0
C331 C 0.62845 0.50181 0.75216 0.0
C332 C 0.73168 0.5597 0.89206 0.0
C333 C 0.64978 0.52825 0.83009 0.0
C334 C 0.74623 0.56511 0.93161 0.0
C335 C 0.69321 0.55144 0.95069 0.0
C336 C 0.66347 0.54082 0.87145 0.0
C337 C 0.62493 0.53438 0.92907 0.0
C338 C 0.58118 0.5362 0.80538 0.0
C339 C 0.6958 0.49317 0.77843 0.0
N340 N 0.61183 0.52963 0.89046 0.0
N341 N 0.70461 0.50683 0.81584 0.0
H342 H 0.47755 0.57143 0.32382 0.0
H343 H 0.61448 0.45126 0.14534 0.0
H344 H 0.63978 0.43523 0.3306 0.0
H345 H 0.4394 0.57663 0.13439 0.0
H346 H 0.63632 0.45674 0.21458 0.0
H347 H 0.47228 0.58339 0.25611 0.0
C348 C 0.51247 0.54426 0.31121 0.0
C349 C 0.559 0.50198 0.33314 0.0
C350 C 0.59379 0.48384 0.19722 0.0
C351 C 0.55306 0.51557 0.25529 0.0
C352 C 0.58181 0.48114 0.15769 0.0
C353 C 0.52495 0.51342 0.13418 0.0
C354 C 0.54819 0.51876 0.2136 0.0
C355 C 0.48399 0.55125 0.15155 0.0
C356 C 0.50924 0.55107 0.27245 0.0
C357 C 0.60224 0.4677 0.31489 0.0
N358 N 0.49573 0.55228 0.19025 0.0
N359 N 0.59813 0.47521 0.27718 0.0
loop_
_geom_bond_atom_site_label_1
_geom_bond_atom_site_label_2
_geom_bond_distance
_geom_bond_site_symmetry_2
_ccdc_geom_bond_type
C0 O16 1.251 . S
C0 O18 1.254 1_554 S
N1 C2 1.333 1_545 S
N1 C6 1.307 . S
N1 Zn7 2.020 . S
C2 N1 1.333 1_565 S
C2 C3 1.379 . S
C2 H20 0.952 1_455 S
C3 C2 1.379 . S
C3 C4 1.390 1_565 S
C3 H30 0.949 1_455 S
C4 C3 1.390 1_545 S
C4 C5 1.357 . S
C5 C4 1.357 . S
C5 C6 1.370 . S
C5 H31 0.950 . S
C6 N1 1.307 . S
C6 C5 1.370 . S
C6 H24 0.948 . S
Zn7 N1 2.020 . S
Zn7 O16 2.039 1_445 S
Zn7 O22 2.034 1_455 S
Zn7 O26 2.025 . S
Zn7 O28 2.024 1_545 S
C8 O27 1.246 1_554 S
C8 O28 1.249 . S
N9 C10 1.307 1_445 S
N9 C11 1.333 . S
N9 Zn15 2.020 . S
C10 N9 1.307 1_665 S
C10 C14 1.370 . S
C10 H21 0.948 . S
C11 N9 1.333 . S
C11 C12 1.379 . S
C11 H19 0.952 . S
C12 C11 1.379 . S
C12 C13 1.390 1_455 S
C12 H32 0.949 . S
C13 C12 1.390 1_655 S
C13 C14 1.357 1_545 S
C14 C10 1.370 . S
C14 C13 1.357 1_565 S
C14 H33 0.950 . S
Zn15 N9 2.020 . S
Zn15 O18 2.025 1_445 S
Zn15 O23 2.024 1_455 S
Zn15 O25 2.039 . S
Zn15 O27 2.034 1_545 S
O16 C0 1.251 . S
O16 Zn7 2.039 1_665 S
C17 O22 1.246 . S
C17 O23 1.249 1_554 S
O18 C0 1.254 1_556 S
O18 Zn15 2.025 1_665 S
H19 C11 0.952 . S
H20 C2 0.952 1_655 S
H21 C10 0.948 . S
O22 Zn7 2.034 1_655 S
O22 C17 1.246 . S
O23 Zn15 2.024 1_655 S
O23 C17 1.249 1_556 S
H24 C6 0.948 . S
O25 Zn15 2.039 . S
O25 C29 1.251 1_556 S
O26 Zn7 2.025 . S
O26 C29 1.254 . S
O27 C8 1.246 1_556 S
O27 Zn15 2.034 1_565 S
O28 Zn7 2.024 1_565 S
O28 C8 1.249 . S
C29 O25 1.251 1_554 S
C29 O26 1.254 . S
H30 C3 0.949 1_655 S
H31 C5 0.950 . S
H32 C12 0.949 . S
H33 C14 0.950 . S
C34 O50 1.251 . S
C34 O52 1.254 . S
N35 C36 1.333 . S
N35 C40 1.307 . S
N35 Zn41 2.020 . S
C36 N35 1.333 . S
C36 C37 1.379 . S
C36 H54 0.952 . S
C37 C36 1.379 . S
C37 C38 1.390 . S
C37 H64 0.949 . S
C38 C37 1.390 . S
C38 C39 1.357 . S
C39 C38 1.357 . S
C39 C40 1.370 . S
C39 H65 0.950 . S
C40 N35 1.307 . S
C40 C39 1.370 . S
C40 H58 0.948 . S
Zn41 N35 2.020 . S
Zn41 O50 2.039 . S
Zn41 O56 2.034 . S
Zn41 O60 2.025 . S
Zn41 O62 2.024 . S
C42 O61 1.246 . S
C42 O62 1.249 . S
N43 C44 1.307 . S
N43 C45 1.333 . S
N43 Zn49 2.020 . S
C44 N43 1.307 . S
C44 C48 1.370 . S
C44 H55 0.948 . S
C45 N43 1.333 . S
C45 C46 1.379 . S
C45 H53 0.952 . S
C46 C45 1.379 . S
C46 C47 1.390 . S
C46 H66 0.949 . S
C47 C46 1.390 . S
C47 C48 1.357 . S
C48 C44 1.370 . S
C48 C47 1.357 . S
C48 H67 0.950 . S
Zn49 N43 2.020 . S
Zn49 O52 2.025 . S
Zn49 O57 2.024 . S
Zn49 O59 2.039 . S
Zn49 O61 2.034 . S
O50 C34 1.251 . S
O50 Zn41 2.039 . S
C51 O56 1.246 . S
C51 O57 1.249 . S
O52 C34 1.254 . S
O52 Zn49 2.025 . S
H53 C45 0.952 . S
H54 C36 0.952 . S
H55 C44 0.948 . S
O56 Zn41 2.034 . S
O56 C51 1.246 . S
O57 Zn49 2.024 . S
O57 C51 1.249 . S
H58 C40 0.948 . S
O59 Zn49 2.039 . S
O59 C63 1.251 . S
O60 Zn41 2.025 . S
O60 C63 1.254 . S
O61 C42 1.246 . S
O61 Zn49 2.034 . S
O62 Zn41 2.024 . S
O62 C42 1.249 . S
C63 O59 1.251 . S
C63 O60 1.254 . S
H64 C37 0.949 . S
H65 C39 0.950 . S
H66 C46 0.949 . S
H67 C48 0.950 . S
H68 C69 0.949 . S
C69 H68 0.949 . S
C69 C70 1.395 . S
C69 C71 1.391 . S
C70 C69 1.395 . S
C70 C73 1.390 1_545 S
C71 C69 1.391 . S
C71 C75 1.387 1_545 S
C71 C76 1.491 . S
H72 C73 0.950 . S
C73 C70 1.390 1_565 S
C73 H72 0.950 . S
C73 C74 1.378 . S
C74 C73 1.378 . S
C74 C75 1.409 . S
C75 C71 1.387 1_565 S
C75 C74 1.409 . S
C75 H77 0.951 . S
C76 C71 1.491 . S
C76 C78 1.382 1_455 S
C76 C80 1.404 . S
H77 C75 0.951 . S
C78 C76 1.382 1_655 S
C78 C79 1.390 . S
C78 H83 0.949 . S
C79 C78 1.390 . S
C79 C84 1.399 1_655 S
C80 C76 1.404 . S
C80 H81 0.950 . S
C80 C82 1.375 . S
H81 C80 0.950 . S
C82 C80 1.375 . S
C82 C84 1.382 . S
C82 H86 0.950 . S
H83 C78 0.949 . S
C84 C79 1.399 1_455 S
C84 C82 1.382 . S
C84 H85 0.952 . S
H85 C84 0.952 . S
H86 C82 0.950 . S
H87 C88 0.944 1_455 S
C88 H87 0.944 1_655 S
C88 C89 1.400 . S
C88 C90 1.391 . S
C89 C88 1.400 . S
C89 C92 1.390 1_545 S
C90 C88 1.391 . S
C90 C94 1.387 1_545 S
C90 C95 1.491 1_655 S
H91 C92 0.950 . S
C92 C89 1.390 1_565 S
C92 H91 0.950 . S
C92 C93 1.378 . S
C93 C92 1.378 . S
C93 C94 1.409 . S
C94 C90 1.387 1_565 S
C94 C93 1.409 . S
C94 H96 0.951 . S
C95 C90 1.491 1_455 S
C95 C97 1.382 . S
C95 C99 1.404 1_455 S
H96 C94 0.951 . S
C97 C95 1.382 . S
C97 C98 1.390 . S
C97 H102 0.949 . S
C98 C97 1.390 . S
C98 C103 1.399 . S
C99 C95 1.404 1_655 S
C99 H100 0.950 . S
C99 C101 1.375 . S
H100 C99 0.950 . S
C101 C99 1.375 . S
C101 C103 1.382 1_655 S
C101 H105 0.950 . S
H102 C97 0.949 . S
C103 C98 1.399 . S
C103 C101 1.382 1_455 S
C103 H104 0.952 . S
H104 C103 0.952 . S
H105 C101 0.950 . S
H106 C107 0.949 . S
C107 H106 0.949 . S
C107 C108 1.395 . S
C107 C109 1.391 . S
C108 C107 1.395 . S
C108 C111 1.390 . S
C109 C107 1.391 . S
C109 C113 1.387 1_556 S
C109 C114 1.491 1_556 S
H110 C111 0.950 . S
C111 C108 1.390 . S
C111 H110 0.950 . S
C111 C112 1.378 . S
C112 C111 1.378 . S
C112 C113 1.409 1_556 S
C113 C109 1.387 1_554 S
C113 C112 1.409 1_554 S
C113 H115 0.951 . S
C114 C109 1.491 1_554 S
C114 C116 1.382 . S
C114 C118 1.404 . S
H115 C113 0.951 . S
C116 C114 1.382 . S
C116 C117 1.390 . S
C116 H121 0.949 1_554 S
C117 C116 1.390 . S
C117 C122 1.399 . S
C118 C114 1.404 . S
C118 H119 0.950 . S
C118 C120 1.375 . S
H119 C118 0.950 . S
C120 C118 1.375 . S
C120 C122 1.382 . S
C120 H124 0.950 . S
H121 C116 0.949 1_556 S
C122 C117 1.399 . S
C122 C120 1.382 . S
C122 H123 0.952 . S
H123 C122 0.952 . S
H124 C120 0.950 . S
H125 C126 0.949 . S
C126 H125 0.949 . S
C126 C127 1.395 . S
C126 C128 1.391 . S
C127 C126 1.395 . S
C127 C130 1.390 . S
C128 C126 1.391 . S
C128 C132 1.387 . S
C128 C133 1.491 . S
H129 C130 0.950 . S
C130 C127 1.390 . S
C130 H129 0.950 . S
C130 C131 1.378 . S
C131 C130 1.378 . S
C131 C132 1.409 . S
C132 C128 1.387 . S
C132 C131 1.409 . S
C132 H134 0.951 1_554 S
C133 C128 1.491 . S
C133 C135 1.382 . S
C133 C137 1.404 1_554 S
H134 C132 0.951 1_556 S
C135 C133 1.382 . S
C135 C136 1.390 1_554 S
C135 H140 0.949 . S
C136 C135 1.390 1_556 S
C136 C141 1.399 . S
C137 C133 1.404 1_556 S
C137 H138 0.950 . S
C137 C139 1.375 . S
H138 C137 0.950 . S
C139 C137 1.375 . S
C139 C141 1.382 . S
C139 H143 0.950 . S
H140 C135 0.949 . S
C141 C136 1.399 . S
C141 C139 1.382 . S
C141 H142 0.952 . S
H142 C141 0.952 . S
H143 C139 0.950 . S
H144 C150 0.930 . S
H145 C154 0.930 . S
H146 C159 0.929 . S
H147 C157 0.950 . S
H148 C152 0.929 . S
H149 C158 0.929 . S
C150 H144 0.930 . S
C150 C151 1.367 1_556 S
C150 C158 1.378 . S
C151 C150 1.367 1_554 S
C151 C159 1.433 . S
C152 H148 0.929 . S
C152 C154 1.378 . S
C152 C156 1.350 . S
C153 C156 1.463 . S
C153 C158 1.350 1_554 S
C153 N161 1.427 . S
C154 H145 0.930 . S
C154 C152 1.378 . S
C154 C155 1.367 . S
C155 C154 1.367 . S
C155 C157 1.418 1_554 S
C156 C152 1.350 . S
C156 C153 1.463 . S
C156 N160 1.427 1_554 S
C157 H147 0.950 . S
C157 C155 1.418 1_556 S
C157 N160 1.379 . S
C158 H149 0.929 . S
C158 C150 1.378 . S
C158 C153 1.350 1_556 S
C159 H146 0.929 . S
C159 C151 1.433 . S
C159 N161 1.384 . S
N160 C156 1.427 1_556 S
N160 C157 1.379 . S
N161 C153 1.427 . S
N161 C159 1.384 . S
H162 C168 0.930 . S
H163 C172 0.930 . S
H164 C177 0.929 . S
H165 C175 0.929 . S
H166 C170 0.929 . S
H167 C176 0.929 . S
C168 H162 0.930 . S
C168 C169 1.367 1_556 S
C168 C176 1.378 . S
C169 C168 1.367 1_554 S
C169 C177 1.433 . S
C170 H166 0.929 . S
C170 C172 1.378 . S
C170 C174 1.350 . S
C171 C174 1.463 . S
C171 C176 1.350 1_554 S
C171 N179 1.427 . S
C172 H163 0.930 . S
C172 C170 1.378 . S
C172 C173 1.367 . S
C173 C172 1.367 . S
C173 C175 1.433 1_554 S
C174 C170 1.350 . S
C174 C171 1.463 . S
C174 N178 1.427 1_554 S
C175 H165 0.929 . S
C175 C173 1.433 1_556 S
C175 N178 1.384 . S
C176 H167 0.929 . S
C176 C168 1.378 . S
C176 C171 1.350 1_556 S
C177 H164 0.929 . S
C177 C169 1.433 . S
C177 N179 1.384 . S
N178 C174 1.427 1_556 S
N178 C175 1.384 . S
N179 C171 1.427 . S
N179 C177 1.384 . S
H180 C186 0.930 . S
H181 C190 0.930 . S
H182 C195 0.929 . S
H183 C193 0.929 . S
H184 C188 0.929 . S
H185 C194 0.929 . S
C186 H180 0.930 . S
C186 C187 1.367 . S
C186 C194 1.378 . S
C187 C186 1.367 . S
C187 C195 1.433 1_554 S
C188 H184 0.929 . S
C188 C190 1.378 . S
C188 C192 1.350 1_556 S
C189 C192 1.463 . S
C189 C194 1.350 . S
C189 N197 1.427 1_554 S
C190 H181 0.930 . S
C190 C188 1.378 . S
C190 C191 1.367 1_556 S
C191 C190 1.367 1_554 S
C191 C193 1.433 . S
C192 C188 1.350 1_554 S
C192 C189 1.463 . S
C192 N196 1.427 . S
C193 H183 0.929 . S
C193 C191 1.433 . S
C193 N196 1.384 . S
C194 H185 0.929 . S
C194 C186 1.378 . S
C194 C189 1.350 . S
C195 H182 0.929 . S
C195 C187 1.433 1_556 S
C195 N197 1.384 . S
N196 C192 1.427 . S
N196 C193 1.384 . S
N197 C189 1.427 1_556 S
N197 C195 1.384 . S
H198 C204 0.930 . S
H199 C208 0.930 . S
H200 C213 0.929 . S
H201 C211 0.929 . S
H202 C206 0.929 . S
H203 C212 0.929 . S
C204 H198 0.930 . S
C204 C205 1.367 . S
C204 C212 1.378 . S
C205 C204 1.367 . S
C205 C213 1.433 1_554 S
C206 H202 0.929 . S
C206 C208 1.378 . S
C206 C210 1.358 . S
C207 C210 1.464 1_554 S
C207 C212 1.350 . S
C207 N215 1.427 1_554 S
C208 H199 0.930 . S
C208 C206 1.378 . S
C208 C209 1.367 . S
C209 C208 1.367 . S
C209 C211 1.433 1_556 S
C210 C206 1.358 . S
C210 C207 1.464 1_556 S
C210 N214 1.418 1_556 S
C211 H201 0.929 . S
C211 C209 1.433 1_554 S
C211 N214 1.384 . S
C212 H203 0.929 . S
C212 C204 1.378 . S
C212 C207 1.350 . S
C213 H200 0.929 . S
C213 C205 1.433 1_556 S
C213 N215 1.384 . S
N214 C210 1.418 1_554 S
N214 C211 1.384 . S
N215 C207 1.427 1_556 S
N215 C213 1.384 . S
H216 C222 0.930 . S
H217 C226 0.930 . S
H218 C231 0.929 . S
H219 C229 0.929 . S
H220 C224 0.929 . S
H221 C230 0.929 . S
C222 H216 0.930 . S
C222 C223 1.367 . S
C222 C230 1.378 . S
C223 C222 1.367 . S
C223 C231 1.433 . S
C224 H220 0.929 . S
C224 C226 1.378 . S
C224 C228 1.350 . S
C225 C228 1.463 . S
C225 C230 1.350 . S
C225 N233 1.427 . S
C226 H217 0.930 . S
C226 C224 1.378 . S
C226 C227 1.367 . S
C227 C226 1.367 . S
C227 C229 1.433 . S
C228 C224 1.350 . S
C228 C225 1.463 . S
C228 N232 1.427 . S
C229 H219 0.929 . S
C229 C227 1.433 . S
C229 N232 1.384 . S
C230 H221 0.929 . S
C230 C222 1.378 . S
C230 C225 1.350 . S
C231 H218 0.929 . S
C231 C223 1.433 . S
C231 N233 1.384 . S
N232 C228 1.427 . S
N232 C229 1.384 . S
N233 C225 1.427 . S
N233 C231 1.384 . S
H234 C240 0.930 . S
H235 C244 0.930 . S
H236 C249 0.929 . S
H237 C247 0.929 . S
H238 C242 0.929 . S
H239 C248 0.929 . S
C240 H234 0.930 . S
C240 C241 1.367 . S
C240 C248 1.378 . S
C241 C240 1.367 . S
C241 C249 1.433 . S
C242 H238 0.929 . S
C242 C244 1.378 . S
C242 C246 1.350 . S
C243 C246 1.463 . S
C243 C248 1.350 . S
C243 N251 1.427 . S
C244 H235 0.930 . S
C244 C242 1.378 . S
C244 C245 1.367 . S
C245 C244 1.367 . S
C245 C247 1.433 . S
C246 C242 1.350 . S
C246 C243 1.463 . S
C246 N250 1.427 . S
C247 H237 0.929 . S
C247 C245 1.433 . S
C247 N250 1.384 . S
C248 H239 0.929 . S
C248 C240 1.378 . S
C248 C243 1.350 . S
C249 H236 0.929 . S
C249 C241 1.433 . S
C249 N251 1.384 . S
N250 C246 1.427 . S
N250 C247 1.384 . S
N251 C243 1.427 . S
N251 C249 1.384 . S
H252 C258 0.930 . S
H253 C262 0.930 . S
H254 C267 0.929 . S
H255 C265 0.929 . S
H256 C260 0.929 . S
H257 C266 0.929 . S
C258 H252 0.930 . S
C258 C259 1.367 . S
C258 C266 1.378 . S
C259 C258 1.367 . S
C259 C267 1.433 . S
C260 H256 0.929 . S
C260 C262 1.378 . S
C260 C264 1.350 . S
C261 C264 1.463 . S
C261 C266 1.350 . S
C261 N269 1.427 . S
C262 H253 0.930 . S
C262 C260 1.378 . S
C262 C263 1.367 . S
C263 C262 1.367 . S
C263 C265 1.433 . S
C264 C260 1.350 . S
C264 C261 1.463 . S
C264 N268 1.427 . S
C265 H255 0.929 . S
C265 C263 1.433 . S
C265 N268 1.384 . S
C266 H257 0.929 . S
C266 C258 1.378 . S
C266 C261 1.350 . S
C267 H254 0.929 . S
C267 C259 1.433 . S
C267 N269 1.384 . S
N268 C264 1.427 . S
N268 C265 1.384 . S
N269 C261 1.427 . S
N269 C267 1.384 . S
H270 C276 0.930 . S
H271 C280 0.930 . S
H272 C285 0.929 . S
H273 C283 0.929 . S
H274 C278 0.929 . S
H275 C284 0.929 . S
C276 H270 0.930 . S
C276 C277 1.367 . S
C276 C284 1.378 . S
C277 C276 1.367 . S
C277 C285 1.433 . S
C278 H274 0.929 . S
C278 C280 1.378 . S
C278 C282 1.350 . S
C279 C282 1.463 . S
C279 C284 1.350 . S
C279 N287 1.427 . S
C280 H271 0.930 . S
C280 C278 1.378 . S
C280 C281 1.367 . S
C281 C280 1.367 . S
C281 C283 1.433 . S
C282 C278 1.350 . S
C282 C279 1.463 . S
C282 N286 1.427 . S
C283 H273 0.929 . S
C283 C281 1.433 . S
C283 N286 1.384 . S
C284 H275 0.929 . S
C284 C276 1.378 . S
C284 C279 1.350 . S
C285 H272 0.929 . S
C285 C277 1.433 . S
C285 N287 1.384 . S
N286 C282 1.427 . S
N286 C283 1.384 . S
N287 C279 1.427 . S
N287 C285 1.384 . S
H288 C294 0.930 . S
H289 C298 0.930 . S
H290 C303 0.929 . S
H291 C301 0.929 . S
H292 C296 0.929 . S
H293 C302 0.929 . S
C294 H288 0.930 . S
C294 C295 1.367 . S
C294 C302 1.378 . S
C295 C294 1.367 . S
C295 C303 1.433 1_545 S
C296 H292 0.929 . S
C296 C298 1.378 . S
C296 C300 1.350 1_565 S
C297 C300 1.463 . S
C297 C302 1.350 . S
C297 N305 1.427 1_545 S
C298 H289 0.930 . S
C298 C296 1.378 . S
C298 C299 1.367 1_565 S
C299 C298 1.367 1_545 S
C299 C301 1.433 . S
C300 C296 1.350 1_545 S
C300 C297 1.463 . S
C300 N304 1.427 . S
C301 H291 0.929 . S
C301 C299 1.433 . S
C301 N304 1.384 . S
C302 H293 0.929 . S
C302 C294 1.378 . S
C302 C297 1.350 . S
C303 H290 0.929 . S
C303 C295 1.433 1_565 S
C303 N305 1.384 . S
N304 C300 1.427 . S
N304 C301 1.384 . S
N305 C297 1.427 1_565 S
N305 C303 1.384 . S
H306 C312 0.930 . S
H307 C316 0.930 . S
H308 C321 0.929 . S
H309 C319 0.929 . S
H310 C314 0.929 . S
H311 C320 0.929 . S
C312 H306 0.930 . S
C312 C313 1.367 1_455 S
C312 C320 1.378 . S
C313 C312 1.367 1_655 S
C313 C321 1.433 1_545 S
C314 H310 0.929 . S
C314 C316 1.378 . S
C314 C318 1.350 1_565 S
C315 C318 1.463 . S
C315 C320 1.350 1_655 S
C315 N323 1.427 1_545 S
C316 H307 0.930 . S
C316 C314 1.378 . S
C316 C317 1.367 1_565 S
C317 C316 1.367 1_545 S
C317 C319 1.433 1_655 S
C318 C314 1.350 1_545 S
C318 C315 1.463 . S
C318 N322 1.427 1_655 S
C319 H309 0.929 . S
C319 C317 1.433 1_455 S
C319 N322 1.384 . S
C320 H311 0.929 . S
C320 C312 1.378 . S
C320 C315 1.350 1_455 S
C321 H308 0.929 . S
C321 C313 1.433 1_565 S
C321 N323 1.384 . S
N322 C318 1.427 1_455 S
N322 C319 1.384 . S
N323 C315 1.427 1_565 S
N323 C321 1.384 . S
H324 C330 0.930 . S
H325 C334 0.930 . S
H326 C339 0.929 . S
H327 C337 0.929 . S
H328 C332 0.929 . S
H329 C338 0.929 . S
C330 H324 0.930 . S
C330 C331 1.367 . S
C330 C338 1.378 . S
C331 C330 1.367 . S
C331 C339 1.433 . S
C332 H328 0.929 . S
C332 C334 1.378 . S
C332 C336 1.350 . S
C333 C336 1.463 . S
C333 C338 1.350 . S
C333 N341 1.427 . S
C334 H325 0.930 . S
C334 C332 1.378 . S
C334 C335 1.367 . S
C335 C334 1.367 . S
C335 C337 1.433 . S
C336 C332 1.350 . S
C336 C333 1.463 . S
C336 N340 1.427 . S
C337 H327 0.929 . S
C337 C335 1.433 . S
C337 N340 1.384 . S
C338 H329 0.929 . S
C338 C330 1.378 . S
C338 C333 1.350 . S
C339 H326 0.929 . S
C339 C331 1.433 . S
C339 N341 1.384 . S
N340 C336 1.427 . S
N340 C337 1.384 . S
N341 C333 1.427 . S
N341 C339 1.384 . S
H342 C348 0.930 . S
H343 C352 0.930 . S
H344 C357 0.929 . S
H345 C355 0.929 . S
H346 C350 0.929 . S
H347 C356 0.929 . S
C348 H342 0.930 . S
C348 C349 1.367 . S
C348 C356 1.378 . S
C349 C348 1.367 . S
C349 C357 1.433 . S
C350 H346 0.929 . S
C350 C352 1.378 . S
C350 C354 1.350 . S
C351 C354 1.463 . S
C351 C356 1.350 . S
C351 N359 1.427 . S
C352 H343 0.930 . S
C352 C350 1.378 . S
C352 C353 1.367 . S
C353 C352 1.367 . S
C353 C355 1.433 . S
C354 C350 1.350 . S
C354 C351 1.463 . S
C354 N358 1.427 . S
C355 H345 0.929 . S
C355 C353 1.433 . S
C355 N358 1.384 . S
C356 H347 0.929 . S
C356 C348 1.378 . S
C356 C351 1.350 . S
C357 H344 0.929 . S
C357 C349 1.433 . S
C357 N359 1.384 . S
N358 C354 1.427 . S
N358 C355 1.384 . S
N359 C351 1.427 . S
N359 C357 1.384 . S
C155 C131 1.527 . S
C151 C29 1.561 . S
C169 C8 1.420 . S
C173 C117 1.385 . S
C187 C0 1.427 . S
C191 C136 1.391 1_554 S
C205 C17 1.566 . S
C209 C112 1.533 . S
C223 C63 1.562 . S
C227 C93 1.538 . S
C241 C42 1.423 . S
C245 C79 1.383 . S
C263 C98 1.388 . S
C259 C34 1.426 . S
C281 C74 1.531 . S
C277 C51 1.566 . S
C295 C4 1.553 . S
C299 C70 1.540 . S
C313 C13 1.544 . S
C317 C89 1.528 . S
C335 C108 1.540 . S
C331 C38 1.553 . S
C349 C47 1.544 . S
C353 C127 1.528 . S
