# Generated by pormake.
# Topology sqc, (4,8)-cn, num edge types: 1
# Building blocks:
#     Node 0, Type 0, BuildingBlock: MUDLON_clean_linker_0, # of connection points: 4
#     Node 1, Type 0, BuildingBlock: MUDLON_clean_linker_0, # of connection points: 4
#     Node 2, Type 0, BuildingBlock: MUDLON_clean_linker_0, # of connection points: 4
#     Node 3, Type 0, BuildingBlock: MUDLON_clean_linker_0, # of connection points: 4
#     Node 4, Type 0, BuildingBlock: MUDLON_clean_linker_0, # of connection points: 4
#     Node 5, Type 0, BuildingBlock: MUDLON_clean_linker_0, # of connection points: 4
#     Node 6, Type 0, BuildingBlock: MUDLON_clean_linker_0, # of connection points: 4
#     Node 7, Type 0, BuildingBlock: MUDLON_clean_linker_0, # of connection points: 4
#     Node 8, Type 1, BuildingBlock: VETTIZ_charged_sbu_0, # of connection points: 8
#     Node 9, Type 1, BuildingBlock: VETTIZ_charged_sbu_0, # of connection points: 8
#     Node 10, Type 1, BuildingBlock: VETTIZ_charged_sbu_0, # of connection points: 8
#     Node 11, Type 1, BuildingBlock: VETTIZ_charged_sbu_0, # of connection points: 8
#     Edge 12, Type (0, 1), BuildingBlock: ZUJKAS_clean_linker_0, # of connection points: 2
#     Edge 13, Type (0, 1), BuildingBlock: ZUJKAS_clean_linker_0, # of connection points: 2
#     Edge 14, Type (0, 1), BuildingBlock: ZUJKAS_clean_linker_0, # of connection points: 2
#     Edge 15, Type (0, 1), BuildingBlock: ZUJKAS_clean_linker_0, # of connection points: 2
#     Edge 16, Type (0, 1), BuildingBlock: ZUJKAS_clean_linker_0, # of connection points: 2
#     Edge 17, Type (0, 1), BuildingBlock: ZUJKAS_clean_linker_0, # of connection points: 2
#     Edge 18, Type (0, 1), BuildingBlock: ZUJKAS_clean_linker_0, # of connection points: 2
#     Edge 19, Type (0, 1), BuildingBlock: ZUJKAS_clean_linker_0, # of connection points: 2
#     Edge 20, Type (0, 1), BuildingBlock: ZUJKAS_clean_linker_0, # of connection points: 2
#     Edge 21, Type (0, 1), BuildingBlock: ZUJKAS_clean_linker_0, # of connection points: 2
#     Edge 22, Type (0, 1), BuildingBlock: ZUJKAS_clean_linker_0, # of connection points: 2
#     Edge 23, Type (0, 1), BuildingBlock: ZUJKAS_clean_linker_0, # of connection points: 2
#     Edge 24, Type (0, 1), BuildingBlock: ZUJKAS_clean_linker_0, # of connection points: 2
#     Edge 25, Type (0, 1), BuildingBlock: ZUJKAS_clean_linker_0, # of connection points: 2
#     Edge 26, Type (0, 1), BuildingBlock: ZUJKAS_clean_linker_0, # of connection points: 2
#     Edge 27, Type (0, 1), BuildingBlock: ZUJKAS_clean_linker_0, # of connection points: 2
#     Edge 28, Type (0, 1), BuildingBlock: ZUJKAS_clean_linker_0, # of connection points: 2
#     Edge 29, Type (0, 1), BuildingBlock: ZUJKAS_clean_linker_0, # of connection points: 2
#     Edge 30, Type (0, 1), BuildingBlock: ZUJKAS_clean_linker_0, # of connection points: 2
#     Edge 31, Type (0, 1), BuildingBlock: ZUJKAS_clean_linker_0, # of connection points: 2
#     Edge 32, Type (0, 1), BuildingBlock: ZUJKAS_clean_linker_0, # of connection points: 2
#     Edge 33, Type (0, 1), BuildingBlock: ZUJKAS_clean_linker_0, # of connection points: 2
#     Edge 34, Type (0, 1), BuildingBlock: ZUJKAS_clean_linker_0, # of connection points: 2
#     Edge 35, Type (0, 1), BuildingBlock: ZUJKAS_clean_linker_0, # of connection points: 2
#     Edge 36, Type (0, 1), BuildingBlock: ZUJKAS_clean_linker_0, # of connection points: 2
#     Edge 37, Type (0, 1), BuildingBlock: ZUJKAS_clean_linker_0, # of connection points: 2
#     Edge 38, Type (0, 1), BuildingBlock: ZUJKAS_clean_linker_0, # of connection points: 2
#     Edge 39, Type (0, 1), BuildingBlock: ZUJKAS_clean_linker_0, # of connection points: 2
#     Edge 40, Type (0, 1), BuildingBlock: ZUJKAS_clean_linker_0, # of connection points: 2
#     Edge 41, Type (0, 1), BuildingBlock: ZUJKAS_clean_linker_0, # of connection points: 2
#     Edge 42, Type (0, 1), BuildingBlock: ZUJKAS_clean_linker_0, # of connection points: 2
#     Edge 43, Type (0, 1), BuildingBlock: ZUJKAS_clean_linker_0, # of connection points: 2
# Relax obj value: 0.164
# Max RMSD: 0.284
# Mean RMSD: 0.211
data_MOF--net-sqc--node1-VETTIZ_charged_sbu_0--node2-MUDLON_clean_linker_0--edge1-ZUJKAS_clean_linker_0
_symmetry_space_group_name_H-M    P1
_symmetry_Int_Tables_number       1
_symmetry_cell_setting            triclinic
loop_
_symmetry_equiv_pos_as_xyz
'x, y, z'
_cell_length_a     38.866181
_cell_length_b     38.895815
_cell_length_c     106.16087
_cell_angle_alpha  90.04028
_cell_angle_beta   90.07386
_cell_angle_gamma 89.999148
loop_
_atom_site_label
_atom_site_type_symbol
_atom_site_fract_x
_atom_site_fract_y
_atom_site_fract_z
_atom_type_partial_charge
H0 H 0.83966 0.9977 0.53028 0.0
N1 N 0.87219 0.04322 0.51453 0.0
H2 H 0.79982 0.01232 0.5471 0.0
H3 H 0.86208 0.10501 0.52461 0.0
H4 H 0.82437 0.11999 0.54215 0.0
H5 H 0.82869 0.06467 0.49695 0.0
H6 H 0.79275 0.0296 0.48308 0.0
H7 H 0.87524 0.97315 0.51214 0.0
H8 H 0.83987 0.93768 0.49811 0.0
H9 H 0.90894 1.00245 0.53072 0.0
H10 H 0.91839 0.07519 0.50038 0.0
H11 H 0.9717 0.99804 0.53202 0.0
H12 H 0.98104 0.07013 0.50122 0.0
H13 H 0.15241 1.00178 0.54077 0.0
H14 H 0.19457 0.03193 0.55395 0.0
H15 H 0.19557 0.11609 0.52744 0.0
H16 H 0.15358 0.08592 0.51439 0.0
H17 H 0.13239 0.0575 0.49626 0.0
H18 H 0.1684 0.04449 0.4779 0.0
H19 H 0.20077 0.94983 0.49555 0.0
H20 H 0.16531 0.96341 0.51394 0.0
H21 H 0.08339 0.97141 0.52206 0.0
H22 H 0.02066 0.9762 0.52136 0.0
H23 H 0.03022 0.0847 0.51324 0.0
N24 N 0.12967 0.02034 0.51816 0.0
H25 H 0.09279 0.07918 0.51351 0.0
C26 C 0.85334 0.05044 0.52596 0.0
C27 C 0.83652 0.02445 0.53281 0.0
C28 C 0.81383 0.03292 0.54257 0.0
C29 C 0.80806 0.06752 0.54593 0.0
C30 C 0.82699 0.09316 0.53961 0.0
C31 C 0.84905 0.08469 0.52968 0.0
C32 C 0.85466 0.02165 0.50551 0.0
C33 C 0.8316 0.03697 0.49708 0.0
C34 C 0.81119 0.01684 0.48913 0.0
C35 C 0.81336 0.98074 0.48946 0.0
C36 C 0.83727 0.96537 0.4977 0.0
C37 C 0.85775 0.98562 0.50565 0.0
C38 C 0.90904 0.03944 0.5155 0.0
C39 C 0.92456 0.01739 0.52431 0.0
C40 C 0.96053 0.01475 0.52496 0.0
C41 C 0.98171 0.03384 0.51675 0.0
C42 C 0.96583 0.05555 0.50787 0.0
C43 C 0.92998 0.0583 0.5073 0.0
C44 C 0.14977 0.04139 0.52661 0.0
C45 C 0.16116 0.02709 0.53798 0.0
C46 C 0.18526 0.04434 0.54548 0.0
C47 C 0.19869 0.07627 0.54167 0.0
C48 C 0.1861 0.09131 0.53053 0.0
C49 C 0.16179 0.07414 0.5231 0.0
C50 C 0.1464 0.0114 0.50651 0.0
C51 C 0.14703 0.03386 0.49613 0.0
C52 C 0.16768 0.02645 0.48566 0.0
C53 C 0.18751 0.9962 0.4853 0.0
C54 C 0.18557 0.97317 0.49548 0.0
C55 C 0.16536 0.98084 0.50598 0.0
C56 C 0.09282 0.02482 0.51791 0.0
C57 C 0.07182 0.9962 0.52015 0.0
C58 C 0.03594 0.99909 0.51983 0.0
C59 C 0.0201 0.03089 0.51729 0.0
C60 C 0.04134 0.05967 0.51507 0.0
C61 C 0.0773 0.05666 0.51531 0.0
H62 H 0.27638 0.59989 0.78301 0.0
N63 N 0.24313 0.64278 0.7665 0.0
H64 H 0.25053 0.56847 0.80041 0.0
H65 H 0.1785 0.64651 0.77453 0.0
H66 H 0.15251 0.61632 0.79236 0.0
H67 H 0.21537 0.60963 0.74718 0.0
H68 H 0.24315 0.56866 0.73297 0.0
H69 H 0.31197 0.62705 0.76605 0.0
H70 H 0.33994 0.58545 0.7521 0.0
H71 H 0.28958 0.66364 0.78441 0.0
H72 H 0.22611 0.69896 0.75375 0.0
H73 H 0.30488 0.72286 0.78947 0.0
H74 H 0.24256 0.75838 0.75831 0.0
H75 H 0.31101 0.89253 0.8141 0.0
H76 H 0.27565 0.92666 0.82853 0.0
H77 H 0.20656 0.9508 0.79784 0.0
H78 H 0.24265 0.9183 0.78353 0.0
H79 H 0.27714 0.90304 0.76622 0.0
H80 H 0.30114 0.94548 0.75167 0.0
H81 H 0.38804 0.95979 0.77649 0.0
H82 H 0.36334 0.91789 0.79122 0.0
H83 H 0.34603 0.83235 0.79018 0.0
H84 H 0.33506 0.77302 0.78361 0.0
H85 H 0.23114 0.8013 0.77336 0.0
N86 N 0.30337 0.88556 0.78933 0.0
H87 H 0.24288 0.86034 0.77934 0.0
C88 C 0.22914 0.6252 0.77731 0.0
C89 C 0.24933 0.60357 0.78493 0.0
C90 C 0.23452 0.58585 0.79502 0.0
C91 C 0.19931 0.58966 0.79781 0.0
C92 C 0.17951 0.61219 0.79037 0.0
C93 C 0.1943 0.62964 0.78022 0.0
C94 C 0.26146 0.62141 0.75764 0.0
C95 C 0.24268 0.60476 0.74817 0.0
C96 C 0.25856 0.58112 0.74015 0.0
C97 C 0.29375 0.57341 0.74146 0.0
C98 C 0.31287 0.59093 0.75075 0.0
C99 C 0.29689 0.61469 0.75877 0.0
C100 C 0.25627 0.67692 0.76876 0.0
C101 C 0.27935 0.68412 0.77863 0.0
C102 C 0.28827 0.71815 0.78146 0.0
C103 C 0.27467 0.74568 0.77441 0.0
C104 C 0.25289 0.73807 0.76417 0.0
C105 C 0.24374 0.7041 0.76144 0.0
C106 C 0.2796 0.90251 0.79775 0.0
C107 C 0.28797 0.90489 0.81056 0.0
C108 C 0.26763 0.92432 0.81879 0.0
C109 C 0.23827 0.94177 0.81435 0.0
C110 C 0.22929 0.93832 0.80157 0.0
C111 C 0.24981 0.91919 0.79335 0.0
C112 C 0.31838 0.90756 0.7799 0.0
C113 C 0.30131 0.91525 0.76856 0.0
C114 C 0.31503 0.93952 0.76025 0.0
C115 C 0.34632 0.95605 0.76301 0.0
C116 C 0.36396 0.94734 0.77411 0.0
C117 C 0.34994 0.92349 0.78251 0.0
C118 C 0.29536 0.85087 0.78544 0.0
C119 C 0.32093 0.82562 0.78648 0.0
C120 C 0.31451 0.79168 0.78278 0.0
C121 C 0.28212 0.78212 0.77797 0.0
C122 C 0.25657 0.80763 0.77683 0.0
C123 C 0.26315 0.84162 0.78042 0.0
H124 H 0.66155 0.06044 0.04683 0.0
N125 N 0.62757 0.03375 0.02747 0.0
H126 H 0.6925 0.02966 0.0635 0.0
H127 H 0.6295 0.96392 0.0307 0.0
H128 H 0.66062 0.9329 0.04725 0.0
H129 H 0.66119 0.98589 0.0129 0.0
H130 H 0.69992 0.9978 0.99535 0.0
H131 H 0.64188 0.09436 0.01728 0.0
H132 H 0.68074 0.10656 0.99971 0.0
H133 H 0.57618 0.06325 0.03981 0.0
H134 H 0.5975 0.98908 0.01069 0.0
H135 H 0.5145 0.05343 0.03718 0.0
H136 H 0.53604 0.98042 0.00746 0.0
H137 H 0.37236 0.01957 0.03959 0.0
H138 H 0.34031 0.99655 0.05753 0.0
H139 H 0.30731 0.91068 0.03462 0.0
H140 H 0.33851 0.93463 0.01667 0.0
H141 H 0.35869 0.985 0.99158 0.0
H142 H 0.31989 0.02058 0.9789 0.0
H143 H 0.30586 0.08875 0.01065 0.0
H144 H 0.34392 0.05271 0.02326 0.0
H145 H 0.40601 0.05377 0.02166 0.0
H146 H 0.46753 0.06361 0.02389 0.0
H147 H 0.48656 0.956 0.01628 0.0
N148 N 0.37451 0.99245 0.01578 0.0
H149 H 0.42486 0.94696 0.01337 0.0
C150 C 0.6435 0.01457 0.03752 0.0
C151 C 0.66099 0.0326 0.04698 0.0
C152 C 0.67848 0.01499 0.0565 0.0
C153 C 0.67903 0.97886 0.05666 0.0
C154 C 0.6609 0.96074 0.04729 0.0
C155 C 0.64308 0.97843 0.03784 0.0
C156 C 0.64872 0.03941 0.0165 0.0
C157 C 0.66512 0.01229 0.01008 0.0
C158 C 0.6874 0.01912 1.00004 0.0
C159 C 0.6935 0.05312 0.99615 0.0
C160 C 0.67632 0.08005 0.00237 0.0
C161 C 0.65423 0.0732 0.01244 0.0
C162 C 0.59146 0.0273 0.0254 0.0
C163 C 0.56744 0.04512 0.03275 0.0
C164 C 0.53217 0.03964 0.03114 0.0
C165 C 0.52002 0.0163 0.02202 0.0
C166 C 0.54428 0.99829 0.01468 0.0
C167 C 0.57961 0.00348 0.01642 0.0
C168 C 0.35757 0.97879 0.02676 0.0
C169 C 0.35821 0.99582 0.03845 0.0
C170 C 0.34005 0.98247 0.04873 0.0
C171 C 0.321 0.95184 0.04752 0.0
C172 C 0.32111 0.93464 0.03585 0.0
C173 C 0.33911 0.94808 0.0256 0.0
C174 C 0.35423 0.016 0.00834 0.0
C175 C 0.34751 0.00786 0.99572 0.0
C176 C 0.32544 0.02832 0.98849 0.0
C177 C 0.30957 0.05749 0.99377 0.0
C178 C 0.31719 0.0662 0.00634 0.0
C179 C 0.33922 0.04568 0.01356 0.0
C180 C 0.41077 0.99957 0.01714 0.0
C181 C 0.42333 0.03236 0.0203 0.0
C182 C 0.45871 0.03787 0.02173 0.0
C183 C 0.4823 0.01063 0.02026 0.0
C184 C 0.46945 0.97781 0.01723 0.0
C185 C 0.43415 0.97248 0.01565 0.0
H186 H 0.21399 0.41276 0.29873 0.0
N187 N 0.24016 0.3909 0.27705 0.0
H188 H 0.24056 0.45205 0.31394 0.0
H189 H 0.30728 0.4129 0.27685 0.0
H190 H 0.33427 0.45107 0.29208 0.0
H191 H 0.2838 0.3998 0.25703 0.0
H192 H 0.27405 0.43739 0.23886 0.0
H193 H 0.18297 0.42446 0.27121 0.0
H194 H 0.17275 0.46166 0.25298 0.0
H195 H 0.19174 0.34333 0.2795 0.0
H196 H 0.30007 0.35565 0.2723 0.0
H197 H 0.19769 0.28091 0.27747 0.0
H198 H 0.30661 0.29353 0.27069 0.0
H199 H 0.23165 0.10642 0.28757 0.0
H200 H 0.25224 0.06783 0.30411 0.0
H201 H 0.35671 0.08342 0.29144 0.0
H202 H 0.33565 0.12137 0.27473 0.0
H203 H 0.29354 0.098 0.24983 0.0
H204 H 0.26047 0.05914 0.23631 0.0
H205 H 0.16713 0.08946 0.25539 0.0
H206 H 0.20055 0.12871 0.26876 0.0
H207 H 0.22714 0.16855 0.28518 0.0
H208 H 0.22034 0.23077 0.28743 0.0
H209 H 0.29334 0.24646 0.25728 0.0
N210 N 0.2707 0.13536 0.26894 0.0
H211 H 0.30073 0.18421 0.25546 0.0
C212 C 0.2585 0.40964 0.28669 0.0
C213 C 0.24048 0.42057 0.29739 0.0
C214 C 0.25576 0.44299 0.30607 0.0
C215 C 0.28952 0.45501 0.3042 0.0
C216 C 0.30804 0.44283 0.29372 0.0
C217 C 0.2927 0.42051 0.28503 0.0
C218 C 0.23405 0.4095 0.26553 0.0
C219 C 0.25947 0.41306 0.2562 0.0
C220 C 0.25391 0.43462 0.24583 0.0
C221 C 0.22268 0.45256 0.24451 0.0
C222 C 0.19694 0.44796 0.25365 0.0
C223 C 0.2027 0.42678 0.26407 0.0
C224 C 0.24532 0.35425 0.27612 0.0
C225 C 0.21687 0.33249 0.27759 0.0
C226 C 0.22041 0.2968 0.27651 0.0
C227 C 0.25267 0.28196 0.27393 0.0
C228 C 0.28126 0.30394 0.2725 0.0
C229 C 0.27762 0.33967 0.27353 0.0
C230 C 0.28224 0.11669 0.27988 0.0
C231 C 0.259 0.102 0.28848 0.0
C232 C 0.27086 0.07994 0.29796 0.0
C233 C 0.30612 0.07215 0.29902 0.0
C234 C 0.32933 0.08828 0.29075 0.0
C235 C 0.31745 0.11024 0.28128 0.0
C236 C 0.24959 0.1162 0.26025 0.0
C237 C 0.26587 0.09662 0.25093 0.0
C238 C 0.24696 0.07423 0.24331 0.0
C239 C 0.21119 0.07087 0.24487 0.0
C240 C 0.19461 0.09156 0.25391 0.0
C241 C 0.21368 0.11397 0.26158 0.0
C242 C 0.26469 0.17177 0.27018 0.0
C243 C 0.24166 0.18537 0.27908 0.0
C244 C 0.23767 0.22106 0.28029 0.0
C245 C 0.25645 0.24386 0.27259 0.0
C246 C 0.27898 0.22991 0.26356 0.0
C247 C 0.28303 0.19432 0.26241 0.0
H248 H 0.76951 0.10764 0.28272 0.0
N249 N 0.72906 0.13726 0.26453 0.0
H250 H 0.74948 0.0769 0.30138 0.0
H251 H 0.66464 0.13023 0.27242 0.0
H252 H 0.64427 0.09936 0.29109 0.0
H253 H 0.70633 0.09476 0.24688 0.0
H254 H 0.73996 0.05526 0.23384 0.0
H255 H 0.79953 0.13242 0.26402 0.0
H256 H 0.83341 0.09261 0.25119 0.0
H257 H 0.77368 0.17066 0.2804 0.0
H258 H 0.70124 0.1856 0.25015 0.0
H259 H 0.78215 0.2327 0.28192 0.0
H260 H 0.71028 0.24781 0.25131 0.0
H261 H 0.79156 0.40741 0.29469 0.0
H262 H 0.76478 0.43805 0.31236 0.0
H263 H 0.66937 0.44322 0.29154 0.0
H264 H 0.69625 0.41297 0.274 0.0
H265 H 0.71772 0.40411 0.25343 0.0
H266 H 0.7264 0.44332 0.23569 0.0
H267 H 0.82864 0.4661 0.24936 0.0
H268 H 0.81965 0.4269 0.26707 0.0
H269 H 0.81217 0.3441 0.27397 0.0
H270 H 0.80598 0.28182 0.27137 0.0
H271 H 0.69696 0.29519 0.26491 0.0
N272 N 0.76342 0.39167 0.27263 0.0
H273 H 0.70366 0.35713 0.26714 0.0
C274 C 0.71842 0.12103 0.27609 0.0
C275 C 0.74217 0.10618 0.28449 0.0
C276 C 0.73067 0.08849 0.29515 0.0
C277 C 0.69528 0.08555 0.29769 0.0
C278 C 0.6717 0.10142 0.28948 0.0
C279 C 0.68323 0.11891 0.27879 0.0
C280 C 0.75027 0.11654 0.25637 0.0
C281 C 0.7341 0.09463 0.24774 0.0
C282 C 0.75335 0.07191 0.24039 0.0
C283 C 0.78938 0.07054 0.24154 0.0
C284 C 0.80574 0.09319 0.24999 0.0
C285 C 0.78637 0.11594 0.25737 0.0
C286 C 0.73655 0.17352 0.26518 0.0
C287 C 0.75983 0.18726 0.27399 0.0
C288 C 0.7648 0.22284 0.2748 0.0
C289 C 0.74675 0.24539 0.26678 0.0
C290 C 0.72414 0.23135 0.25779 0.0
C291 C 0.71913 0.19583 0.25703 0.0
C292 C 0.746 0.40764 0.28308 0.0
C293 C 0.76478 0.4149 0.29403 0.0
C294 C 0.74951 0.43251 0.30406 0.0
C295 C 0.71495 0.44301 0.30333 0.0
C296 C 0.6959 0.43505 0.29245 0.0
C297 C 0.71131 0.41771 0.28238 0.0
C298 C 0.76816 0.41266 0.2616 0.0
C299 C 0.742 0.41743 0.25261 0.0
C300 C 0.74695 0.43995 0.24247 0.0
C301 C 0.77821 0.45781 0.2411 0.0
C302 C 0.80444 0.45242 0.25003 0.0
C303 C 0.79936 0.43016 0.26017 0.0
C304 C 0.75852 0.3553 0.27081 0.0
C305 C 0.78701 0.33346 0.27193 0.0
C306 C 0.78335 0.2979 0.27053 0.0
C307 C 0.75093 0.28337 0.26797 0.0
C308 C 0.7224 0.30544 0.26671 0.0
C309 C 0.72614 0.34103 0.26808 0.0
H310 H 0.72426 0.93255 0.78963 0.0
N311 N 0.76448 0.89676 0.77304 0.0
H312 H 0.74429 0.97354 0.80553 0.0
H313 H 0.82918 0.909 0.77988 0.0
H314 H 0.84957 0.94976 0.79586 0.0
H315 H 0.79467 0.92808 0.75383 0.0
H316 H 0.76838 0.96666 0.73843 0.0
H317 H 0.69559 0.90938 0.77055 0.0
H318 H 0.66863 0.94759 0.755 0.0
H319 H 0.73551 0.86928 0.79466 0.0
H320 H 0.76715 0.84472 0.75676 0.0
H321 H 0.72233 0.8094 0.79846 0.0
H322 H 0.75157 0.78476 0.76021 0.0
H323 H 0.68772 0.61621 0.81057 0.0
H324 H 0.72113 0.57626 0.8235 0.0
H325 H 0.811 0.5973 0.80086 0.0
H326 H 0.77732 0.63632 0.78788 0.0
H327 H 0.74138 0.61631 0.77041 0.0
H328 H 0.71646 0.57591 0.75542 0.0
H329 H 0.6159 0.59342 0.77153 0.0
H330 H 0.64144 0.63345 0.78674 0.0
H331 H 0.6761 0.7025 0.79956 0.0
H332 H 0.68647 0.76324 0.79516 0.0
H333 H 0.76877 0.73469 0.7698 0.0
N334 N 0.70768 0.64827 0.78978 0.0
H335 H 0.75623 0.67441 0.77354 0.0
C336 C 0.77536 0.91763 0.78358 0.0
C337 C 0.75163 0.93581 0.79105 0.0
C338 C 0.76313 0.95915 0.80018 0.0
C339 C 0.79853 0.96508 0.8019 0.0
C340 C 0.82214 0.94609 0.79466 0.0
C341 C 0.8106 0.9226 0.78561 0.0
C342 C 0.74716 0.91588 0.76327 0.0
C343 C 0.76707 0.93187 0.75398 0.0
C344 C 0.75192 0.95382 0.74517 0.0
C345 C 0.71632 0.96035 0.74545 0.0
C346 C 0.69616 0.94352 0.7546 0.0
C347 C 0.71144 0.92148 0.76344 0.0
C348 C 0.75273 0.86193 0.77535 0.0
C349 C 0.73917 0.85129 0.78702 0.0
C350 C 0.73127 0.81664 0.78919 0.0
C351 C 0.736 0.79168 0.7797 0.0
C352 C 0.74834 0.80273 0.7679 0.0
C353 C 0.75686 0.83723 0.76583 0.0
C354 C 0.72979 0.6295 0.79829 0.0
C355 C 0.71482 0.61268 0.80858 0.0
C356 C 0.73401 0.58986 0.81596 0.0
C357 C 0.76878 0.58328 0.81319 0.0
C358 C 0.78415 0.60126 0.80315 0.0
C359 C 0.76488 0.62402 0.79576 0.0
C360 C 0.69317 0.62804 0.7797 0.0
C361 C 0.71392 0.61204 0.77059 0.0
C362 C 0.69954 0.58886 0.76198 0.0
C363 C 0.66414 0.58118 0.76229 0.0
C364 C 0.64331 0.59827 0.77114 0.0
C365 C 0.65775 0.62141 0.77975 0.0
C366 C 0.71564 0.68379 0.78711 0.0
C367 C 0.69635 0.70952 0.79305 0.0
C368 C 0.70257 0.74432 0.79057 0.0
C369 C 0.72873 0.75437 0.78216 0.0
C370 C 0.74806 0.72833 0.77619 0.0
C371 C 0.74132 0.6935 0.77851 0.0
H372 H 0.33881 0.56363 1.00148 0.0
N373 N 0.37592 0.53651 0.01996 0.0
H374 H 0.29998 0.53378 0.98694 0.0
H375 H 0.36882 0.46648 0.01758 0.0
H376 H 0.32983 0.43655 0.00329 0.0
H377 H 0.34673 0.49248 0.03698 0.0
H378 H 0.3095 0.50862 0.05464 0.0
H379 H 0.36332 0.59946 0.02845 0.0
H380 H 0.32662 0.61588 0.04623 0.0
H381 H 0.42442 0.57774 0.01104 0.0
H382 H 0.40982 0.48392 0.03181 0.0
H383 H 0.48667 0.57195 0.01318 0.0
H384 H 0.4719 0.47604 0.03312 0.0
H385 H 0.66087 0.55175 0.01213 0.0
H386 H 0.70041 0.5421 0.99466 0.0
H387 H 0.68619 0.43242 0.9986 0.0
H388 H 0.64756 0.44245 0.01643 0.0
H389 H 0.67058 0.47182 0.04449 0.0
H390 H 0.70873 0.49919 0.05988 0.0
H391 H 0.67427 0.59905 0.04729 0.0
H392 H 0.63601 0.57123 0.03193 0.0
H393 H 0.59711 0.53729 0.0084 0.0
H394 H 0.53535 0.54422 0.0066 0.0
H395 H 0.52206 0.49343 0.04252 0.0
N396 N 0.63195 0.50226 0.02715 0.0
H397 H 0.58401 0.48421 0.04372 0.0
C398 C 0.35687 0.51749 0.01058 0.0
C399 C 0.33738 0.53583 1.00174 0.0
C400 C 0.31498 0.51874 0.99354 0.0
C401 C 0.31153 0.48275 0.99402 0.0
C402 C 0.33206 0.46424 0.00258 0.0
C403 C 0.35444 0.48142 0.01081 0.0
C404 C 0.35753 0.54491 0.03132 0.0
C405 C 0.34273 0.51943 0.03899 0.0
C406 C 0.32138 0.52868 0.04906 0.0
C407 C 0.31501 0.56351 0.05178 0.0
C408 C 0.33123 0.58885 0.04444 0.0
C409 C 0.35213 0.57957 0.03429 0.0
C410 C 0.41249 0.53103 0.02101 0.0
C411 C 0.4348 0.55548 0.01585 0.0
C412 C 0.47048 0.5519 0.01702 0.0
C413 C 0.48485 0.52331 0.02325 0.0
C414 C 0.46218 0.4987 0.02841 0.0
C415 C 0.42643 0.50276 0.02745 0.0
C416 C 0.65145 0.49767 0.01569 0.0
C417 C 0.66605 0.52564 0.0092 0.0
C418 C 0.68853 0.52007 0.99912 0.0
C419 C 0.69687 0.48645 0.99528 0.0
C420 C 0.68095 0.45863 1.00145 0.0
C421 C 0.65858 0.46426 0.01155 0.0
C422 C 0.65064 0.51941 0.03708 0.0
C423 C 0.67086 0.49959 0.04524 0.0
C424 C 0.69255 0.51529 0.05403 0.0
C425 C 0.69467 0.55132 0.05478 0.0
C426 C 0.67351 0.57124 0.04684 0.0
C427 C 0.65155 0.55543 0.03811 0.0
C428 C 0.59553 0.50972 0.02619 0.0
C429 C 0.58112 0.52744 0.01589 0.0
C430 C 0.54541 0.53173 0.01493 0.0
C431 C 0.52314 0.51925 0.02437 0.0
C432 C 0.5379 0.50264 0.03486 0.0
C433 C 0.5735 0.4977 0.03566 0.0
H434 H 0.17177 0.54841 0.54194 0.0
N435 N 0.13451 0.51708 0.52443 0.0
H436 H 0.21141 0.52209 0.55704 0.0
H437 H 0.14084 0.44812 0.529 0.0
H438 H 0.18049 0.42136 0.5441 0.0
H439 H 0.16683 0.46944 0.5095 0.0
H440 H 0.20582 0.48155 0.4921 0.0
H441 H 0.14623 0.57768 0.51372 0.0
H442 H 0.18429 0.5901 0.49594 0.0
H443 H 0.0839 0.54549 0.5376 0.0
H444 H 0.1034 0.47056 0.50859 0.0
H445 H 0.02201 0.5366 0.5352 0.0
H446 H 0.04179 0.46301 0.50549 0.0
H447 H 0.87377 0.50295 0.53413 0.0
H448 H 0.83017 0.47989 0.54852 0.0
H449 H 0.79506 0.41096 0.51928 0.0
H450 H 0.83843 0.43445 0.50497 0.0
H451 H 0.86925 0.48683 0.48454 0.0
H452 H 0.83177 0.52615 0.47288 0.0
H453 H 0.81707 0.58618 0.50672 0.0
H454 H 0.85365 0.54625 0.51831 0.0
H455 H 0.91507 0.54404 0.51788 0.0
H456 H 0.97631 0.54934 0.52195 0.0
H457 H 0.98993 0.44171 0.51296 0.0
N458 N 0.88115 0.48632 0.50921 0.0
H459 H 0.92862 0.43734 0.50812 0.0
C460 C 0.15344 0.50033 0.53438 0.0
C461 C 0.17308 0.52065 0.54257 0.0
C462 C 0.19569 0.50554 0.55118 0.0
C463 C 0.19931 0.4696 0.55173 0.0
C464 C 0.17864 0.44913 0.54379 0.0
C465 C 0.15579 0.46434 0.53522 0.0
C466 C 0.15381 0.52283 0.51302 0.0
C467 C 0.17021 0.49582 0.50655 0.0
C468 C 0.19242 0.50279 0.49651 0.0
C469 C 0.1986 0.53686 0.49268 0.0
C470 C 0.18077 0.56361 0.4988 0.0
C471 C 0.15873 0.55661 0.50887 0.0
C472 C 0.09835 0.50914 0.52322 0.0
C473 C 0.07475 0.52715 0.53069 0.0
C474 C 0.03931 0.52227 0.52918 0.0
C475 C 0.02649 0.49943 0.52 0.0
C476 C 0.05039 0.48059 0.51275 0.0
C477 C 0.08588 0.48512 0.51443 0.0
C478 C 0.85935 0.47023 0.51847 0.0
C479 C 0.85706 0.48249 0.53091 0.0
C480 C 0.83212 0.46928 0.53912 0.0
C481 C 0.80891 0.44382 0.535 0.0
C482 C 0.81215 0.43092 0.52268 0.0
C483 C 0.8371 0.444 0.51454 0.0
C484 C 0.86444 0.51352 0.50225 0.0
C485 C 0.85857 0.50896 0.48933 0.0
C486 C 0.83714 0.53152 0.4827 0.0
C487 C 0.82107 0.55923 0.48888 0.0
C488 C 0.8285 0.56481 0.5017 0.0
C489 C 0.84981 0.54215 0.50833 0.0
C490 C 0.91711 0.49028 0.51244 0.0
C491 C 0.93107 0.52158 0.51669 0.0
C492 C 0.96637 0.52447 0.51918 0.0
C493 C 0.98854 0.496 0.51776 0.0
C494 C 0.97412 0.46448 0.5139 0.0
C495 C 0.93895 0.46179 0.51123 0.0
Fe496 Fe 0.00312 0.73413 0.17811 0.0
O497 O 0.00601 0.7361 0.15964 0.0
Fe498 Fe 0.96519 0.75978 0.14997 0.0
Fe499 Fe 0.04515 0.75833 0.15058 0.0
O500 O 1.00249 0.73617 0.15961 0.0
O501 O 0.00431 0.78186 0.14084 0.0
O502 O 0.00777 0.7818 0.14087 0.0
Fe503 Fe 0.00685 0.78479 0.12244 0.0
C504 C 0.04864 0.79769 0.17492 0.0
O505 O 0.04267 0.69987 0.17544 0.0
O506 O 0.07915 0.72933 0.16207 0.0
O507 O 0.96875 0.74869 0.11942 0.0
O508 O 0.96318 0.71958 0.13735 0.0
O509 O 0.92897 0.73214 0.16087 0.0
O510 O 0.96276 0.70117 0.17476 0.0
O511 O 0.04718 0.71809 0.13799 0.0
O512 O 0.0435 0.74705 0.11992 0.0
C513 C 0.93425 0.70677 0.1687 0.0
O514 O 0.96671 0.81892 0.12518 0.0
O515 O 0.93129 0.78848 0.13861 0.0
O516 O 0.0408 0.77086 0.18117 0.0
O517 O 0.0455 0.79893 0.16301 0.0
C518 C 0.07208 0.70433 0.16988 0.0
C519 C 0.05305 0.72089 0.12624 0.0
C520 C 0.07703 0.81009 0.13135 0.0
O521 O 0.08115 0.78567 0.13966 0.0
O522 O 0.04811 0.81728 0.12573 0.0
C523 C 0.95793 0.72274 0.12557 0.0
O524 O 0.96497 0.80032 0.16237 0.0
O525 O 0.96636 0.77207 0.18056 0.0
C526 C 0.93703 0.8128 0.1304 0.0
C527 C 0.9602 0.79914 0.1742 0.0
Fe528 Fe 0.47518 0.76625 0.42703 0.0
O529 O 0.47705 0.76348 0.40856 0.0
Fe530 Fe 0.49915 0.80485 0.39881 0.0
Fe531 Fe 0.50014 0.72503 0.3994 0.0
O532 O 0.47694 0.76692 0.40853 0.0
O533 O 0.5226 0.76641 0.38971 0.0
O534 O 0.52263 0.76295 0.38973 0.0
Fe535 Fe 0.52545 0.76366 0.3713 0.0
C536 C 0.53998 0.72234 0.42365 0.0
O537 O 0.4421 0.72568 0.42438 0.0
O538 O 0.47216 0.69023 0.41082 0.0
O539 O 0.48821 0.80056 0.3683 0.0
O540 O 0.45882 0.80533 0.3862 0.0
O541 O 0.47007 0.84016 0.4097 0.0
O542 O 0.44088 0.80542 0.42375 0.0
O543 O 0.45977 0.72236 0.38688 0.0
O544 O 0.48867 0.72585 0.36881 0.0
C545 C 0.44504 0.83401 0.41762 0.0
O546 O 0.55838 0.80492 0.37401 0.0
O547 O 0.52652 0.83946 0.38735 0.0
O548 O 0.51319 0.72979 0.43 0.0
O549 O 0.5409 0.72549 0.41175 0.0
C550 C 0.44714 0.69653 0.41871 0.0
C551 C 0.46258 0.71616 0.37515 0.0
C552 C 0.5526 0.69437 0.38016 0.0
O553 O 0.52816 0.68972 0.38842 0.0
O554 O 0.55919 0.72341 0.37457 0.0
C555 C 0.46193 0.81068 0.37443 0.0
O556 O 0.53986 0.80667 0.41121 0.0
O557 O 0.51187 0.80424 0.42943 0.0
C558 C 0.5511 0.83443 0.37918 0.0
C559 C 0.53867 0.81128 0.42305 0.0
Fe560 Fe 0.5103 0.26549 0.66356 0.0
O561 O 0.53576 0.2881 0.64953 0.0
Fe562 Fe 0.4343 0.2393 0.64977 0.0
Fe563 Fe 0.58615 0.29072 0.64924 0.0
O564 O 0.48461 0.24222 0.6497 0.0
O565 O 0.48468 0.24203 0.64842 0.0
O566 O 0.53576 0.28801 0.64825 0.0
Fe567 Fe 0.5099 0.2649 0.63427 0.0
C568 C 0.56157 0.31971 0.67431 0.0
O569 O 0.54409 0.22534 0.6639 0.0
O570 O 0.5936 0.25369 0.66321 0.0
O571 O 0.47816 0.23738 0.62164 0.0
O572 O 0.44109 0.20678 0.6345 0.0
O573 O 0.44429 0.20499 0.66405 0.0
O574 O 0.48066 0.23712 0.6766 0.0
O575 O 0.59383 0.25353 0.63586 0.0
O576 O 0.54477 0.22442 0.63352 0.0
C577 C 0.46049 0.21087 0.67455 0.0
O578 O 0.47509 0.30525 0.63364 0.0
O579 O 0.42566 0.27696 0.63664 0.0
O580 O 0.54023 0.2944 0.67638 0.0
O581 O 0.57749 0.32487 0.66373 0.0
C582 C 0.57605 0.22717 0.66616 0.0
C583 C 0.57726 0.22729 0.63205 0.0
C584 C 0.56408 0.31646 0.62332 0.0
O585 O 0.57845 0.32345 0.63411 0.0
O586 O 0.54088 0.2926 0.62147 0.0
C587 C 0.45475 0.21384 0.62361 0.0
O588 O 0.42759 0.27605 0.66388 0.0
O589 O 0.47639 0.30559 0.6637 0.0
C590 C 0.44241 0.30293 0.63271 0.0
C591 C 0.44466 0.3033 0.6663 0.0
Fe592 Fe 0.97464 0.27176 0.92803 0.0
O593 O 0.97726 0.26959 0.90957 0.0
Fe594 Fe 0.99991 0.31116 0.90011 0.0
Fe595 Fe 1.0004 0.23129 0.90034 0.0
O596 O 0.97734 0.27303 0.90958 0.0
O597 O 0.02347 0.2729 0.89094 0.0
O598 O 0.02344 0.26939 0.89094 0.0
Fe599 Fe 0.02661 0.27076 0.87251 0.0
C600 C 0.03894 0.22695 0.92479 0.0
O601 O 0.94123 0.23157 0.92499 0.0
O602 O 0.97192 0.19632 0.91149 0.0
O603 O 0.98949 0.30814 0.86955 0.0
O604 O 0.9599 0.31169 0.88743 0.0
O605 O 0.97078 0.34633 0.91102 0.0
O606 O 0.94079 0.31136 0.92477 0.0
O607 O 0.96034 0.22926 0.88763 0.0
O608 O 0.98985 0.23322 0.86973 0.0
C609 C 0.94558 0.34016 0.91885 0.0
O610 O 0.05972 0.31161 0.87553 0.0
O611 O 0.02753 0.34607 0.88879 0.0
O612 O 0.01204 0.23478 0.93101 0.0
O613 O 0.04066 0.23093 0.91292 0.0
C614 C 0.94665 0.20256 0.91927 0.0
C615 C 0.96349 0.22344 0.87589 0.0
C616 C 0.05352 0.20106 0.88127 0.0
O617 O 0.02873 0.19621 0.88937 0.0
O618 O 0.06009 0.23015 0.8757 0.0
C619 C 0.96314 0.31794 0.87573 0.0
O620 O 0.04019 0.31282 0.91266 0.0
O621 O 0.01178 0.30926 0.9308 0.0
C622 C 0.05232 0.34105 0.8807 0.0
C623 C 0.03859 0.31706 0.92452 0.0
H624 H 0.23353 0.04035 0.47439 0.0
H625 H 0.27726 0.02671 0.45847 0.0
H626 H 0.24 0.92239 0.45675 0.0
H627 H 0.19627 0.93587 0.47254 0.0
H628 H 0.32864 0.97554 0.46169 0.0
H629 H 0.24982 0.94938 0.41936 0.0
H630 H 0.23389 0.9738 0.43262 0.0
H631 H 0.23413 0.92755 0.43309 0.0
C632 C 0.23421 0.01473 0.47039 0.0
C633 C 0.21146 0.98916 0.4747 0.0
C634 C 0.25928 0.00695 0.46135 0.0
C635 C 0.26161 0.97367 0.45631 0.0
C636 C 0.23828 0.94841 0.46034 0.0
H637 H 0.3788 0.82346 0.42421 0.0
H638 H 0.33681 0.8654 0.43126 0.0
C639 C 0.21349 0.95606 0.46944 0.0
C640 C 0.29017 0.96402 0.44772 0.0
H641 H 0.30601 0.92279 0.41995 0.0
C642 C 0.32395 0.96483 0.45241 0.0
C643 C 0.28396 0.95033 0.4356 0.0
C644 C 0.24851 0.9505 0.42981 0.0
C645 C 0.35121 0.94947 0.44576 0.0
C646 C 0.3445 0.93343 0.43404 0.0
C647 C 0.31116 0.93506 0.42894 0.0
C648 C 0.36965 0.9095 0.4282 0.0
C649 C 0.38636 0.94808 0.4518 0.0
C650 C 0.40196 0.92038 0.42374 0.0
C651 C 0.42639 0.89614 0.41966 0.0
C652 C 0.41879 0.8608 0.42011 0.0
C653 C 0.38577 0.85043 0.42395 0.0
C654 C 0.36156 0.87443 0.42792 0.0
H655 H 0.38631 0.95851 0.46154 0.0
H656 H 0.39589 0.92117 0.45208 0.0
H657 H 0.40473 0.96339 0.44611 0.0
H658 H 0.40854 0.94743 0.4237 0.0
H659 H 0.45156 0.90489 0.41669 0.0
H660 H 0.31202 0.01128 0.75346 0.0
H661 H 0.33441 0.05621 0.73959 0.0
H662 H 0.43367 0.0065 0.7394 0.0
H663 H 0.4116 0.96215 0.75368 0.0
H664 H 0.44107 0.07441 0.74127 0.0
H665 H 0.34961 0.04615 0.7026 0.0
H666 H 0.328 0.05685 0.71698 0.0
H667 H 0.354 0.01857 0.71614 0.0
C668 C 0.33856 0.00988 0.75039 0.0
C669 C 0.35999 0.98306 0.75452 0.0
C670 C 0.35132 0.03549 0.74244 0.0
C671 C 0.38553 0.03435 0.7382 0.0
C672 C 0.40715 0.00787 0.7425 0.0
H673 H 0.45375 0.14212 0.67189 0.0
H674 H 0.43931 0.09992 0.68799 0.0
C675 C 0.39454 0.98253 0.75062 0.0
C676 C 0.39865 0.06057 0.72921 0.0
H677 H 0.38241 0.09732 0.70064 0.0
C678 C 0.42837 0.07933 0.73235 0.0
C679 C 0.38239 0.06666 0.71748 0.0
C680 C 0.35197 0.04574 0.71303 0.0
C681 C 0.4421 0.10415 0.72413 0.0
C682 C 0.42505 0.1111 0.71262 0.0
C683 C 0.39539 0.09225 0.7095 0.0
C684 C 0.43792 0.13666 0.70332 0.0
C685 C 0.47519 0.12193 0.72772 0.0
C686 C 0.44286 0.1714 0.70658 0.0
C687 C 0.45187 0.1956 0.69735 0.0
C688 C 0.45514 0.18551 0.6847 0.0
C689 C 0.45102 0.15067 0.68155 0.0
C690 C 0.44275 0.12653 0.69076 0.0
H691 H 0.48996 0.10684 0.73478 0.0
H692 H 0.49176 0.12623 0.71936 0.0
H693 H 0.46912 0.14728 0.73198 0.0
H694 H 0.43856 0.18007 0.71614 0.0
H695 H 0.45467 0.22236 0.7 0.0
H696 H 0.31217 0.07579 0.96878 0.0
H697 H 0.26821 0.10604 0.95652 0.0
H698 H 0.20537 0.11562 0.98977 0.0
H699 H 0.24854 0.08445 1.00199 0.0
H700 H 0.16964 0.09084 0.96908 0.0
H701 H 0.24326 0.20821 0.95642 0.0
H702 H 0.26407 0.16843 0.95243 0.0
H703 H 0.25701 0.17915 0.96869 0.0
C704 C 0.289 0.08434 0.97349 0.0
C705 C 0.28398 0.07774 0.9864 0.0
C706 C 0.26406 0.10198 0.96649 0.0
C707 C 0.23371 0.11353 0.97227 0.0
C708 C 0.22872 0.10718 0.98515 0.0
H709 H 0.04503 0.21466 0.95008 0.0
H710 H 0.0928 0.18738 0.96118 0.0
C711 C 0.25358 0.08957 0.99214 0.0
C712 C 0.20628 0.13067 0.96481 0.0
H713 H 0.18851 0.20138 0.94684 0.0
C714 C 0.17375 0.11506 0.96425 0.0
C715 C 0.21175 0.16216 0.95845 0.0
C716 C 0.2458 0.1807 0.95908 0.0
C717 C 0.14658 0.12997 0.95745 0.0
C718 C 0.1519 0.16166 0.95122 0.0
C719 C 0.18453 0.1771 0.95164 0.0
C720 C 0.12359 0.17943 0.94447 0.0
C721 C 0.11249 0.11144 0.95687 0.0
C722 C 0.12547 0.18494 0.93142 0.0
C723 C 0.09817 0.20066 0.92502 0.0
C724 C 0.06854 0.21135 0.93157 0.0
C725 C 0.06723 0.20651 0.9447 0.0
C726 C 0.09448 0.19079 0.95107 0.0
H727 H 0.11516 0.08379 0.9593 0.0
H728 H 0.0945 0.1233 0.96372 0.0
H729 H 0.10087 0.11353 0.94734 0.0
H730 H 0.14782 0.17653 0.92617 0.0
H731 H 0.10017 0.20408 0.91492 0.0
H732 H 0.14822 0.07753 0.23325 0.0
H733 H 0.11733 0.03409 0.22084 0.0
H734 H 0.19933 0.96164 0.22754 0.0
H735 H 0.23029 0.00479 0.23981 0.0
H736 H 0.18033 0.96292 0.20295 0.0
H737 H 0.06479 0.95059 0.23336 0.0
H738 H 0.07345 0.99352 0.22801 0.0
H739 H 0.10325 0.9726 0.23846 0.0
C740 C 0.15948 0.05223 0.23216 0.0
C741 C 0.19179 0.04468 0.23748 0.0
C742 C 0.14177 0.0274 0.22509 0.0
C743 C 0.15581 0.99443 0.22337 0.0
C744 C 0.18798 0.98688 0.22871 0.0
H745 H 0.06307 0.80349 0.20011 0.0
H746 H 0.08766 0.85271 0.21121 0.0
C747 C 0.20574 0.01166 0.23569 0.0
C748 C 0.13772 0.9678 0.21577 0.0
H749 H 0.06458 0.91914 0.21428 0.0
C750 C 0.15496 0.95343 0.20541 0.0
C751 C 0.10475 0.9552 0.21904 0.0
C752 C 0.08552 0.96849 0.23038 0.0
C753 C 0.14039 0.92661 0.19832 0.0
C754 C 0.10727 0.91425 0.2015 0.0
C755 C 0.08985 0.92881 0.21179 0.0
C756 C 0.09108 0.88501 0.19467 0.0
C757 C 0.16114 0.91097 0.18775 0.0
C758 C 0.08427 0.88692 0.1817 0.0
C759 C 0.07042 0.85866 0.17527 0.0
C760 C 0.06278 0.82798 0.18173 0.0
C761 C 0.0688 0.82654 0.1948 0.0
C762 C 0.08277 0.85474 0.20119 0.0
H763 H 0.1889 0.91749 0.18854 0.0
H764 H 0.15847 0.88255 0.18764 0.0
H765 H 0.15162 0.92104 0.17862 0.0
H766 H 0.08976 0.91025 0.17652 0.0
H767 H 0.06577 0.86088 0.16525 0.0
H768 H 0.25732 0.10577 0.5324 0.0
H769 H 0.3055 0.13031 0.54431 0.0
H770 H 0.25306 0.1081 0.5791 0.0
H771 H 0.20461 0.08366 0.56728 0.0
H772 H 0.28449 0.17942 0.57561 0.0
H773 H 0.37309 0.06928 0.56701 0.0
H774 H 0.35006 0.0868 0.55375 0.0
H775 H 0.32689 0.06496 0.56594 0.0
C776 C 0.25583 0.10648 0.54259 0.0
C777 C 0.2271 0.09278 0.5489 0.0
C778 C 0.2835 0.12026 0.54936 0.0
C779 C 0.2829 0.12076 0.56257 0.0
C780 C 0.25402 0.10781 0.56891 0.0
H781 H 0.42397 0.15089 0.62287 0.0
H782 H 0.38575 0.12884 0.60645 0.0
C783 C 0.22645 0.09375 0.56214 0.0
C784 C 0.31252 0.13445 0.56982 0.0
H785 H 0.39443 0.11521 0.57921 0.0
C786 C 0.30866 0.16562 0.57632 0.0
C787 C 0.3439 0.11622 0.57073 0.0
C788 C 0.34896 0.08234 0.56406 0.0
C789 C 0.3353 0.17887 0.58386 0.0
C790 C 0.36659 0.16044 0.58489 0.0
C791 C 0.37056 0.12943 0.57828 0.0
C792 C 0.39403 0.17145 0.59374 0.0
C793 C 0.3294 0.21187 0.59103 0.0
C794 C 0.41259 0.20196 0.59178 0.0
C795 C 0.43482 0.2145 0.60112 0.0
C796 C 0.43853 0.19684 0.61261 0.0
C797 C 0.42158 0.16516 0.61415 0.0
C798 C 0.3997 0.15252 0.60478 0.0
H799 H 0.30212 0.22032 0.59063 0.0
H800 H 0.33699 0.20874 0.60105 0.0
H801 H 0.3456 0.23253 0.58694 0.0
H802 H 0.40878 0.21676 0.58325 0.0
H803 H 0.44726 0.23911 0.59968 0.0
H804 H 0.2221 0.93226 0.83939 0.0
H805 H 0.18994 0.97119 0.85322 0.0
H806 H 0.17617 0.04184 0.82238 0.0
H807 H 0.20898 0.00388 0.80861 0.0
H808 H 0.20559 0.04382 0.85846 0.0
H809 H 0.07722 0.02441 0.83662 0.0
H810 H 0.11222 0.99431 0.83465 0.0
H811 H 0.11122 0.03338 0.82563 0.0
C812 C 0.21242 0.95616 0.83555 0.0
C813 C 0.21798 0.96471 0.82282 0.0
C814 C 0.19389 0.97827 0.84347 0.0
C815 C 0.1803 0.00912 0.83877 0.0
C816 C 0.18588 0.01781 0.82612 0.0
H817 H 0.11476 0.201 0.86857 0.0
H818 H 0.14581 0.15159 0.86014 0.0
C819 C 0.20455 0.99593 0.81825 0.0
C820 C 0.16103 0.03295 0.84707 0.0
H821 H 0.08325 0.07279 0.85027 0.0
C822 C 0.17872 0.04987 0.8568 0.0
C823 C 0.1259 0.04048 0.84496 0.0
C824 C 0.10534 0.02201 0.83497 0.0
C825 C 0.16258 0.07536 0.86409 0.0
C826 C 0.12798 0.08422 0.86151 0.0
C827 C 0.10985 0.06611 0.85218 0.0
C828 C 0.11078 0.11371 0.86774 0.0
C829 C 0.18278 0.09294 0.87438 0.0
C830 C 0.08069 0.10886 0.87482 0.0
C831 C 0.06278 0.13714 0.87969 0.0
C832 C 0.07437 0.17086 0.87738 0.0
C833 C 0.10499 0.17547 0.87052 0.0
C834 C 0.12296 0.14721 0.86575 0.0
H835 H 0.20501 0.07709 0.87749 0.0
H836 H 0.19291 0.11772 0.87078 0.0
H837 H 0.16622 0.09847 0.88265 0.0
H838 H 0.07073 0.0832 0.87638 0.0
H839 H 0.03923 0.13259 0.88487 0.0
H840 H 0.33822 0.9501 0.07268 0.0
H841 H 0.30407 0.92681 0.09012 0.0
H842 H 0.22348 0.89927 0.06407 0.0
H843 H 0.25688 0.92296 0.04669 0.0
H844 H 0.23566 0.94528 0.098 0.0
H845 H 0.24444 0.80887 0.08323 0.0
H846 H 0.27326 0.84162 0.07739 0.0
H847 H 0.23081 0.83714 0.07082 0.0
C848 C 0.31313 0.93931 0.07067 0.0
C849 C 0.30047 0.93812 0.05824 0.0
C850 C 0.29375 0.92587 0.08064 0.0
C851 C 0.26156 0.91078 0.07834 0.0
C852 C 0.24863 0.91009 0.06601 0.0
H853 H 0.07901 0.87037 0.11817 0.0
H854 H 0.12844 0.89599 0.10771 0.0
C855 C 0.26784 0.92358 0.05607 0.0
C856 C 0.24085 0.89623 0.08877 0.0
H857 H 0.19993 0.82281 0.09795 0.0
C858 C 0.22825 0.9184 0.09812 0.0
C859 C 0.23172 0.86105 0.08905 0.0
C860 C 0.24602 0.83567 0.07966 0.0
C861 C 0.20504 0.90667 0.10731 0.0
C862 C 0.19396 0.87202 0.10702 0.0
C863 C 0.20822 0.84944 0.09813 0.0
C864 C 0.16529 0.85931 0.11498 0.0
C865 C 0.19216 0.93163 0.11711 0.0
C866 C 0.1695 0.83018 0.12264 0.0
C867 C 0.14111 0.81527 0.12864 0.0
C868 C 0.10791 0.82897 0.12693 0.0
C869 C 0.10414 0.85904 0.11969 0.0
C870 C 0.13249 0.87396 0.11376 0.0
H871 H 0.21096 0.9527 0.11874 0.0
H872 H 0.16783 0.94343 0.11375 0.0
H873 H 0.18702 0.91852 0.1262 0.0
H874 H 0.19457 0.81831 0.12364 0.0
H875 H 0.14496 0.79203 0.13408 0.0
H876 H 0.3544 0.02224 0.29512 0.0
H877 H 0.37484 0.9788 0.3099 0.0
H878 H 0.30636 0.01822 0.33837 0.0
H879 H 0.28576 0.06215 0.3236 0.0
H880 H 0.40662 0.98887 0.3331 0.0
H881 H 0.28503 0.91473 0.33837 0.0
H882 H 0.29151 0.94538 0.32583 0.0
H883 H 0.28228 0.96007 0.34151 0.0
C884 C 0.34384 0.02197 0.30456 0.0
C885 C 0.31853 0.04587 0.30818 0.0
C886 C 0.35541 0.99692 0.31297 0.0
C887 C 0.34188 0.99498 0.3252 0.0
C888 C 0.31668 0.0188 0.32891 0.0
H889 H 0.41354 0.85397 0.38485 0.0
H890 H 0.38096 0.89913 0.37391 0.0
C891 C 0.305 0.04393 0.32046 0.0
C892 C 0.35518 0.96849 0.33403 0.0
H893 H 0.33311 0.89537 0.35001 0.0
C894 C 0.39046 0.9686 0.33687 0.0
C895 C 0.33404 0.94209 0.33899 0.0
C896 C 0.29615 0.94021 0.33598 0.0
C897 C 0.40532 0.94269 0.34428 0.0
C898 C 0.38444 0.91574 0.34888 0.0
C899 C 0.34897 0.91613 0.34645 0.0
C900 C 0.3999 0.8858 0.35539 0.0
C901 C 0.44345 0.94393 0.34696 0.0
C902 C 0.4202 0.86268 0.34853 0.0
C903 C 0.43866 0.83693 0.35469 0.0
C904 C 0.43725 0.83372 0.36789 0.0
C905 C 0.41517 0.85564 0.37468 0.0
C906 C 0.39661 0.88152 0.36846 0.0
H907 H 0.45446 0.96978 0.34508 0.0
H908 H 0.44878 0.9369 0.35691 0.0
H909 H 0.45683 0.92506 0.34084 0.0
H910 H 0.42276 0.8654 0.33841 0.0
H911 H 0.45514 0.82037 0.34913 0.0
H912 H 0.76671 0.1249 0.54646 0.0
H913 H 0.72442 0.1412 0.56218 0.0
H914 H 0.74297 0.04659 0.58222 0.0
H915 H 0.78776 0.03139 0.56714 0.0
H916 H 0.66588 0.11507 0.56908 0.0
H917 H 0.75304 0.11206 0.61054 0.0
H918 H 0.76879 0.10793 0.59466 0.0
H919 H 0.74964 0.07164 0.60251 0.0
C920 C 0.76266 0.10782 0.55437 0.0
C921 C 0.78147 0.07701 0.55555 0.0
C922 C 0.73788 0.117 0.56328 0.0
C923 C 0.73073 0.09548 0.57356 0.0
C924 C 0.74855 0.06416 0.57459 0.0
H925 H 0.55423 0.16744 0.62047 0.0
H926 H 0.58808 0.12825 0.60713 0.0
C927 C 0.77391 0.05524 0.56579 0.0
C928 C 0.70486 0.10642 0.58315 0.0
H929 H 0.69516 0.12565 0.61435 0.0
C930 C 0.67222 0.11722 0.579 0.0
C931 C 0.71303 0.1092 0.59612 0.0
C932 C 0.7481 0.09991 0.60123 0.0
C933 C 0.64831 0.13231 0.58727 0.0
C934 C 0.65674 0.13561 0.6002 0.0
C935 C 0.6886 0.12299 0.60446 0.0
C936 C 0.63574 0.15673 0.60905 0.0
C937 C 0.61523 0.14648 0.58192 0.0
C938 C 0.65141 0.1848 0.61502 0.0
C939 C 0.6325 0.20656 0.62278 0.0
C940 C 0.59705 0.20124 0.62475 0.0
C941 C 0.58138 0.17245 0.6191 0.0
C942 C 0.60065 0.15022 0.61138 0.0
H943 H 0.61582 0.14793 0.57147 0.0
H944 H 0.59357 0.12947 0.58464 0.0
H945 H 0.60999 0.17259 0.58569 0.0
H946 H 0.67835 0.19051 0.61343 0.0
H947 H 0.64577 0.22823 0.62697 0.0
H948 H 0.71831 0.02246 0.30522 0.0
H949 H 0.69509 0.98596 0.32191 0.0
H950 H 0.62105 0.06449 0.33125 0.0
H951 H 0.64398 0.10109 0.31446 0.0
H952 H 0.6879 0.99475 0.34761 0.0
H953 H 0.56007 0.98168 0.32451 0.0
H954 H 0.59678 0.9998 0.31654 0.0
H955 H 0.57301 0.02512 0.32771 0.0
C956 C 0.69737 0.03216 0.31092 0.0
C957 C 0.68282 0.06458 0.30846 0.0
C958 C 0.68405 0.01122 0.32044 0.0
C959 C 0.65595 0.02224 0.32768 0.0
C960 C 0.6422 0.05513 0.32558 0.0
H961 H 0.53286 0.90239 0.38104 0.0
H962 H 0.55978 0.9513 0.3704 0.0
C963 C 0.65536 0.07602 0.316 0.0
C964 C 0.64056 0.99873 0.33714 0.0
H965 H 0.56732 0.95405 0.34404 0.0
C966 C 0.66147 0.986 0.34687 0.0
C967 C 0.60604 0.98735 0.33618 0.0
C968 C 0.58269 0.9989 0.32562 0.0
C969 C 0.64893 0.96188 0.35558 0.0
C970 C 0.61472 0.94994 0.35443 0.0
C971 C 0.5935 0.96341 0.34494 0.0
C972 C 0.60113 0.92147 0.36226 0.0
C973 C 0.67244 0.94924 0.3659 0.0
C974 C 0.6157 0.88858 0.36133 0.0
C975 C 0.60036 0.86058 0.36734 0.0
C976 C 0.57004 0.86486 0.3744 0.0
C977 C 0.5563 0.89815 0.37575 0.0
C978 C 0.57157 0.92615 0.36965 0.0
H979 H 0.69364 0.96773 0.36777 0.0
H980 H 0.658 0.94487 0.37478 0.0
H981 H 0.68414 0.92448 0.36297 0.0
H982 H 0.63813 0.88426 0.35549 0.0
H983 H 0.6117 0.83536 0.3661 0.0
H984 H 0.68238 0.99071 0.08208 0.0
H985 H 0.72025 0.96279 0.09745 0.0
H986 H 0.76137 0.89807 0.06809 0.0
H987 H 0.72315 0.92536 0.05277 0.0
H988 H 0.7507 0.8623 0.08958 0.0
H989 H 0.82186 0.98282 0.10017 0.0
H990 H 0.77647 0.98497 0.10315 0.0
H991 H 0.79175 0.97951 0.08729 0.0
C992 C 0.69946 0.97045 0.07893 0.0
C993 C 0.69996 0.96035 0.06621 0.0
C994 C 0.72115 0.95461 0.08771 0.0
C995 C 0.74417 0.92882 0.08388 0.0
C996 C 0.74389 0.91796 0.07126 0.0
H997 H 0.93696 0.86211 0.11202 0.0
H998 H 0.88764 0.89036 0.10251 0.0
C999 C 0.72197 0.93351 0.06252 0.0
C1000 C 0.76933 0.91365 0.09284 0.0
H1001 H 0.83866 0.93327 0.1113 0.0
C1002 C 0.7698 0.8778 0.09441 0.0
C1003 C 0.79441 0.93394 0.09906 0.0
C1004 C 0.79643 0.97239 0.09728 0.0
C1005 C 0.79517 0.86159 0.10174 0.0
C1006 C 0.82028 0.88189 0.10793 0.0
C1007 C 0.81921 0.9178 0.10665 0.0
C1008 C 0.85 0.86629 0.11463 0.0
C1009 C 0.79584 0.82281 0.10226 0.0
C1010 C 0.84543 0.84399 0.1249 0.0
C1011 C 0.87376 0.8274 0.13036 0.0
C1012 C 0.90722 0.8331 0.12573 0.0
C1013 C 0.91169 0.85682 0.11585 0.0
C1014 C 0.88343 0.87313 0.11037 0.0
H1015 H 0.77946 0.81106 0.09483 0.0
H1016 H 0.8225 0.81298 0.10116 0.0
H1017 H 0.78602 0.81417 0.11154 0.0
H1018 H 0.81992 0.83897 0.12855 0.0
H1019 H 0.86931 0.80957 0.13802 0.0
H1020 H 0.77615 0.97883 0.82594 0.0
H1021 H 0.7959 0.0248 0.8401 0.0
H1022 H 0.86817 0.0585 0.81193 0.0
H1023 H 0.84848 0.01305 0.79773 0.0
H1024 H 0.86711 0.0373 0.84868 0.0
H1025 H 0.81197 0.14637 0.82173 0.0
H1026 H 0.79706 0.10265 0.81988 0.0
H1027 H 0.83623 0.11632 0.81244 0.0
C1028 C 0.79613 0.99617 0.82275 0.0
C1029 C 0.81079 0.99226 0.81071 0.0
C1030 C 0.80743 0.02231 0.83086 0.0
C1031 C 0.83318 0.04528 0.82699 0.0
C1032 C 0.84797 0.0413 0.81503 0.0
H1033 H 0.96001 0.20914 0.85076 0.0
H1034 H 0.92383 0.16692 0.84023 0.0
C1035 C 0.83692 0.01509 0.80698 0.0
C1036 C 0.84537 0.07309 0.83546 0.0
H1037 H 0.85407 0.1603 0.83728 0.0
C1038 C 0.86384 0.06424 0.84634 0.0
C1039 C 0.84096 0.10815 0.83235 0.0
C1040 C 0.82022 0.11909 0.82103 0.0
C1041 C 0.87976 0.08952 0.85383 0.0
C1042 C 0.87639 0.12462 0.85047 0.0
C1043 C 0.85664 0.13344 0.83987 0.0
C1044 C 0.896 0.1522 0.85702 0.0
C1045 C 0.90161 0.07831 0.86485 0.0
C1046 C 0.89173 0.15883 0.86994 0.0
C1047 C 0.91263 0.18306 0.87607 0.0
C1048 C 0.93804 0.20117 0.86934 0.0
C1049 C 0.94095 0.19557 0.85629 0.0
C1050 C 0.92019 0.17141 0.85021 0.0
H1051 H 0.90712 0.05029 0.86462 0.0
H1052 H 0.92642 0.09245 0.86499 0.0
H1053 H 0.88782 0.08406 0.87375 0.0
H1054 H 0.87269 0.14486 0.87533 0.0
H1055 H 0.90958 0.18678 0.88612 0.0
H1056 H 0.79235 0.99179 0.4651 0.0
H1057 H 0.7484 0.96032 0.45327 0.0
H1058 H 0.73617 0.89001 0.4843 0.0
H1059 H 0.77971 0.92161 0.49631 0.0
H1060 H 0.7375 0.85829 0.4594 0.0
H1061 H 0.6449 0.96677 0.46318 0.0
H1062 H 0.68643 0.9777 0.45691 0.0
H1063 H 0.68279 0.96363 0.47297 0.0
C1064 C 0.78034 0.96964 0.46943 0.0
C1065 C 0.78938 0.95948 0.48172 0.0
C1066 C 0.75529 0.95163 0.46263 0.0
C1067 C 0.73871 0.92313 0.46798 0.0
C1068 C 0.74865 0.91197 0.48001 0.0
H1069 H 0.54325 0.83227 0.44762 0.0
H1070 H 0.5928 0.8576 0.45834 0.0
C1071 C 0.77368 0.93 0.48684 0.0
C1072 C 0.70989 0.906 0.46128 0.0
H1073 H 0.62795 0.9194 0.45069 0.0
C1074 C 0.71356 0.87161 0.45747 0.0
C1075 C 0.67853 0.92333 0.45893 0.0
C1076 C 0.67263 0.9598 0.46328 0.0
C1077 C 0.68678 0.85426 0.45119 0.0
C1078 C 0.6557 0.87186 0.44863 0.0
C1079 C 0.65193 0.90608 0.45258 0.0
C1080 C 0.62635 0.8551 0.44214 0.0
C1081 C 0.69156 0.81706 0.44756 0.0
C1082 C 0.62875 0.84543 0.42943 0.0
C1083 C 0.60035 0.83111 0.42321 0.0
C1084 C 0.56901 0.82616 0.42961 0.0
C1085 C 0.5669 0.83567 0.44238 0.0
C1086 C 0.59521 0.85016 0.44855 0.0
H1087 H 0.71413 0.80533 0.45234 0.0
H1088 H 0.66824 0.80188 0.44992 0.0
H1089 H 0.6956 0.81526 0.43723 0.0
H1090 H 0.65242 0.84946 0.42427 0.0
H1091 H 0.60295 0.82405 0.41339 0.0
H1092 H 0.85127 0.07942 0.22946 0.0
H1093 H 0.88349 0.03678 0.21717 0.0
H1094 H 0.8055 0.96094 0.22499 0.0
H1095 H 0.77331 0.00316 0.23725 0.0
H1096 H 0.91069 0.97346 0.22414 0.0
H1097 H 0.81267 0.95727 0.18669 0.0
H1098 H 0.81164 0.9925 0.19776 0.0
H1099 H 0.79556 0.95085 0.20221 0.0
C1100 C 0.84107 0.05362 0.22859 0.0
C1101 C 0.8095 0.04482 0.23421 0.0
C1102 C 0.85945 0.02933 0.22154 0.0
C1103 C 0.84655 0.99588 0.21995 0.0
C1104 C 0.81548 0.98685 0.2258 0.0
H1105 H 0.94658 0.80678 0.19936 0.0
H1106 H 0.92174 0.85657 0.21 0.0
C1107 C 0.7971 0.01105 0.2328 0.0
C1108 C 0.86565 0.97009 0.21237 0.0
H1109 H 0.85677 0.91453 0.18766 0.0
C1110 C 0.89905 0.96078 0.21609 0.0
C1111 C 0.8507 0.95399 0.20173 0.0
C1112 C 0.81581 0.96438 0.19677 0.0
C1113 C 0.91735 0.93483 0.20976 0.0
C1114 C 0.90155 0.91736 0.19958 0.0
C1115 C 0.86871 0.92763 0.19556 0.0
C1116 C 0.91813 0.88774 0.19317 0.0
C1117 C 0.95345 0.92644 0.21401 0.0
C1118 C 0.92374 0.88837 0.18011 0.0
C1119 C 0.93768 0.85977 0.17395 0.0
C1120 C 0.94607 0.82981 0.18073 0.0
C1121 C 0.94051 0.82937 0.19383 0.0
C1122 C 0.92656 0.85797 0.19996 0.0
H1123 H 0.96535 0.94835 0.21913 0.0
H1124 H 0.95265 0.90415 0.22052 0.0
H1125 H 0.9701 0.9196 0.20589 0.0
H1126 H 0.9172 0.911 0.17466 0.0
H1127 H 0.94158 0.86108 0.16386 0.0
H1128 H 0.75723 0.02459 0.99252 0.0
H1129 H 0.80077 0.04151 0.97703 0.0
H1130 H 0.73039 0.11578 0.96137 0.0
H1131 H 0.68677 0.09906 0.97679 0.0
H1132 H 0.80176 0.04561 0.94983 0.0
H1133 H 0.814 0.17308 0.97294 0.0
H1134 H 0.79224 0.13734 0.98027 0.0
H1135 H 0.77078 0.16241 0.9684 0.0
C1136 C 0.75082 0.04411 0.98564 0.0
C1137 C 0.71867 0.06079 0.98598 0.0
C1138 C 0.77575 0.05377 0.97681 0.0
C1139 C 0.76898 0.08025 0.96819 0.0
C1140 C 0.73634 0.0957 0.9681 0.0
H1141 H 0.87817 0.20578 0.91616 0.0
H1142 H 0.83524 0.16981 0.92658 0.0
C1143 C 0.71149 0.08619 0.97693 0.0
C1144 C 0.7966 0.09347 0.95987 0.0
H1145 H 0.8424 0.16613 0.95339 0.0
C1146 C 0.81085 0.07189 0.95062 0.0
C1147 C 0.8087 0.12761 0.96105 0.0
C1148 C 0.79593 0.1514 0.97128 0.0
C1149 C 0.83598 0.08412 0.94218 0.0
C1150 C 0.84713 0.1186 0.94313 0.0
C1151 C 0.83349 0.13978 0.95259 0.0
C1152 C 0.87231 0.13415 0.93434 0.0
C1153 C 0.8498 0.06058 0.9321 0.0
C1154 C 0.90732 0.12506 0.93476 0.0
C1155 C 0.93196 0.14549 0.92866 0.0
C1156 C 0.92173 0.17528 0.9222 0.0
C1157 C 0.88656 0.18274 0.92102 0.0
C1158 C 0.86207 0.1623 0.92699 0.0
H1159 H 0.83477 0.03635 0.93139 0.0
H1160 H 0.8495 0.0737 0.92281 0.0
H1161 H 0.87691 0.05395 0.93432 0.0
H1162 H 0.91581 0.10376 0.94055 0.0
H1163 H 0.95902 0.13969 0.92988 0.0
H1164 H 0.73136 0.97021 0.72043 0.0
H1165 H 0.70956 0.01511 0.70643 0.0
H1166 H 0.6436 0.05233 0.73608 0.0
H1167 H 0.66625 0.0084 0.75031 0.0
H1168 H 0.64495 0.02943 0.69785 0.0
H1169 H 0.69457 0.1391 0.72585 0.0
H1170 H 0.70775 0.0953 0.72872 0.0
H1171 H 0.66736 0.11081 0.73473 0.0
C1172 C 0.71241 0.9881 0.72403 0.0
C1173 C 0.70085 0.98581 0.73657 0.0
C1174 C 0.69981 0.01365 0.71597 0.0
C1175 C 0.67546 0.03757 0.72026 0.0
C1176 C 0.66297 0.03467 0.73263 0.0
H1177 H 0.5446 0.17032 0.67599 0.0
H1178 H 0.57024 0.1244 0.68842 0.0
C1179 C 0.67561 0.00918 0.74071 0.0
C1180 C 0.66306 0.06541 0.71178 0.0
H1181 H 0.65587 0.15271 0.70918 0.0
C1182 C 0.64748 0.05639 0.7003 0.0
C1183 C 0.66695 0.10065 0.71485 0.0
C1184 C 0.68537 0.11214 0.72664 0.0
C1185 C 0.63485 0.08154 0.69199 0.0
C1186 C 0.63729 0.11671 0.69534 0.0
C1187 C 0.65371 0.12577 0.70665 0.0
C1188 C 0.6221 0.14443 0.68743 0.0
C1189 C 0.61935 0.07018 0.67963 0.0
C1190 C 0.64254 0.17159 0.68294 0.0
C1191 C 0.62786 0.19828 0.67587 0.0
C1192 C 0.59238 0.19838 0.6732 0.0
C1193 C 0.57207 0.17105 0.67772 0.0
C1194 C 0.58672 0.14455 0.6848 0.0
H1195 H 0.62882 0.04435 0.67681 0.0
H1196 H 0.59098 0.0686 0.68064 0.0
H1197 H 0.62531 0.0887 0.67198 0.0
H1198 H 0.66988 0.17216 0.68493 0.0
H1199 H 0.64426 0.21891 0.67258 0.0
H1200 H 0.74665 0.43676 0.99491 0.0
H1201 H 0.79025 0.42651 0.97889 0.0
H1202 H 0.75236 0.51264 0.95742 0.0
H1203 H 0.70745 0.5223 0.97323 0.0
H1204 H 0.76438 0.45747 0.94251 0.0
H1205 H 0.87797 0.47924 0.97264 0.0
H1206 H 0.8498 0.4483 0.97969 0.0
H1207 H 0.83518 0.49183 0.97738 0.0
C1208 C 0.74725 0.45339 0.98674 0.0
C1209 C 0.72337 0.48032 0.98538 0.0
C1210 C 0.77266 0.44784 0.97767 0.0
C1211 C 0.77518 0.46932 0.96709 0.0
C1212 C 0.75121 0.49602 0.96559 0.0
H1213 H 0.9564 0.40959 0.92226 0.0
H1214 H 0.91507 0.45082 0.93133 0.0
C1215 C 0.72564 0.50158 0.97467 0.0
C1216 C 0.80185 0.4624 0.95738 0.0
H1217 H 0.88704 0.44282 0.95432 0.0
C1218 C 0.79133 0.45501 0.94502 0.0
C1219 C 0.83723 0.46017 0.96048 0.0
C1220 C 0.85074 0.47072 0.97324 0.0
C1221 C 0.81472 0.44248 0.93603 0.0
C1222 C 0.84934 0.43651 0.93959 0.0
C1223 C 0.86044 0.44688 0.95159 0.0
C1224 C 0.87273 0.41464 0.93193 0.0
C1225 C 0.80181 0.43466 0.92294 0.0
C1226 C 0.86254 0.38097 0.92904 0.0
C1227 C 0.88591 0.35768 0.92395 0.0
C1228 C 0.92017 0.36735 0.92167 0.0
C1229 C 0.93006 0.40159 0.92383 0.0
C1230 C 0.90654 0.42504 0.92906 0.0
H1231 H 0.78088 0.45267 0.92022 0.0
H1232 H 0.82273 0.43635 0.91585 0.0
H1233 H 0.79096 0.40827 0.92274 0.0
H1234 H 0.83701 0.37194 0.93143 0.0
H1235 H 0.87754 0.33145 0.92235 0.0
H1236 H 0.83514 0.46517 0.22629 0.0
H1237 H 0.8461 0.5093 0.21042 0.0
H1238 H 0.74431 0.55048 0.21612 0.0
H1239 H 0.73331 0.50662 0.23224 0.0
H1240 H 0.80832 0.52717 0.1875 0.0
H1241 H 0.81098 0.63233 0.22324 0.0
H1242 H 0.81449 0.58766 0.22766 0.0
H1243 H 0.77381 0.60478 0.22272 0.0
C1244 C 0.81505 0.48358 0.22417 0.0
C1245 C 0.78349 0.48261 0.23062 0.0
C1246 C 0.82125 0.50862 0.21503 0.0
C1247 C 0.79615 0.53335 0.21219 0.0
C1248 C 0.76413 0.53181 0.21827 0.0
H1249 H 0.86492 0.71918 0.17166 0.0
H1250 H 0.82182 0.67818 0.17972 0.0
C1251 C 0.75782 0.5066 0.2274 0.0
C1252 C 0.80469 0.56157 0.20334 0.0
H1253 H 0.82926 0.64583 0.20286 0.0
C1254 C 0.81224 0.5533 0.19078 0.0
C1255 C 0.80941 0.59573 0.2076 0.0
C1256 C 0.80196 0.60589 0.22104 0.0
C1257 C 0.82625 0.57784 0.18255 0.0
C1258 C 0.83357 0.61125 0.1871 0.0
C1259 C 0.82363 0.62021 0.19938 0.0
C1260 C 0.85689 0.63494 0.18023 0.0
C1261 C 0.83429 0.56735 0.1692 0.0
C1262 C 0.8906 0.62414 0.1777 0.0
C1263 C 0.91499 0.64734 0.17326 0.0
C1264 C 0.90633 0.68195 0.17122 0.0
C1265 C 0.87214 0.69256 0.17307 0.0
C1266 C 0.84762 0.66923 0.1777 0.0
H1267 H 0.81611 0.54727 0.16585 0.0
H1268 H 0.8331 0.58964 0.16268 0.0
H1269 H 0.8606 0.55631 0.16884 0.0
H1270 H 0.89865 0.59813 0.17984 0.0
H1271 H 0.94114 0.63844 0.17187 0.0
H1272 H 0.75998 0.58305 0.49828 0.0
H1273 H 0.7147 0.6141 0.48714 0.0
H1274 H 0.77563 0.61321 0.45325 0.0
H1275 H 0.82182 0.58303 0.46445 0.0
H1276 H 0.74206 0.6771 0.45807 0.0
H1277 H 0.65184 0.56683 0.46131 0.0
H1278 H 0.66903 0.5805 0.4762 0.0
H1279 H 0.69729 0.5627 0.46449 0.0
C1280 C 0.76417 0.58997 0.48852 0.0
C1281 C 0.79463 0.58039 0.48227 0.0
C1282 C 0.738 0.60739 0.48212 0.0
C1283 C 0.74152 0.61541 0.46931 0.0
C1284 C 0.77229 0.60702 0.46312 0.0
H1285 H 0.60316 0.70629 0.41371 0.0
H1286 H 0.65297 0.68212 0.42468 0.0
C1287 C 0.79856 0.58957 0.46952 0.0
C1288 C 0.71264 0.63168 0.46233 0.0
H1289 H 0.62878 0.61939 0.45376 0.0
C1290 C 0.71734 0.66445 0.45705 0.0
C1291 C 0.68043 0.61507 0.461 0.0
C1292 C 0.67431 0.57921 0.46594 0.0
C1293 C 0.69036 0.6814 0.45075 0.0
C1294 C 0.65808 0.66488 0.44956 0.0
C1295 C 0.65351 0.63204 0.45475 0.0
C1296 C 0.62854 0.68112 0.44298 0.0
C1297 C 0.69628 0.71715 0.4457 0.0
C1298 C 0.59811 0.68821 0.44959 0.0
C1299 C 0.56954 0.70194 0.44335 0.0
C1300 C 0.57066 0.70855 0.43032 0.0
C1301 C 0.60131 0.70154 0.42374 0.0
C1302 C 0.62994 0.68793 0.43001 0.0
H1303 H 0.7195 0.72929 0.44989 0.0
H1304 H 0.69997 0.7158 0.43534 0.0
H1305 H 0.67369 0.73386 0.44757 0.0
H1306 H 0.59645 0.68298 0.45959 0.0
H1307 H 0.54645 0.70701 0.44874 0.0
H1308 H 0.61587 0.53209 0.76801 0.0
H1309 H 0.59447 0.48577 0.75448 0.0
H1310 H 0.65801 0.52238 0.72407 0.0
H1311 H 0.67917 0.56908 0.73743 0.0
H1312 H 0.56104 0.48762 0.73015 0.0
H1313 H 0.68702 0.42067 0.72891 0.0
H1314 H 0.677 0.45351 0.74036 0.0
H1315 H 0.6891 0.46527 0.7246 0.0
C1316 C 0.62493 0.53066 0.75838 0.0
C1317 C 0.64945 0.55427 0.75384 0.0
C1318 C 0.61277 0.50403 0.75069 0.0
C1319 C 0.62506 0.50033 0.73835 0.0
C1320 C 0.6487 0.52439 0.73366 0.0
H1321 H 0.60653 0.37364 0.67387 0.0
H1322 H 0.61865 0.41509 0.69036 0.0
C1323 C 0.66082 0.55104 0.74132 0.0
C1324 C 0.61384 0.47096 0.73041 0.0
H1325 H 0.64473 0.40168 0.71425 0.0
C1326 C 0.57917 0.46856 0.72676 0.0
C1327 C 0.63752 0.44596 0.72614 0.0
C1328 C 0.67468 0.44617 0.73028 0.0
C1329 C 0.56796 0.4428 0.71838 0.0
C1330 C 0.59201 0.41861 0.71373 0.0
C1331 C 0.62635 0.42031 0.71779 0.0
C1332 C 0.58308 0.39322 0.70379 0.0
C1333 C 0.53089 0.44258 0.71414 0.0
C1334 C 0.55899 0.36687 0.70585 0.0
C1335 C 0.55182 0.3428 0.69633 0.0
C1336 C 0.56877 0.34465 0.68463 0.0
C1337 C 0.59288 0.37117 0.6827 0.0
C1338 C 0.59994 0.39503 0.69216 0.0
H1339 H 0.51721 0.46657 0.71682 0.0
H1340 H 0.5292 0.43932 0.70376 0.0
H1341 H 0.51736 0.42059 0.71857 0.0
H1342 H 0.54605 0.36468 0.71484 0.0
H1343 H 0.5331 0.32281 0.69816 0.0
H1344 H 0.71023 0.53441 0.07923 0.0
H1345 H 0.7557 0.55875 0.09256 0.0
H1346 H 0.78285 0.62933 0.0629 0.0
H1347 H 0.73777 0.60493 0.04947 0.0
H1348 H 0.83952 0.58884 0.07415 0.0
H1349 H 0.75842 0.65643 0.10958 0.0
H1350 H 0.74767 0.61248 0.10599 0.0
H1351 H 0.74241 0.64495 0.09416 0.0
C1352 C 0.72579 0.55522 0.07557 0.0
C1353 C 0.72031 0.5678 0.06329 0.0
C1354 C 0.7516 0.56922 0.08322 0.0
C1355 C 0.77247 0.59597 0.07874 0.0
C1356 C 0.76689 0.60879 0.06656 0.0
H1357 H 0.94435 0.71926 0.10038 0.0
H1358 H 0.90107 0.68457 0.08976 0.0
C1359 C 0.74095 0.595 0.05893 0.0
C1360 C 0.80103 0.6098 0.08652 0.0
H1361 H 0.81844 0.65888 0.11244 0.0
C1362 C 0.83496 0.60404 0.08256 0.0
C1363 C 0.79498 0.62921 0.09756 0.0
C1364 C 0.75894 0.63644 0.10211 0.0
C1365 C 0.86307 0.61758 0.08925 0.0
C1366 C 0.85704 0.6382 0.10002 0.0
C1367 C 0.82308 0.64309 0.10419 0.0
C1368 C 0.88526 0.65708 0.1065 0.0
C1369 C 0.89897 0.60954 0.08472 0.0
C1370 C 0.89071 0.65353 0.11953 0.0
C1371 C 0.91546 0.67367 0.12571 0.0
C1372 C 0.93499 0.69798 0.11898 0.0
C1373 C 0.92996 0.70077 0.10588 0.0
C1374 C 0.90529 0.68073 0.09975 0.0
H1375 H 0.89966 0.58493 0.07941 0.0
H1376 H 0.90765 0.63021 0.07827 0.0
H1377 H 0.91741 0.60788 0.0927 0.0
H1378 H 0.87538 0.6356 0.12495 0.0
H1379 H 0.91843 0.671 0.13581 0.0
H1380 H 0.74283 0.49789 0.31571 0.0
H1381 H 0.71569 0.53426 0.33161 0.0
H1382 H 0.62443 0.47124 0.33014 0.0
H1383 H 0.65132 0.43508 0.31401 0.0
H1384 H 0.60852 0.53726 0.32851 0.0
H1385 H 0.69837 0.52114 0.36848 0.0
H1386 H 0.72039 0.53466 0.35451 0.0
H1387 H 0.69931 0.49341 0.35484 0.0
C1388 C 0.71723 0.49139 0.31895 0.0
C1389 C 0.69925 0.46355 0.31364 0.0
C1390 C 0.70178 0.51212 0.32809 0.0
C1391 C 0.66824 0.50512 0.33228 0.0
C1392 C 0.6504 0.47703 0.32711 0.0
H1393 H 0.5349 0.62634 0.38229 0.0
H1394 H 0.56295 0.57722 0.3721 0.0
C1395 C 0.66573 0.45647 0.31787 0.0
C1396 C 0.65086 0.52878 0.34126 0.0
H1397 H 0.66095 0.57059 0.36938 0.0
C1398 C 0.61971 0.54404 0.33754 0.0
C1399 C 0.66539 0.53764 0.35307 0.0
C1400 C 0.69752 0.52056 0.35802 0.0
C1401 C 0.60351 0.56893 0.34505 0.0
C1402 C 0.61883 0.57879 0.35657 0.0
C1403 C 0.64941 0.56296 0.3605 0.0
C1404 C 0.60439 0.60723 0.36415 0.0
C1405 C 0.57074 0.58554 0.34044 0.0
C1406 C 0.61904 0.64005 0.36332 0.0
C1407 C 0.60305 0.66816 0.36905 0.0
C1408 C 0.57221 0.6639 0.3758 0.0
C1409 C 0.55867 0.63054 0.37721 0.0
C1410 C 0.57456 0.60245 0.37136 0.0
H1411 H 0.56346 0.57677 0.33084 0.0
H1412 H 0.54941 0.57926 0.34699 0.0
H1413 H 0.57367 0.61394 0.34034 0.0
H1414 H 0.64208 0.64416 0.35778 0.0
H1415 H 0.61433 0.69341 0.36784 0.0
H1416 H 0.81199 0.42728 0.5601 0.0
H1417 H 0.76504 0.40681 0.57357 0.0
H1418 H 0.69497 0.4122 0.54212 0.0
H1419 H 0.74156 0.43312 0.52866 0.0
H1420 H 0.66953 0.44172 0.5652 0.0
H1421 H 0.72058 0.30947 0.57157 0.0
H1422 H 0.75063 0.34335 0.575 0.0
H1423 H 0.73522 0.33768 0.55917 0.0
C1424 C 0.78656 0.42424 0.55607 0.0
C1425 C 0.78059 0.43156 0.54328 0.0
C1426 C 0.75983 0.4123 0.56375 0.0
C1427 C 0.72664 0.40757 0.55879 0.0
C1428 C 0.72045 0.41544 0.5461 0.0
H1429 H 0.5662 0.29391 0.59885 0.0
H1430 H 0.60131 0.31757 0.58176 0.0
C1431 C 0.74716 0.42716 0.53841 0.0
C1432 C 0.69832 0.39464 0.56686 0.0
H1433 H 0.67322 0.32553 0.5844 0.0
C1434 C 0.67018 0.41625 0.56934 0.0
C1435 C 0.69897 0.36121 0.57207 0.0
C1436 C 0.72779 0.33638 0.56926 0.0
C1437 C 0.64326 0.40571 0.57729 0.0
C1438 C 0.64466 0.37281 0.58293 0.0
C1439 C 0.67221 0.35079 0.58009 0.0
C1440 C 0.61918 0.36144 0.59246 0.0
C1441 C 0.6136 0.42988 0.57961 0.0
C1442 C 0.61694 0.37869 0.60404 0.0
C1443 C 0.59701 0.36525 0.6138 0.0
C1444 C 0.57887 0.33422 0.61221 0.0
C1445 C 0.57955 0.31802 0.60036 0.0
C1446 C 0.59979 0.33137 0.59061 0.0
H1447 H 0.61134 0.44942 0.57203 0.0
H1448 H 0.58893 0.4156 0.58031 0.0
H1449 H 0.61786 0.44363 0.58864 0.0
H1450 H 0.63205 0.40163 0.60575 0.0
H1451 H 0.59706 0.37839 0.6228 0.0
H1452 H 0.81461 0.53622 0.80383 0.0
H1453 H 0.84515 0.491 0.81523 0.0
H1454 H 0.79746 0.52349 0.84989 0.0
H1455 H 0.76707 0.56922 0.83858 0.0
H1456 H 0.8912 0.49706 0.83572 0.0
H1457 H 0.77612 0.41972 0.84845 0.0
H1458 H 0.77498 0.45277 0.83652 0.0
H1459 H 0.77455 0.46427 0.8529 0.0
C1460 C 0.81087 0.53411 0.8139 0.0
C1461 C 0.78831 0.55647 0.82027 0.0
C1462 C 0.82819 0.50803 0.82039 0.0
C1463 C 0.82319 0.50351 0.83337 0.0
C1464 C 0.80113 0.52602 0.83982 0.0
H1465 H 0.9121 0.35678 0.88666 0.0
H1466 H 0.87716 0.40145 0.8766 0.0
C1467 C 0.78381 0.55219 0.83334 0.0
C1468 C 0.84164 0.47557 0.84013 0.0
H1469 H 0.82962 0.40096 0.85657 0.0
C1470 C 0.87774 0.47603 0.84027 0.0
C1471 C 0.82403 0.44825 0.84612 0.0
C1472 C 0.78529 0.44589 0.84595 0.0
C1473 C 0.89673 0.45004 0.84627 0.0
C1474 C 0.87916 0.42234 0.85206 0.0
C1475 C 0.84303 0.42211 0.85209 0.0
C1476 C 0.89802 0.39324 0.85796 0.0
C1477 C 0.93547 0.45277 0.84653 0.0
C1478 C 0.92036 0.37289 0.85073 0.0
C1479 C 0.94036 0.34739 0.85643 0.0
C1480 C 0.93825 0.34143 0.86948 0.0
C1481 C 0.91442 0.3606 0.87659 0.0
C1482 C 0.89448 0.38625 0.87087 0.0
H1483 H 0.94424 0.47958 0.84488 0.0
H1484 H 0.94601 0.44384 0.85569 0.0
H1485 H 0.94639 0.43638 0.83897 0.0
H1486 H 0.92287 0.37724 0.8407 0.0
H1487 H 0.95816 0.33296 0.85063 0.0
H1488 H 0.32257 0.61281 0.06997 0.0
H1489 H 0.27916 0.63321 0.08491 0.0
H1490 H 0.20694 0.5588 0.07038 0.0
H1491 H 0.25055 0.53776 0.0557 0.0
H1492 H 0.22101 0.66314 0.07943 0.0
H1493 H 0.19067 0.54706 0.10731 0.0
H1494 H 0.22773 0.54948 0.09711 0.0
H1495 H 0.18594 0.53944 0.09074 0.0
C1496 C 0.29758 0.60048 0.07012 0.0
C1497 C 0.28999 0.57362 0.06169 0.0
C1498 C 0.2728 0.6121 0.07866 0.0
C1499 C 0.23982 0.59728 0.07893 0.0
C1500 C 0.23242 0.57003 0.07066 0.0
H1501 H 0.05719 0.70715 0.10113 0.0
H1502 H 0.1018 0.6744 0.09028 0.0
C1503 C 0.25735 0.55811 0.06221 0.0
C1504 C 0.21236 0.61247 0.08698 0.0
H1505 H 0.14944 0.59312 0.10834 0.0
C1506 C 0.20565 0.6478 0.08584 0.0
C1507 C 0.19247 0.59268 0.09549 0.0
C1508 C 0.1998 0.55515 0.09784 0.0
C1509 C 0.17916 0.66368 0.09266 0.0
C1510 C 0.15796 0.64353 0.10059 0.0
C1511 C 0.16528 0.60842 0.10208 0.0
C1512 C 0.1281 0.65877 0.10731 0.0
C1513 C 0.1744 0.70206 0.09138 0.0
C1514 C 0.1267 0.65896 0.12054 0.0
C1515 C 0.10078 0.67726 0.12681 0.0
C1516 C 0.07597 0.69578 0.11993 0.0
C1517 C 0.07617 0.69353 0.10671 0.0
C1518 C 0.10179 0.67499 0.10048 0.0
H1519 H 0.19829 0.71483 0.08805 0.0
H1520 H 0.15387 0.70728 0.08437 0.0
H1521 H 0.16673 0.71385 0.10049 0.0
H1522 H 0.14659 0.64634 0.126 0.0
H1523 H 0.10139 0.67855 0.137 0.0
H1524 H 0.13533 0.55999 0.79798 0.0
H1525 H 0.10985 0.524 0.81427 0.0
H1526 H 0.20161 0.53457 0.83682 0.0
H1527 H 0.22662 0.57227 0.82088 0.0
H1528 H 0.13286 0.46326 0.82171 0.0
H1529 H 0.12835 0.55004 0.86307 0.0
H1530 H 0.13601 0.56552 0.84729 0.0
H1531 H 0.17052 0.54688 0.8563 0.0
C1532 C 0.14981 0.55552 0.80654 0.0
C1533 C 0.18308 0.5692 0.80808 0.0
C1534 C 0.13526 0.53465 0.81582 0.0
C1535 C 0.1536 0.52687 0.82686 0.0
C1536 C 0.18662 0.54078 0.82853 0.0
H1537 H 0.1164 0.34267 0.87027 0.0
H1538 H 0.14229 0.38978 0.85839 0.0
C1539 C 0.20112 0.56191 0.81928 0.0
C1540 C 0.13922 0.50194 0.83605 0.0
H1541 H 0.11925 0.4902 0.86712 0.0
C1542 C 0.12972 0.46928 0.83162 0.0
C1543 C 0.13477 0.50987 0.84897 0.0
C1544 C 0.14261 0.5451 0.85418 0.0
C1545 C 0.1164 0.4442 0.83974 0.0
C1546 C 0.11335 0.45158 0.85275 0.0
C1547 C 0.12216 0.48443 0.85718 0.0
C1548 C 0.10053 0.42538 0.86174 0.0
C1549 C 0.10517 0.41018 0.83424 0.0
C1550 C 0.06953 0.43055 0.86825 0.0
C1551 C 0.05485 0.40376 0.87523 0.0
C1552 C 0.07091 0.37136 0.87572 0.0
C1553 C 0.10316 0.36716 0.86993 0.0
C1554 C 0.11793 0.394 0.86309 0.0
H1555 H 0.10049 0.41203 0.82393 0.0
H1556 H 0.12573 0.39084 0.83578 0.0
H1557 H 0.08131 0.40077 0.83883 0.0
H1558 H 0.0558 0.45467 0.86739 0.0
H1559 H 0.02994 0.40779 0.87955 0.0
H1560 H 0.21501 0.48667 0.57614 0.0
H1561 H 0.26026 0.46246 0.5895 0.0
H1562 H 0.28911 0.39314 0.5596 0.0
H1563 H 0.24374 0.41707 0.54622 0.0
H1564 H 0.28532 0.36043 0.58178 0.0
H1565 H 0.36292 0.47874 0.58776 0.0
H1566 H 0.3189 0.48444 0.59239 0.0
H1567 H 0.32902 0.47523 0.57619 0.0
C1568 C 0.23113 0.46642 0.57238 0.0
C1569 C 0.22577 0.45386 0.5601 0.0
C1570 C 0.25714 0.45273 0.58001 0.0
C1571 C 0.27866 0.42649 0.57547 0.0
C1572 C 0.27301 0.41353 0.56329 0.0
H1573 H 0.46302 0.34226 0.61255 0.0
H1574 H 0.42512 0.37493 0.59832 0.0
C1575 C 0.24688 0.42707 0.55568 0.0
C1576 C 0.30607 0.41154 0.5836 0.0
H1577 H 0.37631 0.43193 0.60159 0.0
C1578 C 0.30534 0.37608 0.58602 0.0
C1579 C 0.33262 0.43179 0.58899 0.0
C1580 C 0.33621 0.46959 0.5861 0.0
C1581 C 0.32961 0.36054 0.59399 0.0
C1582 C 0.35497 0.3811 0.59992 0.0
C1583 C 0.35656 0.41633 0.59717 0.0
C1584 C 0.37907 0.36627 0.60932 0.0
C1585 C 0.32791 0.32215 0.59601 0.0
C1586 C 0.36605 0.35221 0.62048 0.0
C1587 C 0.38747 0.33371 0.62856 0.0
C1588 C 0.4225 0.32912 0.6257 0.0
C1589 C 0.43619 0.34554 0.61502 0.0
C1590 C 0.41454 0.36399 0.60686 0.0
H1591 H 0.3133 0.30909 0.58838 0.0
H1592 H 0.3541 0.3108 0.5965 0.0
H1593 H 0.31466 0.3168 0.60505 0.0
H1594 H 0.33892 0.35429 0.62269 0.0
H1595 H 0.37626 0.32166 0.63679 0.0
H1596 H 0.32857 0.51069 0.29761 0.0
H1597 H 0.35254 0.55501 0.31134 0.0
H1598 H 0.3072 0.50552 0.34363 0.0
H1599 H 0.28408 0.46021 0.32999 0.0
H1600 H 0.31764 0.60042 0.32698 0.0
H1601 H 0.40726 0.51824 0.35459 0.0
H1602 H 0.38757 0.50388 0.3401 0.0
H1603 H 0.36316 0.50438 0.35446 0.0
C1604 C 0.32419 0.50877 0.30766 0.0
C1605 C 0.30465 0.48159 0.31269 0.0
C1606 C 0.33765 0.53438 0.31548 0.0
C1607 C 0.33201 0.53342 0.32853 0.0
C1608 C 0.31238 0.5065 0.33362 0.0
H1609 H 0.41483 0.6736 0.38616 0.0
H1610 H 0.3785 0.6307 0.37564 0.0
C1611 C 0.29889 0.48079 0.32578 0.0
C1612 C 0.3463 0.56108 0.33667 0.0
H1613 H 0.40417 0.57677 0.36025 0.0
C1614 C 0.33643 0.59522 0.33429 0.0
C1615 C 0.37067 0.55428 0.34627 0.0
C1616 C 0.38309 0.51828 0.34898 0.0
C1617 C 0.35066 0.62274 0.34111 0.0
C1618 C 0.37576 0.61602 0.35044 0.0
C1619 C 0.38483 0.58184 0.35311 0.0
C1620 C 0.39497 0.64411 0.35681 0.0
C1621 C 0.33881 0.65882 0.33823 0.0
C1622 C 0.41604 0.66604 0.34972 0.0
C1623 C 0.43681 0.69045 0.35567 0.0
C1624 C 0.43705 0.69347 0.36888 0.0
C1625 C 0.41507 0.67219 0.37597 0.0
C1626 C 0.39442 0.64754 0.36998 0.0
H1627 H 0.31296 0.65895 0.33374 0.0
H1628 H 0.33789 0.67476 0.3469 0.0
H1629 H 0.35717 0.67093 0.33157 0.0
H1630 H 0.41735 0.66348 0.33957 0.0
H1631 H 0.45342 0.70634 0.34992 0.0
H1632 H 0.24565 0.50331 0.98895 0.0
H1633 H 0.20199 0.47346 0.97651 0.0
H1634 H 0.274 0.39187 0.96872 0.0
H1635 H 0.31796 0.42163 0.9812 0.0
H1636 H 0.20129 0.45437 0.95165 0.0
H1637 H 0.1915 0.3395 0.98247 0.0
H1638 H 0.21361 0.37815 0.98727 0.0
H1639 H 0.23412 0.34819 0.97679 0.0
C1640 C 0.25238 0.47918 0.9845 0.0
C1641 C 0.28537 0.46488 0.98609 0.0
C1642 C 0.2273 0.46205 0.97743 0.0
C1643 C 0.23451 0.43017 0.97182 0.0
C1644 C 0.26757 0.41605 0.97319 0.0
H1645 H 0.10106 0.33618 0.91467 0.0
H1646 H 0.14962 0.36249 0.92573 0.0
C1647 C 0.2927 0.43313 0.98031 0.0
C1648 C 0.20731 0.41203 0.96452 0.0
H1649 H 0.15939 0.33839 0.96352 0.0
C1650 C 0.19218 0.42897 0.95422 0.0
C1651 C 0.19514 0.37905 0.96797 0.0
C1652 C 0.20915 0.36021 0.97929 0.0
C1653 C 0.16523 0.41391 0.94731 0.0
C1654 C 0.15347 0.38069 0.95063 0.0
C1655 C 0.16862 0.36372 0.96091 0.0
C1656 C 0.12448 0.36371 0.9439 0.0
C1657 C 0.14892 0.43418 0.93676 0.0
C1658 C 0.09455 0.35465 0.9505 0.0
C1659 C 0.06682 0.33934 0.94423 0.0
C1660 C 0.06841 0.33266 0.93121 0.0
C1661 C 0.09873 0.3412 0.92467 0.0
C1662 C 0.12651 0.35643 0.93097 0.0
H1663 H 0.15491 0.46205 0.93747 0.0
H1664 H 0.15897 0.42474 0.92761 0.0
H1665 H 0.12053 0.43093 0.93674 0.0
H1666 H 0.09245 0.35986 0.96049 0.0
H1667 H 0.04402 0.33301 0.94961 0.0
H1668 H 0.26642 0.51151 0.73428 0.0
H1669 H 0.29264 0.46719 0.72111 0.0
H1670 H 0.38401 0.52915 0.71737 0.0
H1671 H 0.35783 0.57391 0.73048 0.0
H1672 H 0.31655 0.47202 0.69627 0.0
H1673 H 0.42203 0.43618 0.72911 0.0
H1674 H 0.38547 0.46148 0.73401 0.0
H1675 H 0.41984 0.48109 0.72528 0.0
C1676 C 0.292 0.51593 0.73058 0.0
C1677 C 0.30998 0.54639 0.73345 0.0
C1678 C 0.30701 0.49043 0.7231 0.0
C1679 C 0.34043 0.49463 0.71838 0.0
C1680 C 0.35845 0.52504 0.72113 0.0
H1681 H 0.47373 0.36464 0.67314 0.0
H1682 H 0.44772 0.41135 0.68514 0.0
C1683 C 0.34344 0.55062 0.72862 0.0
C1684 C 0.35603 0.46733 0.71041 0.0
H1685 H 0.42265 0.41016 0.70898 0.0
C1686 C 0.33971 0.45842 0.69905 0.0
C1687 C 0.3863 0.44969 0.71403 0.0
C1688 C 0.40435 0.4573 0.72632 0.0
C1689 C 0.35305 0.43265 0.69115 0.0
C1690 C 0.38313 0.41476 0.69484 0.0
C1691 C 0.39956 0.42382 0.70616 0.0
C1692 C 0.39816 0.38662 0.68709 0.0
C1693 C 0.33521 0.42541 0.6788 0.0
C1694 C 0.37902 0.35698 0.68421 0.0
C1695 C 0.39378 0.33014 0.67725 0.0
C1696 C 0.42813 0.33226 0.67316 0.0
C1697 C 0.44717 0.36206 0.67607 0.0
C1698 C 0.43237 0.38884 0.68298 0.0
H1699 H 0.31895 0.44741 0.67577 0.0
H1700 H 0.35411 0.41975 0.67124 0.0
H1701 H 0.31822 0.40269 0.67991 0.0
H1702 H 0.35282 0.3543 0.68752 0.0
H1703 H 0.37843 0.30753 0.67527 0.0
H1704 H 0.24495 0.58969 0.49254 0.0
H1705 H 0.28832 0.60282 0.47672 0.0
H1706 H 0.25741 0.51397 0.45519 0.0
H1707 H 0.21267 0.50137 0.47078 0.0
H1708 H 0.3435 0.56347 0.46877 0.0
H1709 H 0.25394 0.59091 0.42904 0.0
H1710 H 0.2393 0.58777 0.44512 0.0
H1711 H 0.25001 0.54958 0.43646 0.0
C1712 C 0.24683 0.57321 0.48435 0.0
C1713 C 0.22492 0.5447 0.48289 0.0
C1714 C 0.27198 0.58054 0.47537 0.0
C1715 C 0.27596 0.55957 0.46471 0.0
C1716 C 0.2545 0.5308 0.46325 0.0
H1717 H 0.45754 0.62628 0.42002 0.0
H1718 H 0.41725 0.58359 0.42881 0.0
C1719 C 0.22913 0.52348 0.47224 0.0
C1720 C 0.30258 0.56852 0.45524 0.0
H1721 H 0.31253 0.60142 0.42565 0.0
C1722 C 0.33692 0.57117 0.45925 0.0
C1723 C 0.29386 0.57844 0.44281 0.0
C1724 C 0.25729 0.57682 0.43806 0.0
C1725 C 0.36235 0.58562 0.45149 0.0
C1726 C 0.35329 0.59715 0.43929 0.0
C1727 C 0.31944 0.59232 0.43497 0.0
C1728 C 0.37627 0.62031 0.43202 0.0
C1729 C 0.39805 0.59082 0.45678 0.0
C1730 C 0.366 0.65452 0.43034 0.0
C1731 C 0.38865 0.67858 0.42535 0.0
C1732 C 0.42223 0.66909 0.42186 0.0
C1733 C 0.43188 0.63432 0.42268 0.0
C1734 C 0.409 0.61003 0.42778 0.0
H1735 H 0.39963 0.58416 0.46694 0.0
H1736 H 0.4165 0.5743 0.45159 0.0
H1737 H 0.40625 0.61797 0.45559 0.0
H1738 H 0.34089 0.66307 0.43348 0.0
H1739 H 0.38021 0.70506 0.42464 0.0
H1740 H 0.16576 0.45882 0.22956 0.0
H1741 H 0.15457 0.50221 0.2134 0.0
H1742 H 0.25545 0.54534 0.21945 0.0
H1743 H 0.26678 0.50196 0.23573 0.0
H1744 H 0.19986 0.59361 0.22038 0.0
H1745 H 0.19373 0.51337 0.17737 0.0
H1746 H 0.16867 0.49647 0.19014 0.0
H1747 H 0.21469 0.49924 0.19167 0.0
C1748 C 0.18569 0.47734 0.22737 0.0
C1749 C 0.21715 0.47697 0.23392 0.0
C1750 C 0.17939 0.50193 0.21806 0.0
C1751 C 0.20436 0.52672 0.2151 0.0
C1752 C 0.23599 0.52621 0.22149 0.0
H1753 H 0.1423 0.71355 0.17239 0.0
H1754 H 0.18344 0.67195 0.18141 0.0
C1755 C 0.24246 0.50135 0.23075 0.0
C1756 C 0.19595 0.55462 0.20607 0.0
H1757 H 0.16498 0.56819 0.17639 0.0
C1758 C 0.19303 0.58835 0.21066 0.0
C1759 C 0.18728 0.54765 0.19339 0.0
C1760 C 0.19155 0.51227 0.18779 0.0
C1761 C 0.1789 0.6147 0.20321 0.0
C1762 C 0.16807 0.60719 0.19076 0.0
C1763 C 0.17331 0.57397 0.18592 0.0
C1764 C 0.14584 0.63127 0.18356 0.0
C1765 C 0.17324 0.64966 0.20903 0.0
C1766 C 0.11169 0.62166 0.18121 0.0
C1767 C 0.0885 0.64507 0.17609 0.0
C1768 C 0.09886 0.67873 0.17311 0.0
C1769 C 0.13364 0.6878 0.17462 0.0
C1770 C 0.15701 0.66419 0.17987 0.0
H1771 H 0.17905 0.64991 0.21928 0.0
H1772 H 0.19019 0.66872 0.20436 0.0
H1773 H 0.14618 0.65804 0.20765 0.0
H1774 H 0.10247 0.59642 0.18391 0.0
H1775 H 0.06198 0.63712 0.17487 0.0
loop_
_geom_bond_atom_site_label_1
_geom_bond_atom_site_label_2
_geom_bond_distance
_geom_bond_site_symmetry_2
_ccdc_geom_bond_type
H0 C27 0.929 . S
N1 C26 1.433 . S
N1 C32 1.435 1_545 S
N1 C38 1.423 1_545 S
H2 C28 0.930 . S
H3 C31 0.931 . S
H4 C30 0.929 . S
H5 C33 0.930 . S
H6 C34 0.923 1_545 S
H7 C37 0.929 . S
H8 C36 0.931 . S
H9 C39 0.929 . S
H10 C43 0.932 1_545 S
H11 C40 0.931 . S
H12 C42 0.929 . S
H13 C45 0.929 . S
H14 C46 0.930 . S
H15 C48 0.929 . S
H16 C49 0.931 . S
H17 C51 0.930 . S
H18 C52 0.923 1_545 S
H19 C54 0.931 . S
H20 C55 0.929 . S
H21 C57 0.929 . S
H22 C58 0.931 . S
H23 C60 0.929 . S
N24 C44 1.433 . S
N24 C50 1.435 1_545 S
N24 C56 1.423 1_545 S
H25 C61 0.932 1_545 S
C26 N1 1.433 . S
C26 C27 1.363 . S
C26 C31 1.370 . S
C27 H0 0.929 . S
C27 C26 1.363 . S
C27 C28 1.385 . S
C28 H2 0.930 . S
C28 C27 1.385 . S
C28 C29 1.357 . S
C29 C28 1.357 . S
C29 C30 1.406 . S
C30 H4 0.929 . S
C30 C29 1.406 . S
C30 C31 1.391 . S
C31 H3 0.931 . S
C31 C26 1.370 . S
C31 C30 1.391 . S
C32 N1 1.435 1_565 S
C32 C33 1.358 1_565 S
C32 C37 1.371 . S
C33 H5 0.930 . S
C33 C32 1.358 1_545 S
C33 C34 1.400 1_545 S
C34 H6 0.923 1_565 S
C34 C33 1.400 1_565 S
C34 C35 1.398 . S
C35 C34 1.398 . S
C35 C36 1.393 . S
C36 H8 0.931 . S
C36 C35 1.393 . S
C36 C37 1.382 . S
C37 H7 0.929 . S
C37 C32 1.371 . S
C37 C36 1.382 . S
C38 N1 1.423 1_565 S
C38 C39 1.362 . S
C38 C43 1.388 . S
C39 H9 0.929 . S
C39 C38 1.362 . S
C39 C40 1.376 . S
C40 H11 0.931 . S
C40 C39 1.376 . S
C40 C41 1.396 . S
C41 C40 1.396 . S
C41 C42 1.348 . S
C41 C59 1.472 1_655 S
C42 H12 0.929 . S
C42 C41 1.348 . S
C42 C43 1.443 . S
C43 H10 0.932 1_565 S
C43 C38 1.388 . S
C43 C42 1.443 . S
C44 N24 1.433 . S
C44 C45 1.363 . S
C44 C49 1.370 . S
C45 H13 0.929 . S
C45 C44 1.363 . S
C45 C46 1.385 . S
C46 H14 0.930 . S
C46 C45 1.385 . S
C46 C47 1.357 . S
C47 C46 1.357 . S
C47 C48 1.406 . S
C48 H15 0.929 . S
C48 C47 1.406 . S
C48 C49 1.391 . S
C49 H16 0.931 . S
C49 C44 1.370 . S
C49 C48 1.391 . S
C50 N24 1.435 1_565 S
C50 C51 1.358 1_565 S
C50 C55 1.371 . S
C51 H17 0.930 . S
C51 C50 1.358 1_545 S
C51 C52 1.400 1_545 S
C52 H18 0.923 1_565 S
C52 C51 1.400 1_565 S
C52 C53 1.398 . S
C53 C52 1.398 . S
C53 C54 1.393 . S
C54 H19 0.931 . S
C54 C53 1.393 . S
C54 C55 1.382 . S
C55 H20 0.929 . S
C55 C50 1.371 . S
C55 C54 1.382 . S
C56 N24 1.423 1_565 S
C56 C57 1.362 . S
C56 C61 1.388 . S
C57 H21 0.929 . S
C57 C56 1.362 . S
C57 C58 1.376 . S
C58 H22 0.931 . S
C58 C57 1.376 . S
C58 C59 1.396 . S
C59 C41 1.472 1_455 S
C59 C58 1.396 . S
C59 C60 1.348 . S
C60 H23 0.929 . S
C60 C59 1.348 . S
C60 C61 1.443 . S
C61 H25 0.932 1_565 S
C61 C56 1.388 . S
C61 C60 1.443 . S
H62 C89 0.929 . S
N63 C88 1.433 . S
N63 C94 1.435 . S
N63 C100 1.423 . S
H64 C90 0.930 . S
H65 C93 0.931 . S
H66 C92 0.929 . S
H67 C95 0.930 . S
H68 C96 0.932 . S
H69 C99 0.929 . S
H70 C98 0.931 . S
H71 C101 0.929 . S
H72 C105 0.932 . S
H73 C102 0.931 . S
H74 C104 0.929 . S
H75 C107 0.929 . S
H76 C108 0.930 . S
H77 C110 0.929 . S
H78 C111 0.931 . S
H79 C113 0.930 . S
H80 C114 0.932 . S
H81 C116 0.931 . S
H82 C117 0.929 . S
H83 C119 0.929 . S
H84 C120 0.931 . S
H85 C122 0.929 . S
N86 C106 1.433 . S
N86 C112 1.435 . S
N86 C118 1.423 . S
H87 C123 0.932 . S
C88 N63 1.433 . S
C88 C89 1.363 . S
C88 C93 1.370 . S
C89 H62 0.929 . S
C89 C88 1.363 . S
C89 C90 1.385 . S
C90 H64 0.930 . S
C90 C89 1.385 . S
C90 C91 1.357 . S
C91 C90 1.357 . S
C91 C92 1.406 . S
C92 H66 0.929 . S
C92 C91 1.406 . S
C92 C93 1.391 . S
C93 H65 0.931 . S
C93 C88 1.370 . S
C93 C92 1.391 . S
C94 N63 1.435 . S
C94 C95 1.358 . S
C94 C99 1.371 . S
C95 H67 0.930 . S
C95 C94 1.358 . S
C95 C96 1.405 . S
C96 H68 0.932 . S
C96 C95 1.405 . S
C96 C97 1.383 . S
C97 C96 1.383 . S
C97 C98 1.393 . S
C98 H70 0.931 . S
C98 C97 1.393 . S
C98 C99 1.382 . S
C99 H69 0.929 . S
C99 C94 1.371 . S
C99 C98 1.382 . S
C100 N63 1.423 . S
C100 C101 1.362 . S
C100 C105 1.388 . S
C101 H71 0.929 . S
C101 C100 1.362 . S
C101 C102 1.376 . S
C102 H73 0.931 . S
C102 C101 1.376 . S
C102 C103 1.396 . S
C103 C102 1.396 . S
C103 C104 1.348 . S
C103 C121 1.472 . S
C104 H74 0.929 . S
C104 C103 1.348 . S
C104 C105 1.443 . S
C105 H72 0.932 . S
C105 C100 1.388 . S
C105 C104 1.443 . S
C106 N86 1.433 . S
C106 C107 1.363 . S
C106 C111 1.370 . S
C107 H75 0.929 . S
C107 C106 1.363 . S
C107 C108 1.385 . S
C108 H76 0.930 . S
C108 C107 1.385 . S
C108 C109 1.357 . S
C109 C108 1.357 . S
C109 C110 1.406 . S
C110 H77 0.929 . S
C110 C109 1.406 . S
C110 C111 1.391 . S
C111 H78 0.931 . S
C111 C106 1.370 . S
C111 C110 1.391 . S
C112 N86 1.435 . S
C112 C113 1.358 . S
C112 C117 1.371 . S
C113 H79 0.930 . S
C113 C112 1.358 . S
C113 C114 1.405 . S
C114 H80 0.932 . S
C114 C113 1.405 . S
C114 C115 1.383 . S
C115 C114 1.383 . S
C115 C116 1.393 . S
C116 H81 0.931 . S
C116 C115 1.393 . S
C116 C117 1.382 . S
C117 H82 0.929 . S
C117 C112 1.371 . S
C117 C116 1.382 . S
C118 N86 1.423 . S
C118 C119 1.362 . S
C118 C123 1.388 . S
C119 H83 0.929 . S
C119 C118 1.362 . S
C119 C120 1.376 . S
C120 H84 0.931 . S
C120 C119 1.376 . S
C120 C121 1.396 . S
C121 C103 1.472 . S
C121 C120 1.396 . S
C121 C122 1.348 . S
C122 H85 0.929 . S
C122 C121 1.348 . S
C122 C123 1.443 . S
C123 H87 0.932 . S
C123 C118 1.388 . S
C123 C122 1.443 . S
H124 C151 0.929 . S
N125 C150 1.431 . S
N125 C156 1.435 . S
N125 C162 1.423 . S
H126 C152 0.930 . S
H127 C155 0.931 . S
H128 C154 0.929 . S
H129 C157 0.930 1_565 S
H130 C158 0.917 1_556 S
H131 C161 0.929 . S
H132 C160 0.907 1_556 S
H133 C163 0.929 . S
H134 C167 0.932 . S
H135 C164 0.931 . S
H136 C166 0.929 . S
H137 C169 0.929 . S
H138 C170 0.930 . S
H139 C172 0.929 . S
H140 C173 0.931 . S
H141 C175 0.930 1_565 S
H142 C176 0.917 1_556 S
H143 C178 0.907 1_556 S
H144 C179 0.929 . S
H145 C181 0.929 . S
H146 C182 0.931 . S
H147 C184 0.929 . S
N148 C168 1.431 . S
N148 C174 1.435 . S
N148 C180 1.423 . S
H149 C185 0.932 . S
C150 N125 1.431 . S
C150 C151 1.363 . S
C150 C155 1.373 1_545 S
C151 H124 0.929 . S
C151 C150 1.363 . S
C151 C152 1.385 1_545 S
C152 H126 0.930 . S
C152 C151 1.385 1_565 S
C152 C153 1.357 . S
C153 C152 1.357 . S
C153 C154 1.406 . S
C154 H128 0.929 . S
C154 C153 1.406 . S
C154 C155 1.391 . S
C155 H127 0.931 . S
C155 C150 1.373 1_565 S
C155 C154 1.391 . S
C156 N125 1.435 . S
C156 C157 1.358 . S
C156 C161 1.371 . S
C157 H129 0.930 1_545 S
C157 C156 1.358 . S
C157 C158 1.439 . S
C158 H130 0.917 1_554 S
C158 C157 1.439 . S
C158 C159 1.366 1_554 S
C159 C158 1.366 1_556 S
C159 C160 1.364 1_556 S
C160 H132 0.907 1_554 S
C160 C159 1.364 1_554 S
C160 C161 1.442 . S
C161 H131 0.929 . S
C161 C156 1.371 . S
C161 C160 1.442 . S
C162 N125 1.423 . S
C162 C163 1.362 . S
C162 C167 1.388 . S
C163 H133 0.929 . S
C163 C162 1.362 . S
C163 C164 1.376 . S
C164 H135 0.931 . S
C164 C163 1.376 . S
C164 C165 1.396 . S
C165 C164 1.396 . S
C165 C166 1.348 . S
C165 C183 1.472 . S
C166 H136 0.929 . S
C166 C165 1.348 . S
C166 C167 1.443 . S
C167 H134 0.932 . S
C167 C162 1.388 . S
C167 C166 1.443 . S
C168 N148 1.431 . S
C168 C169 1.363 . S
C168 C173 1.373 1_545 S
C169 H137 0.929 . S
C169 C168 1.363 . S
C169 C170 1.385 1_545 S
C170 H138 0.930 . S
C170 C169 1.385 1_565 S
C170 C171 1.357 . S
C171 C170 1.357 . S
C171 C172 1.406 . S
C172 H139 0.929 . S
C172 C171 1.406 . S
C172 C173 1.391 . S
C173 H140 0.931 . S
C173 C168 1.373 1_565 S
C173 C172 1.391 . S
C174 N148 1.435 . S
C174 C175 1.358 . S
C174 C179 1.371 . S
C175 H141 0.930 1_545 S
C175 C174 1.358 . S
C175 C176 1.439 . S
C176 H142 0.917 1_554 S
C176 C175 1.439 . S
C176 C177 1.366 1_554 S
C177 C176 1.366 1_556 S
C177 C178 1.364 1_556 S
C178 H143 0.907 1_554 S
C178 C177 1.364 1_554 S
C178 C179 1.442 . S
C179 H144 0.929 . S
C179 C174 1.371 . S
C179 C178 1.442 . S
C180 N148 1.423 . S
C180 C181 1.362 . S
C180 C185 1.388 . S
C181 H145 0.929 . S
C181 C180 1.362 . S
C181 C182 1.376 . S
C182 H146 0.931 . S
C182 C181 1.376 . S
C182 C183 1.396 . S
C183 C165 1.472 . S
C183 C182 1.396 . S
C183 C184 1.348 . S
C184 H147 0.929 . S
C184 C183 1.348 . S
C184 C185 1.443 . S
C185 H149 0.932 . S
C185 C180 1.388 . S
C185 C184 1.443 . S
H186 C213 0.929 . S
N187 C212 1.433 . S
N187 C218 1.435 . S
N187 C224 1.423 . S
H188 C214 0.930 . S
H189 C217 0.931 . S
H190 C216 0.929 . S
H191 C219 0.930 . S
H192 C220 0.932 . S
H193 C223 0.929 . S
H194 C222 0.931 . S
H195 C225 0.929 . S
H196 C229 0.932 . S
H197 C226 0.931 . S
H198 C228 0.929 . S
H199 C231 0.929 . S
H200 C232 0.930 . S
H201 C234 0.929 . S
H202 C235 0.931 . S
H203 C237 0.930 . S
H204 C238 0.932 . S
H205 C240 0.931 . S
H206 C241 0.929 . S
H207 C243 0.929 . S
H208 C244 0.931 . S
H209 C246 0.929 . S
N210 C230 1.433 . S
N210 C236 1.435 . S
N210 C242 1.423 . S
H211 C247 0.932 . S
C212 N187 1.433 . S
C212 C213 1.363 . S
C212 C217 1.370 . S
C213 H186 0.929 . S
C213 C212 1.363 . S
C213 C214 1.385 . S
C214 H188 0.930 . S
C214 C213 1.385 . S
C214 C215 1.357 . S
C215 C214 1.357 . S
C215 C216 1.406 . S
C216 H190 0.929 . S
C216 C215 1.406 . S
C216 C217 1.391 . S
C217 H189 0.931 . S
C217 C212 1.370 . S
C217 C216 1.391 . S
C218 N187 1.435 . S
C218 C219 1.358 . S
C218 C223 1.371 . S
C219 H191 0.930 . S
C219 C218 1.358 . S
C219 C220 1.405 . S
C220 H192 0.932 . S
C220 C219 1.405 . S
C220 C221 1.383 . S
C221 C220 1.383 . S
C221 C222 1.393 . S
C222 H194 0.931 . S
C222 C221 1.393 . S
C222 C223 1.382 . S
C223 H193 0.929 . S
C223 C218 1.371 . S
C223 C222 1.382 . S
C224 N187 1.423 . S
C224 C225 1.362 . S
C224 C229 1.388 . S
C225 H195 0.929 . S
C225 C224 1.362 . S
C225 C226 1.376 . S
C226 H197 0.931 . S
C226 C225 1.376 . S
C226 C227 1.396 . S
C227 C226 1.396 . S
C227 C228 1.348 . S
C227 C245 1.472 . S
C228 H198 0.929 . S
C228 C227 1.348 . S
C228 C229 1.443 . S
C229 H196 0.932 . S
C229 C224 1.388 . S
C229 C228 1.443 . S
C230 N210 1.433 . S
C230 C231 1.363 . S
C230 C235 1.370 . S
C231 H199 0.929 . S
C231 C230 1.363 . S
C231 C232 1.385 . S
C232 H200 0.930 . S
C232 C231 1.385 . S
C232 C233 1.357 . S
C233 C232 1.357 . S
C233 C234 1.406 . S
C234 H201 0.929 . S
C234 C233 1.406 . S
C234 C235 1.391 . S
C235 H202 0.931 . S
C235 C230 1.370 . S
C235 C234 1.391 . S
C236 N210 1.435 . S
C236 C237 1.358 . S
C236 C241 1.371 . S
C237 H203 0.930 . S
C237 C236 1.358 . S
C237 C238 1.405 . S
C238 H204 0.932 . S
C238 C237 1.405 . S
C238 C239 1.383 . S
C239 C238 1.383 . S
C239 C240 1.393 . S
C240 H205 0.931 . S
C240 C239 1.393 . S
C240 C241 1.382 . S
C241 H206 0.929 . S
C241 C236 1.371 . S
C241 C240 1.382 . S
C242 N210 1.423 . S
C242 C243 1.362 . S
C242 C247 1.388 . S
C243 H207 0.929 . S
C243 C242 1.362 . S
C243 C244 1.376 . S
C244 H208 0.931 . S
C244 C243 1.376 . S
C244 C245 1.396 . S
C245 C227 1.472 . S
C245 C244 1.396 . S
C245 C246 1.348 . S
C246 H209 0.929 . S
C246 C245 1.348 . S
C246 C247 1.443 . S
C247 H211 0.932 . S
C247 C242 1.388 . S
C247 C246 1.443 . S
H248 C275 0.929 . S
N249 C274 1.433 . S
N249 C280 1.435 . S
N249 C286 1.423 . S
H250 C276 0.930 . S
H251 C279 0.931 . S
H252 C278 0.929 . S
H253 C281 0.930 . S
H254 C282 0.932 . S
H255 C285 0.929 . S
H256 C284 0.931 . S
H257 C287 0.929 . S
H258 C291 0.932 . S
H259 C288 0.931 . S
H260 C290 0.929 . S
H261 C293 0.929 . S
H262 C294 0.930 . S
H263 C296 0.929 . S
H264 C297 0.931 . S
H265 C299 0.930 . S
H266 C300 0.932 . S
H267 C302 0.931 . S
H268 C303 0.929 . S
H269 C305 0.929 . S
H270 C306 0.931 . S
H271 C308 0.929 . S
N272 C292 1.433 . S
N272 C298 1.435 . S
N272 C304 1.423 . S
H273 C309 0.932 . S
C274 N249 1.433 . S
C274 C275 1.363 . S
C274 C279 1.370 . S
C275 H248 0.929 . S
C275 C274 1.363 . S
C275 C276 1.385 . S
C276 H250 0.930 . S
C276 C275 1.385 . S
C276 C277 1.357 . S
C277 C276 1.357 . S
C277 C278 1.406 . S
C278 H252 0.929 . S
C278 C277 1.406 . S
C278 C279 1.391 . S
C279 H251 0.931 . S
C279 C274 1.370 . S
C279 C278 1.391 . S
C280 N249 1.435 . S
C280 C281 1.358 . S
C280 C285 1.371 . S
C281 H253 0.930 . S
C281 C280 1.358 . S
C281 C282 1.405 . S
C282 H254 0.932 . S
C282 C281 1.405 . S
C282 C283 1.383 . S
C283 C282 1.383 . S
C283 C284 1.393 . S
C284 H256 0.931 . S
C284 C283 1.393 . S
C284 C285 1.382 . S
C285 H255 0.929 . S
C285 C280 1.371 . S
C285 C284 1.382 . S
C286 N249 1.423 . S
C286 C287 1.362 . S
C286 C291 1.388 . S
C287 H257 0.929 . S
C287 C286 1.362 . S
C287 C288 1.376 . S
C288 H259 0.931 . S
C288 C287 1.376 . S
C288 C289 1.396 . S
C289 C288 1.396 . S
C289 C290 1.348 . S
C289 C307 1.472 . S
C290 H260 0.929 . S
C290 C289 1.348 . S
C290 C291 1.443 . S
C291 H258 0.932 . S
C291 C286 1.388 . S
C291 C290 1.443 . S
C292 N272 1.433 . S
C292 C293 1.363 . S
C292 C297 1.370 . S
C293 H261 0.929 . S
C293 C292 1.363 . S
C293 C294 1.385 . S
C294 H262 0.930 . S
C294 C293 1.385 . S
C294 C295 1.357 . S
C295 C294 1.357 . S
C295 C296 1.406 . S
C296 H263 0.929 . S
C296 C295 1.406 . S
C296 C297 1.391 . S
C297 H264 0.931 . S
C297 C292 1.370 . S
C297 C296 1.391 . S
C298 N272 1.435 . S
C298 C299 1.358 . S
C298 C303 1.371 . S
C299 H265 0.930 . S
C299 C298 1.358 . S
C299 C300 1.405 . S
C300 H266 0.932 . S
C300 C299 1.405 . S
C300 C301 1.383 . S
C301 C300 1.383 . S
C301 C302 1.393 . S
C302 H267 0.931 . S
C302 C301 1.393 . S
C302 C303 1.382 . S
C303 H268 0.929 . S
C303 C298 1.371 . S
C303 C302 1.382 . S
C304 N272 1.423 . S
C304 C305 1.362 . S
C304 C309 1.388 . S
C305 H269 0.929 . S
C305 C304 1.362 . S
C305 C306 1.376 . S
C306 H270 0.931 . S
C306 C305 1.376 . S
C306 C307 1.396 . S
C307 C289 1.472 . S
C307 C306 1.396 . S
C307 C308 1.348 . S
C308 H271 0.929 . S
C308 C307 1.348 . S
C308 C309 1.443 . S
C309 H273 0.932 . S
C309 C304 1.388 . S
C309 C308 1.443 . S
H310 C337 0.929 . S
N311 C336 1.433 . S
N311 C342 1.435 . S
N311 C348 1.423 . S
H312 C338 0.930 . S
H313 C341 0.931 . S
H314 C340 0.929 . S
H315 C343 0.930 . S
H316 C344 0.932 . S
H317 C347 0.929 . S
H318 C346 0.931 . S
H319 C349 0.929 . S
H320 C353 0.932 . S
H321 C350 0.931 . S
H322 C352 0.929 . S
H323 C355 0.929 . S
H324 C356 0.930 . S
H325 C358 0.929 . S
H326 C359 0.931 . S
H327 C361 0.930 . S
H328 C362 0.932 . S
H329 C364 0.931 . S
H330 C365 0.929 . S
H331 C367 0.929 . S
H332 C368 0.931 . S
H333 C370 0.929 . S
N334 C354 1.433 . S
N334 C360 1.435 . S
N334 C366 1.423 . S
H335 C371 0.932 . S
C336 N311 1.433 . S
C336 C337 1.363 . S
C336 C341 1.370 . S
C337 H310 0.929 . S
C337 C336 1.363 . S
C337 C338 1.385 . S
C338 H312 0.930 . S
C338 C337 1.385 . S
C338 C339 1.357 . S
C339 C338 1.357 . S
C339 C340 1.406 . S
C340 H314 0.929 . S
C340 C339 1.406 . S
C340 C341 1.391 . S
C341 H313 0.931 . S
C341 C336 1.370 . S
C341 C340 1.391 . S
C342 N311 1.435 . S
C342 C343 1.358 . S
C342 C347 1.371 . S
C343 H315 0.930 . S
C343 C342 1.358 . S
C343 C344 1.405 . S
C344 H316 0.932 . S
C344 C343 1.405 . S
C344 C345 1.383 . S
C345 C344 1.383 . S
C345 C346 1.393 . S
C346 H318 0.931 . S
C346 C345 1.393 . S
C346 C347 1.382 . S
C347 H317 0.929 . S
C347 C342 1.371 . S
C347 C346 1.382 . S
C348 N311 1.423 . S
C348 C349 1.362 . S
C348 C353 1.388 . S
C349 H319 0.929 . S
C349 C348 1.362 . S
C349 C350 1.376 . S
C350 H321 0.931 . S
C350 C349 1.376 . S
C350 C351 1.396 . S
C351 C350 1.396 . S
C351 C352 1.348 . S
C351 C369 1.472 . S
C352 H322 0.929 . S
C352 C351 1.348 . S
C352 C353 1.443 . S
C353 H320 0.932 . S
C353 C348 1.388 . S
C353 C352 1.443 . S
C354 N334 1.433 . S
C354 C355 1.363 . S
C354 C359 1.370 . S
C355 H323 0.929 . S
C355 C354 1.363 . S
C355 C356 1.385 . S
C356 H324 0.930 . S
C356 C355 1.385 . S
C356 C357 1.357 . S
C357 C356 1.357 . S
C357 C358 1.406 . S
C358 H325 0.929 . S
C358 C357 1.406 . S
C358 C359 1.391 . S
C359 H326 0.931 . S
C359 C354 1.370 . S
C359 C358 1.391 . S
C360 N334 1.435 . S
C360 C361 1.358 . S
C360 C365 1.371 . S
C361 H327 0.930 . S
C361 C360 1.358 . S
C361 C362 1.405 . S
C362 H328 0.932 . S
C362 C361 1.405 . S
C362 C363 1.383 . S
C363 C362 1.383 . S
C363 C364 1.393 . S
C364 H329 0.931 . S
C364 C363 1.393 . S
C364 C365 1.382 . S
C365 H330 0.929 . S
C365 C360 1.371 . S
C365 C364 1.382 . S
C366 N334 1.423 . S
C366 C367 1.362 . S
C366 C371 1.388 . S
C367 H331 0.929 . S
C367 C366 1.362 . S
C367 C368 1.376 . S
C368 H332 0.931 . S
C368 C367 1.376 . S
C368 C369 1.396 . S
C369 C351 1.472 . S
C369 C368 1.396 . S
C369 C370 1.348 . S
C370 H333 0.929 . S
C370 C369 1.348 . S
C370 C371 1.443 . S
C371 H335 0.932 . S
C371 C366 1.388 . S
C371 C370 1.443 . S
H372 C399 0.938 . S
N373 C398 1.433 . S
N373 C404 1.435 . S
N373 C410 1.423 . S
H374 C400 0.930 . S
H375 C403 0.931 . S
H376 C402 0.929 . S
H377 C405 0.930 . S
H378 C406 0.932 . S
H379 C409 0.929 . S
H380 C408 0.931 . S
H381 C411 0.929 1_556 S
H382 C415 0.932 . S
H383 C412 0.931 1_556 S
H384 C414 0.929 . S
H385 C417 0.938 . S
H386 C418 0.930 . S
H387 C420 0.929 . S
H388 C421 0.931 . S
H389 C423 0.930 . S
H390 C424 0.932 . S
H391 C426 0.931 . S
H392 C427 0.929 . S
H393 C429 0.929 1_556 S
H394 C430 0.931 1_556 S
H395 C432 0.929 . S
N396 C416 1.433 . S
N396 C422 1.435 . S
N396 C428 1.423 . S
H397 C433 0.932 . S
C398 N373 1.433 . S
C398 C399 1.381 . S
C398 C403 1.370 . S
C399 H372 0.938 . S
C399 C398 1.381 . S
C399 C400 1.360 1_554 S
C400 H374 0.930 . S
C400 C399 1.360 1_556 S
C400 C401 1.357 . S
C401 C400 1.357 . S
C401 C402 1.406 . S
C402 H376 0.929 . S
C402 C401 1.406 . S
C402 C403 1.391 1_556 S
C403 H375 0.931 . S
C403 C398 1.370 . S
C403 C402 1.391 1_554 S
C404 N373 1.435 . S
C404 C405 1.358 . S
C404 C409 1.371 . S
C405 H377 0.930 . S
C405 C404 1.358 . S
C405 C406 1.405 . S
C406 H378 0.932 . S
C406 C405 1.405 . S
C406 C407 1.383 . S
C407 C406 1.383 . S
C407 C408 1.393 . S
C408 H380 0.931 . S
C408 C407 1.393 . S
C408 C409 1.382 . S
C409 H379 0.929 . S
C409 C404 1.371 . S
C409 C408 1.382 . S
C410 N373 1.423 . S
C410 C411 1.362 . S
C410 C415 1.388 . S
C411 H381 0.929 1_554 S
C411 C410 1.362 . S
C411 C412 1.376 . S
C412 H383 0.931 1_554 S
C412 C411 1.376 . S
C412 C413 1.396 . S
C413 C412 1.396 . S
C413 C414 1.348 . S
C413 C431 1.472 . S
C414 H384 0.929 . S
C414 C413 1.348 . S
C414 C415 1.443 . S
C415 H382 0.932 . S
C415 C410 1.388 . S
C415 C414 1.443 . S
C416 N396 1.433 . S
C416 C417 1.381 . S
C416 C421 1.370 . S
C417 H385 0.938 . S
C417 C416 1.381 . S
C417 C418 1.360 1_554 S
C418 H386 0.930 . S
C418 C417 1.360 1_556 S
C418 C419 1.357 . S
C419 C418 1.357 . S
C419 C420 1.406 . S
C420 H387 0.929 . S
C420 C419 1.406 . S
C420 C421 1.391 1_556 S
C421 H388 0.931 . S
C421 C416 1.370 . S
C421 C420 1.391 1_554 S
C422 N396 1.435 . S
C422 C423 1.358 . S
C422 C427 1.371 . S
C423 H389 0.930 . S
C423 C422 1.358 . S
C423 C424 1.405 . S
C424 H390 0.932 . S
C424 C423 1.405 . S
C424 C425 1.383 . S
C425 C424 1.383 . S
C425 C426 1.393 . S
C426 H391 0.931 . S
C426 C425 1.393 . S
C426 C427 1.382 . S
C427 H392 0.929 . S
C427 C422 1.371 . S
C427 C426 1.382 . S
C428 N396 1.423 . S
C428 C429 1.362 . S
C428 C433 1.388 . S
C429 H393 0.929 1_554 S
C429 C428 1.362 . S
C429 C430 1.376 . S
C430 H394 0.931 1_554 S
C430 C429 1.376 . S
C430 C431 1.396 . S
C431 C413 1.472 . S
C431 C430 1.396 . S
C431 C432 1.348 . S
C432 H395 0.929 . S
C432 C431 1.348 . S
C432 C433 1.443 . S
C433 H397 0.932 . S
C433 C428 1.388 . S
C433 C432 1.443 . S
H434 C461 0.929 . S
N435 C460 1.433 . S
N435 C466 1.435 . S
N435 C472 1.423 . S
H436 C462 0.930 . S
H437 C465 0.931 . S
H438 C464 0.929 . S
H439 C467 0.930 . S
H440 C468 0.932 . S
H441 C471 0.929 . S
H442 C470 0.931 . S
H443 C473 0.929 . S
H444 C477 0.932 . S
H445 C474 0.931 . S
H446 C476 0.929 . S
H447 C479 0.929 . S
H448 C480 0.930 . S
H449 C482 0.929 . S
H450 C483 0.931 . S
H451 C485 0.930 . S
H452 C486 0.932 . S
H453 C488 0.931 . S
H454 C489 0.929 . S
H455 C491 0.929 . S
H456 C492 0.931 . S
H457 C494 0.929 . S
N458 C478 1.433 . S
N458 C484 1.435 . S
N458 C490 1.423 . S
H459 C495 0.932 . S
C460 N435 1.433 . S
C460 C461 1.363 . S
C460 C465 1.370 . S
C461 H434 0.929 . S
C461 C460 1.363 . S
C461 C462 1.385 . S
C462 H436 0.930 . S
C462 C461 1.385 . S
C462 C463 1.357 . S
C463 C462 1.357 . S
C463 C464 1.406 . S
C464 H438 0.929 . S
C464 C463 1.406 . S
C464 C465 1.391 . S
C465 H437 0.931 . S
C465 C460 1.370 . S
C465 C464 1.391 . S
C466 N435 1.435 . S
C466 C467 1.358 . S
C466 C471 1.371 . S
C467 H439 0.930 . S
C467 C466 1.358 . S
C467 C468 1.405 . S
C468 H440 0.932 . S
C468 C467 1.405 . S
C468 C469 1.383 . S
C469 C468 1.383 . S
C469 C470 1.393 . S
C470 H442 0.931 . S
C470 C469 1.393 . S
C470 C471 1.382 . S
C471 H441 0.929 . S
C471 C466 1.371 . S
C471 C470 1.382 . S
C472 N435 1.423 . S
C472 C473 1.362 . S
C472 C477 1.388 . S
C473 H443 0.929 . S
C473 C472 1.362 . S
C473 C474 1.376 . S
C474 H445 0.931 . S
C474 C473 1.376 . S
C474 C475 1.396 . S
C475 C474 1.396 . S
C475 C476 1.348 . S
C475 C493 1.472 1_455 S
C476 H446 0.929 . S
C476 C475 1.348 . S
C476 C477 1.443 . S
C477 H444 0.932 . S
C477 C472 1.388 . S
C477 C476 1.443 . S
C478 N458 1.433 . S
C478 C479 1.363 . S
C478 C483 1.370 . S
C479 H447 0.929 . S
C479 C478 1.363 . S
C479 C480 1.385 . S
C480 H448 0.930 . S
C480 C479 1.385 . S
C480 C481 1.357 . S
C481 C480 1.357 . S
C481 C482 1.406 . S
C482 H449 0.929 . S
C482 C481 1.406 . S
C482 C483 1.391 . S
C483 H450 0.931 . S
C483 C478 1.370 . S
C483 C482 1.391 . S
C484 N458 1.435 . S
C484 C485 1.358 . S
C484 C489 1.371 . S
C485 H451 0.930 . S
C485 C484 1.358 . S
C485 C486 1.405 . S
C486 H452 0.932 . S
C486 C485 1.405 . S
C486 C487 1.383 . S
C487 C486 1.383 . S
C487 C488 1.393 . S
C488 H453 0.931 . S
C488 C487 1.393 . S
C488 C489 1.382 . S
C489 H454 0.929 . S
C489 C484 1.371 . S
C489 C488 1.382 . S
C490 N458 1.423 . S
C490 C491 1.362 . S
C490 C495 1.388 . S
C491 H455 0.929 . S
C491 C490 1.362 . S
C491 C492 1.376 . S
C492 H456 0.931 . S
C492 C491 1.376 . S
C492 C493 1.396 . S
C493 C475 1.472 1_655 S
C493 C492 1.396 . S
C493 C494 1.348 . S
C494 H457 0.929 . S
C494 C493 1.348 . S
C494 C495 1.443 . S
C495 H459 0.932 . S
C495 C490 1.388 . S
C495 C494 1.443 . S
Fe496 O497 1.909 . S
Fe496 O500 1.691 1_455 S
Fe496 O505 2.098 . S
Fe496 O510 1.917 1_455 S
Fe496 O516 2.098 . S
Fe496 O525 1.917 1_455 S
O497 Fe496 1.909 . S
O497 Fe499 1.715 . S
Fe498 O500 1.886 . S
Fe498 O501 1.715 . S
Fe498 O508 1.935 . S
Fe498 O509 2.077 . S
Fe498 O515 1.935 . S
Fe498 O524 2.077 . S
Fe499 O497 1.715 . S
Fe499 O502 1.886 . S
Fe499 O506 1.935 . S
Fe499 O511 2.077 . S
Fe499 O517 1.935 . S
Fe499 O521 2.077 . S
O500 Fe496 1.691 1_655 S
O500 Fe498 1.886 . S
O501 Fe498 1.715 . S
O501 Fe503 1.903 . S
O502 Fe499 1.886 . S
O502 Fe503 1.697 1_455 S
Fe503 O501 1.903 . S
Fe503 O502 1.697 1_655 S
Fe503 O507 2.093 . S
Fe503 O512 1.922 1_655 S
Fe503 O514 2.093 . S
Fe503 O522 1.922 1_655 S
C504 O516 1.381 . S
C504 O517 1.421 . S
O505 Fe496 2.098 . S
O505 C518 1.381 . S
O506 Fe499 1.935 . S
O506 C518 1.421 . S
O507 Fe503 2.093 . S
O507 C523 1.381 . S
O508 Fe498 1.935 . S
O508 C523 1.421 . S
O509 Fe498 2.077 . S
O509 C513 1.381 . S
O510 Fe496 1.917 1_655 S
O510 C513 1.421 . S
O511 Fe499 2.077 . S
O511 C519 1.381 . S
O512 Fe503 1.922 1_455 S
O512 C519 1.421 . S
C513 O509 1.381 . S
C513 O510 1.421 . S
O514 Fe503 2.093 . S
O514 C526 1.381 . S
O515 Fe498 1.935 . S
O515 C526 1.421 . S
O516 Fe496 2.098 . S
O516 C504 1.381 . S
O517 Fe499 1.935 . S
O517 C504 1.421 . S
C518 O505 1.381 . S
C518 O506 1.421 . S
C519 O511 1.381 . S
C519 O512 1.421 . S
C520 O521 1.381 . S
C520 O522 1.421 . S
O521 Fe499 2.077 . S
O521 C520 1.381 . S
O522 Fe503 1.922 1_455 S
O522 C520 1.421 . S
C523 O507 1.381 . S
C523 O508 1.421 . S
O524 Fe498 2.077 . S
O524 C527 1.381 . S
O525 Fe496 1.917 1_655 S
O525 C527 1.421 . S
C526 O514 1.381 . S
C526 O515 1.421 . S
C527 O524 1.381 . S
C527 O525 1.421 . S
Fe528 O529 1.886 . S
Fe528 O532 1.715 . S
Fe528 O537 2.077 . S
Fe528 O542 1.935 . S
Fe528 O548 2.077 . S
Fe528 O557 1.935 . S
O529 Fe528 1.886 . S
O529 Fe531 1.715 . S
Fe530 O532 1.886 . S
Fe530 O533 1.715 . S
Fe530 O540 1.935 . S
Fe530 O541 2.077 . S
Fe530 O547 1.935 . S
Fe530 O556 2.077 . S
Fe531 O529 1.715 . S
Fe531 O534 1.886 . S
Fe531 O538 1.935 . S
Fe531 O543 2.077 . S
Fe531 O549 1.935 . S
Fe531 O553 2.077 . S
O532 Fe528 1.715 . S
O532 Fe530 1.886 . S
O533 Fe530 1.715 . S
O533 Fe535 1.886 . S
O534 Fe531 1.886 . S
O534 Fe535 1.715 . S
Fe535 O533 1.886 . S
Fe535 O534 1.715 . S
Fe535 O539 2.077 . S
Fe535 O544 1.935 . S
Fe535 O546 2.077 . S
Fe535 O554 1.935 . S
C536 O548 1.381 . S
C536 O549 1.421 . S
O537 Fe528 2.077 . S
O537 C550 1.381 . S
O538 Fe531 1.935 . S
O538 C550 1.421 . S
O539 Fe535 2.077 . S
O539 C555 1.381 . S
O540 Fe530 1.935 . S
O540 C555 1.421 . S
O541 Fe530 2.077 . S
O541 C545 1.381 . S
O542 Fe528 1.935 . S
O542 C545 1.421 . S
O543 Fe531 2.077 . S
O543 C551 1.381 . S
O544 Fe535 1.935 . S
O544 C551 1.421 . S
C545 O541 1.381 . S
C545 O542 1.421 . S
O546 Fe535 2.077 . S
O546 C558 1.381 . S
O547 Fe530 1.935 . S
O547 C558 1.421 . S
O548 Fe528 2.077 . S
O548 C536 1.381 . S
O549 Fe531 1.935 . S
O549 C536 1.421 . S
C550 O537 1.381 . S
C550 O538 1.421 . S
C551 O543 1.381 . S
C551 O544 1.421 . S
C552 O553 1.381 . S
C552 O554 1.421 . S
O553 Fe531 2.077 . S
O553 C552 1.381 . S
O554 Fe535 1.935 . S
O554 C552 1.421 . S
C555 O539 1.381 . S
C555 O540 1.421 . S
O556 Fe530 2.077 . S
O556 C559 1.381 . S
O557 Fe528 1.935 . S
O557 C559 1.421 . S
C558 O546 1.381 . S
C558 O547 1.421 . S
C559 O556 1.381 . S
C559 O557 1.421 . S
Fe560 O561 1.886 . S
Fe560 O564 1.715 . S
Fe560 O569 2.077 . S
Fe560 O574 1.935 . S
Fe560 O580 2.077 . S
Fe560 O589 1.935 . S
O561 Fe560 1.886 . S
O561 Fe563 1.715 . S
Fe562 O564 1.886 . S
Fe562 O565 1.715 . S
Fe562 O572 1.935 . S
Fe562 O573 2.077 . S
Fe562 O579 1.935 . S
Fe562 O588 2.077 . S
Fe563 O561 1.715 . S
Fe563 O566 1.886 . S
Fe563 O570 1.935 . S
Fe563 O575 2.077 . S
Fe563 O581 1.935 . S
Fe563 O585 2.077 . S
O564 Fe560 1.715 . S
O564 Fe562 1.886 . S
O565 Fe562 1.715 . S
O565 Fe567 1.886 . S
O566 Fe563 1.886 . S
O566 Fe567 1.715 . S
Fe567 O565 1.886 . S
Fe567 O566 1.715 . S
Fe567 O571 2.077 . S
Fe567 O576 1.935 . S
Fe567 O578 2.077 . S
Fe567 O586 1.935 . S
C568 O580 1.381 . S
C568 O581 1.421 . S
O569 Fe560 2.077 . S
O569 C582 1.381 . S
O570 Fe563 1.935 . S
O570 C582 1.421 . S
O571 Fe567 2.077 . S
O571 C587 1.381 . S
O572 Fe562 1.935 . S
O572 C587 1.421 . S
O573 Fe562 2.077 . S
O573 C577 1.381 . S
O574 Fe560 1.935 . S
O574 C577 1.421 . S
O575 Fe563 2.077 . S
O575 C583 1.381 . S
O576 Fe567 1.935 . S
O576 C583 1.421 . S
C577 O573 1.381 . S
C577 O574 1.421 . S
O578 Fe567 2.077 . S
O578 C590 1.381 . S
O579 Fe562 1.935 . S
O579 C590 1.421 . S
O580 Fe560 2.077 . S
O580 C568 1.381 . S
O581 Fe563 1.935 . S
O581 C568 1.421 . S
C582 O569 1.381 . S
C582 O570 1.421 . S
C583 O575 1.381 . S
C583 O576 1.421 . S
C584 O585 1.381 . S
C584 O586 1.421 . S
O585 Fe563 2.077 . S
O585 C584 1.381 . S
O586 Fe567 1.935 . S
O586 C584 1.421 . S
C587 O571 1.381 . S
C587 O572 1.421 . S
O588 Fe562 2.077 . S
O588 C591 1.381 . S
O589 Fe560 1.935 . S
O589 C591 1.421 . S
C590 O578 1.381 . S
C590 O579 1.421 . S
C591 O588 1.381 . S
C591 O589 1.421 . S
Fe592 O593 1.886 . S
Fe592 O596 1.715 . S
Fe592 O601 2.077 1_455 S
Fe592 O606 1.935 1_455 S
Fe592 O612 2.077 . S
Fe592 O621 1.935 . S
O593 Fe592 1.886 . S
O593 Fe595 1.715 . S
Fe594 O596 1.886 . S
Fe594 O597 1.715 . S
Fe594 O604 1.935 1_455 S
Fe594 O605 2.077 1_455 S
Fe594 O611 1.935 . S
Fe594 O620 2.077 . S
Fe595 O593 1.715 . S
Fe595 O598 1.886 . S
Fe595 O602 1.935 1_455 S
Fe595 O607 2.077 1_455 S
Fe595 O613 1.935 . S
Fe595 O617 2.077 . S
O596 Fe592 1.715 . S
O596 Fe594 1.886 . S
O597 Fe594 1.715 . S
O597 Fe599 1.886 . S
O598 Fe595 1.886 . S
O598 Fe599 1.715 . S
Fe599 O597 1.886 . S
Fe599 O598 1.715 . S
Fe599 O603 2.077 1_455 S
Fe599 O608 1.935 1_455 S
Fe599 O610 2.077 . S
Fe599 O618 1.935 . S
C600 O612 1.381 . S
C600 O613 1.421 . S
O601 Fe592 2.077 1_655 S
O601 C614 1.381 . S
O602 Fe595 1.935 1_655 S
O602 C614 1.421 . S
O603 Fe599 2.077 1_655 S
O603 C619 1.381 . S
O604 Fe594 1.935 1_655 S
O604 C619 1.421 . S
O605 Fe594 2.077 1_655 S
O605 C609 1.381 . S
O606 Fe592 1.935 1_655 S
O606 C609 1.421 . S
O607 Fe595 2.077 1_655 S
O607 C615 1.381 . S
O608 Fe599 1.935 1_655 S
O608 C615 1.421 . S
C609 O605 1.381 . S
C609 O606 1.421 . S
O610 Fe599 2.077 . S
O610 C622 1.381 . S
O611 Fe594 1.935 . S
O611 C622 1.421 . S
O612 Fe592 2.077 . S
O612 C600 1.381 . S
O613 Fe595 1.935 . S
O613 C600 1.421 . S
C614 O601 1.381 . S
C614 O602 1.421 . S
C615 O607 1.381 . S
C615 O608 1.421 . S
C616 O617 1.381 . S
C616 O618 1.421 . S
O617 Fe595 2.077 . S
O617 C616 1.381 . S
O618 Fe599 1.935 . S
O618 C616 1.421 . S
C619 O603 1.381 . S
C619 O604 1.421 . S
O620 Fe594 2.077 . S
O620 C623 1.381 . S
O621 Fe592 1.935 . S
O621 C623 1.421 . S
C622 O610 1.381 . S
C622 O611 1.421 . S
C623 O620 1.381 . S
C623 O621 1.421 . S
H624 C632 0.929 . S
H625 C634 0.930 . S
H626 C636 0.930 . S
H627 C639 0.929 . S
H628 C642 0.930 . S
H629 C644 0.960 . S
H630 C644 0.960 . S
H631 C644 0.960 . S
C632 H624 0.929 . S
C632 C633 1.377 . S
C632 C634 1.384 . S
C633 C632 1.377 . S
C633 C639 1.390 . S
C634 H625 0.930 . S
C634 C632 1.384 . S
C634 C635 1.372 . S
C635 C634 1.372 . S
C635 C636 1.400 . S
C635 C640 1.490 . S
C636 H626 0.930 . S
C636 C635 1.400 . S
C636 C639 1.386 . S
H637 C653 0.930 . S
H638 C654 0.931 . S
C639 H627 0.929 . S
C639 C633 1.390 . S
C639 C636 1.386 . S
C640 C635 1.490 . S
C640 C642 1.395 . S
C640 C643 1.403 . S
H641 C647 0.930 . S
C642 H628 0.930 . S
C642 C640 1.395 . S
C642 C645 1.403 . S
C643 C640 1.403 . S
C643 C644 1.524 . S
C643 C647 1.400 . S
C644 H629 0.960 . S
C644 H630 0.960 . S
C644 H631 0.960 . S
C644 C643 1.524 . S
C645 C642 1.403 . S
C645 C646 1.392 . S
C645 C649 1.495 . S
C646 C645 1.392 . S
C646 C647 1.385 . S
C646 C648 1.478 . S
C647 H641 0.930 . S
C647 C643 1.400 . S
C647 C646 1.385 . S
C648 C646 1.478 . S
C648 C650 1.381 . S
C648 C654 1.383 . S
C649 C645 1.495 . S
C649 H655 0.959 . S
C649 H656 0.961 . S
C649 H657 0.960 . S
C650 C648 1.381 . S
C650 C651 1.394 . S
C650 H658 0.930 . S
C651 C650 1.394 . S
C651 C652 1.383 . S
C651 H659 0.929 . S
C652 C651 1.383 . S
C652 C653 1.377 . S
C653 H637 0.930 . S
C653 C652 1.377 . S
C653 C654 1.379 . S
C654 H638 0.931 . S
C654 C648 1.383 . S
C654 C653 1.379 . S
H655 C649 0.959 . S
H656 C649 0.961 . S
H657 C649 0.960 . S
H658 C650 0.930 . S
H659 C651 0.929 . S
H660 C668 0.929 . S
H661 C670 0.930 . S
H662 C672 0.930 . S
H663 C675 0.929 . S
H664 C678 0.930 . S
H665 C680 0.960 . S
H666 C680 0.960 . S
H667 C680 0.960 . S
C668 H660 0.929 . S
C668 C669 1.377 1_545 S
C668 C670 1.384 . S
C669 C668 1.377 1_565 S
C669 C675 1.390 . S
C670 H661 0.930 . S
C670 C668 1.384 . S
C670 C671 1.372 . S
C671 C670 1.372 . S
C671 C672 1.400 1_545 S
C671 C676 1.490 . S
C672 H662 0.930 . S
C672 C671 1.400 1_565 S
C672 C675 1.386 . S
H673 C689 0.930 . S
H674 C690 0.931 . S
C675 H663 0.929 . S
C675 C669 1.390 . S
C675 C672 1.386 . S
C676 C671 1.490 . S
C676 C678 1.395 . S
C676 C679 1.403 . S
H677 C683 0.930 . S
C678 H664 0.930 . S
C678 C676 1.395 . S
C678 C681 1.403 . S
C679 C676 1.403 . S
C679 C680 1.524 . S
C679 C683 1.400 . S
C680 H665 0.960 . S
C680 H666 0.960 . S
C680 H667 0.960 . S
C680 C679 1.524 . S
C681 C678 1.403 . S
C681 C682 1.392 . S
C681 C685 1.495 . S
C682 C681 1.392 . S
C682 C683 1.385 . S
C682 C684 1.478 . S
C683 H677 0.930 . S
C683 C679 1.400 . S
C683 C682 1.385 . S
C684 C682 1.478 . S
C684 C686 1.381 . S
C684 C690 1.383 . S
C685 C681 1.495 . S
C685 H691 0.959 . S
C685 H692 0.961 . S
C685 H693 0.960 . S
C686 C684 1.381 . S
C686 C687 1.394 . S
C686 H694 0.930 . S
C687 C686 1.394 . S
C687 C688 1.383 . S
C687 H695 0.929 . S
C688 C687 1.383 . S
C688 C689 1.377 . S
C689 H673 0.930 . S
C689 C688 1.377 . S
C689 C690 1.379 . S
C690 H674 0.931 . S
C690 C684 1.383 . S
C690 C689 1.379 . S
H691 C685 0.959 . S
H692 C685 0.961 . S
H693 C685 0.960 . S
H694 C686 0.930 . S
H695 C687 0.929 . S
H696 C704 0.929 . S
H697 C706 0.930 . S
H698 C708 0.930 . S
H699 C711 0.929 . S
H700 C714 0.930 . S
H701 C716 0.960 . S
H702 C716 0.960 . S
H703 C716 0.960 . S
C704 H696 0.929 . S
C704 C705 1.377 . S
C704 C706 1.384 . S
C705 C704 1.377 . S
C705 C711 1.390 . S
C706 H697 0.930 . S
C706 C704 1.384 . S
C706 C707 1.372 . S
C707 C706 1.372 . S
C707 C708 1.400 . S
C707 C712 1.490 . S
C708 H698 0.930 . S
C708 C707 1.400 . S
C708 C711 1.386 . S
H709 C725 0.930 . S
H710 C726 0.931 . S
C711 H699 0.929 . S
C711 C705 1.390 . S
C711 C708 1.386 . S
C712 C707 1.490 . S
C712 C714 1.395 . S
C712 C715 1.403 . S
H713 C719 0.930 . S
C714 H700 0.930 . S
C714 C712 1.395 . S
C714 C717 1.403 . S
C715 C712 1.403 . S
C715 C716 1.524 . S
C715 C719 1.400 . S
C716 H701 0.960 . S
C716 H702 0.960 . S
C716 H703 0.960 . S
C716 C715 1.524 . S
C717 C714 1.403 . S
C717 C718 1.392 . S
C717 C721 1.495 . S
C718 C717 1.392 . S
C718 C719 1.385 . S
C718 C720 1.478 . S
C719 H713 0.930 . S
C719 C715 1.400 . S
C719 C718 1.385 . S
C720 C718 1.478 . S
C720 C722 1.381 . S
C720 C726 1.383 . S
C721 C717 1.495 . S
C721 H727 0.959 . S
C721 H728 0.961 . S
C721 H729 0.960 . S
C722 C720 1.381 . S
C722 C723 1.394 . S
C722 H730 0.930 . S
C723 C722 1.394 . S
C723 C724 1.383 . S
C723 H731 0.929 . S
C724 C723 1.383 . S
C724 C725 1.377 . S
C725 H709 0.930 . S
C725 C724 1.377 . S
C725 C726 1.379 . S
C726 H710 0.931 . S
C726 C720 1.383 . S
C726 C725 1.379 . S
H727 C721 0.959 . S
H728 C721 0.961 . S
H729 C721 0.960 . S
H730 C722 0.930 . S
H731 C723 0.929 . S
H732 C740 0.929 . S
H733 C742 0.930 . S
H734 C744 0.930 . S
H735 C747 0.929 . S
H736 C750 0.930 . S
H737 C752 0.960 . S
H738 C752 0.960 . S
H739 C752 0.960 . S
C740 H732 0.929 . S
C740 C741 1.377 . S
C740 C742 1.384 . S
C741 C740 1.377 . S
C741 C747 1.390 . S
C742 H733 0.930 . S
C742 C740 1.384 . S
C742 C743 1.372 1_545 S
C743 C742 1.372 1_565 S
C743 C744 1.400 . S
C743 C748 1.490 . S
C744 H734 0.930 . S
C744 C743 1.400 . S
C744 C747 1.386 1_565 S
H745 C761 0.930 . S
H746 C762 0.931 . S
C747 H735 0.929 . S
C747 C741 1.390 . S
C747 C744 1.386 1_545 S
C748 C743 1.490 . S
C748 C750 1.395 . S
C748 C751 1.403 . S
H749 C755 0.930 . S
C750 H736 0.930 . S
C750 C748 1.395 . S
C750 C753 1.403 . S
C751 C748 1.403 . S
C751 C752 1.524 . S
C751 C755 1.400 . S
C752 H737 0.960 . S
C752 H738 0.960 . S
C752 H739 0.960 . S
C752 C751 1.524 . S
C753 C750 1.403 . S
C753 C754 1.392 . S
C753 C757 1.495 . S
C754 C753 1.392 . S
C754 C755 1.385 . S
C754 C756 1.478 . S
C755 H749 0.930 . S
C755 C751 1.400 . S
C755 C754 1.385 . S
C756 C754 1.478 . S
C756 C758 1.381 . S
C756 C762 1.383 . S
C757 C753 1.495 . S
C757 H763 0.959 . S
C757 H764 0.961 . S
C757 H765 0.960 . S
C758 C756 1.381 . S
C758 C759 1.394 . S
C758 H766 0.930 . S
C759 C758 1.394 . S
C759 C760 1.383 . S
C759 H767 0.929 . S
C760 C759 1.383 . S
C760 C761 1.377 . S
C761 H745 0.930 . S
C761 C760 1.377 . S
C761 C762 1.379 . S
C762 H746 0.931 . S
C762 C756 1.383 . S
C762 C761 1.379 . S
H763 C757 0.959 . S
H764 C757 0.961 . S
H765 C757 0.960 . S
H766 C758 0.930 . S
H767 C759 0.929 . S
H768 C776 0.929 . S
H769 C778 0.930 . S
H770 C780 0.930 . S
H771 C783 0.929 . S
H772 C786 0.930 . S
H773 C788 0.960 . S
H774 C788 0.960 . S
H775 C788 0.960 . S
C776 H768 0.929 . S
C776 C777 1.377 . S
C776 C778 1.384 . S
C777 C776 1.377 . S
C777 C783 1.390 . S
C778 H769 0.930 . S
C778 C776 1.384 . S
C778 C779 1.372 . S
C779 C778 1.372 . S
C779 C780 1.400 . S
C779 C784 1.490 . S
C780 H770 0.930 . S
C780 C779 1.400 . S
C780 C783 1.386 . S
H781 C797 0.930 . S
H782 C798 0.931 . S
C783 H771 0.929 . S
C783 C777 1.390 . S
C783 C780 1.386 . S
C784 C779 1.490 . S
C784 C786 1.395 . S
C784 C787 1.403 . S
H785 C791 0.930 . S
C786 H772 0.930 . S
C786 C784 1.395 . S
C786 C789 1.403 . S
C787 C784 1.403 . S
C787 C788 1.524 . S
C787 C791 1.400 . S
C788 H773 0.960 . S
C788 H774 0.960 . S
C788 H775 0.960 . S
C788 C787 1.524 . S
C789 C786 1.403 . S
C789 C790 1.392 . S
C789 C793 1.495 . S
C790 C789 1.392 . S
C790 C791 1.385 . S
C790 C792 1.478 . S
C791 H785 0.930 . S
C791 C787 1.400 . S
C791 C790 1.385 . S
C792 C790 1.478 . S
C792 C794 1.381 . S
C792 C798 1.383 . S
C793 C789 1.495 . S
C793 H799 0.959 . S
C793 H800 0.961 . S
C793 H801 0.960 . S
C794 C792 1.381 . S
C794 C795 1.394 . S
C794 H802 0.930 . S
C795 C794 1.394 . S
C795 C796 1.383 . S
C795 H803 0.929 . S
C796 C795 1.383 . S
C796 C797 1.377 . S
C797 H781 0.930 . S
C797 C796 1.377 . S
C797 C798 1.379 . S
C798 H782 0.931 . S
C798 C792 1.383 . S
C798 C797 1.379 . S
H799 C793 0.959 . S
H800 C793 0.961 . S
H801 C793 0.960 . S
H802 C794 0.930 . S
H803 C795 0.929 . S
H804 C812 0.929 . S
H805 C814 0.930 . S
H806 C816 0.930 . S
H807 C819 0.929 . S
H808 C822 0.930 . S
H809 C824 0.960 . S
H810 C824 0.960 . S
H811 C824 0.960 . S
C812 H804 0.929 . S
C812 C813 1.377 . S
C812 C814 1.384 . S
C813 C812 1.377 . S
C813 C819 1.390 . S
C814 H805 0.930 . S
C814 C812 1.384 . S
C814 C815 1.372 1_565 S
C815 C814 1.372 1_545 S
C815 C816 1.400 . S
C815 C820 1.490 . S
C816 H806 0.930 . S
C816 C815 1.400 . S
C816 C819 1.386 1_545 S
H817 C833 0.930 . S
H818 C834 0.931 . S
C819 H807 0.929 . S
C819 C813 1.390 . S
C819 C816 1.386 1_565 S
C820 C815 1.490 . S
C820 C822 1.395 . S
C820 C823 1.403 . S
H821 C827 0.930 . S
C822 H808 0.930 . S
C822 C820 1.395 . S
C822 C825 1.403 . S
C823 C820 1.403 . S
C823 C824 1.524 . S
C823 C827 1.400 . S
C824 H809 0.960 . S
C824 H810 0.960 . S
C824 H811 0.960 . S
C824 C823 1.524 . S
C825 C822 1.403 . S
C825 C826 1.392 . S
C825 C829 1.495 . S
C826 C825 1.392 . S
C826 C827 1.385 . S
C826 C828 1.478 . S
C827 H821 0.930 . S
C827 C823 1.400 . S
C827 C826 1.385 . S
C828 C826 1.478 . S
C828 C830 1.381 . S
C828 C834 1.383 . S
C829 C825 1.495 . S
C829 H835 0.959 . S
C829 H836 0.961 . S
C829 H837 0.960 . S
C830 C828 1.381 . S
C830 C831 1.394 . S
C830 H838 0.930 . S
C831 C830 1.394 . S
C831 C832 1.383 . S
C831 H839 0.929 . S
C832 C831 1.383 . S
C832 C833 1.377 . S
C833 H817 0.930 . S
C833 C832 1.377 . S
C833 C834 1.379 . S
C834 H818 0.931 . S
C834 C828 1.383 . S
C834 C833 1.379 . S
H835 C829 0.959 . S
H836 C829 0.961 . S
H837 C829 0.960 . S
H838 C830 0.930 . S
H839 C831 0.929 . S
H840 C848 0.929 . S
H841 C850 0.930 . S
H842 C852 0.930 . S
H843 C855 0.929 . S
H844 C858 0.930 . S
H845 C860 0.960 . S
H846 C860 0.960 . S
H847 C860 0.960 . S
C848 H840 0.929 . S
C848 C849 1.377 . S
C848 C850 1.384 . S
C849 C848 1.377 . S
C849 C855 1.390 . S
C850 H841 0.930 . S
C850 C848 1.384 . S
C850 C851 1.372 . S
C851 C850 1.372 . S
C851 C852 1.400 . S
C851 C856 1.490 . S
C852 H842 0.930 . S
C852 C851 1.400 . S
C852 C855 1.386 . S
H853 C869 0.930 . S
H854 C870 0.931 . S
C855 H843 0.929 . S
C855 C849 1.390 . S
C855 C852 1.386 . S
C856 C851 1.490 . S
C856 C858 1.395 . S
C856 C859 1.403 . S
H857 C863 0.930 . S
C858 H844 0.930 . S
C858 C856 1.395 . S
C858 C861 1.403 . S
C859 C856 1.403 . S
C859 C860 1.524 . S
C859 C863 1.400 . S
C860 H845 0.960 . S
C860 H846 0.960 . S
C860 H847 0.960 . S
C860 C859 1.524 . S
C861 C858 1.403 . S
C861 C862 1.392 . S
C861 C865 1.495 . S
C862 C861 1.392 . S
C862 C863 1.385 . S
C862 C864 1.478 . S
C863 H857 0.930 . S
C863 C859 1.400 . S
C863 C862 1.385 . S
C864 C862 1.478 . S
C864 C866 1.381 . S
C864 C870 1.383 . S
C865 C861 1.495 . S
C865 H871 0.959 . S
C865 H872 0.961 . S
C865 H873 0.960 . S
C866 C864 1.381 . S
C866 C867 1.394 . S
C866 H874 0.930 . S
C867 C866 1.394 . S
C867 C868 1.383 . S
C867 H875 0.929 . S
C868 C867 1.383 . S
C868 C869 1.377 . S
C869 H853 0.930 . S
C869 C868 1.377 . S
C869 C870 1.379 . S
C870 H854 0.931 . S
C870 C864 1.383 . S
C870 C869 1.379 . S
H871 C865 0.959 . S
H872 C865 0.961 . S
H873 C865 0.960 . S
H874 C866 0.930 . S
H875 C867 0.929 . S
H876 C884 0.929 . S
H877 C886 0.930 . S
H878 C888 0.930 . S
H879 C891 0.929 . S
H880 C894 0.930 1_545 S
H881 C896 0.960 . S
H882 C896 0.960 . S
H883 C896 0.960 . S
C884 H876 0.929 . S
C884 C885 1.377 . S
C884 C886 1.384 . S
C885 C884 1.377 . S
C885 C891 1.390 . S
C886 H877 0.930 . S
C886 C884 1.384 . S
C886 C887 1.372 . S
C887 C886 1.372 . S
C887 C888 1.400 . S
C887 C892 1.490 1_545 S
C888 H878 0.930 . S
C888 C887 1.400 . S
C888 C891 1.386 . S
H889 C905 0.930 . S
H890 C906 0.931 . S
C891 H879 0.929 . S
C891 C885 1.390 . S
C891 C888 1.386 . S
C892 C887 1.490 1_565 S
C892 C894 1.395 . S
C892 C895 1.403 . S
H893 C899 0.930 . S
C894 H880 0.930 1_565 S
C894 C892 1.395 . S
C894 C897 1.403 . S
C895 C892 1.403 . S
C895 C896 1.524 . S
C895 C899 1.400 . S
C896 H881 0.960 . S
C896 H882 0.960 . S
C896 H883 0.960 . S
C896 C895 1.524 . S
C897 C894 1.403 . S
C897 C898 1.392 . S
C897 C901 1.495 . S
C898 C897 1.392 . S
C898 C899 1.385 . S
C898 C900 1.478 . S
C899 H893 0.930 . S
C899 C895 1.400 . S
C899 C898 1.385 . S
C900 C898 1.478 . S
C900 C902 1.381 . S
C900 C906 1.383 . S
C901 C897 1.495 . S
C901 H907 0.959 . S
C901 H908 0.961 . S
C901 H909 0.960 . S
C902 C900 1.381 . S
C902 C903 1.394 . S
C902 H910 0.930 . S
C903 C902 1.394 . S
C903 C904 1.383 . S
C903 H911 0.929 . S
C904 C903 1.383 . S
C904 C905 1.377 . S
C905 H889 0.930 . S
C905 C904 1.377 . S
C905 C906 1.379 . S
C906 H890 0.931 . S
C906 C900 1.383 . S
C906 C905 1.379 . S
H907 C901 0.959 . S
H908 C901 0.961 . S
H909 C901 0.960 . S
H910 C902 0.930 . S
H911 C903 0.929 . S
H912 C920 0.929 . S
H913 C922 0.930 . S
H914 C924 0.930 . S
H915 C927 0.929 . S
H916 C930 0.930 . S
H917 C932 0.960 . S
H918 C932 0.960 . S
H919 C932 0.960 . S
C920 H912 0.929 . S
C920 C921 1.377 . S
C920 C922 1.384 . S
C921 C920 1.377 . S
C921 C927 1.390 . S
C922 H913 0.930 . S
C922 C920 1.384 . S
C922 C923 1.372 . S
C923 C922 1.372 . S
C923 C924 1.400 . S
C923 C928 1.490 . S
C924 H914 0.930 . S
C924 C923 1.400 . S
C924 C927 1.386 . S
H925 C941 0.930 . S
H926 C942 0.931 . S
C927 H915 0.929 . S
C927 C921 1.390 . S
C927 C924 1.386 . S
C928 C923 1.490 . S
C928 C930 1.395 . S
C928 C931 1.403 . S
H929 C935 0.930 . S
C930 H916 0.930 . S
C930 C928 1.395 . S
C930 C933 1.403 . S
C931 C928 1.403 . S
C931 C932 1.524 . S
C931 C935 1.400 . S
C932 H917 0.960 . S
C932 H918 0.960 . S
C932 H919 0.960 . S
C932 C931 1.524 . S
C933 C930 1.403 . S
C933 C934 1.392 . S
C933 C937 1.495 . S
C934 C933 1.392 . S
C934 C935 1.385 . S
C934 C936 1.478 . S
C935 H929 0.930 . S
C935 C931 1.400 . S
C935 C934 1.385 . S
C936 C934 1.478 . S
C936 C938 1.381 . S
C936 C942 1.383 . S
C937 C933 1.495 . S
C937 H943 0.959 . S
C937 H944 0.961 . S
C937 H945 0.960 . S
C938 C936 1.381 . S
C938 C939 1.394 . S
C938 H946 0.930 . S
C939 C938 1.394 . S
C939 C940 1.383 . S
C939 H947 0.929 . S
C940 C939 1.383 . S
C940 C941 1.377 . S
C941 H925 0.930 . S
C941 C940 1.377 . S
C941 C942 1.379 . S
C942 H926 0.931 . S
C942 C936 1.383 . S
C942 C941 1.379 . S
H943 C937 0.959 . S
H944 C937 0.961 . S
H945 C937 0.960 . S
H946 C938 0.930 . S
H947 C939 0.929 . S
H948 C956 0.929 . S
H949 C958 0.930 1_565 S
H950 C960 0.930 . S
H951 C963 0.929 . S
H952 C966 0.930 . S
H953 C968 0.960 . S
H954 C968 0.960 . S
H955 C968 0.960 1_545 S
C956 H948 0.929 . S
C956 C957 1.377 . S
C956 C958 1.384 . S
C957 C956 1.377 . S
C957 C963 1.390 . S
C958 H949 0.930 1_545 S
C958 C956 1.384 . S
C958 C959 1.372 . S
C959 C958 1.372 . S
C959 C960 1.400 . S
C959 C964 1.490 1_545 S
C960 H950 0.930 . S
C960 C959 1.400 . S
C960 C963 1.386 . S
H961 C977 0.930 . S
H962 C978 0.931 . S
C963 H951 0.929 . S
C963 C957 1.390 . S
C963 C960 1.386 . S
C964 C959 1.490 1_565 S
C964 C966 1.395 . S
C964 C967 1.403 . S
H965 C971 0.930 . S
C966 H952 0.930 . S
C966 C964 1.395 . S
C966 C969 1.403 . S
C967 C964 1.403 . S
C967 C968 1.524 . S
C967 C971 1.400 . S
C968 H953 0.960 . S
C968 H954 0.960 . S
C968 H955 0.960 1_565 S
C968 C967 1.524 . S
C969 C966 1.403 . S
C969 C970 1.392 . S
C969 C973 1.495 . S
C970 C969 1.392 . S
C970 C971 1.385 . S
C970 C972 1.478 . S
C971 H965 0.930 . S
C971 C967 1.400 . S
C971 C970 1.385 . S
C972 C970 1.478 . S
C972 C974 1.381 . S
C972 C978 1.383 . S
C973 C969 1.495 . S
C973 H979 0.959 . S
C973 H980 0.961 . S
C973 H981 0.960 . S
C974 C972 1.381 . S
C974 C975 1.394 . S
C974 H982 0.930 . S
C975 C974 1.394 . S
C975 C976 1.383 . S
C975 H983 0.929 . S
C976 C975 1.383 . S
C976 C977 1.377 . S
C977 H961 0.930 . S
C977 C976 1.377 . S
C977 C978 1.379 . S
C978 H962 0.931 . S
C978 C972 1.383 . S
C978 C977 1.379 . S
H979 C973 0.959 . S
H980 C973 0.961 . S
H981 C973 0.960 . S
H982 C974 0.930 . S
H983 C975 0.929 . S
H984 C992 0.929 . S
H985 C994 0.930 . S
H986 C996 0.930 . S
H987 C999 0.929 . S
H988 C1002 0.930 . S
H989 C1004 0.960 . S
H990 C1004 0.960 . S
H991 C1004 0.960 . S
C992 H984 0.929 . S
C992 C993 1.377 . S
C992 C994 1.384 . S
C993 C992 1.377 . S
C993 C999 1.390 . S
C994 H985 0.930 . S
C994 C992 1.384 . S
C994 C995 1.372 . S
C995 C994 1.372 . S
C995 C996 1.400 . S
C995 C1000 1.490 . S
C996 H986 0.930 . S
C996 C995 1.400 . S
C996 C999 1.386 . S
H997 C1013 0.930 . S
H998 C1014 0.931 . S
C999 H987 0.929 . S
C999 C993 1.390 . S
C999 C996 1.386 . S
C1000 C995 1.490 . S
C1000 C1002 1.395 . S
C1000 C1003 1.403 . S
H1001 C1007 0.930 . S
C1002 H988 0.930 . S
C1002 C1000 1.395 . S
C1002 C1005 1.403 . S
C1003 C1000 1.403 . S
C1003 C1004 1.524 . S
C1003 C1007 1.400 . S
C1004 H989 0.960 . S
C1004 H990 0.960 . S
C1004 H991 0.960 . S
C1004 C1003 1.524 . S
C1005 C1002 1.403 . S
C1005 C1006 1.392 . S
C1005 C1009 1.495 . S
C1006 C1005 1.392 . S
C1006 C1007 1.385 . S
C1006 C1008 1.478 . S
C1007 H1001 0.930 . S
C1007 C1003 1.400 . S
C1007 C1006 1.385 . S
C1008 C1006 1.478 . S
C1008 C1010 1.381 . S
C1008 C1014 1.383 . S
C1009 C1005 1.495 . S
C1009 H1015 0.959 . S
C1009 H1016 0.961 . S
C1009 H1017 0.960 . S
C1010 C1008 1.381 . S
C1010 C1011 1.394 . S
C1010 H1018 0.930 . S
C1011 C1010 1.394 . S
C1011 C1012 1.383 . S
C1011 H1019 0.929 . S
C1012 C1011 1.383 . S
C1012 C1013 1.377 . S
C1013 H997 0.930 . S
C1013 C1012 1.377 . S
C1013 C1014 1.379 . S
C1014 H998 0.931 . S
C1014 C1008 1.383 . S
C1014 C1013 1.379 . S
H1015 C1009 0.959 . S
H1016 C1009 0.961 . S
H1017 C1009 0.960 . S
H1018 C1010 0.930 . S
H1019 C1011 0.929 . S
H1020 C1028 0.929 . S
H1021 C1030 0.930 1_545 S
H1022 C1032 0.930 . S
H1023 C1035 0.929 . S
H1024 C1038 0.930 . S
H1025 C1040 0.960 . S
H1026 C1040 0.960 . S
H1027 C1040 0.960 . S
C1028 H1020 0.929 . S
C1028 C1029 1.377 . S
C1028 C1030 1.384 . S
C1029 C1028 1.377 . S
C1029 C1035 1.390 . S
C1030 H1021 0.930 1_565 S
C1030 C1028 1.384 . S
C1030 C1031 1.372 1_565 S
C1031 C1030 1.372 1_545 S
C1031 C1032 1.400 1_545 S
C1031 C1036 1.490 . S
C1032 H1022 0.930 . S
C1032 C1031 1.400 1_565 S
C1032 C1035 1.386 . S
H1033 C1049 0.930 . S
H1034 C1050 0.931 . S
C1035 H1023 0.929 . S
C1035 C1029 1.390 . S
C1035 C1032 1.386 . S
C1036 C1031 1.490 . S
C1036 C1038 1.395 . S
C1036 C1039 1.403 . S
H1037 C1043 0.930 . S
C1038 H1024 0.930 . S
C1038 C1036 1.395 . S
C1038 C1041 1.403 . S
C1039 C1036 1.403 . S
C1039 C1040 1.524 . S
C1039 C1043 1.400 . S
C1040 H1025 0.960 . S
C1040 H1026 0.960 . S
C1040 H1027 0.960 . S
C1040 C1039 1.524 . S
C1041 C1038 1.403 . S
C1041 C1042 1.392 . S
C1041 C1045 1.495 . S
C1042 C1041 1.392 . S
C1042 C1043 1.385 . S
C1042 C1044 1.478 . S
C1043 H1037 0.930 . S
C1043 C1039 1.400 . S
C1043 C1042 1.385 . S
C1044 C1042 1.478 . S
C1044 C1046 1.381 . S
C1044 C1050 1.383 . S
C1045 C1041 1.495 . S
C1045 H1051 0.959 . S
C1045 H1052 0.961 . S
C1045 H1053 0.960 . S
C1046 C1044 1.381 . S
C1046 C1047 1.394 . S
C1046 H1054 0.930 . S
C1047 C1046 1.394 . S
C1047 C1048 1.383 . S
C1047 H1055 0.929 . S
C1048 C1047 1.383 . S
C1048 C1049 1.377 . S
C1049 H1033 0.930 . S
C1049 C1048 1.377 . S
C1049 C1050 1.379 . S
C1050 H1034 0.931 . S
C1050 C1044 1.383 . S
C1050 C1049 1.379 . S
H1051 C1045 0.959 . S
H1052 C1045 0.961 . S
H1053 C1045 0.960 . S
H1054 C1046 0.930 . S
H1055 C1047 0.929 . S
H1056 C1064 0.929 . S
H1057 C1066 0.930 . S
H1058 C1068 0.930 . S
H1059 C1071 0.929 . S
H1060 C1074 0.930 . S
H1061 C1076 0.960 . S
H1062 C1076 0.960 . S
H1063 C1076 0.960 . S
C1064 H1056 0.929 . S
C1064 C1065 1.377 . S
C1064 C1066 1.384 . S
C1065 C1064 1.377 . S
C1065 C1071 1.390 . S
C1066 H1057 0.930 . S
C1066 C1064 1.384 . S
C1066 C1067 1.372 . S
C1067 C1066 1.372 . S
C1067 C1068 1.400 . S
C1067 C1072 1.490 . S
C1068 H1058 0.930 . S
C1068 C1067 1.400 . S
C1068 C1071 1.386 . S
H1069 C1085 0.930 . S
H1070 C1086 0.931 . S
C1071 H1059 0.929 . S
C1071 C1065 1.390 . S
C1071 C1068 1.386 . S
C1072 C1067 1.490 . S
C1072 C1074 1.395 . S
C1072 C1075 1.403 . S
H1073 C1079 0.930 . S
C1074 H1060 0.930 . S
C1074 C1072 1.395 . S
C1074 C1077 1.403 . S
C1075 C1072 1.403 . S
C1075 C1076 1.524 . S
C1075 C1079 1.400 . S
C1076 H1061 0.960 . S
C1076 H1062 0.960 . S
C1076 H1063 0.960 . S
C1076 C1075 1.524 . S
C1077 C1074 1.403 . S
C1077 C1078 1.392 . S
C1077 C1081 1.495 . S
C1078 C1077 1.392 . S
C1078 C1079 1.385 . S
C1078 C1080 1.478 . S
C1079 H1073 0.930 . S
C1079 C1075 1.400 . S
C1079 C1078 1.385 . S
C1080 C1078 1.478 . S
C1080 C1082 1.381 . S
C1080 C1086 1.383 . S
C1081 C1077 1.495 . S
C1081 H1087 0.959 . S
C1081 H1088 0.961 . S
C1081 H1089 0.960 . S
C1082 C1080 1.381 . S
C1082 C1083 1.394 . S
C1082 H1090 0.930 . S
C1083 C1082 1.394 . S
C1083 C1084 1.383 . S
C1083 H1091 0.929 . S
C1084 C1083 1.383 . S
C1084 C1085 1.377 . S
C1085 H1069 0.930 . S
C1085 C1084 1.377 . S
C1085 C1086 1.379 . S
C1086 H1070 0.931 . S
C1086 C1080 1.383 . S
C1086 C1085 1.379 . S
H1087 C1081 0.959 . S
H1088 C1081 0.961 . S
H1089 C1081 0.960 . S
H1090 C1082 0.930 . S
H1091 C1083 0.929 . S
H1092 C1100 0.929 . S
H1093 C1102 0.930 . S
H1094 C1104 0.930 . S
H1095 C1107 0.929 . S
H1096 C1110 0.930 . S
H1097 C1112 0.960 . S
H1098 C1112 0.969 . S
H1099 C1112 0.960 . S
C1100 H1092 0.929 . S
C1100 C1101 1.377 . S
C1100 C1102 1.384 . S
C1101 C1100 1.377 . S
C1101 C1107 1.390 . S
C1102 H1093 0.930 . S
C1102 C1100 1.384 . S
C1102 C1103 1.372 1_545 S
C1103 C1102 1.372 1_565 S
C1103 C1104 1.400 . S
C1103 C1108 1.490 . S
C1104 H1094 0.930 . S
C1104 C1103 1.400 . S
C1104 C1107 1.386 1_565 S
H1105 C1121 0.930 . S
H1106 C1122 0.931 . S
C1107 H1095 0.929 . S
C1107 C1101 1.390 . S
C1107 C1104 1.386 1_545 S
C1108 C1103 1.490 . S
C1108 C1110 1.395 . S
C1108 C1111 1.403 . S
H1109 C1115 0.930 . S
C1110 H1096 0.930 . S
C1110 C1108 1.395 . S
C1110 C1113 1.403 . S
C1111 C1108 1.403 . S
C1111 C1112 1.524 . S
C1111 C1115 1.400 . S
C1112 H1097 0.960 . S
C1112 H1098 0.969 . S
C1112 H1099 0.960 . S
C1112 C1111 1.524 . S
C1113 C1110 1.403 . S
C1113 C1114 1.392 . S
C1113 C1117 1.495 . S
C1114 C1113 1.392 . S
C1114 C1115 1.385 . S
C1114 C1116 1.478 . S
C1115 H1109 0.930 . S
C1115 C1111 1.400 . S
C1115 C1114 1.385 . S
C1116 C1114 1.478 . S
C1116 C1118 1.381 . S
C1116 C1122 1.383 . S
C1117 C1113 1.495 . S
C1117 H1123 0.959 . S
C1117 H1124 0.961 . S
C1117 H1125 0.960 . S
C1118 C1116 1.381 . S
C1118 C1119 1.394 . S
C1118 H1126 0.930 . S
C1119 C1118 1.394 . S
C1119 C1120 1.383 . S
C1119 H1127 0.929 . S
C1120 C1119 1.383 . S
C1120 C1121 1.377 . S
C1121 H1105 0.930 . S
C1121 C1120 1.377 . S
C1121 C1122 1.379 . S
C1122 H1106 0.931 . S
C1122 C1116 1.383 . S
C1122 C1121 1.379 . S
H1123 C1117 0.959 . S
H1124 C1117 0.961 . S
H1125 C1117 0.960 . S
H1126 C1118 0.930 . S
H1127 C1119 0.929 . S
H1128 C1136 0.929 . S
H1129 C1138 0.930 . S
H1130 C1140 0.930 . S
H1131 C1143 0.929 . S
H1132 C1146 0.930 . S
H1133 C1148 0.960 . S
H1134 C1148 0.960 . S
H1135 C1148 0.960 . S
C1136 H1128 0.929 . S
C1136 C1137 1.377 . S
C1136 C1138 1.384 . S
C1137 C1136 1.377 . S
C1137 C1143 1.390 . S
C1138 H1129 0.930 . S
C1138 C1136 1.384 . S
C1138 C1139 1.372 . S
C1139 C1138 1.372 . S
C1139 C1140 1.400 . S
C1139 C1144 1.490 . S
C1140 H1130 0.930 . S
C1140 C1139 1.400 . S
C1140 C1143 1.386 . S
H1141 C1157 0.930 . S
H1142 C1158 0.931 . S
C1143 H1131 0.929 . S
C1143 C1137 1.390 . S
C1143 C1140 1.386 . S
C1144 C1139 1.490 . S
C1144 C1146 1.395 . S
C1144 C1147 1.403 . S
H1145 C1151 0.930 . S
C1146 H1132 0.930 . S
C1146 C1144 1.395 . S
C1146 C1149 1.403 . S
C1147 C1144 1.403 . S
C1147 C1148 1.524 . S
C1147 C1151 1.400 . S
C1148 H1133 0.960 . S
C1148 H1134 0.960 . S
C1148 H1135 0.960 . S
C1148 C1147 1.524 . S
C1149 C1146 1.403 . S
C1149 C1150 1.392 . S
C1149 C1153 1.495 . S
C1150 C1149 1.392 . S
C1150 C1151 1.385 . S
C1150 C1152 1.478 . S
C1151 H1145 0.930 . S
C1151 C1147 1.400 . S
C1151 C1150 1.385 . S
C1152 C1150 1.478 . S
C1152 C1154 1.381 . S
C1152 C1158 1.383 . S
C1153 C1149 1.495 . S
C1153 H1159 0.959 . S
C1153 H1160 0.961 . S
C1153 H1161 0.960 . S
C1154 C1152 1.381 . S
C1154 C1155 1.394 . S
C1154 H1162 0.930 . S
C1155 C1154 1.394 . S
C1155 C1156 1.383 . S
C1155 H1163 0.929 . S
C1156 C1155 1.383 . S
C1156 C1157 1.377 . S
C1157 H1141 0.930 . S
C1157 C1156 1.377 . S
C1157 C1158 1.379 . S
C1158 H1142 0.931 . S
C1158 C1152 1.383 . S
C1158 C1157 1.379 . S
H1159 C1153 0.959 . S
H1160 C1153 0.961 . S
H1161 C1153 0.960 . S
H1162 C1154 0.930 . S
H1163 C1155 0.929 . S
H1164 C1172 0.929 . S
H1165 C1174 0.930 . S
H1166 C1176 0.930 . S
H1167 C1179 0.929 . S
H1168 C1182 0.930 . S
H1169 C1184 0.960 . S
H1170 C1184 0.960 . S
H1171 C1184 0.960 . S
C1172 H1164 0.929 . S
C1172 C1173 1.377 . S
C1172 C1174 1.384 . S
C1173 C1172 1.377 . S
C1173 C1179 1.390 1_565 S
C1174 H1165 0.930 . S
C1174 C1172 1.384 . S
C1174 C1175 1.372 1_565 S
C1175 C1174 1.372 1_545 S
C1175 C1176 1.400 . S
C1175 C1180 1.490 . S
C1176 H1166 0.930 . S
C1176 C1175 1.400 . S
C1176 C1179 1.386 . S
H1177 C1193 0.930 . S
H1178 C1194 0.931 . S
C1179 H1167 0.929 . S
C1179 C1173 1.390 1_545 S
C1179 C1176 1.386 . S
C1180 C1175 1.490 . S
C1180 C1182 1.395 . S
C1180 C1183 1.403 . S
H1181 C1187 0.930 . S
C1182 H1168 0.930 . S
C1182 C1180 1.395 . S
C1182 C1185 1.403 . S
C1183 C1180 1.403 . S
C1183 C1184 1.524 . S
C1183 C1187 1.400 . S
C1184 H1169 0.960 . S
C1184 H1170 0.960 . S
C1184 H1171 0.960 . S
C1184 C1183 1.524 . S
C1185 C1182 1.403 . S
C1185 C1186 1.392 . S
C1185 C1189 1.495 . S
C1186 C1185 1.392 . S
C1186 C1187 1.385 . S
C1186 C1188 1.478 . S
C1187 H1181 0.930 . S
C1187 C1183 1.400 . S
C1187 C1186 1.385 . S
C1188 C1186 1.478 . S
C1188 C1190 1.381 . S
C1188 C1194 1.383 . S
C1189 C1185 1.495 . S
C1189 H1195 0.959 . S
C1189 H1196 0.961 . S
C1189 H1197 0.960 . S
C1190 C1188 1.381 . S
C1190 C1191 1.394 . S
C1190 H1198 0.930 . S
C1191 C1190 1.394 . S
C1191 C1192 1.383 . S
C1191 H1199 0.929 . S
C1192 C1191 1.383 . S
C1192 C1193 1.377 . S
C1193 H1177 0.930 . S
C1193 C1192 1.377 . S
C1193 C1194 1.379 . S
C1194 H1178 0.931 . S
C1194 C1188 1.383 . S
C1194 C1193 1.379 . S
H1195 C1189 0.959 . S
H1196 C1189 0.961 . S
H1197 C1189 0.960 . S
H1198 C1190 0.930 . S
H1199 C1191 0.929 . S
H1200 C1208 0.929 . S
H1201 C1210 0.930 . S
H1202 C1212 0.930 . S
H1203 C1215 0.929 . S
H1204 C1218 0.930 . S
H1205 C1220 0.960 . S
H1206 C1220 0.960 . S
H1207 C1220 0.960 . S
C1208 H1200 0.929 . S
C1208 C1209 1.377 . S
C1208 C1210 1.384 . S
C1209 C1208 1.377 . S
C1209 C1215 1.390 . S
C1210 H1201 0.930 . S
C1210 C1208 1.384 . S
C1210 C1211 1.372 . S
C1211 C1210 1.372 . S
C1211 C1212 1.400 . S
C1211 C1216 1.490 . S
C1212 H1202 0.930 . S
C1212 C1211 1.400 . S
C1212 C1215 1.386 . S
H1213 C1229 0.930 . S
H1214 C1230 0.931 . S
C1215 H1203 0.929 . S
C1215 C1209 1.390 . S
C1215 C1212 1.386 . S
C1216 C1211 1.490 . S
C1216 C1218 1.395 . S
C1216 C1219 1.403 . S
H1217 C1223 0.930 . S
C1218 H1204 0.930 . S
C1218 C1216 1.395 . S
C1218 C1221 1.403 . S
C1219 C1216 1.403 . S
C1219 C1220 1.524 . S
C1219 C1223 1.400 . S
C1220 H1205 0.960 . S
C1220 H1206 0.960 . S
C1220 H1207 0.960 . S
C1220 C1219 1.524 . S
C1221 C1218 1.403 . S
C1221 C1222 1.392 . S
C1221 C1225 1.495 . S
C1222 C1221 1.392 . S
C1222 C1223 1.385 . S
C1222 C1224 1.478 . S
C1223 H1217 0.930 . S
C1223 C1219 1.400 . S
C1223 C1222 1.385 . S
C1224 C1222 1.478 . S
C1224 C1226 1.381 . S
C1224 C1230 1.383 . S
C1225 C1221 1.495 . S
C1225 H1231 0.959 . S
C1225 H1232 0.961 . S
C1225 H1233 0.960 . S
C1226 C1224 1.381 . S
C1226 C1227 1.394 . S
C1226 H1234 0.930 . S
C1227 C1226 1.394 . S
C1227 C1228 1.383 . S
C1227 H1235 0.929 . S
C1228 C1227 1.383 . S
C1228 C1229 1.377 . S
C1229 H1213 0.930 . S
C1229 C1228 1.377 . S
C1229 C1230 1.379 . S
C1230 H1214 0.931 . S
C1230 C1224 1.383 . S
C1230 C1229 1.379 . S
H1231 C1225 0.959 . S
H1232 C1225 0.961 . S
H1233 C1225 0.960 . S
H1234 C1226 0.930 . S
H1235 C1227 0.929 . S
H1236 C1244 0.929 . S
H1237 C1246 0.930 . S
H1238 C1248 0.930 . S
H1239 C1251 0.929 . S
H1240 C1254 0.930 . S
H1241 C1256 0.960 . S
H1242 C1256 0.960 . S
H1243 C1256 0.960 . S
C1244 H1236 0.929 . S
C1244 C1245 1.377 . S
C1244 C1246 1.384 . S
C1245 C1244 1.377 . S
C1245 C1251 1.390 . S
C1246 H1237 0.930 . S
C1246 C1244 1.384 . S
C1246 C1247 1.372 . S
C1247 C1246 1.372 . S
C1247 C1248 1.400 . S
C1247 C1252 1.490 . S
C1248 H1238 0.930 . S
C1248 C1247 1.400 . S
C1248 C1251 1.386 . S
H1249 C1265 0.930 . S
H1250 C1266 0.931 . S
C1251 H1239 0.929 . S
C1251 C1245 1.390 . S
C1251 C1248 1.386 . S
C1252 C1247 1.490 . S
C1252 C1254 1.395 . S
C1252 C1255 1.403 . S
H1253 C1259 0.930 . S
C1254 H1240 0.930 . S
C1254 C1252 1.395 . S
C1254 C1257 1.403 . S
C1255 C1252 1.403 . S
C1255 C1256 1.524 . S
C1255 C1259 1.400 . S
C1256 H1241 0.960 . S
C1256 H1242 0.960 . S
C1256 H1243 0.960 . S
C1256 C1255 1.524 . S
C1257 C1254 1.403 . S
C1257 C1258 1.392 . S
C1257 C1261 1.495 . S
C1258 C1257 1.392 . S
C1258 C1259 1.385 . S
C1258 C1260 1.478 . S
C1259 H1253 0.930 . S
C1259 C1255 1.400 . S
C1259 C1258 1.385 . S
C1260 C1258 1.478 . S
C1260 C1262 1.381 . S
C1260 C1266 1.383 . S
C1261 C1257 1.495 . S
C1261 H1267 0.959 . S
C1261 H1268 0.961 . S
C1261 H1269 0.960 . S
C1262 C1260 1.381 . S
C1262 C1263 1.394 . S
C1262 H1270 0.930 . S
C1263 C1262 1.394 . S
C1263 C1264 1.383 . S
C1263 H1271 0.929 . S
C1264 C1263 1.383 . S
C1264 C1265 1.377 . S
C1265 H1249 0.930 . S
C1265 C1264 1.377 . S
C1265 C1266 1.379 . S
C1266 H1250 0.931 . S
C1266 C1260 1.383 . S
C1266 C1265 1.379 . S
H1267 C1261 0.959 . S
H1268 C1261 0.961 . S
H1269 C1261 0.960 . S
H1270 C1262 0.930 . S
H1271 C1263 0.929 . S
H1272 C1280 0.929 . S
H1273 C1282 0.930 . S
H1274 C1284 0.930 . S
H1275 C1287 0.929 . S
H1276 C1290 0.930 . S
H1277 C1292 0.960 . S
H1278 C1292 0.960 . S
H1279 C1292 0.960 . S
C1280 H1272 0.929 . S
C1280 C1281 1.377 . S
C1280 C1282 1.384 . S
C1281 C1280 1.377 . S
C1281 C1287 1.390 . S
C1282 H1273 0.930 . S
C1282 C1280 1.384 . S
C1282 C1283 1.372 . S
C1283 C1282 1.372 . S
C1283 C1284 1.400 . S
C1283 C1288 1.490 . S
C1284 H1274 0.930 . S
C1284 C1283 1.400 . S
C1284 C1287 1.386 . S
H1285 C1301 0.930 . S
H1286 C1302 0.931 . S
C1287 H1275 0.929 . S
C1287 C1281 1.390 . S
C1287 C1284 1.386 . S
C1288 C1283 1.490 . S
C1288 C1290 1.395 . S
C1288 C1291 1.403 . S
H1289 C1295 0.930 . S
C1290 H1276 0.930 . S
C1290 C1288 1.395 . S
C1290 C1293 1.403 . S
C1291 C1288 1.403 . S
C1291 C1292 1.524 . S
C1291 C1295 1.400 . S
C1292 H1277 0.960 . S
C1292 H1278 0.960 . S
C1292 H1279 0.960 . S
C1292 C1291 1.524 . S
C1293 C1290 1.403 . S
C1293 C1294 1.392 . S
C1293 C1297 1.495 . S
C1294 C1293 1.392 . S
C1294 C1295 1.385 . S
C1294 C1296 1.478 . S
C1295 H1289 0.930 . S
C1295 C1291 1.400 . S
C1295 C1294 1.385 . S
C1296 C1294 1.478 . S
C1296 C1298 1.381 . S
C1296 C1302 1.383 . S
C1297 C1293 1.495 . S
C1297 H1303 0.959 . S
C1297 H1304 0.961 . S
C1297 H1305 0.960 . S
C1298 C1296 1.381 . S
C1298 C1299 1.394 . S
C1298 H1306 0.930 . S
C1299 C1298 1.394 . S
C1299 C1300 1.383 . S
C1299 H1307 0.929 . S
C1300 C1299 1.383 . S
C1300 C1301 1.377 . S
C1301 H1285 0.930 . S
C1301 C1300 1.377 . S
C1301 C1302 1.379 . S
C1302 H1286 0.931 . S
C1302 C1296 1.383 . S
C1302 C1301 1.379 . S
H1303 C1297 0.959 . S
H1304 C1297 0.961 . S
H1305 C1297 0.960 . S
H1306 C1298 0.930 . S
H1307 C1299 0.929 . S
H1308 C1316 0.929 . S
H1309 C1318 0.930 . S
H1310 C1320 0.930 . S
H1311 C1323 0.929 . S
H1312 C1326 0.930 . S
H1313 C1328 0.960 . S
H1314 C1328 0.960 . S
H1315 C1328 0.960 . S
C1316 H1308 0.929 . S
C1316 C1317 1.377 . S
C1316 C1318 1.384 . S
C1317 C1316 1.377 . S
C1317 C1323 1.390 . S
C1318 H1309 0.930 . S
C1318 C1316 1.384 . S
C1318 C1319 1.372 . S
C1319 C1318 1.372 . S
C1319 C1320 1.400 . S
C1319 C1324 1.490 . S
C1320 H1310 0.930 . S
C1320 C1319 1.400 . S
C1320 C1323 1.386 . S
H1321 C1337 0.930 . S
H1322 C1338 0.931 . S
C1323 H1311 0.929 . S
C1323 C1317 1.390 . S
C1323 C1320 1.386 . S
C1324 C1319 1.490 . S
C1324 C1326 1.395 . S
C1324 C1327 1.403 . S
H1325 C1331 0.930 . S
C1326 H1312 0.930 . S
C1326 C1324 1.395 . S
C1326 C1329 1.403 . S
C1327 C1324 1.403 . S
C1327 C1328 1.524 . S
C1327 C1331 1.400 . S
C1328 H1313 0.960 . S
C1328 H1314 0.960 . S
C1328 H1315 0.960 . S
C1328 C1327 1.524 . S
C1329 C1326 1.403 . S
C1329 C1330 1.392 . S
C1329 C1333 1.495 . S
C1330 C1329 1.392 . S
C1330 C1331 1.385 . S
C1330 C1332 1.478 . S
C1331 H1325 0.930 . S
C1331 C1327 1.400 . S
C1331 C1330 1.385 . S
C1332 C1330 1.478 . S
C1332 C1334 1.381 . S
C1332 C1338 1.383 . S
C1333 C1329 1.495 . S
C1333 H1339 0.959 . S
C1333 H1340 0.961 . S
C1333 H1341 0.960 . S
C1334 C1332 1.381 . S
C1334 C1335 1.394 . S
C1334 H1342 0.930 . S
C1335 C1334 1.394 . S
C1335 C1336 1.383 . S
C1335 H1343 0.929 . S
C1336 C1335 1.383 . S
C1336 C1337 1.377 . S
C1337 H1321 0.930 . S
C1337 C1336 1.377 . S
C1337 C1338 1.379 . S
C1338 H1322 0.931 . S
C1338 C1332 1.383 . S
C1338 C1337 1.379 . S
H1339 C1333 0.959 . S
H1340 C1333 0.961 . S
H1341 C1333 0.960 . S
H1342 C1334 0.930 . S
H1343 C1335 0.929 . S
H1344 C1352 0.929 . S
H1345 C1354 0.930 . S
H1346 C1356 0.930 . S
H1347 C1359 0.929 . S
H1348 C1362 0.930 . S
H1349 C1364 0.960 . S
H1350 C1364 0.960 . S
H1351 C1364 0.960 . S
C1352 H1344 0.929 . S
C1352 C1353 1.377 . S
C1352 C1354 1.384 . S
C1353 C1352 1.377 . S
C1353 C1359 1.390 . S
C1354 H1345 0.930 . S
C1354 C1352 1.384 . S
C1354 C1355 1.372 . S
C1355 C1354 1.372 . S
C1355 C1356 1.400 . S
C1355 C1360 1.490 . S
C1356 H1346 0.930 . S
C1356 C1355 1.400 . S
C1356 C1359 1.386 . S
H1357 C1373 0.930 . S
H1358 C1374 0.931 . S
C1359 H1347 0.929 . S
C1359 C1353 1.390 . S
C1359 C1356 1.386 . S
C1360 C1355 1.490 . S
C1360 C1362 1.395 . S
C1360 C1363 1.403 . S
H1361 C1367 0.930 . S
C1362 H1348 0.930 . S
C1362 C1360 1.395 . S
C1362 C1365 1.403 . S
C1363 C1360 1.403 . S
C1363 C1364 1.524 . S
C1363 C1367 1.400 . S
C1364 H1349 0.960 . S
C1364 H1350 0.960 . S
C1364 H1351 0.960 . S
C1364 C1363 1.524 . S
C1365 C1362 1.403 . S
C1365 C1366 1.392 . S
C1365 C1369 1.495 . S
C1366 C1365 1.392 . S
C1366 C1367 1.385 . S
C1366 C1368 1.478 . S
C1367 H1361 0.930 . S
C1367 C1363 1.400 . S
C1367 C1366 1.385 . S
C1368 C1366 1.478 . S
C1368 C1370 1.381 . S
C1368 C1374 1.383 . S
C1369 C1365 1.495 . S
C1369 H1375 0.959 . S
C1369 H1376 0.961 . S
C1369 H1377 0.960 . S
C1370 C1368 1.381 . S
C1370 C1371 1.394 . S
C1370 H1378 0.930 . S
C1371 C1370 1.394 . S
C1371 C1372 1.383 . S
C1371 H1379 0.929 . S
C1372 C1371 1.383 . S
C1372 C1373 1.377 . S
C1373 H1357 0.930 . S
C1373 C1372 1.377 . S
C1373 C1374 1.379 . S
C1374 H1358 0.931 . S
C1374 C1368 1.383 . S
C1374 C1373 1.379 . S
H1375 C1369 0.959 . S
H1376 C1369 0.961 . S
H1377 C1369 0.960 . S
H1378 C1370 0.930 . S
H1379 C1371 0.929 . S
H1380 C1388 0.929 . S
H1381 C1390 0.930 . S
H1382 C1392 0.930 . S
H1383 C1395 0.929 . S
H1384 C1398 0.930 . S
H1385 C1400 0.960 . S
H1386 C1400 0.960 . S
H1387 C1400 0.960 . S
C1388 H1380 0.929 . S
C1388 C1389 1.377 . S
C1388 C1390 1.384 . S
C1389 C1388 1.377 . S
C1389 C1395 1.390 . S
C1390 H1381 0.930 . S
C1390 C1388 1.384 . S
C1390 C1391 1.372 . S
C1391 C1390 1.372 . S
C1391 C1392 1.400 . S
C1391 C1396 1.490 . S
C1392 H1382 0.930 . S
C1392 C1391 1.400 . S
C1392 C1395 1.386 . S
H1393 C1409 0.930 . S
H1394 C1410 0.931 . S
C1395 H1383 0.929 . S
C1395 C1389 1.390 . S
C1395 C1392 1.386 . S
C1396 C1391 1.490 . S
C1396 C1398 1.395 . S
C1396 C1399 1.403 . S
H1397 C1403 0.930 . S
C1398 H1384 0.930 . S
C1398 C1396 1.395 . S
C1398 C1401 1.403 . S
C1399 C1396 1.403 . S
C1399 C1400 1.524 . S
C1399 C1403 1.400 . S
C1400 H1385 0.960 . S
C1400 H1386 0.960 . S
C1400 H1387 0.960 . S
C1400 C1399 1.524 . S
C1401 C1398 1.403 . S
C1401 C1402 1.392 . S
C1401 C1405 1.495 . S
C1402 C1401 1.392 . S
C1402 C1403 1.385 . S
C1402 C1404 1.478 . S
C1403 H1397 0.930 . S
C1403 C1399 1.400 . S
C1403 C1402 1.385 . S
C1404 C1402 1.478 . S
C1404 C1406 1.381 . S
C1404 C1410 1.383 . S
C1405 C1401 1.495 . S
C1405 H1411 0.959 . S
C1405 H1412 0.961 . S
C1405 H1413 0.960 . S
C1406 C1404 1.381 . S
C1406 C1407 1.394 . S
C1406 H1414 0.930 . S
C1407 C1406 1.394 . S
C1407 C1408 1.383 . S
C1407 H1415 0.929 . S
C1408 C1407 1.383 . S
C1408 C1409 1.377 . S
C1409 H1393 0.930 . S
C1409 C1408 1.377 . S
C1409 C1410 1.379 . S
C1410 H1394 0.931 . S
C1410 C1404 1.383 . S
C1410 C1409 1.379 . S
H1411 C1405 0.959 . S
H1412 C1405 0.961 . S
H1413 C1405 0.960 . S
H1414 C1406 0.930 . S
H1415 C1407 0.929 . S
H1416 C1424 0.929 . S
H1417 C1426 0.930 . S
H1418 C1428 0.930 . S
H1419 C1431 0.929 . S
H1420 C1434 0.930 . S
H1421 C1436 0.960 . S
H1422 C1436 0.960 . S
H1423 C1436 0.960 . S
C1424 H1416 0.929 . S
C1424 C1425 1.377 . S
C1424 C1426 1.384 . S
C1425 C1424 1.377 . S
C1425 C1431 1.390 . S
C1426 H1417 0.930 . S
C1426 C1424 1.384 . S
C1426 C1427 1.372 . S
C1427 C1426 1.372 . S
C1427 C1428 1.400 . S
C1427 C1432 1.490 . S
C1428 H1418 0.930 . S
C1428 C1427 1.400 . S
C1428 C1431 1.386 . S
H1429 C1445 0.930 . S
H1430 C1446 0.931 . S
C1431 H1419 0.929 . S
C1431 C1425 1.390 . S
C1431 C1428 1.386 . S
C1432 C1427 1.490 . S
C1432 C1434 1.395 . S
C1432 C1435 1.403 . S
H1433 C1439 0.930 . S
C1434 H1420 0.930 . S
C1434 C1432 1.395 . S
C1434 C1437 1.403 . S
C1435 C1432 1.403 . S
C1435 C1436 1.524 . S
C1435 C1439 1.400 . S
C1436 H1421 0.960 . S
C1436 H1422 0.960 . S
C1436 H1423 0.960 . S
C1436 C1435 1.524 . S
C1437 C1434 1.403 . S
C1437 C1438 1.392 . S
C1437 C1441 1.495 . S
C1438 C1437 1.392 . S
C1438 C1439 1.385 . S
C1438 C1440 1.478 . S
C1439 H1433 0.930 . S
C1439 C1435 1.400 . S
C1439 C1438 1.385 . S
C1440 C1438 1.478 . S
C1440 C1442 1.381 . S
C1440 C1446 1.383 . S
C1441 C1437 1.495 . S
C1441 H1447 0.959 . S
C1441 H1448 0.961 . S
C1441 H1449 0.960 . S
C1442 C1440 1.381 . S
C1442 C1443 1.394 . S
C1442 H1450 0.930 . S
C1443 C1442 1.394 . S
C1443 C1444 1.383 . S
C1443 H1451 0.929 . S
C1444 C1443 1.383 . S
C1444 C1445 1.377 . S
C1445 H1429 0.930 . S
C1445 C1444 1.377 . S
C1445 C1446 1.379 . S
C1446 H1430 0.931 . S
C1446 C1440 1.383 . S
C1446 C1445 1.379 . S
H1447 C1441 0.959 . S
H1448 C1441 0.961 . S
H1449 C1441 0.960 . S
H1450 C1442 0.930 . S
H1451 C1443 0.929 . S
H1452 C1460 0.929 . S
H1453 C1462 0.930 . S
H1454 C1464 0.930 . S
H1455 C1467 0.929 . S
H1456 C1470 0.930 . S
H1457 C1472 0.960 . S
H1458 C1472 0.960 . S
H1459 C1472 0.960 . S
C1460 H1452 0.929 . S
C1460 C1461 1.377 . S
C1460 C1462 1.384 . S
C1461 C1460 1.377 . S
C1461 C1467 1.390 . S
C1462 H1453 0.930 . S
C1462 C1460 1.384 . S
C1462 C1463 1.372 . S
C1463 C1462 1.372 . S
C1463 C1464 1.400 . S
C1463 C1468 1.490 . S
C1464 H1454 0.930 . S
C1464 C1463 1.400 . S
C1464 C1467 1.386 . S
H1465 C1481 0.930 . S
H1466 C1482 0.931 . S
C1467 H1455 0.929 . S
C1467 C1461 1.390 . S
C1467 C1464 1.386 . S
C1468 C1463 1.490 . S
C1468 C1470 1.395 . S
C1468 C1471 1.403 . S
H1469 C1475 0.930 . S
C1470 H1456 0.930 . S
C1470 C1468 1.395 . S
C1470 C1473 1.403 . S
C1471 C1468 1.403 . S
C1471 C1472 1.524 . S
C1471 C1475 1.400 . S
C1472 H1457 0.960 . S
C1472 H1458 0.960 . S
C1472 H1459 0.960 . S
C1472 C1471 1.524 . S
C1473 C1470 1.403 . S
C1473 C1474 1.392 . S
C1473 C1477 1.495 . S
C1474 C1473 1.392 . S
C1474 C1475 1.385 . S
C1474 C1476 1.478 . S
C1475 H1469 0.930 . S
C1475 C1471 1.400 . S
C1475 C1474 1.385 . S
C1476 C1474 1.478 . S
C1476 C1478 1.381 . S
C1476 C1482 1.383 . S
C1477 C1473 1.495 . S
C1477 H1483 0.959 . S
C1477 H1484 0.961 . S
C1477 H1485 0.960 . S
C1478 C1476 1.381 . S
C1478 C1479 1.394 . S
C1478 H1486 0.930 . S
C1479 C1478 1.394 . S
C1479 C1480 1.383 . S
C1479 H1487 0.929 . S
C1480 C1479 1.383 . S
C1480 C1481 1.377 . S
C1481 H1465 0.930 . S
C1481 C1480 1.377 . S
C1481 C1482 1.379 . S
C1482 H1466 0.931 . S
C1482 C1476 1.383 . S
C1482 C1481 1.379 . S
H1483 C1477 0.959 . S
H1484 C1477 0.961 . S
H1485 C1477 0.960 . S
H1486 C1478 0.930 . S
H1487 C1479 0.929 . S
H1488 C1496 0.929 . S
H1489 C1498 0.930 . S
H1490 C1500 0.930 . S
H1491 C1503 0.929 . S
H1492 C1506 0.930 . S
H1493 C1508 0.960 . S
H1494 C1508 0.960 . S
H1495 C1508 0.960 . S
C1496 H1488 0.929 . S
C1496 C1497 1.377 . S
C1496 C1498 1.384 . S
C1497 C1496 1.377 . S
C1497 C1503 1.390 . S
C1498 H1489 0.930 . S
C1498 C1496 1.384 . S
C1498 C1499 1.372 . S
C1499 C1498 1.372 . S
C1499 C1500 1.400 . S
C1499 C1504 1.490 . S
C1500 H1490 0.930 . S
C1500 C1499 1.400 . S
C1500 C1503 1.386 . S
H1501 C1517 0.930 . S
H1502 C1518 0.931 . S
C1503 H1491 0.929 . S
C1503 C1497 1.390 . S
C1503 C1500 1.386 . S
C1504 C1499 1.490 . S
C1504 C1506 1.395 . S
C1504 C1507 1.403 . S
H1505 C1511 0.930 . S
C1506 H1492 0.930 . S
C1506 C1504 1.395 . S
C1506 C1509 1.403 . S
C1507 C1504 1.403 . S
C1507 C1508 1.524 . S
C1507 C1511 1.400 . S
C1508 H1493 0.960 . S
C1508 H1494 0.960 . S
C1508 H1495 0.960 . S
C1508 C1507 1.524 . S
C1509 C1506 1.403 . S
C1509 C1510 1.392 . S
C1509 C1513 1.495 . S
C1510 C1509 1.392 . S
C1510 C1511 1.385 . S
C1510 C1512 1.478 . S
C1511 H1505 0.930 . S
C1511 C1507 1.400 . S
C1511 C1510 1.385 . S
C1512 C1510 1.478 . S
C1512 C1514 1.381 . S
C1512 C1518 1.383 . S
C1513 C1509 1.495 . S
C1513 H1519 0.959 . S
C1513 H1520 0.961 . S
C1513 H1521 0.960 . S
C1514 C1512 1.381 . S
C1514 C1515 1.394 . S
C1514 H1522 0.930 . S
C1515 C1514 1.394 . S
C1515 C1516 1.383 . S
C1515 H1523 0.929 . S
C1516 C1515 1.383 . S
C1516 C1517 1.377 . S
C1517 H1501 0.930 . S
C1517 C1516 1.377 . S
C1517 C1518 1.379 . S
C1518 H1502 0.931 . S
C1518 C1512 1.383 . S
C1518 C1517 1.379 . S
H1519 C1513 0.959 . S
H1520 C1513 0.961 . S
H1521 C1513 0.960 . S
H1522 C1514 0.930 . S
H1523 C1515 0.929 . S
H1524 C1532 0.929 . S
H1525 C1534 0.930 . S
H1526 C1536 0.930 . S
H1527 C1539 0.929 . S
H1528 C1542 0.930 . S
H1529 C1544 0.960 . S
H1530 C1544 0.960 . S
H1531 C1544 0.960 . S
C1532 H1524 0.929 . S
C1532 C1533 1.377 . S
C1532 C1534 1.384 . S
C1533 C1532 1.377 . S
C1533 C1539 1.390 . S
C1534 H1525 0.930 . S
C1534 C1532 1.384 . S
C1534 C1535 1.372 . S
C1535 C1534 1.372 . S
C1535 C1536 1.400 . S
C1535 C1540 1.490 . S
C1536 H1526 0.930 . S
C1536 C1535 1.400 . S
C1536 C1539 1.386 . S
H1537 C1553 0.930 . S
H1538 C1554 0.931 . S
C1539 H1527 0.929 . S
C1539 C1533 1.390 . S
C1539 C1536 1.386 . S
C1540 C1535 1.490 . S
C1540 C1542 1.395 . S
C1540 C1543 1.403 . S
H1541 C1547 0.930 . S
C1542 H1528 0.930 . S
C1542 C1540 1.395 . S
C1542 C1545 1.403 . S
C1543 C1540 1.403 . S
C1543 C1544 1.524 . S
C1543 C1547 1.400 . S
C1544 H1529 0.960 . S
C1544 H1530 0.960 . S
C1544 H1531 0.960 . S
C1544 C1543 1.524 . S
C1545 C1542 1.403 . S
C1545 C1546 1.392 . S
C1545 C1549 1.495 . S
C1546 C1545 1.392 . S
C1546 C1547 1.385 . S
C1546 C1548 1.478 . S
C1547 H1541 0.930 . S
C1547 C1543 1.400 . S
C1547 C1546 1.385 . S
C1548 C1546 1.478 . S
C1548 C1550 1.381 . S
C1548 C1554 1.383 . S
C1549 C1545 1.495 . S
C1549 H1555 0.959 . S
C1549 H1556 0.961 . S
C1549 H1557 0.960 . S
C1550 C1548 1.381 . S
C1550 C1551 1.394 . S
C1550 H1558 0.930 . S
C1551 C1550 1.394 . S
C1551 C1552 1.383 . S
C1551 H1559 0.929 . S
C1552 C1551 1.383 . S
C1552 C1553 1.377 . S
C1553 H1537 0.930 . S
C1553 C1552 1.377 . S
C1553 C1554 1.379 . S
C1554 H1538 0.931 . S
C1554 C1548 1.383 . S
C1554 C1553 1.379 . S
H1555 C1549 0.959 . S
H1556 C1549 0.961 . S
H1557 C1549 0.960 . S
H1558 C1550 0.930 . S
H1559 C1551 0.929 . S
H1560 C1568 0.929 . S
H1561 C1570 0.930 . S
H1562 C1572 0.930 . S
H1563 C1575 0.929 . S
H1564 C1578 0.930 . S
H1565 C1580 0.960 . S
H1566 C1580 0.960 . S
H1567 C1580 0.960 . S
C1568 H1560 0.929 . S
C1568 C1569 1.377 . S
C1568 C1570 1.384 . S
C1569 C1568 1.377 . S
C1569 C1575 1.390 . S
C1570 H1561 0.930 . S
C1570 C1568 1.384 . S
C1570 C1571 1.372 . S
C1571 C1570 1.372 . S
C1571 C1572 1.400 . S
C1571 C1576 1.490 . S
C1572 H1562 0.930 . S
C1572 C1571 1.400 . S
C1572 C1575 1.386 . S
H1573 C1589 0.930 . S
H1574 C1590 0.931 . S
C1575 H1563 0.929 . S
C1575 C1569 1.390 . S
C1575 C1572 1.386 . S
C1576 C1571 1.490 . S
C1576 C1578 1.395 . S
C1576 C1579 1.403 . S
H1577 C1583 0.930 . S
C1578 H1564 0.930 . S
C1578 C1576 1.395 . S
C1578 C1581 1.403 . S
C1579 C1576 1.403 . S
C1579 C1580 1.524 . S
C1579 C1583 1.400 . S
C1580 H1565 0.960 . S
C1580 H1566 0.960 . S
C1580 H1567 0.960 . S
C1580 C1579 1.524 . S
C1581 C1578 1.403 . S
C1581 C1582 1.392 . S
C1581 C1585 1.495 . S
C1582 C1581 1.392 . S
C1582 C1583 1.385 . S
C1582 C1584 1.478 . S
C1583 H1577 0.930 . S
C1583 C1579 1.400 . S
C1583 C1582 1.385 . S
C1584 C1582 1.478 . S
C1584 C1586 1.381 . S
C1584 C1590 1.383 . S
C1585 C1581 1.495 . S
C1585 H1591 0.959 . S
C1585 H1592 0.961 . S
C1585 H1593 0.960 . S
C1586 C1584 1.381 . S
C1586 C1587 1.394 . S
C1586 H1594 0.930 . S
C1587 C1586 1.394 . S
C1587 C1588 1.383 . S
C1587 H1595 0.929 . S
C1588 C1587 1.383 . S
C1588 C1589 1.377 . S
C1589 H1573 0.930 . S
C1589 C1588 1.377 . S
C1589 C1590 1.379 . S
C1590 H1574 0.931 . S
C1590 C1584 1.383 . S
C1590 C1589 1.379 . S
H1591 C1585 0.959 . S
H1592 C1585 0.961 . S
H1593 C1585 0.960 . S
H1594 C1586 0.930 . S
H1595 C1587 0.929 . S
H1596 C1604 0.929 . S
H1597 C1606 0.930 . S
H1598 C1608 0.930 . S
H1599 C1611 0.929 . S
H1600 C1614 0.930 . S
H1601 C1616 0.960 . S
H1602 C1616 0.960 . S
H1603 C1616 0.960 . S
C1604 H1596 0.929 . S
C1604 C1605 1.377 . S
C1604 C1606 1.384 . S
C1605 C1604 1.377 . S
C1605 C1611 1.390 . S
C1606 H1597 0.930 . S
C1606 C1604 1.384 . S
C1606 C1607 1.372 . S
C1607 C1606 1.372 . S
C1607 C1608 1.400 . S
C1607 C1612 1.490 . S
C1608 H1598 0.930 . S
C1608 C1607 1.400 . S
C1608 C1611 1.386 . S
H1609 C1625 0.930 . S
H1610 C1626 0.931 . S
C1611 H1599 0.929 . S
C1611 C1605 1.390 . S
C1611 C1608 1.386 . S
C1612 C1607 1.490 . S
C1612 C1614 1.395 . S
C1612 C1615 1.403 . S
H1613 C1619 0.930 . S
C1614 H1600 0.930 . S
C1614 C1612 1.395 . S
C1614 C1617 1.403 . S
C1615 C1612 1.403 . S
C1615 C1616 1.524 . S
C1615 C1619 1.400 . S
C1616 H1601 0.960 . S
C1616 H1602 0.960 . S
C1616 H1603 0.960 . S
C1616 C1615 1.524 . S
C1617 C1614 1.403 . S
C1617 C1618 1.392 . S
C1617 C1621 1.495 . S
C1618 C1617 1.392 . S
C1618 C1619 1.385 . S
C1618 C1620 1.478 . S
C1619 H1613 0.930 . S
C1619 C1615 1.400 . S
C1619 C1618 1.385 . S
C1620 C1618 1.478 . S
C1620 C1622 1.381 . S
C1620 C1626 1.383 . S
C1621 C1617 1.495 . S
C1621 H1627 0.959 . S
C1621 H1628 0.961 . S
C1621 H1629 0.960 . S
C1622 C1620 1.381 . S
C1622 C1623 1.394 . S
C1622 H1630 0.930 . S
C1623 C1622 1.394 . S
C1623 C1624 1.383 . S
C1623 H1631 0.929 . S
C1624 C1623 1.383 . S
C1624 C1625 1.377 . S
C1625 H1609 0.930 . S
C1625 C1624 1.377 . S
C1625 C1626 1.379 . S
C1626 H1610 0.931 . S
C1626 C1620 1.383 . S
C1626 C1625 1.379 . S
H1627 C1621 0.959 . S
H1628 C1621 0.961 . S
H1629 C1621 0.960 . S
H1630 C1622 0.930 . S
H1631 C1623 0.929 . S
H1632 C1640 0.929 . S
H1633 C1642 0.930 . S
H1634 C1644 0.930 . S
H1635 C1647 0.929 . S
H1636 C1650 0.930 . S
H1637 C1652 0.960 . S
H1638 C1652 0.960 . S
H1639 C1652 0.960 . S
C1640 H1632 0.929 . S
C1640 C1641 1.377 . S
C1640 C1642 1.384 . S
C1641 C1640 1.377 . S
C1641 C1647 1.390 . S
C1642 H1633 0.930 . S
C1642 C1640 1.384 . S
C1642 C1643 1.372 . S
C1643 C1642 1.372 . S
C1643 C1644 1.400 . S
C1643 C1648 1.490 . S
C1644 H1634 0.930 . S
C1644 C1643 1.400 . S
C1644 C1647 1.386 . S
H1645 C1661 0.930 . S
H1646 C1662 0.931 . S
C1647 H1635 0.929 . S
C1647 C1641 1.390 . S
C1647 C1644 1.386 . S
C1648 C1643 1.490 . S
C1648 C1650 1.395 . S
C1648 C1651 1.403 . S
H1649 C1655 0.930 . S
C1650 H1636 0.930 . S
C1650 C1648 1.395 . S
C1650 C1653 1.403 . S
C1651 C1648 1.403 . S
C1651 C1652 1.524 . S
C1651 C1655 1.400 . S
C1652 H1637 0.960 . S
C1652 H1638 0.960 . S
C1652 H1639 0.960 . S
C1652 C1651 1.524 . S
C1653 C1650 1.403 . S
C1653 C1654 1.392 . S
C1653 C1657 1.495 . S
C1654 C1653 1.392 . S
C1654 C1655 1.385 . S
C1654 C1656 1.478 . S
C1655 H1649 0.930 . S
C1655 C1651 1.400 . S
C1655 C1654 1.385 . S
C1656 C1654 1.478 . S
C1656 C1658 1.381 . S
C1656 C1662 1.383 . S
C1657 C1653 1.495 . S
C1657 H1663 0.959 . S
C1657 H1664 0.961 . S
C1657 H1665 0.960 . S
C1658 C1656 1.381 . S
C1658 C1659 1.394 . S
C1658 H1666 0.930 . S
C1659 C1658 1.394 . S
C1659 C1660 1.383 . S
C1659 H1667 0.929 . S
C1660 C1659 1.383 . S
C1660 C1661 1.377 . S
C1661 H1645 0.930 . S
C1661 C1660 1.377 . S
C1661 C1662 1.379 . S
C1662 H1646 0.931 . S
C1662 C1656 1.383 . S
C1662 C1661 1.379 . S
H1663 C1657 0.959 . S
H1664 C1657 0.961 . S
H1665 C1657 0.960 . S
H1666 C1658 0.930 . S
H1667 C1659 0.929 . S
H1668 C1676 0.929 . S
H1669 C1678 0.930 . S
H1670 C1680 0.930 . S
H1671 C1683 0.929 . S
H1672 C1686 0.930 . S
H1673 C1688 0.960 . S
H1674 C1688 0.960 . S
H1675 C1688 0.960 . S
C1676 H1668 0.929 . S
C1676 C1677 1.377 . S
C1676 C1678 1.384 . S
C1677 C1676 1.377 . S
C1677 C1683 1.390 . S
C1678 H1669 0.930 . S
C1678 C1676 1.384 . S
C1678 C1679 1.372 . S
C1679 C1678 1.372 . S
C1679 C1680 1.400 . S
C1679 C1684 1.490 . S
C1680 H1670 0.930 . S
C1680 C1679 1.400 . S
C1680 C1683 1.386 . S
H1681 C1697 0.930 . S
H1682 C1698 0.931 . S
C1683 H1671 0.929 . S
C1683 C1677 1.390 . S
C1683 C1680 1.386 . S
C1684 C1679 1.490 . S
C1684 C1686 1.395 . S
C1684 C1687 1.403 . S
H1685 C1691 0.930 . S
C1686 H1672 0.930 . S
C1686 C1684 1.395 . S
C1686 C1689 1.403 . S
C1687 C1684 1.403 . S
C1687 C1688 1.524 . S
C1687 C1691 1.400 . S
C1688 H1673 0.960 . S
C1688 H1674 0.960 . S
C1688 H1675 0.960 . S
C1688 C1687 1.524 . S
C1689 C1686 1.403 . S
C1689 C1690 1.392 . S
C1689 C1693 1.495 . S
C1690 C1689 1.392 . S
C1690 C1691 1.385 . S
C1690 C1692 1.478 . S
C1691 H1685 0.930 . S
C1691 C1687 1.400 . S
C1691 C1690 1.385 . S
C1692 C1690 1.478 . S
C1692 C1694 1.381 . S
C1692 C1698 1.383 . S
C1693 C1689 1.495 . S
C1693 H1699 0.959 . S
C1693 H1700 0.961 . S
C1693 H1701 0.960 . S
C1694 C1692 1.381 . S
C1694 C1695 1.394 . S
C1694 H1702 0.930 . S
C1695 C1694 1.394 . S
C1695 C1696 1.383 . S
C1695 H1703 0.929 . S
C1696 C1695 1.383 . S
C1696 C1697 1.377 . S
C1697 H1681 0.930 . S
C1697 C1696 1.377 . S
C1697 C1698 1.379 . S
C1698 H1682 0.931 . S
C1698 C1692 1.383 . S
C1698 C1697 1.379 . S
H1699 C1693 0.959 . S
H1700 C1693 0.961 . S
H1701 C1693 0.960 . S
H1702 C1694 0.930 . S
H1703 C1695 0.929 . S
H1704 C1712 0.929 . S
H1705 C1714 0.930 . S
H1706 C1716 0.930 . S
H1707 C1719 0.929 . S
H1708 C1722 0.930 . S
H1709 C1724 0.960 . S
H1710 C1724 0.960 . S
H1711 C1724 0.960 . S
C1712 H1704 0.929 . S
C1712 C1713 1.377 . S
C1712 C1714 1.384 . S
C1713 C1712 1.377 . S
C1713 C1719 1.390 . S
C1714 H1705 0.930 . S
C1714 C1712 1.384 . S
C1714 C1715 1.372 . S
C1715 C1714 1.372 . S
C1715 C1716 1.400 . S
C1715 C1720 1.490 . S
C1716 H1706 0.930 . S
C1716 C1715 1.400 . S
C1716 C1719 1.386 . S
H1717 C1733 0.930 . S
H1718 C1734 0.931 . S
C1719 H1707 0.929 . S
C1719 C1713 1.390 . S
C1719 C1716 1.386 . S
C1720 C1715 1.490 . S
C1720 C1722 1.395 . S
C1720 C1723 1.403 . S
H1721 C1727 0.930 . S
C1722 H1708 0.930 . S
C1722 C1720 1.395 . S
C1722 C1725 1.403 . S
C1723 C1720 1.403 . S
C1723 C1724 1.524 . S
C1723 C1727 1.400 . S
C1724 H1709 0.960 . S
C1724 H1710 0.960 . S
C1724 H1711 0.960 . S
C1724 C1723 1.524 . S
C1725 C1722 1.403 . S
C1725 C1726 1.392 . S
C1725 C1729 1.495 . S
C1726 C1725 1.392 . S
C1726 C1727 1.385 . S
C1726 C1728 1.478 . S
C1727 H1721 0.930 . S
C1727 C1723 1.400 . S
C1727 C1726 1.385 . S
C1728 C1726 1.478 . S
C1728 C1730 1.381 . S
C1728 C1734 1.383 . S
C1729 C1725 1.495 . S
C1729 H1735 0.959 . S
C1729 H1736 0.961 . S
C1729 H1737 0.960 . S
C1730 C1728 1.381 . S
C1730 C1731 1.394 . S
C1730 H1738 0.930 . S
C1731 C1730 1.394 . S
C1731 C1732 1.383 . S
C1731 H1739 0.929 . S
C1732 C1731 1.383 . S
C1732 C1733 1.377 . S
C1733 H1717 0.930 . S
C1733 C1732 1.377 . S
C1733 C1734 1.379 . S
C1734 H1718 0.931 . S
C1734 C1728 1.383 . S
C1734 C1733 1.379 . S
H1735 C1729 0.959 . S
H1736 C1729 0.961 . S
H1737 C1729 0.960 . S
H1738 C1730 0.930 . S
H1739 C1731 0.929 . S
H1740 C1748 0.929 . S
H1741 C1750 0.930 . S
H1742 C1752 0.930 . S
H1743 C1755 0.929 . S
H1744 C1758 0.930 . S
H1745 C1760 0.960 . S
H1746 C1760 0.960 . S
H1747 C1760 0.960 . S
C1748 H1740 0.929 . S
C1748 C1749 1.377 . S
C1748 C1750 1.384 . S
C1749 C1748 1.377 . S
C1749 C1755 1.390 . S
C1750 H1741 0.930 . S
C1750 C1748 1.384 . S
C1750 C1751 1.372 . S
C1751 C1750 1.372 . S
C1751 C1752 1.400 . S
C1751 C1756 1.490 . S
C1752 H1742 0.930 . S
C1752 C1751 1.400 . S
C1752 C1755 1.386 . S
H1753 C1769 0.930 . S
H1754 C1770 0.931 . S
C1755 H1743 0.929 . S
C1755 C1749 1.390 . S
C1755 C1752 1.386 . S
C1756 C1751 1.490 . S
C1756 C1758 1.395 . S
C1756 C1759 1.403 . S
H1757 C1763 0.930 . S
C1758 H1744 0.930 . S
C1758 C1756 1.395 . S
C1758 C1761 1.403 . S
C1759 C1756 1.403 . S
C1759 C1760 1.524 . S
C1759 C1763 1.400 . S
C1760 H1745 0.960 . S
C1760 H1746 0.960 . S
C1760 H1747 0.960 . S
C1760 C1759 1.524 . S
C1761 C1758 1.403 . S
C1761 C1762 1.392 . S
C1761 C1765 1.495 . S
C1762 C1761 1.392 . S
C1762 C1763 1.385 . S
C1762 C1764 1.478 . S
C1763 H1757 0.930 . S
C1763 C1759 1.400 . S
C1763 C1762 1.385 . S
C1764 C1762 1.478 . S
C1764 C1766 1.381 . S
C1764 C1770 1.383 . S
C1765 C1761 1.495 . S
C1765 H1771 0.959 . S
C1765 H1772 0.961 . S
C1765 H1773 0.960 . S
C1766 C1764 1.381 . S
C1766 C1767 1.394 . S
C1766 H1774 0.930 . S
C1767 C1766 1.394 . S
C1767 C1768 1.383 . S
C1767 H1775 0.929 . S
C1768 C1767 1.383 . S
C1768 C1769 1.377 . S
C1769 H1753 0.930 . S
C1769 C1768 1.377 . S
C1769 C1770 1.379 . S
C1770 H1754 0.931 . S
C1770 C1764 1.383 . S
C1770 C1769 1.379 . S
H1771 C1765 0.959 . S
H1772 C1765 0.961 . S
H1773 C1765 0.960 . S
H1774 C1766 0.930 . S
H1775 C1767 0.929 . S
C652 C545 1.377 . S
C633 C53 1.416 . S
C669 C115 1.428 . S
C688 C577 1.389 . S
C705 C177 1.433 . S
C724 C600 1.397 . S
C760 C504 1.437 . S
C741 C239 1.439 . S
C796 C587 1.498 . S
C777 C47 1.576 . S
C832 C616 1.550 . S
C813 C109 1.563 . S
C868 C520 1.557 . S
C849 C171 1.569 . S
C904 C555 1.475 . S
C885 C233 1.565 . S
C921 C29 1.584 . S
C940 C583 1.519 . S
C957 C277 1.566 . S
C976 C558 1.542 . S
C993 C153 1.561 . S
C1012 C526 1.507 . S
C1048 C615 1.524 . S
C1029 C339 1.555 . S
C1084 C559 1.404 . S
C1065 C35 1.422 . S
C1101 C283 1.443 . S
C1120 C527 1.404 . S
C1137 C159 1.430 . S
C1156 C614 1.410 . S
C1192 C582 1.427 . S
C1173 C345 1.429 . S
C1209 C419 1.572 . S
C1228 C609 1.645 . S
C1245 C301 1.435 . S
C1264 C513 1.430 . S
C1281 C487 1.417 . S
C1300 C536 1.423 . S
C1317 C363 1.427 . S
C1336 C568 1.428 . S
C1372 C523 1.356 . S
C1353 C425 1.437 . S
C1389 C295 1.563 . S
C1408 C552 1.499 . S
C1425 C481 1.583 . S
C1444 C584 1.569 . S
C1480 C619 1.470 . S
C1461 C357 1.561 . S
C1497 C407 1.434 . S
C1516 C519 1.303 . S
C1533 C91 1.570 . S
C1552 C622 1.496 . S
C1569 C463 1.575 . S
C1588 C590 1.487 . S
C1624 C551 1.554 . S
C1605 C215 1.571 . S
C1660 C623 1.635 . S
C1641 C401 1.565 . S
C1696 C591 1.419 . S
C1677 C97 1.427 . S
C1732 C550 1.387 . S
C1713 C469 1.417 . S
C1768 C518 1.416 . S
C1749 C221 1.435 . S
