# Generated by pormake.
# Topology nom, (4,4)-cn, num edge types: 1
# Building blocks:
#     Node 0, Type 0, BuildingBlock: GIZVER_clean_linker_0, # of connection points: 4
#     Node 1, Type 0, BuildingBlock: GIZVER_clean_linker_0, # of connection points: 4
#     Node 2, Type 0, BuildingBlock: GIZVER_clean_linker_0, # of connection points: 4
#     Node 3, Type 0, BuildingBlock: GIZVER_clean_linker_0, # of connection points: 4
#     Node 4, Type 0, BuildingBlock: GIZVER_clean_linker_0, # of connection points: 4
#     Node 5, Type 0, BuildingBlock: GIZVER_clean_linker_0, # of connection points: 4
#     Node 6, Type 1, BuildingBlock: QUQFOY_clean_sbu_3, # of connection points: 4
#     Node 7, Type 1, BuildingBlock: QUQFOY_clean_sbu_3, # of connection points: 4
#     Node 8, Type 1, BuildingBlock: QUQFOY_clean_sbu_3, # of connection points: 4
#     Node 9, Type 1, BuildingBlock: QUQFOY_clean_sbu_3, # of connection points: 4
#     Node 10, Type 1, BuildingBlock: QUQFOY_clean_sbu_3, # of connection points: 4
#     Node 11, Type 1, BuildingBlock: QUQFOY_clean_sbu_3, # of connection points: 4
#     Edge 12, Type (0, 1), BuildingBlock: OJICUG_clean_linker_0, # of connection points: 2
#     Edge 13, Type (0, 1), BuildingBlock: OJICUG_clean_linker_0, # of connection points: 2
#     Edge 14, Type (0, 1), BuildingBlock: OJICUG_clean_linker_0, # of connection points: 2
#     Edge 15, Type (0, 1), BuildingBlock: OJICUG_clean_linker_0, # of connection points: 2
#     Edge 16, Type (0, 1), BuildingBlock: OJICUG_clean_linker_0, # of connection points: 2
#     Edge 17, Type (0, 1), BuildingBlock: OJICUG_clean_linker_0, # of connection points: 2
#     Edge 18, Type (0, 1), BuildingBlock: OJICUG_clean_linker_0, # of connection points: 2
#     Edge 19, Type (0, 1), BuildingBlock: OJICUG_clean_linker_0, # of connection points: 2
#     Edge 20, Type (0, 1), BuildingBlock: OJICUG_clean_linker_0, # of connection points: 2
#     Edge 21, Type (0, 1), BuildingBlock: OJICUG_clean_linker_0, # of connection points: 2
#     Edge 22, Type (0, 1), BuildingBlock: OJICUG_clean_linker_0, # of connection points: 2
#     Edge 23, Type (0, 1), BuildingBlock: OJICUG_clean_linker_0, # of connection points: 2
#     Edge 24, Type (0, 1), BuildingBlock: OJICUG_clean_linker_0, # of connection points: 2
#     Edge 25, Type (0, 1), BuildingBlock: OJICUG_clean_linker_0, # of connection points: 2
#     Edge 26, Type (0, 1), BuildingBlock: OJICUG_clean_linker_0, # of connection points: 2
#     Edge 27, Type (0, 1), BuildingBlock: OJICUG_clean_linker_0, # of connection points: 2
#     Edge 28, Type (0, 1), BuildingBlock: OJICUG_clean_linker_0, # of connection points: 2
#     Edge 29, Type (0, 1), BuildingBlock: OJICUG_clean_linker_0, # of connection points: 2
#     Edge 30, Type (0, 1), BuildingBlock: OJICUG_clean_linker_0, # of connection points: 2
#     Edge 31, Type (0, 1), BuildingBlock: OJICUG_clean_linker_0, # of connection points: 2
#     Edge 32, Type (0, 1), BuildingBlock: OJICUG_clean_linker_0, # of connection points: 2
#     Edge 33, Type (0, 1), BuildingBlock: OJICUG_clean_linker_0, # of connection points: 2
#     Edge 34, Type (0, 1), BuildingBlock: OJICUG_clean_linker_0, # of connection points: 2
#     Edge 35, Type (0, 1), BuildingBlock: OJICUG_clean_linker_0, # of connection points: 2
# Relax obj value: 0.003
# Max RMSD: 0.071
# Mean RMSD: 0.047
data_MOF--net-nom--node1-QUQFOY_clean_sbu_3--node2-GIZVER_clean_linker_0--edge1-OJICUG_clean_linker_0
_symmetry_space_group_name_H-M    P1
_symmetry_Int_Tables_number       1
_symmetry_cell_setting            triclinic
loop_
_symmetry_equiv_pos_as_xyz
'x, y, z'
_cell_length_a     34.034946
_cell_length_b     34.181265
_cell_length_c     37.708674
_cell_angle_alpha  90.271663
_cell_angle_beta   89.908197
_cell_angle_gamma 120.08599
loop_
_atom_site_label
_atom_site_type_symbol
_atom_site_fract_x
_atom_site_fract_y
_atom_site_fract_z
_atom_type_partial_charge
H0 H 0.93847 0.58412 0.31124 0.0
H1 H 1.00953 0.59435 0.21475 0.0
H2 H 0.87507 0.48176 0.23049 0.0
H3 H 1.00943 0.64924 0.30198 0.0
H4 H 0.02375 0.66304 0.25643 0.0
H5 H 0.03744 0.60004 0.33246 0.0
H6 H 0.17088 0.63145 0.29986 0.0
H7 H 0.0943 0.67445 0.23656 0.0
C8 C 0.93982 0.5693 0.28616 0.0
C9 C 0.90174 0.5292 0.27394 0.0
C10 C 0.97897 0.59237 0.26516 0.0
C11 C 0.9799 0.57554 0.23137 0.0
C12 C 0.9421 0.53609 0.21831 0.0
C13 C 0.90412 0.51225 0.24042 0.0
C14 C 1.0178 0.63747 0.27704 0.0
C15 C 0.06042 0.63512 0.2827 0.0
C16 C 0.06481 0.61435 0.31325 0.0
C17 C 0.10504 0.61378 0.31985 0.0
C18 C 0.14015 0.63249 0.29477 0.0
C19 C 0.1377 0.65588 0.26504 0.0
C20 C 0.09702 0.65613 0.25887 0.0
H21 H 0.37978 0.94204 0.48344 0.0
H22 H 0.42214 1.00524 0.38138 0.0
H23 H 0.40127 0.87191 0.39729 0.0
H24 H 0.37756 1.00972 0.47195 0.0
H25 H 0.3755 0.02349 0.42666 0.0
H26 H 0.45187 0.04359 0.50347 0.0
H27 H 0.55499 0.17263 0.46455 0.0
H28 H 0.44112 0.0862 0.39839 0.0
C29 C 0.39001 0.94123 0.45635 0.0
C30 C 0.39052 0.90271 0.44353 0.0
C31 C 0.40138 0.9783 0.43395 0.0
C32 C 0.41404 0.97701 0.39874 0.0
C33 C 0.4149 0.93905 0.38553 0.0
C34 C 0.40328 0.90229 0.40811 0.0
C35 C 0.39625 1.01753 0.44634 0.0
C36 C 0.44183 0.05997 0.45036 0.0
C37 C 0.46588 0.06825 0.48233 0.0
C38 C 0.50694 0.10879 0.48757 0.0
C39 C 0.5245 0.14035 0.45996 0.0
C40 C 0.50134 0.13258 0.42761 0.0
C41 C 0.45981 0.0922 0.42296 0.0
H42 H 0.38839 0.44761 0.56875 0.0
H43 H 0.44515 0.45488 0.67169 0.0
H44 H 0.40607 0.55197 0.64223 0.0
H45 H 0.39015 0.3833 0.59081 0.0
H46 H 0.39861 0.38035 0.63711 0.0
H47 H 0.45581 0.41634 0.5497 0.0
H48 H 0.57352 0.41181 0.58496 0.0
H49 H 0.4699 0.39218 0.65951 0.0
C50 C 0.4002 0.46477 0.59402 0.0
C51 C 0.39615 0.50291 0.60187 0.0
C52 C 0.41719 0.447 0.61932 0.0
C53 C 0.43245 0.46895 0.65213 0.0
C54 C 0.42935 0.50743 0.66041 0.0
C55 C 0.41138 0.52424 0.63504 0.0
C56 C 0.41363 0.40169 0.61318 0.0
C57 C 0.45936 0.40653 0.6057 0.0
C58 C 0.47606 0.41392 0.57079 0.0
C59 C 0.51686 0.41483 0.56286 0.0
C60 C 0.54187 0.4108 0.59076 0.0
C61 C 0.5248 0.40128 0.62545 0.0
C62 C 0.48375 0.4 0.63291 0.0
H63 H 0.96015 0.38419 0.73599 0.0
H64 H 1.01873 0.45866 0.83204 0.0
H65 H 0.886 0.42994 0.79995 0.0
H66 H 0.03066 0.39404 0.75559 0.0
H67 H 0.04486 0.40837 0.80126 0.0
H68 H 0.04661 0.46399 0.71458 0.0
H69 H 0.18217 0.57427 0.73157 0.0
H70 H 0.11641 0.47135 0.81097 0.0
C71 C 0.95812 0.40304 0.75837 0.0
C72 C 0.91795 0.4042 0.76485 0.0
C73 C 0.99504 0.42382 0.782 0.0
C74 C 0.9913 0.44489 0.81283 0.0
C75 C 0.95157 0.44638 0.8197 0.0
C76 C 0.91634 0.42821 0.79467 0.0
C77 C 0.03676 0.41989 0.77619 0.0
C78 C 0.07657 0.46455 0.76485 0.0
C79 C 0.07628 0.48203 0.73136 0.0
C80 C 0.11472 0.52109 0.71877 0.0
C81 C 0.1527 0.54401 0.74113 0.0
C82 C 0.15437 0.52646 0.77445 0.0
C83 C 0.11566 0.48667 0.78612 0.0
H84 H 0.6743 0.11492 -0.01898 0.0
H85 H 0.62956 0.05188 0.87867 0.0
H86 H 0.65187 0.18561 0.89652 0.0
H87 H 0.67566 0.04684 -0.0318 0.0
H88 H 0.67596 0.03252 0.92265 0.0
H89 H 0.60067 1.01716 -0.0002 0.0
H90 H 0.49704 0.88591 -0.0355 0.0
H91 H 0.61066 0.9677 0.89689 0.0
C92 C 0.66361 0.11584 -0.04586 0.0
C93 C 0.66315 0.15453 0.94201 0.0
C94 C 0.65149 0.07872 0.93131 0.0
C95 C 0.63825 0.08016 0.89636 0.0
C96 C 0.63751 0.11833 0.88385 0.0
C97 C 0.64981 0.15511 0.90685 0.0
C98 C 0.65621 0.03911 0.94296 0.0
C99 C 0.61035 0.99724 -0.05231 0.0
C100 C 0.58644 0.99119 -0.02055 0.0
C101 C 0.54523 0.95121 -0.01447 0.0
C102 C 0.52752 0.9178 -0.04096 0.0
C103 C 0.55053 0.92325 0.92688 0.0
C104 C 0.5921 0.9633 0.92131 0.0
H105 H 0.66612 0.60906 0.07211 0.0
H106 H 0.60844 0.59997 0.1751 0.0
H107 H 0.64832 0.50379 0.14379 0.0
H108 H 0.66486 0.6734 0.09616 0.0
H109 H 0.65272 0.67424 0.1421 0.0
H110 H 0.59615 0.62595 0.05415 0.0
H111 H 0.48617 0.64952 0.0771 0.0
H112 H 0.58472 0.67299 0.15772 0.0
C113 C 0.65417 0.5915 0.0971 0.0
C114 C 0.65835 0.55335 0.10425 0.0
C115 C 0.63677 0.60871 0.12274 0.0
C116 C 0.62139 0.58632 0.15523 0.0
C117 C 0.6247 0.54787 0.1628 0.0
C118 C 0.64296 0.53155 0.13709 0.0
C119 C 0.63988 0.65388 0.11731 0.0
C120 C 0.59463 0.64869 0.10736 0.0
C121 C 0.57763 0.63485 0.07284 0.0
C122 C 0.53792 0.63425 0.06201 0.0
C123 C 0.51512 0.64717 0.08618 0.0
C124 C 0.53155 0.66128 0.12073 0.0
C125 C 0.57121 0.66146 0.13132 0.0
C126 C 0.73301 0.46813 0.34889 0.0
O127 O 0.73448 0.49704 0.37082 0.0
Cd128 Cd 0.66514 0.49432 0.38475 0.0
O129 O 0.69501 0.43444 0.33943 0.0
Cd130 Cd 0.61276 0.39845 0.35681 0.0
C131 C 0.61427 0.47388 0.30157 0.0
O132 O 0.62138 0.4259 0.41704 0.0
O133 O 0.5575 0.40927 0.39253 0.0
O134 O 0.6169 0.33084 0.36904 0.0
C135 C 0.58105 0.41788 0.42053 0.0
O136 O 0.63548 0.50126 0.3269 0.0
C137 C 0.57717 0.30265 0.35839 0.0
O138 O 0.60141 0.43211 0.30449 0.0
O139 O 0.55435 0.31894 0.34475 0.0
C140 C 0.28055 0.55179 0.52442 0.0
O141 O 0.24444 0.52007 0.51079 0.0
Cd142 Cd 0.18068 0.52657 0.49362 0.0
O143 O 0.28598 0.59145 0.52749 0.0
Cd144 Cd 0.24106 0.62907 0.51135 0.0
C145 C 0.16404 0.56559 0.57306 0.0
O146 O 0.20701 0.5901 0.4553 0.0
O147 O 0.17528 0.62389 0.48055 0.0
O148 O 0.31016 0.69517 0.48916 0.0
C149 C 0.17882 0.60393 0.45338 0.0
O150 O 0.14981 0.53387 0.55015 0.0
C151 C 0.30282 0.7244 0.50389 0.0
O152 O 0.1987 0.60399 0.56671 0.0
O153 O 0.26809 0.70935 0.52374 0.0
C154 C 0.75342 0.2846 0.68774 0.0
O155 O 0.75368 0.25447 0.66815 0.0
Cd156 Cd 0.68211 0.18807 0.65571 0.0
O157 O 0.71618 0.28295 0.69561 0.0
Cd158 Cd 0.63394 0.24018 0.68127 0.0
C159 C 0.63269 0.16587 0.73898 0.0
O160 O 0.63671 0.2108 0.62264 0.0
O161 O 0.57192 0.17732 0.64943 0.0
O162 O 0.64016 0.31253 0.66701 0.0
C163 C 0.59451 0.18239 0.62137 0.0
O164 O 0.65255 0.15602 0.7148 0.0
C165 C 0.60413 0.30493 0.68297 0.0
O166 O 0.62237 0.19639 0.73399 0.0
O167 O 0.58242 0.26753 0.6992 0.0
C168 C 0.3219 0.58336 0.85012 0.0
O169 O 0.32013 0.55268 0.87 0.0
Cd170 Cd 0.38809 0.55226 0.88427 0.0
O171 O 0.35991 0.61796 0.84216 0.0
Cd172 Cd 0.44221 0.65395 0.85879 0.0
C173 C 0.43997 0.57823 0.80123 0.0
O174 O 0.43276 0.61993 0.91697 0.0
O175 O 0.49978 0.64826 0.89438 0.0
O176 O 0.43716 0.7207 0.87354 0.0
C177 C 0.47396 0.63082 0.92092 0.0
O178 O 0.4187 0.54981 0.82577 0.0
C179 C 0.47601 0.74942 0.86172 0.0
O180 O 0.45279 0.61993 0.80551 0.0
O181 O 0.49875 0.73381 0.84665 0.0
C182 C 0.77445 0.50557 0.02545 0.0
O183 O 0.81038 0.5374 0.01185 0.0
Cd184 Cd 0.87429 0.53138 -0.00608 0.0
O185 O 0.76923 0.46599 0.02812 0.0
Cd186 Cd 0.81417 0.42847 0.01118 0.0
C187 C 0.89197 0.49239 0.07261 0.0
O188 O 0.84817 0.46765 -0.04459 0.0
O189 O 0.87988 0.43376 -0.01983 0.0
O190 O 0.74501 0.36226 -0.01117 0.0
C191 C 0.87655 0.45405 -0.04668 0.0
O192 O 0.90578 0.52411 0.04997 0.0
C193 C 0.75242 0.33306 0.00326 0.0
O194 O 0.85729 0.45391 0.06625 0.0
O195 O 0.78729 0.34815 0.02298 0.0
C196 C 0.30003 0.77685 0.18665 0.0
O197 O 0.29866 0.8067 0.16771 0.0
Cd198 Cd 0.36942 0.87422 0.15616 0.0
O199 O 0.33785 0.77943 0.19381 0.0
Cd200 Cd 0.41968 0.82412 0.17824 0.0
C201 C 0.41973 0.89505 0.23907 0.0
O202 O 0.41563 0.85451 0.12064 0.0
O203 O 0.48029 0.88915 0.1477 0.0
O204 O 0.41491 0.7532 0.16072 0.0
C205 C 0.45762 0.88371 0.11963 0.0
O206 O 0.39905 0.90486 0.21571 0.0
C207 C 0.45152 0.76101 0.17574 0.0
O208 O 0.43115 0.86556 0.23266 0.0
O209 O 0.4729 0.7978 0.19307 0.0
C210 C 0.22261 0.70399 0.25923 0.0
C211 C 0.1793 0.68406 0.24328 0.0
H212 H 0.29416 0.74738 0.25346 0.0
C213 C 0.17655 0.69362 0.20731 0.0
H214 H 0.22678 0.69956 0.28707 0.0
C215 C 0.21579 0.72329 0.18839 0.0
C216 C 0.2586 0.74267 0.2047 0.0
H217 H 0.14416 0.67865 0.19379 0.0
H218 H 0.21271 0.73111 0.16109 0.0
C219 C 0.26163 0.73207 0.24002 0.0
C220 C 0.56597 0.19512 0.39453 0.0
C221 C 0.51902 0.16957 0.40102 0.0
H222 H 0.62123 0.25732 0.37549 0.0
C223 C 0.49061 0.18442 0.38678 0.0
H224 H 0.58863 0.18412 0.4046 0.0
C225 C 0.50932 0.22631 0.36967 0.0
C226 C 0.5567 0.25403 0.36678 0.0
H227 H 0.45433 0.16555 0.39141 0.0
H228 H 0.48692 0.2385 0.3614 0.0
C229 C 0.58463 0.23701 0.37778 0.0
C230 C 0.33166 0.48381 0.55992 0.0
C231 C 0.3706 0.51682 0.57775 0.0
H232 H 0.27347 0.46895 0.52887 0.0
C233 C 0.38211 0.56245 0.57485 0.0
H234 H 0.32103 0.44827 0.5619 0.0
C235 C 0.35401 0.57435 0.55629 0.0
C236 C 0.31399 0.54091 0.53994 0.0
H237 H 0.41224 0.58891 0.58772 0.0
H238 H 0.36294 0.60953 0.55567 0.0
C239 C 0.30397 0.49571 0.54113 0.0
C240 C 0.87776 0.36613 0.7074 0.0
C241 C 0.87587 0.37616 0.74347 0.0
H242 H 0.84034 0.32865 0.66135 0.0
C243 C 0.83293 0.35689 0.75991 0.0
H244 H 0.90988 0.38053 0.69355 0.0
C245 C 0.7934 0.32914 0.74104 0.0
C246 C 0.79552 0.31818 0.70555 0.0
H247 H 0.82942 0.36166 0.78787 0.0
H248 H 0.76116 0.31441 0.75483 0.0
C249 C 0.83797 0.33678 0.68878 0.0
C250 C 0.48561 0.85752 0.89609 0.0
C251 C 0.5327 0.88439 0.90166 0.0
H252 H 0.43072 0.79365 0.8789 0.0
C253 C 0.5614 0.86958 0.88773 0.0
H254 H 0.46263 0.86841 0.90583 0.0
C255 C 0.54304 0.82685 0.87172 0.0
C256 C 0.49571 0.79816 0.8697 0.0
H257 H 0.59779 0.88935 0.89165 0.0
H258 H 0.5658 0.81499 0.86351 0.0
C259 C 0.4673 0.81474 0.88057 0.0
C260 C 0.67266 0.49423 0.0762 0.0
C261 C 0.68407 0.5398 0.07978 0.0
H262 H 0.69202 0.44744 0.0562 0.0
C263 C 0.72305 0.57305 0.06232 0.0
H264 H 0.64249 0.46759 0.08875 0.0
C265 C 0.75088 0.56141 0.04323 0.0
C266 C 0.74094 0.51624 0.04135 0.0
H267 H 0.7336 0.60854 0.06481 0.0
H268 H 0.7814 0.58833 0.03127 0.0
C269 C 0.7009 0.4826 0.05735 0.0
C270 C 0.33409 0.84555 0.48623 0.0
C271 C 0.37324 0.8608 0.4652 0.0
H272 H 0.28142 0.79058 0.51541 0.0
C273 C 0.39248 0.83287 0.46161 0.0
H274 H 0.31807 0.86585 0.48944 0.0
C275 C 0.37097 0.78937 0.47596 0.0
C276 C 0.33011 0.773 0.49478 0.0
H277 H 0.42322 0.8439 0.44633 0.0
H278 H 0.3854 0.7679 0.47106 0.0
C279 C 0.31289 0.80219 0.50101 0.0
C280 C 0.59349 0.40368 0.65196 0.0
C281 C 0.546 0.38435 0.65104 0.0
H282 H 0.64934 0.39333 0.66275 0.0
C283 C 0.51892 0.34281 0.66819 0.0
H284 H 0.61532 0.43609 0.63964 0.0
C285 C 0.53852 0.3186 0.68194 0.0
C286 C 0.58539 0.33536 0.67842 0.0
H287 H 0.48225 0.32688 0.66791 0.0
H288 H 0.51644 0.28502 0.69232 0.0
C289 C 0.61298 0.37918 0.66515 0.0
C290 C 0.19798 0.54219 0.83215 0.0
C291 C 0.19792 0.54661 0.79498 0.0
H292 H 0.23741 0.54987 0.8788 0.0
C293 C 0.2401 0.56767 0.77721 0.0
H294 H 0.16666 0.52736 0.84712 0.0
C295 C 0.28063 0.58262 0.79577 0.0
C296 C 0.28007 0.57546 0.83232 0.0
H297 H 0.24219 0.57077 0.74866 0.0
H298 H 0.31222 0.5971 0.78108 0.0
C299 C 0.23854 0.55563 0.85049 0.0
C300 C 0.66166 0.22439 -0.03869 0.0
C301 C 0.68094 0.19644 -0.03593 0.0
H302 H 0.66907 0.28945 -0.02846 0.0
C303 C 0.72059 0.21174 -0.0155 0.0
H304 H 0.63056 0.21333 0.94651 0.0
C305 C 0.74221 0.25519 -0.00053 0.0
C306 C 0.7249 0.28441 -0.00599 0.0
H307 H 0.73662 0.19139 -0.01293 0.0
H308 H 0.77402 0.26686 0.01337 0.0
C309 C 0.68358 0.26797 -0.02418 0.0
C310 C 0.53712 0.72321 0.1603 0.0
C311 C 0.51016 0.68142 0.14317 0.0
H312 H 0.53944 0.78116 0.18454 0.0
C313 C 0.46276 0.66286 0.14268 0.0
H314 H 0.57373 0.73861 0.16101 0.0
C315 C 0.44326 0.68763 0.15549 0.0
C316 C 0.47067 0.73113 0.16966 0.0
H317 H 0.44095 0.63029 0.13036 0.0
H318 H 0.40697 0.67363 0.15264 0.0
C319 C 0.51748 0.74776 0.1736 0.0
C320 C 0.85744 0.51151 0.33137 0.0
C321 C 0.85797 0.50807 0.29412 0.0
H322 H 0.81732 0.50193 0.37797 0.0
C323 C 0.81601 0.48698 0.27598 0.0
H324 H 0.88863 0.5264 0.34655 0.0
C325 C 0.77517 0.47102 0.2943 0.0
C326 C 0.77521 0.47715 0.33103 0.0
H327 H 0.81433 0.4846 0.24736 0.0
H328 H 0.74375 0.45654 0.27937 0.0
C329 C 0.81656 0.49698 0.34953 0.0
C330 C 0.13898 0.57855 0.35824 0.0
C331 C 0.11445 0.60142 0.3552 0.0
H332 H 0.17868 0.56139 0.39182 0.0
C333 C 0.10611 0.61961 0.38589 0.0
H334 H 0.14548 0.56376 0.33509 0.0
C335 C 0.12507 0.61825 0.41834 0.0
C336 C 0.15277 0.59873 0.4207 0.0
H337 H 0.08775 0.63784 0.3844 0.0
H338 H 0.12003 0.63469 0.4411 0.0
C339 C 0.15805 0.5773 0.39068 0.0
C340 C 0.50342 0.11403 0.55369 0.0
C341 C 0.52933 0.12109 0.52283 0.0
H342 H 0.50377 0.12786 0.60911 0.0
C343 C 0.57697 0.14468 0.5255 0.0
H344 H 0.46669 0.09645 0.55248 0.0
C345 C 0.59822 0.16323 0.55785 0.0
C346 C 0.57227 0.15831 0.58824 0.0
H347 H 0.59784 0.15009 0.50227 0.0
H348 H 0.63497 0.18256 0.55878 0.0
C349 C 0.52469 0.13239 0.58609 0.0
C350 C 0.45916 0.57346 0.70268 0.0
C351 C 0.43907 0.5266 0.69695 0.0
H352 H 0.47585 0.62677 0.74019 0.0
C353 C 0.42432 0.49767 0.72643 0.0
H354 H 0.47146 0.5967 0.68057 0.0
C355 C 0.42718 0.51486 0.76055 0.0
C356 C 0.44463 0.56141 0.76607 0.0
H357 H 0.4082 0.46137 0.72305 0.0
H358 H 0.41366 0.49128 0.7824 0.0
C359 C 0.46193 0.5907 0.73689 0.0
C360 C 0.91831 0.48188 0.85889 0.0
C361 C 0.94245 0.45864 0.85532 0.0
H362 H 0.87834 0.49859 0.89282 0.0
C363 C 0.95012 0.43958 0.8856 0.0
H364 H 0.91233 0.49735 0.83607 0.0
C365 C 0.93072 0.44031 0.91806 0.0
C366 C 0.90322 0.46003 0.92082 0.0
H367 H 0.96817 0.42105 0.8837 0.0
H368 H 0.93516 0.42314 0.94044 0.0
C369 C 0.89875 0.48246 0.89133 0.0
C370 C 0.47527 0.91817 0.02334 0.0
C371 C 0.52289 0.94134 0.02077 0.0
H372 H 0.4172 0.88182 0.05671 0.0
C373 C 0.54877 0.94991 0.05183 0.0
H374 H 0.45445 0.91167 -8e-05 0.0
C375 C 0.52744 0.93309 0.0844 0.0
C376 C 0.47986 0.90721 0.08647 0.0
H377 H 0.5855 0.96728 0.05072 0.0
H378 H 0.54832 0.9385 0.10759 0.0
C379 C 0.45395 0.90114 0.05585 0.0
C380 C 0.63023 0.55649 0.22896 0.0
C381 C 0.61484 0.52811 0.19897 0.0
H382 H 0.64164 0.56163 0.28491 0.0
C383 C 0.59418 0.48113 0.20372 0.0
H384 H 0.64673 0.59287 0.22625 0.0
C385 C 0.59152 0.46314 0.23744 0.0
C386 C 0.60956 0.49181 0.26712 0.0
H387 H 0.58143 0.45836 0.18116 0.0
H388 H 0.57713 0.42694 0.23995 0.0
C389 C 0.62756 0.53854 0.26264 0.0
C390 C 0.40217 0.94798 0.32132 0.0
C391 C 0.4231 0.93526 0.34734 0.0
H392 H 0.3851 0.94571 0.26651 0.0
C393 C 0.44802 0.91464 0.33667 0.0
H394 H 0.38242 0.96363 0.32867 0.0
C395 C 0.44922 0.90397 0.30106 0.0
C396 C 0.42565 0.91387 0.27534 0.0
H397 H 0.46521 0.9052 0.35606 0.0
H398 H 0.46705 0.88625 0.29395 0.0
C399 C 0.40354 0.93751 0.28565 0.0
C400 C 0.553 0.39029 0.51649 0.0
C401 C 0.53148 0.41506 0.52551 0.0
H402 H 0.5863 0.373 0.47649 0.0
C403 C 0.52403 0.43909 0.49858 0.0
H404 H 0.5575 0.36947 0.53575 0.0
C405 C 0.53883 0.43912 0.46383 0.0
C406 C 0.56226 0.41613 0.45586 0.0
H407 H 0.50761 0.45851 0.50442 0.0
H408 H 0.53335 0.45822 0.44355 0.0
C409 C 0.56903 0.39166 0.48235 0.0
C410 C 0.14449 0.57921 0.67001 0.0
C411 C 0.1186 0.53377 0.68065 0.0
H412 H 0.17928 0.62512 0.62751 0.0
C413 C 0.10206 0.49979 0.65443 0.0
H414 H 0.15686 0.60634 0.68936 0.0
C415 C 0.11416 0.51063 0.61898 0.0
C416 C 0.14361 0.55564 0.6089 0.0
H417 H 0.08245 0.46439 0.66143 0.0
H418 H 0.10282 0.48326 0.59991 0.0
C419 C 0.15717 0.59002 0.63453 0.0
C420 C 0.60389 0.14333 0.83616 0.0
C421 C 0.6288 0.12244 0.8459 0.0
H422 H 0.58506 0.17295 0.79457 0.0
C423 C 0.6496 0.11021 0.81925 0.0
H424 H 0.5868 0.15238 0.85606 0.0
C425 C 0.64832 0.12166 0.78392 0.0
C426 C 0.62642 0.14576 0.77463 0.0
H427 H 0.6693 0.09434 0.82592 0.0
H428 H 0.66676 0.11395 0.76431 0.0
C429 C 0.60278 0.15496 0.80092 0.0
C430 C 0.4759 0.60083 0.01674 0.0
C431 C 0.52252 0.6257 0.02456 0.0
H432 H 0.42404 0.58296 -0.02222 0.0
C433 C 0.5535 0.6476 -0.00315 0.0
H434 H 0.4513 0.58308 0.03749 0.0
C435 C 0.53788 0.64733 -0.0375 0.0
C436 C 0.49105 0.62536 -0.04458 0.0
H437 H 0.58961 0.66733 0.00211 0.0
H438 H 0.56235 0.66635 0.94201 0.0
C439 C 0.46031 0.60082 -0.01743 0.0
C440 C 0.91349 0.47849 0.16883 0.0
C441 C 0.93856 0.5239 0.18003 0.0
H442 H 0.8789 0.43271 0.12591 0.0
C443 C 0.95421 0.55811 0.15428 0.0
H444 H 0.90186 0.45122 0.18779 0.0
C445 C 0.94182 0.54745 0.1188 0.0
C446 C 0.91296 0.50238 0.10827 0.0
H447 H 0.9732 0.59348 0.16174 0.0
H448 H 0.95234 0.57492 0.10014 0.0
C449 C 0.90048 0.46785 0.13334 0.0
loop_
_geom_bond_atom_site_label_1
_geom_bond_atom_site_label_2
_geom_bond_distance
_geom_bond_site_symmetry_2
_ccdc_geom_bond_type
H0 C8 0.930 . S
H1 C11 0.930 . S
H2 C13 0.930 . S
H3 C14 0.970 . S
H4 C14 0.970 . S
H5 C16 0.930 . S
H6 C18 0.930 . S
H7 C20 0.930 . S
C8 H0 0.930 . S
C8 C9 1.382 . S
C8 C10 1.426 . S
C9 C8 1.382 . S
C9 C13 1.389 . S
C10 C8 1.426 . S
C10 C11 1.375 . S
C10 C14 1.532 1_655 S
C11 H1 0.930 . S
C11 C10 1.375 . S
C11 C12 1.416 . S
C12 C11 1.416 . S
C12 C13 1.371 . S
C13 H2 0.930 . S
C13 C9 1.389 . S
C13 C12 1.371 . S
C14 H3 0.970 . S
C14 H4 0.970 . S
C14 C10 1.532 1_455 S
C14 C15 1.499 . S
C15 C14 1.499 . S
C15 C16 1.370 . S
C15 C20 1.415 . S
C16 H5 0.930 . S
C16 C15 1.370 . S
C16 C17 1.407 . S
C17 C16 1.407 . S
C17 C18 1.365 . S
C18 H6 0.930 . S
C18 C17 1.365 . S
C18 C19 1.393 . S
C19 C18 1.393 . S
C19 C20 1.387 . S
C20 H7 0.930 . S
C20 C15 1.415 . S
C20 C19 1.387 . S
H21 C29 0.930 . S
H22 C32 0.930 . S
H23 C34 0.930 . S
H24 C35 0.970 . S
H25 C35 0.970 . S
H26 C37 0.930 . S
H27 C39 0.930 . S
H28 C41 0.930 . S
C29 H21 0.930 . S
C29 C30 1.382 . S
C29 C31 1.426 . S
C30 C29 1.382 . S
C30 C34 1.389 . S
C31 C29 1.426 . S
C31 C32 1.375 . S
C31 C35 1.532 1_565 S
C32 H22 0.930 . S
C32 C31 1.375 . S
C32 C33 1.416 . S
C33 C32 1.416 . S
C33 C34 1.371 . S
C34 H23 0.930 . S
C34 C30 1.389 . S
C34 C33 1.371 . S
C35 H24 0.970 . S
C35 H25 0.970 . S
C35 C31 1.532 1_545 S
C35 C36 1.499 . S
C36 C35 1.499 . S
C36 C37 1.370 . S
C36 C41 1.415 . S
C37 H26 0.930 . S
C37 C36 1.370 . S
C37 C38 1.407 . S
C38 C37 1.407 . S
C38 C39 1.365 . S
C39 H27 0.930 . S
C39 C38 1.365 . S
C39 C40 1.393 . S
C40 C39 1.393 . S
C40 C41 1.387 . S
C41 H28 0.930 . S
C41 C36 1.415 . S
C41 C40 1.387 . S
H42 C50 0.930 . S
H43 C53 0.930 . S
H44 C55 0.930 . S
H45 C56 0.970 . S
H46 C56 0.970 . S
H47 C58 0.930 . S
H48 C60 0.930 . S
H49 C62 0.930 . S
C50 H42 0.930 . S
C50 C51 1.382 . S
C50 C52 1.426 . S
C51 C50 1.382 . S
C51 C55 1.389 . S
C52 C50 1.426 . S
C52 C53 1.375 . S
C52 C56 1.532 . S
C53 H43 0.930 . S
C53 C52 1.375 . S
C53 C54 1.416 . S
C54 C53 1.416 . S
C54 C55 1.371 . S
C55 H44 0.930 . S
C55 C51 1.389 . S
C55 C54 1.371 . S
C56 H45 0.970 . S
C56 H46 0.970 . S
C56 C52 1.532 . S
C56 C57 1.499 . S
C57 C56 1.499 . S
C57 C58 1.370 . S
C57 C62 1.415 . S
C58 H47 0.930 . S
C58 C57 1.370 . S
C58 C59 1.407 . S
C59 C58 1.407 . S
C59 C60 1.365 . S
C60 H48 0.930 . S
C60 C59 1.365 . S
C60 C61 1.393 . S
C61 C60 1.393 . S
C61 C62 1.387 . S
C62 H49 0.930 . S
C62 C57 1.415 . S
C62 C61 1.387 . S
H63 C71 0.930 . S
H64 C74 0.930 . S
H65 C76 0.930 . S
H66 C77 0.970 . S
H67 C77 0.970 . S
H68 C79 0.930 . S
H69 C81 0.930 . S
H70 C83 0.930 . S
C71 H63 0.930 . S
C71 C72 1.382 . S
C71 C73 1.426 . S
C72 C71 1.382 . S
C72 C76 1.389 . S
C73 C71 1.426 . S
C73 C74 1.375 . S
C73 C77 1.532 1_655 S
C74 H64 0.930 . S
C74 C73 1.375 . S
C74 C75 1.416 . S
C75 C74 1.416 . S
C75 C76 1.371 . S
C76 H65 0.930 . S
C76 C72 1.389 . S
C76 C75 1.371 . S
C77 H66 0.970 . S
C77 H67 0.970 . S
C77 C73 1.532 1_455 S
C77 C78 1.499 . S
C78 C77 1.499 . S
C78 C79 1.370 . S
C78 C83 1.415 . S
C79 H68 0.930 . S
C79 C78 1.370 . S
C79 C80 1.407 . S
C80 C79 1.407 . S
C80 C81 1.365 . S
C81 H69 0.930 . S
C81 C80 1.365 . S
C81 C82 1.393 . S
C82 C81 1.393 . S
C82 C83 1.387 . S
C83 H70 0.930 . S
C83 C78 1.415 . S
C83 C82 1.387 . S
H84 C92 0.930 . S
H85 C95 0.930 . S
H86 C97 0.930 . S
H87 C98 0.970 1_554 S
H88 C98 0.958 1_565 S
H89 C100 0.930 . S
H90 C102 0.930 . S
H91 C104 0.930 . S
C92 H84 0.930 . S
C92 C93 1.382 . S
C92 C94 1.426 1_554 S
C93 C92 1.382 . S
C93 C97 1.389 1_554 S
C94 C92 1.426 1_556 S
C94 C95 1.375 . S
C94 C98 1.532 . S
C95 H85 0.930 . S
C95 C94 1.375 . S
C95 C96 1.416 . S
C96 C95 1.416 . S
C96 C97 1.371 . S
C97 H86 0.930 . S
C97 C93 1.389 1_556 S
C97 C96 1.371 . S
C98 H87 0.970 1_556 S
C98 H88 0.958 1_545 S
C98 C94 1.532 . S
C98 C99 1.499 1_546 S
C99 C98 1.499 1_564 S
C99 C100 1.370 . S
C99 C104 1.415 1_554 S
C100 H89 0.930 . S
C100 C99 1.370 . S
C100 C101 1.407 . S
C101 C100 1.407 . S
C101 C102 1.365 . S
C102 H90 0.930 . S
C102 C101 1.365 . S
C102 C103 1.393 1_554 S
C103 C102 1.393 1_556 S
C103 C104 1.387 . S
C104 H91 0.930 . S
C104 C99 1.415 1_556 S
C104 C103 1.387 . S
H105 C113 0.930 . S
H106 C116 0.930 . S
H107 C118 0.930 . S
H108 C119 0.970 . S
H109 C119 0.970 . S
H110 C121 0.930 . S
H111 C123 0.930 . S
H112 C125 0.930 . S
C113 H105 0.930 . S
C113 C114 1.382 . S
C113 C115 1.426 . S
C114 C113 1.382 . S
C114 C118 1.389 . S
C115 C113 1.426 . S
C115 C116 1.375 . S
C115 C119 1.532 . S
C116 H106 0.930 . S
C116 C115 1.375 . S
C116 C117 1.416 . S
C117 C116 1.416 . S
C117 C118 1.371 . S
C118 H107 0.930 . S
C118 C114 1.389 . S
C118 C117 1.371 . S
C119 H108 0.970 . S
C119 H109 0.970 . S
C119 C115 1.532 . S
C119 C120 1.499 . S
C120 C119 1.499 . S
C120 C121 1.370 . S
C120 C125 1.415 . S
C121 H110 0.930 . S
C121 C120 1.370 . S
C121 C122 1.407 . S
C122 C121 1.407 . S
C122 C123 1.365 . S
C123 H111 0.930 . S
C123 C122 1.365 . S
C123 C124 1.393 . S
C124 C123 1.393 . S
C124 C125 1.387 . S
C125 H112 0.930 . S
C125 C120 1.415 . S
C125 C124 1.387 . S
C126 O127 1.306 . S
C126 O129 1.160 . S
O127 C126 1.306 . S
O127 Cd128 2.228 . S
Cd128 O127 2.228 . S
Cd128 O132 2.273 . S
Cd128 O136 2.277 . S
O129 C126 1.160 . S
O129 Cd130 2.203 . S
Cd130 O129 2.203 . S
Cd130 O132 2.411 . S
Cd130 O133 2.333 . S
Cd130 O134 2.352 . S
Cd130 O138 2.277 . S
Cd130 O139 2.356 . S
C131 O136 1.209 . S
C131 O138 1.226 . S
O132 Cd128 2.273 . S
O132 Cd130 2.411 . S
O132 C135 1.320 . S
O133 Cd130 2.333 . S
O133 C135 1.214 . S
O134 Cd130 2.352 . S
O134 C137 1.258 . S
C135 O132 1.320 . S
C135 O133 1.214 . S
O136 Cd128 2.277 . S
O136 C131 1.209 . S
C137 O134 1.258 . S
C137 O139 1.282 . S
O138 Cd130 2.277 . S
O138 C131 1.226 . S
O139 Cd130 2.356 . S
O139 C137 1.282 . S
C140 O141 1.306 . S
C140 O143 1.160 . S
O141 C140 1.306 . S
O141 Cd142 2.228 . S
Cd142 O141 2.228 . S
Cd142 O146 2.273 . S
Cd142 O150 2.277 . S
O143 C140 1.160 . S
O143 Cd144 2.203 . S
Cd144 O143 2.203 . S
Cd144 O146 2.411 . S
Cd144 O147 2.333 . S
Cd144 O148 2.352 . S
Cd144 O152 2.277 . S
Cd144 O153 2.356 . S
C145 O150 1.209 . S
C145 O152 1.226 . S
O146 Cd142 2.273 . S
O146 Cd144 2.411 . S
O146 C149 1.320 . S
O147 Cd144 2.333 . S
O147 C149 1.214 . S
O148 Cd144 2.352 . S
O148 C151 1.258 . S
C149 O146 1.320 . S
C149 O147 1.214 . S
O150 Cd142 2.277 . S
O150 C145 1.209 . S
C151 O148 1.258 . S
C151 O153 1.282 . S
O152 Cd144 2.277 . S
O152 C145 1.226 . S
O153 Cd144 2.356 . S
O153 C151 1.282 . S
C154 O155 1.306 . S
C154 O157 1.160 . S
O155 C154 1.306 . S
O155 Cd156 2.228 . S
Cd156 O155 2.228 . S
Cd156 O160 2.273 . S
Cd156 O164 2.277 . S
O157 C154 1.160 . S
O157 Cd158 2.203 . S
Cd158 O157 2.203 . S
Cd158 O160 2.411 . S
Cd158 O161 2.333 . S
Cd158 O162 2.352 . S
Cd158 O166 2.277 . S
Cd158 O167 2.356 . S
C159 O164 1.209 . S
C159 O166 1.226 . S
O160 Cd156 2.273 . S
O160 Cd158 2.411 . S
O160 C163 1.320 . S
O161 Cd158 2.333 . S
O161 C163 1.214 . S
O162 Cd158 2.352 . S
O162 C165 1.258 . S
C163 O160 1.320 . S
C163 O161 1.214 . S
O164 Cd156 2.277 . S
O164 C159 1.209 . S
C165 O162 1.258 . S
C165 O167 1.282 . S
O166 Cd158 2.277 . S
O166 C159 1.226 . S
O167 Cd158 2.356 . S
O167 C165 1.282 . S
C168 O169 1.306 . S
C168 O171 1.160 . S
O169 C168 1.306 . S
O169 Cd170 2.228 . S
Cd170 O169 2.228 . S
Cd170 O174 2.273 . S
Cd170 O178 2.277 . S
O171 C168 1.160 . S
O171 Cd172 2.203 . S
Cd172 O171 2.203 . S
Cd172 O174 2.411 . S
Cd172 O175 2.333 . S
Cd172 O176 2.352 . S
Cd172 O180 2.277 . S
Cd172 O181 2.356 . S
C173 O178 1.209 . S
C173 O180 1.226 . S
O174 Cd170 2.273 . S
O174 Cd172 2.411 . S
O174 C177 1.320 . S
O175 Cd172 2.333 . S
O175 C177 1.214 . S
O176 Cd172 2.352 . S
O176 C179 1.258 . S
C177 O174 1.320 . S
C177 O175 1.214 . S
O178 Cd170 2.277 . S
O178 C173 1.209 . S
C179 O176 1.258 . S
C179 O181 1.282 . S
O180 Cd172 2.277 . S
O180 C173 1.226 . S
O181 Cd172 2.356 . S
O181 C179 1.282 . S
C182 O183 1.306 . S
C182 O185 1.160 . S
O183 C182 1.306 . S
O183 Cd184 2.228 . S
Cd184 O183 2.228 . S
Cd184 O188 2.273 . S
Cd184 O192 2.277 . S
O185 C182 1.160 . S
O185 Cd186 2.203 . S
Cd186 O185 2.203 . S
Cd186 O188 2.411 . S
Cd186 O189 2.333 . S
Cd186 O190 2.352 . S
Cd186 O194 2.277 . S
Cd186 O195 2.356 . S
C187 O192 1.209 . S
C187 O194 1.226 . S
O188 Cd184 2.273 . S
O188 Cd186 2.411 . S
O188 C191 1.320 . S
O189 Cd186 2.333 . S
O189 C191 1.214 . S
O190 Cd186 2.352 . S
O190 C193 1.258 . S
C191 O188 1.320 . S
C191 O189 1.214 . S
O192 Cd184 2.277 . S
O192 C187 1.209 . S
C193 O190 1.258 . S
C193 O195 1.282 . S
O194 Cd186 2.277 . S
O194 C187 1.226 . S
O195 Cd186 2.356 . S
O195 C193 1.282 . S
C196 O197 1.306 . S
C196 O199 1.160 . S
O197 C196 1.306 . S
O197 Cd198 2.228 . S
Cd198 O197 2.228 . S
Cd198 O202 2.273 . S
Cd198 O206 2.277 . S
O199 C196 1.160 . S
O199 Cd200 2.203 . S
Cd200 O199 2.203 . S
Cd200 O202 2.411 . S
Cd200 O203 2.333 . S
Cd200 O204 2.352 . S
Cd200 O208 2.277 . S
Cd200 O209 2.356 . S
C201 O206 1.209 . S
C201 O208 1.226 . S
O202 Cd198 2.273 . S
O202 Cd200 2.411 . S
O202 C205 1.320 . S
O203 Cd200 2.333 . S
O203 C205 1.214 . S
O204 Cd200 2.352 . S
O204 C207 1.258 . S
C205 O202 1.320 . S
C205 O203 1.214 . S
O206 Cd198 2.277 . S
O206 C201 1.209 . S
C207 O204 1.258 . S
C207 O209 1.282 . S
O208 Cd200 2.277 . S
O208 C201 1.226 . S
O209 Cd200 2.356 . S
O209 C207 1.282 . S
C210 C211 1.387 . S
C210 H214 0.950 . S
C210 C219 1.390 . S
C211 C210 1.387 . S
C211 C213 1.387 . S
H212 C219 0.950 . S
C213 C211 1.387 . S
C213 C215 1.390 . S
C213 H217 0.950 . S
H214 C210 0.950 . S
C215 C213 1.390 . S
C215 C216 1.387 . S
C215 H218 0.950 . S
C216 C215 1.387 . S
C216 C219 1.387 . S
H217 C213 0.950 . S
H218 C215 0.950 . S
C219 C210 1.390 . S
C219 H212 0.950 . S
C219 C216 1.387 . S
C220 C221 1.387 . S
C220 H224 0.950 . S
C220 C229 1.390 . S
C221 C220 1.387 . S
C221 C223 1.387 . S
H222 C229 0.950 . S
C223 C221 1.387 . S
C223 C225 1.390 . S
C223 H227 0.950 . S
H224 C220 0.950 . S
C225 C223 1.390 . S
C225 C226 1.387 . S
C225 H228 0.950 . S
C226 C225 1.387 . S
C226 C229 1.387 . S
H227 C223 0.950 . S
H228 C225 0.950 . S
C229 C220 1.390 . S
C229 H222 0.950 . S
C229 C226 1.387 . S
C230 C231 1.387 . S
C230 H234 0.950 . S
C230 C239 1.390 . S
C231 C230 1.387 . S
C231 C233 1.387 . S
H232 C239 0.950 . S
C233 C231 1.387 . S
C233 C235 1.390 . S
C233 H237 0.950 . S
H234 C230 0.950 . S
C235 C233 1.390 . S
C235 C236 1.387 . S
C235 H238 0.950 . S
C236 C235 1.387 . S
C236 C239 1.387 . S
H237 C233 0.950 . S
H238 C235 0.950 . S
C239 C230 1.390 . S
C239 H232 0.950 . S
C239 C236 1.387 . S
C240 C241 1.387 . S
C240 H244 0.950 . S
C240 C249 1.390 . S
C241 C240 1.387 . S
C241 C243 1.387 . S
H242 C249 0.950 . S
C243 C241 1.387 . S
C243 C245 1.390 . S
C243 H247 0.950 . S
H244 C240 0.950 . S
C245 C243 1.390 . S
C245 C246 1.387 . S
C245 H248 0.950 . S
C246 C245 1.387 . S
C246 C249 1.387 . S
H247 C243 0.950 . S
H248 C245 0.950 . S
C249 C240 1.390 . S
C249 H242 0.950 . S
C249 C246 1.387 . S
C250 C251 1.387 . S
C250 H254 0.950 . S
C250 C259 1.390 . S
C251 C250 1.387 . S
C251 C253 1.387 . S
H252 C259 0.950 . S
C253 C251 1.387 . S
C253 C255 1.390 . S
C253 H257 0.950 . S
H254 C250 0.950 . S
C255 C253 1.390 . S
C255 C256 1.387 . S
C255 H258 0.950 . S
C256 C255 1.387 . S
C256 C259 1.387 . S
H257 C253 0.950 . S
H258 C255 0.950 . S
C259 C250 1.390 . S
C259 H252 0.950 . S
C259 C256 1.387 . S
C260 C261 1.387 . S
C260 H264 0.950 . S
C260 C269 1.390 . S
C261 C260 1.387 . S
C261 C263 1.387 . S
H262 C269 0.950 . S
C263 C261 1.387 . S
C263 C265 1.390 . S
C263 H267 0.950 . S
H264 C260 0.950 . S
C265 C263 1.390 . S
C265 C266 1.387 . S
C265 H268 0.950 . S
C266 C265 1.387 . S
C266 C269 1.387 . S
H267 C263 0.950 . S
H268 C265 0.950 . S
C269 C260 1.390 . S
C269 H262 0.950 . S
C269 C266 1.387 . S
C270 C271 1.387 . S
C270 H274 0.950 . S
C270 C279 1.390 . S
C271 C270 1.387 . S
C271 C273 1.387 . S
H272 C279 0.950 . S
C273 C271 1.387 . S
C273 C275 1.390 . S
C273 H277 0.950 . S
H274 C270 0.950 . S
C275 C273 1.390 . S
C275 C276 1.387 . S
C275 H278 0.950 . S
C276 C275 1.387 . S
C276 C279 1.387 . S
H277 C273 0.950 . S
H278 C275 0.950 . S
C279 C270 1.390 . S
C279 H272 0.950 . S
C279 C276 1.387 . S
C280 C281 1.387 . S
C280 H284 0.950 . S
C280 C289 1.390 . S
C281 C280 1.387 . S
C281 C283 1.387 . S
H282 C289 0.950 . S
C283 C281 1.387 . S
C283 C285 1.390 . S
C283 H287 0.950 . S
H284 C280 0.950 . S
C285 C283 1.390 . S
C285 C286 1.387 . S
C285 H288 0.950 . S
C286 C285 1.387 . S
C286 C289 1.387 . S
H287 C283 0.950 . S
H288 C285 0.950 . S
C289 C280 1.390 . S
C289 H282 0.950 . S
C289 C286 1.387 . S
C290 C291 1.387 . S
C290 H294 0.950 . S
C290 C299 1.390 . S
C291 C290 1.387 . S
C291 C293 1.387 . S
H292 C299 0.950 . S
C293 C291 1.387 . S
C293 C295 1.390 . S
C293 H297 0.950 . S
H294 C290 0.950 . S
C295 C293 1.390 . S
C295 C296 1.387 . S
C295 H298 0.950 . S
C296 C295 1.387 . S
C296 C299 1.387 . S
H297 C293 0.950 . S
H298 C295 0.950 . S
C299 C290 1.390 . S
C299 H292 0.950 . S
C299 C296 1.387 . S
C300 C301 1.387 . S
C300 H304 0.950 . S
C300 C309 1.390 . S
C301 C300 1.387 . S
C301 C303 1.387 . S
H302 C309 0.950 . S
C303 C301 1.387 . S
C303 C305 1.390 . S
C303 H307 0.950 . S
H304 C300 0.950 . S
C305 C303 1.390 . S
C305 C306 1.387 . S
C305 H308 0.950 . S
C306 C305 1.387 . S
C306 C309 1.387 . S
H307 C303 0.950 . S
H308 C305 0.950 . S
C309 C300 1.390 . S
C309 H302 0.950 . S
C309 C306 1.387 . S
C310 C311 1.387 . S
C310 H314 0.950 . S
C310 C319 1.390 . S
C311 C310 1.387 . S
C311 C313 1.387 . S
H312 C319 0.950 . S
C313 C311 1.387 . S
C313 C315 1.390 . S
C313 H317 0.950 . S
H314 C310 0.950 . S
C315 C313 1.390 . S
C315 C316 1.387 . S
C315 H318 0.950 . S
C316 C315 1.387 . S
C316 C319 1.387 . S
H317 C313 0.950 . S
H318 C315 0.950 . S
C319 C310 1.390 . S
C319 H312 0.950 . S
C319 C316 1.387 . S
C320 C321 1.387 . S
C320 H324 0.950 . S
C320 C329 1.390 . S
C321 C320 1.387 . S
C321 C323 1.387 . S
H322 C329 0.950 . S
C323 C321 1.387 . S
C323 C325 1.390 . S
C323 H327 0.950 . S
H324 C320 0.950 . S
C325 C323 1.390 . S
C325 C326 1.387 . S
C325 H328 0.950 . S
C326 C325 1.387 . S
C326 C329 1.387 . S
H327 C323 0.950 . S
H328 C325 0.950 . S
C329 C320 1.390 . S
C329 H322 0.950 . S
C329 C326 1.387 . S
C330 C331 1.387 . S
C330 H334 0.950 . S
C330 C339 1.390 . S
C331 C330 1.387 . S
C331 C333 1.387 . S
H332 C339 0.950 . S
C333 C331 1.387 . S
C333 C335 1.390 . S
C333 H337 0.950 . S
H334 C330 0.950 . S
C335 C333 1.390 . S
C335 C336 1.387 . S
C335 H338 0.950 . S
C336 C335 1.387 . S
C336 C339 1.387 . S
H337 C333 0.950 . S
H338 C335 0.950 . S
C339 C330 1.390 . S
C339 H332 0.950 . S
C339 C336 1.387 . S
C340 C341 1.387 . S
C340 H344 0.950 . S
C340 C349 1.390 . S
C341 C340 1.387 . S
C341 C343 1.387 . S
H342 C349 0.950 . S
C343 C341 1.387 . S
C343 C345 1.390 . S
C343 H347 0.950 . S
H344 C340 0.950 . S
C345 C343 1.390 . S
C345 C346 1.387 . S
C345 H348 0.950 . S
C346 C345 1.387 . S
C346 C349 1.387 . S
H347 C343 0.950 . S
H348 C345 0.950 . S
C349 C340 1.390 . S
C349 H342 0.950 . S
C349 C346 1.387 . S
C350 C351 1.387 . S
C350 H354 0.950 . S
C350 C359 1.390 . S
C351 C350 1.387 . S
C351 C353 1.387 . S
H352 C359 0.950 . S
C353 C351 1.387 . S
C353 C355 1.390 . S
C353 H357 0.950 . S
H354 C350 0.950 . S
C355 C353 1.390 . S
C355 C356 1.387 . S
C355 H358 0.950 . S
C356 C355 1.387 . S
C356 C359 1.387 . S
H357 C353 0.950 . S
H358 C355 0.950 . S
C359 C350 1.390 . S
C359 H352 0.950 . S
C359 C356 1.387 . S
C360 C361 1.387 . S
C360 H364 0.950 . S
C360 C369 1.390 . S
C361 C360 1.387 . S
C361 C363 1.387 . S
H362 C369 0.950 . S
C363 C361 1.387 . S
C363 C365 1.390 . S
C363 H367 0.950 . S
H364 C360 0.950 . S
C365 C363 1.390 . S
C365 C366 1.387 . S
C365 H368 0.950 . S
C366 C365 1.387 . S
C366 C369 1.387 . S
H367 C363 0.950 . S
H368 C365 0.950 . S
C369 C360 1.390 . S
C369 H362 0.950 . S
C369 C366 1.387 . S
C370 C371 1.387 . S
C370 H374 0.950 . S
C370 C379 1.390 . S
C371 C370 1.387 . S
C371 C373 1.387 . S
H372 C379 0.950 . S
C373 C371 1.387 . S
C373 C375 1.390 . S
C373 H377 0.950 . S
H374 C370 0.950 . S
C375 C373 1.390 . S
C375 C376 1.387 . S
C375 H378 0.950 . S
C376 C375 1.387 . S
C376 C379 1.387 . S
H377 C373 0.950 . S
H378 C375 0.950 . S
C379 C370 1.390 . S
C379 H372 0.950 . S
C379 C376 1.387 . S
C380 C381 1.387 . S
C380 H384 0.950 . S
C380 C389 1.390 . S
C381 C380 1.387 . S
C381 C383 1.387 . S
H382 C389 0.950 . S
C383 C381 1.387 . S
C383 C385 1.390 . S
C383 H387 0.950 . S
H384 C380 0.950 . S
C385 C383 1.390 . S
C385 C386 1.387 . S
C385 H388 0.950 . S
C386 C385 1.387 . S
C386 C389 1.387 . S
H387 C383 0.950 . S
H388 C385 0.950 . S
C389 C380 1.390 . S
C389 H382 0.950 . S
C389 C386 1.387 . S
C390 C391 1.387 . S
C390 H394 0.950 . S
C390 C399 1.390 . S
C391 C390 1.387 . S
C391 C393 1.387 . S
H392 C399 0.950 . S
C393 C391 1.387 . S
C393 C395 1.390 . S
C393 H397 0.950 . S
H394 C390 0.950 . S
C395 C393 1.390 . S
C395 C396 1.387 . S
C395 H398 0.950 . S
C396 C395 1.387 . S
C396 C399 1.387 . S
H397 C393 0.950 . S
H398 C395 0.950 . S
C399 C390 1.390 . S
C399 H392 0.950 . S
C399 C396 1.387 . S
C400 C401 1.387 . S
C400 H404 0.950 . S
C400 C409 1.390 . S
C401 C400 1.387 . S
C401 C403 1.387 . S
H402 C409 0.950 . S
C403 C401 1.387 . S
C403 C405 1.390 . S
C403 H407 0.950 . S
H404 C400 0.950 . S
C405 C403 1.390 . S
C405 C406 1.387 . S
C405 H408 0.950 . S
C406 C405 1.387 . S
C406 C409 1.387 . S
H407 C403 0.950 . S
H408 C405 0.950 . S
C409 C400 1.390 . S
C409 H402 0.950 . S
C409 C406 1.387 . S
C410 C411 1.387 . S
C410 H414 0.950 . S
C410 C419 1.390 . S
C411 C410 1.387 . S
C411 C413 1.387 . S
H412 C419 0.950 . S
C413 C411 1.387 . S
C413 C415 1.390 . S
C413 H417 0.950 . S
H414 C410 0.950 . S
C415 C413 1.390 . S
C415 C416 1.387 . S
C415 H418 0.950 . S
C416 C415 1.387 . S
C416 C419 1.387 . S
H417 C413 0.950 . S
H418 C415 0.950 . S
C419 C410 1.390 . S
C419 H412 0.950 . S
C419 C416 1.387 . S
C420 C421 1.387 . S
C420 H424 0.950 . S
C420 C429 1.390 . S
C421 C420 1.387 . S
C421 C423 1.387 . S
H422 C429 0.950 . S
C423 C421 1.387 . S
C423 C425 1.390 . S
C423 H427 0.950 . S
H424 C420 0.950 . S
C425 C423 1.390 . S
C425 C426 1.387 . S
C425 H428 0.950 . S
C426 C425 1.387 . S
C426 C429 1.387 . S
H427 C423 0.950 . S
H428 C425 0.950 . S
C429 C420 1.390 . S
C429 H422 0.950 . S
C429 C426 1.387 . S
C430 C431 1.387 . S
C430 H434 0.950 . S
C430 C439 1.390 1_554 S
C431 C430 1.387 . S
C431 C433 1.387 . S
H432 C439 0.950 . S
C433 C431 1.387 . S
C433 C435 1.390 . S
C433 H437 0.950 . S
H434 C430 0.950 . S
C435 C433 1.390 . S
C435 C436 1.387 1_554 S
C435 H438 0.950 . S
C436 C435 1.387 1_556 S
C436 C439 1.387 . S
H437 C433 0.950 . S
H438 C435 0.950 . S
C439 C430 1.390 1_556 S
C439 H432 0.950 . S
C439 C436 1.387 . S
C440 C441 1.387 . S
C440 H444 0.950 . S
C440 C449 1.390 . S
C441 C440 1.387 . S
C441 C443 1.387 . S
H442 C449 0.950 . S
C443 C441 1.387 . S
C443 C445 1.390 . S
C443 H447 0.950 . S
H444 C440 0.950 . S
C445 C443 1.390 . S
C445 C446 1.387 . S
C445 H448 0.950 . S
C446 C445 1.387 . S
C446 C449 1.387 . S
H447 C443 0.950 . S
H448 C445 0.950 . S
C449 C440 1.390 . S
C449 H442 0.950 . S
C449 C446 1.387 . S
C216 C196 1.576 . S
C211 C19 1.487 . S
C221 C40 1.476 . S
C226 C137 1.576 . S
C231 C51 1.464 . S
C236 C140 1.575 . S
C241 C72 1.476 . S
C246 C154 1.580 . S
C256 C179 1.574 . S
C251 C103 1.474 . S
C261 C114 1.454 . S
C266 C182 1.568 . S
C271 C30 1.450 . S
C276 C151 1.564 . S
C281 C61 1.474 . S
C286 C165 1.564 . S
C291 C82 1.464 . S
C296 C168 1.551 . S
C306 C193 1.557 . S
C301 C93 1.441 . S
C316 C207 1.562 . S
C311 C124 1.473 . S
C326 C126 1.556 . S
C321 C9 1.454 . S
C331 C17 1.433 . S
C336 C149 1.508 . S
C341 C38 1.420 . S
C346 C163 1.512 . S
C356 C173 1.511 . S
C351 C54 1.423 . S
C361 C75 1.428 . S
C366 C191 1.506 1_556 S
C376 C205 1.511 . S
C371 C101 1.422 . S
C386 C131 1.512 . S
C381 C117 1.420 . S
C396 C201 1.527 . S
C391 C33 1.423 . S
C401 C59 1.430 . S
C406 C135 1.519 . S
C416 C145 1.528 . S
C411 C80 1.444 . S
C421 C96 1.427 . S
C426 C159 1.529 . S
C431 C122 1.429 . S
C436 C177 1.519 . S
C441 C12 1.438 . S
C446 C187 1.526 . S
