# Generated by pormake.
# Topology pyr, (3,6)-cn, num edge types: 1
# Building blocks:
#     Node 0, Type 0, BuildingBlock: BETDAH_clean_linker_0, # of connection points: 3
#     Node 1, Type 0, BuildingBlock: BETDAH_clean_linker_0, # of connection points: 3
#     Node 2, Type 0, BuildingBlock: BETDAH_clean_linker_0, # of connection points: 3
#     Node 3, Type 0, BuildingBlock: BETDAH_clean_linker_0, # of connection points: 3
#     Node 4, Type 0, BuildingBlock: BETDAH_clean_linker_0, # of connection points: 3
#     Node 5, Type 0, BuildingBlock: BETDAH_clean_linker_0, # of connection points: 3
#     Node 6, Type 0, BuildingBlock: BETDAH_clean_linker_0, # of connection points: 3
#     Node 7, Type 0, BuildingBlock: BETDAH_clean_linker_0, # of connection points: 3
#     Node 8, Type 1, BuildingBlock: GEDQOX_clean_sbu_0, # of connection points: 6
#     Node 9, Type 1, BuildingBlock: GEDQOX_clean_sbu_0, # of connection points: 6
#     Node 10, Type 1, BuildingBlock: GEDQOX_clean_sbu_0, # of connection points: 6
#     Node 11, Type 1, BuildingBlock: GEDQOX_clean_sbu_0, # of connection points: 6
#     Edge 12, Type (0, 1), None
#     Edge 13, Type (0, 1), None
#     Edge 14, Type (0, 1), None
#     Edge 15, Type (0, 1), None
#     Edge 16, Type (0, 1), None
#     Edge 17, Type (0, 1), None
#     Edge 18, Type (0, 1), None
#     Edge 19, Type (0, 1), None
#     Edge 20, Type (0, 1), None
#     Edge 21, Type (0, 1), None
#     Edge 22, Type (0, 1), None
#     Edge 23, Type (0, 1), None
#     Edge 24, Type (0, 1), None
#     Edge 25, Type (0, 1), None
#     Edge 26, Type (0, 1), None
#     Edge 27, Type (0, 1), None
#     Edge 28, Type (0, 1), None
#     Edge 29, Type (0, 1), None
#     Edge 30, Type (0, 1), None
#     Edge 31, Type (0, 1), None
#     Edge 32, Type (0, 1), None
#     Edge 33, Type (0, 1), None
#     Edge 34, Type (0, 1), None
#     Edge 35, Type (0, 1), None
# Relax obj value: 0.478
# Max RMSD: 0.252
# Mean RMSD: 0.171
data_MOF--net-pyr--node1-GEDQOX_clean_sbu_0--node2-BETDAH_clean_linker_0--edge1-none
_symmetry_space_group_name_H-M    P1
_symmetry_Int_Tables_number       1
_symmetry_cell_setting            triclinic
loop_
_symmetry_equiv_pos_as_xyz
'x, y, z'
_cell_length_a     18.200871
_cell_length_b     17.493475
_cell_length_c     15.847183
_cell_angle_alpha  88.932172
_cell_angle_beta   90.212264
_cell_angle_gamma 87.375266
loop_
_atom_site_label
_atom_site_type_symbol
_atom_site_fract_x
_atom_site_fract_y
_atom_site_fract_z
_atom_type_partial_charge
H0 H 0.37222 0.08393 0.32007 0.0
H1 H 0.38156 0.25287 0.11961 0.0
H2 H 0.19252 0.25443 0.28523 0.0
C3 C 0.34647 0.13155 0.28472 0.0
C4 C 0.2751 0.16165 0.31265 0.0
C5 C 0.38661 0.16258 0.21397 0.0
C6 C 0.35209 0.22702 0.17128 0.0
C7 C 0.28267 0.26244 0.19551 0.0
C8 C 0.2451 0.22891 0.26651 0.0
N9 N 0.25676 0.3297 0.14364 0.0
C10 C 0.20086 0.39122 0.13859 0.0
H11 H 0.59547 0.88078 0.84593 0.0
H12 H 0.40639 0.96018 0.99035 0.0
H13 H 0.40716 0.74241 0.87285 0.0
C14 C 0.54112 0.87202 0.87084 0.0
C15 C 0.50269 0.8064 0.847 0.0
C16 C 0.50849 0.92545 0.9289 0.0
C17 C 0.43499 0.91661 0.95349 0.0
C18 C 0.39797 0.85187 0.92983 0.0
C19 C 0.43634 0.79327 0.8874 0.0
N20 N 0.31987 0.85264 0.92959 0.0
C21 C 0.28726 0.83058 0.8547 0.0
H22 H 0.93603 0.45491 0.96126 0.0
H23 H 0.95872 0.64032 0.77994 0.0
H24 H 0.76094 0.51731 0.78641 0.0
C25 C 0.91477 0.48975 0.90864 0.0
C26 C 0.84325 0.47823 0.87666 0.0
C27 C 0.95728 0.54871 0.87383 0.0
C28 C 0.92786 0.59422 0.8067 0.0
C29 C 0.85697 0.58473 0.77657 0.0
C30 C 0.81562 0.52595 0.81068 0.0
N31 N 0.82694 0.63757 0.71505 0.0
C32 C 0.7517 0.6458 0.70075 0.0
H33 H 0.89544 0.99087 0.43106 0.0
H34 H 0.07216 0.86281 0.55874 0.0
H35 H 0.86228 0.76712 0.5361 0.0
C36 C 0.91732 0.93902 0.46247 0.0
C37 C 0.87186 0.87804 0.47651 0.0
C38 C 0.99008 0.93442 0.49182 0.0
C39 C 1.01665 0.86824 0.53619 0.0
C40 C 0.97063 0.80811 0.55291 0.0
C41 C 0.89807 0.81387 0.52343 0.0
N42 N 0.99982 0.73689 0.58554 0.0
C43 C 0.98888 0.67525 0.53421 0.0
H44 H 0.11818 0.85445 0.81191 0.0
H45 H 0.9389 0.88042 0.99159 0.0
H46 H 0.96692 0.0504 0.79415 0.0
C47 C 0.07043 0.8861 0.83464 0.0
C48 C 1.04798 0.95659 0.78988 0.0
C49 C 1.03266 0.85603 0.90865 0.0
C50 C 0.96872 0.90033 0.93709 0.0
C51 C 0.94467 0.97136 0.89663 0.0
C52 C 0.98552 0.99702 0.82469 0.0
N53 N 0.88225 1.02209 0.92309 0.0
C54 C 0.82229 1.02657 0.98254 0.0
H55 H 0.76881 0.18391 0.35196 0.0
H56 H 0.71423 0.40241 0.46315 0.0
H57 H 0.57923 0.32016 0.26484 0.0
C58 C 0.73195 0.23407 0.35688 0.0
C59 C 0.67128 0.24349 0.3017 0.0
C60 C 0.74838 0.29231 0.4139 0.0
C61 C 0.70141 0.35806 0.4193 0.0
C62 C 0.63979 0.36795 0.36648 0.0
C63 C 0.62601 0.31129 0.30698 0.0
N64 N 0.59259 0.43543 0.36864 0.0
C65 C 0.58931 0.4895 0.43296 0.0
H66 H 0.28711 0.75244 0.15906 0.0
H67 H 0.18026 0.61592 0.34902 0.0
H68 H 0.36712 0.74364 0.41382 0.0
C69 C 0.2818 0.73219 0.22372 0.0
C70 C 0.33354 0.75153 0.28477 0.0
C71 C 0.22537 0.68373 0.24599 0.0
C72 C 0.22214 0.65498 0.33076 0.0
C73 C 0.27414 0.67441 0.392 0.0
C74 C 0.32799 0.72492 0.36803 0.0
N75 N 0.27415 0.64074 0.47545 0.0
C76 C 0.33623 0.64141 0.52829 0.0
H77 H 0.37141 0.14262 0.66989 0.0
H78 H 0.34104 0.21449 0.92634 0.0
H79 H 0.17443 0.09407 0.80482 0.0
C80 C 0.34062 0.1435 0.72831 0.0
C81 C 0.27396 0.10695 0.73326 0.0
C82 C 0.36521 0.1844 0.79748 0.0
C83 C 0.32496 0.18164 0.87285 0.0
C84 C 0.25273 0.15732 0.87222 0.0
C85 C 0.22985 0.11401 0.80512 0.0
N86 N 0.1989 0.20247 0.91509 0.0
C87 C 0.20144 0.28046 0.89806 0.0
Nd88 Nd 0.1973 0.98235 0.53298 0.0
Nd89 Nd 0.11015 0.1225 0.55206 0.0
C90 C 0.26287 0.84999 0.51084 0.0
C91 C 0.28418 0.80753 0.58936 0.0
C92 C 0.22917 0.77312 0.63783 0.0
C93 C 0.23116 0.77576 0.72617 0.0
C94 C 0.28728 0.81393 0.76582 0.0
C95 C 0.34671 0.83812 0.71787 0.0
C96 C 0.34745 0.83036 0.63097 0.0
C97 C 0.24751 0.06508 0.66214 0.0
C98 C 0.08696 0.98966 0.70741 0.0
C99 C 1.03784 0.25685 0.55162 0.0
C100 C 0.9589 0.27519 0.53765 0.0
C101 C 0.93756 0.34092 0.49013 0.0
C102 C 0.86758 0.34793 0.45331 0.0
C103 C 0.81838 0.28857 0.4621 0.0
C104 C 0.83808 0.22495 0.51382 0.0
C105 C 0.90746 0.21889 0.55235 0.0
C106 C 1.02834 1.00578 0.49687 0.0
C107 C 0.23377 0.12377 0.39056 0.0
O108 O 0.19197 0.85999 0.49793 0.0
O109 O 0.29745 0.91337 0.49813 0.0
O110 O 0.24316 0.99182 0.66518 0.0
O111 O 0.22745 0.09455 0.59184 0.0
O112 O 0.12617 0.94465 0.65488 0.0
O113 O 0.08006 0.06438 0.68593 0.0
O114 O 0.07009 0.22805 0.48534 0.0
O115 O 1.05795 0.22046 0.62165 0.0
O116 O 1.0051 0.05765 0.54742 0.0
O117 O 0.09188 1.0189 0.47043 0.0
O118 O 0.18017 0.16201 0.43162 0.0
O119 O 0.2513 0.05248 0.41834 0.0
H120 H 0.18051 0.75252 0.60774 0.0
H121 H 0.18647 0.75319 0.76221 0.0
H122 H 0.39063 0.86839 0.74631 0.0
H123 H 0.39205 0.85484 0.596 0.0
H124 H 0.97661 0.38447 0.47683 0.0
H125 H 0.85354 0.39772 0.41377 0.0
H126 H 0.80061 0.17912 0.52258 0.0
H127 H 0.92225 0.16812 0.58963 0.0
Nd128 Nd 0.61075 1.04206 0.14317 0.0
Nd129 Nd 0.60906 0.13131 1.05128 0.0
C130 C 0.5925 0.91961 0.23864 0.0
C131 C 0.52592 0.87759 0.25266 0.0
C132 C 0.53152 0.79792 0.26203 0.0
C133 C 0.46814 0.75651 0.26817 0.0
C134 C 0.39845 0.79426 0.26312 0.0
C135 C 0.3926 0.87374 0.25108 0.0
C136 C 0.45616 0.91526 0.24555 0.0
C137 C 0.46999 0.1383 0.19896 0.0
C138 C 0.55059 0.98541 0.972 0.0
C139 C 0.62099 0.26354 0.96693 0.0
C140 C 0.68144 0.31602 0.94831 0.0
C141 C 0.66825 0.39493 0.95884 0.0
C142 C 0.72282 0.44658 0.94087 0.0
C143 C 0.79274 0.42098 0.91256 0.0
C144 C 0.80739 0.34165 0.90526 0.0
C145 C 0.75223 0.28956 0.92306 0.0
C146 C 0.74473 1.04652 1.01416 0.0
C147 C 0.65651 0.18674 0.23449 0.0
O148 O 0.61626 0.91651 0.16145 0.0
O149 O 0.59362 0.98831 0.26935 0.0
O150 O 0.49778 0.10923 0.12977 0.0
O151 O 0.49871 0.10875 0.12944 0.0
O152 O 0.6014 0.96433 1.02696 0.0
O153 O 0.52771 0.05763 0.97636 0.0
O154 O 0.60125 0.25854 1.04529 0.0
O155 O 0.62067 0.19758 0.93015 0.0
O156 O 0.69222 0.06607 0.96224 0.0
O157 O 0.72351 0.06839 0.08749 0.0
O158 O 0.62307 0.20969 0.16533 0.0
O159 O 0.67184 0.1132 0.24136 0.0
H160 H 0.58485 0.76781 0.26474 0.0
H161 H 0.47335 0.6951 0.27871 0.0
H162 H 0.33918 0.90371 0.24851 0.0
H163 H 0.45086 0.97661 0.23553 0.0
H164 H 0.61503 0.41709 0.9799 0.0
H165 H 0.70954 0.5073 0.94643 0.0
H166 H 0.86025 0.32026 0.88228 0.0
H167 H 0.76454 0.22889 0.91574 0.0
Nd168 Nd 0.53365 0.58919 0.69034 0.0
Nd169 Nd 0.54793 0.70541 0.57672 0.0
C170 C 0.51139 0.46521 0.78331 0.0
C171 C 0.48314 0.38866 0.78073 0.0
C172 C 0.44889 0.36202 0.70853 0.0
C173 C 0.41588 0.29147 0.71131 0.0
C174 C 0.41796 0.24614 0.78603 0.0
C175 C 0.45791 0.27113 0.85563 0.0
C176 C 0.48806 0.34281 0.85365 0.0
C177 C 0.67321 0.64571 0.6959 0.0
C178 C 0.52275 0.7519 0.77722 0.0
C179 C 0.5753 0.82906 0.48517 0.0
C180 C 0.64489 0.85625 0.45263 0.0
C181 C 0.69312 0.80565 0.40963 0.0
C182 C 0.76778 0.81852 0.40745 0.0
C183 C 0.79487 0.88153 0.44885 0.0
C184 C 0.74577 0.9378 0.48082 0.0
C185 C 0.67065 0.92524 0.48238 0.0
C186 C 0.4127 0.64548 0.55284 0.0
C187 C 0.58086 0.54084 0.50382 0.0
O188 O 0.57213 0.47595 0.74236 0.0
O189 O 0.46326 0.5226 0.77528 0.0
O190 O 0.63395 0.63171 0.76146 0.0
O191 O 0.63948 0.63052 0.62969 0.0
O192 O 0.50284 0.68101 0.78532 0.0
O193 O 0.54702 0.77537 0.70313 0.0
O194 O 0.56995 0.82888 0.56716 0.0
O195 O 0.55252 0.7663 0.45324 0.0
O196 O 0.4584 0.66142 0.49472 0.0
O197 O 0.43865 0.6594 0.62551 0.0
O198 O 0.60914 0.60904 0.50256 0.0
O199 O 0.536 0.52353 0.56532 0.0
H200 H 0.44454 0.39732 0.65166 0.0
H201 H 0.38446 0.27547 0.65682 0.0
H202 H 0.46151 0.23775 0.91386 0.0
H203 H 0.51254 0.36396 0.91035 0.0
H204 H 0.6749 0.75211 0.38562 0.0
H205 H 0.80518 0.775 0.38167 0.0
H206 H 0.76595 0.9869 0.51289 0.0
H207 H 0.6341 0.96509 0.51531 0.0
Nd208 Nd 1.05166 0.62027 0.08866 0.0
Nd209 Nd 0.15708 0.6244 0.98244 0.0
C210 C 0.93671 0.62822 0.18737 0.0
C211 C 0.9467 0.63846 0.27852 0.0
C212 C 0.91642 0.58899 0.33881 0.0
C213 C 0.9347 0.59504 0.42463 0.0
C214 C 0.98413 0.64969 0.44934 0.0
C215 C 1.01627 0.69637 0.38888 0.0
C216 C 0.99764 0.69122 0.30471 0.0
C217 C 0.17216 0.65762 0.18197 0.0
C218 C 1.06065 0.77914 0.95565 0.0
C219 C 0.26882 0.58776 0.88854 0.0
C220 C 0.26929 0.50742 0.86158 0.0
C221 C 0.31408 0.45316 0.90648 0.0
C222 C 0.29062 0.37909 0.91976 0.0
C223 C 0.22315 0.35778 0.88674 0.0
C224 C 0.18263 0.40849 0.83366 0.0
C225 C 0.20619 0.48242 0.81982 0.0
C226 C 1.02965 0.56945 0.90886 0.0
C227 C 0.16453 0.46729 0.1065 0.0
O228 O 0.95483 0.68585 0.13952 0.0
O229 O 0.96308 0.56321 0.15926 0.0
O230 O 0.12482 0.60908 0.20353 0.0
O231 O 0.15746 0.68705 0.10898 0.0
O232 O 1.01694 0.7336 1.00056 0.0
O233 O 0.12966 0.7534 0.94937 0.0
O234 O 0.277 0.5956 0.96984 0.0
O235 O 0.21471 0.63186 0.85893 0.0
O236 O 0.06692 0.62465 0.8792 0.0
O237 O 1.05747 0.54626 0.97757 0.0
O238 O 0.20079 0.51071 1.05351 0.0
O239 O 0.09736 0.49347 0.12674 0.0
H240 H 0.87875 0.54633 0.31962 0.0
H241 H 0.90793 0.56003 0.47135 0.0
H242 H 1.05387 0.7396 0.40709 0.0
H243 H 1.02409 0.7286 0.26008 0.0
H244 H 0.36271 0.47035 0.9395 0.0
H245 H 0.32368 0.33994 0.95944 0.0
H246 H 0.1322 0.39155 0.8042 0.0
H247 H 0.17066 0.52201 0.78333 0.0
loop_
_geom_bond_atom_site_label_1
_geom_bond_atom_site_label_2
_geom_bond_distance
_geom_bond_site_symmetry_2
_ccdc_geom_bond_type
H0 C3 0.929 . S
H1 C6 0.929 . S
H2 C8 0.930 . S
C3 H0 0.929 . S
C3 C4 1.398 . S
C3 C5 1.396 . S
C4 C3 1.398 . S
C4 C8 1.407 . S
C5 C3 1.396 . S
C5 C6 1.394 . S
C6 H1 0.929 . S
C6 C5 1.394 . S
C6 C7 1.382 . S
C7 C6 1.382 . S
C7 C8 1.392 . S
C7 N9 1.420 . S
C8 H2 0.930 . S
C8 C4 1.407 . S
C8 C7 1.392 . S
N9 C7 1.420 . S
N9 C10 1.244 . S
C10 N9 1.244 . S
H11 C14 0.929 . S
H12 C17 0.929 . S
H13 C19 0.930 . S
C14 H11 0.929 . S
C14 C15 1.398 . S
C14 C16 1.396 . S
C15 C14 1.398 . S
C15 C19 1.407 . S
C16 C14 1.396 . S
C16 C17 1.394 . S
C17 H12 0.929 . S
C17 C16 1.394 . S
C17 C18 1.382 . S
C18 C17 1.382 . S
C18 C19 1.392 . S
C18 N20 1.420 . S
C19 H13 0.930 . S
C19 C15 1.407 . S
C19 C18 1.392 . S
N20 C18 1.420 . S
N20 C21 1.244 . S
C21 N20 1.244 . S
H22 C25 0.929 . S
H23 C28 0.929 . S
H24 C30 0.930 . S
C25 H22 0.929 . S
C25 C26 1.398 . S
C25 C27 1.396 . S
C26 C25 1.398 . S
C26 C30 1.407 . S
C27 C25 1.396 . S
C27 C28 1.394 . S
C28 H23 0.929 . S
C28 C27 1.394 . S
C28 C29 1.382 . S
C29 C28 1.382 . S
C29 C30 1.392 . S
C29 N31 1.420 . S
C30 H24 0.930 . S
C30 C26 1.407 . S
C30 C29 1.392 . S
N31 C29 1.420 . S
N31 C32 1.244 . S
C32 N31 1.244 . S
H33 C36 0.929 . S
H34 C39 0.929 1_445 S
H35 C41 0.930 . S
C36 H33 0.929 . S
C36 C37 1.398 1_545 S
C36 C38 1.396 . S
C37 C36 1.398 1_565 S
C37 C41 1.407 . S
C38 C36 1.396 . S
C38 C39 1.394 1_545 S
C39 H34 0.929 1_665 S
C39 C38 1.394 1_565 S
C39 C40 1.382 . S
C40 C39 1.382 . S
C40 C41 1.392 . S
C40 N42 1.420 . S
C41 H35 0.930 . S
C41 C37 1.407 . S
C41 C40 1.392 . S
N42 C40 1.420 . S
N42 C43 1.244 1_655 S
C43 N42 1.244 1_455 S
H44 C47 0.929 . S
H45 C50 0.929 . S
H46 C52 0.930 . S
C47 H44 0.929 . S
C47 C48 1.398 . S
C47 C49 1.396 . S
C48 C47 1.398 . S
C48 C52 1.407 . S
C49 C47 1.396 . S
C49 C50 1.394 . S
C50 H45 0.929 . S
C50 C49 1.394 . S
C50 C51 1.382 . S
C51 C50 1.382 . S
C51 C52 1.392 . S
C51 N53 1.420 . S
C52 H46 0.930 . S
C52 C48 1.407 . S
C52 C51 1.392 . S
N53 C51 1.420 . S
N53 C54 1.244 . S
C54 N53 1.244 . S
H55 C58 0.929 . S
H56 C61 0.929 . S
H57 C63 0.930 . S
C58 H55 0.929 . S
C58 C59 1.398 . S
C58 C60 1.396 . S
C59 C58 1.398 . S
C59 C63 1.407 . S
C60 C58 1.396 . S
C60 C61 1.394 . S
C61 H56 0.929 . S
C61 C60 1.394 . S
C61 C62 1.382 . S
C62 C61 1.382 . S
C62 C63 1.392 . S
C62 N64 1.420 . S
C63 H57 0.930 . S
C63 C59 1.407 . S
C63 C62 1.392 . S
N64 C62 1.420 . S
N64 C65 1.244 . S
C65 N64 1.244 . S
H66 C69 0.929 . S
H67 C72 0.929 . S
H68 C74 0.930 . S
C69 H66 0.929 . S
C69 C70 1.398 . S
C69 C71 1.396 . S
C70 C69 1.398 . S
C70 C74 1.407 . S
C71 C69 1.396 . S
C71 C72 1.394 . S
C72 H67 0.929 . S
C72 C71 1.394 . S
C72 C73 1.382 . S
C73 C72 1.382 . S
C73 C74 1.392 . S
C73 N75 1.420 . S
C74 H68 0.930 . S
C74 C70 1.407 . S
C74 C73 1.392 . S
N75 C73 1.420 . S
N75 C76 1.244 . S
C76 N75 1.244 . S
H77 C80 0.929 . S
H78 C83 0.929 . S
H79 C85 0.930 . S
C80 H77 0.929 . S
C80 C81 1.398 . S
C80 C82 1.396 . S
C81 C80 1.398 . S
C81 C85 1.407 . S
C82 C80 1.396 . S
C82 C83 1.394 . S
C83 H78 0.929 . S
C83 C82 1.394 . S
C83 C84 1.382 . S
C84 C83 1.382 . S
C84 C85 1.392 . S
C84 N86 1.420 . S
C85 H79 0.930 . S
C85 C81 1.407 . S
C85 C84 1.392 . S
N86 C84 1.420 . S
N86 C87 1.244 . S
C87 N86 1.244 . S
Nd88 C90 2.836 . S
Nd88 O108 2.500 . S
Nd88 O109 2.492 . S
Nd88 O110 2.487 1_565 S
Nd88 O111 2.682 1_565 S
Nd88 O112 2.410 . S
Nd88 O117 2.414 1_455 S
Nd88 O119 2.424 1_565 S
Nd89 C99 2.836 . S
Nd89 O111 2.414 1_655 S
Nd89 O113 2.424 1_545 S
Nd89 O114 2.500 . S
Nd89 O115 2.492 . S
Nd89 O116 2.487 1_545 S
Nd89 O117 2.682 1_545 S
Nd89 O118 2.410 . S
C90 Nd88 2.836 . S
C90 C91 1.498 . S
C90 O108 1.258 . S
C90 O109 1.239 . S
C91 C90 1.498 . S
C91 C92 1.366 . S
C91 C96 1.407 . S
C92 C91 1.366 . S
C92 C93 1.392 . S
C92 H120 0.930 . S
C93 C92 1.392 . S
C93 C94 1.398 . S
C93 H121 0.929 . S
C94 C93 1.398 . S
C94 C95 1.352 . S
C95 C94 1.352 . S
C95 C96 1.384 . S
C95 H122 0.930 . S
C96 C91 1.407 . S
C96 C95 1.384 . S
C96 H123 0.929 . S
C97 O110 1.241 . S
C97 O111 1.273 . S
C98 O112 1.251 1_655 S
C98 O113 1.268 . S
C99 Nd89 2.836 . S
C99 C100 1.498 . S
C99 O114 1.258 . S
C99 O115 1.239 . S
C100 C99 1.498 . S
C100 C101 1.366 . S
C100 C105 1.407 . S
C101 C100 1.366 . S
C101 C102 1.392 . S
C101 H124 0.930 . S
C102 C101 1.392 . S
C102 C103 1.398 . S
C102 H125 0.929 . S
C103 C102 1.398 . S
C103 C104 1.352 . S
C104 C103 1.352 . S
C104 C105 1.384 . S
C104 H126 0.930 . S
C105 C100 1.407 . S
C105 C104 1.384 . S
C105 H127 0.929 . S
C106 O116 1.241 . S
C106 O117 1.273 . S
C107 O118 1.251 1_455 S
C107 O119 1.268 . S
O108 Nd88 2.500 . S
O108 C90 1.258 . S
O109 Nd88 2.492 . S
O109 C90 1.239 . S
O110 Nd88 2.487 1_545 S
O110 C97 1.241 . S
O111 Nd88 2.682 1_545 S
O111 Nd89 2.414 1_455 S
O111 C97 1.273 . S
O112 Nd88 2.410 . S
O112 C98 1.251 1_455 S
O113 Nd89 2.424 1_565 S
O113 C98 1.268 . S
O114 Nd89 2.500 . S
O114 C99 1.258 . S
O115 Nd89 2.492 . S
O115 C99 1.239 . S
O116 Nd89 2.487 1_565 S
O116 C106 1.241 . S
O117 Nd88 2.414 1_655 S
O117 Nd89 2.682 1_565 S
O117 C106 1.273 . S
O118 Nd89 2.410 . S
O118 C107 1.251 1_655 S
O119 Nd88 2.424 1_545 S
O119 C107 1.268 . S
H120 C92 0.930 . S
H121 C93 0.929 . S
H122 C95 0.930 . S
H123 C96 0.929 . S
H124 C101 0.930 . S
H125 C102 0.929 . S
H126 C104 0.930 . S
H127 C105 0.929 . S
Nd128 C130 2.836 . S
Nd128 O148 2.500 . S
Nd128 O149 2.492 . S
Nd128 O150 2.487 1_565 S
Nd128 O151 2.682 1_565 S
Nd128 O152 2.410 . S
Nd128 O157 2.414 . S
Nd128 O159 2.424 1_565 S
Nd129 C139 2.836 . S
Nd129 O151 2.414 1_556 S
Nd129 O153 2.424 1_545 S
Nd129 O154 2.500 . S
Nd129 O155 2.492 . S
Nd129 O156 2.487 . S
Nd129 O157 2.682 1_546 S
Nd129 O158 2.410 1_556 S
C130 Nd128 2.836 . S
C130 C131 1.498 . S
C130 O148 1.258 . S
C130 O149 1.239 . S
C131 C130 1.498 . S
C131 C132 1.366 . S
C131 C136 1.407 . S
C132 C131 1.366 . S
C132 C133 1.392 . S
C132 H160 0.930 . S
C133 C132 1.392 . S
C133 C134 1.398 . S
C133 H161 0.929 . S
C134 C133 1.398 . S
C134 C135 1.352 . S
C135 C134 1.352 . S
C135 C136 1.384 . S
C135 H162 0.930 . S
C136 C131 1.407 . S
C136 C135 1.384 . S
C136 H163 0.929 . S
C137 O150 1.241 . S
C137 O151 1.273 . S
C138 O152 1.251 1_556 S
C138 O153 1.268 . S
C139 Nd129 2.836 . S
C139 C140 1.498 . S
C139 O154 1.258 . S
C139 O155 1.239 . S
C140 C139 1.498 . S
C140 C141 1.366 . S
C140 C145 1.407 . S
C141 C140 1.366 . S
C141 C142 1.392 . S
C141 H164 0.930 . S
C142 C141 1.392 . S
C142 C143 1.398 . S
C142 H165 0.929 . S
C143 C142 1.398 . S
C143 C144 1.352 . S
C144 C143 1.352 . S
C144 C145 1.384 . S
C144 H166 0.930 . S
C145 C140 1.407 . S
C145 C144 1.384 . S
C145 H167 0.929 . S
C146 O156 1.241 1_564 S
C146 O157 1.273 . S
C147 O158 1.251 . S
C147 O159 1.268 . S
O148 Nd128 2.500 . S
O148 C130 1.258 . S
O149 Nd128 2.492 . S
O149 C130 1.239 . S
O150 Nd128 2.487 1_545 S
O150 C137 1.241 . S
O151 Nd128 2.682 1_545 S
O151 Nd129 2.414 1_554 S
O151 C137 1.273 . S
O152 Nd128 2.410 . S
O152 C138 1.251 1_554 S
O153 Nd129 2.424 1_565 S
O153 C138 1.268 . S
O154 Nd129 2.500 . S
O154 C139 1.258 . S
O155 Nd129 2.492 . S
O155 C139 1.239 . S
O156 Nd129 2.487 . S
O156 C146 1.241 1_546 S
O157 Nd128 2.414 . S
O157 Nd129 2.682 1_564 S
O157 C146 1.273 . S
O158 Nd129 2.410 1_554 S
O158 C147 1.251 . S
O159 Nd128 2.424 1_545 S
O159 C147 1.268 . S
H160 C132 0.930 . S
H161 C133 0.929 . S
H162 C135 0.930 . S
H163 C136 0.929 . S
H164 C141 0.930 . S
H165 C142 0.929 . S
H166 C144 0.930 . S
H167 C145 0.929 . S
Nd168 C170 2.836 . S
Nd168 O188 2.500 . S
Nd168 O189 2.492 . S
Nd168 O190 2.487 . S
Nd168 O191 2.682 . S
Nd168 O192 2.410 . S
Nd168 O197 2.414 . S
Nd168 O199 2.424 . S
Nd169 C179 2.836 . S
Nd169 O191 2.414 . S
Nd169 O193 2.424 . S
Nd169 O194 2.500 . S
Nd169 O195 2.492 . S
Nd169 O196 2.487 . S
Nd169 O197 2.682 . S
Nd169 O198 2.410 . S
C170 Nd168 2.836 . S
C170 C171 1.498 . S
C170 O188 1.258 . S
C170 O189 1.239 . S
C171 C170 1.498 . S
C171 C172 1.366 . S
C171 C176 1.407 . S
C172 C171 1.366 . S
C172 C173 1.392 . S
C172 H200 0.930 . S
C173 C172 1.392 . S
C173 C174 1.398 . S
C173 H201 0.929 . S
C174 C173 1.398 . S
C174 C175 1.352 . S
C175 C174 1.352 . S
C175 C176 1.384 . S
C175 H202 0.930 . S
C176 C171 1.407 . S
C176 C175 1.384 . S
C176 H203 0.929 . S
C177 O190 1.241 . S
C177 O191 1.273 . S
C178 O192 1.251 . S
C178 O193 1.268 . S
C179 Nd169 2.836 . S
C179 C180 1.498 . S
C179 O194 1.258 . S
C179 O195 1.239 . S
C180 C179 1.498 . S
C180 C181 1.366 . S
C180 C185 1.407 . S
C181 C180 1.366 . S
C181 C182 1.392 . S
C181 H204 0.930 . S
C182 C181 1.392 . S
C182 C183 1.398 . S
C182 H205 0.929 . S
C183 C182 1.398 . S
C183 C184 1.352 . S
C184 C183 1.352 . S
C184 C185 1.384 . S
C184 H206 0.930 . S
C185 C180 1.407 . S
C185 C184 1.384 . S
C185 H207 0.929 . S
C186 O196 1.241 . S
C186 O197 1.273 . S
C187 O198 1.251 . S
C187 O199 1.268 . S
O188 Nd168 2.500 . S
O188 C170 1.258 . S
O189 Nd168 2.492 . S
O189 C170 1.239 . S
O190 Nd168 2.487 . S
O190 C177 1.241 . S
O191 Nd168 2.682 . S
O191 Nd169 2.414 . S
O191 C177 1.273 . S
O192 Nd168 2.410 . S
O192 C178 1.251 . S
O193 Nd169 2.424 . S
O193 C178 1.268 . S
O194 Nd169 2.500 . S
O194 C179 1.258 . S
O195 Nd169 2.492 . S
O195 C179 1.239 . S
O196 Nd169 2.487 . S
O196 C186 1.241 . S
O197 Nd168 2.414 . S
O197 Nd169 2.682 . S
O197 C186 1.273 . S
O198 Nd169 2.410 . S
O198 C187 1.251 . S
O199 Nd168 2.424 . S
O199 C187 1.268 . S
H200 C172 0.930 . S
H201 C173 0.929 . S
H202 C175 0.930 . S
H203 C176 0.929 . S
H204 C181 0.930 . S
H205 C182 0.929 . S
H206 C184 0.930 . S
H207 C185 0.929 . S
Nd208 C210 2.836 1_455 S
Nd208 O228 2.500 1_455 S
Nd208 O229 2.492 . S
Nd208 O230 2.487 . S
Nd208 O231 2.682 . S
Nd208 O232 2.410 . S
Nd208 O237 2.414 1_454 S
Nd208 O239 2.424 . S
Nd209 C219 2.836 . S
Nd209 O231 2.414 1_556 S
Nd209 O233 2.424 . S
Nd209 O234 2.500 . S
Nd209 O235 2.492 . S
Nd209 O236 2.487 1_455 S
Nd209 O237 2.682 1_455 S
Nd209 O238 2.410 . S
C210 Nd208 2.836 1_655 S
C210 C211 1.498 . S
C210 O228 1.258 . S
C210 O229 1.239 1_655 S
C211 C210 1.498 . S
C211 C212 1.366 . S
C211 C216 1.407 1_655 S
C212 C211 1.366 . S
C212 C213 1.392 . S
C212 H240 0.930 . S
C213 C212 1.392 . S
C213 C214 1.398 . S
C213 H241 0.929 . S
C214 C213 1.398 . S
C214 C215 1.352 1_655 S
C215 C214 1.352 1_455 S
C215 C216 1.384 . S
C215 H242 0.930 . S
C216 C211 1.407 1_455 S
C216 C215 1.384 . S
C216 H243 0.929 . S
C217 O230 1.241 . S
C217 O231 1.273 . S
C218 O232 1.251 . S
C218 O233 1.268 1_554 S
C219 Nd209 2.836 . S
C219 C220 1.498 . S
C219 O234 1.258 . S
C219 O235 1.239 . S
C220 C219 1.498 . S
C220 C221 1.366 . S
C220 C225 1.407 . S
C221 C220 1.366 . S
C221 C222 1.392 . S
C221 H244 0.930 . S
C222 C221 1.392 . S
C222 C223 1.398 . S
C222 H245 0.929 . S
C223 C222 1.398 . S
C223 C224 1.352 . S
C224 C223 1.352 . S
C224 C225 1.384 . S
C224 H246 0.930 . S
C225 C220 1.407 . S
C225 C224 1.384 . S
C225 H247 0.929 . S
C226 O236 1.241 . S
C226 O237 1.273 . S
C227 O238 1.251 1_554 S
C227 O239 1.268 . S
O228 Nd208 2.500 1_655 S
O228 C210 1.258 . S
O229 Nd208 2.492 . S
O229 C210 1.239 1_455 S
O230 Nd208 2.487 . S
O230 C217 1.241 . S
O231 Nd208 2.682 . S
O231 Nd209 2.414 1_554 S
O231 C217 1.273 . S
O232 Nd208 2.410 . S
O232 C218 1.251 . S
O233 Nd209 2.424 . S
O233 C218 1.268 1_556 S
O234 Nd209 2.500 . S
O234 C219 1.258 . S
O235 Nd209 2.492 . S
O235 C219 1.239 . S
O236 Nd209 2.487 1_655 S
O236 C226 1.241 . S
O237 Nd208 2.414 1_656 S
O237 Nd209 2.682 1_655 S
O237 C226 1.273 . S
O238 Nd209 2.410 . S
O238 C227 1.251 1_556 S
O239 Nd208 2.424 . S
O239 C227 1.268 . S
H240 C212 0.930 . S
H241 C213 0.929 . S
H242 C215 0.930 . S
H243 C216 0.929 . S
H244 C221 0.930 . S
H245 C222 0.929 . S
H246 C224 0.930 . S
H247 C225 0.929 . S
C4 C107 4.749 . S
C16 C138 3.482 . S
C177 C32 1.890 . S
C43 C214 1.309 1_455 S
C137 C5 4.707 . S
C94 C21 1.489 . S
C226 C27 1.759 . S
C183 C37 2.212 . S
C10 C227 3.498 . S
C143 C26 2.017 . S
C38 C106 3.277 1_545 S
C15 C178 3.291 . S
C98 C48 4.551 . S
C59 C147 2.944 . S
C76 C186 2.315 . S
C87 C223 1.666 . S
C54 C146 3.744 1_556 S
C103 C60 1.449 . S
C217 C71 2.201 . S
C174 C82 2.717 . S
C49 C218 4.073 1_656 S
C134 C70 2.114 . S
C97 C81 1.390 . S
C65 C187 2.837 . S
