# Generated by pormake.
# Topology anh, (6,3)-cn, num edge types: 1
# Building blocks:
#     Node 0, Type 0, BuildingBlock: HISSIN_clean_sbu_0, # of connection points: 6
#     Node 1, Type 0, BuildingBlock: HISSIN_clean_sbu_0, # of connection points: 6
#     Node 2, Type 0, BuildingBlock: HISSIN_clean_sbu_0, # of connection points: 6
#     Node 3, Type 1, BuildingBlock: MIDCAF_clean_linker_0, # of connection points: 3
#     Node 4, Type 1, BuildingBlock: MIDCAF_clean_linker_0, # of connection points: 3
#     Node 5, Type 1, BuildingBlock: MIDCAF_clean_linker_0, # of connection points: 3
#     Node 6, Type 1, BuildingBlock: MIDCAF_clean_linker_0, # of connection points: 3
#     Node 7, Type 1, BuildingBlock: MIDCAF_clean_linker_0, # of connection points: 3
#     Node 8, Type 1, BuildingBlock: MIDCAF_clean_linker_0, # of connection points: 3
#     Edge 9, Type (0, 1), None
#     Edge 10, Type (0, 1), None
#     Edge 11, Type (0, 1), None
#     Edge 12, Type (0, 1), None
#     Edge 13, Type (0, 1), None
#     Edge 14, Type (0, 1), None
#     Edge 15, Type (0, 1), None
#     Edge 16, Type (0, 1), None
#     Edge 17, Type (0, 1), None
#     Edge 18, Type (0, 1), None
#     Edge 19, Type (0, 1), None
#     Edge 20, Type (0, 1), None
#     Edge 21, Type (0, 1), None
#     Edge 22, Type (0, 1), None
#     Edge 23, Type (0, 1), None
#     Edge 24, Type (0, 1), None
#     Edge 25, Type (0, 1), None
#     Edge 26, Type (0, 1), None
# Relax obj value: 0.449
# Max RMSD: 0.221
# Mean RMSD: 0.180
data_MOF--net-anh--node1-HISSIN_clean_sbu_0--node2-MIDCAF_clean_linker_0--edge1-none
_symmetry_space_group_name_H-M    P1
_symmetry_Int_Tables_number       1
_symmetry_cell_setting            triclinic
loop_
_symmetry_equiv_pos_as_xyz
'x, y, z'
_cell_length_a     18.77085
_cell_length_b     18.679948
_cell_length_c     37.594823
_cell_angle_alpha  93.089946
_cell_angle_beta   88.519801
_cell_angle_gamma 119.45014
loop_
_atom_site_label
_atom_site_type_symbol
_atom_site_fract_x
_atom_site_fract_y
_atom_site_fract_z
_atom_type_partial_charge
Eu0 Eu 1.17619 0.51202 0.15079 0.0
Eu1 Eu 0.24729 0.70902 0.15604 0.0
C2 C 1.18918 0.60793 0.22742 0.0
C3 C 1.01306 0.29366 0.14503 0.0
C4 C 0.97874 0.2481 0.17531 0.0
C5 C 0.87712 0.25953 0.12535 0.0
C6 C 0.89497 0.21305 0.18166 0.0
C7 C 0.96085 0.29462 0.11901 0.0
C8 C 0.84424 0.22271 0.15768 0.0
C9 C 1.10167 0.35209 0.1441 0.0
O10 O 0.36017 0.69494 0.14419 0.0
O11 O 0.31271 0.5621 0.16071 0.0
C12 C 0.37302 0.633 0.15017 0.0
O13 O 0.24739 0.55605 0.10071 0.0
O14 O 1.24179 0.80886 0.13139 0.0
O15 O 0.32235 0.83583 0.17657 0.0
O16 O 1.23282 0.66944 0.09793 0.0
C17 C 0.25337 0.61717 0.08322 0.0
O18 O 1.07718 0.53662 0.12988 0.0
O19 O 1.11032 0.65254 0.16401 0.0
O20 O 1.24252 0.6774 0.21353 0.0
O21 O 1.12684 0.39963 0.11718 0.0
O22 O 1.1343 0.39292 0.17406 0.0
O23 O 1.14728 0.54066 0.20715 0.0
C24 C 0.26178 0.92085 0.16971 0.0
C25 C 0.25766 0.93411 0.20652 0.0
C26 C 1.23018 1.02986 0.15988 0.0
C27 C 0.24524 0.99821 0.21986 0.0
C28 C 0.24341 0.96603 0.14654 0.0
C29 C 1.23742 1.05106 0.19662 0.0
C30 C 0.28988 0.86438 0.15489 0.0
C31 C 1.05732 0.59067 0.14377 0.0
H32 H 1.01749 0.24576 0.19557 0.0
H33 H 0.83913 0.26633 0.10611 0.0
H34 H 0.87162 0.18518 0.20693 0.0
H35 H 0.98507 0.32804 0.09498 0.0
H36 H 0.26925 0.89857 0.22507 0.0
H37 H 1.22192 1.06729 0.14118 0.0
H38 H 0.25066 1.01093 0.24838 0.0
H39 H 0.2441 0.95523 0.11796 0.0
Eu40 Eu 0.66518 1.04087 0.48289 0.0
Eu41 Eu 0.58392 1.14562 0.51652 0.0
C42 C 0.6672 1.0815 0.5663 0.0
C43 C 0.82925 0.98566 0.47229 0.0
C44 C 0.85065 0.99739 0.50846 0.0
C45 C 0.96707 1.01434 0.45683 0.0
C46 C 0.92822 1.01432 0.51876 0.0
C47 C 0.88859 0.9963 0.44651 0.0
C48 C 0.98719 1.02123 0.49318 0.0
C49 C 0.74697 0.96778 0.46162 0.0
O50 O 0.72086 0.23923 0.51036 0.0
O51 O 0.75039 0.16962 0.46617 0.0
C52 C 0.7686 0.2385 0.48412 0.0
O53 O 0.58951 1.04545 0.43833 0.0
O54 O 0.57325 0.21571 0.56257 0.0
O55 O 0.51068 0.20717 0.51364 0.0
O56 O 0.59511 0.16587 0.45839 0.0
C57 C 0.58009 1.10934 0.43318 0.0
O58 O 0.5339 0.94276 0.49296 0.0
O59 O 0.47172 1.02236 0.50145 0.0
O60 O 0.59646 1.07613 0.56042 0.0
O61 O 0.69025 0.93929 0.48611 0.0
O62 O 0.74466 1.02446 0.44376 0.0
O63 O 0.71438 1.08675 0.53909 0.0
C64 C 0.59889 0.33902 0.5398 0.0
C65 C 0.6403 0.36617 0.50724 0.0
C66 C 0.71069 0.45634 0.57045 0.0
C67 C 0.71874 0.43429 0.50675 0.0
C68 C 0.63216 0.38828 0.57095 0.0
C69 C 0.7565 0.47638 0.53874 0.0
C70 C 0.5431 0.25035 0.54316 0.0
C71 C 0.4674 0.94994 0.49543 0.0
H72 H 0.80688 0.99174 0.52901 0.0
H73 H 1.01104 1.02043 0.43634 0.0
H74 H 0.93984 1.01735 0.547 0.0
H75 H 0.87395 0.98978 0.41842 0.0
H76 H 0.61658 0.32953 0.48267 0.0
H77 H 0.73785 0.4897 0.59535 0.0
H78 H 0.75241 0.44904 0.48191 0.0
H79 H 0.60181 0.36861 0.59633 0.0
Eu80 Eu 0.78125 0.69508 0.79988 0.0
Eu81 Eu 0.96103 0.74921 0.8287 0.0
C82 C 0.81627 0.70371 0.88478 0.0
C83 C 0.62982 0.73792 0.76082 0.0
C84 C 0.54917 0.72218 0.76416 0.0
C85 C 0.6779 0.88341 0.77273 0.0
C86 C 0.53403 0.78538 0.7765 0.0
C87 C 0.6934 0.82006 0.76116 0.0
C88 C 0.60009 0.86391 0.786 0.0
C89 C 0.64909 0.67312 0.7688 0.0
O90 O 0.89441 0.6093 0.82976 0.0
O91 O 0.78918 0.5779 0.79131 0.0
C92 C 0.83503 0.55592 0.80865 0.0
O93 O 0.87873 0.76483 0.75858 0.0
O94 O 1.05003 0.75048 0.86521 0.0
O95 O 1.09132 0.81421 0.81598 0.0
O96 O 0.94932 0.70284 0.77232 0.0
C97 C 0.93331 0.74291 0.74966 0.0
O98 O 0.82719 0.82415 0.82303 0.0
O99 O 0.96266 0.86809 0.81402 0.0
O100 O 0.89337 0.75542 0.8778 0.0
O101 O 0.71045 0.67415 0.75138 0.0
O102 O 0.65302 0.66424 0.80279 0.0
O103 O 0.76312 0.6632 0.85874 0.0
C104 C 1.14717 0.73221 0.83129 0.0
C105 C 1.23202 0.76536 0.83209 0.0
C106 C 1.13107 0.59771 0.81353 0.0
C107 C 0.26609 0.71446 0.82451 0.0
C108 C 1.09737 0.6491 0.82031 0.0
C109 C 1.21562 0.62946 0.81656 0.0
C110 C 1.10946 0.78281 0.84209 0.0
C111 C 0.90164 0.88406 0.81797 0.0
H112 H 0.49902 0.65956 0.76211 0.0
H113 H 0.7292 0.94432 0.77772 0.0
H114 H 0.47216 0.76842 0.78453 0.0
H115 H 0.75635 0.83423 0.75742 0.0
H116 H 0.27157 0.82959 0.83988 0.0
H117 H 1.09087 0.53256 0.80778 0.0
H118 H 0.33151 0.74038 0.82758 0.0
H119 H 1.03198 0.62308 0.8184 0.0
C120 C 0.32406 0.2007 0.18975 0.0
C121 C 0.26274 1.13736 0.20951 0.0
C122 C 0.2602 1.15408 0.24635 0.0
C123 C 0.33276 0.21099 0.26369 0.0
H124 H 0.66378 0.31922 0.18358 0.0
H125 H 0.77756 0.32205 0.14955 0.0
H126 H 0.72825 1.09306 0.1937 0.0
H127 H 0.6164 1.0919 0.22841 0.0
H128 H 0.49283 0.24146 0.35959 0.0
H129 H 0.51357 0.20468 0.41822 0.0
H130 H 0.59661 1.04428 0.36892 0.0
H131 H 0.57642 1.08136 0.31039 0.0
H132 H 0.44906 0.29529 0.19079 0.0
H133 H 0.32534 0.19556 0.16096 0.0
H134 H 1.20981 1.11123 0.26231 0.0
H135 H 0.33546 0.20964 0.29238 0.0
N136 N 0.52899 0.24404 0.22913 0.0
N137 N 0.58115 0.19047 0.26946 0.0
N138 N 0.4801 0.22301 0.28799 0.0
C139 C 0.58039 0.21521 0.23648 0.0
C140 C 0.53223 0.1949 0.29539 0.0
C141 C 0.47777 0.24751 0.25474 0.0
C142 C 0.63328 0.20666 0.20916 0.0
C143 C 0.67583 0.26837 0.18504 0.0
C144 C 0.74062 0.26951 0.16544 0.0
C145 C 0.76271 0.20837 0.16954 0.0
C146 C 0.71371 1.14179 0.19063 0.0
C147 C 0.64987 1.14125 0.21047 0.0
C148 C 0.53428 0.16539 0.33059 0.0
C149 C 0.51432 0.19751 0.36132 0.0
C150 C 0.52659 0.17667 0.39479 0.0
C151 C 0.55777 1.12246 0.39795 0.0
C152 C 0.57282 1.08636 0.3672 0.0
C153 C 0.56171 1.10811 0.33376 0.0
C154 C 0.40476 0.25157 0.24345 0.0
C155 C 0.39604 0.25862 0.207 0.0
C156 C 0.89344 0.52984 0.56655 0.0
C157 C 0.8453 0.53509 0.53994 0.0
C158 C 0.88243 0.59708 0.51537 0.0
C159 C 0.96369 0.65902 0.52027 0.0
H160 H 1.13583 0.88836 0.48978 0.0
H161 H 1.06532 0.94515 0.45925 0.0
H162 H 1.08078 1.09463 0.55377 0.0
H163 H 1.1459 1.03211 0.58537 0.0
H164 H 1.02268 0.89617 0.64823 0.0
H165 H 0.94106 0.85459 0.70284 0.0
H166 H 1.04708 0.70233 0.7255 0.0
H167 H 1.12695 0.74294 0.67095 0.0
H168 H 1.00787 0.58868 0.59385 0.0
H169 H 0.86723 0.48023 0.58479 0.0
H170 H 0.84712 0.60111 0.494 0.0
H171 H 0.98799 0.71047 0.50302 0.0
N172 N 1.10247 0.8074 0.54625 0.0
N173 N 1.13222 0.89099 0.5987 0.0
N174 N 1.07666 0.74852 0.60138 0.0
C175 C 1.13371 0.88374 0.56241 0.0
C176 C 1.10591 0.82335 0.61827 0.0
C177 C 1.07279 0.73932 0.56547 0.0
C178 C 1.14024 0.95069 0.54078 0.0
C179 C 1.12694 0.93553 0.50382 0.0
C180 C 1.08654 0.96883 0.48608 0.0
C181 C 1.06171 1.01991 0.50492 0.0
C182 C 1.09427 1.05106 0.53922 0.0
C183 C 1.13272 1.01593 0.55729 0.0
C184 C 1.08205 0.82369 0.65579 0.0
C185 C 1.0308 0.8565 0.66573 0.0
C186 C 0.98272 0.83123 0.69653 0.0
C187 C 0.98607 0.7736 0.71796 0.0
C188 C 1.04202 0.74584 0.70927 0.0
C189 C 1.08907 0.77023 0.67841 0.0
C190 C 1.00835 0.65981 0.55 0.0
C191 C 0.97456 0.59102 0.57124 0.0
C192 C 1.22337 0.52431 0.85029 0.0
C193 C 0.2499 0.5741 0.82072 0.0
C194 C 0.32728 0.59559 0.80638 0.0
C195 C 0.38433 0.58917 0.82721 0.0
H196 H 0.4253 0.85085 0.871 0.0
H197 H 0.47624 0.8934 0.81133 0.0
H198 H 0.70857 0.91971 0.84139 0.0
H199 H 0.65659 0.87525 0.89984 0.0
H200 H 0.39568 0.79066 -0.00724 0.0
H201 H 0.31961 0.76045 0.04854 0.0
H202 H 0.28478 0.51342 0.04086 0.0
H203 H 0.3605 0.54353 0.98512 0.0
H204 H 0.26252 0.49516 0.8974 0.0
H205 H 1.1626 0.50329 0.86113 0.0
H206 H 0.34791 0.63037 0.78255 0.0
H207 H 0.44772 0.62011 0.81904 0.0
N208 N 0.46684 0.70737 0.88026 0.0
N209 N 0.46875 0.76164 0.93809 0.0
N210 N 0.39434 0.61861 0.9251 0.0
C211 C 0.4931 0.77306 0.90365 0.0
C212 C 0.42071 0.6837 0.94906 0.0
C213 C 0.41684 0.62973 0.89046 0.0
C214 C 0.53567 0.85464 0.88882 0.0
C215 C 0.48941 0.8721 0.86552 0.0
C216 C 0.5186 0.89627 0.83114 0.0
C217 C 0.59416 0.90333 0.82068 0.0
C218 C 0.64867 0.91144 0.8478 0.0
C219 C 0.61897 0.88604 0.88188 0.0
C220 C 0.38426 0.66953 0.98478 0.0
C221 C 0.37256 0.73028 0.00323 0.0
C222 C 0.32778 0.7125 0.03481 0.0
C223 C 0.29499 0.63408 0.0486 0.0
C224 C 0.30846 0.57407 0.03058 0.0
C225 C 0.35235 0.59151 -0.00115 0.0
C226 C 0.36453 0.56754 0.86278 0.0
C227 C 0.28119 0.51939 0.87117 0.0
C228 C 0.31878 0.88088 0.47596 0.0
C229 C 0.38622 0.8745 0.48756 0.0
C230 C 0.37798 0.79524 0.48765 0.0
C231 C 0.30645 0.7253 0.47486 0.0
H232 H 0.98947 0.50904 0.50097 0.0
H233 H 0.86767 0.38581 0.52254 0.0
H234 H 0.83676 0.2666 0.41826 0.0
H235 H 0.95509 0.38727 0.39687 0.0
H236 H 1.04957 0.47818 0.33011 0.0
H237 H 1.07365 0.48063 0.26594 0.0
H238 H 0.27112 0.73101 0.2786 0.0
H239 H 0.24752 0.72854 0.34263 0.0
H240 H 1.19949 0.81875 0.45148 0.0
H241 H 0.32262 0.94055 0.47516 0.0
H242 H 0.42826 0.78748 0.4963 0.0
H243 H 0.30413 0.66611 0.47351 0.0
N244 N 1.11133 0.59749 0.45384 0.0
N245 N 1.06804 0.53658 0.39628 0.0
N246 N 1.18668 0.66467 0.40324 0.0
C247 C 1.05588 0.53354 0.43228 0.0
C248 C 1.13294 0.60161 0.38145 0.0
C249 C 1.17684 0.66346 0.43922 0.0
C250 C 0.98284 0.45925 0.44699 0.0
C251 C 0.95632 0.4566 0.48267 0.0
C252 C 0.88624 0.38611 0.49504 0.0
C253 C 0.84185 0.31596 0.47224 0.0
C254 C 0.86906 0.31883 0.43683 0.0
C255 C 0.93752 0.38892 0.42444 0.0
C256 C 1.14644 0.60314 0.34192 0.0
C257 C 1.0981 0.5339 0.31929 0.0
C258 C 1.11212 0.53522 0.28234 0.0
C259 C 1.17455 0.60598 0.26682 0.0
C260 C 1.22253 0.6753 0.2894 0.0
C261 C 1.20889 0.67382 0.32633 0.0
C262 C 1.24132 0.73256 0.46136 0.0
C263 C 0.24781 0.81096 0.46255 0.0
C264 C 0.7667 0.4167 0.77626 0.0
C265 C 0.82504 0.47154 0.80121 0.0
C266 C 0.87744 0.44703 0.81635 0.0
C267 C 0.87424 0.37192 0.80534 0.0
H268 H 0.83794 1.09584 0.83121 0.0
H269 H 0.85679 0.98634 0.85535 0.0
H270 H 0.96004 0.95821 0.7555 0.0
H271 H 0.9388 1.06486 0.73093 0.0
H272 H 0.84637 1.09368 0.65394 0.0
H273 H 0.79296 1.06281 0.59259 0.0
H274 H 0.61098 1.13121 0.62448 0.0
H275 H 0.66532 0.16394 0.68471 0.0
H276 H 0.71902 0.30357 0.74521 0.0
H277 H 0.72477 0.43234 0.76409 0.0
H278 H 0.92282 0.48698 0.8359 0.0
H279 H 0.91765 0.35683 0.81639 0.0
N280 N 0.85366 0.20472 0.77876 0.0
N281 N 0.82873 1.11787 0.72705 0.0
N282 N 0.79199 0.22084 0.72845 0.0
C283 C 0.85725 1.14008 0.76119 0.0
C284 C 0.7954 1.15755 0.71067 0.0
C285 C 0.82145 0.24603 0.76211 0.0
C286 C 0.88634 1.08911 0.779 0.0
C287 C 0.86722 1.06835 0.81479 0.0
C288 C 0.87783 1.00542 0.82862 0.0
C289 C 0.9104 0.96392 0.80742 0.0
C290 C 0.93596 0.98967 0.77271 0.0
C291 C 0.92316 1.05056 0.75856 0.0
C292 C 0.76042 1.13179 0.67413 0.0
C293 C 0.79455 1.10135 0.64775 0.0
C294 C 0.76413 1.08391 0.61264 0.0
C295 C 0.6976 1.0944 0.60358 0.0
C296 C 0.66196 1.12195 0.63041 0.0
C297 C 0.69346 1.14121 0.66501 0.0
C298 C 0.81863 0.31952 0.77885 0.0
C299 C 0.76362 0.34234 0.7653 0.0
C300 C 0.95038 0.63699 0.15128 0.0
C301 C 0.97873 0.58734 0.13331 0.0
C302 C 0.93426 0.53885 0.10335 0.0
C303 C 0.86707 0.5436 0.0905 0.0
H304 H 0.59583 0.72578 0.07255 0.0
H305 H 0.4769 0.72836 0.09871 0.0
H306 H 0.44766 0.54551 0.17176 0.0
H307 H 0.56967 0.54515 0.14616 0.0
H308 H 0.63073 0.61902 0.98089 0.0
H309 H 0.66318 0.64378 0.9171 0.0
H310 H 0.91716 0.72743 0.93979 0.0
H311 H 0.88511 0.70158 0.00209 0.0
H312 H 0.86372 0.68153 0.15242 0.0
H313 H 0.98271 0.67519 0.17448 0.0
H314 H 0.95365 0.49987 0.0887 0.0
H315 H 0.83721 0.50839 0.0663 0.0
N316 N 0.71615 0.61458 0.1069 0.0
N317 N 0.67534 0.64364 0.05297 0.0
N318 N 0.78907 0.62355 0.05397 0.0
C319 C 0.66332 0.63066 0.08868 0.0
C320 C 0.73822 0.64026 0.03544 0.0
C321 C 0.77932 0.61071 0.0894 0.0
C322 C 0.59311 0.63528 0.10709 0.0
C323 C 0.56512 0.6869 0.09457 0.0
C324 C 0.49685 0.68889 0.10988 0.0
C325 C 0.45236 0.63778 0.13779 0.0
C326 C 0.48047 0.58637 0.1506 0.0
C327 C 0.5506 0.58614 0.13588 0.0
C328 C 0.7552 0.65792 -0.00321 0.0
C329 C 0.69343 0.64295 0.9721 0.0
C330 C 0.71192 0.65674 0.93553 0.0
C331 C 0.79288 0.6878 0.92313 0.0
C332 C 0.85418 0.70399 0.94811 0.0
C333 C 0.83563 0.68868 0.98409 0.0
C334 C 0.84038 0.59523 0.10764 0.0
C335 C 0.88161 0.64023 0.13883 0.0
loop_
_geom_bond_atom_site_label_1
_geom_bond_atom_site_label_2
_geom_bond_distance
_geom_bond_site_symmetry_2
_ccdc_geom_bond_type
Eu0 C9 2.828 . S
Eu0 O11 2.392 1_655 S
Eu0 O13 2.418 . S
Eu0 O18 2.373 . S
Eu0 O21 2.488 . S
Eu0 O22 2.471 . S
Eu0 O23 2.349 . S
Eu1 O10 2.373 . S
Eu1 O14 2.488 . S
Eu1 O15 2.471 . S
Eu1 O16 2.349 . S
Eu1 O19 2.392 1_455 S
Eu1 O20 2.418 . S
Eu1 C30 2.828 . S
C2 O20 1.244 . S
C2 O23 1.265 1_455 S
C3 C4 1.379 . S
C3 C7 1.373 . S
C3 C9 1.505 . S
C4 C3 1.379 . S
C4 C6 1.369 . S
C4 H32 0.930 . S
C5 C7 1.383 . S
C5 C8 1.382 . S
C5 H33 0.930 . S
C6 C4 1.369 . S
C6 C8 1.392 . S
C6 H34 0.930 . S
C7 C3 1.373 . S
C7 C5 1.383 . S
C7 H35 0.931 . S
C8 C5 1.382 . S
C8 C6 1.392 . S
C9 Eu0 2.828 . S
C9 C3 1.505 . S
C9 O21 1.249 . S
C9 O22 1.244 . S
O10 Eu1 2.373 . S
O10 C12 1.258 . S
O11 Eu0 2.392 1_455 S
O11 C12 1.242 . S
C12 O10 1.258 . S
C12 O11 1.242 . S
O13 Eu0 2.418 . S
O13 C17 1.244 . S
O14 Eu1 2.488 . S
O14 C30 1.249 . S
O15 Eu1 2.471 . S
O15 C30 1.244 . S
O16 Eu1 2.349 . S
O16 C17 1.265 1_455 S
C17 O13 1.244 . S
C17 O16 1.265 1_655 S
O18 Eu0 2.373 . S
O18 C31 1.258 . S
O19 Eu1 2.392 1_655 S
O19 C31 1.242 . S
O20 Eu1 2.418 . S
O20 C2 1.244 . S
O21 Eu0 2.488 . S
O21 C9 1.249 . S
O22 Eu0 2.471 . S
O22 C9 1.244 . S
O23 Eu0 2.349 . S
O23 C2 1.265 1_655 S
C24 C25 1.379 . S
C24 C28 1.373 . S
C24 C30 1.505 . S
C25 C24 1.379 . S
C25 C27 1.369 . S
C25 H36 0.930 . S
C26 C28 1.383 . S
C26 C29 1.382 . S
C26 H37 0.930 . S
C27 C25 1.369 . S
C27 C29 1.392 . S
C27 H38 0.930 . S
C28 C24 1.373 . S
C28 C26 1.383 . S
C28 H39 0.931 . S
C29 C26 1.382 . S
C29 C27 1.392 . S
C30 Eu1 2.828 . S
C30 O14 1.249 . S
C30 O15 1.244 . S
C30 C24 1.505 . S
C31 O18 1.258 . S
C31 O19 1.242 . S
H32 C4 0.930 . S
H33 C5 0.930 . S
H34 C6 0.930 . S
H35 C7 0.931 . S
H36 C25 0.930 . S
H37 C26 0.930 . S
H38 C27 0.930 . S
H39 C28 0.931 . S
Eu40 C49 2.828 . S
Eu40 O51 2.392 1_565 S
Eu40 O53 2.418 . S
Eu40 O58 2.373 . S
Eu40 O61 2.488 . S
Eu40 O62 2.471 . S
Eu40 O63 2.349 . S
Eu41 O50 2.373 . S
Eu41 O54 2.488 . S
Eu41 O55 2.471 . S
Eu41 O56 2.349 . S
Eu41 O59 2.392 1_545 S
Eu41 O60 2.418 . S
Eu41 C70 2.828 . S
C42 O60 1.244 . S
C42 O63 1.265 1_545 S
C43 C44 1.379 . S
C43 C47 1.373 . S
C43 C49 1.505 . S
C44 C43 1.379 . S
C44 C46 1.369 . S
C44 H72 0.930 . S
C45 C47 1.383 . S
C45 C48 1.382 . S
C45 H73 0.930 . S
C46 C44 1.369 . S
C46 C48 1.392 . S
C46 H74 0.930 . S
C47 C43 1.373 . S
C47 C45 1.383 . S
C47 H75 0.931 . S
C48 C45 1.382 . S
C48 C46 1.392 . S
C49 Eu40 2.828 . S
C49 C43 1.505 . S
C49 O61 1.249 . S
C49 O62 1.244 . S
O50 Eu41 2.373 . S
O50 C52 1.258 . S
O51 Eu40 2.392 1_545 S
O51 C52 1.242 . S
C52 O50 1.258 . S
C52 O51 1.242 . S
O53 Eu40 2.418 . S
O53 C57 1.244 . S
O54 Eu41 2.488 . S
O54 C70 1.249 . S
O55 Eu41 2.471 . S
O55 C70 1.244 . S
O56 Eu41 2.349 . S
O56 C57 1.265 1_545 S
C57 O53 1.244 . S
C57 O56 1.265 1_565 S
O58 Eu40 2.373 . S
O58 C71 1.258 . S
O59 Eu41 2.392 1_565 S
O59 C71 1.242 . S
O60 Eu41 2.418 . S
O60 C42 1.244 . S
O61 Eu40 2.488 . S
O61 C49 1.249 . S
O62 Eu40 2.471 . S
O62 C49 1.244 . S
O63 Eu40 2.349 . S
O63 C42 1.265 1_565 S
C64 C65 1.379 . S
C64 C68 1.373 . S
C64 C70 1.505 . S
C65 C64 1.379 . S
C65 C67 1.369 . S
C65 H76 0.930 . S
C66 C68 1.383 . S
C66 C69 1.382 . S
C66 H77 0.930 . S
C67 C65 1.369 . S
C67 C69 1.392 . S
C67 H78 0.930 . S
C68 C64 1.373 . S
C68 C66 1.383 . S
C68 H79 0.931 . S
C69 C66 1.382 . S
C69 C67 1.392 . S
C70 Eu41 2.828 . S
C70 O54 1.249 . S
C70 O55 1.244 . S
C70 C64 1.505 . S
C71 O58 1.258 . S
C71 O59 1.242 . S
H72 C44 0.930 . S
H73 C45 0.930 . S
H74 C46 0.930 . S
H75 C47 0.931 . S
H76 C65 0.930 . S
H77 C66 0.930 . S
H78 C67 0.930 . S
H79 C68 0.931 . S
Eu80 C89 2.828 . S
Eu80 O91 2.392 . S
Eu80 O93 2.418 . S
Eu80 O98 2.373 . S
Eu80 O101 2.488 . S
Eu80 O102 2.471 . S
Eu80 O103 2.349 . S
Eu81 O90 2.373 . S
Eu81 O94 2.488 . S
Eu81 O95 2.471 . S
Eu81 O96 2.349 . S
Eu81 O99 2.392 . S
Eu81 O100 2.418 . S
Eu81 C110 2.828 . S
C82 O100 1.244 . S
C82 O103 1.265 . S
C83 C84 1.379 . S
C83 C87 1.373 . S
C83 C89 1.505 . S
C84 C83 1.379 . S
C84 C86 1.369 . S
C84 H112 0.930 . S
C85 C87 1.383 . S
C85 C88 1.382 . S
C85 H113 0.930 . S
C86 C84 1.369 . S
C86 C88 1.392 . S
C86 H114 0.930 . S
C87 C83 1.373 . S
C87 C85 1.383 . S
C87 H115 0.931 . S
C88 C85 1.382 . S
C88 C86 1.392 . S
C89 Eu80 2.828 . S
C89 C83 1.505 . S
C89 O101 1.249 . S
C89 O102 1.244 . S
O90 Eu81 2.373 . S
O90 C92 1.258 . S
O91 Eu80 2.392 . S
O91 C92 1.242 . S
C92 O90 1.258 . S
C92 O91 1.242 . S
O93 Eu80 2.418 . S
O93 C97 1.244 . S
O94 Eu81 2.488 . S
O94 C110 1.249 . S
O95 Eu81 2.471 . S
O95 C110 1.244 . S
O96 Eu81 2.349 . S
O96 C97 1.265 . S
C97 O93 1.244 . S
C97 O96 1.265 . S
O98 Eu80 2.373 . S
O98 C111 1.258 . S
O99 Eu81 2.392 . S
O99 C111 1.242 . S
O100 Eu81 2.418 . S
O100 C82 1.244 . S
O101 Eu80 2.488 . S
O101 C89 1.249 . S
O102 Eu80 2.471 . S
O102 C89 1.244 . S
O103 Eu80 2.349 . S
O103 C82 1.265 . S
C104 C105 1.379 . S
C104 C108 1.373 . S
C104 C110 1.505 . S
C105 C104 1.379 . S
C105 C107 1.369 . S
C105 H116 0.930 . S
C106 C108 1.383 . S
C106 C109 1.382 . S
C106 H117 0.930 . S
C107 C105 1.369 . S
C107 C109 1.392 . S
C107 H118 0.930 . S
C108 C104 1.373 . S
C108 C106 1.383 . S
C108 H119 0.931 . S
C109 C106 1.382 . S
C109 C107 1.392 . S
C110 Eu81 2.828 . S
C110 O94 1.249 . S
C110 O95 1.244 . S
C110 C104 1.505 . S
C111 O98 1.258 . S
C111 O99 1.242 . S
H112 C84 0.930 . S
H113 C85 0.930 . S
H114 C86 0.930 . S
H115 C87 0.931 . S
H116 C105 0.930 . S
H117 C106 0.930 . S
H118 C107 0.930 . S
H119 C108 0.931 . S
C120 C121 1.384 . S
C120 H133 0.947 . S
C120 C155 1.382 . S
C121 C120 1.384 . S
C121 C122 1.378 . S
C122 C121 1.378 . S
C122 C123 1.378 . S
C122 H134 0.952 . S
C123 C122 1.378 . S
C123 H135 0.950 . S
C123 C154 1.383 . S
H124 C143 0.947 . S
H125 C144 0.946 . S
H126 C146 0.953 . S
H127 C147 0.945 . S
H128 C149 0.952 . S
H129 C150 0.949 . S
H130 C152 0.950 . S
H131 C153 0.948 . S
H132 C155 0.951 . S
H133 C120 0.947 . S
H134 C122 0.952 . S
H135 C123 0.950 . S
N136 C139 1.382 . S
N136 C141 1.363 1_545 S
N137 C139 1.371 . S
N137 C140 1.372 . S
N138 C140 1.361 1_565 S
N138 C141 1.377 . S
C139 N136 1.382 . S
C139 N137 1.371 . S
C139 C142 1.480 . S
C140 N137 1.372 . S
C140 N138 1.361 1_545 S
C140 C148 1.457 . S
C141 N136 1.363 1_565 S
C141 N138 1.377 . S
C141 C154 1.479 . S
C142 C139 1.480 . S
C142 C143 1.383 . S
C142 C147 1.385 . S
C143 H124 0.947 . S
C143 C142 1.383 . S
C143 C144 1.388 . S
C144 H125 0.946 . S
C144 C143 1.388 . S
C144 C145 1.384 . S
C145 C144 1.384 . S
C145 C146 1.377 . S
C146 H126 0.953 . S
C146 C145 1.377 . S
C146 C147 1.369 . S
C147 H127 0.945 . S
C147 C142 1.385 . S
C147 C146 1.369 . S
C148 C140 1.457 . S
C148 C149 1.372 . S
C148 C153 1.364 1_545 S
C149 H128 0.952 . S
C149 C148 1.372 . S
C149 C150 1.389 . S
C150 H129 0.949 . S
C150 C149 1.389 . S
C150 C151 1.387 . S
C151 C150 1.387 . S
C151 C152 1.372 1_545 S
C152 H130 0.950 . S
C152 C151 1.372 1_565 S
C152 C153 1.379 . S
C153 H131 0.948 . S
C153 C148 1.364 1_565 S
C153 C152 1.379 . S
C154 C123 1.383 . S
C154 C141 1.479 . S
C154 C155 1.398 . S
C155 C120 1.382 . S
C155 H132 0.951 . S
C155 C154 1.398 . S
C156 C157 1.384 . S
C156 H169 0.947 . S
C156 C191 1.382 . S
C157 C156 1.384 . S
C157 C158 1.378 . S
C158 C157 1.378 . S
C158 C159 1.378 . S
C158 H170 0.952 . S
C159 C158 1.378 . S
C159 H171 0.950 . S
C159 C190 1.383 . S
H160 C179 0.947 . S
H161 C180 0.946 . S
H162 C182 0.953 . S
H163 C183 0.945 . S
H164 C185 0.952 . S
H165 C186 0.949 . S
H166 C188 0.950 . S
H167 C189 0.948 . S
H168 C191 0.951 . S
H169 C156 0.947 . S
H170 C158 0.952 . S
H171 C159 0.950 . S
N172 C175 1.382 . S
N172 C177 1.363 . S
N173 C175 1.371 . S
N173 C176 1.372 . S
N174 C176 1.361 . S
N174 C177 1.377 . S
C175 N172 1.382 . S
C175 N173 1.371 . S
C175 C178 1.480 . S
C176 N173 1.372 . S
C176 N174 1.361 . S
C176 C184 1.457 . S
C177 N172 1.363 . S
C177 N174 1.377 . S
C177 C190 1.479 . S
C178 C175 1.480 . S
C178 C179 1.383 . S
C178 C183 1.385 . S
C179 H160 0.947 . S
C179 C178 1.383 . S
C179 C180 1.388 . S
C180 H161 0.946 . S
C180 C179 1.388 . S
C180 C181 1.384 . S
C181 C180 1.384 . S
C181 C182 1.377 . S
C182 H162 0.953 . S
C182 C181 1.377 . S
C182 C183 1.369 . S
C183 H163 0.945 . S
C183 C178 1.385 . S
C183 C182 1.369 . S
C184 C176 1.457 . S
C184 C185 1.372 . S
C184 C189 1.364 . S
C185 H164 0.952 . S
C185 C184 1.372 . S
C185 C186 1.389 . S
C186 H165 0.949 . S
C186 C185 1.389 . S
C186 C187 1.387 . S
C187 C186 1.387 . S
C187 C188 1.372 . S
C188 H166 0.950 . S
C188 C187 1.372 . S
C188 C189 1.379 . S
C189 H167 0.948 . S
C189 C184 1.364 . S
C189 C188 1.379 . S
C190 C159 1.383 . S
C190 C177 1.479 . S
C190 C191 1.398 . S
C191 C156 1.382 . S
C191 H168 0.951 . S
C191 C190 1.398 . S
C192 C193 1.384 . S
C192 H205 0.947 . S
C192 C227 1.382 . S
C193 C192 1.384 . S
C193 C194 1.378 . S
C194 C193 1.378 . S
C194 C195 1.378 . S
C194 H206 0.952 . S
C195 C194 1.378 . S
C195 H207 0.950 . S
C195 C226 1.383 . S
H196 C215 0.947 . S
H197 C216 0.946 . S
H198 C218 0.953 . S
H199 C219 0.945 . S
H200 C221 0.952 . S
H201 C222 0.949 . S
H202 C224 0.950 . S
H203 C225 0.948 . S
H204 C227 0.951 . S
H205 C192 0.947 . S
H206 C194 0.952 . S
H207 C195 0.950 . S
N208 C211 1.382 . S
N208 C213 1.363 1_455 S
N209 C211 1.371 . S
N209 C212 1.372 . S
N210 C212 1.361 1_655 S
N210 C213 1.377 . S
C211 N208 1.382 . S
C211 N209 1.371 . S
C211 C214 1.480 . S
C212 N209 1.372 . S
C212 N210 1.361 1_455 S
C212 C220 1.457 1_556 S
C213 N208 1.363 1_655 S
C213 N210 1.377 . S
C213 C226 1.479 . S
C214 C211 1.480 . S
C214 C215 1.383 . S
C214 C219 1.385 . S
C215 H196 0.947 . S
C215 C214 1.383 . S
C215 C216 1.388 . S
C216 H197 0.946 . S
C216 C215 1.388 . S
C216 C217 1.384 . S
C217 C216 1.384 . S
C217 C218 1.377 . S
C218 H198 0.953 . S
C218 C217 1.377 . S
C218 C219 1.369 . S
C219 H199 0.945 . S
C219 C214 1.385 . S
C219 C218 1.369 . S
C220 C212 1.457 1_554 S
C220 C221 1.372 . S
C220 C225 1.364 1_455 S
C221 H200 0.952 . S
C221 C220 1.372 . S
C221 C222 1.389 . S
C222 H201 0.949 . S
C222 C221 1.389 . S
C222 C223 1.387 . S
C223 C222 1.387 . S
C223 C224 1.372 1_455 S
C224 H202 0.950 . S
C224 C223 1.372 1_655 S
C224 C225 1.379 . S
C225 H203 0.948 . S
C225 C220 1.364 1_655 S
C225 C224 1.379 . S
C226 C195 1.383 . S
C226 C213 1.479 . S
C226 C227 1.398 . S
C227 C192 1.382 . S
C227 H204 0.951 . S
C227 C226 1.398 . S
C228 C229 1.384 . S
C228 H241 0.947 . S
C228 C263 1.382 . S
C229 C228 1.384 . S
C229 C230 1.378 . S
C230 C229 1.378 . S
C230 C231 1.378 . S
C230 H242 0.952 . S
C231 C230 1.378 . S
C231 H243 0.950 . S
C231 C262 1.383 . S
H232 C251 0.947 . S
H233 C252 0.946 . S
H234 C254 0.953 . S
H235 C255 0.945 . S
H236 C257 0.952 . S
H237 C258 0.949 . S
H238 C260 0.950 . S
H239 C261 0.948 . S
H240 C263 0.951 . S
H241 C228 0.947 . S
H242 C230 0.952 . S
H243 C231 0.950 . S
N244 C247 1.382 1_455 S
N244 C249 1.363 . S
N245 C247 1.371 . S
N245 C248 1.372 1_655 S
N246 C248 1.361 . S
N246 C249 1.377 . S
C247 N244 1.382 1_655 S
C247 N245 1.371 . S
C247 C250 1.480 . S
C248 N245 1.372 1_455 S
C248 N246 1.361 . S
C248 C256 1.457 . S
C249 N244 1.363 . S
C249 N246 1.377 . S
C249 C262 1.479 . S
C250 C247 1.480 . S
C250 C251 1.383 . S
C250 C255 1.385 . S
C251 H232 0.947 . S
C251 C250 1.383 . S
C251 C252 1.388 . S
C252 H233 0.946 . S
C252 C251 1.388 . S
C252 C253 1.384 . S
C253 C252 1.384 . S
C253 C254 1.377 . S
C254 H234 0.953 . S
C254 C253 1.377 . S
C254 C255 1.369 . S
C255 H235 0.945 . S
C255 C250 1.385 . S
C255 C254 1.369 . S
C256 C248 1.457 . S
C256 C257 1.372 1_455 S
C256 C261 1.364 . S
C257 H236 0.952 . S
C257 C256 1.372 1_655 S
C257 C258 1.389 . S
C258 H237 0.949 . S
C258 C257 1.389 . S
C258 C259 1.387 1_655 S
C259 C258 1.387 1_455 S
C259 C260 1.372 . S
C260 H238 0.950 . S
C260 C259 1.372 . S
C260 C261 1.379 . S
C261 H239 0.948 . S
C261 C256 1.364 . S
C261 C260 1.379 . S
C262 C231 1.383 . S
C262 C249 1.479 . S
C262 C263 1.398 . S
C263 C228 1.382 . S
C263 H240 0.951 . S
C263 C262 1.398 . S
C264 C265 1.384 . S
C264 H277 0.947 . S
C264 C299 1.382 . S
C265 C264 1.384 . S
C265 C266 1.378 . S
C266 C265 1.378 . S
C266 C267 1.378 . S
C266 H278 0.952 . S
C267 C266 1.378 . S
C267 H279 0.950 . S
C267 C298 1.383 . S
H268 C287 0.947 . S
H269 C288 0.946 . S
H270 C290 0.953 . S
H271 C291 0.945 . S
H272 C293 0.952 . S
H273 C294 0.949 . S
H274 C296 0.950 . S
H275 C297 0.948 . S
H276 C299 0.951 . S
H277 C264 0.947 . S
H278 C266 0.952 . S
H279 C267 0.950 . S
N280 C283 1.382 1_545 S
N280 C285 1.363 . S
N281 C283 1.371 . S
N281 C284 1.372 1_565 S
N282 C284 1.361 . S
N282 C285 1.377 . S
C283 N280 1.382 1_565 S
C283 N281 1.371 . S
C283 C286 1.480 . S
C284 N281 1.372 1_545 S
C284 N282 1.361 . S
C284 C292 1.457 . S
C285 N280 1.363 . S
C285 N282 1.377 . S
C285 C298 1.479 . S
C286 C283 1.480 . S
C286 C287 1.383 . S
C286 C291 1.385 . S
C287 H268 0.947 . S
C287 C286 1.383 . S
C287 C288 1.388 . S
C288 H269 0.946 . S
C288 C287 1.388 . S
C288 C289 1.384 . S
C289 C288 1.384 . S
C289 C290 1.377 . S
C290 H270 0.953 . S
C290 C289 1.377 . S
C290 C291 1.369 . S
C291 H271 0.945 . S
C291 C286 1.385 . S
C291 C290 1.369 . S
C292 C284 1.457 . S
C292 C293 1.372 1_545 S
C292 C297 1.364 . S
C293 H272 0.952 . S
C293 C292 1.372 1_565 S
C293 C294 1.389 . S
C294 H273 0.949 . S
C294 C293 1.389 . S
C294 C295 1.387 1_565 S
C295 C294 1.387 1_545 S
C295 C296 1.372 . S
C296 H274 0.950 . S
C296 C295 1.372 . S
C296 C297 1.379 . S
C297 H275 0.948 . S
C297 C292 1.364 . S
C297 C296 1.379 . S
C298 C267 1.383 . S
C298 C285 1.479 . S
C298 C299 1.398 . S
C299 C264 1.382 . S
C299 H276 0.951 . S
C299 C298 1.398 . S
C300 C301 1.384 . S
C300 H313 0.947 . S
C300 C335 1.382 . S
C301 C300 1.384 . S
C301 C302 1.378 . S
C302 C301 1.378 . S
C302 C303 1.378 . S
C302 H314 0.952 . S
C303 C302 1.378 . S
C303 H315 0.950 . S
C303 C334 1.383 . S
H304 C323 0.947 . S
H305 C324 0.946 . S
H306 C326 0.953 . S
H307 C327 0.945 . S
H308 C329 0.952 1_554 S
H309 C330 0.949 . S
H310 C332 0.950 . S
H311 C333 0.948 1_554 S
H312 C335 0.951 . S
H313 C300 0.947 . S
H314 C302 0.952 . S
H315 C303 0.950 . S
N316 C319 1.382 . S
N316 C321 1.363 . S
N317 C319 1.371 . S
N317 C320 1.372 . S
N318 C320 1.361 . S
N318 C321 1.377 . S
C319 N316 1.382 . S
C319 N317 1.371 . S
C319 C322 1.480 . S
C320 N317 1.372 . S
C320 N318 1.361 . S
C320 C328 1.457 . S
C321 N316 1.363 . S
C321 N318 1.377 . S
C321 C334 1.479 . S
C322 C319 1.480 . S
C322 C323 1.383 . S
C322 C327 1.385 . S
C323 H304 0.947 . S
C323 C322 1.383 . S
C323 C324 1.388 . S
C324 H305 0.946 . S
C324 C323 1.388 . S
C324 C325 1.384 . S
C325 C324 1.384 . S
C325 C326 1.377 . S
C326 H306 0.953 . S
C326 C325 1.377 . S
C326 C327 1.369 . S
C327 H307 0.945 . S
C327 C322 1.385 . S
C327 C326 1.369 . S
C328 C320 1.457 . S
C328 C329 1.372 1_554 S
C328 C333 1.364 1_554 S
C329 H308 0.952 1_556 S
C329 C328 1.372 1_556 S
C329 C330 1.389 . S
C330 H309 0.949 . S
C330 C329 1.389 . S
C330 C331 1.387 . S
C331 C330 1.387 . S
C331 C332 1.372 . S
C332 H310 0.950 . S
C332 C331 1.372 . S
C332 C333 1.379 . S
C333 H311 0.948 1_556 S
C333 C328 1.364 1_556 S
C333 C332 1.379 . S
C334 C303 1.383 . S
C334 C321 1.479 . S
C334 C335 1.398 . S
C335 C300 1.382 . S
C335 H312 0.951 . S
C335 C334 1.398 . S
C12 C325 4.723 . S
C52 C253 4.726 . S
C111 C289 4.812 . S
C31 C301 5.075 . S
C229 C71 5.075 . S
C265 C92 4.983 . S
C48 C181 2.287 . S
C109 C193 2.199 . S
C29 C121 1.979 . S
C157 C69 2.094 . S
C217 C88 2.017 . S
C8 C145 2.008 . S
C223 C17 1.299 1_455 S
C57 C151 1.136 1_565 S
C97 C187 1.423 . S
C295 C42 2.065 . S
C331 C82 2.082 . S
C2 C259 2.099 . S
