# Generated by pormake.
# Topology anh, (6,3)-cn, num edge types: 1
# Building blocks:
#     Node 0, Type 0, BuildingBlock: VOLQOD_clean_sbu_1, # of connection points: 6
#     Node 1, Type 0, BuildingBlock: VOLQOD_clean_sbu_1, # of connection points: 6
#     Node 2, Type 0, BuildingBlock: VOLQOD_clean_sbu_1, # of connection points: 6
#     Node 3, Type 1, BuildingBlock: VETTIZ_charged_linker_0, # of connection points: 3
#     Node 4, Type 1, BuildingBlock: VETTIZ_charged_linker_0, # of connection points: 3
#     Node 5, Type 1, BuildingBlock: VETTIZ_charged_linker_0, # of connection points: 3
#     Node 6, Type 1, BuildingBlock: VETTIZ_charged_linker_0, # of connection points: 3
#     Node 7, Type 1, BuildingBlock: VETTIZ_charged_linker_0, # of connection points: 3
#     Node 8, Type 1, BuildingBlock: VETTIZ_charged_linker_0, # of connection points: 3
#     Edge 9, Type (0, 1), BuildingBlock: UVAHIK_clean_linker_0, # of connection points: 2
#     Edge 10, Type (0, 1), BuildingBlock: UVAHIK_clean_linker_0, # of connection points: 2
#     Edge 11, Type (0, 1), BuildingBlock: UVAHIK_clean_linker_0, # of connection points: 2
#     Edge 12, Type (0, 1), BuildingBlock: UVAHIK_clean_linker_0, # of connection points: 2
#     Edge 13, Type (0, 1), BuildingBlock: UVAHIK_clean_linker_0, # of connection points: 2
#     Edge 14, Type (0, 1), BuildingBlock: UVAHIK_clean_linker_0, # of connection points: 2
#     Edge 15, Type (0, 1), BuildingBlock: UVAHIK_clean_linker_0, # of connection points: 2
#     Edge 16, Type (0, 1), BuildingBlock: UVAHIK_clean_linker_0, # of connection points: 2
#     Edge 17, Type (0, 1), BuildingBlock: UVAHIK_clean_linker_0, # of connection points: 2
#     Edge 18, Type (0, 1), BuildingBlock: UVAHIK_clean_linker_0, # of connection points: 2
#     Edge 19, Type (0, 1), BuildingBlock: UVAHIK_clean_linker_0, # of connection points: 2
#     Edge 20, Type (0, 1), BuildingBlock: UVAHIK_clean_linker_0, # of connection points: 2
#     Edge 21, Type (0, 1), BuildingBlock: UVAHIK_clean_linker_0, # of connection points: 2
#     Edge 22, Type (0, 1), BuildingBlock: UVAHIK_clean_linker_0, # of connection points: 2
#     Edge 23, Type (0, 1), BuildingBlock: UVAHIK_clean_linker_0, # of connection points: 2
#     Edge 24, Type (0, 1), BuildingBlock: UVAHIK_clean_linker_0, # of connection points: 2
#     Edge 25, Type (0, 1), BuildingBlock: UVAHIK_clean_linker_0, # of connection points: 2
#     Edge 26, Type (0, 1), BuildingBlock: UVAHIK_clean_linker_0, # of connection points: 2
# Relax obj value: 0.169
# Max RMSD: 0.231
# Mean RMSD: 0.117
data_MOF--net-anh--node1-VOLQOD_clean_sbu_1--node2-VETTIZ_charged_linker_0--edge1-UVAHIK_clean_linker_0
_symmetry_space_group_name_H-M    P1
_symmetry_Int_Tables_number       1
_symmetry_cell_setting            triclinic
loop_
_symmetry_equiv_pos_as_xyz
'x, y, z'
_cell_length_a     42.458653
_cell_length_b     42.383879
_cell_length_c     91.675898
_cell_angle_alpha  90.164522
_cell_angle_beta   89.787253
_cell_angle_gamma 120.00109
loop_
_atom_site_label
_atom_site_type_symbol
_atom_site_fract_x
_atom_site_fract_y
_atom_site_fract_z
_atom_type_partial_charge
O0 O 0.01275 0.55624 0.19245 0.0
Zn1 Zn 0.01267 0.56285 0.17069 0.0
O2 O 0.01644 0.52426 0.16028 0.0
Zn3 Zn 0.97371 0.49662 0.14817 0.0
Zn4 Zn 0.02011 0.49178 0.17432 0.0
Zn5 Zn 0.05918 0.54517 0.14773 0.0
O6 O 0.98621 0.49709 0.12699 0.0
O7 O 0.04579 0.53491 0.12659 0.0
O8 O 0.96705 0.56396 0.16528 0.0
O9 O 0.9424 0.51919 0.149 0.0
O10 O 0.9435 0.44509 0.1552 0.0
O11 O 0.97537 0.44219 0.17376 0.0
O12 O 0.06316 0.48549 0.17028 0.0
O13 O 0.05594 0.61206 0.16593 0.0
O14 O 0.09143 0.52441 0.15223 0.0
O15 O 0.08791 0.59924 0.1502 0.0
C16 C 0.01946 0.53559 0.20032 0.0
C17 C 0.01599 0.51471 0.12 0.0
C18 C 0.94746 0.42749 0.16558 0.0
C19 C 0.94222 0.5449 0.15611 0.0
C20 C 0.08938 0.50066 0.16124 0.0
C21 C 0.08346 0.62215 0.15762 0.0
O22 O 0.02459 0.51098 0.19474 0.0
O23 O 0.4569 0.98882 0.46974 0.0
Zn24 Zn 0.44947 -0.00537 0.4911 0.0
O25 O 0.48801 -0.00524 0.50288 0.0
Zn26 Zn 0.51359 0.04018 0.51389 0.0
Zn27 Zn 0.52258 0.99022 0.49023 0.0
Zn28 Zn 0.46676 0.95383 0.51637 0.0
O29 O 0.51044 0.03127 0.53556 0.0
O30 O 0.4764 0.97112 0.53712 0.0
O31 O 0.44782 0.04107 0.49372 0.0
O32 O 0.49164 0.07147 0.50987 0.0
O33 O 0.56611 0.06972 0.5078 0.0
O34 O 0.57139 0.03543 0.49075 0.0
O35 O 0.5294 0.94843 0.49606 0.0
O36 O 0.40045 0.95273 0.49665 0.0
O37 O 0.48768 0.92099 0.51335 0.0
O38 O 0.41275 0.9239 0.51391 0.0
C39 C 0.48011 0.98381 0.46281 0.0
C40 C 0.4942 0.00228 0.54314 0.0
C41 C 0.58495 0.06453 0.49827 0.0
C42 C 0.46636 0.06901 0.50168 0.0
C43 C 0.51284 0.92274 0.50521 0.0
C44 C 0.39009 0.92683 0.50581 0.0
O45 O 0.50602 0.98297 0.4694 0.0
O46 O 0.47142 0.46598 0.79719 0.0
Zn47 Zn 0.45965 0.45668 0.81859 0.0
O48 O 0.50004 0.4919 0.83067 0.0
Zn49 Zn 0.48351 0.51784 0.84327 0.0
Zn50 Zn 0.53899 0.52681 0.81807 0.0
Zn51 Zn 0.51815 0.46659 0.84279 0.0
O52 O 0.48944 0.51041 0.86451 0.0
O53 O 0.51152 0.47279 0.86417 0.0
O54 O 0.41339 0.45732 0.82277 0.0
O55 O 0.43042 0.49862 0.8404 0.0
O56 O 0.50939 0.57149 0.83886 0.0
O57 O 0.54731 0.57738 0.82096 0.0
O58 O 0.58603 0.5284 0.82223 0.0
O59 O 0.44926 0.40586 0.82265 0.0
O60 O 0.57142 0.48599 0.83919 0.0
O61 O 0.4912 0.41273 0.83873 0.0
C62 C 0.49954 0.48922 0.79025 0.0
C63 C 0.50013 0.49115 0.87116 0.0
C64 C 0.5339 0.59111 0.82963 0.0
C65 C 0.40607 0.47517 0.83204 0.0
C66 C 0.59478 0.51054 0.83082 0.0
C67 C 0.46402 0.39249 0.83071 0.0
O68 O 0.52733 0.5137 0.79693 0.0
C69 C 0.61262 0.09473 0.21998 0.0
C70 C 0.64354 0.11733 0.22832 0.0
C71 C 0.64194 0.11348 0.24361 0.0
C72 C 0.57896 0.06554 0.24204 0.0
C73 C 0.58069 0.06929 0.22704 0.0
C74 C 0.54492 0.04433 0.21983 0.0
H75 H 0.37077 0.90795 0.22582 0.0
C76 C 0.54158 0.03731 0.24594 0.0
C77 C 0.52146 0.02492 0.23299 0.0
H78 H 0.42899 0.9628 0.18662 0.0
H79 H 0.48168 0.00336 0.20098 0.0
H80 H 0.43628 0.90474 0.24155 0.0
H81 H 0.39695 0.98044 0.24444 0.0
H82 H 0.41114 0.97724 0.26204 0.0
H83 H 0.37448 0.93725 0.25356 0.0
H84 H 0.39362 0.89371 0.24986 0.0
H85 H 0.43534 0.91495 0.2601 0.0
C86 C 0.5503 0.01799 0.20976 0.0
C87 C 0.53181 0.06794 0.2119 0.0
C88 C 0.50798 0.00242 0.29902 0.0
C89 C 0.47535 0.97759 0.306 0.0
C90 C 0.44414 0.95626 0.2975 0.0
C91 C 0.44543 0.9596 0.28228 0.0
C92 C 0.47825 0.98462 0.27546 0.0
C93 C 0.50878 0.00555 0.28382 0.0
C94 C 0.54105 0.03126 0.27474 0.0
C95 C 0.52482 0.02231 0.25955 0.0
C96 C 0.48813 -0.0051 0.26005 0.0
C97 C 0.57106 0.02099 0.27669 0.0
C98 C 0.55246 0.0708 0.27932 0.0
C99 C 0.39494 0.92876 0.22037 0.0
C100 C 0.3961 0.93212 0.20512 0.0
C101 C 0.42763 0.95988 0.19838 0.0
C102 C 0.4582 0.98315 0.20673 0.0
C103 C 0.45705 0.97869 0.22196 0.0
C104 C 0.42551 0.95231 0.22855 0.0
C105 C 0.42878 0.95211 0.24485 0.0
C106 C 0.46784 0.98216 0.24696 0.0
C107 C 0.48432 -0.00262 0.23352 0.0
C108 C 0.42301 0.91443 0.24947 0.0
C109 C 0.40135 0.96199 0.25169 0.0
H110 H 0.61028 0.08609 0.26217 0.0
H111 H 0.6129 0.09756 0.20823 0.0
H112 H 0.54154 0.0945 0.21754 0.0
H113 H 0.50186 0.05527 0.21183 0.0
H114 H 0.5421 0.07387 0.2005 0.0
H115 H 0.56782 0.00881 0.21511 0.0
H116 H 0.56367 0.03155 0.19936 0.0
H117 H 0.5247 0.99276 0.20724 0.0
H118 H 0.53227 0.01963 0.30527 0.0
H119 H 0.41877 0.93673 0.30262 0.0
H120 H 0.42081 0.94255 0.27641 0.0
H121 H 0.55895 0.9909 0.27728 0.0
H122 H 0.58654 0.03277 0.28692 0.0
H123 H 0.59029 0.02957 0.26744 0.0
H124 H 0.52843 0.07296 0.28274 0.0
H125 H 0.56473 0.0905 0.27029 0.0
H126 H 0.57171 0.07994 0.28864 0.0
H127 H 0.66555 0.13058 0.25022 0.0
C128 C 0.60985 0.08763 0.25051 0.0
C129 C 0.54167 0.60396 0.5465 0.0
C130 C 0.56135 0.63724 0.55401 0.0
C131 C 0.57122 0.63667 0.56866 0.0
C132 C 0.53951 0.57072 0.56831 0.0
C133 C 0.53145 0.57128 0.55378 0.0
C134 C 0.51102 0.53372 0.54728 0.0
H135 H 0.44267 0.35279 0.55522 0.0
C136 C 0.52347 0.53228 0.57278 0.0
C137 C 0.50717 0.51048 0.56045 0.0
H138 H 0.44775 0.4117 0.51596 0.0
H139 H 0.47258 0.46759 0.52971 0.0
H140 H 0.51845 0.40958 0.56854 0.0
H141 H 0.4112 0.39378 0.57527 0.0
H142 H 0.43366 0.40836 0.59205 0.0
H143 H 0.42601 0.36594 0.58423 0.0
H144 H 0.48268 0.37071 0.57772 0.0
H145 H 0.51202 0.41215 0.58741 0.0
C146 C 0.53524 0.53092 0.53523 0.0
C147 C 0.47364 0.52707 0.54188 0.0
C148 C 0.52416 0.50115 0.62612 0.0
C149 C 0.50933 0.46795 0.63372 0.0
C150 C 0.49257 0.43506 0.62575 0.0
C151 C 0.48993 0.43523 0.61052 0.0
C152 C 0.50408 0.46864 0.60314 0.0
C153 C 0.52116 0.50086 0.61093 0.0
C154 C 0.53418 0.53376 0.60131 0.0
C155 C 0.52112 0.51588 0.5865 0.0
C156 C 0.50364 0.4778 0.58764 0.0
C157 C 0.57628 0.55626 0.60215 0.0
C158 C 0.51476 0.55476 0.60616 0.0
C159 C 0.44835 0.3775 0.54958 0.0
C160 C 0.44362 0.37773 0.53439 0.0
C161 C 0.45183 0.41078 0.52757 0.0
C162 C 0.46629 0.44326 0.53558 0.0
C163 C 0.47257 0.44278 0.5506 0.0
C164 C 0.46268 0.41012 0.55743 0.0
C165 C 0.47042 0.41469 0.57353 0.0
C166 C 0.48835 0.45574 0.57508 0.0
C167 C 0.48966 0.472 0.56161 0.0
C168 C 0.49712 0.40092 0.57712 0.0
C169 C 0.43361 0.39455 0.5818 0.0
H170 H 0.56815 0.60504 0.58704 0.0
H171 H 0.5333 0.60304 0.53529 0.0
H172 H 0.46261 0.53989 0.54939 0.0
H173 H 0.45264 0.49793 0.54163 0.0
H174 H 0.47594 0.53891 0.53086 0.0
H175 H 0.56456 0.54728 0.53813 0.0
H176 H 0.5315 0.54125 0.52463 0.0
H177 H 0.53032 0.50297 0.53372 0.0
H178 H 0.53686 0.5269 0.63191 0.0
H179 H 0.48139 0.40914 0.63132 0.0
H180 H 0.47676 0.40933 0.60509 0.0
H181 H 0.58807 0.53876 0.60491 0.0
H182 H 0.58541 0.57786 0.61062 0.0
H183 H 0.58894 0.56882 0.59157 0.0
H184 H 0.48543 0.53553 0.60831 0.0
H185 H 0.5154 0.57374 0.59781 0.0
H186 H 0.52692 0.57035 0.61635 0.0
H187 H 0.58717 0.66178 0.57466 0.0
C188 C 0.56031 0.60365 0.57584 0.0
C189 C 0.08413 0.5014 0.87082 0.0
C190 C 0.10147 0.48417 0.87731 0.0
C191 C 0.10332 0.48334 0.89264 0.0
C192 C 0.07119 0.51687 0.89476 0.0
C193 C 0.06916 0.51743 0.87973 0.0
C194 C 0.04902 0.53608 0.87463 0.0
H195 H 0.94022 0.60417 0.89127 0.0
C196 C 0.05281 0.53575 0.90081 0.0
C197 C 0.03983 0.54716 0.88908 0.0
H198 H 0.96828 0.58167 0.84865 0.0
H199 H 0.0129 0.56957 0.85944 0.0
H200 H 0.93363 0.53799 0.90644 0.0
H201 H 0.02588 0.64652 0.90432 0.0
H202 H 0.02504 0.63022 0.922 0.0
H203 H 0.98738 0.63518 0.91582 0.0
H204 H 0.93547 0.57565 0.9162 0.0
H205 H 0.95325 0.54871 0.92386 0.0
C206 C 0.01459 0.50749 0.8664 0.0
C207 C 0.07536 0.56965 0.86538 0.0
C208 C 0.04195 0.54377 0.95567 0.0
C209 C 0.02434 0.55742 0.96449 0.0
C210 C 0.00692 0.57456 0.95788 0.0
C211 C 0.00665 0.57764 0.94268 0.0
C212 C 0.02355 0.563 0.93398 0.0
C213 C 0.04112 0.54674 0.94051 0.0
C214 C 0.05702 0.53212 0.92955 0.0
C215 C 0.04631 0.54252 0.91536 0.0
C216 C 0.02663 0.56045 0.91802 0.0
C217 C 0.03816 0.49021 0.93154 0.0
C218 C 0.09881 0.55253 0.93163 0.0
C219 C 0.95655 0.59732 0.88427 0.0
C220 C 0.95042 0.59326 0.86916 0.0
C221 C 0.97252 0.58493 0.86033 0.0
C222 C -0.00201 0.57734 0.86665 0.0
C223 C 0.00106 0.57778 0.88192 0.0
C224 C 0.98173 0.58922 0.89043 0.0
C225 C 0.98793 0.58739 0.90646 0.0
C226 C 0.01283 0.57134 0.90618 0.0
C227 C 0.02012 0.56547 0.89179 0.0
C228 C 0.95078 0.56133 0.91375 0.0
C229 C 0.00733 0.62673 0.9126 0.0
H230 H 0.09092 0.49836 0.91298 0.0
H231 H 0.08212 0.50227 0.85907 0.0
H232 H 0.10361 0.58227 0.86964 0.0
H233 H 0.06865 0.59169 0.86576 0.0
H234 H 0.07588 0.56191 0.85383 0.0
H235 H 0.00308 0.48017 0.87155 0.0
H236 H 0.02101 0.50484 0.85486 0.0
H237 H -0.00787 0.51347 0.86666 0.0
H238 H 0.05517 0.53006 0.96044 0.0
H239 H -0.00651 0.58558 0.9645 0.0
H240 H -0.00727 0.59074 0.93829 0.0
H241 H 0.00961 0.47879 0.93538 0.0
H242 H 0.05263 0.4828 0.9397 0.0
H243 H 0.03576 0.47558 0.92124 0.0
H244 H 0.10923 0.58178 0.93419 0.0
H245 H 0.11367 0.55267 0.9217 0.0
H246 H 0.1066 0.54067 0.94077 0.0
H247 H 0.11714 0.47079 0.89788 0.0
C248 C 0.08838 0.49968 0.90139 0.0
C249 C 0.89607 0.41418 0.44272 0.0
C250 C 0.87262 0.38339 0.43443 0.0
C251 C 0.87428 0.38577 0.41908 0.0
C252 C 0.92283 0.44861 0.42058 0.0
C253 C 0.92084 0.44628 0.43562 0.0
C254 C 0.94827 0.48104 0.44288 0.0
H255 H 0.09474 0.64943 0.43723 0.0
C256 C 0.95256 0.48535 0.4167 0.0
C257 C 0.96757 0.50442 0.42972 0.0
H258 H 0.03795 0.59257 0.47638 0.0
H259 H -0.00641 0.54237 0.46188 0.0
H260 H 0.09116 0.58289 0.42094 0.0
H261 H 0.02062 0.62845 0.4188 0.0
H262 H 0.02738 0.61816 0.40088 0.0
H263 H 0.06581 0.65094 0.41134 0.0
H264 H 0.1038 0.62442 0.41135 0.0
H265 H 0.07826 0.58052 0.40262 0.0
C266 C 0.97382 0.4728 0.45212 0.0
C267 C 0.92754 0.49626 0.45172 0.0
C268 C 0.98402 0.52032 0.36348 0.0
C269 C 0.01238 0.55106 0.35665 0.0
C270 C 0.03839 0.57986 0.36521 0.0
C271 C 0.03589 0.57831 0.38046 0.0
C272 C 0.00734 0.5474 0.38719 0.0
C273 C 0.98226 0.51889 0.37872 0.0
C274 C 0.95523 0.48728 0.38777 0.0
C275 C 0.96747 0.50204 0.40307 0.0
C276 C -0.00219 0.53732 0.40265 0.0
C277 C 0.96019 0.45408 0.38449 0.0
C278 C 0.91675 0.48089 0.38445 0.0
C279 C 0.07271 0.62609 0.44264 0.0
C280 C 0.06988 0.62461 0.45793 0.0
C281 C 0.04052 0.59422 0.46461 0.0
C282 C 0.01498 0.56506 0.45617 0.0
C283 C 0.01881 0.56642 0.4409 0.0
C284 C 0.04686 0.59691 0.43437 0.0
C285 C 0.04602 0.59406 0.41802 0.0
C286 C 0.01313 0.55653 0.41581 0.0
C287 C -0.00236 0.54037 0.42925 0.0
C288 C 0.08166 0.59579 0.41284 0.0
C289 C 0.03989 0.62453 0.41181 0.0
H290 H 0.89916 0.41838 0.40041 0.0
H291 H 0.89576 0.41314 0.45453 0.0
H292 H 0.90055 0.48791 0.4468 0.0
H293 H 0.9418 0.52638 0.45178 0.0
H294 H 0.92274 0.4862 0.46314 0.0
H295 H 0.98057 0.45402 0.44617 0.0
H296 H 0.96072 0.45959 0.46261 0.0
H297 H 0.00026 0.49718 0.45448 0.0
H298 H 0.96414 0.49754 0.35708 0.0
H299 H 0.06049 0.60368 0.36007 0.0
H300 H 0.05642 0.60115 0.38641 0.0
H301 H 0.98871 0.4629 0.38126 0.0
H302 H 0.94226 0.43732 0.37543 0.0
H303 H 0.95514 0.43655 0.39412 0.0
H304 H 0.91721 0.50732 0.38366 0.0
H305 H 0.89679 0.4655 0.3931 0.0
H306 H 0.90647 0.46632 0.37392 0.0
H307 H 0.85612 0.36254 0.41245 0.0
C308 C 0.89918 0.41824 0.41211 0.0
C309 C 0.51691 0.92142 0.7894 0.0
C310 C 0.53232 0.90338 0.78191 0.0
C311 C 0.5352 0.90606 0.76658 0.0
C312 C 0.50676 0.94333 0.76647 0.0
C313 C 0.50424 0.94101 0.7815 0.0
C314 C 0.48633 0.96096 0.78776 0.0
H315 H 0.41216 0.06763 0.77686 0.0
C316 C 0.49036 0.96503 0.76157 0.0
C317 C 0.47821 0.97532 0.77398 0.0
H318 H 0.43125 0.03002 0.81789 0.0
H319 H 0.45386 -0.00447 0.80503 0.0
H320 H 0.48518 0.08615 0.76258 0.0
H321 H 0.38027 0.98909 0.75951 0.0
H322 H 0.39951 -0.00155 0.74195 0.0
H323 H 0.39041 0.03109 0.75087 0.0
H324 H 0.44879 0.08442 0.75206 0.0
H325 H 0.47987 0.07149 0.74438 0.0
C326 C 0.51438 0.99213 0.79758 0.0
C327 C 0.45109 0.93296 0.79573 0.0
C328 C 0.48757 0.98993 0.70759 0.0
C329 C 0.47444 0.0094 0.69973 0.0
C330 C 0.45785 0.02617 0.70739 0.0
C331 C 0.45449 0.02368 0.72261 0.0
C332 C 0.46792 0.00426 0.7303 0.0
C333 C 0.48408 0.98777 0.72278 0.0
C334 C 0.4967 0.96822 0.73274 0.0
C335 C 0.48561 0.97585 0.7475 0.0
C336 C 0.46876 -0.00308 0.746 0.0
C337 C 0.53857 0.98631 0.73121 0.0
C338 C 0.47542 0.9271 0.72887 0.0
C339 C 0.42036 0.05124 0.78307 0.0
C340 C 0.41981 0.05142 0.79841 0.0
C341 C 0.43162 0.03046 0.80608 0.0
C342 C 0.44479 0.01053 0.79859 0.0
C343 C 0.44644 0.01178 0.78326 0.0
C344 C 0.43384 0.03148 0.77577 0.0
C345 C 0.43859 0.03058 0.75954 0.0
C346 C 0.45648 0.00739 0.75853 0.0
C347 C 0.46102 -0.00352 0.77244 0.0
C348 C 0.4642 0.07011 0.75423 0.0
C349 C 0.40036 0.01158 0.75248 0.0
H350 H 0.52522 0.92659 0.74718 0.0
H351 H 0.51456 0.92021 0.80118 0.0
H352 H 0.43779 0.90637 0.78988 0.0
H353 H 0.43025 0.94126 0.79614 0.0
H354 H 0.45701 0.92795 0.80701 0.0
H355 H 0.54234 0.00388 0.79302 0.0
H356 H 0.51466 0.9821 0.80873 0.0
H357 H 0.50963 0.01542 0.79836 0.0
H358 H 0.49993 0.97623 0.70204 0.0
H359 H 0.44784 0.04165 0.70162 0.0
H360 H 0.44174 0.03715 0.72779 0.0
H361 H 0.55123 0.01624 0.72961 0.0
H362 H 0.54607 0.97516 0.72168 0.0
H363 H 0.55175 0.98337 0.74106 0.0
H364 H 0.4472 0.91861 0.72538 0.0
H365 H 0.472 0.90939 0.73826 0.0
H366 H 0.48878 0.92075 0.7198 0.0
H367 H 0.54636 0.89194 0.76049 0.0
C368 C 0.52256 0.92593 0.75883 0.0
C369 C 0.57616 0.47159 0.11534 0.0
C370 C 0.60916 0.48545 0.10762 0.0
C371 C 0.60851 0.48601 0.09224 0.0
C372 C 0.54319 0.4596 0.09253 0.0
C373 C 0.54365 0.45905 0.10759 0.0
C374 C 0.50637 0.44511 0.11405 0.0
H375 H 0.3327 0.40369 0.10424 0.0
C376 C 0.50543 0.44613 0.08782 0.0
C377 C 0.48364 0.43763 0.10034 0.0
H378 H 0.38692 0.4083 0.14475 0.0
H379 H 0.4397 0.41723 0.13137 0.0
H380 H 0.39757 0.46789 0.08817 0.0
H381 H 0.36188 0.35313 0.08732 0.0
H382 H 0.37534 0.36993 0.06954 0.0
H383 H 0.33773 0.37166 0.07797 0.0
H384 H 0.35594 0.43485 0.07963 0.0
H385 H 0.39859 0.45508 0.06998 0.0
C386 C 0.50737 0.47615 0.12337 0.0
C387 C 0.4958 0.40971 0.12263 0.0
C388 C 0.47825 0.44204 0.03388 0.0
C389 C 0.4467 0.43347 0.02598 0.0
C390 C 0.41403 0.42295 0.03361 0.0
C391 C 0.41287 0.4208 0.04891 0.0
C392 C 0.44481 0.42964 0.05665 0.0
C393 C 0.47672 0.44005 0.04909 0.0
C394 C 0.50833 0.44967 0.059 0.0
C395 C 0.48998 0.44236 0.07379 0.0
C396 C 0.45284 0.43074 0.07239 0.0
C397 C 0.53671 0.49062 0.05678 0.0
C398 C 0.52275 0.42324 0.05573 0.0
C399 C 0.35558 0.40583 0.11026 0.0
C400 C 0.35583 0.40607 0.12563 0.0
C401 C 0.38635 0.40902 0.13295 0.0
C402 C 0.41701 0.41425 0.12517 0.0
C403 C 0.4173 0.41667 0.10989 0.0
C404 C 0.38642 0.41098 0.10265 0.0
C405 C 0.39136 0.41321 0.08634 0.0
C406 C 0.43082 0.42284 0.08506 0.0
C407 C 0.44598 0.42537 0.09892 0.0
C408 C 0.38538 0.44417 0.08061 0.0
C409 C 0.36514 0.37519 0.07983 0.0
H410 H 0.57732 0.47423 0.07302 0.0
H411 H 0.57555 0.47046 0.12715 0.0
H412 H 0.5089 0.39492 0.11786 0.0
H413 H 0.4663 0.38991 0.12217 0.0
H414 H 0.5044 0.41571 0.13421 0.0
H415 H 0.52292 0.50276 0.11766 0.0
H416 H 0.52082 0.47859 0.13402 0.0
H417 H 0.48031 0.47283 0.12544 0.0
H418 H 0.50395 0.45101 0.02835 0.0
H419 H 0.38935 0.41616 0.02773 0.0
H420 H 0.38727 0.41269 0.05412 0.0
H421 H 0.52382 0.50613 0.05263 0.0
H422 H 0.55801 0.49424 0.0488 0.0
H423 H 0.54987 0.50453 0.06709 0.0
H424 H 0.49981 0.3951 0.05388 0.0
H425 H 0.53831 0.42087 0.06486 0.0
H426 H 0.54005 0.4317 0.04578 0.0
H427 H 0.63346 0.49719 0.08596 0.0
C428 C 0.5758 0.47296 0.08469 0.0
C429 C 0.1476 0.50757 0.15151 0.0
C430 C 0.11742 0.48969 0.16085 0.0
C431 C 0.17329 0.49633 0.15061 0.0
C432 C 0.23337 0.47965 0.1564 0.0
H433 H 0.19949 0.37657 0.15177 0.0
C434 C 0.33483 0.43118 0.14578 0.0
C435 C 0.32628 0.40733 0.13386 0.0
C436 C 0.30833 0.43716 0.1521 0.0
C437 C 0.20934 0.40542 0.15309 0.0
H438 H 0.09089 0.44623 0.17676 0.0
H439 H 0.13601 0.42666 0.17517 0.0
H440 H 0.15573 0.39674 0.15678 0.0
H441 H 0.28244 0.36883 0.12002 0.0
H442 H 0.23642 0.38018 0.13074 0.0
H443 H 0.28663 0.48867 0.15206 0.0
C444 C 0.13951 0.44923 0.16849 0.0
C445 C 0.18435 0.41694 0.15609 0.0
C446 C 0.11381 0.46059 0.16944 0.0
C447 C 0.29006 0.38786 0.12902 0.0
C448 C 0.26357 0.39403 0.13529 0.0
C449 C 0.25828 0.46818 0.15342 0.0
C450 C 0.16942 0.46691 0.15901 0.0
C451 C 0.19607 0.45425 0.15745 0.0
C452 C 0.27274 0.41967 0.14658 0.0
C453 C 0.24651 0.43099 0.15146 0.0
H454 H 0.15123 0.53005 0.14473 0.0
H455 H 0.19577 0.51016 0.14305 0.0
H456 H 0.24324 0.50855 0.15758 0.0
H457 H 0.36246 0.44689 0.14975 0.0
H458 H 0.3161 0.45661 0.16096 0.0
C459 C 0.63518 0.12925 0.5007 0.0
C460 C 0.62206 0.09427 0.49477 0.0
C461 C 0.66762 0.15862 0.4956 0.0
C462 C 0.72197 0.18713 0.46219 0.0
H463 H 0.78893 0.26986 0.48564 0.0
C464 C 0.84195 0.31543 0.43669 0.0
C465 C 0.84691 0.34888 0.44182 0.0
C466 C 0.81825 0.28303 0.44387 0.0
C467 C 0.77035 0.24698 0.47896 0.0
H468 H 0.6342 0.06217 0.47968 0.0
H469 H 0.69098 0.11336 0.47094 0.0
H470 H 0.74198 0.21482 0.4976 0.0
H471 H 0.8306 0.37459 0.45837 0.0
H472 H 0.78909 0.31806 0.47084 0.0
H473 H 0.74962 0.21949 0.44355 0.0
C474 C 0.67575 0.11819 0.47928 0.0
C475 C 0.74355 0.21549 0.4858 0.0
C476 C 0.64329 0.08885 0.48435 0.0
C477 C 0.82772 0.34928 0.45427 0.0
C478 C 0.80405 0.31693 0.46145 0.0
C479 C 0.74874 0.21857 0.45536 0.0
C480 C 0.68764 0.15356 0.48451 0.0
C481 C 0.7187 0.18545 0.47748 0.0
C482 C 0.79904 0.28345 0.45632 0.0
C483 C 0.77279 0.24905 0.46366 0.0
H484 H 0.61955 0.13436 0.50876 0.0
H485 H 0.67592 0.18558 0.49978 0.0
H486 H 0.70286 0.16471 0.45545 0.0
H487 H 0.85682 0.31435 0.42726 0.0
H488 H 0.81521 0.25767 0.43976 0.0
C489 C 0.57489 0.65319 0.81931 0.0
C490 C 0.54534 0.63015 0.82828 0.0
C491 C 0.58314 0.68896 0.81671 0.0
C492 C 0.56166 0.76053 0.82837 0.0
H493 H 0.57658 0.78614 0.78735 0.0
C494 C 0.52172 0.85744 0.80126 0.0
C495 C 0.5435 0.8802 0.7899 0.0
C496 C 0.53016 0.83297 0.80785 0.0
C497 C 0.57322 0.77985 0.7989 0.0
H498 H 0.50244 0.62723 0.84216 0.0
H499 H 0.51618 0.68918 0.83733 0.0
H500 H 0.57688 0.73194 0.79562 0.0
H501 H 0.59248 0.89668 0.77718 0.0
H502 H 0.60692 0.85345 0.78859 0.0
H503 H 0.55621 0.80773 0.83142 0.0
C504 C 0.53343 0.67991 0.83248 0.0
C505 C 0.57343 0.74875 0.80366 0.0
C506 C 0.52536 0.64423 0.83517 0.0
C507 C 0.57477 0.879 0.78571 0.0
C508 C 0.58313 0.85439 0.79226 0.0
C509 C 0.56124 0.79158 0.82358 0.0
C510 C 0.56184 0.7024 0.82292 0.0
C511 C 0.56678 0.73821 0.81839 0.0
C512 C 0.56047 0.83061 0.80319 0.0
C513 C 0.56616 0.80104 0.80873 0.0
H514 H 0.59114 0.64333 0.81399 0.0
H515 H 0.60564 0.70581 0.80952 0.0
H516 H 0.55708 0.7535 0.83983 0.0
H517 H 0.49718 0.85732 0.80462 0.0
H518 H 0.51187 0.81462 0.81609 0.0
C519 C 0.90022 0.56758 0.16398 0.0
C520 C 0.91269 0.55271 0.15322 0.0
C521 C 0.87009 0.57186 0.16124 0.0
C522 C 0.81463 0.57592 0.13118 0.0
H523 H 0.73102 0.52084 0.15633 0.0
C524 C 0.67178 0.49419 0.10948 0.0
C525 C 0.64434 0.49971 0.11539 0.0
C526 C 0.7058 0.50962 0.11603 0.0
C527 C 0.75434 0.53709 0.1494 0.0
H528 H 0.9048 0.53236 0.13101 0.0
H529 H 0.85304 0.54019 0.12621 0.0
H530 H 0.7916 0.53481 0.16452 0.0
H531 H 0.63092 0.52489 0.13321 0.0
H532 H 0.69053 0.55072 0.14504 0.0
H533 H 0.77712 0.57575 0.11562 0.0
C534 C 0.8662 0.54849 0.13675 0.0
C535 C 0.78893 0.54517 0.15408 0.0
C536 C 0.89564 0.54365 0.13955 0.0
C537 C 0.65136 0.51989 0.12841 0.0
C538 C 0.68544 0.5349 0.13513 0.0
C539 C 0.78019 0.56768 0.12649 0.0
C540 C 0.85279 0.56216 0.14759 0.0
C541 C 0.81901 0.56302 0.14467 0.0
C542 C 0.71306 0.53043 0.12879 0.0
C543 C 0.74961 0.54672 0.13528 0.0
H544 H 0.91291 0.57469 0.17462 0.0
H545 H 0.86009 0.58232 0.16977 0.0
H546 H 0.8375 0.59019 0.12382 0.0
H547 H 0.66707 0.47794 0.09973 0.0
H548 H 0.72651 0.50511 0.11115 0.0
C549 C 0.32637 0.89847 0.49638 0.0
C550 C 0.35134 0.89812 0.50631 0.0
C551 C 0.29104 0.86891 0.49552 0.0
C552 C 0.24446 0.77107 0.50101 0.0
H553 H 0.15962 0.77654 0.48929 0.0
C554 C 0.08953 0.67008 0.47833 0.0
C555 C 0.09847 0.65396 0.46683 0.0
C556 C 0.11701 0.6985 0.48642 0.0
C557 C 0.18288 0.7745 0.4928 0.0
H558 H 0.35787 0.86774 0.52393 0.0
H559 H 0.29612 0.81624 0.52242 0.0
H560 H 0.21328 0.83106 0.49855 0.0
H561 H 0.14272 0.65384 0.45503 0.0
H562 H 0.19059 0.70326 0.46911 0.0
H563 H 0.21463 0.71494 0.4948 0.0
C564 C 0.30412 0.83913 0.51515 0.0
C565 C 0.21364 0.80571 0.49798 0.0
C566 C 0.33947 0.86867 0.51601 0.0
C567 C 0.13516 0.66609 0.46375 0.0
C568 C 0.16249 0.69406 0.47191 0.0
C569 C 0.21385 0.74001 0.49579 0.0
C570 C 0.27992 0.83844 0.50458 0.0
C571 C 0.24513 0.80453 0.5017 0.0
C572 C 0.15373 0.71068 0.48326 0.0
C573 C 0.18326 0.74174 0.49119 0.0
H574 H 0.33453 0.92082 0.48881 0.0
H575 H 0.27315 0.86907 0.48716 0.0
H576 H 0.26835 0.76927 0.50367 0.0
H577 H 0.06137 0.66119 0.48087 0.0
H578 H 0.10962 0.71092 0.49513 0.0
C579 C 0.41798 0.32955 0.82262 0.0
C580 C 0.44963 0.35269 0.83052 0.0
C581 C 0.40548 0.29225 0.82176 0.0
C582 C 0.41596 0.21754 0.83777 0.0
H583 H 0.39281 0.17824 0.79854 0.0
C584 C 0.4334 0.09906 0.81733 0.0
C585 C 0.41061 0.07642 0.80619 0.0
C586 C 0.42911 0.12745 0.8228 0.0
C587 C 0.3983 0.18836 0.80964 0.0
H588 H 0.49223 0.35453 0.84413 0.0
H589 H 0.47088 0.28962 0.84236 0.0
H590 H 0.40267 0.23882 0.80332 0.0
H591 H 0.36341 0.06353 0.793 0.0
H592 H 0.35573 0.11307 0.80262 0.0
H593 H 0.41299 0.16737 0.8439 0.0
C594 C 0.45538 0.30021 0.83702 0.0
C595 C 0.40403 0.2232 0.81238 0.0
C596 C 0.46782 0.33751 0.83793 0.0
C597 C 0.38175 0.08099 0.80141 0.0
C598 C 0.37739 0.10933 0.80691 0.0
C599 C 0.41024 0.1826 0.83502 0.0
C600 C 0.42442 0.27727 0.82873 0.0
C601 C 0.41379 0.23855 0.82639 0.0
C602 C 0.40189 0.13371 0.81725 0.0
C603 C 0.4022 0.168 0.82084 0.0
H604 H 0.40305 0.34027 0.81692 0.0
H605 H 0.38125 0.2752 0.81546 0.0
H606 H 0.42286 0.22842 0.84873 0.0
H607 H 0.45611 0.09644 0.82114 0.0
H608 H 0.44869 0.14594 0.83065 0.0
C609 C 0.5593 0.90305 0.50337 0.0
C610 C 0.52364 0.89484 0.50672 0.0
C611 C 0.57013 0.87734 0.50583 0.0
C612 C 0.53728 0.78046 0.50978 0.0
H613 H 0.61311 0.80672 0.53863 0.0
C614 C 0.57574 0.67705 0.53178 0.0
C615 C 0.56927 0.67199 0.54691 0.0
C616 C 0.57803 0.70745 0.52485 0.0
C617 C 0.59234 0.79928 0.53038 0.0
H618 H 0.471 0.85299 0.51466 0.0
H619 H 0.48972 0.80775 0.51856 0.0
H620 H 0.60041 0.85335 0.52925 0.0
H621 H 0.56195 0.69622 0.56664 0.0
H622 H 0.56747 0.74973 0.55461 0.0
H623 H 0.52841 0.72619 0.51122 0.0
C624 C 0.50929 0.83417 0.51419 0.0
C625 C 0.58518 0.82585 0.525 0.0
C626 C 0.49868 0.86008 0.51205 0.0
C627 C 0.56752 0.69929 0.55504 0.0
C628 C 0.57054 0.72998 0.54815 0.0
C629 C 0.5449 0.75406 0.51494 0.0
C630 C 0.5452 0.84278 0.51131 0.0
C631 C 0.55684 0.81634 0.51501 0.0
C632 C 0.57479 0.73378 0.53297 0.0
C633 C 0.57171 0.76304 0.52562 0.0
H634 H 0.57911 0.92972 0.4993 0.0
H635 H 0.59799 0.88448 0.50358 0.0
H636 H 0.51532 0.77263 0.50206 0.0
H637 H 0.57815 0.6571 0.5252 0.0
H638 H 0.58153 0.71002 0.51312 0.0
C639 C 0.64351 0.50057 0.84111 0.0
C640 C 0.63305 0.51913 0.83136 0.0
C641 C 0.67981 0.50965 0.84214 0.0
C642 C 0.75488 0.5213 0.83765 0.0
H643 H 0.82796 0.62353 0.84125 0.0
C644 C 0.88383 0.56905 0.87017 0.0
C645 C 0.91716 0.59096 0.86306 0.0
C646 C 0.85142 0.56235 0.8638 0.0
C647 C 0.8079 0.59496 0.83999 0.0
H648 H 0.6525 0.56133 0.81479 0.0
H649 H 0.71605 0.57697 0.81654 0.0
H650 H 0.76574 0.60636 0.83428 0.0
H651 H 0.94289 0.62403 0.84394 0.0
H652 H 0.88542 0.61281 0.83285 0.0
H653 H 0.79652 0.50994 0.84417 0.0
C654 C 0.69609 0.55565 0.82348 0.0
C655 C 0.77238 0.58509 0.83599 0.0
C656 C 0.65967 0.54657 0.82245 0.0
C657 C 0.91751 0.60709 0.84963 0.0
C658 C 0.88484 0.60074 0.84332 0.0
C659 C 0.79016 0.53115 0.84176 0.0
C660 C 0.70653 0.53741 0.8334 0.0
C661 C 0.74526 0.54811 0.83527 0.0
C662 C 0.85159 0.57759 0.85024 0.0
C663 C 0.81658 0.56798 0.8434 0.0
H664 H 0.62377 0.47938 0.84817 0.0
H665 H 0.68706 0.49553 0.85009 0.0
H666 H 0.73481 0.49262 0.83684 0.0
H667 H 0.88261 0.55572 0.8804 0.0
H668 H 0.82603 0.5447 0.86938 0.0
C669 C 0.14071 0.67297 0.14703 0.0
C670 C 0.11229 0.66089 0.15728 0.0
C671 C 0.17073 0.70802 0.14797 0.0
C672 C 0.20851 0.79739 0.16696 0.0
H673 H 0.29723 0.79231 0.16692 0.0
C674 C 0.35102 0.868 0.19892 0.0
C675 C 0.3652 0.90529 0.19632 0.0
C676 C 0.32149 0.84219 0.19093 0.0
C677 C 0.27274 0.79427 0.16681 0.0
H678 H 0.09179 0.67706 0.17586 0.0
H679 H 0.14457 0.73796 0.1777 0.0
H680 H 0.24105 0.74058 0.15822 0.0
H681 H 0.36 0.94509 0.18336 0.0
H682 H 0.30734 0.89947 0.16942 0.0
H683 H 0.24033 0.85061 0.17635 0.0
C684 C 0.14349 0.7205 0.16883 0.0
C685 C 0.2406 0.76479 0.1617 0.0
C686 C 0.11333 0.68546 0.16785 0.0
C687 C 0.34949 0.91641 0.18549 0.0
C688 C 0.31944 0.89046 0.1776 0.0
C689 C 0.24085 0.82707 0.17202 0.0
C690 C 0.17306 0.73167 0.15922 0.0
C691 C 0.20788 0.76554 0.16215 0.0
C692 C 0.3053 0.85313 0.18026 0.0
C693 C 0.27291 0.82515 0.17245 0.0
H694 H 0.14046 0.65492 0.13859 0.0
H695 H 0.1928 0.71611 0.14025 0.0
H696 H 0.18376 0.79885 0.1673 0.0
H697 H 0.36288 0.85878 0.20713 0.0
H698 H 0.31081 0.81359 0.19332 0.0
C699 C 0.42903 0.09696 0.49376 0.0
C700 C 0.459 0.09963 0.50138 0.0
C701 C 0.42247 0.12622 0.49365 0.0
C702 C 0.40458 0.18454 0.50448 0.0
H703 H 0.48759 0.28224 0.50191 0.0
C704 C 0.41009 0.30965 0.53129 0.0
C705 C 0.43381 0.3445 0.52564 0.0
C706 C 0.4067 0.2786 0.52446 0.0
C707 C 0.46385 0.25526 0.50233 0.0
H708 H 0.50556 0.13518 0.51479 0.0
H709 H 0.49403 0.1857 0.51462 0.0
H710 H 0.49553 0.23037 0.4971 0.0
H711 H 0.46997 0.37364 0.50758 0.0
H712 H 0.46282 0.31952 0.4954 0.0
H713 H 0.37302 0.20959 0.50999 0.0
C714 C 0.47584 0.16127 0.5086 0.0
C715 C 0.46856 0.22548 0.49976 0.0
C716 C 0.48226 0.13212 0.50879 0.0
C717 C 0.45141 0.34731 0.51227 0.0
C718 C 0.44768 0.31625 0.50536 0.0
C719 C 0.3998 0.21445 0.50703 0.0
C720 C 0.44596 0.15871 0.50102 0.0
C721 C 0.4393 0.18983 0.50131 0.0
C722 C 0.42667 0.28171 0.51174 0.0
C723 C 0.42966 0.25014 0.50644 0.0
H724 H 0.41058 0.07228 0.48795 0.0
H725 H 0.39925 0.12357 0.48772 0.0
H726 H 0.38152 0.15732 0.50574 0.0
H727 H 0.39543 0.30642 0.54137 0.0
H728 H 0.39029 0.25248 0.52971 0.0
C729 C 0.34088 0.44497 0.82386 0.0
C730 C 0.3682 0.46719 0.83385 0.0
C731 C 0.30485 0.43648 0.82616 0.0
C732 C 0.2431 0.43023 0.85542 0.0
H733 H 0.19225 0.454 0.82631 0.0
C734 C 0.11694 0.4356 0.87181 0.0
C735 C 0.11967 0.46907 0.86823 0.0
C736 C 0.13859 0.42416 0.86467 0.0
C737 C 0.20593 0.44682 0.83448 0.0
H738 H 0.37915 0.49806 0.85399 0.0
H739 H 0.31671 0.48314 0.85795 0.0
H740 H 0.24928 0.45606 0.81985 0.0
H741 H 0.14527 0.51566 0.85375 0.0
H742 H 0.18354 0.49617 0.8415 0.0
H743 H 0.20157 0.42334 0.87034 0.0
C744 C 0.32302 0.47208 0.84843 0.0
C745 C 0.23835 0.44775 0.83076 0.0
C746 C 0.35886 0.48089 0.84607 0.0
C747 C 0.14249 0.48964 0.85669 0.0
C748 C 0.16429 0.47833 0.84961 0.0
C749 C 0.21079 0.42921 0.85913 0.0
C750 C 0.29565 0.4496 0.83859 0.0
C751 C 0.25793 0.441 0.8414 0.0
C752 C 0.16358 0.44616 0.8539 0.0
C753 C 0.19263 0.43897 0.84888 0.0
H754 H 0.34727 0.43406 0.81433 0.0
H755 H 0.28415 0.41923 0.81839 0.0
H756 H 0.25754 0.42447 0.86376 0.0
H757 H 0.09898 0.41888 0.88048 0.0
H758 H 0.13698 0.39892 0.86803 0.0
C759 C 0.88345 0.37661 0.16241 0.0
C760 C 0.91775 0.39026 0.16895 0.0
C761 C 0.85408 0.34354 0.16699 0.0
C762 C 0.82731 0.25892 0.18727 0.0
H763 H 0.74313 0.26661 0.19838 0.0
C764 C 0.69365 0.18193 0.22651 0.0
C765 C 0.67669 0.14612 0.22114 0.0
C766 C 0.72341 0.20976 0.21921 0.0
C767 C 0.76644 0.26409 0.19531 0.0
H768 H 0.94866 0.37872 0.18473 0.0
H769 H 0.89729 0.32085 0.19265 0.0
H770 H 0.79448 0.31776 0.18631 0.0
H771 H 0.67806 0.11098 0.20423 0.0
H772 H 0.73067 0.15985 0.19149 0.0
H773 H 0.79918 0.20525 0.19651 0.0
C774 C 0.8932 0.33584 0.18402 0.0
C775 C 0.79563 0.29316 0.18828 0.0
C776 C 0.92253 0.36909 0.17955 0.0
C777 C 0.6906 0.13845 0.20853 0.0
C778 C 0.72071 0.16626 0.20131 0.0
C779 C 0.79782 0.22958 0.19417 0.0
C780 C 0.8585 0.3233 0.17807 0.0
C781 C 0.82652 0.29104 0.18435 0.0
C782 C 0.73699 0.20223 0.20648 0.0
C783 C 0.76742 0.2322 0.19845 0.0
H784 H 0.87886 0.39213 0.15418 0.0
H785 H 0.82764 0.33422 0.16213 0.0
H786 H 0.85081 0.25662 0.18431 0.0
H787 H 0.68327 0.18861 0.23614 0.0
H788 H 0.73574 0.23725 0.22347 0.0
C789 C 0.98274 0.49935 0.09621 0.0
C790 C 0.0157 0.51365 0.10388 0.0
C791 C 0.98272 0.50149 0.08101 0.0
C792 C 0.03757 0.51403 0.04818 0.0
H793 H 0.98088 0.5536 0.03143 0.0
C794 C 0.05456 0.55988 0.9882 0.0
C795 C 0.02311 0.55262 0.9805 0.0
C796 C 0.05308 0.55411 0.00323 0.0
C797 C -0.00356 0.542 0.03588 0.0
H798 H 0.07438 0.54007 0.10158 0.0
H799 H 0.07422 0.54348 0.07504 0.0
H800 H 0.97853 0.54314 0.05763 0.0
H801 H 0.9654 0.53329 0.9824 0.0
H802 H 0.96258 0.52261 0.0086 0.0
H803 H 0.05528 0.51253 0.02645 0.0
C804 C 0.04846 0.53071 0.0808 0.0
C805 C -0.0049 0.53606 0.05089 0.0
C806 C 0.04853 0.5289 0.096 0.0
C807 C 0.99017 0.53962 0.98811 0.0
C808 C 0.9886 0.53354 0.00312 0.0
C809 C 0.03868 0.51966 0.03314 0.0
C810 C 0.01561 0.51761 0.07319 0.0
C811 C 0.01582 0.52223 0.05719 0.0
C812 C 0.02002 0.54064 0.01086 0.0
C813 C 0.01832 0.53396 0.02682 0.0
H814 H 0.95698 0.48742 0.10195 0.0
H815 H 0.95699 0.49084 0.07538 0.0
H816 H 0.05353 0.503 0.05275 0.0
H817 H 0.08039 0.57029 0.9826 0.0
H818 H 0.07793 0.56054 0.00889 0.0
C819 C 0.5043 0.97659 0.43885 0.0
C820 C 0.47754 0.97973 0.44675 0.0
C821 C 0.50277 0.97412 0.42366 0.0
C822 C 0.44118 0.95157 0.3923 0.0
H823 H 0.53053 0.01121 0.37083 0.0
C824 C 0.44461 0.973 0.32993 0.0
C825 C 0.47381 0.97444 0.32211 0.0
C826 C 0.44404 0.97171 0.34516 0.0
C827 C 0.50544 0.99399 0.37665 0.0
H828 H 0.42776 0.98202 0.44485 0.0
H829 H 0.42525 0.97782 0.41829 0.0
H830 H 0.53127 0.01232 0.39737 0.0
H831 H 0.52462 0.97433 0.32403 0.0
H832 H 0.5235 0.97172 0.35059 0.0
H833 H 0.41535 0.93322 0.37154 0.0
C834 C 0.44727 0.97706 0.4239 0.0
C835 C 0.50586 -0.00533 0.39186 0.0
C836 C 0.44885 0.97967 0.43911 0.0
C837 C 0.50205 0.97382 0.32979 0.0
C838 C 0.50142 0.97239 0.345 0.0
C839 C 0.44076 0.95078 0.37706 0.0
C840 C 0.47442 0.97462 0.41602 0.0
C841 C 0.47376 0.97349 0.39985 0.0
C842 C 0.47261 0.97171 0.35287 0.0
C843 C 0.47291 0.97201 0.36906 0.0
H844 H 0.52671 0.9764 0.44437 0.0
H845 H 0.52381 0.97175 0.41789 0.0
H846 H 0.41609 0.93466 0.39818 0.0
H847 H 0.42267 0.97387 0.3243 0.0
H848 H 0.42169 0.9717 0.3509 0.0
C849 C 0.53175 0.51165 0.76631 0.0
C850 C 0.50041 0.4872 0.77414 0.0
C851 C 0.53307 0.50908 0.75116 0.0
C852 C 0.49021 0.44479 0.72062 0.0
H853 H 0.53463 0.53252 0.69709 0.0
C854 C 0.47894 0.44293 0.6578 0.0
C855 C 0.50992 0.46775 0.6499 0.0
C856 C 0.47854 0.44437 0.67302 0.0
C857 C 0.52256 0.50779 0.70353 0.0
H858 H 0.44568 0.4411 0.7721 0.0
H859 H 0.44787 0.43695 0.74564 0.0
H860 H 0.53183 0.53731 0.72351 0.0
H861 H 0.56529 0.51264 0.6518 0.0
H862 H 0.56459 0.51516 0.67838 0.0
H863 H 0.48076 0.41528 0.70061 0.0
C864 C 0.47162 0.45777 0.75127 0.0
C865 C 0.52092 0.51053 0.71866 0.0
C866 C 0.4703 0.46032 0.76643 0.0
C867 C 0.5408 0.49351 0.65757 0.0
C868 C 0.54039 0.49498 0.67278 0.0
C869 C 0.49182 0.44204 0.70548 0.0
C870 C 0.50308 0.48203 0.74347 0.0
C871 C 0.50471 0.47907 0.72738 0.0
C872 C 0.50911 0.4707 0.68066 0.0
C873 C 0.50799 0.47352 0.69677 0.0
H874 H 0.55551 0.53262 0.77189 0.0
H875 H 0.55786 0.52791 0.74549 0.0
H876 H 0.47806 0.42006 0.72706 0.0
H877 H 0.45452 0.42312 0.65221 0.0
H878 H 0.45388 0.42558 0.67877 0.0
C879 C 0.51107 0.03875 0.56632 0.0
C880 C 0.49487 0.00472 0.55926 0.0
C881 C 0.50997 0.04081 0.58152 0.0
C882 C 0.45786 0.98686 0.6134 0.0
H883 H 0.54128 0.058 0.63537 0.0
C884 C 0.50968 0.01717 0.6767 0.0
C885 C 0.47779 0.0119 0.6836 0.0
C886 C 0.51239 0.01823 0.66151 0.0
C887 C 0.51782 0.03787 0.62939 0.0
H888 H 0.46566 0.94619 0.56269 0.0
H889 H 0.46422 0.94987 0.58913 0.0
H890 H 0.54552 0.05528 0.60889 0.0
H891 H 0.42384 0.00394 0.67996 0.0
H892 H 0.42885 0.00657 0.65344 0.0
H893 H 0.43043 0.96879 0.63387 0.0
C894 C 0.47716 0.97495 0.58292 0.0
C895 C 0.52013 0.03657 0.61421 0.0
C896 C 0.4782 0.97286 0.56775 0.0
C897 C 0.44889 0.00833 0.67498 0.0
C898 C 0.4516 0.00942 0.65978 0.0
C899 C 0.45555 0.98816 0.62855 0.0
C900 C 0.49267 0.00892 0.58997 0.0
C901 C 0.49023 0.0109 0.60606 0.0
C902 C 0.48327 0.01408 0.65288 0.0
C903 C 0.48554 0.01357 0.63673 0.0
H904 H 0.52408 0.06383 0.56011 0.0
H905 H 0.52191 0.0674 0.58662 0.0
H906 H 0.43417 0.96709 0.60741 0.0
H907 H 0.53261 0.02047 0.68304 0.0
H908 H 0.53703 0.02153 0.65652 0.0
C909 C 0.50992 0.46821 0.89493 0.0
C910 C 0.49716 0.48828 0.88726 0.0
C911 C 0.50478 0.46332 0.90999 0.0
C912 C 0.44546 0.4621 0.9395 0.0
H913 H 0.52178 0.46889 0.96466 0.0
C914 C 0.43334 0.45482 0.00253 0.0
C915 C 0.44858 0.4366 0.00987 0.0
C916 C 0.43831 0.46079 0.98749 0.0
C917 C 0.50001 0.46641 0.95776 0.0
H918 H 0.4697 0.51963 0.88953 0.0
H919 H 0.46089 0.51113 0.91582 0.0
H920 H 0.53364 0.48136 0.93869 0.0
H921 H 0.47926 0.40868 0.00715 0.0
H922 H 0.48743 0.41852 0.98092 0.0
H923 H 0.41169 0.4468 0.95854 0.0
C924 C 0.47453 0.49891 0.91012 0.0
C925 C 0.50687 0.47367 0.94289 0.0
C926 C 0.47984 0.50398 0.89507 0.0
C927 C 0.46771 0.42332 0.00181 0.0
C928 C 0.47252 0.42911 0.9868 0.0
C929 C 0.43853 0.45469 0.95438 0.0
C930 C 0.48663 0.47823 0.91772 0.0
C931 C 0.47965 0.47149 0.93359 0.0
C932 C 0.45846 0.44849 0.97949 0.0
C933 C 0.46569 0.45659 0.96368 0.0
H934 H 0.52337 0.45573 0.88927 0.0
H935 H 0.51415 0.44699 0.91553 0.0
H936 H 0.42378 0.45972 0.93256 0.0
H937 H 0.41878 0.46566 0.0085 0.0
H938 H 0.42738 0.47609 0.98222 0.0
C939 C 0.0011 0.55384 0.22336 0.0
C940 C 0.02105 0.54 0.21632 0.0
C941 C 0.00157 0.55671 0.23855 0.0
C942 C 0.02586 0.52322 0.2719 0.0
H943 H 0.01479 0.59928 0.29066 0.0
C944 C 0.04652 0.55666 0.3337 0.0
C945 C 0.0152 0.55269 0.34062 0.0
C946 C 0.04853 0.5566 0.31849 0.0
C947 C 0.01789 0.57795 0.2855 0.0
H948 H 0.05816 0.51954 0.21952 0.0
H949 H 0.06063 0.52631 0.24591 0.0
H950 H 0.01724 0.59728 0.26408 0.0
H951 H 0.9619 0.54644 0.33732 0.0
H952 H 0.96596 0.54759 0.31058 0.0
H953 H 0.02783 0.50495 0.29348 0.0
C954 C 0.04333 0.53355 0.23986 0.0
C955 C 0.019 0.57653 0.27029 0.0
C956 C 0.04216 0.5299 0.2247 0.0
C957 C 0.98625 0.54946 0.33215 0.0
C958 C 0.98862 0.55026 0.31695 0.0
C959 C 0.02556 0.52519 0.28709 0.0
C960 C 0.02268 0.54658 0.24703 0.0
C961 C 0.02268 0.54893 0.26326 0.0
C962 C 0.01961 0.55343 0.31003 0.0
C963 C 0.02127 0.55235 0.29398 0.0
H964 H 0.98435 0.56157 0.21716 0.0
H965 H 0.98474 0.56618 0.24363 0.0
H966 H 0.02788 0.50107 0.26697 0.0
H967 H 0.06904 0.55901 0.34006 0.0
H968 H 0.07267 0.5591 0.31332 0.0
loop_
_geom_bond_atom_site_label_1
_geom_bond_atom_site_label_2
_geom_bond_distance
_geom_bond_site_symmetry_2
_ccdc_geom_bond_type
O0 Zn1 1.951 . S
O0 C16 1.225 1_655 S
Zn1 O0 1.951 . S
Zn1 O2 1.934 1_655 S
Zn1 O8 1.945 . S
Zn1 O13 1.913 1_655 S
O2 Zn1 1.934 1_455 S
O2 Zn3 1.923 1_455 S
O2 Zn4 1.950 . S
O2 Zn5 1.945 . S
Zn3 O2 1.923 1_655 S
Zn3 O6 1.933 . S
Zn3 O9 1.941 . S
Zn3 O10 1.965 . S
Zn4 O2 1.950 . S
Zn4 O11 1.938 1_455 S
Zn4 O12 1.906 . S
Zn4 O22 1.953 . S
Zn5 O2 1.945 . S
Zn5 O7 1.932 . S
Zn5 O14 1.977 . S
Zn5 O15 1.910 . S
O6 Zn3 1.933 . S
O6 C17 1.226 1_655 S
O7 Zn5 1.932 . S
O7 C17 1.307 . S
O8 Zn1 1.945 . S
O8 C19 1.253 . S
O9 Zn3 1.941 . S
O9 C19 1.283 . S
O10 Zn3 1.965 . S
O10 C18 1.303 . S
O11 Zn4 1.938 1_655 S
O11 C18 1.247 . S
O12 Zn4 1.906 . S
O12 C20 1.304 . S
O13 Zn1 1.913 1_455 S
O13 C21 1.311 . S
O14 Zn5 1.977 . S
O14 C20 1.272 . S
O15 Zn5 1.910 . S
O15 C21 1.231 . S
C16 O0 1.225 1_455 S
C16 O22 1.298 . S
C17 O6 1.226 1_455 S
C17 O7 1.307 . S
C18 O10 1.303 . S
C18 O11 1.247 . S
C19 O8 1.253 . S
C19 O9 1.283 . S
C20 O12 1.304 . S
C20 O14 1.272 . S
C21 O13 1.311 . S
C21 O15 1.231 . S
O22 Zn4 1.953 . S
O22 C16 1.298 . S
O23 Zn24 1.953 . S
O23 C39 1.225 . S
Zn24 O23 1.953 . S
Zn24 O25 1.949 . S
Zn24 O31 1.919 . S
Zn24 O36 1.924 1_545 S
O25 Zn24 1.949 . S
O25 Zn26 1.923 . S
O25 Zn27 1.950 1_545 S
O25 Zn28 1.945 1_545 S
Zn26 O25 1.923 . S
Zn26 O29 1.933 . S
Zn26 O32 1.941 . S
Zn26 O33 1.965 . S
Zn27 O25 1.950 1_565 S
Zn27 O34 1.938 1_565 S
Zn27 O35 1.906 . S
Zn27 O45 1.953 . S
Zn28 O25 1.945 1_565 S
Zn28 O30 1.932 . S
Zn28 O37 1.977 . S
Zn28 O38 1.910 . S
O29 Zn26 1.933 . S
O29 C40 1.226 . S
O30 Zn28 1.932 . S
O30 C40 1.307 1_565 S
O31 Zn24 1.919 . S
O31 C42 1.253 . S
O32 Zn26 1.941 . S
O32 C42 1.283 . S
O33 Zn26 1.965 . S
O33 C41 1.303 . S
O34 Zn27 1.938 1_545 S
O34 C41 1.247 . S
O35 Zn27 1.906 . S
O35 C43 1.304 . S
O36 Zn24 1.924 1_565 S
O36 C44 1.311 . S
O37 Zn28 1.977 . S
O37 C43 1.272 . S
O38 Zn28 1.910 . S
O38 C44 1.231 . S
C39 O23 1.225 . S
C39 O45 1.298 1_545 S
C40 O29 1.226 . S
C40 O30 1.307 1_545 S
C41 O33 1.303 . S
C41 O34 1.247 . S
C42 O31 1.253 . S
C42 O32 1.283 . S
C43 O35 1.304 . S
C43 O37 1.272 . S
C44 O36 1.311 . S
C44 O38 1.231 . S
O45 Zn27 1.953 . S
O45 C39 1.298 1_565 S
O46 Zn47 1.953 . S
O46 C62 1.225 . S
Zn47 O46 1.953 . S
Zn47 O48 1.949 . S
Zn47 O54 1.919 . S
Zn47 O59 1.924 . S
O48 Zn47 1.949 . S
O48 Zn49 1.923 . S
O48 Zn50 1.950 . S
O48 Zn51 1.945 . S
Zn49 O48 1.923 . S
Zn49 O52 1.933 . S
Zn49 O55 1.941 . S
Zn49 O56 1.965 . S
Zn50 O48 1.950 . S
Zn50 O57 1.938 . S
Zn50 O58 1.906 . S
Zn50 O68 1.953 . S
Zn51 O48 1.945 . S
Zn51 O53 1.932 . S
Zn51 O60 1.977 . S
Zn51 O61 1.910 . S
O52 Zn49 1.933 . S
O52 C63 1.226 . S
O53 Zn51 1.932 . S
O53 C63 1.307 . S
O54 Zn47 1.919 . S
O54 C65 1.253 . S
O55 Zn49 1.941 . S
O55 C65 1.283 . S
O56 Zn49 1.965 . S
O56 C64 1.303 . S
O57 Zn50 1.938 . S
O57 C64 1.247 . S
O58 Zn50 1.906 . S
O58 C66 1.304 . S
O59 Zn47 1.924 . S
O59 C67 1.311 . S
O60 Zn51 1.977 . S
O60 C66 1.272 . S
O61 Zn51 1.910 . S
O61 C67 1.231 . S
C62 O46 1.225 . S
C62 O68 1.298 . S
C63 O52 1.226 . S
C63 O53 1.307 . S
C64 O56 1.303 . S
C64 O57 1.247 . S
C65 O54 1.253 . S
C65 O55 1.283 . S
C66 O58 1.304 . S
C66 O60 1.272 . S
C67 O59 1.311 . S
C67 O61 1.231 . S
O68 Zn50 1.953 . S
O68 C62 1.298 . S
C69 C70 1.391 . S
C69 C73 1.391 . S
C69 H111 0.948 . S
C70 C69 1.391 . S
C70 C71 1.391 . S
C71 C70 1.391 . S
C71 H127 0.947 . S
C71 C128 1.392 . S
C72 C73 1.391 . S
C72 C76 1.397 . S
C72 C128 1.419 . S
C73 C69 1.391 . S
C73 C72 1.391 . S
C73 C74 1.399 . S
C74 C73 1.399 . S
C74 C77 1.396 . S
C74 C86 1.453 . S
C74 C87 1.684 . S
H75 C99 0.948 . S
C76 C72 1.397 . S
C76 C77 1.394 . S
C76 C95 1.723 . S
C77 C74 1.396 . S
C77 C76 1.394 . S
C77 C107 1.723 1_545 S
H78 C101 0.947 . S
H79 C102 0.948 . S
H80 C108 0.982 . S
H81 C109 0.979 . S
H82 C109 0.980 . S
H83 C109 0.983 . S
H84 C108 0.979 . S
H85 C108 0.977 . S
C86 C74 1.453 . S
C86 H115 0.982 . S
C86 H116 0.979 . S
C86 H117 0.977 1_545 S
C87 C74 1.684 . S
C87 H112 0.979 . S
C87 H113 0.980 . S
C87 H114 0.983 . S
C88 C89 1.391 . S
C88 C93 1.391 . S
C88 H118 0.948 . S
C89 C88 1.391 . S
C89 C90 1.391 1_545 S
C90 C89 1.391 1_565 S
C90 C91 1.392 . S
C90 H119 0.947 . S
C91 C90 1.392 . S
C91 C92 1.417 1_565 S
C91 H120 0.948 . S
C92 C91 1.417 1_545 S
C92 C93 1.395 . S
C92 C96 1.397 . S
C93 C88 1.391 . S
C93 C92 1.395 . S
C93 C94 1.399 . S
C94 C93 1.399 . S
C94 C95 1.396 . S
C94 C97 1.453 . S
C94 C98 1.684 . S
C95 C76 1.723 . S
C95 C94 1.396 . S
C95 C96 1.394 . S
C96 C92 1.397 . S
C96 C95 1.394 . S
C96 C106 1.723 1_545 S
C97 C94 1.453 . S
C97 H121 0.982 . S
C97 H122 0.979 . S
C97 H123 0.977 . S
C98 C94 1.684 . S
C98 H124 0.979 . S
C98 H125 0.980 . S
C98 H126 0.983 . S
C99 H75 0.948 . S
C99 C100 1.391 . S
C99 C104 1.391 . S
C100 C99 1.391 . S
C100 C101 1.391 . S
C101 H78 0.947 . S
C101 C100 1.391 . S
C101 C102 1.392 . S
C102 H79 0.948 . S
C102 C101 1.392 . S
C102 C103 1.419 . S
C103 C102 1.419 . S
C103 C104 1.391 . S
C103 C107 1.397 . S
C104 C99 1.391 . S
C104 C103 1.391 . S
C104 C105 1.399 . S
C105 C104 1.399 . S
C105 C106 1.396 . S
C105 C108 1.453 . S
C105 C109 1.684 . S
C106 C96 1.723 1_565 S
C106 C105 1.396 . S
C106 C107 1.394 . S
C107 C77 1.723 1_565 S
C107 C103 1.397 . S
C107 C106 1.394 . S
C108 H80 0.982 . S
C108 H84 0.979 . S
C108 H85 0.977 . S
C108 C105 1.453 . S
C109 H81 0.979 . S
C109 H82 0.980 . S
C109 H83 0.983 . S
C109 C105 1.684 . S
H110 C128 0.948 . S
H111 C69 0.948 . S
H112 C87 0.979 . S
H113 C87 0.980 . S
H114 C87 0.983 . S
H115 C86 0.982 . S
H116 C86 0.979 . S
H117 C86 0.977 1_565 S
H118 C88 0.948 . S
H119 C90 0.947 . S
H120 C91 0.948 . S
H121 C97 0.982 . S
H122 C97 0.979 . S
H123 C97 0.977 . S
H124 C98 0.979 . S
H125 C98 0.980 . S
H126 C98 0.983 . S
H127 C71 0.947 . S
C128 C71 1.392 . S
C128 C72 1.419 . S
C128 H110 0.948 . S
C129 C130 1.391 . S
C129 C133 1.391 . S
C129 H171 0.948 . S
C130 C129 1.391 . S
C130 C131 1.391 . S
C131 C130 1.391 . S
C131 H187 0.947 . S
C131 C188 1.392 . S
C132 C133 1.391 . S
C132 C136 1.397 . S
C132 C188 1.419 . S
C133 C129 1.391 . S
C133 C132 1.391 . S
C133 C134 1.399 . S
C134 C133 1.399 . S
C134 C137 1.396 . S
C134 C146 1.453 . S
C134 C147 1.684 . S
H135 C159 0.948 . S
C136 C132 1.397 . S
C136 C137 1.394 . S
C136 C155 1.723 . S
C137 C134 1.396 . S
C137 C136 1.394 . S
C137 C167 1.723 . S
H138 C161 0.947 . S
H139 C162 0.948 . S
H140 C168 0.982 . S
H141 C169 0.979 . S
H142 C169 0.980 . S
H143 C169 0.983 . S
H144 C168 0.979 . S
H145 C168 0.977 . S
C146 C134 1.453 . S
C146 H175 0.982 . S
C146 H176 0.979 . S
C146 H177 0.977 . S
C147 C134 1.684 . S
C147 H172 0.979 . S
C147 H173 0.980 . S
C147 H174 0.983 . S
C148 C149 1.391 . S
C148 C153 1.391 . S
C148 H178 0.948 . S
C149 C148 1.391 . S
C149 C150 1.391 . S
C150 C149 1.391 . S
C150 C151 1.392 . S
C150 H179 0.947 . S
C151 C150 1.392 . S
C151 C152 1.419 . S
C151 H180 0.948 . S
C152 C151 1.419 . S
C152 C153 1.391 . S
C152 C156 1.397 . S
C153 C148 1.391 . S
C153 C152 1.391 . S
C153 C154 1.399 . S
C154 C153 1.399 . S
C154 C155 1.396 . S
C154 C157 1.453 . S
C154 C158 1.684 . S
C155 C136 1.723 . S
C155 C154 1.396 . S
C155 C156 1.394 . S
C156 C152 1.397 . S
C156 C155 1.394 . S
C156 C166 1.723 . S
C157 C154 1.453 . S
C157 H181 0.982 . S
C157 H182 0.979 . S
C157 H183 0.977 . S
C158 C154 1.684 . S
C158 H184 0.979 . S
C158 H185 0.980 . S
C158 H186 0.983 . S
C159 H135 0.948 . S
C159 C160 1.391 . S
C159 C164 1.391 . S
C160 C159 1.391 . S
C160 C161 1.391 . S
C161 H138 0.947 . S
C161 C160 1.391 . S
C161 C162 1.392 . S
C162 H139 0.948 . S
C162 C161 1.392 . S
C162 C163 1.419 . S
C163 C162 1.419 . S
C163 C164 1.391 . S
C163 C167 1.397 . S
C164 C159 1.391 . S
C164 C163 1.391 . S
C164 C165 1.399 . S
C165 C164 1.399 . S
C165 C166 1.396 . S
C165 C168 1.453 . S
C165 C169 1.684 . S
C166 C156 1.723 . S
C166 C165 1.396 . S
C166 C167 1.394 . S
C167 C137 1.723 . S
C167 C163 1.397 . S
C167 C166 1.394 . S
C168 H140 0.982 . S
C168 H144 0.979 . S
C168 H145 0.977 . S
C168 C165 1.453 . S
C169 H141 0.979 . S
C169 H142 0.980 . S
C169 H143 0.983 . S
C169 C165 1.684 . S
H170 C188 0.948 . S
H171 C129 0.948 . S
H172 C147 0.979 . S
H173 C147 0.980 . S
H174 C147 0.983 . S
H175 C146 0.982 . S
H176 C146 0.979 . S
H177 C146 0.977 . S
H178 C148 0.948 . S
H179 C150 0.947 . S
H180 C151 0.948 . S
H181 C157 0.982 . S
H182 C157 0.979 . S
H183 C157 0.977 . S
H184 C158 0.979 . S
H185 C158 0.980 . S
H186 C158 0.983 . S
H187 C131 0.947 . S
C188 C131 1.392 . S
C188 C132 1.419 . S
C188 H170 0.948 . S
C189 C190 1.391 . S
C189 C193 1.391 . S
C189 H231 0.948 . S
C190 C189 1.391 . S
C190 C191 1.391 . S
C191 C190 1.391 . S
C191 H247 0.947 . S
C191 C248 1.392 . S
C192 C193 1.391 . S
C192 C196 1.397 . S
C192 C248 1.419 . S
C193 C189 1.391 . S
C193 C192 1.391 . S
C193 C194 1.399 . S
C194 C193 1.399 . S
C194 C197 1.396 . S
C194 C206 1.453 . S
C194 C207 1.684 . S
H195 C219 0.948 . S
C196 C192 1.397 . S
C196 C197 1.394 . S
C196 C215 1.723 . S
C197 C194 1.396 . S
C197 C196 1.394 . S
C197 C227 1.723 1_455 S
H198 C221 0.947 . S
H199 C222 0.948 . S
H200 C228 0.982 . S
H201 C229 0.979 . S
H202 C229 0.980 . S
H203 C229 0.983 . S
H204 C228 0.979 . S
H205 C228 0.977 . S
C206 C194 1.453 . S
C206 H235 0.982 . S
C206 H236 0.979 . S
C206 H237 0.977 . S
C207 C194 1.684 . S
C207 H232 0.979 . S
C207 H233 0.980 . S
C207 H234 0.983 . S
C208 C209 1.391 . S
C208 C213 1.391 . S
C208 H238 0.948 . S
C209 C208 1.391 . S
C209 C210 1.391 1_455 S
C210 C209 1.391 1_655 S
C210 C211 1.392 . S
C210 H239 0.947 . S
C211 C210 1.392 . S
C211 C212 1.419 1_655 S
C211 H240 0.948 . S
C212 C211 1.419 1_455 S
C212 C213 1.391 . S
C212 C216 1.397 . S
C213 C208 1.391 . S
C213 C212 1.391 . S
C213 C214 1.399 . S
C214 C213 1.399 . S
C214 C215 1.396 . S
C214 C217 1.453 . S
C214 C218 1.684 . S
C215 C196 1.723 . S
C215 C214 1.396 . S
C215 C216 1.394 . S
C216 C212 1.397 . S
C216 C215 1.394 . S
C216 C226 1.723 1_455 S
C217 C214 1.453 . S
C217 H241 0.982 . S
C217 H242 0.979 . S
C217 H243 0.977 . S
C218 C214 1.684 . S
C218 H244 0.979 . S
C218 H245 0.980 . S
C218 H246 0.983 . S
C219 H195 0.948 . S
C219 C220 1.391 . S
C219 C224 1.391 . S
C220 C219 1.391 . S
C220 C221 1.391 . S
C221 H198 0.947 . S
C221 C220 1.391 . S
C221 C222 1.392 . S
C222 H199 0.948 . S
C222 C221 1.392 . S
C222 C223 1.419 . S
C223 C222 1.419 . S
C223 C224 1.391 . S
C223 C227 1.397 . S
C224 C219 1.391 . S
C224 C223 1.391 . S
C224 C225 1.399 . S
C225 C224 1.399 . S
C225 C226 1.396 . S
C225 C228 1.453 . S
C225 C229 1.684 . S
C226 C216 1.723 1_655 S
C226 C225 1.396 . S
C226 C227 1.394 . S
C227 C197 1.723 1_655 S
C227 C223 1.397 . S
C227 C226 1.394 . S
C228 H200 0.982 . S
C228 H204 0.979 . S
C228 H205 0.977 . S
C228 C225 1.453 . S
C229 H201 0.979 . S
C229 H202 0.980 . S
C229 H203 0.983 . S
C229 C225 1.684 . S
H230 C248 0.948 . S
H231 C189 0.948 . S
H232 C207 0.979 . S
H233 C207 0.980 . S
H234 C207 0.983 . S
H235 C206 0.982 . S
H236 C206 0.979 . S
H237 C206 0.977 . S
H238 C208 0.948 . S
H239 C210 0.947 . S
H240 C211 0.948 . S
H241 C217 0.982 . S
H242 C217 0.979 . S
H243 C217 0.977 . S
H244 C218 0.979 . S
H245 C218 0.980 . S
H246 C218 0.983 . S
H247 C191 0.947 . S
C248 C191 1.392 . S
C248 C192 1.419 . S
C248 H230 0.948 . S
C249 C250 1.391 . S
C249 C253 1.391 . S
C249 H291 0.948 . S
C250 C249 1.391 . S
C250 C251 1.391 . S
C251 C250 1.391 . S
C251 H307 0.947 . S
C251 C308 1.392 . S
C252 C253 1.391 . S
C252 C256 1.397 . S
C252 C308 1.419 . S
C253 C249 1.391 . S
C253 C252 1.391 . S
C253 C254 1.399 . S
C254 C253 1.399 . S
C254 C257 1.396 . S
C254 C266 1.453 . S
C254 C267 1.684 . S
H255 C279 0.948 . S
C256 C252 1.397 . S
C256 C257 1.394 . S
C256 C275 1.723 . S
C257 C254 1.396 . S
C257 C256 1.394 . S
C257 C287 1.723 1_655 S
H258 C281 0.947 . S
H259 C282 0.948 . S
H260 C288 0.982 . S
H261 C289 0.979 . S
H262 C289 0.980 . S
H263 C289 0.983 . S
H264 C288 0.979 . S
H265 C288 0.977 . S
C266 C254 1.453 . S
C266 H295 0.982 1_655 S
C266 H296 0.979 . S
C266 H297 0.977 1_655 S
C267 C254 1.684 . S
C267 H292 0.979 . S
C267 H293 0.980 . S
C267 H294 0.983 . S
C268 C269 1.391 1_655 S
C268 C273 1.391 . S
C268 H298 0.948 . S
C269 C268 1.391 1_455 S
C269 C270 1.391 . S
C270 C269 1.391 . S
C270 C271 1.392 . S
C270 H299 0.947 . S
C271 C270 1.392 . S
C271 C272 1.419 . S
C271 H300 0.948 . S
C272 C271 1.419 . S
C272 C273 1.391 1_455 S
C272 C276 1.397 . S
C273 C268 1.391 . S
C273 C272 1.391 1_655 S
C273 C274 1.399 . S
C274 C273 1.399 . S
C274 C275 1.396 . S
C274 C277 1.453 . S
C274 C278 1.684 . S
C275 C256 1.723 . S
C275 C274 1.396 . S
C275 C276 1.394 1_655 S
C276 C272 1.397 . S
C276 C275 1.394 1_455 S
C276 C286 1.723 . S
C277 C274 1.453 . S
C277 H301 0.982 . S
C277 H302 0.979 . S
C277 H303 0.977 . S
C278 C274 1.684 . S
C278 H304 0.979 . S
C278 H305 0.980 . S
C278 H306 0.983 . S
C279 H255 0.948 . S
C279 C280 1.391 . S
C279 C284 1.391 . S
C280 C279 1.391 . S
C280 C281 1.391 . S
C281 H258 0.947 . S
C281 C280 1.391 . S
C281 C282 1.392 . S
C282 H259 0.948 . S
C282 C281 1.392 . S
C282 C283 1.419 . S
C283 C282 1.419 . S
C283 C284 1.391 . S
C283 C287 1.397 . S
C284 C279 1.391 . S
C284 C283 1.391 . S
C284 C285 1.399 . S
C285 C284 1.399 . S
C285 C286 1.396 . S
C285 C288 1.453 . S
C285 C289 1.684 . S
C286 C276 1.723 . S
C286 C285 1.396 . S
C286 C287 1.394 . S
C287 C257 1.723 1_455 S
C287 C283 1.397 . S
C287 C286 1.394 . S
C288 H260 0.982 . S
C288 H264 0.979 . S
C288 H265 0.977 . S
C288 C285 1.453 . S
C289 H261 0.979 . S
C289 H262 0.980 . S
C289 H263 0.983 . S
C289 C285 1.684 . S
H290 C308 0.948 . S
H291 C249 0.948 . S
H292 C267 0.979 . S
H293 C267 0.980 . S
H294 C267 0.983 . S
H295 C266 0.982 1_455 S
H296 C266 0.979 . S
H297 C266 0.977 1_455 S
H298 C268 0.948 . S
H299 C270 0.947 . S
H300 C271 0.948 . S
H301 C277 0.982 . S
H302 C277 0.979 . S
H303 C277 0.977 . S
H304 C278 0.979 . S
H305 C278 0.980 . S
H306 C278 0.983 . S
H307 C251 0.947 . S
C308 C251 1.392 . S
C308 C252 1.419 . S
C308 H290 0.948 . S
C309 C310 1.391 . S
C309 C313 1.391 . S
C309 H351 0.948 . S
C310 C309 1.391 . S
C310 C311 1.391 . S
C311 C310 1.391 . S
C311 H367 0.947 . S
C311 C368 1.392 . S
C312 C313 1.391 . S
C312 C316 1.397 . S
C312 C368 1.419 . S
C313 C309 1.391 . S
C313 C312 1.391 . S
C313 C314 1.399 . S
C314 C313 1.399 . S
C314 C317 1.396 . S
C314 C326 1.453 . S
C314 C327 1.684 . S
H315 C339 0.948 . S
C316 C312 1.397 . S
C316 C317 1.394 . S
C316 C335 1.723 . S
C317 C314 1.396 . S
C317 C316 1.394 . S
C317 C347 1.723 1_565 S
H318 C341 0.947 . S
H319 C342 0.948 . S
H320 C348 0.982 . S
H321 C349 0.979 . S
H322 C349 0.980 . S
H323 C349 0.983 . S
H324 C348 0.979 . S
H325 C348 0.977 . S
C326 C314 1.453 . S
C326 H355 0.982 1_565 S
C326 H356 0.979 . S
C326 H357 0.977 1_565 S
C327 C314 1.684 . S
C327 H352 0.979 . S
C327 H353 0.980 . S
C327 H354 0.983 . S
C328 C329 1.391 1_565 S
C328 C333 1.391 . S
C328 H358 0.948 . S
C329 C328 1.391 1_545 S
C329 C330 1.391 . S
C330 C329 1.391 . S
C330 C331 1.392 . S
C330 H359 0.947 . S
C331 C330 1.392 . S
C331 C332 1.419 . S
C331 H360 0.948 . S
C332 C331 1.419 . S
C332 C333 1.391 1_545 S
C332 C336 1.397 . S
C333 C328 1.391 . S
C333 C332 1.391 1_565 S
C333 C334 1.399 . S
C334 C333 1.399 . S
C334 C335 1.396 . S
C334 C337 1.453 . S
C334 C338 1.684 . S
C335 C316 1.723 . S
C335 C334 1.396 . S
C335 C336 1.394 1_565 S
C336 C332 1.397 . S
C336 C335 1.394 1_545 S
C336 C346 1.723 . S
C337 C334 1.453 . S
C337 H361 0.982 . S
C337 H362 0.979 . S
C337 H363 0.977 . S
C338 C334 1.684 . S
C338 H364 0.979 . S
C338 H365 0.980 . S
C338 H366 0.983 . S
C339 H315 0.948 . S
C339 C340 1.391 . S
C339 C344 1.391 . S
C340 C339 1.391 . S
C340 C341 1.391 . S
C341 H318 0.947 . S
C341 C340 1.391 . S
C341 C342 1.392 . S
C342 H319 0.948 . S
C342 C341 1.392 . S
C342 C343 1.419 . S
C343 C342 1.419 . S
C343 C344 1.391 . S
C343 C347 1.397 . S
C344 C339 1.391 . S
C344 C343 1.391 . S
C344 C345 1.399 . S
C345 C344 1.399 . S
C345 C346 1.396 . S
C345 C348 1.453 . S
C345 C349 1.684 . S
C346 C336 1.723 . S
C346 C345 1.396 . S
C346 C347 1.394 . S
C347 C317 1.723 1_545 S
C347 C343 1.397 . S
C347 C346 1.394 . S
C348 H320 0.982 . S
C348 H324 0.979 . S
C348 H325 0.977 . S
C348 C345 1.453 . S
C349 H321 0.979 . S
C349 H322 0.980 . S
C349 H323 0.983 . S
C349 C345 1.684 . S
H350 C368 0.948 . S
H351 C309 0.948 . S
H352 C327 0.979 . S
H353 C327 0.980 . S
H354 C327 0.983 . S
H355 C326 0.982 1_545 S
H356 C326 0.979 . S
H357 C326 0.977 1_545 S
H358 C328 0.948 . S
H359 C330 0.947 . S
H360 C331 0.948 . S
H361 C337 0.982 . S
H362 C337 0.979 . S
H363 C337 0.977 . S
H364 C338 0.979 . S
H365 C338 0.980 . S
H366 C338 0.983 . S
H367 C311 0.947 . S
C368 C311 1.392 . S
C368 C312 1.419 . S
C368 H350 0.948 . S
C369 C370 1.391 . S
C369 C373 1.391 . S
C369 H411 0.948 . S
C370 C369 1.391 . S
C370 C371 1.391 . S
C371 C370 1.391 . S
C371 H427 0.947 . S
C371 C428 1.392 . S
C372 C373 1.391 . S
C372 C376 1.397 . S
C372 C428 1.419 . S
C373 C369 1.391 . S
C373 C372 1.391 . S
C373 C374 1.399 . S
C374 C373 1.399 . S
C374 C377 1.396 . S
C374 C386 1.453 . S
C374 C387 1.684 . S
H375 C399 0.948 . S
C376 C372 1.397 . S
C376 C377 1.394 . S
C376 C395 1.723 . S
C377 C374 1.396 . S
C377 C376 1.394 . S
C377 C407 1.723 . S
H378 C401 0.947 . S
H379 C402 0.948 . S
H380 C408 0.982 . S
H381 C409 0.979 . S
H382 C409 0.980 . S
H383 C409 0.983 . S
H384 C408 0.979 . S
H385 C408 0.977 . S
C386 C374 1.453 . S
C386 H415 0.982 . S
C386 H416 0.979 . S
C386 H417 0.977 . S
C387 C374 1.684 . S
C387 H412 0.979 . S
C387 H413 0.980 . S
C387 H414 0.983 . S
C388 C389 1.391 . S
C388 C393 1.391 . S
C388 H418 0.948 . S
C389 C388 1.391 . S
C389 C390 1.391 . S
C390 C389 1.391 . S
C390 C391 1.392 . S
C390 H419 0.947 . S
C391 C390 1.392 . S
C391 C392 1.419 . S
C391 H420 0.948 . S
C392 C391 1.419 . S
C392 C393 1.391 . S
C392 C396 1.397 . S
C393 C388 1.391 . S
C393 C392 1.391 . S
C393 C394 1.399 . S
C394 C393 1.399 . S
C394 C395 1.396 . S
C394 C397 1.453 . S
C394 C398 1.684 . S
C395 C376 1.723 . S
C395 C394 1.396 . S
C395 C396 1.394 . S
C396 C392 1.397 . S
C396 C395 1.394 . S
C396 C406 1.723 . S
C397 C394 1.453 . S
C397 H421 0.982 . S
C397 H422 0.979 . S
C397 H423 0.977 . S
C398 C394 1.684 . S
C398 H424 0.979 . S
C398 H425 0.980 . S
C398 H426 0.983 . S
C399 H375 0.948 . S
C399 C400 1.391 . S
C399 C404 1.391 . S
C400 C399 1.391 . S
C400 C401 1.391 . S
C401 H378 0.947 . S
C401 C400 1.391 . S
C401 C402 1.392 . S
C402 H379 0.948 . S
C402 C401 1.392 . S
C402 C403 1.419 . S
C403 C402 1.419 . S
C403 C404 1.391 . S
C403 C407 1.397 . S
C404 C399 1.391 . S
C404 C403 1.391 . S
C404 C405 1.399 . S
C405 C404 1.399 . S
C405 C406 1.396 . S
C405 C408 1.453 . S
C405 C409 1.684 . S
C406 C396 1.723 . S
C406 C405 1.396 . S
C406 C407 1.394 . S
C407 C377 1.723 . S
C407 C403 1.397 . S
C407 C406 1.394 . S
C408 H380 0.982 . S
C408 H384 0.979 . S
C408 H385 0.977 . S
C408 C405 1.453 . S
C409 H381 0.979 . S
C409 H382 0.980 . S
C409 H383 0.983 . S
C409 C405 1.684 . S
H410 C428 0.948 . S
H411 C369 0.948 . S
H412 C387 0.979 . S
H413 C387 0.980 . S
H414 C387 0.983 . S
H415 C386 0.982 . S
H416 C386 0.979 . S
H417 C386 0.977 . S
H418 C388 0.948 . S
H419 C390 0.947 . S
H420 C391 0.948 . S
H421 C397 0.982 . S
H422 C397 0.979 . S
H423 C397 0.977 . S
H424 C398 0.979 . S
H425 C398 0.980 . S
H426 C398 0.983 . S
H427 C371 0.947 . S
C428 C371 1.392 . S
C428 C372 1.419 . S
C428 H410 0.948 . S
C429 C430 1.349 . S
C429 C431 1.327 . S
C429 H454 0.950 . S
C430 C429 1.349 . S
C430 C446 1.349 . S
C431 C429 1.327 . S
C431 C450 1.429 . S
C431 H455 0.950 . S
C432 C449 1.574 . S
C432 C451 1.368 . S
C432 H456 0.949 . S
H433 C437 0.949 . S
C434 C435 1.349 . S
C434 C436 1.327 . S
C434 H457 0.950 . S
C435 C434 1.349 . S
C435 C447 1.349 . S
C436 C434 1.327 . S
C436 C452 1.429 . S
C436 H458 0.950 . S
C437 H433 0.949 . S
C437 C445 1.574 . S
C437 C453 1.368 . S
H438 C446 0.950 . S
H439 C444 0.950 . S
H440 C445 0.949 . S
H441 C447 0.950 . S
H442 C448 0.950 . S
H443 C449 0.949 . S
C444 H439 0.950 . S
C444 C446 1.327 . S
C444 C450 1.429 . S
C445 C437 1.574 . S
C445 H440 0.949 . S
C445 C451 1.368 . S
C446 C430 1.349 . S
C446 H438 0.950 . S
C446 C444 1.327 . S
C447 C435 1.349 . S
C447 H441 0.950 . S
C447 C448 1.327 . S
C448 H442 0.950 . S
C448 C447 1.327 . S
C448 C452 1.429 . S
C449 C432 1.574 . S
C449 H443 0.949 . S
C449 C453 1.368 . S
C450 C431 1.429 . S
C450 C444 1.429 . S
C450 C451 1.523 . S
C451 C432 1.368 . S
C451 C445 1.368 . S
C451 C450 1.523 . S
C452 C436 1.429 . S
C452 C448 1.429 . S
C452 C453 1.523 . S
C453 C437 1.368 . S
C453 C449 1.368 . S
C453 C452 1.523 . S
H454 C429 0.950 . S
H455 C431 0.950 . S
H456 C432 0.949 . S
H457 C434 0.950 . S
H458 C436 0.950 . S
C459 C460 1.349 . S
C459 C461 1.327 . S
C459 H484 0.950 . S
C460 C459 1.349 . S
C460 C476 1.349 . S
C461 C459 1.327 . S
C461 C480 1.429 . S
C461 H485 0.950 . S
C462 C479 1.574 . S
C462 C481 1.368 . S
C462 H486 0.949 . S
H463 C467 0.949 . S
C464 C465 1.349 . S
C464 C466 1.327 . S
C464 H487 0.950 . S
C465 C464 1.349 . S
C465 C477 1.349 . S
C466 C464 1.327 . S
C466 C482 1.429 . S
C466 H488 0.950 . S
C467 H463 0.949 . S
C467 C475 1.574 . S
C467 C483 1.368 . S
H468 C476 0.950 . S
H469 C474 0.950 . S
H470 C475 0.949 . S
H471 C477 0.950 . S
H472 C478 0.950 . S
H473 C479 0.949 . S
C474 H469 0.950 . S
C474 C476 1.327 . S
C474 C480 1.429 . S
C475 C467 1.574 . S
C475 H470 0.949 . S
C475 C481 1.368 . S
C476 C460 1.349 . S
C476 H468 0.950 . S
C476 C474 1.327 . S
C477 C465 1.349 . S
C477 H471 0.950 . S
C477 C478 1.327 . S
C478 H472 0.950 . S
C478 C477 1.327 . S
C478 C482 1.429 . S
C479 C462 1.574 . S
C479 H473 0.949 . S
C479 C483 1.368 . S
C480 C461 1.429 . S
C480 C474 1.429 . S
C480 C481 1.523 . S
C481 C462 1.368 . S
C481 C475 1.368 . S
C481 C480 1.523 . S
C482 C466 1.429 . S
C482 C478 1.429 . S
C482 C483 1.523 . S
C483 C467 1.368 . S
C483 C479 1.368 . S
C483 C482 1.523 . S
H484 C459 0.950 . S
H485 C461 0.950 . S
H486 C462 0.949 . S
H487 C464 0.950 . S
H488 C466 0.950 . S
C489 C490 1.349 . S
C489 C491 1.327 . S
C489 H514 0.950 . S
C490 C489 1.349 . S
C490 C506 1.349 . S
C491 C489 1.327 . S
C491 C510 1.429 . S
C491 H515 0.950 . S
C492 C509 1.574 . S
C492 C511 1.368 . S
C492 H516 0.949 . S
H493 C497 0.949 . S
C494 C495 1.349 . S
C494 C496 1.327 . S
C494 H517 0.950 . S
C495 C494 1.349 . S
C495 C507 1.349 . S
C496 C494 1.327 . S
C496 C512 1.429 . S
C496 H518 0.950 . S
C497 H493 0.949 . S
C497 C505 1.574 . S
C497 C513 1.368 . S
H498 C506 0.950 . S
H499 C504 0.950 . S
H500 C505 0.949 . S
H501 C507 0.950 . S
H502 C508 0.950 . S
H503 C509 0.949 . S
C504 H499 0.950 . S
C504 C506 1.327 . S
C504 C510 1.429 . S
C505 C497 1.574 . S
C505 H500 0.949 . S
C505 C511 1.368 . S
C506 C490 1.349 . S
C506 H498 0.950 . S
C506 C504 1.327 . S
C507 C495 1.349 . S
C507 H501 0.950 . S
C507 C508 1.327 . S
C508 H502 0.950 . S
C508 C507 1.327 . S
C508 C512 1.429 . S
C509 C492 1.574 . S
C509 H503 0.949 . S
C509 C513 1.368 . S
C510 C491 1.429 . S
C510 C504 1.429 . S
C510 C511 1.523 . S
C511 C492 1.368 . S
C511 C505 1.368 . S
C511 C510 1.523 . S
C512 C496 1.429 . S
C512 C508 1.429 . S
C512 C513 1.523 . S
C513 C497 1.368 . S
C513 C509 1.368 . S
C513 C512 1.523 . S
H514 C489 0.950 . S
H515 C491 0.950 . S
H516 C492 0.949 . S
H517 C494 0.950 . S
H518 C496 0.950 . S
C519 C520 1.349 . S
C519 C521 1.327 . S
C519 H544 0.950 . S
C520 C519 1.349 . S
C520 C536 1.349 . S
C521 C519 1.327 . S
C521 C540 1.429 . S
C521 H545 0.950 . S
C522 C539 1.574 . S
C522 C541 1.368 . S
C522 H546 0.949 . S
H523 C527 0.949 . S
C524 C525 1.349 . S
C524 C526 1.327 . S
C524 H547 0.950 . S
C525 C524 1.349 . S
C525 C537 1.349 . S
C526 C524 1.327 . S
C526 C542 1.429 . S
C526 H548 0.950 . S
C527 H523 0.949 . S
C527 C535 1.574 . S
C527 C543 1.368 . S
H528 C536 0.950 . S
H529 C534 0.950 . S
H530 C535 0.949 . S
H531 C537 0.950 . S
H532 C538 0.950 . S
H533 C539 0.949 . S
C534 H529 0.950 . S
C534 C536 1.327 . S
C534 C540 1.429 . S
C535 C527 1.574 . S
C535 H530 0.949 . S
C535 C541 1.368 . S
C536 C520 1.349 . S
C536 H528 0.950 . S
C536 C534 1.327 . S
C537 C525 1.349 . S
C537 H531 0.950 . S
C537 C538 1.327 . S
C538 H532 0.950 . S
C538 C537 1.327 . S
C538 C542 1.429 . S
C539 C522 1.574 . S
C539 H533 0.949 . S
C539 C543 1.368 . S
C540 C521 1.429 . S
C540 C534 1.429 . S
C540 C541 1.523 . S
C541 C522 1.368 . S
C541 C535 1.368 . S
C541 C540 1.523 . S
C542 C526 1.429 . S
C542 C538 1.429 . S
C542 C543 1.523 . S
C543 C527 1.368 . S
C543 C539 1.368 . S
C543 C542 1.523 . S
H544 C519 0.950 . S
H545 C521 0.950 . S
H546 C522 0.949 . S
H547 C524 0.950 . S
H548 C526 0.950 . S
C549 C550 1.349 . S
C549 C551 1.327 . S
C549 H574 0.950 . S
C550 C549 1.349 . S
C550 C566 1.349 . S
C551 C549 1.327 . S
C551 C570 1.429 . S
C551 H575 0.950 . S
C552 C569 1.574 . S
C552 C571 1.368 . S
C552 H576 0.949 . S
H553 C557 0.949 . S
C554 C555 1.349 . S
C554 C556 1.327 . S
C554 H577 0.950 . S
C555 C554 1.349 . S
C555 C567 1.349 . S
C556 C554 1.327 . S
C556 C572 1.429 . S
C556 H578 0.950 . S
C557 H553 0.949 . S
C557 C565 1.574 . S
C557 C573 1.368 . S
H558 C566 0.950 . S
H559 C564 0.950 . S
H560 C565 0.949 . S
H561 C567 0.950 . S
H562 C568 0.950 . S
H563 C569 0.949 . S
C564 H559 0.950 . S
C564 C566 1.327 . S
C564 C570 1.429 . S
C565 C557 1.574 . S
C565 H560 0.949 . S
C565 C571 1.368 . S
C566 C550 1.349 . S
C566 H558 0.950 . S
C566 C564 1.327 . S
C567 C555 1.349 . S
C567 H561 0.950 . S
C567 C568 1.327 . S
C568 H562 0.950 . S
C568 C567 1.327 . S
C568 C572 1.429 . S
C569 C552 1.574 . S
C569 H563 0.949 . S
C569 C573 1.368 . S
C570 C551 1.429 . S
C570 C564 1.429 . S
C570 C571 1.523 . S
C571 C552 1.368 . S
C571 C565 1.368 . S
C571 C570 1.523 . S
C572 C556 1.429 . S
C572 C568 1.429 . S
C572 C573 1.523 . S
C573 C557 1.368 . S
C573 C569 1.368 . S
C573 C572 1.523 . S
H574 C549 0.950 . S
H575 C551 0.950 . S
H576 C552 0.949 . S
H577 C554 0.950 . S
H578 C556 0.950 . S
C579 C580 1.349 . S
C579 C581 1.327 . S
C579 H604 0.950 . S
C580 C579 1.349 . S
C580 C596 1.349 . S
C581 C579 1.327 . S
C581 C600 1.429 . S
C581 H605 0.950 . S
C582 C599 1.574 . S
C582 C601 1.368 . S
C582 H606 0.949 . S
H583 C587 0.949 . S
C584 C585 1.349 . S
C584 C586 1.327 . S
C584 H607 0.950 . S
C585 C584 1.349 . S
C585 C597 1.349 . S
C586 C584 1.327 . S
C586 C602 1.429 . S
C586 H608 0.950 . S
C587 H583 0.949 . S
C587 C595 1.574 . S
C587 C603 1.368 . S
H588 C596 0.950 . S
H589 C594 0.950 . S
H590 C595 0.949 . S
H591 C597 0.950 . S
H592 C598 0.950 . S
H593 C599 0.949 . S
C594 H589 0.950 . S
C594 C596 1.327 . S
C594 C600 1.429 . S
C595 C587 1.574 . S
C595 H590 0.949 . S
C595 C601 1.368 . S
C596 C580 1.349 . S
C596 H588 0.950 . S
C596 C594 1.327 . S
C597 C585 1.349 . S
C597 H591 0.950 . S
C597 C598 1.327 . S
C598 H592 0.950 . S
C598 C597 1.327 . S
C598 C602 1.429 . S
C599 C582 1.574 . S
C599 H593 0.949 . S
C599 C603 1.368 . S
C600 C581 1.429 . S
C600 C594 1.429 . S
C600 C601 1.523 . S
C601 C582 1.368 . S
C601 C595 1.368 . S
C601 C600 1.523 . S
C602 C586 1.429 . S
C602 C598 1.429 . S
C602 C603 1.523 . S
C603 C587 1.368 . S
C603 C599 1.368 . S
C603 C602 1.523 . S
H604 C579 0.950 . S
H605 C581 0.950 . S
H606 C582 0.949 . S
H607 C584 0.950 . S
H608 C586 0.950 . S
C609 C610 1.349 . S
C609 C611 1.327 . S
C609 H634 0.950 . S
C610 C609 1.349 . S
C610 C626 1.349 . S
C611 C609 1.327 . S
C611 C630 1.429 . S
C611 H635 0.950 . S
C612 C629 1.574 . S
C612 C631 1.368 . S
C612 H636 0.949 . S
H613 C617 0.949 . S
C614 C615 1.349 . S
C614 C616 1.327 . S
C614 H637 0.950 . S
C615 C614 1.349 . S
C615 C627 1.349 . S
C616 C614 1.327 . S
C616 C632 1.429 . S
C616 H638 0.950 . S
C617 H613 0.949 . S
C617 C625 1.574 . S
C617 C633 1.368 . S
H618 C626 0.950 . S
H619 C624 0.950 . S
H620 C625 0.949 . S
H621 C627 0.950 . S
H622 C628 0.950 . S
H623 C629 0.949 . S
C624 H619 0.950 . S
C624 C626 1.327 . S
C624 C630 1.429 . S
C625 C617 1.574 . S
C625 H620 0.949 . S
C625 C631 1.368 . S
C626 C610 1.349 . S
C626 H618 0.950 . S
C626 C624 1.327 . S
C627 C615 1.349 . S
C627 H621 0.950 . S
C627 C628 1.327 . S
C628 H622 0.950 . S
C628 C627 1.327 . S
C628 C632 1.429 . S
C629 C612 1.574 . S
C629 H623 0.949 . S
C629 C633 1.368 . S
C630 C611 1.429 . S
C630 C624 1.429 . S
C630 C631 1.523 . S
C631 C612 1.368 . S
C631 C625 1.368 . S
C631 C630 1.523 . S
C632 C616 1.429 . S
C632 C628 1.429 . S
C632 C633 1.523 . S
C633 C617 1.368 . S
C633 C629 1.368 . S
C633 C632 1.523 . S
H634 C609 0.950 . S
H635 C611 0.950 . S
H636 C612 0.949 . S
H637 C614 0.950 . S
H638 C616 0.950 . S
C639 C640 1.349 . S
C639 C641 1.327 . S
C639 H664 0.950 . S
C640 C639 1.349 . S
C640 C656 1.349 . S
C641 C639 1.327 . S
C641 C660 1.429 . S
C641 H665 0.950 . S
C642 C659 1.574 . S
C642 C661 1.368 . S
C642 H666 0.949 . S
H643 C647 0.949 . S
C644 C645 1.349 . S
C644 C646 1.327 . S
C644 H667 0.950 . S
C645 C644 1.349 . S
C645 C657 1.349 . S
C646 C644 1.327 . S
C646 C662 1.429 . S
C646 H668 0.950 . S
C647 H643 0.949 . S
C647 C655 1.574 . S
C647 C663 1.368 . S
H648 C656 0.950 . S
H649 C654 0.950 . S
H650 C655 0.949 . S
H651 C657 0.950 . S
H652 C658 0.950 . S
H653 C659 0.949 . S
C654 H649 0.950 . S
C654 C656 1.327 . S
C654 C660 1.429 . S
C655 C647 1.574 . S
C655 H650 0.949 . S
C655 C661 1.368 . S
C656 C640 1.349 . S
C656 H648 0.950 . S
C656 C654 1.327 . S
C657 C645 1.349 . S
C657 H651 0.950 . S
C657 C658 1.327 . S
C658 H652 0.950 . S
C658 C657 1.327 . S
C658 C662 1.429 . S
C659 C642 1.574 . S
C659 H653 0.949 . S
C659 C663 1.368 . S
C660 C641 1.429 . S
C660 C654 1.429 . S
C660 C661 1.523 . S
C661 C642 1.368 . S
C661 C655 1.368 . S
C661 C660 1.523 . S
C662 C646 1.429 . S
C662 C658 1.429 . S
C662 C663 1.523 . S
C663 C647 1.368 . S
C663 C659 1.368 . S
C663 C662 1.523 . S
H664 C639 0.950 . S
H665 C641 0.950 . S
H666 C642 0.949 . S
H667 C644 0.950 . S
H668 C646 0.950 . S
C669 C670 1.349 . S
C669 C671 1.327 . S
C669 H694 0.950 . S
C670 C669 1.349 . S
C670 C686 1.349 . S
C671 C669 1.327 . S
C671 C690 1.429 . S
C671 H695 0.950 . S
C672 C689 1.574 . S
C672 C691 1.368 . S
C672 H696 0.949 . S
H673 C677 0.949 . S
C674 C675 1.349 . S
C674 C676 1.327 . S
C674 H697 0.950 . S
C675 C674 1.349 . S
C675 C687 1.349 . S
C676 C674 1.327 . S
C676 C692 1.429 . S
C676 H698 0.950 . S
C677 H673 0.949 . S
C677 C685 1.574 . S
C677 C693 1.368 . S
H678 C686 0.950 . S
H679 C684 0.950 . S
H680 C685 0.949 . S
H681 C687 0.950 . S
H682 C688 0.950 . S
H683 C689 0.949 . S
C684 H679 0.950 . S
C684 C686 1.327 . S
C684 C690 1.429 . S
C685 C677 1.574 . S
C685 H680 0.949 . S
C685 C691 1.368 . S
C686 C670 1.349 . S
C686 H678 0.950 . S
C686 C684 1.327 . S
C687 C675 1.349 . S
C687 H681 0.950 . S
C687 C688 1.327 . S
C688 H682 0.950 . S
C688 C687 1.327 . S
C688 C692 1.429 . S
C689 C672 1.574 . S
C689 H683 0.949 . S
C689 C693 1.368 . S
C690 C671 1.429 . S
C690 C684 1.429 . S
C690 C691 1.523 . S
C691 C672 1.368 . S
C691 C685 1.368 . S
C691 C690 1.523 . S
C692 C676 1.429 . S
C692 C688 1.429 . S
C692 C693 1.523 . S
C693 C677 1.368 . S
C693 C689 1.368 . S
C693 C692 1.523 . S
H694 C669 0.950 . S
H695 C671 0.950 . S
H696 C672 0.949 . S
H697 C674 0.950 . S
H698 C676 0.950 . S
C699 C700 1.349 . S
C699 C701 1.327 . S
C699 H724 0.950 . S
C700 C699 1.349 . S
C700 C716 1.349 . S
C701 C699 1.327 . S
C701 C720 1.429 . S
C701 H725 0.950 . S
C702 C719 1.574 . S
C702 C721 1.368 . S
C702 H726 0.949 . S
H703 C707 0.949 . S
C704 C705 1.349 . S
C704 C706 1.327 . S
C704 H727 0.950 . S
C705 C704 1.349 . S
C705 C717 1.349 . S
C706 C704 1.327 . S
C706 C722 1.429 . S
C706 H728 0.950 . S
C707 H703 0.949 . S
C707 C715 1.574 . S
C707 C723 1.368 . S
H708 C716 0.950 . S
H709 C714 0.950 . S
H710 C715 0.949 . S
H711 C717 0.950 . S
H712 C718 0.950 . S
H713 C719 0.949 . S
C714 H709 0.950 . S
C714 C716 1.327 . S
C714 C720 1.429 . S
C715 C707 1.574 . S
C715 H710 0.949 . S
C715 C721 1.368 . S
C716 C700 1.349 . S
C716 H708 0.950 . S
C716 C714 1.327 . S
C717 C705 1.349 . S
C717 H711 0.950 . S
C717 C718 1.327 . S
C718 H712 0.950 . S
C718 C717 1.327 . S
C718 C722 1.429 . S
C719 C702 1.574 . S
C719 H713 0.949 . S
C719 C723 1.368 . S
C720 C701 1.429 . S
C720 C714 1.429 . S
C720 C721 1.523 . S
C721 C702 1.368 . S
C721 C715 1.368 . S
C721 C720 1.523 . S
C722 C706 1.429 . S
C722 C718 1.429 . S
C722 C723 1.523 . S
C723 C707 1.368 . S
C723 C719 1.368 . S
C723 C722 1.523 . S
H724 C699 0.950 . S
H725 C701 0.950 . S
H726 C702 0.949 . S
H727 C704 0.950 . S
H728 C706 0.950 . S
C729 C730 1.349 . S
C729 C731 1.327 . S
C729 H754 0.950 . S
C730 C729 1.349 . S
C730 C746 1.349 . S
C731 C729 1.327 . S
C731 C750 1.429 . S
C731 H755 0.950 . S
C732 C749 1.574 . S
C732 C751 1.368 . S
C732 H756 0.949 . S
H733 C737 0.949 . S
C734 C735 1.349 . S
C734 C736 1.327 . S
C734 H757 0.950 . S
C735 C734 1.349 . S
C735 C747 1.349 . S
C736 C734 1.327 . S
C736 C752 1.429 . S
C736 H758 0.950 . S
C737 H733 0.949 . S
C737 C745 1.574 . S
C737 C753 1.368 . S
H738 C746 0.950 . S
H739 C744 0.950 . S
H740 C745 0.949 . S
H741 C747 0.950 . S
H742 C748 0.950 . S
H743 C749 0.949 . S
C744 H739 0.950 . S
C744 C746 1.327 . S
C744 C750 1.429 . S
C745 C737 1.574 . S
C745 H740 0.949 . S
C745 C751 1.368 . S
C746 C730 1.349 . S
C746 H738 0.950 . S
C746 C744 1.327 . S
C747 C735 1.349 . S
C747 H741 0.950 . S
C747 C748 1.327 . S
C748 H742 0.950 . S
C748 C747 1.327 . S
C748 C752 1.429 . S
C749 C732 1.574 . S
C749 H743 0.949 . S
C749 C753 1.368 . S
C750 C731 1.429 . S
C750 C744 1.429 . S
C750 C751 1.523 . S
C751 C732 1.368 . S
C751 C745 1.368 . S
C751 C750 1.523 . S
C752 C736 1.429 . S
C752 C748 1.429 . S
C752 C753 1.523 . S
C753 C737 1.368 . S
C753 C749 1.368 . S
C753 C752 1.523 . S
H754 C729 0.950 . S
H755 C731 0.950 . S
H756 C732 0.949 . S
H757 C734 0.950 . S
H758 C736 0.950 . S
C759 C760 1.349 . S
C759 C761 1.327 . S
C759 H784 0.950 . S
C760 C759 1.349 . S
C760 C776 1.349 . S
C761 C759 1.327 . S
C761 C780 1.429 . S
C761 H785 0.950 . S
C762 C779 1.574 . S
C762 C781 1.368 . S
C762 H786 0.949 . S
H763 C767 0.949 . S
C764 C765 1.349 . S
C764 C766 1.327 . S
C764 H787 0.950 . S
C765 C764 1.349 . S
C765 C777 1.349 . S
C766 C764 1.327 . S
C766 C782 1.429 . S
C766 H788 0.950 . S
C767 H763 0.949 . S
C767 C775 1.574 . S
C767 C783 1.368 . S
H768 C776 0.950 . S
H769 C774 0.950 . S
H770 C775 0.949 . S
H771 C777 0.950 . S
H772 C778 0.950 . S
H773 C779 0.949 . S
C774 H769 0.950 . S
C774 C776 1.327 . S
C774 C780 1.429 . S
C775 C767 1.574 . S
C775 H770 0.949 . S
C775 C781 1.368 . S
C776 C760 1.349 . S
C776 H768 0.950 . S
C776 C774 1.327 . S
C777 C765 1.349 . S
C777 H771 0.950 . S
C777 C778 1.327 . S
C778 H772 0.950 . S
C778 C777 1.327 . S
C778 C782 1.429 . S
C779 C762 1.574 . S
C779 H773 0.949 . S
C779 C783 1.368 . S
C780 C761 1.429 . S
C780 C774 1.429 . S
C780 C781 1.523 . S
C781 C762 1.368 . S
C781 C775 1.368 . S
C781 C780 1.523 . S
C782 C766 1.429 . S
C782 C778 1.429 . S
C782 C783 1.523 . S
C783 C767 1.368 . S
C783 C779 1.368 . S
C783 C782 1.523 . S
H784 C759 0.950 . S
H785 C761 0.950 . S
H786 C762 0.949 . S
H787 C764 0.950 . S
H788 C766 0.950 . S
C789 C790 1.349 1_655 S
C789 C791 1.327 . S
C789 H814 0.950 . S
C790 C789 1.349 1_455 S
C790 C806 1.349 . S
C791 C789 1.327 . S
C791 C810 1.429 1_655 S
C791 H815 0.950 . S
C792 C809 1.574 . S
C792 C811 1.368 . S
C792 H816 0.949 . S
H793 C797 0.949 . S
C794 C795 1.349 . S
C794 C796 1.327 1_556 S
C794 H817 0.950 . S
C795 C794 1.349 . S
C795 C807 1.349 1_455 S
C796 C794 1.327 1_554 S
C796 C812 1.429 . S
C796 H818 0.950 . S
C797 H793 0.949 . S
C797 C805 1.574 . S
C797 C813 1.368 1_655 S
H798 C806 0.950 . S
H799 C804 0.950 . S
H800 C805 0.949 . S
H801 C807 0.950 . S
H802 C808 0.950 . S
H803 C809 0.949 . S
C804 H799 0.950 . S
C804 C806 1.327 . S
C804 C810 1.429 . S
C805 C797 1.574 . S
C805 H800 0.949 . S
C805 C811 1.368 1_655 S
C806 C790 1.349 . S
C806 H798 0.950 . S
C806 C804 1.327 . S
C807 C795 1.349 1_655 S
C807 H801 0.950 . S
C807 C808 1.327 1_556 S
C808 H802 0.950 . S
C808 C807 1.327 1_554 S
C808 C812 1.429 1_655 S
C809 C792 1.574 . S
C809 H803 0.949 . S
C809 C813 1.368 . S
C810 C791 1.429 1_455 S
C810 C804 1.429 . S
C810 C811 1.523 . S
C811 C792 1.368 . S
C811 C805 1.368 1_455 S
C811 C810 1.523 . S
C812 C796 1.429 . S
C812 C808 1.429 1_455 S
C812 C813 1.523 . S
C813 C797 1.368 1_455 S
C813 C809 1.368 . S
C813 C812 1.523 . S
H814 C789 0.950 . S
H815 C791 0.950 . S
H816 C792 0.949 . S
H817 C794 0.950 . S
H818 C796 0.950 . S
C819 C820 1.349 . S
C819 C821 1.327 . S
C819 H844 0.950 . S
C820 C819 1.349 . S
C820 C836 1.349 1_545 S
C821 C819 1.327 . S
C821 C840 1.429 . S
C821 H845 0.950 . S
C822 C839 1.574 . S
C822 C841 1.368 1_565 S
C822 H846 0.949 . S
H823 C827 0.949 . S
C824 C825 1.349 1_565 S
C824 C826 1.327 . S
C824 H847 0.950 . S
C825 C824 1.349 1_545 S
C825 C837 1.349 . S
C826 C824 1.327 . S
C826 C842 1.429 1_565 S
C826 H848 0.950 . S
C827 H823 0.949 . S
C827 C835 1.574 . S
C827 C843 1.368 . S
H828 C836 0.950 . S
H829 C834 0.950 . S
H830 C835 0.949 . S
H831 C837 0.950 . S
H832 C838 0.950 . S
H833 C839 0.949 . S
C834 H829 0.950 . S
C834 C836 1.327 . S
C834 C840 1.429 1_565 S
C835 C827 1.574 . S
C835 H830 0.949 . S
C835 C841 1.368 . S
C836 C820 1.349 1_565 S
C836 H828 0.950 . S
C836 C834 1.327 . S
C837 C825 1.349 . S
C837 H831 0.950 . S
C837 C838 1.327 . S
C838 H832 0.950 . S
C838 C837 1.327 . S
C838 C842 1.429 . S
C839 C822 1.574 . S
C839 H833 0.949 . S
C839 C843 1.368 1_565 S
C840 C821 1.429 . S
C840 C834 1.429 1_545 S
C840 C841 1.523 . S
C841 C822 1.368 1_545 S
C841 C835 1.368 . S
C841 C840 1.523 . S
C842 C826 1.429 1_545 S
C842 C838 1.429 . S
C842 C843 1.523 . S
C843 C827 1.368 . S
C843 C839 1.368 1_545 S
C843 C842 1.523 . S
H844 C819 0.950 . S
H845 C821 0.950 . S
H846 C822 0.949 . S
H847 C824 0.950 . S
H848 C826 0.950 . S
C849 C850 1.349 . S
C849 C851 1.327 . S
C849 H874 0.950 . S
C850 C849 1.349 . S
C850 C866 1.349 . S
C851 C849 1.327 . S
C851 C870 1.429 . S
C851 H875 0.950 . S
C852 C869 1.574 . S
C852 C871 1.368 . S
C852 H876 0.949 . S
H853 C857 0.949 . S
C854 C855 1.349 . S
C854 C856 1.327 . S
C854 H877 0.950 . S
C855 C854 1.349 . S
C855 C867 1.349 . S
C856 C854 1.327 . S
C856 C872 1.429 . S
C856 H878 0.950 . S
C857 H853 0.949 . S
C857 C865 1.574 . S
C857 C873 1.368 . S
H858 C866 0.950 . S
H859 C864 0.950 . S
H860 C865 0.949 . S
H861 C867 0.950 . S
H862 C868 0.950 . S
H863 C869 0.949 . S
C864 H859 0.950 . S
C864 C866 1.327 . S
C864 C870 1.429 . S
C865 C857 1.574 . S
C865 H860 0.949 . S
C865 C871 1.368 . S
C866 C850 1.349 . S
C866 H858 0.950 . S
C866 C864 1.327 . S
C867 C855 1.349 . S
C867 H861 0.950 . S
C867 C868 1.327 . S
C868 H862 0.950 . S
C868 C867 1.327 . S
C868 C872 1.429 . S
C869 C852 1.574 . S
C869 H863 0.949 . S
C869 C873 1.368 . S
C870 C851 1.429 . S
C870 C864 1.429 . S
C870 C871 1.523 . S
C871 C852 1.368 . S
C871 C865 1.368 . S
C871 C870 1.523 . S
C872 C856 1.429 . S
C872 C868 1.429 . S
C872 C873 1.523 . S
C873 C857 1.368 . S
C873 C869 1.368 . S
C873 C872 1.523 . S
H874 C849 0.950 . S
H875 C851 0.950 . S
H876 C852 0.949 . S
H877 C854 0.950 . S
H878 C856 0.950 . S
C879 C880 1.349 . S
C879 C881 1.327 . S
C879 H904 0.950 . S
C880 C879 1.349 . S
C880 C896 1.349 1_545 S
C881 C879 1.327 . S
C881 C900 1.429 . S
C881 H905 0.950 . S
C882 C899 1.574 . S
C882 C901 1.368 1_565 S
C882 H906 0.949 . S
H883 C887 0.949 . S
C884 C885 1.352 . S
C884 C886 1.327 . S
C884 H907 0.950 . S
C885 C884 1.352 . S
C885 C897 1.345 1_565 S
C886 C884 1.327 . S
C886 C902 1.401 1_565 S
C886 H908 0.950 . S
C887 H883 0.949 . S
C887 C895 1.574 . S
C887 C903 1.368 . S
H888 C896 0.950 . S
H889 C894 0.950 . S
H890 C895 0.949 . S
H891 C897 0.950 . S
H892 C898 0.950 . S
H893 C899 0.949 . S
C894 H889 0.950 . S
C894 C896 1.327 . S
C894 C900 1.429 1_565 S
C895 C887 1.574 . S
C895 H890 0.949 . S
C895 C901 1.368 . S
C896 C880 1.349 1_565 S
C896 H888 0.950 . S
C896 C894 1.327 . S
C897 C885 1.345 1_545 S
C897 H891 0.950 . S
C897 C898 1.327 . S
C898 H892 0.950 . S
C898 C897 1.327 . S
C898 C902 1.456 . S
C899 C882 1.574 . S
C899 H893 0.949 . S
C899 C903 1.368 1_565 S
C900 C881 1.429 . S
C900 C894 1.429 1_545 S
C900 C901 1.523 . S
C901 C882 1.368 1_545 S
C901 C895 1.368 . S
C901 C900 1.523 . S
C902 C886 1.401 1_545 S
C902 C898 1.456 . S
C902 C903 1.524 . S
C903 C887 1.368 . S
C903 C899 1.368 1_545 S
C903 C902 1.524 . S
H904 C879 0.950 . S
H905 C881 0.950 . S
H906 C882 0.949 . S
H907 C884 0.950 . S
H908 C886 0.950 . S
C909 C910 1.349 . S
C909 C911 1.327 . S
C909 H934 0.950 . S
C910 C909 1.349 . S
C910 C926 1.349 . S
C911 C909 1.327 . S
C911 C930 1.429 . S
C911 H935 0.950 . S
C912 C929 1.574 . S
C912 C931 1.368 . S
C912 H936 0.949 . S
H913 C917 0.949 . S
C914 C915 1.349 . S
C914 C916 1.327 1_554 S
C914 H937 0.950 . S
C915 C914 1.349 . S
C915 C927 1.349 . S
C916 C914 1.327 1_556 S
C916 C932 1.429 . S
C916 H938 0.950 . S
C917 H913 0.949 . S
C917 C925 1.574 . S
C917 C933 1.368 . S
H918 C926 0.950 . S
H919 C924 0.950 . S
H920 C925 0.949 . S
H921 C927 0.950 . S
H922 C928 0.950 . S
H923 C929 0.949 . S
C924 H919 0.950 . S
C924 C926 1.327 . S
C924 C930 1.429 . S
C925 C917 1.574 . S
C925 H920 0.949 . S
C925 C931 1.368 . S
C926 C910 1.349 . S
C926 H918 0.950 . S
C926 C924 1.327 . S
C927 C915 1.349 . S
C927 H921 0.950 . S
C927 C928 1.327 1_554 S
C928 H922 0.950 . S
C928 C927 1.327 1_556 S
C928 C932 1.429 . S
C929 C912 1.574 . S
C929 H923 0.949 . S
C929 C933 1.368 . S
C930 C911 1.429 . S
C930 C924 1.429 . S
C930 C931 1.523 . S
C931 C912 1.368 . S
C931 C925 1.368 . S
C931 C930 1.523 . S
C932 C916 1.429 . S
C932 C928 1.429 . S
C932 C933 1.523 . S
C933 C917 1.368 . S
C933 C929 1.368 . S
C933 C932 1.523 . S
H934 C909 0.950 . S
H935 C911 0.950 . S
H936 C912 0.949 . S
H937 C914 0.950 . S
H938 C916 0.950 . S
C939 C940 1.349 . S
C939 C941 1.327 . S
C939 H964 0.958 . S
C940 C939 1.349 . S
C940 C956 1.349 . S
C941 C939 1.327 . S
C941 C960 1.429 . S
C941 H965 0.946 1_455 S
C942 C959 1.574 . S
C942 C961 1.368 . S
C942 H966 0.949 . S
H943 C947 0.939 1_655 S
C944 C945 1.349 . S
C944 C946 1.327 . S
C944 H967 0.950 . S
C945 C944 1.349 . S
C945 C957 1.344 1_455 S
C946 C944 1.327 . S
C946 C962 1.429 . S
C946 H968 0.950 . S
C947 H943 0.939 1_455 S
C947 C955 1.574 . S
C947 C963 1.380 . S
H948 C956 0.950 . S
H949 C954 0.950 . S
H950 C955 0.935 1_655 S
H951 C957 0.954 . S
H952 C958 0.948 . S
H953 C959 0.949 . S
C954 H949 0.950 . S
C954 C956 1.327 . S
C954 C960 1.429 . S
C955 C947 1.574 . S
C955 H950 0.935 1_455 S
C955 C961 1.368 . S
C956 C940 1.349 . S
C956 H948 0.950 . S
C956 C954 1.327 . S
C957 C945 1.344 1_655 S
C957 H951 0.954 . S
C957 C958 1.327 . S
C958 H952 0.948 . S
C958 C957 1.327 . S
C958 C962 1.430 1_655 S
C959 C942 1.574 . S
C959 H953 0.949 . S
C959 C963 1.368 . S
C960 C941 1.429 . S
C960 C954 1.429 . S
C960 C961 1.523 . S
C961 C942 1.368 . S
C961 C955 1.368 . S
C961 C960 1.523 . S
C962 C946 1.429 . S
C962 C958 1.430 1_455 S
C962 C963 1.523 . S
C963 C947 1.380 . S
C963 C959 1.368 . S
C963 C962 1.523 . S
H964 C939 0.958 . S
H965 C941 0.946 1_655 S
H966 C942 0.949 . S
H967 C944 0.950 . S
H968 C946 0.950 . S
C430 C20 1.066 . S
C435 C400 1.087 . S
C460 C41 1.123 . S
C465 C250 1.086 . S
C490 C64 1.145 . S
C495 C310 1.111 . S
C520 C19 1.115 . S
C525 C370 1.113 . S
C555 C280 1.115 . S
C550 C44 1.117 . S
C585 C340 1.106 . S
C580 C67 1.104 . S
C610 C43 1.061 . S
C615 C130 1.053 . S
C640 C66 1.066 . S
C645 C220 1.086 . S
C670 C21 1.116 . S
C675 C100 1.113 . S
C705 C160 1.131 . S
C700 C42 1.107 . S
C735 C190 1.114 . S
C730 C65 1.115 . S
C760 C18 1.125 . S
C765 C70 1.088 . S
C795 C209 1.431 . S
C790 C17 1.452 . S
C820 C39 1.447 . S
C825 C89 1.424 . S
C850 C62 1.467 . S
C855 C149 1.442 . S
C885 C329 1.408 1_565 S
C880 C40 1.430 . S
C915 C389 1.431 . S
C910 C63 1.451 . S
C940 C16 1.446 . S
C945 C269 1.424 . S
