# Generated by pormake.
# Topology apo, (3,6)-cn, num edge types: 1
# Building blocks:
#     Node 0, Type 0, BuildingBlock: VETTIZ_charged_linker_0, # of connection points: 3
#     Node 1, Type 0, BuildingBlock: VETTIZ_charged_linker_0, # of connection points: 3
#     Node 2, Type 0, BuildingBlock: VETTIZ_charged_linker_0, # of connection points: 3
#     Node 3, Type 0, BuildingBlock: VETTIZ_charged_linker_0, # of connection points: 3
#     Node 4, Type 0, BuildingBlock: VETTIZ_charged_linker_0, # of connection points: 3
#     Node 5, Type 0, BuildingBlock: VETTIZ_charged_linker_0, # of connection points: 3
#     Node 6, Type 0, BuildingBlock: VETTIZ_charged_linker_0, # of connection points: 3
#     Node 7, Type 0, BuildingBlock: VETTIZ_charged_linker_0, # of connection points: 3
#     Node 8, Type 1, BuildingBlock: KUMBUR_clean_sbu_1, # of connection points: 6
#     Node 9, Type 1, BuildingBlock: KUMBUR_clean_sbu_1, # of connection points: 6
#     Node 10, Type 1, BuildingBlock: KUMBUR_clean_sbu_1, # of connection points: 6
#     Node 11, Type 1, BuildingBlock: KUMBUR_clean_sbu_1, # of connection points: 6
#     Edge 12, Type (0, 1), BuildingBlock: EZIPEK_clean_linker_0, # of connection points: 2
#     Edge 13, Type (0, 1), BuildingBlock: EZIPEK_clean_linker_0, # of connection points: 2
#     Edge 14, Type (0, 1), BuildingBlock: EZIPEK_clean_linker_0, # of connection points: 2
#     Edge 15, Type (0, 1), BuildingBlock: EZIPEK_clean_linker_0, # of connection points: 2
#     Edge 16, Type (0, 1), BuildingBlock: EZIPEK_clean_linker_0, # of connection points: 2
#     Edge 17, Type (0, 1), BuildingBlock: EZIPEK_clean_linker_0, # of connection points: 2
#     Edge 18, Type (0, 1), BuildingBlock: EZIPEK_clean_linker_0, # of connection points: 2
#     Edge 19, Type (0, 1), BuildingBlock: EZIPEK_clean_linker_0, # of connection points: 2
#     Edge 20, Type (0, 1), BuildingBlock: EZIPEK_clean_linker_0, # of connection points: 2
#     Edge 21, Type (0, 1), BuildingBlock: EZIPEK_clean_linker_0, # of connection points: 2
#     Edge 22, Type (0, 1), BuildingBlock: EZIPEK_clean_linker_0, # of connection points: 2
#     Edge 23, Type (0, 1), BuildingBlock: EZIPEK_clean_linker_0, # of connection points: 2
#     Edge 24, Type (0, 1), BuildingBlock: EZIPEK_clean_linker_0, # of connection points: 2
#     Edge 25, Type (0, 1), BuildingBlock: EZIPEK_clean_linker_0, # of connection points: 2
#     Edge 26, Type (0, 1), BuildingBlock: EZIPEK_clean_linker_0, # of connection points: 2
#     Edge 27, Type (0, 1), BuildingBlock: EZIPEK_clean_linker_0, # of connection points: 2
#     Edge 28, Type (0, 1), BuildingBlock: EZIPEK_clean_linker_0, # of connection points: 2
#     Edge 29, Type (0, 1), BuildingBlock: EZIPEK_clean_linker_0, # of connection points: 2
#     Edge 30, Type (0, 1), BuildingBlock: EZIPEK_clean_linker_0, # of connection points: 2
#     Edge 31, Type (0, 1), BuildingBlock: EZIPEK_clean_linker_0, # of connection points: 2
#     Edge 32, Type (0, 1), BuildingBlock: EZIPEK_clean_linker_0, # of connection points: 2
#     Edge 33, Type (0, 1), BuildingBlock: EZIPEK_clean_linker_0, # of connection points: 2
#     Edge 34, Type (0, 1), BuildingBlock: EZIPEK_clean_linker_0, # of connection points: 2
#     Edge 35, Type (0, 1), BuildingBlock: EZIPEK_clean_linker_0, # of connection points: 2
# Relax obj value: 0.009
# Max RMSD: 0.111
# Mean RMSD: 0.086
data_MOF--net-apo--node1-KUMBUR_clean_sbu_1--node2-VETTIZ_charged_linker_0--edge1-EZIPEK_clean_linker_0
_symmetry_space_group_name_H-M    P1
_symmetry_Int_Tables_number       1
_symmetry_cell_setting            triclinic
loop_
_symmetry_equiv_pos_as_xyz
'x, y, z'
_cell_length_a     22.852884
_cell_length_b     40.370631
_cell_length_c     51.051578
_cell_angle_alpha  90.025953
_cell_angle_beta   89.966739
_cell_angle_gamma 90.314124
loop_
_atom_site_label
_atom_site_type_symbol
_atom_site_fract_x
_atom_site_fract_y
_atom_site_fract_z
_atom_type_partial_charge
C0 C 0.2877 0.34973 0.50225 0.0
C1 C 0.31248 0.37427 0.51832 0.0
C2 C 0.33307 0.40393 0.50709 0.0
C3 C 0.30329 0.38462 0.46409 0.0
C4 C 0.28357 0.3554 0.47524 0.0
C5 C 0.25768 0.33213 0.45528 0.0
H6 H 0.1957 0.29784 0.32829 0.0
C7 C 0.29211 0.38281 0.43559 0.0
C8 C 0.26559 0.35205 0.43029 0.0
H9 H 0.15488 0.23837 0.39618 0.0
H10 H 0.19955 0.27968 0.42447 0.0
H11 H 0.15268 0.36477 0.35349 0.0
H12 H 0.32465 0.32277 0.34655 0.0
H13 H 0.33084 0.36524 0.33945 0.0
H14 H 0.28543 0.33921 0.31907 0.0
H15 H 0.19203 0.36449 0.32308 0.0
H16 H 0.20075 0.39764 0.34651 0.0
C17 C 0.19219 0.32662 0.46203 0.0
C18 C 0.29466 0.30012 0.45508 0.0
C19 C 0.35158 0.47895 0.3768 0.0
C20 C 0.35057 0.48326 0.34952 0.0
C21 C 0.32607 0.45847 0.33353 0.0
C22 C 0.30363 0.42925 0.34455 0.0
C23 C 0.30617 0.42475 0.37186 0.0
C24 C 0.32961 0.44945 0.3875 0.0
C25 C 0.33074 0.43981 0.41596 0.0
C26 C 0.30358 0.40542 0.41487 0.0
C27 C 0.28923 0.39677 0.38901 0.0
C28 C 0.29186 0.46446 0.43127 0.0
C29 C 0.39547 0.43892 0.42505 0.0
C30 C 0.19692 0.29375 0.34926 0.0
C31 C 0.17243 0.26492 0.36017 0.0
C32 C 0.17397 0.26041 0.3875 0.0
C33 C 0.19969 0.28444 0.4038 0.0
C34 C 0.22347 0.31342 0.39262 0.0
C35 C 0.22134 0.31775 0.36578 0.0
C36 C 0.24561 0.35075 0.35738 0.0
C37 C 0.26328 0.36548 0.38357 0.0
C38 C 0.25088 0.34338 0.40412 0.0
C39 C 0.19564 0.37057 0.34424 0.0
C40 C 0.29925 0.34446 0.33952 0.0
H41 H 0.34478 0.43241 0.47262 0.0
H42 H 0.27138 0.32682 0.51061 0.0
H43 H 0.34214 0.3062 0.45628 0.0
H44 H 0.28955 0.28555 0.43694 0.0
H45 H 0.28355 0.28409 0.47207 0.0
H46 H 0.17316 0.34894 0.4715 0.0
H47 H 0.18635 0.30551 0.47574 0.0
H48 H 0.16483 0.32245 0.44448 0.0
H49 H 0.37105 0.49762 0.38936 0.0
H50 H 0.32544 0.46151 0.31244 0.0
H51 H 0.28609 0.41108 0.33134 0.0
H52 H 0.25197 0.47067 0.41983 0.0
H53 H 0.3158 0.48795 0.43523 0.0
H54 H 0.2754 0.4543 0.44995 0.0
H55 H 0.42487 0.4313 0.40876 0.0
H56 H 0.40331 0.4205 0.44063 0.0
H57 H 0.41039 0.46367 0.43192 0.0
H58 H 0.35217 0.42303 0.51936 0.0
C59 C 0.32859 0.40926 0.48004 0.0
C60 C 0.31564 0.20508 0.85246 0.0
C61 C 0.33902 0.23406 0.86343 0.0
C62 C 0.3347 0.23926 0.89064 0.0
C63 C 0.28606 0.18596 0.89569 0.0
C64 C 0.28947 0.18151 0.86887 0.0
C65 C 0.26335 0.14916 0.86022 0.0
H66 H 0.12738 0.00466 0.88834 0.0
C67 C 0.25772 0.15605 0.90704 0.0
C68 C 0.24411 0.13461 0.88625 0.0
H69 H 0.17976 0.04292 0.81289 0.0
H70 H 0.22013 0.09173 0.83337 0.0
H71 H 0.25063 0.02794 0.91898 0.0
H72 H 0.08091 0.07394 0.91259 0.0
H73 H 0.10563 0.07751 0.94513 0.0
H74 H 0.092 0.03698 0.93148 0.0
H75 H 0.1861 0.01035 0.93364 0.0
H76 H 0.22822 0.04191 0.95006 0.0
C77 C 0.3125 0.12843 0.84723 0.0
C78 C 0.21054 0.15683 0.84214 0.0
C79 C 0.24129 0.14307 1.00598 0.0
C80 C 0.22608 0.11624 0.02268 0.0
C81 C 0.1946 0.08981 1.01063 0.0
C82 C 0.1889 0.08725 0.98326 0.0
C83 C 0.21273 0.11202 0.96716 0.0
C84 C 0.23669 0.13986 0.97866 0.0
C85 C 0.25839 0.16446 0.95865 0.0
C86 C 0.24511 0.14632 0.93326 0.0
C87 C 0.21782 0.1156 0.93828 0.0
C88 C 0.32501 0.16944 0.96287 0.0
C89 C 0.222 0.19652 0.96128 0.0
C90 C 0.14793 0.02367 0.87647 0.0
C91 C 0.1507 0.0203 0.84904 0.0
C92 C 0.17751 0.04524 0.83402 0.0
C93 C 0.20068 0.07355 0.846 0.0
C94 C 0.1973 0.07698 0.87338 0.0
C95 C 0.17181 0.0522 0.88825 0.0
C96 C 0.17347 0.06024 0.91716 0.0
C97 C 0.20319 0.09413 0.91703 0.0
C98 C 0.21668 0.10366 0.89125 0.0
C99 C 0.21122 0.03374 0.93091 0.0
C100 C 0.10982 0.0621 0.92737 0.0
H101 H 0.30629 0.22059 0.92746 0.0
H102 H 0.31839 0.2007 0.83155 0.0
H103 H 0.18823 0.18 0.84831 0.0
H104 H 0.17597 0.13762 0.84296 0.0
H105 H 0.22475 0.16017 0.8215 0.0
H106 H 0.35568 0.13365 0.85647 0.0
H107 H 0.31655 0.1342 0.82603 0.0
H108 H 0.30616 0.10146 0.84968 0.0
H109 H 0.25611 0.16665 0.01316 0.0
H110 H 0.17409 0.07063 0.02227 0.0
H111 H 0.16639 0.06591 0.97568 0.0
H112 H 0.34625 0.14559 0.96807 0.0
H113 H 0.33368 0.18721 0.97905 0.0
H114 H 0.34813 0.17802 0.94515 0.0
H115 H 0.17558 0.19061 0.96602 0.0
H116 H 0.22023 0.21089 0.9429 0.0
H117 H 0.23935 0.21262 0.97716 0.0
H118 H 0.35251 0.26164 0.89931 0.0
C119 C 0.3081 0.21539 0.90685 0.0
C120 C 0.83653 0.16908 0.52888 0.0
C121 C 0.86709 0.14654 0.51301 0.0
C122 C 0.8846 0.11601 0.52375 0.0
C123 C 0.84246 0.13107 0.56578 0.0
C124 C 0.82444 0.16081 0.55506 0.0
C125 C 0.79123 0.18162 0.57449 0.0
H126 H 0.6955 0.20343 0.6993 0.0
C127 C 0.82351 0.13022 0.59356 0.0
C128 C 0.79317 0.15981 0.59872 0.0
H129 H 0.66701 0.26819 0.63341 0.0
H130 H 0.7198 0.23031 0.60494 0.0
H131 H 0.66025 0.14016 0.67039 0.0
H132 H 0.82795 0.18373 0.68611 0.0
H133 H 0.83545 0.14106 0.6916 0.0
H134 H 0.78326 0.1642 0.71061 0.0
H135 H 0.69675 0.13406 0.70105 0.0
H136 H 0.70731 0.10629 0.67369 0.0
C137 C 0.72798 0.18606 0.56423 0.0
C138 C 0.82519 0.21448 0.57849 0.0
C139 C 0.87859 0.03346 0.65317 0.0
C140 C 0.867 0.0271 0.6798 0.0
C141 C 0.83319 0.04952 0.6943 0.0
C142 C 0.81198 0.07835 0.68269 0.0
C143 C 0.8245 0.08489 0.65622 0.0
C144 C 0.85662 0.0625 0.64173 0.0
C145 C 0.86412 0.07366 0.61368 0.0
C146 C 0.83184 0.10659 0.61396 0.0
C147 C 0.80932 0.11289 0.63902 0.0
C148 C 0.83378 0.04792 0.59568 0.0
C149 C 0.93032 0.07827 0.60835 0.0
C150 C 0.70086 0.20941 0.67874 0.0
C151 C 0.67762 0.23865 0.66848 0.0
C152 C 0.68486 0.24566 0.6416 0.0
C153 C 0.71536 0.22367 0.62521 0.0
C154 C 0.73823 0.19426 0.63581 0.0
C155 C 0.73002 0.18754 0.66212 0.0
C156 C 0.75412 0.15466 0.67002 0.0
C157 C 0.77924 0.14273 0.64425 0.0
C158 C 0.77058 0.16602 0.62424 0.0
C159 C 0.70235 0.13255 0.67947 0.0
C160 C 0.8025 0.16091 0.6908 0.0
H161 H 0.88736 0.08466 0.55709 0.0
H162 H 0.82224 0.19259 0.521 0.0
H163 H 0.87292 0.20972 0.58031 0.0
H164 H 0.81271 0.22758 0.59658 0.0
H165 H 0.8187 0.23141 0.5616 0.0
H166 H 0.71287 0.16361 0.55348 0.0
H167 H 0.72516 0.20741 0.55058 0.0
H168 H 0.6958 0.1893 0.58017 0.0
H169 H 0.90443 0.01636 0.64168 0.0
H170 H 0.8239 0.04483 0.71479 0.0
H171 H 0.78716 0.09456 0.69497 0.0
H172 H 0.79371 0.03767 0.60514 0.0
H173 H 0.8633 0.02684 0.59135 0.0
H174 H 0.81835 0.05873 0.57708 0.0
H175 H 0.95212 0.09041 0.62534 0.0
H176 H 0.93956 0.0945 0.59146 0.0
H177 H 0.95186 0.05402 0.60509 0.0
H178 H 0.90794 0.09831 0.51176 0.0
C179 C 0.87262 0.1082 0.55003 0.0
C180 C 0.78382 0.28679 0.17639 0.0
C181 C 0.80996 0.25886 0.16507 0.0
C182 C 0.80832 0.25478 0.1377 0.0
C183 C 0.75821 0.30742 0.13327 0.0
C184 C 0.75928 0.3109 0.1602 0.0
C185 C 0.73638 0.34384 0.16906 0.0
H186 H 0.61109 0.49079 0.14079 0.0
C187 C 0.7324 0.33793 0.12218 0.0
C188 C 0.71979 0.35934 0.14307 0.0
H189 H 0.66934 0.45428 0.21583 0.0
H190 H 0.70402 0.40417 0.19559 0.0
H191 H 0.73022 0.46656 0.10934 0.0
H192 H 0.55932 0.4221 0.11848 0.0
H193 H 0.58156 0.41667 0.08578 0.0
H194 H 0.57134 0.45799 0.09838 0.0
H195 H 0.66596 0.48344 0.09429 0.0
H196 H 0.7075 0.4511 0.07877 0.0
C197 C 0.78697 0.36301 0.18278 0.0
C198 C 0.68217 0.33741 0.1866 0.0
C199 C 0.70892 0.34945 0.0237 0.0
C200 C 0.68497 0.37418 1.00772 0.0
C201 C 0.66015 0.40243 0.01941 0.0
C202 C 0.66034 0.40631 0.04675 0.0
C203 C 0.68536 0.38159 0.06254 0.0
C204 C 0.70829 0.35352 0.05094 0.0
C205 C 0.73154 0.32937 0.07071 0.0
C206 C 0.71978 0.34774 0.09608 0.0
C207 C 0.69316 0.37848 0.09123 0.0
C208 C 0.79792 0.32492 0.06568 0.0
C209 C 0.69504 0.29703 0.06866 0.0
C210 C 0.63185 0.47197 0.15265 0.0
C211 C 0.63752 0.47619 0.1799 0.0
C212 C 0.66473 0.45138 0.19483 0.0
C213 C 0.68467 0.42231 0.18302 0.0
C214 C 0.6781 0.41806 0.15586 0.0
C215 C 0.65308 0.44286 0.14102 0.0
C216 C 0.6524 0.43432 0.11225 0.0
C217 C 0.68045 0.40019 0.11244 0.0
C218 C 0.69459 0.39077 0.13812 0.0
C219 C 0.6906 0.46019 0.09767 0.0
C220 C 0.58795 0.43285 0.10299 0.0
H221 H 0.78298 0.27466 0.10096 0.0
H222 H 0.78561 0.29068 0.19738 0.0
H223 H 0.65388 0.31773 0.17796 0.0
H224 H 0.65373 0.35926 0.18862 0.0
H225 H 0.69552 0.32908 0.20644 0.0
H226 H 0.83063 0.35422 0.17616 0.0
H227 H 0.78512 0.35992 0.20438 0.0
H228 H 0.78709 0.38975 0.178 0.0
H229 H 0.72785 0.32742 0.01511 0.0
H230 H 0.64116 0.42159 1.0073 0.0
H231 H 0.64116 0.42843 0.05453 0.0
H232 H 0.81832 0.34853 0.05896 0.0
H233 H 0.80589 0.30596 0.05033 0.0
H234 H 0.82243 0.31819 0.08352 0.0
H235 H 0.64817 0.30262 0.06486 0.0
H236 H 0.69495 0.28245 0.08694 0.0
H237 H 0.71091 0.2812 0.05237 0.0
H238 H 0.8289 0.23351 0.1287 0.0
C239 C 0.78212 0.27882 0.12172 0.0
C240 C 0.6554 0.53853 0.67634 0.0
C241 C 0.61723 0.51413 0.66661 0.0
C242 C 0.59975 0.51551 0.64014 0.0
C243 C 0.65905 0.56491 0.63357 0.0
C244 C 0.67458 0.56392 0.65972 0.0
C245 C 0.71042 0.59345 0.66777 0.0
H246 H 0.84007 0.73946 0.63818 0.0
C247 C 0.68643 0.59479 0.62184 0.0
C248 C 0.71559 0.61186 0.64195 0.0
H249 H 0.82416 0.69162 0.71348 0.0
H250 H 0.77383 0.64545 0.69361 0.0
H251 H 0.87312 0.67159 0.60652 0.0
H252 H 0.70765 0.72121 0.61636 0.0
H253 H 0.71761 0.71073 0.58308 0.0
H254 H 0.76783 0.7391 0.59853 0.0
H255 H 0.85654 0.70925 0.58945 0.0
H256 H 0.83487 0.66929 0.57675 0.0
C257 C 0.77062 0.5809 0.67744 0.0
C258 C 0.67498 0.61325 0.68847 0.0
C259 C 0.67709 0.61295 0.5233 0.0
C260 C 0.70244 0.63664 0.50655 0.0
C261 C 0.73381 0.66339 0.51754 0.0
C262 C 0.741 0.66613 0.54481 0.0
C263 C 0.71691 0.64171 0.56134 0.0
C264 C 0.68525 0.61579 0.55048 0.0
C265 C 0.66372 0.59176 0.5709 0.0
C266 C 0.68897 0.60694 0.59571 0.0
C267 C 0.71976 0.63642 0.59011 0.0
C268 C 0.69048 0.55742 0.56493 0.0
C269 C 0.5959 0.59221 0.57091 0.0
C270 C 0.82537 0.71892 0.65018 0.0
C271 C 0.8354 0.71897 0.67741 0.0
C272 C 0.81647 0.69192 0.69254 0.0
C273 C 0.78711 0.66524 0.68093 0.0
C274 C 0.77636 0.66554 0.65381 0.0
C275 C 0.79572 0.69188 0.63878 0.0
C276 C 0.78105 0.68713 0.61014 0.0
C277 C 0.74763 0.65434 0.61078 0.0
C278 C 0.74549 0.64194 0.63647 0.0
C279 C 0.83915 0.68437 0.59469 0.0
C280 C 0.74169 0.71608 0.60132 0.0
H281 H 0.60635 0.54022 0.60353 0.0
H282 H 0.66871 0.53833 0.69671 0.0
H283 H 0.62711 0.60859 0.68664 0.0
H284 H 0.6796 0.64037 0.68606 0.0
H285 H 0.68785 0.60635 0.70871 0.0
H286 H 0.78643 0.56026 0.66487 0.0
H287 H 0.76769 0.5715 0.69785 0.0
H288 H 0.80534 0.59998 0.67642 0.0
H289 H 0.65277 0.59218 0.5153 0.0
H290 H 0.75356 0.68188 0.50491 0.0
H291 H 0.76561 0.68694 0.55199 0.0
H292 H 0.73771 0.55995 0.55998 0.0
H293 H 0.66817 0.54552 0.54802 0.0
H294 H 0.68853 0.54029 0.58171 0.0
H295 H 0.57896 0.6168 0.56475 0.0
H296 H 0.57719 0.58821 0.59065 0.0
H297 H 0.57772 0.57339 0.55724 0.0
H298 H 0.56989 0.49705 0.63237 0.0
C299 C 0.62085 0.54059 0.62352 0.0
C300 C 0.67974 0.79602 0.17309 0.0
C301 C 0.66486 0.76441 0.16356 0.0
C302 C 0.68086 0.7562 0.13761 0.0
C303 C 0.72179 0.81132 0.13109 0.0
C304 C 0.71092 0.8181 0.15716 0.0
C305 C 0.74288 0.84851 0.16643 0.0
H306 H 0.83369 0.00137 0.14019 0.0
C307 C 0.75267 0.84035 0.11973 0.0
C308 C 0.76658 0.86174 0.14055 0.0
H309 H 0.86482 0.94573 0.21124 0.0
H310 H 0.82978 0.8962 0.1901 0.0
H311 H 0.90574 0.94839 0.11091 0.0
H312 H 0.7184 0.95975 0.1113 0.0
H313 H 0.74668 0.95695 0.07892 0.0
H314 H 0.77 0.99025 0.09978 0.0
H315 H 0.86989 0.97479 0.08781 0.0
H316 H 0.87997 0.93112 0.0815 0.0
C317 C 0.7923 0.83746 0.18543 0.0
C318 C 0.69896 0.87256 0.17925 0.0
C319 C 0.75483 0.85745 0.0206 0.0
C320 C 0.76428 0.88541 1.00419 0.0
C321 C 0.79005 0.91355 0.01653 0.0
C322 C 0.79614 0.9158 0.04387 0.0
C323 C 0.77914 0.88907 0.05966 0.0
C324 C 0.75997 0.86023 0.04796 0.0
C325 C 0.74595 0.83364 0.06782 0.0
C326 C 0.7601 0.8514 0.09338 0.0
C327 C 0.77987 0.88395 0.08841 0.0
C328 C 0.78686 0.80383 0.06315 0.0
C329 C 0.68023 0.825 0.06526 0.0
C330 C 0.8316 0.97865 0.15142 0.0
C331 C 0.84884 0.97811 0.17807 0.0
C332 C 0.84885 0.94744 0.19131 0.0
C333 C 0.82819 0.91867 0.17918 0.0
C334 C 0.80902 0.91997 0.1532 0.0
C335 C 0.815 0.94885 0.13907 0.0
C336 C 0.80917 0.94235 0.10995 0.0
C337 C 0.79418 0.9054 0.10967 0.0
C338 C 0.79117 0.89331 0.13533 0.0
C339 C 0.86896 0.94968 0.09668 0.0
C340 C 0.75845 0.96349 0.09924 0.0
H341 H 0.71917 0.77215 0.10164 0.0
H342 H 0.67037 0.8027 0.19319 0.0
H343 H 0.6637 0.87916 0.16521 0.0
H344 H 0.72037 0.89575 0.18576 0.0
H345 H 0.67841 0.86119 0.19682 0.0
H346 H 0.79248 0.8103 0.18903 0.0
H347 H 0.78765 0.84918 0.20501 0.0
H348 H 0.83637 0.84333 0.17743 0.0
H349 H 0.74487 0.83323 1.01303 0.0
H350 H 0.80652 0.93418 1.0052 0.0
H351 H 0.81383 0.93837 0.05172 0.0
H352 H 0.83091 0.8123 0.05661 0.0
H353 H 0.76893 0.78706 0.04783 0.0
H354 H 0.79473 0.78946 0.0812 0.0
H355 H 0.65333 0.84781 0.06671 0.0
H356 H 0.66436 0.808 0.08053 0.0
H357 H 0.67102 0.81322 0.04601 0.0
H358 H 0.67189 0.73164 0.13001 0.0
C359 C 0.70826 0.77966 0.1212 0.0
C360 C 0.1467 0.95584 0.34567 0.0
C361 C 0.10206 0.97748 0.35328 0.0
C362 C 0.07736 0.97418 0.37851 0.0
C363 C 0.14231 0.92831 0.38805 0.0
C364 C 0.16531 0.93123 0.36306 0.0
C365 C 0.21004 0.90518 0.35725 0.0
H366 H 0.31622 0.75469 0.38373 0.0
C367 C 0.1706 0.89962 0.40093 0.0
C368 C 0.20937 0.88565 0.38268 0.0
H369 H 0.36373 0.82008 0.32004 0.0
H370 H 0.30776 0.86407 0.3396 0.0
H371 H 0.35174 0.80914 0.42427 0.0
H372 H 0.18163 0.77823 0.3983 0.0
H373 H 0.18427 0.7806 0.43304 0.0
H374 H 0.23319 0.75333 0.41606 0.0
H375 H 0.31095 0.77841 0.44185 0.0
H376 H 0.30377 0.82197 0.44918 0.0
C377 C 0.26994 0.92244 0.35236 0.0
C378 C 0.18733 0.8845 0.33375 0.0
C379 C 0.13396 0.87284 0.49739 0.0
C380 C 0.15373 0.84703 0.51365 0.0
C381 C 0.18634 0.82107 0.50256 0.0
C382 C 0.20049 0.82107 0.47582 0.0
C383 C 0.18201 0.84737 0.4599 0.0
C384 C 0.14845 0.87246 0.47056 0.0
C385 C 0.13114 0.89764 0.45013 0.0
C386 C 0.16433 0.88509 0.42624 0.0
C387 C 0.19345 0.85539 0.43208 0.0
C388 C 0.15317 0.93217 0.45886 0.0
C389 C 0.06396 0.89554 0.44623 0.0
C390 C 0.31424 0.77849 0.37402 0.0
C391 C 0.3421 0.78349 0.34963 0.0
C392 C 0.34101 0.81531 0.3383 0.0
C393 C 0.3084 0.84077 0.34961 0.0
C394 C 0.27768 0.83478 0.37294 0.0
C395 C 0.28411 0.80492 0.38574 0.0
C396 C 0.25789 0.80594 0.41291 0.0
C397 C 0.22932 0.84001 0.41283 0.0
C398 C 0.23952 0.85606 0.38891 0.0
C399 C 0.30834 0.8036 0.43319 0.0
C400 C 0.21182 0.77796 0.41539 0.0
H401 H 0.07789 0.94886 0.41508 0.0
H402 H 0.16659 0.95803 0.32647 0.0
H403 H 0.1413 0.87648 0.33717 0.0
H404 H 0.21243 0.86176 0.33022 0.0
H405 H 0.18843 0.89935 0.31544 0.0
H406 H 0.27118 0.94802 0.36048 0.0
H407 H 0.27977 0.92428 0.3311 0.0
H408 H 0.30634 0.90947 0.3623 0.0
H409 H 0.10828 0.89287 0.50547 0.0
H410 H 0.20152 0.80093 0.51477 0.0
H411 H 0.22538 0.80062 0.4685 0.0
H412 H 0.19992 0.93098 0.46482 0.0
H413 H 0.12755 0.94135 0.47586 0.0
H414 H 0.1506 0.9508 0.44311 0.0
H415 H 0.04661 0.87057 0.45138 0.0
H416 H 0.05102 0.89919 0.42555 0.0
H417 H 0.0409 0.91387 0.4587 0.0
H418 H 0.04309 0.99084 0.38478 0.0
C419 C 0.09757 0.94988 0.39601 0.0
C420 C 0.17953 0.7045 0.85238 0.0
C421 C 0.15683 0.73375 0.86298 0.0
C422 C 0.1619 0.73943 0.89017 0.0
C423 C 0.21296 0.68723 0.89546 0.0
C424 C 0.20609 0.68147 0.86892 0.0
C425 C 0.22712 0.6479 0.86086 0.0
H426 H 0.39357 0.51505 0.8848 0.0
C427 C 0.24386 0.65836 0.9068 0.0
C428 C 0.25189 0.63529 0.88655 0.0
H429 H 0.28414 0.53442 0.81748 0.0
H430 H 0.24715 0.58337 0.83811 0.0
H431 H 0.42872 0.59181 0.90263 0.0
H432 H 0.28712 0.52611 0.9233 0.0
H433 H 0.29961 0.55129 0.95077 0.0
H434 H 0.35662 0.52394 0.93944 0.0
H435 H 0.43757 0.55341 0.91995 0.0
H436 H 0.41996 0.59098 0.93707 0.0
C437 C 0.27508 0.65263 0.83972 0.0
C438 C 0.17332 0.62723 0.85164 0.0
C439 C 0.30444 0.65729 1.0029 0.0
C440 C 0.3351 0.63426 0.01822 0.0
C441 C 0.35823 0.60576 1.00627 0.0
C442 C 0.35022 0.59999 0.97938 0.0
C443 C 0.31842 0.62287 0.96433 0.0
C444 C 0.29652 0.65111 0.97607 0.0
C445 C 0.26333 0.67245 0.95701 0.0
C446 C 0.26735 0.6519 0.93213 0.0
C447 C 0.3 0.62295 0.93653 0.0
C448 C 0.2963 0.70586 0.95446 0.0
C449 C 0.19943 0.67563 0.96673 0.0
C450 C 0.3616 0.52997 0.8746 0.0
C451 C 0.3433 0.52153 0.84904 0.0
C452 C 0.30026 0.54093 0.83678 0.0
C453 C 0.27847 0.56929 0.84886 0.0
C454 C 0.29849 0.57807 0.87388 0.0
C455 C 0.33716 0.55778 0.88692 0.0
C456 C 0.3459 0.56868 0.91495 0.0
C457 C 0.30879 0.59992 0.9158 0.0
C458 C 0.28288 0.60563 0.89136 0.0
C459 C 0.41154 0.57654 0.91909 0.0
C460 C 0.32154 0.54116 0.93321 0.0
H461 H 0.19313 0.72219 0.92693 0.0
H462 H 0.17511 0.69928 0.83166 0.0
H463 H 0.13112 0.63834 0.85792 0.0
H464 H 0.1728 0.60203 0.8603 0.0
H465 H 0.17195 0.62515 0.82995 0.0
H466 H 0.30769 0.67151 0.84615 0.0
H467 H 0.25568 0.6612 0.82097 0.0
H468 H 0.29999 0.62993 0.83563 0.0
H469 H 0.28612 0.6793 1.01178 0.0
H470 H 0.38195 0.58784 0.01788 0.0
H471 H 0.36872 0.57784 0.97136 0.0
H472 H 0.34436 0.7018 0.9534 0.0
H473 H 0.28755 0.72201 0.97163 0.0
H474 H 0.28514 0.7195 0.93646 0.0
H475 H 0.18406 0.65206 0.97577 0.0
H476 H 0.16824 0.68051 0.9507 0.0
H477 H 0.19549 0.69547 0.9817 0.0
H478 H 0.14401 0.76174 0.89875 0.0
C479 C 0.19034 0.71647 0.90643 0.0
Tb480 Tb 0.06662 0.13435 0.23572 0.0
C481 C 0.80657 0.16985 0.26442 0.0
N482 N 0.85639 0.1819 0.2752 0.0
C483 C 0.82211 0.2374 0.2692 0.0
C484 C 0.76326 0.19105 0.25447 0.0
C485 C 0.86328 0.21514 0.27918 0.0
C486 C 0.77249 0.2253 0.2562 0.0
C487 C 0.74236 0.12268 0.25868 0.0
C488 C 0.79665 0.1363 0.26613 0.0
C489 C 0.70061 0.14313 0.24665 0.0
C490 C 0.71119 0.17734 0.24445 0.0
Tb491 Tb 0.92489 0.1435 0.28661 0.0
N492 N 0.83767 0.1178 0.27831 0.0
C493 C 0.73042 0.08964 0.26524 0.0
C494 C 0.82349 0.08718 0.28776 0.0
C495 C 0.77044 0.07215 0.28062 0.0
H496 H 0.90165 0.22441 0.28925 0.0
H497 H 0.76032 0.04725 0.2871 0.0
H498 H 0.17474 0.09486 0.26453 0.0
H499 H 0.05594 0.25917 0.19637 0.0
H500 H 0.85409 0.07415 0.30012 0.0
H501 H 0.68914 0.07814 0.25996 0.0
H502 H 0.02747 0.20071 0.19966 0.0
H503 H 0.82871 0.2638 0.27148 0.0
H504 H 0.65896 0.13307 0.24025 0.0
H505 H 0.67766 0.19311 0.23624 0.0
H506 H 0.26947 0.10909 0.28523 0.0
H507 H 0.7405 0.24254 0.24864 0.0
H508 H 0.14046 0.28046 0.22159 0.0
N509 N 0.15605 0.14458 0.25376 0.0
C510 C 0.17491 0.17648 0.2533 0.0
C511 C 0.24322 0.12829 0.27636 0.0
C512 C 0.22821 0.18581 0.26509 0.0
C513 C 0.18969 0.1203 0.26459 0.0
C514 C 0.2623 0.16124 0.27686 0.0
N515 N 0.08955 0.18934 0.22952 0.0
C516 C 0.06184 0.20979 0.21221 0.0
C517 C 0.15952 0.23285 0.23901 0.0
C518 C 0.14028 0.19968 0.24094 0.0
C519 C 0.12709 0.25481 0.22372 0.0
C520 C 0.07909 0.24295 0.20962 0.0
H521 H 0.30354 0.1674 0.28617 0.0
H522 H 0.2863 0.22697 0.27381 0.0
H523 H 0.22654 0.26815 0.25059 0.0
O524 O 0.08384 0.13856 0.19534 0.0
O525 O 0.0786 0.14884 0.27701 0.0
O526 O 0.99736 0.17938 0.2869 0.0
O527 O 0.12228 0.09952 0.21751 0.0
O528 O 0.98321 0.15473 0.22159 0.0
O529 O 0.956 0.18017 0.25886 0.0
O530 O 0.95304 0.13308 0.32484 0.0
O531 O 0.91464 0.10389 0.25672 0.0
O532 O 0.99799 0.09776 0.22991 0.0
O533 O 0.87217 0.15787 0.31862 0.0
O534 O 0.98026 0.09999 0.29298 0.0
O535 O 0.06183 0.09371 0.26457 0.0
C536 C 0.05315 0.17246 0.29046 0.0
C537 C 0.17364 0.11853 0.17954 0.0
C538 C 0.22335 0.12124 0.13703 0.0
C539 C 0.27649 0.12703 0.15011 0.0
C540 C 0.22724 0.12461 0.19209 0.0
C541 C 0.27828 0.12884 0.17741 0.0
C542 C 0.17178 0.11722 0.15189 0.0
C543 C 0.9486 0.17536 0.2338 0.0
C544 C 0.11916 0.11363 0.1947 0.0
C545 C 0.24579 0.21918 0.26461 0.0
C546 C 0.21159 0.24266 0.25151 0.0
C547 C 0.94456 0.08977 0.23737 0.0
C548 C 0.92272 0.16979 0.35787 0.0
C549 C 0.92197 0.18127 0.4049 0.0
C550 C 0.94865 0.21209 0.39999 0.0
C551 C 0.94955 0.2006 0.35336 0.0
C552 C 0.90931 0.16011 0.38368 0.0
C553 C 0.96252 0.22158 0.37437 0.0
C554 C 0.02868 0.08512 0.28495 0.0
C555 C 0.90894 0.1473 0.33601 0.0
H556 H 0.31671 0.13018 0.13912 0.0
H557 H 0.2299 0.12599 0.21318 0.0
H558 H 0.31947 0.13344 0.18725 0.0
H559 H 0.13055 0.11276 0.14197 0.0
H560 H 0.95885 0.22872 0.41603 0.0
H561 H 0.96031 0.2084 0.33364 0.0
H562 H 0.88891 0.13623 0.38729 0.0
H563 H 0.98327 0.24532 0.3708 0.0
Tb564 Tb 0.424 0.36175 0.73951 0.0
C565 C 0.6974 0.3711 0.76879 0.0
N566 N 0.656 0.34792 0.77449 0.0
C567 C 0.72376 0.30468 0.76368 0.0
C568 C 0.75288 0.36198 0.75917 0.0
C569 C 0.66955 0.31493 0.77337 0.0
C570 C 0.76529 0.32829 0.75614 0.0
C571 C 0.72734 0.42886 0.76893 0.0
C572 C 0.68504 0.40408 0.77374 0.0
C573 C 0.78183 0.42003 0.75837 0.0
C574 C 0.79459 0.38666 0.75351 0.0
Tb575 Tb 0.56846 0.36855 0.78895 0.0
N576 N 0.63188 0.41174 0.78391 0.0
C577 C 0.71392 0.46167 0.77535 0.0
C578 C 0.61975 0.44336 0.79157 0.0
C579 C 0.66017 0.46887 0.78704 0.0
H580 H 0.63853 0.29631 0.77977 0.0
H581 H 0.64994 0.49403 0.79267 0.0
H582 H 0.32008 0.41354 0.76248 0.0
H583 H 0.40455 0.23461 0.70923 0.0
H584 H 0.5789 0.44903 0.80114 0.0
H585 H 0.74521 0.48147 0.77194 0.0
H586 H 0.44731 0.29116 0.70962 0.0
H587 H 0.73358 0.27855 0.76218 0.0
H588 H 0.81481 0.43874 0.75436 0.0
H589 H 0.83727 0.38014 0.74589 0.0
H590 H 0.22594 0.40824 0.78541 0.0
H591 H 0.80733 0.32026 0.74874 0.0
H592 H 0.31551 0.22246 0.73532 0.0
N593 N 0.33279 0.36131 0.75878 0.0
C594 C 0.30716 0.33099 0.76115 0.0
C595 C 0.24871 0.38624 0.77899 0.0
C596 C 0.2524 0.32691 0.7735 0.0
C597 C 0.30279 0.38905 0.76631 0.0
C598 C 0.22385 0.355 0.78303 0.0
N599 N 0.38571 0.30965 0.73699 0.0
C600 C 0.4093 0.2857 0.72146 0.0
C601 C 0.30785 0.27266 0.74986 0.0
C602 C 0.33431 0.30422 0.74963 0.0
C603 C 0.33451 0.2471 0.73574 0.0
C604 C 0.38481 0.25385 0.72101 0.0
H605 H 0.18176 0.35294 0.79269 0.0
H606 H 0.18557 0.29142 0.78496 0.0
H607 H 0.23411 0.24386 0.76412 0.0
O608 O 0.43394 0.35976 0.69843 0.0
O609 O 0.44147 0.32149 0.76732 0.0
O610 O 0.48087 0.35198 0.80045 0.0
O611 O 0.35975 0.3834 0.71564 0.0
O612 O 0.5079 0.34238 0.72549 0.0
O613 O 0.5542 0.32586 0.76325 0.0
O614 O 0.5914 0.38607 0.8264 0.0
O615 O 0.57346 0.39629 0.7517 0.0
O616 O 0.47736 0.40686 0.74044 0.0
O617 O 0.593 0.33392 0.81773 0.0
O618 O 0.50203 0.4059 0.79778 0.0
O619 O 0.41966 0.40029 0.7703 0.0
C620 C 0.454 0.32534 0.79219 0.0
C621 C 0.34522 0.35699 0.67494 0.0
C622 C 0.31361 0.34887 0.6298 0.0
C623 C 0.27072 0.32639 0.63839 0.0
C624 C 0.30153 0.33473 0.68324 0.0
C625 C 0.26487 0.31934 0.66502 0.0
C626 C 0.35117 0.36397 0.6481 0.0
C627 C 0.5506 0.32693 0.73759 0.0
C628 C 0.38384 0.37365 0.69399 0.0
C629 C 0.22722 0.29513 0.77522 0.0
C630 C 0.25487 0.26804 0.76337 0.0
C631 C 0.53387 0.41011 0.73642 0.0
C632 C 0.65561 0.35352 0.8516 0.0
C633 C 0.69939 0.35542 0.89515 0.0
C634 C 0.75352 0.34656 0.88427 0.0
C635 C 0.7101 0.34496 0.84097 0.0
C636 C 0.65062 0.359 0.87868 0.0
C637 C 0.75878 0.34151 0.85728 0.0
C638 C 0.44873 0.41401 0.79008 0.0
C639 C 0.60294 0.35669 0.83527 0.0
H640 H 0.24143 0.31464 0.62449 0.0
H641 H 0.29513 0.32953 0.70376 0.0
H642 H 0.23137 0.3022 0.67159 0.0
H643 H 0.38419 0.38145 0.64149 0.0
H644 H 0.79159 0.34365 0.89667 0.0
H645 H 0.71517 0.34083 0.82022 0.0
H646 H 0.60869 0.36578 0.88703 0.0
H647 H 0.80067 0.33479 0.84899 0.0
Tb648 Tb 0.06197 0.86346 0.73734 0.0
C649 C 0.80191 0.84771 0.76836 0.0
N650 N 0.83739 0.87497 0.76762 0.0
C651 C 0.76261 0.90505 0.74481 0.0
C652 C 0.74634 0.84776 0.75631 0.0
C653 C 0.81698 0.904 0.75731 0.0
C654 C 0.72745 0.87672 0.744 0.0
C655 C 0.78487 0.79136 0.78341 0.0
C656 C 0.82047 0.81989 0.78194 0.0
C657 C 0.73047 0.79096 0.77065 0.0
C658 C 0.71121 0.8191 0.75719 0.0
Tb659 Tb 0.9241 0.86927 0.78965 0.0
N660 N 0.87369 0.82086 0.79377 0.0
C661 C 0.80477 0.76425 0.79796 0.0
C662 C 0.89198 0.79528 0.80917 0.0
C663 C 0.85829 0.76637 0.81112 0.0
H664 H 0.84125 0.92684 0.7592 0.0
H665 H 0.87345 0.74583 0.82288 0.0
H666 H 0.1454 0.80403 0.76447 0.0
H667 H 0.11391 0.98587 0.70175 0.0
H668 H 0.9328 0.79719 0.81973 0.0
H669 H 0.77869 0.74185 0.79956 0.0
H670 H 0.0514 0.93657 0.70821 0.0
H671 H 0.74737 0.92795 0.73623 0.0
H672 H 0.70259 0.76918 0.7714 0.0
H673 H 0.66872 0.8186 0.74778 0.0
H674 H 0.24556 0.79949 0.78109 0.0
H675 H 0.68515 0.87773 0.73446 0.0
H676 H 0.21595 0.98598 0.718 0.0
N677 N 0.15377 0.85505 0.75383 0.0
C678 C 0.19197 0.8806 0.75 0.0
C679 C 0.23082 0.82262 0.77273 0.0
C680 C 0.2506 0.87859 0.75848 0.0
C681 C 0.17327 0.82566 0.76381 0.0
C682 C 0.2695 0.8493 0.77032 0.0
N683 N 0.11554 0.91014 0.72972 0.0
C684 C 0.09497 0.93682 0.71621 0.0
C685 C 0.20995 0.93639 0.73398 0.0
C686 C 0.17213 0.90912 0.73778 0.0
C687 C 0.1883 0.96449 0.72127 0.0
C688 C 0.13067 0.96458 0.71215 0.0
H689 H 0.31413 0.84681 0.77718 0.0
H690 H 0.3334 0.90477 0.7615 0.0
H691 H 0.29774 0.9554 0.74013 0.0
O692 O 0.08414 0.86816 0.69699 0.0
O693 O 0.06804 0.90465 0.76612 0.0
O694 O 0.00436 0.89496 0.80139 0.0
O695 O 0.09233 0.82119 0.7175 0.0
O696 O 0.98518 0.89061 0.72442 0.0
O697 O 0.93969 0.91087 0.76196 0.0
O698 O 0.90982 0.86236 0.83014 0.0
O699 O 0.93128 0.82537 0.76357 0.0
O700 O 0.9734 0.84789 0.72721 0.0
O701 O 0.87265 0.90379 0.81036 0.0
O702 O 0.00363 0.84725 0.80485 0.0
O703 O 0.0499 0.82545 0.76822 0.0
C704 C 0.04741 0.91115 0.78987 0.0
C705 C 0.12004 0.82091 0.67129 0.0
C706 C 0.13697 0.81991 0.62383 0.0
C707 C 0.16195 0.78841 0.62634 0.0
C708 C 0.14503 0.78926 0.67309 0.0
C709 C 0.16586 0.77323 0.65078 0.0
C710 C 0.1159 0.83624 0.64643 0.0
C711 C 0.95331 0.91272 0.73676 0.0
C712 C 0.09826 0.83711 0.69549 0.0
C713 C 0.28835 0.90581 0.75496 0.0
C714 C 0.26804 0.93466 0.7428 0.0
C715 C 0.94502 0.82376 0.73856 0.0
C716 C 0.82157 0.88294 0.8476 0.0
C717 C 0.7711 0.87988 0.88993 0.0
C718 C 0.71799 0.87494 0.87662 0.0
C719 C 0.7678 0.87813 0.83484 0.0
C720 C 0.82311 0.88359 0.87527 0.0
C721 C 0.71648 0.87398 0.8493 0.0
C722 C 0.04268 0.82801 0.79385 0.0
C723 C 0.8761 0.88785 0.83242 0.0
H724 H 0.17826 0.77548 0.60924 0.0
H725 H 0.14872 0.77684 0.69182 0.0
H726 H 0.1851 0.74888 0.65245 0.0
H727 H 0.09639 0.86053 0.64458 0.0
H728 H 0.67751 0.87203 0.88746 0.0
H729 H 0.76523 0.87791 0.81372 0.0
H730 H 0.86431 0.88745 0.88537 0.0
H731 H 0.67522 0.8703 0.83928 0.0
Tb732 Tb 0.43053 0.63029 0.23989 0.0
C733 C 0.69863 0.66104 0.2748 0.0
N734 N 0.66474 0.6341 0.26963 0.0
C735 C 0.74118 0.61144 0.24288 0.0
C736 C 0.75462 0.66474 0.26352 0.0
C737 C 0.68641 0.60867 0.25492 0.0
C738 C 0.77515 0.63982 0.24689 0.0
C739 C 0.71336 0.71148 0.29969 0.0
C740 C 0.67809 0.68415 0.29249 0.0
C741 C 0.76841 0.71586 0.28792 0.0
C742 C 0.78892 0.69258 0.26979 0.0
Tb743 Tb 0.57499 0.63281 0.28951 0.0
N744 N 0.62438 0.67928 0.30328 0.0
C745 C 0.69262 0.73329 0.3188 0.0
C746 C 0.60565 0.6995 0.32306 0.0
C747 C 0.63883 0.72701 0.33077 0.0
H748 H 0.66233 0.5859 0.25274 0.0
H749 H 0.62314 0.74314 0.34616 0.0
H750 H 0.32352 0.67529 0.26829 0.0
H751 H 0.42039 0.50934 0.1949 0.0
H752 H 0.56533 0.69439 0.33319 0.0
H753 H 0.71838 0.75455 0.32488 0.0
H754 H 0.46021 0.56543 0.20219 0.0
H755 H 0.75752 0.59144 0.23084 0.0
H756 H 0.79583 0.73687 0.29299 0.0
H757 H 0.8319 0.69597 0.26119 0.0
H758 H 0.22742 0.6646 0.28802 0.0
H759 H 0.81787 0.64174 0.23779 0.0
H760 H 0.3288 0.49196 0.21698 0.0
N761 N 0.33829 0.62484 0.25759 0.0
C762 C 0.31323 0.59438 0.25503 0.0
C763 C 0.25146 0.64447 0.27915 0.0
C764 C 0.25757 0.58731 0.26568 0.0
C765 C 0.30673 0.65028 0.26825 0.0
C766 C 0.2272 0.61271 0.27829 0.0
N767 N 0.39483 0.57884 0.22983 0.0
C768 C 0.42149 0.55779 0.21268 0.0
C769 C 0.31726 0.53904 0.23662 0.0
C770 C 0.34234 0.57062 0.24056 0.0
C771 C 0.34663 0.51647 0.22056 0.0
C772 C 0.39841 0.52615 0.20813 0.0
H773 H 0.18432 0.6083 0.28671 0.0
H774 H 0.19106 0.54943 0.27113 0.0
H775 H 0.24348 0.50709 0.24573 0.0
O776 O 0.41924 0.62768 0.19846 0.0
O777 O 0.43894 0.58978 0.26824 0.0
O778 O 0.4875 0.61612 0.30151 0.0
O779 O 0.3768 0.66556 0.22186 0.0
O780 O 0.51422 0.6095 0.22716 0.0
O781 O 0.5594 0.58909 0.26449 0.0
O782 O 0.57544 0.62911 0.33069 0.0
O783 O 0.58674 0.6552 0.25059 0.0
O784 O 0.49336 0.67204 0.23909 0.0
O785 O 0.62977 0.59756 0.3075 0.0
O786 O 0.51511 0.67514 0.29334 0.0
O787 O 0.4237 0.66166 0.27492 0.0
C788 C 0.45822 0.59063 0.29247 0.0
C789 C 0.35751 0.66781 0.17509 0.0
C790 C 0.33846 0.66851 0.12793 0.0
C791 C 0.30371 0.69672 0.13124 0.0
C792 C 0.32249 0.69614 0.17781 0.0
C793 C 0.29591 0.71045 0.15603 0.0
C794 C 0.36567 0.65405 0.14991 0.0
C795 C 0.54616 0.58725 0.23934 0.0
C796 C 0.38514 0.65331 0.19866 0.0
C797 C 0.2334 0.55544 0.26278 0.0
C798 C 0.26322 0.53133 0.2483 0.0
C799 C 0.55059 0.67236 0.23576 0.0
C800 C 0.66714 0.61589 0.34871 0.0
C801 C 0.70464 0.62623 0.39295 0.0
C802 C 0.75968 0.63377 0.38223 0.0
C803 C 0.72292 0.62317 0.33855 0.0
C804 C 0.65829 0.61733 0.37607 0.0
C805 C 0.76867 0.63221 0.35522 0.0
C806 C 0.45806 0.67935 0.29044 0.0
C807 C 0.61763 0.60779 0.33106 0.0
H808 H 0.28254 0.70809 0.11455 0.0
H809 H 0.31554 0.70737 0.19683 0.0
H810 H 0.26904 0.73225 0.15839 0.0
H811 H 0.39254 0.63225 0.14737 0.0
H812 H 0.79585 0.64065 0.39487 0.0
H813 H 0.73134 0.62195 0.31773 0.0
H814 H 0.6156 0.6116 0.38421 0.0
H815 H 0.81136 0.63794 0.34717 0.0
C816 C 0.05791 0.99761 0.31061 0.0
C817 C 0.08367 0.00475 0.33536 0.0
C818 C 0.06943 0.06395 0.32763 0.0
C819 C 0.04918 0.05724 0.30177 0.0
N820 N 0.03278 0.01754 0.26719 0.0
N821 N 0.12778 0.04521 0.36411 0.0
C822 C 0.04642 0.024 0.29274 0.0
C823 C 0.09326 0.03806 0.34295 0.0
N824 N 0.04197 0.96581 0.30463 0.0
N825 N 0.06548 0.09502 0.33795 0.0
H826 H 0.14802 0.02708 0.37541 0.0
H827 H 0.14146 0.06917 0.36876 0.0
H828 H 0.05226 0.11539 0.32713 0.0
H829 H 0.07209 0.10017 0.35774 0.0
H830 H 0.01763 0.95951 0.28811 0.0
H831 H 0.04829 0.94603 0.31744 0.0
H832 H 0.03592 0.99409 0.25881 0.0
H833 H 0.0226 0.03607 0.25378 0.0
C834 C 0.37276 0.46105 0.8454 0.0
C835 C 0.36953 0.49321 0.8344 0.0
C836 C 0.40598 0.47141 0.79278 0.0
C837 C 0.41902 0.44073 0.80502 0.0
N838 N 0.42144 0.40815 0.84494 0.0
N839 N 0.3961 0.5305 0.80019 0.0
C840 C 0.40482 0.43614 0.83199 0.0
C841 C 0.39013 0.49868 0.80868 0.0
N842 N 0.3426 0.45363 0.86777 0.0
N843 N 0.40652 0.47459 0.76617 0.0
H844 H 0.41539 0.53715 0.7824 0.0
H845 H 0.41539 0.53715 0.7824 0.0
H846 H 0.41694 0.4554 0.75349 0.0
H847 H 0.39091 0.49555 0.7566 0.0
H848 H 0.33901 0.42965 0.87517 0.0
H849 H 0.31565 0.47062 0.87723 0.0
H850 H 0.4175 0.4055 0.86518 0.0
H851 H 0.44308 0.38862 0.83598 0.0
C852 C 0.60588 0.45379 0.67844 0.0
C853 C 0.59493 0.48752 0.68432 0.0
C854 C 0.54918 0.47065 0.72573 0.0
C855 C 0.55402 0.43687 0.71834 0.0
N856 N 0.57186 0.39762 0.68358 0.0
N857 N 0.54326 0.52741 0.71085 0.0
C858 C 0.57803 0.42877 0.69352 0.0
C859 C 0.56291 0.49582 0.70723 0.0
N860 N 0.64445 0.44545 0.6591 0.0
N861 N 0.53267 0.47885 0.75054 0.0
H862 H 0.55011 0.54629 0.69724 0.0
H863 H 0.5149 0.53396 0.72597 0.0
H864 H 0.52127 0.46112 0.76442 0.0
H865 H 0.53477 0.50293 0.75786 0.0
H866 H 0.65799 0.42117 0.65589 0.0
H867 H 0.66758 0.46299 0.64818 0.0
H868 H 0.58379 0.39136 0.6645 0.0
H869 H 0.54914 0.37909 0.69338 0.0
C870 C 0.85139 0.01455 0.21852 0.0
C871 C 0.8696 0.00862 0.19228 0.0
C872 C 0.92521 0.06055 0.1942 0.0
C873 C 0.91637 0.06255 0.22181 0.0
N874 N 0.88783 0.03202 0.26048 0.0
N875 N 0.94077 0.02236 0.15864 0.0
C876 C 0.88386 0.03703 0.23417 0.0
C877 C 0.91124 0.03062 0.18094 0.0
N878 N 0.80299 0.99927 0.22858 0.0
N879 N 0.94579 0.08705 0.18034 0.0
H880 H 0.93712 0.99922 0.14974 0.0
H881 H 0.9746 0.03697 0.15111 0.0
H882 H 0.95286 0.11024 0.18869 0.0
H883 H 0.94873 0.08689 0.15994 0.0
H884 H 0.78725 0.00461 0.2473 0.0
H885 H 0.77527 0.98453 0.21721 0.0
H886 H 0.86771 0.01194 0.26977 0.0
H887 H 0.91683 0.04539 0.27221 0.0
C888 C 0.86869 0.96568 0.68767 0.0
C889 C 0.89138 0.9976 0.69317 0.0
C890 C 0.95328 0.97435 0.72773 0.0
C891 C 0.9332 0.94194 0.72119 0.0
N892 N 0.88537 0.90689 0.68896 0.0
N893 N 0.96402 0.03172 0.71437 0.0
C894 C 0.89503 0.93757 0.69936 0.0
C895 C 0.93609 0.00179 0.71212 0.0
N896 N 0.82076 0.96219 0.67187 0.0
N897 N 0.99021 0.97892 0.74839 0.0
H898 H 0.95329 0.05223 0.70294 0.0
H899 H 0.00126 0.03553 0.72573 0.0
H900 H 0.01018 0.95936 0.75795 0.0
H901 H -0.00034 0.002 0.75652 0.0
H902 H 0.79813 0.93987 0.66974 0.0
H903 H 0.80031 0.98216 0.6628 0.0
H904 H 0.86215 0.90296 0.67167 0.0
H905 H 0.90638 0.88576 0.69549 0.0
C906 C 0.63623 0.53753 0.18998 0.0
C907 C 0.61209 0.50538 0.19352 0.0
C908 C 0.54924 0.52627 0.22863 0.0
C909 C 0.56959 0.55904 0.22372 0.0
N910 N 0.62614 0.59663 0.19672 0.0
N911 N 0.5355 0.47092 0.21143 0.0
C912 C 0.61079 0.56493 0.2033 0.0
C913 C 0.56573 0.50027 0.21152 0.0
N914 N 0.6853 0.54167 0.17498 0.0
N915 N 0.51348 0.51982 0.24944 0.0
H916 H 0.545 0.4516 0.19856 0.0
H917 H 0.49723 0.467 0.22211 0.0
H918 H 0.49613 0.53828 0.26116 0.0
H919 H 0.50366 0.49596 0.25592 0.0
H920 H 0.70889 0.56379 0.17411 0.0
H921 H 0.70549 0.52221 0.16511 0.0
H922 H 0.65028 0.60251 0.18003 0.0
H923 H 0.61197 0.61735 0.20703 0.0
C924 C 0.44095 0.51178 0.33304 0.0
C925 C 0.37964 0.51244 0.33745 0.0
C926 C 0.37513 0.56856 0.31937 0.0
C927 C 0.43406 0.56582 0.31116 0.0
N928 N 0.52542 0.5364 0.31184 0.0
N929 N 0.28699 0.54034 0.33379 0.0
C930 C 0.46786 0.53801 0.31876 0.0
C931 C 0.34632 0.54059 0.33042 0.0
N932 N 0.47339 0.48612 0.34269 0.0
N933 N 0.3478 0.59847 0.31784 0.0
H934 H 0.26462 0.52076 0.3427 0.0
H935 H 0.25963 0.55852 0.32621 0.0
H936 H 0.36913 0.61971 0.31107 0.0
H937 H 0.30672 0.60304 0.32586 0.0
H938 H 0.51889 0.48575 0.34285 0.0
H939 H 0.45497 0.46566 0.35212 0.0
H940 H 0.55097 0.51525 0.31338 0.0
H941 H 0.54735 0.55631 0.30351 0.0
C942 C 0.15815 0.96349 0.82921 0.0
C943 C 0.12367 0.99144 0.83546 0.0
C944 C 0.03856 0.96579 0.81418 0.0
C945 C 0.0742 0.93894 0.80551 0.0
N946 N 0.168 0.91192 0.80544 0.0
N947 N 0.03369 0.02169 0.8314 0.0
C948 C 0.13418 0.93787 0.81312 0.0
C949 C 0.06458 0.99318 0.82736 0.0
N950 N 0.21338 0.96111 0.83938 0.0
N951 N 0.97939 0.96514 0.81034 0.0
H952 H 0.05013 0.04183 0.84194 0.0
H953 H 0.99339 0.02645 0.82271 0.0
H954 H 0.958 0.94744 0.79912 0.0
H955 H 0.95059 0.98122 0.81964 0.0
H956 H 0.23941 0.94014 0.83804 0.0
H957 H 0.23228 0.97963 0.85092 0.0
H958 H 0.21328 0.91119 0.80728 0.0
H959 H 0.15042 0.89097 0.79663 0.0
C960 C 0.23264 0.08646 0.06737 0.0
C961 C 0.23793 0.11608 0.05234 0.0
C962 C 0.23812 0.14819 0.09312 0.0
C963 C 0.22346 0.11946 0.10772 0.0
N964 N 0.20672 0.06038 0.10861 0.0
N965 N 0.29643 0.16566 0.05673 0.0
C966 C 0.2206 0.0883 0.09479 0.0
C967 C 0.25434 0.14503 0.06644 0.0
N968 N 0.2487 0.05703 0.05638 0.0
N969 N 0.23773 0.17865 0.10472 0.0
H970 H 0.32273 0.15848 0.04102 0.0
H971 H 0.31272 0.18594 0.06715 0.0
H972 H 0.22565 0.18218 0.12424 0.0
H973 H 0.24427 0.20042 0.09407 0.0
H974 H 0.25136 0.03489 0.06676 0.0
H975 H 0.26755 0.05585 0.03777 0.0
H976 H 0.1971 0.03778 0.09969 0.0
H977 H 0.20081 0.06026 0.12886 0.0
C978 C 0.35952 0.3489 0.55794 0.0
C979 C 0.3153 0.36928 0.5471 0.0
C980 C 0.27701 0.3806 0.59106 0.0
C981 C 0.3171 0.35743 0.60156 0.0
N982 N 0.39322 0.31711 0.59531 0.0
N983 N 0.22765 0.40159 0.55251 0.0
C984 C 0.35772 0.34101 0.5851 0.0
C985 C 0.27299 0.38449 0.56345 0.0
N986 N 0.40387 0.33773 0.54232 0.0
N987 N 0.24354 0.39931 0.60756 0.0
H988 H 0.22344 0.40526 0.53238 0.0
H989 H 0.19175 0.40999 0.56312 0.0
H990 H 0.24496 0.3969 0.6279 0.0
H991 H 0.2181 0.41911 0.60133 0.0
H992 H 0.44075 0.3257 0.54945 0.0
H993 H 0.40615 0.34278 0.5223 0.0
H994 H 0.41899 0.30152 0.58393 0.0
H995 H 0.39413 0.31131 0.61522 0.0
C996 C 0.7233 0.39127 0.96344 0.0
C997 C 0.68646 0.37044 0.97871 0.0
C998 C 0.66103 0.33837 0.93947 0.0
C999 C 0.69383 0.36095 0.9239 0.0
N1000 N 0.74613 0.41282 0.92033 0.0
N1001 N 0.61114 0.32843 0.98065 0.0
C1002 C 0.72203 0.38859 0.93568 0.0
C1003 C 0.65257 0.34523 0.96653 0.0
N1004 N 0.76133 0.41267 0.97544 0.0
N1005 N 0.63989 0.30972 0.92867 0.0
H1006 H 0.60322 0.33303 1.00044 0.0
H1007 H 0.58097 0.3122 0.97221 0.0
H1008 H 0.64574 0.30356 0.909 0.0
H1009 H 0.62117 0.2907 0.93967 0.0
H1010 H 0.79366 0.42579 0.9654 0.0
H1011 H 0.76423 0.41513 0.99574 0.0
H1012 H 0.7618 0.43521 0.92776 0.0
H1013 H 0.74547 0.41195 0.89991 0.0
C1014 C 0.83537 0.15751 0.46642 0.0
C1015 C 0.88106 0.15487 0.48515 0.0
C1016 C 0.95353 0.16491 0.45042 0.0
C1017 C 0.90766 0.17125 0.43237 0.0
N1018 N 0.80461 0.1791 0.42435 0.0
N1019 N 0.98318 0.16196 0.49591 0.0
C1020 C 0.84842 0.16902 0.44068 0.0
C1021 C 0.94009 0.16017 0.4774 0.0
N1022 N 0.77976 0.14798 0.47294 0.0
N1023 N 0.00986 0.16241 0.44165 0.0
H1024 H 0.97511 0.15917 0.5159 0.0
H1025 H 0.02595 0.16928 0.49172 0.0
H1026 H 0.02137 0.16527 0.422 0.0
H1027 H 0.04427 0.1544 0.45338 0.0
H1028 H 0.74594 0.146 0.45935 0.0
H1029 H 0.76855 0.13907 0.49146 0.0
H1030 H 0.76125 0.18148 0.43033 0.0
H1031 H 0.81228 0.18797 0.40547 0.0
C1032 C 0.75601 0.91455 0.95924 0.0
C1033 C 0.75316 0.885 0.97445 0.0
C1034 C 0.75661 0.85262 0.93376 0.0
C1035 C 0.7702 0.88158 0.91922 0.0
N1036 N 0.78313 0.94095 0.91833 0.0
N1037 N 0.69992 0.83357 0.97031 0.0
C1038 C 0.77014 0.91282 0.93204 0.0
C1039 C 0.73974 0.85549 0.96043 0.0
N1040 N 0.73531 0.94338 0.96959 0.0
N1041 N 0.75888 0.82222 0.92211 0.0
H1042 H 0.67389 0.83966 0.9864 0.0
H1043 H 0.68525 0.81285 0.95996 0.0
H1044 H 0.77119 0.81899 0.90259 0.0
H1045 H 0.75357 0.8003 0.93269 0.0
H1046 H 0.73079 0.96516 0.95886 0.0
H1047 H 0.71463 0.94402 0.98783 0.0
H1048 H 0.79011 0.9638 0.92735 0.0
H1049 H 0.79119 0.94103 0.89823 0.0
C1050 C 0.66449 0.65474 0.46231 0.0
C1051 C 0.69876 0.6326 0.47746 0.0
C1052 C 0.72491 0.60227 0.43742 0.0
C1053 C 0.69725 0.62692 0.42205 0.0
N1054 N 0.64544 0.67869 0.41955 0.0
N1055 N 0.76844 0.58791 0.47912 0.0
C1056 C 0.66793 0.65365 0.43441 0.0
C1057 C 0.73056 0.60691 0.46494 0.0
N1058 N 0.62761 0.67629 0.47461 0.0
N1059 N 0.74494 0.57406 0.42569 0.0
H1060 H 0.7746 0.5907 0.49924 0.0
H1061 H 0.79764 0.57136 0.47061 0.0
H1062 H 0.74115 0.56976 0.40561 0.0
H1063 H 0.76005 0.55366 0.43611 0.0
H1064 H 0.59708 0.69068 0.46473 0.0
H1065 H 0.62391 0.67766 0.49495 0.0
H1066 H 0.62958 0.70068 0.42742 0.0
H1067 H 0.6464 0.67857 0.39912 0.0
C1068 C 0.29688 0.62661 0.06405 0.0
C1069 C 0.34072 0.63935 0.04702 0.0
C1070 C 0.38889 0.66712 0.08411 0.0
C1071 C 0.3448 0.65455 0.10107 0.0
N1072 N 0.26428 0.61717 0.10877 0.0
N1073 N 0.43404 0.66626 0.04096 0.0
C1074 C 0.30124 0.63253 0.09149 0.0
C1075 C 0.38865 0.65784 0.05715 0.0
N1076 N 0.24994 0.60991 0.05381 0.0
N1077 N 0.42963 0.68891 0.09367 0.0
H1078 H 0.4345 0.66047 0.02104 0.0
H1079 H 0.47304 0.67683 0.04745 0.0
H1080 H 0.43262 0.69497 0.1135 0.0
H1081 H 0.45876 0.70218 0.08197 0.0
H1082 H 0.213 0.60336 0.06459 0.0
H1083 H 0.24614 0.60419 0.03395 0.0
H1084 H 0.23515 0.5984 0.10357 0.0
H1085 H 0.26612 0.62128 0.12893 0.0
C1086 C 0.09109 0.83197 0.55261 0.0
C1087 C 0.14263 0.84707 0.54254 0.0
C1088 C 0.18024 0.85413 0.58741 0.0
C1089 C 0.13305 0.83463 0.597 0.0
N1090 N 0.04226 0.80569 0.5896 0.0
N1091 N 0.23585 0.87361 0.54974 0.0
C1092 C 0.08756 0.82422 0.57986 0.0
C1093 C 0.18671 0.85893 0.55985 0.0
N1094 N 0.04574 0.825 0.53601 0.0
N1095 N 0.2189 0.86787 0.60477 0.0
H1096 H 0.24064 0.87894 0.52986 0.0
H1097 H 0.27292 0.87934 0.56068 0.0
H1098 H 0.21552 0.86438 0.62496 0.0
H1099 H 0.25149 0.88472 0.59959 0.0
H1100 H 0.00479 0.81674 0.54217 0.0
H1101 H 0.04761 0.82981 0.51595 0.0
H1102 H 0.01116 0.79376 0.57803 0.0
H1103 H 0.03692 0.80116 0.60959 0.0
C1104 C 0.09454 0.25015 0.32775 0.0
C1105 C 0.14324 0.24028 0.34281 0.0
C1106 C 0.13671 0.18467 0.32335 0.0
C1107 C 0.08997 0.19558 0.30691 0.0
N1108 N 0.04927 0.24337 0.28582 0.0
N1109 N 0.22019 0.2007 0.34997 0.0
C1110 C 0.07562 0.22967 0.30703 0.0
C1111 C 0.16711 0.20822 0.33925 0.0
N1112 N 0.0662 0.27908 0.33303 0.0
N1113 N 0.15225 0.15214 0.32435 0.0
H1114 H 0.24402 0.21733 0.36146 0.0
H1115 H 0.24313 0.17922 0.34541 0.0
H1116 H 0.13629 0.13421 0.3117 0.0
H1117 H 0.17971 0.14257 0.33873 0.0
H1118 H 0.02755 0.28569 0.32355 0.0
H1119 H 0.07778 0.29457 0.34858 0.0
H1120 H 0.04113 0.26867 0.28409 0.0
H1121 H 0.04603 0.23005 0.26847 0.0
C1122 C 0.34107 0.28777 0.83853 0.0
C1123 C 0.36974 0.25835 0.84632 0.0
C1124 C 0.45398 0.27272 0.81859 0.0
C1125 C 0.42622 0.30285 0.81165 0.0
N1126 N 0.35028 0.34272 0.82015 0.0
N1127 N 0.45693 0.22511 0.84763 0.0
C1128 C 0.37184 0.31149 0.82318 0.0
C1129 C 0.42723 0.25144 0.8374 0.0
N1130 N 0.28364 0.29251 0.84497 0.0
N1131 N 0.50595 0.26442 0.80718 0.0
H1132 H 0.43867 0.20897 0.86138 0.0
H1133 H 0.50105 0.22061 0.84415 0.0
H1134 H 0.52939 0.28062 0.79527 0.0
H1135 H 0.52469 0.24105 0.80856 0.0
H1136 H 0.25839 0.31154 0.83722 0.0
H1137 H 0.25974 0.27585 0.85642 0.0
H1138 H 0.31446 0.35167 0.83054 0.0
H1139 H 0.37108 0.36067 0.80882 0.0
C1140 C 0.66926 0.29326 0.69199 0.0
C1141 C 0.64566 0.26156 0.6862 0.0
C1142 C 0.56905 0.27022 0.71905 0.0
C1143 C 0.58655 0.3038 0.72161 0.0
N1144 N 0.65255 0.34805 0.70926 0.0
N1145 N 0.56693 0.2219 0.6911 0.0
C1146 C 0.63634 0.31558 0.70761 0.0
C1147 C 0.59388 0.25054 0.69893 0.0
N1148 N 0.72433 0.30151 0.68366 0.0
N1149 N 0.52971 0.25674 0.73617 0.0
H1150 H 0.58267 0.20723 0.67584 0.0
H1151 H 0.5259 0.21454 0.69794 0.0
H1152 H 0.50992 0.27041 0.75097 0.0
H1153 H 0.52034 0.23147 0.73692 0.0
H1154 H 0.7465 0.32272 0.68985 0.0
H1155 H 0.75031 0.28563 0.67257 0.0
H1156 H 0.68386 0.35896 0.69714 0.0
H1157 H 0.6321 0.36461 0.72175 0.0
C1158 C 0.82755 0.20322 0.18641 0.0
C1159 C 0.84509 0.23645 0.18188 0.0
C1160 C 0.91886 0.23165 0.21608 0.0
C1161 C 0.90851 0.19694 0.21792 0.0
N1162 N 0.85286 0.1493 0.20345 0.0
N1163 N 0.91758 0.27946 0.18779 0.0
C1164 C 0.86309 0.18255 0.20245 0.0
C1165 C 0.89401 0.24971 0.19523 0.0
N1166 N 0.77572 0.19184 0.17645 0.0
N1167 N 0.94993 0.24806 0.23477 0.0
H1168 H 0.90178 0.29311 0.17198 0.0
H1169 H 0.95663 0.2887 0.19549 0.0
H1170 H 0.96291 0.2367 0.25185 0.0
H1171 H 0.9546 0.27375 0.23519 0.0
H1172 H 0.75728 0.16909 0.18156 0.0
H1173 H 0.74859 0.20635 0.16477 0.0
H1174 H 0.82567 0.13679 0.19035 0.0
H1175 H 0.87335 0.13406 0.21692 0.0
C1176 C 0.83335 0.77598 0.69721 0.0
C1177 C 0.86528 0.74717 0.69069 0.0
C1178 C 0.94936 0.76793 0.71589 0.0
C1179 C 0.91809 0.79742 0.72172 0.0
N1180 N 0.83701 0.83295 0.71128 0.0
N1181 N 0.95701 0.71831 0.68914 0.0
C1182 C 0.86204 0.80244 0.71041 0.0
C1183 C 0.92438 0.74394 0.69865 0.0
N1184 N 0.77494 0.77769 0.69164 0.0
N1185 N 0.00265 0.76254 0.72707 0.0
H1186 H 0.93992 0.70035 0.67653 0.0
H1187 H 0.00201 0.71633 0.69179 0.0
H1188 H 0.02366 0.78014 0.73855 0.0
H1189 H 0.02445 0.73999 0.72635 0.0
H1190 H 0.74793 0.79632 0.69883 0.0
H1191 H 0.75244 0.75916 0.68149 0.0
H1192 H 0.79987 0.83926 0.70059 0.0
H1193 H 0.8563 0.85274 0.72104 0.0
C1194 C 0.58468 0.72185 0.17332 0.0
C1195 C 0.63531 0.73986 0.18138 0.0
C1196 C 0.61903 0.71962 0.22589 0.0
C1197 C 0.57678 0.69664 0.21695 0.0
N1198 N 0.52879 0.67159 0.17969 0.0
N1199 N 0.70994 0.74627 0.21485 0.0
C1200 C 0.56209 0.69648 0.18991 0.0
C1201 C 0.65547 0.73583 0.20753 0.0
N1202 N 0.55633 0.7297 0.15065 0.0
N1203 N 0.6218 0.72792 0.25169 0.0
H1204 H 0.74052 0.75538 0.20147 0.0
H1205 H 0.72651 0.74197 0.23358 0.0
H1206 H 0.59104 0.71919 0.26515 0.0
H1207 H 0.6493 0.74671 0.25859 0.0
H1208 H 0.51663 0.71878 0.1453 0.0
H1209 H 0.5685 0.74968 0.13889 0.0
H1210 H 0.52056 0.66918 0.15969 0.0
H1211 H 0.51577 0.65141 0.19088 0.0
C1212 C 0.35605 0.74982 0.30848 0.0
C1213 C 0.37085 0.75573 0.33513 0.0
C1214 C 0.43568 0.70768 0.33352 0.0
C1215 C 0.42927 0.70601 0.30588 0.0
N1216 N 0.39216 0.73167 0.26649 0.0
N1217 N 0.43661 0.744 0.37109 0.0
C1218 C 0.39207 0.72894 0.29315 0.0
C1219 C 0.41411 0.73574 0.34719 0.0
N1220 N 0.30631 0.76291 0.29799 0.0
N1221 N 0.45924 0.68187 0.34705 0.0
H1222 H 0.4248 0.76544 0.38113 0.0
H1223 H 0.47172 0.73142 0.37943 0.0
H1224 H 0.47248 0.66006 0.33797 0.0
H1225 H 0.45995 0.68097 0.36746 0.0
H1226 H 0.29157 0.75689 0.27924 0.0
H1227 H 0.27631 0.77642 0.30902 0.0
H1228 H 0.36909 0.75006 0.25662 0.0
H1229 H 0.41998 0.718 0.25452 0.0
C1230 C 0.07754 0.74786 0.83044 0.0
C1231 C 0.12686 0.75792 0.84549 0.0
C1232 C 0.11412 0.81462 0.82983 0.0
C1233 C 0.07137 0.80365 0.81156 0.0
N1234 N 0.015 0.75847 0.79323 0.0
N1235 N 0.20035 0.7997 0.85433 0.0
C1236 C 0.05438 0.76975 0.81127 0.0
C1237 C 0.14766 0.79096 0.84367 0.0
N1238 N 0.05054 0.71825 0.83553 0.0
N1239 N 0.12131 0.84753 0.83496 0.0
H1240 H 0.2275 0.78285 0.86381 0.0
H1241 H 0.21971 0.82281 0.85122 0.0
H1242 H 0.09449 0.86551 0.82686 0.0
H1243 H 0.14879 0.85646 0.84968 0.0
H1244 H 0.01102 0.71113 0.827 0.0
H1245 H 0.06415 0.70227 0.85034 0.0
H1246 H 0.00673 0.73339 0.78999 0.0
H1247 H 0.99243 0.77416 0.78071 0.0
loop_
_geom_bond_atom_site_label_1
_geom_bond_atom_site_label_2
_geom_bond_distance
_geom_bond_site_symmetry_2
_ccdc_geom_bond_type
C0 C1 1.391 . S
C0 C4 1.391 . S
C0 H42 0.948 . S
C1 C0 1.391 . S
C1 C2 1.391 . S
C2 C1 1.391 . S
C2 H58 0.947 . S
C2 C59 1.392 . S
C3 C4 1.391 . S
C3 C7 1.397 . S
C3 C59 1.419 . S
C4 C0 1.391 . S
C4 C3 1.391 . S
C4 C5 1.399 . S
C5 C4 1.399 . S
C5 C8 1.396 . S
C5 C17 1.453 . S
C5 C18 1.684 . S
H6 C30 0.948 . S
C7 C3 1.397 . S
C7 C8 1.394 . S
C7 C26 1.723 . S
C8 C5 1.396 . S
C8 C7 1.394 . S
C8 C38 1.723 . S
H9 C32 0.947 . S
H10 C33 0.948 . S
H11 C39 0.982 . S
H12 C40 0.979 . S
H13 C40 0.980 . S
H14 C40 0.983 . S
H15 C39 0.979 . S
H16 C39 0.977 . S
C17 C5 1.453 . S
C17 H46 0.982 . S
C17 H47 0.979 . S
C17 H48 0.977 . S
C18 C5 1.684 . S
C18 H43 0.979 . S
C18 H44 0.980 . S
C18 H45 0.983 . S
C19 C20 1.391 . S
C19 C24 1.391 . S
C19 H49 0.948 . S
C20 C19 1.391 . S
C20 C21 1.391 . S
C21 C20 1.391 . S
C21 C22 1.392 . S
C21 H50 0.947 . S
C22 C21 1.392 . S
C22 C23 1.419 . S
C22 H51 0.948 . S
C23 C22 1.419 . S
C23 C24 1.391 . S
C23 C27 1.397 . S
C24 C19 1.391 . S
C24 C23 1.391 . S
C24 C25 1.399 . S
C25 C24 1.399 . S
C25 C26 1.396 . S
C25 C28 1.453 . S
C25 C29 1.684 . S
C26 C7 1.723 . S
C26 C25 1.396 . S
C26 C27 1.394 . S
C27 C23 1.397 . S
C27 C26 1.394 . S
C27 C37 1.723 . S
C28 C25 1.453 . S
C28 H52 0.982 . S
C28 H53 0.979 . S
C28 H54 0.977 . S
C29 C25 1.684 . S
C29 H55 0.979 . S
C29 H56 0.980 . S
C29 H57 0.983 . S
C30 H6 0.948 . S
C30 C31 1.391 . S
C30 C35 1.391 . S
C31 C30 1.391 . S
C31 C32 1.391 . S
C32 H9 0.947 . S
C32 C31 1.391 . S
C32 C33 1.392 . S
C33 H10 0.948 . S
C33 C32 1.392 . S
C33 C34 1.419 . S
C34 C33 1.419 . S
C34 C35 1.391 . S
C34 C38 1.397 . S
C35 C30 1.391 . S
C35 C34 1.391 . S
C35 C36 1.399 . S
C36 C35 1.399 . S
C36 C37 1.396 . S
C36 C39 1.453 . S
C36 C40 1.684 . S
C37 C27 1.723 . S
C37 C36 1.396 . S
C37 C38 1.394 . S
C38 C8 1.723 . S
C38 C34 1.397 . S
C38 C37 1.394 . S
C39 H11 0.982 . S
C39 H15 0.979 . S
C39 H16 0.977 . S
C39 C36 1.453 . S
C40 H12 0.979 . S
C40 H13 0.980 . S
C40 H14 0.983 . S
C40 C36 1.684 . S
H41 C59 0.948 . S
H42 C0 0.948 . S
H43 C18 0.979 . S
H44 C18 0.980 . S
H45 C18 0.983 . S
H46 C17 0.982 . S
H47 C17 0.979 . S
H48 C17 0.977 . S
H49 C19 0.948 . S
H50 C21 0.947 . S
H51 C22 0.948 . S
H52 C28 0.982 . S
H53 C28 0.979 . S
H54 C28 0.977 . S
H55 C29 0.979 . S
H56 C29 0.980 . S
H57 C29 0.983 . S
H58 C2 0.947 . S
C59 C2 1.392 . S
C59 C3 1.419 . S
C59 H41 0.948 . S
C60 C61 1.391 . S
C60 C64 1.391 . S
C60 H102 0.948 . S
C61 C60 1.391 . S
C61 C62 1.391 . S
C62 C61 1.391 . S
C62 H118 0.947 . S
C62 C119 1.392 . S
C63 C64 1.391 . S
C63 C67 1.397 . S
C63 C119 1.419 . S
C64 C60 1.391 . S
C64 C63 1.391 . S
C64 C65 1.399 . S
C65 C64 1.399 . S
C65 C68 1.396 . S
C65 C77 1.453 . S
C65 C78 1.684 . S
H66 C90 0.948 1_565 S
C67 C63 1.397 . S
C67 C68 1.394 . S
C67 C86 1.723 . S
C68 C65 1.396 . S
C68 C67 1.394 . S
C68 C98 1.723 . S
H69 C92 0.947 . S
H70 C93 0.948 . S
H71 C99 0.982 . S
H72 C100 0.979 . S
H73 C100 0.980 . S
H74 C100 0.983 . S
H75 C99 0.979 . S
H76 C99 0.977 . S
C77 C65 1.453 . S
C77 H106 0.982 . S
C77 H107 0.979 . S
C77 H108 0.977 . S
C78 C65 1.684 . S
C78 H103 0.979 . S
C78 H104 0.980 . S
C78 H105 0.983 . S
C79 C80 1.391 1_556 S
C79 C84 1.391 . S
C79 H109 0.948 . S
C80 C79 1.391 1_554 S
C80 C81 1.391 1_554 S
C81 C80 1.391 1_556 S
C81 C82 1.392 . S
C81 H110 0.947 1_556 S
C82 C81 1.392 . S
C82 C83 1.419 . S
C82 H111 0.948 . S
C83 C82 1.419 . S
C83 C84 1.391 . S
C83 C87 1.397 . S
C84 C79 1.391 . S
C84 C83 1.391 . S
C84 C85 1.399 . S
C85 C84 1.399 . S
C85 C86 1.396 . S
C85 C88 1.453 . S
C85 C89 1.684 . S
C86 C67 1.723 . S
C86 C85 1.396 . S
C86 C87 1.394 . S
C87 C83 1.397 . S
C87 C86 1.394 . S
C87 C97 1.723 . S
C88 C85 1.453 . S
C88 H112 0.982 . S
C88 H113 0.979 . S
C88 H114 0.977 . S
C89 C85 1.684 . S
C89 H115 0.979 . S
C89 H116 0.980 . S
C89 H117 0.983 . S
C90 H66 0.948 1_545 S
C90 C91 1.391 . S
C90 C95 1.391 . S
C91 C90 1.391 . S
C91 C92 1.391 . S
C92 H69 0.947 . S
C92 C91 1.391 . S
C92 C93 1.392 . S
C93 H70 0.948 . S
C93 C92 1.392 . S
C93 C94 1.419 . S
C94 C93 1.419 . S
C94 C95 1.391 . S
C94 C98 1.397 . S
C95 C90 1.391 . S
C95 C94 1.391 . S
C95 C96 1.399 . S
C96 C95 1.399 . S
C96 C97 1.396 . S
C96 C99 1.453 . S
C96 C100 1.684 . S
C97 C87 1.723 . S
C97 C96 1.396 . S
C97 C98 1.394 . S
C98 C68 1.723 . S
C98 C94 1.397 . S
C98 C97 1.394 . S
C99 H71 0.982 . S
C99 H75 0.979 . S
C99 H76 0.977 . S
C99 C96 1.453 . S
C100 H72 0.979 . S
C100 H73 0.980 . S
C100 H74 0.983 . S
C100 C96 1.684 . S
H101 C119 0.948 . S
H102 C60 0.948 . S
H103 C78 0.979 . S
H104 C78 0.980 . S
H105 C78 0.983 . S
H106 C77 0.982 . S
H107 C77 0.979 . S
H108 C77 0.977 . S
H109 C79 0.948 . S
H110 C81 0.947 1_554 S
H111 C82 0.948 . S
H112 C88 0.982 . S
H113 C88 0.979 . S
H114 C88 0.977 . S
H115 C89 0.979 . S
H116 C89 0.980 . S
H117 C89 0.983 . S
H118 C62 0.947 . S
C119 C62 1.392 . S
C119 C63 1.419 . S
C119 H101 0.948 . S
C120 C121 1.391 . S
C120 C124 1.391 . S
C120 H162 0.948 . S
C121 C120 1.391 . S
C121 C122 1.391 . S
C122 C121 1.391 . S
C122 H178 0.947 . S
C122 C179 1.392 . S
C123 C124 1.391 . S
C123 C127 1.397 . S
C123 C179 1.419 . S
C124 C120 1.391 . S
C124 C123 1.391 . S
C124 C125 1.399 . S
C125 C124 1.399 . S
C125 C128 1.396 . S
C125 C137 1.453 . S
C125 C138 1.684 . S
H126 C150 0.948 . S
C127 C123 1.397 . S
C127 C128 1.394 . S
C127 C146 1.723 . S
C128 C125 1.396 . S
C128 C127 1.394 . S
C128 C158 1.723 . S
H129 C152 0.947 . S
H130 C153 0.948 . S
H131 C159 0.982 . S
H132 C160 0.979 . S
H133 C160 0.980 . S
H134 C160 0.983 . S
H135 C159 0.979 . S
H136 C159 0.977 . S
C137 C125 1.453 . S
C137 H166 0.982 . S
C137 H167 0.979 . S
C137 H168 0.977 . S
C138 C125 1.684 . S
C138 H163 0.979 . S
C138 H164 0.980 . S
C138 H165 0.983 . S
C139 C140 1.391 . S
C139 C144 1.391 . S
C139 H169 0.948 1_545 S
C140 C139 1.391 . S
C140 C141 1.391 . S
C141 C140 1.391 . S
C141 C142 1.392 . S
C141 H170 0.947 . S
C142 C141 1.392 . S
C142 C143 1.419 . S
C142 H171 0.948 . S
C143 C142 1.419 . S
C143 C144 1.391 . S
C143 C147 1.397 . S
C144 C139 1.391 . S
C144 C143 1.391 . S
C144 C145 1.399 . S
C145 C144 1.399 . S
C145 C146 1.396 . S
C145 C148 1.453 . S
C145 C149 1.684 . S
C146 C127 1.723 . S
C146 C145 1.396 . S
C146 C147 1.394 . S
C147 C143 1.397 . S
C147 C146 1.394 . S
C147 C157 1.723 . S
C148 C145 1.453 . S
C148 H172 0.982 . S
C148 H173 0.979 . S
C148 H174 0.977 . S
C149 C145 1.684 . S
C149 H175 0.979 . S
C149 H176 0.980 . S
C149 H177 0.983 . S
C150 H126 0.948 . S
C150 C151 1.391 . S
C150 C155 1.391 . S
C151 C150 1.391 . S
C151 C152 1.391 . S
C152 H129 0.947 . S
C152 C151 1.391 . S
C152 C153 1.392 . S
C153 H130 0.948 . S
C153 C152 1.392 . S
C153 C154 1.419 . S
C154 C153 1.419 . S
C154 C155 1.391 . S
C154 C158 1.397 . S
C155 C150 1.391 . S
C155 C154 1.391 . S
C155 C156 1.399 . S
C156 C155 1.399 . S
C156 C157 1.396 . S
C156 C159 1.453 . S
C156 C160 1.684 . S
C157 C147 1.723 . S
C157 C156 1.396 . S
C157 C158 1.394 . S
C158 C128 1.723 . S
C158 C154 1.397 . S
C158 C157 1.394 . S
C159 H131 0.982 . S
C159 H135 0.979 . S
C159 H136 0.977 . S
C159 C156 1.453 . S
C160 H132 0.979 . S
C160 H133 0.980 . S
C160 H134 0.983 . S
C160 C156 1.684 . S
H161 C179 0.948 . S
H162 C120 0.948 . S
H163 C138 0.979 . S
H164 C138 0.980 . S
H165 C138 0.983 . S
H166 C137 0.982 . S
H167 C137 0.979 . S
H168 C137 0.977 . S
H169 C139 0.948 1_565 S
H170 C141 0.947 . S
H171 C142 0.948 . S
H172 C148 0.982 . S
H173 C148 0.979 . S
H174 C148 0.977 . S
H175 C149 0.979 . S
H176 C149 0.980 . S
H177 C149 0.983 . S
H178 C122 0.947 . S
C179 C122 1.392 . S
C179 C123 1.419 . S
C179 H161 0.948 . S
C180 C181 1.391 . S
C180 C184 1.391 . S
C180 H222 0.948 . S
C181 C180 1.391 . S
C181 C182 1.391 . S
C182 C181 1.391 . S
C182 H238 0.947 . S
C182 C239 1.392 . S
C183 C184 1.391 . S
C183 C187 1.397 . S
C183 C239 1.419 . S
C184 C180 1.391 . S
C184 C183 1.391 . S
C184 C185 1.399 . S
C185 C184 1.399 . S
C185 C188 1.396 . S
C185 C197 1.453 . S
C185 C198 1.684 . S
H186 C210 0.948 . S
C187 C183 1.397 . S
C187 C188 1.394 . S
C187 C206 1.723 . S
C188 C185 1.396 . S
C188 C187 1.394 . S
C188 C218 1.723 . S
H189 C212 0.947 . S
H190 C213 0.948 . S
H191 C219 0.982 . S
H192 C220 0.979 . S
H193 C220 0.980 . S
H194 C220 0.983 . S
H195 C219 0.979 . S
H196 C219 0.977 . S
C197 C185 1.453 . S
C197 H226 0.982 . S
C197 H227 0.979 . S
C197 H228 0.977 . S
C198 C185 1.684 . S
C198 H223 0.979 . S
C198 H224 0.980 . S
C198 H225 0.983 . S
C199 C200 1.378 1_554 S
C199 C204 1.391 . S
C199 H229 0.948 . S
C200 C199 1.378 1_556 S
C200 C201 1.380 1_556 S
C201 C200 1.380 1_554 S
C201 C202 1.392 . S
C201 H230 0.947 . S
C202 C201 1.392 . S
C202 C203 1.419 . S
C202 H231 0.948 . S
C203 C202 1.419 . S
C203 C204 1.391 . S
C203 C207 1.397 . S
C204 C199 1.391 . S
C204 C203 1.391 . S
C204 C205 1.399 . S
C205 C204 1.399 . S
C205 C206 1.396 . S
C205 C208 1.453 . S
C205 C209 1.684 . S
C206 C187 1.723 . S
C206 C205 1.396 . S
C206 C207 1.394 . S
C207 C203 1.397 . S
C207 C206 1.394 . S
C207 C217 1.723 . S
C208 C205 1.453 . S
C208 H232 0.982 . S
C208 H233 0.979 . S
C208 H234 0.977 . S
C209 C205 1.684 . S
C209 H235 0.979 . S
C209 H236 0.980 . S
C209 H237 0.983 . S
C210 H186 0.948 . S
C210 C211 1.391 . S
C210 C215 1.391 . S
C211 C210 1.391 . S
C211 C212 1.391 . S
C212 H189 0.947 . S
C212 C211 1.391 . S
C212 C213 1.392 . S
C213 H190 0.948 . S
C213 C212 1.392 . S
C213 C214 1.419 . S
C214 C213 1.419 . S
C214 C215 1.391 . S
C214 C218 1.397 . S
C215 C210 1.391 . S
C215 C214 1.391 . S
C215 C216 1.399 . S
C216 C215 1.399 . S
C216 C217 1.396 . S
C216 C219 1.453 . S
C216 C220 1.684 . S
C217 C207 1.723 . S
C217 C216 1.396 . S
C217 C218 1.394 . S
C218 C188 1.723 . S
C218 C214 1.397 . S
C218 C217 1.394 . S
C219 H191 0.982 . S
C219 H195 0.979 . S
C219 H196 0.977 . S
C219 C216 1.453 . S
C220 H192 0.979 . S
C220 H193 0.980 . S
C220 H194 0.983 . S
C220 C216 1.684 . S
H221 C239 0.948 . S
H222 C180 0.948 . S
H223 C198 0.979 . S
H224 C198 0.980 . S
H225 C198 0.983 . S
H226 C197 0.982 . S
H227 C197 0.979 . S
H228 C197 0.977 . S
H229 C199 0.948 . S
H230 C201 0.947 . S
H231 C202 0.948 . S
H232 C208 0.982 . S
H233 C208 0.979 . S
H234 C208 0.977 . S
H235 C209 0.979 . S
H236 C209 0.980 . S
H237 C209 0.983 . S
H238 C182 0.947 . S
C239 C182 1.392 . S
C239 C183 1.419 . S
C239 H221 0.948 . S
C240 C241 1.391 . S
C240 C244 1.391 . S
C240 H282 0.948 . S
C241 C240 1.391 . S
C241 C242 1.391 . S
C242 C241 1.391 . S
C242 H298 0.947 . S
C242 C299 1.392 . S
C243 C244 1.391 . S
C243 C247 1.397 . S
C243 C299 1.419 . S
C244 C240 1.391 . S
C244 C243 1.391 . S
C244 C245 1.399 . S
C245 C244 1.399 . S
C245 C248 1.396 . S
C245 C257 1.453 . S
C245 C258 1.684 . S
H246 C270 0.948 . S
C247 C243 1.397 . S
C247 C248 1.394 . S
C247 C266 1.723 . S
C248 C245 1.396 . S
C248 C247 1.394 . S
C248 C278 1.723 . S
H249 C272 0.947 . S
H250 C273 0.948 . S
H251 C279 0.982 . S
H252 C280 0.979 . S
H253 C280 0.980 . S
H254 C280 0.983 . S
H255 C279 0.979 . S
H256 C279 0.977 . S
C257 C245 1.453 . S
C257 H286 0.982 . S
C257 H287 0.979 . S
C257 H288 0.977 . S
C258 C245 1.684 . S
C258 H283 0.979 . S
C258 H284 0.980 . S
C258 H285 0.983 . S
C259 C260 1.391 . S
C259 C264 1.391 . S
C259 H289 0.948 . S
C260 C259 1.391 . S
C260 C261 1.391 . S
C261 C260 1.391 . S
C261 C262 1.392 . S
C261 H290 0.947 . S
C262 C261 1.392 . S
C262 C263 1.419 . S
C262 H291 0.948 . S
C263 C262 1.419 . S
C263 C264 1.391 . S
C263 C267 1.397 . S
C264 C259 1.391 . S
C264 C263 1.391 . S
C264 C265 1.399 . S
C265 C264 1.399 . S
C265 C266 1.396 . S
C265 C268 1.453 . S
C265 C269 1.684 . S
C266 C247 1.723 . S
C266 C265 1.396 . S
C266 C267 1.394 . S
C267 C263 1.397 . S
C267 C266 1.394 . S
C267 C277 1.723 . S
C268 C265 1.453 . S
C268 H292 0.982 . S
C268 H293 0.979 . S
C268 H294 0.977 . S
C269 C265 1.684 . S
C269 H295 0.979 . S
C269 H296 0.980 . S
C269 H297 0.983 . S
C270 H246 0.948 . S
C270 C271 1.391 . S
C270 C275 1.391 . S
C271 C270 1.391 . S
C271 C272 1.391 . S
C272 H249 0.947 . S
C272 C271 1.391 . S
C272 C273 1.392 . S
C273 H250 0.948 . S
C273 C272 1.392 . S
C273 C274 1.419 . S
C274 C273 1.419 . S
C274 C275 1.391 . S
C274 C278 1.397 . S
C275 C270 1.391 . S
C275 C274 1.391 . S
C275 C276 1.399 . S
C276 C275 1.399 . S
C276 C277 1.396 . S
C276 C279 1.453 . S
C276 C280 1.684 . S
C277 C267 1.723 . S
C277 C276 1.396 . S
C277 C278 1.394 . S
C278 C248 1.723 . S
C278 C274 1.397 . S
C278 C277 1.394 . S
C279 H251 0.982 . S
C279 H255 0.979 . S
C279 H256 0.977 . S
C279 C276 1.453 . S
C280 H252 0.979 . S
C280 H253 0.980 . S
C280 H254 0.983 . S
C280 C276 1.684 . S
H281 C299 0.948 . S
H282 C240 0.948 . S
H283 C258 0.979 . S
H284 C258 0.980 . S
H285 C258 0.983 . S
H286 C257 0.982 . S
H287 C257 0.979 . S
H288 C257 0.977 . S
H289 C259 0.948 . S
H290 C261 0.947 . S
H291 C262 0.948 . S
H292 C268 0.982 . S
H293 C268 0.979 . S
H294 C268 0.977 . S
H295 C269 0.979 . S
H296 C269 0.980 . S
H297 C269 0.983 . S
H298 C242 0.947 . S
C299 C242 1.392 . S
C299 C243 1.419 . S
C299 H281 0.948 . S
C300 C301 1.391 . S
C300 C304 1.391 . S
C300 H342 0.948 . S
C301 C300 1.391 . S
C301 C302 1.391 . S
C302 C301 1.391 . S
C302 H358 0.947 . S
C302 C359 1.392 . S
C303 C304 1.391 . S
C303 C307 1.397 . S
C303 C359 1.419 . S
C304 C300 1.391 . S
C304 C303 1.391 . S
C304 C305 1.399 . S
C305 C304 1.399 . S
C305 C308 1.396 . S
C305 C317 1.453 . S
C305 C318 1.684 . S
H306 C330 0.948 1_545 S
C307 C303 1.397 . S
C307 C308 1.394 . S
C307 C326 1.723 . S
C308 C305 1.396 . S
C308 C307 1.394 . S
C308 C338 1.723 . S
H309 C332 0.947 . S
H310 C333 0.948 . S
H311 C339 0.982 . S
H312 C340 0.979 . S
H313 C340 0.980 . S
H314 C340 0.976 1_545 S
H315 C339 0.979 . S
H316 C339 0.977 . S
C317 C305 1.453 . S
C317 H346 0.982 . S
C317 H347 0.979 . S
C317 H348 0.977 . S
C318 C305 1.684 . S
C318 H343 0.979 . S
C318 H344 0.980 . S
C318 H345 0.983 . S
C319 C320 1.391 1_554 S
C319 C324 1.391 . S
C319 H349 0.960 . S
C320 C319 1.391 1_556 S
C320 C321 1.391 1_556 S
C321 C320 1.391 1_554 S
C321 C322 1.392 . S
C321 H350 0.947 1_554 S
C322 C321 1.392 . S
C322 C323 1.419 . S
C322 H351 0.948 . S
C323 C322 1.419 . S
C323 C324 1.391 . S
C323 C327 1.397 . S
C324 C319 1.391 . S
C324 C323 1.391 . S
C324 C325 1.399 . S
C325 C324 1.399 . S
C325 C326 1.396 . S
C325 C328 1.453 . S
C325 C329 1.684 . S
C326 C307 1.723 . S
C326 C325 1.396 . S
C326 C327 1.394 . S
C327 C323 1.397 . S
C327 C326 1.394 . S
C327 C337 1.723 . S
C328 C325 1.453 . S
C328 H352 0.982 . S
C328 H353 0.979 . S
C328 H354 0.977 . S
C329 C325 1.684 . S
C329 H355 0.979 . S
C329 H356 0.980 . S
C329 H357 0.983 . S
C330 H306 0.948 1_565 S
C330 C331 1.391 . S
C330 C335 1.391 . S
C331 C330 1.391 . S
C331 C332 1.391 . S
C332 H309 0.947 . S
C332 C331 1.391 . S
C332 C333 1.392 . S
C333 H310 0.948 . S
C333 C332 1.392 . S
C333 C334 1.419 . S
C334 C333 1.419 . S
C334 C335 1.391 . S
C334 C338 1.397 . S
C335 C330 1.391 . S
C335 C334 1.391 . S
C335 C336 1.399 . S
C336 C335 1.399 . S
C336 C337 1.396 . S
C336 C339 1.453 . S
C336 C340 1.684 . S
C337 C327 1.723 . S
C337 C336 1.396 . S
C337 C338 1.394 . S
C338 C308 1.723 . S
C338 C334 1.397 . S
C338 C337 1.394 . S
C339 H311 0.982 . S
C339 H315 0.979 . S
C339 H316 0.977 . S
C339 C336 1.453 . S
C340 H312 0.979 . S
C340 H313 0.980 . S
C340 H314 0.976 1_565 S
C340 C336 1.684 . S
H341 C359 0.948 . S
H342 C300 0.948 . S
H343 C318 0.979 . S
H344 C318 0.980 . S
H345 C318 0.983 . S
H346 C317 0.982 . S
H347 C317 0.979 . S
H348 C317 0.977 . S
H349 C319 0.960 . S
H350 C321 0.947 1_556 S
H351 C322 0.948 . S
H352 C328 0.982 . S
H353 C328 0.979 . S
H354 C328 0.977 . S
H355 C329 0.979 . S
H356 C329 0.980 . S
H357 C329 0.983 . S
H358 C302 0.947 . S
C359 C302 1.392 . S
C359 C303 1.419 . S
C359 H341 0.948 . S
C360 C361 1.391 . S
C360 C364 1.391 . S
C360 H402 0.948 . S
C361 C360 1.391 . S
C361 C362 1.391 . S
C362 C361 1.391 . S
C362 H418 0.947 1_565 S
C362 C419 1.392 . S
C363 C364 1.391 . S
C363 C367 1.397 . S
C363 C419 1.419 . S
C364 C360 1.391 . S
C364 C363 1.391 . S
C364 C365 1.399 . S
C365 C364 1.399 . S
C365 C368 1.396 . S
C365 C377 1.453 . S
C365 C378 1.684 . S
H366 C390 0.948 . S
C367 C363 1.397 . S
C367 C368 1.394 . S
C367 C386 1.723 . S
C368 C365 1.396 . S
C368 C367 1.394 . S
C368 C398 1.723 . S
H369 C392 0.947 . S
H370 C393 0.948 . S
H371 C399 0.982 . S
H372 C400 0.979 . S
H373 C400 0.980 . S
H374 C400 0.983 . S
H375 C399 0.979 . S
H376 C399 0.977 . S
C377 C365 1.453 . S
C377 H406 0.982 . S
C377 H407 0.979 . S
C377 H408 0.977 . S
C378 C365 1.684 . S
C378 H403 0.979 . S
C378 H404 0.980 . S
C378 H405 0.983 . S
C379 C380 1.391 . S
C379 C384 1.391 . S
C379 H409 0.948 . S
C380 C379 1.391 . S
C380 C381 1.391 . S
C381 C380 1.391 . S
C381 C382 1.392 . S
C381 H410 0.947 . S
C382 C381 1.392 . S
C382 C383 1.419 . S
C382 H411 0.948 . S
C383 C382 1.419 . S
C383 C384 1.391 . S
C383 C387 1.397 . S
C384 C379 1.391 . S
C384 C383 1.391 . S
C384 C385 1.399 . S
C385 C384 1.399 . S
C385 C386 1.396 . S
C385 C388 1.453 . S
C385 C389 1.684 . S
C386 C367 1.723 . S
C386 C385 1.396 . S
C386 C387 1.394 . S
C387 C383 1.397 . S
C387 C386 1.394 . S
C387 C397 1.723 . S
C388 C385 1.453 . S
C388 H412 0.982 . S
C388 H413 0.979 . S
C388 H414 0.977 . S
C389 C385 1.684 . S
C389 H415 0.979 . S
C389 H416 0.980 . S
C389 H417 0.983 . S
C390 H366 0.948 . S
C390 C391 1.391 . S
C390 C395 1.391 . S
C391 C390 1.391 . S
C391 C392 1.391 . S
C392 H369 0.947 . S
C392 C391 1.391 . S
C392 C393 1.392 . S
C393 H370 0.948 . S
C393 C392 1.392 . S
C393 C394 1.419 . S
C394 C393 1.419 . S
C394 C395 1.391 . S
C394 C398 1.397 . S
C395 C390 1.391 . S
C395 C394 1.391 . S
C395 C396 1.399 . S
C396 C395 1.399 . S
C396 C397 1.396 . S
C396 C399 1.453 . S
C396 C400 1.684 . S
C397 C387 1.723 . S
C397 C396 1.396 . S
C397 C398 1.394 . S
C398 C368 1.723 . S
C398 C394 1.397 . S
C398 C397 1.394 . S
C399 H371 0.982 . S
C399 H375 0.979 . S
C399 H376 0.977 . S
C399 C396 1.453 . S
C400 H372 0.979 . S
C400 H373 0.980 . S
C400 H374 0.983 . S
C400 C396 1.684 . S
H401 C419 0.948 . S
H402 C360 0.948 . S
H403 C378 0.979 . S
H404 C378 0.980 . S
H405 C378 0.983 . S
H406 C377 0.982 . S
H407 C377 0.979 . S
H408 C377 0.977 . S
H409 C379 0.948 . S
H410 C381 0.947 . S
H411 C382 0.948 . S
H412 C388 0.982 . S
H413 C388 0.979 . S
H414 C388 0.977 . S
H415 C389 0.979 . S
H416 C389 0.980 . S
H417 C389 0.983 . S
H418 C362 0.947 1_545 S
C419 C362 1.392 . S
C419 C363 1.419 . S
C419 H401 0.948 . S
C420 C421 1.391 . S
C420 C424 1.391 . S
C420 H462 0.948 . S
C421 C420 1.391 . S
C421 C422 1.391 . S
C422 C421 1.391 . S
C422 H478 0.947 . S
C422 C479 1.392 . S
C423 C424 1.391 . S
C423 C427 1.397 . S
C423 C479 1.419 . S
C424 C420 1.391 . S
C424 C423 1.391 . S
C424 C425 1.399 . S
C425 C424 1.399 . S
C425 C428 1.396 . S
C425 C437 1.453 . S
C425 C438 1.684 . S
H426 C450 0.948 . S
C427 C423 1.397 . S
C427 C428 1.394 . S
C427 C446 1.723 . S
C428 C425 1.396 . S
C428 C427 1.394 . S
C428 C458 1.723 . S
H429 C452 0.947 . S
H430 C453 0.948 . S
H431 C459 0.982 . S
H432 C460 0.979 . S
H433 C460 0.980 . S
H434 C460 0.983 . S
H435 C459 0.979 . S
H436 C459 0.977 . S
C437 C425 1.453 . S
C437 H466 0.982 . S
C437 H467 0.979 . S
C437 H468 0.977 . S
C438 C425 1.684 . S
C438 H463 0.979 . S
C438 H464 0.980 . S
C438 H465 0.983 . S
C439 C440 1.391 1_556 S
C439 C444 1.391 . S
C439 H469 0.948 . S
C440 C439 1.391 1_554 S
C440 C441 1.391 1_554 S
C441 C440 1.391 1_556 S
C441 C442 1.392 . S
C441 H470 0.967 . S
C442 C441 1.392 . S
C442 C443 1.419 . S
C442 H471 0.948 . S
C443 C442 1.419 . S
C443 C444 1.391 . S
C443 C447 1.397 . S
C444 C439 1.391 . S
C444 C443 1.391 . S
C444 C445 1.399 . S
C445 C444 1.399 . S
C445 C446 1.396 . S
C445 C448 1.453 . S
C445 C449 1.684 . S
C446 C427 1.723 . S
C446 C445 1.396 . S
C446 C447 1.394 . S
C447 C443 1.397 . S
C447 C446 1.394 . S
C447 C457 1.723 . S
C448 C445 1.453 . S
C448 H472 0.982 . S
C448 H473 0.979 . S
C448 H474 0.977 . S
C449 C445 1.684 . S
C449 H475 0.979 . S
C449 H476 0.980 . S
C449 H477 0.983 . S
C450 H426 0.948 . S
C450 C451 1.391 . S
C450 C455 1.391 . S
C451 C450 1.391 . S
C451 C452 1.391 . S
C452 H429 0.947 . S
C452 C451 1.391 . S
C452 C453 1.392 . S
C453 H430 0.948 . S
C453 C452 1.392 . S
C453 C454 1.419 . S
C454 C453 1.419 . S
C454 C455 1.391 . S
C454 C458 1.397 . S
C455 C450 1.391 . S
C455 C454 1.391 . S
C455 C456 1.399 . S
C456 C455 1.399 . S
C456 C457 1.396 . S
C456 C459 1.453 . S
C456 C460 1.684 . S
C457 C447 1.723 . S
C457 C456 1.396 . S
C457 C458 1.394 . S
C458 C428 1.723 . S
C458 C454 1.397 . S
C458 C457 1.394 . S
C459 H431 0.982 . S
C459 H435 0.979 . S
C459 H436 0.977 . S
C459 C456 1.453 . S
C460 H432 0.979 . S
C460 H433 0.980 . S
C460 H434 0.983 . S
C460 C456 1.684 . S
H461 C479 0.948 . S
H462 C420 0.948 . S
H463 C438 0.979 . S
H464 C438 0.980 . S
H465 C438 0.983 . S
H466 C437 0.982 . S
H467 C437 0.979 . S
H468 C437 0.977 . S
H469 C439 0.948 . S
H470 C441 0.967 . S
H471 C442 0.948 . S
H472 C448 0.982 . S
H473 C448 0.979 . S
H474 C448 0.977 . S
H475 C449 0.979 . S
H476 C449 0.980 . S
H477 C449 0.983 . S
H478 C422 0.947 . S
C479 C422 1.392 . S
C479 C423 1.419 . S
C479 H461 0.948 . S
Tb480 N509 2.617 . S
Tb480 N515 2.572 . S
Tb480 O524 2.465 . S
Tb480 O525 2.387 . S
Tb480 O527 2.428 . S
Tb480 O528 2.301 1_455 S
Tb480 O532 2.362 . S
Tb480 O535 2.393 . S
Tb480 C544 2.802 . S
C481 N482 1.379 . S
C481 C484 1.416 . S
C481 C488 1.424 . S
N482 C481 1.379 . S
N482 C485 1.334 . S
N482 Tb491 2.617 . S
C483 C485 1.390 . S
C483 C486 1.339 . S
C483 H503 0.930 . S
C484 C481 1.416 . S
C484 C486 1.416 . S
C484 C490 1.448 . S
C485 N482 1.334 . S
C485 C483 1.390 . S
C485 H496 0.930 . S
C486 C483 1.339 . S
C486 C484 1.416 . S
C486 H507 0.930 . S
C487 C488 1.413 . S
C487 C489 1.427 . S
C487 C493 1.416 . S
C488 C481 1.424 . S
C488 C487 1.413 . S
C488 N492 1.361 . S
C489 C487 1.427 . S
C489 C490 1.328 . S
C489 H504 0.929 . S
C490 C484 1.448 . S
C490 C489 1.328 . S
C490 H505 0.930 . S
Tb491 N482 2.617 . S
Tb491 N492 2.572 . S
Tb491 O526 2.335 1_655 S
Tb491 O529 2.393 . S
Tb491 O530 2.465 . S
Tb491 O531 2.387 . S
Tb491 O533 2.428 . S
Tb491 O534 2.308 1_655 S
Tb491 C555 2.802 . S
N492 C488 1.361 . S
N492 Tb491 2.572 . S
N492 C494 1.340 . S
C493 C487 1.416 . S
C493 C495 1.332 . S
C493 H501 0.931 . S
C494 N492 1.340 . S
C494 C495 1.407 . S
C494 H500 0.930 . S
C495 C493 1.332 . S
C495 C494 1.407 . S
C495 H497 0.929 . S
H496 C485 0.930 . S
H497 C495 0.929 . S
H498 C513 0.930 . S
H499 C520 0.929 . S
H500 C494 0.930 . S
H501 C493 0.931 . S
H502 C516 0.930 . S
H503 C483 0.930 . S
H504 C489 0.929 . S
H505 C490 0.930 . S
H506 C511 0.930 . S
H507 C486 0.930 . S
H508 C519 0.931 . S
N509 Tb480 2.617 . S
N509 C510 1.379 . S
N509 C513 1.334 . S
C510 N509 1.379 . S
C510 C512 1.416 . S
C510 C518 1.424 . S
C511 H506 0.930 . S
C511 C513 1.390 . S
C511 C514 1.339 . S
C512 C510 1.416 . S
C512 C514 1.416 . S
C512 C545 1.448 . S
C513 H498 0.930 . S
C513 N509 1.334 . S
C513 C511 1.390 . S
C514 C511 1.339 . S
C514 C512 1.416 . S
C514 H521 0.930 . S
N515 Tb480 2.572 . S
N515 C516 1.340 . S
N515 C518 1.361 . S
C516 H502 0.930 . S
C516 N515 1.340 . S
C516 C520 1.407 . S
C517 C518 1.413 . S
C517 C519 1.416 . S
C517 C546 1.427 . S
C518 C510 1.424 . S
C518 N515 1.361 . S
C518 C517 1.413 . S
C519 H508 0.931 . S
C519 C517 1.416 . S
C519 C520 1.332 . S
C520 H499 0.929 . S
C520 C516 1.407 . S
C520 C519 1.332 . S
H521 C514 0.930 . S
H522 C545 0.930 . S
H523 C546 0.929 . S
O524 Tb480 2.465 . S
O524 C544 1.264 . S
O525 Tb480 2.387 . S
O525 C536 1.264 . S
O526 Tb491 2.335 1_455 S
O526 C536 1.261 . S
O527 Tb480 2.428 . S
O527 C544 1.256 . S
O528 Tb480 2.301 1_655 S
O528 C543 1.275 . S
O529 Tb491 2.393 . S
O529 C543 1.248 . S
O530 Tb491 2.465 . S
O530 C555 1.264 . S
O531 Tb491 2.387 . S
O531 C547 1.264 . S
O532 Tb480 2.362 . S
O532 C547 1.227 1_455 S
O533 Tb491 2.428 . S
O533 C555 1.256 . S
O534 Tb491 2.308 1_455 S
O534 C554 1.266 . S
O535 Tb480 2.393 . S
O535 C554 1.248 . S
C536 O525 1.264 . S
C536 O526 1.261 . S
C537 C540 1.399 . S
C537 C542 1.383 . S
C537 C544 1.496 . S
C538 C539 1.399 . S
C538 C542 1.389 . S
C539 C538 1.399 . S
C539 C541 1.380 . S
C539 H556 0.929 . S
C540 C537 1.399 . S
C540 C541 1.392 . S
C540 H557 0.929 . S
C541 C539 1.380 . S
C541 C540 1.392 . S
C541 H558 0.929 . S
C542 C537 1.383 . S
C542 C538 1.389 . S
C542 H559 0.931 . S
C543 O528 1.275 . S
C543 O529 1.248 . S
C544 Tb480 2.802 . S
C544 O524 1.264 . S
C544 O527 1.256 . S
C544 C537 1.496 . S
C545 C512 1.448 . S
C545 H522 0.930 . S
C545 C546 1.328 . S
C546 C517 1.427 . S
C546 H523 0.929 . S
C546 C545 1.328 . S
C547 O531 1.264 . S
C547 O532 1.227 1_655 S
C548 C551 1.399 . S
C548 C552 1.383 . S
C548 C555 1.496 . S
C549 C550 1.399 . S
C549 C552 1.389 . S
C550 C549 1.399 . S
C550 C553 1.380 . S
C550 H560 0.929 . S
C551 C548 1.399 . S
C551 C553 1.392 . S
C551 H561 0.929 . S
C552 C548 1.383 . S
C552 C549 1.389 . S
C552 H562 0.931 . S
C553 C550 1.380 . S
C553 C551 1.392 . S
C553 H563 0.929 . S
C554 O534 1.266 . S
C554 O535 1.248 . S
C555 Tb491 2.802 . S
C555 O530 1.264 . S
C555 O533 1.256 . S
C555 C548 1.496 . S
H556 C539 0.929 . S
H557 C540 0.929 . S
H558 C541 0.929 . S
H559 C542 0.931 . S
H560 C550 0.929 . S
H561 C551 0.929 . S
H562 C552 0.931 . S
H563 C553 0.929 . S
Tb564 N593 2.617 . S
Tb564 N599 2.572 . S
Tb564 O608 2.465 . S
Tb564 O609 2.387 . S
Tb564 O611 2.428 . S
Tb564 O612 2.308 . S
Tb564 O616 2.349 . S
Tb564 O619 2.393 . S
Tb564 C628 2.802 . S
C565 N566 1.379 . S
C565 C568 1.416 . S
C565 C572 1.424 . S
N566 C565 1.379 . S
N566 C569 1.334 . S
N566 Tb575 2.617 . S
C567 C569 1.390 . S
C567 C570 1.339 . S
C567 H587 0.930 . S
C568 C565 1.416 . S
C568 C570 1.416 . S
C568 C574 1.448 . S
C569 N566 1.334 . S
C569 C567 1.390 . S
C569 H580 0.930 . S
C570 C567 1.339 . S
C570 C568 1.416 . S
C570 H591 0.930 . S
C571 C572 1.413 . S
C571 C573 1.427 . S
C571 C577 1.416 . S
C572 C565 1.424 . S
C572 C571 1.413 . S
C572 N576 1.361 . S
C573 C571 1.427 . S
C573 C574 1.328 . S
C573 H588 0.929 . S
C574 C568 1.448 . S
C574 C573 1.328 . S
C574 H589 0.930 . S
Tb575 N566 2.617 . S
Tb575 N576 2.572 . S
Tb575 O610 2.349 . S
Tb575 O613 2.393 . S
Tb575 O614 2.465 . S
Tb575 O615 2.387 . S
Tb575 O617 2.428 . S
Tb575 O618 2.308 . S
Tb575 C639 2.802 . S
N576 C572 1.361 . S
N576 Tb575 2.572 . S
N576 C578 1.340 . S
C577 C571 1.416 . S
C577 C579 1.332 . S
C577 H585 0.931 . S
C578 N576 1.340 . S
C578 C579 1.407 . S
C578 H584 0.930 . S
C579 C577 1.332 . S
C579 C578 1.407 . S
C579 H581 0.929 . S
H580 C569 0.930 . S
H581 C579 0.929 . S
H582 C597 0.930 . S
H583 C604 0.929 . S
H584 C578 0.930 . S
H585 C577 0.931 . S
H586 C600 0.930 . S
H587 C567 0.930 . S
H588 C573 0.929 . S
H589 C574 0.930 . S
H590 C595 0.930 . S
H591 C570 0.930 . S
H592 C603 0.931 . S
N593 Tb564 2.617 . S
N593 C594 1.379 . S
N593 C597 1.334 . S
C594 N593 1.379 . S
C594 C596 1.416 . S
C594 C602 1.424 . S
C595 H590 0.930 . S
C595 C597 1.390 . S
C595 C598 1.339 . S
C596 C594 1.416 . S
C596 C598 1.416 . S
C596 C629 1.448 . S
C597 H582 0.930 . S
C597 N593 1.334 . S
C597 C595 1.390 . S
C598 C595 1.339 . S
C598 C596 1.416 . S
C598 H605 0.930 . S
N599 Tb564 2.572 . S
N599 C600 1.340 . S
N599 C602 1.361 . S
C600 H586 0.930 . S
C600 N599 1.340 . S
C600 C604 1.407 . S
C601 C602 1.413 . S
C601 C603 1.416 . S
C601 C630 1.427 . S
C602 C594 1.424 . S
C602 N599 1.361 . S
C602 C601 1.413 . S
C603 H592 0.931 . S
C603 C601 1.416 . S
C603 C604 1.332 . S
C604 H583 0.929 . S
C604 C600 1.407 . S
C604 C603 1.332 . S
H605 C598 0.930 . S
H606 C629 0.930 . S
H607 C630 0.929 . S
O608 Tb564 2.465 . S
O608 C628 1.264 . S
O609 Tb564 2.387 . S
O609 C620 1.264 . S
O610 Tb575 2.349 . S
O610 C620 1.243 . S
O611 Tb564 2.428 . S
O611 C628 1.256 . S
O612 Tb564 2.308 . S
O612 C627 1.266 . S
O613 Tb575 2.393 . S
O613 C627 1.248 . S
O614 Tb575 2.465 . S
O614 C639 1.264 . S
O615 Tb575 2.387 . S
O615 C631 1.264 . S
O616 Tb564 2.349 . S
O616 C631 1.243 . S
O617 Tb575 2.428 . S
O617 C639 1.256 . S
O618 Tb575 2.308 . S
O618 C638 1.266 . S
O619 Tb564 2.393 . S
O619 C638 1.248 . S
C620 O609 1.264 . S
C620 O610 1.243 . S
C621 C624 1.399 . S
C621 C626 1.383 . S
C621 C628 1.496 . S
C622 C623 1.399 . S
C622 C626 1.389 . S
C623 C622 1.399 . S
C623 C625 1.380 . S
C623 H640 0.929 . S
C624 C621 1.399 . S
C624 C625 1.392 . S
C624 H641 0.929 . S
C625 C623 1.380 . S
C625 C624 1.392 . S
C625 H642 0.929 . S
C626 C621 1.383 . S
C626 C622 1.389 . S
C626 H643 0.931 . S
C627 O612 1.266 . S
C627 O613 1.248 . S
C628 Tb564 2.802 . S
C628 O608 1.264 . S
C628 O611 1.256 . S
C628 C621 1.496 . S
C629 C596 1.448 . S
C629 H606 0.930 . S
C629 C630 1.328 . S
C630 C601 1.427 . S
C630 H607 0.929 . S
C630 C629 1.328 . S
C631 O615 1.264 . S
C631 O616 1.243 . S
C632 C635 1.399 . S
C632 C636 1.383 . S
C632 C639 1.496 . S
C633 C634 1.399 . S
C633 C636 1.389 . S
C634 C633 1.399 . S
C634 C637 1.380 . S
C634 H644 0.929 . S
C635 C632 1.399 . S
C635 C637 1.392 . S
C635 H645 0.929 . S
C636 C632 1.383 . S
C636 C633 1.389 . S
C636 H646 0.931 . S
C637 C634 1.380 . S
C637 C635 1.392 . S
C637 H647 0.929 . S
C638 O618 1.266 . S
C638 O619 1.248 . S
C639 Tb575 2.802 . S
C639 O614 1.264 . S
C639 O617 1.256 . S
C639 C632 1.496 . S
H640 C623 0.929 . S
H641 C624 0.929 . S
H642 C625 0.929 . S
H643 C626 0.931 . S
H644 C634 0.929 . S
H645 C635 0.929 . S
H646 C636 0.931 . S
H647 C637 0.929 . S
Tb648 N677 2.617 . S
Tb648 N683 2.572 . S
Tb648 O692 2.465 . S
Tb648 O693 2.387 . S
Tb648 O695 2.428 . S
Tb648 O696 2.308 . S
Tb648 O700 2.349 . S
Tb648 O703 2.393 . S
Tb648 C712 2.802 . S
C649 N650 1.379 . S
C649 C652 1.416 . S
C649 C656 1.424 . S
N650 C649 1.379 . S
N650 C653 1.334 . S
N650 Tb659 2.617 . S
C651 C653 1.390 . S
C651 C654 1.339 . S
C651 H671 0.930 . S
C652 C649 1.416 . S
C652 C654 1.416 . S
C652 C658 1.448 . S
C653 N650 1.334 . S
C653 C651 1.390 . S
C653 H664 0.930 . S
C654 C651 1.339 . S
C654 C652 1.416 . S
C654 H675 0.930 . S
C655 C656 1.413 . S
C655 C657 1.427 . S
C655 C661 1.416 . S
C656 C649 1.424 . S
C656 C655 1.413 . S
C656 N660 1.361 . S
C657 C655 1.427 . S
C657 C658 1.328 . S
C657 H672 0.929 . S
C658 C652 1.448 . S
C658 C657 1.328 . S
C658 H673 0.930 . S
Tb659 N650 2.617 . S
Tb659 N660 2.572 . S
Tb659 O694 2.349 1_655 S
Tb659 O697 2.393 . S
Tb659 O698 2.465 . S
Tb659 O699 2.387 . S
Tb659 O701 2.428 . S
Tb659 O702 2.308 1_655 S
Tb659 C723 2.802 . S
N660 C656 1.361 . S
N660 Tb659 2.572 . S
N660 C662 1.340 . S
C661 C655 1.416 . S
C661 C663 1.332 . S
C661 H669 0.931 . S
C662 N660 1.340 . S
C662 C663 1.407 . S
C662 H668 0.930 . S
C663 C661 1.332 . S
C663 C662 1.407 . S
C663 H665 0.929 . S
H664 C653 0.930 . S
H665 C663 0.929 . S
H666 C681 0.930 . S
H667 C688 0.929 . S
H668 C662 0.930 . S
H669 C661 0.931 . S
H670 C684 0.930 . S
H671 C651 0.930 . S
H672 C657 0.929 . S
H673 C658 0.930 . S
H674 C679 0.930 . S
H675 C654 0.930 . S
H676 C687 0.931 . S
N677 Tb648 2.617 . S
N677 C678 1.379 . S
N677 C681 1.334 . S
C678 N677 1.379 . S
C678 C680 1.416 . S
C678 C686 1.424 . S
C679 H674 0.930 . S
C679 C681 1.390 . S
C679 C682 1.339 . S
C680 C678 1.416 . S
C680 C682 1.416 . S
C680 C713 1.448 . S
C681 H666 0.930 . S
C681 N677 1.334 . S
C681 C679 1.390 . S
C682 C679 1.339 . S
C682 C680 1.416 . S
C682 H689 0.930 . S
N683 Tb648 2.572 . S
N683 C684 1.340 . S
N683 C686 1.361 . S
C684 H670 0.930 . S
C684 N683 1.340 . S
C684 C688 1.407 . S
C685 C686 1.413 . S
C685 C687 1.416 . S
C685 C714 1.427 . S
C686 C678 1.424 . S
C686 N683 1.361 . S
C686 C685 1.413 . S
C687 H676 0.931 . S
C687 C685 1.416 . S
C687 C688 1.332 . S
C688 H667 0.929 . S
C688 C684 1.407 . S
C688 C687 1.332 . S
H689 C682 0.930 . S
H690 C713 0.930 . S
H691 C714 0.929 . S
O692 Tb648 2.465 . S
O692 C712 1.264 . S
O693 Tb648 2.387 . S
O693 C704 1.264 . S
O694 Tb659 2.349 1_455 S
O694 C704 1.243 . S
O695 Tb648 2.428 . S
O695 C712 1.256 . S
O696 Tb648 2.308 . S
O696 C711 1.266 1_455 S
O697 Tb659 2.393 . S
O697 C711 1.248 . S
O698 Tb659 2.465 . S
O698 C723 1.264 . S
O699 Tb659 2.387 . S
O699 C715 1.264 . S
O700 Tb648 2.349 . S
O700 C715 1.243 1_455 S
O701 Tb659 2.428 . S
O701 C723 1.256 . S
O702 Tb659 2.308 1_455 S
O702 C722 1.266 . S
O703 Tb648 2.393 . S
O703 C722 1.248 . S
C704 O693 1.264 . S
C704 O694 1.243 . S
C705 C708 1.399 . S
C705 C710 1.383 . S
C705 C712 1.496 . S
C706 C707 1.399 . S
C706 C710 1.389 . S
C707 C706 1.399 . S
C707 C709 1.380 . S
C707 H724 0.929 . S
C708 C705 1.399 . S
C708 C709 1.392 . S
C708 H725 0.929 . S
C709 C707 1.380 . S
C709 C708 1.392 . S
C709 H726 0.929 . S
C710 C705 1.383 . S
C710 C706 1.389 . S
C710 H727 0.931 . S
C711 O696 1.266 1_655 S
C711 O697 1.248 . S
C712 Tb648 2.802 . S
C712 O692 1.264 . S
C712 O695 1.256 . S
C712 C705 1.496 . S
C713 C680 1.448 . S
C713 H690 0.930 . S
C713 C714 1.328 . S
C714 C685 1.427 . S
C714 H691 0.929 . S
C714 C713 1.328 . S
C715 O699 1.264 . S
C715 O700 1.243 1_655 S
C716 C719 1.399 . S
C716 C720 1.383 . S
C716 C723 1.496 . S
C717 C718 1.399 . S
C717 C720 1.389 . S
C718 C717 1.399 . S
C718 C721 1.380 . S
C718 H728 0.929 . S
C719 C716 1.399 . S
C719 C721 1.392 . S
C719 H729 0.929 . S
C720 C716 1.383 . S
C720 C717 1.389 . S
C720 H730 0.931 . S
C721 C718 1.380 . S
C721 C719 1.392 . S
C721 H731 0.929 . S
C722 O702 1.266 . S
C722 O703 1.248 . S
C723 Tb659 2.802 . S
C723 O698 1.264 . S
C723 O701 1.256 . S
C723 C716 1.496 . S
H724 C707 0.929 . S
H725 C708 0.929 . S
H726 C709 0.929 . S
H727 C710 0.931 . S
H728 C718 0.929 . S
H729 C719 0.929 . S
H730 C720 0.931 . S
H731 C721 0.929 . S
Tb732 N761 2.617 . S
Tb732 N767 2.572 . S
Tb732 O776 2.465 . S
Tb732 O777 2.387 . S
Tb732 O779 2.428 . S
Tb732 O780 2.308 . S
Tb732 O784 2.349 . S
Tb732 O787 2.393 . S
Tb732 C796 2.802 . S
C733 N734 1.379 . S
C733 C736 1.416 . S
C733 C740 1.424 . S
N734 C733 1.379 . S
N734 C737 1.334 . S
N734 Tb743 2.617 . S
C735 C737 1.390 . S
C735 C738 1.339 . S
C735 H755 0.930 . S
C736 C733 1.416 . S
C736 C738 1.416 . S
C736 C742 1.448 . S
C737 N734 1.334 . S
C737 C735 1.390 . S
C737 H748 0.930 . S
C738 C735 1.339 . S
C738 C736 1.416 . S
C738 H759 0.930 . S
C739 C740 1.413 . S
C739 C741 1.427 . S
C739 C745 1.416 . S
C740 C733 1.424 . S
C740 C739 1.413 . S
C740 N744 1.361 . S
C741 C739 1.427 . S
C741 C742 1.328 . S
C741 H756 0.929 . S
C742 C736 1.448 . S
C742 C741 1.328 . S
C742 H757 0.930 . S
Tb743 N734 2.617 . S
Tb743 N744 2.572 . S
Tb743 O778 2.349 . S
Tb743 O781 2.393 . S
Tb743 O782 2.465 . S
Tb743 O783 2.387 . S
Tb743 O785 2.428 . S
Tb743 O786 2.308 . S
Tb743 C807 2.802 . S
N744 C740 1.361 . S
N744 Tb743 2.572 . S
N744 C746 1.340 . S
C745 C739 1.416 . S
C745 C747 1.332 . S
C745 H753 0.931 . S
C746 N744 1.340 . S
C746 C747 1.407 . S
C746 H752 0.930 . S
C747 C745 1.332 . S
C747 C746 1.407 . S
C747 H749 0.929 . S
H748 C737 0.930 . S
H749 C747 0.929 . S
H750 C765 0.930 . S
H751 C772 0.929 . S
H752 C746 0.930 . S
H753 C745 0.931 . S
H754 C768 0.930 . S
H755 C735 0.930 . S
H756 C741 0.929 . S
H757 C742 0.930 . S
H758 C763 0.930 . S
H759 C738 0.930 . S
H760 C771 0.931 . S
N761 Tb732 2.617 . S
N761 C762 1.379 . S
N761 C765 1.334 . S
C762 N761 1.379 . S
C762 C764 1.416 . S
C762 C770 1.424 . S
C763 H758 0.930 . S
C763 C765 1.390 . S
C763 C766 1.339 . S
C764 C762 1.416 . S
C764 C766 1.416 . S
C764 C797 1.448 . S
C765 H750 0.930 . S
C765 N761 1.334 . S
C765 C763 1.390 . S
C766 C763 1.339 . S
C766 C764 1.416 . S
C766 H773 0.930 . S
N767 Tb732 2.572 . S
N767 C768 1.340 . S
N767 C770 1.361 . S
C768 H754 0.930 . S
C768 N767 1.340 . S
C768 C772 1.407 . S
C769 C770 1.413 . S
C769 C771 1.416 . S
C769 C798 1.427 . S
C770 C762 1.424 . S
C770 N767 1.361 . S
C770 C769 1.413 . S
C771 H760 0.931 . S
C771 C769 1.416 . S
C771 C772 1.332 . S
C772 H751 0.929 . S
C772 C768 1.407 . S
C772 C771 1.332 . S
H773 C766 0.930 . S
H774 C797 0.930 . S
H775 C798 0.929 . S
O776 Tb732 2.465 . S
O776 C796 1.264 . S
O777 Tb732 2.387 . S
O777 C788 1.264 . S
O778 Tb743 2.349 . S
O778 C788 1.243 . S
O779 Tb732 2.428 . S
O779 C796 1.256 . S
O780 Tb732 2.308 . S
O780 C795 1.266 . S
O781 Tb743 2.393 . S
O781 C795 1.248 . S
O782 Tb743 2.465 . S
O782 C807 1.264 . S
O783 Tb743 2.387 . S
O783 C799 1.264 . S
O784 Tb732 2.349 . S
O784 C799 1.243 . S
O785 Tb743 2.428 . S
O785 C807 1.256 . S
O786 Tb743 2.308 . S
O786 C806 1.266 . S
O787 Tb732 2.393 . S
O787 C806 1.248 . S
C788 O777 1.264 . S
C788 O778 1.243 . S
C789 C792 1.399 . S
C789 C794 1.383 . S
C789 C796 1.496 . S
C790 C791 1.399 . S
C790 C794 1.389 . S
C791 C790 1.399 . S
C791 C793 1.380 . S
C791 H808 0.929 . S
C792 C789 1.399 . S
C792 C793 1.392 . S
C792 H809 0.929 . S
C793 C791 1.380 . S
C793 C792 1.392 . S
C793 H810 0.929 . S
C794 C789 1.383 . S
C794 C790 1.389 . S
C794 H811 0.931 . S
C795 O780 1.266 . S
C795 O781 1.248 . S
C796 Tb732 2.802 . S
C796 O776 1.264 . S
C796 O779 1.256 . S
C796 C789 1.496 . S
C797 C764 1.448 . S
C797 H774 0.930 . S
C797 C798 1.328 . S
C798 C769 1.427 . S
C798 H775 0.929 . S
C798 C797 1.328 . S
C799 O783 1.264 . S
C799 O784 1.243 . S
C800 C803 1.399 . S
C800 C804 1.383 . S
C800 C807 1.496 . S
C801 C802 1.399 . S
C801 C804 1.389 . S
C802 C801 1.399 . S
C802 C805 1.380 . S
C802 H812 0.929 . S
C803 C800 1.399 . S
C803 C805 1.392 . S
C803 H813 0.929 . S
C804 C800 1.383 . S
C804 C801 1.389 . S
C804 H814 0.931 . S
C805 C802 1.380 . S
C805 C803 1.392 . S
C805 H815 0.929 . S
C806 O786 1.266 . S
C806 O787 1.248 . S
C807 Tb743 2.802 . S
C807 O782 1.264 . S
C807 O785 1.256 . S
C807 C800 1.496 . S
H808 C791 0.929 . S
H809 C792 0.929 . S
H810 C793 0.929 . S
H811 C794 0.931 . S
H812 C802 0.929 . S
H813 C803 0.929 . S
H814 C804 0.931 . S
H815 C805 0.929 . S
C816 C817 1.363 . S
C816 C822 1.379 . S
C816 N824 1.356 1_545 S
C817 C816 1.363 . S
C817 C823 1.363 . S
C818 C819 1.363 . S
C818 C823 1.379 . S
C818 N825 1.356 . S
C819 C818 1.363 . S
C819 C822 1.363 . S
N820 C822 1.356 . S
N820 H832 0.984 1_455 S
N820 H833 0.985 . S
N821 C823 1.356 . S
N821 H826 0.984 . S
N821 H827 0.985 . S
C822 C816 1.379 . S
C822 C819 1.363 . S
C822 N820 1.356 . S
C823 C817 1.363 . S
C823 C818 1.379 . S
C823 N821 1.356 . S
N824 C816 1.356 1_565 S
N824 H830 0.984 . S
N824 H831 0.984 . S
N825 C818 1.356 . S
N825 H828 0.984 . S
N825 H829 0.985 . S
H826 N821 0.984 . S
H827 N821 0.985 . S
H828 N825 0.984 . S
H829 N825 0.985 . S
H830 N824 0.984 . S
H831 N824 0.984 . S
H832 N820 0.984 1_655 S
H833 N820 0.985 . S
C834 C835 1.363 . S
C834 C840 1.379 . S
C834 N842 1.356 . S
C835 C834 1.363 . S
C835 C841 1.363 . S
C836 C837 1.363 . S
C836 C841 1.379 . S
C836 N843 1.356 . S
C837 C836 1.363 . S
C837 C840 1.363 . S
N838 C840 1.356 . S
N838 H850 0.984 . S
N838 H851 0.985 . S
N839 C841 1.356 . S
N839 H844 0.984 . S
N839 H845 0.985 . S
C840 C834 1.379 . S
C840 C837 1.363 . S
C840 N838 1.356 . S
C841 C835 1.363 . S
C841 C836 1.379 . S
C841 N839 1.356 . S
N842 C834 1.356 . S
N842 H848 0.984 . S
N842 H849 0.984 . S
N843 C836 1.356 . S
N843 H846 0.984 . S
N843 H847 0.985 . S
H844 N839 0.984 . S
H845 N839 0.985 . S
H846 N843 0.984 . S
H847 N843 0.985 . S
H848 N842 0.984 . S
H849 N842 0.984 . S
H850 N838 0.984 . S
H851 N838 0.985 . S
C852 C853 1.363 . S
C852 C858 1.379 . S
C852 N860 1.356 . S
C853 C852 1.363 . S
C853 C859 1.363 . S
C854 C855 1.363 . S
C854 C859 1.379 . S
C854 N861 1.356 . S
C855 C854 1.363 . S
C855 C858 1.363 . S
N856 C858 1.356 . S
N856 H868 0.984 . S
N856 H869 0.985 . S
N857 C859 1.356 . S
N857 H862 0.984 . S
N857 H863 0.985 . S
C858 C852 1.379 . S
C858 C855 1.363 . S
C858 N856 1.356 . S
C859 C853 1.363 . S
C859 C854 1.379 . S
C859 N857 1.356 . S
N860 C852 1.356 . S
N860 H866 0.984 . S
N860 H867 0.984 . S
N861 C854 1.356 . S
N861 H864 0.984 . S
N861 H865 0.985 . S
H862 N857 0.984 . S
H863 N857 0.985 . S
H864 N861 0.984 . S
H865 N861 0.985 . S
H866 N860 0.984 . S
H867 N860 0.984 . S
H868 N856 0.984 . S
H869 N856 0.985 . S
C870 C871 1.363 . S
C870 C876 1.379 . S
C870 N878 1.356 . S
C871 C870 1.363 . S
C871 C877 1.363 . S
C872 C873 1.363 . S
C872 C877 1.379 . S
C872 N879 1.356 . S
C873 C872 1.363 . S
C873 C876 1.363 . S
N874 C876 1.356 . S
N874 H886 0.984 . S
N874 H887 0.985 . S
N875 C877 1.356 . S
N875 H880 0.984 . S
N875 H881 0.985 . S
C876 C870 1.379 . S
C876 C873 1.363 . S
C876 N874 1.356 . S
C877 C871 1.363 . S
C877 C872 1.379 . S
C877 N875 1.356 . S
N878 C870 1.356 . S
N878 H884 0.984 . S
N878 H885 0.984 1_545 S
N879 C872 1.356 . S
N879 H882 0.984 1_655 S
N879 H883 0.985 1_655 S
H880 N875 0.984 . S
H881 N875 0.985 . S
H882 N879 0.984 1_455 S
H883 N879 0.985 1_455 S
H884 N878 0.984 . S
H885 N878 0.984 1_565 S
H886 N874 0.984 . S
H887 N874 0.985 . S
C888 C889 1.363 . S
C888 C894 1.379 . S
C888 N896 1.356 . S
C889 C888 1.363 . S
C889 C895 1.363 . S
C890 C891 1.363 . S
C890 C895 1.379 . S
C890 N897 1.356 . S
C891 C890 1.363 . S
C891 C894 1.363 . S
N892 C894 1.356 . S
N892 H904 0.984 . S
N892 H905 0.985 . S
N893 C895 1.356 1_545 S
N893 H898 0.984 . S
N893 H899 0.985 . S
C894 C888 1.379 . S
C894 C891 1.363 . S
C894 N892 1.356 . S
C895 C889 1.363 . S
C895 C890 1.379 . S
C895 N893 1.356 1_565 S
N896 C888 1.356 . S
N896 H902 0.984 . S
N896 H903 0.984 . S
N897 C890 1.356 . S
N897 H900 0.984 . S
N897 H901 0.985 . S
H898 N893 0.984 . S
H899 N893 0.985 . S
H900 N897 0.984 . S
H901 N897 0.985 . S
H902 N896 0.984 . S
H903 N896 0.984 . S
H904 N892 0.984 . S
H905 N892 0.985 . S
C906 C907 1.363 . S
C906 C912 1.379 . S
C906 N914 1.356 . S
C907 C906 1.363 . S
C907 C913 1.363 . S
C908 C909 1.363 . S
C908 C913 1.379 . S
C908 N915 1.356 . S
C909 C908 1.363 . S
C909 C912 1.363 . S
N910 C912 1.356 . S
N910 H922 0.984 . S
N910 H923 0.985 . S
N911 C913 1.356 . S
N911 H916 0.984 . S
N911 H917 0.985 . S
C912 C906 1.379 . S
C912 C909 1.363 . S
C912 N910 1.356 . S
C913 C907 1.363 . S
C913 C908 1.379 . S
C913 N911 1.356 . S
N914 C906 1.356 . S
N914 H920 0.984 . S
N914 H921 0.984 . S
N915 C908 1.356 . S
N915 H918 0.984 . S
N915 H919 0.985 . S
H916 N911 0.984 . S
H917 N911 0.985 . S
H918 N915 0.984 . S
H919 N915 0.985 . S
H920 N914 0.984 . S
H921 N914 0.984 . S
H922 N910 0.984 . S
H923 N910 0.985 . S
C924 C925 1.363 . S
C924 C930 1.379 . S
C924 N932 1.356 . S
C925 C924 1.363 . S
C925 C931 1.363 . S
C926 C927 1.363 . S
C926 C931 1.379 . S
C926 N933 1.356 . S
C927 C926 1.363 . S
C927 C930 1.363 . S
N928 C930 1.356 . S
N928 H940 0.984 . S
N928 H941 0.985 . S
N929 C931 1.356 . S
N929 H934 0.984 . S
N929 H935 0.985 . S
C930 C924 1.379 . S
C930 C927 1.363 . S
C930 N928 1.356 . S
C931 C925 1.363 . S
C931 C926 1.379 . S
C931 N929 1.356 . S
N932 C924 1.356 . S
N932 H938 0.984 . S
N932 H939 0.984 . S
N933 C926 1.356 . S
N933 H936 0.984 . S
N933 H937 0.985 . S
H934 N929 0.984 . S
H935 N929 0.985 . S
H936 N933 0.984 . S
H937 N933 0.985 . S
H938 N932 0.984 . S
H939 N932 0.984 . S
H940 N928 0.984 . S
H941 N928 0.985 . S
C942 C943 1.363 . S
C942 C948 1.379 . S
C942 N950 1.356 . S
C943 C942 1.363 . S
C943 C949 1.363 . S
C944 C945 1.363 . S
C944 C949 1.379 . S
C944 N951 1.356 . S
C945 C944 1.363 . S
C945 C948 1.363 . S
N946 C948 1.356 . S
N946 H958 0.984 . S
N946 H959 0.985 . S
N947 C949 1.356 1_545 S
N947 H952 0.984 . S
N947 H953 0.985 . S
C948 C942 1.379 . S
C948 C945 1.363 . S
C948 N946 1.356 . S
C949 C943 1.363 . S
C949 C944 1.379 . S
C949 N947 1.356 1_565 S
N950 C942 1.356 . S
N950 H956 0.984 . S
N950 H957 0.984 . S
N951 C944 1.356 . S
N951 H954 0.984 1_455 S
N951 H955 0.985 1_455 S
H952 N947 0.984 . S
H953 N947 0.985 . S
H954 N951 0.984 1_655 S
H955 N951 0.985 1_655 S
H956 N950 0.984 . S
H957 N950 0.984 . S
H958 N946 0.984 . S
H959 N946 0.985 . S
C960 C961 1.363 . S
C960 C966 1.379 . S
C960 N968 1.356 . S
C961 C960 1.363 . S
C961 C967 1.363 . S
C962 C963 1.363 . S
C962 C967 1.379 . S
C962 N969 1.356 . S
C963 C962 1.363 . S
C963 C966 1.363 . S
N964 C966 1.356 . S
N964 H976 0.984 . S
N964 H977 0.985 . S
N965 C967 1.356 . S
N965 H970 0.984 . S
N965 H971 0.985 . S
C966 C960 1.379 . S
C966 C963 1.363 . S
C966 N964 1.356 . S
C967 C961 1.363 . S
C967 C962 1.379 . S
C967 N965 1.356 . S
N968 C960 1.356 . S
N968 H974 0.984 . S
N968 H975 0.984 . S
N969 C962 1.356 . S
N969 H972 0.984 . S
N969 H973 0.985 . S
H970 N965 0.984 . S
H971 N965 0.985 . S
H972 N969 0.984 . S
H973 N969 0.985 . S
H974 N968 0.984 . S
H975 N968 0.984 . S
H976 N964 0.984 . S
H977 N964 0.985 . S
C978 C979 1.363 . S
C978 C984 1.379 . S
C978 N986 1.356 . S
C979 C978 1.363 . S
C979 C985 1.363 . S
C980 C981 1.363 . S
C980 C985 1.379 . S
C980 N987 1.356 . S
C981 C980 1.363 . S
C981 C984 1.363 . S
N982 C984 1.356 . S
N982 H994 0.984 . S
N982 H995 0.985 . S
N983 C985 1.356 . S
N983 H988 0.984 . S
N983 H989 0.985 . S
C984 C978 1.379 . S
C984 C981 1.363 . S
C984 N982 1.356 . S
C985 C979 1.363 . S
C985 C980 1.379 . S
C985 N983 1.356 . S
N986 C978 1.356 . S
N986 H992 0.984 . S
N986 H993 0.984 . S
N987 C980 1.356 . S
N987 H990 0.984 . S
N987 H991 0.985 . S
H988 N983 0.984 . S
H989 N983 0.985 . S
H990 N987 0.984 . S
H991 N987 0.985 . S
H992 N986 0.984 . S
H993 N986 0.984 . S
H994 N982 0.984 . S
H995 N982 0.985 . S
C996 C997 1.363 . S
C996 C1002 1.379 . S
C996 N1004 1.356 . S
C997 C996 1.363 . S
C997 C1003 1.363 . S
C998 C999 1.363 . S
C998 C1003 1.379 . S
C998 N1005 1.356 . S
C999 C998 1.363 . S
C999 C1002 1.363 . S
N1000 C1002 1.356 . S
N1000 H1012 0.984 . S
N1000 H1013 0.985 . S
N1001 C1003 1.356 . S
N1001 H1006 0.984 . S
N1001 H1007 0.985 . S
C1002 C996 1.379 . S
C1002 C999 1.363 . S
C1002 N1000 1.356 . S
C1003 C997 1.363 . S
C1003 C998 1.379 . S
C1003 N1001 1.356 . S
N1004 C996 1.356 . S
N1004 H1010 0.984 . S
N1004 H1011 0.984 . S
N1005 C998 1.356 . S
N1005 H1008 0.984 . S
N1005 H1009 0.985 . S
H1006 N1001 0.984 . S
H1007 N1001 0.985 . S
H1008 N1005 0.984 . S
H1009 N1005 0.985 . S
H1010 N1004 0.984 . S
H1011 N1004 0.984 . S
H1012 N1000 0.984 . S
H1013 N1000 0.985 . S
C1014 C1015 1.363 . S
C1014 C1020 1.379 . S
C1014 N1022 1.356 . S
C1015 C1014 1.363 . S
C1015 C1021 1.363 . S
C1016 C1017 1.363 . S
C1016 C1021 1.379 . S
C1016 N1023 1.356 . S
C1017 C1016 1.363 . S
C1017 C1020 1.363 . S
N1018 C1020 1.356 . S
N1018 H1030 0.984 . S
N1018 H1031 0.985 . S
N1019 C1021 1.356 . S
N1019 H1024 0.984 . S
N1019 H1025 0.985 . S
C1020 C1014 1.379 . S
C1020 C1017 1.363 . S
C1020 N1018 1.356 . S
C1021 C1015 1.363 . S
C1021 C1016 1.379 . S
C1021 N1019 1.356 . S
N1022 C1014 1.356 . S
N1022 H1028 0.984 . S
N1022 H1029 0.984 . S
N1023 C1016 1.356 . S
N1023 H1026 0.984 . S
N1023 H1027 0.985 . S
H1024 N1019 0.984 . S
H1025 N1019 0.985 . S
H1026 N1023 0.984 . S
H1027 N1023 0.985 . S
H1028 N1022 0.984 . S
H1029 N1022 0.984 . S
H1030 N1018 0.984 . S
H1031 N1018 0.985 . S
C1032 C1033 1.363 . S
C1032 C1038 1.379 . S
C1032 N1040 1.356 . S
C1033 C1032 1.363 . S
C1033 C1039 1.363 . S
C1034 C1035 1.363 . S
C1034 C1039 1.379 . S
C1034 N1041 1.356 . S
C1035 C1034 1.363 . S
C1035 C1038 1.363 . S
N1036 C1038 1.356 . S
N1036 H1048 0.984 . S
N1036 H1049 0.985 . S
N1037 C1039 1.356 . S
N1037 H1042 0.984 . S
N1037 H1043 0.985 . S
C1038 C1032 1.379 . S
C1038 C1035 1.363 . S
C1038 N1036 1.356 . S
C1039 C1033 1.363 . S
C1039 C1034 1.379 . S
C1039 N1037 1.356 . S
N1040 C1032 1.356 . S
N1040 H1046 0.984 . S
N1040 H1047 0.984 . S
N1041 C1034 1.356 . S
N1041 H1044 0.984 . S
N1041 H1045 0.985 . S
H1042 N1037 0.984 . S
H1043 N1037 0.985 . S
H1044 N1041 0.984 . S
H1045 N1041 0.985 . S
H1046 N1040 0.984 . S
H1047 N1040 0.984 . S
H1048 N1036 0.984 . S
H1049 N1036 0.985 . S
C1050 C1051 1.363 . S
C1050 C1056 1.379 . S
C1050 N1058 1.356 . S
C1051 C1050 1.363 . S
C1051 C1057 1.363 . S
C1052 C1053 1.363 . S
C1052 C1057 1.379 . S
C1052 N1059 1.356 . S
C1053 C1052 1.363 . S
C1053 C1056 1.363 . S
N1054 C1056 1.356 . S
N1054 H1066 0.984 . S
N1054 H1067 0.985 . S
N1055 C1057 1.356 . S
N1055 H1060 0.984 . S
N1055 H1061 0.985 . S
C1056 C1050 1.379 . S
C1056 C1053 1.363 . S
C1056 N1054 1.356 . S
C1057 C1051 1.363 . S
C1057 C1052 1.379 . S
C1057 N1055 1.356 . S
N1058 C1050 1.356 . S
N1058 H1064 0.984 . S
N1058 H1065 0.984 . S
N1059 C1052 1.356 . S
N1059 H1062 0.984 . S
N1059 H1063 0.985 . S
H1060 N1055 0.984 . S
H1061 N1055 0.985 . S
H1062 N1059 0.984 . S
H1063 N1059 0.985 . S
H1064 N1058 0.984 . S
H1065 N1058 0.984 . S
H1066 N1054 0.984 . S
H1067 N1054 0.985 . S
C1068 C1069 1.363 . S
C1068 C1074 1.379 . S
C1068 N1076 1.356 . S
C1069 C1068 1.363 . S
C1069 C1075 1.363 . S
C1070 C1071 1.363 . S
C1070 C1075 1.379 . S
C1070 N1077 1.356 . S
C1071 C1070 1.363 . S
C1071 C1074 1.363 . S
N1072 C1074 1.356 . S
N1072 H1084 0.984 . S
N1072 H1085 0.985 . S
N1073 C1075 1.356 . S
N1073 H1078 0.984 1_554 S
N1073 H1079 0.985 . S
C1074 C1068 1.379 . S
C1074 C1071 1.363 . S
C1074 N1072 1.356 . S
C1075 C1069 1.363 . S
C1075 C1070 1.379 . S
C1075 N1073 1.356 . S
N1076 C1068 1.356 . S
N1076 H1082 0.984 . S
N1076 H1083 0.984 . S
N1077 C1070 1.356 . S
N1077 H1080 0.984 . S
N1077 H1081 0.985 . S
H1078 N1073 0.984 1_556 S
H1079 N1073 0.985 . S
H1080 N1077 0.984 . S
H1081 N1077 0.985 . S
H1082 N1076 0.984 . S
H1083 N1076 0.984 . S
H1084 N1072 0.984 . S
H1085 N1072 0.985 . S
C1086 C1087 1.363 . S
C1086 C1092 1.379 . S
C1086 N1094 1.356 . S
C1087 C1086 1.363 . S
C1087 C1093 1.363 . S
C1088 C1089 1.363 . S
C1088 C1093 1.379 . S
C1088 N1095 1.356 . S
C1089 C1088 1.363 . S
C1089 C1092 1.363 . S
N1090 C1092 1.356 . S
N1090 H1102 0.984 . S
N1090 H1103 0.985 . S
N1091 C1093 1.356 . S
N1091 H1096 0.984 . S
N1091 H1097 0.985 . S
C1092 C1086 1.379 . S
C1092 C1089 1.363 . S
C1092 N1090 1.356 . S
C1093 C1087 1.363 . S
C1093 C1088 1.379 . S
C1093 N1091 1.356 . S
N1094 C1086 1.356 . S
N1094 H1100 0.984 . S
N1094 H1101 0.984 . S
N1095 C1088 1.356 . S
N1095 H1098 0.984 . S
N1095 H1099 0.985 . S
H1096 N1091 0.984 . S
H1097 N1091 0.985 . S
H1098 N1095 0.984 . S
H1099 N1095 0.985 . S
H1100 N1094 0.984 . S
H1101 N1094 0.984 . S
H1102 N1090 0.984 . S
H1103 N1090 0.985 . S
C1104 C1105 1.363 . S
C1104 C1110 1.379 . S
C1104 N1112 1.356 . S
C1105 C1104 1.363 . S
C1105 C1111 1.363 . S
C1106 C1107 1.363 . S
C1106 C1111 1.379 . S
C1106 N1113 1.356 . S
C1107 C1106 1.363 . S
C1107 C1110 1.363 . S
N1108 C1110 1.356 . S
N1108 H1120 0.984 1_455 S
N1108 H1121 0.985 . S
N1109 C1111 1.356 . S
N1109 H1114 0.984 . S
N1109 H1115 0.985 . S
C1110 C1104 1.379 . S
C1110 C1107 1.363 . S
C1110 N1108 1.356 . S
C1111 C1105 1.363 . S
C1111 C1106 1.379 . S
C1111 N1109 1.356 . S
N1112 C1104 1.356 . S
N1112 H1118 0.984 . S
N1112 H1119 0.984 . S
N1113 C1106 1.356 . S
N1113 H1116 0.984 . S
N1113 H1117 0.985 . S
H1114 N1109 0.984 . S
H1115 N1109 0.985 . S
H1116 N1113 0.984 . S
H1117 N1113 0.985 . S
H1118 N1112 0.984 . S
H1119 N1112 0.984 . S
H1120 N1108 0.984 1_655 S
H1121 N1108 0.985 . S
C1122 C1123 1.363 . S
C1122 C1128 1.379 . S
C1122 N1130 1.356 . S
C1123 C1122 1.363 . S
C1123 C1129 1.363 . S
C1124 C1125 1.363 . S
C1124 C1129 1.379 . S
C1124 N1131 1.356 . S
C1125 C1124 1.363 . S
C1125 C1128 1.363 . S
N1126 C1128 1.356 . S
N1126 H1138 0.984 . S
N1126 H1139 0.985 . S
N1127 C1129 1.356 . S
N1127 H1132 0.984 . S
N1127 H1133 0.985 . S
C1128 C1122 1.379 . S
C1128 C1125 1.363 . S
C1128 N1126 1.356 . S
C1129 C1123 1.363 . S
C1129 C1124 1.379 . S
C1129 N1127 1.356 . S
N1130 C1122 1.356 . S
N1130 H1136 0.984 . S
N1130 H1137 0.984 . S
N1131 C1124 1.356 . S
N1131 H1134 0.984 . S
N1131 H1135 0.985 . S
H1132 N1127 0.984 . S
H1133 N1127 0.985 . S
H1134 N1131 0.984 . S
H1135 N1131 0.985 . S
H1136 N1130 0.984 . S
H1137 N1130 0.984 . S
H1138 N1126 0.984 . S
H1139 N1126 0.985 . S
C1140 C1141 1.363 . S
C1140 C1146 1.379 . S
C1140 N1148 1.356 . S
C1141 C1140 1.363 . S
C1141 C1147 1.363 . S
C1142 C1143 1.363 . S
C1142 C1147 1.379 . S
C1142 N1149 1.356 . S
C1143 C1142 1.363 . S
C1143 C1146 1.363 . S
N1144 C1146 1.356 . S
N1144 H1156 0.984 . S
N1144 H1157 0.985 . S
N1145 C1147 1.356 . S
N1145 H1150 0.984 . S
N1145 H1151 0.985 . S
C1146 C1140 1.379 . S
C1146 C1143 1.363 . S
C1146 N1144 1.356 . S
C1147 C1141 1.363 . S
C1147 C1142 1.379 . S
C1147 N1145 1.356 . S
N1148 C1140 1.356 . S
N1148 H1154 0.984 . S
N1148 H1155 0.984 . S
N1149 C1142 1.356 . S
N1149 H1152 0.984 . S
N1149 H1153 0.985 . S
H1150 N1145 0.984 . S
H1151 N1145 0.985 . S
H1152 N1149 0.984 . S
H1153 N1149 0.985 . S
H1154 N1148 0.984 . S
H1155 N1148 0.984 . S
H1156 N1144 0.984 . S
H1157 N1144 0.985 . S
C1158 C1159 1.363 . S
C1158 C1164 1.379 . S
C1158 N1166 1.356 . S
C1159 C1158 1.363 . S
C1159 C1165 1.363 . S
C1160 C1161 1.363 . S
C1160 C1165 1.379 . S
C1160 N1167 1.356 . S
C1161 C1160 1.363 . S
C1161 C1164 1.363 . S
N1162 C1164 1.356 . S
N1162 H1174 0.984 . S
N1162 H1175 0.985 . S
N1163 C1165 1.356 . S
N1163 H1168 0.984 . S
N1163 H1169 0.985 . S
C1164 C1158 1.379 . S
C1164 C1161 1.363 . S
C1164 N1162 1.356 . S
C1165 C1159 1.363 . S
C1165 C1160 1.379 . S
C1165 N1163 1.356 . S
N1166 C1158 1.356 . S
N1166 H1172 0.984 . S
N1166 H1173 0.984 . S
N1167 C1160 1.356 . S
N1167 H1170 0.984 . S
N1167 H1171 0.985 . S
H1168 N1163 0.984 . S
H1169 N1163 0.985 . S
H1170 N1167 0.984 . S
H1171 N1167 0.985 . S
H1172 N1166 0.984 . S
H1173 N1166 0.984 . S
H1174 N1162 0.984 . S
H1175 N1162 0.985 . S
C1176 C1177 1.363 . S
C1176 C1182 1.379 . S
C1176 N1184 1.356 . S
C1177 C1176 1.363 . S
C1177 C1183 1.363 . S
C1178 C1179 1.363 . S
C1178 C1183 1.379 . S
C1178 N1185 1.356 1_655 S
C1179 C1178 1.363 . S
C1179 C1182 1.363 . S
N1180 C1182 1.356 . S
N1180 H1192 0.984 . S
N1180 H1193 0.985 . S
N1181 C1183 1.356 . S
N1181 H1186 0.984 . S
N1181 H1187 0.985 1_655 S
C1182 C1176 1.379 . S
C1182 C1179 1.363 . S
C1182 N1180 1.356 . S
C1183 C1177 1.363 . S
C1183 C1178 1.379 . S
C1183 N1181 1.356 . S
N1184 C1176 1.356 . S
N1184 H1190 0.984 . S
N1184 H1191 0.984 . S
N1185 C1178 1.356 1_455 S
N1185 H1188 0.984 . S
N1185 H1189 0.985 . S
H1186 N1181 0.984 . S
H1187 N1181 0.985 1_455 S
H1188 N1185 0.984 . S
H1189 N1185 0.985 . S
H1190 N1184 0.984 . S
H1191 N1184 0.984 . S
H1192 N1180 0.984 . S
H1193 N1180 0.985 . S
C1194 C1195 1.363 . S
C1194 C1200 1.379 . S
C1194 N1202 1.356 . S
C1195 C1194 1.363 . S
C1195 C1201 1.363 . S
C1196 C1197 1.363 . S
C1196 C1201 1.379 . S
C1196 N1203 1.356 . S
C1197 C1196 1.363 . S
C1197 C1200 1.363 . S
N1198 C1200 1.356 . S
N1198 H1210 0.984 . S
N1198 H1211 0.985 . S
N1199 C1201 1.356 . S
N1199 H1204 0.984 . S
N1199 H1205 0.985 . S
C1200 C1194 1.379 . S
C1200 C1197 1.363 . S
C1200 N1198 1.356 . S
C1201 C1195 1.363 . S
C1201 C1196 1.379 . S
C1201 N1199 1.356 . S
N1202 C1194 1.356 . S
N1202 H1208 0.984 . S
N1202 H1209 0.984 . S
N1203 C1196 1.356 . S
N1203 H1206 0.984 . S
N1203 H1207 0.985 . S
H1204 N1199 0.984 . S
H1205 N1199 0.985 . S
H1206 N1203 0.984 . S
H1207 N1203 0.985 . S
H1208 N1202 0.984 . S
H1209 N1202 0.984 . S
H1210 N1198 0.984 . S
H1211 N1198 0.985 . S
C1212 C1213 1.363 . S
C1212 C1218 1.379 . S
C1212 N1220 1.356 . S
C1213 C1212 1.363 . S
C1213 C1219 1.363 . S
C1214 C1215 1.363 . S
C1214 C1219 1.379 . S
C1214 N1221 1.356 . S
C1215 C1214 1.363 . S
C1215 C1218 1.363 . S
N1216 C1218 1.356 . S
N1216 H1228 0.984 . S
N1216 H1229 0.985 . S
N1217 C1219 1.356 . S
N1217 H1222 0.984 . S
N1217 H1223 0.985 . S
C1218 C1212 1.379 . S
C1218 C1215 1.363 . S
C1218 N1216 1.356 . S
C1219 C1213 1.363 . S
C1219 C1214 1.379 . S
C1219 N1217 1.356 . S
N1220 C1212 1.356 . S
N1220 H1226 0.984 . S
N1220 H1227 0.984 . S
N1221 C1214 1.356 . S
N1221 H1224 0.984 . S
N1221 H1225 0.985 . S
H1222 N1217 0.984 . S
H1223 N1217 0.985 . S
H1224 N1221 0.984 . S
H1225 N1221 0.985 . S
H1226 N1220 0.984 . S
H1227 N1220 0.984 . S
H1228 N1216 0.984 . S
H1229 N1216 0.985 . S
C1230 C1231 1.363 . S
C1230 C1236 1.379 . S
C1230 N1238 1.356 . S
C1231 C1230 1.363 . S
C1231 C1237 1.363 . S
C1232 C1233 1.363 . S
C1232 C1237 1.379 . S
C1232 N1239 1.356 . S
C1233 C1232 1.363 . S
C1233 C1236 1.363 . S
N1234 C1236 1.356 . S
N1234 H1246 0.984 . S
N1234 H1247 0.985 . S
N1235 C1237 1.356 . S
N1235 H1240 0.984 . S
N1235 H1241 0.985 . S
C1236 C1230 1.379 . S
C1236 C1233 1.363 . S
C1236 N1234 1.356 . S
C1237 C1231 1.363 . S
C1237 C1232 1.379 . S
C1237 N1235 1.356 . S
N1238 C1230 1.356 . S
N1238 H1244 0.984 . S
N1238 H1245 0.984 . S
N1239 C1232 1.356 . S
N1239 H1242 0.984 . S
N1239 H1243 0.985 . S
H1240 N1235 0.984 . S
H1241 N1235 0.985 . S
H1242 N1239 0.984 . S
H1243 N1239 0.985 . S
H1244 N1238 0.984 . S
H1245 N1238 0.984 . S
H1246 N1234 0.984 . S
H1247 N1234 0.985 . S
C817 C361 1.447 1_545 S
C819 C554 1.465 . S
C837 C638 1.465 . S
C835 C451 1.462 . S
C855 C631 1.473 . S
C853 C241 1.443 . S
C871 C331 1.457 1_545 S
C873 C547 1.473 . S
C891 C711 1.464 . S
C889 C140 1.439 1_565 S
C909 C795 1.465 . S
C907 C211 1.440 . S
C925 C20 1.429 . S
C927 C788 1.473 . S
C943 C91 1.429 1_565 S
C945 C704 1.474 . S
C963 C538 1.320 . S
C961 C80 1.476 . S
C981 C622 1.320 . S
C979 C1 1.476 . S
C999 C633 1.404 . S
C997 C200 1.521 . S
C1017 C549 1.404 . S
C1015 C121 1.497 . S
C1035 C717 1.320 . S
C1033 C320 1.508 . S
C1051 C260 1.486 . S
C1053 C801 1.320 . S
C1071 C790 1.404 . S
C1069 C440 1.524 . S
C1087 C380 1.503 . S
C1089 C706 1.404 . S
C1107 C536 1.579 . S
C1105 C31 1.553 . S
C1125 C620 1.579 . S
C1123 C61 1.553 . S
C1141 C151 1.544 . S
C1143 C627 1.563 . S
C1161 C543 1.564 . S
C1159 C181 1.544 . S
C1179 C715 1.578 . S
C1177 C271 1.500 . S
C1195 C301 1.586 . S
C1197 C799 1.579 . S
C1213 C391 1.493 . S
C1215 C806 1.563 . S
C1231 C421 1.572 . S
C1233 C722 1.564 . S
