# Generated by pormake.
# Topology ssa, (4,4)-cn, num edge types: 1
# Building blocks:
#     Node 0, Type 0, BuildingBlock: KOZSID_clean_sbu_0, # of connection points: 4
#     Node 1, Type 0, BuildingBlock: KOZSID_clean_sbu_0, # of connection points: 4
#     Node 2, Type 0, BuildingBlock: KOZSID_clean_sbu_0, # of connection points: 4
#     Node 3, Type 0, BuildingBlock: KOZSID_clean_sbu_0, # of connection points: 4
#     Node 4, Type 0, BuildingBlock: KOZSID_clean_sbu_0, # of connection points: 4
#     Node 5, Type 0, BuildingBlock: KOZSID_clean_sbu_0, # of connection points: 4
#     Node 6, Type 1, BuildingBlock: AZAVOO_clean_linker_0, # of connection points: 4
#     Node 7, Type 1, BuildingBlock: AZAVOO_clean_linker_0, # of connection points: 4
#     Node 8, Type 1, BuildingBlock: AZAVOO_clean_linker_0, # of connection points: 4
#     Node 9, Type 1, BuildingBlock: AZAVOO_clean_linker_0, # of connection points: 4
#     Node 10, Type 1, BuildingBlock: AZAVOO_clean_linker_0, # of connection points: 4
#     Node 11, Type 1, BuildingBlock: AZAVOO_clean_linker_0, # of connection points: 4
#     Edge 12, Type (0, 1), BuildingBlock: XUDNAN_clean_linker_2, # of connection points: 2
#     Edge 13, Type (0, 1), BuildingBlock: XUDNAN_clean_linker_2, # of connection points: 2
#     Edge 14, Type (0, 1), BuildingBlock: XUDNAN_clean_linker_2, # of connection points: 2
#     Edge 15, Type (0, 1), BuildingBlock: XUDNAN_clean_linker_2, # of connection points: 2
#     Edge 16, Type (0, 1), BuildingBlock: XUDNAN_clean_linker_2, # of connection points: 2
#     Edge 17, Type (0, 1), BuildingBlock: XUDNAN_clean_linker_2, # of connection points: 2
#     Edge 18, Type (0, 1), BuildingBlock: XUDNAN_clean_linker_2, # of connection points: 2
#     Edge 19, Type (0, 1), BuildingBlock: XUDNAN_clean_linker_2, # of connection points: 2
#     Edge 20, Type (0, 1), BuildingBlock: XUDNAN_clean_linker_2, # of connection points: 2
#     Edge 21, Type (0, 1), BuildingBlock: XUDNAN_clean_linker_2, # of connection points: 2
#     Edge 22, Type (0, 1), BuildingBlock: XUDNAN_clean_linker_2, # of connection points: 2
#     Edge 23, Type (0, 1), BuildingBlock: XUDNAN_clean_linker_2, # of connection points: 2
#     Edge 24, Type (0, 1), BuildingBlock: XUDNAN_clean_linker_2, # of connection points: 2
#     Edge 25, Type (0, 1), BuildingBlock: XUDNAN_clean_linker_2, # of connection points: 2
#     Edge 26, Type (0, 1), BuildingBlock: XUDNAN_clean_linker_2, # of connection points: 2
#     Edge 27, Type (0, 1), BuildingBlock: XUDNAN_clean_linker_2, # of connection points: 2
#     Edge 28, Type (0, 1), BuildingBlock: XUDNAN_clean_linker_2, # of connection points: 2
#     Edge 29, Type (0, 1), BuildingBlock: XUDNAN_clean_linker_2, # of connection points: 2
#     Edge 30, Type (0, 1), BuildingBlock: XUDNAN_clean_linker_2, # of connection points: 2
#     Edge 31, Type (0, 1), BuildingBlock: XUDNAN_clean_linker_2, # of connection points: 2
#     Edge 32, Type (0, 1), BuildingBlock: XUDNAN_clean_linker_2, # of connection points: 2
#     Edge 33, Type (0, 1), BuildingBlock: XUDNAN_clean_linker_2, # of connection points: 2
#     Edge 34, Type (0, 1), BuildingBlock: XUDNAN_clean_linker_2, # of connection points: 2
#     Edge 35, Type (0, 1), BuildingBlock: XUDNAN_clean_linker_2, # of connection points: 2
# Relax obj value: 0.069
# Max RMSD: 0.232
# Mean RMSD: 0.120
data_MOF--net-ssa--node1-KOZSID_clean_sbu_0--node2-AZAVOO_clean_linker_0--edge1-XUDNAN_clean_linker_2
_symmetry_space_group_name_H-M    P1
_symmetry_Int_Tables_number       1
_symmetry_cell_setting            triclinic
loop_
_symmetry_equiv_pos_as_xyz
'x, y, z'
_cell_length_a     53.716068
_cell_length_b     55.226721
_cell_length_c     51.856159
_cell_angle_alpha  87.385753
_cell_angle_beta   92.657202
_cell_angle_gamma 122.4679
loop_
_atom_site_label
_atom_site_type_symbol
_atom_site_fract_x
_atom_site_fract_y
_atom_site_fract_z
_atom_type_partial_charge
C0 C 0.07125 0.54799 0.00979 0.0
C1 C 0.04303 0.53587 0.01915 0.0
C2 C 0.04053 0.51803 0.0393 0.0
C3 C 0.06718 0.52021 0.04106 0.0
N4 N 0.08661 0.53835 0.02323 0.0
Co5 Co 0.12749 0.54701 0.0184 0.0
N6 N 0.12479 0.52311 0.04974 0.0
C7 C 0.1021 0.50939 0.06616 0.0
C8 C 0.1068 0.49536 0.08638 0.0
C9 C 0.13423 0.50052 0.08279 0.0
C10 C 0.14472 0.51749 0.06046 0.0
N11 N 0.16771 0.55429 0.01273 0.0
C12 C 0.18292 0.54441 0.02613 0.0
C13 C 0.2097 0.5537 0.01496 0.0
C14 C 0.21142 0.56994 0.99365 0.0
C15 C 0.1857 0.56959 0.99301 0.0
N16 N 0.13081 0.57235 0.98799 0.0
C17 C 0.15436 0.58784 0.97271 0.0
C18 C 0.15083 0.60443 0.95427 0.0
C19 C 0.12352 0.59954 0.9582 0.0
C20 C 0.11192 0.5801 0.97884 0.0
N21 N 0.14452 0.58088 0.0406 0.0
C22 C 0.16886 0.62934 0.07188 0.0
C23 C 0.18427 0.62892 0.05109 0.0
C24 C 0.17172 0.60483 0.03574 0.0
C25 C 0.14093 0.60499 0.07663 0.0
C26 C 0.1294 0.58112 0.06104 0.0
N27 N 0.11052 0.51314 0.99606 0.0
C28 C 0.10738 0.49261 0.95491 0.0
C29 C 0.08689 0.46517 0.96441 0.0
C30 C 0.0784 0.46202 0.98998 0.0
C31 C 0.09023 0.48612 0.00529 0.0
C32 C 0.11898 0.51607 0.97098 0.0
H33 H 0.08245 0.4823 0.02448 0.0
H34 H 0.13476 0.53631 0.96258 0.0
H35 H 0.18457 0.6061 0.02011 0.0
H36 H 0.1082 0.56312 0.06591 0.0
C37 C 0.07572 0.50806 0.06087 0.0
C38 C 0.08282 0.56949 0.9889 0.0
C39 C 0.17329 0.52687 0.04981 0.0
C40 C 0.17883 0.58524 0.97544 0.0
H41 H 0.02621 0.53998 0.01248 0.0
H42 H 0.02187 0.50569 0.05174 0.0
H43 H 0.09179 0.48237 0.10157 0.0
H44 H 0.14504 0.49227 0.09503 0.0
H45 H 0.2264 0.54945 0.0217 0.0
H46 H 0.22953 0.58111 0.98048 0.0
H47 H 0.16622 0.61831 0.93963 0.0
H48 H 0.11323 0.6091 0.94711 0.0
H49 H 0.20621 0.6469 0.04681 0.0
H50 H 0.12782 0.60426 0.09225 0.0
H51 H 0.11465 0.49595 0.9352 0.0
H52 H 0.0622 0.44111 0.99799 0.0
C53 C 0.61035 0.02187 0.60263 0.0
C54 C 0.6066 0.00737 0.62607 0.0
C55 C 0.57921 0.98275 0.6248 0.0
C56 C 0.56794 0.98367 0.60071 0.0
N57 N 0.58677 0.00715 0.58646 0.0
Co58 Co 0.5795 0.01797 0.55089 0.0
N59 N 0.5366 0.98685 0.55177 0.0
C60 C 0.52248 0.96813 0.57157 0.0
C61 C 0.49266 0.95045 0.56731 0.0
C62 C 0.48741 0.95833 0.54336 0.0
C63 C 0.51454 0.98018 0.53416 0.0
N64 N 0.57264 0.02811 0.51485 0.0
C65 C 0.54767 0.01599 0.49985 0.0
C66 C 0.55333 0.02787 0.47495 0.0
C67 C 0.58269 0.04844 0.47437 0.0
C68 C 0.59341 0.04778 0.49867 0.0
N69 N 0.622 0.05031 0.55077 0.0
C70 C 0.63649 0.06914 0.53118 0.0
C71 C 0.66473 0.0906 0.5377 0.0
C72 C 0.66818 0.0857 0.56326 0.0
C73 C 0.64178 0.06131 0.5707 0.0
N74 N 0.58937 0.99124 0.53654 0.0
C75 C 0.60412 0.95359 0.51703 0.0
C76 C 0.62127 0.9831 0.51178 0.0
C77 C 0.61349 0.00126 0.52144 0.0
C78 C 0.57937 0.94323 0.53215 0.0
C79 C 0.57252 0.9622 0.54166 0.0
N80 N 0.56993 0.04443 0.56535 0.0
C81 C 0.57661 0.09126 0.56593 0.0
C82 C 0.5631 0.08484 0.58987 0.0
C83 C 0.55179 0.05731 0.6006 0.0
C84 C 0.55526 0.03754 0.58805 0.0
C85 C 0.57968 0.07082 0.55403 0.0
H86 H 0.54675 0.01709 0.59747 0.0
H87 H 0.59067 0.07699 0.53601 0.0
H88 H 0.62757 0.02331 0.51634 0.0
H89 H 0.55339 0.9526 0.55304 0.0
C90 C 0.53817 0.96669 0.59327 0.0
C91 C 0.63551 0.05052 0.5972 0.0
C92 C 0.51843 0.9929 0.50816 0.0
C93 C 0.62245 0.06653 0.50725 0.0
H94 H 0.62158 0.01457 0.64269 0.0
H95 H 0.56801 0.96718 0.64027 0.0
H96 H 0.47669 0.93361 0.57997 0.0
H97 H 0.46605 0.94872 0.53359 0.0
H98 H 0.53801 0.02225 0.45871 0.0
H99 H 0.59476 0.06232 0.45817 0.0
H100 H 0.68052 0.10827 0.52558 0.0
H101 H 0.68757 0.09904 0.57522 0.0
H102 H 0.64094 0.99238 0.50045 0.0
H103 H 0.56497 0.92049 0.53643 0.0
H104 H 0.58515 0.11209 0.55656 0.0
H105 H 0.54132 0.05128 0.61916 0.0
C106 C 0.63423 0.55174 0.03713 0.0
C107 C 0.63785 0.5703 0.01659 0.0
C108 C 0.61305 0.57136 0.015 0.0
C109 C 0.59583 0.55351 0.0346 0.0
N110 N 0.6081 0.54113 0.04871 0.0
Co111 Co 0.59058 0.51365 0.07897 0.0
N112 N 0.55388 0.51488 0.07634 0.0
C113 C 0.54762 0.52978 0.05864 0.0
C114 C 0.52037 0.52575 0.06114 0.0
C115 C 0.5085 0.50732 0.08178 0.0
C116 C 0.52943 0.50135 0.09091 0.0
N117 N 0.57308 0.48622 0.1093 0.0
C118 C 0.54726 0.47616 0.12131 0.0
C119 C 0.54446 0.45873 0.14262 0.0
C120 C 0.56906 0.45735 0.14387 0.0
C121 C 0.5856 0.47414 0.12354 0.0
N122 N 0.62729 0.51238 0.08155 0.0
C123 C 0.63338 0.49709 0.0989 0.0
C124 C 0.6602 0.50031 0.09569 0.0
C125 C 0.67197 0.51872 0.07498 0.0
C126 C 0.65156 0.52568 0.06677 0.0
N127 N 0.60902 0.54647 0.10273 0.0
C128 C 0.63513 0.59294 0.13645 0.0
C129 C 0.63567 0.56837 0.14248 0.0
C130 C 0.62285 0.5457 0.12536 0.0
C131 C 0.62134 0.59397 0.11333 0.0
C132 C 0.60826 0.57056 0.097 0.0
N133 N 0.5722 0.48081 0.0552 0.0
C134 C 0.56064 0.43362 0.04439 0.0
C135 C 0.54745 0.4348 0.02093 0.0
C136 C 0.54659 0.45924 0.01501 0.0
C137 C 0.55881 0.48172 0.03233 0.0
C138 C 0.57289 0.45671 0.06102 0.0
H139 H 0.55723 0.4996 0.02672 0.0
H140 H 0.58299 0.45462 0.07839 0.0
H141 H 0.6245 0.52782 0.13089 0.0
H142 H 0.59759 0.57241 0.07993 0.0
C143 C 0.56778 0.54746 0.0399 0.0
C144 C 0.6561 0.54467 0.04462 0.0
C145 C 0.52509 0.4829 0.11359 0.0
C146 C 0.61343 0.47977 0.1179 0.0
H147 H 0.65644 0.58175 0.00395 0.0
H148 H 0.60807 0.5835 0.0011 0.0
H149 H 0.51033 0.5351 0.04934 0.0
H150 H 0.48684 0.49924 0.08924 0.0
H151 H 0.52671 0.44833 0.15616 0.0
H152 H 0.57449 0.44587 0.15816 0.0
H153 H 0.66995 0.49036 0.10699 0.0
H154 H 0.69313 0.52609 0.06676 0.0
H155 H 0.64633 0.56681 0.16017 0.0
H156 H 0.62018 0.61256 0.10808 0.0
H157 H 0.56211 0.41522 0.04968 0.0
H158 H 0.53628 0.46096 0.99714 0.0
C159 C 0.99616 0.41366 0.5646 0.0
C160 C 0.96877 0.39099 0.5563 0.0
C161 C 0.9574 0.40231 0.539 0.0
C162 C 0.97843 0.43113 0.53754 0.0
N163 N 0.00262 0.43859 0.55246 0.0
Co164 Co 0.0376 0.47817 0.55637 0.0
N165 N 0.02581 0.49246 0.52534 0.0
C166 C 0.99888 0.47961 0.51389 0.0
C167 C 0.99831 0.4939 0.49168 0.0
C168 C 0.0267 0.51702 0.48901 0.0
C169 C 0.04297 0.51559 0.50991 0.0
N170 N 0.07243 0.51769 0.56002 0.0
C171 C 0.08547 0.53868 0.54176 0.0
C172 C 0.10992 0.56315 0.55184 0.0
C173 C 0.11225 0.55694 0.57747 0.0
C174 C 0.0891 0.52914 0.58148 0.0
N175 N 0.04966 0.46443 0.58767 0.0
C176 C 0.06921 0.48136 0.60608 0.0
C177 C 0.07226 0.46615 0.62625 0.0
C178 C 0.05303 0.43791 0.62051 0.0
C179 C 0.03916 0.43739 0.59702 0.0
N180 N 0.06038 0.46932 0.5348 0.0
C181 C 0.0977 0.46807 0.49984 0.0
C182 C 0.10767 0.47765 0.52499 0.0
C183 C 0.0887 0.47807 0.54213 0.0
C184 C 0.06792 0.45687 0.49328 0.0
C185 C 0.04957 0.45753 0.51112 0.0
N186 N 0.01519 0.48748 0.57807 0.0
C187 C 0.00748 0.52285 0.59479 0.0
C188 C 0.99232 0.50435 0.61563 0.0
C189 C 0.9866 0.47648 0.61595 0.0
C190 C 0.99818 0.46851 0.59708 0.0
C191 C 0.01863 0.5139 0.57608 0.0
H192 H 0.99453 0.44742 0.5988 0.0
H193 H 0.03133 0.52888 0.56076 0.0
H194 H 0.0975 0.48698 0.56085 0.0
H195 H 0.0271 0.44999 0.50523 0.0
C196 C 0.97744 0.45123 0.52072 0.0
C197 C 0.01301 0.41126 0.58668 0.0
C198 C 0.0745 0.53608 0.51507 0.0
C199 C 0.08618 0.51131 0.60269 0.0
H200 H 0.95769 0.36877 0.56282 0.0
H201 H 0.93637 0.39085 0.52865 0.0
H202 H 0.98005 0.48719 0.47801 0.0
H203 H 0.03447 0.53252 0.47314 0.0
H204 H 0.12463 0.58315 0.54165 0.0
H205 H 0.12973 0.57046 0.59108 0.0
H206 H 0.08672 0.47456 0.64312 0.0
H207 H 0.04884 0.41984 0.63284 0.0
H208 H 0.13032 0.4858 0.53111 0.0
H209 H 0.05922 0.44914 0.47409 0.0
H210 H 0.0121 0.54452 0.59371 0.0
H211 H 0.97421 0.46121 0.63132 0.0
C212 C 0.52688 0.02398 0.12734 0.0
C213 C 0.52907 0.03717 0.15021 0.0
C214 C 0.55276 0.06497 0.1479 0.0
C215 C 0.56377 0.06712 0.12391 0.0
N216 N 0.54841 0.04242 0.11111 0.0
Co217 Co 0.55745 0.03509 0.07677 0.0
N218 N 0.59879 0.06814 0.07934 0.0
C219 C 0.60901 0.09019 0.09546 0.0
C220 C 0.63833 0.11068 0.09226 0.0
C221 C 0.64697 0.10108 0.07272 0.0
C222 C 0.62234 0.07509 0.06506 0.0
N223 N 0.56611 0.02754 0.04233 0.0
C224 C 0.59239 0.0374 0.03135 0.0
C225 C 0.58821 0.02629 0.00689 0.0
C226 C 0.55833 0.00978 0.0022 0.0
C227 C 0.54587 0.01138 0.02404 0.0
N228 N 0.51611 0.00225 0.07434 0.0
C229 C 0.50086 0.98931 0.05266 0.0
C230 C 0.4727 0.96664 0.05751 0.0
C231 C 0.4703 0.96536 0.08389 0.0
C232 C 0.49724 0.98733 0.09357 0.0
N233 N 0.5457 0.06019 0.06042 0.0
C234 C 0.52701 0.09307 0.03403 0.0
C235 C 0.51121 0.0753 0.05496 0.0
C236 C 0.52082 0.0588 0.06781 0.0
C237 C 0.55275 0.09484 0.02711 0.0
C238 C 0.56189 0.07852 0.0407 0.0
N239 N 0.56905 0.00992 0.09297 0.0
C240 C 0.56488 0.96435 0.09501 0.0
C241 C 0.58091 0.97131 0.11852 0.0
C242 C 0.59187 0.99858 0.1284 0.0
C243 C 0.58588 0.01762 0.11523 0.0
C244 C 0.55906 0.98381 0.08268 0.0
H245 H 0.59417 0.03826 0.12345 0.0
H246 H 0.5459 0.97743 0.06508 0.0
H247 H 0.50782 0.04449 0.08337 0.0
H248 H 0.58179 0.08035 0.03479 0.0
C249 C 0.59153 0.08907 0.11534 0.0
C250 C 0.50406 0.99434 0.1209 0.0
C251 C 0.62128 0.05956 0.04229 0.0
C252 C 0.5157 0.99487 0.02951 0.0
H253 H 0.51543 0.02776 0.16693 0.0
H254 H 0.56192 0.08106 0.16261 0.0
H255 H 0.65195 0.13004 0.1031 0.0
H256 H 0.66874 0.11235 0.06463 0.0
H257 H 0.60496 0.0301 0.99358 0.0
H258 H 0.54708 0.99745 0.98518 0.0
H259 H 0.45646 0.95179 0.04374 0.0
H260 H 0.45115 0.94995 0.09477 0.0
H261 H 0.49115 0.0735 0.06077 0.0
H262 H 0.56565 0.10864 0.01115 0.0
H263 H 0.55654 0.94386 0.08624 0.0
H264 H 0.60416 0.00494 0.14658 0.0
C265 C 0.58924 0.59897 0.55988 0.0
C266 C 0.58194 0.61932 0.56275 0.0
C267 C 0.55441 0.60521 0.57307 0.0
C268 C 0.54653 0.57719 0.57629 0.0
N269 N 0.56765 0.57295 0.569 0.0
Co270 Co 0.56578 0.53614 0.57149 0.0
N271 N 0.53279 0.51947 0.59564 0.0
C272 C 0.51449 0.52853 0.5992 0.0
C273 C 0.49467 0.51299 0.61833 0.0
C274 C 0.50116 0.49313 0.62732 0.0
C275 C 0.52464 0.49782 0.61311 0.0
N276 N 0.56373 0.49928 0.57425 0.0
C277 C 0.55293 0.47934 0.59359 0.0
C278 C 0.55676 0.45703 0.5889 0.0
C279 C 0.57043 0.46347 0.56557 0.0
C280 C 0.57423 0.48929 0.55748 0.0
N281 N 0.59864 0.55244 0.54706 0.0
C282 C 0.60571 0.53706 0.53306 0.0
C283 C 0.62842 0.55381 0.51668 0.0
C284 C 0.63579 0.58134 0.5203 0.0
C285 C 0.61713 0.57994 0.53887 0.0
N286 N 0.59404 0.5504 0.60058 0.0
C287 C 0.63483 0.57076 0.64183 0.0
C288 C 0.63867 0.55797 0.62105 0.0
C289 C 0.61788 0.54765 0.60074 0.0
C290 C 0.61012 0.57297 0.64184 0.0
C291 C 0.5901 0.56291 0.62086 0.0
N292 N 0.53766 0.52184 0.54219 0.0
C293 C 0.4958 0.48276 0.52006 0.0
C294 C 0.50265 0.49972 0.49742 0.0
C295 C 0.52619 0.52832 0.49807 0.0
C296 C 0.54317 0.53902 0.52063 0.0
C297 C 0.51372 0.49422 0.54228 0.0
H298 H 0.56144 0.56098 0.52023 0.0
H299 H 0.50883 0.48049 0.55925 0.0
H300 H 0.62115 0.53752 0.58512 0.0
H301 H 0.57149 0.56532 0.62101 0.0
C302 C 0.52161 0.55546 0.58927 0.0
C303 C 0.61474 0.60432 0.54531 0.0
C304 C 0.53859 0.48128 0.616 0.0
C305 C 0.59304 0.50757 0.53806 0.0
H306 H 0.59481 0.64188 0.55729 0.0
H307 H 0.54198 0.61446 0.57817 0.0
H308 H 0.4788 0.51689 0.62609 0.0
H309 H 0.49035 0.47741 0.64278 0.0
H310 H 0.55075 0.43837 0.6011 0.0
H311 H 0.5783 0.45163 0.55649 0.0
H312 H 0.63865 0.54692 0.50385 0.0
H313 H 0.65239 0.60009 0.50975 0.0
H314 H 0.65759 0.55589 0.62056 0.0
H315 H 0.60666 0.58293 0.65765 0.0
H316 H 0.47759 0.46055 0.52026 0.0
H317 H 0.5318 0.54224 0.48105 0.0
H318 H 0.33007 0.47625 0.45593 0.0
H319 H 0.11635 0.43278 0.22309 0.0
H320 H 0.3544 0.4948 0.3176 0.0
H321 H 0.39303 0.49638 0.34594 0.0
H322 H 0.3514 0.40487 0.33962 0.0
H323 H 0.31276 0.40336 0.31076 0.0
H324 H 0.30585 0.49288 0.34761 0.0
H325 H 0.31786 0.49416 0.39384 0.0
H326 H 0.28621 0.40376 0.39366 0.0
H327 H 0.27403 0.40275 0.34749 0.0
H328 H 0.25821 0.49642 0.30974 0.0
H329 H 0.23142 0.50455 0.34149 0.0
H330 H 0.19452 0.4179 0.37161 0.0
H331 H 0.22065 0.40965 0.33903 0.0
H332 H 0.25995 0.4962 0.25295 0.0
H333 H 0.21934 0.49841 0.23223 0.0
H334 H 0.15796 0.41057 0.25701 0.0
H335 H 0.19889 0.4085 0.27727 0.0
H336 H 0.31253 0.49812 0.23271 0.0
H337 H 0.30272 0.50852 0.18826 0.0
H338 H 0.22686 0.4219 0.18302 0.0
H339 H 0.23671 0.41172 0.22755 0.0
H340 H 0.3604 0.48894 0.26806 0.0
H341 H 0.39557 0.48729 0.24148 0.0
H342 H 0.32452 0.40766 0.20929 0.0
H343 H 0.29019 0.40818 0.23804 0.0
O344 O 0.32421 0.47505 0.43787 0.0
O345 O 0.30743 0.4285 0.43677 0.0
O346 O 0.16535 0.47748 0.21858 0.0
O347 O 0.13279 0.43256 0.23127 0.0
C348 C 0.30489 0.44772 0.29965 0.0
C349 C 0.28436 0.44765 0.31579 0.0
C350 C 0.26064 0.44913 0.30492 0.0
C351 C 0.25722 0.45031 0.27784 0.0
C352 C 0.27767 0.45019 0.26161 0.0
C353 C 0.30152 0.44878 0.2725 0.0
C354 C 0.33107 0.44904 0.31188 0.0
C355 C 0.35414 0.47523 0.32162 0.0
C356 C 0.37597 0.4761 0.33787 0.0
C357 C 0.37489 0.45074 0.34478 0.0
C358 C 0.35254 0.42463 0.3343 0.0
C359 C 0.33073 0.4238 0.31776 0.0
C360 C 0.28901 0.44771 0.34428 0.0
C361 C 0.30114 0.4733 0.3577 0.0
C362 C 0.30814 0.474 0.38406 0.0
C363 C 0.30315 0.44909 0.39743 0.0
C364 C 0.2904 0.42333 0.38396 0.0
C365 C 0.28335 0.42267 0.35762 0.0
C366 C 0.24134 0.45245 0.32208 0.0
C367 C 0.24378 0.47898 0.32279 0.0
C368 C 0.22873 0.48367 0.34114 0.0
C369 C 0.21113 0.46198 0.35928 0.0
C370 C 0.20772 0.43497 0.3578 0.0
C371 C 0.22272 0.43025 0.33931 0.0
C372 C 0.23237 0.45211 0.2664 0.0
C373 C 0.23773 0.47744 0.2538 0.0
C374 C 0.21449 0.47866 0.24204 0.0
C375 C 0.1854 0.45462 0.24289 0.0
C376 C 0.18009 0.42944 0.25594 0.0
C377 C 0.20339 0.42821 0.26759 0.0
C378 C 0.27529 0.45421 0.23331 0.0
C379 C 0.29431 0.48117 0.22169 0.0
C380 C 0.28856 0.48713 0.19644 0.0
C381 C 0.26393 0.46606 0.18233 0.0
C382 C 0.24611 0.43845 0.19341 0.0
C383 C 0.25167 0.4326 0.21879 0.0
C384 C 0.3228 0.44838 0.25546 0.0
C385 C 0.35258 0.47081 0.25571 0.0
C386 C 0.3726 0.47007 0.24002 0.0
C387 C 0.36311 0.44729 0.22306 0.0
C388 C 0.33298 0.42521 0.22245 0.0
C389 C 0.31316 0.42562 0.23867 0.0
C390 C 0.31162 0.45013 0.4252 0.0
C391 C 0.16067 0.4557 0.23017 0.0
H392 H 0.92138 0.30027 0.97504 0.0
H393 H 0.66443 0.05913 0.81525 0.0
H394 H 0.88787 0.29861 0.8358 0.0
H395 H 0.93584 0.33636 0.85269 0.0
H396 H 0.97151 0.28418 0.83936 0.0
H397 H 0.92304 0.24628 0.82252 0.0
H398 H 0.84799 0.26226 0.88054 0.0
H399 H 0.87392 0.28167 0.92179 0.0
H400 H 0.92254 0.24065 0.91312 0.0
H401 H 0.89617 0.22112 0.87205 0.0
H402 H 0.78814 0.2157 0.86892 0.0
H403 H 0.75902 0.19083 0.90707 0.0
H404 H 0.79714 0.13878 0.9125 0.0
H405 H 0.82719 0.16491 0.87509 0.0
H406 H 0.7651 0.19981 0.8075 0.0
H407 H 0.71367 0.15984 0.80322 0.0
H408 H 0.74003 0.10032 0.82615 0.0
H409 H 0.7914 0.14047 0.83004 0.0
H410 H 0.80955 0.23722 0.76501 0.0
H411 H 0.77665 0.21588 0.7272 0.0
H412 H 0.78098 0.14014 0.73855 0.0
H413 H 0.81435 0.16197 0.77575 0.0
H414 H 0.87826 0.29005 0.78366 0.0
H415 H 0.90663 0.31515 0.74533 0.0
H416 H 0.9025 0.23818 0.72419 0.0
H417 H 0.87569 0.2139 0.76348 0.0
O418 O 0.91096 0.29191 0.95896 0.0
O419 O 0.93549 0.27053 0.9535 0.0
O420 O 0.67219 0.10681 0.805 0.0
O421 O 0.68456 0.07533 0.81683 0.0
C422 C 0.8717 0.24462 0.82504 0.0
C423 C 0.85592 0.2302 0.84763 0.0
C424 C 0.82661 0.20664 0.84567 0.0
C425 C 0.81312 0.19725 0.82114 0.0
C426 C 0.82906 0.21129 0.79852 0.0
C427 C 0.85841 0.23518 0.80036 0.0
C428 C 0.90211 0.26984 0.82795 0.0
C429 C 0.90635 0.29584 0.83557 0.0
C430 C 0.9338 0.31736 0.8452 0.0
C431 C 0.95738 0.31312 0.84752 0.0
C432 C 0.95363 0.28789 0.83797 0.0
C433 C 0.92613 0.26639 0.82814 0.0
C434 C 0.87018 0.24025 0.87343 0.0
C435 C 0.86399 0.25723 0.88777 0.0
C436 C 0.87894 0.2684 0.91124 0.0
C437 C 0.90037 0.26279 0.92072 0.0
C438 C 0.90619 0.24541 0.90638 0.0
C439 C 0.89114 0.23418 0.88296 0.0
C440 C 0.80973 0.19208 0.86933 0.0
C441 C 0.79032 0.19908 0.87857 0.0
C442 C 0.7735 0.18462 0.90024 0.0
C443 C 0.77548 0.16256 0.91291 0.0
C444 C 0.79528 0.15587 0.90359 0.0
C445 C 0.81236 0.17063 0.88211 0.0
C446 C 0.78188 0.17298 0.81912 0.0
C447 C 0.75968 0.17811 0.81158 0.0
C448 C 0.73035 0.15525 0.80917 0.0
C449 C 0.72274 0.12686 0.81436 0.0
C450 C 0.74511 0.12189 0.82203 0.0
C451 C 0.77444 0.14477 0.82435 0.0
C452 C 0.81418 0.20105 0.77305 0.0
C453 C 0.80401 0.21638 0.7588 0.0
C454 C 0.78501 0.20404 0.73744 0.0
C455 C 0.77597 0.1762 0.73008 0.0
C456 C 0.78772 0.1617 0.74355 0.0
C457 C 0.80671 0.17407 0.76484 0.0
C458 C 0.87511 0.2502 0.77659 0.0
C459 C 0.88379 0.27873 0.7709 0.0
C460 C 0.89969 0.29293 0.74872 0.0
C461 C 0.90696 0.27878 0.73147 0.0
C462 C 0.89783 0.25001 0.73714 0.0
C463 C 0.88222 0.23595 0.7595 0.0
C464 C 0.9167 0.27522 0.94537 0.0
C465 C 0.69163 0.10249 0.81176 0.0
H466 H 0.64394 0.73995 0.16051 0.0
H467 H 0.66513 0.96736 0.34414 0.0
H468 H 0.63183 0.7357 0.30071 0.0
H469 H 0.63589 0.70247 0.2746 0.0
H470 H 0.7308 0.75914 0.27675 0.0
H471 H 0.72652 0.7922 0.3035 0.0
H472 H 0.62343 0.77059 0.26038 0.0
H473 H 0.62294 0.75374 0.21738 0.0
H474 H 0.71834 0.80601 0.21782 0.0
H475 H 0.71844 0.82275 0.26076 0.0
H476 H 0.61054 0.81497 0.28776 0.0
H477 H 0.59251 0.8341 0.25367 0.0
H478 H 0.6802 0.88456 0.2229 0.0
H479 H 0.69825 0.86569 0.25777 0.0
H480 H 0.61809 0.82833 0.34341 0.0
H481 H 0.60963 0.86621 0.35333 0.0
H482 H 0.69453 0.92981 0.32223 0.0
H483 H 0.70283 0.89171 0.31265 0.0
H484 H 0.62875 0.78743 0.37741 0.0
H485 H 0.62085 0.80444 0.41721 0.0
H486 H 0.70306 0.88565 0.40676 0.0
H487 H 0.71108 0.86837 0.36726 0.0
H488 H 0.63614 0.74026 0.34749 0.0
H489 H 0.636 0.71141 0.38418 0.0
H490 H 0.7157 0.78568 0.41455 0.0
H491 H 0.71728 0.81356 0.37598 0.0
O492 O 0.64457 0.74767 0.17708 0.0
O493 O 0.69359 0.77532 0.17808 0.0
O494 O 0.62278 0.91817 0.35274 0.0
O495 O 0.66793 0.95198 0.34045 0.0
C496 C 0.67567 0.79012 0.31114 0.0
C497 C 0.67134 0.80553 0.29074 0.0
C498 C 0.66586 0.82695 0.29618 0.0
C499 C 0.66658 0.83438 0.32196 0.0
C500 C 0.6715 0.81945 0.34245 0.0
C501 C 0.67537 0.79675 0.33711 0.0
C502 C 0.67889 0.76618 0.30433 0.0
C503 C 0.65358 0.74013 0.29692 0.0
C504 C 0.65594 0.72127 0.28176 0.0
C505 C 0.68366 0.72839 0.27345 0.0
C506 C 0.70917 0.75326 0.28281 0.0
C507 C 0.7068 0.77195 0.29834 0.0
C508 C 0.67096 0.79788 0.26358 0.0
C509 C 0.64414 0.77868 0.25095 0.0
C510 C 0.64396 0.76898 0.22648 0.0
C511 C 0.67061 0.77839 0.21422 0.0
C512 C 0.69742 0.79828 0.22672 0.0
C513 C 0.69756 0.80797 0.25118 0.0
C514 C 0.65567 0.83902 0.27522 0.0
C515 C 0.62587 0.83023 0.2737 0.0
C516 C 0.61558 0.841 0.25408 0.0
C517 C 0.63488 0.86067 0.23545 0.0
C518 C 0.66485 0.86957 0.23707 0.0
C519 C 0.67516 0.85874 0.25682 0.0
C520 C 0.66114 0.85733 0.32747 0.0
C521 C 0.63486 0.85046 0.33885 0.0
C522 C 0.63006 0.87213 0.34441 0.0
C523 C 0.65143 0.90105 0.33858 0.0
C524 C 0.67766 0.90778 0.32702 0.0
C525 C 0.68243 0.88608 0.32146 0.0
C526 C 0.6704 0.82675 0.3694 0.0
C527 C 0.64559 0.80847 0.38426 0.0
C528 C 0.64107 0.81822 0.40692 0.0
C529 C 0.66118 0.84646 0.41479 0.0
C530 C 0.68711 0.86389 0.40092 0.0
C531 C 0.69178 0.85402 0.37849 0.0
C532 C 0.677 0.77892 0.35868 0.0
C533 C 0.65422 0.75004 0.3615 0.0
C534 C 0.6538 0.73374 0.383 0.0
C535 C 0.67554 0.74622 0.40282 0.0
C536 C 0.69872 0.77512 0.39968 0.0
C537 C 0.69957 0.79121 0.3777 0.0
C538 C 0.67041 0.76716 0.1887 0.0
C539 C 0.64641 0.92415 0.3444 0.0
H540 H 0.78205 0.61311 0.677 0.0
H541 H 0.00036 0.55051 0.84186 0.0
H542 H 0.8347 0.64219 0.81956 0.0
H543 H 0.79762 0.64779 0.79591 0.0
H544 H 0.74236 0.55572 0.78829 0.0
H545 H 0.77891 0.55041 0.81301 0.0
H546 H 0.85653 0.63588 0.76993 0.0
H547 H 0.83069 0.63513 0.72956 0.0
H548 H 0.78393 0.54243 0.73057 0.0
H549 H 0.80989 0.54352 0.77103 0.0
H550 H 0.91096 0.62249 0.7655 0.0
H551 H 0.93439 0.60954 0.7337 0.0
H552 H 0.8803 0.52069 0.75849 0.0
H553 H 0.85676 0.53359 0.7897 0.0
H554 H 0.94272 0.63113 0.82199 0.0
H555 H 0.98612 0.62733 0.82663 0.0
H556 H 0.92914 0.53601 0.84172 0.0
H557 H 0.886 0.54019 0.83716 0.0
H558 H 0.91824 0.64067 0.87022 0.0
H559 H 0.95397 0.64311 0.90261 0.0
H560 H 0.89904 0.55122 0.91512 0.0
H561 H 0.86375 0.54902 0.88223 0.0
H562 H 0.84915 0.63871 0.86809 0.0
H563 H 0.82196 0.63654 0.9058 0.0
H564 H 0.78641 0.54549 0.91447 0.0
H565 H 0.81297 0.54782 0.87647 0.0
O566 O 0.79298 0.61297 0.69231 0.0
O567 O 0.76998 0.56537 0.69339 0.0
O568 O 0.01213 0.60025 0.83656 0.0
O569 O 0.98363 0.55267 0.84009 0.0
C570 C 0.83575 0.5936 0.82149 0.0
C571 C 0.84802 0.59023 0.79934 0.0
C572 C 0.87202 0.58668 0.80209 0.0
C573 C 0.88515 0.58844 0.82663 0.0
C574 C 0.87334 0.59229 0.84872 0.0
C575 C 0.84805 0.59403 0.84628 0.0
C576 C 0.80956 0.59592 0.81783 0.0
C577 C 0.81381 0.62317 0.81413 0.0
C578 C 0.7928 0.62632 0.80018 0.0
C579 C 0.76743 0.60227 0.78947 0.0
C580 C 0.76156 0.57474 0.7962 0.0
C581 C 0.78243 0.5716 0.81045 0.0
C582 C 0.83508 0.58977 0.77331 0.0
C583 C 0.841 0.61547 0.76118 0.0
C584 C 0.8261 0.61496 0.7382 0.0
C585 C 0.80508 0.58871 0.72692 0.0
C586 C 0.79992 0.56301 0.73878 0.0
C587 C 0.81484 0.56357 0.76177 0.0
C588 C 0.8823 0.57892 0.77981 0.0
C589 C 0.90365 0.60017 0.76345 0.0
C590 C 0.91696 0.59279 0.74542 0.0
C591 C 0.90919 0.56421 0.74397 0.0
C592 C 0.88668 0.54288 0.75944 0.0
C593 C 0.87321 0.55017 0.77713 0.0
C594 C 0.91134 0.58594 0.82924 0.0
C595 C 0.93972 0.61035 0.82628 0.0
C596 C 0.96443 0.60811 0.82898 0.0
C597 C 0.96108 0.58134 0.83451 0.0
C598 C 0.9325 0.55692 0.83739 0.0
C599 C 0.90784 0.55923 0.83481 0.0
C600 C 0.88835 0.59471 0.87403 0.0
C601 C 0.9133 0.62127 0.88081 0.0
C602 C 0.93379 0.62258 0.89923 0.0
C603 C 0.9296 0.59728 0.91112 0.0
C604 C 0.90315 0.57102 0.90596 0.0
C605 C 0.8827 0.56975 0.88752 0.0
C606 C 0.83289 0.59341 0.86959 0.0
C607 C 0.83547 0.61836 0.8782 0.0
C608 C 0.82009 0.61709 0.8998 0.0
C609 C 0.80192 0.5908 0.91306 0.0
C610 C 0.79983 0.56597 0.90447 0.0
C611 C 0.81515 0.56728 0.88292 0.0
C612 C 0.78829 0.58819 0.70317 0.0
C613 C 0.98721 0.57879 0.83714 0.0
H614 H 0.29649 0.8037 0.49152 0.0
H615 H 0.14484 0.62857 0.23003 0.0
H616 H 0.30307 0.85232 0.34471 0.0
H617 H 0.33949 0.89102 0.37212 0.0
H618 H 0.3923 0.85306 0.37535 0.0
H619 H 0.3542 0.81318 0.3501 0.0
H620 H 0.26952 0.81024 0.38182 0.0
H621 H 0.27777 0.81277 0.42869 0.0
H622 H 0.30996 0.7561 0.42519 0.0
H623 H 0.30185 0.75401 0.37826 0.0
H624 H 0.21924 0.75064 0.37373 0.0
H625 H 0.19039 0.70957 0.40293 0.0
H626 H 0.21953 0.66193 0.36365 0.0
H627 H 0.25005 0.70385 0.3361 0.0
H628 H 0.19488 0.7365 0.31141 0.0
H629 H 0.15347 0.69626 0.2884 0.0
H630 H 0.21378 0.67733 0.25603 0.0
H631 H 0.25482 0.71722 0.27949 0.0
H632 H 0.23107 0.78046 0.2655 0.0
H633 H 0.21739 0.76736 0.22011 0.0
H634 H 0.29358 0.76132 0.21331 0.0
H635 H 0.30669 0.77336 0.25895 0.0
H636 H 0.29861 0.84204 0.27065 0.0
H637 H 0.33683 0.87302 0.23961 0.0
H638 H 0.39248 0.8447 0.27318 0.0
H639 H 0.3536 0.81264 0.30266 0.0
O640 O 0.29334 0.80235 0.47298 0.0
O641 O 0.30951 0.773 0.47017 0.0
O642 O 0.13042 0.65441 0.25731 0.0
O643 O 0.16063 0.64408 0.23994 0.0
C644 C 0.30158 0.80439 0.33269 0.0
C645 C 0.28076 0.78105 0.34823 0.0
C646 C 0.25688 0.75627 0.33664 0.0
C647 C 0.2532 0.75557 0.30947 0.0
C648 C 0.27401 0.77911 0.29396 0.0
C649 C 0.29888 0.8031 0.30551 0.0
C650 C 0.32619 0.83017 0.3453 0.0
C651 C 0.32276 0.8527 0.35114 0.0
C652 C 0.34375 0.87489 0.36674 0.0
C653 C 0.36894 0.87526 0.3763 0.0
C654 C 0.3729 0.85325 0.3691 0.0
C655 C 0.35145 0.83066 0.35418 0.0
C656 C 0.28516 0.782 0.37672 0.0
C657 C 0.27842 0.79846 0.39123 0.0
C658 C 0.28311 0.79982 0.41799 0.0
C659 C 0.29456 0.78465 0.43069 0.0
C660 C 0.30114 0.76805 0.41602 0.0
C661 C 0.29649 0.76677 0.38925 0.0
C662 C 0.23698 0.73041 0.35286 0.0
C663 C 0.21946 0.73134 0.37156 0.0
C664 C 0.20268 0.70764 0.38806 0.0
C665 C 0.20266 0.68228 0.38591 0.0
C666 C 0.21944 0.68119 0.36643 0.0
C667 C 0.23662 0.70505 0.35033 0.0
C668 C 0.22785 0.72986 0.29701 0.0
C669 C 0.19903 0.72342 0.29957 0.0
C670 C 0.17546 0.70052 0.28631 0.0
C671 C 0.18035 0.68367 0.27025 0.0
C672 C 0.20923 0.68989 0.26816 0.0
C673 C 0.23272 0.71268 0.28152 0.0
C674 C 0.26981 0.77776 0.26548 0.0
C675 C 0.24526 0.77709 0.25402 0.0
C676 C 0.23752 0.76973 0.22822 0.0
C677 C 0.25467 0.76366 0.21351 0.0
C678 C 0.28041 0.76638 0.22439 0.0
C679 C 0.28789 0.77328 0.25033 0.0
C680 C 0.32336 0.82522 0.28917 0.0
C681 C 0.31923 0.84284 0.27143 0.0
C682 C 0.34118 0.86063 0.25377 0.0
C683 C 0.36775 0.86122 0.25364 0.0
C684 C 0.37216 0.84443 0.27226 0.0
C685 C 0.35013 0.82645 0.28956 0.0
C686 C 0.29962 0.78623 0.45912 0.0
C687 C 0.15556 0.65985 0.25552 0.0
H688 H 0.55568 0.33137 0.63806 0.0
H689 H 0.48473 0.07459 0.82296 0.0
H690 H 0.558 0.32346 0.78353 0.0
H691 H 0.56354 0.36703 0.7636 0.0
H692 H 0.46877 0.3236 0.75451 0.0
H693 H 0.46342 0.28009 0.77499 0.0
H694 H 0.56139 0.28745 0.74158 0.0
H695 H 0.56788 0.30879 0.69803 0.0
H696 H 0.47368 0.27158 0.69038 0.0
H697 H 0.46755 0.25025 0.73387 0.0
H698 H 0.56198 0.2341 0.76828 0.0
H699 H 0.57522 0.21457 0.73377 0.0
H700 H 0.48818 0.17907 0.69889 0.0
H701 H 0.47503 0.19856 0.73376 0.0
H702 H 0.5482 0.21651 0.82837 0.0
H703 H 0.54836 0.17325 0.84041 0.0
H704 H 0.46686 0.12221 0.79651 0.0
H705 H 0.46674 0.16561 0.78493 0.0
H706 H 0.54046 0.25943 0.86075 0.0
H707 H 0.53623 0.23839 0.90421 0.0
H708 H 0.45358 0.16274 0.88134 0.0
H709 H 0.45711 0.18443 0.83823 0.0
H710 H 0.54852 0.31149 0.83214 0.0
H711 H 0.5479 0.33672 0.86931 0.0
H712 H 0.45578 0.27154 0.8797 0.0
H713 H 0.45663 0.24641 0.84225 0.0
O714 O 0.55258 0.32223 0.65498 0.0
O715 O 0.50393 0.30187 0.65174 0.0
O716 O 0.527 0.11924 0.84093 0.0
O717 O 0.48534 0.09207 0.81831 0.0
C718 C 0.50769 0.2712 0.78758 0.0
C719 C 0.51032 0.25605 0.76777 0.0
C720 C 0.51055 0.23103 0.77378 0.0
C721 C 0.50671 0.22032 0.7995 0.0
C722 C 0.50298 0.23493 0.81928 0.0
C723 C 0.50406 0.26075 0.81335 0.0
C724 C 0.51032 0.29882 0.78094 0.0
C725 C 0.53842 0.32372 0.77814 0.0
C726 C 0.54153 0.34852 0.7667 0.0
C727 C 0.51657 0.3486 0.75749 0.0
C728 C 0.48834 0.32401 0.76142 0.0
C729 C 0.48524 0.29931 0.77325 0.0
C730 C 0.51402 0.26728 0.74075 0.0
C731 C 0.54219 0.28371 0.73032 0.0
C732 C 0.54582 0.29596 0.70551 0.0
C733 C 0.5213 0.29197 0.69074 0.0
C734 C 0.49303 0.2751 0.70122 0.0
C735 C 0.48944 0.26285 0.726 0.0
C736 C 0.51757 0.21768 0.75349 0.0
C737 C 0.54572 0.22192 0.75328 0.0
C738 C 0.5533 0.21096 0.73347 0.0
C739 C 0.53279 0.19547 0.71354 0.0
C740 C 0.50436 0.19078 0.71407 0.0
C741 C 0.49685 0.20193 0.73387 0.0
C742 C 0.50741 0.19417 0.80585 0.0
C743 C 0.5304 0.19596 0.82139 0.0
C744 C 0.53045 0.17122 0.82821 0.0
C745 C 0.50757 0.14424 0.81947 0.0
C746 C 0.48478 0.14262 0.8036 0.0
C747 C 0.48471 0.16738 0.79687 0.0
C748 C 0.49903 0.22352 0.84632 0.0
C749 C 0.52098 0.23872 0.86533 0.0
C750 C 0.5186 0.2267 0.89008 0.0
C751 C 0.49458 0.19904 0.89597 0.0
C752 C 0.47227 0.18413 0.87717 0.0
C753 C 0.47431 0.19644 0.85262 0.0
C754 C 0.50254 0.27732 0.8343 0.0
C755 C 0.52801 0.30305 0.84202 0.0
C756 C 0.52762 0.31739 0.86332 0.0
C757 C 0.50177 0.30614 0.87744 0.0
C758 C 0.47609 0.28061 0.86934 0.0
C759 C 0.47646 0.26635 0.8479 0.0
C760 C 0.52528 0.30557 0.66464 0.0
C761 C 0.50734 0.11785 0.82692 0.0
H762 H 0.20569 0.54777 0.09427 0.0
H763 H 0.18128 0.48455 0.03598 0.0
H764 H 0.20648 0.46447 0.0618 0.0
H765 H 0.27848 0.55829 0.11344 0.0
H766 H 0.2737 0.56157 0.14701 0.0
H767 H 0.25731 0.57309 0.12226 0.0
H768 H 0.20604 0.53972 0.14247 0.0
H769 H 0.22215 0.52793 0.16713 0.0
H770 H 0.19196 0.50199 0.14707 0.0
H771 H 0.22864 0.4477 0.09671 0.0
H772 H 0.24793 0.43686 0.13699 0.0
H773 H 0.25823 0.51162 0.17202 0.0
C774 C 0.20654 0.53027 0.0867 0.0
C775 C 0.1921 0.51781 0.06315 0.0
C776 C 0.19273 0.49448 0.0539 0.0
C777 C 0.20689 0.48298 0.06844 0.0
C778 C 0.22037 0.49527 0.09203 0.0
C779 C 0.22055 0.5186 0.10097 0.0
C780 C 0.23449 0.52644 0.12776 0.0
C781 C 0.26267 0.55664 0.1276 0.0
C782 C 0.21234 0.52385 0.14725 0.0
C783 C 0.24157 0.50355 0.13277 0.0
C784 C 0.23337 0.48581 0.11194 0.0
C785 C 0.23568 0.46179 0.11294 0.0
C786 C 0.24652 0.45572 0.13586 0.0
C787 C 0.25501 0.47369 0.15736 0.0
C788 C 0.25273 0.49802 0.15559 0.0
H789 H 0.68995 0.06586 0.61656 0.0
H790 H 0.6183 0.07911 0.62506 0.0
H791 H 0.64717 0.11429 0.6593 0.0
H792 H 0.71141 0.07063 0.68405 0.0
H793 H 0.75029 0.0892 0.67786 0.0
H794 H 0.7237 0.06502 0.6544 0.0
H795 H 0.74618 0.10582 0.61948 0.0
H796 H 0.7727 0.1302 0.64288 0.0
H797 H 0.74893 0.13915 0.62513 0.0
H798 H 0.684 0.14792 0.69221 0.0
H799 H 0.72515 0.17614 0.72315 0.0
H800 H 0.77337 0.14173 0.69217 0.0
C801 C 0.68045 0.07613 0.62586 0.0
C802 C 0.65214 0.07006 0.61855 0.0
C803 C 0.64005 0.08368 0.63077 0.0
C804 C 0.65629 0.10366 0.65004 0.0
C805 C 0.68445 0.10959 0.65667 0.0
C806 C 0.69638 0.09614 0.64506 0.0
C807 C 0.72705 0.10629 0.65573 0.0
C808 C 0.72816 0.0813 0.66879 0.0
C809 C 0.75007 0.12126 0.63454 0.0
C810 C 0.73047 0.12744 0.67529 0.0
C811 C 0.70573 0.12914 0.67545 0.0
C812 C 0.70357 0.14691 0.69217 0.0
C813 C 0.72717 0.16305 0.70951 0.0
C814 C 0.75255 0.16127 0.70995 0.0
C815 C 0.75423 0.14345 0.69236 0.0
H816 H 0.62569 0.59096 0.18804 0.0
H817 H 0.67438 0.64956 0.12483 0.0
H818 H 0.69618 0.69037 0.15448 0.0
H819 H 0.60714 0.63619 0.21605 0.0
H820 H 0.61011 0.62571 0.24892 0.0
H821 H 0.6007 0.60106 0.2233 0.0
H822 H 0.64486 0.59622 0.23721 0.0
H823 H 0.6545 0.62102 0.26282 0.0
H824 H 0.68146 0.628 0.23934 0.0
H825 H 0.7109 0.72478 0.19048 0.0
H826 H 0.71438 0.75087 0.22924 0.0
H827 H 0.65496 0.66996 0.26878 0.0
C828 C 0.64132 0.61236 0.1806 0.0
C829 C 0.64865 0.61723 0.15428 0.0
C830 C 0.66857 0.64552 0.14498 0.0
C831 C 0.68116 0.66873 0.16169 0.0
C832 C 0.67342 0.66324 0.18756 0.0
C833 C 0.65377 0.63579 0.19693 0.0
C834 C 0.64734 0.63595 0.22503 0.0
C835 C 0.61437 0.62403 0.22852 0.0
C836 C 0.65766 0.61931 0.2421 0.0
C837 C 0.66616 0.66782 0.22993 0.0
C838 C 0.68139 0.68314 0.20819 0.0
C839 C 0.69938 0.71299 0.20772 0.0
C840 C 0.7014 0.72761 0.22989 0.0
C841 C 0.68525 0.71238 0.2521 0.0
C842 C 0.66777 0.68209 0.25216 0.0
H843 H 0.96613 0.53584 0.61593 0.0
H844 H 0.00133 0.49553 0.66618 0.0
H845 H 0.98657 0.5094 0.70425 0.0
H846 H 0.98742 0.59636 0.65843 0.0
H847 H 0.95424 0.59618 0.65082 0.0
H848 H 0.96936 0.58489 0.62722 0.0
H849 H 0.91933 0.53632 0.62352 0.0
H850 H 0.9041 0.54741 0.64711 0.0
H851 H 0.90328 0.51449 0.65222 0.0
H852 H 0.9652 0.52392 0.73648 0.0
H853 H 0.93858 0.53945 0.76174 0.0
H854 H 0.91792 0.57182 0.69163 0.0
C855 C 0.97109 0.53037 0.63498 0.0
C856 C 0.98459 0.51437 0.63813 0.0
C857 C 0.99052 0.50733 0.66333 0.0
C858 C 0.98246 0.51531 0.68508 0.0
C859 C 0.9687 0.53056 0.68136 0.0
C860 C 0.96315 0.53821 0.65703 0.0
C861 C 0.94684 0.55354 0.65866 0.0
C862 C 0.96559 0.58459 0.64816 0.0
C863 C 0.9166 0.53694 0.64454 0.0
C864 C 0.94357 0.55267 0.68764 0.0
C865 C 0.95655 0.53943 0.70028 0.0
C866 C 0.95523 0.53461 0.72689 0.0
C867 C 0.93999 0.54335 0.74103 0.0
C868 C 0.92638 0.55677 0.72852 0.0
C869 C 0.92851 0.56188 0.70156 0.0
H870 H 0.46401 0.99193 0.15391 0.0
H871 H 0.50444 0.9462 0.13194 0.0
H872 H 0.47417 0.90724 0.16361 0.0
H873 H 0.46018 0.97344 0.22274 0.0
H874 H 0.42516 0.97 0.22616 0.0
H875 H 0.4503 0.99429 0.20203 0.0
H876 H 0.40935 0.96886 0.1667 0.0
H877 H 0.38416 0.94434 0.19067 0.0
H878 H 0.39149 0.93068 0.16303 0.0
H879 H 0.43851 0.87283 0.19641 0.0
H880 H 0.40094 0.84549 0.22915 0.0
H881 H 0.38504 0.91462 0.23177 0.0
C882 C 0.46681 0.97393 0.15621 0.0
C883 C 0.48686 0.97212 0.14098 0.0
C884 C 0.48936 0.94793 0.14374 0.0
C885 C 0.47228 0.92578 0.16162 0.0
C886 C 0.45279 0.92821 0.1765 0.0
C887 C 0.45005 0.95172 0.17411 0.0
C888 C 0.42728 0.94887 0.19234 0.0
C889 C 0.44159 0.97309 0.21198 0.0
C890 C 0.40154 0.94814 0.17728 0.0
C891 C 0.41751 0.92002 0.20526 0.0
C892 C 0.43249 0.9085 0.19576 0.0
C893 C 0.42691 0.8818 0.20424 0.0
C894 C 0.40563 0.86652 0.22305 0.0
C895 C 0.39019 0.87797 0.23349 0.0
C896 C 0.39627 0.90512 0.22425 0.0
H897 H 0.50496 0.42366 0.62689 0.0
H898 H 0.569 0.50556 0.66032 0.0
H899 H 0.56796 0.48085 0.70182 0.0
H900 H 0.46203 0.38994 0.68456 0.0
H901 H 0.45577 0.35523 0.67826 0.0
H902 H 0.46055 0.37955 0.6518 0.0
H903 H 0.50354 0.37642 0.63516 0.0
H904 H 0.49868 0.35195 0.66145 0.0
H905 H 0.53422 0.38441 0.6567 0.0
H906 H 0.56203 0.44676 0.73853 0.0
H907 H 0.55169 0.40588 0.76786 0.0
H908 H 0.49116 0.34643 0.71027 0.0
C909 C 0.51866 0.43624 0.64305 0.0
C910 C 0.53726 0.46631 0.64068 0.0
C911 C 0.55473 0.4824 0.66204 0.0
C912 C 0.55422 0.46858 0.68557 0.0
C913 C 0.53587 0.43875 0.6873 0.0
C914 C 0.51837 0.42278 0.66662 0.0
C915 C 0.50142 0.39096 0.67319 0.0
C916 C 0.46796 0.37818 0.67188 0.0
C917 C 0.50999 0.37501 0.65558 0.0
C918 C 0.51232 0.39147 0.70071 0.0
C919 C 0.53212 0.41922 0.70854 0.0
C920 C 0.5463 0.42496 0.73273 0.0
C921 C 0.54036 0.40168 0.74922 0.0
C922 C 0.52033 0.37312 0.74142 0.0
C923 C 0.50594 0.36808 0.71698 0.0
H924 H 0.62691 0.95706 0.46969 0.0
H925 H 0.59887 0.90533 0.54054 0.0
H926 H 0.61126 0.87248 0.52267 0.0
H927 H 0.60056 0.89997 0.42629 0.0
H928 H 0.63153 0.91931 0.4053 0.0
H929 H 0.62032 0.93861 0.42365 0.0
H930 H 0.67316 0.96892 0.44367 0.0
H931 H 0.68449 0.94973 0.42525 0.0
H932 H 0.68957 0.95103 0.45988 0.0
H933 H 0.62542 0.84431 0.49609 0.0
H934 H 0.64128 0.82418 0.46337 0.0
H935 H 0.66219 0.89616 0.41154 0.0
C936 C 0.62374 0.9391 0.48169 0.0
C937 C 0.61186 0.93386 0.50656 0.0
C938 C 0.60751 0.90964 0.52128 0.0
C939 C 0.6147 0.89096 0.51138 0.0
C940 C 0.62643 0.89688 0.48682 0.0
C941 C 0.63104 0.92047 0.47225 0.0
C942 C 0.64379 0.9221 0.44639 0.0
C943 C 0.62278 0.91985 0.4241 0.0
C944 C 0.67459 0.94957 0.44366 0.0
C945 C 0.64554 0.89567 0.44858 0.0
C946 C 0.63534 0.88128 0.47197 0.0
C947 C 0.63375 0.85557 0.47782 0.0
C948 C 0.64273 0.84429 0.45919 0.0
C949 C 0.6534 0.85891 0.43522 0.0
C950 C 0.65486 0.88494 0.43 0.0
H951 H 0.6602 0.52165 0.00106 0.0
H952 H 0.71049 0.59285 0.05241 0.0
H953 H 0.754 0.61271 0.02453 0.0
H954 H 0.72024 0.51299 0.986 0.0
H955 H 0.70816 0.50426 0.95282 0.0
H956 H 0.6816 0.49566 0.97721 0.0
H957 H 0.66304 0.52437 0.9511 0.0
H958 H 0.68957 0.53313 0.92666 0.0
H959 H 0.68897 0.56138 0.94214 0.0
H960 H 0.79134 0.62503 0.9902 0.0
H961 H 0.82016 0.62845 0.95283 0.0
H962 H 0.7447 0.54911 0.92393 0.0
C963 C 0.68053 0.54129 0.0064 0.0
C964 C 0.68244 0.55584 0.02871 0.0
C965 C 0.70903 0.58154 0.03532 0.0
C966 C 0.73368 0.59289 0.01963 0.0
C967 C 0.73115 0.57814 0.99753 0.0
C968 C 0.70527 0.55283 0.99099 0.0
C969 C 0.70812 0.54131 0.96614 0.0
C970 C 0.70431 0.51181 0.97083 0.0
C971 C 0.68612 0.53998 0.94528 0.0
C972 C 0.73959 0.56414 0.9596 0.0
C973 C 0.75253 0.58521 0.9779 0.0
C974 C 0.78144 0.60864 0.97577 0.0
C975 C 0.79756 0.61049 0.9544 0.0
C976 C 0.78474 0.58902 0.9355 0.0
C977 C 0.75532 0.56565 0.93823 0.0
H978 H 0.07544 0.57906 0.48503 0.0
H979 H 0.12112 0.53464 0.49996 0.0
H980 H 0.15829 0.56623 0.46769 0.0
H981 H 0.08766 0.58964 0.41512 0.0
H982 H 0.09236 0.62452 0.41444 0.0
H983 H 0.06896 0.59767 0.438 0.0
H984 H 0.09924 0.63305 0.47464 0.0
H985 H 0.12291 0.6599 0.45124 0.0
H986 H 0.13859 0.64884 0.47707 0.0
H987 H 0.19185 0.6045 0.43597 0.0
H988 H 0.21874 0.64534 0.4056 0.0
H989 H 0.14929 0.66308 0.4088 0.0
C990 C 0.09285 0.57557 0.48094 0.0
C991 C 0.0952 0.55405 0.49439 0.0
C992 C 0.11889 0.5508 0.48945 0.0
C993 C 0.14004 0.56864 0.47124 0.0
C994 C 0.1371 0.58964 0.45817 0.0
C995 C 0.114 0.59306 0.46262 0.0
C996 C 0.1163 0.61763 0.44627 0.0
C997 C 0.08974 0.60671 0.42733 0.0
C998 C 0.11945 0.64125 0.46333 0.0
C999 C 0.14453 0.62774 0.43221 0.0
C1000 C 0.15616 0.61132 0.43941 0.0
C1001 C 0.18269 0.61721 0.42984 0.0
C1002 C 0.19771 0.64041 0.41238 0.0
C1003 C 0.1861 0.65744 0.40433 0.0
C1004 C 0.15902 0.65078 0.4145 0.0
H1005 H 0.51208 0.0874 0.9831 0.0
H1006 H 0.51936 0.13511 0.05006 0.0
H1007 H 0.50775 0.16587 0.02235 0.0
H1008 H 0.54583 0.14481 0.93956 0.0
H1009 H 0.5219 0.12609 0.91235 0.0
H1010 H 0.52784 0.1064 0.93784 0.0
H1011 H 0.47142 0.074 0.94443 0.0
H1012 H 0.46529 0.09354 0.91881 0.0
H1013 H 0.45078 0.09024 0.95032 0.0
H1014 H 0.50206 0.19515 0.98606 0.0
H1015 H 0.49846 0.2179 0.94483 0.0
H1016 H 0.49193 0.14878 0.90251 0.0
C1017 C 0.51062 0.10399 0.99192 0.0
C1018 C 0.51649 0.10906 0.01855 0.0
C1019 C 0.51462 0.13092 0.02964 0.0
C1020 C 0.50813 0.14844 0.01406 0.0
C1021 C 0.50305 0.1433 0.98765 0.0
C1022 C 0.50371 0.12124 0.97678 0.0
C1023 C 0.49858 0.12073 0.94784 0.0
C1024 C 0.52512 0.12476 0.93357 0.0
C1025 C 0.4698 0.09298 0.93989 0.0
C1026 C 0.4959 0.14652 0.94392 0.0
C1027 C 0.49853 0.15932 0.96706 0.0
C1028 C 0.49928 0.18493 0.96791 0.0
C1029 C 0.49733 0.19773 0.9445 0.0
C1030 C 0.49436 0.18469 0.92075 0.0
C1031 C 0.49334 0.15868 0.92055 0.0
H1032 H 0.44309 0.47283 0.48699 0.0
H1033 H 0.52645 0.50071 0.45213 0.0
H1034 H 0.50115 0.48514 0.40956 0.0
H1035 H 0.39552 0.41021 0.44476 0.0
H1036 H 0.36608 0.41684 0.44322 0.0
H1037 H 0.38987 0.42622 0.4716 0.0
H1038 H 0.40237 0.47851 0.46708 0.0
H1039 H 0.37872 0.46926 0.43874 0.0
H1040 H 0.41682 0.49833 0.43716 0.0
H1041 H 0.46836 0.47176 0.37037 0.0
H1042 H 0.42995 0.46243 0.33687 0.0
H1043 H 0.36779 0.44362 0.39655 0.0
C1044 C 0.45575 0.47489 0.47045 0.0
C1045 C 0.4866 0.4877 0.47272 0.0
C1046 C 0.50275 0.49086 0.45065 0.0
C1047 C 0.48857 0.48196 0.42648 0.0
C1048 C 0.45821 0.46994 0.42468 0.0
C1049 C 0.44192 0.46635 0.44605 0.0
C1050 C 0.41008 0.45542 0.43835 0.0
C1051 C 0.38915 0.42538 0.45019 0.0
C1052 C 0.40152 0.47665 0.44577 0.0
C1053 C 0.4113 0.45428 0.40931 0.0
C1054 C 0.43917 0.46231 0.40188 0.0
C1055 C 0.44629 0.46487 0.37594 0.0
C1056 C 0.42446 0.45953 0.35709 0.0
C1057 C 0.39606 0.45177 0.36438 0.0
C1058 C 0.38926 0.44877 0.39072 0.0
H1059 H 0.06302 0.46074 0.91597 0.0
H1060 H 0.07996 0.41297 0.9752 0.0
H1061 H 0.05447 0.37004 0.94803 0.0
H1062 H 0.99164 0.40612 0.90113 0.0
H1063 H 0.99312 0.41433 0.86698 0.0
H1064 H 0.01653 0.44224 0.88919 0.0
H1065 H 0.06255 0.45377 0.86423 0.0
H1066 H 0.03919 0.42577 0.84191 0.0
H1067 H 0.06908 0.42559 0.85904 0.0
H1068 H 0.0229 0.33138 0.91675 0.0
H1069 H 0.98489 0.29902 0.88521 0.0
H1070 H 0.98848 0.37198 0.8462 0.0
C1071 C 0.06206 0.44145 0.92286 0.0
C1072 C 0.07364 0.44012 0.9475 0.0
C1073 C 0.07119 0.41431 0.95632 0.0
C1074 C 0.057 0.38996 0.94096 0.0
C1075 C 0.04544 0.39185 0.91686 0.0
C1076 C 0.04777 0.41693 0.90788 0.0
C1077 C 0.03075 0.41251 0.88262 0.0
C1078 C 0.00658 0.41918 0.88515 0.0
C1079 C 0.05165 0.43048 0.86065 0.0
C1080 C 0.01764 0.38079 0.87922 0.0
C1081 C 0.02686 0.36939 0.8989 0.0
C1082 C 0.01599 0.34013 0.90095 0.0
C1083 C 0.99454 0.32194 0.88283 0.0
C1084 C 0.98402 0.33306 0.86308 0.0
C1085 C 0.99634 0.36295 0.86095 0.0
H1086 H 0.03861 0.54482 0.95248 0.0
H1087 H 0.08552 0.61794 0.00221 0.0
H1088 H 0.05138 0.63353 0.98787 0.0
H1089 H 0.02182 0.58068 0.89928 0.0
H1090 H 0.986 0.54899 0.89302 0.0
H1091 H 0.01568 0.54556 0.90598 0.0
H1092 H 0.98239 0.51451 0.94397 0.0
H1093 H 0.95311 0.51871 0.93126 0.0
H1094 H 0.96699 0.52899 0.96384 0.0
H1095 H 0.0104 0.63948 0.96943 0.0
H1096 H 0.96735 0.63675 0.94691 0.0
H1097 H 0.94782 0.5597 0.90905 0.0
C1098 C 0.04189 0.56439 0.95987 0.0
C1099 C 0.06463 0.5805 0.97813 0.0
C1100 C 0.06826 0.60568 0.98794 0.0
C1101 C 0.04896 0.61454 0.98 0.0
C1102 C 0.02628 0.5979 0.96226 0.0
C1103 C 0.02284 0.57349 0.95214 0.0
C1104 C 0.99626 0.55896 0.93393 0.0
C1105 C 0.00553 0.55856 0.90642 0.0
C1106 C 0.97334 0.52849 0.94385 0.0
C1107 C 0.98513 0.57886 0.93546 0.0
C1108 C 0.00269 0.60119 0.95188 0.0
C1109 C 0.99659 0.62216 0.95642 0.0
C1110 C 0.97213 0.62046 0.94354 0.0
C1111 C 0.95406 0.59791 0.92637 0.0
C1112 C 0.96075 0.57686 0.92246 0.0
H1113 H 0.4893 0.93809 0.49126 0.0
H1114 H 0.49212 0.01787 0.48187 0.0
H1115 H 0.4538 0.99665 0.44689 0.0
H1116 H 0.47899 0.91921 0.42629 0.0
H1117 H 0.45326 0.88137 0.43216 0.0
H1118 H 0.48031 0.90265 0.45667 0.0
H1119 H 0.4389 0.88664 0.48947 0.0
H1120 H 0.41172 0.86494 0.46516 0.0
H1121 H 0.40893 0.89161 0.48125 0.0
H1122 H 0.41868 0.96771 0.41029 0.0
H1123 H 0.38513 0.9319 0.3785 0.0
H1124 H 0.40116 0.86936 0.4162 0.0
C1125 C 0.48146 0.95087 0.48206 0.0
C1126 C 0.49362 0.97958 0.48892 0.0
C1127 C 0.48303 0.99584 0.47659 0.0
C1128 C 0.46137 0.98399 0.45679 0.0
C1129 C 0.45015 0.95569 0.45013 0.0
C1130 C 0.45938 0.93916 0.46281 0.0
C1131 C 0.44348 0.90918 0.45241 0.0
C1132 C 0.46532 0.90275 0.44122 0.0
C1133 C 0.42463 0.88677 0.47332 0.0
C1134 C 0.42443 0.91161 0.43139 0.0
C1135 C 0.42871 0.93862 0.43021 0.0
C1136 C 0.41466 0.94628 0.41138 0.0
C1137 C 0.39547 0.92566 0.39347 0.0
C1138 C 0.39013 0.89752 0.39473 0.0
C1139 C 0.40488 0.89063 0.41416 0.0
H1140 H 0.55497 0.43867 0.96871 0.0
H1141 H 0.51279 0.3771 0.03186 0.0
H1142 H 0.49395 0.3373 0.00147 0.0
H1143 H 0.49785 0.39872 0.91936 0.0
H1144 H 0.52416 0.40905 0.8943 0.0
H1145 H 0.53272 0.43258 0.92077 0.0
H1146 H 0.58073 0.43316 0.93099 0.0
H1147 H 0.57231 0.40963 0.90461 0.0
H1148 H 0.57864 0.39967 0.93668 0.0
H1149 H 0.4813 0.3043 0.96443 0.0
H1150 H 0.47744 0.28055 0.92388 0.0
H1151 H 0.52779 0.36383 0.885 0.0
C1152 C 0.54135 0.41682 0.97606 0.0
C1153 C 0.53519 0.41092 0.0026 0.0
C1154 C 0.51787 0.38204 0.0116 0.0
C1155 C 0.50694 0.35934 0.99448 0.0
C1156 C 0.51359 0.3659 0.96845 0.0
C1157 C 0.53043 0.39393 0.95928 0.0
C1158 C 0.53565 0.39519 0.93068 0.0
C1159 C 0.52176 0.40975 0.91538 0.0
C1160 C 0.5688 0.4103 0.92545 0.0
C1161 C 0.5194 0.36347 0.92523 0.0
C1162 C 0.50658 0.34692 0.9472 0.0
C1163 C 0.49103 0.31704 0.94705 0.0
C1164 C 0.4888 0.30374 0.92389 0.0
C1165 C 0.5022 0.32033 0.90125 0.0
C1166 C 0.51742 0.35058 0.902 0.0
H1167 H 0.08989 0.43052 0.46231 0.0
H1168 H 0.15319 0.51481 0.49253 0.0
H1169 H 0.18842 0.52237 0.45963 0.0
H1170 H 0.14257 0.41231 0.44765 0.0
H1171 H 0.12371 0.39426 0.41829 0.0
H1172 H 0.10311 0.39533 0.44418 0.0
H1173 H 0.08166 0.41799 0.41289 0.0
H1174 H 0.1022 0.41699 0.3869 0.0
H1175 H 0.10646 0.45045 0.39497 0.0
H1176 H 0.21692 0.52099 0.42398 0.0
H1177 H 0.23746 0.51045 0.38776 0.0
H1178 H 0.15574 0.42744 0.37964 0.0
C1179 C 0.11113 0.45058 0.46193 0.0
C1180 C 0.11885 0.47197 0.48016 0.0
C1181 C 0.14694 0.49789 0.4791 0.0
C1182 C 0.16706 0.50249 0.46036 0.0
C1183 C 0.15882 0.48098 0.44278 0.0
C1184 C 0.13159 0.45552 0.44335 0.0
C1185 C 0.12849 0.43589 0.42224 0.0
C1186 C 0.12423 0.40779 0.43379 0.0
C1187 C 0.1032 0.42999 0.40312 0.0
C1188 C 0.15828 0.4543 0.40983 0.0
C1189 C 0.17533 0.48025 0.42196 0.0
C1190 C 0.20374 0.50082 0.41419 0.0
C1191 C 0.21512 0.49471 0.39346 0.0
C1192 C 0.19813 0.46823 0.38068 0.0
C1193 C 0.16931 0.4478 0.38906 0.0
H1194 H 0.62953 0.08843 0.99622 0.0
H1195 H 0.67274 0.06141 0.05224 0.0
H1196 H 0.71759 0.08532 0.02562 0.0
H1197 H 0.65868 0.07715 0.93965 0.0
H1198 H 0.66208 0.10772 0.92218 0.0
H1199 H 0.63406 0.08884 0.94596 0.0
H1200 H 0.6542 0.13642 0.96977 0.0
H1201 H 0.68243 0.15542 0.94618 0.0
H1202 H 0.6925 0.15708 0.97999 0.0
H1203 H 0.75793 0.11334 0.99288 0.0
H1204 H 0.78977 0.14128 0.95638 0.0
H1205 H 0.71817 0.14683 0.9206 0.0
C1206 C 0.64836 0.08729 0.00266 0.0
C1207 C 0.64776 0.07278 0.02596 0.0
C1208 C 0.67288 0.07219 0.03422 0.0
C1209 C 0.69834 0.08573 0.01928 0.0
C1210 C 0.69813 0.09965 0.99618 0.0
C1211 C 0.67368 0.10032 0.98785 0.0
C1212 C 0.67882 0.11629 0.9622 0.0
C1213 C 0.65713 0.09631 0.94126 0.0
C1214 C 0.67688 0.14288 0.9647 0.0
C1215 C 0.71008 0.12471 0.95736 0.0
C1216 C 0.72093 0.11508 0.97721 0.0
C1217 C 0.74953 0.12074 0.97713 0.0
C1218 C 0.7674 0.1365 0.95617 0.0
C1219 C 0.75659 0.14628 0.93539 0.0
C1220 C 0.72745 0.14015 0.9362 0.0
H1221 H 0.59001 0.62111 0.50764 0.0
H1222 H 0.67408 0.64546 0.5444 0.0
H1223 H 0.69967 0.68606 0.51267 0.0
H1224 H 0.61211 0.63556 0.44402 0.0
H1225 H 0.58978 0.64985 0.43407 0.0
H1226 H 0.57845 0.62401 0.46039 0.0
H1227 H 0.5764 0.65915 0.49042 0.0
H1228 H 0.58728 0.68498 0.46406 0.0
H1229 H 0.60837 0.69493 0.49405 0.0
H1230 H 0.71562 0.72104 0.4738 0.0
H1231 H 0.72049 0.74947 0.43403 0.0
H1232 H 0.6249 0.70446 0.42667 0.0
C1233 C 0.61374 0.6355 0.50943 0.0
C1234 C 0.63018 0.63063 0.52857 0.0
C1235 C 0.66124 0.64927 0.52997 0.0
C1236 C 0.67585 0.67222 0.51204 0.0
C1237 C 0.65891 0.67633 0.49323 0.0
C1238 C 0.62847 0.65872 0.49219 0.0
C1239 C 0.61517 0.66729 0.47014 0.0
C1240 C 0.59787 0.64272 0.45104 0.0
C1241 C 0.59566 0.67719 0.48028 0.0
C1242 C 0.64289 0.69205 0.45839 0.0
C1243 C 0.66794 0.69695 0.47181 0.0
C1244 C 0.6961 0.71773 0.46346 0.0
C1245 C 0.69863 0.73389 0.44086 0.0
C1246 C 0.67312 0.72937 0.42696 0.0
C1247 C 0.64498 0.70832 0.43629 0.0
H1248 H 0.51816 0.07802 0.61919 0.0
H1249 H 0.60658 0.14173 0.59399 0.0
H1250 H 0.60701 0.17776 0.62069 0.0
H1251 H 0.49165 0.12648 0.62309 0.0
H1252 H 0.47106 0.1088 0.65177 0.0
H1253 H 0.47658 0.08869 0.62879 0.0
H1254 H 0.49955 0.07229 0.6651 0.0
H1255 H 0.49417 0.09237 0.68815 0.0
H1256 H 0.53046 0.0989 0.68412 0.0
H1257 H 0.59946 0.20585 0.65256 0.0
H1258 H 0.584 0.22432 0.68683 0.0
H1259 H 0.50103 0.1421 0.69217 0.0
C1260 C 0.53756 0.09959 0.61913 0.0
C1261 C 0.56227 0.10705 0.6043 0.0
C1262 C 0.58714 0.13559 0.60473 0.0
C1263 C 0.58767 0.15619 0.61998 0.0
C1264 C 0.56315 0.14797 0.63466 0.0
C1265 C 0.5385 0.1204 0.63429 0.0
C1266 C 0.51564 0.11674 0.65282 0.0
C1267 C 0.48704 0.10977 0.63824 0.0
C1268 C 0.50962 0.09372 0.67379 0.0
C1269 C 0.53152 0.14644 0.66399 0.0
C1270 C 0.55883 0.16416 0.65316 0.0
C1271 C 0.57804 0.19225 0.66106 0.0
C1272 C 0.56916 0.20247 0.68065 0.0
C1273 C 0.54134 0.18464 0.69215 0.0
C1274 C 0.52224 0.15635 0.68348 0.0
H1275 H 0.50866 0.51365 0.13992 0.0
H1276 H 0.48115 0.42676 0.12173 0.0
H1277 H 0.43688 0.40785 0.14831 0.0
H1278 H 0.48414 0.50053 0.2049 0.0
H1279 H 0.47115 0.52463 0.20257 0.0
H1280 H 0.501 0.53109 0.18289 0.0
H1281 H 0.47192 0.53127 0.14164 0.0
H1282 H 0.44204 0.52498 0.16119 0.0
H1283 H 0.4351 0.50094 0.13557 0.0
H1284 H 0.39702 0.39879 0.17849 0.0
H1285 H 0.36221 0.39987 0.20691 0.0
H1286 H 0.41306 0.49313 0.20093 0.0
C1287 C 0.49323 0.49065 0.14158 0.0
C1288 C 0.49828 0.47153 0.12918 0.0
C1289 C 0.47765 0.44161 0.13144 0.0
C1290 C 0.45253 0.43075 0.14642 0.0
C1291 C 0.44819 0.4502 0.15851 0.0
C1292 C 0.46775 0.47952 0.15592 0.0
C1293 C 0.45738 0.49584 0.16998 0.0
C1294 C 0.47975 0.51409 0.19135 0.0
C1295 C 0.45124 0.51434 0.15096 0.0
C1296 C 0.42913 0.47111 0.1812 0.0
C1297 C 0.42436 0.44498 0.17457 0.0
C1298 C 0.40026 0.41913 0.18347 0.0
C1299 C 0.38043 0.42001 0.19947 0.0
C1300 C 0.38446 0.44657 0.20615 0.0
C1301 C 0.40925 0.47239 0.19666 0.0
H1302 H 0.9656 0.39568 0.61584 0.0
H1303 H 0.02702 0.37101 0.59865 0.0
H1304 H 0.00497 0.33248 0.63259 0.0
H1305 H 0.96766 0.38693 0.68289 0.0
H1306 H 0.92911 0.37304 0.68722 0.0
H1307 H 0.94785 0.39663 0.66014 0.0
H1308 H 0.90918 0.35862 0.6286 0.0
H1309 H 0.89006 0.33498 0.65561 0.0
H1310 H 0.9021 0.32278 0.6301 0.0
H1311 H 0.9787 0.29953 0.67101 0.0
H1312 H 0.94958 0.27367 0.7094 0.0
H1313 H 0.90404 0.31908 0.70016 0.0
C1314 C 0.97386 0.38165 0.61885 0.0
C1315 C 0.99763 0.38583 0.60451 0.0
C1316 C 0.00849 0.36768 0.60927 0.0
C1317 C 0.99617 0.3459 0.62852 0.0
C1318 C 0.97297 0.34259 0.64265 0.0
C1319 C 0.96175 0.35982 0.63784 0.0
C1320 C 0.93763 0.35277 0.65637 0.0
C1321 C 0.94608 0.3789 0.67261 0.0
C1322 C 0.90798 0.34162 0.6418 0.0
C1323 C 0.93732 0.3292 0.67275 0.0
C1324 C 0.95778 0.32357 0.66451 0.0
C1325 C 0.9623 0.30347 0.67735 0.0
C1326 C 0.94547 0.28874 0.69911 0.0
C1327 C 0.92423 0.29406 0.7079 0.0
C1328 C 0.92016 0.31454 0.69426 0.0
H1329 H 0.62943 0.9806 0.14787 0.0
H1330 H 0.54133 0.91323 0.12283 0.0
H1331 H 0.54746 0.87744 0.14724 0.0
H1332 H 0.66368 0.93898 0.14811 0.0
H1333 H 0.68543 0.95482 0.1771 0.0
H1334 H 0.67533 0.97514 0.1559 0.0
H1335 H 0.65148 0.98359 0.19398 0.0
H1336 H 0.66163 0.96343 0.21529 0.0
H1337 H 0.62363 0.95318 0.21231 0.0
H1338 H 0.56199 0.84912 0.17543 0.0
H1339 H 0.58321 0.8303 0.20747 0.0
H1340 H 0.66065 0.91617 0.21647 0.0
C1341 C 0.61139 0.95834 0.14748 0.0
C1342 C 0.58505 0.94979 0.13303 0.0
C1343 C 0.56207 0.92034 0.13309 0.0
C1344 C 0.56523 0.89981 0.14705 0.0
C1345 C 0.59143 0.909 0.16104 0.0
C1346 C 0.61405 0.93755 0.16152 0.0
C1347 C 0.63925 0.94186 0.17932 0.0
C1348 C 0.6676 0.95338 0.1642 0.0
C1349 C 0.64428 0.96168 0.20154 0.0
C1350 C 0.62703 0.9113 0.18897 0.0
C1351 C 0.59955 0.89268 0.17796 0.0
C1352 C 0.5835 0.86346 0.18421 0.0
C1353 C 0.59566 0.85302 0.20254 0.0
C1354 C 0.6235 0.87178 0.21459 0.0
C1355 C 0.6395 0.90125 0.20738 0.0
H1356 H 0.62959 0.55051 0.69168 0.0
H1357 H 0.6907 0.61686 0.63866 0.0
H1358 H 0.72992 0.6355 0.67282 0.0
H1359 H 0.65796 0.59265 0.75128 0.0
H1360 H 0.65327 0.56265 0.77073 0.0
H1361 H 0.62903 0.55658 0.74319 0.0
H1362 H 0.64256 0.52251 0.72447 0.0
H1363 H 0.66676 0.52841 0.75192 0.0
H1364 H 0.6808 0.53532 0.71974 0.0
H1365 H 0.76298 0.6447 0.71112 0.0
H1366 H 0.78926 0.64237 0.75022 0.0
H1367 H 0.70723 0.56946 0.77903 0.0
C1368 C 0.6511 0.56933 0.68761 0.0
C1369 C 0.65729 0.58267 0.66286 0.0
C1370 C 0.68573 0.60669 0.6577 0.0
C1371 C 0.708 0.61741 0.67695 0.0
C1372 C 0.70141 0.6037 0.70117 0.0
C1373 C 0.67373 0.58009 0.70657 0.0
C1374 C 0.67331 0.56786 0.73344 0.0
C1375 C 0.65213 0.57008 0.75068 0.0
C1376 C 0.6654 0.53668 0.73231 0.0
C1377 C 0.7052 0.58796 0.7421 0.0
C1378 C 0.72082 0.60871 0.7233 0.0
C1379 C 0.7509 0.62887 0.72619 0.0
C1380 C 0.7656 0.6275 0.74866 0.0
C1381 C 0.7503 0.606 0.76801 0.0
C1382 C 0.71955 0.58627 0.76474 0.0
H1383 H 0.16342 0.6295 0.12433 0.0
H1384 H 0.2049 0.68655 0.05806 0.0
H1385 H 0.2301 0.72786 0.08688 0.0
H1386 H 0.15109 0.67898 0.15821 0.0
H1387 H 0.15806 0.66804 0.18956 0.0
H1388 H 0.14245 0.64282 0.16374 0.0
H1389 H 0.18479 0.63358 0.16959 0.0
H1390 H 0.20062 0.65858 0.19549 0.0
H1391 H 0.22255 0.66345 0.16816 0.0
H1392 H 0.25413 0.76246 0.12356 0.0
H1393 H 0.27239 0.78763 0.16527 0.0
H1394 H 0.21205 0.70839 0.20632 0.0
C1395 C 0.1772 0.65068 0.11567 0.0
C1396 C 0.18225 0.6546 0.08885 0.0
C1397 C 0.20108 0.68279 0.07858 0.0
C1398 C 0.21531 0.70648 0.09476 0.0
C1399 C 0.21012 0.70172 0.1211 0.0
C1400 C 0.19118 0.67456 0.13143 0.0
C1401 C 0.18968 0.67507 0.16043 0.0
C1402 C 0.15846 0.66567 0.16845 0.0
C1403 C 0.20004 0.65658 0.17421 0.0
C1404 C 0.21133 0.70665 0.16487 0.0
C1405 C 0.22294 0.72175 0.142 0.0
C1406 C 0.24481 0.75098 0.14155 0.0
C1407 C 0.25506 0.76507 0.16516 0.0
C1408 C 0.24313 0.74984 0.18857 0.0
C1409 C 0.22095 0.72043 0.18842 0.0
loop_
_geom_bond_atom_site_label_1
_geom_bond_atom_site_label_2
_geom_bond_distance
_geom_bond_site_symmetry_2
_ccdc_geom_bond_type
C0 C1 1.443 . S
C0 N4 1.376 . S
C0 C38 1.389 . S
C1 C0 1.443 . S
C1 C2 1.340 1_556 S
C1 H41 0.951 . S
C2 C1 1.340 1_554 S
C2 C3 1.439 . S
C2 H42 0.950 . S
C3 C2 1.439 . S
C3 N4 1.374 1_554 S
C3 C37 1.395 . S
N4 C0 1.376 . S
N4 C3 1.374 1_556 S
N4 Co5 2.008 1_556 S
Co5 N4 2.008 1_554 S
Co5 N6 1.998 . S
Co5 N11 2.008 . S
Co5 N16 1.991 1_554 S
Co5 N21 2.285 . S
Co5 N27 2.280 1_554 S
N6 Co5 1.998 . S
N6 C7 1.376 . S
N6 C10 1.383 . S
C7 N6 1.376 . S
C7 C8 1.446 . S
C7 C37 1.391 . S
C8 C7 1.446 . S
C8 C9 1.339 . S
C8 H43 0.949 . S
C9 C8 1.339 . S
C9 C10 1.439 . S
C9 H44 0.950 . S
C10 N6 1.383 . S
C10 C9 1.439 . S
C10 C39 1.392 . S
N11 Co5 2.008 . S
N11 C12 1.376 . S
N11 C15 1.374 1_554 S
C12 N11 1.376 . S
C12 C13 1.443 . S
C12 C39 1.389 . S
C13 C12 1.443 . S
C13 C14 1.340 1_554 S
C13 H45 0.951 . S
C14 C13 1.340 1_556 S
C14 C15 1.439 . S
C14 H46 0.950 . S
C15 N11 1.374 1_556 S
C15 C14 1.439 . S
C15 C40 1.395 . S
N16 Co5 1.991 1_556 S
N16 C17 1.376 . S
N16 C20 1.383 . S
C17 N16 1.376 . S
C17 C18 1.446 . S
C17 C40 1.391 . S
C18 C17 1.446 . S
C18 C19 1.339 . S
C18 H47 0.949 . S
C19 C18 1.339 . S
C19 C20 1.439 . S
C19 H48 0.950 . S
C20 N16 1.383 . S
C20 C19 1.439 . S
C20 C38 1.392 . S
N21 Co5 2.285 . S
N21 C24 1.332 . S
N21 C26 1.332 . S
C22 C23 1.386 . S
C22 C25 1.388 . S
C23 C22 1.386 . S
C23 C24 1.382 . S
C23 H49 0.950 . S
C24 N21 1.332 . S
C24 C23 1.382 . S
C24 H35 0.952 . S
C25 C22 1.388 . S
C25 C26 1.382 . S
C25 H50 0.950 . S
C26 N21 1.332 . S
C26 C25 1.382 . S
C26 H36 0.948 . S
N27 Co5 2.280 1_556 S
N27 C31 1.332 . S
N27 C32 1.332 . S
C28 C29 1.388 . S
C28 C32 1.382 . S
C28 H51 0.950 . S
C29 C28 1.388 . S
C29 C30 1.386 . S
C30 C29 1.386 . S
C30 C31 1.382 . S
C30 H52 0.950 . S
C31 N27 1.332 . S
C31 C30 1.382 . S
C31 H33 0.952 . S
C32 N27 1.332 . S
C32 C28 1.382 . S
C32 H34 0.948 . S
H33 C31 0.952 . S
H34 C32 0.948 . S
H35 C24 0.952 . S
H36 C26 0.948 . S
C37 C3 1.395 . S
C37 C7 1.391 . S
C38 C0 1.389 . S
C38 C20 1.392 . S
C39 C10 1.392 . S
C39 C12 1.389 . S
C40 C15 1.395 . S
C40 C17 1.391 . S
H41 C1 0.951 . S
H42 C2 0.950 . S
H43 C8 0.949 . S
H44 C9 0.950 . S
H45 C13 0.951 . S
H46 C14 0.950 . S
H47 C18 0.949 . S
H48 C19 0.950 . S
H49 C23 0.950 . S
H50 C25 0.950 . S
H51 C28 0.950 . S
H52 C30 0.950 . S
C53 C54 1.443 . S
C53 N57 1.385 . S
C53 C91 1.389 . S
C54 C53 1.443 . S
C54 C55 1.340 1_545 S
C54 H94 0.951 . S
C55 C54 1.340 1_565 S
C55 C56 1.439 . S
C55 H95 0.950 . S
C56 C55 1.439 . S
C56 N57 1.356 1_565 S
C56 C90 1.395 . S
N57 C53 1.385 . S
N57 C56 1.356 1_545 S
N57 Co58 2.020 . S
Co58 N57 2.020 . S
Co58 N59 1.995 1_545 S
Co58 N64 2.008 . S
Co58 N69 1.995 . S
Co58 N74 2.282 1_545 S
Co58 N80 2.282 . S
N59 Co58 1.995 1_565 S
N59 C60 1.376 . S
N59 C63 1.383 . S
C60 N59 1.376 . S
C60 C61 1.446 . S
C60 C90 1.391 . S
C61 C60 1.446 . S
C61 C62 1.339 . S
C61 H96 0.949 . S
C62 C61 1.339 . S
C62 C63 1.439 . S
C62 H97 0.950 . S
C63 N59 1.383 . S
C63 C62 1.439 . S
C63 C92 1.392 . S
N64 Co58 2.008 . S
N64 C65 1.376 . S
N64 C68 1.374 . S
C65 N64 1.376 . S
C65 C66 1.443 . S
C65 C92 1.389 1_545 S
C66 C65 1.443 . S
C66 C67 1.340 . S
C66 H98 0.951 . S
C67 C66 1.340 . S
C67 C68 1.439 . S
C67 H99 0.950 . S
C68 N64 1.374 . S
C68 C67 1.439 . S
C68 C93 1.395 . S
N69 Co58 1.995 . S
N69 C70 1.376 . S
N69 C73 1.383 . S
C70 N69 1.376 . S
C70 C71 1.446 . S
C70 C93 1.391 . S
C71 C70 1.446 . S
C71 C72 1.339 . S
C71 H100 0.949 . S
C72 C71 1.339 . S
C72 C73 1.439 . S
C72 H101 0.950 . S
C73 N69 1.383 . S
C73 C72 1.439 . S
C73 C91 1.392 . S
N74 Co58 2.282 1_565 S
N74 C77 1.332 1_565 S
N74 C79 1.332 . S
C75 C76 1.386 . S
C75 C78 1.388 . S
C76 C75 1.386 . S
C76 C77 1.382 1_565 S
C76 H102 0.950 1_565 S
C77 N74 1.332 1_545 S
C77 C76 1.382 1_545 S
C77 H88 0.952 . S
C78 C75 1.388 . S
C78 C79 1.382 . S
C78 H103 0.950 . S
C79 N74 1.332 . S
C79 C78 1.382 . S
C79 H89 0.948 . S
N80 Co58 2.282 . S
N80 C84 1.332 . S
N80 C85 1.332 . S
C81 C82 1.388 . S
C81 C85 1.382 . S
C81 H104 0.950 . S
C82 C81 1.388 . S
C82 C83 1.386 . S
C83 C82 1.386 . S
C83 C84 1.382 . S
C83 H105 0.950 . S
C84 N80 1.332 . S
C84 C83 1.382 . S
C84 H86 0.952 1_545 S
C85 N80 1.332 . S
C85 C81 1.382 . S
C85 H87 0.948 . S
H86 C84 0.952 1_565 S
H87 C85 0.948 . S
H88 C77 0.952 . S
H89 C79 0.948 . S
C90 C56 1.395 . S
C90 C60 1.391 . S
C91 C53 1.389 . S
C91 C73 1.392 . S
C92 C63 1.392 . S
C92 C65 1.389 1_565 S
C93 C68 1.395 . S
C93 C70 1.391 . S
H94 C54 0.951 . S
H95 C55 0.950 . S
H96 C61 0.949 . S
H97 C62 0.950 . S
H98 C66 0.951 . S
H99 C67 0.950 . S
H100 C71 0.949 . S
H101 C72 0.950 . S
H102 C76 0.950 1_545 S
H103 C78 0.950 . S
H104 C81 0.950 . S
H105 C83 0.950 . S
C106 C107 1.443 . S
C106 N110 1.376 . S
C106 C144 1.389 . S
C107 C106 1.443 . S
C107 C108 1.340 . S
C107 H147 0.951 . S
C108 C107 1.340 . S
C108 C109 1.439 . S
C108 H148 0.950 . S
C109 C108 1.439 . S
C109 N110 1.374 . S
C109 C143 1.395 . S
N110 C106 1.376 . S
N110 C109 1.374 . S
N110 Co111 2.008 . S
Co111 N110 2.008 . S
Co111 N112 1.995 . S
Co111 N117 2.008 . S
Co111 N122 1.995 . S
Co111 N127 2.282 . S
Co111 N133 2.282 . S
N112 Co111 1.995 . S
N112 C113 1.376 . S
N112 C116 1.383 . S
C113 N112 1.376 . S
C113 C114 1.446 . S
C113 C143 1.391 . S
C114 C113 1.446 . S
C114 C115 1.339 . S
C114 H149 0.949 . S
C115 C114 1.339 . S
C115 C116 1.439 . S
C115 H150 0.950 . S
C116 N112 1.383 . S
C116 C115 1.439 . S
C116 C145 1.392 . S
N117 Co111 2.008 . S
N117 C118 1.376 . S
N117 C121 1.374 . S
C118 N117 1.376 . S
C118 C119 1.443 . S
C118 C145 1.389 . S
C119 C118 1.443 . S
C119 C120 1.340 . S
C119 H151 0.951 . S
C120 C119 1.340 . S
C120 C121 1.439 . S
C120 H152 0.950 . S
C121 N117 1.374 . S
C121 C120 1.439 . S
C121 C146 1.395 . S
N122 Co111 1.995 . S
N122 C123 1.376 . S
N122 C126 1.383 . S
C123 N122 1.376 . S
C123 C124 1.446 . S
C123 C146 1.391 . S
C124 C123 1.446 . S
C124 C125 1.339 . S
C124 H153 0.949 . S
C125 C124 1.339 . S
C125 C126 1.439 . S
C125 H154 0.950 . S
C126 N122 1.383 . S
C126 C125 1.439 . S
C126 C144 1.392 . S
N127 Co111 2.282 . S
N127 C130 1.332 . S
N127 C132 1.332 . S
C128 C129 1.386 . S
C128 C131 1.388 . S
C129 C128 1.386 . S
C129 C130 1.382 . S
C129 H155 0.950 . S
C130 N127 1.332 . S
C130 C129 1.382 . S
C130 H141 0.952 . S
C131 C128 1.388 . S
C131 C132 1.382 . S
C131 H156 0.950 . S
C132 N127 1.332 . S
C132 C131 1.382 . S
C132 H142 0.948 . S
N133 Co111 2.282 . S
N133 C137 1.332 . S
N133 C138 1.332 . S
C134 C135 1.388 . S
C134 C138 1.382 . S
C134 H157 0.950 . S
C135 C134 1.388 . S
C135 C136 1.386 . S
C136 C135 1.386 . S
C136 C137 1.382 . S
C136 H158 0.950 . S
C137 N133 1.332 . S
C137 C136 1.382 . S
C137 H139 0.952 . S
C138 N133 1.332 . S
C138 C134 1.382 . S
C138 H140 0.948 . S
H139 C137 0.952 . S
H140 C138 0.948 . S
H141 C130 0.952 . S
H142 C132 0.948 . S
C143 C109 1.395 . S
C143 C113 1.391 . S
C144 C106 1.389 . S
C144 C126 1.392 . S
C145 C116 1.392 . S
C145 C118 1.389 . S
C146 C121 1.395 . S
C146 C123 1.391 . S
H147 C107 0.951 . S
H148 C108 0.950 . S
H149 C114 0.949 . S
H150 C115 0.950 . S
H151 C119 0.951 . S
H152 C120 0.950 . S
H153 C124 0.949 . S
H154 C125 0.950 . S
H155 C129 0.950 . S
H156 C131 0.950 . S
H157 C134 0.950 . S
H158 C136 0.950 . S
C159 C160 1.443 . S
C159 N163 1.376 . S
C159 C197 1.389 . S
C160 C159 1.443 . S
C160 C161 1.340 . S
C160 H200 0.951 . S
C161 C160 1.340 . S
C161 C162 1.439 . S
C161 H201 0.950 . S
C162 C161 1.439 . S
C162 N163 1.374 . S
C162 C196 1.395 . S
N163 C159 1.376 . S
N163 C162 1.374 . S
N163 Co164 2.008 1_655 S
Co164 N163 2.008 1_455 S
Co164 N165 1.995 1_455 S
Co164 N170 2.008 . S
Co164 N175 1.995 . S
Co164 N180 2.282 . S
Co164 N186 2.282 1_455 S
N165 Co164 1.995 1_655 S
N165 C166 1.376 . S
N165 C169 1.383 1_655 S
C166 N165 1.376 . S
C166 C167 1.446 . S
C166 C196 1.391 . S
C167 C166 1.446 . S
C167 C168 1.339 . S
C167 H202 0.949 . S
C168 C167 1.339 . S
C168 C169 1.439 1_655 S
C168 H203 0.951 . S
C169 N165 1.383 1_455 S
C169 C168 1.439 1_455 S
C169 C198 1.392 . S
N170 Co164 2.008 . S
N170 C171 1.376 . S
N170 C174 1.374 . S
C171 N170 1.376 . S
C171 C172 1.443 . S
C171 C198 1.389 . S
C172 C171 1.443 . S
C172 C173 1.340 . S
C172 H204 0.951 . S
C173 C172 1.340 . S
C173 C174 1.439 . S
C173 H205 0.950 . S
C174 N170 1.374 . S
C174 C173 1.439 . S
C174 C199 1.395 . S
N175 Co164 1.995 . S
N175 C176 1.376 . S
N175 C179 1.383 1_455 S
C176 N175 1.376 . S
C176 C177 1.446 . S
C176 C199 1.391 . S
C177 C176 1.446 . S
C177 C178 1.339 . S
C177 H206 0.949 . S
C178 C177 1.339 . S
C178 C179 1.439 1_455 S
C178 H207 0.950 . S
C179 N175 1.383 1_655 S
C179 C178 1.439 1_655 S
C179 C197 1.392 . S
N180 Co164 2.282 . S
N180 C183 1.332 . S
N180 C185 1.332 . S
C181 C182 1.386 . S
C181 C184 1.388 . S
C182 C181 1.386 . S
C182 C183 1.382 . S
C182 H208 0.950 . S
C183 N180 1.332 . S
C183 C182 1.382 . S
C183 H194 0.952 . S
C184 C181 1.388 . S
C184 C185 1.382 . S
C184 H209 0.950 . S
C185 N180 1.332 . S
C185 C184 1.382 . S
C185 H195 0.948 1_455 S
N186 Co164 2.282 1_655 S
N186 C190 1.332 . S
N186 C191 1.332 . S
C187 C188 1.388 . S
C187 C191 1.382 . S
C187 H210 0.950 . S
C188 C187 1.388 . S
C188 C189 1.386 . S
C189 C188 1.386 . S
C189 C190 1.382 . S
C189 H211 0.950 . S
C190 N186 1.332 . S
C190 C189 1.382 . S
C190 H192 0.952 . S
C191 N186 1.332 . S
C191 C187 1.382 . S
C191 H193 0.948 1_655 S
H192 C190 0.952 . S
H193 C191 0.948 1_455 S
H194 C183 0.952 . S
H195 C185 0.948 1_655 S
C196 C162 1.395 . S
C196 C166 1.391 . S
C197 C159 1.389 . S
C197 C179 1.392 . S
C198 C169 1.392 . S
C198 C171 1.389 . S
C199 C174 1.395 . S
C199 C176 1.391 . S
H200 C160 0.951 . S
H201 C161 0.950 . S
H202 C167 0.949 . S
H203 C168 0.951 . S
H204 C172 0.951 . S
H205 C173 0.950 . S
H206 C177 0.949 . S
H207 C178 0.950 . S
H208 C182 0.950 . S
H209 C184 0.950 . S
H210 C187 0.950 . S
H211 C189 0.950 . S
C212 C213 1.443 . S
C212 N216 1.376 . S
C212 C250 1.389 . S
C213 C212 1.443 . S
C213 C214 1.340 . S
C213 H253 0.951 . S
C214 C213 1.340 . S
C214 C215 1.439 . S
C214 H254 0.950 . S
C215 C214 1.439 . S
C215 N216 1.374 . S
C215 C249 1.395 . S
N216 C212 1.376 . S
N216 C215 1.374 . S
N216 Co217 2.008 . S
Co217 N216 2.008 . S
Co217 N218 1.995 . S
Co217 N223 2.008 . S
Co217 N228 1.995 . S
Co217 N233 2.282 . S
Co217 N239 2.282 . S
N218 Co217 1.995 . S
N218 C219 1.376 . S
N218 C222 1.383 . S
C219 N218 1.376 . S
C219 C220 1.446 . S
C219 C249 1.391 . S
C220 C219 1.446 . S
C220 C221 1.339 . S
C220 H255 0.949 . S
C221 C220 1.339 . S
C221 C222 1.439 . S
C221 H256 0.950 . S
C222 N218 1.383 . S
C222 C221 1.439 . S
C222 C251 1.392 . S
N223 Co217 2.008 . S
N223 C224 1.376 . S
N223 C227 1.374 . S
C224 N223 1.376 . S
C224 C225 1.443 . S
C224 C251 1.389 . S
C225 C224 1.443 . S
C225 C226 1.340 . S
C225 H257 0.976 . S
C226 C225 1.340 . S
C226 C227 1.439 . S
C226 H258 0.950 . S
C227 N223 1.374 . S
C227 C226 1.439 . S
C227 C252 1.395 1_545 S
N228 Co217 1.995 . S
N228 C229 1.376 1_545 S
N228 C232 1.383 . S
C229 N228 1.376 1_565 S
C229 C230 1.446 . S
C229 C252 1.391 . S
C230 C229 1.446 . S
C230 C231 1.339 . S
C230 H259 0.949 . S
C231 C230 1.339 . S
C231 C232 1.439 1_565 S
C231 H260 0.950 . S
C232 N228 1.383 . S
C232 C231 1.439 1_545 S
C232 C250 1.392 . S
N233 Co217 2.282 . S
N233 C236 1.332 . S
N233 C238 1.332 . S
C234 C235 1.386 . S
C234 C237 1.388 . S
C235 C234 1.386 . S
C235 C236 1.382 . S
C235 H261 0.950 . S
C236 N233 1.332 . S
C236 C235 1.382 . S
C236 H247 0.952 . S
C237 C234 1.388 . S
C237 C238 1.382 . S
C237 H262 0.950 . S
C238 N233 1.332 . S
C238 C237 1.382 . S
C238 H248 0.948 . S
N239 Co217 2.282 . S
N239 C243 1.332 . S
N239 C244 1.332 . S
C240 C241 1.388 1_565 S
C240 C244 1.382 1_565 S
C240 H263 0.950 . S
C241 C240 1.388 1_545 S
C241 C242 1.386 . S
C242 C241 1.386 . S
C242 C243 1.382 . S
C242 H264 0.950 . S
C243 N239 1.332 . S
C243 C242 1.382 . S
C243 H245 0.952 . S
C244 N239 1.332 . S
C244 C240 1.382 1_545 S
C244 H246 0.948 1_545 S
H245 C243 0.952 . S
H246 C244 0.948 1_565 S
H247 C236 0.952 . S
H248 C238 0.948 . S
C249 C215 1.395 . S
C249 C219 1.391 . S
C250 C212 1.389 . S
C250 C232 1.392 . S
C251 C222 1.392 . S
C251 C224 1.389 . S
C252 C227 1.395 1_565 S
C252 C229 1.391 . S
H253 C213 0.951 . S
H254 C214 0.950 . S
H255 C220 0.949 . S
H256 C221 0.950 . S
H257 C225 0.976 . S
H258 C226 0.950 . S
H259 C230 0.949 . S
H260 C231 0.950 . S
H261 C235 0.950 . S
H262 C237 0.950 . S
H263 C240 0.950 . S
H264 C242 0.950 . S
C265 C266 1.443 . S
C265 N269 1.376 . S
C265 C303 1.389 . S
C266 C265 1.443 . S
C266 C267 1.340 . S
C266 H306 0.951 . S
C267 C266 1.340 . S
C267 C268 1.439 . S
C267 H307 0.950 . S
C268 C267 1.439 . S
C268 N269 1.374 . S
C268 C302 1.395 . S
N269 C265 1.376 . S
N269 C268 1.374 . S
N269 Co270 2.008 . S
Co270 N269 2.008 . S
Co270 N271 1.995 . S
Co270 N276 2.008 . S
Co270 N281 1.995 . S
Co270 N286 2.282 . S
Co270 N292 2.282 . S
N271 Co270 1.995 . S
N271 C272 1.376 . S
N271 C275 1.383 . S
C272 N271 1.376 . S
C272 C273 1.446 . S
C272 C302 1.391 . S
C273 C272 1.446 . S
C273 C274 1.339 . S
C273 H308 0.949 . S
C274 C273 1.339 . S
C274 C275 1.439 . S
C274 H309 0.950 . S
C275 N271 1.383 . S
C275 C274 1.439 . S
C275 C304 1.392 . S
N276 Co270 2.008 . S
N276 C277 1.376 . S
N276 C280 1.374 . S
C277 N276 1.376 . S
C277 C278 1.443 . S
C277 C304 1.389 . S
C278 C277 1.443 . S
C278 C279 1.340 . S
C278 H310 0.951 . S
C279 C278 1.340 . S
C279 C280 1.439 . S
C279 H311 0.950 . S
C280 N276 1.374 . S
C280 C279 1.439 . S
C280 C305 1.395 . S
N281 Co270 1.995 . S
N281 C282 1.376 . S
N281 C285 1.383 . S
C282 N281 1.376 . S
C282 C283 1.446 . S
C282 C305 1.391 . S
C283 C282 1.446 . S
C283 C284 1.339 . S
C283 H312 0.949 . S
C284 C283 1.339 . S
C284 C285 1.439 . S
C284 H313 0.950 . S
C285 N281 1.383 . S
C285 C284 1.439 . S
C285 C303 1.392 . S
N286 Co270 2.282 . S
N286 C289 1.332 . S
N286 C291 1.332 . S
C287 C288 1.386 . S
C287 C290 1.388 . S
C288 C287 1.386 . S
C288 C289 1.382 . S
C288 H314 0.950 . S
C289 N286 1.332 . S
C289 C288 1.382 . S
C289 H300 0.952 . S
C290 C287 1.388 . S
C290 C291 1.382 . S
C290 H315 0.950 . S
C291 N286 1.332 . S
C291 C290 1.382 . S
C291 H301 0.948 . S
N292 Co270 2.282 . S
N292 C296 1.332 . S
N292 C297 1.332 . S
C293 C294 1.388 . S
C293 C297 1.382 . S
C293 H316 0.950 . S
C294 C293 1.388 . S
C294 C295 1.386 . S
C295 C294 1.386 . S
C295 C296 1.382 . S
C295 H317 0.950 . S
C296 N292 1.332 . S
C296 C295 1.382 . S
C296 H298 0.952 . S
C297 N292 1.332 . S
C297 C293 1.382 . S
C297 H299 0.948 . S
H298 C296 0.952 . S
H299 C297 0.948 . S
H300 C289 0.952 . S
H301 C291 0.948 . S
C302 C268 1.395 . S
C302 C272 1.391 . S
C303 C265 1.389 . S
C303 C285 1.392 . S
C304 C275 1.392 . S
C304 C277 1.389 . S
C305 C280 1.395 . S
C305 C282 1.391 . S
H306 C266 0.951 . S
H307 C267 0.950 . S
H308 C273 0.949 . S
H309 C274 0.950 . S
H310 C278 0.951 . S
H311 C279 0.950 . S
H312 C283 0.949 . S
H313 C284 0.950 . S
H314 C288 0.950 . S
H315 C290 0.950 . S
H316 C293 0.950 . S
H317 C295 0.950 . S
H318 O344 0.856 . S
H319 O347 0.854 . S
H320 C355 0.930 . S
H321 C356 0.930 . S
H322 C358 0.930 . S
H323 C359 0.930 . S
H324 C361 0.931 . S
H325 C362 0.930 . S
H326 C364 0.930 . S
H327 C365 0.929 . S
H328 C367 0.930 . S
H329 C368 0.931 . S
H330 C370 0.930 . S
H331 C371 0.929 . S
H332 C373 0.931 . S
H333 C374 0.930 . S
H334 C376 0.930 . S
H335 C377 0.932 . S
H336 C379 0.930 . S
H337 C380 0.929 . S
H338 C382 0.931 . S
H339 C383 0.930 . S
H340 C385 0.929 . S
H341 C386 0.931 . S
H342 C388 0.930 . S
H343 C389 0.929 . S
O344 H318 0.856 . S
O344 C390 1.300 . S
O345 C390 1.209 . S
O346 C391 1.199 . S
O347 H319 0.854 . S
O347 C391 1.297 . S
C348 C349 1.404 . S
C348 C353 1.397 . S
C348 C354 1.492 . S
C349 C348 1.404 . S
C349 C350 1.396 . S
C349 C360 1.492 . S
C350 C349 1.396 . S
C350 C351 1.397 . S
C350 C366 1.509 . S
C351 C350 1.397 . S
C351 C352 1.412 . S
C351 C372 1.485 . S
C352 C351 1.412 . S
C352 C353 1.388 . S
C352 C378 1.490 . S
C353 C348 1.397 . S
C353 C352 1.388 . S
C353 C384 1.519 . S
C354 C348 1.492 . S
C354 C355 1.363 . S
C354 C359 1.390 . S
C355 H320 0.930 . S
C355 C354 1.363 . S
C355 C356 1.372 . S
C356 H321 0.930 . S
C356 C355 1.372 . S
C356 C357 1.383 . S
C357 C356 1.383 . S
C357 C358 1.395 . S
C358 H322 0.930 . S
C358 C357 1.395 . S
C358 C359 1.362 . S
C359 H323 0.930 . S
C359 C354 1.390 . S
C359 C358 1.362 . S
C360 C349 1.492 . S
C360 C361 1.377 . S
C360 C365 1.397 . S
C361 H324 0.931 . S
C361 C360 1.377 . S
C361 C362 1.376 . S
C362 H325 0.930 . S
C362 C361 1.376 . S
C362 C363 1.376 . S
C363 C362 1.376 . S
C363 C364 1.378 . S
C363 C390 1.486 . S
C364 H326 0.930 . S
C364 C363 1.378 . S
C364 C365 1.376 . S
C365 H327 0.929 . S
C365 C360 1.397 . S
C365 C364 1.376 . S
C366 C350 1.509 . S
C366 C367 1.391 . S
C366 C371 1.386 . S
C367 H328 0.930 . S
C367 C366 1.391 . S
C367 C368 1.375 . S
C368 H329 0.931 . S
C368 C367 1.375 . S
C368 C369 1.375 . S
C369 C368 1.375 . S
C369 C370 1.361 . S
C370 H330 0.930 . S
C370 C369 1.361 . S
C370 C371 1.399 . S
C371 H331 0.929 . S
C371 C366 1.386 . S
C371 C370 1.399 . S
C372 C351 1.485 . S
C372 C373 1.394 . S
C372 C377 1.360 . S
C373 H332 0.931 . S
C373 C372 1.394 . S
C373 C374 1.372 . S
C374 H333 0.930 . S
C374 C373 1.372 . S
C374 C375 1.397 . S
C375 C374 1.397 . S
C375 C376 1.390 . S
C375 C391 1.476 . S
C376 H334 0.930 . S
C376 C375 1.390 . S
C376 C377 1.366 . S
C377 H335 0.932 . S
C377 C372 1.360 . S
C377 C376 1.366 . S
C378 C352 1.490 . S
C378 C379 1.380 . S
C378 C383 1.386 . S
C379 H336 0.930 . S
C379 C378 1.380 . S
C379 C380 1.381 . S
C380 H337 0.929 . S
C380 C379 1.381 . S
C380 C381 1.371 . S
C381 C380 1.371 . S
C381 C382 1.380 . S
C382 H338 0.931 . S
C382 C381 1.380 . S
C382 C383 1.387 . S
C383 H339 0.930 . S
C383 C378 1.386 . S
C383 C382 1.387 . S
C384 C353 1.519 . S
C384 C385 1.377 . S
C384 C389 1.361 . S
C385 H340 0.929 . S
C385 C384 1.377 . S
C385 C386 1.386 . S
C386 H341 0.931 . S
C386 C385 1.386 . S
C386 C387 1.363 . S
C387 C386 1.363 . S
C387 C388 1.385 . S
C388 H342 0.930 . S
C388 C387 1.385 . S
C388 C389 1.396 . S
C389 H343 0.929 . S
C389 C384 1.361 . S
C389 C388 1.396 . S
C390 O344 1.300 . S
C390 O345 1.209 . S
C390 C363 1.486 . S
C391 O346 1.199 . S
C391 O347 1.297 . S
C391 C375 1.476 . S
H392 O418 0.856 . S
H393 O421 0.854 . S
H394 C429 0.930 . S
H395 C430 0.930 . S
H396 C432 0.930 . S
H397 C433 0.930 . S
H398 C435 0.931 . S
H399 C436 0.930 . S
H400 C438 0.930 . S
H401 C439 0.929 . S
H402 C441 0.930 . S
H403 C442 0.931 . S
H404 C444 0.930 . S
H405 C445 0.929 . S
H406 C447 0.931 . S
H407 C448 0.930 . S
H408 C450 0.930 . S
H409 C451 0.932 . S
H410 C453 0.930 . S
H411 C454 0.929 . S
H412 C456 0.931 . S
H413 C457 0.930 . S
H414 C459 0.929 . S
H415 C460 0.931 . S
H416 C462 0.930 . S
H417 C463 0.929 . S
O418 H392 0.856 . S
O418 C464 1.300 . S
O419 C464 1.209 . S
O420 C465 1.199 . S
O421 H393 0.854 . S
O421 C465 1.297 . S
C422 C423 1.404 . S
C422 C427 1.397 . S
C422 C428 1.492 . S
C423 C422 1.404 . S
C423 C424 1.396 . S
C423 C434 1.492 . S
C424 C423 1.396 . S
C424 C425 1.397 . S
C424 C440 1.509 . S
C425 C424 1.397 . S
C425 C426 1.412 . S
C425 C446 1.485 . S
C426 C425 1.412 . S
C426 C427 1.388 . S
C426 C452 1.490 . S
C427 C422 1.397 . S
C427 C426 1.388 . S
C427 C458 1.519 . S
C428 C422 1.492 . S
C428 C429 1.363 . S
C428 C433 1.390 . S
C429 H394 0.930 . S
C429 C428 1.363 . S
C429 C430 1.372 . S
C430 H395 0.930 . S
C430 C429 1.372 . S
C430 C431 1.383 . S
C431 C430 1.383 . S
C431 C432 1.395 . S
C432 H396 0.930 . S
C432 C431 1.395 . S
C432 C433 1.362 . S
C433 H397 0.930 . S
C433 C428 1.390 . S
C433 C432 1.362 . S
C434 C423 1.492 . S
C434 C435 1.377 . S
C434 C439 1.397 . S
C435 H398 0.931 . S
C435 C434 1.377 . S
C435 C436 1.376 . S
C436 H399 0.930 . S
C436 C435 1.376 . S
C436 C437 1.376 . S
C437 C436 1.376 . S
C437 C438 1.378 . S
C437 C464 1.486 . S
C438 H400 0.930 . S
C438 C437 1.378 . S
C438 C439 1.376 . S
C439 H401 0.929 . S
C439 C434 1.397 . S
C439 C438 1.376 . S
C440 C424 1.509 . S
C440 C441 1.391 . S
C440 C445 1.386 . S
C441 H402 0.930 . S
C441 C440 1.391 . S
C441 C442 1.375 . S
C442 H403 0.931 . S
C442 C441 1.375 . S
C442 C443 1.375 . S
C443 C442 1.375 . S
C443 C444 1.361 . S
C444 H404 0.930 . S
C444 C443 1.361 . S
C444 C445 1.399 . S
C445 H405 0.929 . S
C445 C440 1.386 . S
C445 C444 1.399 . S
C446 C425 1.485 . S
C446 C447 1.394 . S
C446 C451 1.360 . S
C447 H406 0.931 . S
C447 C446 1.394 . S
C447 C448 1.372 . S
C448 H407 0.930 . S
C448 C447 1.372 . S
C448 C449 1.397 . S
C449 C448 1.397 . S
C449 C450 1.390 . S
C449 C465 1.476 . S
C450 H408 0.930 . S
C450 C449 1.390 . S
C450 C451 1.366 . S
C451 H409 0.932 . S
C451 C446 1.360 . S
C451 C450 1.366 . S
C452 C426 1.490 . S
C452 C453 1.380 . S
C452 C457 1.386 . S
C453 H410 0.930 . S
C453 C452 1.380 . S
C453 C454 1.381 . S
C454 H411 0.929 . S
C454 C453 1.381 . S
C454 C455 1.371 . S
C455 C454 1.371 . S
C455 C456 1.380 . S
C456 H412 0.931 . S
C456 C455 1.380 . S
C456 C457 1.387 . S
C457 H413 0.930 . S
C457 C452 1.386 . S
C457 C456 1.387 . S
C458 C427 1.519 . S
C458 C459 1.377 . S
C458 C463 1.361 . S
C459 H414 0.929 . S
C459 C458 1.377 . S
C459 C460 1.386 . S
C460 H415 0.931 . S
C460 C459 1.386 . S
C460 C461 1.363 . S
C461 C460 1.363 . S
C461 C462 1.385 . S
C462 H416 0.930 . S
C462 C461 1.385 . S
C462 C463 1.396 . S
C463 H417 0.929 . S
C463 C458 1.361 . S
C463 C462 1.396 . S
C464 O418 1.300 . S
C464 O419 1.209 . S
C464 C437 1.486 . S
C465 O420 1.199 . S
C465 O421 1.297 . S
C465 C449 1.476 . S
H466 O492 0.856 . S
H467 O495 0.854 1_545 S
H468 C503 0.930 . S
H469 C504 0.930 . S
H470 C506 0.930 . S
H471 C507 0.930 . S
H472 C509 0.931 . S
H473 C510 0.930 . S
H474 C512 0.930 . S
H475 C513 0.929 . S
H476 C515 0.930 . S
H477 C516 0.931 . S
H478 C518 0.930 . S
H479 C519 0.929 . S
H480 C521 0.931 . S
H481 C522 0.930 . S
H482 C524 0.930 . S
H483 C525 0.932 . S
H484 C527 0.930 . S
H485 C528 0.929 . S
H486 C530 0.931 . S
H487 C531 0.930 . S
H488 C533 0.929 . S
H489 C534 0.931 . S
H490 C536 0.930 . S
H491 C537 0.929 . S
O492 H466 0.856 . S
O492 C538 1.300 . S
O493 C538 1.209 . S
O494 C539 1.199 . S
O495 H467 0.854 1_565 S
O495 C539 1.297 . S
C496 C497 1.404 . S
C496 C501 1.397 . S
C496 C502 1.492 . S
C497 C496 1.404 . S
C497 C498 1.396 . S
C497 C508 1.492 . S
C498 C497 1.396 . S
C498 C499 1.397 . S
C498 C514 1.509 . S
C499 C498 1.397 . S
C499 C500 1.412 . S
C499 C520 1.485 . S
C500 C499 1.412 . S
C500 C501 1.388 . S
C500 C526 1.490 . S
C501 C496 1.397 . S
C501 C500 1.388 . S
C501 C532 1.519 . S
C502 C496 1.492 . S
C502 C503 1.363 . S
C502 C507 1.390 . S
C503 H468 0.930 . S
C503 C502 1.363 . S
C503 C504 1.372 . S
C504 H469 0.930 . S
C504 C503 1.372 . S
C504 C505 1.383 . S
C505 C504 1.383 . S
C505 C506 1.395 . S
C506 H470 0.930 . S
C506 C505 1.395 . S
C506 C507 1.362 . S
C507 H471 0.930 . S
C507 C502 1.390 . S
C507 C506 1.362 . S
C508 C497 1.492 . S
C508 C509 1.377 . S
C508 C513 1.397 . S
C509 H472 0.931 . S
C509 C508 1.377 . S
C509 C510 1.376 . S
C510 H473 0.930 . S
C510 C509 1.376 . S
C510 C511 1.376 . S
C511 C510 1.376 . S
C511 C512 1.378 . S
C511 C538 1.486 . S
C512 H474 0.930 . S
C512 C511 1.378 . S
C512 C513 1.376 . S
C513 H475 0.929 . S
C513 C508 1.397 . S
C513 C512 1.376 . S
C514 C498 1.509 . S
C514 C515 1.391 . S
C514 C519 1.386 . S
C515 H476 0.930 . S
C515 C514 1.391 . S
C515 C516 1.375 . S
C516 H477 0.931 . S
C516 C515 1.375 . S
C516 C517 1.375 . S
C517 C516 1.375 . S
C517 C518 1.361 . S
C518 H478 0.930 . S
C518 C517 1.361 . S
C518 C519 1.399 . S
C519 H479 0.929 . S
C519 C514 1.386 . S
C519 C518 1.399 . S
C520 C499 1.485 . S
C520 C521 1.394 . S
C520 C525 1.360 . S
C521 H480 0.931 . S
C521 C520 1.394 . S
C521 C522 1.372 . S
C522 H481 0.930 . S
C522 C521 1.372 . S
C522 C523 1.397 . S
C523 C522 1.397 . S
C523 C524 1.390 . S
C523 C539 1.476 . S
C524 H482 0.930 . S
C524 C523 1.390 . S
C524 C525 1.366 . S
C525 H483 0.932 . S
C525 C520 1.360 . S
C525 C524 1.366 . S
C526 C500 1.490 . S
C526 C527 1.380 . S
C526 C531 1.386 . S
C527 H484 0.930 . S
C527 C526 1.380 . S
C527 C528 1.381 . S
C528 H485 0.929 . S
C528 C527 1.381 . S
C528 C529 1.371 . S
C529 C528 1.371 . S
C529 C530 1.380 . S
C530 H486 0.931 . S
C530 C529 1.380 . S
C530 C531 1.387 . S
C531 H487 0.930 . S
C531 C526 1.386 . S
C531 C530 1.387 . S
C532 C501 1.519 . S
C532 C533 1.377 . S
C532 C537 1.361 . S
C533 H488 0.929 . S
C533 C532 1.377 . S
C533 C534 1.386 . S
C534 H489 0.931 . S
C534 C533 1.386 . S
C534 C535 1.363 . S
C535 C534 1.363 . S
C535 C536 1.385 . S
C536 H490 0.930 . S
C536 C535 1.385 . S
C536 C537 1.396 . S
C537 H491 0.929 . S
C537 C532 1.361 . S
C537 C536 1.396 . S
C538 O492 1.300 . S
C538 O493 1.209 . S
C538 C511 1.486 . S
C539 O494 1.199 . S
C539 O495 1.297 . S
C539 C523 1.476 . S
H540 O566 0.856 . S
H541 O569 0.854 . S
H542 C577 0.930 . S
H543 C578 0.930 . S
H544 C580 0.930 . S
H545 C581 0.930 . S
H546 C583 0.931 . S
H547 C584 0.930 . S
H548 C586 0.930 . S
H549 C587 0.929 . S
H550 C589 0.930 . S
H551 C590 0.931 . S
H552 C592 0.930 . S
H553 C593 0.929 . S
H554 C595 0.931 . S
H555 C596 0.953 . S
H556 C598 0.930 . S
H557 C599 0.932 . S
H558 C601 0.930 . S
H559 C602 0.929 . S
H560 C604 0.931 . S
H561 C605 0.930 . S
H562 C607 0.929 . S
H563 C608 0.931 . S
H564 C610 0.930 . S
H565 C611 0.929 . S
O566 H540 0.856 . S
O566 C612 1.300 . S
O567 C612 1.209 . S
O568 C613 1.199 . S
O569 H541 0.854 . S
O569 C613 1.297 . S
C570 C571 1.404 . S
C570 C575 1.397 . S
C570 C576 1.492 . S
C571 C570 1.404 . S
C571 C572 1.396 . S
C571 C582 1.492 . S
C572 C571 1.396 . S
C572 C573 1.397 . S
C572 C588 1.509 . S
C573 C572 1.397 . S
C573 C574 1.412 . S
C573 C594 1.485 . S
C574 C573 1.412 . S
C574 C575 1.388 . S
C574 C600 1.490 . S
C575 C570 1.397 . S
C575 C574 1.388 . S
C575 C606 1.519 . S
C576 C570 1.492 . S
C576 C577 1.363 . S
C576 C581 1.390 . S
C577 H542 0.930 . S
C577 C576 1.363 . S
C577 C578 1.372 . S
C578 H543 0.930 . S
C578 C577 1.372 . S
C578 C579 1.383 . S
C579 C578 1.383 . S
C579 C580 1.395 . S
C580 H544 0.930 . S
C580 C579 1.395 . S
C580 C581 1.362 . S
C581 H545 0.930 . S
C581 C576 1.390 . S
C581 C580 1.362 . S
C582 C571 1.492 . S
C582 C583 1.377 . S
C582 C587 1.397 . S
C583 H546 0.931 . S
C583 C582 1.377 . S
C583 C584 1.376 . S
C584 H547 0.930 . S
C584 C583 1.376 . S
C584 C585 1.376 . S
C585 C584 1.376 . S
C585 C586 1.378 . S
C585 C612 1.486 . S
C586 H548 0.930 . S
C586 C585 1.378 . S
C586 C587 1.376 . S
C587 H549 0.929 . S
C587 C582 1.397 . S
C587 C586 1.376 . S
C588 C572 1.509 . S
C588 C589 1.391 . S
C588 C593 1.386 . S
C589 H550 0.930 . S
C589 C588 1.391 . S
C589 C590 1.375 . S
C590 H551 0.931 . S
C590 C589 1.375 . S
C590 C591 1.375 . S
C591 C590 1.375 . S
C591 C592 1.361 . S
C592 H552 0.930 . S
C592 C591 1.361 . S
C592 C593 1.399 . S
C593 H553 0.929 . S
C593 C588 1.386 . S
C593 C592 1.399 . S
C594 C573 1.485 . S
C594 C595 1.394 . S
C594 C599 1.360 . S
C595 H554 0.931 . S
C595 C594 1.394 . S
C595 C596 1.326 1_655 S
C596 H555 0.953 . S
C596 C595 1.326 1_455 S
C596 C597 1.414 . S
C597 C596 1.414 . S
C597 C598 1.384 1_455 S
C597 C613 1.488 . S
C598 H556 0.930 . S
C598 C597 1.384 1_655 S
C598 C599 1.366 . S
C599 H557 0.932 . S
C599 C594 1.360 . S
C599 C598 1.366 . S
C600 C574 1.490 . S
C600 C601 1.380 . S
C600 C605 1.386 . S
C601 H558 0.930 . S
C601 C600 1.380 . S
C601 C602 1.381 . S
C602 H559 0.929 . S
C602 C601 1.381 . S
C602 C603 1.371 . S
C603 C602 1.371 . S
C603 C604 1.380 . S
C604 H560 0.931 . S
C604 C603 1.380 . S
C604 C605 1.387 . S
C605 H561 0.930 . S
C605 C600 1.386 . S
C605 C604 1.387 . S
C606 C575 1.519 . S
C606 C607 1.377 . S
C606 C611 1.361 . S
C607 H562 0.929 . S
C607 C606 1.377 . S
C607 C608 1.386 . S
C608 H563 0.931 . S
C608 C607 1.386 . S
C608 C609 1.363 . S
C609 C608 1.363 . S
C609 C610 1.385 . S
C610 H564 0.930 . S
C610 C609 1.385 . S
C610 C611 1.396 . S
C611 H565 0.929 . S
C611 C606 1.361 . S
C611 C610 1.396 . S
C612 O566 1.300 . S
C612 O567 1.209 . S
C612 C585 1.486 . S
C613 O568 1.199 . S
C613 O569 1.297 . S
C613 C597 1.488 . S
H614 O640 0.856 . S
H615 O643 0.854 . S
H616 C651 0.930 . S
H617 C652 0.930 . S
H618 C654 0.930 . S
H619 C655 0.930 . S
H620 C657 0.931 . S
H621 C658 0.930 . S
H622 C660 0.930 . S
H623 C661 0.929 . S
H624 C663 0.930 . S
H625 C664 0.931 . S
H626 C666 0.930 . S
H627 C667 0.929 . S
H628 C669 0.931 . S
H629 C670 0.930 . S
H630 C672 0.930 . S
H631 C673 0.932 . S
H632 C675 0.930 . S
H633 C676 0.929 . S
H634 C678 0.931 . S
H635 C679 0.930 . S
H636 C681 0.929 . S
H637 C682 0.931 . S
H638 C684 0.930 . S
H639 C685 0.929 . S
O640 H614 0.856 . S
O640 C686 1.300 . S
O641 C686 1.209 . S
O642 C687 1.199 . S
O643 H615 0.854 . S
O643 C687 1.297 . S
C644 C645 1.404 . S
C644 C649 1.397 . S
C644 C650 1.492 . S
C645 C644 1.404 . S
C645 C646 1.396 . S
C645 C656 1.492 . S
C646 C645 1.396 . S
C646 C647 1.397 . S
C646 C662 1.509 . S
C647 C646 1.397 . S
C647 C648 1.412 . S
C647 C668 1.485 . S
C648 C647 1.412 . S
C648 C649 1.388 . S
C648 C674 1.490 . S
C649 C644 1.397 . S
C649 C648 1.388 . S
C649 C680 1.519 . S
C650 C644 1.492 . S
C650 C651 1.363 . S
C650 C655 1.390 . S
C651 H616 0.930 . S
C651 C650 1.363 . S
C651 C652 1.372 . S
C652 H617 0.930 . S
C652 C651 1.372 . S
C652 C653 1.383 . S
C653 C652 1.383 . S
C653 C654 1.395 . S
C654 H618 0.930 . S
C654 C653 1.395 . S
C654 C655 1.362 . S
C655 H619 0.930 . S
C655 C650 1.390 . S
C655 C654 1.362 . S
C656 C645 1.492 . S
C656 C657 1.377 . S
C656 C661 1.397 . S
C657 H620 0.931 . S
C657 C656 1.377 . S
C657 C658 1.376 . S
C658 H621 0.930 . S
C658 C657 1.376 . S
C658 C659 1.376 . S
C659 C658 1.376 . S
C659 C660 1.378 . S
C659 C686 1.486 . S
C660 H622 0.930 . S
C660 C659 1.378 . S
C660 C661 1.376 . S
C661 H623 0.929 . S
C661 C656 1.397 . S
C661 C660 1.376 . S
C662 C646 1.509 . S
C662 C663 1.391 . S
C662 C667 1.386 . S
C663 H624 0.930 . S
C663 C662 1.391 . S
C663 C664 1.375 . S
C664 H625 0.931 . S
C664 C663 1.375 . S
C664 C665 1.375 . S
C665 C664 1.375 . S
C665 C666 1.361 . S
C666 H626 0.930 . S
C666 C665 1.361 . S
C666 C667 1.399 . S
C667 H627 0.929 . S
C667 C662 1.386 . S
C667 C666 1.399 . S
C668 C647 1.485 . S
C668 C669 1.394 . S
C668 C673 1.360 . S
C669 H628 0.931 . S
C669 C668 1.394 . S
C669 C670 1.372 . S
C670 H629 0.930 . S
C670 C669 1.372 . S
C670 C671 1.397 . S
C671 C670 1.397 . S
C671 C672 1.390 . S
C671 C687 1.476 . S
C672 H630 0.930 . S
C672 C671 1.390 . S
C672 C673 1.366 . S
C673 H631 0.932 . S
C673 C668 1.360 . S
C673 C672 1.366 . S
C674 C648 1.490 . S
C674 C675 1.380 . S
C674 C679 1.386 . S
C675 H632 0.930 . S
C675 C674 1.380 . S
C675 C676 1.381 . S
C676 H633 0.929 . S
C676 C675 1.381 . S
C676 C677 1.371 . S
C677 C676 1.371 . S
C677 C678 1.380 . S
C678 H634 0.931 . S
C678 C677 1.380 . S
C678 C679 1.387 . S
C679 H635 0.930 . S
C679 C674 1.386 . S
C679 C678 1.387 . S
C680 C649 1.519 . S
C680 C681 1.377 . S
C680 C685 1.361 . S
C681 H636 0.929 . S
C681 C680 1.377 . S
C681 C682 1.386 . S
C682 H637 0.931 . S
C682 C681 1.386 . S
C682 C683 1.363 . S
C683 C682 1.363 . S
C683 C684 1.385 . S
C684 H638 0.930 . S
C684 C683 1.385 . S
C684 C685 1.396 . S
C685 H639 0.929 . S
C685 C680 1.361 . S
C685 C684 1.396 . S
C686 O640 1.300 . S
C686 O641 1.209 . S
C686 C659 1.486 . S
C687 O642 1.199 . S
C687 O643 1.297 . S
C687 C671 1.476 . S
H688 O714 0.856 . S
H689 O717 0.854 . S
H690 C725 0.930 . S
H691 C726 0.930 . S
H692 C728 0.930 . S
H693 C729 0.930 . S
H694 C731 0.931 . S
H695 C732 0.930 . S
H696 C734 0.930 . S
H697 C735 0.929 . S
H698 C737 0.930 . S
H699 C738 0.931 . S
H700 C740 0.930 . S
H701 C741 0.929 . S
H702 C743 0.931 . S
H703 C744 0.930 . S
H704 C746 0.930 . S
H705 C747 0.932 . S
H706 C749 0.930 . S
H707 C750 0.929 . S
H708 C752 0.931 . S
H709 C753 0.930 . S
H710 C755 0.929 . S
H711 C756 0.931 . S
H712 C758 0.930 . S
H713 C759 0.929 . S
O714 H688 0.856 . S
O714 C760 1.300 . S
O715 C760 1.209 . S
O716 C761 1.199 . S
O717 H689 0.854 . S
O717 C761 1.297 . S
C718 C719 1.404 . S
C718 C723 1.397 . S
C718 C724 1.492 . S
C719 C718 1.404 . S
C719 C720 1.396 . S
C719 C730 1.492 . S
C720 C719 1.396 . S
C720 C721 1.397 . S
C720 C736 1.509 . S
C721 C720 1.397 . S
C721 C722 1.412 . S
C721 C742 1.485 . S
C722 C721 1.412 . S
C722 C723 1.388 . S
C722 C748 1.490 . S
C723 C718 1.397 . S
C723 C722 1.388 . S
C723 C754 1.519 . S
C724 C718 1.492 . S
C724 C725 1.363 . S
C724 C729 1.390 . S
C725 H690 0.930 . S
C725 C724 1.363 . S
C725 C726 1.372 . S
C726 H691 0.930 . S
C726 C725 1.372 . S
C726 C727 1.383 . S
C727 C726 1.383 . S
C727 C728 1.395 . S
C728 H692 0.930 . S
C728 C727 1.395 . S
C728 C729 1.362 . S
C729 H693 0.930 . S
C729 C724 1.390 . S
C729 C728 1.362 . S
C730 C719 1.492 . S
C730 C731 1.377 . S
C730 C735 1.397 . S
C731 H694 0.931 . S
C731 C730 1.377 . S
C731 C732 1.376 . S
C732 H695 0.930 . S
C732 C731 1.376 . S
C732 C733 1.376 . S
C733 C732 1.376 . S
C733 C734 1.378 . S
C733 C760 1.486 . S
C734 H696 0.930 . S
C734 C733 1.378 . S
C734 C735 1.376 . S
C735 H697 0.929 . S
C735 C730 1.397 . S
C735 C734 1.376 . S
C736 C720 1.509 . S
C736 C737 1.391 . S
C736 C741 1.386 . S
C737 H698 0.930 . S
C737 C736 1.391 . S
C737 C738 1.375 . S
C738 H699 0.931 . S
C738 C737 1.375 . S
C738 C739 1.375 . S
C739 C738 1.375 . S
C739 C740 1.361 . S
C740 H700 0.930 . S
C740 C739 1.361 . S
C740 C741 1.399 . S
C741 H701 0.929 . S
C741 C736 1.386 . S
C741 C740 1.399 . S
C742 C721 1.485 . S
C742 C743 1.394 . S
C742 C747 1.360 . S
C743 H702 0.931 . S
C743 C742 1.394 . S
C743 C744 1.372 . S
C744 H703 0.930 . S
C744 C743 1.372 . S
C744 C745 1.397 . S
C745 C744 1.397 . S
C745 C746 1.390 . S
C745 C761 1.476 . S
C746 H704 0.930 . S
C746 C745 1.390 . S
C746 C747 1.366 . S
C747 H705 0.932 . S
C747 C742 1.360 . S
C747 C746 1.366 . S
C748 C722 1.490 . S
C748 C749 1.380 . S
C748 C753 1.386 . S
C749 H706 0.930 . S
C749 C748 1.380 . S
C749 C750 1.381 . S
C750 H707 0.929 . S
C750 C749 1.381 . S
C750 C751 1.371 . S
C751 C750 1.371 . S
C751 C752 1.380 . S
C752 H708 0.931 . S
C752 C751 1.380 . S
C752 C753 1.387 . S
C753 H709 0.930 . S
C753 C748 1.386 . S
C753 C752 1.387 . S
C754 C723 1.519 . S
C754 C755 1.377 . S
C754 C759 1.361 . S
C755 H710 0.929 . S
C755 C754 1.377 . S
C755 C756 1.386 . S
C756 H711 0.931 . S
C756 C755 1.386 . S
C756 C757 1.363 . S
C757 C756 1.363 . S
C757 C758 1.385 . S
C758 H712 0.930 . S
C758 C757 1.385 . S
C758 C759 1.396 . S
C759 H713 0.929 . S
C759 C754 1.361 . S
C759 C758 1.396 . S
C760 O714 1.300 . S
C760 O715 1.209 . S
C760 C733 1.486 . S
C761 O716 1.199 . S
C761 O717 1.297 . S
C761 C745 1.476 . S
H762 C774 0.930 . S
H763 C776 0.930 . S
H764 C777 0.930 . S
H765 C781 0.959 . S
H766 C781 0.959 . S
H767 C781 0.961 . S
H768 C782 0.960 . S
H769 C782 0.961 . S
H770 C782 0.959 . S
H771 C785 0.929 . S
H772 C786 0.931 . S
H773 C788 0.930 . S
C774 H762 0.930 . S
C774 C775 1.399 . S
C774 C779 1.399 . S
C775 C774 1.399 . S
C775 C776 1.376 . S
C776 H763 0.930 . S
C776 C775 1.376 . S
C776 C777 1.388 . S
C777 H764 0.930 . S
C777 C776 1.388 . S
C777 C778 1.390 . S
C778 C777 1.390 . S
C778 C779 1.394 . S
C778 C784 1.465 . S
C779 C774 1.399 . S
C779 C778 1.394 . S
C779 C780 1.516 . S
C780 C779 1.516 . S
C780 C781 1.502 . S
C780 C782 1.561 . S
C780 C783 1.526 . S
C781 H765 0.959 . S
C781 H766 0.959 . S
C781 H767 0.961 . S
C781 C780 1.502 . S
C782 H768 0.960 . S
C782 H769 0.961 . S
C782 H770 0.959 . S
C782 C780 1.561 . S
C783 C780 1.526 . S
C783 C784 1.396 . S
C783 C788 1.390 . S
C784 C778 1.465 . S
C784 C783 1.396 . S
C784 C785 1.399 . S
C785 H771 0.929 . S
C785 C784 1.399 . S
C785 C786 1.385 . S
C786 H772 0.931 . S
C786 C785 1.385 . S
C786 C787 1.389 . S
C787 C786 1.389 . S
C787 C788 1.387 . S
C788 H773 0.930 . S
C788 C783 1.390 . S
C788 C787 1.387 . S
H789 C801 0.930 . S
H790 C803 0.930 . S
H791 C804 0.930 . S
H792 C808 0.959 . S
H793 C808 0.959 . S
H794 C808 0.961 . S
H795 C809 0.960 . S
H796 C809 0.961 . S
H797 C809 0.959 . S
H798 C812 0.929 . S
H799 C813 0.931 . S
H800 C815 0.930 . S
C801 H789 0.930 . S
C801 C802 1.399 . S
C801 C806 1.399 . S
C802 C801 1.399 . S
C802 C803 1.376 . S
C803 H790 0.930 . S
C803 C802 1.376 . S
C803 C804 1.388 . S
C804 H791 0.930 . S
C804 C803 1.388 . S
C804 C805 1.390 . S
C805 C804 1.390 . S
C805 C806 1.394 . S
C805 C811 1.465 . S
C806 C801 1.399 . S
C806 C805 1.394 . S
C806 C807 1.516 . S
C807 C806 1.516 . S
C807 C808 1.502 . S
C807 C809 1.561 . S
C807 C810 1.526 . S
C808 H792 0.959 . S
C808 H793 0.959 . S
C808 H794 0.961 . S
C808 C807 1.502 . S
C809 H795 0.960 . S
C809 H796 0.961 . S
C809 H797 0.959 . S
C809 C807 1.561 . S
C810 C807 1.526 . S
C810 C811 1.396 . S
C810 C815 1.390 . S
C811 C805 1.465 . S
C811 C810 1.396 . S
C811 C812 1.399 . S
C812 H798 0.929 . S
C812 C811 1.399 . S
C812 C813 1.385 . S
C813 H799 0.931 . S
C813 C812 1.385 . S
C813 C814 1.389 . S
C814 C813 1.389 . S
C814 C815 1.387 . S
C815 H800 0.930 . S
C815 C810 1.390 . S
C815 C814 1.387 . S
H816 C828 0.930 . S
H817 C830 0.930 . S
H818 C831 0.930 . S
H819 C835 0.959 . S
H820 C835 0.959 . S
H821 C835 0.961 . S
H822 C836 0.960 . S
H823 C836 0.961 . S
H824 C836 0.959 . S
H825 C839 0.929 . S
H826 C840 0.931 . S
H827 C842 0.930 . S
C828 H816 0.930 . S
C828 C829 1.399 . S
C828 C833 1.399 . S
C829 C828 1.399 . S
C829 C830 1.376 . S
C830 H817 0.930 . S
C830 C829 1.376 . S
C830 C831 1.388 . S
C831 H818 0.930 . S
C831 C830 1.388 . S
C831 C832 1.390 . S
C832 C831 1.390 . S
C832 C833 1.394 . S
C832 C838 1.465 . S
C833 C828 1.399 . S
C833 C832 1.394 . S
C833 C834 1.516 . S
C834 C833 1.516 . S
C834 C835 1.502 . S
C834 C836 1.561 . S
C834 C837 1.526 . S
C835 H819 0.959 . S
C835 H820 0.959 . S
C835 H821 0.961 . S
C835 C834 1.502 . S
C836 H822 0.960 . S
C836 H823 0.961 . S
C836 H824 0.959 . S
C836 C834 1.561 . S
C837 C834 1.526 . S
C837 C838 1.396 . S
C837 C842 1.390 . S
C838 C832 1.465 . S
C838 C837 1.396 . S
C838 C839 1.399 . S
C839 H825 0.929 . S
C839 C838 1.399 . S
C839 C840 1.385 . S
C840 H826 0.931 . S
C840 C839 1.385 . S
C840 C841 1.389 . S
C841 C840 1.389 . S
C841 C842 1.387 . S
C842 H827 0.930 . S
C842 C837 1.390 . S
C842 C841 1.387 . S
H843 C855 0.930 . S
H844 C857 0.930 . S
H845 C858 0.930 . S
H846 C862 0.959 . S
H847 C862 0.959 . S
H848 C862 0.961 . S
H849 C863 0.960 . S
H850 C863 0.961 . S
H851 C863 0.959 . S
H852 C866 0.929 . S
H853 C867 0.931 . S
H854 C869 0.930 . S
C855 H843 0.930 . S
C855 C856 1.399 . S
C855 C860 1.399 . S
C856 C855 1.399 . S
C856 C857 1.376 . S
C857 H844 0.930 . S
C857 C856 1.376 . S
C857 C858 1.388 . S
C858 H845 0.930 . S
C858 C857 1.388 . S
C858 C859 1.390 . S
C859 C858 1.390 . S
C859 C860 1.394 . S
C859 C865 1.465 . S
C860 C855 1.399 . S
C860 C859 1.394 . S
C860 C861 1.516 . S
C861 C860 1.516 . S
C861 C862 1.502 . S
C861 C863 1.561 . S
C861 C864 1.526 . S
C862 H846 0.959 . S
C862 H847 0.959 . S
C862 H848 0.961 . S
C862 C861 1.502 . S
C863 H849 0.960 . S
C863 H850 0.961 . S
C863 H851 0.959 . S
C863 C861 1.561 . S
C864 C861 1.526 . S
C864 C865 1.396 . S
C864 C869 1.390 . S
C865 C859 1.465 . S
C865 C864 1.396 . S
C865 C866 1.399 . S
C866 H852 0.929 . S
C866 C865 1.399 . S
C866 C867 1.385 . S
C867 H853 0.931 . S
C867 C866 1.385 . S
C867 C868 1.389 . S
C868 C867 1.389 . S
C868 C869 1.387 . S
C869 H854 0.930 . S
C869 C864 1.390 . S
C869 C868 1.387 . S
H870 C882 0.930 1_545 S
H871 C884 0.930 . S
H872 C885 0.930 . S
H873 C889 0.959 . S
H874 C889 0.959 . S
H875 C889 0.961 1_545 S
H876 C890 0.987 . S
H877 C890 0.961 . S
H878 C890 0.959 . S
H879 C893 0.929 . S
H880 C894 0.931 . S
H881 C896 0.930 . S
C882 H870 0.930 1_565 S
C882 C883 1.399 . S
C882 C887 1.399 . S
C883 C882 1.399 . S
C883 C884 1.376 . S
C884 H871 0.930 . S
C884 C883 1.376 . S
C884 C885 1.388 . S
C885 H872 0.930 . S
C885 C884 1.388 . S
C885 C886 1.390 . S
C886 C885 1.390 . S
C886 C887 1.394 . S
C886 C892 1.465 . S
C887 C882 1.399 . S
C887 C886 1.394 . S
C887 C888 1.516 . S
C888 C887 1.516 . S
C888 C889 1.502 . S
C888 C890 1.561 . S
C888 C891 1.526 . S
C889 H873 0.959 . S
C889 H874 0.959 . S
C889 H875 0.961 1_565 S
C889 C888 1.502 . S
C890 H876 0.987 . S
C890 H877 0.961 . S
C890 H878 0.959 . S
C890 C888 1.561 . S
C891 C888 1.526 . S
C891 C892 1.396 . S
C891 C896 1.390 . S
C892 C886 1.465 . S
C892 C891 1.396 . S
C892 C893 1.399 . S
C893 H879 0.929 . S
C893 C892 1.399 . S
C893 C894 1.385 . S
C894 H880 0.931 . S
C894 C893 1.385 . S
C894 C895 1.389 . S
C895 C894 1.389 . S
C895 C896 1.387 . S
C896 H881 0.930 . S
C896 C891 1.390 . S
C896 C895 1.387 . S
H897 C909 0.930 . S
H898 C911 0.930 . S
H899 C912 0.930 . S
H900 C916 0.959 . S
H901 C916 0.959 . S
H902 C916 0.961 . S
H903 C917 0.960 . S
H904 C917 0.961 . S
H905 C917 0.959 . S
H906 C920 0.929 . S
H907 C921 0.931 . S
H908 C923 0.930 . S
C909 H897 0.930 . S
C909 C910 1.399 . S
C909 C914 1.399 . S
C910 C909 1.399 . S
C910 C911 1.376 . S
C911 H898 0.930 . S
C911 C910 1.376 . S
C911 C912 1.388 . S
C912 H899 0.930 . S
C912 C911 1.388 . S
C912 C913 1.390 . S
C913 C912 1.390 . S
C913 C914 1.394 . S
C913 C919 1.465 . S
C914 C909 1.399 . S
C914 C913 1.394 . S
C914 C915 1.516 . S
C915 C914 1.516 . S
C915 C916 1.502 . S
C915 C917 1.561 . S
C915 C918 1.526 . S
C916 H900 0.959 . S
C916 H901 0.959 . S
C916 H902 0.961 . S
C916 C915 1.502 . S
C917 H903 0.960 . S
C917 H904 0.961 . S
C917 H905 0.959 . S
C917 C915 1.561 . S
C918 C915 1.526 . S
C918 C919 1.396 . S
C918 C923 1.390 . S
C919 C913 1.465 . S
C919 C918 1.396 . S
C919 C920 1.399 . S
C920 H906 0.929 . S
C920 C919 1.399 . S
C920 C921 1.385 . S
C921 H907 0.931 . S
C921 C920 1.385 . S
C921 C922 1.389 . S
C922 C921 1.389 . S
C922 C923 1.387 . S
C923 H908 0.930 . S
C923 C918 1.390 . S
C923 C922 1.387 . S
H924 C936 0.930 . S
H925 C938 0.930 . S
H926 C939 0.930 . S
H927 C943 0.959 . S
H928 C943 0.959 . S
H929 C943 0.961 . S
H930 C944 0.960 . S
H931 C944 0.961 . S
H932 C944 0.959 . S
H933 C947 0.929 . S
H934 C948 0.931 . S
H935 C950 0.930 . S
C936 H924 0.930 . S
C936 C937 1.399 . S
C936 C941 1.399 . S
C937 C936 1.399 . S
C937 C938 1.376 . S
C938 H925 0.930 . S
C938 C937 1.376 . S
C938 C939 1.388 . S
C939 H926 0.930 . S
C939 C938 1.388 . S
C939 C940 1.390 . S
C940 C939 1.390 . S
C940 C941 1.394 . S
C940 C946 1.465 . S
C941 C936 1.399 . S
C941 C940 1.394 . S
C941 C942 1.516 . S
C942 C941 1.516 . S
C942 C943 1.502 . S
C942 C944 1.561 . S
C942 C945 1.526 . S
C943 H927 0.959 . S
C943 H928 0.959 . S
C943 H929 0.961 . S
C943 C942 1.502 . S
C944 H930 0.960 . S
C944 H931 0.961 . S
C944 H932 0.959 . S
C944 C942 1.561 . S
C945 C942 1.526 . S
C945 C946 1.396 . S
C945 C950 1.390 . S
C946 C940 1.465 . S
C946 C945 1.396 . S
C946 C947 1.399 . S
C947 H933 0.929 . S
C947 C946 1.399 . S
C947 C948 1.385 . S
C948 H934 0.931 . S
C948 C947 1.385 . S
C948 C949 1.389 . S
C949 C948 1.389 . S
C949 C950 1.387 . S
C950 H935 0.930 . S
C950 C945 1.390 . S
C950 C949 1.387 . S
H951 C963 0.930 . S
H952 C965 0.930 . S
H953 C966 0.930 . S
H954 C970 0.959 . S
H955 C970 0.959 . S
H956 C970 0.961 . S
H957 C971 0.960 . S
H958 C971 0.961 . S
H959 C971 0.959 . S
H960 C974 0.929 . S
H961 C975 0.931 . S
H962 C977 0.930 . S
C963 H951 0.930 . S
C963 C964 1.399 . S
C963 C968 1.399 1_554 S
C964 C963 1.399 . S
C964 C965 1.376 . S
C965 H952 0.930 . S
C965 C964 1.376 . S
C965 C966 1.388 . S
C966 H953 0.930 . S
C966 C965 1.388 . S
C966 C967 1.390 1_554 S
C967 C966 1.390 1_556 S
C967 C968 1.394 . S
C967 C973 1.465 . S
C968 C963 1.399 1_556 S
C968 C967 1.394 . S
C968 C969 1.516 . S
C969 C968 1.516 . S
C969 C970 1.502 . S
C969 C971 1.561 . S
C969 C972 1.526 . S
C970 H954 0.959 . S
C970 H955 0.959 . S
C970 H956 0.961 . S
C970 C969 1.502 . S
C971 H957 0.960 . S
C971 H958 0.961 . S
C971 H959 0.959 . S
C971 C969 1.561 . S
C972 C969 1.526 . S
C972 C973 1.396 . S
C972 C977 1.390 . S
C973 C967 1.465 . S
C973 C972 1.396 . S
C973 C974 1.399 . S
C974 H960 0.929 . S
C974 C973 1.399 . S
C974 C975 1.385 . S
C975 H961 0.931 . S
C975 C974 1.385 . S
C975 C976 1.389 . S
C976 C975 1.389 . S
C976 C977 1.387 . S
C977 H962 0.930 . S
C977 C972 1.390 . S
C977 C976 1.387 . S
H978 C990 0.930 . S
H979 C992 0.930 . S
H980 C993 0.930 . S
H981 C997 0.959 . S
H982 C997 0.959 . S
H983 C997 0.961 . S
H984 C998 0.960 . S
H985 C998 0.961 . S
H986 C998 0.959 . S
H987 C1001 0.929 . S
H988 C1002 0.931 . S
H989 C1004 0.930 . S
C990 H978 0.930 . S
C990 C991 1.399 . S
C990 C995 1.399 . S
C991 C990 1.399 . S
C991 C992 1.376 . S
C992 H979 0.930 . S
C992 C991 1.376 . S
C992 C993 1.388 . S
C993 H980 0.930 . S
C993 C992 1.388 . S
C993 C994 1.390 . S
C994 C993 1.390 . S
C994 C995 1.394 . S
C994 C1000 1.465 . S
C995 C990 1.399 . S
C995 C994 1.394 . S
C995 C996 1.516 . S
C996 C995 1.516 . S
C996 C997 1.502 . S
C996 C998 1.561 . S
C996 C999 1.526 . S
C997 H981 0.959 . S
C997 H982 0.959 . S
C997 H983 0.961 . S
C997 C996 1.502 . S
C998 H984 0.960 . S
C998 H985 0.961 . S
C998 H986 0.959 . S
C998 C996 1.561 . S
C999 C996 1.526 . S
C999 C1000 1.396 . S
C999 C1004 1.390 . S
C1000 C994 1.465 . S
C1000 C999 1.396 . S
C1000 C1001 1.399 . S
C1001 H987 0.929 . S
C1001 C1000 1.399 . S
C1001 C1002 1.385 . S
C1002 H988 0.931 . S
C1002 C1001 1.385 . S
C1002 C1003 1.389 . S
C1003 C1002 1.389 . S
C1003 C1004 1.387 . S
C1004 H989 0.930 . S
C1004 C999 1.390 . S
C1004 C1003 1.387 . S
H1005 C1017 0.930 . S
H1006 C1019 0.930 . S
H1007 C1020 0.930 . S
H1008 C1024 0.959 . S
H1009 C1024 0.959 . S
H1010 C1024 0.961 . S
H1011 C1025 0.960 . S
H1012 C1025 0.961 . S
H1013 C1025 0.959 . S
H1014 C1028 0.929 . S
H1015 C1029 0.931 . S
H1016 C1031 0.930 . S
C1017 H1005 0.930 . S
C1017 C1018 1.399 1_556 S
C1017 C1022 1.399 . S
C1018 C1017 1.399 1_554 S
C1018 C1019 1.376 . S
C1019 H1006 0.930 . S
C1019 C1018 1.376 . S
C1019 C1020 1.388 . S
C1020 H1007 0.930 . S
C1020 C1019 1.388 . S
C1020 C1021 1.390 1_554 S
C1021 C1020 1.390 1_556 S
C1021 C1022 1.394 . S
C1021 C1027 1.465 . S
C1022 C1017 1.399 . S
C1022 C1021 1.394 . S
C1022 C1023 1.516 . S
C1023 C1022 1.516 . S
C1023 C1024 1.502 . S
C1023 C1025 1.561 . S
C1023 C1026 1.526 . S
C1024 H1008 0.959 . S
C1024 H1009 0.959 . S
C1024 H1010 0.961 . S
C1024 C1023 1.502 . S
C1025 H1011 0.960 . S
C1025 H1012 0.961 . S
C1025 H1013 0.959 . S
C1025 C1023 1.561 . S
C1026 C1023 1.526 . S
C1026 C1027 1.396 . S
C1026 C1031 1.390 . S
C1027 C1021 1.465 . S
C1027 C1026 1.396 . S
C1027 C1028 1.399 . S
C1028 H1014 0.929 . S
C1028 C1027 1.399 . S
C1028 C1029 1.385 . S
C1029 H1015 0.931 . S
C1029 C1028 1.385 . S
C1029 C1030 1.389 . S
C1030 C1029 1.389 . S
C1030 C1031 1.387 . S
C1031 H1016 0.930 . S
C1031 C1026 1.390 . S
C1031 C1030 1.387 . S
H1032 C1044 0.930 . S
H1033 C1046 0.930 . S
H1034 C1047 0.930 . S
H1035 C1051 0.959 . S
H1036 C1051 0.959 . S
H1037 C1051 0.961 . S
H1038 C1052 0.960 . S
H1039 C1052 0.961 . S
H1040 C1052 0.959 . S
H1041 C1055 0.929 . S
H1042 C1056 0.931 . S
H1043 C1058 0.930 . S
C1044 H1032 0.930 . S
C1044 C1045 1.399 . S
C1044 C1049 1.399 . S
C1045 C1044 1.399 . S
C1045 C1046 1.376 . S
C1046 H1033 0.930 . S
C1046 C1045 1.376 . S
C1046 C1047 1.388 . S
C1047 H1034 0.930 . S
C1047 C1046 1.388 . S
C1047 C1048 1.390 . S
C1048 C1047 1.390 . S
C1048 C1049 1.394 . S
C1048 C1054 1.465 . S
C1049 C1044 1.399 . S
C1049 C1048 1.394 . S
C1049 C1050 1.516 . S
C1050 C1049 1.516 . S
C1050 C1051 1.502 . S
C1050 C1052 1.561 . S
C1050 C1053 1.526 . S
C1051 H1035 0.959 . S
C1051 H1036 0.959 . S
C1051 H1037 0.961 . S
C1051 C1050 1.502 . S
C1052 H1038 0.960 . S
C1052 H1039 0.961 . S
C1052 H1040 0.959 . S
C1052 C1050 1.561 . S
C1053 C1050 1.526 . S
C1053 C1054 1.396 . S
C1053 C1058 1.390 . S
C1054 C1048 1.465 . S
C1054 C1053 1.396 . S
C1054 C1055 1.399 . S
C1055 H1041 0.929 . S
C1055 C1054 1.399 . S
C1055 C1056 1.385 . S
C1056 H1042 0.931 . S
C1056 C1055 1.385 . S
C1056 C1057 1.389 . S
C1057 C1056 1.389 . S
C1057 C1058 1.387 . S
C1058 H1043 0.930 . S
C1058 C1053 1.390 . S
C1058 C1057 1.387 . S
H1059 C1071 0.930 . S
H1060 C1073 0.930 . S
H1061 C1074 0.930 . S
H1062 C1078 0.962 . S
H1063 C1078 0.959 . S
H1064 C1078 0.961 . S
H1065 C1079 0.960 . S
H1066 C1079 0.961 . S
H1067 C1079 0.959 . S
H1068 C1082 0.929 . S
H1069 C1083 0.931 . S
H1070 C1085 0.930 . S
C1071 H1059 0.930 . S
C1071 C1072 1.399 . S
C1071 C1076 1.399 . S
C1072 C1071 1.399 . S
C1072 C1073 1.376 . S
C1073 H1060 0.930 . S
C1073 C1072 1.376 . S
C1073 C1074 1.388 . S
C1074 H1061 0.930 . S
C1074 C1073 1.388 . S
C1074 C1075 1.390 . S
C1075 C1074 1.390 . S
C1075 C1076 1.394 . S
C1075 C1081 1.465 . S
C1076 C1071 1.399 . S
C1076 C1075 1.394 . S
C1076 C1077 1.516 . S
C1077 C1076 1.516 . S
C1077 C1078 1.502 . S
C1077 C1079 1.561 . S
C1077 C1080 1.526 . S
C1078 H1062 0.962 . S
C1078 H1063 0.959 . S
C1078 H1064 0.961 . S
C1078 C1077 1.502 . S
C1079 H1065 0.960 . S
C1079 H1066 0.961 . S
C1079 H1067 0.959 . S
C1079 C1077 1.561 . S
C1080 C1077 1.526 . S
C1080 C1081 1.396 . S
C1080 C1085 1.390 1_455 S
C1081 C1075 1.465 . S
C1081 C1080 1.396 . S
C1081 C1082 1.399 . S
C1082 H1068 0.929 . S
C1082 C1081 1.399 . S
C1082 C1083 1.385 1_455 S
C1083 H1069 0.931 . S
C1083 C1082 1.385 1_655 S
C1083 C1084 1.389 . S
C1084 C1083 1.389 . S
C1084 C1085 1.387 . S
C1085 H1070 0.930 . S
C1085 C1080 1.390 1_655 S
C1085 C1084 1.387 . S
H1086 C1098 0.930 . S
H1087 C1100 0.930 . S
H1088 C1101 0.930 . S
H1089 C1105 0.959 . S
H1090 C1105 0.959 . S
H1091 C1105 0.961 . S
H1092 C1106 0.960 1_455 S
H1093 C1106 0.961 . S
H1094 C1106 0.959 . S
H1095 C1109 0.929 . S
H1096 C1110 0.931 . S
H1097 C1112 0.930 . S
C1098 H1086 0.930 . S
C1098 C1099 1.399 . S
C1098 C1103 1.399 . S
C1099 C1098 1.399 . S
C1099 C1100 1.376 . S
C1100 H1087 0.930 . S
C1100 C1099 1.376 . S
C1100 C1101 1.388 . S
C1101 H1088 0.930 . S
C1101 C1100 1.388 . S
C1101 C1102 1.390 . S
C1102 C1101 1.390 . S
C1102 C1103 1.394 . S
C1102 C1108 1.465 . S
C1103 C1098 1.399 . S
C1103 C1102 1.394 . S
C1103 C1104 1.516 . S
C1104 C1103 1.516 . S
C1104 C1105 1.502 . S
C1104 C1106 1.561 1_455 S
C1104 C1107 1.526 . S
C1105 H1089 0.959 . S
C1105 H1090 0.959 . S
C1105 H1091 0.961 . S
C1105 C1104 1.502 . S
C1106 H1092 0.960 1_655 S
C1106 H1093 0.961 . S
C1106 H1094 0.959 . S
C1106 C1104 1.561 1_655 S
C1107 C1104 1.526 . S
C1107 C1108 1.396 . S
C1107 C1112 1.390 1_455 S
C1108 C1102 1.465 . S
C1108 C1107 1.396 . S
C1108 C1109 1.399 . S
C1109 H1095 0.929 . S
C1109 C1108 1.399 . S
C1109 C1110 1.385 . S
C1110 H1096 0.931 . S
C1110 C1109 1.385 . S
C1110 C1111 1.389 1_455 S
C1111 C1110 1.389 1_655 S
C1111 C1112 1.387 . S
C1112 H1097 0.930 . S
C1112 C1107 1.390 1_655 S
C1112 C1111 1.387 . S
H1113 C1125 0.930 . S
H1114 C1127 0.922 1_545 S
H1115 C1128 0.930 . S
H1116 C1132 0.959 . S
H1117 C1132 0.959 . S
H1118 C1132 0.961 . S
H1119 C1133 0.960 . S
H1120 C1133 0.961 . S
H1121 C1133 0.959 . S
H1122 C1136 0.929 . S
H1123 C1137 0.931 . S
H1124 C1139 0.930 . S
C1125 H1113 0.930 . S
C1125 C1126 1.399 . S
C1125 C1130 1.399 . S
C1126 C1125 1.399 . S
C1126 C1127 1.376 . S
C1127 H1114 0.922 1_565 S
C1127 C1126 1.376 . S
C1127 C1128 1.388 . S
C1128 H1115 0.930 . S
C1128 C1127 1.388 . S
C1128 C1129 1.390 . S
C1129 C1128 1.390 . S
C1129 C1130 1.394 . S
C1129 C1135 1.465 . S
C1130 C1125 1.399 . S
C1130 C1129 1.394 . S
C1130 C1131 1.516 . S
C1131 C1130 1.516 . S
C1131 C1132 1.502 . S
C1131 C1133 1.561 . S
C1131 C1134 1.526 . S
C1132 H1116 0.959 . S
C1132 H1117 0.959 . S
C1132 H1118 0.961 . S
C1132 C1131 1.502 . S
C1133 H1119 0.960 . S
C1133 H1120 0.961 . S
C1133 H1121 0.959 . S
C1133 C1131 1.561 . S
C1134 C1131 1.526 . S
C1134 C1135 1.396 . S
C1134 C1139 1.390 . S
C1135 C1129 1.465 . S
C1135 C1134 1.396 . S
C1135 C1136 1.399 . S
C1136 H1122 0.929 . S
C1136 C1135 1.399 . S
C1136 C1137 1.385 . S
C1137 H1123 0.931 . S
C1137 C1136 1.385 . S
C1137 C1138 1.389 . S
C1138 C1137 1.389 . S
C1138 C1139 1.387 . S
C1139 H1124 0.930 . S
C1139 C1134 1.390 . S
C1139 C1138 1.387 . S
H1140 C1152 0.930 . S
H1141 C1154 0.930 . S
H1142 C1155 0.930 . S
H1143 C1159 0.959 . S
H1144 C1159 0.959 . S
H1145 C1159 0.961 . S
H1146 C1160 0.960 . S
H1147 C1160 0.961 . S
H1148 C1160 0.959 . S
H1149 C1163 0.929 . S
H1150 C1164 0.931 . S
H1151 C1166 0.930 . S
C1152 H1140 0.930 . S
C1152 C1153 1.410 . S
C1152 C1157 1.399 . S
C1153 C1152 1.410 . S
C1153 C1154 1.373 1_556 S
C1154 H1141 0.930 . S
C1154 C1153 1.373 1_554 S
C1154 C1155 1.388 1_554 S
C1155 H1142 0.930 . S
C1155 C1154 1.388 1_556 S
C1155 C1156 1.390 . S
C1156 C1155 1.390 . S
C1156 C1157 1.394 . S
C1156 C1162 1.465 . S
C1157 C1152 1.399 . S
C1157 C1156 1.394 . S
C1157 C1158 1.516 . S
C1158 C1157 1.516 . S
C1158 C1159 1.502 . S
C1158 C1160 1.561 . S
C1158 C1161 1.526 . S
C1159 H1143 0.959 . S
C1159 H1144 0.959 . S
C1159 H1145 0.961 . S
C1159 C1158 1.502 . S
C1160 H1146 0.960 . S
C1160 H1147 0.961 . S
C1160 H1148 0.959 . S
C1160 C1158 1.561 . S
C1161 C1158 1.526 . S
C1161 C1162 1.396 . S
C1161 C1166 1.390 . S
C1162 C1156 1.465 . S
C1162 C1161 1.396 . S
C1162 C1163 1.399 . S
C1163 H1149 0.929 . S
C1163 C1162 1.399 . S
C1163 C1164 1.385 . S
C1164 H1150 0.931 . S
C1164 C1163 1.385 . S
C1164 C1165 1.389 . S
C1165 C1164 1.389 . S
C1165 C1166 1.387 . S
C1166 H1151 0.930 . S
C1166 C1161 1.390 . S
C1166 C1165 1.387 . S
H1167 C1179 0.930 . S
H1168 C1181 0.930 . S
H1169 C1182 0.930 . S
H1170 C1186 0.959 . S
H1171 C1186 0.959 . S
H1172 C1186 0.961 . S
H1173 C1187 0.960 . S
H1174 C1187 0.961 . S
H1175 C1187 0.959 . S
H1176 C1190 0.929 . S
H1177 C1191 0.931 . S
H1178 C1193 0.930 . S
C1179 H1167 0.930 . S
C1179 C1180 1.399 . S
C1179 C1184 1.399 . S
C1180 C1179 1.399 . S
C1180 C1181 1.376 . S
C1181 H1168 0.930 . S
C1181 C1180 1.376 . S
C1181 C1182 1.388 . S
C1182 H1169 0.930 . S
C1182 C1181 1.388 . S
C1182 C1183 1.390 . S
C1183 C1182 1.390 . S
C1183 C1184 1.394 . S
C1183 C1189 1.465 . S
C1184 C1179 1.399 . S
C1184 C1183 1.394 . S
C1184 C1185 1.516 . S
C1185 C1184 1.516 . S
C1185 C1186 1.502 . S
C1185 C1187 1.561 . S
C1185 C1188 1.526 . S
C1186 H1170 0.959 . S
C1186 H1171 0.959 . S
C1186 H1172 0.961 . S
C1186 C1185 1.502 . S
C1187 H1173 0.960 . S
C1187 H1174 0.961 . S
C1187 H1175 0.959 . S
C1187 C1185 1.561 . S
C1188 C1185 1.526 . S
C1188 C1189 1.396 . S
C1188 C1193 1.390 . S
C1189 C1183 1.465 . S
C1189 C1188 1.396 . S
C1189 C1190 1.399 . S
C1190 H1176 0.929 . S
C1190 C1189 1.399 . S
C1190 C1191 1.385 . S
C1191 H1177 0.931 . S
C1191 C1190 1.385 . S
C1191 C1192 1.389 . S
C1192 C1191 1.389 . S
C1192 C1193 1.387 . S
C1193 H1178 0.930 . S
C1193 C1188 1.390 . S
C1193 C1192 1.387 . S
H1194 C1206 0.930 . S
H1195 C1208 0.930 . S
H1196 C1209 0.930 . S
H1197 C1213 0.959 . S
H1198 C1213 0.959 . S
H1199 C1213 0.961 . S
H1200 C1214 0.960 . S
H1201 C1214 0.961 . S
H1202 C1214 0.959 . S
H1203 C1217 0.929 1_554 S
H1204 C1218 0.931 . S
H1205 C1220 0.930 . S
C1206 H1194 0.930 . S
C1206 C1207 1.399 1_556 S
C1206 C1211 1.399 . S
C1207 C1206 1.399 1_554 S
C1207 C1208 1.376 . S
C1208 H1195 0.930 . S
C1208 C1207 1.376 . S
C1208 C1209 1.388 . S
C1209 H1196 0.930 . S
C1209 C1208 1.388 . S
C1209 C1210 1.390 1_554 S
C1210 C1209 1.390 1_556 S
C1210 C1211 1.394 . S
C1210 C1216 1.465 . S
C1211 C1206 1.399 . S
C1211 C1210 1.394 . S
C1211 C1212 1.516 . S
C1212 C1211 1.516 . S
C1212 C1213 1.502 . S
C1212 C1214 1.561 . S
C1212 C1215 1.526 . S
C1213 H1197 0.959 . S
C1213 H1198 0.959 . S
C1213 H1199 0.961 . S
C1213 C1212 1.502 . S
C1214 H1200 0.960 . S
C1214 H1201 0.961 . S
C1214 H1202 0.959 . S
C1214 C1212 1.561 . S
C1215 C1212 1.526 . S
C1215 C1216 1.396 . S
C1215 C1220 1.390 . S
C1216 C1210 1.465 . S
C1216 C1215 1.396 . S
C1216 C1217 1.399 . S
C1217 H1203 0.929 1_556 S
C1217 C1216 1.399 . S
C1217 C1218 1.385 . S
C1218 H1204 0.931 . S
C1218 C1217 1.385 . S
C1218 C1219 1.389 . S
C1219 C1218 1.389 . S
C1219 C1220 1.387 . S
C1220 H1205 0.930 . S
C1220 C1215 1.390 . S
C1220 C1219 1.387 . S
H1221 C1233 0.930 . S
H1222 C1235 0.930 . S
H1223 C1236 0.930 . S
H1224 C1240 0.959 . S
H1225 C1240 0.959 . S
H1226 C1240 0.961 . S
H1227 C1241 0.960 . S
H1228 C1241 0.961 . S
H1229 C1241 0.959 . S
H1230 C1244 0.929 . S
H1231 C1245 0.931 . S
H1232 C1247 0.930 . S
C1233 H1221 0.930 . S
C1233 C1234 1.399 . S
C1233 C1238 1.399 . S
C1234 C1233 1.399 . S
C1234 C1235 1.376 . S
C1235 H1222 0.930 . S
C1235 C1234 1.376 . S
C1235 C1236 1.388 . S
C1236 H1223 0.930 . S
C1236 C1235 1.388 . S
C1236 C1237 1.390 . S
C1237 C1236 1.390 . S
C1237 C1238 1.394 . S
C1237 C1243 1.465 . S
C1238 C1233 1.399 . S
C1238 C1237 1.394 . S
C1238 C1239 1.516 . S
C1239 C1238 1.516 . S
C1239 C1240 1.502 . S
C1239 C1241 1.561 . S
C1239 C1242 1.526 . S
C1240 H1224 0.959 . S
C1240 H1225 0.959 . S
C1240 H1226 0.961 . S
C1240 C1239 1.502 . S
C1241 H1227 0.960 . S
C1241 H1228 0.961 . S
C1241 H1229 0.959 . S
C1241 C1239 1.561 . S
C1242 C1239 1.526 . S
C1242 C1243 1.396 . S
C1242 C1247 1.390 . S
C1243 C1237 1.465 . S
C1243 C1242 1.396 . S
C1243 C1244 1.399 . S
C1244 H1230 0.929 . S
C1244 C1243 1.399 . S
C1244 C1245 1.385 . S
C1245 H1231 0.931 . S
C1245 C1244 1.385 . S
C1245 C1246 1.389 . S
C1246 C1245 1.389 . S
C1246 C1247 1.387 . S
C1247 H1232 0.930 . S
C1247 C1242 1.390 . S
C1247 C1246 1.387 . S
H1248 C1260 0.930 . S
H1249 C1262 0.930 . S
H1250 C1263 0.930 . S
H1251 C1267 0.959 . S
H1252 C1267 0.959 . S
H1253 C1267 0.961 . S
H1254 C1268 0.960 . S
H1255 C1268 0.961 . S
H1256 C1268 0.959 . S
H1257 C1271 0.929 . S
H1258 C1272 0.931 . S
H1259 C1274 0.930 . S
C1260 H1248 0.930 . S
C1260 C1261 1.399 . S
C1260 C1265 1.399 . S
C1261 C1260 1.399 . S
C1261 C1262 1.376 . S
C1262 H1249 0.930 . S
C1262 C1261 1.376 . S
C1262 C1263 1.388 . S
C1263 H1250 0.930 . S
C1263 C1262 1.388 . S
C1263 C1264 1.390 . S
C1264 C1263 1.390 . S
C1264 C1265 1.394 . S
C1264 C1270 1.465 . S
C1265 C1260 1.399 . S
C1265 C1264 1.394 . S
C1265 C1266 1.516 . S
C1266 C1265 1.516 . S
C1266 C1267 1.502 . S
C1266 C1268 1.561 . S
C1266 C1269 1.526 . S
C1267 H1251 0.959 . S
C1267 H1252 0.959 . S
C1267 H1253 0.961 . S
C1267 C1266 1.502 . S
C1268 H1254 0.960 . S
C1268 H1255 0.961 . S
C1268 H1256 0.959 . S
C1268 C1266 1.561 . S
C1269 C1266 1.526 . S
C1269 C1270 1.396 . S
C1269 C1274 1.390 . S
C1270 C1264 1.465 . S
C1270 C1269 1.396 . S
C1270 C1271 1.399 . S
C1271 H1257 0.929 . S
C1271 C1270 1.399 . S
C1271 C1272 1.385 . S
C1272 H1258 0.931 . S
C1272 C1271 1.385 . S
C1272 C1273 1.389 . S
C1273 C1272 1.389 . S
C1273 C1274 1.387 . S
C1274 H1259 0.930 . S
C1274 C1269 1.390 . S
C1274 C1273 1.387 . S
H1275 C1287 0.930 . S
H1276 C1289 0.930 . S
H1277 C1290 0.930 . S
H1278 C1294 0.959 . S
H1279 C1294 0.959 . S
H1280 C1294 0.961 . S
H1281 C1295 0.960 . S
H1282 C1295 0.961 . S
H1283 C1295 0.959 . S
H1284 C1298 0.929 . S
H1285 C1299 0.931 . S
H1286 C1301 0.930 . S
C1287 H1275 0.930 . S
C1287 C1288 1.399 . S
C1287 C1292 1.399 . S
C1288 C1287 1.399 . S
C1288 C1289 1.376 . S
C1289 H1276 0.930 . S
C1289 C1288 1.376 . S
C1289 C1290 1.388 . S
C1290 H1277 0.930 . S
C1290 C1289 1.388 . S
C1290 C1291 1.390 . S
C1291 C1290 1.390 . S
C1291 C1292 1.394 . S
C1291 C1297 1.465 . S
C1292 C1287 1.399 . S
C1292 C1291 1.394 . S
C1292 C1293 1.516 . S
C1293 C1292 1.516 . S
C1293 C1294 1.502 . S
C1293 C1295 1.561 . S
C1293 C1296 1.526 . S
C1294 H1278 0.959 . S
C1294 H1279 0.959 . S
C1294 H1280 0.961 . S
C1294 C1293 1.502 . S
C1295 H1281 0.960 . S
C1295 H1282 0.961 . S
C1295 H1283 0.959 . S
C1295 C1293 1.561 . S
C1296 C1293 1.526 . S
C1296 C1297 1.396 . S
C1296 C1301 1.390 . S
C1297 C1291 1.465 . S
C1297 C1296 1.396 . S
C1297 C1298 1.399 . S
C1298 H1284 0.929 . S
C1298 C1297 1.399 . S
C1298 C1299 1.385 . S
C1299 H1285 0.931 . S
C1299 C1298 1.385 . S
C1299 C1300 1.389 . S
C1300 C1299 1.389 . S
C1300 C1301 1.387 . S
C1301 H1286 0.930 . S
C1301 C1296 1.390 . S
C1301 C1300 1.387 . S
H1302 C1314 0.930 . S
H1303 C1316 0.922 1_455 S
H1304 C1317 0.930 1_455 S
H1305 C1321 0.959 . S
H1306 C1321 0.959 . S
H1307 C1321 0.961 . S
H1308 C1322 0.960 . S
H1309 C1322 0.961 . S
H1310 C1322 0.959 . S
H1311 C1325 0.929 . S
H1312 C1326 0.931 . S
H1313 C1328 0.930 . S
C1314 H1302 0.930 . S
C1314 C1315 1.399 . S
C1314 C1319 1.399 . S
C1315 C1314 1.399 . S
C1315 C1316 1.376 . S
C1316 H1303 0.922 1_655 S
C1316 C1315 1.376 . S
C1316 C1317 1.388 . S
C1317 H1304 0.930 1_655 S
C1317 C1316 1.388 . S
C1317 C1318 1.390 . S
C1318 C1317 1.390 . S
C1318 C1319 1.394 . S
C1318 C1324 1.465 . S
C1319 C1314 1.399 . S
C1319 C1318 1.394 . S
C1319 C1320 1.516 . S
C1320 C1319 1.516 . S
C1320 C1321 1.502 . S
C1320 C1322 1.561 . S
C1320 C1323 1.526 . S
C1321 H1305 0.959 . S
C1321 H1306 0.959 . S
C1321 H1307 0.961 . S
C1321 C1320 1.502 . S
C1322 H1308 0.960 . S
C1322 H1309 0.961 . S
C1322 H1310 0.959 . S
C1322 C1320 1.561 . S
C1323 C1320 1.526 . S
C1323 C1324 1.396 . S
C1323 C1328 1.390 . S
C1324 C1318 1.465 . S
C1324 C1323 1.396 . S
C1324 C1325 1.399 . S
C1325 H1311 0.929 . S
C1325 C1324 1.399 . S
C1325 C1326 1.385 . S
C1326 H1312 0.931 . S
C1326 C1325 1.385 . S
C1326 C1327 1.389 . S
C1327 C1326 1.389 . S
C1327 C1328 1.387 . S
C1328 H1313 0.930 . S
C1328 C1323 1.390 . S
C1328 C1327 1.387 . S
H1329 C1341 0.930 . S
H1330 C1343 0.930 . S
H1331 C1344 0.930 . S
H1332 C1348 0.959 1_565 S
H1333 C1348 0.959 . S
H1334 C1348 0.961 . S
H1335 C1349 0.960 . S
H1336 C1349 0.961 . S
H1337 C1349 0.959 . S
H1338 C1352 0.929 . S
H1339 C1353 0.931 . S
H1340 C1355 0.930 . S
C1341 H1329 0.930 . S
C1341 C1342 1.399 1_545 S
C1341 C1346 1.399 1_545 S
C1342 C1341 1.399 1_565 S
C1342 C1343 1.376 . S
C1343 H1330 0.930 . S
C1343 C1342 1.376 . S
C1343 C1344 1.388 . S
C1344 H1331 0.930 . S
C1344 C1343 1.388 . S
C1344 C1345 1.390 . S
C1345 C1344 1.390 . S
C1345 C1346 1.394 . S
C1345 C1351 1.465 . S
C1346 C1341 1.399 1_565 S
C1346 C1345 1.394 . S
C1346 C1347 1.516 . S
C1347 C1346 1.516 . S
C1347 C1348 1.502 1_565 S
C1347 C1349 1.561 1_565 S
C1347 C1350 1.526 . S
C1348 H1332 0.959 1_545 S
C1348 H1333 0.959 . S
C1348 H1334 0.961 . S
C1348 C1347 1.502 1_545 S
C1349 H1335 0.960 . S
C1349 H1336 0.961 . S
C1349 H1337 0.959 . S
C1349 C1347 1.561 1_545 S
C1350 C1347 1.526 . S
C1350 C1351 1.396 . S
C1350 C1355 1.390 . S
C1351 C1345 1.465 . S
C1351 C1350 1.396 . S
C1351 C1352 1.399 . S
C1352 H1338 0.929 . S
C1352 C1351 1.399 . S
C1352 C1353 1.385 . S
C1353 H1339 0.931 . S
C1353 C1352 1.385 . S
C1353 C1354 1.389 . S
C1354 C1353 1.389 . S
C1354 C1355 1.387 . S
C1355 H1340 0.930 . S
C1355 C1350 1.390 . S
C1355 C1354 1.387 . S
H1356 C1368 0.930 . S
H1357 C1370 0.930 . S
H1358 C1371 0.930 . S
H1359 C1375 0.959 . S
H1360 C1375 0.959 . S
H1361 C1375 0.961 . S
H1362 C1376 0.960 . S
H1363 C1376 0.961 . S
H1364 C1376 0.959 . S
H1365 C1379 0.929 . S
H1366 C1380 0.931 . S
H1367 C1382 0.930 . S
C1368 H1356 0.930 . S
C1368 C1369 1.399 . S
C1368 C1373 1.399 . S
C1369 C1368 1.399 . S
C1369 C1370 1.376 . S
C1370 H1357 0.930 . S
C1370 C1369 1.376 . S
C1370 C1371 1.388 . S
C1371 H1358 0.930 . S
C1371 C1370 1.388 . S
C1371 C1372 1.390 . S
C1372 C1371 1.390 . S
C1372 C1373 1.394 . S
C1372 C1378 1.465 . S
C1373 C1368 1.399 . S
C1373 C1372 1.394 . S
C1373 C1374 1.516 . S
C1374 C1373 1.516 . S
C1374 C1375 1.502 . S
C1374 C1376 1.561 . S
C1374 C1377 1.526 . S
C1375 H1359 0.959 . S
C1375 H1360 0.959 . S
C1375 H1361 0.961 . S
C1375 C1374 1.502 . S
C1376 H1362 0.960 . S
C1376 H1363 0.961 . S
C1376 H1364 0.959 . S
C1376 C1374 1.561 . S
C1377 C1374 1.526 . S
C1377 C1378 1.396 . S
C1377 C1382 1.390 . S
C1378 C1372 1.465 . S
C1378 C1377 1.396 . S
C1378 C1379 1.399 . S
C1379 H1365 0.929 . S
C1379 C1378 1.399 . S
C1379 C1380 1.385 . S
C1380 H1366 0.931 . S
C1380 C1379 1.385 . S
C1380 C1381 1.389 . S
C1381 C1380 1.389 . S
C1381 C1382 1.387 . S
C1382 H1367 0.930 . S
C1382 C1377 1.390 . S
C1382 C1381 1.387 . S
H1383 C1395 0.930 . S
H1384 C1397 0.930 . S
H1385 C1398 0.930 . S
H1386 C1402 0.959 . S
H1387 C1402 0.959 . S
H1388 C1402 0.961 . S
H1389 C1403 0.960 . S
H1390 C1403 0.961 . S
H1391 C1403 0.959 . S
H1392 C1406 0.929 . S
H1393 C1407 0.931 . S
H1394 C1409 0.930 . S
C1395 H1383 0.930 . S
C1395 C1396 1.399 . S
C1395 C1400 1.399 . S
C1396 C1395 1.399 . S
C1396 C1397 1.376 . S
C1397 H1384 0.930 . S
C1397 C1396 1.376 . S
C1397 C1398 1.388 . S
C1398 H1385 0.930 . S
C1398 C1397 1.388 . S
C1398 C1399 1.390 . S
C1399 C1398 1.390 . S
C1399 C1400 1.394 . S
C1399 C1405 1.465 . S
C1400 C1395 1.399 . S
C1400 C1399 1.394 . S
C1400 C1401 1.516 . S
C1401 C1400 1.516 . S
C1401 C1402 1.502 . S
C1401 C1403 1.561 . S
C1401 C1404 1.526 . S
C1402 H1386 0.959 . S
C1402 H1387 0.959 . S
C1402 H1388 0.961 . S
C1402 C1401 1.502 . S
C1403 H1389 0.960 . S
C1403 H1390 0.961 . S
C1403 H1391 0.959 . S
C1403 C1401 1.561 . S
C1404 C1401 1.526 . S
C1404 C1405 1.396 . S
C1404 C1409 1.390 . S
C1405 C1399 1.465 . S
C1405 C1404 1.396 . S
C1405 C1406 1.399 . S
C1406 H1392 0.929 . S
C1406 C1405 1.399 . S
C1406 C1407 1.385 . S
C1407 H1393 0.931 . S
C1407 C1406 1.385 . S
C1407 C1408 1.389 . S
C1408 C1407 1.389 . S
C1408 C1409 1.387 . S
C1409 H1394 0.930 . S
C1409 C1404 1.390 . S
C1409 C1408 1.387 . S
C775 C39 2.229 . S
C787 C381 2.193 . S
C802 C91 1.419 . S
C814 C455 1.364 . S
C841 C505 1.676 . S
C829 C128 1.752 . S
C868 C591 1.106 . S
C856 C188 1.167 . S
C895 C683 1.904 . S
C883 C250 1.895 1_565 S
C922 C727 1.892 . S
C910 C304 1.924 . S
C937 C75 1.174 . S
C949 C529 1.189 . S
C964 C144 2.490 . S
C976 C609 2.498 . S
C1003 C665 1.438 . S
C991 C198 1.402 . S
C1030 C751 1.307 . S
C1018 C234 1.303 . S
C1045 C294 2.105 . S
C1057 C357 1.950 . S
C1084 C431 1.814 . S
C1072 C29 1.843 . S
C1111 C603 2.061 . S
C1099 C38 2.170 . S
C1126 C92 2.146 . S
C1138 C653 2.053 . S
C1165 C757 2.214 . S
C1153 C135 2.326 1_556 S
C1180 C181 1.286 . S
C1192 C369 1.249 . S
C1207 C251 1.904 . S
C1219 C443 1.850 . S
C1234 C303 2.419 . S
C1246 C535 2.357 . S
C1261 C82 1.848 . S
C1273 C739 1.708 . S
C1300 C387 2.260 . S
C1288 C145 2.281 . S
C1315 C197 2.290 . S
C1327 C461 2.241 . S
C1342 C241 1.630 1_565 S
C1354 C517 1.456 . S
C1369 C287 1.572 . S
C1381 C579 1.408 . S
C1396 C22 1.941 . S
C1408 C677 1.825 . S
