# Generated by pormake.
# Topology pyr, (3,6)-cn, num edge types: 1
# Building blocks:
#     Node 0, Type 0, BuildingBlock: ESEHIV_clean_linker_0, # of connection points: 3
#     Node 1, Type 0, BuildingBlock: ESEHIV_clean_linker_0, # of connection points: 3
#     Node 2, Type 0, BuildingBlock: ESEHIV_clean_linker_0, # of connection points: 3
#     Node 3, Type 0, BuildingBlock: ESEHIV_clean_linker_0, # of connection points: 3
#     Node 4, Type 0, BuildingBlock: ESEHIV_clean_linker_0, # of connection points: 3
#     Node 5, Type 0, BuildingBlock: ESEHIV_clean_linker_0, # of connection points: 3
#     Node 6, Type 0, BuildingBlock: ESEHIV_clean_linker_0, # of connection points: 3
#     Node 7, Type 0, BuildingBlock: ESEHIV_clean_linker_0, # of connection points: 3
#     Node 8, Type 1, BuildingBlock: GEDQOX_clean_sbu_0, # of connection points: 6
#     Node 9, Type 1, BuildingBlock: GEDQOX_clean_sbu_0, # of connection points: 6
#     Node 10, Type 1, BuildingBlock: GEDQOX_clean_sbu_0, # of connection points: 6
#     Node 11, Type 1, BuildingBlock: GEDQOX_clean_sbu_0, # of connection points: 6
#     Edge 12, Type (0, 1), BuildingBlock: EZIPEK_clean_linker_0, # of connection points: 2
#     Edge 13, Type (0, 1), BuildingBlock: EZIPEK_clean_linker_0, # of connection points: 2
#     Edge 14, Type (0, 1), BuildingBlock: EZIPEK_clean_linker_0, # of connection points: 2
#     Edge 15, Type (0, 1), BuildingBlock: EZIPEK_clean_linker_0, # of connection points: 2
#     Edge 16, Type (0, 1), BuildingBlock: EZIPEK_clean_linker_0, # of connection points: 2
#     Edge 17, Type (0, 1), BuildingBlock: EZIPEK_clean_linker_0, # of connection points: 2
#     Edge 18, Type (0, 1), BuildingBlock: EZIPEK_clean_linker_0, # of connection points: 2
#     Edge 19, Type (0, 1), BuildingBlock: EZIPEK_clean_linker_0, # of connection points: 2
#     Edge 20, Type (0, 1), BuildingBlock: EZIPEK_clean_linker_0, # of connection points: 2
#     Edge 21, Type (0, 1), BuildingBlock: EZIPEK_clean_linker_0, # of connection points: 2
#     Edge 22, Type (0, 1), BuildingBlock: EZIPEK_clean_linker_0, # of connection points: 2
#     Edge 23, Type (0, 1), BuildingBlock: EZIPEK_clean_linker_0, # of connection points: 2
#     Edge 24, Type (0, 1), BuildingBlock: EZIPEK_clean_linker_0, # of connection points: 2
#     Edge 25, Type (0, 1), BuildingBlock: EZIPEK_clean_linker_0, # of connection points: 2
#     Edge 26, Type (0, 1), BuildingBlock: EZIPEK_clean_linker_0, # of connection points: 2
#     Edge 27, Type (0, 1), BuildingBlock: EZIPEK_clean_linker_0, # of connection points: 2
#     Edge 28, Type (0, 1), BuildingBlock: EZIPEK_clean_linker_0, # of connection points: 2
#     Edge 29, Type (0, 1), BuildingBlock: EZIPEK_clean_linker_0, # of connection points: 2
#     Edge 30, Type (0, 1), BuildingBlock: EZIPEK_clean_linker_0, # of connection points: 2
#     Edge 31, Type (0, 1), BuildingBlock: EZIPEK_clean_linker_0, # of connection points: 2
#     Edge 32, Type (0, 1), BuildingBlock: EZIPEK_clean_linker_0, # of connection points: 2
#     Edge 33, Type (0, 1), BuildingBlock: EZIPEK_clean_linker_0, # of connection points: 2
#     Edge 34, Type (0, 1), BuildingBlock: EZIPEK_clean_linker_0, # of connection points: 2
#     Edge 35, Type (0, 1), BuildingBlock: EZIPEK_clean_linker_0, # of connection points: 2
# Relax obj value: 0.212
# Max RMSD: 0.186
# Mean RMSD: 0.079
data_MOF--net-pyr--node1-GEDQOX_clean_sbu_0--node2-ESEHIV_clean_linker_0--edge1-EZIPEK_clean_linker_0
_symmetry_space_group_name_H-M    P1
_symmetry_Int_Tables_number       1
_symmetry_cell_setting            triclinic
loop_
_symmetry_equiv_pos_as_xyz
'x, y, z'
_cell_length_a     27.192564
_cell_length_b     27.780058
_cell_length_c     23.946893
_cell_angle_alpha  87.952182
_cell_angle_beta   90.487449
_cell_angle_gamma 82.35294
loop_
_atom_site_label
_atom_site_type_symbol
_atom_site_fract_x
_atom_site_fract_y
_atom_site_fract_z
_atom_type_partial_charge
H0 H 0.13701 0.22873 0.2254 0.0
H1 H 0.25494 0.10837 0.22828 0.0
H2 H 0.25993 0.23091 0.11253 0.0
C3 C 0.17172 0.21145 0.20906 0.0
C4 C 0.19462 0.23568 0.16465 0.0
C5 C 0.19303 0.16564 0.23322 0.0
C6 C 0.23861 0.14335 0.2106 0.0
C7 C 0.26428 0.16598 0.16688 0.0
C8 C 0.24128 0.21246 0.14503 0.0
H9 H 0.3505 0.87256 0.82253 0.0
H10 H 0.49541 0.78599 0.8223 0.0
H11 H 0.38115 0.75901 0.70869 0.0
C12 C 0.37582 0.8416 0.81053 0.0
C13 C 0.36065 0.81582 0.76559 0.0
C14 C 0.4229 0.82846 0.83711 0.0
C15 C 0.45685 0.79339 0.80967 0.0
C16 C 0.44152 0.76798 0.76397 0.0
C17 C 0.39316 0.77871 0.74358 0.0
H18 H 0.82424 0.36499 0.89865 0.0
H19 H 0.8117 0.4988 0.79778 0.0
H20 H 0.71608 0.39142 0.76868 0.0
C21 C 0.80624 0.39063 0.86785 0.0
C22 C 0.76796 0.37498 0.83677 0.0
C23 C 0.81897 0.43819 0.85974 0.0
C24 C 0.79942 0.46465 0.81044 0.0
C25 C 0.76241 0.44774 0.77747 0.0
C26 C 0.74631 0.40351 0.792 0.0
H27 H 0.77318 0.96256 0.34801 0.0
H28 H 0.93124 0.92 0.33578 0.0
H29 H 0.8303 0.82615 0.27905 0.0
C30 C 0.80442 0.93802 0.33364 0.0
C31 C 0.79634 0.89309 0.31248 0.0
C32 C 0.85333 0.94756 0.34355 0.0
C33 C 0.89343 0.91429 0.32623 0.0
C34 C 0.88493 0.87129 0.3016 0.0
C35 C 0.83644 0.86147 0.29364 0.0
H36 H 0.85096 0.95951 0.84791 0.0
H37 H 0.96525 0.83601 0.83828 0.0
H38 H 0.84766 0.83344 0.95792 0.0
C39 C 0.86731 0.92352 0.86244 0.0
C40 C 0.843 0.89959 0.90611 0.0
C41 C 0.9114 0.9012 0.83605 0.0
C42 C 0.93195 0.85381 0.85718 0.0
C43 C 0.91068 0.82875 0.90224 0.0
C44 C 0.86551 0.85224 0.92505 0.0
H45 H 0.59751 0.27925 0.28253 0.0
H46 H 0.74642 0.20704 0.25741 0.0
H47 H 0.72096 0.32031 0.37461 0.0
C48 C 0.63705 0.27518 0.29109 0.0
C49 C 0.65599 0.30548 0.33011 0.0
C50 C 0.66958 0.23938 0.26357 0.0
C51 C 0.7208 0.23454 0.27686 0.0
C52 C 0.73881 0.26275 0.3179 0.0
C53 C 0.70663 0.29859 0.343 0.0
H54 H 0.28215 0.69238 0.16816 0.0
H55 H 0.2767 0.57279 0.28716 0.0
H56 H 0.38394 0.67189 0.30751 0.0
C57 C 0.29552 0.67237 0.2062 0.0
C58 C 0.33485 0.68696 0.23649 0.0
C59 C 0.27428 0.63122 0.22423 0.0
C60 C 0.29247 0.60495 0.27339 0.0
C61 C 0.33236 0.61957 0.30348 0.0
C62 C 0.35285 0.66074 0.28485 0.0
H63 H 0.2068 0.16404 0.69813 0.0
H64 H 0.35856 0.09466 0.68772 0.0
H65 H 0.32684 0.24428 0.73067 0.0
C66 C 0.24644 0.16496 0.70185 0.0
C67 C 0.26343 0.20721 0.71958 0.0
C68 C 0.28028 0.12402 0.68894 0.0
C69 C 0.33168 0.12613 0.6948 0.0
C70 C 0.34841 0.17051 0.70652 0.0
C71 C 0.3141 0.21019 0.72043 0.0
Nd72 Nd 0.07122 0.98694 0.51796 0.0
Nd73 Nd 1.03499 0.08169 0.55453 0.0
C74 C 0.08829 0.89369 0.50001 0.0
C75 C 0.11664 0.85884 0.54034 0.0
C76 C 0.16521 0.83913 0.52686 0.0
C77 C 0.20058 0.82584 0.56921 0.0
C78 C 0.18753 0.83139 0.62539 0.0
C79 C 0.13774 0.84452 0.63906 0.0
C80 C 0.10237 0.85792 0.5968 0.0
C81 C 0.1431 1.02343 0.57804 0.0
C82 C 1.00895 0.99463 0.63998 0.0
C83 C 1.01589 0.17527 0.57118 0.0
C84 C 0.98985 0.21095 0.53012 0.0
C85 C 1.00319 0.2091 0.47338 0.0
C86 C 0.96809 0.22482 0.43146 0.0
C87 C 0.91963 0.24335 0.44584 0.0
C88 C 0.90835 0.25152 0.5021 0.0
C89 C 0.94334 0.23552 0.54405 0.0
C90 C 0.96671 0.04394 0.48972 0.0
C91 C 0.09726 0.07555 0.43273 0.0
O92 O 1.04487 0.91444 0.51597 0.0
O93 O 0.11455 0.92499 0.4771 0.0
O94 O 0.15149 0.99491 0.53696 0.0
O95 O 0.09774 1.02847 0.59106 0.0
O96 O 1.0233 0.96789 0.59656 0.0
O97 O 1.0158 0.0411 0.63785 0.0
O98 O 0.06015 0.15464 0.5579 0.0
O99 O 0.98823 0.14383 0.59101 0.0
O100 O 0.95567 0.06731 0.53448 0.0
O101 O 1.01209 0.04172 0.47915 0.0
O102 O 0.08008 0.10222 0.47505 0.0
O103 O 0.09283 1.02837 0.43583 0.0
H104 H 0.17724 0.8394 0.48384 0.0
H105 H 0.23894 0.81531 0.55808 0.0
H106 H 0.1271 0.84826 0.68232 0.0
H107 H 0.06517 0.87231 0.60884 0.0
H108 H 1.03894 0.19104 0.46106 0.0
H109 H 0.97738 0.21833 0.38822 0.0
H110 H 0.87099 0.26585 0.51379 0.0
H111 H 0.93207 0.2373 0.58731 0.0
Nd112 Nd 0.55747 1.00653 0.0867 0.0
Nd113 Nd 0.55213 0.05595 0.99945 0.0
C114 C 0.56143 0.93595 0.16448 0.0
C115 C 0.52473 0.90319 0.17691 0.0
C116 C 0.53729 0.86115 0.21073 0.0
C117 C 0.50306 0.82824 0.21851 0.0
C118 C 0.45606 0.83739 0.19257 0.0
C119 C 0.44321 0.87991 0.15958 0.0
C120 C 0.4774 0.91264 0.15174 0.0
C121 C 0.46732 0.07118 0.09325 0.0
C122 C 0.50417 0.96074 0.98338 0.0
C123 C 0.54467 0.12767 0.92295 0.0
C124 C 0.58192 0.15792 0.90438 0.0
C125 C 0.56724 0.20329 0.87787 0.0
C126 C 0.60242 0.23434 0.86582 0.0
C127 C 0.6525 0.22015 0.8804 0.0
C128 C 0.66742 0.17422 0.90565 0.0
C129 C 0.63224 0.14325 0.91772 0.0
C130 C 0.64183 0.99164 0.98837 0.0
C131 C 0.6042 0.09994 0.10797 0.0
O132 O 0.58241 0.93042 0.11603 0.0
O133 O 0.54746 0.98144 0.17434 0.0
O134 O 0.50382 0.06645 0.1288 0.0
O135 O 0.48187 0.04619 0.05097 0.0
O136 O 0.52828 0.95051 1.03064 0.0
O137 O 0.50067 1.00545 0.9631 0.0
O138 O 0.53049 0.13358 0.97437 0.0
O139 O 0.55364 0.08203 0.911 0.0
O140 O 0.60703 1.0025 0.95126 0.0
O141 O 0.62761 1.01362 1.03318 0.0
O142 O 0.58186 0.11067 0.05933 0.0
O143 O 0.60709 0.05506 0.12693 0.0
H144 H 0.57361 0.85353 0.23035 0.0
H145 H 0.51332 0.79545 0.24414 0.0
H146 H 0.40708 0.88728 0.13931 0.0
H147 H 0.46722 0.94497 0.12529 0.0
H148 H 0.52851 0.21518 0.86823 0.0
H149 H 0.59045 0.26997 0.84674 0.0
H150 H 0.70588 0.16313 0.91762 0.0
H151 H 0.64403 0.10849 0.93902 0.0
Nd152 Nd 0.5157 0.50861 0.57622 0.0
Nd153 Nd 0.57306 0.57633 0.50447 0.0
C154 C 0.45117 0.45384 0.61553 0.0
C155 C 0.45516 0.40379 0.63806 0.0
C156 C 0.41213 0.38447 0.65336 0.0
C157 C 0.41497 0.33577 0.67069 0.0
C158 C 0.46088 0.30579 0.67297 0.0
C159 C 0.50437 0.32555 0.65984 0.0
C160 C 0.50147 0.37444 0.64216 0.0
C161 C 0.61162 0.50129 0.61981 0.0
C162 C 0.51602 0.61671 0.61735 0.0
C163 C 0.62326 0.64453 0.46421 0.0
C164 C 0.6334 0.67779 0.41751 0.0
C165 C 0.68202 0.6753 0.39777 0.0
C166 C 0.69698 0.71473 0.36789 0.0
C167 C 0.66361 0.75727 0.35763 0.0
C168 C 0.61359 0.7578 0.37144 0.0
C169 C 0.59849 0.71818 0.40128 0.0
C170 C 0.48112 0.56458 0.46179 0.0
C171 C 0.58115 0.46422 0.46967 0.0
O172 O 0.47136 0.48426 0.64616 0.0
O173 O 0.46051 0.45854 0.56214 0.0
O174 O 0.57753 0.47768 0.63994 0.0
O175 O 0.59446 0.52707 0.5781 0.0
O176 O 0.48817 0.58152 0.61437 0.0
O177 O 0.5555 0.61747 0.58569 0.0
O178 O 0.64066 0.59821 0.46351 0.0
O179 O 0.5804 0.65325 0.48863 0.0
O180 O 0.51958 0.56934 0.43176 0.0
O181 O 0.4911 0.56934 0.51273 0.0
O182 O 0.60485 0.50295 0.46845 0.0
O183 O 0.54302 0.46088 0.50285 0.0
H184 H 0.37622 0.40669 0.65045 0.0
H185 H 0.38103 0.32091 0.68055 0.0
H186 H 0.53999 0.30282 0.66123 0.0
H187 H 0.53506 0.38901 0.6303 0.0
H188 H 0.70964 0.64482 0.40983 0.0
H189 H 0.73584 0.71391 0.3577 0.0
H190 H 0.5875 0.79049 0.36413 0.0
H191 H 0.56063 0.72116 0.41577 0.0
Nd192 Nd 1.02574 0.53395 0.0763 0.0
Nd193 Nd 0.08372 0.52908 0.98272 0.0
C194 C 0.96199 0.55632 0.15614 0.0
C195 C 0.96085 0.59882 0.19138 0.0
C196 C 0.91728 0.63175 0.19412 0.0
C197 C 0.91821 0.67648 0.21859 0.0
C198 C 0.96267 0.6888 0.24065 0.0
C199 C 1.00593 0.65541 0.23989 0.0
C200 C 1.00512 0.61078 0.21515 0.0
C201 C 0.11788 0.56044 0.09968 0.0
C202 C 1.01228 0.63183 0.98915 0.0
C203 C 0.15194 0.51183 0.90553 0.0
C204 C 0.16208 0.47117 0.86772 0.0
C205 C 0.21027 0.44627 0.8648 0.0
C206 C 0.21921 0.40402 0.83454 0.0
C207 C 0.1801 0.38638 0.80664 0.0
C208 C 0.13221 0.41205 0.80774 0.0
C209 C 0.12313 0.45402 0.83845 0.0
C210 C 0.99165 0.5027 0.95838 0.0
C211 C 0.0947 0.43048 0.07078 0.0
O212 O 0.95102 0.56641 0.10348 0.0
O213 O 1.00038 0.52309 0.16302 0.0
O214 O 0.09526 0.5321 0.13076 0.0
O215 O 0.09205 0.57514 0.05684 0.0
O216 O 0.98984 0.60499 1.0253 0.0
O217 O 0.05657 0.61287 0.97174 0.0
O218 O 0.16067 0.50099 0.9585 0.0
O219 O 0.11039 0.54052 0.89682 0.0
O220 O 1.01595 0.52845 0.92561 0.0
O221 O 1.01685 0.48894 1.00199 0.0
O222 O 0.11698 0.45605 1.03291 0.0
O223 O 1.05104 0.45036 0.08894 0.0
H224 H 0.88305 0.62368 0.17535 0.0
H225 H 0.88445 0.70204 0.21924 0.0
H226 H 1.04042 0.66446 0.25695 0.0
H227 H 1.03961 0.58651 0.21283 0.0
H228 H 0.24065 0.45864 0.88739 0.0
H229 H 0.25639 0.38439 0.83397 0.0
H230 H 0.10171 0.39865 0.78649 0.0
H231 H 0.08542 0.47215 0.84056 0.0
C232 C 0.12971 0.1126 0.27689 0.0
C233 C 0.16842 0.14206 0.28401 0.0
C234 C 0.15703 0.13277 0.38748 0.0
C235 C 0.12115 0.0995 0.38106 0.0
N236 N 0.07339 0.0591 0.31635 0.0
N237 N 0.22313 0.17428 0.34773 0.0
C238 C 0.10793 0.08971 0.32468 0.0
C239 C 0.18298 0.15034 0.3398 0.0
N240 N 0.11246 0.10768 0.2239 0.0
N241 N 0.16607 0.14929 0.43914 0.0
H242 H 0.24161 0.18944 0.31489 0.0
H243 H 0.24072 0.17575 0.38631 0.0
H244 H 0.15181 0.13649 0.47598 0.0
H245 H 0.18537 0.17863 0.44543 0.0
H246 H 0.08087 0.09197 0.2146 0.0
H247 H 0.12828 0.1222 0.18865 0.0
H248 H 0.06682 0.04438 0.27809 0.0
H249 H 1.05158 0.04723 0.34819 0.0
C250 C 0.40729 0.89397 0.91207 0.0
C251 C 0.43817 0.85454 0.88886 0.0
C252 C 0.50719 0.87525 0.94622 0.0
C253 C 0.48032 0.92226 0.95476 0.0
N254 N 0.40081 0.97341 0.95124 0.0
N255 N 0.50061 0.79175 0.92514 0.0
C256 C 0.42927 0.93094 0.9389 0.0
C257 C 0.48383 0.84009 0.91752 0.0
N258 N 0.35814 0.89079 0.9195 0.0
N259 N 0.55534 0.8639 0.96384 0.0
H260 H 0.47944 0.76516 0.9128 0.0
H261 H 0.53101 0.77831 0.95053 0.0
H262 H 0.57392 0.88623 0.98796 0.0
H263 H 0.57792 0.83288 0.95154 0.0
H264 H 0.33449 0.91626 0.94087 0.0
H265 H 0.34343 0.85867 0.91229 0.0
H266 H 0.36509 0.98314 0.93474 0.0
H267 H 0.41317 0.99937 0.97633 0.0
C268 C 0.74133 0.45788 0.6755 0.0
C269 C 0.73583 0.4765 0.7299 0.0
C270 C 0.66075 0.52917 0.69793 0.0
C271 C 0.66008 0.50242 0.64878 0.0
N272 N 0.70119 0.44407 0.58728 0.0
N273 N 0.68952 0.53002 0.79366 0.0
C274 C 0.70145 0.46826 0.63592 0.0
C275 C 0.69604 0.51323 0.74095 0.0
N276 N 0.78427 0.42927 0.66277 0.0
N277 N 0.62719 0.56966 0.70348 0.0
H278 H 0.71456 0.51953 0.82634 0.0
H279 H 0.65768 0.55199 0.80593 0.0
H280 H 0.60207 0.58218 0.67164 0.0
H281 H 0.62796 0.59334 0.73614 0.0
H282 H 0.79247 0.41682 0.623 0.0
H283 H 0.8136 0.42154 0.69152 0.0
H284 H 0.7273 0.4147 0.57781 0.0
H285 H 0.67338 0.4528 0.55688 0.0
C286 C 0.93151 0.79307 0.33578 0.0
C287 C 0.92533 0.83103 0.2942 0.0
C288 C 0.9688 0.77713 0.22727 0.0
C289 C 0.96281 0.73731 0.26397 0.0
N290 N 0.94507 0.70593 0.35544 0.0
N291 N 0.94243 0.86225 0.20261 0.0
C292 C 0.94732 0.74493 0.31958 0.0
C293 C 0.94658 0.8243 0.24094 0.0
N294 N 0.92043 0.80327 0.38998 0.0
N295 N 0.9951 0.76942 0.17943 0.0
H296 H 0.92787 0.89749 0.21283 0.0
H297 H 0.95177 0.85859 0.16075 0.0
H298 H 1.01168 0.7349 0.16914 0.0
H299 H 1.00425 0.79732 0.15295 0.0
H300 H 0.92698 0.77799 0.42322 0.0
H301 H 0.90861 0.83855 0.40227 0.0
H302 H 0.92878 0.70833 0.39457 0.0
H303 H 0.95842 0.67046 0.34498 0.0
C304 C 0.32679 0.13427 0.08797 0.0
C305 C 0.31597 0.14147 0.14599 0.0
C306 C 0.39857 0.0927 0.16685 0.0
C307 C 0.41316 0.09249 0.10941 0.0
N308 N 0.38943 0.12103 1.0155 0.0
N309 N 0.35176 0.13694 0.23892 0.0
C310 C 0.37663 0.11551 0.07007 0.0
C311 C 0.35492 0.12341 0.1847 0.0
N312 N 0.28903 0.14303 0.04955 0.0
N313 N 0.42434 0.06102 0.2049 0.0
H314 H 0.32279 0.16163 0.25326 0.0
H315 H 0.38095 0.12831 0.26759 0.0
H316 H 0.45196 0.0336 0.19352 0.0
H317 H 0.41306 0.05718 0.24614 0.0
H318 H 0.29314 0.13418 1.00778 0.0
H319 H 0.2524 0.15415 0.0606 0.0
H320 H 0.3666 0.14188 0.98606 0.0
H321 H 0.42456 0.1084 1.00077 0.0
C322 C 0.29961 0.8665 0.70096 0.0
C323 C 0.31043 0.82671 0.73979 0.0
C324 C 0.23747 0.79174 0.70767 0.0
C325 C 0.22694 0.83133 0.66858 0.0
N326 N 0.23856 0.91306 0.63918 0.0
N327 N 0.28366 0.75882 0.79076 0.0
C328 C 0.25498 0.87097 0.66895 0.0
C329 C 0.2771 0.79181 0.74673 0.0
N330 N 0.33318 0.89845 0.69239 0.0
N331 N 0.21115 0.75319 0.70575 0.0
H332 H 0.31232 0.75845 0.82014 0.0
H333 H 0.25838 0.73502 0.80115 0.0
H334 H 0.18154 0.75227 0.678 0.0
H335 H 0.22061 0.72084 0.72898 0.0
H336 H 0.33012 0.92459 0.65983 0.0
H337 H 0.36598 0.8969 0.71563 0.0
H338 H 0.2549 0.94473 0.64202 0.0
H339 H 0.20569 0.91782 0.61564 0.0
C340 C 0.85984 0.50909 0.8979 0.0
C341 C 0.85404 0.4591 0.89999 0.0
C342 C 0.93086 0.44085 0.95482 0.0
C343 C 0.94233 0.48854 0.94298 0.0
N344 N 0.91323 0.57109 0.91002 0.0
N345 N 0.8614 0.39927 0.97621 0.0
C346 C 0.90536 0.5237 0.91667 0.0
C347 C 0.88289 0.43003 0.94145 0.0
N348 N 0.81932 0.54275 0.88666 0.0
N349 N 0.96536 0.40498 0.9771 0.0
H350 H 0.82292 0.39991 0.97698 0.0
H351 H 0.88049 0.38013 1.00983 0.0
H352 H 1.00219 0.4094 0.98473 0.0
H353 H 0.9579 0.36922 0.98254 0.0
H354 H 0.81925 0.58009 0.88911 0.0
H355 H 0.78392 0.53262 0.88257 0.0
H356 H 0.8916 0.59631 0.88375 0.0
H357 H 0.94193 0.58516 0.93005 0.0
C358 C 0.74641 0.85089 0.38093 0.0
C359 C 0.75097 0.87101 0.32607 0.0
C360 C 0.68897 0.82234 0.2916 0.0
C361 C 0.68437 0.80332 0.34669 0.0
N362 N 0.69524 0.81208 0.44569 0.0
N363 N 0.71947 0.88437 0.23189 0.0
C364 C 0.70797 0.82263 0.39199 0.0
C365 C 0.71935 0.85986 0.2823 0.0
N366 N 0.78185 0.85389 0.42108 0.0
N367 N 0.66644 0.80287 0.24825 0.0
H368 H 0.74179 0.91171 0.22461 0.0
H369 H 0.6947 0.88061 0.19942 0.0
H370 H 0.64296 0.7764 0.25448 0.0
H371 H 0.67251 0.81149 0.20642 0.0
H372 H 0.7828 0.83503 0.45956 0.0
H373 H 0.81348 0.8705 0.4142 0.0
H374 H 0.70851 0.8288 0.47997 0.0
H375 H 0.66763 0.79055 0.45544 0.0
C376 C 0.16245 0.3278 0.17342 0.0
C377 C 0.16982 0.28596 0.13981 0.0
C378 C 0.13128 0.33949 0.05981 0.0
C379 C 0.12013 0.38022 0.09468 0.0
N380 N 0.12089 0.40962 0.18814 0.0
N381 N 0.15329 0.25173 0.05184 0.0
C382 C 0.13431 0.37303 0.15247 0.0
C383 C 0.15228 0.29204 0.0831 0.0
N384 N 0.18475 0.32526 0.22499 0.0
N385 N 0.12159 0.34589 1.00382 0.0
H386 H 0.16738 0.21697 0.0671 0.0
H387 H 0.13635 0.25181 1.01269 0.0
H388 H 0.10365 0.37827 0.98569 0.0
H389 H 0.13403 0.32015 0.97489 0.0
H390 H 0.18619 0.35528 0.24946 0.0
H391 H 0.20617 0.29389 0.24126 0.0
H392 H 0.12389 0.40515 0.23144 0.0
H393 H 0.10341 0.44376 0.17483 0.0
C394 C 0.75192 0.29014 0.81964 0.0
C395 C 0.74605 0.33088 0.85412 0.0
C396 C 0.68849 0.29217 0.91318 0.0
C397 C 0.68836 0.25541 0.87372 0.0
N398 N 0.71781 0.21923 0.78817 0.0
N399 N 0.70491 0.37371 0.93055 0.0
C400 C 0.71993 0.25396 0.82683 0.0
C401 C 0.71382 0.33251 0.90058 0.0
N402 N 0.78829 0.28618 0.78038 0.0
N403 N 0.66456 0.28833 0.96283 0.0
H404 H 0.72244 0.4044 0.92295 0.0
H405 H 0.67719 0.37903 0.96029 0.0
H406 H 0.64512 0.25939 0.97326 0.0
H407 H 0.66776 0.31132 0.9957 0.0
H408 H 0.79753 0.25539 0.75714 0.0
H409 H 0.81228 0.31224 0.77452 0.0
H410 H 0.73571 0.21942 0.74993 0.0
H411 H 0.6955 0.1916 0.79284 0.0
C412 C 0.89523 1.02101 0.3584 0.0
C413 C 0.86511 0.98695 0.38003 0.0
C414 C 0.89818 0.99436 0.47384 0.0
C415 C 0.92947 1.02726 0.45239 0.0
N416 N 0.94792 0.08264 0.37792 0.0
N417 N 0.82281 0.95917 0.46107 0.0
C418 C 0.92484 0.04417 0.39569 0.0
C419 C 0.86135 0.97975 0.43866 0.0
N420 N 0.89677 1.02946 0.30197 0.0
N421 N 0.90565 0.97428 0.52665 0.0
H422 H 0.79304 0.9512 0.43735 0.0
H423 H 0.81678 0.95655 0.50392 0.0
H424 H 0.93371 0.98226 0.55315 0.0
H425 H 0.88746 0.94592 0.54196 0.0
H426 H 0.92232 0.0491 0.28258 0.0
H427 H 0.87307 1.015 0.27446 0.0
H428 H 0.9425 0.09928 0.3383 0.0
H429 H 0.96915 0.10082 0.40453 0.0
C430 C 0.49043 0.74234 0.6801 0.0
C431 C 0.4746 0.73014 0.73433 0.0
C432 C 0.49627 0.64348 0.71565 0.0
C433 C 0.50371 0.65577 0.65834 0.0
N434 N 0.50062 0.71783 0.58452 0.0
N435 N 0.46033 0.66923 0.80402 0.0
C436 C 0.49967 0.70551 0.64025 0.0
C437 C 0.47759 0.68068 0.75247 0.0
N438 N 0.49538 0.7896 0.6665 0.0
N439 N 0.50809 0.59653 0.73532 0.0
H440 H 0.44864 0.69553 0.83284 0.0
H441 H 0.45523 0.6341 0.81706 0.0
H442 H 0.522 0.56821 0.71009 0.0
H443 H 0.50843 0.58633 0.7776 0.0
H444 H 0.51099 0.8005 0.62933 0.0
H445 H 0.48847 0.81712 0.6951 0.0
H446 H 0.49293 0.75343 0.56857 0.0
H447 H 0.50378 0.69229 0.55348 0.0
C448 C 0.90808 0.94949 0.73901 0.0
C449 C 0.93618 0.92684 0.78617 0.0
C450 C 1.0121 0.94343 0.7339 0.0
C451 C 0.98382 0.9719 0.691 0.0
N452 N 0.90243 1.00975 0.66184 0.0
N453 N 1.01673 0.91646 0.83171 0.0
C454 C 0.93111 0.97743 0.69667 0.0
C455 C 0.98874 0.92785 0.78434 0.0
N456 N 0.85987 0.94197 0.73204 0.0
N457 N 0.06154 0.92998 0.72636 0.0
H458 H 1.00124 0.90887 0.87018 0.0
H459 H 0.05423 0.92055 0.83422 0.0
H460 H 0.07892 0.93816 0.68932 0.0
H461 H 0.08348 0.90609 0.75385 0.0
H462 H 0.83902 0.9537 0.69621 0.0
H463 H 0.84269 0.91895 0.75855 0.0
H464 H 0.86432 1.01874 0.66696 0.0
H465 H 0.91756 0.0311 0.63155 0.0
C466 C 0.61986 0.22171 0.17654 0.0
C467 C 0.65105 0.2048 0.22311 0.0
C468 C 0.66079 0.12348 0.18408 0.0
C469 C 0.62241 0.13796 0.14385 0.0
N470 N 0.55596 0.20168 0.11432 0.0
N471 N 0.68726 0.13418 0.27847 0.0
C472 C 0.59924 0.18739 0.14323 0.0
C473 C 0.66739 0.15404 0.22906 0.0
N474 N 0.61085 0.27017 0.16262 0.0
N475 N 0.69241 0.08145 0.1788 0.0
H476 H 0.68799 0.15435 0.3142 0.0
H477 H 0.69656 0.09678 0.28551 0.0
H478 H 0.6925 0.06036 0.14364 0.0
H479 H 0.72275 0.07148 0.20567 0.0
H480 H 0.59183 0.28352 0.1261 0.0
H481 H 0.62706 0.29625 0.18389 0.0
H482 H 0.53646 0.23647 0.11681 0.0
H483 H 0.53594 0.17788 0.09418 0.0
C484 C 0.39211 0.5511 0.34606 0.0
C485 C 0.35607 0.59204 0.35338 0.0
C486 C 0.39212 0.60467 0.44524 0.0
C487 C 0.43096 0.56639 0.43541 0.0
N488 N 0.45671 0.49233 0.38855 0.0
N489 N 0.31131 0.64699 0.41583 0.0
C490 C 0.42683 0.53582 0.38987 0.0
C491 C 0.3524 0.61479 0.40548 0.0
N492 N 0.39557 0.52906 0.29589 0.0
N493 N 0.3947 0.63352 0.48988 0.0
H494 H 0.28222 0.6547 0.38677 0.0
H495 H 0.30394 0.66223 0.45446 0.0
H496 H 0.42119 0.62614 0.52166 0.0
H497 H 0.3713 0.6659 0.49469 0.0
H498 H 0.42516 0.50329 0.28549 0.0
H499 H 0.36998 0.53831 0.26337 0.0
H500 H 0.4532 0.46646 0.35886 0.0
H501 H 0.48151 0.48015 0.421 0.0
C502 C 0.2098 0.25115 0.791 0.0
C503 C 0.22899 0.24993 0.73613 0.0
C504 C 0.20665 0.33791 0.72327 0.0
C505 C 0.18951 0.33936 0.77897 0.0
N506 N 0.16151 0.29769 0.86019 0.0
N507 N 0.23411 0.28819 0.64509 0.0
C508 C 0.18645 0.29591 0.81085 0.0
C509 C 0.22329 0.29218 0.7005 0.0
N510 N 0.21672 0.21028 0.82524 0.0
N511 N 0.20888 0.38031 0.69322 0.0
H512 H 0.24613 0.25482 0.62766 0.0
H513 H 0.22715 0.31682 0.61565 0.0
H514 H 0.19506 0.41427 0.70805 0.0
H515 H 0.22636 0.38219 0.65486 0.0
H516 H 0.2093 0.21024 0.86782 0.0
H517 H 0.23257 0.1765 0.81178 0.0
H518 H 0.15386 0.26696 0.8829 0.0
H519 H 0.14445 0.33015 0.87595 0.0
C520 C 0.78846 0.95444 0.97548 0.0
C521 C 0.79209 0.92276 0.92941 0.0
C522 C 0.6993 0.93044 0.92936 0.0
C523 C 0.69479 0.96638 0.97167 0.0
N524 N 0.73939 1.01786 1.02699 0.0
N525 N 0.74839 0.88755 0.85714 0.0
C526 C 0.74069 0.97945 0.99282 0.0
C527 C 0.74668 0.913 0.90505 0.0
N528 N 0.831 0.96047 1.0035 0.0
N529 N 0.6583 0.91056 0.91349 0.0
H530 H 0.78156 0.87285 0.8391 0.0
H531 H 0.71717 0.88462 0.83265 0.0
H532 H 0.62328 0.92076 0.9294 0.0
H533 H 0.65979 0.88026 0.88887 0.0
H534 H 0.83132 0.97803 0.04117 0.0
H535 H 0.86591 0.94429 0.99129 0.0
H536 H 0.77089 0.03276 0.03885 0.0
H537 H 0.70662 0.03814 0.03924 0.0
C538 C 0.80127 0.21314 0.38129 0.0
C539 C 0.79007 0.25181 0.34094 0.0
C540 C 0.86736 0.28337 0.36504 0.0
C541 C 0.87851 0.2442 0.40462 0.0
N542 N 0.8644 0.16419 0.43795 0.0
N543 N 0.81628 0.31763 0.28573 0.0
C544 C 0.84827 0.20643 0.40832 0.0
C545 C 0.82464 0.28487 0.32981 0.0
N546 N 0.76577 0.18508 0.39712 0.0
N547 N 0.89635 0.31994 0.36283 0.0
H548 H 0.78519 0.31926 0.2595 0.0
H549 H 0.84186 0.34014 0.27232 0.0
H550 H 0.92835 0.3192 0.38736 0.0
H551 H 0.88731 0.35213 0.33921 0.0
H552 H 0.7703 0.16001 0.43079 0.0
H553 H 0.72996 0.19003 0.38033 0.0
H554 H 0.84608 0.13356 0.43719 0.0
H555 H 0.89866 0.15796 0.45872 0.0
C556 C 0.24647 0.57473 0.15433 0.0
C557 C 0.23462 0.61466 0.18937 0.0
C558 C 0.1492 0.62682 0.15216 0.0
C559 C 0.15952 0.58335 0.1226 0.0
N560 N 0.21644 0.51332 0.09855 0.0
N561 N 0.17407 0.67638 0.22618 0.0
C562 C 0.20783 0.55669 0.12435 0.0
C563 C 0.18585 0.64037 0.18918 0.0
N564 N 0.29488 0.55495 0.14846 0.0
N565 N 0.10433 0.6551 0.14486 0.0
H566 H 0.19994 0.68724 0.25388 0.0
H567 H 0.13803 0.69292 0.23266 0.0
H568 H 0.07627 0.64572 0.11911 0.0
H569 H 0.09633 0.6897 0.16048 0.0
H570 H 0.30652 0.52928 0.11906 0.0
H571 H 0.32421 0.56711 0.16977 0.0
H572 H 0.24885 0.48902 0.10427 0.0
H573 H 0.18989 0.50034 0.07358 0.0
C574 C 0.41592 0.19217 0.64411 0.0
C575 C 0.40044 0.17993 0.69877 0.0
C576 C 0.45156 0.23616 0.73864 0.0
C577 C 0.46071 0.25307 0.68387 0.0
N578 N 0.47164 0.23421 0.58746 0.0
N579 N 0.41835 0.17506 0.79713 0.0
C580 C 0.45072 0.22557 0.63779 0.0
C581 C 0.42467 0.19597 0.74578 0.0
N582 N 0.39315 0.17684 0.59829 0.0
N583 N 0.46456 0.26138 0.78303 0.0
H584 H 0.39743 0.14628 0.80204 0.0
H585 H 0.43696 0.18331 0.83303 0.0
H586 H 0.48578 0.28991 0.77809 0.0
H587 H 0.45288 0.25518 0.82365 0.0
H588 H 0.39826 0.18987 0.55772 0.0
H589 H 0.36683 0.1531 0.6011 0.0
H590 H 0.46842 0.21298 0.55296 0.0
H591 H 0.49644 0.25959 0.58237 0.0
C592 C 0.94706 0.73785 0.88881 0.0
C593 C 0.93586 0.77773 0.92494 0.0
C594 C 0.96965 0.72044 1.00387 0.0
C595 C 0.98641 0.68249 0.96683 0.0
N596 N 0.99411 0.65904 0.8709 0.0
N597 N 0.94663 0.80704 1.01717 0.0
C598 C 0.97633 0.69273 0.90843 0.0
C599 C 0.94963 0.76873 0.9826 0.0
N600 N 0.92692 0.74167 0.83613 0.0
N601 N 0.97262 0.71081 0.06015 0.0
H602 H 0.93476 0.84276 1.00351 0.0
H603 H 0.96075 0.80415 0.05789 0.0
H604 H 0.99064 0.67847 0.07817 0.0
H605 H 0.95356 0.73368 0.08857 0.0
H606 H 0.92864 0.71268 0.80951 0.0
H607 H 0.90366 0.77236 0.82113 0.0
H608 H 0.99393 0.66638 0.82794 0.0
H609 H 1.01201 0.62465 0.88266 0.0
C610 C 0.34987 0.77288 0.24578 0.0
C611 C 0.35952 0.7288 0.21741 0.0
C612 C 0.42562 0.76062 0.16466 0.0
C613 C 0.42065 0.8016 0.1988 0.0
N614 N 0.3804 0.84669 0.27372 0.0
N615 N 0.40804 0.67836 0.15248 0.0
C616 C 0.38306 0.80803 0.23957 0.0
C617 C 0.39742 0.72218 0.177 0.0
N618 N 0.30872 0.78102 0.27831 0.0
N619 N 0.45687 0.75883 0.12011 0.0
H620 H 0.3874 0.64968 0.15937 0.0
H621 H 0.43911 0.66924 0.128 0.0
H622 H 0.47861 0.78613 0.11032 0.0
H623 H 0.45828 0.73244 0.09016 0.0
H624 H 0.29687 0.81413 0.29611 0.0
H625 H 0.28379 0.75575 0.28353 0.0
H626 H 0.35757 0.85054 0.30838 0.0
H627 H 0.40353 0.87367 0.26963 0.0
C628 C 0.22226 0.06147 0.69723 0.0
C629 C 0.25939 0.08151 0.66631 0.0
C630 C 0.22297 0.05924 0.57911 0.0
C631 C 0.18403 0.04131 0.60941 0.0
N632 N 0.15697 1.01009 0.69765 0.0
N633 N 0.30737 0.0765 0.58185 0.0
C634 C 0.18668 0.03777 0.66876 0.0
C635 C 0.26387 0.07293 0.60858 0.0
N636 N 0.22047 0.0665 0.75372 0.0
N637 N 0.22032 0.06556 0.52221 0.0
H638 H 0.33972 0.08108 0.60294 0.0
H639 H 0.31356 0.06689 0.54058 0.0
H640 H 0.19102 0.05724 0.49782 0.0
H641 H 0.24498 0.08395 0.49941 0.0
H642 H 0.19087 0.05852 0.77812 0.0
H643 H 0.24839 0.08053 0.77566 0.0
H644 H 0.16012 1.00263 0.74054 0.0
H645 H 0.13276 0.99022 0.67765 0.0
C646 C 0.6165 0.39232 0.33822 0.0
C647 C 0.62479 0.34406 0.36105 0.0
C648 C 0.60631 0.37461 0.45483 0.0
C649 C 0.59644 0.42298 0.43195 0.0
N650 N 0.58071 0.47595 0.34967 0.0
N651 N 0.61659 0.28806 0.43804 0.0
C652 C 0.59819 0.43129 0.37295 0.0
C653 C 0.61568 0.33496 0.41841 0.0
N654 N 0.62808 0.40118 0.28373 0.0
N655 N 0.60986 0.36663 0.51151 0.0
H656 H 0.62356 0.25853 0.41215 0.0
H657 H 0.60574 0.27872 0.47815 0.0
H658 H 0.60551 0.39457 0.53971 0.0
H659 H 0.62189 0.33281 0.5306 0.0
H660 H 0.62928 0.43594 0.26644 0.0
H661 H 0.63919 0.37342 0.2565 0.0
H662 H 0.57579 0.48275 0.3068 0.0
H663 H 0.56682 0.50532 0.37323 0.0
loop_
_geom_bond_atom_site_label_1
_geom_bond_atom_site_label_2
_geom_bond_distance
_geom_bond_site_symmetry_2
_ccdc_geom_bond_type
H0 C3 0.931 . S
H1 C6 0.928 . S
H2 C8 0.930 . S
C3 H0 0.931 . S
C3 C4 1.413 . S
C3 C5 1.360 . S
C4 C3 1.413 . S
C4 C8 1.429 . S
C5 C3 1.360 . S
C5 C6 1.372 . S
C6 H1 0.928 . S
C6 C5 1.372 . S
C6 C7 1.404 . S
C7 C6 1.404 . S
C7 C8 1.391 . S
C8 H2 0.930 . S
C8 C4 1.429 . S
C8 C7 1.391 . S
H9 C12 0.931 . S
H10 C15 0.928 . S
H11 C17 0.930 . S
C12 H9 0.931 . S
C12 C13 1.413 . S
C12 C14 1.360 . S
C13 C12 1.413 . S
C13 C17 1.429 . S
C14 C12 1.360 . S
C14 C15 1.372 . S
C15 H10 0.928 . S
C15 C14 1.372 . S
C15 C16 1.404 . S
C16 C15 1.404 . S
C16 C17 1.391 . S
C17 H11 0.930 . S
C17 C13 1.429 . S
C17 C16 1.391 . S
H18 C21 0.931 . S
H19 C24 0.928 . S
H20 C26 0.930 . S
C21 H18 0.931 . S
C21 C22 1.413 . S
C21 C23 1.360 . S
C22 C21 1.413 . S
C22 C26 1.429 . S
C23 C21 1.360 . S
C23 C24 1.372 . S
C24 H19 0.928 . S
C24 C23 1.372 . S
C24 C25 1.404 . S
C25 C24 1.404 . S
C25 C26 1.391 . S
C26 H20 0.930 . S
C26 C22 1.429 . S
C26 C25 1.391 . S
H27 C30 0.931 . S
H28 C33 0.928 . S
H29 C35 0.930 . S
C30 H27 0.931 . S
C30 C31 1.413 . S
C30 C32 1.360 . S
C31 C30 1.413 . S
C31 C35 1.429 . S
C32 C30 1.360 . S
C32 C33 1.372 . S
C33 H28 0.928 . S
C33 C32 1.372 . S
C33 C34 1.404 . S
C34 C33 1.404 . S
C34 C35 1.391 . S
C35 H29 0.930 . S
C35 C31 1.429 . S
C35 C34 1.391 . S
H36 C39 0.931 . S
H37 C42 0.928 . S
H38 C44 0.930 . S
C39 H36 0.931 . S
C39 C40 1.413 . S
C39 C41 1.360 . S
C40 C39 1.413 . S
C40 C44 1.429 . S
C41 C39 1.360 . S
C41 C42 1.372 . S
C42 H37 0.928 . S
C42 C41 1.372 . S
C42 C43 1.404 . S
C43 C42 1.404 . S
C43 C44 1.391 . S
C44 H38 0.930 . S
C44 C40 1.429 . S
C44 C43 1.391 . S
H45 C48 0.931 . S
H46 C51 0.928 . S
H47 C53 0.930 . S
C48 H45 0.931 . S
C48 C49 1.413 . S
C48 C50 1.360 . S
C49 C48 1.413 . S
C49 C53 1.429 . S
C50 C48 1.360 . S
C50 C51 1.372 . S
C51 H46 0.928 . S
C51 C50 1.372 . S
C51 C52 1.404 . S
C52 C51 1.404 . S
C52 C53 1.391 . S
C53 H47 0.930 . S
C53 C49 1.429 . S
C53 C52 1.391 . S
H54 C57 0.931 . S
H55 C60 0.928 . S
H56 C62 0.930 . S
C57 H54 0.931 . S
C57 C58 1.413 . S
C57 C59 1.360 . S
C58 C57 1.413 . S
C58 C62 1.429 . S
C59 C57 1.360 . S
C59 C60 1.372 . S
C60 H55 0.928 . S
C60 C59 1.372 . S
C60 C61 1.404 . S
C61 C60 1.404 . S
C61 C62 1.391 . S
C62 H56 0.930 . S
C62 C58 1.429 . S
C62 C61 1.391 . S
H63 C66 0.931 . S
H64 C69 0.928 . S
H65 C71 0.930 . S
C66 H63 0.931 . S
C66 C67 1.413 . S
C66 C68 1.360 . S
C67 C66 1.413 . S
C67 C71 1.429 . S
C68 C66 1.360 . S
C68 C69 1.372 . S
C69 H64 0.928 . S
C69 C68 1.372 . S
C69 C70 1.404 . S
C70 C69 1.404 . S
C70 C71 1.391 . S
C71 H65 0.930 . S
C71 C67 1.429 . S
C71 C70 1.391 . S
Nd72 C74 2.836 . S
Nd72 O92 2.500 . S
Nd72 O93 2.492 . S
Nd72 O94 2.487 1_565 S
Nd72 O95 2.682 1_565 S
Nd72 O96 2.410 . S
Nd72 O101 2.414 1_455 S
Nd72 O103 2.424 1_565 S
Nd73 C83 2.836 . S
Nd73 O95 2.414 1_655 S
Nd73 O97 2.424 1_545 S
Nd73 O98 2.500 . S
Nd73 O99 2.492 . S
Nd73 O100 2.487 1_545 S
Nd73 O101 2.682 1_545 S
Nd73 O102 2.410 . S
C74 Nd72 2.836 . S
C74 C75 1.498 . S
C74 O92 1.258 . S
C74 O93 1.239 . S
C75 C74 1.498 . S
C75 C76 1.366 . S
C75 C80 1.407 . S
C76 C75 1.366 . S
C76 C77 1.392 . S
C76 H104 0.930 . S
C77 C76 1.392 . S
C77 C78 1.398 . S
C77 H105 0.929 . S
C78 C77 1.398 . S
C78 C79 1.352 . S
C79 C78 1.352 . S
C79 C80 1.384 . S
C79 H106 0.930 . S
C80 C75 1.407 . S
C80 C79 1.384 . S
C80 H107 0.929 . S
C81 O94 1.241 . S
C81 O95 1.273 . S
C82 O96 1.251 1_655 S
C82 O97 1.268 . S
C83 Nd73 2.836 . S
C83 C84 1.498 . S
C83 O98 1.258 . S
C83 O99 1.239 . S
C84 C83 1.498 . S
C84 C85 1.366 . S
C84 C89 1.407 . S
C85 C84 1.366 . S
C85 C86 1.392 . S
C85 H108 0.930 . S
C86 C85 1.392 . S
C86 C87 1.398 . S
C86 H109 0.929 . S
C87 C86 1.398 . S
C87 C88 1.352 . S
C88 C87 1.352 . S
C88 C89 1.384 . S
C88 H110 0.930 . S
C89 C84 1.407 . S
C89 C88 1.384 . S
C89 H111 0.929 . S
C90 O100 1.241 . S
C90 O101 1.273 . S
C91 O102 1.251 1_455 S
C91 O103 1.268 . S
O92 Nd72 2.500 . S
O92 C74 1.258 . S
O93 Nd72 2.492 . S
O93 C74 1.239 . S
O94 Nd72 2.487 1_545 S
O94 C81 1.241 . S
O95 Nd72 2.682 1_545 S
O95 Nd73 2.414 1_455 S
O95 C81 1.273 . S
O96 Nd72 2.410 . S
O96 C82 1.251 1_455 S
O97 Nd73 2.424 1_565 S
O97 C82 1.268 . S
O98 Nd73 2.500 . S
O98 C83 1.258 . S
O99 Nd73 2.492 . S
O99 C83 1.239 . S
O100 Nd73 2.487 1_565 S
O100 C90 1.241 . S
O101 Nd72 2.414 1_655 S
O101 Nd73 2.682 1_565 S
O101 C90 1.273 . S
O102 Nd73 2.410 . S
O102 C91 1.251 1_655 S
O103 Nd72 2.424 1_545 S
O103 C91 1.268 . S
H104 C76 0.930 . S
H105 C77 0.929 . S
H106 C79 0.930 . S
H107 C80 0.929 . S
H108 C85 0.930 . S
H109 C86 0.929 . S
H110 C88 0.930 . S
H111 C89 0.929 . S
Nd112 C114 2.836 . S
Nd112 O132 2.500 . S
Nd112 O133 2.492 . S
Nd112 O134 2.487 1_565 S
Nd112 O135 2.682 1_565 S
Nd112 O136 2.410 1_554 S
Nd112 O141 2.414 1_554 S
Nd112 O143 2.424 1_565 S
Nd113 C123 2.836 . S
Nd113 O135 2.414 1_556 S
Nd113 O137 2.424 1_545 S
Nd113 O138 2.500 . S
Nd113 O139 2.492 . S
Nd113 O140 2.487 1_545 S
Nd113 O141 2.682 1_545 S
Nd113 O142 2.410 1_556 S
C114 Nd112 2.836 . S
C114 C115 1.498 . S
C114 O132 1.258 . S
C114 O133 1.239 . S
C115 C114 1.498 . S
C115 C116 1.366 . S
C115 C120 1.407 . S
C116 C115 1.366 . S
C116 C117 1.392 . S
C116 H144 0.930 . S
C117 C116 1.392 . S
C117 C118 1.398 . S
C117 H145 0.929 . S
C118 C117 1.398 . S
C118 C119 1.352 . S
C119 C118 1.352 . S
C119 C120 1.384 . S
C119 H146 0.930 . S
C120 C115 1.407 . S
C120 C119 1.384 . S
C120 H147 0.929 . S
C121 O134 1.241 . S
C121 O135 1.273 . S
C122 O136 1.251 . S
C122 O137 1.268 . S
C123 Nd113 2.836 . S
C123 C124 1.498 . S
C123 O138 1.258 . S
C123 O139 1.239 . S
C124 C123 1.498 . S
C124 C125 1.366 . S
C124 C129 1.407 . S
C125 C124 1.366 . S
C125 C126 1.392 . S
C125 H148 0.930 . S
C126 C125 1.392 . S
C126 C127 1.398 . S
C126 H149 0.929 . S
C127 C126 1.398 . S
C127 C128 1.352 . S
C128 C127 1.352 . S
C128 C129 1.384 . S
C128 H150 0.930 . S
C129 C124 1.407 . S
C129 C128 1.384 . S
C129 H151 0.929 . S
C130 O140 1.241 . S
C130 O141 1.273 . S
C131 O142 1.251 . S
C131 O143 1.268 . S
O132 Nd112 2.500 . S
O132 C114 1.258 . S
O133 Nd112 2.492 . S
O133 C114 1.239 . S
O134 Nd112 2.487 1_545 S
O134 C121 1.241 . S
O135 Nd112 2.682 1_545 S
O135 Nd113 2.414 1_554 S
O135 C121 1.273 . S
O136 Nd112 2.410 1_556 S
O136 C122 1.251 . S
O137 Nd113 2.424 1_565 S
O137 C122 1.268 . S
O138 Nd113 2.500 . S
O138 C123 1.258 . S
O139 Nd113 2.492 . S
O139 C123 1.239 . S
O140 Nd113 2.487 1_565 S
O140 C130 1.241 . S
O141 Nd112 2.414 1_556 S
O141 Nd113 2.682 1_565 S
O141 C130 1.273 . S
O142 Nd113 2.410 1_554 S
O142 C131 1.251 . S
O143 Nd112 2.424 1_545 S
O143 C131 1.268 . S
H144 C116 0.930 . S
H145 C117 0.929 . S
H146 C119 0.930 . S
H147 C120 0.929 . S
H148 C125 0.930 . S
H149 C126 0.929 . S
H150 C128 0.930 . S
H151 C129 0.929 . S
Nd152 C154 2.836 . S
Nd152 O172 2.500 . S
Nd152 O173 2.492 . S
Nd152 O174 2.487 . S
Nd152 O175 2.682 . S
Nd152 O176 2.410 . S
Nd152 O181 2.414 . S
Nd152 O183 2.424 . S
Nd153 C163 2.836 . S
Nd153 O175 2.414 . S
Nd153 O177 2.424 . S
Nd153 O178 2.500 . S
Nd153 O179 2.492 . S
Nd153 O180 2.487 . S
Nd153 O181 2.682 . S
Nd153 O182 2.410 . S
C154 Nd152 2.836 . S
C154 C155 1.498 . S
C154 O172 1.258 . S
C154 O173 1.239 . S
C155 C154 1.498 . S
C155 C156 1.366 . S
C155 C160 1.407 . S
C156 C155 1.366 . S
C156 C157 1.392 . S
C156 H184 0.930 . S
C157 C156 1.392 . S
C157 C158 1.398 . S
C157 H185 0.929 . S
C158 C157 1.398 . S
C158 C159 1.352 . S
C159 C158 1.352 . S
C159 C160 1.384 . S
C159 H186 0.930 . S
C160 C155 1.407 . S
C160 C159 1.384 . S
C160 H187 0.929 . S
C161 O174 1.241 . S
C161 O175 1.273 . S
C162 O176 1.251 . S
C162 O177 1.268 . S
C163 Nd153 2.836 . S
C163 C164 1.498 . S
C163 O178 1.258 . S
C163 O179 1.239 . S
C164 C163 1.498 . S
C164 C165 1.366 . S
C164 C169 1.407 . S
C165 C164 1.366 . S
C165 C166 1.392 . S
C165 H188 0.930 . S
C166 C165 1.392 . S
C166 C167 1.398 . S
C166 H189 0.929 . S
C167 C166 1.398 . S
C167 C168 1.352 . S
C168 C167 1.352 . S
C168 C169 1.384 . S
C168 H190 0.930 . S
C169 C164 1.407 . S
C169 C168 1.384 . S
C169 H191 0.929 . S
C170 O180 1.241 . S
C170 O181 1.273 . S
C171 O182 1.251 . S
C171 O183 1.268 . S
O172 Nd152 2.500 . S
O172 C154 1.258 . S
O173 Nd152 2.492 . S
O173 C154 1.239 . S
O174 Nd152 2.487 . S
O174 C161 1.241 . S
O175 Nd152 2.682 . S
O175 Nd153 2.414 . S
O175 C161 1.273 . S
O176 Nd152 2.410 . S
O176 C162 1.251 . S
O177 Nd153 2.424 . S
O177 C162 1.268 . S
O178 Nd153 2.500 . S
O178 C163 1.258 . S
O179 Nd153 2.492 . S
O179 C163 1.239 . S
O180 Nd153 2.487 . S
O180 C170 1.241 . S
O181 Nd152 2.414 . S
O181 Nd153 2.682 . S
O181 C170 1.273 . S
O182 Nd153 2.410 . S
O182 C171 1.251 . S
O183 Nd152 2.424 . S
O183 C171 1.268 . S
H184 C156 0.930 . S
H185 C157 0.929 . S
H186 C159 0.930 . S
H187 C160 0.929 . S
H188 C165 0.930 . S
H189 C166 0.929 . S
H190 C168 0.930 . S
H191 C169 0.929 . S
Nd192 C194 2.836 . S
Nd192 O212 2.500 . S
Nd192 O213 2.492 . S
Nd192 O214 2.487 1_655 S
Nd192 O215 2.682 1_655 S
Nd192 O216 2.410 . S
Nd192 O221 2.414 1_554 S
Nd192 O223 2.424 1_655 S
Nd193 C203 2.836 . S
Nd193 O215 2.414 1_556 S
Nd193 O217 2.424 1_455 S
Nd193 O218 2.500 . S
Nd193 O219 2.492 . S
Nd193 O220 2.487 1_455 S
Nd193 O221 2.682 1_455 S
Nd193 O222 2.410 . S
C194 Nd192 2.836 . S
C194 C195 1.498 . S
C194 O212 1.258 . S
C194 O213 1.239 . S
C195 C194 1.498 . S
C195 C196 1.366 . S
C195 C200 1.407 . S
C196 C195 1.366 . S
C196 C197 1.392 . S
C196 H224 0.930 . S
C197 C196 1.392 . S
C197 C198 1.398 . S
C197 H225 0.929 . S
C198 C197 1.398 . S
C198 C199 1.352 . S
C199 C198 1.352 . S
C199 C200 1.384 . S
C199 H226 0.930 . S
C200 C195 1.407 . S
C200 C199 1.384 . S
C200 H227 0.929 . S
C201 O214 1.241 . S
C201 O215 1.273 . S
C202 O216 1.251 1_556 S
C202 O217 1.268 . S
C203 Nd193 2.836 . S
C203 C204 1.498 . S
C203 O218 1.258 . S
C203 O219 1.239 . S
C204 C203 1.498 . S
C204 C205 1.366 . S
C204 C209 1.407 . S
C205 C204 1.366 . S
C205 C206 1.392 . S
C205 H228 0.930 . S
C206 C205 1.392 . S
C206 C207 1.398 . S
C206 H229 0.929 . S
C207 C206 1.398 . S
C207 C208 1.352 . S
C208 C207 1.352 . S
C208 C209 1.384 . S
C208 H230 0.930 . S
C209 C204 1.407 . S
C209 C208 1.384 . S
C209 H231 0.929 . S
C210 O220 1.241 . S
C210 O221 1.273 . S
C211 O222 1.251 1_554 S
C211 O223 1.268 . S
O212 Nd192 2.500 . S
O212 C194 1.258 . S
O213 Nd192 2.492 . S
O213 C194 1.239 . S
O214 Nd192 2.487 1_455 S
O214 C201 1.241 . S
O215 Nd192 2.682 1_455 S
O215 Nd193 2.414 1_554 S
O215 C201 1.273 . S
O216 Nd192 2.410 . S
O216 C202 1.251 1_554 S
O217 Nd193 2.424 1_655 S
O217 C202 1.268 . S
O218 Nd193 2.500 . S
O218 C203 1.258 . S
O219 Nd193 2.492 . S
O219 C203 1.239 . S
O220 Nd193 2.487 1_655 S
O220 C210 1.241 . S
O221 Nd192 2.414 1_556 S
O221 Nd193 2.682 1_655 S
O221 C210 1.273 . S
O222 Nd193 2.410 . S
O222 C211 1.251 1_556 S
O223 Nd192 2.424 1_455 S
O223 C211 1.268 . S
H224 C196 0.930 . S
H225 C197 0.929 . S
H226 C199 0.930 . S
H227 C200 0.929 . S
H228 C205 0.930 . S
H229 C206 0.929 . S
H230 C208 0.930 . S
H231 C209 0.929 . S
C232 C233 1.363 . S
C232 C238 1.379 . S
C232 N240 1.356 . S
C233 C232 1.363 . S
C233 C239 1.363 . S
C234 C235 1.363 . S
C234 C239 1.379 . S
C234 N241 1.356 . S
C235 C234 1.363 . S
C235 C238 1.363 . S
N236 C238 1.356 . S
N236 H248 0.982 1_545 S
N236 H249 0.985 . S
N237 C239 1.356 . S
N237 H242 0.984 . S
N237 H243 0.985 . S
C238 C232 1.379 . S
C238 C235 1.363 . S
C238 N236 1.356 . S
C239 C233 1.363 . S
C239 C234 1.379 . S
C239 N237 1.356 . S
N240 C232 1.356 . S
N240 H246 0.984 . S
N240 H247 0.984 . S
N241 C234 1.356 . S
N241 H244 0.984 . S
N241 H245 0.985 . S
H242 N237 0.984 . S
H243 N237 0.985 . S
H244 N241 0.984 . S
H245 N241 0.985 . S
H246 N240 0.984 . S
H247 N240 0.984 . S
H248 N236 0.982 1_565 S
H249 N236 0.985 . S
C250 C251 1.363 . S
C250 C256 1.379 . S
C250 N258 1.356 . S
C251 C250 1.363 . S
C251 C257 1.363 . S
C252 C253 1.363 . S
C252 C257 1.379 . S
C252 N259 1.356 . S
C253 C252 1.363 . S
C253 C256 1.363 . S
N254 C256 1.356 . S
N254 H266 0.984 . S
N254 H267 0.985 . S
N255 C257 1.356 . S
N255 H260 0.984 . S
N255 H261 0.985 . S
C256 C250 1.379 . S
C256 C253 1.363 . S
C256 N254 1.356 . S
C257 C251 1.363 . S
C257 C252 1.379 . S
C257 N255 1.356 . S
N258 C250 1.356 . S
N258 H264 0.984 . S
N258 H265 0.984 . S
N259 C252 1.356 . S
N259 H262 0.984 . S
N259 H263 0.985 . S
H260 N255 0.984 . S
H261 N255 0.985 . S
H262 N259 0.984 . S
H263 N259 0.985 . S
H264 N258 0.984 . S
H265 N258 0.984 . S
H266 N254 0.984 . S
H267 N254 0.985 . S
C268 C269 1.363 . S
C268 C274 1.379 . S
C268 N276 1.356 . S
C269 C268 1.363 . S
C269 C275 1.363 . S
C270 C271 1.363 . S
C270 C275 1.379 . S
C270 N277 1.356 . S
C271 C270 1.363 . S
C271 C274 1.363 . S
N272 C274 1.356 . S
N272 H284 0.984 . S
N272 H285 0.985 . S
N273 C275 1.356 . S
N273 H278 0.984 . S
N273 H279 0.985 . S
C274 C268 1.379 . S
C274 C271 1.363 . S
C274 N272 1.356 . S
C275 C269 1.363 . S
C275 C270 1.379 . S
C275 N273 1.356 . S
N276 C268 1.356 . S
N276 H282 0.984 . S
N276 H283 0.984 . S
N277 C270 1.356 . S
N277 H280 0.984 . S
N277 H281 0.985 . S
H278 N273 0.984 . S
H279 N273 0.985 . S
H280 N277 0.984 . S
H281 N277 0.985 . S
H282 N276 0.984 . S
H283 N276 0.984 . S
H284 N272 0.984 . S
H285 N272 0.985 . S
C286 C287 1.363 . S
C286 C292 1.379 . S
C286 N294 1.356 . S
C287 C286 1.363 . S
C287 C293 1.363 . S
C288 C289 1.363 . S
C288 C293 1.379 . S
C288 N295 1.356 . S
C289 C288 1.363 . S
C289 C292 1.363 . S
N290 C292 1.356 . S
N290 H302 0.984 . S
N290 H303 0.985 . S
N291 C293 1.356 . S
N291 H296 0.984 . S
N291 H297 0.985 . S
C292 C286 1.379 . S
C292 C289 1.363 . S
C292 N290 1.356 . S
C293 C287 1.363 . S
C293 C288 1.379 . S
C293 N291 1.356 . S
N294 C286 1.356 . S
N294 H300 0.984 . S
N294 H301 0.984 . S
N295 C288 1.356 . S
N295 H298 0.984 . S
N295 H299 0.985 . S
H296 N291 0.984 . S
H297 N291 0.985 . S
H298 N295 0.984 . S
H299 N295 0.985 . S
H300 N294 0.984 . S
H301 N294 0.984 . S
H302 N290 0.984 . S
H303 N290 0.985 . S
C304 C305 1.363 . S
C304 C310 1.379 . S
C304 N312 1.356 . S
C305 C304 1.363 . S
C305 C311 1.363 . S
C306 C307 1.363 . S
C306 C311 1.379 . S
C306 N313 1.356 . S
C307 C306 1.363 . S
C307 C310 1.363 . S
N308 C310 1.356 1_556 S
N308 H320 0.984 . S
N308 H321 0.985 . S
N309 C311 1.356 . S
N309 H314 0.984 . S
N309 H315 0.985 . S
C310 C304 1.379 . S
C310 C307 1.363 . S
C310 N308 1.356 1_554 S
C311 C305 1.363 . S
C311 C306 1.379 . S
C311 N309 1.356 . S
N312 C304 1.356 . S
N312 H318 0.984 1_554 S
N312 H319 0.984 . S
N313 C306 1.356 . S
N313 H316 0.984 . S
N313 H317 0.985 . S
H314 N309 0.984 . S
H315 N309 0.985 . S
H316 N313 0.984 . S
H317 N313 0.985 . S
H318 N312 0.984 1_556 S
H319 N312 0.984 . S
H320 N308 0.984 . S
H321 N308 0.985 . S
C322 C323 1.363 . S
C322 C328 1.379 . S
C322 N330 1.356 . S
C323 C322 1.363 . S
C323 C329 1.363 . S
C324 C325 1.363 . S
C324 C329 1.379 . S
C324 N331 1.356 . S
C325 C324 1.363 . S
C325 C328 1.363 . S
N326 C328 1.356 . S
N326 H338 0.984 . S
N326 H339 0.985 . S
N327 C329 1.356 . S
N327 H332 0.984 . S
N327 H333 0.985 . S
C328 C322 1.379 . S
C328 C325 1.363 . S
C328 N326 1.356 . S
C329 C323 1.363 . S
C329 C324 1.379 . S
C329 N327 1.356 . S
N330 C322 1.356 . S
N330 H336 0.984 . S
N330 H337 0.984 . S
N331 C324 1.356 . S
N331 H334 0.984 . S
N331 H335 0.985 . S
H332 N327 0.984 . S
H333 N327 0.985 . S
H334 N331 0.984 . S
H335 N331 0.985 . S
H336 N330 0.984 . S
H337 N330 0.984 . S
H338 N326 0.984 . S
H339 N326 0.985 . S
C340 C341 1.363 . S
C340 C346 1.379 . S
C340 N348 1.356 . S
C341 C340 1.363 . S
C341 C347 1.363 . S
C342 C343 1.363 . S
C342 C347 1.379 . S
C342 N349 1.356 . S
C343 C342 1.363 . S
C343 C346 1.363 . S
N344 C346 1.356 . S
N344 H356 0.984 . S
N344 H357 0.985 . S
N345 C347 1.356 . S
N345 H350 0.984 . S
N345 H351 0.985 . S
C346 C340 1.379 . S
C346 C343 1.363 . S
C346 N344 1.356 . S
C347 C341 1.363 . S
C347 C342 1.379 . S
C347 N345 1.356 . S
N348 C340 1.356 . S
N348 H354 0.984 . S
N348 H355 0.984 . S
N349 C342 1.356 . S
N349 H352 0.984 . S
N349 H353 0.985 . S
H350 N345 0.984 . S
H351 N345 0.985 . S
H352 N349 0.984 . S
H353 N349 0.985 . S
H354 N348 0.984 . S
H355 N348 0.984 . S
H356 N344 0.984 . S
H357 N344 0.985 . S
C358 C359 1.363 . S
C358 C364 1.379 . S
C358 N366 1.356 . S
C359 C358 1.363 . S
C359 C365 1.363 . S
C360 C361 1.363 . S
C360 C365 1.379 . S
C360 N367 1.356 . S
C361 C360 1.363 . S
C361 C364 1.363 . S
N362 C364 1.356 . S
N362 H374 0.984 . S
N362 H375 0.985 . S
N363 C365 1.356 . S
N363 H368 0.984 . S
N363 H369 0.985 . S
C364 C358 1.379 . S
C364 C361 1.363 . S
C364 N362 1.356 . S
C365 C359 1.363 . S
C365 C360 1.379 . S
C365 N363 1.356 . S
N366 C358 1.356 . S
N366 H372 0.984 . S
N366 H373 0.984 . S
N367 C360 1.356 . S
N367 H370 0.984 . S
N367 H371 0.985 . S
H368 N363 0.984 . S
H369 N363 0.985 . S
H370 N367 0.984 . S
H371 N367 0.985 . S
H372 N366 0.984 . S
H373 N366 0.984 . S
H374 N362 0.984 . S
H375 N362 0.985 . S
C376 C377 1.363 . S
C376 C382 1.379 . S
C376 N384 1.356 . S
C377 C376 1.363 . S
C377 C383 1.363 . S
C378 C379 1.363 . S
C378 C383 1.379 . S
C378 N385 1.356 1_554 S
C379 C378 1.363 . S
C379 C382 1.363 . S
N380 C382 1.356 . S
N380 H392 0.984 1_455 S
N380 H393 0.985 . S
N381 C383 1.356 . S
N381 H386 0.984 . S
N381 H387 0.990 . S
C382 C376 1.379 . S
C382 C379 1.363 . S
C382 N380 1.356 . S
C383 C377 1.363 . S
C383 C378 1.379 . S
C383 N381 1.356 . S
N384 C376 1.356 . S
N384 H390 0.984 . S
N384 H391 0.984 . S
N385 C378 1.356 1_556 S
N385 H388 0.984 . S
N385 H389 0.985 . S
H386 N381 0.984 . S
H387 N381 0.990 . S
H388 N385 0.984 . S
H389 N385 0.985 . S
H390 N384 0.984 . S
H391 N384 0.984 . S
H392 N380 0.984 1_655 S
H393 N380 0.985 . S
C394 C395 1.363 . S
C394 C400 1.379 . S
C394 N402 1.356 . S
C395 C394 1.363 . S
C395 C401 1.363 . S
C396 C397 1.363 . S
C396 C401 1.379 . S
C396 N403 1.356 . S
C397 C396 1.363 . S
C397 C400 1.363 . S
N398 C400 1.356 . S
N398 H410 0.984 . S
N398 H411 0.985 . S
N399 C401 1.356 . S
N399 H404 0.984 . S
N399 H405 0.985 . S
C400 C394 1.379 . S
C400 C397 1.363 . S
C400 N398 1.356 . S
C401 C395 1.363 . S
C401 C396 1.379 . S
C401 N399 1.356 . S
N402 C394 1.356 . S
N402 H408 0.984 . S
N402 H409 0.984 . S
N403 C396 1.356 . S
N403 H406 0.984 . S
N403 H407 0.985 . S
H404 N399 0.984 . S
H405 N399 0.985 . S
H406 N403 0.984 . S
H407 N403 0.985 . S
H408 N402 0.984 . S
H409 N402 0.984 . S
H410 N398 0.984 . S
H411 N398 0.985 . S
C412 C413 1.363 . S
C412 C418 1.379 . S
C412 N420 1.356 . S
C413 C412 1.363 . S
C413 C419 1.363 . S
C414 C415 1.363 . S
C414 C419 1.379 . S
C414 N421 1.356 . S
C415 C414 1.363 . S
C415 C418 1.363 . S
N416 C418 1.356 . S
N416 H428 0.984 . S
N416 H429 0.985 . S
N417 C419 1.356 . S
N417 H422 0.984 . S
N417 H423 0.985 . S
C418 C412 1.379 . S
C418 C415 1.363 . S
C418 N416 1.356 . S
C419 C413 1.363 . S
C419 C414 1.379 . S
C419 N417 1.356 . S
N420 C412 1.356 . S
N420 H426 0.984 . S
N420 H427 0.984 . S
N421 C414 1.356 . S
N421 H424 0.984 . S
N421 H425 0.985 . S
H422 N417 0.984 . S
H423 N417 0.985 . S
H424 N421 0.984 . S
H425 N421 0.985 . S
H426 N420 0.984 . S
H427 N420 0.984 . S
H428 N416 0.984 . S
H429 N416 0.985 . S
C430 C431 1.363 . S
C430 C436 1.379 . S
C430 N438 1.356 . S
C431 C430 1.363 . S
C431 C437 1.363 . S
C432 C433 1.363 . S
C432 C437 1.379 . S
C432 N439 1.356 . S
C433 C432 1.363 . S
C433 C436 1.363 . S
N434 C436 1.356 . S
N434 H446 0.984 . S
N434 H447 0.985 . S
N435 C437 1.356 . S
N435 H440 0.984 . S
N435 H441 0.985 . S
C436 C430 1.379 . S
C436 C433 1.363 . S
C436 N434 1.356 . S
C437 C431 1.363 . S
C437 C432 1.379 . S
C437 N435 1.356 . S
N438 C430 1.356 . S
N438 H444 0.984 . S
N438 H445 0.984 . S
N439 C432 1.356 . S
N439 H442 0.984 . S
N439 H443 0.985 . S
H440 N435 0.984 . S
H441 N435 0.985 . S
H442 N439 0.984 . S
H443 N439 0.985 . S
H444 N438 0.984 . S
H445 N438 0.984 . S
H446 N434 0.984 . S
H447 N434 0.985 . S
C448 C449 1.363 . S
C448 C454 1.379 . S
C448 N456 1.356 . S
C449 C448 1.363 . S
C449 C455 1.363 . S
C450 C451 1.363 . S
C450 C455 1.379 . S
C450 N457 1.356 1_655 S
C451 C450 1.363 . S
C451 C454 1.363 . S
N452 C454 1.356 . S
N452 H464 0.984 . S
N452 H465 0.985 . S
N453 C455 1.356 . S
N453 H458 0.984 . S
N453 H459 0.985 . S
C454 C448 1.379 . S
C454 C451 1.363 . S
C454 N452 1.356 . S
C455 C449 1.363 . S
C455 C450 1.379 . S
C455 N453 1.356 . S
N456 C448 1.356 . S
N456 H462 0.984 . S
N456 H463 0.984 . S
N457 C450 1.356 1_455 S
N457 H460 0.984 . S
N457 H461 0.985 . S
H458 N453 0.984 . S
H459 N453 0.985 . S
H460 N457 0.984 . S
H461 N457 0.985 . S
H462 N456 0.984 . S
H463 N456 0.984 . S
H464 N452 0.984 . S
H465 N452 0.985 . S
C466 C467 1.363 . S
C466 C472 1.379 . S
C466 N474 1.356 . S
C467 C466 1.363 . S
C467 C473 1.363 . S
C468 C469 1.363 . S
C468 C473 1.379 . S
C468 N475 1.356 . S
C469 C468 1.363 . S
C469 C472 1.363 . S
N470 C472 1.356 . S
N470 H482 0.984 1_554 S
N470 H483 0.985 . S
N471 C473 1.356 . S
N471 H476 0.984 . S
N471 H477 0.985 . S
C472 C466 1.379 . S
C472 C469 1.363 . S
C472 N470 1.356 . S
C473 C467 1.363 . S
C473 C468 1.379 . S
C473 N471 1.356 . S
N474 C466 1.356 . S
N474 H480 0.984 . S
N474 H481 0.984 . S
N475 C468 1.356 . S
N475 H478 0.984 . S
N475 H479 0.985 . S
H476 N471 0.984 . S
H477 N471 0.985 . S
H478 N475 0.984 . S
H479 N475 0.985 . S
H480 N474 0.984 . S
H481 N474 0.984 . S
H482 N470 0.984 1_556 S
H483 N470 0.985 . S
C484 C485 1.363 . S
C484 C490 1.379 . S
C484 N492 1.356 . S
C485 C484 1.363 . S
C485 C491 1.363 . S
C486 C487 1.363 . S
C486 C491 1.379 . S
C486 N493 1.356 . S
C487 C486 1.363 . S
C487 C490 1.363 . S
N488 C490 1.356 . S
N488 H500 0.984 . S
N488 H501 0.985 . S
N489 C491 1.356 . S
N489 H494 0.984 . S
N489 H495 0.985 . S
C490 C484 1.379 . S
C490 C487 1.363 . S
C490 N488 1.356 . S
C491 C485 1.363 . S
C491 C486 1.379 . S
C491 N489 1.356 . S
N492 C484 1.356 . S
N492 H498 0.984 . S
N492 H499 0.984 . S
N493 C486 1.356 . S
N493 H496 0.984 . S
N493 H497 0.985 . S
H494 N489 0.984 . S
H495 N489 0.985 . S
H496 N493 0.984 . S
H497 N493 0.985 . S
H498 N492 0.984 . S
H499 N492 0.984 . S
H500 N488 0.984 . S
H501 N488 0.985 . S
C502 C503 1.363 . S
C502 C508 1.379 . S
C502 N510 1.356 . S
C503 C502 1.363 . S
C503 C509 1.363 . S
C504 C505 1.363 . S
C504 C509 1.379 . S
C504 N511 1.356 . S
C505 C504 1.363 . S
C505 C508 1.363 . S
N506 C508 1.356 . S
N506 H518 0.984 . S
N506 H519 0.985 . S
N507 C509 1.356 . S
N507 H512 0.984 . S
N507 H513 0.985 . S
C508 C502 1.379 . S
C508 C505 1.363 . S
C508 N506 1.356 . S
C509 C503 1.363 . S
C509 C504 1.379 . S
C509 N507 1.356 . S
N510 C502 1.356 . S
N510 H516 0.984 . S
N510 H517 0.984 . S
N511 C504 1.356 . S
N511 H514 0.984 . S
N511 H515 0.985 . S
H512 N507 0.984 . S
H513 N507 0.985 . S
H514 N511 0.984 . S
H515 N511 0.985 . S
H516 N510 0.984 . S
H517 N510 0.984 . S
H518 N506 0.984 . S
H519 N506 0.985 . S
C520 C521 1.363 . S
C520 C526 1.379 . S
C520 N528 1.356 . S
C521 C520 1.363 . S
C521 C527 1.363 . S
C522 C523 1.363 . S
C522 C527 1.379 . S
C522 N529 1.356 . S
C523 C522 1.363 . S
C523 C526 1.363 . S
N524 C526 1.356 1_554 S
N524 H536 0.984 . S
N524 H537 0.985 . S
N525 C527 1.356 . S
N525 H530 0.984 . S
N525 H531 0.985 . S
C526 C520 1.379 . S
C526 C523 1.363 . S
C526 N524 1.356 1_556 S
C527 C521 1.363 . S
C527 C522 1.379 . S
C527 N525 1.356 . S
N528 C520 1.356 . S
N528 H534 0.984 1_556 S
N528 H535 0.984 . S
N529 C522 1.356 . S
N529 H532 0.984 . S
N529 H533 0.985 . S
H530 N525 0.984 . S
H531 N525 0.985 . S
H532 N529 0.984 . S
H533 N529 0.985 . S
H534 N528 0.984 1_554 S
H535 N528 0.984 . S
H536 N524 0.984 . S
H537 N524 0.985 . S
C538 C539 1.363 . S
C538 C544 1.379 . S
C538 N546 1.356 . S
C539 C538 1.363 . S
C539 C545 1.363 . S
C540 C541 1.363 . S
C540 C545 1.379 . S
C540 N547 1.356 . S
C541 C540 1.363 . S
C541 C544 1.363 . S
N542 C544 1.356 . S
N542 H554 0.984 . S
N542 H555 0.985 . S
N543 C545 1.356 . S
N543 H548 0.984 . S
N543 H549 0.985 . S
C544 C538 1.379 . S
C544 C541 1.363 . S
C544 N542 1.356 . S
C545 C539 1.363 . S
C545 C540 1.379 . S
C545 N543 1.356 . S
N546 C538 1.356 . S
N546 H552 0.984 . S
N546 H553 0.984 . S
N547 C540 1.356 . S
N547 H550 0.984 . S
N547 H551 0.985 . S
H548 N543 0.984 . S
H549 N543 0.985 . S
H550 N547 0.984 . S
H551 N547 0.985 . S
H552 N546 0.984 . S
H553 N546 0.984 . S
H554 N542 0.984 . S
H555 N542 0.985 . S
C556 C557 1.363 . S
C556 C562 1.379 . S
C556 N564 1.356 . S
C557 C556 1.363 . S
C557 C563 1.363 . S
C558 C559 1.363 . S
C558 C563 1.379 . S
C558 N565 1.356 . S
C559 C558 1.363 . S
C559 C562 1.363 . S
N560 C562 1.356 . S
N560 H572 0.984 . S
N560 H573 0.985 . S
N561 C563 1.356 . S
N561 H566 0.984 . S
N561 H567 0.985 . S
C562 C556 1.379 . S
C562 C559 1.363 . S
C562 N560 1.356 . S
C563 C557 1.363 . S
C563 C558 1.379 . S
C563 N561 1.356 . S
N564 C556 1.356 . S
N564 H570 0.984 . S
N564 H571 0.984 . S
N565 C558 1.356 . S
N565 H568 0.984 . S
N565 H569 0.985 . S
H566 N561 0.984 . S
H567 N561 0.985 . S
H568 N565 0.984 . S
H569 N565 0.985 . S
H570 N564 0.984 . S
H571 N564 0.984 . S
H572 N560 0.984 . S
H573 N560 0.985 . S
C574 C575 1.363 . S
C574 C580 1.379 . S
C574 N582 1.356 . S
C575 C574 1.363 . S
C575 C581 1.363 . S
C576 C577 1.363 . S
C576 C581 1.379 . S
C576 N583 1.356 . S
C577 C576 1.363 . S
C577 C580 1.363 . S
N578 C580 1.356 . S
N578 H590 0.984 . S
N578 H591 0.985 . S
N579 C581 1.356 . S
N579 H584 0.984 . S
N579 H585 0.985 . S
C580 C574 1.379 . S
C580 C577 1.363 . S
C580 N578 1.356 . S
C581 C575 1.363 . S
C581 C576 1.379 . S
C581 N579 1.356 . S
N582 C574 1.356 . S
N582 H588 0.984 . S
N582 H589 0.984 . S
N583 C576 1.356 . S
N583 H586 0.984 . S
N583 H587 0.985 . S
H584 N579 0.984 . S
H585 N579 0.985 . S
H586 N583 0.984 . S
H587 N583 0.985 . S
H588 N582 0.984 . S
H589 N582 0.984 . S
H590 N578 0.984 . S
H591 N578 0.985 . S
C592 C593 1.363 . S
C592 C598 1.379 . S
C592 N600 1.356 . S
C593 C592 1.363 . S
C593 C599 1.363 . S
C594 C595 1.363 . S
C594 C599 1.379 . S
C594 N601 1.356 1_556 S
C595 C594 1.363 . S
C595 C598 1.363 . S
N596 C598 1.356 . S
N596 H608 0.989 . S
N596 H609 0.985 . S
N597 C599 1.356 . S
N597 H602 0.984 . S
N597 H603 0.985 1_556 S
C598 C592 1.379 . S
C598 C595 1.363 . S
C598 N596 1.356 . S
C599 C593 1.363 . S
C599 C594 1.379 . S
C599 N597 1.356 . S
N600 C592 1.356 . S
N600 H606 0.984 . S
N600 H607 0.984 . S
N601 C594 1.356 1_554 S
N601 H604 0.984 . S
N601 H605 0.985 . S
H602 N597 0.984 . S
H603 N597 0.985 1_554 S
H604 N601 0.984 . S
H605 N601 0.985 . S
H606 N600 0.984 . S
H607 N600 0.984 . S
H608 N596 0.989 . S
H609 N596 0.985 . S
C610 C611 1.363 . S
C610 C616 1.379 . S
C610 N618 1.356 . S
C611 C610 1.363 . S
C611 C617 1.363 . S
C612 C613 1.363 . S
C612 C617 1.379 . S
C612 N619 1.356 . S
C613 C612 1.363 . S
C613 C616 1.363 . S
N614 C616 1.356 . S
N614 H626 0.984 . S
N614 H627 0.985 . S
N615 C617 1.356 . S
N615 H620 0.984 . S
N615 H621 0.985 . S
C616 C610 1.379 . S
C616 C613 1.363 . S
C616 N614 1.356 . S
C617 C611 1.363 . S
C617 C612 1.379 . S
C617 N615 1.356 . S
N618 C610 1.356 . S
N618 H624 0.984 . S
N618 H625 0.984 . S
N619 C612 1.356 . S
N619 H622 0.984 . S
N619 H623 0.985 . S
H620 N615 0.984 . S
H621 N615 0.985 . S
H622 N619 0.984 . S
H623 N619 0.985 . S
H624 N618 0.984 . S
H625 N618 0.984 . S
H626 N614 0.984 . S
H627 N614 0.985 . S
C628 C629 1.363 . S
C628 C634 1.379 . S
C628 N636 1.356 . S
C629 C628 1.363 . S
C629 C635 1.363 . S
C630 C631 1.363 . S
C630 C635 1.379 . S
C630 N637 1.356 . S
C631 C630 1.363 . S
C631 C634 1.363 . S
N632 C634 1.356 . S
N632 H644 0.984 . S
N632 H645 0.985 . S
N633 C635 1.356 . S
N633 H638 0.984 . S
N633 H639 0.985 . S
C634 C628 1.379 . S
C634 C631 1.363 . S
C634 N632 1.356 . S
C635 C629 1.363 . S
C635 C630 1.379 . S
C635 N633 1.356 . S
N636 C628 1.356 . S
N636 H642 0.984 . S
N636 H643 0.984 . S
N637 C630 1.356 . S
N637 H640 0.984 . S
N637 H641 0.985 . S
H638 N633 0.984 . S
H639 N633 0.985 . S
H640 N637 0.984 . S
H641 N637 0.985 . S
H642 N636 0.984 . S
H643 N636 0.984 . S
H644 N632 0.984 . S
H645 N632 0.985 . S
C646 C647 1.363 . S
C646 C652 1.379 . S
C646 N654 1.356 . S
C647 C646 1.363 . S
C647 C653 1.363 . S
C648 C649 1.363 . S
C648 C653 1.379 . S
C648 N655 1.356 . S
C649 C648 1.363 . S
C649 C652 1.363 . S
N650 C652 1.356 . S
N650 H662 0.984 . S
N650 H663 0.985 . S
N651 C653 1.356 . S
N651 H656 0.984 . S
N651 H657 0.985 . S
C652 C646 1.379 . S
C652 C649 1.363 . S
C652 N650 1.356 . S
C653 C647 1.363 . S
C653 C648 1.379 . S
C653 N651 1.356 . S
N654 C646 1.356 . S
N654 H660 0.984 . S
N654 H661 0.984 . S
N655 C648 1.356 . S
N655 H658 0.984 . S
N655 H659 0.985 . S
H656 N651 0.984 . S
H657 N651 0.985 . S
H658 N655 0.984 . S
H659 N655 0.985 . S
H660 N654 0.984 . S
H661 N654 0.984 . S
H662 N650 0.984 . S
H663 N650 0.985 . S
C233 C5 2.858 . S
C235 C91 2.834 . S
C251 C14 2.058 . S
C253 C122 2.186 . S
C271 C161 1.467 . S
C269 C25 1.494 . S
C287 C34 0.760 . S
C289 C198 0.760 . S
C307 C121 2.715 . S
C305 C7 2.826 . S
C325 C78 1.279 . S
C323 C13 1.322 . S
C343 C210 1.572 . S
C341 C23 1.634 . S
C361 C167 1.273 . S
C359 C31 1.273 . S
C377 C4 2.326 . S
C379 C211 2.323 . S
C397 C127 1.356 . S
C395 C22 1.371 . S
C413 C32 0.528 . S
C415 C90 0.625 . S
C431 C16 2.138 . S
C433 C162 2.147 . S
C451 C82 2.825 . S
C449 C41 2.847 . S
C467 C50 2.059 . S
C469 C131 2.193 . S
C485 C61 1.488 . S
C487 C170 1.466 . S
C503 C67 0.763 . S
C505 C207 0.763 . S
C521 C40 2.838 . S
C523 C130 2.728 . S
C541 C87 1.268 . S
C539 C52 1.308 . S
C559 C201 1.576 . S
C557 C59 1.634 . S
C577 C158 1.269 . S
C575 C70 1.279 . S
C593 C43 2.323 . S
C595 C202 2.323 . S
C613 C118 1.355 . S
C611 C58 1.369 . S
C631 C81 0.629 . S
C629 C68 0.521 . S
C647 C49 2.142 . S
C649 C171 2.152 . S
