# Generated by pormake.
# Topology ptr, (4,4)-cn, num edge types: 1
# Building blocks:
#     Node 0, Type 0, BuildingBlock: CEKHIL_clean_sbu_0, # of connection points: 4
#     Node 1, Type 0, BuildingBlock: CEKHIL_clean_sbu_0, # of connection points: 4
#     Node 2, Type 0, BuildingBlock: CEKHIL_clean_sbu_0, # of connection points: 4
#     Node 3, Type 0, BuildingBlock: CEKHIL_clean_sbu_0, # of connection points: 4
#     Node 4, Type 0, BuildingBlock: CEKHIL_clean_sbu_0, # of connection points: 4
#     Node 5, Type 0, BuildingBlock: CEKHIL_clean_sbu_0, # of connection points: 4
#     Node 6, Type 0, BuildingBlock: CEKHIL_clean_sbu_0, # of connection points: 4
#     Node 7, Type 0, BuildingBlock: CEKHIL_clean_sbu_0, # of connection points: 4
#     Node 8, Type 0, BuildingBlock: CEKHIL_clean_sbu_0, # of connection points: 4
#     Node 9, Type 0, BuildingBlock: CEKHIL_clean_sbu_0, # of connection points: 4
#     Node 10, Type 0, BuildingBlock: CEKHIL_clean_sbu_0, # of connection points: 4
#     Node 11, Type 0, BuildingBlock: CEKHIL_clean_sbu_0, # of connection points: 4
#     Node 12, Type 0, BuildingBlock: CEKHIL_clean_sbu_0, # of connection points: 4
#     Node 13, Type 0, BuildingBlock: CEKHIL_clean_sbu_0, # of connection points: 4
#     Node 14, Type 0, BuildingBlock: CEKHIL_clean_sbu_0, # of connection points: 4
#     Node 15, Type 0, BuildingBlock: CEKHIL_clean_sbu_0, # of connection points: 4
#     Node 16, Type 0, BuildingBlock: CEKHIL_clean_sbu_0, # of connection points: 4
#     Node 17, Type 0, BuildingBlock: CEKHIL_clean_sbu_0, # of connection points: 4
#     Node 18, Type 1, BuildingBlock: NAHDIM_clean_linker_0, # of connection points: 4
#     Node 19, Type 1, BuildingBlock: NAHDIM_clean_linker_0, # of connection points: 4
#     Node 20, Type 1, BuildingBlock: NAHDIM_clean_linker_0, # of connection points: 4
#     Node 21, Type 1, BuildingBlock: NAHDIM_clean_linker_0, # of connection points: 4
#     Node 22, Type 1, BuildingBlock: NAHDIM_clean_linker_0, # of connection points: 4
#     Node 23, Type 1, BuildingBlock: NAHDIM_clean_linker_0, # of connection points: 4
#     Node 24, Type 1, BuildingBlock: NAHDIM_clean_linker_0, # of connection points: 4
#     Node 25, Type 1, BuildingBlock: NAHDIM_clean_linker_0, # of connection points: 4
#     Node 26, Type 1, BuildingBlock: NAHDIM_clean_linker_0, # of connection points: 4
#     Node 27, Type 1, BuildingBlock: NAHDIM_clean_linker_0, # of connection points: 4
#     Node 28, Type 1, BuildingBlock: NAHDIM_clean_linker_0, # of connection points: 4
#     Node 29, Type 1, BuildingBlock: NAHDIM_clean_linker_0, # of connection points: 4
#     Node 30, Type 1, BuildingBlock: NAHDIM_clean_linker_0, # of connection points: 4
#     Node 31, Type 1, BuildingBlock: NAHDIM_clean_linker_0, # of connection points: 4
#     Node 32, Type 1, BuildingBlock: NAHDIM_clean_linker_0, # of connection points: 4
#     Node 33, Type 1, BuildingBlock: NAHDIM_clean_linker_0, # of connection points: 4
#     Node 34, Type 1, BuildingBlock: NAHDIM_clean_linker_0, # of connection points: 4
#     Node 35, Type 1, BuildingBlock: NAHDIM_clean_linker_0, # of connection points: 4
#     Edge 36, Type (0, 1), BuildingBlock: AJUNOK_clean_linker_0, # of connection points: 2
#     Edge 37, Type (0, 1), BuildingBlock: AJUNOK_clean_linker_0, # of connection points: 2
#     Edge 38, Type (0, 1), BuildingBlock: AJUNOK_clean_linker_0, # of connection points: 2
#     Edge 39, Type (0, 1), BuildingBlock: AJUNOK_clean_linker_0, # of connection points: 2
#     Edge 40, Type (0, 1), BuildingBlock: AJUNOK_clean_linker_0, # of connection points: 2
#     Edge 41, Type (0, 1), BuildingBlock: AJUNOK_clean_linker_0, # of connection points: 2
#     Edge 42, Type (0, 1), BuildingBlock: AJUNOK_clean_linker_0, # of connection points: 2
#     Edge 43, Type (0, 1), BuildingBlock: AJUNOK_clean_linker_0, # of connection points: 2
#     Edge 44, Type (0, 1), BuildingBlock: AJUNOK_clean_linker_0, # of connection points: 2
#     Edge 45, Type (0, 1), BuildingBlock: AJUNOK_clean_linker_0, # of connection points: 2
#     Edge 46, Type (0, 1), BuildingBlock: AJUNOK_clean_linker_0, # of connection points: 2
#     Edge 47, Type (0, 1), BuildingBlock: AJUNOK_clean_linker_0, # of connection points: 2
#     Edge 48, Type (0, 1), BuildingBlock: AJUNOK_clean_linker_0, # of connection points: 2
#     Edge 49, Type (0, 1), BuildingBlock: AJUNOK_clean_linker_0, # of connection points: 2
#     Edge 50, Type (0, 1), BuildingBlock: AJUNOK_clean_linker_0, # of connection points: 2
#     Edge 51, Type (0, 1), BuildingBlock: AJUNOK_clean_linker_0, # of connection points: 2
#     Edge 52, Type (0, 1), BuildingBlock: AJUNOK_clean_linker_0, # of connection points: 2
#     Edge 53, Type (0, 1), BuildingBlock: AJUNOK_clean_linker_0, # of connection points: 2
#     Edge 54, Type (0, 1), BuildingBlock: AJUNOK_clean_linker_0, # of connection points: 2
#     Edge 55, Type (0, 1), BuildingBlock: AJUNOK_clean_linker_0, # of connection points: 2
#     Edge 56, Type (0, 1), BuildingBlock: AJUNOK_clean_linker_0, # of connection points: 2
#     Edge 57, Type (0, 1), BuildingBlock: AJUNOK_clean_linker_0, # of connection points: 2
#     Edge 58, Type (0, 1), BuildingBlock: AJUNOK_clean_linker_0, # of connection points: 2
#     Edge 59, Type (0, 1), BuildingBlock: AJUNOK_clean_linker_0, # of connection points: 2
#     Edge 60, Type (0, 1), BuildingBlock: AJUNOK_clean_linker_0, # of connection points: 2
#     Edge 61, Type (0, 1), BuildingBlock: AJUNOK_clean_linker_0, # of connection points: 2
#     Edge 62, Type (0, 1), BuildingBlock: AJUNOK_clean_linker_0, # of connection points: 2
#     Edge 63, Type (0, 1), BuildingBlock: AJUNOK_clean_linker_0, # of connection points: 2
#     Edge 64, Type (0, 1), BuildingBlock: AJUNOK_clean_linker_0, # of connection points: 2
#     Edge 65, Type (0, 1), BuildingBlock: AJUNOK_clean_linker_0, # of connection points: 2
#     Edge 66, Type (0, 1), BuildingBlock: AJUNOK_clean_linker_0, # of connection points: 2
#     Edge 67, Type (0, 1), BuildingBlock: AJUNOK_clean_linker_0, # of connection points: 2
#     Edge 68, Type (0, 1), BuildingBlock: AJUNOK_clean_linker_0, # of connection points: 2
#     Edge 69, Type (0, 1), BuildingBlock: AJUNOK_clean_linker_0, # of connection points: 2
#     Edge 70, Type (0, 1), BuildingBlock: AJUNOK_clean_linker_0, # of connection points: 2
#     Edge 71, Type (0, 1), BuildingBlock: AJUNOK_clean_linker_0, # of connection points: 2
#     Edge 72, Type (0, 1), BuildingBlock: AJUNOK_clean_linker_0, # of connection points: 2
#     Edge 73, Type (0, 1), BuildingBlock: AJUNOK_clean_linker_0, # of connection points: 2
#     Edge 74, Type (0, 1), BuildingBlock: AJUNOK_clean_linker_0, # of connection points: 2
#     Edge 75, Type (0, 1), BuildingBlock: AJUNOK_clean_linker_0, # of connection points: 2
#     Edge 76, Type (0, 1), BuildingBlock: AJUNOK_clean_linker_0, # of connection points: 2
#     Edge 77, Type (0, 1), BuildingBlock: AJUNOK_clean_linker_0, # of connection points: 2
#     Edge 78, Type (0, 1), BuildingBlock: AJUNOK_clean_linker_0, # of connection points: 2
#     Edge 79, Type (0, 1), BuildingBlock: AJUNOK_clean_linker_0, # of connection points: 2
#     Edge 80, Type (0, 1), BuildingBlock: AJUNOK_clean_linker_0, # of connection points: 2
#     Edge 81, Type (0, 1), BuildingBlock: AJUNOK_clean_linker_0, # of connection points: 2
#     Edge 82, Type (0, 1), BuildingBlock: AJUNOK_clean_linker_0, # of connection points: 2
#     Edge 83, Type (0, 1), BuildingBlock: AJUNOK_clean_linker_0, # of connection points: 2
#     Edge 84, Type (0, 1), BuildingBlock: AJUNOK_clean_linker_0, # of connection points: 2
#     Edge 85, Type (0, 1), BuildingBlock: AJUNOK_clean_linker_0, # of connection points: 2
#     Edge 86, Type (0, 1), BuildingBlock: AJUNOK_clean_linker_0, # of connection points: 2
#     Edge 87, Type (0, 1), BuildingBlock: AJUNOK_clean_linker_0, # of connection points: 2
#     Edge 88, Type (0, 1), BuildingBlock: AJUNOK_clean_linker_0, # of connection points: 2
#     Edge 89, Type (0, 1), BuildingBlock: AJUNOK_clean_linker_0, # of connection points: 2
#     Edge 90, Type (0, 1), BuildingBlock: AJUNOK_clean_linker_0, # of connection points: 2
#     Edge 91, Type (0, 1), BuildingBlock: AJUNOK_clean_linker_0, # of connection points: 2
#     Edge 92, Type (0, 1), BuildingBlock: AJUNOK_clean_linker_0, # of connection points: 2
#     Edge 93, Type (0, 1), BuildingBlock: AJUNOK_clean_linker_0, # of connection points: 2
#     Edge 94, Type (0, 1), BuildingBlock: AJUNOK_clean_linker_0, # of connection points: 2
#     Edge 95, Type (0, 1), BuildingBlock: AJUNOK_clean_linker_0, # of connection points: 2
#     Edge 96, Type (0, 1), BuildingBlock: AJUNOK_clean_linker_0, # of connection points: 2
#     Edge 97, Type (0, 1), BuildingBlock: AJUNOK_clean_linker_0, # of connection points: 2
#     Edge 98, Type (0, 1), BuildingBlock: AJUNOK_clean_linker_0, # of connection points: 2
#     Edge 99, Type (0, 1), BuildingBlock: AJUNOK_clean_linker_0, # of connection points: 2
#     Edge 100, Type (0, 1), BuildingBlock: AJUNOK_clean_linker_0, # of connection points: 2
#     Edge 101, Type (0, 1), BuildingBlock: AJUNOK_clean_linker_0, # of connection points: 2
#     Edge 102, Type (0, 1), BuildingBlock: AJUNOK_clean_linker_0, # of connection points: 2
#     Edge 103, Type (0, 1), BuildingBlock: AJUNOK_clean_linker_0, # of connection points: 2
#     Edge 104, Type (0, 1), BuildingBlock: AJUNOK_clean_linker_0, # of connection points: 2
#     Edge 105, Type (0, 1), BuildingBlock: AJUNOK_clean_linker_0, # of connection points: 2
#     Edge 106, Type (0, 1), BuildingBlock: AJUNOK_clean_linker_0, # of connection points: 2
#     Edge 107, Type (0, 1), BuildingBlock: AJUNOK_clean_linker_0, # of connection points: 2
# Relax obj value: 0.031
# Max RMSD: 0.168
# Mean RMSD: 0.058
data_MOF--net-ptr--node1-CEKHIL_clean_sbu_0--node2-NAHDIM_clean_linker_0--edge1-AJUNOK_clean_linker_0
_symmetry_space_group_name_H-M    P1
_symmetry_Int_Tables_number       1
_symmetry_cell_setting            triclinic
loop_
_symmetry_equiv_pos_as_xyz
'x, y, z'
_cell_length_a     77.247139
_cell_length_b     75.809779
_cell_length_c     65.475932
_cell_angle_alpha  92.059894
_cell_angle_beta   89.908468
_cell_angle_gamma 121.20671
loop_
_atom_site_label
_atom_site_type_symbol
_atom_site_fract_x
_atom_site_fract_y
_atom_site_fract_z
_atom_type_partial_charge
Co0 Co 0.00886 0.33864 0.0136 0.0
O1 O 0.01588 0.32775 0.03592 0.0
O2 O 0.03742 0.35643 0.02043 0.0
C3 C 0.99092 0.30834 0.99577 0.0
O4 O 0.00674 0.35426 0.98994 0.0
Co5 Co 0.96386 0.32391 0.00583 0.0
O6 O 0.97401 0.34085 0.98136 0.0
C7 C 0.98563 0.35237 0.04073 0.0
C8 C 0.03403 0.34357 0.03472 0.0
C9 C 0.99275 0.35347 0.97852 0.0
O10 O 0.00218 0.35476 0.03365 0.0
O11 O 0.96823 0.33931 0.03285 0.0
O12 O 0.01049 0.31947 0.99426 0.0
O13 O 0.98316 0.3151 0.00912 0.0
Co14 Co 0.65809 0.65697 0.01003 0.0
O15 O 0.67785 0.6771 0.99252 0.0
O16 O 0.67505 0.6473 0.99896 0.0
C17 C 0.66373 0.68067 0.03513 0.0
O18 O 0.64052 0.63276 0.02782 0.0
Co19 Co 0.62067 0.65817 0.02356 0.0
O20 O 0.61475 0.63491 0.04086 0.0
C21 C 0.62233 0.64411 0.98145 0.0
C22 C 0.68484 0.66488 0.99013 0.0
C23 C 0.62492 0.6261 0.03911 0.0
O24 O 0.63834 0.64388 0.98635 0.0
O25 O 0.614 0.65095 0.99368 0.0
O26 O 0.67488 0.67247 0.03373 0.0
O27 O 0.64986 0.67465 0.02106 0.0
Co28 Co 0.33557 0.0061 0.00558 0.0
O29 O 0.32071 0.01291 0.98728 0.0
O30 O 0.35048 0.03551 0.00156 0.0
C31 C 0.30885 0.98599 0.02512 0.0
O32 O 0.35477 0.00507 0.02609 0.0
Co33 Co 0.32558 0.96146 0.00848 0.0
O34 O 0.34306 0.97215 0.03345 0.0
C35 C 0.34924 0.98557 0.97382 0.0
C36 C 0.33519 0.03198 0.99007 0.0
C37 C 0.35525 0.99142 0.0368 0.0
O38 O 0.34976 0.00151 0.98202 0.0
O39 O 0.33918 0.96765 0.98125 0.0
O40 O 0.31914 0.0059 0.02801 0.0
O41 O 0.31397 0.97888 0.00945 0.0
Co42 Co 0.00337 0.6728 0.01822 0.0
O43 O 0.99985 0.68789 0.99731 0.0
O44 O 0.97513 0.65927 0.0101 0.0
C45 C 0.02326 0.70164 0.03783 0.0
O46 O 0.00056 0.6534 0.04045 0.0
Co47 Co 0.04442 0.67932 0.03026 0.0
O48 O 0.03076 0.66241 0.05402 0.0
C49 C 0.02454 0.65664 0.99151 0.0
C50 C 0.98064 0.67438 0.99788 0.0
C51 C 0.01153 0.65142 0.05383 0.0
O52 O 0.0084 0.65637 0.99685 0.0
O53 O 0.04104 0.66628 0.0021 0.0
O54 O 0.00366 0.69192 0.03886 0.0
O55 O 0.03029 0.69374 0.02483 0.0
Co56 Co 0.34026 0.34132 0.99391 0.0
O57 O 0.32346 0.32486 0.0156 0.0
O58 O 0.3264 0.35398 0.00616 0.0
C59 C 0.32915 0.31342 0.97234 0.0
O60 O 0.35455 0.36216 0.97194 0.0
Co61 Co 0.37349 0.33692 0.97446 0.0
O62 O 0.3744 0.35505 0.95294 0.0
C63 C 0.37982 0.35586 0.01606 0.0
C64 C 0.31767 0.33811 0.01765 0.0
C65 C 0.36602 0.36547 0.95654 0.0
O66 O 0.36379 0.35675 0.01361 0.0
O67 O 0.38544 0.34714 0.00276 0.0
O68 O 0.3194 0.3231 0.97418 0.0
O69 O 0.34558 0.32107 0.98338 0.0
Co70 Co 0.66545 0.00172 0.00577 0.0
O71 O 0.67971 0.99647 0.02637 0.0
O72 O 0.64996 0.97297 0.01277 0.0
C73 C 0.69295 0.01958 0.98633 0.0
O74 O 0.64669 0.00116 0.98343 0.0
Co75 Co 0.67647 0.04589 0.99739 0.0
O76 O 0.65934 0.03319 0.97243 0.0
C77 C 0.65308 0.02608 0.0339 0.0
C78 C 0.66494 0.97742 0.02522 0.0
C79 C 0.64678 0.01384 0.97078 0.0
O80 O 0.65155 0.00909 0.0275 0.0
O81 O 0.66363 0.04301 0.02477 0.0
O82 O 0.68218 0.99956 0.98488 0.0
O83 O 0.68744 0.02812 0.00028 0.0
Co84 Co 0.67113 0.67553 0.34653 0.0
O85 O 0.66999 0.65732 0.36685 0.0
O86 O 0.69688 0.68799 0.36112 0.0
C87 C 0.65637 0.65026 0.32173 0.0
O88 O 0.67829 0.69837 0.32666 0.0
Co89 Co 0.63209 0.66952 0.32662 0.0
O90 O 0.65042 0.69372 0.31058 0.0
C91 C 0.64309 0.68572 0.36921 0.0
C92 C 0.68862 0.67123 0.37135 0.0
C93 C 0.66945 0.70381 0.31388 0.0
O94 O 0.66081 0.68836 0.36685 0.0
O95 O 0.62893 0.67666 0.35565 0.0
O96 O 0.67574 0.6596 0.32545 0.0
O97 O 0.6466 0.65595 0.33355 0.0
Co98 Co 0.33006 0.9972 0.35394 0.0
O99 O 0.34812 0.01284 0.33257 0.0
O100 O 0.3399 0.98127 0.34022 0.0
C101 C 0.34376 0.02295 0.37796 0.0
O102 O 0.31328 0.97649 0.37528 0.0
Co103 Co 0.3008 0.00842 0.37449 0.0
O104 O 0.29714 0.9881 0.39482 0.0
C105 C 0.29158 0.98931 0.33276 0.0
C106 C 0.35059 0.99728 0.32929 0.0
C107 C 0.30256 0.97511 0.39087 0.0
O108 O 0.30609 0.98572 0.33442 0.0
O109 O 0.28811 0.9995 0.34646 0.0
O110 O 0.35209 0.01214 0.37399 0.0
O111 O 0.32853 0.01902 0.36645 0.0
Co112 Co 0.01546 0.34195 0.34104 0.0
O113 O 0.00518 0.34719 0.31648 0.0
O114 O 0.03231 0.37039 0.3343 0.0
C115 C 0.98506 0.32393 0.35638 0.0
O116 O 0.03091 0.3438 0.36685 0.0
Co117 Co 0.003 0.29846 0.35513 0.0
O118 O 0.02279 0.31284 0.37803 0.0
C119 C 0.03328 0.31752 0.32272 0.0
C120 C 0.0201 0.3662 0.31885 0.0
C121 C 0.03319 0.33245 0.37931 0.0
O122 O 0.03297 0.33431 0.32455 0.0
O123 O 0.02155 0.30129 0.33238 0.0
O124 O 0.99523 0.34399 0.35722 0.0
O125 O 0.99294 0.31544 0.34544 0.0
Co126 Co 0.66029 0.99238 0.34299 0.0
O127 O 0.65486 0.00157 0.31802 0.0
O128 O 0.63411 0.97166 0.33199 0.0
C129 C 0.67198 0.02258 0.36078 0.0
O130 O 0.65947 0.97755 0.36861 0.0
Co131 Co 0.70277 0.01148 0.36276 0.0
O132 O 0.68873 0.99439 0.38642 0.0
C133 C 0.69231 0.98513 0.32505 0.0
C134 C 0.63767 0.98417 0.31738 0.0
C135 C 0.6703 0.97989 0.38453 0.0
O136 O 0.6736 0.97959 0.327 0.0
O137 O 0.70643 0.99894 0.33679 0.0
O138 O 0.65262 0.00937 0.35905 0.0
O139 O 0.68345 0.01757 0.35102 0.0
Co140 Co 0.00993 0.68033 0.33361 0.0
O141 O 0.99116 0.66359 0.3542 0.0
O142 O 0.99376 0.6917 0.34209 0.0
C143 C 0.0034 0.65285 0.3131 0.0
O144 O 0.02551 0.70113 0.31195 0.0
Co145 Co 0.0469 0.67887 0.3194 0.0
O146 O 0.04819 0.69568 0.29633 0.0
C147 C 0.04684 0.69646 0.36052 0.0
C148 C 0.98448 0.67619 0.3539 0.0
C149 C 0.03834 0.70486 0.29777 0.0
O150 O 0.0311 0.69709 0.35539 0.0
O151 O 0.05441 0.68839 0.34881 0.0
O152 O 0.99178 0.66055 0.31254 0.0
O153 O 0.01842 0.66187 0.32601 0.0
Co154 Co 0.32453 0.33427 0.34034 0.0
O155 O 0.33908 0.33024 0.36181 0.0
O156 O 0.30968 0.30599 0.3482 0.0
C157 C 0.35195 0.35203 0.32079 0.0
O158 O 0.30532 0.33143 0.31752 0.0
Co159 Co 0.33313 0.37659 0.32789 0.0
O160 O 0.31564 0.36177 0.30354 0.0
C161 C 0.3112 0.35923 0.36593 0.0
C162 C 0.32458 0.311 0.36091 0.0
C163 C 0.30399 0.34226 0.30363 0.0
O164 O 0.31013 0.34208 0.3611 0.0
O165 O 0.32095 0.37532 0.35537 0.0
O166 O 0.34183 0.33199 0.3202 0.0
O167 O 0.34576 0.36077 0.33377 0.0
Co168 Co 0.3424 0.01562 0.67981 0.0
O169 O 0.343 0.00631 0.70666 0.0
O170 O 0.369 0.03282 0.6922 0.0
C171 C 0.32643 0.98379 0.66433 0.0
O172 O 0.34816 0.02961 0.6526 0.0
Co173 Co 0.30248 0.00207 0.65598 0.0
O174 O 0.3202 0.01667 0.63288 0.0
C175 C 0.31669 0.03439 0.68918 0.0
C176 C 0.36187 0.021 0.7077 0.0
C177 C 0.3392 0.02872 0.63573 0.0
O178 O 0.33329 0.03448 0.69137 0.0
O179 O 0.30218 0.02174 0.67711 0.0
O180 O 0.34591 0.99381 0.66748 0.0
O181 O 0.31723 0.99273 0.67158 0.0
Co182 Co 0.98764 0.32292 0.67137 0.0
O183 O 0.0086 0.34462 0.65602 0.0
O184 O 0.00793 0.31624 0.66425 0.0
C185 C 0.98691 0.34441 0.69565 0.0
O186 O 0.96946 0.29773 0.68772 0.0
Co187 Co 0.94622 0.31883 0.67737 0.0
O188 O 0.94093 0.29691 0.69642 0.0
C189 C 0.95574 0.30715 0.6375 0.0
C190 C 0.01745 0.33401 0.65573 0.0
C191 C 0.95263 0.28981 0.69716 0.0
O192 O 0.97175 0.30879 0.64546 0.0
O193 O 0.94453 0.31235 0.64715 0.0
O194 O 1.0001 0.33872 0.69663 0.0
O195 O 0.97529 0.33786 0.6795 0.0
Co196 Co 0.66932 0.66929 0.67013 0.0
O197 O 0.65185 0.66806 0.64856 0.0
O198 O 0.68123 0.69576 0.65755 0.0
C199 C 0.64414 0.65408 0.69288 0.0
O200 O 0.69104 0.67701 0.69213 0.0
Co201 Co 0.66396 0.63031 0.68917 0.0
O202 O 0.68307 0.64959 0.71064 0.0
C203 C 0.68261 0.64219 0.64855 0.0
C204 C 0.66483 0.68748 0.64624 0.0
C205 C 0.69407 0.66879 0.70753 0.0
O206 O 0.68297 0.65936 0.65045 0.0
O207 O 0.67438 0.62814 0.66167 0.0
O208 O 0.65316 0.67373 0.69009 0.0
O209 O 0.64989 0.64402 0.68119 0.0
Co210 Co 0.33575 0.3305 0.68523 0.0
O211 O 0.33471 0.34675 0.66387 0.0
O212 O 0.30857 0.31764 0.67414 0.0
C213 C 0.3536 0.35853 0.70653 0.0
O214 O 0.3298 0.30988 0.70716 0.0
Co215 Co 0.37422 0.33526 0.70281 0.0
O216 O 0.3576 0.3173 0.72492 0.0
C217 C 0.35949 0.31519 0.6619 0.0
C218 C 0.31541 0.33346 0.66265 0.0
C219 C 0.33852 0.30676 0.72208 0.0
O220 O 0.34289 0.31489 0.66491 0.0
O221 O 0.37446 0.32393 0.67461 0.0
O222 O 0.33398 0.34875 0.70539 0.0
O223 O 0.36199 0.35099 0.69487 0.0
Co224 Co 0.6724 0.01376 0.6574 0.0
O225 O 0.65474 0.00129 0.68014 0.0
O226 O 0.66131 0.0303 0.66636 0.0
C227 C 0.65923 0.98356 0.63906 0.0
O228 O 0.6883 0.03126 0.63365 0.0
Co229 Co 0.70311 0.00292 0.64166 0.0
O230 O 0.70691 0.02017 0.61809 0.0
C231 C 0.71095 0.02666 0.68085 0.0
C232 C 0.65143 0.01641 0.67972 0.0
C233 C 0.69994 0.03212 0.61918 0.0
O234 O 0.69624 0.0294 0.67673 0.0
O235 O 0.71503 0.01521 0.66954 0.0
O236 O 0.65071 0.99451 0.63867 0.0
O237 O 0.67533 0.99112 0.65052 0.0
Co238 Co 0.99059 0.66759 0.67039 0.0
O239 O 0.00133 0.66009 0.69293 0.0
O240 O 0.97275 0.63896 0.67593 0.0
C241 C 0.02041 0.68506 0.65424 0.0
O242 O 0.97462 0.66823 0.64605 0.0
Co243 Co 0.00414 0.71195 0.65969 0.0
O244 O 0.98732 0.69992 0.63441 0.0
C245 C 0.97936 0.69392 0.69609 0.0
C246 C 0.98556 0.64162 0.69028 0.0
C247 C 0.97483 0.68055 0.63294 0.0
O248 O 0.97584 0.67599 0.69003 0.0
O249 O 0.99155 0.71039 0.68695 0.0
O250 O 0.00911 0.66508 0.65193 0.0
O251 O 0.0137 0.69367 0.66667 0.0
C252 C 0.22542 0.30186 0.0363 0.0
C253 C 0.24034 0.3162 0.05314 0.0
C254 C 0.22215 0.30661 0.08461 0.0
C255 C 0.22555 0.32534 0.09318 0.0
C256 C 0.21092 0.32594 0.10537 0.0
C257 C 0.19251 0.30738 0.10885 0.0
C258 C 0.18946 0.28833 0.10096 0.0
C259 C 0.20452 0.28818 0.08906 0.0
C260 C 0.21493 0.34644 0.11409 0.0
C261 C 0.1701 0.26827 0.10463 0.0
C262 C 0.06803 0.33213 0.06359 0.0
C263 C 0.08179 0.33099 0.07862 0.0
C264 C 0.1112 0.3282 0.08062 0.0
C265 C 0.10363 0.30797 0.08662 0.0
C266 C 0.11566 0.30303 0.09827 0.0
C267 C 0.13549 0.31882 0.10434 0.0
C268 C 0.1433 0.33916 0.09778 0.0
C269 C 0.13109 0.34351 0.0857 0.0
C270 C 0.10712 0.28102 0.10423 0.0
C271 C 0.16446 0.35634 0.10365 0.0
C272 C 0.09429 0.31297 0.23744 0.0
C273 C 0.09095 0.29376 0.23031 0.0
C274 C 0.10557 0.29239 0.21882 0.0
C275 C 0.12395 0.31063 0.21446 0.0
C276 C 0.12703 0.33009 0.22098 0.0
C277 C 0.11199 0.33101 0.23223 0.0
C278 C 0.10153 0.27143 0.21162 0.0
C279 C 0.14638 0.34983 0.21643 0.0
C280 C 0.24531 0.27746 0.23271 0.0
C281 C 0.24272 0.29552 0.23931 0.0
C282 C 0.20977 0.29245 0.23817 0.0
C283 C 0.18958 0.27668 0.23534 0.0
C284 C 0.17563 0.28022 0.2254 0.0
C285 C 0.18202 0.30021 0.21869 0.0
C286 C 0.20208 0.3166 0.22302 0.0
C287 C 0.21581 0.31251 0.23258 0.0
C288 C 0.15428 0.26244 0.2214 0.0
C289 C 0.20923 0.3383 0.2169 0.0
C290 C 0.17607 0.30816 0.11974 0.0
C291 C 0.16306 0.31173 0.10822 0.0
C292 C 0.14809 0.31412 0.11752 0.0
C293 C 0.14584 0.31278 0.13897 0.0
C294 C 0.13109 0.31534 0.14891 0.0
C295 C 0.12903 0.31398 0.17002 0.0
C296 C 0.14188 0.31039 0.18204 0.0
C297 C 0.14007 0.30922 0.20352 0.0
C298 C 0.15337 0.30601 0.21506 0.0
C299 C 0.16833 0.30359 0.20568 0.0
C300 C 0.1701 0.30432 0.18417 0.0
C301 C 0.1847 0.30151 0.17417 0.0
C302 C 0.18668 0.30275 0.15308 0.0
C303 C 0.17397 0.30655 0.14113 0.0
C304 C 0.15885 0.30898 0.15079 0.0
C305 C 0.15694 0.3079 0.17235 0.0
C306 C 0.06036 0.30698 0.28017 0.0
C307 C 0.07515 0.30402 0.26817 0.0
O308 O 0.23545 0.30619 0.07143 0.0
O309 O 0.22313 0.2878 0.246 0.0
O310 O 0.081 0.31428 0.25002 0.0
O311 O 0.09931 0.33327 0.07036 0.0
H312 H 0.239 0.33014 0.0545 0.0
H313 H 0.20981 0.29776 0.04024 0.0
H314 H 0.22573 0.2874 0.03449 0.0
H315 H 0.22923 0.30966 0.0215 0.0
H316 H 0.23954 0.3395 0.09006 0.0
H317 H 0.20223 0.27378 0.08247 0.0
H318 H 0.20424 0.35017 0.10698 0.0
H319 H 0.23063 0.35919 0.11138 0.0
H320 H 0.21228 0.34557 0.1308 0.0
H321 H 0.17027 0.25472 0.09783 0.0
H322 H 0.1571 0.26865 0.09794 0.0
H323 H 0.16763 0.26631 0.1213 0.0
H324 H 0.0742 0.318 0.08926 0.0
H325 H 0.05393 0.31634 0.06314 0.0
H326 H 0.07309 0.33022 0.04794 0.0
H327 H 0.06812 0.35879 0.07343 0.0
H328 H 0.08831 0.2961 0.08217 0.0
H329 H 0.13678 0.35904 0.08075 0.0
H330 H 0.11803 0.27601 0.10068 0.0
H331 H 0.09249 0.2702 0.09624 0.0
H332 H 0.10465 0.27998 0.12095 0.0
H333 H 0.16719 0.37173 0.0998 0.0
H334 H 0.17552 0.35372 0.09534 0.0
H335 H 0.16733 0.35645 0.12028 0.0
H336 H 0.07135 0.28769 0.26658 0.0
H337 H 0.07692 0.27983 0.23382 0.0
H338 H 0.11433 0.34577 0.23769 0.0
H339 H 0.10379 0.27116 0.19488 0.0
H340 H 0.08594 0.25886 0.21504 0.0
H341 H 0.11247 0.26832 0.21919 0.0
H342 H 0.14659 0.3637 0.22287 0.0
H343 H 0.14828 0.35116 0.19964 0.0
H344 H 0.15951 0.34952 0.22284 0.0
H345 H 0.24537 0.30454 0.22539 0.0
H346 H 0.26097 0.28326 0.22744 0.0
H347 H 0.23461 0.26839 0.21987 0.0
H348 H 0.24214 0.26702 0.24552 0.0
H349 H 0.18501 0.26134 0.24011 0.0
H350 H 0.23129 0.32491 0.23552 0.0
H351 H 0.15054 0.26071 0.2048 0.0
H352 H 0.14352 0.26569 0.22947 0.0
H353 H 0.15201 0.24762 0.22665 0.0
H354 H 0.22392 0.34977 0.2244 0.0
H355 H 0.1978 0.34251 0.22086 0.0
H356 H 0.21116 0.3392 0.20009 0.0
H357 H 0.16487 0.31305 0.0918 0.0
H358 H 0.12093 0.31839 0.14049 0.0
H359 H 0.11732 0.31596 0.17681 0.0
H360 H 0.15196 0.30524 0.23154 0.0
H361 H 0.19486 0.29842 0.18252 0.0
H362 H 0.1983 0.30064 0.14626 0.0
H363 H 0.04626 0.29122 0.28042 0.0
H364 H 0.05378 0.31337 0.26942 0.0
H365 H 0.07681 0.32303 0.30669 0.0
C366 C 0.66615 0.8975 0.05452 0.0
C367 C 0.6669 0.91322 0.07049 0.0
C368 C 0.68806 0.90967 0.09598 0.0
C369 C 0.67276 0.89242 0.10573 0.0
C370 C 0.67746 0.88048 0.1178 0.0
C371 C 0.69783 0.8857 0.11993 0.0
C372 C 0.71336 0.9036 0.11088 0.0
C373 C 0.70827 0.91553 0.09923 0.0
C374 C 0.66055 0.86193 0.12787 0.0
C375 C 0.73524 0.90972 0.11303 0.0
C376 C 0.71231 0.77687 0.05118 0.0
C377 C 0.70158 0.76431 0.06989 0.0
C378 C 0.69258 0.78693 0.08909 0.0
C379 C 0.71235 0.80243 0.09508 0.0
C380 C 0.71581 0.81994 0.10665 0.0
C381 C 0.69913 0.82162 0.11282 0.0
C382 C 0.67924 0.80598 0.10685 0.0
C383 C 0.67629 0.78894 0.0949 0.0
C384 C 0.73724 0.83652 0.1125 0.0
C385 C 0.66105 0.80719 0.11303 0.0
C386 C 0.69819 0.78261 0.23981 0.0
C387 C 0.718 0.79979 0.23935 0.0
C388 C 0.72186 0.81816 0.23064 0.0
C389 C 0.70555 0.81941 0.22254 0.0
C390 C 0.68555 0.80224 0.22348 0.0
C391 C 0.68223 0.78399 0.23181 0.0
C392 C 0.74335 0.83611 0.22977 0.0
C393 C 0.66765 0.80306 0.21553 0.0
C394 C 0.72724 0.97168 0.24003 0.0
C395 C 0.71429 0.95323 0.25325 0.0
C396 C 0.7216 0.92561 0.24939 0.0
C397 C 0.73827 0.92397 0.24431 0.0
C398 C 0.73571 0.90618 0.23407 0.0
C399 C 0.71592 0.88959 0.22918 0.0
C400 C 0.69895 0.89059 0.23563 0.0
C401 C 0.70197 0.90863 0.24574 0.0
C402 C 0.7541 0.90543 0.22771 0.0
C403 C 0.67767 0.87289 0.23117 0.0
C404 C 0.70244 0.87127 0.12994 0.0
C405 C 0.70114 0.85509 0.11776 0.0
C406 C 0.70232 0.83915 0.12638 0.0
C407 C 0.70485 0.8392 0.14775 0.0
C408 C 0.70501 0.82281 0.157 0.0
C409 C 0.70679 0.82263 0.17809 0.0
C410 C 0.70847 0.83882 0.19078 0.0
C411 C 0.70927 0.83825 0.21232 0.0
C412 C 0.71187 0.85505 0.22446 0.0
C413 C 0.71305 0.87217 0.21563 0.0
C414 C 0.71111 0.87246 0.19418 0.0
C415 C 0.711 0.88889 0.18489 0.0
C416 C 0.70816 0.88856 0.16386 0.0
C417 C 0.70593 0.87211 0.15125 0.0
C418 C 0.70682 0.85582 0.1602 0.0
C419 C 0.70897 0.85578 0.18172 0.0
C420 C 0.69409 0.74222 0.2727 0.0
C421 C 0.70592 0.76121 0.26077 0.0
O422 O 0.68391 0.9208 0.08315 0.0
O423 O 0.72499 0.94375 0.25783 0.0
O424 O 0.69374 0.76445 0.24779 0.0
O425 O 0.68832 0.76982 0.07768 0.0
H426 H 0.65305 0.90558 0.07984 0.0
H427 H 0.66476 0.88397 0.0621 0.0
H428 H 0.68013 0.90463 0.04536 0.0
H429 H 0.65282 0.89183 0.04407 0.0
H430 H 0.65712 0.88809 0.10389 0.0
H431 H 0.72001 0.92905 0.09187 0.0
H432 H 0.65919 0.84766 0.12104 0.0
H433 H 0.64573 0.86087 0.12608 0.0
H434 H 0.66404 0.8626 0.14442 0.0
H435 H 0.74565 0.92473 0.1061 0.0
H436 H 0.73737 0.89764 0.10549 0.0
H437 H 0.73942 0.91081 0.12944 0.0
H438 H 0.71303 0.76707 0.08186 0.0
H439 H 0.72146 0.79359 0.05538 0.0
H440 H 0.70112 0.77453 0.03912 0.0
H441 H 0.72268 0.7721 0.04481 0.0
H442 H 0.72514 0.80104 0.09084 0.0
H443 H 0.66113 0.77691 0.09011 0.0
H444 H 0.73984 0.85197 0.1092 0.0
H445 H 0.7486 0.83429 0.10426 0.0
H446 H 0.7397 0.83635 0.12917 0.0
H447 H 0.64661 0.79237 0.10989 0.0
H448 H 0.66075 0.81929 0.10425 0.0
H449 H 0.66197 0.81155 0.12954 0.0
H450 H 0.71966 0.76298 0.25325 0.0
H451 H 0.73048 0.79881 0.24545 0.0
H452 H 0.66701 0.77067 0.23233 0.0
H453 H 0.74709 0.84095 0.21376 0.0
H454 H 0.75447 0.83231 0.23566 0.0
H455 H 0.74489 0.84945 0.23898 0.0
H456 H 0.65302 0.7898 0.22042 0.0
H457 H 0.66771 0.80273 0.19858 0.0
H458 H 0.66863 0.81761 0.22092 0.0
H459 H 0.70035 0.94261 0.24407 0.0
H460 H 0.71893 0.97955 0.2363 0.0
H461 H 0.73075 0.96627 0.22548 0.0
H462 H 0.74174 0.98296 0.24798 0.0
H463 H 0.75335 0.93702 0.24766 0.0
H464 H 0.68902 0.90946 0.25067 0.0
H465 H 0.75459 0.90461 0.21077 0.0
H466 H 0.75311 0.8913 0.23337 0.0
H467 H 0.76842 0.91915 0.23361 0.0
H468 H 0.66615 0.8753 0.2388 0.0
H469 H 0.67596 0.85827 0.23628 0.0
H470 H 0.67463 0.8711 0.21443 0.0
H471 H 0.69837 0.85446 0.10143 0.0
H472 H 0.70352 0.80978 0.14807 0.0
H473 H 0.70673 0.80957 0.18433 0.0
H474 H 0.71257 0.85462 0.24097 0.0
H475 H 0.71272 0.90203 0.19381 0.0
H476 H 0.70781 0.9014 0.15757 0.0
H477 H 0.69973 0.73177 0.26754 0.0
H478 H 0.67888 0.7326 0.26475 0.0
H479 H 0.69741 0.75372 0.3029 0.0
C480 C 0.2146 0.92979 0.04501 0.0
C481 C 0.23011 0.93715 0.06277 0.0
C482 C 0.2126 0.90951 0.08708 0.0
C483 C 0.19849 0.91495 0.09348 0.0
C484 C 0.18295 0.90264 0.10679 0.0
C485 C 0.18133 0.88443 0.11378 0.0
C486 C 0.19573 0.87913 0.10783 0.0
C487 C 0.21126 0.89184 0.09465 0.0
C488 C 0.1679 0.9088 0.11296 0.0
C489 C 0.19434 0.85974 0.11496 0.0
C490 C 0.055 0.79592 0.03351 0.0
C491 C 0.0652 0.79057 0.05016 0.0
C492 C 0.07758 0.80729 0.08368 0.0
C493 C 0.09151 0.80102 0.087 0.0
C494 C 0.10751 0.8118 0.10122 0.0
C495 C 0.10972 0.82933 0.1121 0.0
C496 C 0.09522 0.83519 0.10934 0.0
C497 C 0.07907 0.82378 0.09539 0.0
C498 C 0.12238 0.80481 0.10418 0.0
C499 C 0.09722 0.85397 0.12046 0.0
C500 C 0.07333 0.79783 0.23909 0.0
C501 C 0.08758 0.79262 0.23287 0.0
C502 C 0.10615 0.80747 0.22484 0.0
C503 C 0.11042 0.82787 0.22282 0.0
C504 C 0.09657 0.83342 0.23016 0.0
C505 C 0.07826 0.81831 0.23846 0.0
C506 C 0.12089 0.8012 0.21786 0.0
C507 C 0.10074 0.85508 0.22846 0.0
C508 C 0.24957 0.96716 0.24155 0.0
C509 C 0.23804 0.95527 0.26023 0.0
C510 C 0.21462 0.9198 0.24672 0.0
C511 C 0.21124 0.89982 0.24506 0.0
C512 C 0.19445 0.88394 0.23409 0.0
C513 C 0.18053 0.88815 0.22479 0.0
C514 C 0.18356 0.90821 0.22677 0.0
C515 C 0.20071 0.9239 0.23743 0.0
C516 C 0.19174 0.86276 0.23215 0.0
C517 C 0.16881 0.91318 0.21739 0.0
C518 C 0.16354 0.87006 0.12577 0.0
C519 C 0.14577 0.85629 0.11488 0.0
C520 C 0.12812 0.84258 0.1249 0.0
C521 C 0.12815 0.84224 0.14645 0.0
C522 C 0.11079 0.82824 0.15697 0.0
C523 C 0.11085 0.82837 0.17821 0.0
C524 C 0.1283 0.84245 0.18975 0.0
C525 C 0.12844 0.84281 0.21138 0.0
C526 C 0.14577 0.85756 0.22238 0.0
C527 C 0.1632 0.87186 0.21231 0.0
C528 C 0.16361 0.8712 0.19071 0.0
C529 C 0.18114 0.88486 0.18011 0.0
C530 C 0.18122 0.88445 0.15884 0.0
C531 C 0.16377 0.87038 0.14737 0.0
C532 C 0.146 0.85635 0.15773 0.0
C533 C 0.146 0.85661 0.17941 0.0
C534 C 0.02176 0.75719 0.23376 0.0
C535 C 0.04359 0.76305 0.23817 0.0
O536 O 0.22742 0.92051 0.07349 0.0
O537 O 0.23147 0.9345 0.25725 0.0
O538 O 0.05462 0.78345 0.24537 0.0
O539 O 0.06296 0.79818 0.06888 0.0
H540 H 0.22764 0.94761 0.07297 0.0
H541 H 0.21483 0.91761 0.03528 0.0
H542 H 0.19908 0.92324 0.05095 0.0
H543 H 0.21784 0.94294 0.03544 0.0
H544 H 0.19916 0.92855 0.088 0.0
H545 H 0.22221 0.88777 0.08977 0.0
H546 H 0.15286 0.89757 0.10597 0.0
H547 H 0.17244 0.92447 0.10803 0.0
H548 H 0.16621 0.90841 0.12981 0.0
H549 H 0.20688 0.85792 0.10919 0.0
H550 H 0.17971 0.84607 0.10966 0.0
H551 H 0.19468 0.86 0.13192 0.0
H552 H 0.08154 0.79855 0.04631 0.0
H553 H 0.05662 0.78996 0.01831 0.0
H554 H 0.06228 0.81295 0.03302 0.0
H555 H 0.03865 0.78921 0.03656 0.0
H556 H 0.09004 0.78785 0.07836 0.0
H557 H 0.06808 0.82833 0.09281 0.0
H558 H 0.12526 0.80445 0.12073 0.0
H559 H 0.13701 0.81596 0.09728 0.0
H560 H 0.11691 0.78927 0.09696 0.0
H561 H 0.08542 0.85722 0.11555 0.0
H562 H 0.11235 0.86772 0.11776 0.0
H563 H 0.09597 0.85164 0.13715 0.0
H564 H 0.04955 0.7613 0.22323 0.0
H565 H 0.08414 0.77692 0.23406 0.0
H566 H 0.06729 0.82223 0.24365 0.0
H567 H 0.12115 0.8007 0.2009 0.0
H568 H 0.11673 0.78576 0.22319 0.0
H569 H 0.13642 0.81273 0.22353 0.0
H570 H 0.0883 0.85684 0.23467 0.0
H571 H 0.10283 0.85927 0.21218 0.0
H572 H 0.115 0.86614 0.23689 0.0
H573 H 0.22481 0.95708 0.26259 0.0
H574 H 0.25491 0.98381 0.24393 0.0
H575 H 0.23954 0.96121 0.22774 0.0
H576 H 0.26284 0.96545 0.23875 0.0
H577 H 0.22201 0.89677 0.25223 0.0
H578 H 0.20303 0.93924 0.23824 0.0
H579 H 0.19048 0.85785 0.21576 0.0
H580 H 0.17745 0.85144 0.2395 0.0
H581 H 0.20447 0.86226 0.23937 0.0
H582 H 0.17171 0.92857 0.22275 0.0
H583 H 0.15303 0.90131 0.22112 0.0
H584 H 0.17007 0.91306 0.20051 0.0
H585 H 0.1456 0.85645 0.09831 0.0
H586 H 0.09694 0.81709 0.14889 0.0
H587 H 0.09696 0.81734 0.18545 0.0
H588 H 0.14561 0.85807 0.23895 0.0
H589 H 0.195 0.89605 0.18814 0.0
H590 H 0.19508 0.89537 0.15149 0.0
H591 H 0.01475 0.75936 0.24771 0.0
H592 H 0.01257 0.74082 0.22811 0.0
H593 H 0.02152 0.7671 0.22181 0.0
C594 C 0.3315 0.11542 0.98312 0.0
C595 C 0.32297 0.09833 0.96625 0.0
C596 C 0.3239 0.11427 0.93423 0.0
C597 C 0.30307 0.10472 0.92978 0.0
C598 C 0.29575 0.11381 0.91674 0.0
C599 C 0.30956 0.13264 0.9078 0.0
C600 C 0.3306 0.14173 0.91145 0.0
C601 C 0.3375 0.13227 0.92449 0.0
C602 C 0.27327 0.10346 0.91271 0.0
C603 C 0.34577 0.16174 0.90203 0.0
C604 C 0.26175 0.22073 0.98059 0.0
C605 C 0.27787 0.22453 0.96486 0.0
C606 C 0.27449 0.20481 0.9335 0.0
C607 C 0.29499 0.21127 0.93122 0.0
C608 C 0.30074 0.19992 0.91859 0.0
C609 C 0.28563 0.18155 0.90835 0.0
C610 C 0.26496 0.17519 0.91039 0.0
C611 C 0.25971 0.1872 0.92265 0.0
C612 C 0.32294 0.20747 0.91636 0.0
C613 C 0.24838 0.1555 0.90001 0.0
C614 C 0.28225 0.21204 0.78135 0.0
C615 C 0.30185 0.2176 0.78767 0.0
C616 C 0.30556 0.20298 0.79585 0.0
C617 C 0.2893 0.18245 0.79782 0.0
C618 C 0.26979 0.17656 0.79032 0.0
C619 C 0.26658 0.19145 0.78195 0.0
C620 C 0.3267 0.20964 0.80308 0.0
C621 C 0.25218 0.15475 0.7919 0.0
C622 C 0.30205 0.06027 0.72982 0.0
C623 C 0.29707 0.07418 0.74161 0.0
C624 C 0.30498 0.09489 0.77279 0.0
C625 C 0.32227 0.1129 0.78022 0.0
C626 C 0.32067 0.12784 0.79197 0.0
C627 C 0.30127 0.12426 0.79682 0.0
C628 C 0.28373 0.10565 0.78999 0.0
C629 C 0.28578 0.09117 0.77798 0.0
C630 C 0.33966 0.1475 0.79905 0.0
C631 C 0.26282 0.10108 0.79532 0.0
C632 C 0.30204 0.14356 0.89567 0.0
C633 C 0.29682 0.15639 0.90632 0.0
C634 C 0.29141 0.16869 0.89598 0.0
C635 C 0.29165 0.16862 0.87441 0.0
C636 C 0.28759 0.18179 0.86357 0.0
C637 C 0.28781 0.18156 0.84234 0.0
C638 C 0.29201 0.16807 0.83111 0.0
C639 C 0.29234 0.1678 0.8095 0.0
C640 C 0.29575 0.15362 0.79879 0.0
C641 C 0.29917 0.13983 0.80913 0.0
C642 C 0.29974 0.14047 0.83075 0.0
C643 C 0.30386 0.12734 0.84164 0.0
C644 C 0.30479 0.12841 0.86291 0.0
C645 C 0.30103 0.14222 0.87408 0.0
C646 C 0.29617 0.15509 0.86342 0.0
C647 C 0.29599 0.15455 0.84174 0.0
C648 C 0.27107 0.25169 0.78762 0.0
C649 C 0.28724 0.24663 0.78176 0.0
O650 O 0.33139 0.10652 0.94767 0.0
O651 O 0.30711 0.08149 0.76033 0.0
O652 O 0.27786 0.22614 0.77489 0.0
O653 O 0.26849 0.21499 0.94633 0.0
H654 H 0.30637 0.09182 0.96587 0.0
H655 H 0.32663 0.12656 0.98013 0.0
H656 H 0.34828 0.12405 0.98373 0.0
H657 H 0.32566 0.10877 0.99823 0.0
H658 H 0.29247 0.09014 0.9363 0.0
H659 H 0.35355 0.13928 0.92771 0.0
H660 H 0.26776 0.11333 0.91931 0.0
H661 H 0.26463 0.08804 0.91944 0.0
H662 H 0.27008 0.10169 0.89599 0.0
H663 H 0.3616 0.16694 0.90661 0.0
H664 H 0.34257 0.17399 0.90668 0.0
H665 H 0.34434 0.15983 0.88511 0.0
H666 H 0.28608 0.2172 0.97083 0.0
H667 H 0.269 0.22825 0.9956 0.0
H668 H 0.25179 0.20389 0.98264 0.0
H669 H 0.25219 0.22683 0.97556 0.0
H670 H 0.30652 0.2252 0.93925 0.0
H671 H 0.24395 0.18246 0.92445 0.0
H672 H 0.32657 0.2071 0.89999 0.0
H673 H 0.32655 0.19707 0.92439 0.0
H674 H 0.33279 0.22341 0.92291 0.0
H675 H 0.2331 0.15148 0.90516 0.0
H676 H 0.25061 0.14248 0.90309 0.0
H677 H 0.24898 0.15725 0.88323 0.0
H678 H 0.2962 0.24917 0.79605 0.0
H679 H 0.31423 0.23337 0.78641 0.0
H680 H 0.25159 0.18725 0.77664 0.0
H681 H 0.3272 0.20989 0.82004 0.0
H682 H 0.33809 0.22525 0.798 0.0
H683 H 0.33092 0.19843 0.79733 0.0
H684 H 0.2379 0.15268 0.78552 0.0
H685 H 0.24988 0.15051 0.80817 0.0
H686 H 0.25559 0.14392 0.78356 0.0
H687 H 0.28057 0.06847 0.74228 0.0
H688 H 0.28746 0.0449 0.72858 0.0
H689 H 0.30947 0.05511 0.74099 0.0
H690 H 0.31678 0.07716 0.70427 0.0
H691 H 0.33702 0.1155 0.77624 0.0
H692 H 0.27239 0.07689 0.77281 0.0
H693 H 0.34067 0.14842 0.816 0.0
H694 H 0.33908 0.16106 0.79413 0.0
H695 H 0.35356 0.14847 0.79299 0.0
H696 H 0.25078 0.08533 0.78995 0.0
H697 H 0.26001 0.11248 0.78823 0.0
H698 H 0.26172 0.10264 0.81213 0.0
H699 H 0.2972 0.15699 0.92291 0.0
H700 H 0.28431 0.19252 0.87139 0.0
H701 H 0.28454 0.19204 0.83487 0.0
H702 H 0.2956 0.15323 0.78221 0.0
H703 H 0.30669 0.11626 0.83384 0.0
H704 H 0.30827 0.11814 0.87051 0.0
H705 H 0.27828 0.26808 0.79313 0.0
H706 H 0.26179 0.24175 0.80012 0.0
H707 H 0.26084 0.24895 0.77442 0.0
C708 C 0.78689 0.05827 0.9743 0.0
C709 C 0.77627 0.0647 0.95919 0.0
C710 C 0.79312 0.07513 0.92682 0.0
C711 C 0.79206 0.09264 0.92319 0.0
C712 C 0.80658 0.10835 0.91127 0.0
C713 C 0.82256 0.10651 0.90304 0.0
C714 C 0.82311 0.0884 0.90595 0.0
C715 C 0.80814 0.07275 0.91763 0.0
C716 C 0.80514 0.12714 0.90794 0.0
C717 C 0.83984 0.08588 0.89725 0.0
C718 C 0.94754 0.21094 0.97182 0.0
C719 C 0.94702 0.22568 0.9567 0.0
C720 C 0.91443 0.2048 0.93796 0.0
C721 C 0.91911 0.1914 0.92732 0.0
C722 C 0.9049 0.17577 0.9138 0.0
C723 C 0.88591 0.17391 0.91049 0.0
C724 C 0.88137 0.18767 0.92089 0.0
C725 C 0.89564 0.20278 0.93465 0.0
C726 C 0.9101 0.16116 0.90316 0.0
C727 C 0.86135 0.18629 0.91772 0.0
C728 C 0.91383 0.22185 0.78136 0.0
C729 C 0.91682 0.20509 0.78178 0.0
C730 C 0.90304 0.18702 0.79158 0.0
C731 C 0.88597 0.18573 0.80107 0.0
C732 C 0.88311 0.20271 0.8009 0.0
C733 C 0.89722 0.22063 0.79118 0.0
C734 C 0.90661 0.16925 0.79173 0.0
C735 C 0.86501 0.20182 0.81075 0.0
C736 C 0.74765 0.04744 0.77401 0.0
C737 C 0.75563 0.06401 0.75802 0.0
C738 C 0.7913 0.08743 0.76823 0.0
C739 C 0.80915 0.08716 0.77032 0.0
C740 C 0.82518 0.10188 0.78295 0.0
C741 C 0.82338 0.1175 0.79335 0.0
C742 C 0.80563 0.11829 0.7908 0.0
C743 C 0.78973 0.10322 0.7783 0.0
C744 C 0.84394 0.10065 0.78536 0.0
C745 C 0.80349 0.13512 0.80127 0.0
C746 C 0.83935 0.12412 0.89262 0.0
C747 C 0.85491 0.13976 0.90487 0.0
C748 C 0.87064 0.15747 0.89637 0.0
C749 C 0.87107 0.15971 0.87501 0.0
C750 C 0.88648 0.17752 0.866 0.0
C751 C 0.88662 0.17969 0.84499 0.0
C752 C 0.87123 0.16421 0.83222 0.0
C753 C 0.8709 0.16653 0.81093 0.0
C754 C 0.85539 0.15087 0.79865 0.0
C755 C 0.83995 0.13293 0.80711 0.0
C756 C 0.83991 0.13035 0.82838 0.0
C757 C 0.82442 0.11258 0.8374 0.0
C758 C 0.8242 0.11047 0.85843 0.0
C759 C 0.83958 0.12594 0.8712 0.0
C760 C 0.85551 0.14383 0.86239 0.0
C761 C 0.85562 0.14607 0.84097 0.0
C762 C 0.94497 0.25816 0.74245 0.0
C763 C 0.94047 0.24161 0.75692 0.0
O764 O 0.77999 0.06053 0.93941 0.0
O765 O 0.7763 0.07256 0.75594 0.0
O766 O 0.92629 0.23925 0.7713 0.0
O767 O 0.92726 0.21969 0.95175 0.0
H768 H 0.78279 0.0816 0.96197 0.0
H769 H 0.80346 0.0671 0.97177 0.0
H770 H 0.78132 0.04154 0.97225 0.0
H771 H 0.78418 0.06159 0.99027 0.0
H772 H 0.77996 0.09406 0.92984 0.0
H773 H 0.80858 0.05896 0.92034 0.0
H774 H 0.81751 0.14057 0.91668 0.0
H775 H 0.79046 0.12499 0.91301 0.0
H776 H 0.80703 0.13082 0.89153 0.0
H777 H 0.83806 0.07083 0.90084 0.0
H778 H 0.85469 0.0985 0.90347 0.0
H779 H 0.84007 0.08711 0.88039 0.0
H780 H 0.95507 0.22563 0.9426 0.0
H781 H 0.9403 0.19505 0.96495 0.0
H782 H 0.93937 0.21042 0.98597 0.0
H783 H 0.96346 0.21606 0.97594 0.0
H784 H 0.93364 0.19282 0.9296 0.0
H785 H 0.8922 0.21319 0.94294 0.0
H786 H 0.91113 0.16356 0.88648 0.0
H787 H 0.89796 0.14493 0.90546 0.0
H788 H 0.92472 0.16345 0.90878 0.0
H789 H 0.86151 0.20011 0.92425 0.0
H790 H 0.84936 0.17251 0.92532 0.0
H791 H 0.85732 0.18448 0.90119 0.0
H792 H 0.9539 0.24209 0.7638 0.0
H793 H 0.92984 0.20603 0.77448 0.0
H794 H 0.89511 0.23368 0.79079 0.0
H795 H 0.90661 0.16476 0.80769 0.0
H796 H 0.92117 0.17307 0.78465 0.0
H797 H 0.89408 0.15567 0.78325 0.0
H798 H 0.86449 0.21598 0.80841 0.0
H799 H 0.86545 0.19986 0.82742 0.0
H800 H 0.85084 0.18827 0.80436 0.0
H801 H 0.75217 0.07592 0.76318 0.0
H802 H 0.73102 0.04027 0.77552 0.0
H803 H 0.75495 0.05452 0.78912 0.0
H804 H 0.75101 0.03522 0.76973 0.0
H805 H 0.81032 0.07507 0.76229 0.0
H806 H 0.77642 0.10426 0.77622 0.0
H807 H 0.8465 0.09921 0.80175 0.0
H808 H 0.85733 0.11509 0.78025 0.0
H809 H 0.84286 0.08735 0.77646 0.0
H810 H 0.78903 0.13404 0.79714 0.0
H811 H 0.81625 0.15047 0.7971 0.0
H812 H 0.80423 0.13419 0.8181 0.0
H813 H 0.85454 0.13832 0.92132 0.0
H814 H 0.89861 0.19003 0.87509 0.0
H815 H 0.89888 0.19372 0.83891 0.0
H816 H 0.8551 0.15287 0.78235 0.0
H817 H 0.81218 0.10017 0.82832 0.0
H818 H 0.8118 0.09657 0.86457 0.0
H819 H 0.9614 0.27019 0.74543 0.0
H820 H 0.93918 0.26784 0.74956 0.0
H821 H 0.93411 0.24205 0.71422 0.0
C822 C 0.78004 0.70634 0.98023 0.0
C823 C 0.76709 0.70067 0.96059 0.0
C824 C 0.78648 0.69329 0.93546 0.0
C825 C 0.80262 0.71379 0.93392 0.0
C826 C 0.81922 0.71841 0.92161 0.0
C827 C 0.81963 0.70227 0.91057 0.0
C828 C 0.80325 0.68171 0.91176 0.0
C829 C 0.78689 0.67753 0.92423 0.0
C830 C 0.83641 0.7405 0.92046 0.0
C831 C 0.80312 0.66414 0.90003 0.0
C832 C 0.91362 0.69746 0.97937 0.0
C833 C 0.91887 0.68703 0.962 0.0
C834 C 0.9121 0.70109 0.93239 0.0
C835 C 0.89468 0.68375 0.92393 0.0
C836 C 0.88112 0.686 0.91171 0.0
C837 C 0.88503 0.70603 0.90803 0.0
C838 C 0.90298 0.72356 0.91597 0.0
C839 C 0.91648 0.72084 0.92785 0.0
C840 C 0.86236 0.66694 0.90314 0.0
C841 C 0.9076 0.74511 0.91235 0.0
C842 C 0.91624 0.7124 0.77726 0.0
C843 C 0.89855 0.69424 0.7827 0.0
C844 C 0.88317 0.69514 0.79319 0.0
C845 C 0.88553 0.71456 0.79832 0.0
C846 C 0.90296 0.73283 0.79221 0.0
C847 C 0.91803 0.73147 0.78157 0.0
C848 C 0.86448 0.67531 0.79901 0.0
C849 C 0.90584 0.75374 0.7974 0.0
C850 C 0.75826 0.72707 0.78105 0.0
C851 C 0.76343 0.71627 0.764 0.0
C852 C 0.78529 0.70607 0.78113 0.0
C853 C 0.78595 0.68907 0.78754 0.0
C854 C 0.80319 0.69147 0.79736 0.0
C855 C 0.82018 0.71153 0.80112 0.0
C856 C 0.8198 0.72887 0.79445 0.0
C857 C 0.80237 0.72599 0.78441 0.0
C858 C 0.80313 0.67255 0.80393 0.0
C859 C 0.83769 0.75044 0.79824 0.0
C860 C 0.83741 0.70672 0.89821 0.0
C861 C 0.8533 0.70632 0.90788 0.0
C862 C 0.86973 0.70846 0.89687 0.0
C863 C 0.87049 0.71124 0.87558 0.0
C864 C 0.88657 0.71299 0.86395 0.0
C865 C 0.88674 0.71488 0.84289 0.0
C866 C 0.87077 0.71494 0.83264 0.0
C867 C 0.87023 0.71564 0.81111 0.0
C868 C 0.85402 0.71539 0.80134 0.0
C869 C 0.83806 0.71423 0.81253 0.0
C870 C 0.83836 0.7136 0.8341 0.0
C871 C 0.82252 0.71236 0.84583 0.0
C872 C 0.82232 0.71042 0.86688 0.0
C873 C 0.838 0.70978 0.87702 0.0
C874 C 0.85452 0.71184 0.86563 0.0
C875 C 0.85468 0.71373 0.84413 0.0
C876 C 0.95176 0.70408 0.78837 0.0
C877 C 0.93787 0.69815 0.7695 0.0
O878 O 0.77036 0.68788 0.94766 0.0
O879 O 0.76779 0.70235 0.77217 0.0
O880 O 0.93169 0.71224 0.76749 0.0
O881 O 0.92486 0.69918 0.94505 0.0
H882 H 0.77116 0.71506 0.95273 0.0
H883 H 0.79639 0.71508 0.97672 0.0
H884 H 0.77675 0.69227 0.98821 0.0
H885 H 0.77697 0.71622 0.99071 0.0
H886 H 0.80256 0.72627 0.94234 0.0
H887 H 0.77435 0.6618 0.92543 0.0
H888 H 0.85056 0.74197 0.92645 0.0
H889 H 0.83348 0.75142 0.92935 0.0
H890 H 0.83894 0.74498 0.90428 0.0
H891 H 0.7892 0.64902 0.9026 0.0
H892 H 0.81647 0.6633 0.90466 0.0
H893 H 0.80426 0.66695 0.88342 0.0
H894 H 0.90514 0.67175 0.95815 0.0
H895 H 0.90906 0.68798 0.99312 0.0
H896 H 0.90078 0.69914 0.9746 0.0
H897 H 0.92681 0.71304 0.98345 0.0
H898 H 0.89168 0.66845 0.92679 0.0
H899 H 0.93014 0.73411 0.93428 0.0
H900 H 0.8601 0.66858 0.88673 0.0
H901 H 0.84898 0.66496 0.91145 0.0
H902 H 0.86307 0.65278 0.90473 0.0
H903 H 0.92205 0.75713 0.91986 0.0
H904 H 0.89513 0.74699 0.91825 0.0
H905 H 0.90853 0.74762 0.89569 0.0
H906 H 0.92473 0.68241 0.77152 0.0
H907 H 0.89637 0.67929 0.77864 0.0
H908 H 0.93159 0.74538 0.777 0.0
H909 H 0.86345 0.67475 0.81591 0.0
H910 H 0.86448 0.66141 0.79301 0.0
H911 H 0.85075 0.67476 0.79305 0.0
H912 H 0.92006 0.76649 0.79116 0.0
H913 H 0.90619 0.75613 0.81427 0.0
H914 H 0.89284 0.75447 0.79125 0.0
H915 H 0.77675 0.72796 0.75558 0.0
H916 H 0.75454 0.73805 0.77445 0.0
H917 H 0.77131 0.73592 0.79182 0.0
H918 H 0.74512 0.71559 0.78981 0.0
H919 H 0.77275 0.67378 0.78486 0.0
H920 H 0.80218 0.73934 0.77946 0.0
H921 H 0.80363 0.67257 0.82087 0.0
H922 H 0.81679 0.67278 0.79825 0.0
H923 H 0.78947 0.65801 0.79823 0.0
H924 H 0.8349 0.76239 0.79251 0.0
H925 H 0.85118 0.75189 0.7906 0.0
H926 H 0.84126 0.75346 0.81488 0.0
H927 H 0.85255 0.70368 0.92413 0.0
H928 H 0.89911 0.71273 0.87098 0.0
H929 H 0.89946 0.71603 0.83472 0.0
H930 H 0.85345 0.71531 0.78478 0.0
H931 H 0.80996 0.71259 0.83882 0.0
H932 H 0.8096 0.70923 0.8751 0.0
H933 H 0.9651 0.71994 0.78742 0.0
H934 H 0.95708 0.69307 0.78984 0.0
H935 H 0.94332 0.70349 0.80233 0.0
C936 C 0.89041 0.63635 0.36388 0.0
C937 C 0.90353 0.65105 0.38152 0.0
C938 C 0.8843 0.64132 0.41253 0.0
C939 C 0.88689 0.66015 0.41988 0.0
C940 C 0.87213 0.66065 0.43194 0.0
C941 C 0.85445 0.64191 0.43673 0.0
C942 C 0.8522 0.62286 0.43001 0.0
C943 C 0.86734 0.62282 0.41813 0.0
C944 C 0.87526 0.68122 0.43932 0.0
C945 C 0.83363 0.60261 0.43503 0.0
C946 C 0.71977 0.6516 0.39203 0.0
C947 C 0.73087 0.64454 0.40469 0.0
C948 C 0.76485 0.65131 0.41113 0.0
C949 C 0.75954 0.63242 0.41963 0.0
C950 C 0.77379 0.63025 0.43075 0.0
C951 C 0.7936 0.6475 0.434 0.0
C952 C 0.79911 0.66641 0.42508 0.0
C953 C 0.78472 0.66793 0.41344 0.0
C954 C 0.76761 0.60949 0.43904 0.0
C955 C 0.82012 0.68511 0.42799 0.0
C956 C 0.75462 0.64286 0.56451 0.0
C957 C 0.75159 0.62498 0.55385 0.0
C958 C 0.76767 0.62472 0.54413 0.0
C959 C 0.78708 0.64288 0.54443 0.0
C960 C 0.79017 0.66095 0.55495 0.0
C961 C 0.77392 0.66063 0.56497 0.0
C962 C 0.76382 0.60501 0.53336 0.0
C963 C 0.81058 0.68066 0.55539 0.0
C964 C 0.91784 0.62611 0.55537 0.0
C965 C 0.91454 0.64238 0.56608 0.0
C966 C 0.87995 0.63524 0.5657 0.0
C967 C 0.86065 0.6178 0.56256 0.0
C968 C 0.84514 0.61923 0.5531 0.0
C969 C 0.84902 0.6387 0.54713 0.0
C970 C 0.86812 0.65661 0.55166 0.0
C971 C 0.88342 0.65468 0.56087 0.0
C972 C 0.82489 0.59986 0.54872 0.0
C973 C 0.87256 0.67769 0.54614 0.0
C974 C 0.83809 0.64236 0.44819 0.0
C975 C 0.82367 0.6441 0.43705 0.0
C976 C 0.80846 0.64577 0.44685 0.0
C977 C 0.80753 0.64567 0.46845 0.0
C978 C 0.79283 0.64792 0.4789 0.0
C979 C 0.79169 0.64721 0.50009 0.0
C980 C 0.8053 0.64436 0.51169 0.0
C981 C 0.80392 0.64305 0.53321 0.0
C982 C 0.81827 0.64112 0.54435 0.0
C983 C 0.83386 0.64015 0.53453 0.0
C984 C 0.83501 0.64066 0.51296 0.0
C985 C 0.85013 0.63907 0.50254 0.0
C986 C 0.85122 0.63969 0.48136 0.0
C987 C 0.83715 0.64177 0.46973 0.0
C988 C 0.82178 0.64339 0.47989 0.0
C989 C 0.8207 0.64282 0.50154 0.0
C990 C 0.70731 0.62699 0.557 0.0
C991 C 0.71948 0.62807 0.57597 0.0
O992 O 0.89777 0.64073 0.39965 0.0
O993 O 0.89492 0.63284 0.57327 0.0
O994 O 0.73954 0.64378 0.57443 0.0
O995 O 0.75132 0.65399 0.40054 0.0
H996 H 0.90078 0.66408 0.38204 0.0
H997 H 0.87426 0.63118 0.36643 0.0
H998 H 0.89186 0.62251 0.36277 0.0
H999 H 0.89494 0.64431 0.34918 0.0
H1000 H 0.90042 0.67444 0.41604 0.0
H1001 H 0.86565 0.60837 0.41254 0.0
H1002 H 0.86339 0.68339 0.43247 0.0
H1003 H 0.89034 0.69433 0.43525 0.0
H1004 H 0.87376 0.68152 0.45618 0.0
H1005 H 0.8342 0.58912 0.42871 0.0
H1006 H 0.81992 0.60191 0.42878 0.0
H1007 H 0.83207 0.60149 0.45186 0.0
H1008 H 0.72308 0.62745 0.40549 0.0
H1009 H 0.70863 0.63759 0.38247 0.0
H1010 H 0.72979 0.6598 0.37883 0.0
H1011 H 0.71069 0.66623 0.41346 0.0
H1012 H 0.74442 0.61919 0.41737 0.0
H1013 H 0.78878 0.68233 0.40655 0.0
H1014 H 0.77949 0.60566 0.43616 0.0
H1015 H 0.75308 0.59693 0.43214 0.0
H1016 H 0.76577 0.61 0.45582 0.0
H1017 H 0.82116 0.69931 0.42246 0.0
H1018 H 0.83101 0.68243 0.4194 0.0
H1019 H 0.82478 0.68768 0.44439 0.0
H1020 H 0.7186 0.61305 0.5769 0.0
H1021 H 0.73679 0.6111 0.55287 0.0
H1022 H 0.77618 0.67439 0.57312 0.0
H1023 H 0.76411 0.60671 0.51658 0.0
H1024 H 0.7489 0.59151 0.53722 0.0
H1025 H 0.77586 0.60181 0.53744 0.0
H1026 H 0.81014 0.6938 0.5629 0.0
H1027 H 0.81608 0.68473 0.53957 0.0
H1028 H 0.82169 0.67837 0.56379 0.0
H1029 H 0.91685 0.65358 0.55431 0.0
H1030 H 0.93352 0.63338 0.54959 0.0
H1031 H 0.90711 0.61878 0.54216 0.0
H1032 H 0.91523 0.61387 0.56597 0.0
H1033 H 0.85804 0.60292 0.56674 0.0
H1034 H 0.89813 0.66832 0.56414 0.0
H1035 H 0.82177 0.59762 0.53198 0.0
H1036 H 0.81272 0.60146 0.55593 0.0
H1037 H 0.82422 0.58592 0.55449 0.0
H1038 H 0.8871 0.69026 0.55303 0.0
H1039 H 0.86016 0.68003 0.55128 0.0
H1040 H 0.8734 0.67883 0.52927 0.0
H1041 H 0.82439 0.64434 0.4205 0.0
H1042 H 0.78196 0.65018 0.47082 0.0
H1043 H 0.77998 0.64893 0.50726 0.0
H1044 H 0.81724 0.6403 0.56085 0.0
H1045 H 0.8613 0.63728 0.51063 0.0
H1046 H 0.86318 0.6384 0.47419 0.0
H1047 H 0.69115 0.61473 0.55844 0.0
H1048 H 0.71325 0.62325 0.54312 0.0
H1049 H 0.70835 0.64199 0.55495 0.0
C1050 C 0.33859 0.23714 0.37791 0.0
C1051 C 0.33413 0.24692 0.39652 0.0
C1052 C 0.35443 0.2428 0.42228 0.0
C1053 C 0.33925 0.22469 0.431 0.0
C1054 C 0.34414 0.21218 0.44182 0.0
C1055 C 0.36464 0.21788 0.44399 0.0
C1056 C 0.38004 0.23651 0.43593 0.0
C1057 C 0.37472 0.24887 0.42532 0.0
C1058 C 0.32732 0.1927 0.45073 0.0
C1059 C 0.40203 0.24313 0.43824 0.0
C1060 C 0.36836 0.07734 0.39423 0.0
C1061 C 0.378 0.09831 0.40367 0.0
C1062 C 0.36826 0.1235 0.4126 0.0
C1063 C 0.38674 0.13858 0.42181 0.0
C1064 C 0.38817 0.15524 0.43342 0.0
C1065 C 0.37056 0.15628 0.43659 0.0
C1066 C 0.352 0.1412 0.42706 0.0
C1067 C 0.35126 0.12528 0.41479 0.0
C1068 C 0.40846 0.17153 0.44248 0.0
C1069 C 0.33282 0.14159 0.43006 0.0
C1070 C 0.36869 0.11602 0.56329 0.0
C1071 C 0.38795 0.13328 0.55982 0.0
C1072 C 0.38997 0.15115 0.55166 0.0
C1073 C 0.37243 0.15173 0.54684 0.0
C1074 C 0.35308 0.13454 0.55068 0.0
C1075 C 0.3515 0.11692 0.55883 0.0
C1076 C 0.41081 0.16927 0.54776 0.0
C1077 C 0.33404 0.13464 0.54579 0.0
C1078 C 0.37238 0.29005 0.56891 0.0
C1079 C 0.36434 0.27461 0.586 0.0
C1080 C 0.37568 0.25049 0.5774 0.0
C1081 C 0.39379 0.25143 0.5728 0.0
C1082 C 0.39387 0.23568 0.56094 0.0
C1083 C 0.37528 0.2184 0.55391 0.0
C1084 C 0.35684 0.2169 0.5593 0.0
C1085 C 0.35721 0.23296 0.57102 0.0
C1086 C 0.41379 0.23769 0.55555 0.0
C1087 C 0.33674 0.19839 0.55247 0.0
C1088 C 0.36965 0.20379 0.45406 0.0
C1089 C 0.37007 0.18853 0.44181 0.0
C1090 C 0.37134 0.17264 0.45046 0.0
C1091 C 0.37222 0.17188 0.47197 0.0
C1092 C 0.37212 0.15538 0.48127 0.0
C1093 C 0.37289 0.15473 0.50243 0.0
C1094 C 0.37374 0.17051 0.51515 0.0
C1095 C 0.37415 0.16977 0.53669 0.0
C1096 C 0.37503 0.18574 0.5489 0.0
C1097 C 0.37513 0.20235 0.54014 0.0
C1098 C 0.37435 0.20317 0.51864 0.0
C1099 C 0.37386 0.21937 0.50935 0.0
C1100 C 0.37236 0.21965 0.48821 0.0
C1101 C 0.37172 0.20396 0.47552 0.0
C1102 C 0.37278 0.18781 0.48451 0.0
C1103 C 0.37377 0.18724 0.50611 0.0
C1104 C 0.38819 0.08734 0.55821 0.0
C1105 C 0.38018 0.09362 0.57676 0.0
O1106 O 0.35 0.25455 0.4107 0.0
O1107 O 0.37666 0.2665 0.58845 0.0
O1108 O 0.36578 0.09812 0.57058 0.0
O1109 O 0.36617 0.107 0.40157 0.0
H1110 H 0.3199 0.23499 0.40344 0.0
H1111 H 0.33999 0.22399 0.38261 0.0
H1112 H 0.35298 0.24866 0.37081 0.0
H1113 H 0.32611 0.23116 0.36634 0.0
H1114 H 0.32356 0.22027 0.42957 0.0
H1115 H 0.38636 0.26302 0.41877 0.0
H1116 H 0.32752 0.17911 0.44413 0.0
H1117 H 0.31215 0.19047 0.44777 0.0
H1118 H 0.32974 0.19319 0.4675 0.0
H1119 H 0.41227 0.25847 0.43184 0.0
H1120 H 0.40467 0.23156 0.43032 0.0
H1121 H 0.40598 0.24377 0.45466 0.0
H1122 H 0.39408 0.10854 0.39944 0.0
H1123 H 0.3618 0.05751 0.4183 0.0
H1124 H 0.35919 0.07528 0.38011 0.0
H1125 H 0.35919 0.07528 0.38011 0.0
H1126 H 0.40009 0.13753 0.41981 0.0
H1127 H 0.33714 0.11366 0.40739 0.0
H1128 H 0.41087 0.18718 0.44093 0.0
H1129 H 0.42113 0.17096 0.43509 0.0
H1130 H 0.40894 0.16904 0.45902 0.0
H1131 H 0.31918 0.12701 0.4244 0.0
H1132 H 0.3338 0.15448 0.42157 0.0
H1133 H 0.33089 0.14425 0.44648 0.0
H1134 H 0.39294 0.10743 0.58476 0.0
H1135 H 0.40146 0.13289 0.56312 0.0
H1136 H 0.33672 0.10358 0.56159 0.0
H1137 H 0.4125 0.17198 0.53112 0.0
H1138 H 0.42301 0.1668 0.55311 0.0
H1139 H 0.41275 0.18343 0.5556 0.0
H1140 H 0.32015 0.12028 0.55029 0.0
H1141 H 0.33308 0.13635 0.52913 0.0
H1142 H 0.33453 0.14804 0.55382 0.0
H1143 H 0.34869 0.26228 0.58155 0.0
H1144 H 0.36277 0.29686 0.56706 0.0
H1145 H 0.37204 0.28205 0.55424 0.0
H1146 H 0.38823 0.30265 0.57229 0.0
H1147 H 0.40794 0.26485 0.57812 0.0
H1148 H 0.34303 0.23149 0.57536 0.0
H1149 H 0.41532 0.23777 0.53868 0.0
H1150 H 0.41417 0.22417 0.56093 0.0
H1151 H 0.42694 0.252 0.5624 0.0
H1152 H 0.32371 0.19903 0.55882 0.0
H1153 H 0.33578 0.18403 0.55729 0.0
H1154 H 0.33547 0.19752 0.53553 0.0
H1155 H 0.36861 0.1886 0.42533 0.0
H1156 H 0.37128 0.14267 0.47233 0.0
H1157 H 0.37277 0.14163 0.50867 0.0
H1158 H 0.37521 0.18502 0.56541 0.0
H1159 H 0.37438 0.23192 0.51833 0.0
H1160 H 0.3718 0.23236 0.4819 0.0
H1161 H 0.39959 0.08354 0.5632 0.0
H1162 H 0.39558 0.10019 0.54758 0.0
H1163 H 0.37564 0.07368 0.54981 0.0
C1164 C 0.8894 0.27507 0.37044 0.0
C1165 C 0.90307 0.27766 0.38871 0.0
C1166 C 0.88101 0.24576 0.40699 0.0
C1167 C 0.86724 0.25129 0.41428 0.0
C1168 C 0.85027 0.23747 0.42542 0.0
C1169 C 0.84709 0.21781 0.42954 0.0
C1170 C 0.86087 0.21219 0.4222 0.0
C1171 C 0.87764 0.22626 0.41102 0.0
C1172 C 0.83588 0.24396 0.43308 0.0
C1173 C 0.85805 0.19143 0.42644 0.0
C1174 C 0.69127 0.10417 0.42102 0.0
C1175 C 0.70565 0.10206 0.40629 0.0
C1176 C 0.74016 0.12197 0.4213 0.0
C1177 C 0.75622 0.11991 0.4277 0.0
C1178 C 0.77491 0.13719 0.43373 0.0
C1179 C 0.77737 0.15705 0.43401 0.0
C1180 C 0.76148 0.1594 0.42669 0.0
C1181 C 0.74304 0.14181 0.42023 0.0
C1182 C 0.7917 0.13404 0.44076 0.0
C1183 C 0.76366 0.18035 0.4267 0.0
C1184 C 0.75141 0.13013 0.56102 0.0
C1185 C 0.76518 0.12522 0.55257 0.0
C1186 C 0.78304 0.14041 0.54364 0.0
C1187 C 0.78719 0.16091 0.5432 0.0
C1188 C 0.77398 0.16614 0.5529 0.0
C1189 C 0.7563 0.15066 0.56188 0.0
C1190 C 0.79707 0.1344 0.53393 0.0
C1191 C 0.77805 0.18787 0.55291 0.0
C1192 C 0.95108 0.28343 0.53982 0.0
C1193 C 0.93231 0.27543 0.55305 0.0
C1194 C 0.90102 0.24149 0.54893 0.0
C1195 C 0.89372 0.2212 0.54187 0.0
C1196 C 0.87324 0.20798 0.53649 0.0
C1197 C 0.85977 0.21533 0.53824 0.0
C1198 C 0.86671 0.2353 0.54693 0.0
C1199 C 0.88728 0.24816 0.55237 0.0
C1200 C 0.86623 0.18654 0.52786 0.0
C1201 C 0.85258 0.24336 0.54946 0.0
C1202 C 0.83003 0.20363 0.44256 0.0
C1203 C 0.81176 0.18857 0.43306 0.0
C1204 C 0.79539 0.17461 0.44462 0.0
C1205 C 0.79698 0.17605 0.46621 0.0
C1206 C 0.78047 0.16293 0.47829 0.0
C1207 C 0.78256 0.16332 0.4994 0.0
C1208 C 0.80131 0.1767 0.50928 0.0
C1209 C 0.80397 0.17617 0.53059 0.0
C1210 C 0.82296 0.18936 0.53986 0.0
C1211 C 0.8394 0.20325 0.52833 0.0
C1212 C 0.83686 0.20432 0.50709 0.0
C1213 C 0.85299 0.2184 0.49513 0.0
C1214 C 0.85067 0.21853 0.47409 0.0
C1215 C 0.83221 0.20444 0.4641 0.0
C1216 C 0.81562 0.19056 0.47594 0.0
C1217 C 0.81787 0.19069 0.49749 0.0
C1218 C 0.70107 0.09368 0.5522 0.0
C1219 C 0.72088 0.0958 0.55955 0.0
O1220 O 0.89765 0.25856 0.39608 0.0
O1221 O 0.92136 0.25405 0.55182 0.0
O1222 O 0.73329 0.11546 0.56829 0.0
O1223 O 0.72209 0.10436 0.41718 0.0
H1224 H 0.90155 0.28721 0.40105 0.0
H1225 H 0.87337 0.2677 0.37504 0.0
H1226 H 0.89039 0.26526 0.35802 0.0
H1227 H 0.89398 0.29037 0.3644 0.0
H1228 H 0.86961 0.26635 0.41149 0.0
H1229 H 0.88832 0.2221 0.4054 0.0
H1230 H 0.82018 0.23234 0.42793 0.0
H1231 H 0.83978 0.25929 0.42766 0.0
H1232 H 0.83617 0.24462 0.45005 0.0
H1233 H 0.87001 0.18931 0.41949 0.0
H1234 H 0.84307 0.17896 0.42035 0.0
H1235 H 0.85824 0.18974 0.4432 0.0
H1236 H 0.71069 0.11431 0.39495 0.0
H1237 H 0.67787 0.10214 0.41254 0.0
H1238 H 0.69904 0.11975 0.42868 0.0
H1239 H 0.6863 0.09266 0.4331 0.0
H1240 H 0.75394 0.10457 0.42827 0.0
H1241 H 0.73079 0.14368 0.41516 0.0
H1242 H 0.79271 0.13517 0.45771 0.0
H1243 H 0.8065 0.14617 0.43491 0.0
H1244 H 0.78898 0.11866 0.43564 0.0
H1245 H 0.75013 0.17971 0.42002 0.0
H1246 H 0.77714 0.19103 0.41786 0.0
H1247 H 0.76611 0.18688 0.44262 0.0
H1248 H 0.72786 0.09341 0.54568 0.0
H1249 H 0.7619 0.1095 0.55275 0.0
H1250 H 0.74576 0.15436 0.56882 0.0
H1251 H 0.79651 0.13529 0.51708 0.0
H1252 H 0.79293 0.11848 0.53753 0.0
H1253 H 0.81291 0.14533 0.53921 0.0
H1254 H 0.7669 0.1897 0.56204 0.0
H1255 H 0.77746 0.19207 0.53696 0.0
H1256 H 0.79349 0.19886 0.55918 0.0
H1257 H 0.92344 0.2817 0.54638 0.0
H1258 H 0.96027 0.30057 0.54101 0.0
H1259 H 0.94635 0.27861 0.52357 0.0
H1260 H 0.96063 0.2772 0.54444 0.0
H1261 H 0.90432 0.21601 0.53977 0.0
H1262 H 0.89252 0.26346 0.55891 0.0
H1263 H 0.86278 0.18569 0.51128 0.0
H1264 H 0.85212 0.17505 0.53535 0.0
H1265 H 0.87786 0.18227 0.52989 0.0
H1266 H 0.85988 0.25857 0.5579 0.0
H1267 H 0.8389 0.23217 0.55775 0.0
H1268 H 0.8475 0.245 0.53417 0.0
H1269 H 0.81046 0.18737 0.41651 0.0
H1270 H 0.76574 0.15206 0.47156 0.0
H1271 H 0.76935 0.15269 0.5078 0.0
H1272 H 0.82509 0.18844 0.55607 0.0
H1273 H 0.86767 0.2294 0.50187 0.0
H1274 H 0.86369 0.22957 0.46571 0.0
H1275 H 0.6908 0.07797 0.54531 0.0
H1276 H 0.70429 0.1051 0.54038 0.0
H1277 H 0.69329 0.09655 0.56503 0.0
C1278 C 0.03664 0.42773 0.24461 0.0
C1279 C 0.02814 0.43017 0.26499 0.0
C1280 C 0.00563 0.44233 0.2541 0.0
C1281 C 0.98546 0.43627 0.25021 0.0
C1282 C 0.98039 0.4497 0.24148 0.0
C1283 C 0.99593 0.4698 0.23667 0.0
C1284 C 0.01635 0.4763 0.2411 0.0
C1285 C 0.02102 0.46251 0.24969 0.0
C1286 C 0.95846 0.44227 0.23693 0.0
C1287 C 0.03328 0.49773 0.23637 0.0
C1288 C 0.95351 0.55654 0.31591 0.0
C1289 C 0.96926 0.56503 0.29908 0.0
C1290 C 0.96557 0.54569 0.26736 0.0
C1291 C 0.98603 0.55249 0.26416 0.0
C1292 C 0.99157 0.54104 0.25138 0.0
C1293 C 0.97629 0.52242 0.24167 0.0
C1294 C 0.95565 0.51581 0.24449 0.0
C1295 C 0.95058 0.52774 0.25711 0.0
C1296 C 0.0137 0.5488 0.24825 0.0
C1297 C 0.93898 0.49603 0.23436 0.0
C1298 C 0.97035 0.55719 0.11608 0.0
C1299 C 0.99038 0.56369 0.12174 0.0
C1300 C 0.99525 0.54969 0.12943 0.0
C1301 C 0.97977 0.52883 0.13147 0.0
C1302 C 0.95982 0.52204 0.12466 0.0
C1303 C 0.95543 0.53633 0.11685 0.0
C1304 C 0.01681 0.55729 0.13591 0.0
C1305 C 0.94302 0.49985 0.12627 0.0
C1306 C 0.00684 0.40379 0.12812 0.0
C1307 C 0.99487 0.4065 0.1112 0.0
C1308 C 0.00157 0.44177 0.11092 0.0
C1309 C 0.01792 0.46181 0.11468 0.0
C1310 C 0.01493 0.47744 0.12261 0.0
C1311 C 0.99504 0.4728 0.12666 0.0
C1312 C 0.97833 0.45304 0.12111 0.0
C1313 C 0.98177 0.43773 0.11312 0.0
C1314 C 0.03304 0.4985 0.12792 0.0
C1315 C 0.95689 0.44779 0.12465 0.0
C1316 C 0.99098 0.48365 0.22595 0.0
C1317 C 0.98616 0.49625 0.23765 0.0
C1318 C 0.98187 0.50995 0.22839 0.0
C1319 C 0.98264 0.5114 0.2069 0.0
C1320 C 0.97887 0.52535 0.19716 0.0
C1321 C 0.97936 0.52644 0.17599 0.0
C1322 C 0.98372 0.51366 0.1637 0.0
C1323 C 0.98409 0.51451 0.14212 0.0
C1324 C 0.98813 0.50131 0.13036 0.0
C1325 C 0.99185 0.48724 0.13965 0.0
C1326 C 0.99183 0.48638 0.1612 0.0
C1327 C 0.9957 0.4725 0.17098 0.0
C1328 C 0.99552 0.47164 0.19214 0.0
C1329 C 0.99129 0.4845 0.20439 0.0
C1330 C 0.98723 0.49851 0.19486 0.0
C1331 C 0.98766 0.49958 0.17324 0.0
C1332 C 0.95611 0.59315 0.12664 0.0
C1333 C 0.97295 0.59078 0.11715 0.0
O1334 O 0.00943 0.42818 0.26183 0.0
O1335 O 0.00548 0.42681 0.10528 0.0
O1336 O 0.96488 0.57056 0.10986 0.0
O1337 O 0.95984 0.55594 0.28043 0.0
H1338 H 0.03877 0.44566 0.27212 0.0
H1339 H 0.0389 0.43991 0.23415 0.0
H1340 H 0.02607 0.41244 0.23704 0.0
H1341 H 0.05153 0.42913 0.24719 0.0
H1342 H 0.97366 0.42076 0.25372 0.0
H1343 H 0.03673 0.46765 0.25265 0.0
H1344 H 0.95426 0.45268 0.24486 0.0
H1345 H 0.94812 0.42627 0.2418 0.0
H1346 H 0.95621 0.4428 0.22027 0.0
H1347 H 0.04824 0.50098 0.24206 0.0
H1348 H 0.03025 0.50942 0.24333 0.0
H1349 H 0.03402 0.49951 0.21958 0.0
H1350 H 0.98036 0.56045 0.30306 0.0
H1351 H 0.96067 0.56395 0.33097 0.0
H1352 H 0.94699 0.53964 0.31673 0.0
H1353 H 0.94096 0.55924 0.31278 0.0
H1354 H 0.99767 0.56678 0.27158 0.0
H1355 H 0.93484 0.52278 0.25954 0.0
H1356 H 0.01743 0.53769 0.25441 0.0
H1357 H 0.02372 0.56418 0.25591 0.0
H1358 H 0.01693 0.54985 0.23166 0.0
H1359 H 0.92371 0.49229 0.2393 0.0
H1360 H 0.94104 0.48301 0.23793 0.0
H1361 H 0.93972 0.4974 0.21751 0.0
H1362 H 0.98416 0.59461 0.12976 0.0
H1363 H 0.00221 0.57966 0.12023 0.0
H1364 H 0.94011 0.5314 0.11201 0.0
H1365 H 0.01772 0.55681 0.15278 0.0
H1366 H 0.02744 0.57334 0.13134 0.0
H1367 H 0.02174 0.54701 0.12909 0.0
H1368 H 0.92826 0.49707 0.1205 0.0
H1369 H 0.94139 0.49543 0.14246 0.0
H1370 H 0.94688 0.48965 0.11738 0.0
H1371 H 0.98007 0.40245 0.11777 0.0
H1372 H 0.99875 0.38751 0.13279 0.0
H1373 H 0.0085 0.41382 0.14168 0.0
H1374 H 0.02221 0.40811 0.12293 0.0
H1375 H 0.03313 0.46491 0.11235 0.0
H1376 H 0.96897 0.42261 0.10891 0.0
H1377 H 0.03493 0.50076 0.14479 0.0
H1378 H 0.03062 0.51069 0.12218 0.0
H1379 H 0.0472 0.50046 0.12144 0.0
H1380 H 0.94553 0.4323 0.11803 0.0
H1381 H 0.95441 0.45952 0.11783 0.0
H1382 H 0.95438 0.44811 0.14133 0.0
H1383 H 0.98573 0.49538 0.25416 0.0
H1384 H 0.97546 0.53559 0.2058 0.0
H1385 H 0.97622 0.5374 0.16939 0.0
H1386 H 0.98814 0.50182 0.11382 0.0
H1387 H 0.99895 0.46209 0.16243 0.0
H1388 H 0.99862 0.46065 0.19875 0.0
H1389 H 0.94371 0.58894 0.11537 0.0
H1390 H 0.96225 0.60932 0.13241 0.0
H1391 H 0.94965 0.58286 0.13972 0.0
C1392 C 0.44631 0.39323 0.3083 0.0
C1393 C 0.43512 0.39915 0.29335 0.0
C1394 C 0.45302 0.41023 0.26169 0.0
C1395 C 0.45248 0.42799 0.25788 0.0
C1396 C 0.46772 0.44383 0.24663 0.0
C1397 C 0.48391 0.44186 0.23926 0.0
C1398 C 0.48413 0.42363 0.2426 0.0
C1399 C 0.46844 0.40785 0.25356 0.0
C1400 C 0.46669 0.4628 0.24294 0.0
C1401 C 0.50115 0.42103 0.23498 0.0
C1402 C 0.61036 0.55449 0.30301 0.0
C1403 C 0.61093 0.5671 0.28491 0.0
C1404 C 0.57749 0.54444 0.26814 0.0
C1405 C 0.5811 0.52901 0.26075 0.0
C1406 C 0.56608 0.51161 0.24956 0.0
C1407 C 0.5473 0.50988 0.24525 0.0
C1408 C 0.54363 0.52536 0.2527 0.0
C1409 C 0.55875 0.54236 0.26418 0.0
C1410 C 0.57038 0.49525 0.24198 0.0
C1411 C 0.52385 0.52412 0.24826 0.0
C1412 C 0.57977 0.55267 0.11778 0.0
C1413 C 0.58217 0.53554 0.11819 0.0
C1414 C 0.56747 0.51724 0.12704 0.0
C1415 C 0.55002 0.51607 0.13542 0.0
C1416 C 0.54753 0.53327 0.13482 0.0
C1417 C 0.56262 0.55145 0.12625 0.0
C1418 C 0.57066 0.49924 0.12767 0.0
C1419 C 0.52897 0.53248 0.1433 0.0
C1420 C 0.41547 0.36945 0.10892 0.0
C1421 C 0.423 0.3876 0.09484 0.0
C1422 C 0.45813 0.41355 0.10454 0.0
C1423 C 0.47607 0.41416 0.10919 0.0
C1424 C 0.49133 0.43039 0.12134 0.0
C1425 C 0.48861 0.44654 0.1287 0.0
C1426 C 0.47084 0.44647 0.12336 0.0
C1427 C 0.45579 0.43 0.11123 0.0
C1428 C 0.51023 0.43017 0.12655 0.0
C1429 C 0.46775 0.46376 0.13058 0.0
C1430 C 0.50086 0.45917 0.22864 0.0
C1431 C 0.51608 0.47548 0.24066 0.0
C1432 C 0.53206 0.49269 0.23172 0.0
C1433 C 0.53304 0.49375 0.21022 0.0
C1434 C 0.5488 0.51098 0.20078 0.0
C1435 C 0.54952 0.51204 0.17964 0.0
C1436 C 0.53444 0.49597 0.1671 0.0
C1437 C 0.53473 0.49722 0.14561 0.0
C1438 C 0.51974 0.48084 0.13352 0.0
C1439 C 0.50415 0.46326 0.14238 0.0
C1440 C 0.50329 0.46194 0.16389 0.0
C1441 C 0.48747 0.44474 0.17332 0.0
C1442 C 0.48659 0.4438 0.19452 0.0
C1443 C 0.50164 0.45988 0.20708 0.0
C1444 C 0.5178 0.47727 0.19787 0.0
C1445 C 0.51856 0.47835 0.17627 0.0
C1446 C 0.61444 0.59102 0.0822 0.0
C1447 C 0.60829 0.57322 0.09549 0.0
O1448 O 0.43897 0.3954 0.27349 0.0
O1449 O 0.44382 0.39721 0.09302 0.0
O1450 O 0.59339 0.57052 0.10907 0.0
O1451 O 0.59143 0.56154 0.27913 0.0
H1452 H 0.44106 0.41594 0.29624 0.0
H1453 H 0.46287 0.40269 0.3058 0.0
H1454 H 0.44142 0.37668 0.30604 0.0
H1455 H 0.44338 0.39614 0.32432 0.0
H1456 H 0.44015 0.42946 0.26381 0.0
H1457 H 0.46853 0.39392 0.25647 0.0
H1458 H 0.47887 0.47611 0.252 0.0
H1459 H 0.45192 0.46083 0.24739 0.0
H1460 H 0.4692 0.46658 0.22656 0.0
H1461 H 0.4996 0.40636 0.23971 0.0
H1462 H 0.51589 0.43412 0.24087 0.0
H1463 H 0.50144 0.42123 0.21804 0.0
H1464 H 0.61849 0.56436 0.27176 0.0
H1465 H 0.62597 0.55897 0.30771 0.0
H1466 H 0.60189 0.53775 0.29886 0.0
H1467 H 0.60285 0.55715 0.31625 0.0
H1468 H 0.59556 0.5304 0.26354 0.0
H1469 H 0.55611 0.55433 0.26996 0.0
H1470 H 0.55782 0.47973 0.24601 0.0
H1471 H 0.58479 0.4977 0.24845 0.0
H1472 H 0.57134 0.49539 0.22506 0.0
H1473 H 0.52375 0.53793 0.25435 0.0
H1474 H 0.51131 0.51024 0.25523 0.0
H1475 H 0.52086 0.52249 0.23151 0.0
H1476 H 0.62092 0.57255 0.10289 0.0
H1477 H 0.59554 0.53645 0.11182 0.0
H1478 H 0.56093 0.56476 0.12578 0.0
H1479 H 0.56998 0.49463 0.1437 0.0
H1480 H 0.58541 0.50287 0.12123 0.0
H1481 H 0.55832 0.4858 0.11886 0.0
H1482 H 0.52825 0.54626 0.13952 0.0
H1483 H 0.52909 0.53164 0.16019 0.0
H1484 H 0.51506 0.51842 0.13723 0.0
H1485 H 0.41868 0.39828 0.10185 0.0
H1486 H 0.39877 0.36145 0.11034 0.0
H1487 H 0.42247 0.37519 0.12439 0.0
H1488 H 0.41955 0.35819 0.10297 0.0
H1489 H 0.47789 0.40159 0.10359 0.0
H1490 H 0.44249 0.43032 0.10678 0.0
H1491 H 0.51169 0.42988 0.14339 0.0
H1492 H 0.52375 0.44449 0.12141 0.0
H1493 H 0.51016 0.41663 0.11937 0.0
H1494 H 0.45328 0.46167 0.12474 0.0
H1495 H 0.48045 0.47872 0.12548 0.0
H1496 H 0.4678 0.46464 0.14754 0.0
H1497 H 0.51534 0.4749 0.25719 0.0
H1498 H 0.56075 0.52392 0.2096 0.0
H1499 H 0.56205 0.52567 0.17327 0.0
H1500 H 0.52004 0.4819 0.11702 0.0
H1501 H 0.47549 0.43187 0.16444 0.0
H1502 H 0.47396 0.43028 0.20093 0.0
H1503 H 0.63075 0.60233 0.08655 0.0
H1504 H 0.60868 0.60066 0.08946 0.0
H1505 H 0.60533 0.57717 0.05284 0.0
C1506 C 0.43712 0.01488 0.30819 0.0
C1507 C 0.42377 0.01151 0.28934 0.0
C1508 C 0.43772 0.99733 0.26442 0.0
C1509 C 0.45592 0.01605 0.26136 0.0
C1510 C 0.47131 0.01655 0.24956 0.0
C1511 C 0.46852 0.998 0.24056 0.0
C1512 C 0.45017 0.97917 0.24332 0.0
C1513 C 0.43495 0.97912 0.25514 0.0
C1514 C 0.49066 0.03693 0.24682 0.0
C1515 C 0.44673 0.95915 0.23383 0.0
C1516 C 0.59204 0.97982 0.29415 0.0
C1517 C 0.57432 0.97564 0.28132 0.0
C1518 C 0.56076 0.99432 0.26439 0.0
C1519 C 0.54481 0.97681 0.25409 0.0
C1520 C 0.53054 0.97836 0.24228 0.0
C1521 C 0.53227 0.99777 0.24071 0.0
C1522 C 0.54844 0.01545 0.25083 0.0
C1523 C 0.56252 0.01347 0.26251 0.0
C1524 C 0.51355 0.95925 0.23151 0.0
C1525 C 0.55076 0.03638 0.2494 0.0
C1526 C 0.57926 0.02745 0.11355 0.0
C1527 C 0.56323 0.00701 0.11537 0.0
C1528 C 0.54525 0.00275 0.12492 0.0
C1529 C 0.54331 0.01926 0.13278 0.0
C1530 C 0.55915 0.03987 0.13029 0.0
C1531 C 0.57686 0.04367 0.12048 0.0
C1532 C 0.52836 0.98061 0.12676 0.0
C1533 C 0.55749 0.05784 0.13827 0.0
C1534 C 0.41214 0.02416 0.12006 0.0
C1535 C 0.41947 0.02032 0.0995 0.0
C1536 C 0.44209 0.00831 0.11054 0.0
C1537 C 0.44344 0.99075 0.11222 0.0
C1538 C 0.45987 0.9917 0.1224 0.0
C1539 C 0.47537 0.01078 0.1311 0.0
C1540 C 0.47448 0.02879 0.12894 0.0
C1541 C 0.45785 0.02741 0.11864 0.0
C1542 C 0.46044 0.97222 0.12428 0.0
C1543 C 0.49088 0.04938 0.13793 0.0
C1544 C 0.48499 0.99849 0.22841 0.0
C1545 C 0.50005 0.9972 0.23881 0.0
C1546 C 0.51699 0.99949 0.22867 0.0
C1547 C 0.51915 0.00338 0.20758 0.0
C1548 C 0.53637 0.00657 0.19707 0.0
C1549 C 0.53842 0.01059 0.17636 0.0
C1550 C 0.52316 0.01118 0.16526 0.0
C1551 C 0.52499 0.01502 0.14414 0.0
C1552 C 0.50932 0.01501 0.13348 0.0
C1553 C 0.49188 0.01157 0.14343 0.0
C1554 C 0.49002 0.00831 0.16465 0.0
C1555 C 0.47294 0.00542 0.17524 0.0
C1556 C 0.4713 0.00232 0.19614 0.0
C1557 C 0.48649 0.00159 0.20717 0.0
C1558 C 0.50373 0.00423 0.19677 0.0
C1559 C 0.50564 0.0079 0.17554 0.0
C1560 C 0.62173 0.03143 0.1258 0.0
C1561 C 0.60744 0.02202 0.10716 0.0
O1562 O 0.42265 0.9961 0.2763 0.0
O1563 O 0.42524 0.0059 0.10124 0.0
O1564 O 0.59697 0.03215 0.10467 0.0
O1565 O 0.57467 0.99342 0.27628 0.0
H1566 H 0.43038 0.02614 0.28111 0.0
H1567 H 0.45287 0.02015 0.30371 0.0
H1568 H 0.43118 0.00033 0.31642 0.0
H1569 H 0.4376 0.0269 0.31881 0.0
H1570 H 0.4584 0.03038 0.26817 0.0
H1571 H 0.42088 0.96476 0.25746 0.0
H1572 H 0.50359 0.03642 0.2535 0.0
H1573 H 0.49022 0.05012 0.2542 0.0
H1574 H 0.49354 0.03972 0.23028 0.0
H1575 H 0.43172 0.94576 0.23761 0.0
H1576 H 0.45873 0.9564 0.23921 0.0
H1577 H 0.44779 0.96019 0.21695 0.0
H1578 H 0.55934 0.96349 0.28701 0.0
H1579 H 0.58548 0.97288 0.30923 0.0
H1580 H 0.59937 0.99627 0.30029 0.0
H1581 H 0.60715 0.96937 0.27541 0.0
H1582 H 0.54339 0.96191 0.2552 0.0
H1583 H 0.57492 0.0269 0.27041 0.0
H1584 H 0.5141 0.96152 0.21481 0.0
H1585 H 0.49876 0.95655 0.23688 0.0
H1586 H 0.51432 0.94528 0.23419 0.0
H1587 H 0.56451 0.04873 0.25771 0.0
H1588 H 0.53728 0.03598 0.25588 0.0
H1589 H 0.55161 0.04035 0.23312 0.0
H1590 H 0.59687 0.00545 0.11 0.0
H1591 H 0.56448 0.99434 0.10908 0.0
H1592 H 0.58917 0.05939 0.11861 0.0
H1593 H 0.52605 0.97681 0.14314 0.0
H1594 H 0.53159 0.96959 0.11855 0.0
H1595 H 0.514 0.97849 0.12057 0.0
H1596 H 0.57136 0.07295 0.13553 0.0
H1597 H 0.55468 0.05662 0.15494 0.0
H1598 H 0.54439 0.0574 0.13073 0.0
H1599 H 0.43258 0.0351 0.09449 0.0
H1600 H 0.40695 0.03524 0.11835 0.0
H1601 H 0.42458 0.03085 0.13169 0.0
H1602 H 0.39946 0.00954 0.12581 0.0
H1603 H 0.43131 0.97614 0.10578 0.0
H1604 H 0.45722 0.04123 0.11724 0.0
H1605 H 0.46004 0.96873 0.14066 0.0
H1606 H 0.4748 0.97448 0.11804 0.0
H1607 H 0.44753 0.95873 0.11607 0.0
H1608 H 0.48847 0.06214 0.13418 0.0
H1609 H 0.50585 0.05296 0.13217 0.0
H1610 H 0.49137 0.04866 0.15481 0.0
H1611 H 0.49874 0.9947 0.2551 0.0
H1612 H 0.54853 0.00616 0.20478 0.0
H1613 H 0.55209 0.01308 0.16913 0.0
H1614 H 0.51069 0.01765 0.11722 0.0
H1615 H 0.46069 0.00568 0.16754 0.0
H1616 H 0.45787 0.00034 0.2035 0.0
H1617 H 0.63252 0.0482 0.12417 0.0
H1618 H 0.63041 0.02361 0.12777 0.0
H1619 H 0.61282 0.02938 0.13979 0.0
C1620 C 0.56956 0.01161 0.70527 0.0
C1621 C 0.58609 0.01903 0.72193 0.0
C1622 C 0.56471 0.00703 0.7517 0.0
C1623 C 0.56679 0.02551 0.75953 0.0
C1624 C 0.55196 0.0253 0.77208 0.0
C1625 C 0.53463 0.00621 0.77675 0.0
C1626 C 0.53274 0.98753 0.76929 0.0
C1627 C 0.54803 0.9882 0.75708 0.0
C1628 C 0.55472 0.0455 0.78022 0.0
C1629 C 0.51445 0.96692 0.77394 0.0
C1630 C 0.39732 0.0124 0.73747 0.0
C1631 C 0.41028 0.01075 0.75323 0.0
C1632 C 0.44424 0.01664 0.75744 0.0
C1633 C 0.43963 0.99712 0.76351 0.0
C1634 C 0.45421 0.9946 0.77357 0.0
C1635 C 0.47374 0.012 0.7778 0.0
C1636 C 0.47859 0.03158 0.77113 0.0
C1637 C 0.46382 0.03357 0.76077 0.0
C1638 C 0.44872 0.97333 0.77972 0.0
C1639 C 0.4993 0.05044 0.77512 0.0
C1640 C 0.43767 0.0066 0.90496 0.0
C1641 C 0.43457 0.98741 0.898 0.0
C1642 C 0.45038 0.98591 0.88923 0.0
C1643 C 0.4697 0.00392 0.88761 0.0
C1644 C 0.47317 0.02305 0.89574 0.0
C1645 C 0.45709 0.02409 0.90448 0.0
C1646 C 0.44629 0.96519 0.88111 0.0
C1647 C 0.49365 0.0425 0.89447 0.0
C1648 C 0.58334 0.96201 0.89557 0.0
C1649 C 0.58462 0.98125 0.9055 0.0
C1650 C 0.55343 0.98177 0.90507 0.0
C1651 C 0.53312 0.96681 0.90127 0.0
C1652 C 0.52003 0.97178 0.89169 0.0
C1653 C 0.52737 0.99243 0.88644 0.0
C1654 C 0.54766 0.0079 0.89148 0.0
C1655 C 0.56055 0.00234 0.90055 0.0
C1656 C 0.49847 0.95488 0.88683 0.0
C1657 C 0.55581 0.03021 0.88699 0.0
C1658 C 0.51834 0.00596 0.78905 0.0
C1659 C 0.50395 0.00858 0.77888 0.0
C1660 C 0.48889 0.00974 0.7896 0.0
C1661 C 0.48824 0.00851 0.81112 0.0
C1662 C 0.47381 0.01044 0.82247 0.0
C1663 C 0.47302 0.00882 0.84357 0.0
C1664 C 0.48663 0.00518 0.8542 0.0
C1665 C 0.48561 0.00306 0.87561 0.0
C1666 C 0.4993 0.99937 0.88573 0.0
C1667 C 0.51404 0.99758 0.87497 0.0
C1668 C 0.51533 0.99977 0.85351 0.0
C1669 C 0.52994 0.99812 0.84213 0.0
C1670 C 0.53116 0.00045 0.82109 0.0
C1671 C 0.51743 0.00389 0.81047 0.0
C1672 C 0.5024 0.0053 0.82156 0.0
C1673 C 0.50151 0.0035 0.84312 0.0
C1674 C 0.40083 0.01224 0.88913 0.0
C1675 C 0.40269 0.99886 0.90491 0.0
O1676 O 0.57844 0.00689 0.73881 0.0
O1677 O 0.56584 0.97597 0.91312 0.0
O1678 O 0.42245 0.00878 0.91251 0.0
O1679 O 0.43041 0.01954 0.74781 0.0
H1680 H 0.59127 0.03534 0.72635 0.0
H1681 H 0.55686 0.0132 0.71096 0.0
H1682 H 0.56357 0.99514 0.70078 0.0
H1683 H 0.57568 0.02105 0.69157 0.0
H1684 H 0.58006 0.04013 0.75606 0.0
H1685 H 0.54669 0.97401 0.75111 0.0
H1686 H 0.54285 0.04774 0.77348 0.0
H1687 H 0.56978 0.05891 0.77659 0.0
H1688 H 0.55293 0.04519 0.79706 0.0
H1689 H 0.51487 0.95383 0.76627 0.0
H1690 H 0.50045 0.9664 0.76895 0.0
H1691 H 0.51359 0.96488 0.79068 0.0
H1692 H 0.40358 0.99526 0.75982 0.0
H1693 H 0.38592 0.99599 0.73242 0.0
H1694 H 0.40595 0.01614 0.72279 0.0
H1695 H 0.38904 0.03201 0.75171 0.0
H1696 H 0.42482 0.98374 0.7601 0.0
H1697 H 0.46734 0.04849 0.75564 0.0
H1698 H 0.44791 0.97264 0.79662 0.0
H1699 H 0.46056 0.97003 0.7748 0.0
H1700 H 0.43389 0.96109 0.77307 0.0
H1701 H 0.50006 0.06484 0.7707 0.0
H1702 H 0.51064 0.04874 0.76624 0.0
H1703 H 0.50355 0.05193 0.79156 0.0
H1704 H 0.39852 0.98404 0.89683 0.0
H1705 H 0.4199 0.97354 0.89941 0.0
H1706 H 0.45945 0.03875 0.91032 0.0
H1707 H 0.44789 0.96544 0.86426 0.0
H1708 H 0.43087 0.95242 0.88478 0.0
H1709 H 0.45759 0.96197 0.88761 0.0
H1710 H 0.49423 0.05593 0.90259 0.0
H1711 H 0.49734 0.04615 0.87818 0.0
H1712 H 0.50547 0.04013 0.90111 0.0
H1713 H 0.58885 0.99241 0.89315 0.0
H1714 H 0.59829 0.96588 0.88948 0.0
H1715 H 0.57215 0.95596 0.88268 0.0
H1716 H 0.57846 0.94969 0.90676 0.0
H1717 H 0.52773 0.95103 0.90515 0.0
H1718 H 0.57616 0.01404 0.90417 0.0
H1719 H 0.49473 0.95501 0.87049 0.0
H1720 H 0.48803 0.95765 0.89615 0.0
H1721 H 0.4957 0.93934 0.89008 0.0
H1722 H 0.57067 0.04068 0.89474 0.0
H1723 H 0.54496 0.03491 0.8919 0.0
H1724 H 0.55776 0.03219 0.87027 0.0
H1725 H 0.50456 0.00985 0.76241 0.0
H1726 H 0.46293 0.01323 0.81518 0.0
H1727 H 0.46152 0.01039 0.85142 0.0
H1728 H 0.49826 0.99755 0.90212 0.0
H1729 H 0.5407 0.99513 0.84936 0.0
H1730 H 0.54287 0.99926 0.8132 0.0
H1731 H 0.38497 0.00474 0.88329 0.0
H1732 H 0.41074 0.01421 0.87601 0.0
H1733 H 0.40551 0.02777 0.89588 0.0
C1734 C 0.98259 0.5592 0.71507 0.0
C1735 C 0.97794 0.57086 0.73168 0.0
C1736 C 0.99175 0.56318 0.76121 0.0
C1737 C 0.97393 0.54662 0.76884 0.0
C1738 C 0.97464 0.53242 0.78144 0.0
C1739 C 0.99355 0.53475 0.78642 0.0
C1740 C 0.01159 0.55176 0.77924 0.0
C1741 C 0.01044 0.56596 0.76697 0.0
C1742 C 0.95516 0.51472 0.7892 0.0
C1743 C 0.032 0.55463 0.78409 0.0
C1744 C 0.01121 0.43512 0.71964 0.0
C1745 C 0.00393 0.42062 0.73763 0.0
C1746 C 0.98965 0.43651 0.75992 0.0
C1747 C 0.00833 0.45399 0.76606 0.0
C1748 C 0.00911 0.46997 0.77824 0.0
C1749 C 0.99089 0.46838 0.78467 0.0
C1750 C 0.97209 0.45071 0.77886 0.0
C1751 C 0.97173 0.43497 0.76654 0.0
C1752 C 0.02946 0.48867 0.78414 0.0
C1753 C 0.95243 0.44852 0.78566 0.0
C1754 C 0.00565 0.443 0.91259 0.0
C1755 C 0.02362 0.45817 0.90371 0.0
C1756 C 0.02457 0.47512 0.89454 0.0
C1757 C 0.00724 0.47695 0.89426 0.0
C1758 C 0.98941 0.46214 0.90388 0.0
C1759 C 0.9889 0.44539 0.91296 0.0
C1760 C 0.04391 0.49081 0.88466 0.0
C1761 C 0.97072 0.46372 0.90405 0.0
C1762 C 0.03863 0.63539 0.89895 0.0
C1763 C 0.02743 0.61782 0.9136 0.0
C1764 C 0.03154 0.58792 0.90982 0.0
C1765 C 0.04579 0.5833 0.90256 0.0
C1766 C 0.03983 0.56345 0.89475 0.0
C1767 C 0.01909 0.54783 0.89456 0.0
C1768 C 0.00477 0.55201 0.9033 0.0
C1769 C 0.01116 0.57206 0.91093 0.0
C1770 C 0.05555 0.55942 0.88586 0.0
C1771 C 0.98265 0.53551 0.90382 0.0
C1772 C 0.99429 0.51876 0.7982 0.0
C1773 C 0.99127 0.50111 0.78742 0.0
C1774 C 0.99175 0.48538 0.79739 0.0
C1775 C 0.99483 0.48693 0.81879 0.0
C1776 C 0.99472 0.47104 0.82934 0.0
C1777 C 0.99843 0.47299 0.85033 0.0
C1778 C 0.00274 0.49106 0.86152 0.0
C1779 C 0.00728 0.49351 0.88274 0.0
C1780 C 0.01211 0.51194 0.89326 0.0
C1781 C 0.01226 0.52797 0.88315 0.0
C1782 C 0.00711 0.52552 0.86209 0.0
C1783 C 0.00658 0.54114 0.85159 0.0
C1784 C 0.00196 0.53879 0.83077 0.0
C1785 C 0.99817 0.52096 0.81954 0.0
C1786 C 0.99841 0.50495 0.82985 0.0
C1787 C 0.00263 0.50713 0.8512 0.0
C1788 C 0.01679 0.41032 0.89763 0.0
C1789 C 0.01672 0.41841 0.91945 0.0
O1790 O 0.99143 0.5765 0.74807 0.0
O1791 O 0.03807 0.60781 0.91561 0.0
O1792 O 0.00359 0.42574 0.92072 0.0
O1793 O 0.98822 0.42098 0.7475 0.0
H1794 H 0.96224 0.56061 0.73686 0.0
H1795 H 0.98071 0.54482 0.72112 0.0
H1796 H 0.9984 0.56892 0.70985 0.0
H1797 H 0.97205 0.55482 0.70175 0.0
H1798 H 0.95942 0.54476 0.76514 0.0
H1799 H 0.02412 0.5789 0.76117 0.0
H1800 H 0.95255 0.49997 0.78218 0.0
H1801 H 0.94189 0.51612 0.78557 0.0
H1802 H 0.95628 0.51396 0.80602 0.0
H1803 H 0.04453 0.56821 0.77667 0.0
H1804 H 0.03222 0.54062 0.77893 0.0
H1805 H 0.0348 0.55666 0.80086 0.0
H1806 H 0.01676 0.42566 0.74862 0.0
H1807 H 0.02345 0.43435 0.7115 0.0
H1808 H 0.01736 0.45135 0.72507 0.0
H1809 H 0.99857 0.43083 0.70865 0.0
H1810 H 0.02242 0.45549 0.76136 0.0
H1811 H 0.9574 0.42143 0.76184 0.0
H1812 H 0.03018 0.50287 0.77913 0.0
H1813 H 0.04223 0.48789 0.7773 0.0
H1814 H 0.03145 0.49005 0.80102 0.0
H1815 H 0.93906 0.43354 0.78036 0.0
H1816 H 0.95103 0.46124 0.77962 0.0
H1817 H 0.95237 0.44986 0.8026 0.0
H1818 H 0.03229 0.43111 0.92383 0.0
H1819 H 0.03688 0.45681 0.90364 0.0
H1820 H 0.97517 0.43376 0.92003 0.0
H1821 H 0.04139 0.49002 0.86788 0.0
H1822 H 0.05656 0.48821 0.88765 0.0
H1823 H 0.04842 0.50662 0.89037 0.0
H1824 H 0.95816 0.45114 0.91249 0.0
H1825 H 0.9655 0.4631 0.88811 0.0
H1826 H 0.97439 0.47879 0.91124 0.0
H1827 H 0.01217 0.60726 0.90664 0.0
H1828 H 0.03038 0.64366 0.89703 0.0
H1829 H 0.03962 0.62903 0.88373 0.0
H1830 H 0.05424 0.64655 0.90477 0.0
H1831 H 0.06155 0.59556 0.90225 0.0
H1832 H 1.0002 0.57529 0.91757 0.0
H1833 H 0.05253 0.55566 0.86921 0.0
H1834 H 0.0546 0.5459 0.89302 0.0
H1835 H 0.07117 0.57291 0.88814 0.0
H1836 H 0.97374 0.54061 0.91289 0.0
H1837 H 0.98085 0.52137 0.91041 0.0
H1838 H 0.97632 0.53135 0.88798 0.0
H1839 H 0.98892 0.49978 0.77096 0.0
H1840 H 0.99175 0.4569 0.82148 0.0
H1841 H 0.99815 0.46025 0.85759 0.0
H1842 H 0.01603 0.51394 0.90943 0.0
H1843 H 0.00972 0.55538 0.85933 0.0
H1844 H 0.00174 0.55129 0.82352 0.0
H1845 H 0.00127 0.39819 0.89248 0.0
H1846 H 0.02673 0.40375 0.89698 0.0
H1847 H 0.02266 0.42298 0.88677 0.0
C1848 C 0.55179 0.60744 0.71533 0.0
C1849 C 0.56623 0.61042 0.73301 0.0
C1850 C 0.54537 0.57866 0.75168 0.0
C1851 C 0.53162 0.58401 0.75949 0.0
C1852 C 0.51486 0.57001 0.77068 0.0
C1853 C 0.51186 0.55036 0.77435 0.0
C1854 C 0.5258 0.54503 0.76685 0.0
C1855 C 0.54238 0.55928 0.7556 0.0
C1856 C 0.50026 0.57616 0.77853 0.0
C1857 C 0.52313 0.52426 0.77066 0.0
C1858 C 0.38171 0.45091 0.69757 0.0
C1859 C 0.39304 0.44737 0.71453 0.0
C1860 C 0.40748 0.4679 0.74609 0.0
C1861 C 0.42245 0.46304 0.74942 0.0
C1862 C 0.439 0.47549 0.76261 0.0
C1863 C 0.44066 0.49324 0.77247 0.0
C1864 C 0.42529 0.49784 0.76955 0.0
C1865 C 0.40867 0.48485 0.75662 0.0
C1866 C 0.45487 0.46986 0.76579 0.0
C1867 C 0.42665 0.51673 0.7797 0.0
C1868 C 0.40519 0.46055 0.89915 0.0
C1869 C 0.41877 0.45459 0.89247 0.0
C1870 C 0.43752 0.46903 0.88442 0.0
C1871 C 0.44269 0.48978 0.88294 0.0
C1872 C 0.42954 0.49604 0.89081 0.0
C1873 C 0.411 0.48132 0.89903 0.0
C1874 C 0.4515 0.46199 0.8768 0.0
C1875 C 0.4347 0.51809 0.88973 0.0
C1876 C 0.60107 0.61476 0.88394 0.0
C1877 C 0.5854 0.60853 0.9008 0.0
C1878 C 0.55513 0.57362 0.89782 0.0
C1879 C 0.54949 0.55334 0.89235 0.0
C1880 C 0.52975 0.53891 0.88546 0.0
C1881 C 0.51534 0.54501 0.88407 0.0
C1882 C 0.52043 0.56497 0.89127 0.0
C1883 C 0.54027 0.57906 0.89829 0.0
C1884 C 0.52463 0.51753 0.87847 0.0
C1885 C 0.5052 0.57174 0.89049 0.0
C1886 C 0.49408 0.53538 0.78602 0.0
C1887 C 0.47624 0.52176 0.77514 0.0
C1888 C 0.45887 0.50738 0.78517 0.0
C1889 C 0.45915 0.50654 0.80669 0.0
C1890 C 0.44191 0.49233 0.81726 0.0
C1891 C 0.44234 0.49175 0.83846 0.0
C1892 C 0.46013 0.5051 0.8499 0.0
C1893 C 0.46082 0.50442 0.87146 0.0
C1894 C 0.47886 0.51768 0.88231 0.0
C1895 C 0.49629 0.5318 0.87215 0.0
C1896 C 0.49578 0.53295 0.85066 0.0
C1897 C 0.513 0.54723 0.84004 0.0
C1898 C 0.51247 0.54811 0.81891 0.0
C1899 C 0.49473 0.5347 0.80753 0.0
C1900 C 0.47717 0.52025 0.8179 0.0
C1901 C 0.47768 0.51945 0.83951 0.0
C1902 C 0.35318 0.42156 0.89337 0.0
C1903 C 0.37454 0.4263 0.89847 0.0
O1904 O 0.56149 0.59146 0.7402 0.0
O1905 O 0.57499 0.58728 0.90235 0.0
O1906 O 0.38632 0.44669 0.90552 0.0
O1907 O 0.39191 0.45678 0.73258 0.0
H1908 H 0.56493 0.61982 0.74566 0.0
H1909 H 0.53591 0.59975 0.72046 0.0
H1910 H 0.55265 0.59777 0.70267 0.0
H1911 H 0.55579 0.62263 0.7094 0.0
H1912 H 0.53372 0.59898 0.75687 0.0
H1913 H 0.55307 0.55529 0.74964 0.0
H1914 H 0.48483 0.56513 0.77226 0.0
H1915 H 0.50464 0.59199 0.77433 0.0
H1916 H 0.49955 0.5754 0.79544 0.0
H1917 H 0.53545 0.52256 0.76401 0.0
H1918 H 0.50842 0.51184 0.76396 0.0
H1919 H 0.52275 0.52205 0.78737 0.0
H1920 H 0.4091 0.45487 0.70966 0.0
H1921 H 0.38255 0.4436 0.68288 0.0
H1922 H 0.38873 0.46773 0.6955 0.0
H1923 H 0.36556 0.44441 0.70141 0.0
H1924 H 0.42125 0.44956 0.74172 0.0
H1925 H 0.3969 0.48831 0.75405 0.0
H1926 H 0.45788 0.46992 0.78237 0.0
H1927 H 0.46924 0.48157 0.75886 0.0
H1928 H 0.4503 0.45445 0.75878 0.0
H1929 H 0.41401 0.51875 0.77492 0.0
H1930 H 0.44121 0.53073 0.77592 0.0
H1931 H 0.42638 0.51549 0.79654 0.0
H1932 H 0.38053 0.42386 0.88382 0.0
H1933 H 0.41468 0.43864 0.89333 0.0
H1934 H 0.40056 0.48581 0.9046 0.0
H1935 H 0.45205 0.46239 0.85987 0.0
H1936 H 0.44647 0.44606 0.88127 0.0
H1937 H 0.46711 0.47263 0.88287 0.0
H1938 H 0.42305 0.52058 0.89692 0.0
H1939 H 0.43616 0.52238 0.87351 0.0
H1940 H 0.44952 0.52859 0.89752 0.0
H1941 H 0.57535 0.61401 0.89576 0.0
H1942 H 0.61065 0.63184 0.88354 0.0
H1943 H 0.59317 0.60875 0.86887 0.0
H1944 H 0.61091 0.60828 0.88618 0.0
H1945 H 0.5609 0.54909 0.89263 0.0
H1946 H 0.544 0.59426 0.90383 0.0
H1947 H 0.52277 0.51587 0.86157 0.0
H1948 H 0.51006 0.50576 0.88504 0.0
H1949 H 0.53661 0.51436 0.88292 0.0
H1950 H 0.51089 0.58706 0.89834 0.0
H1951 H 0.49092 0.56019 0.89769 0.0
H1952 H 0.50158 0.57264 0.8743 0.0
H1953 H 0.47588 0.52234 0.75862 0.0
H1954 H 0.42786 0.48155 0.80926 0.0
H1955 H 0.42854 0.48059 0.84572 0.0
H1956 H 0.47938 0.51693 0.8988 0.0
H1957 H 0.52715 0.55795 0.84791 0.0
H1958 H 0.52619 0.55939 0.81161 0.0
H1959 H 0.34612 0.42428 0.90696 0.0
H1960 H 0.34347 0.40525 0.88773 0.0
H1961 H 0.35386 0.43171 0.88117 0.0
C1962 C 0.62085 0.73513 0.63104 0.0
C1963 C 0.63296 0.73498 0.61247 0.0
C1964 C 0.64323 0.76817 0.5972 0.0
C1965 C 0.62382 0.7626 0.58993 0.0
C1966 C 0.62069 0.77668 0.57965 0.0
C1967 C 0.63729 0.79669 0.57636 0.0
C1968 C 0.6568 0.80241 0.58369 0.0
C1969 C 0.65949 0.78805 0.59403 0.0
C1970 C 0.59966 0.77011 0.57208 0.0
C1971 C 0.67483 0.82362 0.58038 0.0
C1972 C 0.5913 0.88955 0.64483 0.0
C1973 C 0.60872 0.8943 0.63048 0.0
C1974 C 0.60754 0.87453 0.5999 0.0
C1975 C 0.62804 0.88044 0.59968 0.0
C1976 C 0.63437 0.86889 0.58815 0.0
C1977 C 0.61986 0.85096 0.57687 0.0
C1978 C 0.5992 0.84508 0.57699 0.0
C1979 C 0.5934 0.85722 0.58822 0.0
C1980 C 0.65654 0.87586 0.588 0.0
C1981 C 0.58321 0.82585 0.56545 0.0
C1982 C 0.62405 0.88593 0.44899 0.0
C1983 C 0.64328 0.89061 0.45572 0.0
C1984 C 0.64592 0.87556 0.46458 0.0
C1985 C 0.62897 0.85546 0.46679 0.0
C1986 C 0.60979 0.85043 0.45903 0.0
C1987 C 0.60764 0.86573 0.44999 0.0
C1988 C 0.66671 0.88125 0.47208 0.0
C1989 C 0.59145 0.82911 0.46093 0.0
C1990 C 0.6305 0.71726 0.46006 0.0
C1991 C 0.62776 0.72493 0.43971 0.0
C1992 C 0.6388 0.76141 0.44747 0.0
C1993 C 0.65545 0.78157 0.44745 0.0
C1994 C 0.65467 0.79809 0.45685 0.0
C1995 C 0.63656 0.79433 0.46605 0.0
C1996 C 0.6193 0.77413 0.46523 0.0
C1997 C 0.6207 0.75783 0.45634 0.0
C1998 C 0.67337 0.8194 0.45751 0.0
C1999 C 0.59946 0.76959 0.47428 0.0
C2000 C 0.63434 0.81133 0.56454 0.0
C2001 C 0.62952 0.82451 0.57515 0.0
C2002 C 0.62623 0.83839 0.56483 0.0
C2003 C 0.62812 0.83947 0.54336 0.0
C2004 C 0.62564 0.85376 0.53258 0.0
C2005 C 0.6268 0.85419 0.51138 0.0
C2006 C 0.6304 0.84029 0.50011 0.0
C2007 C 0.63108 0.84022 0.4785 0.0
C2008 C 0.63356 0.82542 0.46775 0.0
C2009 C 0.636 0.81099 0.47809 0.0
C2010 C 0.63656 0.81163 0.49971 0.0
C2011 C 0.64013 0.7981 0.51056 0.0
C2012 C 0.63972 0.79817 0.53179 0.0
C2013 C 0.63557 0.81168 0.543 0.0
C2014 C 0.63242 0.82579 0.53238 0.0
C2015 C 0.63324 0.82599 0.51072 0.0
C2016 C 0.61327 0.92444 0.45709 0.0
C2017 C 0.62977 0.92078 0.44895 0.0
O2018 O 0.64697 0.75503 0.60734 0.0
O2019 O 0.641 0.74608 0.43891 0.0
O2020 O 0.62083 0.90049 0.4415 0.0
O2021 O 0.60092 0.88503 0.61141 0.0
H2022 H 0.62242 0.72681 0.59928 0.0
H2023 H 0.61239 0.74287 0.62765 0.0
H2024 H 0.63113 0.74346 0.64438 0.0
H2025 H 0.60971 0.71907 0.63521 0.0
H2026 H 0.61095 0.74733 0.59213 0.0
H2027 H 0.6744 0.79229 0.59966 0.0
H2028 H 0.59523 0.78098 0.57836 0.0
H2029 H 0.58818 0.75424 0.57646 0.0
H2030 H 0.59952 0.77069 0.55516 0.0
H2031 H 0.68896 0.82584 0.58735 0.0
H2032 H 0.67196 0.83553 0.58703 0.0
H2033 H 0.67706 0.82609 0.56373 0.0
H2034 H 0.61685 0.8873 0.6374 0.0
H2035 H 0.59732 0.897 0.66019 0.0
H2036 H 0.58174 0.87261 0.64653 0.0
H2037 H 0.5816 0.89507 0.63876 0.0
H2038 H 0.63911 0.89414 0.60835 0.0
H2039 H 0.57765 0.85289 0.58844 0.0
H2040 H 0.66169 0.87678 0.57202 0.0
H2041 H 0.65885 0.86436 0.59561 0.0
H2042 H 0.66612 0.89114 0.59602 0.0
H2043 H 0.56764 0.82197 0.56932 0.0
H2044 H 0.58483 0.81252 0.56882 0.0
H2045 H 0.58515 0.82816 0.54878 0.0
H2046 H 0.64003 0.92365 0.46219 0.0
H2047 H 0.6562 0.90603 0.45411 0.0
H2048 H 0.59295 0.8622 0.44438 0.0
H2049 H 0.66694 0.88123 0.48904 0.0
H2050 H 0.67865 0.89674 0.46725 0.0
H2051 H 0.67035 0.86961 0.46627 0.0
H2052 H 0.57757 0.82769 0.4542 0.0
H2053 H 0.58882 0.82533 0.4773 0.0
H2054 H 0.59416 0.81753 0.45313 0.0
H2055 H 0.61193 0.72127 0.4382 0.0
H2056 H 0.62003 0.70031 0.4607 0.0
H2057 H 0.62706 0.72481 0.47295 0.0
H2058 H 0.64633 0.72091 0.462 0.0
H2059 H 0.66931 0.78425 0.4405 0.0
H2060 H 0.60756 0.74245 0.45661 0.0
H2061 H 0.67743 0.82536 0.47361 0.0
H2062 H 0.67026 0.83008 0.44935 0.0
H2063 H 0.68654 0.81959 0.4504 0.0
H2064 H 0.58662 0.75437 0.46869 0.0
H2065 H 0.59614 0.78173 0.47056 0.0
H2066 H 0.60047 0.76941 0.49117 0.0
H2067 H 0.62804 0.82376 0.59163 0.0
H2068 H 0.6227 0.86474 0.5404 0.0
H2069 H 0.62457 0.86541 0.50393 0.0
H2070 H 0.63334 0.82496 0.45117 0.0
H2071 H 0.64326 0.78723 0.50278 0.0
H2072 H 0.64244 0.7873 0.53927 0.0
H2073 H 0.60198 0.92139 0.44486 0.0
H2074 H 0.62005 0.94061 0.46315 0.0
H2075 H 0.60529 0.91393 0.46972 0.0
C2076 C 0.11386 0.71638 0.65533 0.0
C2077 C 0.10699 0.7268 0.64045 0.0
C2078 C 0.12536 0.74138 0.6094 0.0
C2079 C 0.12323 0.75863 0.60854 0.0
C2080 C 0.13667 0.77571 0.59729 0.0
C2081 C 0.1526 0.7755 0.58679 0.0
C2082 C 0.15446 0.75789 0.58725 0.0
C2083 C 0.14057 0.74089 0.59832 0.0
C2084 C 0.13392 0.79399 0.59669 0.0
C2085 C 0.17128 0.75713 0.57628 0.0
C2086 C 0.27712 0.88534 0.64716 0.0
C2087 C 0.27894 0.89922 0.62978 0.0
C2088 C 0.24558 0.87848 0.61217 0.0
C2089 C 0.2486 0.86302 0.60358 0.0
C2090 C 0.23311 0.84621 0.59211 0.0
C2091 C 0.21439 0.84498 0.58896 0.0
C2092 C 0.21139 0.86058 0.59746 0.0
C2093 C 0.22704 0.8771 0.60898 0.0
C2094 C 0.23675 0.82979 0.58322 0.0
C2095 C 0.19168 0.85984 0.59425 0.0
C2096 C 0.23929 0.88307 0.45987 0.0
C2097 C 0.24152 0.86607 0.46292 0.0
C2098 C 0.22631 0.84851 0.47236 0.0
C2099 C 0.20856 0.84795 0.47885 0.0
C2100 C 0.20605 0.86479 0.47533 0.0
C2101 C 0.22148 0.88213 0.46587 0.0
C2102 C 0.22934 0.83071 0.4758 0.0
C2103 C 0.18725 0.86461 0.48196 0.0
C2104 C 0.06348 0.70336 0.45795 0.0
C2105 C 0.07665 0.72199 0.44503 0.0
C2106 C 0.11236 0.74511 0.45673 0.0
C2107 C 0.1297 0.74472 0.4618 0.0
C2108 C 0.14633 0.76167 0.47181 0.0
C2109 C 0.14547 0.77947 0.47698 0.0
C2110 C 0.12832 0.78036 0.47118 0.0
C2111 C 0.11199 0.76324 0.46091 0.0
C2112 C 0.16461 0.76039 0.47727 0.0
C2113 C 0.12717 0.79932 0.4761 0.0
C2114 C 0.16733 0.79369 0.57535 0.0
C2115 C 0.18344 0.81025 0.58627 0.0
C2116 C 0.19808 0.82766 0.57636 0.0
C2117 C 0.19688 0.82855 0.55492 0.0
C2118 C 0.2115 0.8457 0.54444 0.0
C2119 C 0.21032 0.84632 0.52331 0.0
C2120 C 0.19438 0.82987 0.51185 0.0
C2121 C 0.19313 0.83026 0.49034 0.0
C2122 C 0.17707 0.8137 0.47939 0.0
C2123 C 0.16203 0.79666 0.48942 0.0
C2124 C 0.16298 0.79598 0.51092 0.0
C2125 C 0.148 0.77913 0.52149 0.0
C2126 C 0.14932 0.77838 0.54259 0.0
C2127 C 0.16563 0.79449 0.55395 0.0
C2128 C 0.18061 0.81188 0.54369 0.0
C2129 C 0.17932 0.81258 0.52214 0.0
C2130 C 0.28743 0.91171 0.46336 0.0
C2131 C 0.27283 0.90556 0.44501 0.0
O2132 O 0.11315 0.72514 0.62096 0.0
O2133 O 0.09675 0.72774 0.4476 0.0
O2134 O 0.25384 0.90074 0.45152 0.0
O2135 O 0.2599 0.89491 0.62368 0.0
H2136 H 0.11478 0.74326 0.64594 0.0
H2137 H 0.13065 0.7245 0.65575 0.0
H2138 H 0.10784 0.69998 0.65054 0.0
H2139 H 0.10866 0.71713 0.671 0.0
H2140 H 0.11101 0.75872 0.6166 0.0
H2141 H 0.14192 0.72739 0.59894 0.0
H2142 H 0.14699 0.80757 0.60458 0.0
H2143 H 0.1198 0.79103 0.60418 0.0
H2144 H 0.13357 0.79799 0.5806 0.0
H2145 H 0.17162 0.74304 0.57955 0.0
H2146 H 0.18613 0.77092 0.58083 0.0
H2147 H 0.16927 0.75744 0.55955 0.0
H2148 H 0.28654 0.89666 0.61656 0.0
H2149 H 0.29238 0.8889 0.65219 0.0
H2150 H 0.26825 0.86883 0.64205 0.0
H2151 H 0.26943 0.88769 0.66042 0.0
H2152 H 0.26291 0.86391 0.60573 0.0
H2153 H 0.22487 0.88911 0.61562 0.0
H2154 H 0.22485 0.8144 0.58832 0.0
H2155 H 0.25182 0.83248 0.58776 0.0
H2156 H 0.23573 0.82941 0.56629 0.0
H2157 H 0.19186 0.87337 0.60162 0.0
H2158 H 0.17909 0.84555 0.60061 0.0
H2159 H 0.18851 0.85934 0.57764 0.0
H2160 H 0.27162 0.89196 0.43659 0.0
H2161 H 0.25513 0.86642 0.45828 0.0
H2162 H 0.21984 0.89525 0.46336 0.0
H2163 H 0.22992 0.82876 0.49247 0.0
H2164 H 0.24351 0.83304 0.46895 0.0
H2165 H 0.21633 0.81618 0.46915 0.0
H2166 H 0.18739 0.87873 0.47766 0.0
H2167 H 0.18587 0.86337 0.49881 0.0
H2168 H 0.17364 0.8509 0.47491 0.0
H2169 H 0.07392 0.73433 0.45044 0.0
H2170 H 0.04726 0.69839 0.45608 0.0
H2171 H 0.06786 0.70757 0.47435 0.0
H2172 H 0.06542 0.69021 0.45346 0.0
H2173 H 0.13003 0.73083 0.45815 0.0
H2174 H 0.09924 0.7644 0.4562 0.0
H2175 H 0.16566 0.75979 0.49411 0.0
H2176 H 0.17865 0.77438 0.47239 0.0
H2177 H 0.16389 0.74652 0.47009 0.0
H2178 H 0.1125 0.79737 0.47117 0.0
H2179 H 0.13958 0.81273 0.4684 0.0
H2180 H 0.12927 0.80298 0.49282 0.0
H2181 H 0.18458 0.8096 0.60271 0.0
H2182 H 0.22412 0.85881 0.55243 0.0
H2183 H 0.22208 0.85988 0.51608 0.0
H2184 H 0.17627 0.81408 0.46288 0.0
H2185 H 0.13509 0.76625 0.51358 0.0
H2186 H 0.13738 0.76498 0.54986 0.0
H2187 H 0.30272 0.91586 0.45808 0.0
H2188 H 0.2886 0.92511 0.47215 0.0
H2189 H 0.28207 0.89871 0.47375 0.0
C2190 C 0.11403 0.37933 0.65329 0.0
C2191 C 0.10218 0.37072 0.633 0.0
C2192 C 0.12204 0.36001 0.61222 0.0
C2193 C 0.13825 0.38001 0.60851 0.0
C2194 C 0.15427 0.38294 0.59607 0.0
C2195 C 0.1541 0.36559 0.58716 0.0
C2196 C 0.13794 0.34548 0.591 0.0
C2197 C 0.12214 0.34298 0.60351 0.0
C2198 C 0.17135 0.40458 0.59229 0.0
C2199 C 0.13733 0.32662 0.58179 0.0
C2200 C 0.25743 0.36778 0.65043 0.0
C2201 C 0.25804 0.35469 0.63238 0.0
C2202 C 0.24908 0.36679 0.60289 0.0
C2203 C 0.23179 0.34884 0.59515 0.0
C2204 C 0.21696 0.35001 0.58403 0.0
C2205 C 0.21955 0.36957 0.58063 0.0
C2206 C 0.2374 0.38773 0.58772 0.0
C2207 C 0.25211 0.3861 0.59862 0.0
C2208 C 0.19833 0.33034 0.57627 0.0
C2209 C 0.24068 0.40879 0.58415 0.0
C2210 C 0.24276 0.37076 0.44712 0.0
C2211 C 0.22752 0.35238 0.45543 0.0
C2212 C 0.21206 0.35205 0.46698 0.0
C2213 C 0.21196 0.37052 0.47056 0.0
C2214 C 0.22694 0.38892 0.46175 0.0
C2215 C 0.24202 0.38872 0.44992 0.0
C2216 C 0.19591 0.33198 0.47558 0.0
C2217 C 0.22726 0.40887 0.46523 0.0
C2218 C 0.06839 0.35339 0.4264 0.0
C2219 C 0.08682 0.36441 0.43998 0.0
C2220 C 0.10798 0.35582 0.46001 0.0
C2221 C 0.1096 0.33955 0.46702 0.0
C2222 C 0.12784 0.34301 0.47545 0.0
C2223 C 0.14478 0.36338 0.47724 0.0
C2224 C 0.14327 0.37997 0.4702 0.0
C2225 C 0.12489 0.37603 0.46162 0.0
C2226 C 0.12895 0.32491 0.4826 0.0
C2227 C 0.16102 0.40186 0.47205 0.0
C2228 C 0.17066 0.36844 0.57356 0.0
C2229 C 0.18755 0.36931 0.58238 0.0
C2230 C 0.20317 0.37082 0.57032 0.0
C2231 C 0.20216 0.37179 0.54888 0.0
C2232 C 0.21767 0.37345 0.53633 0.0
C2233 C 0.21614 0.37358 0.51517 0.0
C2234 C 0.19889 0.37173 0.50574 0.0
C2235 C 0.19666 0.37068 0.4842 0.0
C2236 C 0.17915 0.36849 0.47534 0.0
C2237 C 0.16369 0.36736 0.48746 0.0
C2238 C 0.16579 0.36869 0.509 0.0
C2239 C 0.15065 0.36786 0.52161 0.0
C2240 C 0.15235 0.36811 0.54276 0.0
C2241 C 0.16925 0.36918 0.55213 0.0
C2242 C 0.185 0.37072 0.53974 0.0
C2243 C 0.18331 0.37057 0.51814 0.0
C2244 C 0.28198 0.3694 0.45737 0.0
C2245 C 0.26744 0.36049 0.43886 0.0
O2246 O 0.1061 0.35633 0.62406 0.0
O2247 O 0.09 0.35132 0.45153 0.0
O2248 O 0.25817 0.37179 0.43608 0.0
O2249 O 0.26287 0.36577 0.61475 0.0
H2250 H 0.10681 0.38359 0.62254 0.0
H2251 H 0.13055 0.38713 0.65074 0.0
H2252 H 0.1098 0.36671 0.66399 0.0
H2253 H 0.11083 0.39081 0.66051 0.0
H2254 H 0.13863 0.39343 0.61524 0.0
H2255 H 0.10965 0.32764 0.6065 0.0
H2256 H 0.18592 0.4065 0.59752 0.0
H2257 H 0.16929 0.41651 0.60031 0.0
H2258 H 0.17245 0.40721 0.57564 0.0
H2259 H 0.12376 0.31204 0.5864 0.0
H2260 H 0.15108 0.3266 0.58661 0.0
H2261 H 0.13733 0.32705 0.56486 0.0
H2262 H 0.24275 0.3405 0.63073 0.0
H2263 H 0.25372 0.35913 0.66471 0.0
H2264 H 0.24559 0.37159 0.64757 0.0
H2265 H 0.27224 0.38243 0.65259 0.0
H2266 H 0.22987 0.33393 0.59786 0.0
H2267 H 0.2657 0.39985 0.60448 0.0
H2268 H 0.19607 0.33105 0.55964 0.0
H2269 H 0.18483 0.3286 0.58413 0.0
H2270 H 0.19929 0.31647 0.57891 0.0
H2271 H 0.25549 0.42143 0.59045 0.0
H2272 H 0.2284 0.41018 0.59139 0.0
H2273 H 0.23995 0.41073 0.56751 0.0
H2274 H 0.25597 0.34418 0.44173 0.0
H2275 H 0.22731 0.33813 0.45276 0.0
H2276 H 0.25367 0.40276 0.44322 0.0
H2277 H 0.19767 0.33287 0.49247 0.0
H2278 H 0.19675 0.31858 0.4695 0.0
H2279 H 0.18065 0.32927 0.47197 0.0
H2280 H 0.24025 0.42198 0.45775 0.0
H2281 H 0.22812 0.41265 0.48188 0.0
H2282 H 0.21299 0.40705 0.45915 0.0
H2283 H 0.08855 0.37793 0.44914 0.0
H2284 H 0.05808 0.35873 0.43225 0.0
H2285 H 0.05888 0.33731 0.43212 0.0
H2286 H 0.08027 0.3593 0.39698 0.0
H2287 H 0.09652 0.32403 0.46565 0.0
H2288 H 0.12378 0.38879 0.45638 0.0
H2289 H 0.13081 0.3261 0.49949 0.0
H2290 H 0.14233 0.32515 0.47604 0.0
H2291 H 0.11514 0.30989 0.47826 0.0
H2292 H 0.15734 0.41312 0.46614 0.0
H2293 H 0.17396 0.40308 0.46342 0.0
H2294 H 0.16596 0.40608 0.48832 0.0
H2295 H 0.1883 0.36827 0.59881 0.0
H2296 H 0.23114 0.37456 0.54273 0.0
H2297 H 0.22855 0.37485 0.5063 0.0
H2298 H 0.17731 0.36717 0.45883 0.0
H2299 H 0.1372 0.36682 0.51527 0.0
H2300 H 0.14012 0.36721 0.55168 0.0
H2301 H 0.28972 0.36064 0.45943 0.0
H2302 H 0.27342 0.36819 0.47143 0.0
H2303 H 0.29356 0.38592 0.45545 0.0
C2304 C 0.006 0.38353 0.06375 0.0
C2305 C 0.98714 0.36578 0.05855 0.0
C2306 C 0.00823 0.39651 0.08053 0.0
C2307 C 0.99173 0.39231 0.09289 0.0
H2308 H 0.01924 0.38758 0.05476 0.0
H2309 H 0.02304 0.40995 0.08392 0.0
S2310 S 0.93927 0.34752 0.08649 0.0
N2311 N 0.95169 0.34448 0.06748 0.0
N2312 N 0.95599 0.36892 0.09918 0.0
C2313 C 0.97281 0.37457 0.08805 0.0
C2314 C 0.97048 0.36134 0.07083 0.0
C2315 C 0.63432 0.59653 0.05176 0.0
C2316 C 0.61773 0.60675 0.0494 0.0
C2317 C 0.62557 0.57223 0.06386 0.0
C2318 C 0.60071 0.56171 0.07687 0.0
H2319 H 0.64951 0.60496 0.04595 0.0
H2320 H 0.63578 0.56685 0.06699 0.0
S2321 S 0.55813 0.57904 0.06793 0.0
N2322 N 0.57811 0.59836 0.05622 0.0
N2323 N 0.56297 0.56122 0.07632 0.0
C2324 C 0.58185 0.56871 0.06955 0.0
C2325 C 0.59181 0.59259 0.05758 0.0
C2326 C 0.38733 0.019 0.05431 0.0
C2327 C 0.37105 0.99838 0.05317 0.0
C2328 C 0.40275 0.02587 0.06919 0.0
C2329 C 0.4026 0.01241 0.08352 0.0
H2330 H 0.38835 0.02997 0.04349 0.0
H2331 H 0.41497 0.04186 0.06943 0.0
S2332 S 0.36275 0.95732 0.08826 0.0
N2333 N 0.35527 0.96479 0.06851 0.0
N2334 N 0.38424 0.97778 0.09642 0.0
C2335 C 0.38617 0.99189 0.08292 0.0
C2336 C 0.37047 0.98486 0.06775 0.0
C2337 C 0.37882 0.00817 0.95224 0.0
C2338 C 0.36193 0.9885 0.95571 0.0
C2339 C 0.39181 0.0113 0.936 0.0
C2340 C 0.38836 0.99494 0.9224 0.0
H2341 H 0.38235 0.02125 0.96241 0.0
H2342 H 0.40476 0.02665 0.93412 0.0
S2343 S 0.34559 0.94071 0.9239 0.0
N2344 N 0.34205 0.95255 0.94367 0.0
N2345 N 0.36632 0.95852 0.91296 0.0
C2346 C 0.37129 0.97529 0.92539 0.0
C2347 C 0.35814 0.97205 0.94207 0.0
C2348 C 0.01897 0.38449 0.96022 0.0
C2349 C 0.99854 0.36888 0.96239 0.0
C2350 C 0.02464 0.40022 0.94638 0.0
C2351 C 0.01014 0.40112 0.93422 0.0
H2352 H 0.03073 0.38483 0.96951 0.0
H2353 H 0.04053 0.41192 0.94536 0.0
S2354 S 0.95482 0.3633 0.93264 0.0
N2355 N 0.96384 0.35481 0.95008 0.0
N2356 N 0.97462 0.38437 0.92425 0.0
C2357 C 0.98976 0.38529 0.93569 0.0
C2358 C 0.98394 0.36923 0.94973 0.0
C2359 C 0.61956 0.62479 0.94862 0.0
C2360 C 0.6129 0.63566 0.96091 0.0
C2361 C 0.61073 0.61621 0.9294 0.0
C2362 C 0.59517 0.61856 0.92137 0.0
H2363 H 0.63152 0.62254 0.95398 0.0
H2364 H 0.61606 0.60752 0.92085 0.0
S2365 S 0.57159 0.64495 0.94748 0.0
N2366 N 0.58921 0.64775 0.96376 0.0
N2367 N 0.57289 0.63185 0.92747 0.0
C2368 C 0.5882 0.62921 0.9335 0.0
C2369 C 0.59704 0.63778 0.95323 0.0
C2370 C 0.04147 0.64473 0.9667 0.0
C2371 C 0.02429 0.64567 0.97211 0.0
C2372 C 0.04218 0.6354 0.94815 0.0
C2373 C 0.02566 0.62636 0.93426 0.0
H2374 H 0.0547 0.65152 0.97674 0.0
H2375 H 0.05594 0.63554 0.94451 0.0
S2376 S 0.97714 0.62474 0.94063 0.0
N2377 N 0.99029 0.63674 0.96172 0.0
N2378 N 0.99174 0.61917 0.92689 0.0
C2379 C 0.00835 0.62707 0.9394 0.0
C2380 C 0.0076 0.63663 0.95831 0.0
C2381 C 0.37467 0.38091 0.9221 0.0
C2382 C 0.36939 0.38187 0.94251 0.0
C2383 C 0.37671 0.3955 0.90821 0.0
C2384 C 0.37388 0.41182 0.91426 0.0
H2385 H 0.37669 0.36845 0.91661 0.0
H2386 H 0.38024 0.39381 0.89252 0.0
S2387 S 0.3614 0.42226 0.96633 0.0
N2388 N 0.36233 0.40112 0.96833 0.0
N2389 N 0.36644 0.42864 0.94228 0.0
C2390 C 0.36919 0.41333 0.93478 0.0
C2391 C 0.3669 0.39836 0.94887 0.0
C2392 C 0.61259 0.98732 0.95611 0.0
C2393 C 0.63126 0.00582 0.95404 0.0
C2394 C 0.59753 0.97979 0.9407 0.0
C2395 C 0.6006 0.99035 0.92252 0.0
H2396 H 0.60947 0.97869 0.96984 0.0
H2397 H 0.5834 0.96549 0.94295 0.0
S2398 S 0.64715 0.03896 0.90909 0.0
N2399 N 0.65213 0.03425 0.93208 0.0
N2400 N 0.62397 0.01995 0.90312 0.0
C2401 C 0.61927 0.00874 0.92017 0.0
C2402 C 0.63453 0.01651 0.93591 0.0
C2403 C 0.6303 0.00722 0.06275 0.0
C2404 C 0.64184 0.02578 0.05253 0.0
C2405 C 0.61932 0.00621 0.08016 0.0
C2406 C 0.61925 0.02366 0.08806 0.0
H2407 H 0.62968 0.99323 0.05733 0.0
H2408 H 0.61078 0.9916 0.08749 0.0
S2409 S 0.64736 0.07622 0.06772 0.0
N2410 N 0.6528 0.06227 0.0521 0.0
N2411 N 0.63214 0.06024 0.08484 0.0
C2412 C 0.63088 0.0424 0.07824 0.0
C2413 C 0.64212 0.04348 0.06048 0.0
C2414 C 0.01154 0.63773 0.08807 0.0
C2415 C 0.00151 0.63555 0.06938 0.0
C2416 C 0.00235 0.62314 0.10316 0.0
C2417 C 0.98289 0.60561 0.10005 0.0
H2418 H 0.0265 0.65102 0.09127 0.0
H2419 H 0.01051 0.62571 0.11745 0.0
S2420 S 0.95056 0.59197 0.05336 0.0
N2421 N 0.9712 0.61406 0.04835 0.0
N2422 N 0.95411 0.58653 0.0766 0.0
C2423 C 0.97282 0.60301 0.08128 0.0
C2424 C 0.98208 0.61799 0.066 0.0
C2425 C 0.38634 0.37507 0.04987 0.0
C2426 C 0.39184 0.36469 0.03541 0.0
C2427 C 0.39661 0.38259 0.06871 0.0
C2428 C 0.41289 0.38017 0.07391 0.0
H2429 H 0.37382 0.37725 0.04677 0.0
H2430 H 0.39162 0.3902 0.07941 0.0
S2431 S 0.4334 0.35407 0.04183 0.0
N2432 N 0.41485 0.35242 0.0278 0.0
N2433 N 0.43398 0.36649 0.06327 0.0
C2434 C 0.41864 0.36989 0.05966 0.0
C2435 C 0.40823 0.36225 0.04041 0.0
C2436 C 0.65511 0.71137 0.39886 0.0
C2437 C 0.63906 0.69443 0.38797 0.0
C2438 C 0.65145 0.72094 0.41562 0.0
C2439 C 0.6316 0.714 0.42204 0.0
H2440 H 0.6706 0.71764 0.39409 0.0
H2441 H 0.66424 0.73409 0.42339 0.0
S2442 S 0.5846 0.66832 0.4007 0.0
N2443 N 0.60275 0.66978 0.38619 0.0
N2444 N 0.59595 0.68776 0.41769 0.0
C2445 C 0.61554 0.69639 0.412 0.0
C2446 C 0.61924 0.68668 0.39492 0.0
C2447 C 0.28469 0.95632 0.42208 0.0
C2448 C 0.29571 0.95747 0.40449 0.0
C2449 C 0.27752 0.93973 0.43499 0.0
C2450 C 0.2808 0.92336 0.43075 0.0
H2451 H 0.28149 0.96834 0.426 0.0
H2452 H 0.26924 0.93966 0.44838 0.0
S2453 S 0.30993 0.91935 0.38762 0.0
N2454 N 0.31043 0.94107 0.38417 0.0
N2455 N 0.29683 0.90987 0.40851 0.0
C2456 C 0.29224 0.92451 0.41359 0.0
C2457 C 0.29965 0.94148 0.40042 0.0
C2458 C 0.06244 0.37023 0.39875 0.0
C2459 C 0.05095 0.34272 0.39303 0.0
C2460 C 0.08709 0.3849 0.41133 0.0
C2461 C 0.09694 0.36886 0.42128 0.0
H2462 H 0.05485 0.37809 0.39403 0.0
H2463 H 0.09347 0.40092 0.41614 0.0
S2464 S 0.07668 0.30747 0.40389 0.0
N2465 N 0.05762 0.30947 0.39397 0.0
N2466 N 0.09525 0.32992 0.41478 0.0
C2467 C 0.08825 0.34238 0.41071 0.0
C2468 C 0.06406 0.32939 0.39845 0.0
C2469 C 0.06628 0.33921 0.29579 0.0
C2470 C 0.04945 0.31739 0.31105 0.0
C2471 C 0.08792 0.34031 0.28349 0.0
C2472 C 0.08844 0.31585 0.28444 0.0
H2473 H 0.06365 0.3518 0.29433 0.0
H2474 H 0.09735 0.35244 0.2733 0.0
S2475 S 0.05534 0.26728 0.32305 0.0
N2476 N 0.04332 0.28038 0.32683 0.0
N2477 N 0.07524 0.27937 0.30748 0.0
C2478 C 0.07504 0.29664 0.3042 0.0
C2479 C 0.05434 0.29695 0.31554 0.0
C2480 C 0.66846 0.73701 0.29726 0.0
C2481 C 0.68139 0.72373 0.3043 0.0
C2482 C 0.68237 0.76243 0.2869 0.0
C2483 C 0.70912 0.77113 0.28018 0.0
H2484 H 0.65236 0.72984 0.29953 0.0
H2485 H 0.67469 0.76993 0.28138 0.0
S2486 S 0.74279 0.7458 0.29956 0.0
N2487 N 0.71961 0.72746 0.30714 0.0
N2488 N 0.74285 0.76605 0.28959 0.0
C2489 C 0.72351 0.76065 0.29234 0.0
C2490 C 0.7085 0.73578 0.30248 0.0
C2491 C 0.27882 0.96667 0.30071 0.0
C2492 C 0.27804 0.98106 0.31432 0.0
C2493 C 0.26592 0.95838 0.28345 0.0
C2494 C 0.25161 0.96401 0.27917 0.0
H2495 H 0.2894 0.96164 0.30341 0.0
H2496 H 0.26715 0.94745 0.27337 0.0
S2497 S 0.24437 0.00226 0.30885 0.0
N2498 N 0.26234 0.0014 0.32153 0.0
N2499 N 0.23826 0.98579 0.28915 0.0
C2500 C 0.251 0.97875 0.29231 0.0
C2501 C 0.26409 0.9872 0.30988 0.0
C2502 C 0.68384 0.96483 0.29173 0.0
C2503 C 0.69786 0.9758 0.30785 0.0
C2504 C 0.68914 0.95728 0.27451 0.0
C2505 C 0.70858 0.96018 0.27277 0.0
H2506 H 0.66877 0.96251 0.29209 0.0
H2507 H 0.678 0.9494 0.26228 0.0
S2508 S 0.75066 0.98689 0.31099 0.0
N2509 N 0.73193 0.98844 0.32121 0.0
N2510 N 0.74179 0.97429 0.28877 0.0
C2511 C 0.72264 0.97071 0.28891 0.0
C2512 C 0.71729 0.97845 0.30646 0.0
C2513 C 0.0372 0.73587 0.28819 0.0
C2514 C 0.04149 0.7204 0.28274 0.0
C2515 C 0.03864 0.74994 0.27401 0.0
C2516 C 0.04416 0.74896 0.2537 0.0
H2517 H 0.03252 0.73704 0.30354 0.0
H2518 H 0.03494 0.7614 0.27884 0.0
S2519 S 0.05733 0.7117 0.23168 0.0
N2520 N 0.05205 0.70533 0.25573 0.0
N2521 N 0.05435 0.73154 0.22894 0.0
C2522 C 0.04885 0.73384 0.24812 0.0
C2523 C 0.04765 0.71965 0.26266 0.0
C2524 C 0.27109 0.31186 0.2909 0.0
C2525 C 0.28812 0.33143 0.28739 0.0
C2526 C 0.25626 0.30078 0.27563 0.0
C2527 C 0.25793 0.30871 0.25615 0.0
H2528 H 0.26921 0.30494 0.30555 0.0
H2529 H 0.24357 0.28568 0.27896 0.0
S2530 S 0.29937 0.35929 0.23909 0.0
N2531 N 0.30554 0.35842 0.26301 0.0
N2532 N 0.2778 0.33743 0.23424 0.0
C2533 C 0.2747 0.32837 0.2525 0.0
C2534 C 0.28972 0.33977 0.26813 0.0
C2535 C 0.2883 0.34227 0.3953 0.0
C2536 C 0.3004 0.36024 0.38441 0.0
C2537 C 0.27778 0.34256 0.41262 0.0
C2538 C 0.27876 0.36078 0.41978 0.0
H2539 H 0.28685 0.32774 0.39045 0.0
H2540 H 0.26877 0.32834 0.42049 0.0
S2541 S 0.309 0.41236 0.39769 0.0
N2542 N 0.31323 0.39708 0.38267 0.0
N2543 N 0.29345 0.39749 0.41526 0.0
C2544 C 0.29104 0.37896 0.40933 0.0
C2545 C 0.30179 0.37871 0.39164 0.0
C2546 C 0.64175 0.9468 0.3975 0.0
C2547 C 0.66085 0.96485 0.40101 0.0
C2548 C 0.63217 0.9325 0.41274 0.0
C2549 C 0.64125 0.93558 0.43218 0.0
H2550 H 0.63399 0.94364 0.38285 0.0
H2551 H 0.61735 0.91904 0.40939 0.0
S2552 S 0.69097 0.98023 0.44955 0.0
N2553 N 0.68846 0.98492 0.42564 0.0
N2554 N 0.67032 0.95805 0.45425 0.0
C2555 C 0.66034 0.95346 0.43595 0.0
C2556 C 0.67017 0.96804 0.42039 0.0
C2557 C 0.04988 0.71558 0.39373 0.0
C2558 C 0.0559 0.70419 0.38134 0.0
C2559 C 0.05699 0.72162 0.41397 0.0
C2560 C 0.07043 0.71656 0.42266 0.0
H2561 H 0.03934 0.71964 0.38788 0.0
H2562 H 0.05167 0.73006 0.42302 0.0
S2563 S 0.09061 0.68659 0.39709 0.0
N2564 N 0.0762 0.68803 0.37948 0.0
N2565 N 0.08919 0.69912 0.41751 0.0
C2566 C 0.07662 0.70522 0.41048 0.0
C2567 C 0.06953 0.69919 0.38984 0.0
C2568 C 0.33495 0.06976 0.71646 0.0
C2569 C 0.31457 0.05049 0.69981 0.0
C2570 C 0.33313 0.09064 0.72861 0.0
C2571 C 0.30758 0.08775 0.72596 0.0
H2572 H 0.34833 0.06894 0.71901 0.0
H2573 H 0.34442 0.10141 0.73964 0.0
S2574 S 0.26141 0.04852 0.68458 0.0
N2575 N 0.27679 0.039 0.68168 0.0
N2576 N 0.27134 0.0695 0.70067 0.0
C2577 C 0.28948 0.07196 0.70494 0.0
C2578 C 0.29265 0.05218 0.69378 0.0
C2579 C 0.92072 0.2576 0.71851 0.0
C2580 C 0.94617 0.27118 0.70855 0.0
C2581 C 0.91185 0.23437 0.73249 0.0
C2582 C 0.932 0.22874 0.73922 0.0
H2583 H 0.91072 0.26336 0.71607 0.0
H2584 H 0.89729 0.22695 0.73977 0.0
S2585 S 0.98932 0.25456 0.71402 0.0
N2586 N 0.98206 0.27019 0.70451 0.0
N2587 N 0.9709 0.23531 0.7273 0.0
C2588 C 0.95568 0.23874 0.72454 0.0
C2589 C 0.96294 0.26137 0.71099 0.0
C2590 C 0.71283 0.67364 0.7404 0.0
C2591 C 0.71142 0.68175 0.72187 0.0
C2592 C 0.72938 0.68488 0.75385 0.0
C2593 C 0.74549 0.70463 0.74925 0.0
H2594 H 0.70105 0.65839 0.74462 0.0
H2595 H 0.72964 0.67793 0.76793 0.0
S2596 S 0.74873 0.73372 0.70361 0.0
N2597 N 0.72723 0.71144 0.70023 0.0
N2598 N 0.75841 0.73247 0.72559 0.0
C2599 C 0.74404 0.71327 0.73116 0.0
C2600 C 0.72707 0.70186 0.71744 0.0
C2601 C 0.70228 0.65379 0.61606 0.0
C2602 C 0.6922 0.63842 0.63044 0.0
C2603 C 0.71129 0.65052 0.59884 0.0
C2604 C 0.71052 0.6317 0.59521 0.0
H2605 H 0.70322 0.66851 0.61802 0.0
H2606 H 0.71878 0.66276 0.58817 0.0
S2607 S 0.68638 0.58646 0.62815 0.0
N2608 N 0.68241 0.60363 0.63987 0.0
N2609 N 0.69908 0.59756 0.60751 0.0
C2610 C 0.70063 0.61625 0.60948 0.0
C2611 C 0.69156 0.61958 0.62706 0.0
C2612 C 0.34099 0.04378 0.60174 0.0
C2613 C 0.35088 0.04387 0.61985 0.0
C2614 C 0.35065 0.05947 0.5878 0.0
C2615 C 0.37055 0.0761 0.59144 0.0
H2616 H 0.32541 0.03178 0.59848 0.0
H2617 H 0.34226 0.05884 0.57427 0.0
S2618 S 0.40427 0.08239 0.63493 0.0
N2619 N 0.38264 0.06111 0.63951 0.0
N2620 N 0.40064 0.09058 0.61324 0.0
C2621 C 0.38108 0.07579 0.60879 0.0
C2622 C 0.37129 0.05975 0.62301 0.0
C2623 C 0.9395 0.30521 0.60386 0.0
C2624 C 0.94986 0.29873 0.61625 0.0
C2625 C 0.93391 0.29763 0.58362 0.0
C2626 C 0.93816 0.28301 0.57512 0.0
H2627 H 0.93595 0.3165 0.60972 0.0
H2628 H 0.92621 0.30327 0.57454 0.0
S2629 S 0.96377 0.25998 0.60161 0.0
N2630 N 0.96356 0.27633 0.61881 0.0
N2631 N 0.95258 0.26167 0.58094 0.0
C2632 C 0.94816 0.27608 0.58749 0.0
C2633 C 0.95413 0.28405 0.60799 0.0
C2634 C 0.34392 0.29197 0.63068 0.0
C2635 C 0.36128 0.30497 0.64288 0.0
C2636 C 0.34508 0.28225 0.61258 0.0
C2637 C 0.36362 0.28503 0.60591 0.0
H2638 H 0.32922 0.28918 0.63512 0.0
H2639 H 0.33131 0.27246 0.6037 0.0
S2640 S 0.4138 0.31833 0.63147 0.0
N2641 N 0.39783 0.32066 0.64646 0.0
N2642 N 0.3999 0.30238 0.6124 0.0
C2643 C 0.38117 0.29821 0.61774 0.0
C2644 C 0.38001 0.30811 0.63623 0.0
C2645 C 0.70432 0.06557 0.60857 0.0
C2646 C 0.70591 0.04819 0.60384 0.0
C2647 C 0.70965 0.08099 0.59449 0.0
C2648 C 0.71666 0.07963 0.575 0.0
H2649 H 0.69895 0.06738 0.62334 0.0
H2650 H 0.70802 0.09398 0.5988 0.0
S2651 S 0.72337 0.03723 0.55477 0.0
N2652 N 0.71504 0.03058 0.57814 0.0
N2653 N 0.72479 0.05944 0.55159 0.0
C2654 C 0.71837 0.06239 0.57003 0.0
C2655 C 0.71311 0.04674 0.58446 0.0
C2656 C 0.94252 0.65159 0.61722 0.0
C2657 C 0.95952 0.67168 0.61595 0.0
C2658 C 0.92793 0.64255 0.60143 0.0
C2659 C 0.9297 0.65317 0.58362 0.0
H2660 H 0.94041 0.64266 0.63054 0.0
H2661 H 0.91526 0.62698 0.60302 0.0
S2662 S 0.97126 0.70604 0.57244 0.0
N2663 N 0.97717 0.70194 0.59529 0.0
N2664 N 0.94981 0.68483 0.56554 0.0
C2665 C 0.94653 0.67328 0.58213 0.0
C2666 C 0.96137 0.68257 0.59829 0.0
C2667 C 0.95438 0.67756 0.72405 0.0
C2668 C 0.96897 0.69558 0.71457 0.0
C2669 C 0.94452 0.67858 0.74161 0.0
C2670 C 0.94872 0.69764 0.75039 0.0
H2671 H 0.95049 0.66245 0.71793 0.0
H2672 H 0.93347 0.66429 0.74837 0.0
S2673 S 0.98616 0.74948 0.73227 0.0
N2674 N 0.9875 0.73324 0.71582 0.0
N2675 N 0.96891 0.73499 0.74882 0.0
C2676 C 0.96344 0.7158 0.7413 0.0
C2677 C 0.9735 0.71481 0.72339 0.0
C2678 C 0.33274 0.29163 0.75662 0.0
C2679 C 0.32579 0.29046 0.73647 0.0
C2680 C 0.32043 0.27719 0.77088 0.0
C2681 C 0.30082 0.26083 0.76549 0.0
H2682 H 0.34757 0.30415 0.76162 0.0
H2683 H 0.32619 0.27907 0.78638 0.0
S2684 S 0.27602 0.24981 0.71429 0.0
N2685 N 0.29834 0.2709 0.71157 0.0
N2686 N 0.27538 0.24371 0.73834 0.0
C2687 C 0.29393 0.25908 0.74523 0.0
C2688 C 0.30636 0.27388 0.73074 0.0
C2689 C 0.71846 0.04862 0.71295 0.0
C2690 C 0.72322 0.03664 0.69986 0.0
C2691 C 0.72905 0.05743 0.73144 0.0
C2692 C 0.74497 0.05479 0.73759 0.0
H2693 H 0.70625 0.05108 0.70908 0.0
H2694 H 0.72464 0.0663 0.74108 0.0
S2695 S 0.76351 0.0247 0.70924 0.0
N2696 N 0.74512 0.02259 0.69458 0.0
N2697 N 0.76483 0.03907 0.72941 0.0
C2698 C 0.74993 0.04284 0.72475 0.0
C2699 C 0.73917 0.03387 0.70587 0.0
C2700 C 0.04026 0.3361 0.07484 0.0
C2701 C 0.04927 0.34717 0.05013 0.0
C2702 C 0.05789 0.33898 0.09469 0.0
C2703 C 0.08448 0.34986 0.08611 0.0
H2704 H 0.0242 0.32757 0.07773 0.0
H2705 H 0.05261 0.33094 0.10879 0.0
S2706 S 0.10906 0.38049 0.03224 0.0
N2707 N 0.08428 0.37108 0.02718 0.0
N2708 N 0.11331 0.37549 0.05601 0.0
C2709 C 0.09449 0.36613 0.06337 0.0
C2710 C 0.07593 0.36249 0.0449 0.0
C2711 C 0.68924 0.70918 0.05839 0.0
C2712 C 0.6708 0.70013 0.04729 0.0
C2713 C 0.6986 0.72954 0.06633 0.0
C2714 C 0.68979 0.74155 0.06365 0.0
H2715 H 0.69708 0.70089 0.06009 0.0
H2716 H 0.71321 0.73618 0.07398 0.0
S2717 S 0.64065 0.72445 0.03741 0.0
N2718 N 0.64323 0.70417 0.03551 0.0
N2719 N 0.66099 0.74252 0.05004 0.0
C2720 C 0.67086 0.73233 0.05343 0.0
C2721 C 0.66127 0.71157 0.04548 0.0
C2722 C 0.2771 0.95212 0.03072 0.0
C2723 C 0.29038 0.97291 0.03687 0.0
C2724 C 0.25814 0.94038 0.03974 0.0
C2725 C 0.25162 0.94911 0.05501 0.0
H2726 H 0.28104 0.94503 0.01836 0.0
H2727 H 0.24827 0.92457 0.03423 0.0
S2728 S 0.28225 0.00176 0.07908 0.0
N2729 N 0.29684 0.00082 0.06118 0.0
N2730 N 0.26116 0.97895 0.07779 0.0
C2731 C 0.26539 0.96941 0.06231 0.0
C2732 C 0.28474 0.98127 0.05328 0.0
C2733 C 0.31337 0.04543 0.97982 0.0
C2734 C 0.33294 0.0488 0.98247 0.0
C2735 C 0.31042 0.06136 0.97438 0.0
C2736 C 0.32691 0.08127 0.97104 0.0
H2737 H 0.30016 0.0305 0.98263 0.0
H2738 H 0.29504 0.0581 0.97306 0.0
S2739 S 0.38122 0.09745 0.97373 0.0
N2740 N 0.36908 0.07309 0.98018 0.0
N2741 N 0.36356 0.10296 0.96906 0.0
C2742 C 0.34659 0.08461 0.97273 0.0
C2743 C 0.3496 0.06842 0.9787 0.0
C2744 C 0.98798 0.28175 0.97003 0.0
C2745 C 0.97889 0.28791 0.98503 0.0
C2746 C 0.97755 0.26187 0.96081 0.0
C2747 C 0.95759 0.2474 0.96617 0.0
H2748 H 0.00342 0.29226 0.96556 0.0
H2749 H 0.98526 0.25771 0.94955 0.0
S2750 S 0.92694 0.25571 0.00474 0.0
N2751 N 0.94868 0.27791 0.0048 0.0
N2752 N 0.92916 0.24053 0.98763 0.0
C2753 C 0.94827 0.2534 0.98109 0.0
C2754 C 0.95885 0.27367 0.9904 0.0
C2755 C 0.71504 0.69222 0.97265 0.0
C2756 C 0.70442 0.67211 0.98 0.0
C2757 C 0.73489 0.70095 0.96585 0.0
C2758 C 0.74489 0.68988 0.96587 0.0
H2759 H 0.7083 0.70168 0.97284 0.0
H2760 H 0.74266 0.71674 0.96106 0.0
S2761 S 0.72339 0.63613 0.98211 0.0
N2762 N 0.70504 0.64092 0.98583 0.0
N2763 N 0.74239 0.65734 0.97287 0.0
C2764 C 0.73419 0.66944 0.97237 0.0
C2765 C 0.71394 0.66054 0.9794 0.0
C2766 C 0.94511 0.66152 0.98607 0.0
C2767 C 0.96565 0.67724 0.9867 0.0
C2768 C 0.93036 0.66463 0.97745 0.0
C2769 C 0.93553 0.68357 0.96906 0.0
H2770 H 0.94029 0.64682 0.99271 0.0
H2771 H 0.91466 0.65226 0.9778 0.0
S2772 S 0.98721 0.72985 0.96703 0.0
N2773 N 0.99047 0.71248 0.97798 0.0
N2774 N 0.96268 0.71839 0.96218 0.0
C2775 C 0.95606 0.69937 0.96941 0.0
C2776 C 0.97112 0.69616 0.97803 0.0
C2777 C 0.32451 0.27839 0.97307 0.0
C2778 C 0.31811 0.29133 0.96563 0.0
C2779 C 0.31182 0.25689 0.97181 0.0
C2780 C 0.2924 0.24747 0.96272 0.0
H2781 H 0.33886 0.28484 0.9812 0.0
H2782 H 0.31692 0.24761 0.97882 0.0
S2783 S 0.26987 0.27426 0.93765 0.0
N2784 N 0.29208 0.2931 0.94658 0.0
N2785 N 0.26836 0.2526 0.94387 0.0
C2786 C 0.28651 0.26015 0.95365 0.0
C2787 C 0.29936 0.28209 0.95512 0.0
C2788 C 0.72569 0.05247 0.98145 0.0
C2789 C 0.71278 0.03135 0.97631 0.0
C2790 C 0.74579 0.06325 0.97504 0.0
C2791 C 0.75374 0.05341 0.96306 0.0
H2792 H 0.72055 0.06059 0.99127 0.0
H2793 H 0.7554 0.07926 0.98014 0.0
S2794 S 0.72576 0.99876 0.94387 0.0
N2795 N 0.70899 0.00134 0.95721 0.0
N2796 N 0.74682 0.02161 0.94533 0.0
C2797 C 0.74073 0.03255 0.95698 0.0
C2798 C 0.72023 0.02155 0.96349 0.0
C2799 C 0.64786 0.94392 0.04294 0.0
C2800 C 0.66575 0.96157 0.03698 0.0
C2801 C 0.64851 0.92882 0.05414 0.0
C2802 C 0.66705 0.9307 0.05964 0.0
H2803 H 0.63327 0.94183 0.03906 0.0
H2804 H 0.63435 0.91541 0.05835 0.0
S2805 S 0.71816 0.97312 0.04575 0.0
N2806 N 0.70252 0.97964 0.03639 0.0
N2807 N 0.70372 0.95098 0.05675 0.0
C2808 C 0.68505 0.94804 0.05318 0.0
C2809 C 0.68439 0.96356 0.04211 0.0
C2810 C 0.02618 0.73318 0.05464 0.0
C2811 C 0.03566 0.72355 0.04505 0.0
C2812 C 0.03615 0.7547 0.05724 0.0
C2813 C 0.056 0.76741 0.0504 0.0
H2814 H 0.01053 0.72416 0.05916 0.0
H2815 H 0.02794 0.7615 0.06377 0.0
S2816 S 0.08869 0.74983 0.02734 0.0
N2817 N 0.06697 0.72833 0.03106 0.0
N2818 N 0.08558 0.76878 0.03571 0.0
C2819 C 0.06617 0.75794 0.04218 0.0
C2820 C 0.05607 0.73602 0.03964 0.0
C2821 C 0.29257 0.34729 0.02978 0.0
C2822 C 0.29995 0.33379 0.03009 0.0
C2823 C 0.27384 0.34187 0.03814 0.0
C2824 C 0.2618 0.32282 0.0473 0.0
H2825 H 0.30085 0.36178 0.02219 0.0
H2826 H 0.26837 0.35237 0.03671 0.0
S2827 S 0.27488 0.28261 0.05359 0.0
N2828 N 0.29433 0.30105 0.04162 0.0
N2829 N 0.25904 0.29086 0.05716 0.0
C2830 C 0.2694 0.30957 0.04859 0.0
C2831 C 0.28852 0.3151 0.04011 0.0
C2832 C 0.686 0.64377 0.4007 0.0
C2833 C 0.69965 0.66761 0.38719 0.0
C2834 C 0.69881 0.63752 0.41965 0.0
C2835 C 0.72694 0.65492 0.42057 0.0
H2836 H 0.67013 0.63304 0.39727 0.0
H2837 H 0.69131 0.62258 0.42641 0.0
S2838 S 0.76037 0.71268 0.395 0.0
N2839 N 0.73755 0.70439 0.38393 0.0
N2840 N 0.75968 0.6961 0.41197 0.0
C2841 C 0.73984 0.68176 0.41141 0.0
C2842 C 0.72589 0.68646 0.39307 0.0
C2843 C 0.37902 0.05318 0.39955 0.0
C2844 C 0.35222 0.03995 0.3933 0.0
C2845 C 0.39077 0.0761 0.41621 0.0
C2846 C 0.37417 0.08693 0.4216 0.0
H2847 H 0.3882 0.04758 0.39292 0.0
H2848 H 0.40704 0.08525 0.41837 0.0
S2849 S 0.31152 0.05657 0.41338 0.0
N2850 N 0.31624 0.03997 0.4003 0.0
N2851 N 0.33244 0.07613 0.42514 0.0
C2852 C 0.34603 0.0707 0.42043 0.0
C2853 C 0.33612 0.04837 0.40412 0.0
C2854 C 0.9568 0.32153 0.37737 0.0
C2855 C 0.96501 0.31157 0.36599 0.0
C2856 C 0.9372 0.3104 0.38517 0.0
C2857 C 0.92501 0.28882 0.38204 0.0
H2858 H 0.96539 0.33814 0.37992 0.0
H2859 H 0.93134 0.31883 0.39334 0.0
S2860 S 0.93938 0.25525 0.35348 0.0
N2861 N 0.95946 0.2787 0.35231 0.0
N2862 N 0.92263 0.25792 0.36674 0.0
C2863 C 0.93314 0.27862 0.37093 0.0
C2864 C 0.95313 0.28994 0.36304 0.0
C2865 C 0.00766 0.37819 0.29023 0.0
C2866 C 0.02266 0.38252 0.30508 0.0
C2867 C 0.00938 0.39355 0.27756 0.0
C2868 C 0.02608 0.41391 0.27935 0.0
H2869 H 0.9944 0.36284 0.28841 0.0
H2870 H 0.99754 0.38945 0.26624 0.0
S2871 S 0.07022 0.433 0.31479 0.0
N2872 N 0.05528 0.40853 0.32015 0.0
N2873 N 0.05847 0.43725 0.29633 0.0
C2874 C 0.0414 0.41831 0.2938 0.0
C2875 C 0.03967 0.4027 0.3067 0.0
C2876 C 0.62407 0.61929 0.30937 0.0
C2877 C 0.64536 0.63086 0.30903 0.0
C2878 C 0.61307 0.59916 0.30092 0.0
C2879 C 0.62285 0.58987 0.29129 0.0
H2880 H 0.61577 0.6254 0.31714 0.0
H2881 H 0.5968 0.59059 0.30262 0.0
S2882 S 0.67822 0.61408 0.28478 0.0
N2883 N 0.67579 0.63198 0.29724 0.0
N2884 N 0.65501 0.59413 0.28104 0.0
C2885 C 0.64407 0.60161 0.28996 0.0
C2886 C 0.65534 0.62212 0.29877 0.0
C2887 C 0.38051 0.01816 0.30763 0.0
C2888 C 0.36686 0.99901 0.31589 0.0
C2889 C 0.39817 0.02159 0.29812 0.0
C2890 C 0.40283 0.00597 0.29622 0.0
H2891 H 0.37812 0.031 0.30941 0.0
H2892 H 0.40871 0.03693 0.29299 0.0
S2893 S 0.37108 0.95236 0.31331 0.0
N2894 N 0.35838 0.96363 0.32005 0.0
N2895 N 0.39165 0.97015 0.30213 0.0
C2896 C 0.38877 0.98638 0.30337 0.0
C2897 C 0.37075 0.98288 0.31315 0.0
C2898 C 0.60007 0.95336 0.29981 0.0
C2899 C 0.62265 0.97898 0.30108 0.0
C2900 C 0.58029 0.9467 0.28089 0.0
C2901 C 0.58332 0.96906 0.26664 0.0
H2902 H 0.59823 0.94206 0.31059 0.0
H2903 H 0.56601 0.9322 0.28117 0.0
S2904 S 0.63567 0.02719 0.26362 0.0
N2905 N 0.64273 0.01752 0.28253 0.0
N2906 N 0.61275 0.00979 0.25336 0.0
C2907 C 0.60835 0.99307 0.26379 0.0
C2908 C 0.62687 0.99809 0.28286 0.0
C2909 C 0.97646 0.61885 0.29761 0.0
C2910 C 0.99655 0.63176 0.30475 0.0
C2911 C 0.96813 0.59753 0.29452 0.0
C2912 C 0.97953 0.58833 0.29863 0.0
H2913 H 0.9667 0.625 0.29558 0.0
H2914 H 0.95233 0.58801 0.28994 0.0
S2915 S 0.03401 0.61593 0.31346 0.0
N2916 N 0.02857 0.63427 0.31257 0.0
N2917 N 0.01277 0.59419 0.30726 0.0
C2918 C 1.00013 0.60132 0.30398 0.0
C2919 C 0.00867 0.62304 0.3069 0.0
C2920 C 0.38399 0.38539 0.31528 0.0
C2921 C 0.37173 0.36407 0.3107 0.0
C2922 C 0.40403 0.39667 0.30882 0.0
C2923 C 0.41259 0.38715 0.2973 0.0
H2924 H 0.37839 0.39334 0.32471 0.0
H2925 H 0.41314 0.41285 0.3135 0.0
S2926 S 0.38635 0.33212 0.2795 0.0
N2927 N 0.36914 0.33415 0.29259 0.0
N2928 N 0.40687 0.35541 0.28046 0.0
C2929 C 0.4002 0.36605 0.29172 0.0
C2930 C 0.37976 0.35453 0.29835 0.0
C2931 C 0.34493 0.29975 0.38008 0.0
C2932 C 0.32605 0.2952 0.37217 0.0
C2933 C 0.34741 0.2844 0.38844 0.0
C2934 C 0.33098 0.264 0.38967 0.0
H2935 H 0.35814 0.31508 0.37904 0.0
H2936 H 0.36242 0.28846 0.3935 0.0
S2937 S 0.2782 0.2443 0.37198 0.0
N2938 N 0.29051 0.26897 0.36669 0.0
N2939 N 0.29512 0.24022 0.38262 0.0
C2940 C 0.31192 0.25943 0.38233 0.0
C2941 C 0.30944 0.27499 0.37362 0.0
C2942 C 0.66871 0.04575 0.38665 0.0
C2943 C 0.68043 0.04266 0.37218 0.0
C2944 C 0.67643 0.0647 0.39757 0.0
C2945 C 0.69614 0.08151 0.39415 0.0
H2946 H 0.65351 0.03335 0.38978 0.0
H2947 H 0.66671 0.06587 0.40872 0.0
S2948 S 0.73266 0.08152 0.35724 0.0
N2949 N 0.71258 0.05801 0.35472 0.0
N2950 N 0.72689 0.09368 0.37483 0.0
C2951 C 0.70781 0.07857 0.37943 0.0
C2952 C 0.70007 0.05921 0.36858 0.0
C2953 C 0.95296 0.65203 0.3723 0.0
C2954 C 0.96557 0.67158 0.36425 0.0
C2955 C 0.93339 0.64589 0.37883 0.0
C2956 C 0.92572 0.65911 0.37765 0.0
H2957 H 0.95782 0.64096 0.37266 0.0
H2958 H 0.92387 0.63036 0.38403 0.0
S2959 S 0.95353 0.71283 0.36013 0.0
N2960 N 0.96966 0.70486 0.35733 0.0
N2961 N 0.93289 0.69325 0.36941 0.0
C2962 C 0.9386 0.67911 0.37073 0.0
C2963 C 0.95853 0.68538 0.36413 0.0
C2964 C 0.40112 0.0443 0.72603 0.0
C2965 C 0.37474 0.02358 0.72534 0.0
C2966 C 0.4178 0.04701 0.74696 0.0
C2967 C 0.40674 0.02474 0.76435 0.0
H2968 H 0.40702 0.05497 0.71378 0.0
H2969 H 0.43387 0.05821 0.74678 0.0
S2970 S 0.34594 0.97873 0.76817 0.0
N2971 N 0.34484 0.98987 0.74675 0.0
N2972 N 0.36921 0.99127 0.77925 0.0
C2973 C 0.37898 0.00729 0.76702 0.0
C2974 C 0.36391 0.00597 0.74589 0.0
C2975 C 0.00615 0.37299 0.72163 0.0
C2976 C 0.9887 0.36136 0.70918 0.0
C2977 C 0.01034 0.39147 0.73158 0.0
C2978 C 0.99709 0.39889 0.72978 0.0
H2979 H 0.01729 0.36845 0.72283 0.0
H2980 H 0.02452 0.40046 0.74006 0.0
S2981 S 0.94803 0.37283 0.70117 0.0
N2982 N 0.9571 0.35752 0.69715 0.0
N2983 N 0.96492 0.39224 0.71603 0.0
C2984 C 0.97893 0.38672 0.71845 0.0
C2985 C 0.97473 0.36794 0.70817 0.0
C2986 C 0.61416 0.62162 0.70478 0.0
C2987 C 0.62599 0.64333 0.70573 0.0
C2988 C 0.59537 0.61108 0.7143 0.0
C2989 C 0.5878 0.6218 0.72544 0.0
H2990 H 0.619 0.61267 0.69589 0.0
H2991 H 0.58639 0.59442 0.71234 0.0
S2992 S 0.61343 0.67863 0.73372 0.0
N2993 N 0.62924 0.67515 0.71961 0.0
N2994 N 0.59394 0.65531 0.73746 0.0
C2995 C 0.59983 0.64347 0.72715 0.0
C2996 C 0.61894 0.65422 0.7174 0.0
C2997 C 0.669 0.72147 0.63804 0.0
C2998 C 0.6594 0.70004 0.63395 0.0
C2999 C 0.66116 0.73294 0.6301 0.0
C3000 C 0.64357 0.72346 0.61755 0.0
H3001 H 0.6819 0.72924 0.64848 0.0
H3002 H 0.66832 0.74914 0.63465 0.0
S3003 S 0.61423 0.66824 0.60024 0.0
N3004 N 0.63252 0.67019 0.61494 0.0
N3005 N 0.61778 0.69167 0.60015 0.0
C3006 C 0.63461 0.70229 0.61234 0.0
C3007 C 0.64256 0.69063 0.62043 0.0
C3008 C 0.29373 0.95163 0.65519 0.0
C3009 C 0.31499 0.96291 0.65429 0.0
C3010 C 0.28228 0.93139 0.64709 0.0
C3011 C 0.29157 0.92167 0.63725 0.0
H3012 H 0.28577 0.95828 0.66268 0.0
H3013 H 0.26602 0.92322 0.64879 0.0
S3014 S 0.34677 0.9444 0.63079 0.0
N3015 N 0.34494 0.96284 0.6429 0.0
N3016 N 0.32333 0.92479 0.62732 0.0
C3017 C 0.31282 0.93281 0.63612 0.0
C3018 C 0.32453 0.95343 0.64462 0.0
C3019 C 0.04843 0.33195 0.65006 0.0
C3020 C 0.03819 0.34266 0.64778 0.0
C3021 C 0.0688 0.3408 0.64477 0.0
C3022 C 0.07969 0.36063 0.6368 0.0
H3023 H 0.04087 0.31685 0.65654 0.0
H3024 H 0.07622 0.33224 0.64738 0.0
S3025 S 0.05979 0.39491 0.62723 0.0
N3026 N 0.0404 0.37401 0.63642 0.0
N3027 N 0.07864 0.39059 0.62664 0.0
C3028 C 0.06952 0.37133 0.63406 0.0
C3029 C 0.04879 0.36233 0.63942 0.0
C3030 C 0.28047 0.32377 0.65191 0.0
C3031 C 0.30148 0.33778 0.65135 0.0
C3032 C 0.2667 0.32902 0.64484 0.0
C3033 C 0.27334 0.34843 0.63677 0.0
H3034 H 0.27454 0.30895 0.65873 0.0
H3035 H 0.25067 0.31807 0.64643 0.0
S3036 S 0.32676 0.39018 0.63047 0.0
N3037 N 0.3283 0.37149 0.64082 0.0
N3038 N 0.30234 0.38138 0.62773 0.0
C3039 C 0.29431 0.36225 0.63525 0.0
C3040 C 0.30837 0.35688 0.6424 0.0
C3041 C 0.65439 0.94849 0.64046 0.0
C3042 C 0.64797 0.96134 0.63277 0.0
C3043 C 0.64203 0.92699 0.63879 0.0
C3044 C 0.62291 0.91741 0.62904 0.0
H3045 H 0.66858 0.95501 0.64891 0.0
H3046 H 0.64719 0.91779 0.6459 0.0
S3047 S 0.60045 0.94394 0.60329 0.0
N3048 N 0.62219 0.9629 0.61302 0.0
N3049 N 0.59915 0.92234 0.6094 0.0
C3050 C 0.61698 0.93002 0.61984 0.0
C3051 C 0.62948 0.952 0.62178 0.0
C3052 C 0.05036 0.68598 0.63834 0.0
C3053 C 0.04156 0.69665 0.64708 0.0
C3054 C 0.07127 0.69603 0.63514 0.0
C3055 C 0.08418 0.71707 0.64076 0.0
H3056 H 0.04123 0.66953 0.63483 0.0
H3057 H 0.07752 0.68706 0.62908 0.0
S3058 S 0.06819 0.75277 0.66079 0.0
N3059 N 0.047 0.73009 0.65858 0.0
N3060 N 0.08627 0.74879 0.653 0.0
C3061 C 0.07535 0.72823 0.64804 0.0
C3062 C 0.05405 0.71807 0.6511 0.0
C3063 C 0.99946 0.62571 0.71288 0.0
C3064 C 0.98287 0.62415 0.70223 0.0
C3065 C 0.99777 0.60877 0.72276 0.0
C3066 C 0.97928 0.58974 0.72277 0.0
H3067 H 0.01407 0.63992 0.71304 0.0
H3068 H 0.01115 0.61049 0.73009 0.0
S3069 S 0.93115 0.57778 0.69763 0.0
N3070 N 0.94726 0.60213 0.69265 0.0
N3071 N 0.94406 0.57045 0.71136 0.0
C3072 C 0.96251 0.58814 0.71249 0.0
C3073 C 0.96428 0.60529 0.70227 0.0
C3074 C 0.38488 0.39348 0.70651 0.0
C3075 C 0.36511 0.38057 0.71353 0.0
C3076 C 0.39419 0.41499 0.70801 0.0
C3077 C 0.38426 0.42445 0.71687 0.0
H3078 H 0.39274 0.387 0.69851 0.0
H3079 H 0.4089 0.42428 0.70125 0.0
S3080 S 0.33384 0.3977 0.74079 0.0
N3081 N 0.33697 0.37885 0.73205 0.0
N3082 N 0.35459 0.41934 0.73494 0.0
C3083 C 0.36523 0.41178 0.72551 0.0
C3084 C 0.35567 0.38983 0.7239 0.0
C3085 C 0.63548 0.03535 0.69437 0.0
C3086 C 0.63599 0.01708 0.69262 0.0
C3087 C 0.61983 0.03593 0.70458 0.0
C3088 C 0.60402 0.01828 0.71347 0.0
H3089 H 0.64703 0.04925 0.6874 0.0
H3090 H 0.61978 0.0502 0.705 0.0
S3091 S 0.59821 0.96648 0.7131 0.0
N3092 N 0.61943 0.98089 0.70087 0.0
N3093 N 0.58979 0.98189 0.71971 0.0
C3094 C 0.60447 0.99994 0.71208 0.0
C3095 C 0.62055 0.9994 0.70183 0.0
loop_
_geom_bond_atom_site_label_1
_geom_bond_atom_site_label_2
_geom_bond_distance
_geom_bond_site_symmetry_2
_ccdc_geom_bond_type
Co0 O1 2.216 . S
Co0 O2 2.091 . S
Co0 O4 2.004 1_554 S
Co0 O10 2.021 . S
Co0 O12 2.137 1_454 S
Co0 O13 2.238 1_454 S
O1 Co0 2.216 . S
O1 C8 1.247 . S
O2 Co0 2.091 . S
O2 C8 1.261 . S
C3 O12 1.247 . S
C3 O13 1.291 . S
O4 Co0 2.004 1_556 S
O4 C9 1.259 . S
Co5 O6 2.061 . S
Co5 O11 2.052 1_556 S
Co5 O13 2.137 . S
O6 Co5 2.061 . S
O6 C9 1.235 1_655 S
C7 O10 1.238 1_655 S
C7 O11 1.241 . S
C8 O1 1.247 . S
C8 O2 1.261 . S
C9 O4 1.259 . S
C9 O6 1.235 1_455 S
O10 Co0 2.021 . S
O10 C7 1.238 1_455 S
O11 Co5 2.052 1_554 S
O11 C7 1.241 . S
O12 Co0 2.137 1_656 S
O12 C3 1.247 . S
O13 Co0 2.238 1_656 S
O13 C3 1.291 . S
O13 Co5 2.137 . S
Co14 O15 2.216 1_554 S
Co14 O16 2.091 . S
Co14 O18 2.004 . S
Co14 O24 2.021 1_554 S
Co14 O26 2.137 . S
Co14 O27 2.244 . S
O15 Co14 2.216 1_556 S
O15 C22 1.247 . S
O16 Co14 2.091 . S
O16 C22 1.261 1_554 S
C17 O26 1.247 . S
C17 O27 1.272 . S
O18 Co14 2.004 . S
O18 C23 1.259 . S
Co19 O20 2.061 . S
Co19 O25 2.094 . S
Co19 O27 2.135 . S
O20 Co19 2.061 . S
O20 C23 1.235 . S
C21 O24 1.238 . S
C21 O25 1.220 1_556 S
C22 O15 1.247 . S
C22 O16 1.261 1_556 S
C23 O18 1.259 . S
C23 O20 1.235 . S
O24 Co14 2.021 1_556 S
O24 C21 1.238 . S
O25 Co19 2.094 . S
O25 C21 1.220 1_554 S
O26 Co14 2.137 . S
O26 C17 1.247 . S
O27 Co14 2.244 . S
O27 C17 1.272 . S
O27 Co19 2.135 . S
Co28 O29 2.216 1_554 S
Co28 O30 2.091 . S
Co28 O32 2.004 . S
Co28 O38 2.021 1_554 S
Co28 O40 2.137 . S
Co28 O41 2.244 1_545 S
O29 Co28 2.216 1_556 S
O29 C36 1.247 . S
O30 Co28 2.091 . S
O30 C36 1.261 1_554 S
C31 O40 1.247 1_565 S
C31 O41 1.272 . S
O32 Co28 2.004 . S
O32 C37 1.259 . S
Co33 O34 2.061 . S
Co33 O39 2.052 1_554 S
Co33 O41 2.135 . S
O34 Co33 2.061 . S
O34 C37 1.235 1_565 S
C35 O38 1.238 1_565 S
C35 O39 1.241 . S
C36 O29 1.247 . S
C36 O30 1.261 1_556 S
C37 O32 1.259 . S
C37 O34 1.235 1_545 S
O38 Co28 2.021 1_556 S
O38 C35 1.238 1_545 S
O39 Co33 2.052 1_556 S
O39 C35 1.241 . S
O40 Co28 2.137 . S
O40 C31 1.247 1_545 S
O41 Co28 2.244 1_565 S
O41 C31 1.272 . S
O41 Co33 2.135 . S
Co42 O43 2.216 1_554 S
Co42 O44 2.091 . S
Co42 O46 2.004 . S
Co42 O52 2.021 1_554 S
Co42 O54 2.137 1_655 S
Co42 O55 2.244 1_655 S
O43 Co42 2.216 1_556 S
O43 C50 1.247 . S
O44 Co42 2.091 . S
O44 C50 1.261 1_554 S
C45 O54 1.247 . S
C45 O55 1.272 . S
O46 Co42 2.004 . S
O46 C51 1.259 . S
Co47 O48 2.061 . S
Co47 O53 2.052 1_554 S
Co47 O55 2.135 . S
O48 Co47 2.061 . S
O48 C51 1.235 1_455 S
C49 O52 1.238 1_455 S
C49 O53 1.241 . S
C50 O43 1.247 . S
C50 O44 1.261 1_556 S
C51 O46 1.259 . S
C51 O48 1.235 1_655 S
O52 Co42 2.021 1_556 S
O52 C49 1.238 1_655 S
O53 Co47 2.052 1_556 S
O53 C49 1.241 . S
O54 Co42 2.137 1_455 S
O54 C45 1.247 . S
O55 Co42 2.244 1_455 S
O55 C45 1.272 . S
O55 Co47 2.135 . S
Co56 O57 2.216 . S
Co56 O58 2.091 . S
Co56 O60 2.004 1_554 S
Co56 O66 2.021 . S
Co56 O68 2.137 1_554 S
Co56 O69 2.244 1_554 S
O57 Co56 2.216 . S
O57 C64 1.247 . S
O58 Co56 2.091 . S
O58 C64 1.261 . S
C59 O68 1.247 . S
C59 O69 1.272 . S
O60 Co56 2.004 1_556 S
O60 C65 1.259 . S
Co61 O62 2.061 . S
Co61 O67 2.052 1_556 S
Co61 O69 2.135 . S
O62 Co61 2.061 . S
O62 C65 1.235 . S
C63 O66 1.238 . S
C63 O67 1.241 . S
C64 O57 1.247 . S
C64 O58 1.261 . S
C65 O60 1.259 . S
C65 O62 1.235 . S
O66 Co56 2.021 . S
O66 C63 1.238 . S
O67 Co61 2.052 1_554 S
O67 C63 1.241 . S
O68 Co56 2.137 1_556 S
O68 C59 1.247 . S
O69 Co56 2.244 1_556 S
O69 C59 1.272 . S
O69 Co61 2.135 . S
Co70 O71 2.216 . S
Co70 O72 2.091 . S
Co70 O74 2.004 1_554 S
Co70 O80 2.021 . S
Co70 O82 2.137 1_564 S
Co70 O83 2.244 1_565 S
O71 Co70 2.216 . S
O71 C78 1.247 . S
O72 Co70 2.091 . S
O72 C78 1.261 . S
C73 O82 1.247 . S
C73 O83 1.272 1_556 S
O74 Co70 2.004 1_556 S
O74 C79 1.259 . S
Co75 O76 2.061 1_554 S
Co75 O81 2.052 . S
Co75 O83 2.135 . S
O76 Co75 2.061 1_556 S
O76 C79 1.235 1_545 S
C77 O80 1.238 1_545 S
C77 O81 1.241 . S
C78 O71 1.247 . S
C78 O72 1.261 . S
C79 O74 1.259 . S
C79 O76 1.235 1_565 S
O80 Co70 2.021 . S
O80 C77 1.238 1_565 S
O81 Co75 2.052 . S
O81 C77 1.241 . S
O82 Co70 2.137 1_546 S
O82 C73 1.247 . S
O83 Co70 2.244 1_545 S
O83 C73 1.272 1_554 S
O83 Co75 2.135 . S
Co84 O85 2.216 . S
Co84 O86 2.091 . S
Co84 O88 2.004 . S
Co84 O94 2.021 . S
Co84 O96 2.137 . S
Co84 O97 2.244 . S
O85 Co84 2.216 . S
O85 C92 1.247 . S
O86 Co84 2.091 . S
O86 C92 1.261 . S
C87 O96 1.247 . S
C87 O97 1.272 . S
O88 Co84 2.004 . S
O88 C93 1.259 . S
Co89 O90 2.061 . S
Co89 O95 2.052 . S
Co89 O97 2.135 . S
O90 Co89 2.061 . S
O90 C93 1.235 . S
C91 O94 1.238 . S
C91 O95 1.241 . S
C92 O85 1.247 . S
C92 O86 1.261 . S
C93 O88 1.259 . S
C93 O90 1.235 . S
O94 Co84 2.021 . S
O94 C91 1.238 . S
O95 Co89 2.052 . S
O95 C91 1.241 . S
O96 Co84 2.137 . S
O96 C87 1.247 . S
O97 Co84 2.244 . S
O97 C87 1.272 . S
O97 Co89 2.135 . S
Co98 O99 2.207 1_565 S
Co98 O100 2.091 . S
Co98 O102 2.004 . S
Co98 O108 2.021 . S
Co98 O110 2.137 1_565 S
Co98 O111 2.244 1_565 S
O99 Co98 2.207 1_545 S
O99 C106 1.219 1_545 S
O100 Co98 2.091 . S
O100 C106 1.261 . S
C101 O110 1.247 . S
C101 O111 1.272 . S
O102 Co98 2.004 . S
O102 C107 1.259 . S
Co103 O104 2.061 . S
Co103 O109 2.052 . S
Co103 O111 2.135 1_565 S
O104 Co103 2.061 . S
O104 C107 1.235 . S
C105 O108 1.238 . S
C105 O109 1.241 . S
C106 O99 1.219 1_565 S
C106 O100 1.261 . S
C107 O102 1.259 . S
C107 O104 1.235 . S
O108 Co98 2.021 . S
O108 C105 1.238 . S
O109 Co103 2.052 . S
O109 C105 1.241 . S
O110 Co98 2.137 1_545 S
O110 C101 1.247 . S
O111 Co98 2.244 1_545 S
O111 C101 1.272 . S
O111 Co103 2.135 1_545 S
Co112 O113 2.216 . S
Co112 O114 2.091 . S
Co112 O116 2.004 . S
Co112 O122 2.021 . S
Co112 O124 2.102 1_455 S
Co112 O125 2.244 . S
O113 Co112 2.216 . S
O113 C120 1.247 . S
O114 Co112 2.091 . S
O114 C120 1.261 . S
C115 O124 1.238 . S
C115 O125 1.272 1_655 S
O116 Co112 2.004 . S
O116 C121 1.259 . S
Co117 O118 2.061 . S
Co117 O123 2.052 . S
Co117 O125 2.135 . S
O118 Co117 2.061 . S
O118 C121 1.235 . S
C119 O122 1.238 . S
C119 O123 1.241 . S
C120 O113 1.247 . S
C120 O114 1.261 . S
C121 O116 1.259 . S
C121 O118 1.235 . S
O122 Co112 2.021 . S
O122 C119 1.238 . S
O123 Co117 2.052 . S
O123 C119 1.241 . S
O124 Co112 2.102 1_655 S
O124 C115 1.238 . S
O125 Co112 2.244 . S
O125 C115 1.272 1_455 S
O125 Co117 2.135 . S
Co126 O127 2.216 1_565 S
Co126 O128 2.091 . S
Co126 O130 2.004 . S
Co126 O136 2.021 . S
Co126 O138 2.137 1_565 S
Co126 O139 2.244 1_565 S
O127 Co126 2.216 1_545 S
O127 C134 1.247 1_545 S
O128 Co126 2.091 . S
O128 C134 1.261 . S
C129 O138 1.247 . S
C129 O139 1.272 . S
O130 Co126 2.004 . S
O130 C135 1.259 . S
Co131 O132 2.061 . S
Co131 O137 2.052 . S
Co131 O139 2.135 1_565 S
O132 Co131 2.061 . S
O132 C135 1.235 . S
C133 O136 1.238 . S
C133 O137 1.241 . S
C134 O127 1.247 1_565 S
C134 O128 1.261 . S
C135 O130 1.259 . S
C135 O132 1.235 . S
O136 Co126 2.021 . S
O136 C133 1.238 . S
O137 Co131 2.052 . S
O137 C133 1.241 . S
O138 Co126 2.137 1_545 S
O138 C129 1.247 . S
O139 Co126 2.244 1_545 S
O139 C129 1.272 . S
O139 Co131 2.135 1_545 S
Co140 O141 2.216 1_455 S
Co140 O142 2.091 1_455 S
Co140 O144 2.004 . S
Co140 O150 2.021 . S
Co140 O152 2.137 1_455 S
Co140 O153 2.244 . S
O141 Co140 2.216 1_655 S
O141 C148 1.247 . S
O142 Co140 2.091 1_655 S
O142 C148 1.261 . S
C143 O152 1.247 1_455 S
C143 O153 1.272 . S
O144 Co140 2.004 . S
O144 C149 1.259 . S
Co145 O146 2.061 . S
Co145 O151 2.052 . S
Co145 O153 2.135 . S
O146 Co145 2.061 . S
O146 C149 1.235 . S
C147 O150 1.238 . S
C147 O151 1.241 . S
C148 O141 1.247 . S
C148 O142 1.261 . S
C149 O144 1.259 . S
C149 O146 1.235 . S
O150 Co140 2.021 . S
O150 C147 1.238 . S
O151 Co145 2.052 . S
O151 C147 1.241 . S
O152 Co140 2.137 1_655 S
O152 C143 1.247 1_655 S
O153 Co140 2.244 . S
O153 C143 1.272 . S
O153 Co145 2.135 . S
Co154 O155 2.216 . S
Co154 O156 2.091 . S
Co154 O158 2.004 . S
Co154 O164 2.021 . S
Co154 O166 2.137 . S
Co154 O167 2.244 . S
O155 Co154 2.216 . S
O155 C162 1.247 . S
O156 Co154 2.091 . S
O156 C162 1.261 . S
C157 O166 1.247 . S
C157 O167 1.272 . S
O158 Co154 2.004 . S
O158 C163 1.259 . S
Co159 O160 2.061 . S
Co159 O165 2.052 . S
Co159 O167 2.135 . S
O160 Co159 2.061 . S
O160 C163 1.235 . S
C161 O164 1.238 . S
C161 O165 1.241 . S
C162 O155 1.247 . S
C162 O156 1.261 . S
C163 O158 1.259 . S
C163 O160 1.235 . S
O164 Co154 2.021 . S
O164 C161 1.238 . S
O165 Co159 2.052 . S
O165 C161 1.241 . S
O166 Co154 2.137 . S
O166 C157 1.247 . S
O167 Co154 2.244 . S
O167 C157 1.272 . S
O167 Co159 2.135 . S
Co168 O169 2.216 . S
Co168 O170 2.091 . S
Co168 O172 2.004 . S
Co168 O178 2.021 . S
Co168 O180 2.137 1_545 S
Co168 O181 2.244 1_545 S
O169 Co168 2.216 . S
O169 C176 1.247 . S
O170 Co168 2.091 . S
O170 C176 1.261 . S
C171 O180 1.247 . S
C171 O181 1.272 . S
O172 Co168 2.004 . S
O172 C177 1.259 . S
Co173 O174 2.061 . S
Co173 O179 2.052 . S
Co173 O181 2.135 1_545 S
O174 Co173 2.061 . S
O174 C177 1.235 . S
C175 O178 1.238 . S
C175 O179 1.241 . S
C176 O169 1.247 . S
C176 O170 1.261 . S
C177 O172 1.259 . S
C177 O174 1.235 . S
O178 Co168 2.021 . S
O178 C175 1.238 . S
O179 Co173 2.052 . S
O179 C175 1.241 . S
O180 Co168 2.137 1_565 S
O180 C171 1.247 . S
O181 Co168 2.244 1_565 S
O181 C171 1.272 . S
O181 Co173 2.135 1_565 S
Co182 O183 2.216 1_655 S
Co182 O184 2.091 1_655 S
Co182 O186 2.004 . S
Co182 O192 2.021 . S
Co182 O194 2.137 1_655 S
Co182 O195 2.244 . S
O183 Co182 2.216 1_455 S
O183 C190 1.247 . S
O184 Co182 2.091 1_455 S
O184 C190 1.261 . S
C185 O194 1.247 1_655 S
C185 O195 1.272 . S
O186 Co182 2.004 . S
O186 C191 1.259 . S
Co187 O188 2.061 . S
Co187 O193 2.052 . S
Co187 O195 2.135 . S
O188 Co187 2.061 . S
O188 C191 1.235 . S
C189 O192 1.238 . S
C189 O193 1.241 . S
C190 O183 1.247 . S
C190 O184 1.261 . S
C191 O186 1.259 . S
C191 O188 1.235 . S
O192 Co182 2.021 . S
O192 C189 1.238 . S
O193 Co187 2.052 . S
O193 C189 1.241 . S
O194 Co182 2.137 1_455 S
O194 C185 1.247 1_455 S
O195 Co182 2.244 . S
O195 C185 1.272 . S
O195 Co187 2.135 . S
Co196 O197 2.216 . S
Co196 O198 2.091 . S
Co196 O200 2.004 . S
Co196 O206 2.021 . S
Co196 O208 2.137 . S
Co196 O209 2.244 . S
O197 Co196 2.216 . S
O197 C204 1.247 . S
O198 Co196 2.091 . S
O198 C204 1.261 . S
C199 O208 1.247 . S
C199 O209 1.272 . S
O200 Co196 2.004 . S
O200 C205 1.259 . S
Co201 O202 2.061 . S
Co201 O207 2.052 . S
Co201 O209 2.135 . S
O202 Co201 2.061 . S
O202 C205 1.235 . S
C203 O206 1.238 . S
C203 O207 1.241 . S
C204 O197 1.247 . S
C204 O198 1.261 . S
C205 O200 1.259 . S
C205 O202 1.235 . S
O206 Co196 2.021 . S
O206 C203 1.238 . S
O207 Co201 2.052 . S
O207 C203 1.241 . S
O208 Co196 2.137 . S
O208 C199 1.247 . S
O209 Co196 2.244 . S
O209 C199 1.272 . S
O209 Co201 2.135 . S
Co210 O211 2.216 . S
Co210 O212 2.091 . S
Co210 O214 2.004 . S
Co210 O220 2.021 . S
Co210 O222 2.137 . S
Co210 O223 2.244 . S
O211 Co210 2.216 . S
O211 C218 1.247 . S
O212 Co210 2.091 . S
O212 C218 1.261 . S
C213 O222 1.247 . S
C213 O223 1.272 . S
O214 Co210 2.004 . S
O214 C219 1.259 . S
Co215 O216 2.061 . S
Co215 O221 2.052 . S
Co215 O223 2.135 . S
O216 Co215 2.061 . S
O216 C219 1.235 . S
C217 O220 1.238 . S
C217 O221 1.241 . S
C218 O211 1.247 . S
C218 O212 1.261 . S
C219 O214 1.259 . S
C219 O216 1.235 . S
O220 Co210 2.021 . S
O220 C217 1.238 . S
O221 Co215 2.052 . S
O221 C217 1.241 . S
O222 Co210 2.137 . S
O222 C213 1.247 . S
O223 Co210 2.244 . S
O223 C213 1.272 . S
O223 Co215 2.135 . S
Co224 O225 2.216 . S
Co224 O226 2.091 . S
Co224 O228 2.004 . S
Co224 O234 2.021 . S
Co224 O236 2.137 1_545 S
Co224 O237 2.214 1_545 S
O225 Co224 2.216 . S
O225 C232 1.247 . S
O226 Co224 2.091 . S
O226 C232 1.261 . S
C227 O236 1.247 . S
C227 O237 1.274 . S
O228 Co224 2.004 . S
O228 C233 1.259 . S
Co229 O230 2.061 . S
Co229 O235 2.052 . S
Co229 O237 2.133 1_545 S
O230 Co229 2.061 . S
O230 C233 1.235 . S
C231 O234 1.238 . S
C231 O235 1.241 . S
C232 O225 1.247 . S
C232 O226 1.261 . S
C233 O228 1.259 . S
C233 O230 1.235 . S
O234 Co224 2.021 . S
O234 C231 1.238 . S
O235 Co229 2.052 . S
O235 C231 1.241 . S
O236 Co224 2.137 1_565 S
O236 C227 1.247 . S
O237 Co224 2.214 1_565 S
O237 C227 1.274 . S
O237 Co229 2.133 1_565 S
Co238 O239 2.216 . S
Co238 O240 2.091 . S
Co238 O242 2.004 . S
Co238 O248 2.021 . S
Co238 O250 2.137 1_655 S
Co238 O251 2.244 . S
O239 Co238 2.216 . S
O239 C246 1.247 . S
O240 Co238 2.091 . S
O240 C246 1.261 . S
C241 O250 1.247 . S
C241 O251 1.272 1_455 S
O242 Co238 2.004 . S
O242 C247 1.259 . S
Co243 O244 2.061 . S
Co243 O249 2.052 . S
Co243 O251 2.135 . S
O244 Co243 2.061 . S
O244 C247 1.235 . S
C245 O248 1.238 . S
C245 O249 1.241 . S
C246 O239 1.247 . S
C246 O240 1.261 . S
C247 O242 1.259 . S
C247 O244 1.235 . S
O248 Co238 2.021 . S
O248 C245 1.238 . S
O249 Co243 2.052 . S
O249 C245 1.241 . S
O250 Co238 2.137 1_455 S
O250 C241 1.247 . S
O251 Co238 2.244 . S
O251 C241 1.272 1_655 S
O251 Co243 2.135 . S
C252 C253 1.560 . S
C252 H313 0.959 . S
C252 H314 0.959 . S
C252 H315 0.960 . S
C253 C252 1.560 . S
C253 O308 1.426 . S
C253 H312 0.980 . S
C254 C255 1.407 . S
C254 C259 1.418 . S
C254 O308 1.334 . S
C255 C254 1.407 . S
C255 C256 1.360 . S
C255 H316 0.929 . S
C256 C255 1.360 . S
C256 C257 1.401 . S
C256 C260 1.527 . S
C257 C256 1.401 . S
C257 C258 1.405 . S
C257 C290 1.587 . S
C258 C257 1.405 . S
C258 C259 1.332 . S
C258 C261 1.496 . S
C259 C254 1.418 . S
C259 C258 1.332 . S
C259 H317 0.929 . S
C260 C256 1.527 . S
C260 H318 0.959 . S
C260 H319 0.961 . S
C260 H320 0.961 . S
C261 C258 1.496 . S
C261 H321 0.960 . S
C261 H322 0.960 . S
C261 H323 0.961 . S
C262 C263 1.517 . S
C262 H325 0.961 . S
C262 H326 0.960 . S
C262 H327 0.959 . S
C263 C262 1.517 . S
C263 O311 1.468 . S
C263 H324 0.980 . S
C264 C265 1.349 . S
C264 C269 1.367 . S
C264 O311 1.408 . S
C265 C264 1.349 . S
C265 C266 1.407 . S
C265 H328 0.930 . S
C266 C265 1.407 . S
C266 C267 1.449 . S
C266 C270 1.535 . S
C267 C266 1.449 . S
C267 C268 1.384 . S
C267 C292 1.553 . S
C268 C267 1.384 . S
C268 C269 1.364 . S
C268 C271 1.450 . S
C269 C264 1.367 . S
C269 C268 1.364 . S
C269 H329 0.931 . S
C270 C266 1.535 . S
C270 H330 0.959 . S
C270 H331 0.961 . S
C270 H332 0.959 . S
C271 C268 1.450 . S
C271 H333 0.960 . S
C271 H334 0.960 . S
C271 H335 0.960 . S
C272 C273 1.309 . S
C272 C277 1.304 . S
C272 O310 1.435 . S
C273 C272 1.309 . S
C273 C274 1.476 . S
C273 H337 0.930 . S
C274 C273 1.476 . S
C274 C275 1.400 . S
C274 C278 1.567 . S
C275 C274 1.400 . S
C275 C276 1.373 . S
C275 C297 1.432 . S
C276 C275 1.373 . S
C276 C277 1.339 . S
C276 C279 1.530 . S
C277 C272 1.304 . S
C277 C276 1.339 . S
C277 H338 0.930 . S
C278 C274 1.567 . S
C278 H339 0.961 . S
C278 H340 0.960 . S
C278 H341 0.958 . S
C279 C276 1.530 . S
C279 H342 0.961 . S
C279 H343 0.960 . S
C279 H344 0.960 . S
C280 C281 1.530 . S
C280 H346 0.961 . S
C280 H347 0.961 . S
C280 H348 0.959 . S
C281 C280 1.530 . S
C281 O309 1.412 . S
C281 H345 0.980 . S
C282 C283 1.288 . S
C282 C287 1.377 . S
C282 O309 1.393 . S
C283 C282 1.288 . S
C283 C284 1.369 . S
C283 H349 0.932 . S
C284 C283 1.369 . S
C284 C285 1.398 . S
C284 C288 1.527 . S
C285 C284 1.398 . S
C285 C286 1.380 . S
C285 C299 1.497 . S
C286 C285 1.380 . S
C286 C287 1.383 . S
C286 C289 1.603 . S
C287 C282 1.377 . S
C287 C286 1.383 . S
C287 H350 0.929 . S
C288 C284 1.527 . S
C288 H351 0.961 . S
C288 H352 0.959 . S
C288 H353 0.959 . S
C289 C286 1.603 . S
C289 H354 0.960 . S
C289 H355 0.962 . S
C289 H356 0.961 . S
C290 C257 1.587 . S
C290 C291 1.360 . S
C290 C303 1.412 . S
C291 C290 1.360 . S
C291 C292 1.365 . S
C291 H357 0.929 . S
C292 C267 1.553 . S
C292 C291 1.365 . S
C292 C293 1.404 . S
C293 C292 1.404 . S
C293 C294 1.395 . S
C293 C304 1.451 . S
C294 C293 1.395 . S
C294 C295 1.322 . S
C294 H358 0.930 . S
C295 C294 1.322 . S
C295 C296 1.459 . S
C295 H359 0.929 . S
C296 C295 1.459 . S
C296 C297 1.445 . S
C296 C305 1.395 . S
C297 C275 1.432 . S
C297 C296 1.445 . S
C297 C298 1.370 . S
C298 C297 1.370 . S
C298 C299 1.438 . S
C298 H360 0.930 . S
C299 C285 1.497 . S
C299 C298 1.438 . S
C299 C300 1.360 . S
C300 C299 1.360 . S
C300 C301 1.401 . S
C300 C305 1.446 . S
C301 C300 1.401 . S
C301 C302 1.347 . S
C301 H361 0.929 . S
C302 C301 1.347 . S
C302 C303 1.455 . S
C302 H362 0.930 . S
C303 C290 1.412 . S
C303 C302 1.455 . S
C303 C304 1.331 . S
C304 C293 1.451 . S
C304 C303 1.331 . S
C304 C305 1.497 . S
C305 C296 1.395 . S
C305 C300 1.446 . S
C305 C304 1.497 . S
C306 C307 1.582 . S
C306 H363 0.962 . S
C306 H364 0.959 . S
C306 H365 0.958 . S
C307 C306 1.582 . S
C307 O310 1.458 . S
C307 H336 0.980 . S
O308 C253 1.426 . S
O308 C254 1.334 . S
O309 C281 1.412 . S
O309 C282 1.393 . S
O310 C272 1.435 . S
O310 C307 1.458 . S
O311 C263 1.468 . S
O311 C264 1.408 . S
H312 C253 0.980 . S
H313 C252 0.959 . S
H314 C252 0.959 . S
H315 C252 0.960 . S
H316 C255 0.929 . S
H317 C259 0.929 . S
H318 C260 0.959 . S
H319 C260 0.961 . S
H320 C260 0.961 . S
H321 C261 0.960 . S
H322 C261 0.960 . S
H323 C261 0.961 . S
H324 C263 0.980 . S
H325 C262 0.961 . S
H326 C262 0.960 . S
H327 C262 0.959 . S
H328 C265 0.930 . S
H329 C269 0.931 . S
H330 C270 0.959 . S
H331 C270 0.961 . S
H332 C270 0.959 . S
H333 C271 0.960 . S
H334 C271 0.960 . S
H335 C271 0.960 . S
H336 C307 0.980 . S
H337 C273 0.930 . S
H338 C277 0.930 . S
H339 C278 0.961 . S
H340 C278 0.960 . S
H341 C278 0.958 . S
H342 C279 0.961 . S
H343 C279 0.960 . S
H344 C279 0.960 . S
H345 C281 0.980 . S
H346 C280 0.961 . S
H347 C280 0.961 . S
H348 C280 0.959 . S
H349 C283 0.932 . S
H350 C287 0.929 . S
H351 C288 0.961 . S
H352 C288 0.959 . S
H353 C288 0.959 . S
H354 C289 0.960 . S
H355 C289 0.962 . S
H356 C289 0.961 . S
H357 C291 0.929 . S
H358 C294 0.930 . S
H359 C295 0.929 . S
H360 C298 0.930 . S
H361 C301 0.929 . S
H362 C302 0.930 . S
H363 C306 0.962 . S
H364 C306 0.959 . S
H365 C306 0.958 . S
C366 C367 1.560 . S
C366 H427 0.959 . S
C366 H428 0.959 . S
C366 H429 0.960 . S
C367 C366 1.560 . S
C367 O422 1.426 . S
C367 H426 0.980 . S
C368 C369 1.407 . S
C368 C373 1.418 . S
C368 O422 1.334 . S
C369 C368 1.407 . S
C369 C370 1.360 . S
C369 H430 0.929 . S
C370 C369 1.360 . S
C370 C371 1.401 . S
C370 C374 1.527 . S
C371 C370 1.401 . S
C371 C372 1.405 . S
C371 C404 1.587 . S
C372 C371 1.405 . S
C372 C373 1.332 . S
C372 C375 1.496 . S
C373 C368 1.418 . S
C373 C372 1.332 . S
C373 H431 0.929 . S
C374 C370 1.527 . S
C374 H432 0.959 . S
C374 H433 0.961 . S
C374 H434 0.961 . S
C375 C372 1.496 . S
C375 H435 0.960 . S
C375 H436 0.960 . S
C375 H437 0.961 . S
C376 C377 1.517 . S
C376 H439 0.961 . S
C376 H440 0.960 . S
C376 H441 0.959 . S
C377 C376 1.517 . S
C377 O425 1.468 . S
C377 H438 0.980 . S
C378 C379 1.349 . S
C378 C383 1.367 . S
C378 O425 1.408 . S
C379 C378 1.349 . S
C379 C380 1.407 . S
C379 H442 0.930 . S
C380 C379 1.407 . S
C380 C381 1.449 . S
C380 C384 1.535 . S
C381 C380 1.449 . S
C381 C382 1.384 . S
C381 C406 1.553 . S
C382 C381 1.384 . S
C382 C383 1.364 . S
C382 C385 1.450 . S
C383 C378 1.367 . S
C383 C382 1.364 . S
C383 H443 0.931 . S
C384 C380 1.535 . S
C384 H444 0.959 . S
C384 H445 0.961 . S
C384 H446 0.959 . S
C385 C382 1.450 . S
C385 H447 0.960 . S
C385 H448 0.960 . S
C385 H449 0.960 . S
C386 C387 1.309 . S
C386 C391 1.304 . S
C386 O424 1.435 . S
C387 C386 1.309 . S
C387 C388 1.476 . S
C387 H451 0.930 . S
C388 C387 1.476 . S
C388 C389 1.400 . S
C388 C392 1.567 . S
C389 C388 1.400 . S
C389 C390 1.373 . S
C389 C411 1.432 . S
C390 C389 1.373 . S
C390 C391 1.339 . S
C390 C393 1.530 . S
C391 C386 1.304 . S
C391 C390 1.339 . S
C391 H452 0.930 . S
C392 C388 1.567 . S
C392 H453 0.961 . S
C392 H454 0.960 . S
C392 H455 0.958 . S
C393 C390 1.530 . S
C393 H456 0.961 . S
C393 H457 0.960 . S
C393 H458 0.960 . S
C394 C395 1.530 . S
C394 H460 0.961 . S
C394 H461 0.961 . S
C394 H462 0.959 . S
C395 C394 1.530 . S
C395 O423 1.412 . S
C395 H459 0.980 . S
C396 C397 1.288 . S
C396 C401 1.377 . S
C396 O423 1.393 . S
C397 C396 1.288 . S
C397 C398 1.369 . S
C397 H463 0.932 . S
C398 C397 1.369 . S
C398 C399 1.398 . S
C398 C402 1.527 . S
C399 C398 1.398 . S
C399 C400 1.380 . S
C399 C413 1.497 . S
C400 C399 1.380 . S
C400 C401 1.383 . S
C400 C403 1.603 . S
C401 C396 1.377 . S
C401 C400 1.383 . S
C401 H464 0.929 . S
C402 C398 1.527 . S
C402 H465 0.961 . S
C402 H466 0.959 . S
C402 H467 0.959 . S
C403 C400 1.603 . S
C403 H468 0.960 . S
C403 H469 0.962 . S
C403 H470 0.961 . S
C404 C371 1.587 . S
C404 C405 1.360 . S
C404 C417 1.412 . S
C405 C404 1.360 . S
C405 C406 1.365 . S
C405 H471 0.929 . S
C406 C381 1.553 . S
C406 C405 1.365 . S
C406 C407 1.404 . S
C407 C406 1.404 . S
C407 C408 1.395 . S
C407 C418 1.451 . S
C408 C407 1.395 . S
C408 C409 1.322 . S
C408 H472 0.930 . S
C409 C408 1.322 . S
C409 C410 1.459 . S
C409 H473 0.929 . S
C410 C409 1.459 . S
C410 C411 1.445 . S
C410 C419 1.395 . S
C411 C389 1.432 . S
C411 C410 1.445 . S
C411 C412 1.370 . S
C412 C411 1.370 . S
C412 C413 1.438 . S
C412 H474 0.930 . S
C413 C399 1.497 . S
C413 C412 1.438 . S
C413 C414 1.360 . S
C414 C413 1.360 . S
C414 C415 1.401 . S
C414 C419 1.446 . S
C415 C414 1.401 . S
C415 C416 1.347 . S
C415 H475 0.929 . S
C416 C415 1.347 . S
C416 C417 1.455 . S
C416 H476 0.930 . S
C417 C404 1.412 . S
C417 C416 1.455 . S
C417 C418 1.331 . S
C418 C407 1.451 . S
C418 C417 1.331 . S
C418 C419 1.497 . S
C419 C410 1.395 . S
C419 C414 1.446 . S
C419 C418 1.497 . S
C420 C421 1.582 . S
C420 H477 0.962 . S
C420 H478 0.959 . S
C420 H479 0.958 . S
C421 C420 1.582 . S
C421 O424 1.458 . S
C421 H450 0.980 . S
O422 C367 1.426 . S
O422 C368 1.334 . S
O423 C395 1.412 . S
O423 C396 1.393 . S
O424 C386 1.435 . S
O424 C421 1.458 . S
O425 C377 1.468 . S
O425 C378 1.408 . S
H426 C367 0.980 . S
H427 C366 0.959 . S
H428 C366 0.959 . S
H429 C366 0.960 . S
H430 C369 0.929 . S
H431 C373 0.929 . S
H432 C374 0.959 . S
H433 C374 0.961 . S
H434 C374 0.961 . S
H435 C375 0.960 . S
H436 C375 0.960 . S
H437 C375 0.961 . S
H438 C377 0.980 . S
H439 C376 0.961 . S
H440 C376 0.960 . S
H441 C376 0.959 . S
H442 C379 0.930 . S
H443 C383 0.931 . S
H444 C384 0.959 . S
H445 C384 0.961 . S
H446 C384 0.959 . S
H447 C385 0.960 . S
H448 C385 0.960 . S
H449 C385 0.960 . S
H450 C421 0.980 . S
H451 C387 0.930 . S
H452 C391 0.930 . S
H453 C392 0.961 . S
H454 C392 0.960 . S
H455 C392 0.958 . S
H456 C393 0.961 . S
H457 C393 0.960 . S
H458 C393 0.960 . S
H459 C395 0.980 . S
H460 C394 0.961 . S
H461 C394 0.961 . S
H462 C394 0.959 . S
H463 C397 0.932 . S
H464 C401 0.929 . S
H465 C402 0.961 . S
H466 C402 0.959 . S
H467 C402 0.959 . S
H468 C403 0.960 . S
H469 C403 0.962 . S
H470 C403 0.961 . S
H471 C405 0.929 . S
H472 C408 0.930 . S
H473 C409 0.929 . S
H474 C412 0.930 . S
H475 C415 0.929 . S
H476 C416 0.930 . S
H477 C420 0.962 . S
H478 C420 0.959 . S
H479 C420 0.958 . S
C480 C481 1.560 . S
C480 H541 0.959 . S
C480 H542 0.959 . S
C480 H543 0.960 . S
C481 C480 1.560 . S
C481 O536 1.426 . S
C481 H540 0.980 . S
C482 C483 1.407 . S
C482 C487 1.418 . S
C482 O536 1.334 . S
C483 C482 1.407 . S
C483 C484 1.360 . S
C483 H544 0.929 . S
C484 C483 1.360 . S
C484 C485 1.401 . S
C484 C488 1.527 . S
C485 C484 1.401 . S
C485 C486 1.405 . S
C485 C518 1.587 . S
C486 C485 1.405 . S
C486 C487 1.332 . S
C486 C489 1.496 . S
C487 C482 1.418 . S
C487 C486 1.332 . S
C487 H545 0.929 . S
C488 C484 1.527 . S
C488 H546 0.959 . S
C488 H547 0.961 . S
C488 H548 0.961 . S
C489 C486 1.496 . S
C489 H549 0.960 . S
C489 H550 0.960 . S
C489 H551 0.961 . S
C490 C491 1.517 . S
C490 H553 0.961 . S
C490 H554 0.960 . S
C490 H555 0.959 . S
C491 C490 1.517 . S
C491 O539 1.468 . S
C491 H552 0.980 . S
C492 C493 1.349 . S
C492 C497 1.367 . S
C492 O539 1.408 . S
C493 C492 1.349 . S
C493 C494 1.407 . S
C493 H556 0.930 . S
C494 C493 1.407 . S
C494 C495 1.449 . S
C494 C498 1.535 . S
C495 C494 1.449 . S
C495 C496 1.384 . S
C495 C520 1.553 . S
C496 C495 1.384 . S
C496 C497 1.364 . S
C496 C499 1.450 . S
C497 C492 1.367 . S
C497 C496 1.364 . S
C497 H557 0.931 . S
C498 C494 1.535 . S
C498 H558 0.959 . S
C498 H559 0.961 . S
C498 H560 0.959 . S
C499 C496 1.450 . S
C499 H561 0.960 . S
C499 H562 0.960 . S
C499 H563 0.960 . S
C500 C501 1.309 . S
C500 C505 1.304 . S
C500 O538 1.435 . S
C501 C500 1.309 . S
C501 C502 1.476 . S
C501 H565 0.930 . S
C502 C501 1.476 . S
C502 C503 1.400 . S
C502 C506 1.567 . S
C503 C502 1.400 . S
C503 C504 1.373 . S
C503 C525 1.432 . S
C504 C503 1.373 . S
C504 C505 1.339 . S
C504 C507 1.530 . S
C505 C500 1.304 . S
C505 C504 1.339 . S
C505 H566 0.930 . S
C506 C502 1.567 . S
C506 H567 0.961 . S
C506 H568 0.960 . S
C506 H569 0.958 . S
C507 C504 1.530 . S
C507 H570 0.961 . S
C507 H571 0.960 . S
C507 H572 0.960 . S
C508 C509 1.530 . S
C508 H574 0.961 . S
C508 H575 0.961 . S
C508 H576 0.959 . S
C509 C508 1.530 . S
C509 O537 1.412 . S
C509 H573 0.980 . S
C510 C511 1.288 . S
C510 C515 1.377 . S
C510 O537 1.393 . S
C511 C510 1.288 . S
C511 C512 1.369 . S
C511 H577 0.932 . S
C512 C511 1.369 . S
C512 C513 1.398 . S
C512 C516 1.527 . S
C513 C512 1.398 . S
C513 C514 1.380 . S
C513 C527 1.497 . S
C514 C513 1.380 . S
C514 C515 1.383 . S
C514 C517 1.603 . S
C515 C510 1.377 . S
C515 C514 1.383 . S
C515 H578 0.929 . S
C516 C512 1.527 . S
C516 H579 0.961 . S
C516 H580 0.959 . S
C516 H581 0.959 . S
C517 C514 1.603 . S
C517 H582 0.960 . S
C517 H583 0.962 . S
C517 H584 0.961 . S
C518 C485 1.587 . S
C518 C519 1.360 . S
C518 C531 1.412 . S
C519 C518 1.360 . S
C519 C520 1.365 . S
C519 H585 0.929 . S
C520 C495 1.553 . S
C520 C519 1.365 . S
C520 C521 1.404 . S
C521 C520 1.404 . S
C521 C522 1.395 . S
C521 C532 1.451 . S
C522 C521 1.395 . S
C522 C523 1.322 . S
C522 H586 0.930 . S
C523 C522 1.322 . S
C523 C524 1.459 . S
C523 H587 0.929 . S
C524 C523 1.459 . S
C524 C525 1.445 . S
C524 C533 1.395 . S
C525 C503 1.432 . S
C525 C524 1.445 . S
C525 C526 1.370 . S
C526 C525 1.370 . S
C526 C527 1.438 . S
C526 H588 0.930 . S
C527 C513 1.497 . S
C527 C526 1.438 . S
C527 C528 1.360 . S
C528 C527 1.360 . S
C528 C529 1.401 . S
C528 C533 1.446 . S
C529 C528 1.401 . S
C529 C530 1.347 . S
C529 H589 0.929 . S
C530 C529 1.347 . S
C530 C531 1.455 . S
C530 H590 0.930 . S
C531 C518 1.412 . S
C531 C530 1.455 . S
C531 C532 1.331 . S
C532 C521 1.451 . S
C532 C531 1.331 . S
C532 C533 1.497 . S
C533 C524 1.395 . S
C533 C528 1.446 . S
C533 C532 1.497 . S
C534 C535 1.582 . S
C534 H591 0.962 . S
C534 H592 0.959 . S
C534 H593 0.958 . S
C535 C534 1.582 . S
C535 O538 1.458 . S
C535 H564 0.980 . S
O536 C481 1.426 . S
O536 C482 1.334 . S
O537 C509 1.412 . S
O537 C510 1.393 . S
O538 C500 1.435 . S
O538 C535 1.458 . S
O539 C491 1.468 . S
O539 C492 1.408 . S
H540 C481 0.980 . S
H541 C480 0.959 . S
H542 C480 0.959 . S
H543 C480 0.960 . S
H544 C483 0.929 . S
H545 C487 0.929 . S
H546 C488 0.959 . S
H547 C488 0.961 . S
H548 C488 0.961 . S
H549 C489 0.960 . S
H550 C489 0.960 . S
H551 C489 0.961 . S
H552 C491 0.980 . S
H553 C490 0.961 . S
H554 C490 0.960 . S
H555 C490 0.959 . S
H556 C493 0.930 . S
H557 C497 0.931 . S
H558 C498 0.959 . S
H559 C498 0.961 . S
H560 C498 0.959 . S
H561 C499 0.960 . S
H562 C499 0.960 . S
H563 C499 0.960 . S
H564 C535 0.980 . S
H565 C501 0.930 . S
H566 C505 0.930 . S
H567 C506 0.961 . S
H568 C506 0.960 . S
H569 C506 0.958 . S
H570 C507 0.961 . S
H571 C507 0.960 . S
H572 C507 0.960 . S
H573 C509 0.980 . S
H574 C508 0.961 . S
H575 C508 0.961 . S
H576 C508 0.959 . S
H577 C511 0.932 . S
H578 C515 0.929 . S
H579 C516 0.961 . S
H580 C516 0.959 . S
H581 C516 0.959 . S
H582 C517 0.960 . S
H583 C517 0.962 . S
H584 C517 0.961 . S
H585 C519 0.929 . S
H586 C522 0.930 . S
H587 C523 0.929 . S
H588 C526 0.930 . S
H589 C529 0.929 . S
H590 C530 0.930 . S
H591 C534 0.962 . S
H592 C534 0.959 . S
H593 C534 0.958 . S
C594 C595 1.560 . S
C594 H655 0.959 . S
C594 H656 0.959 . S
C594 H657 0.960 . S
C595 C594 1.560 . S
C595 O650 1.426 . S
C595 H654 0.980 . S
C596 C597 1.407 . S
C596 C601 1.418 . S
C596 O650 1.334 . S
C597 C596 1.407 . S
C597 C598 1.360 . S
C597 H658 0.929 . S
C598 C597 1.360 . S
C598 C599 1.401 . S
C598 C602 1.527 . S
C599 C598 1.401 . S
C599 C600 1.405 . S
C599 C632 1.587 . S
C600 C599 1.405 . S
C600 C601 1.332 . S
C600 C603 1.496 . S
C601 C596 1.418 . S
C601 C600 1.332 . S
C601 H659 0.929 . S
C602 C598 1.527 . S
C602 H660 0.959 . S
C602 H661 0.961 . S
C602 H662 0.961 . S
C603 C600 1.496 . S
C603 H663 0.960 . S
C603 H664 0.960 . S
C603 H665 0.961 . S
C604 C605 1.517 . S
C604 H667 0.961 . S
C604 H668 0.960 . S
C604 H669 0.959 . S
C605 C604 1.517 . S
C605 O653 1.468 . S
C605 H666 0.980 . S
C606 C607 1.349 . S
C606 C611 1.367 . S
C606 O653 1.408 . S
C607 C606 1.349 . S
C607 C608 1.407 . S
C607 H670 0.930 . S
C608 C607 1.407 . S
C608 C609 1.449 . S
C608 C612 1.535 . S
C609 C608 1.449 . S
C609 C610 1.384 . S
C609 C634 1.553 . S
C610 C609 1.384 . S
C610 C611 1.364 . S
C610 C613 1.450 . S
C611 C606 1.367 . S
C611 C610 1.364 . S
C611 H671 0.931 . S
C612 C608 1.535 . S
C612 H672 0.959 . S
C612 H673 0.961 . S
C612 H674 0.959 . S
C613 C610 1.450 . S
C613 H675 0.960 . S
C613 H676 0.960 . S
C613 H677 0.960 . S
C614 C615 1.309 . S
C614 C619 1.304 . S
C614 O652 1.435 . S
C615 C614 1.309 . S
C615 C616 1.476 . S
C615 H679 0.930 . S
C616 C615 1.476 . S
C616 C617 1.400 . S
C616 C620 1.567 . S
C617 C616 1.400 . S
C617 C618 1.373 . S
C617 C639 1.432 . S
C618 C617 1.373 . S
C618 C619 1.339 . S
C618 C621 1.530 . S
C619 C614 1.304 . S
C619 C618 1.339 . S
C619 H680 0.930 . S
C620 C616 1.567 . S
C620 H681 0.961 . S
C620 H682 0.960 . S
C620 H683 0.958 . S
C621 C618 1.530 . S
C621 H684 0.961 . S
C621 H685 0.960 . S
C621 H686 0.960 . S
C622 C623 1.530 . S
C622 H688 0.961 . S
C622 H689 0.961 . S
C622 H690 0.959 . S
C623 C622 1.530 . S
C623 O651 1.412 . S
C623 H687 0.980 . S
C624 C625 1.288 . S
C624 C629 1.377 . S
C624 O651 1.393 . S
C625 C624 1.288 . S
C625 C626 1.369 . S
C625 H691 0.932 . S
C626 C625 1.369 . S
C626 C627 1.398 . S
C626 C630 1.527 . S
C627 C626 1.398 . S
C627 C628 1.380 . S
C627 C641 1.497 . S
C628 C627 1.380 . S
C628 C629 1.383 . S
C628 C631 1.603 . S
C629 C624 1.377 . S
C629 C628 1.383 . S
C629 H692 0.929 . S
C630 C626 1.527 . S
C630 H693 0.961 . S
C630 H694 0.959 . S
C630 H695 0.959 . S
C631 C628 1.603 . S
C631 H696 0.960 . S
C631 H697 0.962 . S
C631 H698 0.961 . S
C632 C599 1.587 . S
C632 C633 1.360 . S
C632 C645 1.412 . S
C633 C632 1.360 . S
C633 C634 1.365 . S
C633 H699 0.929 . S
C634 C609 1.553 . S
C634 C633 1.365 . S
C634 C635 1.404 . S
C635 C634 1.404 . S
C635 C636 1.395 . S
C635 C646 1.451 . S
C636 C635 1.395 . S
C636 C637 1.322 . S
C636 H700 0.930 . S
C637 C636 1.322 . S
C637 C638 1.459 . S
C637 H701 0.929 . S
C638 C637 1.459 . S
C638 C639 1.445 . S
C638 C647 1.395 . S
C639 C617 1.432 . S
C639 C638 1.445 . S
C639 C640 1.370 . S
C640 C639 1.370 . S
C640 C641 1.438 . S
C640 H702 0.930 . S
C641 C627 1.497 . S
C641 C640 1.438 . S
C641 C642 1.360 . S
C642 C641 1.360 . S
C642 C643 1.401 . S
C642 C647 1.446 . S
C643 C642 1.401 . S
C643 C644 1.347 . S
C643 H703 0.929 . S
C644 C643 1.347 . S
C644 C645 1.455 . S
C644 H704 0.930 . S
C645 C632 1.412 . S
C645 C644 1.455 . S
C645 C646 1.331 . S
C646 C635 1.451 . S
C646 C645 1.331 . S
C646 C647 1.497 . S
C647 C638 1.395 . S
C647 C642 1.446 . S
C647 C646 1.497 . S
C648 C649 1.582 . S
C648 H705 0.962 . S
C648 H706 0.959 . S
C648 H707 0.958 . S
C649 C648 1.582 . S
C649 O652 1.458 . S
C649 H678 0.980 . S
O650 C595 1.426 . S
O650 C596 1.334 . S
O651 C623 1.412 . S
O651 C624 1.393 . S
O652 C614 1.435 . S
O652 C649 1.458 . S
O653 C605 1.468 . S
O653 C606 1.408 . S
H654 C595 0.980 . S
H655 C594 0.959 . S
H656 C594 0.959 . S
H657 C594 0.960 . S
H658 C597 0.929 . S
H659 C601 0.929 . S
H660 C602 0.959 . S
H661 C602 0.961 . S
H662 C602 0.961 . S
H663 C603 0.960 . S
H664 C603 0.960 . S
H665 C603 0.961 . S
H666 C605 0.980 . S
H667 C604 0.961 . S
H668 C604 0.960 . S
H669 C604 0.959 . S
H670 C607 0.930 . S
H671 C611 0.931 . S
H672 C612 0.959 . S
H673 C612 0.961 . S
H674 C612 0.959 . S
H675 C613 0.960 . S
H676 C613 0.960 . S
H677 C613 0.960 . S
H678 C649 0.980 . S
H679 C615 0.930 . S
H680 C619 0.930 . S
H681 C620 0.961 . S
H682 C620 0.960 . S
H683 C620 0.958 . S
H684 C621 0.961 . S
H685 C621 0.960 . S
H686 C621 0.960 . S
H687 C623 0.980 . S
H688 C622 0.961 . S
H689 C622 0.961 . S
H690 C622 0.959 . S
H691 C625 0.932 . S
H692 C629 0.929 . S
H693 C630 0.961 . S
H694 C630 0.959 . S
H695 C630 0.959 . S
H696 C631 0.960 . S
H697 C631 0.962 . S
H698 C631 0.961 . S
H699 C633 0.929 . S
H700 C636 0.930 . S
H701 C637 0.929 . S
H702 C640 0.930 . S
H703 C643 0.929 . S
H704 C644 0.930 . S
H705 C648 0.962 . S
H706 C648 0.959 . S
H707 C648 0.958 . S
C708 C709 1.560 . S
C708 H769 0.959 . S
C708 H770 0.959 . S
C708 H771 0.960 . S
C709 C708 1.560 . S
C709 O764 1.426 . S
C709 H768 0.980 . S
C710 C711 1.407 . S
C710 C715 1.418 . S
C710 O764 1.334 . S
C711 C710 1.407 . S
C711 C712 1.360 . S
C711 H772 0.929 . S
C712 C711 1.360 . S
C712 C713 1.401 . S
C712 C716 1.527 . S
C713 C712 1.401 . S
C713 C714 1.405 . S
C713 C746 1.587 . S
C714 C713 1.405 . S
C714 C715 1.332 . S
C714 C717 1.496 . S
C715 C710 1.418 . S
C715 C714 1.332 . S
C715 H773 0.929 . S
C716 C712 1.527 . S
C716 H774 0.959 . S
C716 H775 0.961 . S
C716 H776 0.961 . S
C717 C714 1.496 . S
C717 H777 0.960 . S
C717 H778 0.960 . S
C717 H779 0.961 . S
C718 C719 1.517 . S
C718 H781 0.961 . S
C718 H782 0.960 . S
C718 H783 0.959 . S
C719 C718 1.517 . S
C719 O767 1.468 . S
C719 H780 0.980 . S
C720 C721 1.349 . S
C720 C725 1.367 . S
C720 O767 1.408 . S
C721 C720 1.349 . S
C721 C722 1.407 . S
C721 H784 0.930 . S
C722 C721 1.407 . S
C722 C723 1.449 . S
C722 C726 1.535 . S
C723 C722 1.449 . S
C723 C724 1.384 . S
C723 C748 1.553 . S
C724 C723 1.384 . S
C724 C725 1.364 . S
C724 C727 1.450 . S
C725 C720 1.367 . S
C725 C724 1.364 . S
C725 H785 0.931 . S
C726 C722 1.535 . S
C726 H786 0.959 . S
C726 H787 0.961 . S
C726 H788 0.959 . S
C727 C724 1.450 . S
C727 H789 0.960 . S
C727 H790 0.960 . S
C727 H791 0.960 . S
C728 C729 1.309 . S
C728 C733 1.304 . S
C728 O766 1.435 . S
C729 C728 1.309 . S
C729 C730 1.476 . S
C729 H793 0.930 . S
C730 C729 1.476 . S
C730 C731 1.400 . S
C730 C734 1.567 . S
C731 C730 1.400 . S
C731 C732 1.373 . S
C731 C753 1.432 . S
C732 C731 1.373 . S
C732 C733 1.339 . S
C732 C735 1.530 . S
C733 C728 1.304 . S
C733 C732 1.339 . S
C733 H794 0.930 . S
C734 C730 1.567 . S
C734 H795 0.961 . S
C734 H796 0.960 . S
C734 H797 0.958 . S
C735 C732 1.530 . S
C735 H798 0.961 . S
C735 H799 0.960 . S
C735 H800 0.960 . S
C736 C737 1.530 . S
C736 H802 0.961 . S
C736 H803 0.961 . S
C736 H804 0.959 . S
C737 C736 1.530 . S
C737 O765 1.412 . S
C737 H801 0.980 . S
C738 C739 1.288 . S
C738 C743 1.377 . S
C738 O765 1.393 . S
C739 C738 1.288 . S
C739 C740 1.369 . S
C739 H805 0.932 . S
C740 C739 1.369 . S
C740 C741 1.398 . S
C740 C744 1.527 . S
C741 C740 1.398 . S
C741 C742 1.380 . S
C741 C755 1.497 . S
C742 C741 1.380 . S
C742 C743 1.383 . S
C742 C745 1.603 . S
C743 C738 1.377 . S
C743 C742 1.383 . S
C743 H806 0.929 . S
C744 C740 1.527 . S
C744 H807 0.961 . S
C744 H808 0.959 . S
C744 H809 0.959 . S
C745 C742 1.603 . S
C745 H810 0.960 . S
C745 H811 0.962 . S
C745 H812 0.961 . S
C746 C713 1.587 . S
C746 C747 1.360 . S
C746 C759 1.412 . S
C747 C746 1.360 . S
C747 C748 1.365 . S
C747 H813 0.929 . S
C748 C723 1.553 . S
C748 C747 1.365 . S
C748 C749 1.404 . S
C749 C748 1.404 . S
C749 C750 1.395 . S
C749 C760 1.451 . S
C750 C749 1.395 . S
C750 C751 1.322 . S
C750 H814 0.930 . S
C751 C750 1.322 . S
C751 C752 1.459 . S
C751 H815 0.929 . S
C752 C751 1.459 . S
C752 C753 1.445 . S
C752 C761 1.395 . S
C753 C731 1.432 . S
C753 C752 1.445 . S
C753 C754 1.370 . S
C754 C753 1.370 . S
C754 C755 1.438 . S
C754 H816 0.930 . S
C755 C741 1.497 . S
C755 C754 1.438 . S
C755 C756 1.360 . S
C756 C755 1.360 . S
C756 C757 1.401 . S
C756 C761 1.446 . S
C757 C756 1.401 . S
C757 C758 1.347 . S
C757 H817 0.929 . S
C758 C757 1.347 . S
C758 C759 1.455 . S
C758 H818 0.930 . S
C759 C746 1.412 . S
C759 C758 1.455 . S
C759 C760 1.331 . S
C760 C749 1.451 . S
C760 C759 1.331 . S
C760 C761 1.497 . S
C761 C752 1.395 . S
C761 C756 1.446 . S
C761 C760 1.497 . S
C762 C763 1.582 . S
C762 H819 0.962 . S
C762 H820 0.959 . S
C762 H821 0.958 . S
C763 C762 1.582 . S
C763 O766 1.458 . S
C763 H792 0.980 . S
O764 C709 1.426 . S
O764 C710 1.334 . S
O765 C737 1.412 . S
O765 C738 1.393 . S
O766 C728 1.435 . S
O766 C763 1.458 . S
O767 C719 1.468 . S
O767 C720 1.408 . S
H768 C709 0.980 . S
H769 C708 0.959 . S
H770 C708 0.959 . S
H771 C708 0.960 . S
H772 C711 0.929 . S
H773 C715 0.929 . S
H774 C716 0.959 . S
H775 C716 0.961 . S
H776 C716 0.961 . S
H777 C717 0.960 . S
H778 C717 0.960 . S
H779 C717 0.961 . S
H780 C719 0.980 . S
H781 C718 0.961 . S
H782 C718 0.960 . S
H783 C718 0.959 . S
H784 C721 0.930 . S
H785 C725 0.931 . S
H786 C726 0.959 . S
H787 C726 0.961 . S
H788 C726 0.959 . S
H789 C727 0.960 . S
H790 C727 0.960 . S
H791 C727 0.960 . S
H792 C763 0.980 . S
H793 C729 0.930 . S
H794 C733 0.930 . S
H795 C734 0.961 . S
H796 C734 0.960 . S
H797 C734 0.958 . S
H798 C735 0.961 . S
H799 C735 0.960 . S
H800 C735 0.960 . S
H801 C737 0.980 . S
H802 C736 0.961 . S
H803 C736 0.961 . S
H804 C736 0.959 . S
H805 C739 0.932 . S
H806 C743 0.929 . S
H807 C744 0.961 . S
H808 C744 0.959 . S
H809 C744 0.959 . S
H810 C745 0.960 . S
H811 C745 0.962 . S
H812 C745 0.961 . S
H813 C747 0.929 . S
H814 C750 0.930 . S
H815 C751 0.929 . S
H816 C754 0.930 . S
H817 C757 0.929 . S
H818 C758 0.930 . S
H819 C762 0.962 . S
H820 C762 0.959 . S
H821 C762 0.958 . S
C822 C823 1.560 . S
C822 H883 0.959 . S
C822 H884 0.959 . S
C822 H885 0.960 . S
C823 C822 1.560 . S
C823 O878 1.426 . S
C823 H882 0.980 . S
C824 C825 1.407 . S
C824 C829 1.418 . S
C824 O878 1.334 . S
C825 C824 1.407 . S
C825 C826 1.360 . S
C825 H886 0.929 . S
C826 C825 1.360 . S
C826 C827 1.401 . S
C826 C830 1.527 . S
C827 C826 1.401 . S
C827 C828 1.405 . S
C827 C860 1.587 . S
C828 C827 1.405 . S
C828 C829 1.332 . S
C828 C831 1.496 . S
C829 C824 1.418 . S
C829 C828 1.332 . S
C829 H887 0.929 . S
C830 C826 1.527 . S
C830 H888 0.959 . S
C830 H889 0.961 . S
C830 H890 0.961 . S
C831 C828 1.496 . S
C831 H891 0.960 . S
C831 H892 0.960 . S
C831 H893 0.961 . S
C832 C833 1.517 . S
C832 H895 0.961 . S
C832 H896 0.960 . S
C832 H897 0.959 . S
C833 C832 1.517 . S
C833 O881 1.468 . S
C833 H894 0.980 . S
C834 C835 1.349 . S
C834 C839 1.367 . S
C834 O881 1.408 . S
C835 C834 1.349 . S
C835 C836 1.407 . S
C835 H898 0.930 . S
C836 C835 1.407 . S
C836 C837 1.449 . S
C836 C840 1.535 . S
C837 C836 1.449 . S
C837 C838 1.384 . S
C837 C862 1.553 . S
C838 C837 1.384 . S
C838 C839 1.364 . S
C838 C841 1.450 . S
C839 C834 1.367 . S
C839 C838 1.364 . S
C839 H899 0.931 . S
C840 C836 1.535 . S
C840 H900 0.959 . S
C840 H901 0.961 . S
C840 H902 0.959 . S
C841 C838 1.450 . S
C841 H903 0.960 . S
C841 H904 0.960 . S
C841 H905 0.960 . S
C842 C843 1.309 . S
C842 C847 1.304 . S
C842 O880 1.435 . S
C843 C842 1.309 . S
C843 C844 1.476 . S
C843 H907 0.930 . S
C844 C843 1.476 . S
C844 C845 1.400 . S
C844 C848 1.567 . S
C845 C844 1.400 . S
C845 C846 1.373 . S
C845 C867 1.432 . S
C846 C845 1.373 . S
C846 C847 1.339 . S
C846 C849 1.530 . S
C847 C842 1.304 . S
C847 C846 1.339 . S
C847 H908 0.930 . S
C848 C844 1.567 . S
C848 H909 0.961 . S
C848 H910 0.960 . S
C848 H911 0.958 . S
C849 C846 1.530 . S
C849 H912 0.961 . S
C849 H913 0.960 . S
C849 H914 0.960 . S
C850 C851 1.530 . S
C850 H916 0.961 . S
C850 H917 0.961 . S
C850 H918 0.959 . S
C851 C850 1.530 . S
C851 O879 1.412 . S
C851 H915 0.980 . S
C852 C853 1.288 . S
C852 C857 1.377 . S
C852 O879 1.393 . S
C853 C852 1.288 . S
C853 C854 1.369 . S
C853 H919 0.932 . S
C854 C853 1.369 . S
C854 C855 1.398 . S
C854 C858 1.527 . S
C855 C854 1.398 . S
C855 C856 1.380 . S
C855 C869 1.497 . S
C856 C855 1.380 . S
C856 C857 1.383 . S
C856 C859 1.603 . S
C857 C852 1.377 . S
C857 C856 1.383 . S
C857 H920 0.929 . S
C858 C854 1.527 . S
C858 H921 0.961 . S
C858 H922 0.959 . S
C858 H923 0.959 . S
C859 C856 1.603 . S
C859 H924 0.960 . S
C859 H925 0.962 . S
C859 H926 0.961 . S
C860 C827 1.587 . S
C860 C861 1.360 . S
C860 C873 1.412 . S
C861 C860 1.360 . S
C861 C862 1.365 . S
C861 H927 0.929 . S
C862 C837 1.553 . S
C862 C861 1.365 . S
C862 C863 1.404 . S
C863 C862 1.404 . S
C863 C864 1.395 . S
C863 C874 1.451 . S
C864 C863 1.395 . S
C864 C865 1.322 . S
C864 H928 0.930 . S
C865 C864 1.322 . S
C865 C866 1.459 . S
C865 H929 0.929 . S
C866 C865 1.459 . S
C866 C867 1.445 . S
C866 C875 1.395 . S
C867 C845 1.432 . S
C867 C866 1.445 . S
C867 C868 1.370 . S
C868 C867 1.370 . S
C868 C869 1.438 . S
C868 H930 0.930 . S
C869 C855 1.497 . S
C869 C868 1.438 . S
C869 C870 1.360 . S
C870 C869 1.360 . S
C870 C871 1.401 . S
C870 C875 1.446 . S
C871 C870 1.401 . S
C871 C872 1.347 . S
C871 H931 0.929 . S
C872 C871 1.347 . S
C872 C873 1.455 . S
C872 H932 0.930 . S
C873 C860 1.412 . S
C873 C872 1.455 . S
C873 C874 1.331 . S
C874 C863 1.451 . S
C874 C873 1.331 . S
C874 C875 1.497 . S
C875 C866 1.395 . S
C875 C870 1.446 . S
C875 C874 1.497 . S
C876 C877 1.582 . S
C876 H933 0.962 . S
C876 H934 0.959 . S
C876 H935 0.958 . S
C877 C876 1.582 . S
C877 O880 1.458 . S
C877 H906 0.980 . S
O878 C823 1.426 . S
O878 C824 1.334 . S
O879 C851 1.412 . S
O879 C852 1.393 . S
O880 C842 1.435 . S
O880 C877 1.458 . S
O881 C833 1.468 . S
O881 C834 1.408 . S
H882 C823 0.980 . S
H883 C822 0.959 . S
H884 C822 0.959 . S
H885 C822 0.960 . S
H886 C825 0.929 . S
H887 C829 0.929 . S
H888 C830 0.959 . S
H889 C830 0.961 . S
H890 C830 0.961 . S
H891 C831 0.960 . S
H892 C831 0.960 . S
H893 C831 0.961 . S
H894 C833 0.980 . S
H895 C832 0.961 . S
H896 C832 0.960 . S
H897 C832 0.959 . S
H898 C835 0.930 . S
H899 C839 0.931 . S
H900 C840 0.959 . S
H901 C840 0.961 . S
H902 C840 0.959 . S
H903 C841 0.960 . S
H904 C841 0.960 . S
H905 C841 0.960 . S
H906 C877 0.980 . S
H907 C843 0.930 . S
H908 C847 0.930 . S
H909 C848 0.961 . S
H910 C848 0.960 . S
H911 C848 0.958 . S
H912 C849 0.961 . S
H913 C849 0.960 . S
H914 C849 0.960 . S
H915 C851 0.980 . S
H916 C850 0.961 . S
H917 C850 0.961 . S
H918 C850 0.959 . S
H919 C853 0.932 . S
H920 C857 0.929 . S
H921 C858 0.961 . S
H922 C858 0.959 . S
H923 C858 0.959 . S
H924 C859 0.960 . S
H925 C859 0.962 . S
H926 C859 0.961 . S
H927 C861 0.929 . S
H928 C864 0.930 . S
H929 C865 0.929 . S
H930 C868 0.930 . S
H931 C871 0.929 . S
H932 C872 0.930 . S
H933 C876 0.962 . S
H934 C876 0.959 . S
H935 C876 0.958 . S
C936 C937 1.560 . S
C936 H997 0.959 . S
C936 H998 0.959 . S
C936 H999 0.960 . S
C937 C936 1.560 . S
C937 O992 1.426 . S
C937 H996 0.980 . S
C938 C939 1.407 . S
C938 C943 1.418 . S
C938 O992 1.334 . S
C939 C938 1.407 . S
C939 C940 1.360 . S
C939 H1000 0.929 . S
C940 C939 1.360 . S
C940 C941 1.401 . S
C940 C944 1.527 . S
C941 C940 1.401 . S
C941 C942 1.405 . S
C941 C974 1.587 . S
C942 C941 1.405 . S
C942 C943 1.332 . S
C942 C945 1.496 . S
C943 C938 1.418 . S
C943 C942 1.332 . S
C943 H1001 0.929 . S
C944 C940 1.527 . S
C944 H1002 0.959 . S
C944 H1003 0.961 . S
C944 H1004 0.961 . S
C945 C942 1.496 . S
C945 H1005 0.960 . S
C945 H1006 0.960 . S
C945 H1007 0.961 . S
C946 C947 1.517 . S
C946 H1009 0.961 . S
C946 H1010 0.960 . S
C946 H1011 0.959 . S
C947 C946 1.517 . S
C947 O995 1.468 . S
C947 H1008 0.980 . S
C948 C949 1.349 . S
C948 C953 1.367 . S
C948 O995 1.408 . S
C949 C948 1.349 . S
C949 C950 1.407 . S
C949 H1012 0.930 . S
C950 C949 1.407 . S
C950 C951 1.449 . S
C950 C954 1.535 . S
C951 C950 1.449 . S
C951 C952 1.384 . S
C951 C976 1.553 . S
C952 C951 1.384 . S
C952 C953 1.364 . S
C952 C955 1.450 . S
C953 C948 1.367 . S
C953 C952 1.364 . S
C953 H1013 0.931 . S
C954 C950 1.535 . S
C954 H1014 0.959 . S
C954 H1015 0.961 . S
C954 H1016 0.959 . S
C955 C952 1.450 . S
C955 H1017 0.960 . S
C955 H1018 0.960 . S
C955 H1019 0.960 . S
C956 C957 1.309 . S
C956 C961 1.304 . S
C956 O994 1.435 . S
C957 C956 1.309 . S
C957 C958 1.476 . S
C957 H1021 0.930 . S
C958 C957 1.476 . S
C958 C959 1.400 . S
C958 C962 1.567 . S
C959 C958 1.400 . S
C959 C960 1.373 . S
C959 C981 1.432 . S
C960 C959 1.373 . S
C960 C961 1.339 . S
C960 C963 1.530 . S
C961 C956 1.304 . S
C961 C960 1.339 . S
C961 H1022 0.930 . S
C962 C958 1.567 . S
C962 H1023 0.961 . S
C962 H1024 0.960 . S
C962 H1025 0.958 . S
C963 C960 1.530 . S
C963 H1026 0.961 . S
C963 H1027 0.960 . S
C963 H1028 0.960 . S
C964 C965 1.530 . S
C964 H1030 0.961 . S
C964 H1031 0.961 . S
C964 H1032 0.959 . S
C965 C964 1.530 . S
C965 O993 1.412 . S
C965 H1029 0.980 . S
C966 C967 1.288 . S
C966 C971 1.377 . S
C966 O993 1.393 . S
C967 C966 1.288 . S
C967 C968 1.369 . S
C967 H1033 0.932 . S
C968 C967 1.369 . S
C968 C969 1.398 . S
C968 C972 1.527 . S
C969 C968 1.398 . S
C969 C970 1.380 . S
C969 C983 1.497 . S
C970 C969 1.380 . S
C970 C971 1.383 . S
C970 C973 1.603 . S
C971 C966 1.377 . S
C971 C970 1.383 . S
C971 H1034 0.929 . S
C972 C968 1.527 . S
C972 H1035 0.961 . S
C972 H1036 0.959 . S
C972 H1037 0.959 . S
C973 C970 1.603 . S
C973 H1038 0.960 . S
C973 H1039 0.962 . S
C973 H1040 0.961 . S
C974 C941 1.587 . S
C974 C975 1.360 . S
C974 C987 1.412 . S
C975 C974 1.360 . S
C975 C976 1.365 . S
C975 H1041 0.929 . S
C976 C951 1.553 . S
C976 C975 1.365 . S
C976 C977 1.404 . S
C977 C976 1.404 . S
C977 C978 1.395 . S
C977 C988 1.451 . S
C978 C977 1.395 . S
C978 C979 1.322 . S
C978 H1042 0.930 . S
C979 C978 1.322 . S
C979 C980 1.459 . S
C979 H1043 0.929 . S
C980 C979 1.459 . S
C980 C981 1.445 . S
C980 C989 1.395 . S
C981 C959 1.432 . S
C981 C980 1.445 . S
C981 C982 1.370 . S
C982 C981 1.370 . S
C982 C983 1.438 . S
C982 H1044 0.930 . S
C983 C969 1.497 . S
C983 C982 1.438 . S
C983 C984 1.360 . S
C984 C983 1.360 . S
C984 C985 1.401 . S
C984 C989 1.446 . S
C985 C984 1.401 . S
C985 C986 1.347 . S
C985 H1045 0.929 . S
C986 C985 1.347 . S
C986 C987 1.455 . S
C986 H1046 0.930 . S
C987 C974 1.412 . S
C987 C986 1.455 . S
C987 C988 1.331 . S
C988 C977 1.451 . S
C988 C987 1.331 . S
C988 C989 1.497 . S
C989 C980 1.395 . S
C989 C984 1.446 . S
C989 C988 1.497 . S
C990 C991 1.582 . S
C990 H1047 0.962 . S
C990 H1048 0.959 . S
C990 H1049 0.958 . S
C991 C990 1.582 . S
C991 O994 1.458 . S
C991 H1020 0.980 . S
O992 C937 1.426 . S
O992 C938 1.334 . S
O993 C965 1.412 . S
O993 C966 1.393 . S
O994 C956 1.435 . S
O994 C991 1.458 . S
O995 C947 1.468 . S
O995 C948 1.408 . S
H996 C937 0.980 . S
H997 C936 0.959 . S
H998 C936 0.959 . S
H999 C936 0.960 . S
H1000 C939 0.929 . S
H1001 C943 0.929 . S
H1002 C944 0.959 . S
H1003 C944 0.961 . S
H1004 C944 0.961 . S
H1005 C945 0.960 . S
H1006 C945 0.960 . S
H1007 C945 0.961 . S
H1008 C947 0.980 . S
H1009 C946 0.961 . S
H1010 C946 0.960 . S
H1011 C946 0.959 . S
H1012 C949 0.930 . S
H1013 C953 0.931 . S
H1014 C954 0.959 . S
H1015 C954 0.961 . S
H1016 C954 0.959 . S
H1017 C955 0.960 . S
H1018 C955 0.960 . S
H1019 C955 0.960 . S
H1020 C991 0.980 . S
H1021 C957 0.930 . S
H1022 C961 0.930 . S
H1023 C962 0.961 . S
H1024 C962 0.960 . S
H1025 C962 0.958 . S
H1026 C963 0.961 . S
H1027 C963 0.960 . S
H1028 C963 0.960 . S
H1029 C965 0.980 . S
H1030 C964 0.961 . S
H1031 C964 0.961 . S
H1032 C964 0.959 . S
H1033 C967 0.932 . S
H1034 C971 0.929 . S
H1035 C972 0.961 . S
H1036 C972 0.959 . S
H1037 C972 0.959 . S
H1038 C973 0.960 . S
H1039 C973 0.962 . S
H1040 C973 0.961 . S
H1041 C975 0.929 . S
H1042 C978 0.930 . S
H1043 C979 0.929 . S
H1044 C982 0.930 . S
H1045 C985 0.929 . S
H1046 C986 0.930 . S
H1047 C990 0.962 . S
H1048 C990 0.959 . S
H1049 C990 0.958 . S
C1050 C1051 1.560 . S
C1050 H1111 0.959 . S
C1050 H1112 0.959 . S
C1050 H1113 0.960 . S
C1051 C1050 1.560 . S
C1051 O1106 1.426 . S
C1051 H1110 0.980 . S
C1052 C1053 1.407 . S
C1052 C1057 1.418 . S
C1052 O1106 1.334 . S
C1053 C1052 1.407 . S
C1053 C1054 1.360 . S
C1053 H1114 0.929 . S
C1054 C1053 1.360 . S
C1054 C1055 1.401 . S
C1054 C1058 1.527 . S
C1055 C1054 1.401 . S
C1055 C1056 1.405 . S
C1055 C1088 1.587 . S
C1056 C1055 1.405 . S
C1056 C1057 1.332 . S
C1056 C1059 1.496 . S
C1057 C1052 1.418 . S
C1057 C1056 1.332 . S
C1057 H1115 0.929 . S
C1058 C1054 1.527 . S
C1058 H1116 0.959 . S
C1058 H1117 0.961 . S
C1058 H1118 0.961 . S
C1059 C1056 1.496 . S
C1059 H1119 0.960 . S
C1059 H1120 0.960 . S
C1059 H1121 0.961 . S
C1060 C1061 1.517 . S
C1060 H1123 0.961 . S
C1060 H1124 0.960 . S
C1060 H1125 0.959 . S
C1061 C1060 1.517 . S
C1061 O1109 1.468 . S
C1061 H1122 0.980 . S
C1062 C1063 1.349 . S
C1062 C1067 1.367 . S
C1062 O1109 1.408 . S
C1063 C1062 1.349 . S
C1063 C1064 1.407 . S
C1063 H1126 0.930 . S
C1064 C1063 1.407 . S
C1064 C1065 1.449 . S
C1064 C1068 1.535 . S
C1065 C1064 1.449 . S
C1065 C1066 1.384 . S
C1065 C1090 1.553 . S
C1066 C1065 1.384 . S
C1066 C1067 1.364 . S
C1066 C1069 1.450 . S
C1067 C1062 1.367 . S
C1067 C1066 1.364 . S
C1067 H1127 0.931 . S
C1068 C1064 1.535 . S
C1068 H1128 0.959 . S
C1068 H1129 0.961 . S
C1068 H1130 0.959 . S
C1069 C1066 1.450 . S
C1069 H1131 0.960 . S
C1069 H1132 0.960 . S
C1069 H1133 0.960 . S
C1070 C1071 1.309 . S
C1070 C1075 1.304 . S
C1070 O1108 1.435 . S
C1071 C1070 1.309 . S
C1071 C1072 1.476 . S
C1071 H1135 0.930 . S
C1072 C1071 1.476 . S
C1072 C1073 1.400 . S
C1072 C1076 1.567 . S
C1073 C1072 1.400 . S
C1073 C1074 1.373 . S
C1073 C1095 1.432 . S
C1074 C1073 1.373 . S
C1074 C1075 1.339 . S
C1074 C1077 1.530 . S
C1075 C1070 1.304 . S
C1075 C1074 1.339 . S
C1075 H1136 0.930 . S
C1076 C1072 1.567 . S
C1076 H1137 0.961 . S
C1076 H1138 0.960 . S
C1076 H1139 0.958 . S
C1077 C1074 1.530 . S
C1077 H1140 0.961 . S
C1077 H1141 0.960 . S
C1077 H1142 0.960 . S
C1078 C1079 1.530 . S
C1078 H1144 0.961 . S
C1078 H1145 0.961 . S
C1078 H1146 0.959 . S
C1079 C1078 1.530 . S
C1079 O1107 1.412 . S
C1079 H1143 0.980 . S
C1080 C1081 1.288 . S
C1080 C1085 1.377 . S
C1080 O1107 1.393 . S
C1081 C1080 1.288 . S
C1081 C1082 1.369 . S
C1081 H1147 0.932 . S
C1082 C1081 1.369 . S
C1082 C1083 1.398 . S
C1082 C1086 1.527 . S
C1083 C1082 1.398 . S
C1083 C1084 1.380 . S
C1083 C1097 1.497 . S
C1084 C1083 1.380 . S
C1084 C1085 1.383 . S
C1084 C1087 1.603 . S
C1085 C1080 1.377 . S
C1085 C1084 1.383 . S
C1085 H1148 0.929 . S
C1086 C1082 1.527 . S
C1086 H1149 0.961 . S
C1086 H1150 0.959 . S
C1086 H1151 0.959 . S
C1087 C1084 1.603 . S
C1087 H1152 0.960 . S
C1087 H1153 0.962 . S
C1087 H1154 0.961 . S
C1088 C1055 1.587 . S
C1088 C1089 1.360 . S
C1088 C1101 1.412 . S
C1089 C1088 1.360 . S
C1089 C1090 1.365 . S
C1089 H1155 0.929 . S
C1090 C1065 1.553 . S
C1090 C1089 1.365 . S
C1090 C1091 1.404 . S
C1091 C1090 1.404 . S
C1091 C1092 1.395 . S
C1091 C1102 1.451 . S
C1092 C1091 1.395 . S
C1092 C1093 1.322 . S
C1092 H1156 0.930 . S
C1093 C1092 1.322 . S
C1093 C1094 1.459 . S
C1093 H1157 0.929 . S
C1094 C1093 1.459 . S
C1094 C1095 1.445 . S
C1094 C1103 1.395 . S
C1095 C1073 1.432 . S
C1095 C1094 1.445 . S
C1095 C1096 1.370 . S
C1096 C1095 1.370 . S
C1096 C1097 1.438 . S
C1096 H1158 0.930 . S
C1097 C1083 1.497 . S
C1097 C1096 1.438 . S
C1097 C1098 1.360 . S
C1098 C1097 1.360 . S
C1098 C1099 1.401 . S
C1098 C1103 1.446 . S
C1099 C1098 1.401 . S
C1099 C1100 1.347 . S
C1099 H1159 0.929 . S
C1100 C1099 1.347 . S
C1100 C1101 1.455 . S
C1100 H1160 0.930 . S
C1101 C1088 1.412 . S
C1101 C1100 1.455 . S
C1101 C1102 1.331 . S
C1102 C1091 1.451 . S
C1102 C1101 1.331 . S
C1102 C1103 1.497 . S
C1103 C1094 1.395 . S
C1103 C1098 1.446 . S
C1103 C1102 1.497 . S
C1104 C1105 1.582 . S
C1104 H1161 0.962 . S
C1104 H1162 0.959 . S
C1104 H1163 0.958 . S
C1105 C1104 1.582 . S
C1105 O1108 1.458 . S
C1105 H1134 0.980 . S
O1106 C1051 1.426 . S
O1106 C1052 1.334 . S
O1107 C1079 1.412 . S
O1107 C1080 1.393 . S
O1108 C1070 1.435 . S
O1108 C1105 1.458 . S
O1109 C1061 1.468 . S
O1109 C1062 1.408 . S
H1110 C1051 0.980 . S
H1111 C1050 0.959 . S
H1112 C1050 0.959 . S
H1113 C1050 0.960 . S
H1114 C1053 0.929 . S
H1115 C1057 0.929 . S
H1116 C1058 0.959 . S
H1117 C1058 0.961 . S
H1118 C1058 0.961 . S
H1119 C1059 0.960 . S
H1120 C1059 0.960 . S
H1121 C1059 0.961 . S
H1122 C1061 0.980 . S
H1123 C1060 0.961 . S
H1124 C1060 0.960 . S
H1125 C1060 0.959 . S
H1126 C1063 0.930 . S
H1127 C1067 0.931 . S
H1128 C1068 0.959 . S
H1129 C1068 0.961 . S
H1130 C1068 0.959 . S
H1131 C1069 0.960 . S
H1132 C1069 0.960 . S
H1133 C1069 0.960 . S
H1134 C1105 0.980 . S
H1135 C1071 0.930 . S
H1136 C1075 0.930 . S
H1137 C1076 0.961 . S
H1138 C1076 0.960 . S
H1139 C1076 0.958 . S
H1140 C1077 0.961 . S
H1141 C1077 0.960 . S
H1142 C1077 0.960 . S
H1143 C1079 0.980 . S
H1144 C1078 0.961 . S
H1145 C1078 0.961 . S
H1146 C1078 0.959 . S
H1147 C1081 0.932 . S
H1148 C1085 0.929 . S
H1149 C1086 0.961 . S
H1150 C1086 0.959 . S
H1151 C1086 0.959 . S
H1152 C1087 0.960 . S
H1153 C1087 0.962 . S
H1154 C1087 0.961 . S
H1155 C1089 0.929 . S
H1156 C1092 0.930 . S
H1157 C1093 0.929 . S
H1158 C1096 0.930 . S
H1159 C1099 0.929 . S
H1160 C1100 0.930 . S
H1161 C1104 0.962 . S
H1162 C1104 0.959 . S
H1163 C1104 0.958 . S
C1164 C1165 1.560 . S
C1164 H1225 0.959 . S
C1164 H1226 0.959 . S
C1164 H1227 0.960 . S
C1165 C1164 1.560 . S
C1165 O1220 1.426 . S
C1165 H1224 0.980 . S
C1166 C1167 1.407 . S
C1166 C1171 1.418 . S
C1166 O1220 1.334 . S
C1167 C1166 1.407 . S
C1167 C1168 1.360 . S
C1167 H1228 0.929 . S
C1168 C1167 1.360 . S
C1168 C1169 1.401 . S
C1168 C1172 1.527 . S
C1169 C1168 1.401 . S
C1169 C1170 1.405 . S
C1169 C1202 1.587 . S
C1170 C1169 1.405 . S
C1170 C1171 1.332 . S
C1170 C1173 1.496 . S
C1171 C1166 1.418 . S
C1171 C1170 1.332 . S
C1171 H1229 0.929 . S
C1172 C1168 1.527 . S
C1172 H1230 0.959 . S
C1172 H1231 0.961 . S
C1172 H1232 0.961 . S
C1173 C1170 1.496 . S
C1173 H1233 0.960 . S
C1173 H1234 0.960 . S
C1173 H1235 0.961 . S
C1174 C1175 1.517 . S
C1174 H1237 0.961 . S
C1174 H1238 0.960 . S
C1174 H1239 0.959 . S
C1175 C1174 1.517 . S
C1175 O1223 1.468 . S
C1175 H1236 0.980 . S
C1176 C1177 1.349 . S
C1176 C1181 1.367 . S
C1176 O1223 1.408 . S
C1177 C1176 1.349 . S
C1177 C1178 1.407 . S
C1177 H1240 0.930 . S
C1178 C1177 1.407 . S
C1178 C1179 1.449 . S
C1178 C1182 1.535 . S
C1179 C1178 1.449 . S
C1179 C1180 1.384 . S
C1179 C1204 1.553 . S
C1180 C1179 1.384 . S
C1180 C1181 1.364 . S
C1180 C1183 1.450 . S
C1181 C1176 1.367 . S
C1181 C1180 1.364 . S
C1181 H1241 0.931 . S
C1182 C1178 1.535 . S
C1182 H1242 0.959 . S
C1182 H1243 0.961 . S
C1182 H1244 0.959 . S
C1183 C1180 1.450 . S
C1183 H1245 0.960 . S
C1183 H1246 0.960 . S
C1183 H1247 0.960 . S
C1184 C1185 1.309 . S
C1184 C1189 1.304 . S
C1184 O1222 1.435 . S
C1185 C1184 1.309 . S
C1185 C1186 1.476 . S
C1185 H1249 0.930 . S
C1186 C1185 1.476 . S
C1186 C1187 1.400 . S
C1186 C1190 1.567 . S
C1187 C1186 1.400 . S
C1187 C1188 1.373 . S
C1187 C1209 1.432 . S
C1188 C1187 1.373 . S
C1188 C1189 1.339 . S
C1188 C1191 1.530 . S
C1189 C1184 1.304 . S
C1189 C1188 1.339 . S
C1189 H1250 0.930 . S
C1190 C1186 1.567 . S
C1190 H1251 0.961 . S
C1190 H1252 0.960 . S
C1190 H1253 0.958 . S
C1191 C1188 1.530 . S
C1191 H1254 0.961 . S
C1191 H1255 0.960 . S
C1191 H1256 0.960 . S
C1192 C1193 1.530 . S
C1192 H1258 0.961 . S
C1192 H1259 0.961 . S
C1192 H1260 0.959 . S
C1193 C1192 1.530 . S
C1193 O1221 1.412 . S
C1193 H1257 0.980 . S
C1194 C1195 1.288 . S
C1194 C1199 1.377 . S
C1194 O1221 1.393 . S
C1195 C1194 1.288 . S
C1195 C1196 1.369 . S
C1195 H1261 0.932 . S
C1196 C1195 1.369 . S
C1196 C1197 1.398 . S
C1196 C1200 1.527 . S
C1197 C1196 1.398 . S
C1197 C1198 1.380 . S
C1197 C1211 1.497 . S
C1198 C1197 1.380 . S
C1198 C1199 1.383 . S
C1198 C1201 1.603 . S
C1199 C1194 1.377 . S
C1199 C1198 1.383 . S
C1199 H1262 0.929 . S
C1200 C1196 1.527 . S
C1200 H1263 0.961 . S
C1200 H1264 0.959 . S
C1200 H1265 0.959 . S
C1201 C1198 1.603 . S
C1201 H1266 0.960 . S
C1201 H1267 0.962 . S
C1201 H1268 0.961 . S
C1202 C1169 1.587 . S
C1202 C1203 1.360 . S
C1202 C1215 1.412 . S
C1203 C1202 1.360 . S
C1203 C1204 1.365 . S
C1203 H1269 0.929 . S
C1204 C1179 1.553 . S
C1204 C1203 1.365 . S
C1204 C1205 1.404 . S
C1205 C1204 1.404 . S
C1205 C1206 1.395 . S
C1205 C1216 1.451 . S
C1206 C1205 1.395 . S
C1206 C1207 1.322 . S
C1206 H1270 0.930 . S
C1207 C1206 1.322 . S
C1207 C1208 1.459 . S
C1207 H1271 0.929 . S
C1208 C1207 1.459 . S
C1208 C1209 1.445 . S
C1208 C1217 1.395 . S
C1209 C1187 1.432 . S
C1209 C1208 1.445 . S
C1209 C1210 1.370 . S
C1210 C1209 1.370 . S
C1210 C1211 1.438 . S
C1210 H1272 0.930 . S
C1211 C1197 1.497 . S
C1211 C1210 1.438 . S
C1211 C1212 1.360 . S
C1212 C1211 1.360 . S
C1212 C1213 1.401 . S
C1212 C1217 1.446 . S
C1213 C1212 1.401 . S
C1213 C1214 1.347 . S
C1213 H1273 0.929 . S
C1214 C1213 1.347 . S
C1214 C1215 1.455 . S
C1214 H1274 0.930 . S
C1215 C1202 1.412 . S
C1215 C1214 1.455 . S
C1215 C1216 1.331 . S
C1216 C1205 1.451 . S
C1216 C1215 1.331 . S
C1216 C1217 1.497 . S
C1217 C1208 1.395 . S
C1217 C1212 1.446 . S
C1217 C1216 1.497 . S
C1218 C1219 1.582 . S
C1218 H1275 0.962 . S
C1218 H1276 0.959 . S
C1218 H1277 0.958 . S
C1219 C1218 1.582 . S
C1219 O1222 1.458 . S
C1219 H1248 0.980 . S
O1220 C1165 1.426 . S
O1220 C1166 1.334 . S
O1221 C1193 1.412 . S
O1221 C1194 1.393 . S
O1222 C1184 1.435 . S
O1222 C1219 1.458 . S
O1223 C1175 1.468 . S
O1223 C1176 1.408 . S
H1224 C1165 0.980 . S
H1225 C1164 0.959 . S
H1226 C1164 0.959 . S
H1227 C1164 0.960 . S
H1228 C1167 0.929 . S
H1229 C1171 0.929 . S
H1230 C1172 0.959 . S
H1231 C1172 0.961 . S
H1232 C1172 0.961 . S
H1233 C1173 0.960 . S
H1234 C1173 0.960 . S
H1235 C1173 0.961 . S
H1236 C1175 0.980 . S
H1237 C1174 0.961 . S
H1238 C1174 0.960 . S
H1239 C1174 0.959 . S
H1240 C1177 0.930 . S
H1241 C1181 0.931 . S
H1242 C1182 0.959 . S
H1243 C1182 0.961 . S
H1244 C1182 0.959 . S
H1245 C1183 0.960 . S
H1246 C1183 0.960 . S
H1247 C1183 0.960 . S
H1248 C1219 0.980 . S
H1249 C1185 0.930 . S
H1250 C1189 0.930 . S
H1251 C1190 0.961 . S
H1252 C1190 0.960 . S
H1253 C1190 0.958 . S
H1254 C1191 0.961 . S
H1255 C1191 0.960 . S
H1256 C1191 0.960 . S
H1257 C1193 0.980 . S
H1258 C1192 0.961 . S
H1259 C1192 0.961 . S
H1260 C1192 0.959 . S
H1261 C1195 0.932 . S
H1262 C1199 0.929 . S
H1263 C1200 0.961 . S
H1264 C1200 0.959 . S
H1265 C1200 0.959 . S
H1266 C1201 0.960 . S
H1267 C1201 0.962 . S
H1268 C1201 0.961 . S
H1269 C1203 0.929 . S
H1270 C1206 0.930 . S
H1271 C1207 0.929 . S
H1272 C1210 0.930 . S
H1273 C1213 0.929 . S
H1274 C1214 0.930 . S
H1275 C1218 0.962 . S
H1276 C1218 0.959 . S
H1277 C1218 0.958 . S
C1278 C1279 1.560 . S
C1278 H1339 0.959 . S
C1278 H1340 0.959 . S
C1278 H1341 0.960 . S
C1279 C1278 1.560 . S
C1279 O1334 1.426 . S
C1279 H1338 0.980 . S
C1280 C1281 1.407 1_455 S
C1280 C1285 1.418 . S
C1280 O1334 1.334 . S
C1281 C1280 1.407 1_655 S
C1281 C1282 1.360 . S
C1281 H1342 0.929 . S
C1282 C1281 1.360 . S
C1282 C1283 1.401 1_655 S
C1282 C1286 1.527 . S
C1283 C1282 1.401 1_455 S
C1283 C1284 1.405 . S
C1283 C1316 1.587 1_455 S
C1284 C1283 1.405 . S
C1284 C1285 1.332 . S
C1284 C1287 1.496 . S
C1285 C1280 1.418 . S
C1285 C1284 1.332 . S
C1285 H1343 0.929 . S
C1286 C1282 1.527 . S
C1286 H1344 0.959 . S
C1286 H1345 0.961 . S
C1286 H1346 0.961 . S
C1287 C1284 1.496 . S
C1287 H1347 0.960 . S
C1287 H1348 0.960 . S
C1287 H1349 0.961 . S
C1288 C1289 1.517 . S
C1288 H1351 0.961 . S
C1288 H1352 0.960 . S
C1288 H1353 0.959 . S
C1289 C1288 1.517 . S
C1289 O1337 1.468 . S
C1289 H1350 0.980 1_655 S
C1290 C1291 1.349 . S
C1290 C1295 1.367 . S
C1290 O1337 1.408 . S
C1291 C1290 1.349 . S
C1291 C1292 1.367 1_655 S
C1291 H1354 0.930 1_655 S
C1292 C1291 1.367 1_455 S
C1292 C1293 1.417 1_455 S
C1292 C1296 1.602 . S
C1293 C1292 1.417 1_655 S
C1293 C1294 1.384 . S
C1293 C1318 1.553 . S
C1294 C1293 1.384 . S
C1294 C1295 1.364 . S
C1294 C1297 1.450 . S
C1295 C1290 1.367 . S
C1295 C1294 1.364 . S
C1295 H1355 0.931 . S
C1296 C1292 1.602 . S
C1296 H1356 0.959 . S
C1296 H1357 0.961 . S
C1296 H1358 0.959 . S
C1297 C1294 1.450 . S
C1297 H1359 0.960 . S
C1297 H1360 0.960 . S
C1297 H1361 0.960 . S
C1298 C1299 1.309 . S
C1298 C1303 1.304 . S
C1298 O1336 1.435 . S
C1299 C1298 1.309 . S
C1299 C1300 1.477 . S
C1299 H1363 0.930 1_655 S
C1300 C1299 1.477 . S
C1300 C1301 1.401 . S
C1300 C1304 1.565 1_655 S
C1301 C1300 1.401 . S
C1301 C1302 1.373 . S
C1301 C1323 1.432 . S
C1302 C1301 1.373 . S
C1302 C1303 1.339 . S
C1302 C1305 1.530 . S
C1303 C1298 1.304 . S
C1303 C1302 1.339 . S
C1303 H1364 0.930 . S
C1304 C1300 1.565 1_455 S
C1304 H1365 0.961 . S
C1304 H1366 0.960 . S
C1304 H1367 0.958 . S
C1305 C1302 1.530 . S
C1305 H1368 0.961 . S
C1305 H1369 0.960 . S
C1305 H1370 0.960 . S
C1306 C1307 1.532 . S
C1306 H1372 0.961 . S
C1306 H1373 0.961 . S
C1306 H1374 0.959 . S
C1307 C1306 1.532 . S
C1307 O1335 1.412 . S
C1307 H1371 0.980 1_455 S
C1308 C1309 1.288 . S
C1308 C1313 1.377 1_455 S
C1308 O1335 1.393 . S
C1309 C1308 1.288 . S
C1309 C1310 1.369 . S
C1309 H1375 0.932 . S
C1310 C1309 1.369 . S
C1310 C1311 1.398 1_455 S
C1310 C1314 1.527 . S
C1311 C1310 1.398 1_655 S
C1311 C1312 1.380 . S
C1311 C1325 1.497 . S
C1312 C1311 1.380 . S
C1312 C1313 1.383 . S
C1312 C1315 1.603 . S
C1313 C1308 1.377 1_655 S
C1313 C1312 1.383 . S
C1313 H1376 0.929 . S
C1314 C1310 1.527 . S
C1314 H1377 0.961 . S
C1314 H1378 0.959 . S
C1314 H1379 0.959 . S
C1315 C1312 1.603 . S
C1315 H1380 0.960 . S
C1315 H1381 0.962 . S
C1315 H1382 0.961 . S
C1316 C1283 1.587 1_655 S
C1316 C1317 1.360 . S
C1316 C1329 1.412 . S
C1317 C1316 1.360 . S
C1317 C1318 1.365 . S
C1317 H1383 0.929 . S
C1318 C1293 1.553 . S
C1318 C1317 1.365 . S
C1318 C1319 1.404 . S
C1319 C1318 1.404 . S
C1319 C1320 1.395 . S
C1319 C1330 1.451 . S
C1320 C1319 1.395 . S
C1320 C1321 1.322 . S
C1320 H1384 0.930 . S
C1321 C1320 1.322 . S
C1321 C1322 1.459 . S
C1321 H1385 0.929 . S
C1322 C1321 1.459 . S
C1322 C1323 1.445 . S
C1322 C1331 1.395 . S
C1323 C1301 1.432 . S
C1323 C1322 1.445 . S
C1323 C1324 1.370 . S
C1324 C1323 1.370 . S
C1324 C1325 1.438 . S
C1324 H1386 0.930 . S
C1325 C1311 1.497 . S
C1325 C1324 1.438 . S
C1325 C1326 1.360 . S
C1326 C1325 1.360 . S
C1326 C1327 1.401 . S
C1326 C1331 1.446 . S
C1327 C1326 1.401 . S
C1327 C1328 1.347 . S
C1327 H1387 0.929 . S
C1328 C1327 1.347 . S
C1328 C1329 1.455 . S
C1328 H1388 0.930 . S
C1329 C1316 1.412 . S
C1329 C1328 1.455 . S
C1329 C1330 1.331 . S
C1330 C1319 1.451 . S
C1330 C1329 1.331 . S
C1330 C1331 1.497 . S
C1331 C1322 1.395 . S
C1331 C1326 1.446 . S
C1331 C1330 1.497 . S
C1332 C1333 1.582 . S
C1332 H1389 0.962 . S
C1332 H1390 0.959 . S
C1332 H1391 0.958 . S
C1333 C1332 1.582 . S
C1333 O1336 1.458 . S
C1333 H1362 0.980 . S
O1334 C1279 1.426 . S
O1334 C1280 1.334 . S
O1335 C1307 1.412 . S
O1335 C1308 1.393 . S
O1336 C1298 1.435 . S
O1336 C1333 1.458 . S
O1337 C1289 1.468 . S
O1337 C1290 1.408 . S
H1338 C1279 0.980 . S
H1339 C1278 0.959 . S
H1340 C1278 0.959 . S
H1341 C1278 0.960 . S
H1342 C1281 0.929 . S
H1343 C1285 0.929 . S
H1344 C1286 0.959 . S
H1345 C1286 0.961 . S
H1346 C1286 0.961 . S
H1347 C1287 0.960 . S
H1348 C1287 0.960 . S
H1349 C1287 0.961 . S
H1350 C1289 0.980 1_455 S
H1351 C1288 0.961 . S
H1352 C1288 0.960 . S
H1353 C1288 0.959 . S
H1354 C1291 0.930 1_455 S
H1355 C1295 0.931 . S
H1356 C1296 0.959 . S
H1357 C1296 0.961 . S
H1358 C1296 0.959 . S
H1359 C1297 0.960 . S
H1360 C1297 0.960 . S
H1361 C1297 0.960 . S
H1362 C1333 0.980 . S
H1363 C1299 0.930 1_455 S
H1364 C1303 0.930 . S
H1365 C1304 0.961 . S
H1366 C1304 0.960 . S
H1367 C1304 0.958 . S
H1368 C1305 0.961 . S
H1369 C1305 0.960 . S
H1370 C1305 0.960 . S
H1371 C1307 0.980 1_655 S
H1372 C1306 0.961 . S
H1373 C1306 0.961 . S
H1374 C1306 0.959 . S
H1375 C1309 0.932 . S
H1376 C1313 0.929 . S
H1377 C1314 0.961 . S
H1378 C1314 0.959 . S
H1379 C1314 0.959 . S
H1380 C1315 0.960 . S
H1381 C1315 0.962 . S
H1382 C1315 0.961 . S
H1383 C1317 0.929 . S
H1384 C1320 0.930 . S
H1385 C1321 0.929 . S
H1386 C1324 0.930 . S
H1387 C1327 0.929 . S
H1388 C1328 0.930 . S
H1389 C1332 0.962 . S
H1390 C1332 0.959 . S
H1391 C1332 0.958 . S
C1392 C1393 1.560 . S
C1392 H1453 0.959 . S
C1392 H1454 0.959 . S
C1392 H1455 0.960 . S
C1393 C1392 1.560 . S
C1393 O1448 1.426 . S
C1393 H1452 0.980 . S
C1394 C1395 1.407 . S
C1394 C1399 1.418 . S
C1394 O1448 1.334 . S
C1395 C1394 1.407 . S
C1395 C1396 1.360 . S
C1395 H1456 0.929 . S
C1396 C1395 1.360 . S
C1396 C1397 1.401 . S
C1396 C1400 1.527 . S
C1397 C1396 1.401 . S
C1397 C1398 1.405 . S
C1397 C1430 1.587 . S
C1398 C1397 1.405 . S
C1398 C1399 1.332 . S
C1398 C1401 1.496 . S
C1399 C1394 1.418 . S
C1399 C1398 1.332 . S
C1399 H1457 0.929 . S
C1400 C1396 1.527 . S
C1400 H1458 0.959 . S
C1400 H1459 0.961 . S
C1400 H1460 0.961 . S
C1401 C1398 1.496 . S
C1401 H1461 0.960 . S
C1401 H1462 0.960 . S
C1401 H1463 0.961 . S
C1402 C1403 1.517 . S
C1402 H1465 0.961 . S
C1402 H1466 0.960 . S
C1402 H1467 0.959 . S
C1403 C1402 1.517 . S
C1403 O1451 1.468 . S
C1403 H1464 0.980 . S
C1404 C1405 1.349 . S
C1404 C1409 1.367 . S
C1404 O1451 1.408 . S
C1405 C1404 1.349 . S
C1405 C1406 1.407 . S
C1405 H1468 0.930 . S
C1406 C1405 1.407 . S
C1406 C1407 1.449 . S
C1406 C1410 1.535 . S
C1407 C1406 1.449 . S
C1407 C1408 1.384 . S
C1407 C1432 1.553 . S
C1408 C1407 1.384 . S
C1408 C1409 1.364 . S
C1408 C1411 1.450 . S
C1409 C1404 1.367 . S
C1409 C1408 1.364 . S
C1409 H1469 0.931 . S
C1410 C1406 1.535 . S
C1410 H1470 0.959 . S
C1410 H1471 0.961 . S
C1410 H1472 0.959 . S
C1411 C1408 1.450 . S
C1411 H1473 0.960 . S
C1411 H1474 0.960 . S
C1411 H1475 0.960 . S
C1412 C1413 1.309 . S
C1412 C1417 1.304 . S
C1412 O1450 1.435 . S
C1413 C1412 1.309 . S
C1413 C1414 1.476 . S
C1413 H1477 0.930 . S
C1414 C1413 1.476 . S
C1414 C1415 1.400 . S
C1414 C1418 1.567 . S
C1415 C1414 1.400 . S
C1415 C1416 1.373 . S
C1415 C1437 1.432 . S
C1416 C1415 1.373 . S
C1416 C1417 1.339 . S
C1416 C1419 1.530 . S
C1417 C1412 1.304 . S
C1417 C1416 1.339 . S
C1417 H1478 0.930 . S
C1418 C1414 1.567 . S
C1418 H1479 0.961 . S
C1418 H1480 0.960 . S
C1418 H1481 0.958 . S
C1419 C1416 1.530 . S
C1419 H1482 0.961 . S
C1419 H1483 0.960 . S
C1419 H1484 0.960 . S
C1420 C1421 1.530 . S
C1420 H1486 0.961 . S
C1420 H1487 0.961 . S
C1420 H1488 0.959 . S
C1421 C1420 1.530 . S
C1421 O1449 1.412 . S
C1421 H1485 0.980 . S
C1422 C1423 1.288 . S
C1422 C1427 1.377 . S
C1422 O1449 1.393 . S
C1423 C1422 1.288 . S
C1423 C1424 1.369 . S
C1423 H1489 0.932 . S
C1424 C1423 1.369 . S
C1424 C1425 1.398 . S
C1424 C1428 1.527 . S
C1425 C1424 1.398 . S
C1425 C1426 1.380 . S
C1425 C1439 1.497 . S
C1426 C1425 1.380 . S
C1426 C1427 1.383 . S
C1426 C1429 1.603 . S
C1427 C1422 1.377 . S
C1427 C1426 1.383 . S
C1427 H1490 0.929 . S
C1428 C1424 1.527 . S
C1428 H1491 0.961 . S
C1428 H1492 0.959 . S
C1428 H1493 0.959 . S
C1429 C1426 1.603 . S
C1429 H1494 0.960 . S
C1429 H1495 0.962 . S
C1429 H1496 0.961 . S
C1430 C1397 1.587 . S
C1430 C1431 1.360 . S
C1430 C1443 1.412 . S
C1431 C1430 1.360 . S
C1431 C1432 1.365 . S
C1431 H1497 0.929 . S
C1432 C1407 1.553 . S
C1432 C1431 1.365 . S
C1432 C1433 1.404 . S
C1433 C1432 1.404 . S
C1433 C1434 1.395 . S
C1433 C1444 1.451 . S
C1434 C1433 1.395 . S
C1434 C1435 1.322 . S
C1434 H1498 0.930 . S
C1435 C1434 1.322 . S
C1435 C1436 1.459 . S
C1435 H1499 0.929 . S
C1436 C1435 1.459 . S
C1436 C1437 1.445 . S
C1436 C1445 1.395 . S
C1437 C1415 1.432 . S
C1437 C1436 1.445 . S
C1437 C1438 1.370 . S
C1438 C1437 1.370 . S
C1438 C1439 1.438 . S
C1438 H1500 0.930 . S
C1439 C1425 1.497 . S
C1439 C1438 1.438 . S
C1439 C1440 1.360 . S
C1440 C1439 1.360 . S
C1440 C1441 1.401 . S
C1440 C1445 1.446 . S
C1441 C1440 1.401 . S
C1441 C1442 1.347 . S
C1441 H1501 0.929 . S
C1442 C1441 1.347 . S
C1442 C1443 1.455 . S
C1442 H1502 0.930 . S
C1443 C1430 1.412 . S
C1443 C1442 1.455 . S
C1443 C1444 1.331 . S
C1444 C1433 1.451 . S
C1444 C1443 1.331 . S
C1444 C1445 1.497 . S
C1445 C1436 1.395 . S
C1445 C1440 1.446 . S
C1445 C1444 1.497 . S
C1446 C1447 1.582 . S
C1446 H1503 0.962 . S
C1446 H1504 0.959 . S
C1446 H1505 0.958 . S
C1447 C1446 1.582 . S
C1447 O1450 1.458 . S
C1447 H1476 0.980 . S
O1448 C1393 1.426 . S
O1448 C1394 1.334 . S
O1449 C1421 1.412 . S
O1449 C1422 1.393 . S
O1450 C1412 1.435 . S
O1450 C1447 1.458 . S
O1451 C1403 1.468 . S
O1451 C1404 1.408 . S
H1452 C1393 0.980 . S
H1453 C1392 0.959 . S
H1454 C1392 0.959 . S
H1455 C1392 0.960 . S
H1456 C1395 0.929 . S
H1457 C1399 0.929 . S
H1458 C1400 0.959 . S
H1459 C1400 0.961 . S
H1460 C1400 0.961 . S
H1461 C1401 0.960 . S
H1462 C1401 0.960 . S
H1463 C1401 0.961 . S
H1464 C1403 0.980 . S
H1465 C1402 0.961 . S
H1466 C1402 0.960 . S
H1467 C1402 0.959 . S
H1468 C1405 0.930 . S
H1469 C1409 0.931 . S
H1470 C1410 0.959 . S
H1471 C1410 0.961 . S
H1472 C1410 0.959 . S
H1473 C1411 0.960 . S
H1474 C1411 0.960 . S
H1475 C1411 0.960 . S
H1476 C1447 0.980 . S
H1477 C1413 0.930 . S
H1478 C1417 0.930 . S
H1479 C1418 0.961 . S
H1480 C1418 0.960 . S
H1481 C1418 0.958 . S
H1482 C1419 0.961 . S
H1483 C1419 0.960 . S
H1484 C1419 0.960 . S
H1485 C1421 0.980 . S
H1486 C1420 0.961 . S
H1487 C1420 0.961 . S
H1488 C1420 0.959 . S
H1489 C1423 0.932 . S
H1490 C1427 0.929 . S
H1491 C1428 0.961 . S
H1492 C1428 0.959 . S
H1493 C1428 0.959 . S
H1494 C1429 0.960 . S
H1495 C1429 0.962 . S
H1496 C1429 0.961 . S
H1497 C1431 0.929 . S
H1498 C1434 0.930 . S
H1499 C1435 0.929 . S
H1500 C1438 0.930 . S
H1501 C1441 0.929 . S
H1502 C1442 0.930 . S
H1503 C1446 0.962 . S
H1504 C1446 0.959 . S
H1505 C1446 0.958 . S
C1506 C1507 1.560 . S
C1506 H1567 0.959 . S
C1506 H1568 0.959 . S
C1506 H1569 0.960 . S
C1507 C1506 1.560 . S
C1507 O1562 1.426 . S
C1507 H1566 0.980 . S
C1508 C1509 1.407 1_565 S
C1508 C1513 1.418 . S
C1508 O1562 1.334 . S
C1509 C1508 1.407 1_545 S
C1509 C1510 1.360 . S
C1509 H1570 0.929 . S
C1510 C1509 1.360 . S
C1510 C1511 1.401 1_545 S
C1510 C1514 1.527 . S
C1511 C1510 1.401 1_565 S
C1511 C1512 1.405 . S
C1511 C1544 1.587 1_565 S
C1512 C1511 1.405 . S
C1512 C1513 1.332 . S
C1512 C1515 1.496 . S
C1513 C1508 1.418 . S
C1513 C1512 1.332 . S
C1513 H1571 0.929 . S
C1514 C1510 1.527 . S
C1514 H1572 0.959 . S
C1514 H1573 0.961 . S
C1514 H1574 0.961 . S
C1515 C1512 1.496 . S
C1515 H1575 0.960 . S
C1515 H1576 0.960 . S
C1515 H1577 0.961 . S
C1516 C1517 1.517 . S
C1516 H1579 0.961 1_545 S
C1516 H1580 0.960 . S
C1516 H1581 0.959 . S
C1517 C1516 1.517 . S
C1517 O1565 1.468 . S
C1517 H1578 0.980 1_545 S
C1518 C1519 1.367 . S
C1518 C1523 1.367 . S
C1518 O1565 1.408 . S
C1519 C1518 1.367 . S
C1519 C1520 1.419 1_545 S
C1519 H1582 0.900 1_545 S
C1520 C1519 1.419 1_565 S
C1520 C1521 1.449 1_565 S
C1520 C1524 1.535 . S
C1521 C1520 1.449 1_545 S
C1521 C1522 1.384 . S
C1521 C1546 1.553 . S
C1522 C1521 1.384 . S
C1522 C1523 1.364 . S
C1522 C1525 1.450 . S
C1523 C1518 1.367 . S
C1523 C1522 1.364 . S
C1523 H1583 0.931 . S
C1524 C1520 1.535 . S
C1524 H1584 0.959 . S
C1524 H1585 0.961 . S
C1524 H1586 0.959 . S
C1525 C1522 1.450 . S
C1525 H1587 0.960 . S
C1525 H1588 0.960 . S
C1525 H1589 0.960 . S
C1526 C1527 1.309 . S
C1526 C1531 1.304 . S
C1526 O1564 1.435 . S
C1527 C1526 1.309 . S
C1527 C1528 1.492 1_545 S
C1527 H1591 0.930 1_545 S
C1528 C1527 1.492 1_565 S
C1528 C1529 1.349 1_565 S
C1528 C1532 1.602 . S
C1529 C1528 1.349 1_545 S
C1529 C1530 1.373 . S
C1529 C1551 1.432 . S
C1530 C1529 1.373 . S
C1530 C1531 1.339 . S
C1530 C1533 1.530 . S
C1531 C1526 1.304 . S
C1531 C1530 1.339 . S
C1531 H1592 0.930 . S
C1532 C1528 1.602 . S
C1532 H1593 0.961 . S
C1532 H1594 0.960 . S
C1532 H1595 0.958 . S
C1533 C1530 1.530 . S
C1533 H1596 0.961 . S
C1533 H1597 0.960 . S
C1533 H1598 0.960 . S
C1534 C1535 1.530 1_565 S
C1534 H1600 0.961 . S
C1534 H1601 0.961 . S
C1534 H1602 0.959 . S
C1535 C1534 1.530 1_545 S
C1535 O1563 1.412 1_545 S
C1535 H1599 0.980 . S
C1536 C1537 1.288 . S
C1536 C1541 1.377 1_565 S
C1536 O1563 1.393 . S
C1537 C1536 1.288 . S
C1537 C1538 1.369 . S
C1537 H1603 0.932 . S
C1538 C1537 1.369 . S
C1538 C1539 1.398 1_565 S
C1538 C1542 1.527 . S
C1539 C1538 1.398 1_545 S
C1539 C1540 1.380 . S
C1539 C1553 1.497 . S
C1540 C1539 1.380 . S
C1540 C1541 1.383 . S
C1540 C1543 1.603 . S
C1541 C1536 1.377 1_545 S
C1541 C1540 1.383 . S
C1541 H1604 0.929 . S
C1542 C1538 1.527 . S
C1542 H1605 0.961 . S
C1542 H1606 0.959 . S
C1542 H1607 0.959 . S
C1543 C1540 1.603 . S
C1543 H1608 0.960 . S
C1543 H1609 0.962 . S
C1543 H1610 0.961 . S
C1544 C1511 1.587 1_545 S
C1544 C1545 1.360 . S
C1544 C1557 1.412 . S
C1545 C1544 1.360 . S
C1545 C1546 1.365 . S
C1545 H1611 0.929 . S
C1546 C1521 1.553 . S
C1546 C1545 1.365 . S
C1546 C1547 1.404 . S
C1547 C1546 1.404 . S
C1547 C1548 1.395 . S
C1547 C1558 1.451 . S
C1548 C1547 1.395 . S
C1548 C1549 1.322 . S
C1548 H1612 0.930 . S
C1549 C1548 1.322 . S
C1549 C1550 1.459 . S
C1549 H1613 0.929 . S
C1550 C1549 1.459 . S
C1550 C1551 1.445 . S
C1550 C1559 1.395 . S
C1551 C1529 1.432 . S
C1551 C1550 1.445 . S
C1551 C1552 1.370 . S
C1552 C1551 1.370 . S
C1552 C1553 1.438 . S
C1552 H1614 0.930 . S
C1553 C1539 1.497 . S
C1553 C1552 1.438 . S
C1553 C1554 1.360 . S
C1554 C1553 1.360 . S
C1554 C1555 1.401 . S
C1554 C1559 1.446 . S
C1555 C1554 1.401 . S
C1555 C1556 1.347 . S
C1555 H1615 0.929 . S
C1556 C1555 1.347 . S
C1556 C1557 1.455 . S
C1556 H1616 0.930 . S
C1557 C1544 1.412 . S
C1557 C1556 1.455 . S
C1557 C1558 1.331 . S
C1558 C1547 1.451 . S
C1558 C1557 1.331 . S
C1558 C1559 1.497 . S
C1559 C1550 1.395 . S
C1559 C1554 1.446 . S
C1559 C1558 1.497 . S
C1560 C1561 1.582 . S
C1560 H1617 0.962 . S
C1560 H1618 0.959 . S
C1560 H1619 0.958 . S
C1561 C1560 1.582 . S
C1561 O1564 1.458 . S
C1561 H1590 0.980 . S
O1562 C1507 1.426 . S
O1562 C1508 1.334 . S
O1563 C1535 1.412 1_565 S
O1563 C1536 1.393 . S
O1564 C1526 1.435 . S
O1564 C1561 1.458 . S
O1565 C1517 1.468 . S
O1565 C1518 1.408 . S
H1566 C1507 0.980 . S
H1567 C1506 0.959 . S
H1568 C1506 0.959 . S
H1569 C1506 0.960 . S
H1570 C1509 0.929 . S
H1571 C1513 0.929 . S
H1572 C1514 0.959 . S
H1573 C1514 0.961 . S
H1574 C1514 0.961 . S
H1575 C1515 0.960 . S
H1576 C1515 0.960 . S
H1577 C1515 0.961 . S
H1578 C1517 0.980 1_565 S
H1579 C1516 0.961 1_565 S
H1580 C1516 0.960 . S
H1581 C1516 0.959 . S
H1582 C1519 0.900 1_565 S
H1583 C1523 0.931 . S
H1584 C1524 0.959 . S
H1585 C1524 0.961 . S
H1586 C1524 0.959 . S
H1587 C1525 0.960 . S
H1588 C1525 0.960 . S
H1589 C1525 0.960 . S
H1590 C1561 0.980 . S
H1591 C1527 0.930 1_565 S
H1592 C1531 0.930 . S
H1593 C1532 0.961 . S
H1594 C1532 0.960 . S
H1595 C1532 0.958 . S
H1596 C1533 0.961 . S
H1597 C1533 0.960 . S
H1598 C1533 0.960 . S
H1599 C1535 0.980 . S
H1600 C1534 0.961 . S
H1601 C1534 0.961 . S
H1602 C1534 0.959 . S
H1603 C1537 0.932 . S
H1604 C1541 0.929 . S
H1605 C1542 0.961 . S
H1606 C1542 0.959 . S
H1607 C1542 0.959 . S
H1608 C1543 0.960 . S
H1609 C1543 0.962 . S
H1610 C1543 0.961 . S
H1611 C1545 0.929 . S
H1612 C1548 0.930 . S
H1613 C1549 0.929 . S
H1614 C1552 0.930 . S
H1615 C1555 0.929 . S
H1616 C1556 0.930 . S
H1617 C1560 0.962 . S
H1618 C1560 0.959 . S
H1619 C1560 0.958 . S
C1620 C1621 1.560 . S
C1620 H1681 0.959 . S
C1620 H1682 0.959 . S
C1620 H1683 0.960 . S
C1621 C1620 1.560 . S
C1621 O1676 1.426 . S
C1621 H1680 0.980 1_565 S
C1622 C1623 1.407 1_565 S
C1622 C1627 1.418 . S
C1622 O1676 1.334 . S
C1623 C1622 1.407 1_545 S
C1623 C1624 1.360 . S
C1623 H1684 0.929 . S
C1624 C1623 1.360 . S
C1624 C1625 1.401 . S
C1624 C1628 1.527 . S
C1625 C1624 1.401 . S
C1625 C1626 1.405 1_545 S
C1625 C1658 1.587 . S
C1626 C1625 1.405 1_565 S
C1626 C1627 1.332 . S
C1626 C1629 1.496 . S
C1627 C1622 1.418 . S
C1627 C1626 1.332 . S
C1627 H1685 0.929 . S
C1628 C1624 1.527 . S
C1628 H1686 0.959 . S
C1628 H1687 0.961 . S
C1628 H1688 0.961 . S
C1629 C1626 1.496 . S
C1629 H1689 0.960 . S
C1629 H1690 0.960 . S
C1629 H1691 0.961 . S
C1630 C1631 1.517 . S
C1630 H1693 0.961 . S
C1630 H1694 0.960 . S
C1630 H1695 0.959 . S
C1631 C1630 1.517 . S
C1631 O1679 1.468 . S
C1631 H1692 0.980 . S
C1632 C1633 1.349 . S
C1632 C1637 1.367 . S
C1632 O1679 1.408 . S
C1633 C1632 1.349 . S
C1633 C1634 1.407 . S
C1633 H1696 0.932 . S
C1634 C1633 1.407 . S
C1634 C1635 1.449 . S
C1634 C1638 1.535 1_545 S
C1635 C1634 1.449 . S
C1635 C1636 1.384 . S
C1635 C1660 1.553 . S
C1636 C1635 1.384 . S
C1636 C1637 1.364 . S
C1636 C1639 1.450 . S
C1637 C1632 1.367 . S
C1637 C1636 1.364 . S
C1637 H1697 0.931 . S
C1638 C1634 1.535 1_565 S
C1638 H1698 0.959 . S
C1638 H1699 0.961 . S
C1638 H1700 0.959 . S
C1639 C1636 1.450 . S
C1639 H1701 0.960 . S
C1639 H1702 0.960 . S
C1639 H1703 0.960 . S
C1640 C1641 1.309 1_545 S
C1640 C1645 1.304 . S
C1640 O1678 1.435 . S
C1641 C1640 1.309 1_565 S
C1641 C1642 1.476 . S
C1641 H1705 0.930 . S
C1642 C1641 1.476 . S
C1642 C1643 1.400 1_565 S
C1642 C1646 1.567 . S
C1643 C1642 1.400 1_545 S
C1643 C1644 1.373 . S
C1643 C1665 1.432 . S
C1644 C1643 1.373 . S
C1644 C1645 1.339 . S
C1644 C1647 1.530 . S
C1645 C1640 1.304 . S
C1645 C1644 1.339 . S
C1645 H1706 0.930 . S
C1646 C1642 1.567 . S
C1646 H1707 0.961 . S
C1646 H1708 0.960 . S
C1646 H1709 0.958 . S
C1647 C1644 1.530 . S
C1647 H1710 0.961 . S
C1647 H1711 0.960 . S
C1647 H1712 0.960 . S
C1648 C1649 1.530 . S
C1648 H1714 0.961 . S
C1648 H1715 0.961 . S
C1648 H1716 0.959 . S
C1649 C1648 1.530 . S
C1649 O1677 1.412 . S
C1649 H1713 0.980 . S
C1650 C1651 1.288 . S
C1650 C1655 1.377 1_565 S
C1650 O1677 1.393 . S
C1651 C1650 1.288 . S
C1651 C1652 1.369 . S
C1651 H1717 0.932 . S
C1652 C1651 1.369 . S
C1652 C1653 1.398 . S
C1652 C1656 1.527 . S
C1653 C1652 1.398 . S
C1653 C1654 1.380 1_565 S
C1653 C1667 1.497 1_565 S
C1654 C1653 1.380 1_545 S
C1654 C1655 1.383 . S
C1654 C1657 1.603 . S
C1655 C1650 1.377 1_545 S
C1655 C1654 1.383 . S
C1655 H1718 0.929 . S
C1656 C1652 1.527 . S
C1656 H1719 0.961 . S
C1656 H1720 0.959 . S
C1656 H1721 0.959 . S
C1657 C1654 1.603 . S
C1657 H1722 0.960 . S
C1657 H1723 0.962 . S
C1657 H1724 0.961 . S
C1658 C1625 1.587 . S
C1658 C1659 1.360 . S
C1658 C1671 1.412 . S
C1659 C1658 1.360 . S
C1659 C1660 1.365 . S
C1659 H1725 0.929 . S
C1660 C1635 1.553 . S
C1660 C1659 1.365 . S
C1660 C1661 1.404 . S
C1661 C1660 1.404 . S
C1661 C1662 1.395 . S
C1661 C1672 1.451 . S
C1662 C1661 1.395 . S
C1662 C1663 1.322 . S
C1662 H1726 0.930 . S
C1663 C1662 1.322 . S
C1663 C1664 1.459 . S
C1663 H1727 0.929 . S
C1664 C1663 1.459 . S
C1664 C1665 1.445 . S
C1664 C1673 1.395 . S
C1665 C1643 1.432 . S
C1665 C1664 1.445 . S
C1665 C1666 1.370 . S
C1666 C1665 1.370 . S
C1666 C1667 1.438 . S
C1666 H1728 0.930 . S
C1667 C1653 1.497 1_545 S
C1667 C1666 1.438 . S
C1667 C1668 1.360 . S
C1668 C1667 1.360 . S
C1668 C1669 1.401 . S
C1668 C1673 1.446 . S
C1669 C1668 1.401 . S
C1669 C1670 1.347 . S
C1669 H1729 0.955 . S
C1670 C1669 1.347 . S
C1670 C1671 1.455 . S
C1670 H1730 0.930 . S
C1671 C1658 1.412 . S
C1671 C1670 1.455 . S
C1671 C1672 1.331 . S
C1672 C1661 1.451 . S
C1672 C1671 1.331 . S
C1672 C1673 1.497 . S
C1673 C1664 1.395 . S
C1673 C1668 1.446 . S
C1673 C1672 1.497 . S
C1674 C1675 1.582 . S
C1674 H1731 0.962 . S
C1674 H1732 0.959 . S
C1674 H1733 0.958 . S
C1675 C1674 1.582 . S
C1675 O1678 1.458 . S
C1675 H1704 0.980 1_545 S
O1676 C1621 1.426 . S
O1676 C1622 1.334 . S
O1677 C1649 1.412 . S
O1677 C1650 1.393 . S
O1678 C1640 1.435 . S
O1678 C1675 1.458 . S
O1679 C1631 1.468 . S
O1679 C1632 1.408 . S
H1680 C1621 0.980 1_545 S
H1681 C1620 0.959 . S
H1682 C1620 0.959 . S
H1683 C1620 0.960 . S
H1684 C1623 0.929 . S
H1685 C1627 0.929 . S
H1686 C1628 0.959 . S
H1687 C1628 0.961 . S
H1688 C1628 0.961 . S
H1689 C1629 0.960 . S
H1690 C1629 0.960 . S
H1691 C1629 0.961 . S
H1692 C1631 0.980 . S
H1693 C1630 0.961 . S
H1694 C1630 0.960 . S
H1695 C1630 0.959 . S
H1696 C1633 0.932 . S
H1697 C1637 0.931 . S
H1698 C1638 0.959 . S
H1699 C1638 0.961 . S
H1700 C1638 0.959 . S
H1701 C1639 0.960 . S
H1702 C1639 0.960 . S
H1703 C1639 0.960 . S
H1704 C1675 0.980 1_565 S
H1705 C1641 0.930 . S
H1706 C1645 0.930 . S
H1707 C1646 0.961 . S
H1708 C1646 0.960 . S
H1709 C1646 0.958 . S
H1710 C1647 0.961 . S
H1711 C1647 0.960 . S
H1712 C1647 0.960 . S
H1713 C1649 0.980 . S
H1714 C1648 0.961 . S
H1715 C1648 0.961 . S
H1716 C1648 0.959 . S
H1717 C1651 0.932 . S
H1718 C1655 0.929 . S
H1719 C1656 0.961 . S
H1720 C1656 0.959 . S
H1721 C1656 0.959 . S
H1722 C1657 0.960 . S
H1723 C1657 0.962 . S
H1724 C1657 0.961 . S
H1725 C1659 0.929 . S
H1726 C1662 0.930 . S
H1727 C1663 0.929 . S
H1728 C1666 0.930 . S
H1729 C1669 0.955 . S
H1730 C1670 0.930 . S
H1731 C1674 0.962 . S
H1732 C1674 0.959 . S
H1733 C1674 0.958 . S
C1734 C1735 1.560 . S
C1734 H1795 0.959 . S
C1734 H1796 0.959 . S
C1734 H1797 0.960 . S
C1735 C1734 1.560 . S
C1735 O1790 1.426 . S
C1735 H1794 0.980 1_455 S
C1736 C1737 1.407 1_455 S
C1736 C1741 1.418 . S
C1736 O1790 1.334 . S
C1737 C1736 1.407 1_655 S
C1737 C1738 1.360 . S
C1737 H1798 0.929 . S
C1738 C1737 1.360 . S
C1738 C1739 1.401 . S
C1738 C1742 1.527 . S
C1739 C1738 1.401 . S
C1739 C1740 1.405 1_655 S
C1739 C1772 1.587 . S
C1740 C1739 1.405 1_455 S
C1740 C1741 1.332 . S
C1740 C1743 1.496 . S
C1741 C1736 1.418 . S
C1741 C1740 1.332 . S
C1741 H1799 0.929 . S
C1742 C1738 1.527 . S
C1742 H1800 0.959 . S
C1742 H1801 0.961 . S
C1742 H1802 0.961 . S
C1743 C1740 1.496 . S
C1743 H1803 0.960 . S
C1743 H1804 0.960 . S
C1743 H1805 0.961 . S
C1744 C1745 1.517 . S
C1744 H1807 0.961 . S
C1744 H1808 0.960 . S
C1744 H1809 0.959 . S
C1745 C1744 1.517 . S
C1745 O1793 1.468 . S
C1745 H1806 0.980 . S
C1746 C1747 1.349 . S
C1746 C1751 1.367 . S
C1746 O1793 1.408 . S
C1747 C1746 1.349 . S
C1747 C1748 1.407 . S
C1747 H1810 0.902 1_655 S
C1748 C1747 1.407 . S
C1748 C1749 1.449 . S
C1748 C1752 1.535 1_655 S
C1749 C1748 1.449 . S
C1749 C1750 1.384 . S
C1749 C1774 1.553 . S
C1750 C1749 1.384 . S
C1750 C1751 1.364 . S
C1750 C1753 1.450 . S
C1751 C1746 1.367 . S
C1751 C1750 1.364 . S
C1751 H1811 0.931 . S
C1752 C1748 1.535 1_455 S
C1752 H1812 0.959 . S
C1752 H1813 0.961 . S
C1752 H1814 0.959 . S
C1753 C1750 1.450 . S
C1753 H1815 0.960 . S
C1753 H1816 0.960 . S
C1753 H1817 0.960 . S
C1754 C1755 1.309 1_655 S
C1754 C1759 1.304 . S
C1754 O1792 1.435 . S
C1755 C1754 1.309 1_455 S
C1755 C1756 1.476 . S
C1755 H1819 0.930 . S
C1756 C1755 1.476 . S
C1756 C1757 1.400 1_455 S
C1756 C1760 1.567 . S
C1757 C1756 1.400 1_655 S
C1757 C1758 1.373 . S
C1757 C1779 1.432 . S
C1758 C1757 1.373 . S
C1758 C1759 1.339 . S
C1758 C1761 1.530 . S
C1759 C1754 1.304 . S
C1759 C1758 1.339 . S
C1759 H1820 0.930 . S
C1760 C1756 1.567 . S
C1760 H1821 0.961 . S
C1760 H1822 0.960 . S
C1760 H1823 0.958 . S
C1761 C1758 1.530 . S
C1761 H1824 0.961 . S
C1761 H1825 0.960 . S
C1761 H1826 0.960 . S
C1762 C1763 1.530 . S
C1762 H1828 0.961 . S
C1762 H1829 0.961 . S
C1762 H1830 0.959 . S
C1763 C1762 1.530 . S
C1763 O1791 1.412 . S
C1763 H1827 0.972 1_455 S
C1764 C1765 1.288 . S
C1764 C1769 1.377 1_455 S
C1764 O1791 1.393 . S
C1765 C1764 1.288 . S
C1765 C1766 1.369 . S
C1765 H1831 0.932 . S
C1766 C1765 1.369 . S
C1766 C1767 1.398 . S
C1766 C1770 1.527 . S
C1767 C1766 1.398 . S
C1767 C1768 1.380 1_455 S
C1767 C1781 1.497 1_455 S
C1768 C1767 1.380 1_655 S
C1768 C1769 1.383 . S
C1768 C1771 1.603 . S
C1769 C1764 1.377 1_655 S
C1769 C1768 1.383 . S
C1769 H1832 0.929 . S
C1770 C1766 1.527 . S
C1770 H1833 0.961 . S
C1770 H1834 0.959 . S
C1770 H1835 0.959 . S
C1771 C1768 1.603 . S
C1771 H1836 0.960 . S
C1771 H1837 0.962 . S
C1771 H1838 0.961 . S
C1772 C1739 1.587 . S
C1772 C1773 1.360 . S
C1772 C1785 1.412 . S
C1773 C1772 1.360 . S
C1773 C1774 1.365 . S
C1773 H1839 0.929 . S
C1774 C1749 1.553 . S
C1774 C1773 1.365 . S
C1774 C1775 1.404 . S
C1775 C1774 1.404 . S
C1775 C1776 1.395 . S
C1775 C1786 1.451 . S
C1776 C1775 1.395 . S
C1776 C1777 1.322 . S
C1776 H1840 0.930 . S
C1777 C1776 1.322 . S
C1777 C1778 1.459 . S
C1777 H1841 0.929 . S
C1778 C1777 1.459 . S
C1778 C1779 1.445 . S
C1778 C1787 1.395 . S
C1779 C1757 1.432 . S
C1779 C1778 1.445 . S
C1779 C1780 1.370 . S
C1780 C1779 1.370 . S
C1780 C1781 1.438 . S
C1780 H1842 0.930 . S
C1781 C1767 1.497 1_655 S
C1781 C1780 1.438 . S
C1781 C1782 1.360 . S
C1782 C1781 1.360 . S
C1782 C1783 1.401 . S
C1782 C1787 1.446 . S
C1783 C1782 1.401 . S
C1783 C1784 1.347 . S
C1783 H1843 0.929 . S
C1784 C1783 1.347 . S
C1784 C1785 1.455 . S
C1784 H1844 0.930 . S
C1785 C1772 1.412 . S
C1785 C1784 1.455 . S
C1785 C1786 1.331 . S
C1786 C1775 1.451 . S
C1786 C1785 1.331 . S
C1786 C1787 1.497 . S
C1787 C1778 1.395 . S
C1787 C1782 1.446 . S
C1787 C1786 1.497 . S
C1788 C1789 1.582 1_655 S
C1788 H1845 0.913 1_655 S
C1788 H1846 0.959 . S
C1788 H1847 0.958 . S
C1789 C1788 1.582 1_455 S
C1789 O1792 1.458 1_455 S
C1789 H1818 0.980 . S
O1790 C1735 1.426 . S
O1790 C1736 1.334 . S
O1791 C1763 1.412 . S
O1791 C1764 1.393 . S
O1792 C1754 1.435 . S
O1792 C1789 1.458 1_655 S
O1793 C1745 1.468 . S
O1793 C1746 1.408 . S
H1794 C1735 0.980 1_655 S
H1795 C1734 0.959 . S
H1796 C1734 0.959 . S
H1797 C1734 0.960 . S
H1798 C1737 0.929 . S
H1799 C1741 0.929 . S
H1800 C1742 0.959 . S
H1801 C1742 0.961 . S
H1802 C1742 0.961 . S
H1803 C1743 0.960 . S
H1804 C1743 0.960 . S
H1805 C1743 0.961 . S
H1806 C1745 0.980 . S
H1807 C1744 0.961 . S
H1808 C1744 0.960 . S
H1809 C1744 0.959 . S
H1810 C1747 0.902 1_455 S
H1811 C1751 0.931 . S
H1812 C1752 0.959 . S
H1813 C1752 0.961 . S
H1814 C1752 0.959 . S
H1815 C1753 0.960 . S
H1816 C1753 0.960 . S
H1817 C1753 0.960 . S
H1818 C1789 0.980 . S
H1819 C1755 0.930 . S
H1820 C1759 0.930 . S
H1821 C1760 0.961 . S
H1822 C1760 0.960 . S
H1823 C1760 0.958 . S
H1824 C1761 0.961 . S
H1825 C1761 0.960 . S
H1826 C1761 0.960 . S
H1827 C1763 0.972 1_655 S
H1828 C1762 0.961 . S
H1829 C1762 0.961 . S
H1830 C1762 0.959 . S
H1831 C1765 0.932 . S
H1832 C1769 0.929 . S
H1833 C1770 0.961 . S
H1834 C1770 0.959 . S
H1835 C1770 0.959 . S
H1836 C1771 0.960 . S
H1837 C1771 0.962 . S
H1838 C1771 0.961 . S
H1839 C1773 0.929 . S
H1840 C1776 0.930 . S
H1841 C1777 0.929 . S
H1842 C1780 0.930 . S
H1843 C1783 0.929 . S
H1844 C1784 0.930 . S
H1845 C1788 0.913 1_455 S
H1846 C1788 0.959 . S
H1847 C1788 0.958 . S
C1848 C1849 1.560 . S
C1848 H1909 0.959 . S
C1848 H1910 0.959 . S
C1848 H1911 0.960 . S
C1849 C1848 1.560 . S
C1849 O1904 1.426 . S
C1849 H1908 0.980 . S
C1850 C1851 1.407 . S
C1850 C1855 1.418 . S
C1850 O1904 1.334 . S
C1851 C1850 1.407 . S
C1851 C1852 1.360 . S
C1851 H1912 0.929 . S
C1852 C1851 1.360 . S
C1852 C1853 1.401 . S
C1852 C1856 1.527 . S
C1853 C1852 1.401 . S
C1853 C1854 1.405 . S
C1853 C1886 1.587 . S
C1854 C1853 1.405 . S
C1854 C1855 1.332 . S
C1854 C1857 1.496 . S
C1855 C1850 1.418 . S
C1855 C1854 1.332 . S
C1855 H1913 0.929 . S
C1856 C1852 1.527 . S
C1856 H1914 0.959 . S
C1856 H1915 0.961 . S
C1856 H1916 0.961 . S
C1857 C1854 1.496 . S
C1857 H1917 0.960 . S
C1857 H1918 0.960 . S
C1857 H1919 0.961 . S
C1858 C1859 1.517 . S
C1858 H1921 0.961 . S
C1858 H1922 0.960 . S
C1858 H1923 0.959 . S
C1859 C1858 1.517 . S
C1859 O1907 1.468 . S
C1859 H1920 0.980 . S
C1860 C1861 1.349 . S
C1860 C1865 1.367 . S
C1860 O1907 1.408 . S
C1861 C1860 1.349 . S
C1861 C1862 1.407 . S
C1861 H1924 0.930 . S
C1862 C1861 1.407 . S
C1862 C1863 1.449 . S
C1862 C1866 1.535 . S
C1863 C1862 1.449 . S
C1863 C1864 1.384 . S
C1863 C1888 1.553 . S
C1864 C1863 1.384 . S
C1864 C1865 1.364 . S
C1864 C1867 1.450 . S
C1865 C1860 1.367 . S
C1865 C1864 1.364 . S
C1865 H1925 0.931 . S
C1866 C1862 1.535 . S
C1866 H1926 0.959 . S
C1866 H1927 0.961 . S
C1866 H1928 0.959 . S
C1867 C1864 1.450 . S
C1867 H1929 0.960 . S
C1867 H1930 0.960 . S
C1867 H1931 0.960 . S
C1868 C1869 1.309 . S
C1868 C1873 1.304 . S
C1868 O1906 1.435 . S
C1869 C1868 1.309 . S
C1869 C1870 1.476 . S
C1869 H1933 0.930 . S
C1870 C1869 1.476 . S
C1870 C1871 1.400 . S
C1870 C1874 1.567 . S
C1871 C1870 1.400 . S
C1871 C1872 1.373 . S
C1871 C1893 1.432 . S
C1872 C1871 1.373 . S
C1872 C1873 1.339 . S
C1872 C1875 1.530 . S
C1873 C1868 1.304 . S
C1873 C1872 1.339 . S
C1873 H1934 0.930 . S
C1874 C1870 1.567 . S
C1874 H1935 0.961 . S
C1874 H1936 0.960 . S
C1874 H1937 0.958 . S
C1875 C1872 1.530 . S
C1875 H1938 0.961 . S
C1875 H1939 0.960 . S
C1875 H1940 0.960 . S
C1876 C1877 1.530 . S
C1876 H1942 0.961 . S
C1876 H1943 0.961 . S
C1876 H1944 0.959 . S
C1877 C1876 1.530 . S
C1877 O1905 1.412 . S
C1877 H1941 0.980 . S
C1878 C1879 1.288 . S
C1878 C1883 1.377 . S
C1878 O1905 1.393 . S
C1879 C1878 1.288 . S
C1879 C1880 1.369 . S
C1879 H1945 0.932 . S
C1880 C1879 1.369 . S
C1880 C1881 1.398 . S
C1880 C1884 1.527 . S
C1881 C1880 1.398 . S
C1881 C1882 1.380 . S
C1881 C1895 1.497 . S
C1882 C1881 1.380 . S
C1882 C1883 1.383 . S
C1882 C1885 1.603 . S
C1883 C1878 1.377 . S
C1883 C1882 1.383 . S
C1883 H1946 0.929 . S
C1884 C1880 1.527 . S
C1884 H1947 0.961 . S
C1884 H1948 0.959 . S
C1884 H1949 0.959 . S
C1885 C1882 1.603 . S
C1885 H1950 0.960 . S
C1885 H1951 0.962 . S
C1885 H1952 0.961 . S
C1886 C1853 1.587 . S
C1886 C1887 1.360 . S
C1886 C1899 1.412 . S
C1887 C1886 1.360 . S
C1887 C1888 1.365 . S
C1887 H1953 0.929 . S
C1888 C1863 1.553 . S
C1888 C1887 1.365 . S
C1888 C1889 1.404 . S
C1889 C1888 1.404 . S
C1889 C1890 1.395 . S
C1889 C1900 1.451 . S
C1890 C1889 1.395 . S
C1890 C1891 1.322 . S
C1890 H1954 0.930 . S
C1891 C1890 1.322 . S
C1891 C1892 1.459 . S
C1891 H1955 0.929 . S
C1892 C1891 1.459 . S
C1892 C1893 1.445 . S
C1892 C1901 1.395 . S
C1893 C1871 1.432 . S
C1893 C1892 1.445 . S
C1893 C1894 1.370 . S
C1894 C1893 1.370 . S
C1894 C1895 1.438 . S
C1894 H1956 0.930 . S
C1895 C1881 1.497 . S
C1895 C1894 1.438 . S
C1895 C1896 1.360 . S
C1896 C1895 1.360 . S
C1896 C1897 1.401 . S
C1896 C1901 1.446 . S
C1897 C1896 1.401 . S
C1897 C1898 1.347 . S
C1897 H1957 0.929 . S
C1898 C1897 1.347 . S
C1898 C1899 1.455 . S
C1898 H1958 0.930 . S
C1899 C1886 1.412 . S
C1899 C1898 1.455 . S
C1899 C1900 1.331 . S
C1900 C1889 1.451 . S
C1900 C1899 1.331 . S
C1900 C1901 1.497 . S
C1901 C1892 1.395 . S
C1901 C1896 1.446 . S
C1901 C1900 1.497 . S
C1902 C1903 1.582 . S
C1902 H1959 0.962 . S
C1902 H1960 0.959 . S
C1902 H1961 0.958 . S
C1903 C1902 1.582 . S
C1903 O1906 1.458 . S
C1903 H1932 0.980 . S
O1904 C1849 1.426 . S
O1904 C1850 1.334 . S
O1905 C1877 1.412 . S
O1905 C1878 1.393 . S
O1906 C1868 1.435 . S
O1906 C1903 1.458 . S
O1907 C1859 1.468 . S
O1907 C1860 1.408 . S
H1908 C1849 0.980 . S
H1909 C1848 0.959 . S
H1910 C1848 0.959 . S
H1911 C1848 0.960 . S
H1912 C1851 0.929 . S
H1913 C1855 0.929 . S
H1914 C1856 0.959 . S
H1915 C1856 0.961 . S
H1916 C1856 0.961 . S
H1917 C1857 0.960 . S
H1918 C1857 0.960 . S
H1919 C1857 0.961 . S
H1920 C1859 0.980 . S
H1921 C1858 0.961 . S
H1922 C1858 0.960 . S
H1923 C1858 0.959 . S
H1924 C1861 0.930 . S
H1925 C1865 0.931 . S
H1926 C1866 0.959 . S
H1927 C1866 0.961 . S
H1928 C1866 0.959 . S
H1929 C1867 0.960 . S
H1930 C1867 0.960 . S
H1931 C1867 0.960 . S
H1932 C1903 0.980 . S
H1933 C1869 0.930 . S
H1934 C1873 0.930 . S
H1935 C1874 0.961 . S
H1936 C1874 0.960 . S
H1937 C1874 0.958 . S
H1938 C1875 0.961 . S
H1939 C1875 0.960 . S
H1940 C1875 0.960 . S
H1941 C1877 0.980 . S
H1942 C1876 0.961 . S
H1943 C1876 0.961 . S
H1944 C1876 0.959 . S
H1945 C1879 0.932 . S
H1946 C1883 0.929 . S
H1947 C1884 0.961 . S
H1948 C1884 0.959 . S
H1949 C1884 0.959 . S
H1950 C1885 0.960 . S
H1951 C1885 0.962 . S
H1952 C1885 0.961 . S
H1953 C1887 0.929 . S
H1954 C1890 0.930 . S
H1955 C1891 0.929 . S
H1956 C1894 0.930 . S
H1957 C1897 0.929 . S
H1958 C1898 0.930 . S
H1959 C1902 0.962 . S
H1960 C1902 0.959 . S
H1961 C1902 0.958 . S
C1962 C1963 1.560 . S
C1962 H2023 0.959 . S
C1962 H2024 0.959 . S
C1962 H2025 0.960 . S
C1963 C1962 1.560 . S
C1963 O2018 1.426 . S
C1963 H2022 0.980 . S
C1964 C1965 1.407 . S
C1964 C1969 1.418 . S
C1964 O2018 1.334 . S
C1965 C1964 1.407 . S
C1965 C1966 1.360 . S
C1965 H2026 0.929 . S
C1966 C1965 1.360 . S
C1966 C1967 1.401 . S
C1966 C1970 1.527 . S
C1967 C1966 1.401 . S
C1967 C1968 1.405 . S
C1967 C2000 1.587 . S
C1968 C1967 1.405 . S
C1968 C1969 1.332 . S
C1968 C1971 1.496 . S
C1969 C1964 1.418 . S
C1969 C1968 1.332 . S
C1969 H2027 0.929 . S
C1970 C1966 1.527 . S
C1970 H2028 0.959 . S
C1970 H2029 0.961 . S
C1970 H2030 0.961 . S
C1971 C1968 1.496 . S
C1971 H2031 0.960 . S
C1971 H2032 0.960 . S
C1971 H2033 0.961 . S
C1972 C1973 1.517 . S
C1972 H2035 0.961 . S
C1972 H2036 0.960 . S
C1972 H2037 0.959 . S
C1973 C1972 1.517 . S
C1973 O2021 1.468 . S
C1973 H2034 0.980 . S
C1974 C1975 1.349 . S
C1974 C1979 1.367 . S
C1974 O2021 1.408 . S
C1975 C1974 1.349 . S
C1975 C1976 1.407 . S
C1975 H2038 0.930 . S
C1976 C1975 1.407 . S
C1976 C1977 1.449 . S
C1976 C1980 1.535 . S
C1977 C1976 1.449 . S
C1977 C1978 1.384 . S
C1977 C2002 1.553 . S
C1978 C1977 1.384 . S
C1978 C1979 1.364 . S
C1978 C1981 1.450 . S
C1979 C1974 1.367 . S
C1979 C1978 1.364 . S
C1979 H2039 0.931 . S
C1980 C1976 1.535 . S
C1980 H2040 0.959 . S
C1980 H2041 0.961 . S
C1980 H2042 0.959 . S
C1981 C1978 1.450 . S
C1981 H2043 0.960 . S
C1981 H2044 0.960 . S
C1981 H2045 0.960 . S
C1982 C1983 1.309 . S
C1982 C1987 1.304 . S
C1982 O2020 1.435 . S
C1983 C1982 1.309 . S
C1983 C1984 1.476 . S
C1983 H2047 0.930 . S
C1984 C1983 1.476 . S
C1984 C1985 1.400 . S
C1984 C1988 1.567 . S
C1985 C1984 1.400 . S
C1985 C1986 1.373 . S
C1985 C2007 1.432 . S
C1986 C1985 1.373 . S
C1986 C1987 1.339 . S
C1986 C1989 1.530 . S
C1987 C1982 1.304 . S
C1987 C1986 1.339 . S
C1987 H2048 0.930 . S
C1988 C1984 1.567 . S
C1988 H2049 0.961 . S
C1988 H2050 0.960 . S
C1988 H2051 0.958 . S
C1989 C1986 1.530 . S
C1989 H2052 0.961 . S
C1989 H2053 0.960 . S
C1989 H2054 0.960 . S
C1990 C1991 1.530 . S
C1990 H2056 0.961 . S
C1990 H2057 0.961 . S
C1990 H2058 0.959 . S
C1991 C1990 1.530 . S
C1991 O2019 1.412 . S
C1991 H2055 0.980 . S
C1992 C1993 1.288 . S
C1992 C1997 1.377 . S
C1992 O2019 1.393 . S
C1993 C1992 1.288 . S
C1993 C1994 1.369 . S
C1993 H2059 0.932 . S
C1994 C1993 1.369 . S
C1994 C1995 1.398 . S
C1994 C1998 1.527 . S
C1995 C1994 1.398 . S
C1995 C1996 1.380 . S
C1995 C2009 1.497 . S
C1996 C1995 1.380 . S
C1996 C1997 1.383 . S
C1996 C1999 1.603 . S
C1997 C1992 1.377 . S
C1997 C1996 1.383 . S
C1997 H2060 0.929 . S
C1998 C1994 1.527 . S
C1998 H2061 0.961 . S
C1998 H2062 0.959 . S
C1998 H2063 0.959 . S
C1999 C1996 1.603 . S
C1999 H2064 0.960 . S
C1999 H2065 0.962 . S
C1999 H2066 0.961 . S
C2000 C1967 1.587 . S
C2000 C2001 1.360 . S
C2000 C2013 1.412 . S
C2001 C2000 1.360 . S
C2001 C2002 1.365 . S
C2001 H2067 0.929 . S
C2002 C1977 1.553 . S
C2002 C2001 1.365 . S
C2002 C2003 1.404 . S
C2003 C2002 1.404 . S
C2003 C2004 1.395 . S
C2003 C2014 1.451 . S
C2004 C2003 1.395 . S
C2004 C2005 1.322 . S
C2004 H2068 0.930 . S
C2005 C2004 1.322 . S
C2005 C2006 1.459 . S
C2005 H2069 0.929 . S
C2006 C2005 1.459 . S
C2006 C2007 1.445 . S
C2006 C2015 1.395 . S
C2007 C1985 1.432 . S
C2007 C2006 1.445 . S
C2007 C2008 1.370 . S
C2008 C2007 1.370 . S
C2008 C2009 1.438 . S
C2008 H2070 0.930 . S
C2009 C1995 1.497 . S
C2009 C2008 1.438 . S
C2009 C2010 1.360 . S
C2010 C2009 1.360 . S
C2010 C2011 1.401 . S
C2010 C2015 1.446 . S
C2011 C2010 1.401 . S
C2011 C2012 1.347 . S
C2011 H2071 0.929 . S
C2012 C2011 1.347 . S
C2012 C2013 1.455 . S
C2012 H2072 0.930 . S
C2013 C2000 1.412 . S
C2013 C2012 1.455 . S
C2013 C2014 1.331 . S
C2014 C2003 1.451 . S
C2014 C2013 1.331 . S
C2014 C2015 1.497 . S
C2015 C2006 1.395 . S
C2015 C2010 1.446 . S
C2015 C2014 1.497 . S
C2016 C2017 1.582 . S
C2016 H2073 0.962 . S
C2016 H2074 0.959 . S
C2016 H2075 0.958 . S
C2017 C2016 1.582 . S
C2017 O2020 1.458 . S
C2017 H2046 0.980 . S
O2018 C1963 1.426 . S
O2018 C1964 1.334 . S
O2019 C1991 1.412 . S
O2019 C1992 1.393 . S
O2020 C1982 1.435 . S
O2020 C2017 1.458 . S
O2021 C1973 1.468 . S
O2021 C1974 1.408 . S
H2022 C1963 0.980 . S
H2023 C1962 0.959 . S
H2024 C1962 0.959 . S
H2025 C1962 0.960 . S
H2026 C1965 0.929 . S
H2027 C1969 0.929 . S
H2028 C1970 0.959 . S
H2029 C1970 0.961 . S
H2030 C1970 0.961 . S
H2031 C1971 0.960 . S
H2032 C1971 0.960 . S
H2033 C1971 0.961 . S
H2034 C1973 0.980 . S
H2035 C1972 0.961 . S
H2036 C1972 0.960 . S
H2037 C1972 0.959 . S
H2038 C1975 0.930 . S
H2039 C1979 0.931 . S
H2040 C1980 0.959 . S
H2041 C1980 0.961 . S
H2042 C1980 0.959 . S
H2043 C1981 0.960 . S
H2044 C1981 0.960 . S
H2045 C1981 0.960 . S
H2046 C2017 0.980 . S
H2047 C1983 0.930 . S
H2048 C1987 0.930 . S
H2049 C1988 0.961 . S
H2050 C1988 0.960 . S
H2051 C1988 0.958 . S
H2052 C1989 0.961 . S
H2053 C1989 0.960 . S
H2054 C1989 0.960 . S
H2055 C1991 0.980 . S
H2056 C1990 0.961 . S
H2057 C1990 0.961 . S
H2058 C1990 0.959 . S
H2059 C1993 0.932 . S
H2060 C1997 0.929 . S
H2061 C1998 0.961 . S
H2062 C1998 0.959 . S
H2063 C1998 0.959 . S
H2064 C1999 0.960 . S
H2065 C1999 0.962 . S
H2066 C1999 0.961 . S
H2067 C2001 0.929 . S
H2068 C2004 0.930 . S
H2069 C2005 0.929 . S
H2070 C2008 0.930 . S
H2071 C2011 0.929 . S
H2072 C2012 0.930 . S
H2073 C2016 0.962 . S
H2074 C2016 0.959 . S
H2075 C2016 0.958 . S
C2076 C2077 1.560 . S
C2076 H2137 0.959 . S
C2076 H2138 0.959 . S
C2076 H2139 0.960 . S
C2077 C2076 1.560 . S
C2077 O2132 1.426 . S
C2077 H2136 0.980 . S
C2078 C2079 1.407 . S
C2078 C2083 1.418 . S
C2078 O2132 1.334 . S
C2079 C2078 1.407 . S
C2079 C2080 1.360 . S
C2079 H2140 0.929 . S
C2080 C2079 1.360 . S
C2080 C2081 1.401 . S
C2080 C2084 1.527 . S
C2081 C2080 1.401 . S
C2081 C2082 1.405 . S
C2081 C2114 1.587 . S
C2082 C2081 1.405 . S
C2082 C2083 1.332 . S
C2082 C2085 1.496 . S
C2083 C2078 1.418 . S
C2083 C2082 1.332 . S
C2083 H2141 0.929 . S
C2084 C2080 1.527 . S
C2084 H2142 0.959 . S
C2084 H2143 0.961 . S
C2084 H2144 0.961 . S
C2085 C2082 1.496 . S
C2085 H2145 0.960 . S
C2085 H2146 0.960 . S
C2085 H2147 0.961 . S
C2086 C2087 1.517 . S
C2086 H2149 0.961 . S
C2086 H2150 0.960 . S
C2086 H2151 0.959 . S
C2087 C2086 1.517 . S
C2087 O2135 1.468 . S
C2087 H2148 0.980 . S
C2088 C2089 1.349 . S
C2088 C2093 1.367 . S
C2088 O2135 1.408 . S
C2089 C2088 1.349 . S
C2089 C2090 1.407 . S
C2089 H2152 0.930 . S
C2090 C2089 1.407 . S
C2090 C2091 1.449 . S
C2090 C2094 1.535 . S
C2091 C2090 1.449 . S
C2091 C2092 1.384 . S
C2091 C2116 1.553 . S
C2092 C2091 1.384 . S
C2092 C2093 1.364 . S
C2092 C2095 1.450 . S
C2093 C2088 1.367 . S
C2093 C2092 1.364 . S
C2093 H2153 0.931 . S
C2094 C2090 1.535 . S
C2094 H2154 0.959 . S
C2094 H2155 0.961 . S
C2094 H2156 0.959 . S
C2095 C2092 1.450 . S
C2095 H2157 0.960 . S
C2095 H2158 0.960 . S
C2095 H2159 0.960 . S
C2096 C2097 1.309 . S
C2096 C2101 1.304 . S
C2096 O2134 1.435 . S
C2097 C2096 1.309 . S
C2097 C2098 1.476 . S
C2097 H2161 0.930 . S
C2098 C2097 1.476 . S
C2098 C2099 1.400 . S
C2098 C2102 1.567 . S
C2099 C2098 1.400 . S
C2099 C2100 1.373 . S
C2099 C2121 1.432 . S
C2100 C2099 1.373 . S
C2100 C2101 1.339 . S
C2100 C2103 1.530 . S
C2101 C2096 1.304 . S
C2101 C2100 1.339 . S
C2101 H2162 0.930 . S
C2102 C2098 1.567 . S
C2102 H2163 0.961 . S
C2102 H2164 0.960 . S
C2102 H2165 0.958 . S
C2103 C2100 1.530 . S
C2103 H2166 0.961 . S
C2103 H2167 0.960 . S
C2103 H2168 0.960 . S
C2104 C2105 1.530 . S
C2104 H2170 0.961 . S
C2104 H2171 0.961 . S
C2104 H2172 0.959 . S
C2105 C2104 1.530 . S
C2105 O2133 1.412 . S
C2105 H2169 0.980 . S
C2106 C2107 1.288 . S
C2106 C2111 1.377 . S
C2106 O2133 1.393 . S
C2107 C2106 1.288 . S
C2107 C2108 1.369 . S
C2107 H2173 0.932 . S
C2108 C2107 1.369 . S
C2108 C2109 1.398 . S
C2108 C2112 1.527 . S
C2109 C2108 1.398 . S
C2109 C2110 1.380 . S
C2109 C2123 1.497 . S
C2110 C2109 1.380 . S
C2110 C2111 1.383 . S
C2110 C2113 1.603 . S
C2111 C2106 1.377 . S
C2111 C2110 1.383 . S
C2111 H2174 0.929 . S
C2112 C2108 1.527 . S
C2112 H2175 0.961 . S
C2112 H2176 0.959 . S
C2112 H2177 0.959 . S
C2113 C2110 1.603 . S
C2113 H2178 0.960 . S
C2113 H2179 0.962 . S
C2113 H2180 0.961 . S
C2114 C2081 1.587 . S
C2114 C2115 1.360 . S
C2114 C2127 1.412 . S
C2115 C2114 1.360 . S
C2115 C2116 1.365 . S
C2115 H2181 0.929 . S
C2116 C2091 1.553 . S
C2116 C2115 1.365 . S
C2116 C2117 1.404 . S
C2117 C2116 1.404 . S
C2117 C2118 1.395 . S
C2117 C2128 1.451 . S
C2118 C2117 1.395 . S
C2118 C2119 1.322 . S
C2118 H2182 0.930 . S
C2119 C2118 1.322 . S
C2119 C2120 1.459 . S
C2119 H2183 0.929 . S
C2120 C2119 1.459 . S
C2120 C2121 1.445 . S
C2120 C2129 1.395 . S
C2121 C2099 1.432 . S
C2121 C2120 1.445 . S
C2121 C2122 1.370 . S
C2122 C2121 1.370 . S
C2122 C2123 1.438 . S
C2122 H2184 0.930 . S
C2123 C2109 1.497 . S
C2123 C2122 1.438 . S
C2123 C2124 1.360 . S
C2124 C2123 1.360 . S
C2124 C2125 1.401 . S
C2124 C2129 1.446 . S
C2125 C2124 1.401 . S
C2125 C2126 1.347 . S
C2125 H2185 0.929 . S
C2126 C2125 1.347 . S
C2126 C2127 1.455 . S
C2126 H2186 0.930 . S
C2127 C2114 1.412 . S
C2127 C2126 1.455 . S
C2127 C2128 1.331 . S
C2128 C2117 1.451 . S
C2128 C2127 1.331 . S
C2128 C2129 1.497 . S
C2129 C2120 1.395 . S
C2129 C2124 1.446 . S
C2129 C2128 1.497 . S
C2130 C2131 1.582 . S
C2130 H2187 0.962 . S
C2130 H2188 0.959 . S
C2130 H2189 0.958 . S
C2131 C2130 1.582 . S
C2131 O2134 1.458 . S
C2131 H2160 0.980 . S
O2132 C2077 1.426 . S
O2132 C2078 1.334 . S
O2133 C2105 1.412 . S
O2133 C2106 1.393 . S
O2134 C2096 1.435 . S
O2134 C2131 1.458 . S
O2135 C2087 1.468 . S
O2135 C2088 1.408 . S
H2136 C2077 0.980 . S
H2137 C2076 0.959 . S
H2138 C2076 0.959 . S
H2139 C2076 0.960 . S
H2140 C2079 0.929 . S
H2141 C2083 0.929 . S
H2142 C2084 0.959 . S
H2143 C2084 0.961 . S
H2144 C2084 0.961 . S
H2145 C2085 0.960 . S
H2146 C2085 0.960 . S
H2147 C2085 0.961 . S
H2148 C2087 0.980 . S
H2149 C2086 0.961 . S
H2150 C2086 0.960 . S
H2151 C2086 0.959 . S
H2152 C2089 0.930 . S
H2153 C2093 0.931 . S
H2154 C2094 0.959 . S
H2155 C2094 0.961 . S
H2156 C2094 0.959 . S
H2157 C2095 0.960 . S
H2158 C2095 0.960 . S
H2159 C2095 0.960 . S
H2160 C2131 0.980 . S
H2161 C2097 0.930 . S
H2162 C2101 0.930 . S
H2163 C2102 0.961 . S
H2164 C2102 0.960 . S
H2165 C2102 0.958 . S
H2166 C2103 0.961 . S
H2167 C2103 0.960 . S
H2168 C2103 0.960 . S
H2169 C2105 0.980 . S
H2170 C2104 0.961 . S
H2171 C2104 0.961 . S
H2172 C2104 0.959 . S
H2173 C2107 0.932 . S
H2174 C2111 0.929 . S
H2175 C2112 0.961 . S
H2176 C2112 0.959 . S
H2177 C2112 0.959 . S
H2178 C2113 0.960 . S
H2179 C2113 0.962 . S
H2180 C2113 0.961 . S
H2181 C2115 0.929 . S
H2182 C2118 0.930 . S
H2183 C2119 0.929 . S
H2184 C2122 0.930 . S
H2185 C2125 0.929 . S
H2186 C2126 0.930 . S
H2187 C2130 0.962 . S
H2188 C2130 0.959 . S
H2189 C2130 0.958 . S
C2190 C2191 1.560 . S
C2190 H2251 0.959 . S
C2190 H2252 0.959 . S
C2190 H2253 0.960 . S
C2191 C2190 1.560 . S
C2191 O2246 1.426 . S
C2191 H2250 0.980 . S
C2192 C2193 1.407 . S
C2192 C2197 1.418 . S
C2192 O2246 1.334 . S
C2193 C2192 1.407 . S
C2193 C2194 1.360 . S
C2193 H2254 0.929 . S
C2194 C2193 1.360 . S
C2194 C2195 1.401 . S
C2194 C2198 1.527 . S
C2195 C2194 1.401 . S
C2195 C2196 1.405 . S
C2195 C2228 1.587 . S
C2196 C2195 1.405 . S
C2196 C2197 1.332 . S
C2196 C2199 1.496 . S
C2197 C2192 1.418 . S
C2197 C2196 1.332 . S
C2197 H2255 0.929 . S
C2198 C2194 1.527 . S
C2198 H2256 0.959 . S
C2198 H2257 0.961 . S
C2198 H2258 0.961 . S
C2199 C2196 1.496 . S
C2199 H2259 0.960 . S
C2199 H2260 0.960 . S
C2199 H2261 0.961 . S
C2200 C2201 1.517 . S
C2200 H2263 0.961 . S
C2200 H2264 0.960 . S
C2200 H2265 0.959 . S
C2201 C2200 1.517 . S
C2201 O2249 1.468 . S
C2201 H2262 0.980 . S
C2202 C2203 1.349 . S
C2202 C2207 1.367 . S
C2202 O2249 1.408 . S
C2203 C2202 1.349 . S
C2203 C2204 1.407 . S
C2203 H2266 0.930 . S
C2204 C2203 1.407 . S
C2204 C2205 1.449 . S
C2204 C2208 1.535 . S
C2205 C2204 1.449 . S
C2205 C2206 1.384 . S
C2205 C2230 1.553 . S
C2206 C2205 1.384 . S
C2206 C2207 1.364 . S
C2206 C2209 1.450 . S
C2207 C2202 1.367 . S
C2207 C2206 1.364 . S
C2207 H2267 0.931 . S
C2208 C2204 1.535 . S
C2208 H2268 0.959 . S
C2208 H2269 0.961 . S
C2208 H2270 0.959 . S
C2209 C2206 1.450 . S
C2209 H2271 0.960 . S
C2209 H2272 0.960 . S
C2209 H2273 0.960 . S
C2210 C2211 1.309 . S
C2210 C2215 1.304 . S
C2210 O2248 1.435 . S
C2211 C2210 1.309 . S
C2211 C2212 1.476 . S
C2211 H2275 0.930 . S
C2212 C2211 1.476 . S
C2212 C2213 1.400 . S
C2212 C2216 1.567 . S
C2213 C2212 1.400 . S
C2213 C2214 1.373 . S
C2213 C2235 1.432 . S
C2214 C2213 1.373 . S
C2214 C2215 1.339 . S
C2214 C2217 1.530 . S
C2215 C2210 1.304 . S
C2215 C2214 1.339 . S
C2215 H2276 0.930 . S
C2216 C2212 1.567 . S
C2216 H2277 0.961 . S
C2216 H2278 0.960 . S
C2216 H2279 0.958 . S
C2217 C2214 1.530 . S
C2217 H2280 0.961 . S
C2217 H2281 0.960 . S
C2217 H2282 0.960 . S
C2218 C2219 1.530 . S
C2218 H2284 0.961 . S
C2218 H2285 0.961 . S
C2218 H2286 0.959 . S
C2219 C2218 1.530 . S
C2219 O2247 1.412 . S
C2219 H2283 0.980 . S
C2220 C2221 1.288 . S
C2220 C2225 1.377 . S
C2220 O2247 1.393 . S
C2221 C2220 1.288 . S
C2221 C2222 1.369 . S
C2221 H2287 0.932 . S
C2222 C2221 1.369 . S
C2222 C2223 1.398 . S
C2222 C2226 1.527 . S
C2223 C2222 1.398 . S
C2223 C2224 1.380 . S
C2223 C2237 1.497 . S
C2224 C2223 1.380 . S
C2224 C2225 1.383 . S
C2224 C2227 1.603 . S
C2225 C2220 1.377 . S
C2225 C2224 1.383 . S
C2225 H2288 0.929 . S
C2226 C2222 1.527 . S
C2226 H2289 0.961 . S
C2226 H2290 0.959 . S
C2226 H2291 0.959 . S
C2227 C2224 1.603 . S
C2227 H2292 0.960 . S
C2227 H2293 0.962 . S
C2227 H2294 0.961 . S
C2228 C2195 1.587 . S
C2228 C2229 1.360 . S
C2228 C2241 1.412 . S
C2229 C2228 1.360 . S
C2229 C2230 1.365 . S
C2229 H2295 0.929 . S
C2230 C2205 1.553 . S
C2230 C2229 1.365 . S
C2230 C2231 1.404 . S
C2231 C2230 1.404 . S
C2231 C2232 1.395 . S
C2231 C2242 1.451 . S
C2232 C2231 1.395 . S
C2232 C2233 1.322 . S
C2232 H2296 0.930 . S
C2233 C2232 1.322 . S
C2233 C2234 1.459 . S
C2233 H2297 0.929 . S
C2234 C2233 1.459 . S
C2234 C2235 1.445 . S
C2234 C2243 1.395 . S
C2235 C2213 1.432 . S
C2235 C2234 1.445 . S
C2235 C2236 1.370 . S
C2236 C2235 1.370 . S
C2236 C2237 1.438 . S
C2236 H2298 0.930 . S
C2237 C2223 1.497 . S
C2237 C2236 1.438 . S
C2237 C2238 1.360 . S
C2238 C2237 1.360 . S
C2238 C2239 1.401 . S
C2238 C2243 1.446 . S
C2239 C2238 1.401 . S
C2239 C2240 1.347 . S
C2239 H2299 0.929 . S
C2240 C2239 1.347 . S
C2240 C2241 1.455 . S
C2240 H2300 0.930 . S
C2241 C2228 1.412 . S
C2241 C2240 1.455 . S
C2241 C2242 1.331 . S
C2242 C2231 1.451 . S
C2242 C2241 1.331 . S
C2242 C2243 1.497 . S
C2243 C2234 1.395 . S
C2243 C2238 1.446 . S
C2243 C2242 1.497 . S
C2244 C2245 1.582 . S
C2244 H2301 0.962 . S
C2244 H2302 0.959 . S
C2244 H2303 0.958 . S
C2245 C2244 1.582 . S
C2245 O2248 1.458 . S
C2245 H2274 0.980 . S
O2246 C2191 1.426 . S
O2246 C2192 1.334 . S
O2247 C2219 1.412 . S
O2247 C2220 1.393 . S
O2248 C2210 1.435 . S
O2248 C2245 1.458 . S
O2249 C2201 1.468 . S
O2249 C2202 1.408 . S
H2250 C2191 0.980 . S
H2251 C2190 0.959 . S
H2252 C2190 0.959 . S
H2253 C2190 0.960 . S
H2254 C2193 0.929 . S
H2255 C2197 0.929 . S
H2256 C2198 0.959 . S
H2257 C2198 0.961 . S
H2258 C2198 0.961 . S
H2259 C2199 0.960 . S
H2260 C2199 0.960 . S
H2261 C2199 0.961 . S
H2262 C2201 0.980 . S
H2263 C2200 0.961 . S
H2264 C2200 0.960 . S
H2265 C2200 0.959 . S
H2266 C2203 0.930 . S
H2267 C2207 0.931 . S
H2268 C2208 0.959 . S
H2269 C2208 0.961 . S
H2270 C2208 0.959 . S
H2271 C2209 0.960 . S
H2272 C2209 0.960 . S
H2273 C2209 0.960 . S
H2274 C2245 0.980 . S
H2275 C2211 0.930 . S
H2276 C2215 0.930 . S
H2277 C2216 0.961 . S
H2278 C2216 0.960 . S
H2279 C2216 0.958 . S
H2280 C2217 0.961 . S
H2281 C2217 0.960 . S
H2282 C2217 0.960 . S
H2283 C2219 0.980 . S
H2284 C2218 0.961 . S
H2285 C2218 0.961 . S
H2286 C2218 0.959 . S
H2287 C2221 0.932 . S
H2288 C2225 0.929 . S
H2289 C2226 0.961 . S
H2290 C2226 0.959 . S
H2291 C2226 0.959 . S
H2292 C2227 0.960 . S
H2293 C2227 0.962 . S
H2294 C2227 0.961 . S
H2295 C2229 0.929 . S
H2296 C2232 0.930 . S
H2297 C2233 0.929 . S
H2298 C2236 0.930 . S
H2299 C2239 0.929 . S
H2300 C2240 0.930 . S
H2301 C2244 0.962 . S
H2302 C2244 0.959 . S
H2303 C2244 0.958 . S
C2304 C2305 1.369 1_455 S
C2304 C2306 1.419 . S
C2304 H2308 0.930 . S
C2305 C2304 1.369 1_655 S
C2305 C2314 1.429 . S
C2306 C2304 1.419 . S
C2306 C2307 1.363 1_455 S
C2306 H2309 0.929 . S
C2307 C2306 1.363 1_655 S
C2307 C2313 1.428 . S
H2308 C2304 0.930 . S
H2309 C2306 0.929 . S
S2310 N2311 1.613 . S
S2310 N2312 1.610 . S
N2311 S2310 1.613 . S
N2311 C2314 1.350 . S
N2312 S2310 1.610 . S
N2312 C2313 1.351 . S
C2313 C2307 1.428 . S
C2313 N2312 1.351 . S
C2313 C2314 1.434 . S
C2314 C2305 1.429 . S
C2314 N2311 1.350 . S
C2314 C2313 1.434 . S
C2315 C2316 1.369 . S
C2315 C2317 1.419 . S
C2315 H2319 0.930 . S
C2316 C2315 1.369 . S
C2316 C2325 1.429 . S
C2317 C2315 1.419 . S
C2317 C2318 1.363 . S
C2317 H2320 0.929 . S
C2318 C2317 1.363 . S
C2318 C2324 1.428 . S
H2319 C2315 0.930 . S
H2320 C2317 0.929 . S
S2321 N2322 1.613 . S
S2321 N2323 1.610 . S
N2322 S2321 1.613 . S
N2322 C2325 1.350 . S
N2323 S2321 1.610 . S
N2323 C2324 1.351 . S
C2324 C2318 1.428 . S
C2324 N2323 1.351 . S
C2324 C2325 1.434 . S
C2325 C2316 1.429 . S
C2325 N2322 1.350 . S
C2325 C2324 1.434 . S
C2326 C2327 1.369 . S
C2326 C2328 1.419 . S
C2326 H2330 0.930 . S
C2327 C2326 1.369 . S
C2327 C2336 1.429 . S
C2328 C2326 1.419 . S
C2328 C2329 1.363 . S
C2328 H2331 0.929 . S
C2329 C2328 1.363 . S
C2329 C2335 1.428 . S
H2330 C2326 0.930 . S
H2331 C2328 0.929 . S
S2332 N2333 1.613 . S
S2332 N2334 1.610 . S
N2333 S2332 1.613 . S
N2333 C2336 1.350 1_565 S
N2334 S2332 1.610 . S
N2334 C2335 1.351 1_565 S
C2335 C2329 1.428 . S
C2335 N2334 1.351 1_545 S
C2335 C2336 1.434 . S
C2336 C2327 1.429 . S
C2336 N2333 1.350 1_545 S
C2336 C2335 1.434 . S
C2337 C2338 1.369 1_545 S
C2337 C2339 1.419 . S
C2337 H2341 0.930 . S
C2338 C2337 1.369 1_565 S
C2338 C2347 1.429 . S
C2339 C2337 1.419 . S
C2339 C2340 1.363 1_545 S
C2339 H2342 0.929 . S
C2340 C2339 1.363 1_565 S
C2340 C2346 1.428 . S
H2341 C2337 0.930 . S
H2342 C2339 0.929 . S
S2343 N2344 1.613 . S
S2343 N2345 1.610 . S
N2344 S2343 1.613 . S
N2344 C2347 1.350 . S
N2345 S2343 1.610 . S
N2345 C2346 1.351 . S
C2346 C2340 1.428 . S
C2346 N2345 1.351 . S
C2346 C2347 1.434 . S
C2347 C2338 1.429 . S
C2347 N2344 1.350 . S
C2347 C2346 1.434 . S
C2348 C2349 1.369 1_655 S
C2348 C2350 1.419 . S
C2348 H2352 0.930 . S
C2349 C2348 1.369 1_455 S
C2349 C2358 1.429 . S
C2350 C2348 1.419 . S
C2350 C2351 1.363 1_655 S
C2350 H2353 0.929 . S
C2351 C2350 1.363 1_455 S
C2351 C2357 1.428 . S
H2352 C2348 0.930 . S
H2353 C2350 0.929 . S
S2354 N2355 1.613 . S
S2354 N2356 1.610 . S
N2355 S2354 1.613 . S
N2355 C2358 1.350 . S
N2356 S2354 1.610 . S
N2356 C2357 1.351 . S
C2357 C2351 1.428 . S
C2357 N2356 1.351 . S
C2357 C2358 1.434 . S
C2358 C2349 1.429 . S
C2358 N2355 1.350 . S
C2358 C2357 1.434 . S
C2359 C2360 1.369 . S
C2359 C2361 1.419 . S
C2359 H2363 0.930 . S
C2360 C2359 1.369 . S
C2360 C2369 1.429 . S
C2361 C2359 1.419 . S
C2361 C2362 1.363 . S
C2361 H2364 0.929 . S
C2362 C2361 1.363 . S
C2362 C2368 1.428 . S
H2363 C2359 0.930 . S
H2364 C2361 0.929 . S
S2365 N2366 1.613 . S
S2365 N2367 1.610 . S
N2366 S2365 1.613 . S
N2366 C2369 1.350 . S
N2367 S2365 1.610 . S
N2367 C2368 1.351 . S
C2368 C2362 1.428 . S
C2368 N2367 1.351 . S
C2368 C2369 1.434 . S
C2369 C2360 1.429 . S
C2369 N2366 1.350 . S
C2369 C2368 1.434 . S
C2370 C2371 1.369 1_655 S
C2370 C2372 1.419 . S
C2370 H2374 0.930 . S
C2371 C2370 1.369 1_455 S
C2371 C2380 1.429 . S
C2372 C2370 1.419 . S
C2372 C2373 1.363 1_655 S
C2372 H2375 0.929 . S
C2373 C2372 1.363 1_455 S
C2373 C2379 1.428 . S
H2374 C2370 0.930 . S
H2375 C2372 0.929 . S
S2376 N2377 1.613 . S
S2376 N2378 1.610 . S
N2377 S2376 1.613 . S
N2377 C2380 1.350 . S
N2378 S2376 1.610 . S
N2378 C2379 1.351 . S
C2379 C2373 1.428 . S
C2379 N2378 1.351 . S
C2379 C2380 1.434 . S
C2380 C2371 1.429 . S
C2380 N2377 1.350 . S
C2380 C2379 1.434 . S
C2381 C2382 1.369 . S
C2381 C2383 1.419 . S
C2381 H2385 0.930 . S
C2382 C2381 1.369 . S
C2382 C2391 1.429 . S
C2383 C2381 1.419 . S
C2383 C2384 1.363 . S
C2383 H2386 0.929 . S
C2384 C2383 1.363 . S
C2384 C2390 1.428 . S
H2385 C2381 0.930 . S
H2386 C2383 0.929 . S
S2387 N2388 1.613 . S
S2387 N2389 1.610 . S
N2388 S2387 1.613 . S
N2388 C2391 1.350 . S
N2389 S2387 1.610 . S
N2389 C2390 1.351 . S
C2390 C2384 1.428 . S
C2390 N2389 1.351 . S
C2390 C2391 1.434 . S
C2391 C2382 1.429 . S
C2391 N2388 1.350 . S
C2391 C2390 1.434 . S
C2392 C2393 1.369 . S
C2392 C2394 1.419 . S
C2392 H2396 0.930 . S
C2393 C2392 1.369 . S
C2393 C2402 1.429 1_565 S
C2394 C2392 1.419 . S
C2394 C2395 1.363 . S
C2394 H2397 0.929 . S
C2395 C2394 1.363 . S
C2395 C2401 1.428 1_565 S
H2396 C2392 0.930 . S
H2397 C2394 0.929 . S
S2398 N2399 1.613 . S
S2398 N2400 1.610 . S
N2399 S2398 1.613 . S
N2399 C2402 1.350 . S
N2400 S2398 1.610 . S
N2400 C2401 1.351 . S
C2401 C2395 1.428 1_545 S
C2401 N2400 1.351 . S
C2401 C2402 1.434 . S
C2402 C2393 1.429 1_545 S
C2402 N2399 1.350 . S
C2402 C2401 1.434 . S
C2403 C2404 1.369 . S
C2403 C2405 1.419 . S
C2403 H2407 0.930 . S
C2404 C2403 1.369 . S
C2404 C2413 1.432 1_545 S
C2405 C2403 1.419 . S
C2405 C2406 1.363 . S
C2405 H2408 0.929 . S
C2406 C2405 1.363 . S
C2406 C2412 1.428 1_545 S
H2407 C2403 0.930 . S
H2408 C2405 0.929 . S
S2409 N2410 1.613 . S
S2409 N2411 1.610 . S
N2410 S2409 1.613 . S
N2410 C2413 1.350 . S
N2411 S2409 1.610 . S
N2411 C2412 1.351 . S
C2412 C2406 1.428 1_565 S
C2412 N2411 1.351 . S
C2412 C2413 1.430 . S
C2413 C2404 1.432 1_565 S
C2413 N2410 1.350 . S
C2413 C2412 1.430 . S
C2414 C2415 1.369 . S
C2414 C2416 1.419 . S
C2414 H2418 0.930 . S
C2415 C2414 1.369 . S
C2415 C2424 1.429 . S
C2416 C2414 1.419 . S
C2416 C2417 1.363 . S
C2416 H2419 0.929 . S
C2417 C2416 1.363 . S
C2417 C2423 1.428 . S
H2418 C2414 0.930 . S
H2419 C2416 0.929 . S
S2420 N2421 1.613 . S
S2420 N2422 1.610 . S
N2421 S2420 1.613 . S
N2421 C2424 1.350 . S
N2422 S2420 1.610 . S
N2422 C2423 1.351 . S
C2423 C2417 1.428 . S
C2423 N2422 1.351 . S
C2423 C2424 1.434 . S
C2424 C2415 1.429 . S
C2424 N2421 1.350 . S
C2424 C2423 1.434 . S
C2425 C2426 1.369 . S
C2425 C2427 1.419 . S
C2425 H2429 0.930 . S
C2426 C2425 1.369 . S
C2426 C2435 1.429 . S
C2427 C2425 1.419 . S
C2427 C2428 1.363 . S
C2427 H2430 0.929 . S
C2428 C2427 1.363 . S
C2428 C2434 1.428 . S
H2429 C2425 0.930 . S
H2430 C2427 0.929 . S
S2431 N2432 1.613 . S
S2431 N2433 1.610 . S
N2432 S2431 1.613 . S
N2432 C2435 1.350 . S
N2433 S2431 1.610 . S
N2433 C2434 1.351 . S
C2434 C2428 1.428 . S
C2434 N2433 1.351 . S
C2434 C2435 1.434 . S
C2435 C2426 1.429 . S
C2435 N2432 1.350 . S
C2435 C2434 1.434 . S
C2436 C2437 1.369 . S
C2436 C2438 1.419 . S
C2436 H2440 0.930 . S
C2437 C2436 1.369 . S
C2437 C2446 1.429 . S
C2438 C2436 1.419 . S
C2438 C2439 1.363 . S
C2438 H2441 0.929 . S
C2439 C2438 1.363 . S
C2439 C2445 1.428 . S
H2440 C2436 0.930 . S
H2441 C2438 0.929 . S
S2442 N2443 1.613 . S
S2442 N2444 1.610 . S
N2443 S2442 1.613 . S
N2443 C2446 1.350 . S
N2444 S2442 1.610 . S
N2444 C2445 1.351 . S
C2445 C2439 1.428 . S
C2445 N2444 1.351 . S
C2445 C2446 1.434 . S
C2446 C2437 1.429 . S
C2446 N2443 1.350 . S
C2446 C2445 1.434 . S
C2447 C2448 1.369 . S
C2447 C2449 1.419 . S
C2447 H2451 0.930 . S
C2448 C2447 1.369 . S
C2448 C2457 1.429 . S
C2449 C2447 1.419 . S
C2449 C2450 1.363 . S
C2449 H2452 0.929 . S
C2450 C2449 1.363 . S
C2450 C2456 1.428 . S
H2451 C2447 0.930 . S
H2452 C2449 0.929 . S
S2453 N2454 1.613 . S
S2453 N2455 1.610 . S
N2454 S2453 1.613 . S
N2454 C2457 1.350 . S
N2455 S2453 1.610 . S
N2455 C2456 1.351 . S
C2456 C2450 1.428 . S
C2456 N2455 1.351 . S
C2456 C2457 1.434 . S
C2457 C2448 1.429 . S
C2457 N2454 1.350 . S
C2457 C2456 1.434 . S
C2458 C2459 1.369 . S
C2458 C2460 1.419 . S
C2458 H2462 0.930 . S
C2459 C2458 1.369 . S
C2459 C2468 1.429 . S
C2460 C2458 1.419 . S
C2460 C2461 1.363 . S
C2460 H2463 0.929 . S
C2461 C2460 1.363 . S
C2461 C2467 1.428 . S
H2462 C2458 0.930 . S
H2463 C2460 0.929 . S
S2464 N2465 1.613 . S
S2464 N2466 1.610 . S
N2465 S2464 1.613 . S
N2465 C2468 1.350 . S
N2466 S2464 1.610 . S
N2466 C2467 1.351 . S
C2467 C2461 1.428 . S
C2467 N2466 1.351 . S
C2467 C2468 1.434 . S
C2468 C2459 1.429 . S
C2468 N2465 1.350 . S
C2468 C2467 1.434 . S
C2469 C2470 1.369 . S
C2469 C2471 1.419 . S
C2469 H2473 0.930 . S
C2470 C2469 1.369 . S
C2470 C2479 1.429 . S
C2471 C2469 1.419 . S
C2471 C2472 1.363 . S
C2471 H2474 0.929 . S
C2472 C2471 1.363 . S
C2472 C2478 1.428 . S
H2473 C2469 0.930 . S
H2474 C2471 0.929 . S
S2475 N2476 1.613 . S
S2475 N2477 1.610 . S
N2476 S2475 1.613 . S
N2476 C2479 1.350 . S
N2477 S2475 1.610 . S
N2477 C2478 1.351 . S
C2478 C2472 1.428 . S
C2478 N2477 1.351 . S
C2478 C2479 1.434 . S
C2479 C2470 1.429 . S
C2479 N2476 1.350 . S
C2479 C2478 1.434 . S
C2480 C2481 1.369 . S
C2480 C2482 1.419 . S
C2480 H2484 0.930 . S
C2481 C2480 1.369 . S
C2481 C2490 1.429 . S
C2482 C2480 1.419 . S
C2482 C2483 1.363 . S
C2482 H2485 0.929 . S
C2483 C2482 1.363 . S
C2483 C2489 1.428 . S
H2484 C2480 0.930 . S
H2485 C2482 0.929 . S
S2486 N2487 1.613 . S
S2486 N2488 1.610 . S
N2487 S2486 1.613 . S
N2487 C2490 1.350 . S
N2488 S2486 1.610 . S
N2488 C2489 1.351 . S
C2489 C2483 1.428 . S
C2489 N2488 1.351 . S
C2489 C2490 1.434 . S
C2490 C2481 1.429 . S
C2490 N2487 1.350 . S
C2490 C2489 1.434 . S
C2491 C2492 1.369 . S
C2491 C2493 1.419 . S
C2491 H2495 0.930 . S
C2492 C2491 1.369 . S
C2492 C2501 1.429 . S
C2493 C2491 1.419 . S
C2493 C2494 1.363 . S
C2493 H2496 0.929 . S
C2494 C2493 1.363 . S
C2494 C2500 1.428 . S
H2495 C2491 0.930 . S
H2496 C2493 0.929 . S
S2497 N2498 1.613 . S
S2497 N2499 1.610 . S
N2498 S2497 1.613 . S
N2498 C2501 1.350 . S
N2499 S2497 1.610 . S
N2499 C2500 1.351 . S
C2500 C2494 1.428 . S
C2500 N2499 1.351 . S
C2500 C2501 1.434 . S
C2501 C2492 1.429 . S
C2501 N2498 1.350 . S
C2501 C2500 1.434 . S
C2502 C2503 1.369 . S
C2502 C2504 1.419 . S
C2502 H2506 0.930 . S
C2503 C2502 1.369 . S
C2503 C2512 1.429 . S
C2504 C2502 1.419 . S
C2504 C2505 1.363 . S
C2504 H2507 0.929 . S
C2505 C2504 1.363 . S
C2505 C2511 1.428 . S
H2506 C2502 0.930 . S
H2507 C2504 0.929 . S
S2508 N2509 1.613 . S
S2508 N2510 1.610 . S
N2509 S2508 1.613 . S
N2509 C2512 1.350 . S
N2510 S2508 1.610 . S
N2510 C2511 1.351 . S
C2511 C2505 1.428 . S
C2511 N2510 1.351 . S
C2511 C2512 1.434 . S
C2512 C2503 1.429 . S
C2512 N2509 1.350 . S
C2512 C2511 1.434 . S
C2513 C2514 1.369 . S
C2513 C2515 1.419 . S
C2513 H2517 0.930 . S
C2514 C2513 1.369 . S
C2514 C2523 1.429 . S
C2515 C2513 1.419 . S
C2515 C2516 1.363 . S
C2515 H2518 0.929 . S
C2516 C2515 1.363 . S
C2516 C2522 1.428 . S
H2517 C2513 0.930 . S
H2518 C2515 0.929 . S
S2519 N2520 1.575 1_655 S
S2519 N2521 1.593 1_655 S
N2520 S2519 1.575 1_455 S
N2520 C2523 1.350 . S
N2521 S2519 1.593 1_455 S
N2521 C2522 1.351 . S
C2522 C2516 1.428 . S
C2522 N2521 1.351 . S
C2522 C2523 1.434 . S
C2523 C2514 1.429 . S
C2523 N2520 1.350 . S
C2523 C2522 1.434 . S
C2524 C2525 1.369 . S
C2524 C2526 1.419 . S
C2524 H2528 0.930 . S
C2525 C2524 1.369 . S
C2525 C2534 1.429 . S
C2526 C2524 1.419 . S
C2526 C2527 1.363 . S
C2526 H2529 0.929 . S
C2527 C2526 1.363 . S
C2527 C2533 1.428 . S
H2528 C2524 0.930 . S
H2529 C2526 0.929 . S
S2530 N2531 1.613 . S
S2530 N2532 1.610 . S
N2531 S2530 1.613 . S
N2531 C2534 1.350 . S
N2532 S2530 1.610 . S
N2532 C2533 1.351 . S
C2533 C2527 1.428 . S
C2533 N2532 1.351 . S
C2533 C2534 1.434 . S
C2534 C2525 1.429 . S
C2534 N2531 1.350 . S
C2534 C2533 1.434 . S
C2535 C2536 1.369 . S
C2535 C2537 1.419 . S
C2535 H2539 0.930 . S
C2536 C2535 1.369 . S
C2536 C2545 1.429 . S
C2537 C2535 1.419 . S
C2537 C2538 1.363 . S
C2537 H2540 0.929 . S
C2538 C2537 1.363 . S
C2538 C2544 1.428 . S
H2539 C2535 0.930 . S
H2540 C2537 0.929 . S
S2541 N2542 1.613 . S
S2541 N2543 1.610 . S
N2542 S2541 1.613 . S
N2542 C2545 1.350 . S
N2543 S2541 1.610 . S
N2543 C2544 1.351 . S
C2544 C2538 1.428 . S
C2544 N2543 1.351 . S
C2544 C2545 1.434 . S
C2545 C2536 1.429 . S
C2545 N2542 1.350 . S
C2545 C2544 1.434 . S
C2546 C2547 1.369 . S
C2546 C2548 1.419 . S
C2546 H2550 0.930 . S
C2547 C2546 1.369 . S
C2547 C2556 1.429 . S
C2548 C2546 1.419 . S
C2548 C2549 1.363 . S
C2548 H2551 0.929 . S
C2549 C2548 1.363 . S
C2549 C2555 1.428 . S
H2550 C2546 0.930 . S
H2551 C2548 0.929 . S
S2552 N2553 1.613 . S
S2552 N2554 1.610 . S
N2553 S2552 1.613 . S
N2553 C2556 1.350 . S
N2554 S2552 1.610 . S
N2554 C2555 1.351 . S
C2555 C2549 1.428 . S
C2555 N2554 1.351 . S
C2555 C2556 1.434 . S
C2556 C2547 1.429 . S
C2556 N2553 1.350 . S
C2556 C2555 1.434 . S
C2557 C2558 1.369 . S
C2557 C2559 1.419 . S
C2557 H2561 0.930 . S
C2558 C2557 1.369 . S
C2558 C2567 1.429 . S
C2559 C2557 1.419 . S
C2559 C2560 1.363 . S
C2559 H2562 0.929 . S
C2560 C2559 1.363 . S
C2560 C2566 1.428 . S
H2561 C2557 0.930 . S
H2562 C2559 0.929 . S
S2563 N2564 1.613 . S
S2563 N2565 1.610 . S
N2564 S2563 1.613 . S
N2564 C2567 1.350 . S
N2565 S2563 1.610 . S
N2565 C2566 1.351 . S
C2566 C2560 1.428 . S
C2566 N2565 1.351 . S
C2566 C2567 1.434 . S
C2567 C2558 1.429 . S
C2567 N2564 1.350 . S
C2567 C2566 1.434 . S
C2568 C2569 1.369 . S
C2568 C2570 1.419 . S
C2568 H2572 0.930 . S
C2569 C2568 1.369 . S
C2569 C2578 1.429 . S
C2570 C2568 1.419 . S
C2570 C2571 1.363 . S
C2570 H2573 0.929 . S
C2571 C2570 1.363 . S
C2571 C2577 1.428 . S
H2572 C2568 0.930 . S
H2573 C2570 0.929 . S
S2574 N2575 1.613 . S
S2574 N2576 1.610 . S
N2575 S2574 1.613 . S
N2575 C2578 1.350 . S
N2576 S2574 1.610 . S
N2576 C2577 1.351 . S
C2577 C2571 1.428 . S
C2577 N2576 1.351 . S
C2577 C2578 1.434 . S
C2578 C2569 1.429 . S
C2578 N2575 1.350 . S
C2578 C2577 1.434 . S
C2579 C2580 1.369 . S
C2579 C2581 1.419 . S
C2579 H2583 0.930 . S
C2580 C2579 1.369 . S
C2580 C2589 1.429 . S
C2581 C2579 1.419 . S
C2581 C2582 1.363 . S
C2581 H2584 0.929 . S
C2582 C2581 1.363 . S
C2582 C2588 1.428 . S
H2583 C2579 0.930 . S
H2584 C2581 0.929 . S
S2585 N2586 1.613 . S
S2585 N2587 1.610 . S
N2586 S2585 1.613 . S
N2586 C2589 1.350 . S
N2587 S2585 1.610 . S
N2587 C2588 1.351 . S
C2588 C2582 1.428 . S
C2588 N2587 1.351 . S
C2588 C2589 1.434 . S
C2589 C2580 1.429 . S
C2589 N2586 1.350 . S
C2589 C2588 1.434 . S
C2590 C2591 1.369 . S
C2590 C2592 1.419 . S
C2590 H2594 0.930 . S
C2591 C2590 1.369 . S
C2591 C2600 1.429 . S
C2592 C2590 1.419 . S
C2592 C2593 1.363 . S
C2592 H2595 0.929 . S
C2593 C2592 1.363 . S
C2593 C2599 1.428 . S
H2594 C2590 0.930 . S
H2595 C2592 0.929 . S
S2596 N2597 1.613 . S
S2596 N2598 1.610 . S
N2597 S2596 1.613 . S
N2597 C2600 1.350 . S
N2598 S2596 1.610 . S
N2598 C2599 1.351 . S
C2599 C2593 1.428 . S
C2599 N2598 1.351 . S
C2599 C2600 1.434 . S
C2600 C2591 1.429 . S
C2600 N2597 1.350 . S
C2600 C2599 1.434 . S
C2601 C2602 1.369 . S
C2601 C2603 1.419 . S
C2601 H2605 0.930 . S
C2602 C2601 1.369 . S
C2602 C2611 1.429 . S
C2603 C2601 1.419 . S
C2603 C2604 1.363 . S
C2603 H2606 0.929 . S
C2604 C2603 1.363 . S
C2604 C2610 1.428 . S
H2605 C2601 0.930 . S
H2606 C2603 0.929 . S
S2607 N2608 1.613 . S
S2607 N2609 1.610 . S
N2608 S2607 1.613 . S
N2608 C2611 1.350 . S
N2609 S2607 1.610 . S
N2609 C2610 1.351 . S
C2610 C2604 1.428 . S
C2610 N2609 1.351 . S
C2610 C2611 1.434 . S
C2611 C2602 1.429 . S
C2611 N2608 1.350 . S
C2611 C2610 1.434 . S
C2612 C2613 1.369 . S
C2612 C2614 1.419 . S
C2612 H2616 0.930 . S
C2613 C2612 1.369 . S
C2613 C2622 1.429 . S
C2614 C2612 1.419 . S
C2614 C2615 1.363 . S
C2614 H2617 0.929 . S
C2615 C2614 1.363 . S
C2615 C2621 1.428 . S
H2616 C2612 0.930 . S
H2617 C2614 0.929 . S
S2618 N2619 1.613 . S
S2618 N2620 1.610 . S
N2619 S2618 1.613 . S
N2619 C2622 1.350 . S
N2620 S2618 1.610 . S
N2620 C2621 1.351 . S
C2621 C2615 1.428 . S
C2621 N2620 1.351 . S
C2621 C2622 1.434 . S
C2622 C2613 1.429 . S
C2622 N2619 1.350 . S
C2622 C2621 1.434 . S
C2623 C2624 1.369 . S
C2623 C2625 1.419 . S
C2623 H2627 0.930 . S
C2624 C2623 1.369 . S
C2624 C2633 1.429 . S
C2625 C2623 1.419 . S
C2625 C2626 1.363 . S
C2625 H2628 0.929 . S
C2626 C2625 1.363 . S
C2626 C2632 1.428 . S
H2627 C2623 0.930 . S
H2628 C2625 0.929 . S
S2629 N2630 1.613 . S
S2629 N2631 1.610 . S
N2630 S2629 1.613 . S
N2630 C2633 1.350 . S
N2631 S2629 1.610 . S
N2631 C2632 1.351 . S
C2632 C2626 1.428 . S
C2632 N2631 1.351 . S
C2632 C2633 1.434 . S
C2633 C2624 1.429 . S
C2633 N2630 1.350 . S
C2633 C2632 1.434 . S
C2634 C2635 1.369 . S
C2634 C2636 1.419 . S
C2634 H2638 0.930 . S
C2635 C2634 1.369 . S
C2635 C2644 1.429 . S
C2636 C2634 1.419 . S
C2636 C2637 1.363 . S
C2636 H2639 0.929 . S
C2637 C2636 1.363 . S
C2637 C2643 1.428 . S
H2638 C2634 0.930 . S
H2639 C2636 0.929 . S
S2640 N2641 1.613 . S
S2640 N2642 1.610 . S
N2641 S2640 1.613 . S
N2641 C2644 1.350 . S
N2642 S2640 1.610 . S
N2642 C2643 1.351 . S
C2643 C2637 1.428 . S
C2643 N2642 1.351 . S
C2643 C2644 1.434 . S
C2644 C2635 1.429 . S
C2644 N2641 1.350 . S
C2644 C2643 1.434 . S
C2645 C2646 1.369 . S
C2645 C2647 1.419 . S
C2645 H2649 0.930 . S
C2646 C2645 1.369 . S
C2646 C2655 1.429 . S
C2647 C2645 1.419 . S
C2647 C2648 1.363 . S
C2647 H2650 0.929 . S
C2648 C2647 1.363 . S
C2648 C2654 1.428 . S
H2649 C2645 0.930 . S
H2650 C2647 0.929 . S
S2651 N2652 1.613 . S
S2651 N2653 1.610 . S
N2652 S2651 1.613 . S
N2652 C2655 1.350 . S
N2653 S2651 1.610 . S
N2653 C2654 1.351 . S
C2654 C2648 1.428 . S
C2654 N2653 1.351 . S
C2654 C2655 1.434 . S
C2655 C2646 1.429 . S
C2655 N2652 1.350 . S
C2655 C2654 1.434 . S
C2656 C2657 1.369 . S
C2656 C2658 1.419 . S
C2656 H2660 0.930 . S
C2657 C2656 1.369 . S
C2657 C2666 1.429 . S
C2658 C2656 1.419 . S
C2658 C2659 1.363 . S
C2658 H2661 0.929 . S
C2659 C2658 1.363 . S
C2659 C2665 1.428 . S
H2660 C2656 0.930 . S
H2661 C2658 0.929 . S
S2662 N2663 1.613 . S
S2662 N2664 1.610 . S
N2663 S2662 1.613 . S
N2663 C2666 1.350 . S
N2664 S2662 1.610 . S
N2664 C2665 1.351 . S
C2665 C2659 1.428 . S
C2665 N2664 1.351 . S
C2665 C2666 1.434 . S
C2666 C2657 1.429 . S
C2666 N2663 1.350 . S
C2666 C2665 1.434 . S
C2667 C2668 1.369 . S
C2667 C2669 1.419 . S
C2667 H2671 0.930 . S
C2668 C2667 1.369 . S
C2668 C2677 1.429 . S
C2669 C2667 1.419 . S
C2669 C2670 1.363 . S
C2669 H2672 0.929 . S
C2670 C2669 1.363 . S
C2670 C2676 1.428 . S
H2671 C2667 0.930 . S
H2672 C2669 0.929 . S
S2673 N2674 1.613 1_455 S
S2673 N2675 1.610 1_455 S
N2674 S2673 1.613 1_655 S
N2674 C2677 1.350 . S
N2675 S2673 1.610 1_655 S
N2675 C2676 1.351 . S
C2676 C2670 1.428 . S
C2676 N2675 1.351 . S
C2676 C2677 1.434 . S
C2677 C2668 1.429 . S
C2677 N2674 1.350 . S
C2677 C2676 1.434 . S
C2678 C2679 1.369 . S
C2678 C2680 1.419 . S
C2678 H2682 0.930 . S
C2679 C2678 1.369 . S
C2679 C2688 1.429 . S
C2680 C2678 1.419 . S
C2680 C2681 1.363 . S
C2680 H2683 0.929 . S
C2681 C2680 1.363 . S
C2681 C2687 1.428 . S
H2682 C2678 0.930 . S
H2683 C2680 0.929 . S
S2684 N2685 1.613 . S
S2684 N2686 1.610 . S
N2685 S2684 1.613 . S
N2685 C2688 1.350 . S
N2686 S2684 1.610 . S
N2686 C2687 1.351 . S
C2687 C2681 1.428 . S
C2687 N2686 1.351 . S
C2687 C2688 1.434 . S
C2688 C2679 1.429 . S
C2688 N2685 1.350 . S
C2688 C2687 1.434 . S
C2689 C2690 1.369 . S
C2689 C2691 1.419 . S
C2689 H2693 0.930 . S
C2690 C2689 1.369 . S
C2690 C2699 1.429 . S
C2691 C2689 1.419 . S
C2691 C2692 1.363 . S
C2691 H2694 0.929 . S
C2692 C2691 1.363 . S
C2692 C2698 1.428 . S
H2693 C2689 0.930 . S
H2694 C2691 0.929 . S
S2695 N2696 1.613 . S
S2695 N2697 1.610 . S
N2696 S2695 1.613 . S
N2696 C2699 1.350 . S
N2697 S2695 1.610 . S
N2697 C2698 1.351 . S
C2698 C2692 1.428 . S
C2698 N2697 1.351 . S
C2698 C2699 1.434 . S
C2699 C2690 1.429 . S
C2699 N2696 1.350 . S
C2699 C2698 1.434 . S
C2700 C2701 1.369 . S
C2700 C2702 1.419 . S
C2700 H2704 0.930 . S
C2701 C2700 1.369 . S
C2701 C2710 1.429 . S
C2702 C2700 1.419 . S
C2702 C2703 1.363 . S
C2702 H2705 0.929 . S
C2703 C2702 1.363 . S
C2703 C2709 1.428 . S
H2704 C2700 0.930 . S
H2705 C2702 0.929 . S
S2706 N2707 1.613 . S
S2706 N2708 1.610 . S
N2707 S2706 1.613 . S
N2707 C2710 1.350 . S
N2708 S2706 1.610 . S
N2708 C2709 1.351 . S
C2709 C2703 1.428 . S
C2709 N2708 1.351 . S
C2709 C2710 1.434 . S
C2710 C2701 1.429 . S
C2710 N2707 1.350 . S
C2710 C2709 1.434 . S
C2711 C2712 1.369 . S
C2711 C2713 1.419 . S
C2711 H2715 0.930 . S
C2712 C2711 1.369 . S
C2712 C2721 1.429 . S
C2713 C2711 1.419 . S
C2713 C2714 1.363 . S
C2713 H2716 0.929 . S
C2714 C2713 1.363 . S
C2714 C2720 1.428 . S
H2715 C2711 0.930 . S
H2716 C2713 0.929 . S
S2717 N2718 1.613 . S
S2717 N2719 1.610 . S
N2718 S2717 1.613 . S
N2718 C2721 1.350 . S
N2719 S2717 1.610 . S
N2719 C2720 1.351 . S
C2720 C2714 1.428 . S
C2720 N2719 1.351 . S
C2720 C2721 1.434 . S
C2721 C2712 1.429 . S
C2721 N2718 1.350 . S
C2721 C2720 1.434 . S
C2722 C2723 1.369 . S
C2722 C2724 1.419 . S
C2722 H2726 0.930 . S
C2723 C2722 1.369 . S
C2723 C2732 1.429 . S
C2724 C2722 1.419 . S
C2724 C2725 1.363 . S
C2724 H2727 0.929 . S
C2725 C2724 1.363 . S
C2725 C2731 1.428 . S
H2726 C2722 0.930 . S
H2727 C2724 0.929 . S
S2728 N2729 1.585 1_545 S
S2728 N2730 1.605 1_545 S
N2729 S2728 1.585 1_565 S
N2729 C2732 1.350 . S
N2730 S2728 1.605 1_565 S
N2730 C2731 1.351 . S
C2731 C2725 1.428 . S
C2731 N2730 1.351 . S
C2731 C2732 1.434 . S
C2732 C2723 1.429 . S
C2732 N2729 1.350 . S
C2732 C2731 1.434 . S
C2733 C2734 1.369 . S
C2733 C2735 1.419 . S
C2733 H2737 0.930 1_556 S
C2734 C2733 1.369 . S
C2734 C2743 1.429 . S
C2735 C2733 1.419 . S
C2735 C2736 1.363 . S
C2735 H2738 0.929 . S
C2736 C2735 1.363 . S
C2736 C2742 1.428 . S
H2737 C2733 0.930 1_554 S
H2738 C2735 0.929 . S
S2739 N2740 1.613 . S
S2739 N2741 1.610 . S
N2740 S2739 1.613 . S
N2740 C2743 1.350 . S
N2741 S2739 1.610 . S
N2741 C2742 1.351 . S
C2742 C2736 1.428 . S
C2742 N2741 1.351 . S
C2742 C2743 1.434 . S
C2743 C2734 1.429 . S
C2743 N2740 1.350 . S
C2743 C2742 1.434 . S
C2744 C2745 1.369 . S
C2744 C2746 1.419 . S
C2744 H2748 0.930 . S
C2745 C2744 1.369 . S
C2745 C2754 1.429 . S
C2746 C2744 1.419 . S
C2746 C2747 1.363 . S
C2746 H2749 0.929 . S
C2747 C2746 1.363 . S
C2747 C2753 1.428 . S
H2748 C2744 0.930 . S
H2749 C2746 0.929 . S
S2750 N2751 1.613 . S
S2750 N2752 1.610 1_554 S
N2751 S2750 1.613 . S
N2751 C2754 1.350 1_554 S
N2752 S2750 1.610 1_556 S
N2752 C2753 1.351 . S
C2753 C2747 1.428 . S
C2753 N2752 1.351 . S
C2753 C2754 1.434 . S
C2754 C2745 1.429 . S
C2754 N2751 1.350 1_556 S
C2754 C2753 1.434 . S
C2755 C2756 1.369 . S
C2755 C2757 1.419 . S
C2755 H2759 0.930 . S
C2756 C2755 1.369 . S
C2756 C2765 1.429 . S
C2757 C2755 1.419 . S
C2757 C2758 1.363 . S
C2757 H2760 0.929 . S
C2758 C2757 1.363 . S
C2758 C2764 1.428 . S
H2759 C2755 0.930 . S
H2760 C2757 0.929 . S
S2761 N2762 1.613 . S
S2761 N2763 1.610 . S
N2762 S2761 1.613 . S
N2762 C2765 1.350 . S
N2763 S2761 1.610 . S
N2763 C2764 1.351 . S
C2764 C2758 1.428 . S
C2764 N2763 1.351 . S
C2764 C2765 1.434 . S
C2765 C2756 1.429 . S
C2765 N2762 1.350 . S
C2765 C2764 1.434 . S
C2766 C2767 1.369 . S
C2766 C2768 1.419 . S
C2766 H2770 0.930 . S
C2767 C2766 1.369 . S
C2767 C2776 1.429 . S
C2768 C2766 1.419 . S
C2768 C2769 1.363 . S
C2768 H2771 0.929 . S
C2769 C2768 1.363 . S
C2769 C2775 1.428 . S
H2770 C2766 0.930 . S
H2771 C2768 0.929 . S
S2772 N2773 1.613 . S
S2772 N2774 1.610 . S
N2773 S2772 1.613 . S
N2773 C2776 1.350 . S
N2774 S2772 1.610 . S
N2774 C2775 1.351 . S
C2775 C2769 1.428 . S
C2775 N2774 1.351 . S
C2775 C2776 1.434 . S
C2776 C2767 1.429 . S
C2776 N2773 1.350 . S
C2776 C2775 1.434 . S
C2777 C2778 1.369 . S
C2777 C2779 1.419 . S
C2777 H2781 0.930 . S
C2778 C2777 1.369 . S
C2778 C2787 1.429 . S
C2779 C2777 1.419 . S
C2779 C2780 1.363 . S
C2779 H2782 0.929 . S
C2780 C2779 1.363 . S
C2780 C2786 1.428 . S
H2781 C2777 0.930 . S
H2782 C2779 0.929 . S
S2783 N2784 1.613 . S
S2783 N2785 1.610 . S
N2784 S2783 1.613 . S
N2784 C2787 1.350 . S
N2785 S2783 1.610 . S
N2785 C2786 1.351 . S
C2786 C2780 1.428 . S
C2786 N2785 1.351 . S
C2786 C2787 1.434 . S
C2787 C2778 1.429 . S
C2787 N2784 1.350 . S
C2787 C2786 1.434 . S
C2788 C2789 1.369 . S
C2788 C2790 1.419 . S
C2788 H2792 0.930 . S
C2789 C2788 1.369 . S
C2789 C2798 1.429 . S
C2790 C2788 1.419 . S
C2790 C2791 1.363 . S
C2790 H2793 0.929 . S
C2791 C2790 1.363 . S
C2791 C2797 1.428 . S
H2792 C2788 0.930 . S
H2793 C2790 0.929 . S
S2794 N2795 1.613 . S
S2794 N2796 1.610 1_565 S
N2795 S2794 1.613 . S
N2795 C2798 1.350 1_565 S
N2796 S2794 1.610 1_545 S
N2796 C2797 1.351 . S
C2797 C2791 1.428 . S
C2797 N2796 1.351 . S
C2797 C2798 1.434 . S
C2798 C2789 1.429 . S
C2798 N2795 1.350 1_545 S
C2798 C2797 1.434 . S
C2799 C2800 1.369 . S
C2799 C2801 1.419 . S
C2799 H2803 0.930 . S
C2800 C2799 1.369 . S
C2800 C2809 1.429 . S
C2801 C2799 1.419 . S
C2801 C2802 1.363 . S
C2801 H2804 0.929 . S
C2802 C2801 1.363 . S
C2802 C2808 1.428 . S
H2803 C2799 0.930 . S
H2804 C2801 0.929 . S
S2805 N2806 1.613 . S
S2805 N2807 1.610 . S
N2806 S2805 1.613 . S
N2806 C2809 1.350 . S
N2807 S2805 1.610 . S
N2807 C2808 1.351 . S
C2808 C2802 1.428 . S
C2808 N2807 1.351 . S
C2808 C2809 1.434 . S
C2809 C2800 1.429 . S
C2809 N2806 1.350 . S
C2809 C2808 1.434 . S
C2810 C2811 1.369 . S
C2810 C2812 1.419 . S
C2810 H2814 0.930 . S
C2811 C2810 1.369 . S
C2811 C2820 1.429 . S
C2812 C2810 1.419 . S
C2812 C2813 1.363 . S
C2812 H2815 0.929 . S
C2813 C2812 1.363 . S
C2813 C2819 1.428 . S
H2814 C2810 0.930 . S
H2815 C2812 0.929 . S
S2816 N2817 1.613 . S
S2816 N2818 1.610 . S
N2817 S2816 1.613 . S
N2817 C2820 1.350 . S
N2818 S2816 1.610 . S
N2818 C2819 1.351 . S
C2819 C2813 1.428 . S
C2819 N2818 1.351 . S
C2819 C2820 1.434 . S
C2820 C2811 1.429 . S
C2820 N2817 1.350 . S
C2820 C2819 1.434 . S
C2821 C2822 1.369 . S
C2821 C2823 1.419 . S
C2821 H2825 0.930 . S
C2822 C2821 1.369 . S
C2822 C2831 1.429 . S
C2823 C2821 1.419 . S
C2823 C2824 1.363 . S
C2823 H2826 0.929 . S
C2824 C2823 1.363 . S
C2824 C2830 1.428 . S
H2825 C2821 0.930 . S
H2826 C2823 0.929 . S
S2827 N2828 1.613 . S
S2827 N2829 1.610 . S
N2828 S2827 1.613 . S
N2828 C2831 1.350 . S
N2829 S2827 1.610 . S
N2829 C2830 1.351 . S
C2830 C2824 1.428 . S
C2830 N2829 1.351 . S
C2830 C2831 1.434 . S
C2831 C2822 1.429 . S
C2831 N2828 1.350 . S
C2831 C2830 1.434 . S
C2832 C2833 1.369 . S
C2832 C2834 1.419 . S
C2832 H2836 0.930 . S
C2833 C2832 1.369 . S
C2833 C2842 1.429 . S
C2834 C2832 1.419 . S
C2834 C2835 1.363 . S
C2834 H2837 0.929 . S
C2835 C2834 1.363 . S
C2835 C2841 1.428 . S
H2836 C2832 0.930 . S
H2837 C2834 0.929 . S
S2838 N2839 1.613 . S
S2838 N2840 1.610 . S
N2839 S2838 1.613 . S
N2839 C2842 1.350 . S
N2840 S2838 1.610 . S
N2840 C2841 1.351 . S
C2841 C2835 1.428 . S
C2841 N2840 1.351 . S
C2841 C2842 1.434 . S
C2842 C2833 1.429 . S
C2842 N2839 1.350 . S
C2842 C2841 1.434 . S
C2843 C2844 1.369 . S
C2843 C2845 1.419 . S
C2843 H2847 0.930 . S
C2844 C2843 1.369 . S
C2844 C2853 1.429 . S
C2845 C2843 1.419 . S
C2845 C2846 1.363 . S
C2845 H2848 0.929 . S
C2846 C2845 1.363 . S
C2846 C2852 1.428 . S
H2847 C2843 0.930 . S
H2848 C2845 0.929 . S
S2849 N2850 1.613 . S
S2849 N2851 1.610 . S
N2850 S2849 1.613 . S
N2850 C2853 1.350 . S
N2851 S2849 1.610 . S
N2851 C2852 1.351 . S
C2852 C2846 1.428 . S
C2852 N2851 1.351 . S
C2852 C2853 1.434 . S
C2853 C2844 1.429 . S
C2853 N2850 1.350 . S
C2853 C2852 1.434 . S
C2854 C2855 1.369 . S
C2854 C2856 1.419 . S
C2854 H2858 0.930 . S
C2855 C2854 1.369 . S
C2855 C2864 1.429 . S
C2856 C2854 1.419 . S
C2856 C2857 1.363 . S
C2856 H2859 0.929 . S
C2857 C2856 1.363 . S
C2857 C2863 1.428 . S
H2858 C2854 0.930 . S
H2859 C2856 0.929 . S
S2860 N2861 1.613 . S
S2860 N2862 1.610 . S
N2861 S2860 1.613 . S
N2861 C2864 1.350 . S
N2862 S2860 1.610 . S
N2862 C2863 1.351 . S
C2863 C2857 1.428 . S
C2863 N2862 1.351 . S
C2863 C2864 1.434 . S
C2864 C2855 1.429 . S
C2864 N2861 1.350 . S
C2864 C2863 1.434 . S
C2865 C2866 1.369 . S
C2865 C2867 1.419 . S
C2865 H2869 0.930 1_455 S
C2866 C2865 1.369 . S
C2866 C2875 1.429 . S
C2867 C2865 1.419 . S
C2867 C2868 1.363 . S
C2867 H2870 0.929 1_455 S
C2868 C2867 1.363 . S
C2868 C2874 1.428 . S
H2869 C2865 0.930 1_655 S
H2870 C2867 0.929 1_655 S
S2871 N2872 1.613 . S
S2871 N2873 1.610 . S
N2872 S2871 1.613 . S
N2872 C2875 1.350 . S
N2873 S2871 1.610 . S
N2873 C2874 1.351 . S
C2874 C2868 1.428 . S
C2874 N2873 1.351 . S
C2874 C2875 1.434 . S
C2875 C2866 1.429 . S
C2875 N2872 1.350 . S
C2875 C2874 1.434 . S
C2876 C2877 1.369 . S
C2876 C2878 1.419 . S
C2876 H2880 0.930 . S
C2877 C2876 1.369 . S
C2877 C2886 1.429 . S
C2878 C2876 1.419 . S
C2878 C2879 1.363 . S
C2878 H2881 0.929 . S
C2879 C2878 1.363 . S
C2879 C2885 1.428 . S
H2880 C2876 0.930 . S
H2881 C2878 0.929 . S
S2882 N2883 1.613 . S
S2882 N2884 1.610 . S
N2883 S2882 1.613 . S
N2883 C2886 1.350 . S
N2884 S2882 1.610 . S
N2884 C2885 1.351 . S
C2885 C2879 1.428 . S
C2885 N2884 1.351 . S
C2885 C2886 1.434 . S
C2886 C2877 1.429 . S
C2886 N2883 1.350 . S
C2886 C2885 1.434 . S
C2887 C2888 1.369 . S
C2887 C2889 1.398 . S
C2887 H2891 0.929 1_565 S
C2888 C2887 1.369 . S
C2888 C2897 1.429 . S
C2889 C2887 1.398 . S
C2889 C2890 1.381 . S
C2889 H2892 0.936 1_565 S
C2890 C2889 1.381 . S
C2890 C2896 1.428 . S
H2891 C2887 0.929 1_545 S
H2892 C2889 0.936 1_545 S
S2893 N2894 1.613 . S
S2893 N2895 1.610 . S
N2894 S2893 1.613 . S
N2894 C2897 1.350 . S
N2895 S2893 1.610 . S
N2895 C2896 1.351 . S
C2896 C2890 1.428 . S
C2896 N2895 1.351 . S
C2896 C2897 1.434 . S
C2897 C2888 1.429 . S
C2897 N2894 1.350 . S
C2897 C2896 1.434 . S
C2898 C2899 1.369 . S
C2898 C2900 1.419 . S
C2898 H2902 0.930 . S
C2899 C2898 1.369 . S
C2899 C2908 1.429 1_565 S
C2900 C2898 1.419 . S
C2900 C2901 1.363 . S
C2900 H2903 0.929 . S
C2901 C2900 1.363 . S
C2901 C2907 1.428 1_565 S
H2902 C2898 0.930 . S
H2903 C2900 0.929 . S
S2904 N2905 1.613 . S
S2904 N2906 1.610 . S
N2905 S2904 1.613 . S
N2905 C2908 1.350 . S
N2906 S2904 1.610 . S
N2906 C2907 1.351 . S
C2907 C2901 1.428 1_545 S
C2907 N2906 1.351 . S
C2907 C2908 1.434 . S
C2908 C2899 1.429 1_545 S
C2908 N2905 1.350 . S
C2908 C2907 1.434 . S
C2909 C2910 1.369 1_655 S
C2909 C2911 1.419 . S
C2909 H2913 0.930 . S
C2910 C2909 1.369 1_455 S
C2910 C2919 1.429 . S
C2911 C2909 1.419 . S
C2911 C2912 1.363 1_655 S
C2911 H2914 0.929 . S
C2912 C2911 1.363 1_455 S
C2912 C2918 1.428 . S
H2913 C2909 0.930 . S
H2914 C2911 0.929 . S
S2915 N2916 1.613 . S
S2915 N2917 1.610 . S
N2916 S2915 1.613 . S
N2916 C2919 1.350 . S
N2917 S2915 1.610 . S
N2917 C2918 1.351 . S
C2918 C2912 1.428 . S
C2918 N2917 1.351 . S
C2918 C2919 1.434 . S
C2919 C2910 1.429 . S
C2919 N2916 1.350 . S
C2919 C2918 1.434 . S
C2920 C2921 1.369 . S
C2920 C2922 1.419 . S
C2920 H2924 0.930 . S
C2921 C2920 1.369 . S
C2921 C2930 1.429 . S
C2922 C2920 1.419 . S
C2922 C2923 1.363 . S
C2922 H2925 0.929 . S
C2923 C2922 1.363 . S
C2923 C2929 1.428 . S
H2924 C2920 0.930 . S
H2925 C2922 0.929 . S
S2926 N2927 1.613 . S
S2926 N2928 1.610 . S
N2927 S2926 1.613 . S
N2927 C2930 1.350 . S
N2928 S2926 1.610 . S
N2928 C2929 1.351 . S
C2929 C2923 1.428 . S
C2929 N2928 1.351 . S
C2929 C2930 1.434 . S
C2930 C2921 1.429 . S
C2930 N2927 1.350 . S
C2930 C2929 1.434 . S
C2931 C2932 1.369 . S
C2931 C2933 1.419 . S
C2931 H2935 0.930 . S
C2932 C2931 1.369 . S
C2932 C2941 1.429 . S
C2933 C2931 1.419 . S
C2933 C2934 1.363 . S
C2933 H2936 0.929 . S
C2934 C2933 1.363 . S
C2934 C2940 1.428 . S
H2935 C2931 0.930 . S
H2936 C2933 0.929 . S
S2937 N2938 1.613 . S
S2937 N2939 1.610 . S
N2938 S2937 1.613 . S
N2938 C2941 1.350 . S
N2939 S2937 1.610 . S
N2939 C2940 1.351 . S
C2940 C2934 1.428 . S
C2940 N2939 1.351 . S
C2940 C2941 1.434 . S
C2941 C2932 1.429 . S
C2941 N2938 1.350 . S
C2941 C2940 1.434 . S
C2942 C2943 1.369 . S
C2942 C2944 1.419 . S
C2942 H2946 0.930 . S
C2943 C2942 1.369 . S
C2943 C2952 1.429 . S
C2944 C2942 1.419 . S
C2944 C2945 1.363 . S
C2944 H2947 0.929 . S
C2945 C2944 1.363 . S
C2945 C2951 1.428 . S
H2946 C2942 0.930 . S
H2947 C2944 0.929 . S
S2948 N2949 1.613 . S
S2948 N2950 1.610 . S
N2949 S2948 1.613 . S
N2949 C2952 1.350 . S
N2950 S2948 1.610 . S
N2950 C2951 1.351 . S
C2951 C2945 1.428 . S
C2951 N2950 1.351 . S
C2951 C2952 1.434 . S
C2952 C2943 1.429 . S
C2952 N2949 1.350 . S
C2952 C2951 1.434 . S
C2953 C2954 1.369 . S
C2953 C2955 1.419 . S
C2953 H2957 0.930 . S
C2954 C2953 1.369 . S
C2954 C2963 1.429 . S
C2955 C2953 1.419 . S
C2955 C2956 1.363 . S
C2955 H2958 0.929 . S
C2956 C2955 1.363 . S
C2956 C2962 1.428 . S
H2957 C2953 0.930 . S
H2958 C2955 0.929 . S
S2959 N2960 1.613 . S
S2959 N2961 1.610 . S
N2960 S2959 1.613 . S
N2960 C2963 1.350 . S
N2961 S2959 1.610 . S
N2961 C2962 1.351 . S
C2962 C2956 1.428 . S
C2962 N2961 1.351 . S
C2962 C2963 1.434 . S
C2963 C2954 1.429 . S
C2963 N2960 1.350 . S
C2963 C2962 1.434 . S
C2964 C2965 1.369 . S
C2964 C2966 1.419 . S
C2964 H2968 0.930 . S
C2965 C2964 1.369 . S
C2965 C2974 1.429 1_545 S
C2966 C2964 1.419 . S
C2966 C2967 1.363 . S
C2966 H2969 0.929 . S
C2967 C2966 1.363 . S
C2967 C2973 1.428 1_545 S
H2968 C2964 0.930 . S
H2969 C2966 0.929 . S
S2970 N2971 1.613 . S
S2970 N2972 1.610 . S
N2971 S2970 1.613 . S
N2971 C2974 1.350 . S
N2972 S2970 1.610 . S
N2972 C2973 1.351 . S
C2973 C2967 1.428 1_565 S
C2973 N2972 1.351 . S
C2973 C2974 1.434 . S
C2974 C2965 1.429 1_565 S
C2974 N2971 1.350 . S
C2974 C2973 1.434 . S
C2975 C2976 1.369 . S
C2975 C2977 1.419 . S
C2975 H2979 0.930 1_655 S
C2976 C2975 1.369 . S
C2976 C2985 1.429 . S
C2977 C2975 1.419 . S
C2977 C2978 1.363 . S
C2977 H2980 0.929 1_655 S
C2978 C2977 1.363 . S
C2978 C2984 1.428 . S
H2979 C2975 0.930 1_455 S
H2980 C2977 0.929 1_455 S
S2981 N2982 1.613 . S
S2981 N2983 1.610 . S
N2982 S2981 1.613 . S
N2982 C2985 1.350 . S
N2983 S2981 1.610 . S
N2983 C2984 1.351 . S
C2984 C2978 1.428 . S
C2984 N2983 1.351 . S
C2984 C2985 1.434 . S
C2985 C2976 1.429 . S
C2985 N2982 1.350 . S
C2985 C2984 1.434 . S
C2986 C2987 1.369 . S
C2986 C2988 1.419 . S
C2986 H2990 0.930 . S
C2987 C2986 1.369 . S
C2987 C2996 1.429 . S
C2988 C2986 1.419 . S
C2988 C2989 1.363 . S
C2988 H2991 0.929 . S
C2989 C2988 1.363 . S
C2989 C2995 1.428 . S
H2990 C2986 0.930 . S
H2991 C2988 0.929 . S
S2992 N2993 1.613 . S
S2992 N2994 1.610 . S
N2993 S2992 1.613 . S
N2993 C2996 1.350 . S
N2994 S2992 1.610 . S
N2994 C2995 1.351 . S
C2995 C2989 1.428 . S
C2995 N2994 1.351 . S
C2995 C2996 1.434 . S
C2996 C2987 1.429 . S
C2996 N2993 1.350 . S
C2996 C2995 1.434 . S
C2997 C2998 1.369 . S
C2997 C2999 1.419 . S
C2997 H3001 0.930 . S
C2998 C2997 1.369 . S
C2998 C3007 1.429 . S
C2999 C2997 1.419 . S
C2999 C3000 1.363 . S
C2999 H3002 0.929 . S
C3000 C2999 1.363 . S
C3000 C3006 1.428 . S
H3001 C2997 0.930 . S
H3002 C2999 0.929 . S
S3003 N3004 1.613 . S
S3003 N3005 1.610 . S
N3004 S3003 1.613 . S
N3004 C3007 1.350 . S
N3005 S3003 1.610 . S
N3005 C3006 1.351 . S
C3006 C3000 1.428 . S
C3006 N3005 1.351 . S
C3006 C3007 1.434 . S
C3007 C2998 1.429 . S
C3007 N3004 1.350 . S
C3007 C3006 1.434 . S
C3008 C3009 1.369 . S
C3008 C3010 1.419 . S
C3008 H3012 0.930 . S
C3009 C3008 1.369 . S
C3009 C3018 1.429 . S
C3010 C3008 1.419 . S
C3010 C3011 1.363 . S
C3010 H3013 0.929 . S
C3011 C3010 1.363 . S
C3011 C3017 1.428 . S
H3012 C3008 0.930 . S
H3013 C3010 0.929 . S
S3014 N3015 1.613 . S
S3014 N3016 1.610 . S
N3015 S3014 1.613 . S
N3015 C3018 1.350 . S
N3016 S3014 1.610 . S
N3016 C3017 1.351 . S
C3017 C3011 1.428 . S
C3017 N3016 1.351 . S
C3017 C3018 1.434 . S
C3018 C3009 1.429 . S
C3018 N3015 1.350 . S
C3018 C3017 1.434 . S
C3019 C3020 1.369 . S
C3019 C3021 1.419 . S
C3019 H3023 0.930 . S
C3020 C3019 1.369 . S
C3020 C3029 1.429 . S
C3021 C3019 1.419 . S
C3021 C3022 1.363 . S
C3021 H3024 0.929 . S
C3022 C3021 1.363 . S
C3022 C3028 1.428 . S
H3023 C3019 0.930 . S
H3024 C3021 0.929 . S
S3025 N3026 1.613 . S
S3025 N3027 1.610 . S
N3026 S3025 1.613 . S
N3026 C3029 1.350 . S
N3027 S3025 1.610 . S
N3027 C3028 1.351 . S
C3028 C3022 1.428 . S
C3028 N3027 1.351 . S
C3028 C3029 1.434 . S
C3029 C3020 1.429 . S
C3029 N3026 1.350 . S
C3029 C3028 1.434 . S
C3030 C3031 1.369 . S
C3030 C3032 1.419 . S
C3030 H3034 0.930 . S
C3031 C3030 1.369 . S
C3031 C3040 1.429 . S
C3032 C3030 1.419 . S
C3032 C3033 1.363 . S
C3032 H3035 0.929 . S
C3033 C3032 1.363 . S
C3033 C3039 1.428 . S
H3034 C3030 0.930 . S
H3035 C3032 0.929 . S
S3036 N3037 1.613 . S
S3036 N3038 1.610 . S
N3037 S3036 1.613 . S
N3037 C3040 1.350 . S
N3038 S3036 1.610 . S
N3038 C3039 1.351 . S
C3039 C3033 1.428 . S
C3039 N3038 1.351 . S
C3039 C3040 1.434 . S
C3040 C3031 1.429 . S
C3040 N3037 1.350 . S
C3040 C3039 1.434 . S
C3041 C3042 1.369 . S
C3041 C3043 1.419 . S
C3041 H3045 0.930 . S
C3042 C3041 1.369 . S
C3042 C3051 1.429 . S
C3043 C3041 1.419 . S
C3043 C3044 1.363 . S
C3043 H3046 0.929 . S
C3044 C3043 1.363 . S
C3044 C3050 1.428 . S
H3045 C3041 0.930 . S
H3046 C3043 0.929 . S
S3047 N3048 1.613 . S
S3047 N3049 1.610 . S
N3048 S3047 1.613 . S
N3048 C3051 1.350 . S
N3049 S3047 1.610 . S
N3049 C3050 1.351 . S
C3050 C3044 1.428 . S
C3050 N3049 1.351 . S
C3050 C3051 1.434 . S
C3051 C3042 1.429 . S
C3051 N3048 1.350 . S
C3051 C3050 1.434 . S
C3052 C3053 1.369 . S
C3052 C3054 1.419 . S
C3052 H3056 0.930 . S
C3053 C3052 1.369 . S
C3053 C3062 1.429 . S
C3054 C3052 1.419 . S
C3054 C3055 1.363 . S
C3054 H3057 0.929 . S
C3055 C3054 1.363 . S
C3055 C3061 1.428 . S
H3056 C3052 0.930 . S
H3057 C3054 0.929 . S
S3058 N3059 1.613 . S
S3058 N3060 1.610 . S
N3059 S3058 1.613 . S
N3059 C3062 1.350 . S
N3060 S3058 1.610 . S
N3060 C3061 1.351 . S
C3061 C3055 1.428 . S
C3061 N3060 1.351 . S
C3061 C3062 1.434 . S
C3062 C3053 1.429 . S
C3062 N3059 1.350 . S
C3062 C3061 1.434 . S
C3063 C3064 1.369 1_455 S
C3063 C3065 1.419 . S
C3063 H3067 0.930 . S
C3064 C3063 1.369 1_655 S
C3064 C3073 1.429 . S
C3065 C3063 1.419 . S
C3065 C3066 1.363 1_455 S
C3065 H3068 0.929 . S
C3066 C3065 1.363 1_655 S
C3066 C3072 1.428 . S
H3067 C3063 0.930 . S
H3068 C3065 0.929 . S
S3069 N3070 1.613 . S
S3069 N3071 1.610 . S
N3070 S3069 1.613 . S
N3070 C3073 1.350 . S
N3071 S3069 1.610 . S
N3071 C3072 1.351 . S
C3072 C3066 1.428 . S
C3072 N3071 1.351 . S
C3072 C3073 1.434 . S
C3073 C3064 1.429 . S
C3073 N3070 1.350 . S
C3073 C3072 1.434 . S
C3074 C3075 1.369 . S
C3074 C3076 1.419 . S
C3074 H3078 0.930 . S
C3075 C3074 1.369 . S
C3075 C3084 1.429 . S
C3076 C3074 1.419 . S
C3076 C3077 1.363 . S
C3076 H3079 0.929 . S
C3077 C3076 1.363 . S
C3077 C3083 1.428 . S
H3078 C3074 0.930 . S
H3079 C3076 0.929 . S
S3080 N3081 1.613 . S
S3080 N3082 1.610 . S
N3081 S3080 1.613 . S
N3081 C3084 1.350 . S
N3082 S3080 1.610 . S
N3082 C3083 1.351 . S
C3083 C3077 1.428 . S
C3083 N3082 1.351 . S
C3083 C3084 1.434 . S
C3084 C3075 1.429 . S
C3084 N3081 1.350 . S
C3084 C3083 1.434 . S
C3085 C3086 1.369 . S
C3085 C3087 1.419 . S
C3085 H3089 0.930 . S
C3086 C3085 1.369 . S
C3086 C3095 1.429 . S
C3087 C3085 1.419 . S
C3087 C3088 1.363 . S
C3087 H3090 0.929 . S
C3088 C3087 1.363 . S
C3088 C3094 1.428 1_545 S
H3089 C3085 0.930 . S
H3090 C3087 0.929 . S
S3091 N3092 1.613 . S
S3091 N3093 1.610 . S
N3092 S3091 1.613 . S
N3092 C3095 1.350 1_565 S
N3093 S3091 1.610 . S
N3093 C3094 1.351 . S
C3094 C3088 1.428 1_565 S
C3094 N3093 1.351 . S
C3094 C3095 1.434 1_565 S
C3095 C3086 1.429 . S
C3095 N3092 1.350 1_545 S
C3095 C3094 1.434 1_545 S
C2305 C7 1.341 . S
C2307 C1307 1.100 1_655 S
C2316 C23 1.850 . S
C2318 C1447 1.112 . S
C2329 C1535 1.153 . S
C2327 C37 1.366 . S
C2338 C35 1.448 . S
C2340 C1675 1.076 1_565 S
C2349 C9 1.413 . S
C2351 C1789 1.079 . S
C2360 C21 1.794 . S
C2362 C1877 1.329 . S
C2371 C49 1.345 . S
C2373 C1763 1.074 . S
C2384 C1903 1.498 . S
C2382 C65 1.712 . S
C2395 C1649 1.154 . S
C2393 C79 1.376 . S
C2404 C77 1.431 . S
C2406 C1561 1.066 . S
C2417 C1333 1.091 . S
C2415 C51 1.408 . S
C2426 C63 1.669 . S
C2428 C1421 1.623 . S
C2437 C91 1.846 . S
C2439 C1991 1.351 . S
C2448 C107 1.952 . S
C2450 C2131 1.219 . S
C2461 C2219 1.311 . S
C2459 C121 1.921 . S
C2470 C119 1.903 . S
C2472 C307 1.235 . S
C2481 C93 1.991 . S
C2483 C421 1.224 . S
C2492 C105 1.878 . S
C2494 C509 1.415 . S
C2503 C133 1.593 . S
C2505 C395 1.556 . S
C2514 C149 1.798 . S
C2516 C535 1.619 . S
C2527 C281 1.633 . S
C2525 C163 1.781 . S
C2538 C2245 1.791 . S
C2536 C161 1.895 . S
C2549 C2017 1.658 . S
C2547 C135 1.833 . S
C2560 C2105 1.748 . S
C2558 C147 1.756 . S
C2569 C175 1.723 . S
C2571 C623 1.245 . S
C2580 C191 1.940 . S
C2582 C763 1.207 . S
C2591 C205 1.926 . S
C2593 C851 1.339 . S
C2602 C203 2.022 . S
C2604 C991 1.341 . S
C2615 C1105 1.212 . S
C2613 C177 1.991 . S
C2626 C1193 1.429 . S
C2624 C189 1.894 . S
C2637 C1079 1.677 . S
C2635 C217 1.727 . S
C2648 C1219 1.638 . S
C2646 C233 1.815 . S
C2657 C247 1.764 . S
C2659 C965 1.636 . S
C2670 C877 1.679 . S
C2668 C245 1.772 . S
C2679 C219 1.844 . S
C2681 C649 1.645 . S
C2692 C737 1.730 . S
C2690 C231 1.747 . S
C2703 C263 0.974 . S
C2701 C8 1.883 . S
C2712 C17 1.708 . S
C2714 C377 0.935 . S
C2725 C481 1.315 . S
C2723 C31 1.808 . S
C2736 C595 1.278 . S
C2734 C36 1.781 . S
C2747 C719 1.015 . S
C2745 C3 1.827 . S
C2758 C823 1.248 . S
C2756 C22 1.762 . S
C2767 C50 2.007 . S
C2769 C833 1.620 . S
C2778 C59 1.824 . S
C2780 C605 1.541 . S
C2789 C73 1.926 . S
C2791 C709 1.814 . S
C2800 C78 1.928 . S
C2802 C367 1.801 . S
C2813 C491 1.677 . S
C2811 C45 1.969 . S
C2822 C64 1.896 . S
C2824 C253 1.767 . S
C2835 C947 0.981 . S
C2833 C92 1.802 . S
C2844 C101 1.847 . S
C2846 C1061 1.075 . S
C2855 C115 1.845 . S
C2857 C1165 1.397 . S
C2868 C1279 1.125 . S
C2866 C120 1.335 . S
C2877 C87 1.746 . S
C2879 C1403 0.986 . S
C2888 C106 1.374 . S
C2890 C1507 1.148 . S
C2899 C134 1.473 . S
C2901 C1517 0.927 1_565 S
C2910 C143 1.390 . S
C2912 C1289 0.954 1_455 S
C2923 C1393 1.728 . S
C2921 C157 1.858 . S
C2932 C162 1.870 . S
C2934 C1051 1.769 . S
C2943 C129 1.973 . S
C2945 C1175 1.652 . S
C2956 C937 1.854 . S
C2954 C148 2.008 . S
C2967 C1631 0.957 . S
C2965 C176 1.476 . S
C2976 C185 1.376 . S
C2978 C1745 0.935 . S
C2987 C199 1.731 . S
C2989 C1849 1.277 . S
C3000 C1963 1.288 . S
C2998 C204 1.714 . S
C3011 C2087 1.115 . S
C3009 C171 1.855 . S
C3020 C190 1.873 . S
C3022 C2191 1.384 . S
C3031 C218 1.930 . S
C3033 C2201 1.570 . S
C3042 C227 1.963 . S
C3044 C1973 1.637 . S
C3055 C2077 1.822 . S
C3053 C241 1.950 . S
C3066 C1735 1.161 1_655 S
C3064 C246 1.342 . S
C3077 C1859 1.559 . S
C3075 C213 1.876 . S
C3086 C232 1.403 . S
C3088 C1621 1.180 1_545 S
