# Generated by pormake.
# Topology zzz, (3,6)-cn, num edge types: 1
# Building blocks:
#     Node 0, Type 0, BuildingBlock: BELTOD_clean_linker_0, # of connection points: 3
#     Node 1, Type 0, BuildingBlock: BELTOD_clean_linker_0, # of connection points: 3
#     Node 2, Type 0, BuildingBlock: BELTOD_clean_linker_0, # of connection points: 3
#     Node 3, Type 0, BuildingBlock: BELTOD_clean_linker_0, # of connection points: 3
#     Node 4, Type 0, BuildingBlock: BELTOD_clean_linker_0, # of connection points: 3
#     Node 5, Type 0, BuildingBlock: BELTOD_clean_linker_0, # of connection points: 3
#     Node 6, Type 0, BuildingBlock: BELTOD_clean_linker_0, # of connection points: 3
#     Node 7, Type 0, BuildingBlock: BELTOD_clean_linker_0, # of connection points: 3
#     Node 8, Type 1, BuildingBlock: BETDAH_clean_sbu_0, # of connection points: 6
#     Node 9, Type 1, BuildingBlock: BETDAH_clean_sbu_0, # of connection points: 6
#     Node 10, Type 1, BuildingBlock: BETDAH_clean_sbu_0, # of connection points: 6
#     Node 11, Type 1, BuildingBlock: BETDAH_clean_sbu_0, # of connection points: 6
#     Edge 12, Type (0, 1), BuildingBlock: UVAHIK_clean_linker_0, # of connection points: 2
#     Edge 13, Type (0, 1), BuildingBlock: UVAHIK_clean_linker_0, # of connection points: 2
#     Edge 14, Type (0, 1), BuildingBlock: UVAHIK_clean_linker_0, # of connection points: 2
#     Edge 15, Type (0, 1), BuildingBlock: UVAHIK_clean_linker_0, # of connection points: 2
#     Edge 16, Type (0, 1), BuildingBlock: UVAHIK_clean_linker_0, # of connection points: 2
#     Edge 17, Type (0, 1), BuildingBlock: UVAHIK_clean_linker_0, # of connection points: 2
#     Edge 18, Type (0, 1), BuildingBlock: UVAHIK_clean_linker_0, # of connection points: 2
#     Edge 19, Type (0, 1), BuildingBlock: UVAHIK_clean_linker_0, # of connection points: 2
#     Edge 20, Type (0, 1), BuildingBlock: UVAHIK_clean_linker_0, # of connection points: 2
#     Edge 21, Type (0, 1), BuildingBlock: UVAHIK_clean_linker_0, # of connection points: 2
#     Edge 22, Type (0, 1), BuildingBlock: UVAHIK_clean_linker_0, # of connection points: 2
#     Edge 23, Type (0, 1), BuildingBlock: UVAHIK_clean_linker_0, # of connection points: 2
#     Edge 24, Type (0, 1), BuildingBlock: UVAHIK_clean_linker_0, # of connection points: 2
#     Edge 25, Type (0, 1), BuildingBlock: UVAHIK_clean_linker_0, # of connection points: 2
#     Edge 26, Type (0, 1), BuildingBlock: UVAHIK_clean_linker_0, # of connection points: 2
#     Edge 27, Type (0, 1), BuildingBlock: UVAHIK_clean_linker_0, # of connection points: 2
#     Edge 28, Type (0, 1), BuildingBlock: UVAHIK_clean_linker_0, # of connection points: 2
#     Edge 29, Type (0, 1), BuildingBlock: UVAHIK_clean_linker_0, # of connection points: 2
#     Edge 30, Type (0, 1), BuildingBlock: UVAHIK_clean_linker_0, # of connection points: 2
#     Edge 31, Type (0, 1), BuildingBlock: UVAHIK_clean_linker_0, # of connection points: 2
#     Edge 32, Type (0, 1), BuildingBlock: UVAHIK_clean_linker_0, # of connection points: 2
#     Edge 33, Type (0, 1), BuildingBlock: UVAHIK_clean_linker_0, # of connection points: 2
#     Edge 34, Type (0, 1), BuildingBlock: UVAHIK_clean_linker_0, # of connection points: 2
#     Edge 35, Type (0, 1), BuildingBlock: UVAHIK_clean_linker_0, # of connection points: 2
# Relax obj value: 0.395
# Max RMSD: 0.262
# Mean RMSD: 0.245
data_MOF--net-zzz--node1-BETDAH_clean_sbu_0--node2-BELTOD_clean_linker_0--edge1-UVAHIK_clean_linker_0
_symmetry_space_group_name_H-M    P1
_symmetry_Int_Tables_number       1
_symmetry_cell_setting            triclinic
loop_
_symmetry_equiv_pos_as_xyz
'x, y, z'
_cell_length_a     70.770559
_cell_length_b     70.690684
_cell_length_c     21.130175
_cell_angle_alpha  90.019771
_cell_angle_beta   89.966969
_cell_angle_gamma 89.999125
loop_
_atom_site_label
_atom_site_type_symbol
_atom_site_fract_x
_atom_site_fract_y
_atom_site_fract_z
_atom_type_partial_charge
P0 P 0.72029 0.47629 0.35257 0.0
H1 H 0.72852 0.48913 0.48174 0.0
H2 H 0.75723 0.5023 0.52808 0.0
H3 H 0.78066 0.50946 0.34053 0.0
H4 H 0.7516 0.49724 0.29489 0.0
H5 H 0.68174 0.46442 0.33126 0.0
H6 H 0.65676 0.47598 0.26249 0.0
H7 H 0.69153 0.52382 0.21086 0.0
H8 H 0.71674 0.51191 0.28004 0.0
H9 H 0.74483 0.4439 0.37355 0.0
H10 H 0.72454 0.47609 0.21411 0.0
O11 O 0.71147 0.46306 0.41097 0.0
H12 H 0.76779 0.42811 0.30505 0.0
H13 H 0.74765 0.46091 0.14616 0.0
C14 C 0.73803 0.49188 0.38489 0.0
C15 C 0.73958 0.49413 0.45055 0.0
C16 C 0.75617 0.50146 0.47704 0.0
C17 C 0.77159 0.50646 0.43829 0.0
C18 C 0.76919 0.50581 0.37215 0.0
C19 C 0.75251 0.49872 0.34578 0.0
C20 C 0.70095 0.48748 0.31174 0.0
C21 C 0.68383 0.47768 0.30656 0.0
C22 C 0.66951 0.48434 0.26711 0.0
C23 C 0.67206 0.5009 0.23125 0.0
C24 C 0.68913 0.51098 0.23764 0.0
C25 C 0.70348 0.50431 0.27762 0.0
C26 C 0.73283 0.46102 0.29894 0.0
C27 C 0.7449 0.44713 0.32345 0.0
C28 C 0.75815 0.43827 0.28436 0.0
C29 C 0.7597 0.44337 0.2202 0.0
C30 C 0.74672 0.45642 0.19506 0.0
C31 C 0.73345 0.4652 0.23413 0.0
P32 P 0.02689 0.71953 0.33392 0.0
H33 H 0.02229 0.73334 0.46356 0.0
H34 H 0.01086 0.76331 0.50408 0.0
H35 H 0.98749 0.77644 0.32013 0.0
H36 H 1.00033 0.74692 0.27891 0.0
H37 H 0.0388 0.68088 0.3142 0.0
H38 H 0.02833 0.6562 0.24261 0.0
H39 H 0.98014 0.69034 0.19024 0.0
H40 H 0.99104 0.71529 0.26176 0.0
H41 H 0.05172 0.75181 0.34883 0.0
H42 H 0.03436 0.71499 0.19658 0.0
O43 O 0.04084 0.71077 0.39045 0.0
H44 H 0.06721 0.77257 0.27288 0.0
H45 H 0.05043 0.73526 0.12076 0.0
C46 C 0.012 0.73763 0.36823 0.0
C47 C 0.01422 0.74236 0.43226 0.0
C48 C 0.00759 0.75966 0.45556 0.0
C49 C 0.99841 0.77265 0.41541 0.0
C50 C 0.99487 0.76712 0.35237 0.0
C51 C 1.0018 0.74992 0.3289 0.0
C52 C 0.0156 0.69989 0.29432 0.0
C53 C 0.02564 0.68288 0.28893 0.0
C54 C 0.0196 0.66869 0.24767 0.0
C55 C 0.00336 0.67119 0.21029 0.0
C56 C 0.99283 0.68799 0.2177 0.0
C57 C 0.99895 0.70224 0.25919 0.0
C58 C 0.04168 0.73199 0.27855 0.0
C59 C 0.05168 0.74792 0.29924 0.0
C60 C 0.06067 0.75972 0.25567 0.0
C61 C 0.05993 0.75568 0.1905 0.0
C62 C 0.05096 0.73896 0.17046 0.0
C63 C 0.04182 0.72727 0.21406 0.0
P64 P 0.78395 0.03422 0.34739 0.0
H65 H 0.77606 0.0209 0.47622 0.0
H66 H 0.74732 0.00807 0.52357 0.0
H67 H 0.7228 1.00227 0.33718 0.0
H68 H 0.75186 0.01425 0.29038 0.0
H69 H 0.82267 0.04555 0.32603 0.0
H70 H 0.84736 0.03401 0.25599 0.0
H71 H 0.81171 0.98713 0.20137 0.0
H72 H 0.78678 0.99904 0.27188 0.0
H73 H 0.76013 0.06699 0.37119 0.0
H74 H 0.77932 0.03523 0.20912 0.0
O75 O 0.79318 0.04702 0.40613 0.0
H76 H 0.73744 0.08373 0.30434 0.0
H77 H 0.75648 0.05138 0.14278 0.0
C78 C 0.76602 0.01884 0.37981 0.0
C79 C 0.76474 0.01629 0.44543 0.0
C80 C 0.74815 0.00916 0.47253 0.0
C81 C 0.73244 0.00461 0.43447 0.0
C82 C 0.73451 0.00558 0.36824 0.0
C83 C 0.75118 0.01251 0.34123 0.0
C84 C 0.80303 0.02296 0.30519 0.0
C85 C 0.82031 0.03249 0.30037 0.0
C86 C 0.83447 0.02585 0.26017 0.0
C87 C 0.83161 0.00956 0.22314 0.0
C88 C 0.81436 0.99975 0.22904 0.0
C89 C 0.80017 0.00642 0.26979 0.0
C90 C 0.77156 0.05001 0.29514 0.0
C91 C 0.75988 0.06404 0.32089 0.0
C92 C 0.74679 0.07346 0.28274 0.0
C93 C 0.74502 0.06879 0.21827 0.0
C94 C 0.75761 0.05555 0.19195 0.0
C95 C 0.77071 0.04621 0.2301 0.0
P96 P 0.47361 0.78847 0.35303 0.0
H97 H 0.47645 0.7735 0.4815 0.0
H98 H 0.4885 0.7437 0.52125 0.0
H99 H 0.51521 0.73305 0.34059 0.0
H100 H 0.50204 0.76253 0.30002 0.0
H101 H 0.45878 0.8248 0.31738 0.0
H102 H 0.46999 0.84977 0.24796 0.0
H103 H 0.52301 0.82022 0.22498 0.0
H104 H 0.5115 0.79502 0.29489 0.0
H105 H 0.43868 0.76696 0.3671 0.0
H106 H 0.47782 0.78085 0.2177 0.0
O107 O 0.45955 0.7974 0.40906 0.0
H108 H 0.42235 0.74499 0.29628 0.0
H109 H 0.46196 0.75874 0.1474 0.0
C110 C 0.48851 0.77051 0.38787 0.0
C111 C 0.48539 0.7651 0.45087 0.0
C112 C 0.49236 0.7479 0.47373 0.0
C113 C 0.50271 0.73566 0.43411 0.0
C114 C 0.50698 0.74183 0.37228 0.0
C115 C 0.49979 0.75897 0.34925 0.0
C116 C 0.48435 0.80813 0.31211 0.0
C117 C 0.47302 0.82388 0.29881 0.0
C118 C 0.47948 0.83822 0.25899 0.0
C119 C 0.49746 0.8371 0.23087 0.0
C120 C 0.50904 0.82147 0.24548 0.0
C121 C 0.50253 0.80709 0.28582 0.0
C122 C 0.45923 0.77578 0.29733 0.0
C123 C 0.44344 0.76567 0.31857 0.0
C124 C 0.43423 0.75301 0.27821 0.0
C125 C 0.44086 0.75009 0.21618 0.0
C126 C 0.45623 0.76089 0.1944 0.0
C127 C 0.46538 0.77354 0.23474 0.0
P128 P 0.28712 0.46364 0.01023 0.0
H129 H 0.27669 0.47037 0.87804 0.0
H130 H 0.2475 0.48235 0.83283 0.0
H131 H 0.23112 0.50398 0.0161 0.0
H132 H 0.25984 0.49104 0.06161 0.0
H133 H 0.32574 0.45146 0.03209 0.0
H134 H 0.35 0.46092 0.10756 0.0
H135 H 0.31365 0.50542 0.17645 0.0
H136 H 0.28952 0.49626 0.09931 0.0
H137 H 0.26353 0.43171 0.97494 0.0
H138 H 0.2752 0.46404 0.14349 0.0
O139 O 0.29715 0.45045 0.95389 0.0
H140 H 0.23522 0.41874 0.0247 0.0
H141 H 0.24676 0.45177 0.19249 0.0
C142 C 0.27075 0.4799 0.97337 0.0
C143 C 0.26722 0.47832 0.90822 0.0
C144 C 0.25038 0.4852 0.88223 0.0
C145 C 0.23668 0.49384 0.92095 0.0
C146 C 0.24112 0.49705 0.98501 0.0
C147 C 0.25789 0.49001 0.011 0.0
C148 C 0.30577 0.47321 0.0593 0.0
C149 C 0.32308 0.46358 0.06217 0.0
C150 C 0.33699 0.46897 0.10547 0.0
C151 C 0.33372 0.4839 0.14795 0.0
C152 C 0.31651 0.49381 0.14439 0.0
C153 C 0.30272 0.48861 0.10004 0.0
C154 C 0.27161 0.44873 0.05557 0.0
C155 C 0.26045 0.43543 0.02358 0.0
C156 C 0.2441 0.42823 0.0518 0.0
C157 C 0.23851 0.43445 0.11221 0.0
C158 C 0.25067 0.44649 0.14619 0.0
C159 C 0.26705 0.45359 0.11803 0.0
P160 P 0.06308 0.28524 0.00823 0.0
H161 H 0.06009 0.27166 0.87755 0.0
H162 H 0.0464 0.24277 0.8352 0.0
H163 H 0.01695 0.23372 0.01184 0.0
H164 H 0.03135 0.26238 0.0547 0.0
H165 H 0.08124 0.32085 0.03591 0.0
H166 H 0.07267 0.34734 0.1039 0.0
H167 H 0.01714 0.32335 0.13025 0.0
H168 H 0.02585 0.29666 0.06156 0.0
H169 H 0.08297 0.24943 0.00485 0.0
H170 H 0.06481 0.28908 0.14792 0.0
O171 O 0.08029 0.29086 0.95761 0.0
H172 H 0.08881 0.22583 0.08638 0.0
H173 H 0.07139 0.26588 0.22969 0.0
C174 C 0.04669 0.26938 0.96931 0.0
C175 C 0.05014 0.26389 0.90653 0.0
C176 C 0.04229 0.24722 0.88227 0.0
C177 C 0.03079 0.2356 0.92035 0.0
C178 C 0.02605 0.24205 0.98147 0.0
C179 C 0.03396 0.25872 0.00571 0.0
C180 C 0.05412 0.30687 0.04267 0.0
C181 C 0.067 0.32152 0.05453 0.0
C182 C 0.06217 0.33657 0.09412 0.0
C183 C 0.0443 0.33733 0.12297 0.0
C184 C 0.03098 0.32318 0.1084 0.0
C185 C 0.03593 0.30795 0.06896 0.0
C186 C 0.07318 0.27091 0.06992 0.0
C187 C 0.08093 0.25331 0.05399 0.0
C188 C 0.08435 0.23984 0.10085 0.0
C189 C 0.08025 0.24386 0.16461 0.0
C190 C 0.07427 0.2622 0.18088 0.0
C191 C 0.0706 0.27557 0.13389 0.0
P192 P 0.21538 0.04766 0.0023 0.0
H193 H 0.22508 0.04387 0.86802 0.0
H194 H 0.25408 0.03289 0.81753 0.0
H195 H 0.27244 0.00881 0.99484 0.0
H196 H 0.24348 0.01986 0.04518 0.0
H197 H 0.17627 0.05865 0.0224 0.0
H198 H 0.1518 0.0475 0.09446 0.0
H199 H 0.18813 1.00178 0.1537 0.0
H200 H 0.21252 0.01272 0.07975 0.0
H201 H 0.24243 0.07777 0.98073 0.0
H202 H 0.22279 0.04484 0.13951 0.0
O203 O 0.20608 0.06304 0.95109 0.0
H204 H 0.27028 0.08715 0.0412 0.0
H205 H 0.25068 0.05357 0.199 0.0
C206 C 0.23189 0.03262 0.96051 0.0
C207 C 0.23494 0.03558 0.89564 0.0
C208 C 0.25168 0.02947 0.86686 0.0
C209 C 0.26573 0.02025 0.9024 0.0
C210 C 0.26189 0.01576 0.96596 0.0
C211 C 0.24515 0.02195 0.99477 0.0
C212 C 0.19625 0.03647 0.04505 0.0
C213 C 0.17884 0.04588 0.04929 0.0
C214 C 0.16482 0.03951 0.09068 0.0
C215 C 0.16807 0.02381 0.12988 0.0
C216 C 0.18528 0.01398 0.12418 0.0
C217 C 0.19919 0.02015 0.08161 0.0
C218 C 0.23051 0.06056 0.05533 0.0
C219 C 0.24368 0.07319 0.02946 0.0
C220 C 0.25972 0.07836 0.06382 0.0
C221 C 0.2629 0.0708 0.12443 0.0
C222 C 0.24867 0.05975 0.15259 0.0
C223 C 0.23263 0.05464 0.11823 0.0
P224 P 0.44849 0.22094 0.01324 0.0
H225 H 0.4518 0.23438 0.88257 0.0
H226 H 0.46505 0.26352 0.84074 0.0
H227 H 0.49378 0.27312 0.01831 0.0
H228 H 0.47979 0.2442 0.06066 0.0
H229 H 0.43046 0.18537 0.04186 0.0
H230 H 0.43892 0.1593 0.11167 0.0
H231 H 0.49428 0.1836 0.13842 0.0
H232 H 0.48567 0.20994 0.06804 0.0
H233 H 0.42788 0.25632 0.00767 0.0
H234 H 0.44646 0.21766 0.153 0.0
O235 O 0.4316 0.21496 0.96188 0.0
H236 H 0.42127 0.28011 0.08802 0.0
H237 H 0.43912 0.24103 0.23355 0.0
C238 C 0.46485 0.23692 0.97477 0.0
C239 C 0.46152 0.24232 0.91187 0.0
C240 C 0.46912 0.25915 0.8879 0.0
C241 C 0.48025 0.27099 0.92641 0.0
C242 C 0.48495 0.26462 0.98762 0.0
C243 C 0.47727 0.2478 0.01157 0.0
C244 C 0.4575 0.19951 0.04879 0.0
C245 C 0.44465 0.18485 0.06094 0.0
C246 C 0.44941 0.17004 0.10151 0.0
C247 C 0.46718 0.16951 0.13097 0.0
C248 C 0.48051 0.18361 0.11608 0.0
C249 C 0.47562 0.19864 0.07569 0.0
C250 C 0.43791 0.23531 0.07397 0.0
C251 C 0.42985 0.25268 0.05704 0.0
C252 C 0.42599 0.26626 0.10321 0.0
C253 C 0.42997 0.26259 0.16725 0.0
C254 C 0.43631 0.24445 0.18449 0.0
C255 C 0.44041 0.23098 0.13821 0.0
Ho256 Ho 0.01053 0.99733 0.73844 0.0
Ho257 Ho 0.99019 0.01061 0.62083 0.0
C258 C 0.99431 0.96616 0.6365 0.0
C259 C 0.02078 0.98107 0.84238 0.0
C260 C 0.02988 0.96301 0.85741 0.0
C261 C 0.03233 0.9492 0.81043 0.0
C262 C 0.04079 0.93191 0.82525 0.0
C263 C 0.04706 0.92825 0.88717 0.0
C264 C 0.04485 0.9423 0.93378 0.0
C265 C 0.03629 0.95955 0.91896 0.0
C266 C 0.03359 0.00533 0.63961 0.0
C267 C 0.00703 0.04103 0.7198 0.0
C268 C 0.98212 0.02857 0.51831 0.0
C269 C 0.99225 0.04461 0.49033 0.0
C270 C 0.01111 0.04792 0.50761 0.0
C271 C 0.02066 0.06377 0.48516 0.0
C272 C 0.0115 0.07669 0.44516 0.0
C273 C 0.99267 0.07322 0.42707 0.0
C274 C 0.98308 0.05728 0.44974 0.0
C275 C 0.96738 1.00193 0.7191 0.0
O276 O 1.00101 0.96965 0.69396 0.0
O277 O 0.9902 0.97989 0.59643 0.0
O278 O 0.03133 0.99321 0.81196 0.0
O279 O 0.00367 0.97992 0.81925 0.0
O280 O 0.03815 0.00792 0.69831 0.0
O281 O 0.01774 0.99733 0.63682 0.0
O282 O 0.00511 0.0366 0.65931 0.0
O283 O 0.00614 0.02775 0.76356 0.0
O284 O 0.97388 0.03212 0.57242 0.0
O285 O 0.99151 0.01265 0.51898 0.0
O286 O 0.96285 0.99916 0.66028 0.0
O287 O 0.98297 0.01045 0.72218 0.0
H288 H 0.02766 0.95175 0.76241 0.0
H289 H 0.04245 0.92142 0.78828 0.0
H290 H 0.04933 0.93979 0.98206 0.0
H291 H 0.03453 0.97012 0.95565 0.0
H292 H 0.01843 0.03835 0.53919 0.0
H293 H 0.03523 0.06589 0.49916 0.0
H294 H 0.98522 0.08304 0.39669 0.0
H295 H 0.96847 0.055 0.43647 0.0
Ho296 Ho 0.50465 0.01422 0.7391 0.0
Ho297 Ho 0.49482 0.99224 0.62009 0.0
C298 C 0.53849 0.99929 0.64442 0.0
C299 C 0.51867 0.02615 0.84475 0.0
C300 C 0.53727 0.03303 0.86548 0.0
C301 C 0.55396 0.02552 0.83988 0.0
C302 C 0.57152 0.03248 0.8588 0.0
C303 C 0.57275 0.04701 0.90413 0.0
C304 C 0.55597 0.05452 0.92961 0.0
C305 C 0.53838 0.0476 0.9103 0.0
C306 C 0.49541 0.03556 0.63764 0.0
C307 C 0.46159 0.00695 0.71475 0.0
C308 C 0.48005 0.98332 0.51266 0.0
C309 C 0.4638 0.99165 0.47992 0.0
C310 C 0.45682 0.00929 0.49958 0.0
C311 C 0.44129 0.01736 0.46942 0.0
C312 C 0.43249 0.00797 0.41883 0.0
C313 C 0.4396 0.99034 0.39887 0.0
C314 C 0.45514 0.98221 0.42944 0.0
C315 C 0.50393 0.97052 0.72039 0.0
O316 O 0.53356 0.00695 0.69935 0.0
O317 O 0.52587 0.99327 0.60309 0.0
O318 O 0.50966 0.0371 0.80512 0.0
O319 O 0.51762 0.00824 0.82936 0.0
O320 O 0.49084 0.03991 0.69529 0.0
O321 O 0.50536 0.02083 0.63737 0.0
O322 O 0.46676 0.00385 0.65537 0.0
O323 O 0.47429 0.00859 0.7601 0.0
O324 O 0.47616 0.97432 0.56517 0.0
O325 O 0.49459 0.99461 0.51837 0.0
O326 O 0.50758 0.9659 0.66212 0.0
O327 O 0.49424 0.98548 0.72171 0.0
H328 H 0.55343 0.01424 0.80532 0.0
H329 H 0.58413 0.02655 0.83759 0.0
H330 H 0.5564 0.06552 0.96526 0.0
H331 H 0.52564 0.05358 0.93053 0.0
H332 H 0.46345 0.0169 0.53811 0.0
H333 H 0.43631 0.03107 0.48519 0.0
H334 H 0.43298 0.98275 0.36026 0.0
H335 H 0.46036 0.96858 0.4138 0.0
Ho336 Ho 0.49351 0.51 0.74941 0.0
Ho337 Ho 0.51364 0.49735 0.63013 0.0
C338 C 0.50887 0.5417 0.64779 0.0
C339 C 0.48334 0.52559 0.8546 0.0
C340 C 0.47433 0.54352 0.87302 0.0
C341 C 0.48001 0.56079 0.84628 0.0
C342 C 0.47126 0.57765 0.86444 0.0
C343 C 0.45659 0.57756 0.90939 0.0
C344 C 0.45075 0.56017 0.93523 0.0
C345 C 0.45958 0.54333 0.91728 0.0
C346 C 0.47026 0.50168 0.65156 0.0
C347 C 0.49779 0.46636 0.72895 0.0
C348 C 0.52162 0.47995 0.52636 0.0
C349 C 0.51175 0.46382 0.49792 0.0
C350 C 0.49303 0.46 0.51569 0.0
C351 C 0.48375 0.44409 0.49243 0.0
C352 C 0.49305 0.43161 0.45117 0.0
C353 C 0.51176 0.43559 0.43272 0.0
C354 C 0.52107 0.4516 0.45613 0.0
C355 C 0.5366 0.50616 0.72773 0.0
O356 O 0.50233 0.538 0.70537 0.0
O357 O 0.51309 0.52813 0.60716 0.0
O358 O 0.47265 0.5138 0.82318 0.0
O359 O 0.50053 0.52661 0.83189 0.0
O360 O 0.466 0.49884 0.7104 0.0
O361 O 0.48591 0.51005 0.64812 0.0
O362 O 0.49945 0.47094 0.6685 0.0
O363 O 0.4985 0.47957 0.77306 0.0
O364 O 0.53015 0.47635 0.57988 0.0
O365 O 0.51187 0.49565 0.5283 0.0
O366 O 0.54095 0.50912 0.66885 0.0
O367 O 0.52116 0.49739 0.73106 0.0
H368 H 0.49129 0.5613 0.81176 0.0
H369 H 0.47631 0.5908 0.84426 0.0
H370 H 0.43932 0.55955 0.96927 0.0
H371 H 0.45489 0.53011 0.93799 0.0
H372 H 0.48561 0.46922 0.54822 0.0
H373 H 0.46927 0.44158 0.50677 0.0
H374 H 0.51934 0.42611 0.40145 0.0
H375 H 0.53559 0.45427 0.44247 0.0
Ho376 Ho 1.00039 0.4932 0.72614 0.0
Ho377 Ho 0.01076 0.51327 0.60284 0.0
C378 C 0.96687 0.50806 0.63071 0.0
C379 C 0.98627 0.48287 0.8335 0.0
C380 C 0.96759 0.47655 0.85548 0.0
C381 C 0.95097 0.48425 0.83002 0.0
C382 C 0.93333 0.47785 0.85041 0.0
C383 C 0.93196 0.4637 0.89699 0.0
C384 C 0.94867 0.456 0.92226 0.0
C385 C 0.96633 0.46236 0.90156 0.0
C386 C 0.00921 0.47043 0.62765 0.0
C387 C 0.04353 0.49973 0.70111 0.0
C388 C 0.02501 0.51905 0.49214 0.0
C389 C 0.0396 0.50838 0.45804 0.0
C390 C 0.04611 0.49116 0.48282 0.0
C391 C 0.05958 0.48055 0.45028 0.0
C392 C 0.06688 0.48702 0.39236 0.0
C393 C 0.06022 0.50426 0.36741 0.0
C394 C 0.04666 0.51486 0.40009 0.0
C395 C 0.00243 0.53672 0.69956 0.0
O396 O 0.9717 0.50078 0.68621 0.0
O397 O 0.97953 0.51328 0.58821 0.0
O398 O 0.99511 0.47127 0.79544 0.0
O399 O 0.98756 0.50054 0.81552 0.0
O400 O 0.01376 0.4667 0.68576 0.0
O401 O 0.99956 0.48533 0.6256 0.0
O402 O 0.0386 0.50179 0.64094 0.0
O403 O 0.03067 0.49909 0.74627 0.0
O404 O 0.03066 0.52812 0.54272 0.0
O405 O 0.00937 0.50965 0.50165 0.0
O406 O 0.99943 0.54089 0.64046 0.0
O407 O 0.01143 0.52137 0.70322 0.0
H408 H 0.95161 0.49524 0.79446 0.0
H409 H 0.92077 0.48392 0.82937 0.0
H410 H 0.94812 0.44528 0.95882 0.0
H411 H 0.97901 0.45625 0.92172 0.0
H412 H 0.04068 0.48585 0.52724 0.0
H413 H 0.0642 0.46722 0.47029 0.0
H414 H 0.06574 0.5097 0.3232 0.0
H415 H 0.04171 0.52809 0.38021 0.0
C416 C 0.13475 0.0177 0.16577 0.0
C417 C 0.15411 0.01885 0.17983 0.0
C418 C 0.12145 0.0149 0.21398 0.0
C419 C 0.11696 1.00161 0.38533 0.0
H420 H 0.06874 0.02728 0.37025 0.0
C421 C 0.06577 0.01228 0.59632 0.0
C422 C 0.04687 0.00708 0.5858 0.0
C423 C 0.07858 0.01319 0.54593 0.0
C424 C 0.0821 0.01994 0.37488 0.0
H425 H 0.17475 0.01791 0.25534 0.0
H426 H 0.15168 0.01363 0.33962 0.0
H427 H 0.09163 0.02939 0.28427 0.0
H428 H 0.02653 0.99893 0.51426 0.0
H429 H 0.04879 1.00115 0.42578 0.0
H430 H 0.10753 0.9928 0.4772 0.0
C431 C 0.14664 0.01429 0.29132 0.0
C432 C 0.09523 0.02101 0.3254 0.0
C433 C 0.15993 0.01679 0.24296 0.0
C434 C 0.04096 0.00312 0.52372 0.0
C435 C 0.05369 0.00438 0.47312 0.0
C436 C 0.10395 1.00081 0.43517 0.0
C437 C 0.12716 0.01351 0.27771 0.0
C438 C 0.11289 0.01189 0.32985 0.0
C439 C 0.07269 0.00923 0.48381 0.0
C440 C 0.08639 0.00997 0.43052 0.0
H441 H 0.12987 0.01912 0.11742 0.0
H442 H 0.10668 0.01393 0.20113 0.0
H443 H 0.13017 0.99404 0.39032 0.0
H444 H 0.07073 0.01542 0.64366 0.0
H445 H 0.0931 0.01713 0.55546 0.0
C446 C 0.4577 0.15249 0.22967 0.0
C447 C 0.47092 0.15517 0.18091 0.0
C448 C 0.46064 0.13883 0.27639 0.0
C449 C 0.49765 0.10775 0.34774 0.0
H450 H 0.45382 0.08271 0.41952 0.0
C451 C 0.5025 0.04517 0.52597 0.0
C452 C 0.492 0.04771 0.58181 0.0
C453 C 0.49998 0.05735 0.47436 0.0
C454 C 0.46618 0.08963 0.40002 0.0
H455 H 0.49772 0.14573 0.14309 0.0
H456 H 0.50268 0.1213 0.22357 0.0
H457 H 0.44969 0.1054 0.33391 0.0
H458 H 0.47018 0.06446 0.62676 0.0
H459 H 0.4654 0.08545 0.53596 0.0
H460 H 0.5141 0.09145 0.41339 0.0
C461 C 0.49016 0.13005 0.22665 0.0
C462 C 0.46385 0.10277 0.35113 0.0
C463 C 0.48732 0.14399 0.18027 0.0
C464 C 0.47852 0.06226 0.58441 0.0
C465 C 0.47574 0.0742 0.5324 0.0
C466 C 0.49999 0.09436 0.39601 0.0
C467 C 0.47678 0.12719 0.27528 0.0
C468 C 0.47951 0.1123 0.3249 0.0
C469 C 0.48662 0.07204 0.47714 0.0
C470 C 0.48426 0.08537 0.42327 0.0
H471 H 0.44508 0.16115 0.23207 0.0
H472 H 0.45026 0.13758 0.3138 0.0
H473 H 0.51006 0.11489 0.32963 0.0
H474 H 0.51296 0.03402 0.52264 0.0
H475 H 0.50843 0.05525 0.43219 0.0
C476 C 0.3671 0.48981 0.18321 0.0
C477 C 0.34782 0.48819 0.19805 0.0
C478 C 0.38054 0.49233 0.23106 0.0
C479 C 0.38549 0.50432 0.40313 0.0
H480 H 0.43424 0.47996 0.38316 0.0
C481 C 0.43808 0.49398 0.60994 0.0
C482 C 0.45677 0.49973 0.59847 0.0
C483 C 0.42503 0.49292 0.56035 0.0
C484 C 0.42073 0.48693 0.38916 0.0
H485 H 0.32748 0.48795 0.2746 0.0
H486 H 0.35083 0.49173 0.35826 0.0
H487 H 0.41094 0.47781 0.29848 0.0
H488 H 0.47651 0.50869 0.52606 0.0
H489 H 0.45384 0.50623 0.43892 0.0
H490 H 0.3952 0.51282 0.49495 0.0
C491 C 0.35567 0.49164 0.30966 0.0
C492 C 0.40736 0.48583 0.34046 0.0
C493 C 0.34222 0.48942 0.26168 0.0
C494 C 0.46225 0.50408 0.53622 0.0
C495 C 0.44928 0.50267 0.48639 0.0
C496 C 0.39875 0.50515 0.45216 0.0
C497 C 0.37507 0.49297 0.29517 0.0
C498 C 0.38952 0.4945 0.34667 0.0
C499 C 0.43048 0.49729 0.49808 0.0
C500 C 0.41649 0.49647 0.44572 0.0
H501 H 0.37179 0.48906 0.13447 0.0
H502 H 0.39523 0.49373 0.21761 0.0
H503 H 0.37213 0.51153 0.40947 0.0
H504 H 0.43346 0.49053 0.65743 0.0
H505 H 0.41068 0.48856 0.57062 0.0
C506 C 0.02354 0.3626 0.17095 0.0
C507 C 0.04034 0.35203 0.17169 0.0
C508 C 0.02025 0.37661 0.21675 0.0
C509 C 0.04524 0.4052 0.3412 0.0
H510 H 0.99443 0.4137 0.40362 0.0
C511 C 0.02751 0.44437 0.57567 0.0
C512 C 0.01338 0.45828 0.57239 0.0
C513 C 0.03126 0.43273 0.52349 0.0
C514 C 0.00867 0.41159 0.38621 0.0
H515 H 0.06654 0.34737 0.22233 0.0
H516 H 0.06062 0.37112 0.30298 0.0
H517 H 0.99974 0.39062 0.31966 0.0
H518 H 0.99225 0.47112 0.51192 0.0
H519 H 0.99841 0.45036 0.42135 0.0
H520 H 0.05413 0.42573 0.40996 0.0
C521 C 0.05022 0.36928 0.26593 0.0
C522 C 0.01175 0.3984 0.33778 0.0
C523 C 0.0536 0.35553 0.21977 0.0
C524 C 0.00318 0.46045 0.51582 0.0
C525 C 0.00666 0.44857 0.46409 0.0
C526 C 0.04218 0.41815 0.39032 0.0
C527 C 0.03357 0.38017 0.265 0.0
C528 C 0.03011 0.39488 0.3148 0.0
C529 C 0.02068 0.43453 0.46748 0.0
C530 C 0.02388 0.42139 0.41357 0.0
H531 H 0.01311 0.36028 0.13427 0.0
H532 H 0.00736 0.3848 0.21371 0.0
H533 H 0.05952 0.40334 0.32395 0.0
H534 H 0.03568 0.44251 0.61856 0.0
H535 H 0.04211 0.42199 0.52744 0.0
C536 C 0.8655 0.00544 0.18996 0.0
C537 C 0.84615 0.00386 0.17573 0.0
C538 C 0.87917 0.00261 0.14314 0.0
C539 C 0.88764 0.98291 0.98302 0.0
H540 H 0.92621 0.02178 0.97474 0.0
C541 C 0.93572 0.9933 0.76353 0.0
C542 C 0.95437 0.99943 0.77323 0.0
C543 C 0.92309 0.99202 0.81436 0.0
C544 C 0.91578 0.01059 0.9768 0.0
H545 H 0.8261 0.99725 0.10133 0.0
H546 H 0.85 0.99211 0.01974 0.0
H547 H 0.90333 0.02217 0.06055 0.0
H548 H 0.97465 0.0084 0.84387 0.0
H549 H 0.95283 0.00573 0.93281 0.0
H550 H 0.9001 0.97135 0.89907 0.0
C551 C 0.85458 0.99549 0.06732 0.0
C552 C 0.90261 0.01084 0.0261 0.0
C553 C 0.84087 0.9984 0.11418 0.0
C554 C 0.96031 0.00375 0.83494 0.0
C555 C 0.94774 1.00234 0.88584 0.0
C556 C 0.90092 0.98258 0.93381 0.0
C557 C 0.87387 0.99803 0.08089 0.0
C558 C 0.88831 0.99708 0.02969 0.0
C559 C 0.92886 0.99673 0.87616 0.0
C560 C 0.91511 0.9965 0.92982 0.0
H561 H 0.8701 0.00925 0.23716 0.0
H562 H 0.89393 0.00429 0.15548 0.0
H563 H 0.87691 0.972 0.98477 0.0
H564 H 0.93076 0.98989 0.71641 0.0
H565 H 0.90864 0.98787 0.80482 0.0
C566 C 0.51217 0.84618 0.12661 0.0
C567 C 0.50327 0.85158 0.18333 0.0
C568 C 0.51533 0.85942 0.07844 0.0
C569 C 0.5155 0.91123 0.04272 0.0
H570 H 0.50355 0.89427 0.8729 0.0
C571 C 0.49991 0.96266 0.83535 0.0
C572 C 0.50676 0.95778 0.7751 0.0
C573 C 0.50174 0.95008 0.88619 0.0
C574 C 0.5072 0.89921 0.91985 0.0
H575 H 0.4918 0.87546 0.23519 0.0
H576 H 0.49686 0.89835 0.15097 0.0
H577 H 0.50327 0.8717 0.95975 0.0
H578 H 0.52134 0.93618 0.72115 0.0
H579 H 0.52456 0.91424 0.80975 0.0
H580 H 0.51896 0.93888 0.00264 0.0
C581 C 0.50154 0.88394 0.14361 0.0
C582 C 0.50709 0.88623 0.96978 0.0
C583 C 0.49844 0.87073 0.19177 0.0
C584 C 0.51582 0.94027 0.76698 0.0
C585 C 0.51759 0.92767 0.81768 0.0
C586 C 0.51553 0.92424 0.99274 0.0
C587 C 0.50965 0.87839 0.0857 0.0
C588 C 0.51109 0.89207 0.03204 0.0
C589 C 0.51039 0.93232 0.87778 0.0
C590 C 0.51124 0.91842 0.93074 0.0
H591 H 0.51599 0.83156 0.11823 0.0
H592 H 0.52192 0.85469 0.03496 0.0
H593 H 0.51893 0.91621 0.08981 0.0
H594 H 0.49282 0.97604 0.84296 0.0
H595 H 0.49588 0.95405 0.93165 0.0
C596 C 0.63812 0.50461 0.19847 0.0
C597 C 0.65744 0.50659 0.18427 0.0
C598 C 0.62442 0.50733 0.15174 0.0
C599 C 0.61559 0.52711 0.99214 0.0
H600 H 0.57826 0.48708 0.9824 0.0
C601 C 0.568 0.51566 0.77209 0.0
C602 C 0.54955 0.50895 0.78175 0.0
C603 C 0.58058 0.51725 0.82294 0.0
C604 C 0.58833 0.49859 0.98488 0.0
H605 H 0.67739 0.51384 0.11019 0.0
H606 H 0.65344 0.51877 0.02877 0.0
H607 H 0.60101 0.48722 0.06843 0.0
H608 H 0.52955 0.49925 0.85226 0.0
H609 H 0.55123 0.5025 0.94117 0.0
H610 H 0.60289 0.53847 0.90833 0.0
C611 C 0.64891 0.51516 0.07622 0.0
C612 C 0.60142 0.49864 0.0343 0.0
C613 C 0.66265 0.51238 0.12298 0.0
C614 C 0.54373 0.50437 0.84337 0.0
C615 C 0.55623 0.5061 0.89426 0.0
C616 C 0.60238 0.52714 0.94278 0.0
C617 C 0.62968 0.51217 0.08967 0.0
C618 C 0.61527 0.51283 0.03842 0.0
C619 C 0.57493 0.51228 0.88465 0.0
C620 C 0.58862 0.5128 0.93831 0.0
H621 H 0.63359 0.50053 0.2455 0.0
H622 H 0.60969 0.50529 0.16396 0.0
H623 H 0.62599 0.53833 0.9943 0.0
H624 H 0.57286 0.51928 0.72502 0.0
H625 H 0.5949 0.52185 0.81349 0.0
C626 C 0.99236 0.6628 0.10031 0.0
C627 C 0.99852 0.65697 0.16053 0.0
C628 C 0.99007 0.64967 0.05126 0.0
C629 C 0.98744 0.5978 0.01637 0.0
H630 H 0.00515 0.61352 0.85086 0.0
C631 C 0.0053 0.5451 0.81447 0.0
C632 C 0.99964 0.55 0.7529 0.0
C633 C 0.00322 0.55795 0.86443 0.0
C634 C 0.99993 0.60896 0.89658 0.0
H635 H 0.00601 0.63245 0.21692 0.0
H636 H 0.00267 0.60975 0.13125 0.0
H637 H 0.00459 0.63622 0.93745 0.0
H638 H 0.98715 0.57209 0.69546 0.0
H639 H 0.98368 0.59461 0.78255 0.0
H640 H 0.98335 0.57033 0.97543 0.0
C641 C 0.99939 0.62444 0.12184 0.0
C642 C 0.99953 0.62201 0.94634 0.0
C643 C 1.00155 0.63754 0.17097 0.0
C644 C 0.99169 0.56794 0.74239 0.0
C645 C 0.98978 0.58086 0.79221 0.0
C646 C 0.98799 0.5847 0.96665 0.0
C647 C 0.99398 0.63036 0.0609 0.0
C648 C 0.99338 0.61661 0.00711 0.0
C649 C 0.99561 0.57606 0.85378 0.0
C650 C 0.99434 0.5901 0.90624 0.0
H651 H 0.99002 0.67763 0.09016 0.0
H652 H 0.98553 0.65476 0.00539 0.0
H653 H 0.98231 0.59316 0.06209 0.0
H654 H 0.01158 0.53142 0.82392 0.0
H655 H 0.00805 0.55389 0.91113 0.0
C656 C 0.09219 0.21313 0.20967 0.0
C657 C 0.07931 0.22827 0.21161 0.0
C658 C 0.08898 0.19683 0.24557 0.0
C659 C 0.05924 0.1766 0.37398 0.0
H660 H 0.06101 0.1311 0.27152 0.0
C661 C 0.03289 0.10425 0.46562 0.0
C662 C 0.02161 0.09384 0.42332 0.0
C663 C 0.0427 0.12023 0.44506 0.0
C664 C 0.06045 0.14368 0.30072 0.0
H665 H 0.05347 0.23846 0.2555 0.0
H666 H 0.04807 0.21033 0.31812 0.0
H667 H 0.07435 0.1604 0.23048 0.0
H668 H 0.01182 0.09196 0.32636 0.0
H669 H 0.02866 0.12012 0.29062 0.0
H670 H 0.04449 0.16007 0.44291 0.0
C671 C 0.06074 0.21105 0.28946 0.0
C672 C 0.06834 0.1604 0.27763 0.0
C673 C 0.06389 0.22726 0.25349 0.0
C674 C 0.02029 0.09978 0.3601 0.0
C675 C 0.03013 0.11575 0.33949 0.0
C676 C 0.05136 0.15986 0.3971 0.0
C677 C 0.07288 0.19542 0.28427 0.0
C678 C 0.0674 0.17715 0.31336 0.0
C679 C 0.04146 0.12613 0.38175 0.0
C680 C 0.05147 0.14335 0.36002 0.0
H681 H 0.10436 0.21359 0.17862 0.0
H682 H 0.09873 0.18509 0.24139 0.0
H683 H 0.05845 0.18925 0.40277 0.0
H684 H 0.034 0.10013 0.51486 0.0
H685 H 0.05136 0.12789 0.47864 0.0
C686 C 0.29795 0.06791 0.11512 0.0
C687 C 0.28202 0.07139 0.15321 0.0
C688 C 0.31551 0.06436 0.1425 0.0
C689 C 0.34322 0.06603 0.29056 0.0
H690 H 0.36589 0.02025 0.22345 0.0
C691 C 0.40142 0.02485 0.42316 0.0
C692 C 0.41596 0.01664 0.38716 0.0
C693 C 0.3859 0.03321 0.39347 0.0
C694 C 0.35997 0.03323 0.24216 0.0
H695 H 0.27239 0.07536 0.24973 0.0
H696 H 0.30314 0.06894 0.29774 0.0
H697 H 0.33787 0.03327 0.1734 0.0
H698 H 0.42589 0.01103 0.29198 0.0
H699 H 0.3989 0.0258 0.23992 0.0
H700 H 0.36532 0.06587 0.35973 0.0
C701 C 0.30199 0.069 0.24663 0.0
C702 C 0.34389 0.0407 0.21343 0.0
C703 C 0.28436 0.07255 0.21918 0.0
C704 C 0.41474 0.01702 0.32087 0.0
C705 C 0.39928 0.02548 0.29114 0.0
C706 C 0.35941 0.0586 0.31919 0.0
C707 C 0.31756 0.06417 0.20857 0.0
C708 C 0.33529 0.05712 0.23746 0.0
C709 C 0.38465 0.03362 0.32709 0.0
C710 C 0.36789 0.04203 0.29553 0.0
H711 H 0.29667 0.06667 0.06421 0.0
H712 H 0.32734 0.06097 0.11197 0.0
H713 H 0.33694 0.07877 0.30983 0.0
H714 H 0.40189 0.02455 0.4744 0.0
H715 H 0.37473 0.03902 0.4226 0.0
C716 C 0.41706 0.29312 0.2109 0.0
C717 C 0.43035 0.27835 0.21368 0.0
C718 C 0.41965 0.30955 0.24669 0.0
C719 C 0.4482 0.33068 0.37649 0.0
H720 H 0.44522 0.37621 0.27462 0.0
C721 C 0.47222 0.40354 0.47032 0.0
C722 C 0.48326 0.41437 0.42849 0.0
C723 C 0.46283 0.38738 0.44908 0.0
C724 C 0.44612 0.36362 0.30366 0.0
H725 H 0.45632 0.269 0.25867 0.0
H726 H 0.46066 0.29737 0.32104 0.0
H727 H 0.43306 0.34652 0.23267 0.0
H728 H 0.49301 0.41684 0.33159 0.0
H729 H 0.47697 0.38836 0.29473 0.0
H730 H 0.46215 0.3476 0.44614 0.0
C731 C 0.44813 0.29624 0.29188 0.0
C732 C 0.43889 0.34666 0.28004 0.0
C733 C 0.44559 0.27989 0.25606 0.0
C734 C 0.48473 0.4087 0.365 0.0
C735 C 0.47533 0.39254 0.34375 0.0
C736 C 0.45543 0.34765 0.40012 0.0
C737 C 0.43554 0.31149 0.28609 0.0
C738 C 0.44028 0.32992 0.31556 0.0
C739 C 0.46429 0.3817 0.38557 0.0
C740 C 0.45488 0.36419 0.36328 0.0
H741 H 0.40503 0.29225 0.17941 0.0
H742 H 0.40957 0.32099 0.242 0.0
H743 H 0.44931 0.31803 0.40516 0.0
H744 H 0.471 0.40743 0.51974 0.0
H745 H 0.45437 0.37937 0.48236 0.0
C746 C 0.21527 0.42881 0.20042 0.0
C747 C 0.21897 0.43105 0.13547 0.0
C748 C 0.19675 0.42962 0.22332 0.0
C749 C 0.15212 0.45227 0.18044 0.0
H750 H 0.13299 0.42642 0.32902 0.0
C751 C 0.08143 0.47389 0.2932 0.0
C752 C 0.08183 0.47613 0.35925 0.0
C753 C 0.09613 0.46455 0.26194 0.0
C754 C 0.13816 0.43377 0.28751 0.0
H755 H 0.20589 0.43463 0.04325 0.0
H756 H 0.1737 0.43541 0.08297 0.0
H757 H 0.16261 0.41597 0.28071 0.0
H758 H 0.09778 0.47001 0.44444 0.0
H759 H 0.12348 0.45393 0.39001 0.0
H760 H 0.12817 0.47048 0.18827 0.0
C761 C 0.18514 0.4334 0.11636 0.0
C762 C 0.1551 0.42777 0.25985 0.0
C763 C 0.20362 0.43268 0.09352 0.0
C764 C 0.09695 0.46834 0.39355 0.0
C765 C 0.11166 0.45905 0.36234 0.0
C766 C 0.13525 0.45826 0.20805 0.0
C767 C 0.18154 0.43265 0.1817 0.0
C768 C 0.16245 0.4372 0.20671 0.0
C769 C 0.11158 0.45731 0.29607 0.0
C770 C 0.12826 0.44934 0.26267 0.0
H771 H 0.22675 0.42729 0.2339 0.0
H772 H 0.19449 0.42904 0.27398 0.0
H773 H 0.15753 0.4601 0.14027 0.0
H774 H 0.06979 0.47945 0.26563 0.0
H775 H 0.0955 0.46318 0.21093 0.0
C776 C 0.08244 0.78124 0.15577 0.0
C777 C 0.06646 0.76997 0.14375 0.0
C778 C 0.0865 0.79682 0.11738 0.0
C779 C 0.07376 0.82095 0.96697 0.0
H780 H 0.07786 0.86659 0.0678 0.0
C781 C 0.04625 0.89289 0.88305 0.0
C782 C 0.05507 0.90955 0.90397 0.0
C783 C 0.05265 0.87526 0.90355 0.0
C784 C 0.0772 0.85403 0.03852 0.0
H785 H 0.04285 0.76568 0.07967 0.0
H786 H 0.05007 0.79257 0.01275 0.0
H787 H 0.08094 0.83594 0.11851 0.0
H788 H 0.0782 0.9208 0.95966 0.0
H789 H 0.08952 0.88994 0.99517 0.0
H790 H 0.06932 0.8391 0.8873 0.0
C791 C 0.05956 0.78933 0.05145 0.0
C792 C 0.07897 0.83642 0.06769 0.0
C793 C 0.05543 0.77385 0.08995 0.0
C794 C 0.07094 0.90819 0.94363 0.0
C795 C 0.07742 0.89053 0.96389 0.0
C796 C 0.07208 0.83859 0.93768 0.0
C797 C 0.07475 0.80135 0.066 0.0
C798 C 0.07664 0.8197 0.03263 0.0
C799 C 0.06808 0.87387 0.94521 0.0
C800 C 0.07313 0.85532 0.97354 0.0
H801 H 0.09142 0.77842 0.19614 0.0
H802 H 0.09845 0.80572 0.12919 0.0
H803 H 0.07216 0.80828 0.93864 0.0
H804 H 0.03386 0.89351 0.85304 0.0
H805 H 0.0449 0.86278 0.88906 0.0
C806 C 0.73034 0.07938 0.11575 0.0
C807 C 0.72858 0.0755 0.18076 0.0
C808 C 0.71427 0.08208 0.07835 0.0
C809 C 0.67895 0.06881 0.01019 0.0
H810 H 0.6322 0.0912 0.0699 0.0
C811 C 0.60633 0.04107 0.93613 0.0
C812 C 0.59147 0.05391 0.92602 0.0
C813 C 0.62377 0.04733 0.95858 0.0
C814 C 0.64519 0.08514 0.05192 0.0
H815 H 0.70854 0.07248 0.25794 0.0
H816 H 0.68071 0.07729 0.19317 0.0
H817 H 0.66168 0.09775 0.1257 0.0
H818 H 0.58351 0.08353 0.93006 0.0
H819 H 0.61401 0.09444 0.97024 0.0
H820 H 0.66243 0.05583 0.93739 0.0
C821 C 0.69446 0.07846 0.17099 0.0
C822 C 0.66204 0.08877 0.08418 0.0
C823 C 0.71048 0.07571 0.20826 0.0
C824 C 0.59457 0.07323 0.93824 0.0
C825 C 0.61204 0.07949 0.96102 0.0
C826 C 0.66212 0.06516 0.97805 0.0
C827 C 0.69613 0.08102 0.10528 0.0
C828 C 0.67901 0.08017 0.06481 0.0
C829 C 0.62679 0.06658 0.9717 0.0
C830 C 0.64497 0.0728 0.99975 0.0
H831 H 0.7441 0.07961 0.09332 0.0
H832 H 0.71601 0.08433 0.02798 0.0
H833 H 0.69172 0.06183 0.99426 0.0
H834 H 0.60434 0.02605 0.92836 0.0
H835 H 0.63471 0.03696 0.96757 0.0
C836 C 0.43169 0.73619 0.11099 0.0
C837 C 0.43347 0.73431 0.17697 0.0
C838 C 0.42791 0.72039 0.07325 0.0
C839 C 0.41419 0.66947 0.07884 0.0
H840 H 0.45036 0.66459 0.94187 0.0
C841 C 0.44382 0.59833 0.99556 0.0
C842 C 0.448 0.5956 0.93117 0.0
C843 C 0.43712 0.61573 0.01715 0.0
C844 C 0.43986 0.66583 0.97896 0.0
H845 H 0.43176 0.7145 0.2552 0.0
H846 H 0.42518 0.68711 0.1898 0.0
H847 H 0.44665 0.69488 0.99496 0.0
H848 H 0.4475 0.60879 0.83846 0.0
H849 H 0.43606 0.63936 0.87652 0.0
H850 H 0.40814 0.64009 0.06467 0.0
C851 C 0.42643 0.70078 0.16704 0.0
C852 C 0.4377 0.68322 0.0094 0.0
C853 C 0.43021 0.71654 0.20467 0.0
C854 C 0.44474 0.61053 0.88854 0.0
C855 C 0.43812 0.628 0.91023 0.0
C856 C 0.4164 0.65205 0.04849 0.0
C857 C 0.42582 0.7024 0.10077 0.0
C858 C 0.4253 0.68508 0.06106 0.0
C859 C 0.43451 0.63086 0.97493 0.0
C860 C 0.42971 0.6499 0.99963 0.0
H861 H 0.43384 0.74976 0.08835 0.0
H862 H 0.42724 0.72214 0.02238 0.0
H863 H 0.40428 0.67054 0.11776 0.0
H864 H 0.44643 0.58726 0.02987 0.0
H865 H 0.43481 0.61758 0.06745 0.0
C866 C 0.79436 0.43721 0.20897 0.0
C867 C 0.77622 0.43726 0.18185 0.0
C868 C 0.81036 0.43481 0.17129 0.0
C869 C 0.84264 0.42451 0.08367 0.0
H870 H 0.84226 0.45734 0.93669 0.0
C871 C 0.9097 0.43821 0.93378 0.0
C872 C 0.91319 0.45739 0.92031 0.0
C873 C 0.89222 0.43248 0.95794 0.0
C874 C 0.84257 0.44805 0.97744 0.0
H875 H 0.76064 0.43336 0.09446 0.0
H876 H 0.78871 0.42925 0.0284 0.0
H877 H 0.81305 0.4518 0.99481 0.0
H878 H 0.901 0.48555 0.92179 0.0
H879 H 0.87059 0.47557 0.96358 0.0
H880 H 0.87238 0.42158 0.06814 0.0
C881 C 0.79048 0.43134 0.07883 0.0
C882 C 0.82578 0.44468 0.0103 0.0
C883 C 0.77443 0.43369 0.11664 0.0
C884 C 0.8987 0.47063 0.93058 0.0
C885 C 0.88124 0.46491 0.9545 0.0
C886 C 0.85943 0.42786 0.0507 0.0
C887 C 0.80864 0.43245 0.10552 0.0
C888 C 0.82573 0.4333 0.06484 0.0
C889 C 0.87784 0.4458 0.96889 0.0
C890 C 0.85966 0.44012 0.99834 0.0
H891 H 0.79633 0.44024 0.25878 0.0
H892 H 0.82413 0.43601 0.19328 0.0
H893 H 0.843 0.41551 0.12513 0.0
H894 H 0.92047 0.42762 0.92549 0.0
H895 H 0.88994 0.41764 0.96804 0.0
C896 C 0.02594 0.20084 0.94168 0.0
C897 C 0.02552 0.2161 0.89887 0.0
C898 C 0.02277 0.18229 0.92102 0.0
C899 C 0.02526 0.15228 0.77786 0.0
H900 H 0.99698 0.11668 0.88036 0.0
C901 C 0.00906 0.07571 0.69309 0.0
C902 C 0.00947 0.06119 0.73863 0.0
C903 C 0.01056 0.09473 0.71124 0.0
C904 C 0.00513 0.12634 0.85143 0.0
H905 H 0.02074 0.22361 0.80063 0.0
H906 H 0.01532 0.19123 0.76461 0.0
H907 H 0.99974 0.14951 0.91432 0.0
H908 H 0.01213 0.0554 0.83901 0.0
H909 H 0.01508 0.0884 0.87044 0.0
H910 H 0.03087 0.12907 0.71536 0.0
C911 C 0.01835 0.19365 0.81419 0.0
C912 C 0.00666 0.14523 0.8709 0.0
C913 C 0.02144 0.21225 0.83492 0.0
C914 C 0.01167 0.06617 0.80263 0.0
C915 C 0.01322 0.08517 0.82074 0.0
C916 C 0.02378 0.13336 0.75848 0.0
C917 C 0.01917 0.17839 0.85687 0.0
C918 C 0.01684 0.15844 0.83461 0.0
C919 C 0.01254 0.09976 0.77541 0.0
C920 C 0.0138 0.12007 0.7952 0.0
H921 H 0.02945 0.20308 0.99098 0.0
H922 H 0.0238 0.1709 0.95513 0.0
H923 H 0.03343 0.16197 0.74913 0.0
H924 H 0.00733 0.07243 0.64334 0.0
H925 H 0.00978 0.10552 0.67495 0.0
C926 C 0.29536 1.00081 0.88695 0.0
C927 C 0.28506 0.0175 0.87579 0.0
C928 C 0.3141 0.99909 0.86595 0.0
C929 C 0.35561 0.02815 0.82833 0.0
H930 H 0.37484 0.98334 0.74425 0.0
C931 C 0.43547 0.01456 0.7911 0.0
C932 C 0.44119 0.0083 0.73087 0.0
C933 C 0.41629 0.01555 0.80695 0.0
C934 C 0.36964 0.99597 0.76746 0.0
H935 H 0.28648 0.04548 0.83392 0.0
H936 H 0.31904 0.04248 0.79757 0.0
H937 H 0.34143 0.98497 0.77455 0.0
H938 H 0.43111 0.99814 0.64004 0.0
H939 H 0.3976 0.99967 0.66816 0.0
H940 H 0.38377 0.03912 0.82184 0.0
C941 C 0.31262 0.03069 0.8223 0.0
C942 C 0.35056 0.99684 0.78524 0.0
C943 C 0.29388 0.03231 0.84253 0.0
C944 C 0.42722 0.00304 0.68685 0.0
C945 C 0.40802 0.0038 0.70304 0.0
C946 C 0.37469 0.02718 0.81138 0.0
C947 C 0.32303 0.01415 0.83428 0.0
C948 C 0.34331 0.01299 0.81565 0.0
C949 C 0.40233 0.0101 0.76326 0.0
C950 C 0.38195 0.0111 0.78064 0.0
H951 H 0.28898 0.98914 0.91239 0.0
H952 H 0.32179 0.9862 0.87618 0.0
H953 H 0.3505 0.04072 0.8522 0.0
H954 H 0.44581 0.01873 0.82619 0.0
H955 H 0.41238 0.02033 0.85388 0.0
C956 C 0.48917 0.29465 0.84146 0.0
C957 C 0.48508 0.29063 0.90531 0.0
C958 C 0.49172 0.31335 0.82099 0.0
C959 C 0.50177 0.36208 0.87818 0.0
H960 H 0.47692 0.37756 0.72315 0.0
C961 C 0.49399 0.44098 0.81133 0.0
C962 C 0.49597 0.44612 0.7474 0.0
C963 C 0.4931 0.42191 0.82911 0.0
C964 C 0.48418 0.37348 0.76612 0.0
H965 H 0.48062 0.30345 0.99752 0.0
H966 H 0.48537 0.33581 0.96211 0.0
H967 H 0.47552 0.34456 0.75642 0.0
H968 H 0.49839 0.4351 0.65187 0.0
H969 H 0.49709 0.4019 0.68291 0.0
H970 H 0.51047 0.39093 0.88799 0.0
C971 C 0.48679 0.32449 0.92789 0.0
C972 C 0.48337 0.3545 0.78521 0.0
C973 C 0.48415 0.30584 0.94829 0.0
C974 C 0.49681 0.43169 0.70158 0.0
C975 C 0.49598 0.4126 0.7194 0.0
C976 C 0.50264 0.38102 0.85899 0.0
C977 C 0.49036 0.32854 0.86382 0.0
C978 C 0.49203 0.34857 0.84179 0.0
C979 C 0.49424 0.40742 0.78352 0.0
C980 C 0.49371 0.38706 0.80296 0.0
H981 H 0.49025 0.28335 0.80705 0.0
H982 H 0.49474 0.31592 0.77147 0.0
H983 H 0.50885 0.35799 0.92149 0.0
H984 H 0.49321 0.45168 0.84792 0.0
H985 H 0.49139 0.41855 0.87878 0.0
C986 C 0.20144 0.49298 0.93541 0.0
C987 C 0.21711 0.49714 0.89679 0.0
C988 C 0.18307 0.49394 0.91149 0.0
C989 C 0.15381 0.51228 0.77887 0.0
H990 H 0.11968 0.47255 0.83319 0.0
C991 C 0.07819 0.50208 0.67428 0.0
C992 C 0.06381 0.49872 0.71892 0.0
C993 C 0.09725 0.50186 0.69259 0.0
C994 C 0.12898 0.48382 0.81785 0.0
H995 H 0.22546 0.5063 0.80289 0.0
H996 H 0.19335 0.50758 0.76069 0.0
H997 H 0.15204 0.4729 0.87185 0.0
H998 H 0.05829 0.4923 0.81768 0.0
H999 H 0.09129 0.49186 0.84918 0.0
H1000 H 0.13057 0.52309 0.72451 0.0
C1001 C 0.19534 0.50372 0.80983 0.0
C1002 C 0.14755 0.48408 0.84022 0.0
C1003 C 0.21378 0.50283 0.83391 0.0
C1004 C 0.06894 0.49492 0.78192 0.0
C1005 C 0.08792 0.49457 0.80002 0.0
C1006 C 0.13518 0.51197 0.7562 0.0
C1007 C 0.17975 0.49893 0.84803 0.0
C1008 C 0.16016 0.49846 0.82182 0.0
C1009 C 0.10232 0.49808 0.75574 0.0
C1010 C 0.12248 0.49787 0.77614 0.0
H1011 H 0.20332 0.48824 0.98372 0.0
H1012 H 0.17143 0.49051 0.94276 0.0
H1013 H 0.16307 0.52364 0.76397 0.0
H1014 H 0.07474 0.50507 0.62536 0.0
H1015 H 0.10802 0.50448 0.65723 0.0
C1016 C 0.99009 0.79632 0.50124 0.0
C1017 C 0.99438 0.79242 0.43743 0.0
C1018 C 0.98856 0.815 0.52297 0.0
C1019 C 0.00252 0.86418 0.47759 0.0
H1020 H 0.96975 0.87833 0.61687 0.0
C1021 C 0.99029 0.942 0.55044 0.0
C1022 C 0.99245 0.94621 0.61511 0.0
C1023 C 0.98957 0.92323 0.52955 0.0
C1024 C 0.97903 0.87454 0.57813 0.0
H1025 H 0.99983 0.8056 0.34632 0.0
H1026 H 0.99598 0.83778 0.38304 0.0
H1027 H 0.96945 0.84581 0.57764 0.0
H1028 H 0.9951 0.93386 0.70869 0.0
H1029 H 0.99346 0.90103 0.67206 0.0
H1030 H 0.01172 0.89306 0.4773 0.0
C1031 C 0.99445 0.82644 0.41708 0.0
C1032 C 0.97895 0.85586 0.55569 0.0
C1033 C 0.99627 0.80781 0.39558 0.0
C1034 C 0.99344 0.93114 0.65854 0.0
C1035 C 0.99242 0.91234 0.63765 0.0
C1036 C 0.00238 0.88287 0.49937 0.0
C1037 C 0.99103 0.83038 0.4814 0.0
C1038 C 0.99072 0.85038 0.50505 0.0
C1039 C 0.99071 0.90818 0.57282 0.0
C1040 C 0.99067 0.88826 0.54992 0.0
H1041 H 0.98818 0.78495 0.53492 0.0
H1042 H 0.98602 0.81732 0.57289 0.0
H1043 H 0.01219 0.86055 0.43977 0.0
H1044 H 0.98953 0.95321 0.5156 0.0
H1045 H 0.98809 0.92047 0.47935 0.0
C1046 C 0.70053 0.98845 0.43532 0.0
C1047 C 0.71351 1.00097 0.46346 0.0
C1048 C 0.68205 0.98684 0.45868 0.0
C1049 C 0.64702 0.01393 0.55287 0.0
H1050 H 0.61913 0.96674 0.55312 0.0
C1051 C 0.57249 0.00809 0.66259 0.0
C1052 C 0.55885 0.99806 0.62768 0.0
C1053 C 0.59157 0.00748 0.64534 0.0
C1054 C 0.62669 0.98005 0.55292 0.0
H1055 H 0.7171 0.02129 0.53965 0.0
H1056 H 0.68538 0.01791 0.58154 0.0
H1057 H 0.65213 0.96705 0.51905 0.0
H1058 H 0.55475 0.97929 0.54759 0.0
H1059 H 0.58801 0.9783 0.51743 0.0
H1060 H 0.62163 0.02694 0.58666 0.0
C1061 C 0.6893 0.00961 0.54053 0.0
C1062 C 0.64562 0.98025 0.5333 0.0
C1063 C 0.70769 0.01129 0.51703 0.0
C1064 C 0.56484 0.98721 0.57556 0.0
C1065 C 0.58395 0.98652 0.5585 0.0
C1066 C 0.62817 0.01372 0.57272 0.0
C1067 C 0.67609 0.99767 0.51092 0.0
C1068 C 0.65603 0.99721 0.53295 0.0
C1069 C 0.59753 0.99678 0.59284 0.0
C1070 C 0.61774 0.9968 0.5729 0.0
H1071 H 0.70452 0.98009 0.39448 0.0
H1072 H 0.67228 0.97756 0.4344 0.0
H1073 H 0.6544 0.02735 0.55195 0.0
H1074 H 0.56841 0.01672 0.70261 0.0
H1075 H 0.60168 0.0154 0.67323 0.0
C1076 C 0.50618 0.70075 0.41215 0.0
C1077 C 0.50721 0.71594 0.45516 0.0
C1078 C 0.5083 0.68206 0.43271 0.0
C1079 C 0.52347 0.6523 0.57038 0.0
H1080 H 0.49127 0.61506 0.48962 0.0
C1081 C 0.51002 0.57667 0.67071 0.0
C1082 C 0.51054 0.5617 0.62682 0.0
C1083 C 0.51092 0.59551 0.65024 0.0
C1084 C 0.50048 0.62525 0.51231 0.0
H1085 H 0.51227 0.72308 0.55363 0.0
H1086 H 0.5151 0.69055 0.58982 0.0
H1087 H 0.49067 0.64767 0.45318 0.0
H1088 H 0.51262 0.55491 0.52688 0.0
H1089 H 0.51398 0.58769 0.49138 0.0
H1090 H 0.53277 0.62973 0.63084 0.0
C1091 C 0.51293 0.69309 0.53982 0.0
C1092 C 0.50024 0.64399 0.49119 0.0
C1093 C 0.51104 0.71183 0.51911 0.0
C1094 C 0.51219 0.56604 0.56208 0.0
C1095 C 0.51286 0.58485 0.54162 0.0
C1096 C 0.52353 0.63355 0.59202 0.0
C1097 C 0.51125 0.67789 0.49709 0.0
C1098 C 0.51178 0.65782 0.51965 0.0
C1099 C 0.51212 0.59981 0.58537 0.0
C1100 C 0.51209 0.6198 0.56302 0.0
H1101 H 0.50302 0.70316 0.3627 0.0
H1102 H 0.50734 0.67085 0.39795 0.0
H1103 H 0.53276 0.6624 0.59305 0.0
H1104 H 0.50889 0.57385 0.7209 0.0
H1105 H 0.51022 0.60673 0.68508 0.0
C1106 C 0.80346 0.52271 0.43755 0.0
C1107 C 0.79065 0.51009 0.46619 0.0
C1108 C 0.82213 0.52409 0.4591 0.0
C1109 C 0.85763 0.496 0.54758 0.0
H1110 H 0.88644 0.54265 0.54639 0.0
C1111 C 0.93283 0.50023 0.65122 0.0
C1112 C 0.9465 0.50979 0.61501 0.0
C1113 C 0.91368 0.50133 0.63541 0.0
C1114 C 0.87859 0.52949 0.54655 0.0
H1115 H 0.78757 0.48947 0.54174 0.0
H1116 H 0.81962 0.49251 0.58071 0.0
H1117 H 0.85308 0.5431 0.51632 0.0
H1118 H 0.95065 0.52824 0.53416 0.0
H1119 H 0.91718 0.53011 0.50654 0.0
H1120 H 0.88306 0.48241 0.57794 0.0
C1121 C 0.8154 0.50103 0.54053 0.0
C1122 C 0.85948 0.52973 0.52924 0.0
C1123 C 0.79683 0.49954 0.51875 0.0
C1124 C 0.94051 0.52067 0.56303 0.0
C1125 C 0.92131 0.52186 0.54744 0.0
C1126 C 0.87665 0.49579 0.56521 0.0
C1127 C 0.82846 0.51294 0.51005 0.0
C1128 C 0.84873 0.51298 0.52955 0.0
C1129 C 0.90769 0.51206 0.58312 0.0
C1130 C 0.88738 0.51251 0.5649 0.0
H1131 H 0.79919 0.53126 0.39754 0.0
H1132 H 0.83177 0.53338 0.43426 0.0
H1133 H 0.85 0.48273 0.54696 0.0
H1134 H 0.9369 0.49159 0.69119 0.0
H1135 H 0.90354 0.49375 0.66425 0.0
loop_
_geom_bond_atom_site_label_1
_geom_bond_atom_site_label_2
_geom_bond_distance
_geom_bond_site_symmetry_2
_ccdc_geom_bond_type
P0 O11 1.490 . S
P0 C14 1.812 . S
P0 C20 1.803 . S
P0 C26 1.819 . S
H1 C15 0.941 . S
H2 C16 0.939 . S
H3 C18 0.940 . S
H4 C19 0.940 . S
H5 C21 0.939 . S
H6 C22 0.942 . S
H7 C24 0.940 . S
H8 C25 0.939 . S
H9 C27 0.941 . S
H10 C31 0.939 . S
O11 P0 1.490 . S
H12 C28 0.939 . S
H13 C30 0.940 . S
C14 P0 1.812 . S
C14 C15 1.389 . S
C14 C19 1.391 . S
C15 H1 0.941 . S
C15 C14 1.389 . S
C15 C16 1.397 . S
C16 H2 0.939 . S
C16 C15 1.397 . S
C16 C17 1.378 . S
C17 C16 1.378 . S
C17 C18 1.378 . S
C18 H3 0.940 . S
C18 C17 1.378 . S
C18 C19 1.396 . S
C19 H4 0.940 . S
C19 C14 1.391 . S
C19 C18 1.396 . S
C20 P0 1.803 . S
C20 C21 1.378 . S
C20 C25 1.400 . S
C21 H5 0.939 . S
C21 C20 1.378 . S
C21 C22 1.361 . S
C22 H6 0.942 . S
C22 C21 1.361 . S
C22 C23 1.369 . S
C23 C22 1.369 . S
C23 C24 1.404 . S
C24 H7 0.940 . S
C24 C23 1.404 . S
C24 C25 1.389 . S
C25 H8 0.939 . S
C25 C20 1.400 . S
C25 C24 1.389 . S
C26 P0 1.819 . S
C26 C27 1.391 . S
C26 C31 1.391 . S
C27 H9 0.941 . S
C27 C26 1.391 . S
C27 C28 1.396 . S
C28 H12 0.939 . S
C28 C27 1.396 . S
C28 C29 1.397 . S
C29 C28 1.397 . S
C29 C30 1.385 . S
C30 H13 0.940 . S
C30 C29 1.385 . S
C30 C31 1.388 . S
C31 H10 0.939 . S
C31 C26 1.391 . S
C31 C30 1.388 . S
P32 O43 1.490 . S
P32 C46 1.812 . S
P32 C52 1.803 . S
P32 C58 1.819 . S
H33 C47 0.941 . S
H34 C48 0.939 . S
H35 C50 0.940 . S
H36 C51 0.940 . S
H37 C53 0.939 . S
H38 C54 0.942 . S
H39 C56 0.940 . S
H40 C57 0.939 . S
H41 C59 0.941 . S
H42 C63 0.939 1_655 S
O43 P32 1.490 . S
H44 C60 0.939 . S
H45 C62 0.940 . S
C46 P32 1.812 . S
C46 C47 1.389 . S
C46 C51 1.391 1_455 S
C47 H33 0.941 . S
C47 C46 1.389 . S
C47 C48 1.397 . S
C48 H34 0.939 . S
C48 C47 1.397 . S
C48 C49 1.378 . S
C49 C48 1.378 . S
C49 C50 1.378 1_455 S
C50 H35 0.940 . S
C50 C49 1.378 1_655 S
C50 C51 1.396 . S
C51 H36 0.940 . S
C51 C46 1.391 1_655 S
C51 C50 1.396 . S
C52 P32 1.803 . S
C52 C53 1.378 . S
C52 C57 1.400 1_455 S
C53 H37 0.939 . S
C53 C52 1.378 . S
C53 C54 1.361 . S
C54 H38 0.942 . S
C54 C53 1.361 . S
C54 C55 1.369 . S
C55 C54 1.369 . S
C55 C56 1.404 1_455 S
C56 H39 0.940 . S
C56 C55 1.404 1_655 S
C56 C57 1.389 . S
C57 H40 0.939 . S
C57 C52 1.400 1_655 S
C57 C56 1.389 . S
C58 P32 1.819 . S
C58 C59 1.391 . S
C58 C63 1.391 . S
C59 H41 0.941 . S
C59 C58 1.391 . S
C59 C60 1.396 . S
C60 H44 0.939 . S
C60 C59 1.396 . S
C60 C61 1.397 . S
C61 C60 1.397 . S
C61 C62 1.385 1_455 S
C62 H45 0.940 . S
C62 C61 1.385 1_655 S
C62 C63 1.388 1_655 S
C63 H42 0.939 1_455 S
C63 C58 1.391 . S
C63 C62 1.388 1_455 S
P64 O75 1.490 . S
P64 C78 1.812 . S
P64 C84 1.803 . S
P64 C90 1.819 . S
H65 C79 0.941 . S
H66 C80 0.939 . S
H67 C82 0.940 . S
H68 C83 0.940 . S
H69 C85 0.939 . S
H70 C86 0.942 . S
H71 C88 0.940 . S
H72 C89 0.939 . S
H73 C91 0.941 . S
H74 C95 0.939 1_565 S
O75 P64 1.490 . S
H76 C92 0.939 . S
H77 C94 0.940 . S
C78 P64 1.812 . S
C78 C79 1.389 . S
C78 C83 1.391 1_545 S
C79 H65 0.941 . S
C79 C78 1.389 . S
C79 C80 1.397 . S
C80 H66 0.939 . S
C80 C79 1.397 . S
C80 C81 1.378 . S
C81 C80 1.378 . S
C81 C82 1.378 1_545 S
C82 H67 0.940 . S
C82 C81 1.378 1_565 S
C82 C83 1.396 . S
C83 H68 0.940 . S
C83 C78 1.391 1_565 S
C83 C82 1.396 . S
C84 P64 1.803 . S
C84 C85 1.378 . S
C84 C89 1.400 1_545 S
C85 H69 0.939 . S
C85 C84 1.378 . S
C85 C86 1.361 . S
C86 H70 0.942 . S
C86 C85 1.361 . S
C86 C87 1.369 . S
C87 C86 1.369 . S
C87 C88 1.404 1_545 S
C88 H71 0.940 . S
C88 C87 1.404 1_565 S
C88 C89 1.389 . S
C89 H72 0.939 . S
C89 C84 1.400 1_565 S
C89 C88 1.389 . S
C90 P64 1.819 . S
C90 C91 1.391 . S
C90 C95 1.391 . S
C91 H73 0.941 . S
C91 C90 1.391 . S
C91 C92 1.396 . S
C92 H76 0.939 . S
C92 C91 1.396 . S
C92 C93 1.397 . S
C93 C92 1.397 . S
C93 C94 1.385 1_545 S
C94 H77 0.940 . S
C94 C93 1.385 1_565 S
C94 C95 1.388 1_565 S
C95 H74 0.939 1_545 S
C95 C90 1.391 . S
C95 C94 1.388 1_545 S
P96 O107 1.490 . S
P96 C110 1.812 . S
P96 C116 1.803 . S
P96 C122 1.819 . S
H97 C111 0.941 . S
H98 C112 0.939 . S
H99 C114 0.940 . S
H100 C115 0.940 . S
H101 C117 0.939 . S
H102 C118 0.942 . S
H103 C120 0.940 . S
H104 C121 0.939 . S
H105 C123 0.941 . S
H106 C127 0.939 . S
O107 P96 1.490 . S
H108 C124 0.939 . S
H109 C126 0.940 . S
C110 P96 1.812 . S
C110 C111 1.389 . S
C110 C115 1.391 . S
C111 H97 0.941 . S
C111 C110 1.389 . S
C111 C112 1.397 . S
C112 H98 0.939 . S
C112 C111 1.397 . S
C112 C113 1.378 . S
C113 C112 1.378 . S
C113 C114 1.378 . S
C114 H99 0.940 . S
C114 C113 1.378 . S
C114 C115 1.396 . S
C115 H100 0.940 . S
C115 C110 1.391 . S
C115 C114 1.396 . S
C116 P96 1.803 . S
C116 C117 1.378 . S
C116 C121 1.400 . S
C117 H101 0.939 . S
C117 C116 1.378 . S
C117 C118 1.361 . S
C118 H102 0.942 . S
C118 C117 1.361 . S
C118 C119 1.369 . S
C119 C118 1.369 . S
C119 C120 1.404 . S
C120 H103 0.940 . S
C120 C119 1.404 . S
C120 C121 1.389 . S
C121 H104 0.939 . S
C121 C116 1.400 . S
C121 C120 1.389 . S
C122 P96 1.819 . S
C122 C123 1.391 . S
C122 C127 1.391 . S
C123 H105 0.941 . S
C123 C122 1.391 . S
C123 C124 1.396 . S
C124 H108 0.939 . S
C124 C123 1.396 . S
C124 C125 1.397 . S
C125 C124 1.397 . S
C125 C126 1.385 . S
C126 H109 0.940 . S
C126 C125 1.385 . S
C126 C127 1.388 . S
C127 H106 0.939 . S
C127 C122 1.391 . S
C127 C126 1.388 . S
P128 O139 1.490 . S
P128 C142 1.812 1_554 S
P128 C148 1.803 . S
P128 C154 1.819 . S
H129 C143 0.941 . S
H130 C144 0.939 . S
H131 C146 0.940 . S
H132 C147 0.940 . S
H133 C149 0.939 . S
H134 C150 0.942 . S
H135 C152 0.940 . S
H136 C153 0.939 . S
H137 C155 0.941 . S
H138 C159 0.939 . S
O139 P128 1.490 . S
H140 C156 0.939 . S
H141 C158 0.940 . S
C142 P128 1.812 1_556 S
C142 C143 1.389 . S
C142 C147 1.391 . S
C143 H129 0.941 . S
C143 C142 1.389 . S
C143 C144 1.397 . S
C144 H130 0.939 . S
C144 C143 1.397 . S
C144 C145 1.378 . S
C145 C144 1.378 . S
C145 C146 1.378 . S
C146 H131 0.940 . S
C146 C145 1.378 . S
C146 C147 1.396 . S
C147 H132 0.940 . S
C147 C142 1.391 . S
C147 C146 1.396 . S
C148 P128 1.803 . S
C148 C149 1.378 . S
C148 C153 1.400 . S
C149 H133 0.939 . S
C149 C148 1.378 . S
C149 C150 1.361 . S
C150 H134 0.942 . S
C150 C149 1.361 . S
C150 C151 1.369 . S
C151 C150 1.369 . S
C151 C152 1.404 . S
C152 H135 0.940 . S
C152 C151 1.404 . S
C152 C153 1.389 . S
C153 H136 0.939 . S
C153 C148 1.400 . S
C153 C152 1.389 . S
C154 P128 1.819 . S
C154 C155 1.391 . S
C154 C159 1.391 . S
C155 H137 0.941 . S
C155 C154 1.391 . S
C155 C156 1.396 . S
C156 H140 0.939 . S
C156 C155 1.396 . S
C156 C157 1.397 . S
C157 C156 1.397 . S
C157 C158 1.385 . S
C158 H141 0.940 . S
C158 C157 1.385 . S
C158 C159 1.388 . S
C159 H138 0.939 . S
C159 C154 1.391 . S
C159 C158 1.388 . S
P160 O171 1.490 . S
P160 C174 1.812 1_554 S
P160 C180 1.803 . S
P160 C186 1.819 . S
H161 C175 0.941 . S
H162 C176 0.939 . S
H163 C178 0.940 . S
H164 C179 0.940 1_655 S
H165 C181 0.939 . S
H166 C182 0.942 . S
H167 C184 0.940 . S
H168 C185 0.939 1_655 S
H169 C187 0.941 . S
H170 C191 0.939 . S
O171 P160 1.490 . S
H172 C188 0.939 . S
H173 C190 0.935 . S
C174 P160 1.812 1_556 S
C174 C175 1.389 . S
C174 C179 1.391 . S
C175 H161 0.941 . S
C175 C174 1.389 . S
C175 C176 1.397 . S
C176 H162 0.939 . S
C176 C175 1.397 . S
C176 C177 1.378 . S
C177 C176 1.378 . S
C177 C178 1.378 1_455 S
C178 H163 0.940 . S
C178 C177 1.378 1_655 S
C178 C179 1.396 1_655 S
C179 H164 0.940 1_455 S
C179 C174 1.391 . S
C179 C178 1.396 1_455 S
C180 P160 1.803 . S
C180 C181 1.378 . S
C180 C185 1.400 . S
C181 H165 0.939 . S
C181 C180 1.378 . S
C181 C182 1.361 . S
C182 H166 0.942 . S
C182 C181 1.361 . S
C182 C183 1.369 . S
C183 C182 1.369 . S
C183 C184 1.404 1_455 S
C184 H167 0.940 . S
C184 C183 1.404 1_655 S
C184 C185 1.389 1_655 S
C185 H168 0.939 1_455 S
C185 C180 1.400 . S
C185 C184 1.389 1_455 S
C186 P160 1.819 . S
C186 C187 1.391 . S
C186 C191 1.391 . S
C187 H169 0.941 . S
C187 C186 1.391 . S
C187 C188 1.396 . S
C188 H172 0.939 . S
C188 C187 1.396 . S
C188 C189 1.397 . S
C189 C188 1.397 . S
C189 C190 1.387 1_455 S
C190 H173 0.935 . S
C190 C189 1.387 1_655 S
C190 C191 1.391 1_655 S
C191 H170 0.939 . S
C191 C186 1.391 . S
C191 C190 1.391 1_455 S
P192 O203 1.490 . S
P192 C206 1.812 1_554 S
P192 C212 1.803 . S
P192 C218 1.819 . S
H193 C207 0.941 . S
H194 C208 0.939 . S
H195 C210 0.940 . S
H196 C211 0.940 1_565 S
H197 C213 0.939 . S
H198 C214 0.942 . S
H199 C216 0.940 . S
H200 C217 0.939 1_565 S
H201 C219 0.941 . S
H202 C223 0.939 . S
O203 P192 1.490 . S
H204 C220 0.939 . S
H205 C222 0.940 1_565 S
C206 P192 1.812 1_556 S
C206 C207 1.389 . S
C206 C211 1.391 . S
C207 H193 0.941 . S
C207 C206 1.389 . S
C207 C208 1.397 . S
C208 H194 0.939 . S
C208 C207 1.397 . S
C208 C209 1.378 . S
C209 C208 1.378 . S
C209 C210 1.378 1_545 S
C210 H195 0.940 . S
C210 C209 1.378 1_565 S
C210 C211 1.396 1_565 S
C211 H196 0.940 1_545 S
C211 C206 1.391 . S
C211 C210 1.396 1_545 S
C212 P192 1.803 . S
C212 C213 1.378 . S
C212 C217 1.400 . S
C213 H197 0.939 . S
C213 C212 1.378 . S
C213 C214 1.361 . S
C214 H198 0.942 . S
C214 C213 1.361 . S
C214 C215 1.369 . S
C215 C214 1.369 . S
C215 C216 1.404 1_545 S
C216 H199 0.940 . S
C216 C215 1.404 1_565 S
C216 C217 1.389 1_565 S
C217 H200 0.939 1_545 S
C217 C212 1.400 . S
C217 C216 1.389 1_545 S
C218 P192 1.819 . S
C218 C219 1.391 . S
C218 C223 1.391 . S
C219 H201 0.941 . S
C219 C218 1.391 . S
C219 C220 1.396 . S
C220 H204 0.939 . S
C220 C219 1.396 . S
C220 C221 1.397 . S
C221 C220 1.397 . S
C221 C222 1.385 . S
C222 H205 0.940 1_545 S
C222 C221 1.385 . S
C222 C223 1.388 . S
C223 H202 0.939 . S
C223 C218 1.391 . S
C223 C222 1.388 . S
P224 O235 1.490 . S
P224 C238 1.812 1_554 S
P224 C244 1.803 . S
P224 C250 1.819 . S
H225 C239 0.941 . S
H226 C240 0.939 . S
H227 C242 0.940 . S
H228 C243 0.940 . S
H229 C245 0.939 . S
H230 C246 0.942 . S
H231 C248 0.940 . S
H232 C249 0.939 . S
H233 C251 0.941 . S
H234 C255 0.939 . S
O235 P224 1.490 . S
H236 C252 0.939 . S
H237 C254 0.940 . S
C238 P224 1.812 1_556 S
C238 C239 1.389 . S
C238 C243 1.391 . S
C239 H225 0.941 . S
C239 C238 1.389 . S
C239 C240 1.397 . S
C240 H226 0.939 . S
C240 C239 1.397 . S
C240 C241 1.378 . S
C241 C240 1.378 . S
C241 C242 1.378 . S
C242 H227 0.940 . S
C242 C241 1.378 . S
C242 C243 1.396 . S
C243 H228 0.940 . S
C243 C238 1.391 . S
C243 C242 1.396 . S
C244 P224 1.803 . S
C244 C245 1.378 . S
C244 C249 1.400 . S
C245 H229 0.939 . S
C245 C244 1.378 . S
C245 C246 1.361 . S
C246 H230 0.942 . S
C246 C245 1.361 . S
C246 C247 1.369 . S
C247 C246 1.369 . S
C247 C248 1.404 . S
C248 H231 0.940 . S
C248 C247 1.404 . S
C248 C249 1.389 . S
C249 H232 0.939 . S
C249 C244 1.400 . S
C249 C248 1.389 . S
C250 P224 1.819 . S
C250 C251 1.391 . S
C250 C255 1.391 . S
C251 H233 0.941 . S
C251 C250 1.391 . S
C251 C252 1.396 . S
C252 H236 0.939 . S
C252 C251 1.396 . S
C252 C253 1.397 . S
C253 C252 1.397 . S
C253 C254 1.385 . S
C254 H237 0.940 . S
C254 C253 1.385 . S
C254 C255 1.388 . S
C255 H234 0.939 . S
C255 C250 1.391 . S
C255 C254 1.388 . S
Ho256 C259 2.811 . S
Ho256 O276 2.322 . S
Ho256 O278 2.378 . S
Ho256 O279 2.532 . S
Ho256 O280 2.381 . S
Ho256 O281 2.669 1_565 S
Ho256 O283 2.346 1_565 S
Ho256 O287 2.305 1_455 S
Ho257 C268 2.811 . S
Ho257 O277 2.346 1_545 S
Ho257 O281 2.305 1_655 S
Ho257 O282 2.322 . S
Ho257 O284 2.378 . S
Ho257 O285 2.523 . S
Ho257 O286 2.381 . S
Ho257 O287 2.669 1_545 S
C258 O276 1.259 1_655 S
C258 O277 1.268 . S
C259 Ho256 2.811 . S
C259 C260 1.488 . S
C259 O278 1.215 . S
C259 O279 1.309 . S
C260 C259 1.488 . S
C260 C261 1.348 . S
C260 C265 1.413 . S
C261 C260 1.348 . S
C261 C262 1.442 . S
C261 H288 0.930 1_455 S
C262 C261 1.442 . S
C262 C263 1.381 . S
C262 H289 0.931 1_455 S
C263 C262 1.381 . S
C263 C264 1.321 . S
C264 C263 1.321 . S
C264 C265 1.403 . S
C264 H290 0.934 . S
C265 C260 1.413 . S
C265 C264 1.403 . S
C265 H291 0.930 . S
C266 O280 1.261 1_545 S
C266 O281 1.265 . S
C267 O282 1.259 1_455 S
C267 O283 1.268 . S
C268 Ho257 2.811 . S
C268 C269 1.488 . S
C268 O284 1.215 . S
C268 O285 1.288 . S
C269 C268 1.488 . S
C269 C270 1.348 . S
C269 C274 1.413 . S
C270 C269 1.348 . S
C270 C271 1.442 . S
C270 H292 0.930 1_655 S
C271 C270 1.442 . S
C271 C272 1.381 . S
C271 H293 0.931 1_655 S
C272 C271 1.381 . S
C272 C273 1.321 . S
C273 C272 1.321 . S
C273 C274 1.403 . S
C273 H294 0.934 . S
C274 C269 1.413 . S
C274 C273 1.403 . S
C274 H295 0.930 . S
C275 O286 1.275 . S
C275 O287 1.256 1_545 S
O276 Ho256 2.322 . S
O276 C258 1.259 1_455 S
O277 Ho257 2.346 1_565 S
O277 C258 1.268 . S
O278 Ho256 2.378 . S
O278 C259 1.215 . S
O279 Ho256 2.532 . S
O279 C259 1.309 . S
O280 Ho256 2.381 . S
O280 C266 1.261 1_565 S
O281 Ho256 2.669 1_545 S
O281 Ho257 2.305 1_455 S
O281 C266 1.265 . S
O282 Ho257 2.322 . S
O282 C267 1.259 1_655 S
O283 Ho256 2.346 1_545 S
O283 C267 1.268 . S
O284 Ho257 2.378 . S
O284 C268 1.215 . S
O285 Ho257 2.523 . S
O285 C268 1.288 . S
O286 Ho257 2.381 . S
O286 C275 1.275 . S
O287 Ho256 2.305 1_655 S
O287 Ho257 2.669 1_565 S
O287 C275 1.256 1_565 S
H288 C261 0.930 1_655 S
H289 C262 0.931 1_655 S
H290 C264 0.934 . S
H291 C265 0.930 . S
H292 C270 0.930 1_455 S
H293 C271 0.931 1_455 S
H294 C273 0.934 . S
H295 C274 0.930 . S
Ho296 C299 2.811 . S
Ho296 O316 2.322 . S
Ho296 O318 2.378 . S
Ho296 O319 2.524 . S
Ho296 O320 2.381 . S
Ho296 O321 2.669 . S
Ho296 O323 2.346 . S
Ho296 O327 2.305 1_545 S
Ho297 C308 2.811 . S
Ho297 O317 2.346 . S
Ho297 O321 2.305 1_565 S
Ho297 O322 2.322 . S
Ho297 O324 2.378 . S
Ho297 O325 2.500 1_565 S
Ho297 O326 2.381 . S
Ho297 O327 2.669 . S
C298 O316 1.259 1_565 S
C298 O317 1.268 . S
C299 Ho296 2.811 . S
C299 C300 1.488 . S
C299 O318 1.215 . S
C299 O319 1.289 . S
C300 C299 1.488 . S
C300 C301 1.348 . S
C300 C305 1.413 . S
C301 C300 1.348 . S
C301 C302 1.442 . S
C301 H328 0.930 1_545 S
C302 C301 1.442 . S
C302 C303 1.381 . S
C302 H329 0.931 1_545 S
C303 C302 1.381 . S
C303 C304 1.321 . S
C304 C303 1.321 . S
C304 C305 1.403 . S
C304 H330 0.934 . S
C305 C300 1.413 . S
C305 C304 1.403 . S
C305 H331 0.930 . S
C306 O320 1.275 . S
C306 O321 1.256 . S
C307 O322 1.259 1_545 S
C307 O323 1.268 . S
C308 Ho297 2.811 . S
C308 C309 1.488 . S
C308 O324 1.215 . S
C308 O325 1.233 1_565 S
C309 C308 1.488 . S
C309 C310 1.348 . S
C309 C314 1.413 . S
C310 C309 1.348 . S
C310 C311 1.442 . S
C310 H332 0.930 1_565 S
C311 C310 1.442 . S
C311 C312 1.381 . S
C311 H333 0.931 1_565 S
C312 C311 1.381 . S
C312 C313 1.321 . S
C313 C312 1.321 . S
C313 C314 1.403 . S
C313 H334 0.934 . S
C314 C309 1.413 . S
C314 C313 1.403 . S
C314 H335 0.930 . S
C315 O326 1.275 . S
C315 O327 1.256 . S
O316 Ho296 2.322 . S
O316 C298 1.259 1_545 S
O317 Ho297 2.346 . S
O317 C298 1.268 . S
O318 Ho296 2.378 . S
O318 C299 1.215 . S
O319 Ho296 2.524 . S
O319 C299 1.289 . S
O320 Ho296 2.381 . S
O320 C306 1.275 . S
O321 Ho296 2.669 . S
O321 Ho297 2.305 1_545 S
O321 C306 1.256 . S
O322 Ho297 2.322 . S
O322 C307 1.259 1_565 S
O323 Ho296 2.346 . S
O323 C307 1.268 . S
O324 Ho297 2.378 . S
O324 C308 1.215 . S
O325 Ho297 2.500 1_545 S
O325 C308 1.233 1_545 S
O326 Ho297 2.381 . S
O326 C315 1.275 . S
O327 Ho296 2.305 1_565 S
O327 Ho297 2.669 . S
O327 C315 1.256 . S
H328 C301 0.930 1_565 S
H329 C302 0.931 1_565 S
H330 C304 0.934 . S
H331 C305 0.930 . S
H332 C310 0.930 1_545 S
H333 C311 0.931 1_545 S
H334 C313 0.934 . S
H335 C314 0.930 . S
Ho336 C339 2.811 . S
Ho336 O356 2.322 . S
Ho336 O358 2.378 . S
Ho336 O359 2.524 . S
Ho336 O360 2.381 . S
Ho336 O361 2.669 . S
Ho336 O363 2.346 . S
Ho336 O367 2.305 . S
Ho337 C348 2.811 . S
Ho337 O357 2.346 . S
Ho337 O361 2.305 . S
Ho337 O362 2.322 . S
Ho337 O364 2.378 . S
Ho337 O365 2.524 . S
Ho337 O366 2.381 . S
Ho337 O367 2.669 . S
C338 O356 1.259 . S
C338 O357 1.268 . S
C339 Ho336 2.811 . S
C339 C340 1.488 . S
C339 O358 1.215 . S
C339 O359 1.289 . S
C340 C339 1.488 . S
C340 C341 1.348 . S
C340 C345 1.413 . S
C341 C340 1.348 . S
C341 C342 1.442 . S
C341 H368 0.930 . S
C342 C341 1.442 . S
C342 C343 1.381 . S
C342 H369 0.931 . S
C343 C342 1.381 . S
C343 C344 1.321 . S
C344 C343 1.321 . S
C344 C345 1.403 . S
C344 H370 0.934 . S
C345 C340 1.413 . S
C345 C344 1.403 . S
C345 H371 0.930 . S
C346 O360 1.275 . S
C346 O361 1.256 . S
C347 O362 1.259 . S
C347 O363 1.268 . S
C348 Ho337 2.811 . S
C348 C349 1.488 . S
C348 O364 1.215 . S
C348 O365 1.289 . S
C349 C348 1.488 . S
C349 C350 1.348 . S
C349 C354 1.413 . S
C350 C349 1.348 . S
C350 C351 1.442 . S
C350 H372 0.930 . S
C351 C350 1.442 . S
C351 C352 1.381 . S
C351 H373 0.931 . S
C352 C351 1.381 . S
C352 C353 1.321 . S
C353 C352 1.321 . S
C353 C354 1.403 . S
C353 H374 0.934 . S
C354 C349 1.413 . S
C354 C353 1.403 . S
C354 H375 0.930 . S
C355 O366 1.275 . S
C355 O367 1.256 . S
O356 Ho336 2.322 . S
O356 C338 1.259 . S
O357 Ho337 2.346 . S
O357 C338 1.268 . S
O358 Ho336 2.378 . S
O358 C339 1.215 . S
O359 Ho336 2.524 . S
O359 C339 1.289 . S
O360 Ho336 2.381 . S
O360 C346 1.275 . S
O361 Ho336 2.669 . S
O361 Ho337 2.305 . S
O361 C346 1.256 . S
O362 Ho337 2.322 . S
O362 C347 1.259 . S
O363 Ho336 2.346 . S
O363 C347 1.268 . S
O364 Ho337 2.378 . S
O364 C348 1.215 . S
O365 Ho337 2.524 . S
O365 C348 1.289 . S
O366 Ho337 2.381 . S
O366 C355 1.275 . S
O367 Ho336 2.305 . S
O367 Ho337 2.669 . S
O367 C355 1.256 . S
H368 C341 0.930 . S
H369 C342 0.931 . S
H370 C344 0.934 . S
H371 C345 0.930 . S
H372 C350 0.930 . S
H373 C351 0.931 . S
H374 C353 0.934 . S
H375 C354 0.930 . S
Ho376 C379 2.811 . S
Ho376 O396 2.322 . S
Ho376 O398 2.378 . S
Ho376 O399 2.524 . S
Ho376 O400 2.381 . S
Ho376 O401 2.669 1_655 S
Ho376 O403 2.346 1_655 S
Ho376 O407 2.305 . S
Ho377 C388 2.811 . S
Ho377 O397 2.346 1_455 S
Ho377 O401 2.305 . S
Ho377 O402 2.322 . S
Ho377 O404 2.378 . S
Ho377 O405 2.524 . S
Ho377 O406 2.381 . S
Ho377 O407 2.669 1_455 S
C378 O396 1.259 . S
C378 O397 1.268 . S
C379 Ho376 2.811 . S
C379 C380 1.488 . S
C379 O398 1.215 . S
C379 O399 1.289 . S
C380 C379 1.488 . S
C380 C381 1.348 . S
C380 C385 1.413 . S
C381 C380 1.348 . S
C381 C382 1.442 . S
C381 H408 0.930 . S
C382 C381 1.442 . S
C382 C383 1.381 . S
C382 H409 0.931 . S
C383 C382 1.381 . S
C383 C384 1.321 . S
C384 C383 1.321 . S
C384 C385 1.403 . S
C384 H410 0.934 . S
C385 C380 1.413 . S
C385 C384 1.403 . S
C385 H411 0.930 . S
C386 O400 1.291 . S
C386 O401 1.247 1_655 S
C387 O402 1.259 . S
C387 O403 1.268 . S
C388 Ho377 2.811 . S
C388 C389 1.488 . S
C388 O404 1.215 . S
C388 O405 1.289 . S
C389 C388 1.488 . S
C389 C390 1.348 . S
C389 C394 1.413 . S
C390 C389 1.348 . S
C390 C391 1.442 . S
C390 H412 0.930 . S
C391 C390 1.442 . S
C391 C392 1.381 . S
C391 H413 0.931 . S
C392 C391 1.381 . S
C392 C393 1.321 . S
C393 C392 1.321 . S
C393 C394 1.403 . S
C393 H414 0.934 . S
C394 C389 1.413 . S
C394 C393 1.403 . S
C394 H415 0.930 . S
C395 O406 1.305 . S
C395 O407 1.240 1_455 S
O396 Ho376 2.322 . S
O396 C378 1.259 . S
O397 Ho377 2.346 1_655 S
O397 C378 1.268 . S
O398 Ho376 2.378 . S
O398 C379 1.215 . S
O399 Ho376 2.524 . S
O399 C379 1.289 . S
O400 Ho376 2.381 . S
O400 C386 1.291 . S
O401 Ho376 2.669 1_455 S
O401 Ho377 2.305 . S
O401 C386 1.247 1_455 S
O402 Ho377 2.322 . S
O402 C387 1.259 . S
O403 Ho376 2.346 1_455 S
O403 C387 1.268 . S
O404 Ho377 2.378 . S
O404 C388 1.215 . S
O405 Ho377 2.524 . S
O405 C388 1.289 . S
O406 Ho377 2.381 . S
O406 C395 1.305 . S
O407 Ho376 2.305 . S
O407 Ho377 2.669 1_655 S
O407 C395 1.240 1_655 S
H408 C381 0.930 . S
H409 C382 0.931 . S
H410 C384 0.934 . S
H411 C385 0.930 . S
H412 C390 0.930 . S
H413 C391 0.931 . S
H414 C393 0.934 . S
H415 C394 0.930 . S
C416 C417 1.349 . S
C416 C418 1.327 . S
C416 H441 0.950 . S
C417 C416 1.349 . S
C417 C433 1.349 1_545 S
C418 C416 1.327 . S
C418 C437 1.429 . S
C418 H442 0.950 . S
C419 C436 1.574 . S
C419 C438 1.368 1_565 S
C419 H443 0.949 . S
H420 C424 0.949 . S
C421 C422 1.349 1_565 S
C421 C423 1.327 . S
C421 H444 0.950 . S
C422 C421 1.349 1_545 S
C422 C434 1.349 . S
C423 C421 1.327 . S
C423 C439 1.429 1_565 S
C423 H445 0.950 . S
C424 H420 0.949 . S
C424 C432 1.574 . S
C424 C440 1.368 . S
H425 C433 0.950 . S
H426 C431 0.950 . S
H427 C432 0.949 . S
H428 C434 0.950 . S
H429 C435 0.950 . S
H430 C436 0.949 . S
C431 H426 0.950 . S
C431 C433 1.327 . S
C431 C437 1.429 1_565 S
C432 C424 1.574 . S
C432 H427 0.949 . S
C432 C438 1.368 . S
C433 C417 1.349 1_565 S
C433 H425 0.950 . S
C433 C431 1.327 . S
C434 C422 1.349 . S
C434 H428 0.950 . S
C434 C435 1.327 . S
C435 H429 0.950 . S
C435 C434 1.327 . S
C435 C439 1.429 . S
C436 C419 1.574 . S
C436 H430 0.949 . S
C436 C440 1.368 1_565 S
C437 C418 1.429 . S
C437 C431 1.429 1_545 S
C437 C438 1.523 . S
C438 C419 1.368 1_545 S
C438 C432 1.368 . S
C438 C437 1.523 . S
C439 C423 1.429 1_545 S
C439 C435 1.429 . S
C439 C440 1.523 . S
C440 C424 1.368 . S
C440 C436 1.368 1_545 S
C440 C439 1.523 . S
H441 C416 0.950 . S
H442 C418 0.950 . S
H443 C419 0.949 . S
H444 C421 0.950 . S
H445 C423 0.950 . S
C446 C447 1.349 . S
C446 C448 1.327 . S
C446 H471 0.950 . S
C447 C446 1.349 . S
C447 C463 1.349 . S
C448 C446 1.327 . S
C448 C467 1.429 . S
C448 H472 0.950 . S
C449 C466 1.574 . S
C449 C468 1.368 . S
C449 H473 0.949 . S
H450 C454 0.949 . S
C451 C452 1.349 . S
C451 C453 1.327 . S
C451 H474 0.950 . S
C452 C451 1.349 . S
C452 C464 1.349 . S
C453 C451 1.327 . S
C453 C469 1.429 . S
C453 H475 0.950 . S
C454 H450 0.949 . S
C454 C462 1.574 . S
C454 C470 1.368 . S
H455 C463 0.950 . S
H456 C461 0.950 . S
H457 C462 0.949 . S
H458 C464 0.950 . S
H459 C465 0.950 . S
H460 C466 0.949 . S
C461 H456 0.950 . S
C461 C463 1.327 . S
C461 C467 1.429 . S
C462 C454 1.574 . S
C462 H457 0.949 . S
C462 C468 1.368 . S
C463 C447 1.349 . S
C463 H455 0.950 . S
C463 C461 1.327 . S
C464 C452 1.349 . S
C464 H458 0.950 . S
C464 C465 1.327 . S
C465 H459 0.950 . S
C465 C464 1.327 . S
C465 C469 1.429 . S
C466 C449 1.574 . S
C466 H460 0.949 . S
C466 C470 1.368 . S
C467 C448 1.429 . S
C467 C461 1.429 . S
C467 C468 1.523 . S
C468 C449 1.368 . S
C468 C462 1.368 . S
C468 C467 1.523 . S
C469 C453 1.429 . S
C469 C465 1.429 . S
C469 C470 1.523 . S
C470 C454 1.368 . S
C470 C466 1.368 . S
C470 C469 1.523 . S
H471 C446 0.950 . S
H472 C448 0.950 . S
H473 C449 0.949 . S
H474 C451 0.950 . S
H475 C453 0.950 . S
C476 C477 1.349 . S
C476 C478 1.327 . S
C476 H501 0.950 . S
C477 C476 1.349 . S
C477 C493 1.349 . S
C478 C476 1.327 . S
C478 C497 1.429 . S
C478 H502 0.950 . S
C479 C496 1.574 . S
C479 C498 1.368 . S
C479 H503 0.949 . S
H480 C484 0.949 . S
C481 C482 1.349 . S
C481 C483 1.327 . S
C481 H504 0.950 . S
C482 C481 1.349 . S
C482 C494 1.349 . S
C483 C481 1.327 . S
C483 C499 1.429 . S
C483 H505 0.950 . S
C484 H480 0.949 . S
C484 C492 1.574 . S
C484 C500 1.368 . S
H485 C493 0.950 . S
H486 C491 0.950 . S
H487 C492 0.949 . S
H488 C494 0.950 . S
H489 C495 0.950 . S
H490 C496 0.949 . S
C491 H486 0.950 . S
C491 C493 1.327 . S
C491 C497 1.429 . S
C492 C484 1.574 . S
C492 H487 0.949 . S
C492 C498 1.368 . S
C493 C477 1.349 . S
C493 H485 0.950 . S
C493 C491 1.327 . S
C494 C482 1.349 . S
C494 H488 0.950 . S
C494 C495 1.327 . S
C495 H489 0.950 . S
C495 C494 1.327 . S
C495 C499 1.429 . S
C496 C479 1.574 . S
C496 H490 0.949 . S
C496 C500 1.368 . S
C497 C478 1.429 . S
C497 C491 1.429 . S
C497 C498 1.523 . S
C498 C479 1.368 . S
C498 C492 1.368 . S
C498 C497 1.523 . S
C499 C483 1.429 . S
C499 C495 1.429 . S
C499 C500 1.523 . S
C500 C484 1.368 . S
C500 C496 1.368 . S
C500 C499 1.523 . S
H501 C476 0.950 . S
H502 C478 0.950 . S
H503 C479 0.949 . S
H504 C481 0.950 . S
H505 C483 0.950 . S
C506 C507 1.349 1_655 S
C506 C508 1.327 . S
C506 H531 0.950 . S
C507 C506 1.349 1_455 S
C507 C523 1.349 . S
C508 C506 1.327 . S
C508 C527 1.429 1_655 S
C508 H532 0.950 . S
C509 C526 1.574 . S
C509 C528 1.368 . S
C509 H533 0.949 . S
H510 C514 0.949 . S
C511 C512 1.349 . S
C511 C513 1.327 . S
C511 H534 0.950 . S
C512 C511 1.349 . S
C512 C524 1.349 1_455 S
C513 C511 1.327 . S
C513 C529 1.429 . S
C513 H535 0.950 . S
C514 H510 0.949 . S
C514 C522 1.574 . S
C514 C530 1.368 1_655 S
H515 C523 0.950 . S
H516 C521 0.950 . S
H517 C522 0.949 . S
H518 C524 0.950 . S
H519 C525 0.950 . S
H520 C526 0.949 . S
C521 H516 0.950 . S
C521 C523 1.327 . S
C521 C527 1.429 . S
C522 C514 1.574 . S
C522 H517 0.949 . S
C522 C528 1.368 1_655 S
C523 C507 1.349 . S
C523 H515 0.950 . S
C523 C521 1.327 . S
C524 C512 1.349 1_655 S
C524 H518 0.950 . S
C524 C525 1.327 . S
C525 H519 0.950 . S
C525 C524 1.327 . S
C525 C529 1.429 1_655 S
C526 C509 1.574 . S
C526 H520 0.949 . S
C526 C530 1.368 . S
C527 C508 1.429 1_455 S
C527 C521 1.429 . S
C527 C528 1.523 . S
C528 C509 1.368 . S
C528 C522 1.368 1_455 S
C528 C527 1.523 . S
C529 C513 1.429 . S
C529 C525 1.429 1_455 S
C529 C530 1.523 . S
C530 C514 1.368 1_455 S
C530 C526 1.368 . S
C530 C529 1.523 . S
H531 C506 0.950 . S
H532 C508 0.950 . S
H533 C509 0.949 . S
H534 C511 0.950 . S
H535 C513 0.950 . S
C536 C537 1.349 1_545 S
C536 C538 1.327 . S
C536 H561 0.950 . S
C537 C536 1.349 1_565 S
C537 C553 1.349 . S
C538 C536 1.327 . S
C538 C557 1.429 1_545 S
C538 H562 0.950 . S
C539 C556 1.574 1_554 S
C539 C558 1.368 . S
C539 H563 0.949 . S
H540 C544 0.949 . S
C541 C542 1.368 . S
C541 C543 1.327 . S
C541 H564 0.950 . S
C542 C541 1.368 . S
C542 C554 1.330 1_565 S
C543 C541 1.327 . S
C543 C559 1.461 . S
C543 H565 0.950 . S
C544 H540 0.949 . S
C544 C552 1.574 1_556 S
C544 C560 1.326 1_545 S
H545 C553 0.950 . S
H546 C551 0.950 . S
H547 C552 0.949 . S
H548 C554 0.950 . S
H549 C555 0.950 . S
H550 C556 0.949 . S
C551 H546 0.950 . S
C551 C553 1.327 . S
C551 C557 1.429 . S
C552 C544 1.574 1_554 S
C552 H547 0.949 . S
C552 C558 1.368 1_545 S
C553 C537 1.349 . S
C553 H545 0.950 . S
C553 C551 1.327 . S
C554 C542 1.330 1_545 S
C554 H548 0.950 . S
C554 C555 1.327 . S
C555 H549 0.950 . S
C555 C554 1.327 . S
C555 C559 1.397 1_545 S
C556 C539 1.574 1_556 S
C556 H550 0.949 . S
C556 C560 1.412 . S
C557 C538 1.429 1_565 S
C557 C551 1.429 . S
C557 C558 1.523 . S
C558 C539 1.368 . S
C558 C552 1.368 1_565 S
C558 C557 1.523 . S
C559 C543 1.461 . S
C559 C555 1.397 1_565 S
C559 C560 1.523 . S
C560 C544 1.326 1_565 S
C560 C556 1.412 . S
C560 C559 1.523 . S
H561 C536 0.950 . S
H562 C538 0.950 . S
H563 C539 0.949 . S
H564 C541 0.950 . S
H565 C543 0.950 . S
C566 C567 1.349 . S
C566 C568 1.327 . S
C566 H591 0.950 . S
C567 C566 1.349 . S
C567 C583 1.349 . S
C568 C566 1.327 . S
C568 C587 1.429 . S
C568 H592 0.950 . S
C569 C586 1.569 1_554 S
C569 C588 1.368 . S
C569 H593 0.949 . S
H570 C574 0.949 . S
C571 C572 1.349 . S
C571 C573 1.327 . S
C571 H594 0.950 . S
C572 C571 1.349 . S
C572 C584 1.349 . S
C573 C571 1.327 . S
C573 C589 1.429 . S
C573 H595 0.950 . S
C574 H570 0.949 . S
C574 C582 1.574 1_556 S
C574 C590 1.368 . S
H575 C583 0.950 . S
H576 C581 0.950 . S
H577 C582 0.949 . S
H578 C584 0.950 . S
H579 C585 0.950 . S
H580 C586 0.949 . S
C581 H576 0.950 . S
C581 C583 1.327 . S
C581 C587 1.429 . S
C582 C574 1.574 1_554 S
C582 H577 0.949 . S
C582 C588 1.368 . S
C583 C567 1.349 . S
C583 H575 0.950 . S
C583 C581 1.327 . S
C584 C572 1.349 . S
C584 H578 0.950 . S
C584 C585 1.327 . S
C585 H579 0.950 . S
C585 C584 1.327 . S
C585 C589 1.429 . S
C586 C569 1.569 1_556 S
C586 H580 0.949 . S
C586 C590 1.373 . S
C587 C568 1.429 . S
C587 C581 1.429 . S
C587 C588 1.523 . S
C588 C569 1.368 . S
C588 C582 1.368 . S
C588 C587 1.523 . S
C589 C573 1.429 . S
C589 C585 1.429 . S
C589 C590 1.523 . S
C590 C574 1.368 . S
C590 C586 1.373 . S
C590 C589 1.523 . S
H591 C566 0.950 . S
H592 C568 0.950 . S
H593 C569 0.949 . S
H594 C571 0.950 . S
H595 C573 0.950 . S
C596 C597 1.349 . S
C596 C598 1.327 . S
C596 H621 0.950 . S
C597 C596 1.349 . S
C597 C613 1.349 . S
C598 C596 1.327 . S
C598 C617 1.429 . S
C598 H622 0.950 . S
C599 C616 1.574 1_554 S
C599 C618 1.368 . S
C599 H623 0.949 . S
H600 C604 0.949 . S
C601 C602 1.349 . S
C601 C603 1.327 . S
C601 H624 0.950 . S
C602 C601 1.349 . S
C602 C614 1.349 . S
C603 C601 1.327 . S
C603 C619 1.429 . S
C603 H625 0.950 . S
C604 H600 0.949 . S
C604 C612 1.574 1_556 S
C604 C620 1.368 . S
H605 C613 0.950 . S
H606 C611 0.950 . S
H607 C612 0.949 . S
H608 C614 0.950 . S
H609 C615 0.950 . S
H610 C616 0.949 . S
C611 H606 0.950 . S
C611 C613 1.327 . S
C611 C617 1.429 . S
C612 C604 1.574 1_554 S
C612 H607 0.949 . S
C612 C618 1.368 . S
C613 C597 1.349 . S
C613 H605 0.950 . S
C613 C611 1.327 . S
C614 C602 1.349 . S
C614 H608 0.950 . S
C614 C615 1.327 . S
C615 H609 0.950 . S
C615 C614 1.327 . S
C615 C619 1.429 . S
C616 C599 1.574 1_556 S
C616 H610 0.949 . S
C616 C620 1.368 . S
C617 C598 1.429 . S
C617 C611 1.429 . S
C617 C618 1.523 . S
C618 C599 1.368 . S
C618 C612 1.368 . S
C618 C617 1.523 . S
C619 C603 1.429 . S
C619 C615 1.429 . S
C619 C620 1.523 . S
C620 C604 1.368 . S
C620 C616 1.368 . S
C620 C619 1.523 . S
H621 C596 0.950 . S
H622 C598 0.950 . S
H623 C599 0.949 . S
H624 C601 0.950 . S
H625 C603 0.950 . S
C626 C627 1.349 1_455 S
C626 C628 1.327 . S
C626 H651 0.950 . S
C627 C626 1.349 1_655 S
C627 C643 1.349 . S
C628 C626 1.327 . S
C628 C647 1.429 1_455 S
C628 H652 0.950 . S
C629 C646 1.572 1_554 S
C629 C648 1.368 . S
C629 H653 0.949 . S
H630 C634 0.949 . S
C631 C632 1.349 . S
C631 C633 1.327 . S
C631 H654 0.950 . S
C632 C631 1.349 . S
C632 C644 1.349 1_655 S
C633 C631 1.327 . S
C633 C649 1.429 . S
C633 H655 0.950 . S
C634 H630 0.949 . S
C634 C642 1.574 1_556 S
C634 C650 1.368 1_455 S
H635 C643 0.950 . S
H636 C641 0.950 . S
H637 C642 0.949 . S
H638 C644 0.950 . S
H639 C645 0.950 . S
H640 C646 0.949 . S
C641 H636 0.950 . S
C641 C643 1.327 . S
C641 C647 1.429 . S
C642 C634 1.574 1_554 S
C642 H637 0.949 . S
C642 C648 1.368 1_455 S
C643 C627 1.349 . S
C643 H635 0.950 . S
C643 C641 1.327 . S
C644 C632 1.349 1_455 S
C644 H638 0.950 . S
C644 C645 1.327 . S
C645 H639 0.950 . S
C645 C644 1.327 . S
C645 C649 1.429 1_455 S
C646 C629 1.572 1_556 S
C646 H640 0.949 . S
C646 C650 1.370 . S
C647 C628 1.429 1_655 S
C647 C641 1.429 . S
C647 C648 1.523 . S
C648 C629 1.368 . S
C648 C642 1.368 1_655 S
C648 C647 1.523 . S
C649 C633 1.429 . S
C649 C645 1.429 1_655 S
C649 C650 1.523 . S
C650 C634 1.368 1_655 S
C650 C646 1.370 . S
C650 C649 1.523 . S
H651 C626 0.950 . S
H652 C628 0.950 . S
H653 C629 0.949 . S
H654 C631 0.950 . S
H655 C633 0.950 . S
C656 C657 1.349 . S
C656 C658 1.327 . S
C656 H681 0.950 . S
C657 C656 1.349 . S
C657 C673 1.349 1_455 S
C658 C656 1.327 . S
C658 C677 1.429 1_455 S
C658 H682 0.950 . S
C659 C676 1.574 . S
C659 C678 1.368 . S
C659 H683 0.949 . S
H660 C664 0.956 . S
C661 C662 1.349 . S
C661 C663 1.327 . S
C661 H684 0.950 . S
C662 C661 1.349 . S
C662 C674 1.349 . S
C663 C661 1.327 . S
C663 C679 1.429 . S
C663 H685 0.950 . S
C664 H660 0.956 . S
C664 C672 1.576 . S
C664 C680 1.358 1_455 S
H665 C673 0.950 . S
H666 C671 0.950 . S
H667 C672 0.949 . S
H668 C674 0.950 . S
H669 C675 0.950 1_455 S
H670 C676 0.949 . S
C671 H666 0.950 . S
C671 C673 1.327 . S
C671 C677 1.429 . S
C672 C664 1.576 . S
C672 H667 0.949 . S
C672 C678 1.368 1_455 S
C673 C657 1.349 1_655 S
C673 H665 0.950 . S
C673 C671 1.327 . S
C674 C662 1.349 . S
C674 H668 0.950 . S
C674 C675 1.327 . S
C675 H669 0.950 1_655 S
C675 C674 1.327 . S
C675 C679 1.429 . S
C676 C659 1.574 . S
C676 H670 0.949 . S
C676 C680 1.368 . S
C677 C658 1.429 1_655 S
C677 C671 1.429 . S
C677 C678 1.523 . S
C678 C659 1.368 . S
C678 C672 1.368 1_655 S
C678 C677 1.523 . S
C679 C663 1.429 . S
C679 C675 1.429 . S
C679 C680 1.523 . S
C680 C664 1.358 1_655 S
C680 C676 1.368 . S
C680 C679 1.523 . S
H681 C656 0.950 . S
H682 C658 0.950 . S
H683 C659 0.949 . S
H684 C661 0.950 . S
H685 C663 0.950 . S
C686 C687 1.349 1_565 S
C686 C688 1.327 . S
C686 H711 0.950 . S
C687 C686 1.349 1_545 S
C687 C703 1.349 . S
C688 C686 1.327 . S
C688 C707 1.429 . S
C688 H712 0.950 . S
C689 C706 1.587 . S
C689 C708 1.368 1_545 S
C689 H713 0.949 . S
H690 C694 0.949 . S
C691 C692 1.349 . S
C691 C693 1.327 . S
C691 H714 0.950 . S
C692 C691 1.349 . S
C692 C704 1.349 . S
C693 C691 1.327 . S
C693 C709 1.429 . S
C693 H715 0.950 1_565 S
C694 H690 0.949 . S
C694 C702 1.574 . S
C694 C710 1.368 . S
H695 C703 0.950 . S
H696 C701 0.950 . S
H697 C702 0.949 . S
H698 C704 0.950 . S
H699 C705 0.950 . S
H700 C706 0.982 . S
C701 H696 0.950 . S
C701 C703 1.327 . S
C701 C707 1.429 1_545 S
C702 C694 1.574 . S
C702 H697 0.949 . S
C702 C708 1.368 . S
C703 C687 1.349 . S
C703 H695 0.950 . S
C703 C701 1.327 . S
C704 C692 1.349 . S
C704 H698 0.950 . S
C704 C705 1.327 . S
C705 H699 0.950 . S
C705 C704 1.327 . S
C705 C709 1.429 . S
C706 C689 1.587 . S
C706 H700 0.982 . S
C706 C710 1.322 1_545 S
C707 C688 1.429 . S
C707 C701 1.429 1_565 S
C707 C708 1.523 . S
C708 C689 1.368 1_565 S
C708 C702 1.368 . S
C708 C707 1.523 . S
C709 C693 1.429 . S
C709 C705 1.429 . S
C709 C710 1.523 . S
C710 C694 1.368 . S
C710 C706 1.322 1_565 S
C710 C709 1.523 . S
H711 C686 0.950 . S
H712 C688 0.950 . S
H713 C689 0.949 . S
H714 C691 0.950 . S
H715 C693 0.950 1_545 S
C716 C717 1.349 . S
C716 C718 1.327 . S
C716 H741 0.950 . S
C717 C716 1.349 . S
C717 C733 1.349 . S
C718 C716 1.327 . S
C718 C737 1.429 . S
C718 H742 0.950 . S
C719 C736 1.574 . S
C719 C738 1.368 . S
C719 H743 0.949 . S
H720 C724 0.949 . S
C721 C722 1.349 . S
C721 C723 1.327 . S
C721 H744 0.950 . S
C722 C721 1.349 . S
C722 C734 1.349 . S
C723 C721 1.327 . S
C723 C739 1.429 . S
C723 H745 0.950 . S
C724 H720 0.949 . S
C724 C732 1.574 . S
C724 C740 1.368 . S
H725 C733 0.950 . S
H726 C731 0.950 . S
H727 C732 0.949 . S
H728 C734 0.950 . S
H729 C735 0.950 . S
H730 C736 0.949 . S
C731 H726 0.950 . S
C731 C733 1.327 . S
C731 C737 1.429 . S
C732 C724 1.574 . S
C732 H727 0.949 . S
C732 C738 1.368 . S
C733 C717 1.349 . S
C733 H725 0.950 . S
C733 C731 1.327 . S
C734 C722 1.349 . S
C734 H728 0.950 . S
C734 C735 1.327 . S
C735 H729 0.950 . S
C735 C734 1.327 . S
C735 C739 1.429 . S
C736 C719 1.574 . S
C736 H730 0.949 . S
C736 C740 1.368 . S
C737 C718 1.429 . S
C737 C731 1.429 . S
C737 C738 1.523 . S
C738 C719 1.368 . S
C738 C732 1.368 . S
C738 C737 1.523 . S
C739 C723 1.429 . S
C739 C735 1.429 . S
C739 C740 1.523 . S
C740 C724 1.368 . S
C740 C736 1.368 . S
C740 C739 1.523 . S
H741 C716 0.950 . S
H742 C718 0.950 . S
H743 C719 0.949 . S
H744 C721 0.950 . S
H745 C723 0.950 . S
C746 C747 1.349 . S
C746 C748 1.327 . S
C746 H771 0.950 . S
C747 C746 1.349 . S
C747 C763 1.349 . S
C748 C746 1.327 . S
C748 C767 1.429 . S
C748 H772 0.950 . S
C749 C766 1.574 . S
C749 C768 1.368 . S
C749 H773 0.949 . S
H750 C754 0.949 . S
C751 C752 1.349 . S
C751 C753 1.327 . S
C751 H774 0.950 . S
C752 C751 1.349 . S
C752 C764 1.349 . S
C753 C751 1.327 . S
C753 C769 1.429 . S
C753 H775 0.950 . S
C754 H750 0.949 . S
C754 C762 1.574 . S
C754 C770 1.368 . S
H755 C763 0.950 . S
H756 C761 0.950 . S
H757 C762 0.949 . S
H758 C764 0.950 . S
H759 C765 0.950 . S
H760 C766 0.949 . S
C761 H756 0.950 . S
C761 C763 1.327 . S
C761 C767 1.429 . S
C762 C754 1.574 . S
C762 H757 0.949 . S
C762 C768 1.368 . S
C763 C747 1.349 . S
C763 H755 0.950 . S
C763 C761 1.327 . S
C764 C752 1.349 . S
C764 H758 0.950 . S
C764 C765 1.327 . S
C765 H759 0.950 . S
C765 C764 1.327 . S
C765 C769 1.429 . S
C766 C749 1.574 . S
C766 H760 0.949 . S
C766 C770 1.368 . S
C767 C748 1.429 . S
C767 C761 1.429 . S
C767 C768 1.523 . S
C768 C749 1.368 . S
C768 C762 1.368 . S
C768 C767 1.523 . S
C769 C753 1.429 . S
C769 C765 1.429 . S
C769 C770 1.523 . S
C770 C754 1.368 . S
C770 C766 1.368 . S
C770 C769 1.523 . S
H771 C746 0.950 . S
H772 C748 0.950 . S
H773 C749 0.949 . S
H774 C751 0.950 . S
H775 C753 0.950 . S
C776 C777 1.349 1_455 S
C776 C778 1.327 . S
C776 H801 0.950 . S
C777 C776 1.349 1_655 S
C777 C793 1.349 . S
C778 C776 1.327 . S
C778 C797 1.429 . S
C778 H802 0.950 . S
C779 C796 1.574 1_655 S
C779 C798 1.368 1_655 S
C779 H803 0.949 . S
H780 C784 0.949 . S
C781 C782 1.349 . S
C781 C783 1.327 . S
C781 H804 0.950 . S
C782 C781 1.349 . S
C782 C794 1.349 . S
C783 C781 1.327 . S
C783 C799 1.429 . S
C783 H805 0.993 . S
C784 H780 0.949 . S
C784 C792 1.574 1_556 S
C784 C800 1.368 . S
H785 C793 0.950 . S
H786 C791 0.950 . S
H787 C792 0.950 . S
H788 C794 0.950 . S
H789 C795 0.950 . S
H790 C796 0.949 1_655 S
C791 H786 0.950 . S
C791 C793 1.327 . S
C791 C797 1.429 1_655 S
C792 C784 1.574 1_554 S
C792 H787 0.950 . S
C792 C798 1.368 . S
C793 C777 1.349 . S
C793 H785 0.950 . S
C793 C791 1.327 . S
C794 C782 1.349 . S
C794 H788 0.950 . S
C794 C795 1.327 . S
C795 H789 0.950 . S
C795 C794 1.327 . S
C795 C799 1.429 . S
C796 C779 1.574 1_455 S
C796 H790 0.949 1_455 S
C796 C800 1.368 1_554 S
C797 C778 1.429 . S
C797 C791 1.429 1_455 S
C797 C798 1.523 . S
C798 C779 1.368 1_455 S
C798 C792 1.368 . S
C798 C797 1.523 . S
C799 C783 1.429 . S
C799 C795 1.429 . S
C799 C800 1.523 . S
C800 C784 1.368 . S
C800 C796 1.368 1_556 S
C800 C799 1.523 . S
H801 C776 0.950 . S
H802 C778 0.950 . S
H803 C779 0.949 . S
H804 C781 0.950 . S
H805 C783 0.993 . S
C806 C807 1.349 1_545 S
C806 C808 1.327 . S
C806 H831 0.950 . S
C807 C806 1.349 1_565 S
C807 C823 1.349 . S
C808 C806 1.327 . S
C808 C827 1.429 . S
C808 H832 0.950 . S
C809 C826 1.567 1_565 S
C809 C828 1.368 1_565 S
C809 H833 0.949 . S
H810 C814 0.949 . S
C811 C812 1.349 . S
C811 C813 1.327 . S
C811 H834 0.950 . S
C812 C811 1.349 . S
C812 C824 1.349 . S
C813 C811 1.327 . S
C813 C829 1.429 . S
C813 H835 0.950 1_545 S
C814 H810 0.949 . S
C814 C822 1.574 1_556 S
C814 C830 1.368 . S
H815 C823 0.950 . S
H816 C821 0.950 . S
H817 C822 0.949 . S
H818 C824 0.950 . S
H819 C825 0.950 . S
H820 C826 0.930 1_565 S
C821 H816 0.950 . S
C821 C823 1.327 . S
C821 C827 1.429 1_565 S
C822 C814 1.574 1_554 S
C822 H817 0.949 . S
C822 C828 1.368 . S
C823 C807 1.349 . S
C823 H815 0.950 . S
C823 C821 1.327 . S
C824 C812 1.349 . S
C824 H818 0.950 . S
C824 C825 1.327 . S
C825 H819 0.950 . S
C825 C824 1.327 . S
C825 C829 1.429 . S
C826 C809 1.567 1_545 S
C826 H820 0.930 1_545 S
C826 C830 1.397 1_554 S
C827 C808 1.429 . S
C827 C821 1.429 1_545 S
C827 C828 1.523 . S
C828 C809 1.368 1_545 S
C828 C822 1.368 . S
C828 C827 1.523 . S
C829 C813 1.429 . S
C829 C825 1.429 . S
C829 C830 1.523 . S
C830 C814 1.368 . S
C830 C826 1.397 1_556 S
C830 C829 1.523 . S
H831 C806 0.950 . S
H832 C808 0.950 . S
H833 C809 0.949 . S
H834 C811 0.950 . S
H835 C813 0.950 1_565 S
C836 C837 1.349 . S
C836 C838 1.327 . S
C836 H861 0.950 . S
C837 C836 1.349 . S
C837 C853 1.349 . S
C838 C836 1.327 . S
C838 C857 1.429 . S
C838 H862 0.950 . S
C839 C856 1.574 . S
C839 C858 1.368 . S
C839 H863 0.949 . S
H840 C844 0.949 . S
C841 C842 1.349 . S
C841 C843 1.327 . S
C841 H864 0.950 . S
C842 C841 1.349 . S
C842 C854 1.349 . S
C843 C841 1.327 . S
C843 C859 1.429 . S
C843 H865 0.950 1_556 S
C844 H840 0.949 . S
C844 C852 1.574 . S
C844 C860 1.368 . S
H845 C853 0.950 . S
H846 C851 0.950 . S
H847 C852 0.949 . S
H848 C854 0.950 . S
H849 C855 0.950 . S
H850 C856 0.949 . S
C851 H846 0.950 . S
C851 C853 1.327 . S
C851 C857 1.429 . S
C852 C844 1.574 . S
C852 H847 0.949 . S
C852 C858 1.368 1_556 S
C853 C837 1.349 . S
C853 H845 0.950 . S
C853 C851 1.327 . S
C854 C842 1.349 . S
C854 H848 0.950 . S
C854 C855 1.327 . S
C855 H849 0.950 . S
C855 C854 1.327 . S
C855 C859 1.429 . S
C856 C839 1.574 . S
C856 H850 0.949 . S
C856 C860 1.368 1_554 S
C857 C838 1.429 . S
C857 C851 1.429 . S
C857 C858 1.523 . S
C858 C839 1.368 . S
C858 C852 1.368 1_554 S
C858 C857 1.523 . S
C859 C843 1.429 . S
C859 C855 1.429 . S
C859 C860 1.523 . S
C860 C844 1.368 . S
C860 C856 1.368 1_556 S
C860 C859 1.523 . S
H861 C836 0.950 . S
H862 C838 0.950 . S
H863 C839 0.949 . S
H864 C841 0.950 . S
H865 C843 0.950 1_554 S
C866 C867 1.349 . S
C866 C868 1.327 . S
C866 H891 0.950 . S
C867 C866 1.349 . S
C867 C883 1.349 . S
C868 C866 1.327 . S
C868 C887 1.429 . S
C868 H892 0.950 . S
C869 C886 1.578 . S
C869 C888 1.368 . S
C869 H893 0.949 . S
H870 C874 0.949 . S
C871 C872 1.349 . S
C871 C873 1.327 . S
C871 H894 0.950 . S
C872 C871 1.349 . S
C872 C884 1.349 . S
C873 C871 1.327 . S
C873 C889 1.429 . S
C873 H895 0.950 . S
C874 H870 0.949 . S
C874 C882 1.575 1_556 S
C874 C890 1.368 . S
H875 C883 0.950 . S
H876 C881 0.950 . S
H877 C882 0.949 . S
H878 C884 0.950 . S
H879 C885 0.950 . S
H880 C886 0.947 1_556 S
C881 H876 0.950 . S
C881 C883 1.327 . S
C881 C887 1.429 . S
C882 C874 1.575 1_554 S
C882 H877 0.949 . S
C882 C888 1.368 . S
C883 C867 1.349 . S
C883 H875 0.950 . S
C883 C881 1.327 . S
C884 C872 1.349 . S
C884 H878 0.950 . S
C884 C885 1.327 . S
C885 H879 0.950 . S
C885 C884 1.327 . S
C885 C889 1.429 . S
C886 C869 1.578 . S
C886 H880 0.947 1_554 S
C886 C890 1.367 1_554 S
C887 C868 1.429 . S
C887 C881 1.429 . S
C887 C888 1.523 . S
C888 C869 1.368 . S
C888 C882 1.368 . S
C888 C887 1.523 . S
C889 C873 1.429 . S
C889 C885 1.429 . S
C889 C890 1.523 . S
C890 C874 1.368 . S
C890 C886 1.367 1_556 S
C890 C889 1.523 . S
H891 C866 0.950 . S
H892 C868 0.950 . S
H893 C869 0.949 . S
H894 C871 0.950 . S
H895 C873 0.950 . S
C896 C897 1.349 1_655 S
C896 C898 1.327 . S
C896 H921 0.950 . S
C897 C896 1.349 1_455 S
C897 C913 1.349 . S
C898 C896 1.327 . S
C898 C917 1.429 1_655 S
C898 H922 0.950 . S
C899 C916 1.574 . S
C899 C918 1.368 . S
C899 H923 0.949 . S
H900 C904 0.949 . S
C901 C902 1.349 . S
C901 C903 1.327 . S
C901 H924 0.950 . S
C902 C901 1.349 . S
C902 C914 1.350 . S
C903 C901 1.327 . S
C903 C919 1.429 . S
C903 H925 0.950 . S
C904 H900 0.949 . S
C904 C912 1.574 . S
C904 C920 1.368 1_655 S
H905 C913 0.950 . S
H906 C911 0.950 . S
H907 C912 0.949 . S
H908 C914 0.949 1_655 S
H909 C915 0.974 . S
H910 C916 0.949 . S
C911 H906 0.950 . S
C911 C913 1.327 . S
C911 C917 1.429 . S
C912 C904 1.574 . S
C912 H907 0.949 . S
C912 C918 1.368 1_655 S
C913 C897 1.349 . S
C913 H905 0.950 . S
C913 C911 1.327 . S
C914 C902 1.350 . S
C914 H908 0.949 1_455 S
C914 C915 1.326 1_455 S
C915 H909 0.974 . S
C915 C914 1.326 1_655 S
C915 C919 1.408 1_655 S
C916 C899 1.574 . S
C916 H910 0.949 . S
C916 C920 1.368 . S
C917 C898 1.429 1_455 S
C917 C911 1.429 . S
C917 C918 1.523 . S
C918 C899 1.368 . S
C918 C912 1.368 1_455 S
C918 C917 1.523 . S
C919 C903 1.429 . S
C919 C915 1.408 1_455 S
C919 C920 1.523 . S
C920 C904 1.368 1_455 S
C920 C916 1.368 . S
C920 C919 1.523 . S
H921 C896 0.950 . S
H922 C898 0.950 . S
H923 C899 0.949 . S
H924 C901 0.950 . S
H925 C903 0.950 . S
C926 C927 1.349 1_565 S
C926 C928 1.327 . S
C926 H951 0.950 . S
C927 C926 1.349 1_545 S
C927 C943 1.349 . S
C928 C926 1.327 . S
C928 C947 1.429 1_565 S
C928 H952 0.950 . S
C929 C946 1.574 . S
C929 C948 1.368 . S
C929 H953 0.949 . S
H930 C934 0.949 . S
C931 C932 1.349 . S
C931 C933 1.327 . S
C931 H954 0.950 . S
C932 C931 1.349 . S
C932 C944 1.349 1_545 S
C933 C931 1.327 . S
C933 C949 1.429 . S
C933 H955 0.950 . S
C934 H930 0.949 . S
C934 C942 1.574 . S
C934 C950 1.368 1_565 S
H935 C943 0.950 . S
H936 C941 0.950 . S
H937 C942 0.949 . S
H938 C944 0.950 . S
H939 C945 0.950 . S
H940 C946 0.949 . S
C941 H936 0.950 . S
C941 C943 1.327 . S
C941 C947 1.429 . S
C942 C934 1.574 . S
C942 H937 0.949 . S
C942 C948 1.368 1_565 S
C943 C927 1.349 . S
C943 H935 0.950 . S
C943 C941 1.327 . S
C944 C932 1.349 1_565 S
C944 H938 0.950 . S
C944 C945 1.327 . S
C945 H939 0.950 . S
C945 C944 1.327 . S
C945 C949 1.429 1_565 S
C946 C929 1.574 . S
C946 H940 0.949 . S
C946 C950 1.368 . S
C947 C928 1.429 1_545 S
C947 C941 1.429 . S
C947 C948 1.523 . S
C948 C929 1.368 . S
C948 C942 1.368 1_545 S
C948 C947 1.523 . S
C949 C933 1.429 . S
C949 C945 1.429 1_545 S
C949 C950 1.523 . S
C950 C934 1.368 1_545 S
C950 C946 1.368 . S
C950 C949 1.523 . S
H951 C926 0.950 . S
H952 C928 0.950 . S
H953 C929 0.949 . S
H954 C931 0.950 . S
H955 C933 0.950 . S
C956 C957 1.349 . S
C956 C958 1.327 . S
C956 H981 0.950 . S
C957 C956 1.349 . S
C957 C973 1.349 . S
C958 C956 1.327 . S
C958 C977 1.429 . S
C958 H982 0.950 . S
C959 C976 1.574 . S
C959 C978 1.368 . S
C959 H983 0.949 . S
H960 C964 0.949 . S
C961 C962 1.349 . S
C961 C963 1.327 . S
C961 H984 0.950 . S
C962 C961 1.349 . S
C962 C974 1.349 . S
C963 C961 1.327 . S
C963 C979 1.429 . S
C963 H985 0.950 . S
C964 H960 0.949 . S
C964 C972 1.574 . S
C964 C980 1.368 . S
H965 C973 0.950 . S
H966 C971 0.950 . S
H967 C972 0.949 . S
H968 C974 0.950 . S
H969 C975 0.950 . S
H970 C976 0.949 . S
C971 H966 0.950 . S
C971 C973 1.327 . S
C971 C977 1.429 . S
C972 C964 1.574 . S
C972 H967 0.949 . S
C972 C978 1.368 . S
C973 C957 1.349 . S
C973 H965 0.950 . S
C973 C971 1.327 . S
C974 C962 1.349 . S
C974 H968 0.950 . S
C974 C975 1.327 . S
C975 H969 0.950 . S
C975 C974 1.327 . S
C975 C979 1.429 . S
C976 C959 1.574 . S
C976 H970 0.949 . S
C976 C980 1.368 . S
C977 C958 1.429 . S
C977 C971 1.429 . S
C977 C978 1.523 . S
C978 C959 1.368 . S
C978 C972 1.368 . S
C978 C977 1.523 . S
C979 C963 1.429 . S
C979 C975 1.429 . S
C979 C980 1.523 . S
C980 C964 1.368 . S
C980 C976 1.368 . S
C980 C979 1.523 . S
H981 C956 0.950 . S
H982 C958 0.950 . S
H983 C959 0.949 . S
H984 C961 0.950 . S
H985 C963 0.950 . S
C986 C987 1.349 . S
C986 C988 1.327 . S
C986 H1011 0.950 . S
C987 C986 1.349 . S
C987 C1003 1.349 . S
C988 C986 1.327 . S
C988 C1007 1.429 . S
C988 H1012 0.950 . S
C989 C1006 1.574 . S
C989 C1008 1.368 . S
C989 H1013 0.949 . S
H990 C994 0.949 . S
C991 C992 1.349 . S
C991 C993 1.327 . S
C991 H1014 0.950 . S
C992 C991 1.349 . S
C992 C1004 1.349 . S
C993 C991 1.327 . S
C993 C1009 1.429 . S
C993 H1015 0.950 . S
C994 H990 0.949 . S
C994 C1002 1.574 . S
C994 C1010 1.368 . S
H995 C1003 0.950 . S
H996 C1001 0.950 . S
H997 C1002 0.949 . S
H998 C1004 0.950 . S
H999 C1005 0.950 . S
H1000 C1006 0.949 . S
C1001 H996 0.950 . S
C1001 C1003 1.327 . S
C1001 C1007 1.429 . S
C1002 C994 1.574 . S
C1002 H997 0.949 . S
C1002 C1008 1.368 . S
C1003 C987 1.349 . S
C1003 H995 0.950 . S
C1003 C1001 1.327 . S
C1004 C992 1.349 . S
C1004 H998 0.950 . S
C1004 C1005 1.327 . S
C1005 H999 0.950 . S
C1005 C1004 1.327 . S
C1005 C1009 1.429 . S
C1006 C989 1.574 . S
C1006 H1000 0.949 . S
C1006 C1010 1.368 . S
C1007 C988 1.429 . S
C1007 C1001 1.429 . S
C1007 C1008 1.523 . S
C1008 C989 1.368 . S
C1008 C1002 1.368 . S
C1008 C1007 1.523 . S
C1009 C993 1.429 . S
C1009 C1005 1.429 . S
C1009 C1010 1.523 . S
C1010 C994 1.368 . S
C1010 C1006 1.368 . S
C1010 C1009 1.523 . S
H1011 C986 0.950 . S
H1012 C988 0.950 . S
H1013 C989 0.949 . S
H1014 C991 0.950 . S
H1015 C993 0.950 . S
C1016 C1017 1.349 1_455 S
C1016 C1018 1.327 . S
C1016 H1041 0.950 . S
C1017 C1016 1.349 1_655 S
C1017 C1033 1.349 . S
C1018 C1016 1.327 . S
C1018 C1037 1.429 1_455 S
C1018 H1042 0.950 . S
C1019 C1036 1.574 . S
C1019 C1038 1.368 . S
C1019 H1043 0.949 . S
H1020 C1024 0.949 . S
C1021 C1022 1.349 . S
C1021 C1023 1.327 . S
C1021 H1044 0.950 . S
C1022 C1021 1.349 . S
C1022 C1034 1.349 1_655 S
C1023 C1021 1.327 . S
C1023 C1039 1.429 . S
C1023 H1045 0.950 . S
C1024 H1020 0.949 . S
C1024 C1032 1.574 . S
C1024 C1040 1.368 1_455 S
H1025 C1033 0.950 . S
H1026 C1031 0.950 . S
H1027 C1032 0.949 . S
H1028 C1034 0.950 . S
H1029 C1035 0.950 . S
H1030 C1036 0.949 . S
C1031 H1026 0.950 . S
C1031 C1033 1.327 . S
C1031 C1037 1.429 . S
C1032 C1024 1.574 . S
C1032 H1027 0.949 . S
C1032 C1038 1.368 1_455 S
C1033 C1017 1.349 . S
C1033 H1025 0.950 . S
C1033 C1031 1.327 . S
C1034 C1022 1.349 1_455 S
C1034 H1028 0.950 . S
C1034 C1035 1.327 . S
C1035 H1029 0.950 . S
C1035 C1034 1.327 . S
C1035 C1039 1.429 1_455 S
C1036 C1019 1.574 . S
C1036 H1030 0.949 . S
C1036 C1040 1.368 . S
C1037 C1018 1.429 1_655 S
C1037 C1031 1.429 . S
C1037 C1038 1.523 . S
C1038 C1019 1.368 . S
C1038 C1032 1.368 1_655 S
C1038 C1037 1.523 . S
C1039 C1023 1.429 . S
C1039 C1035 1.429 1_655 S
C1039 C1040 1.523 . S
C1040 C1024 1.368 1_655 S
C1040 C1036 1.368 . S
C1040 C1039 1.523 . S
H1041 C1016 0.950 . S
H1042 C1018 0.950 . S
H1043 C1019 0.949 . S
H1044 C1021 0.950 . S
H1045 C1023 0.950 . S
C1046 C1047 1.349 . S
C1046 C1048 1.327 . S
C1046 H1071 0.950 . S
C1047 C1046 1.349 . S
C1047 C1063 1.349 1_565 S
C1048 C1046 1.327 . S
C1048 C1067 1.429 . S
C1048 H1072 0.950 . S
C1049 C1066 1.574 . S
C1049 C1068 1.368 1_545 S
C1049 H1073 0.949 . S
H1050 C1054 0.949 . S
C1051 C1052 1.349 1_545 S
C1051 C1053 1.327 . S
C1051 H1074 0.950 . S
C1052 C1051 1.349 1_565 S
C1052 C1064 1.349 . S
C1053 C1051 1.327 . S
C1053 C1069 1.429 1_545 S
C1053 H1075 0.950 . S
C1054 H1050 0.949 . S
C1054 C1062 1.574 . S
C1054 C1070 1.368 . S
H1055 C1063 0.950 . S
H1056 C1061 0.950 . S
H1057 C1062 0.949 . S
H1058 C1064 0.950 . S
H1059 C1065 0.950 . S
H1060 C1066 0.949 . S
C1061 H1056 0.950 . S
C1061 C1063 1.327 . S
C1061 C1067 1.429 1_545 S
C1062 C1054 1.574 . S
C1062 H1057 0.949 . S
C1062 C1068 1.368 . S
C1063 C1047 1.349 1_545 S
C1063 H1055 0.950 . S
C1063 C1061 1.327 . S
C1064 C1052 1.349 . S
C1064 H1058 0.950 . S
C1064 C1065 1.327 . S
C1065 H1059 0.950 . S
C1065 C1064 1.327 . S
C1065 C1069 1.429 . S
C1066 C1049 1.574 . S
C1066 H1060 0.949 . S
C1066 C1070 1.368 1_545 S
C1067 C1048 1.429 . S
C1067 C1061 1.429 1_565 S
C1067 C1068 1.523 . S
C1068 C1049 1.368 1_565 S
C1068 C1062 1.368 . S
C1068 C1067 1.523 . S
C1069 C1053 1.429 1_565 S
C1069 C1065 1.429 . S
C1069 C1070 1.523 . S
C1070 C1054 1.368 . S
C1070 C1066 1.368 1_565 S
C1070 C1069 1.523 . S
H1071 C1046 0.950 . S
H1072 C1048 0.950 . S
H1073 C1049 0.949 . S
H1074 C1051 0.950 . S
H1075 C1053 0.950 . S
C1076 C1077 1.349 . S
C1076 C1078 1.327 . S
C1076 H1101 0.950 . S
C1077 C1076 1.349 . S
C1077 C1093 1.349 . S
C1078 C1076 1.327 . S
C1078 C1097 1.429 . S
C1078 H1102 0.950 . S
C1079 C1096 1.574 . S
C1079 C1098 1.368 . S
C1079 H1103 0.949 . S
H1080 C1084 0.949 . S
C1081 C1082 1.349 . S
C1081 C1083 1.327 . S
C1081 H1104 0.950 . S
C1082 C1081 1.349 . S
C1082 C1094 1.349 . S
C1083 C1081 1.327 . S
C1083 C1099 1.429 . S
C1083 H1105 0.950 . S
C1084 H1080 0.949 . S
C1084 C1092 1.574 . S
C1084 C1100 1.368 . S
H1085 C1093 0.950 . S
H1086 C1091 0.950 . S
H1087 C1092 0.949 . S
H1088 C1094 0.950 . S
H1089 C1095 0.950 . S
H1090 C1096 0.949 . S
C1091 H1086 0.950 . S
C1091 C1093 1.327 . S
C1091 C1097 1.429 . S
C1092 C1084 1.574 . S
C1092 H1087 0.949 . S
C1092 C1098 1.368 . S
C1093 C1077 1.349 . S
C1093 H1085 0.950 . S
C1093 C1091 1.327 . S
C1094 C1082 1.349 . S
C1094 H1088 0.950 . S
C1094 C1095 1.327 . S
C1095 H1089 0.950 . S
C1095 C1094 1.327 . S
C1095 C1099 1.429 . S
C1096 C1079 1.574 . S
C1096 H1090 0.949 . S
C1096 C1100 1.368 . S
C1097 C1078 1.429 . S
C1097 C1091 1.429 . S
C1097 C1098 1.523 . S
C1098 C1079 1.368 . S
C1098 C1092 1.368 . S
C1098 C1097 1.523 . S
C1099 C1083 1.429 . S
C1099 C1095 1.429 . S
C1099 C1100 1.523 . S
C1100 C1084 1.368 . S
C1100 C1096 1.368 . S
C1100 C1099 1.523 . S
H1101 C1076 0.950 . S
H1102 C1078 0.950 . S
H1103 C1079 0.949 . S
H1104 C1081 0.950 . S
H1105 C1083 0.950 . S
C1106 C1107 1.349 . S
C1106 C1108 1.327 . S
C1106 H1131 0.950 . S
C1107 C1106 1.349 . S
C1107 C1123 1.349 . S
C1108 C1106 1.327 . S
C1108 C1127 1.429 . S
C1108 H1132 0.950 . S
C1109 C1126 1.574 . S
C1109 C1128 1.368 . S
C1109 H1133 0.949 . S
H1110 C1114 0.949 . S
C1111 C1112 1.349 . S
C1111 C1113 1.327 . S
C1111 H1134 0.950 . S
C1112 C1111 1.349 . S
C1112 C1124 1.349 . S
C1113 C1111 1.327 . S
C1113 C1129 1.429 . S
C1113 H1135 0.950 . S
C1114 H1110 0.949 . S
C1114 C1122 1.574 . S
C1114 C1130 1.368 . S
H1115 C1123 0.950 . S
H1116 C1121 0.950 . S
H1117 C1122 0.949 . S
H1118 C1124 0.950 . S
H1119 C1125 0.950 . S
H1120 C1126 0.949 . S
C1121 H1116 0.950 . S
C1121 C1123 1.327 . S
C1121 C1127 1.429 . S
C1122 C1114 1.574 . S
C1122 H1117 0.949 . S
C1122 C1128 1.368 . S
C1123 C1107 1.349 . S
C1123 H1115 0.950 . S
C1123 C1121 1.327 . S
C1124 C1112 1.349 . S
C1124 H1118 0.950 . S
C1124 C1125 1.327 . S
C1125 H1119 0.950 . S
C1125 C1124 1.327 . S
C1125 C1129 1.429 . S
C1126 C1109 1.574 . S
C1126 H1120 0.949 . S
C1126 C1130 1.368 . S
C1127 C1108 1.429 . S
C1127 C1121 1.429 . S
C1127 C1128 1.523 . S
C1128 C1109 1.368 . S
C1128 C1122 1.368 . S
C1128 C1127 1.523 . S
C1129 C1113 1.429 . S
C1129 C1125 1.429 . S
C1129 C1130 1.523 . S
C1130 C1114 1.368 . S
C1130 C1126 1.368 . S
C1130 C1129 1.523 . S
H1131 C1106 0.950 . S
H1132 C1108 0.950 . S
H1133 C1109 0.949 . S
H1134 C1111 0.950 . S
H1135 C1113 0.950 . S
C417 C215 1.795 . S
C422 C266 1.903 . S
C452 C306 1.901 . S
C447 C247 1.796 . S
C482 C346 1.901 . S
C477 C151 1.796 . S
C512 C386 1.899 1_455 S
C507 C183 1.796 . S
C542 C275 1.900 1_565 S
C537 C87 1.794 1_565 S
C567 C119 1.793 . S
C572 C315 1.901 . S
C597 C23 1.794 . S
C602 C355 1.902 . S
C627 C55 1.793 1_655 S
C632 C395 1.897 1_655 S
C662 C272 0.288 . S
C657 C189 0.242 . S
C692 C312 0.288 . S
C687 C221 0.242 . S
C722 C352 0.288 . S
C717 C253 0.242 . S
C747 C157 0.242 . S
C752 C392 0.288 . S
C777 C61 0.448 1_655 S
C782 C263 0.288 . S
C812 C303 0.288 . S
C807 C93 0.448 1_565 S
C842 C343 0.288 . S
C837 C125 0.448 . S
C867 C29 0.448 . S
C872 C383 0.288 . S
C897 C177 2.239 . S
C902 C267 2.481 . S
C927 C209 2.239 . S
C932 C307 2.481 . S
C962 C347 2.481 . S
C957 C241 2.239 . S
C992 C387 2.482 . S
C987 C145 2.239 . S
C1017 C49 2.253 1_655 S
C1022 C258 2.481 . S
C1052 C298 2.481 . S
C1047 C81 2.253 1_565 S
C1082 C338 2.481 . S
C1077 C113 2.253 . S
C1107 C17 2.253 . S
C1112 C378 2.482 . S
