# Generated by pormake.
# Topology zzz, (3,6)-cn, num edge types: 1
# Building blocks:
#     Node 0, Type 0, BuildingBlock: QEWDON_clean_linker_0, # of connection points: 3
#     Node 1, Type 0, BuildingBlock: QEWDON_clean_linker_0, # of connection points: 3
#     Node 2, Type 0, BuildingBlock: QEWDON_clean_linker_0, # of connection points: 3
#     Node 3, Type 0, BuildingBlock: QEWDON_clean_linker_0, # of connection points: 3
#     Node 4, Type 0, BuildingBlock: QEWDON_clean_linker_0, # of connection points: 3
#     Node 5, Type 0, BuildingBlock: QEWDON_clean_linker_0, # of connection points: 3
#     Node 6, Type 0, BuildingBlock: QEWDON_clean_linker_0, # of connection points: 3
#     Node 7, Type 0, BuildingBlock: QEWDON_clean_linker_0, # of connection points: 3
#     Node 8, Type 1, BuildingBlock: KUMJIN_clean_sbu_1, # of connection points: 6
#     Node 9, Type 1, BuildingBlock: KUMJIN_clean_sbu_1, # of connection points: 6
#     Node 10, Type 1, BuildingBlock: KUMJIN_clean_sbu_1, # of connection points: 6
#     Node 11, Type 1, BuildingBlock: KUMJIN_clean_sbu_1, # of connection points: 6
#     Edge 12, Type (0, 1), BuildingBlock: EZIPEK_clean_linker_0, # of connection points: 2
#     Edge 13, Type (0, 1), BuildingBlock: EZIPEK_clean_linker_0, # of connection points: 2
#     Edge 14, Type (0, 1), BuildingBlock: EZIPEK_clean_linker_0, # of connection points: 2
#     Edge 15, Type (0, 1), BuildingBlock: EZIPEK_clean_linker_0, # of connection points: 2
#     Edge 16, Type (0, 1), BuildingBlock: EZIPEK_clean_linker_0, # of connection points: 2
#     Edge 17, Type (0, 1), BuildingBlock: EZIPEK_clean_linker_0, # of connection points: 2
#     Edge 18, Type (0, 1), BuildingBlock: EZIPEK_clean_linker_0, # of connection points: 2
#     Edge 19, Type (0, 1), BuildingBlock: EZIPEK_clean_linker_0, # of connection points: 2
#     Edge 20, Type (0, 1), BuildingBlock: EZIPEK_clean_linker_0, # of connection points: 2
#     Edge 21, Type (0, 1), BuildingBlock: EZIPEK_clean_linker_0, # of connection points: 2
#     Edge 22, Type (0, 1), BuildingBlock: EZIPEK_clean_linker_0, # of connection points: 2
#     Edge 23, Type (0, 1), BuildingBlock: EZIPEK_clean_linker_0, # of connection points: 2
#     Edge 24, Type (0, 1), BuildingBlock: EZIPEK_clean_linker_0, # of connection points: 2
#     Edge 25, Type (0, 1), BuildingBlock: EZIPEK_clean_linker_0, # of connection points: 2
#     Edge 26, Type (0, 1), BuildingBlock: EZIPEK_clean_linker_0, # of connection points: 2
#     Edge 27, Type (0, 1), BuildingBlock: EZIPEK_clean_linker_0, # of connection points: 2
#     Edge 28, Type (0, 1), BuildingBlock: EZIPEK_clean_linker_0, # of connection points: 2
#     Edge 29, Type (0, 1), BuildingBlock: EZIPEK_clean_linker_0, # of connection points: 2
#     Edge 30, Type (0, 1), BuildingBlock: EZIPEK_clean_linker_0, # of connection points: 2
#     Edge 31, Type (0, 1), BuildingBlock: EZIPEK_clean_linker_0, # of connection points: 2
#     Edge 32, Type (0, 1), BuildingBlock: EZIPEK_clean_linker_0, # of connection points: 2
#     Edge 33, Type (0, 1), BuildingBlock: EZIPEK_clean_linker_0, # of connection points: 2
#     Edge 34, Type (0, 1), BuildingBlock: EZIPEK_clean_linker_0, # of connection points: 2
#     Edge 35, Type (0, 1), BuildingBlock: EZIPEK_clean_linker_0, # of connection points: 2
# Relax obj value: 0.161
# Max RMSD: 0.110
# Mean RMSD: 0.043
data_MOF--net-zzz--node1-KUMJIN_clean_sbu_1--node2-QEWDON_clean_linker_0--edge1-EZIPEK_clean_linker_0
_symmetry_space_group_name_H-M    P1
_symmetry_Int_Tables_number       1
_symmetry_cell_setting            triclinic
loop_
_symmetry_equiv_pos_as_xyz
'x, y, z'
_cell_length_a     40.336102
_cell_length_b     40.373143
_cell_length_c     11.69837
_cell_angle_alpha  89.985112
_cell_angle_beta   90.11543
_cell_angle_gamma 90.063941
loop_
_atom_site_label
_atom_site_type_symbol
_atom_site_fract_x
_atom_site_fract_y
_atom_site_fract_z
_atom_type_partial_charge
H0 H 0.77224 0.56059 0.16163 0.0
C1 C 0.79012 0.55302 0.22471 0.0
C2 C 0.82346 0.55866 0.20153 0.0
C3 C 0.77942 0.53733 0.32451 0.0
H4 H 0.87283 0.55988 0.27646 0.0
C5 C 0.84702 0.55396 0.29056 0.0
C6 C 0.83891 0.53935 0.39613 0.0
C7 C 0.80436 0.53046 0.41192 0.0
C8 C 0.74194 0.52987 0.33153 0.0
H9 H 0.79724 0.51802 0.49 0.0
C10 C 0.7206 0.52659 0.23146 0.0
C11 C 0.68517 0.52419 0.24004 0.0
C12 C 0.72639 0.52919 0.43859 0.0
H13 H 0.74072 0.53195 0.51631 0.0
C14 C 0.6919 0.52654 0.44748 0.0
H15 H 0.73114 0.52583 0.14662 0.0
C16 C 0.67169 0.52449 0.35026 0.0
H17 H 0.64512 0.52318 0.36081 0.0
H18 H 0.68063 0.52672 0.53126 0.0
H19 H 0.98237 0.76286 0.18639 0.0
C20 C 0.99035 0.7811 0.2475 0.0
C21 C 0.98242 0.81408 0.22589 0.0
C22 C 1.00919 0.7714 0.34224 0.0
H23 H 0.97999 0.86321 0.30179 0.0
C24 C 0.98763 0.83779 0.31384 0.0
C25 C 1.00499 0.83046 0.41503 0.0
C26 C 1.01652 0.79669 0.42769 0.0
C27 C 0.01988 0.73469 0.34611 0.0
H28 H 0.03132 0.79053 0.50183 0.0
C29 C 0.02127 0.71348 0.24549 0.0
C30 C 0.027 0.67842 0.25285 0.0
C31 C 0.0266 0.71968 0.45181 0.0
H32 H 0.02565 0.73385 0.53018 0.0
C33 C 0.03375 0.68584 0.45915 0.0
H34 H 0.01796 0.72375 0.16095 0.0
C35 C 0.03372 0.66562 0.36207 0.0
H36 H 0.03901 0.63951 0.37253 0.0
H37 H 0.03887 0.67495 0.54189 0.0
H38 H 0.77027 0.99068 0.18719 0.0
C39 C 0.75595 0.99624 0.2627 0.0
C40 C 0.72211 0.98838 0.26142 0.0
C41 C 0.77076 1.01163 0.35831 0.0
H42 H 0.67653 0.98759 0.35653 0.0
C43 C 0.70275 0.99359 0.35918 0.0
C44 C 0.71451 1.01109 0.45322 0.0
C45 C 0.74901 0.02019 0.45306 0.0
C46 C 0.8085 1.01802 0.35732 0.0
H47 H 0.75835 0.03446 0.52439 0.0
C48 C 0.82882 0.0194 0.25486 0.0
C49 C 0.86427 0.02341 0.26034 0.0
C50 C 0.82516 0.02075 0.46265 0.0
H51 H 0.81189 1.0189 0.54261 0.0
C52 C 0.85947 0.02482 0.46816 0.0
H53 H 0.81749 1.01794 0.17124 0.0
C54 C 0.87864 0.02601 0.36923 0.0
H55 H 0.90516 0.02922 0.37769 0.0
H56 H 0.87146 0.02675 0.55075 0.0
H57 H 0.57147 0.78417 0.12401 0.0
C58 C 0.56481 0.7655 0.18553 0.0
C59 C 0.57017 0.7324 0.15903 0.0
C60 C 0.55281 0.77583 0.29079 0.0
H61 H 0.5664 0.68179 0.22293 0.0
C62 C 0.5633 0.70777 0.2433 0.0
C63 C 0.55182 0.71585 0.35393 0.0
C64 C 0.54701 0.75076 0.37761 0.0
C65 C 0.55304 0.81344 0.30629 0.0
H66 H 0.5389 0.75826 0.46183 0.0
C67 C 0.54245 0.83627 0.21723 0.0
C68 C 0.55265 0.87046 0.21629 0.0
C69 C 0.57298 0.82617 0.39379 0.0
H70 H 0.58287 0.80988 0.45909 0.0
C71 C 0.58375 0.85902 0.39113 0.0
H72 H 0.52774 0.82708 0.14645 0.0
C73 C 0.57355 0.88087 0.30536 0.0
H74 H 0.58249 0.90617 0.3079 0.0
H75 H 0.6016 0.86722 0.45374 0.0
H76 H 0.28842 0.51357 0.27153 0.0
C77 C 0.27246 0.5104 0.19751 0.0
C78 C 0.23877 0.51661 0.21152 0.0
C79 C 0.2864 0.50943 0.08828 0.0
H80 H 0.19055 0.51872 0.13526 0.0
C81 C 0.21668 0.51406 0.12 0.0
C82 C 0.22796 0.51071 0.00781 0.0
C83 C 0.26358 0.50972 0.99139 0.0
C84 C 0.3229 0.52001 0.08502 0.0
H85 H 0.27336 0.5109 0.90539 0.0
C86 C 0.34778 0.50882 0.16672 0.0
C87 C 0.3769 0.52841 0.19362 0.0
C88 C 0.3299 0.54884 0.02306 0.0
H89 H 0.31228 0.55838 0.96133 0.0
C90 C 0.35735 0.56828 0.04989 0.0
H91 H 0.34366 0.48569 0.21124 0.0
C92 C 0.37914 0.55923 0.13718 0.0
H93 H 0.39883 0.57641 0.15823 0.0
H94 H 0.36102 0.59155 1.00569 0.0
H95 H 1.00333 0.28192 0.27724 0.0
C96 C 1.01092 0.2653 0.20957 0.0
C97 C 1.00077 0.23242 0.21664 0.0
C98 C 0.02791 0.27731 0.11394 0.0
H99 H 0.99936 0.18444 0.13907 0.0
C100 C 1.008 0.20979 0.13016 0.0
C101 C 0.02364 0.21958 0.02914 0.0
C102 C 0.03378 0.25395 0.02097 0.0
C103 C 0.03449 0.3149 0.11052 0.0
H104 H 0.0455 0.26231 0.94305 0.0
C105 C 0.03781 0.33548 0.21199 0.0
C106 C 0.03845 0.37109 0.20583 0.0
C107 C 0.03275 0.33136 1.00511 0.0
H108 H 0.02914 0.31767 0.92655 0.0
C109 C 0.03327 0.36591 0.9992 0.0
H110 H 0.03919 0.32417 0.29566 0.0
C111 C 0.03628 0.38544 0.09715 0.0
H112 H 0.03595 0.41215 0.08821 0.0
H113 H 0.03006 0.37779 0.91753 0.0
H114 H 0.25765 0.08154 0.27545 0.0
C115 C 0.27481 0.07249 0.21245 0.0
C116 C 0.30808 0.0823 0.22194 0.0
C117 C 0.26375 0.05073 0.1266 0.0
H118 H 0.35573 0.08231 0.1351 0.0
C119 C 0.33025 0.07394 0.13301 0.0
C120 C 0.32153 0.05265 0.04402 0.0
C121 C 0.28795 0.04058 0.04162 0.0
C122 C 0.22714 0.03947 0.1293 0.0
H123 H 0.28122 0.02326 0.97511 0.0
C124 C 0.206 0.04172 0.22951 0.0
C125 C 0.17158 0.0327 0.22622 0.0
C126 C 0.21241 0.02695 0.02912 0.0
H127 H 0.22631 0.02493 0.95056 0.0
C128 C 0.17915 1.01722 0.02691 0.0
H129 H 0.21594 0.04958 0.31089 0.0
C130 C 0.15894 0.02057 0.12281 0.0
H131 H 0.13324 1.01291 0.11695 0.0
H132 H 0.16878 1.00704 0.9492 0.0
H133 H 0.56126 0.27057 0.26436 0.0
C134 C 0.55158 0.28698 0.19977 0.0
C135 C 0.5647 0.31886 0.19705 0.0
C136 C 0.52667 0.27684 0.12373 0.0
H137 H 0.56615 0.3661 0.11435 0.0
C138 C 0.55512 0.34156 0.1135 0.0
C139 C 0.53327 0.33288 0.02561 0.0
C140 C 0.5183 0.30023 0.03227 0.0
C141 C 0.51114 0.24198 0.14267 0.0
H142 H 0.50078 0.29354 0.96637 0.0
C143 C 0.51752 0.22099 0.24225 0.0
C144 C 0.50343 0.18839 0.25452 0.0
C145 C 0.48901 0.22916 0.06094 0.0
H146 H 0.48242 0.24302 0.98537 0.0
C147 C 0.47441 0.19803 0.07454 0.0
H148 H 0.53276 0.22942 0.3122 0.0
C149 C 0.48205 0.1777 0.16733 0.0
H150 H 0.4704 0.15355 0.17242 0.0
H151 H 0.45652 0.18959 0.01238 0.0
Eu152 Eu 0.98245 0.03481 0.63204 0.0
C153 C 0.11177 0.06532 0.90041 0.0
N154 N 0.10438 0.0399 0.82822 0.0
C155 C 0.15827 0.04492 0.74196 0.0
C156 C 0.14242 0.08221 0.89312 0.0
C157 C 0.12806 0.02837 0.75458 0.0
C158 C 0.16533 0.07225 0.81051 0.0
C159 C 0.09626 0.09987 0.06165 0.0
C160 C 0.08906 0.07406 0.98407 0.0
C161 C 0.12652 0.11686 0.05349 0.0
C162 C 0.14954 0.10805 0.96959 0.0
Eu163 Eu 0.0514 1.01434 0.85324 0.0
N164 N 0.0595 0.05784 0.98795 0.0
C165 C 0.07276 0.10792 0.14503 0.0
C166 C 0.03719 0.06467 0.07265 0.0
C167 C 0.04323 0.09001 0.15124 0.0
H168 H 0.12436 1.00574 0.70737 0.0
H169 H 0.02499 0.09588 0.21585 0.0
H170 H 0.92128 0.99864 0.77927 0.0
H171 H 0.02452 1.01131 0.1951 0.0
H172 H 1.01394 0.05158 0.07496 0.0
H173 H 0.07722 0.1278 0.20534 0.0
H174 H 0.02305 0.04171 0.37525 0.0
H175 H 0.17648 0.03598 0.68156 0.0
H176 H 0.13237 0.13692 0.11164 0.0
H177 H 0.17291 0.12124 0.96504 0.0
H178 H 0.87843 0.95582 0.75146 0.0
H179 H 0.18904 0.08465 0.80209 0.0
H180 H 0.97973 0.97291 0.14578 0.0
N181 N 0.94332 0.99152 0.61699 0.0
C182 C 0.93991 0.97786 0.51156 0.0
C183 C 0.8959 0.96129 0.68389 0.0
C184 C 0.91469 0.95442 0.48962 0.0
C185 C 0.92073 0.98491 0.7008 0.0
C186 C 0.89301 0.94574 0.57796 0.0
N187 N 0.98458 1.01163 0.44667 0.0
C188 C 1.00566 0.02181 0.36237 0.0
C189 C 0.95801 0.9741 0.31488 0.0
C190 C 0.96132 0.98787 0.4249 0.0
C191 C 0.98072 0.98333 0.23072 0.0
C192 C 1.00545 1.00608 0.2565 0.0
H193 H 0.87331 0.92791 0.5641 0.0
H194 H 0.89136 0.92392 0.36014 0.0
H195 H 0.92851 0.94193 0.20748 0.0
O196 O 0.9577 0.06597 0.50386 0.0
O197 O 0.98894 0.9787 0.67318 0.0
O198 O 0.04335 0.9716 0.72013 0.0
O199 O 0.93371 0.0551 0.66435 0.0
O200 O 0.03639 0.04515 0.56683 0.0
O201 O 0.06716 1.00784 0.66827 0.0
O202 O 0.04606 0.98276 1.00223 0.0
O203 O 0.03411 0.06925 0.85035 0.0
O204 O 1.00918 0.08335 0.68046 0.0
O205 O 0.09421 0.98813 0.92505 0.0
O206 O 0.99778 1.00377 0.91639 0.0
O207 O 0.96889 0.04339 0.81963 0.0
C208 C 1.01581 0.96009 0.6719 0.0
C209 C 0.91931 0.10545 0.58042 0.0
C210 C 0.922 0.16391 0.5347 0.0
C211 C 0.89562 0.17034 0.6091 0.0
C212 C 0.89233 0.11187 0.6533 0.0
C213 C 0.88072 0.14421 0.66797 0.0
C214 C 0.93385 0.13162 0.52081 0.0
C215 C 0.06414 0.02768 0.57993 0.0
C216 C 0.93205 0.07149 0.56918 0.0
C217 C 0.91099 0.9414 0.37946 0.0
C218 C 0.93235 0.9515 0.29244 0.0
C219 C 0.02262 0.09192 0.77923 0.0
C220 C 0.08176 0.93688 0.01 0.0
C221 C 0.05567 0.88291 0.01659 0.0
C222 C 0.08316 0.87049 0.07694 0.0
C223 C 0.10906 0.92455 0.07075 0.0
C224 C 0.05679 0.91519 0.97352 0.0
C225 C 0.1102 0.89108 0.10084 0.0
C226 C 0.97128 0.02291 0.90654 0.0
C227 C 0.07672 0.97269 1.00093 0.0
H228 H 0.8865 0.19534 0.62043 0.0
H229 H 0.88045 0.09191 0.69976 0.0
H230 H 0.86018 0.14898 0.72496 0.0
H231 H 0.95445 0.12711 0.46344 0.0
H232 H 0.08292 0.84552 0.11083 0.0
H233 H 0.12872 0.94101 0.09871 0.0
H234 H 0.03562 0.92476 0.92712 0.0
H235 H 0.13101 0.88163 0.14936 0.0
Eu236 Eu 0.53125 0.06322 0.87001 0.0
C237 C 0.52676 0.92515 0.67832 0.0
N238 N 0.54047 0.95276 0.62964 0.0
C239 C 0.59033 0.92207 0.59129 0.0
C240 C 0.54502 0.89542 0.68852 0.0
C241 C 0.57111 0.95057 0.57956 0.0
C242 C 0.5775 0.8946 0.64801 0.0
C243 C 0.47875 0.89729 0.76015 0.0
C244 C 0.49389 0.92595 0.71477 0.0
C245 C 0.4974 0.86826 0.77398 0.0
C246 C 0.53045 0.86735 0.73853 0.0
Eu247 Eu 0.50597 1.00113 0.63856 0.0
N248 N 0.47637 0.9545 0.70328 0.0
C249 C 0.44505 0.89842 0.78817 0.0
C250 C 0.44303 0.95508 0.72272 0.0
C251 C 0.42697 0.92724 0.76714 0.0
H252 H 0.58161 0.97044 0.53057 0.0
H253 H 0.40067 0.92805 0.78515 0.0
H254 H 0.45839 0.10409 0.88978 0.0
H255 H 0.65593 0.11792 0.847 0.0
H256 H 0.4287 0.97701 0.70481 0.0
H257 H 0.43255 0.8769 0.82295 0.0
H258 H 0.61498 0.07494 0.8941 0.0
H259 H 0.61503 0.92123 0.55539 0.0
H260 H 0.4863 0.84616 0.81011 0.0
H261 H 0.54438 0.84458 0.74822 0.0
H262 H 0.43514 0.15784 0.8291 0.0
H263 H 0.59254 0.87254 0.65729 0.0
H264 H 0.63743 0.17246 0.77506 0.0
N265 N 0.50761 0.11631 0.84054 0.0
C266 C 0.52881 0.14084 0.80915 0.0
C267 C 0.4615 0.15331 0.8222 0.0
C268 C 0.51683 0.17241 0.77823 0.0
C269 C 0.47469 0.12287 0.8562 0.0
C270 C 0.48263 0.17811 0.78178 0.0
N271 N 0.57329 0.10393 0.84273 0.0
C272 C 0.60638 0.09832 0.86043 0.0
C273 C 0.58529 0.15996 0.78398 0.0
C274 C 0.56258 0.13449 0.81061 0.0
C275 C 0.61923 0.15355 0.79465 0.0
C276 C 0.62977 0.12279 0.835 0.0
H277 H 0.47241 0.2019 0.75746 0.0
H278 H 0.53055 0.22165 0.72155 0.0
H279 H 0.59054 0.21086 0.72756 0.0
O280 O 0.5521 0.0859 0.02386 0.0
O281 O 0.50509 0.08281 0.70796 0.0
O282 O 0.52639 0.05092 0.56909 0.0
O283 O 0.51006 0.05315 0.03767 0.0
O284 O 0.57812 0.04117 0.78294 0.0
O285 O 0.56075 1.01645 0.61527 0.0
O286 O 0.48248 0.02144 0.48833 0.0
O287 O 0.50404 0.98569 0.8288 0.0
O288 O 0.55079 1.0097 0.89134 0.0
O289 O 0.48773 0.96866 0.50024 0.0
O290 O 0.46026 0.02816 0.71626 0.0
O291 O 0.47725 0.04459 0.89529 0.0
C292 C 0.51713 0.0805 0.60412 0.0
C293 C 0.55386 0.04403 0.16236 0.0
C294 C 0.60286 1.00952 0.18694 0.0
C295 C 0.58958 0.99766 0.29026 0.0
C296 C 0.54079 0.03194 0.2647 0.0
C297 C 0.55824 1.0081 0.3267 0.0
C298 C 0.58384 0.03118 0.12078 0.0
C299 C 0.58474 0.02843 0.68094 0.0
C300 C 0.53479 0.06686 0.0909 0.0
C301 C 0.5393 0.19731 0.7464 0.0
C302 C 0.57346 0.19115 0.74971 0.0
C303 C 0.53055 0.9841 0.8941 0.0
C304 C 0.43761 0.99016 0.4225 0.0
C305 C 0.385 1.01872 0.4044 0.0
C306 C 0.3726 0.99234 0.3388 0.0
C307 C 0.42509 0.96374 0.35759 0.0
C308 C 0.41636 1.01621 0.45311 0.0
C309 C 0.39237 0.96457 0.31799 0.0
C310 C 0.45321 0.03686 0.8228 0.0
C311 C 0.47324 0.99301 0.44792 0.0
H312 H 0.6035 0.98041 0.34242 0.0
H313 H 0.51691 0.04042 0.29503 0.0
H314 H 0.54761 0.99827 0.40409 0.0
H315 H 0.59317 0.03894 0.03829 0.0
H316 H 0.34803 0.99366 0.30153 0.0
H317 H 0.44059 0.94289 0.33547 0.0
H318 H 0.42505 0.03645 0.50584 0.0
H319 H 0.38281 0.94433 0.267 0.0
Eu320 Eu 0.57144 0.51415 0.59428 0.0
C321 C 0.43158 0.49667 0.85486 0.0
N322 N 0.44314 0.5214 0.7867 0.0
C323 C 0.38801 0.53124 0.71592 0.0
C324 C 0.39764 0.48791 0.85418 0.0
C325 C 0.42167 0.53931 0.72015 0.0
C326 C 0.376 0.50515 0.78206 0.0
C327 C 0.44101 0.45852 0.0121 0.0
C328 C 0.45305 0.48203 0.93277 0.0
C329 C 0.40762 0.44878 0.00804 0.0
C330 C 0.38602 0.46339 0.92917 0.0
Eu331 Eu 0.50018 0.53545 0.80619 0.0
N332 N 0.48511 0.4925 0.93683 0.0
C333 C 0.46253 0.44642 0.09625 0.0
C334 C 0.50559 0.48199 0.02323 0.0
C335 C 0.49491 0.45838 0.10225 0.0
H336 H 0.43036 0.56047 0.67206 0.0
H337 H 0.51166 0.44948 0.16777 0.0
H338 H 0.63343 0.54978 0.74002 0.0
H339 H 0.54077 0.52987 0.14181 0.0
H340 H 0.53084 0.49044 0.02561 0.0
H341 H 0.45417 0.42837 0.15843 0.0
H342 H 0.54285 0.49975 0.32554 0.0
H343 H 0.37128 0.54539 0.6625 0.0
H344 H 0.39804 0.43066 0.06782 0.0
H345 H 0.36008 0.45636 0.92952 0.0
H346 H 0.67182 0.59725 0.72195 0.0
H347 H 0.34979 0.49924 0.77968 0.0
H348 H 0.57035 0.58196 0.11689 0.0
N349 N 0.60845 0.55964 0.5844 0.0
C350 C 0.60943 0.57628 0.48352 0.0
C351 C 0.65389 0.59215 0.65529 0.0
C352 C 0.63112 0.60335 0.46832 0.0
C353 C 0.63161 0.56583 0.66686 0.0
C354 C 0.65319 0.61146 0.55643 0.0
N355 N 0.57056 0.53766 0.40891 0.0
C356 C 0.55546 0.52324 0.31709 0.0
C357 C 0.58985 0.5824 0.28927 0.0
C358 C 0.58919 0.56558 0.39474 0.0
C359 C 0.57131 0.56963 0.19866 0.0
C360 C 0.55481 0.53963 0.21189 0.0
H361 H 0.67041 0.63191 0.54757 0.0
H362 H 0.64662 0.64221 0.35245 0.0
H363 H 0.61018 0.62424 0.19734 0.0
O364 O 0.59628 0.48203 0.46901 0.0
O365 O 0.56156 0.56988 0.63829 0.0
O366 O 0.50657 0.57602 0.66608 0.0
O367 O 0.62184 0.49764 0.62171 0.0
O368 O 0.51862 0.50294 0.51721 0.0
O369 O 0.48375 0.53728 0.61906 0.0
O370 O 0.51322 0.56979 0.94176 0.0
O371 O 0.5148 0.48 0.80705 0.0
O372 O 0.54846 0.46485 0.65725 0.0
O373 O 0.46187 0.56438 0.89298 0.0
O374 O 0.55375 0.54285 0.87879 0.0
O375 O 0.5852 0.50501 0.78232 0.0
C376 C 0.53442 0.58779 0.62217 0.0
C377 C 0.64059 0.44815 0.54153 0.0
C378 C 0.64628 0.39011 0.49329 0.0
C379 C 0.67424 0.38753 0.56385 0.0
C380 C 0.66901 0.44566 0.61115 0.0
C381 C 0.68564 0.41545 0.62239 0.0
C382 C 0.62963 0.42031 0.48204 0.0
C383 C 0.48909 0.5173 0.53213 0.0
C384 C 0.62347 0.48009 0.52939 0.0
C385 C 0.63059 0.62098 0.36524 0.0
C386 C 0.60974 0.61072 0.27656 0.0
C387 C 0.53112 0.45709 0.74956 0.0
C388 C 0.47881 0.61622 0.96155 0.0
C389 C 0.50679 0.66841 0.93856 0.0
C390 C 0.48667 0.6821 0.02494 0.0
C391 C 0.45898 0.62959 0.0481 0.0
C392 C 0.49962 0.6368 0.89779 0.0
C393 C 0.46196 0.66301 0.07633 0.0
C394 C 0.58059 0.52397 0.87228 0.0
C395 C 0.48298 0.58049 0.95493 0.0
H396 H 0.68699 0.3641 0.57349 0.0
H397 H 0.67836 0.46707 0.65686 0.0
H398 H 0.70733 0.4137 0.67667 0.0
H399 H 0.60796 0.42185 0.42722 0.0
H400 H 0.49148 0.70671 0.05797 0.0
H401 H 0.44258 0.61391 0.09744 0.0
H402 H 0.51388 0.62666 0.82774 0.0
H403 H 0.44713 0.67334 0.14455 0.0
Eu404 Eu 0.04389 0.55983 0.62069 0.0
C405 C 0.07889 0.43397 0.86847 0.0
N406 N 0.05201 0.4404 0.80157 0.0
C407 C 0.05969 0.38821 0.70551 0.0
C408 C 0.09797 0.40496 0.85292 0.0
C409 C 0.04089 0.41656 0.72741 0.0
C410 C 0.0887 0.38263 0.76732 0.0
C411 C 0.11335 0.44896 0.0309 0.0
C412 C 0.08646 0.4555 0.95679 0.0
C413 C 0.13278 0.42061 0.01379 0.0
C414 C 0.12512 0.39866 0.92501 0.0
Eu415 Eu 0.02306 0.49117 0.83866 0.0
N416 N 0.06742 0.48291 0.97078 0.0
C417 C 0.11973 0.47096 0.12075 0.0
C418 C 0.07236 0.50322 0.0628 0.0
C419 C 0.09882 0.49797 0.13777 0.0
H420 H 1.01698 0.41862 0.68675 0.0
H421 H 0.10332 0.515 0.20757 0.0
H422 H 1.01167 0.62392 0.76385 0.0
H423 H 0.01748 0.51751 0.18637 0.0
H424 H 0.05736 0.52499 0.0716 0.0
H425 H 0.14044 0.46707 0.17834 0.0
H426 H 0.04997 0.52022 0.3622 0.0
H427 H 0.05113 0.37012 0.64384 0.0
H428 H 0.1536 0.41526 0.06946 0.0
H429 H 0.14007 0.37662 0.91383 0.0
H430 H 0.96924 0.66706 0.73795 0.0
H431 H 0.10282 0.36024 0.75223 0.0
H432 H 0.97969 0.56256 0.13688 0.0
N433 N 1.00258 0.601 0.60367 0.0
C434 C 0.98771 0.60392 0.50007 0.0
C435 C 0.97371 0.64912 0.671 0.0
C436 C 0.96388 0.62884 0.47994 0.0
C437 C 0.99725 0.62417 0.68659 0.0
C438 C 0.95661 0.65123 0.56757 0.0
N439 N 0.02061 0.55901 0.43467 0.0
C440 C 0.03001 0.53757 0.35044 0.0
C441 C 0.98144 0.58447 0.30584 0.0
C442 C 0.99664 0.58206 0.41395 0.0
C443 C 0.99032 0.56171 0.22151 0.0
C444 C 1.01324 0.53715 0.24644 0.0
H445 H 0.9386 0.6708 0.55504 0.0
H446 H 0.93064 0.6503 0.35474 0.0
H447 H 0.94611 0.61167 0.2032 0.0
O448 O 0.07605 0.58441 0.49578 0.0
O449 O 0.9873 0.55425 0.65632 0.0
O450 O 0.97944 0.50022 0.70858 0.0
O451 O 0.06903 0.60572 0.66311 0.0
O452 O 0.05315 0.50617 0.55228 0.0
O453 O 1.01559 0.47576 0.65259 0.0
O454 O 0.99219 0.49383 0.99006 0.0
O455 O 0.07554 0.51508 0.84533 0.0
O456 O 0.08997 0.52803 0.6636 0.0
O457 O 0.99851 0.44682 0.90648 0.0
O458 O 1.0102 0.54418 0.90382 0.0
O459 O 0.04934 0.57464 0.80969 0.0
C460 C 0.9682 0.52766 0.65873 0.0
C461 C 0.12151 0.61231 0.58482 0.0
C462 C 0.17848 0.59597 0.55153 0.0
C463 C 0.18952 0.61944 0.63121 0.0
C464 C 0.13274 0.63651 0.66241 0.0
C465 C 0.16658 0.63976 0.6863 0.0
C466 C 0.14462 0.59214 0.52971 0.0
C467 C 0.03518 0.4787 0.56343 0.0
C468 C 0.08573 0.60699 0.56859 0.0
C469 C 0.94881 0.63121 0.3724 0.0
C470 C 0.95761 0.60911 0.28588 0.0
C471 C 0.09877 0.51889 0.76749 0.0
C472 C 0.94727 0.45704 0.99498 0.0
C473 C 0.89282 0.4821 1.00053 0.0
C474 C 0.8811 0.45507 0.06465 0.0
C475 C 0.93563 0.43017 0.05931 0.0
C476 C 0.92498 0.48116 0.9563 0.0
C477 C 0.90226 0.4287 0.09081 0.0
C478 C 0.02844 0.57144 0.89526 0.0
C479 C 0.98294 0.46298 0.98538 0.0
H480 H 0.21576 0.6226 0.6479 0.0
H481 H 0.11527 0.65235 0.70649 0.0
H482 H 0.17499 0.65814 0.74713 0.0
H483 H 0.1365 0.57368 0.46835 0.0
H484 H 0.85626 0.45522 0.09963 0.0
H485 H 0.95256 0.41119 0.0891 0.0
H486 H 0.93403 0.50205 0.90724 0.0
H487 H 0.89335 0.40826 0.14217 0.0
C488 C 0.1389 1.00216 0.38161 0.0
C489 C 0.14817 0.03251 0.32976 0.0
C490 C 0.10487 0.06058 0.44805 0.0
C491 C 0.09334 0.02943 0.49289 0.0
N492 N 0.10491 0.96991 0.5066 0.0
N493 N 0.14103 0.09001 0.31071 0.0
C494 C 0.11202 1.0003 0.46122 0.0
C495 C 0.13129 0.06162 0.36355 0.0
N496 N 0.15557 0.97372 0.35656 0.0
N497 N 0.09204 0.08925 0.49147 0.0
H498 H 0.13024 0.11319 0.3223 0.0
H499 H 0.13024 0.11319 0.3223 0.0
H500 H 0.07441 0.08972 0.55616 0.0
H501 H 0.10055 0.11286 0.47188 0.0
H502 H 0.17599 0.97243 0.30207 0.0
H503 H 0.17599 0.97243 0.30207 0.0
H504 H 0.11778 0.94843 0.48458 0.0
H505 H 0.08658 0.96517 0.56586 0.0
C506 C 0.48041 0.1523 0.41801 0.0
C507 C 0.50857 0.16482 0.35776 0.0
C508 C 0.54299 0.1269 0.4776 0.0
C509 C 0.51442 0.10998 0.51989 0.0
N510 N 0.45511 0.10565 0.51627 0.0
N511 N 0.56736 0.15972 0.3248 0.0
C512 C 0.48292 0.12271 0.48658 0.0
C513 C 0.54009 0.15103 0.38673 0.0
N514 N 0.45111 0.16911 0.4112 0.0
N515 N 0.57292 0.12137 0.52818 0.0
H516 H 0.56648 0.1768 0.25808 0.0
H517 H 0.59016 0.14785 0.33384 0.0
H518 H 0.57566 0.10512 0.59685 0.0
H519 H 0.59405 0.13522 0.50951 0.0
H520 H 0.43049 0.16336 0.46086 0.0
H521 H 0.44869 0.19115 0.36535 0.0
H522 H 0.43126 0.1126 0.49249 0.0
H523 H 0.45644 0.08255 0.55536 0.0
C524 C 0.40156 0.50563 0.3899 0.0
C525 C 0.4058 0.51941 0.27785 0.0
C526 C 0.46386 0.53261 0.33612 0.0
C527 C 0.46136 0.51521 0.44069 0.0
N528 N 0.42776 0.47841 0.5533 0.0
N529 N 0.44777 0.53371 0.13893 0.0
C530 C 0.43019 0.49944 0.46272 0.0
C531 C 0.43903 0.52885 0.24968 0.0
N532 N 0.37043 0.5006 0.43159 0.0
N533 N 0.48866 0.55498 0.32046 0.0
H534 H 0.43139 0.53008 0.07127 0.0
H535 H 0.47247 0.5371 0.11612 0.0
H536 H 0.50605 0.56019 0.38388 0.0
H537 H 0.48949 0.57072 0.24968 0.0
H538 H 0.36589 0.49278 0.51496 0.0
H539 H 0.34918 0.50788 0.38782 0.0
H540 H 0.40689 0.46385 0.5687 0.0
H541 H 0.44791 0.47367 0.60666 0.0
C542 C 0.06747 0.41273 0.338 0.0
C543 C 0.0384 0.39483 0.30916 0.0
C544 C 1.00713 0.4306 0.44502 0.0
C545 C 0.03633 0.44979 0.47385 0.0
N546 N 0.09614 0.45282 0.45993 0.0
N547 N 0.97964 0.38775 0.33855 0.0
C548 C 0.06706 0.43914 0.42277 0.0
C549 C 1.00842 0.40388 0.36397 0.0
N550 N 0.0953 0.40388 0.27986 0.0
N551 N 0.97709 0.43728 0.4938 0.0
H552 H 0.97774 0.36813 0.28081 0.0
H553 H 0.97774 0.36813 0.28081 0.0
H554 H 0.9726 0.4559 0.55225 0.0
H555 H 0.95564 0.42385 0.47506 0.0
H556 H 0.11834 0.41535 0.28691 0.0
H557 H 0.11834 0.41535 0.28691 0.0
H558 H 0.1196 0.44464 0.437 0.0
H559 H 0.09742 0.47102 0.52228 0.0
C560 C 0.8946 0.99627 0.0922 0.0
C561 C 0.88801 0.0251 0.15709 0.0
C562 C 0.93478 0.05302 0.05563 0.0
C563 C 0.94341 0.02304 0.99733 0.0
N564 N 0.93249 0.96488 0.96989 0.0
N565 N 0.90252 0.08132 0.20248 0.0
C566 C 0.92341 0.99428 0.01835 0.0
C567 C 0.90831 0.05357 0.13859 0.0
N568 N 0.87259 0.97094 0.10422 0.0
N569 N 0.9519 0.08139 0.03152 0.0
H570 H 0.8816 0.08393 0.25398 0.0
H571 H 0.91881 0.10125 0.20838 0.0
H572 H 0.97295 0.08182 0.98034 0.0
H573 H 0.94466 0.10489 0.0579 0.0
H574 H 0.87313 0.94887 0.05812 0.0
H575 H 0.87313 0.94887 0.05812 0.0
H576 H 0.92133 0.94224 0.98705 0.0
H577 H 0.95282 0.96262 0.91579 0.0
C578 C 0.56149 0.89957 0.02146 0.0
C579 C 0.54319 0.89659 0.12521 0.0
C580 C 0.51638 0.95079 0.07768 0.0
C581 C 0.53593 0.9546 0.9769 0.0
N582 N 0.58386 0.93591 0.87424 0.0
N583 N 0.50697 0.92302 0.25957 0.0
C584 C 0.56023 0.92975 0.95462 0.0
C585 C 0.52158 0.92322 0.15453 0.0
N586 N 0.58066 0.87362 0.9869 0.0
N587 N 0.49286 0.97395 0.1018 0.0
H588 H 0.50747 0.90257 0.31408 0.0
H589 H 0.49663 0.94405 0.2958 0.0
H590 H 0.49032 0.99557 0.05446 0.0
H591 H 0.4749 0.97107 0.16479 0.0
H592 H 0.59216 0.87268 0.90733 0.0
H593 H 0.58276 0.85181 0.03414 0.0
H594 H 0.60501 0.92142 0.86438 0.0
H595 H 0.58359 0.95712 0.82358 0.0
C596 C 0.64114 0.4939 0.11588 0.0
C597 C 0.66093 0.52262 0.13739 0.0
C598 C 0.62739 0.55266 0.99051 0.0
C599 C 0.60734 0.52402 0.96833 0.0
N600 N 0.59785 0.46611 1.00521 0.0
N601 N 0.67055 0.57952 0.10814 0.0
C602 C 0.61512 0.49434 0.03006 0.0
C603 C 0.65341 0.55194 0.07621 0.0
N604 N 0.64668 0.46625 0.1807 0.0
N605 N 0.62231 0.58033 0.92625 0.0
H606 H 0.66613 0.60338 0.07795 0.0
H607 H 0.66613 0.60338 0.07795 0.0
H608 H 0.6024 0.58252 0.87008 0.0
H609 H 0.63849 0.60036 0.92267 0.0
H610 H 0.63112 0.44572 0.18276 0.0
H611 H 0.66662 0.46432 0.23725 0.0
H612 H 0.60398 0.44268 0.03534 0.0
H613 H 0.57774 0.46579 0.94937 0.0
C614 C 0.99832 0.64662 0.08401 0.0
C615 C 0.02718 0.65392 0.15063 0.0
C616 C 0.05625 0.60738 0.05204 0.0
C617 C 0.02732 0.59929 0.98665 0.0
N618 N 0.97026 0.61113 0.94349 0.0
N619 N 0.08438 0.64607 0.1827 0.0
C620 C 0.99826 0.61913 1.00346 0.0
C621 C 0.0563 0.63526 0.1295 0.0
N622 N 0.97073 0.66572 0.09932 0.0
N623 N 0.08329 0.58722 0.04464 0.0
H624 H 0.10809 0.63664 0.16941 0.0
H625 H 0.10809 0.63664 0.16941 0.0
H626 H 0.08453 0.56751 0.98782 0.0
H627 H 0.10348 0.58803 0.09992 0.0
H628 H 0.94897 0.66366 0.05228 0.0
H629 H 0.96937 0.68429 0.16082 0.0
H630 H 0.94784 0.62359 0.94846 0.0
H631 H 0.96929 0.59129 0.88672 0.0
C632 C 0.9915 0.21439 0.4184 0.0
C633 C 0.97846 0.22217 0.30933 0.0
C634 C 0.92454 0.19927 0.3607 0.0
C635 C 0.93791 0.19042 0.46832 0.0
N636 N 0.97973 0.1973 0.61268 0.0
N637 N 0.93104 0.23148 0.18753 0.0
C638 C 0.97001 0.20085 0.50163 0.0
C639 C 0.94433 0.21785 0.2843 0.0
N640 N 0.0246 0.21828 0.44006 0.0
N641 N 0.89382 0.18819 0.32905 0.0
H642 H 0.94503 0.24542 0.12997 0.0
H643 H 0.90574 0.23165 0.16972 0.0
H644 H 0.8782 0.17534 0.38447 0.0
H645 H 0.88453 0.19016 0.24622 0.0
H646 H 0.03622 0.20952 0.51361 0.0
H647 H 0.04099 0.22861 0.38109 0.0
H648 H 1.00189 0.20658 0.64546 0.0
H649 H 0.96377 0.18771 0.67425 0.0
C650 C 0.31203 0.07571 0.42894 0.0
C651 C 0.32098 0.09533 0.33438 0.0
C652 C 0.37789 0.07943 0.35546 0.0
C653 C 0.36636 0.05018 0.41227 0.0
N654 N 0.32504 0.02567 0.53546 0.0
N655 N 0.36291 0.1352 0.29352 0.0
C656 C 0.33427 0.05024 0.46216 0.0
C657 C 0.35441 0.10484 0.33421 0.0
N658 N 0.28282 0.08144 0.48322 0.0
N659 N 0.4088 0.08124 0.3085 0.0
H660 H 0.34461 0.15207 0.26879 0.0
H661 H 0.38728 0.14385 0.29297 0.0
H662 H 0.42634 0.06247 0.31473 0.0
H663 H 0.41637 0.10097 0.25733 0.0
H664 H 0.27547 0.0688 0.55657 0.0
H665 H 0.26751 0.10097 0.45777 0.0
H666 H 0.30096 0.02303 0.56613 0.0
H667 H 0.34181 1.00773 0.56366 0.0
C668 C 0.57941 0.33452 0.39764 0.0
C669 C 0.58941 0.32891 0.28314 0.0
C670 C 0.64313 0.3546 0.31994 0.0
C671 C 0.63246 0.36141 0.43253 0.0
N672 N 0.59641 0.34918 0.58969 0.0
N673 N 0.6334 0.32392 0.14497 0.0
C674 C 0.60267 0.34791 0.47526 0.0
C675 C 0.62233 0.3356 0.24764 0.0
N676 N 0.54721 0.32952 0.42993 0.0
N677 N 0.67202 0.36805 0.28045 0.0
H678 H 0.6186 0.30953 0.09108 0.0
H679 H 0.65794 0.32582 0.11833 0.0
H680 H 0.6883 0.38112 0.33322 0.0
H681 H 0.67906 0.36754 0.19488 0.0
H682 H 0.53784 0.33681 0.50888 0.0
H683 H 0.52902 0.32035 0.37504 0.0
H684 H 0.57629 0.3375 0.62826 0.0
H685 H 0.6135 0.35932 0.64675 0.0
C686 C 0.2296 0.57219 0.29619 0.0
C687 C 0.22877 0.53717 0.30916 0.0
C688 C 0.20673 0.54323 0.50122 0.0
C689 C 0.20183 0.57738 0.47963 0.0
N690 N 0.20668 0.62474 0.35483 0.0
N691 N 0.21643 0.4887 0.42114 0.0
C692 C 0.21325 0.59214 0.37742 0.0
C693 C 0.21762 0.52241 0.41149 0.0
N694 N 0.24603 0.5864 0.20644 0.0
N695 N 0.20129 0.53107 0.6081 0.0
H696 H 0.22512 0.4729 0.35731 0.0
H697 H 0.20509 0.47646 0.48901 0.0
H698 H 0.1945 0.54663 0.67481 0.0
H699 H 0.20698 0.50695 0.63269 0.0
H700 H 0.25047 0.61175 0.20024 0.0
H701 H 0.25789 0.57286 0.14285 0.0
H702 H 0.21022 0.63557 0.27496 0.0
H703 H 0.19567 0.64064 0.41376 0.0
C704 C 0.99549 0.81109 0.01931 0.0
C705 C 0.97456 0.8243 0.10463 0.0
C706 C 0.99521 0.87854 0.07164 0.0
C707 C 0.02378 0.86453 0.01822 0.0
N708 N 0.04639 0.81876 0.91068 0.0
N709 N 0.93718 0.86951 0.11821 0.0
C710 C 0.02223 0.83112 0.97986 0.0
C711 C 0.96761 0.85775 0.09031 0.0
N712 N 0.98872 0.78066 0.97515 0.0
N713 N 0.99606 0.90864 0.12363 0.0
H714 H 0.91824 0.85341 0.14335 0.0
H715 H 0.93084 0.89425 0.10613 0.0
H716 H 1.01691 0.92368 0.12916 0.0
H717 H 0.977 0.91588 0.17733 0.0
H718 H 1.00198 0.77009 0.90821 0.0
H719 H 0.96771 0.76752 1.00111 0.0
H720 H 0.04806 0.79385 0.88847 0.0
H721 H 0.06501 0.83384 0.87693 0.0
C722 C 0.68043 0.95746 0.15362 0.0
C723 C 0.7038 0.98336 0.15267 0.0
C724 C 0.66135 0.02425 0.12302 0.0
C725 C 0.63688 0.9998 0.1497 0.0
N726 N 0.62235 0.94172 0.14522 0.0
N727 N 0.71747 0.03338 0.05481 0.0
C728 C 0.64613 0.96568 0.14804 0.0
C729 C 0.69419 1.01351 0.10357 0.0
N730 N 0.69126 0.92626 0.17708 0.0
N731 N 0.6548 0.05739 0.12979 0.0
H732 H 0.74201 0.02551 0.04665 0.0
H733 H 0.71149 0.05552 0.01372 0.0
H734 H 0.63247 0.06711 0.15856 0.0
H735 H 0.6731 0.07538 0.11933 0.0
H736 H 0.67566 0.90619 0.19239 0.0
H737 H 0.71662 0.92131 0.18388 0.0
H738 H 0.62753 0.91657 0.13741 0.0
H739 H 0.59723 0.94755 0.14276 0.0
C740 C 0.5908 0.69168 0.01981 0.0
C741 C 0.5803 0.72403 0.0388 0.0
C742 C 0.53898 0.71846 0.89022 0.0
C743 C 0.53918 0.68419 0.91423 0.0
N744 N 0.57263 0.63687 0.9706 0.0
N745 N 0.56919 0.77005 0.91365 0.0
C746 C 0.56835 0.67014 0.96385 0.0
C747 C 0.56227 0.73861 0.94803 0.0
N748 N 0.62031 0.68165 0.06432 0.0
N749 N 0.51506 0.73144 0.82132 0.0
H750 H 0.58911 0.78315 0.94869 0.0
H751 H 0.55781 0.78117 0.84341 0.0
H752 H 0.4983 0.71611 0.77823 0.0
H753 H 0.5117 0.75683 0.81016 0.0
H754 H 0.63106 0.65883 0.04584 0.0
H755 H 0.63501 0.69809 0.11141 0.0
H756 H 0.59097 0.62639 0.02079 0.0
H757 H 0.55845 0.61978 0.9261 0.0
C758 C 0.82042 0.54162 0.99804 0.0
C759 C 0.83385 0.56393 0.07902 0.0
C760 C 0.88802 0.54288 0.04919 0.0
C761 C 0.87403 0.51369 0.99965 0.0
N762 N 0.82797 0.48939 0.89727 0.0
N763 N 0.87921 0.60135 0.08729 0.0
C764 C 0.84046 0.51451 0.96224 0.0
C765 C 0.8673 0.57065 0.06373 0.0
N766 N 0.78989 0.54767 0.95304 0.0
N767 N 0.91803 0.54267 0.10211 0.0
H768 H 0.8632 0.62062 0.1096 0.0
H769 H 0.90401 0.60744 0.0744 0.0
H770 H 0.93311 0.52196 0.1105 0.0
H771 H 0.92493 0.56227 0.15426 0.0
H772 H 0.77917 0.53336 0.88878 0.0
H773 H 0.77692 0.56917 0.9744 0.0
H774 H 0.80295 0.48722 0.87637 0.0
H775 H 0.84301 0.47044 0.86587 0.0
C776 C 0.99436 0.17868 0.89515 0.0
C777 C 0.02486 0.19266 0.93487 0.0
C778 C 0.05378 0.14535 0.84039 0.0
C779 C 0.02317 0.12856 0.81893 0.0
N780 N 0.96357 0.1308 0.82464 0.0
N781 N 0.0841 0.18813 0.9454 0.0
C782 C 0.99328 0.14595 0.84481 0.0
C783 C 0.05472 0.1758 0.90599 0.0
N784 N 0.96615 0.19719 0.90534 0.0
N785 N 0.08207 0.13274 0.79405 0.0
H786 H 0.08567 0.21034 0.99056 0.0
H787 H 0.1066 0.17576 0.93791 0.0
H788 H 0.08203 0.11117 0.74504 0.0
H789 H 0.10475 0.14505 0.7951 0.0
H790 H 0.94316 0.19032 0.87258 0.0
H791 H 0.96647 0.22129 0.93757 0.0
H792 H 0.94089 0.13983 0.8529 0.0
H793 H 0.96164 0.10781 0.7851 0.0
C794 C 0.36215 0.06726 0.88199 0.0
C795 C 0.35006 0.0434 0.96184 0.0
C796 C 0.4039 1.01334 0.94131 0.0
C797 C 0.4166 0.03788 0.86445 0.0
N798 N 0.40448 0.08515 0.74684 0.0
N799 N 0.3573 0.99028 0.04928 0.0
C800 C 0.39448 0.06369 0.82984 0.0
C801 C 0.37039 1.01537 0.98533 0.0
N802 N 0.34303 0.09445 0.85986 0.0
N803 N 0.42419 0.98803 0.97375 0.0
H804 H 0.33331 0.99123 0.08223 0.0
H805 H 0.36874 0.96751 0.06202 0.0
H806 H 0.44713 0.9841 0.93581 0.0
H807 H 0.41899 0.97154 0.03963 0.0
H808 H 0.35129 0.1152 0.81547 0.0
H809 H 0.31883 0.0967 0.89032 0.0
H810 H 0.3889 0.10191 0.70585 0.0
H811 H 0.42846 0.08494 0.71499 0.0
C812 C 0.55947 0.37066 0.87395 0.0
C813 C 0.52993 0.35899 0.9285 0.0
C814 C 0.50036 0.406 0.83435 0.0
C815 C 0.53074 0.42107 0.79783 0.0
N816 N 0.59049 0.41654 0.79082 0.0
N817 N 0.47211 0.36834 0.96518 0.0
C818 C 0.56061 0.40276 0.81858 0.0
C819 C 0.50029 0.3773 0.90874 0.0
N820 N 0.58686 0.35075 0.87678 0.0
N821 N 0.4712 0.41835 0.79371 0.0
H822 H 0.47096 0.34763 0.01825 0.0
H823 H 0.45061 0.3826 0.9651 0.0
H824 H 0.47045 0.43814 0.73671 0.0
H825 H 0.44833 0.407 0.807 0.0
H826 H 0.60952 0.35654 0.8398 0.0
H827 H 0.5861 0.32671 0.90954 0.0
H828 H 0.61325 0.4067 0.81514 0.0
H829 H 0.59297 0.43946 0.75147 0.0
C830 C 0.18565 0.48561 0.86499 0.0
C831 C 0.20071 0.51406 0.91532 0.0
C832 C 0.15131 0.54692 0.85267 0.0
C833 C 0.13564 0.51821 0.80572 0.0
N834 N 0.14287 0.46233 0.74062 0.0
N835 N 0.20097 0.57321 0.93211 0.0
C836 C 0.15447 0.48825 0.80374 0.0
C837 C 0.18429 0.54511 0.90138 0.0
N838 N 0.20059 0.45559 0.87959 0.0
N839 N 0.13461 0.57622 0.85048 0.0
H840 H 0.22516 0.57252 0.96377 0.0
H841 H 0.19251 0.59712 0.91669 0.0
H842 H 0.11217 0.57894 0.80768 0.0
H843 H 0.14201 0.59737 0.89445 0.0
H844 H 0.18974 0.43314 0.85685 0.0
H845 H 0.22364 0.45314 0.91938 0.0
H846 H 0.15654 0.44104 0.72378 0.0
H847 H 0.12022 0.46329 0.6979 0.0
C848 C 0.03076 0.88811 0.44995 0.0
C849 C 1.01268 0.86061 0.49499 0.0
C850 C 0.99916 0.89707 0.66352 0.0
C851 C 1.01491 0.92531 0.6125 0.0
N852 N 0.03754 0.94768 0.43892 0.0
N853 N 0.97691 0.8407 0.6437 0.0
C854 C 0.02858 0.92061 0.50104 0.0
C855 C 0.99636 0.86563 0.60227 0.0
N856 N 0.05072 0.88314 0.35735 0.0
N857 N 0.98656 0.90034 0.77107 0.0
H858 H 0.97516 0.8177 0.6035 0.0
H859 H 0.9613 0.84312 0.71386 0.0
H860 H 0.98679 0.92283 0.81477 0.0
H861 H 0.97754 0.88068 0.81936 0.0
H862 H 0.06705 0.90102 0.3264 0.0
H863 H 0.0535 0.85995 0.31915 0.0
H864 H 0.04359 0.94674 0.35242 0.0
H865 H 0.03633 0.97152 0.47216 0.0
C866 C 0.6631 0.04521 0.49043 0.0
C867 C 0.68716 0.02308 0.53524 0.0
C868 C 0.64721 1.011 0.69318 0.0
C869 C 0.6209 0.02809 0.63504 0.0
N870 N 0.60526 0.05797 0.46352 0.0
N871 N 0.70087 0.98305 0.67905 0.0
C872 C 0.62941 0.04432 0.52997 0.0
C873 C 0.67892 1.00573 0.63744 0.0
N874 N 0.67249 0.06696 0.40708 0.0
N875 N 0.64216 0.99947 0.80142 0.0
H876 H 0.72432 0.9798 0.64313 0.0
H877 H 0.69522 0.9665 0.7445 0.0
H878 H 0.61978 1.00216 0.84442 0.0
H879 H 0.66103 0.98979 0.85226 0.0
H880 H 0.65739 0.08612 0.37791 0.0
H881 H 0.69676 0.06797 0.37632 0.0
H882 H 0.60936 0.06664 0.38084 0.0
H883 H 0.58049 0.05799 0.48592 0.0
C884 C 0.5147 0.66803 0.43199 0.0
C885 C 0.54485 0.68654 0.43857 0.0
C886 C 0.56401 0.64496 0.58445 0.0
C887 C 0.5362 0.62339 0.56521 0.0
N888 N 0.48358 0.61729 0.46698 0.0
N889 N 0.59975 0.6898 0.51724 0.0
C890 C 0.51101 0.63605 0.48895 0.0
C891 C 0.56978 0.67411 0.51405 0.0
N892 N 0.4889 0.68151 0.37208 0.0
N893 N 0.58409 0.63904 0.67612 0.0
H894 H 0.60448 0.71151 0.47163 0.0
H895 H 0.62044 0.68011 0.55877 0.0
H896 H 0.57973 0.6198 0.73327 0.0
H897 H 0.60252 0.65534 0.70327 0.0
H898 H 0.46484 0.67221 0.37304 0.0
H899 H 0.49087 0.70402 0.32873 0.0
H900 H 0.46704 0.62207 0.40065 0.0
H901 H 0.47798 0.59552 0.50985 0.0
C902 C 0.87399 0.54809 0.58517 0.0
C903 C 0.86887 0.53166 0.4779 0.0
C904 C 0.92866 0.51478 0.48714 0.0
C905 C 0.93337 0.52853 0.59859 0.0
N906 N 0.90778 0.55596 0.75776 0.0
N907 N 0.891 0.49215 0.34438 0.0
C908 C 0.90507 0.54438 0.64862 0.0
C909 C 0.89617 0.51277 0.43525 0.0
N910 N 0.84967 0.56854 0.62462 0.0
N911 N 0.95572 0.50533 0.42594 0.0
H912 H 0.86777 0.48923 0.30627 0.0
H913 H 0.90873 0.47541 0.31531 0.0
H914 H 0.97956 0.50654 0.4595 0.0
H915 H 0.95473 0.49895 0.33968 0.0
H916 H 0.85257 0.58427 0.6944 0.0
H917 H 0.827 0.57122 0.58266 0.0
H918 H 0.88787 0.56499 0.80469 0.0
H919 H 0.92978 0.55429 0.80429 0.0
loop_
_geom_bond_atom_site_label_1
_geom_bond_atom_site_label_2
_geom_bond_distance
_geom_bond_site_symmetry_2
_ccdc_geom_bond_type
H0 C1 0.949 . S
C1 H0 0.949 . S
C1 C2 1.395 . S
C1 C3 1.391 . S
C2 C1 1.395 . S
C2 C5 1.390 . S
C3 C1 1.391 . S
C3 C7 1.387 . S
C3 C8 1.491 . S
H4 C5 0.950 . S
C5 C2 1.390 . S
C5 H4 0.950 . S
C5 C6 1.378 . S
C6 C5 1.378 . S
C6 C7 1.409 . S
C7 C3 1.387 . S
C7 C6 1.409 . S
C7 H9 0.951 . S
C8 C3 1.491 . S
C8 C10 1.382 . S
C8 C12 1.404 . S
H9 C7 0.951 . S
C10 C8 1.382 . S
C10 C11 1.390 . S
C10 H15 0.949 . S
C11 C10 1.390 . S
C11 C16 1.399 . S
C12 C8 1.404 . S
C12 H13 0.950 . S
C12 C14 1.375 . S
H13 C12 0.950 . S
C14 C12 1.375 . S
C14 C16 1.382 . S
C14 H18 0.950 . S
H15 C10 0.949 . S
C16 C11 1.399 . S
C16 C14 1.382 . S
C16 H17 0.952 . S
H17 C16 0.952 . S
H18 C14 0.950 . S
H19 C20 0.949 . S
C20 H19 0.949 . S
C20 C21 1.395 . S
C20 C22 1.391 . S
C21 C20 1.395 . S
C21 C24 1.390 . S
C22 C20 1.391 . S
C22 C26 1.387 . S
C22 C27 1.491 . S
H23 C24 0.950 . S
C24 C21 1.390 . S
C24 H23 0.950 . S
C24 C25 1.378 . S
C25 C24 1.378 . S
C25 C26 1.409 . S
C26 C22 1.387 . S
C26 C25 1.409 . S
C26 H28 0.951 . S
C27 C22 1.491 . S
C27 C29 1.382 . S
C27 C31 1.404 . S
H28 C26 0.951 . S
C29 C27 1.382 . S
C29 C30 1.390 . S
C29 H34 0.949 . S
C30 C29 1.390 . S
C30 C35 1.399 . S
C31 C27 1.404 . S
C31 H32 0.950 . S
C31 C33 1.375 . S
H32 C31 0.950 . S
C33 C31 1.375 . S
C33 C35 1.382 . S
C33 H37 0.950 . S
H34 C29 0.949 . S
C35 C30 1.399 . S
C35 C33 1.382 . S
C35 H36 0.952 . S
H36 C35 0.952 . S
H37 C33 0.950 . S
H38 C39 0.949 . S
C39 H38 0.949 . S
C39 C40 1.395 . S
C39 C41 1.391 . S
C40 C39 1.395 . S
C40 C43 1.390 . S
C41 C39 1.391 . S
C41 C45 1.387 . S
C41 C46 1.491 . S
H42 C43 0.950 . S
C43 C40 1.390 . S
C43 H42 0.950 . S
C43 C44 1.378 . S
C44 C43 1.378 . S
C44 C45 1.409 . S
C45 C41 1.387 . S
C45 C44 1.409 . S
C45 H47 0.951 . S
C46 C41 1.491 . S
C46 C48 1.382 . S
C46 C50 1.404 . S
H47 C45 0.951 . S
C48 C46 1.382 . S
C48 C49 1.390 . S
C48 H53 0.949 . S
C49 C48 1.390 . S
C49 C54 1.399 . S
C50 C46 1.404 . S
C50 H51 0.950 . S
C50 C52 1.375 . S
H51 C50 0.950 . S
C52 C50 1.375 . S
C52 C54 1.382 . S
C52 H56 0.950 . S
H53 C48 0.949 . S
C54 C49 1.399 . S
C54 C52 1.382 . S
C54 H55 0.952 . S
H55 C54 0.952 . S
H56 C52 0.950 . S
H57 C58 0.949 . S
C58 H57 0.949 . S
C58 C59 1.395 . S
C58 C60 1.391 . S
C59 C58 1.395 . S
C59 C62 1.390 . S
C60 C58 1.391 . S
C60 C64 1.387 . S
C60 C65 1.491 . S
H61 C62 0.950 . S
C62 C59 1.390 . S
C62 H61 0.950 . S
C62 C63 1.378 . S
C63 C62 1.378 . S
C63 C64 1.409 . S
C64 C60 1.387 . S
C64 C63 1.409 . S
C64 H66 0.951 . S
C65 C60 1.491 . S
C65 C67 1.382 . S
C65 C69 1.404 . S
H66 C64 0.951 . S
C67 C65 1.382 . S
C67 C68 1.390 . S
C67 H72 0.949 . S
C68 C67 1.390 . S
C68 C73 1.399 . S
C69 C65 1.404 . S
C69 H70 0.950 . S
C69 C71 1.375 . S
H70 C69 0.950 . S
C71 C69 1.375 . S
C71 C73 1.382 . S
C71 H75 0.950 . S
H72 C67 0.949 . S
C73 C68 1.399 . S
C73 C71 1.382 . S
C73 H74 0.952 . S
H74 C73 0.952 . S
H75 C71 0.950 . S
H76 C77 0.949 . S
C77 H76 0.949 . S
C77 C78 1.395 . S
C77 C79 1.391 . S
C78 C77 1.395 . S
C78 C81 1.390 1_554 S
C79 C77 1.391 . S
C79 C83 1.387 1_554 S
C79 C84 1.491 . S
H80 C81 0.950 . S
C81 C78 1.390 1_556 S
C81 H80 0.950 . S
C81 C82 1.378 . S
C82 C81 1.378 . S
C82 C83 1.409 . S
C83 C79 1.387 1_556 S
C83 C82 1.409 . S
C83 H85 0.951 . S
C84 C79 1.491 . S
C84 C86 1.382 . S
C84 C88 1.404 1_554 S
H85 C83 0.951 . S
C86 C84 1.382 . S
C86 C87 1.390 . S
C86 H91 0.949 . S
C87 C86 1.390 . S
C87 C92 1.399 . S
C88 C84 1.404 1_556 S
C88 H89 0.950 . S
C88 C90 1.375 . S
H89 C88 0.950 . S
C90 C88 1.375 . S
C90 C92 1.382 1_556 S
C90 H94 0.950 . S
H91 C86 0.949 . S
C92 C87 1.399 . S
C92 C90 1.382 1_554 S
C92 H93 0.952 . S
H93 C92 0.952 . S
H94 C90 0.950 . S
H95 C96 0.949 . S
C96 H95 0.949 . S
C96 C97 1.395 . S
C96 C98 1.391 . S
C97 C96 1.395 . S
C97 C100 1.390 1_554 S
C98 C96 1.391 . S
C98 C102 1.387 1_554 S
C98 C103 1.491 . S
H99 C100 0.950 . S
C100 C97 1.390 1_556 S
C100 H99 0.950 . S
C100 C101 1.378 . S
C101 C100 1.378 . S
C101 C102 1.409 . S
C102 C98 1.387 1_556 S
C102 C101 1.409 . S
C102 H104 0.951 . S
C103 C98 1.491 . S
C103 C105 1.382 . S
C103 C107 1.404 1_454 S
H104 C102 0.951 . S
C105 C103 1.382 . S
C105 C106 1.390 . S
C105 H110 0.949 . S
C106 C105 1.390 . S
C106 C111 1.399 . S
C107 C103 1.404 1_656 S
C107 H108 0.950 . S
C107 C109 1.375 . S
H108 C107 0.950 . S
C109 C107 1.375 . S
C109 C111 1.382 1_656 S
C109 H113 0.950 . S
H110 C105 0.949 . S
C111 C106 1.399 . S
C111 C109 1.382 1_454 S
C111 H112 0.952 1_455 S
H112 C111 0.952 1_655 S
H113 C109 0.950 . S
H114 C115 0.949 . S
C115 H114 0.949 . S
C115 C116 1.395 . S
C115 C117 1.391 . S
C116 C115 1.395 . S
C116 C119 1.390 1_554 S
C117 C115 1.391 . S
C117 C121 1.387 1_554 S
C117 C122 1.491 . S
H118 C119 0.950 . S
C119 C116 1.390 1_556 S
C119 H118 0.950 . S
C119 C120 1.378 . S
C120 C119 1.378 . S
C120 C121 1.409 . S
C121 C117 1.387 1_556 S
C121 C120 1.409 . S
C121 H123 0.951 . S
C122 C117 1.491 . S
C122 C124 1.382 . S
C122 C126 1.404 1_544 S
H123 C121 0.951 . S
C124 C122 1.382 . S
C124 C125 1.390 . S
C124 H129 0.949 . S
C125 C124 1.390 . S
C125 C130 1.399 . S
C126 C122 1.404 1_566 S
C126 H127 0.950 . S
C126 C128 1.375 . S
H127 C126 0.950 . S
C128 C126 1.375 . S
C128 C130 1.382 1_566 S
C128 H132 0.950 . S
H129 C124 0.949 . S
C130 C125 1.399 . S
C130 C128 1.382 1_544 S
C130 H131 0.952 1_545 S
H131 C130 0.952 1_565 S
H132 C128 0.950 . S
H133 C134 0.949 . S
C134 H133 0.949 . S
C134 C135 1.395 . S
C134 C136 1.391 1_554 S
C135 C134 1.395 . S
C135 C138 1.390 1_554 S
C136 C134 1.391 1_556 S
C136 C140 1.387 . S
C136 C141 1.491 1_556 S
H137 C138 0.950 . S
C138 C135 1.390 1_556 S
C138 H137 0.950 . S
C138 C139 1.378 . S
C139 C138 1.378 . S
C139 C140 1.409 . S
C140 C136 1.387 . S
C140 C139 1.409 . S
C140 H142 0.951 . S
C141 C136 1.491 1_554 S
C141 C143 1.382 . S
C141 C145 1.404 1_554 S
H142 C140 0.951 . S
C143 C141 1.382 . S
C143 C144 1.390 . S
C143 H148 0.949 . S
C144 C143 1.390 . S
C144 C149 1.399 . S
C145 C141 1.404 1_556 S
C145 H146 0.950 . S
C145 C147 1.375 . S
H146 C145 0.950 . S
C147 C145 1.375 . S
C147 C149 1.382 1_556 S
C147 H151 0.950 . S
H148 C143 0.949 . S
C149 C144 1.399 . S
C149 C147 1.382 1_554 S
C149 H150 0.952 . S
H150 C149 0.952 . S
H151 C147 0.950 . S
Eu152 N181 2.600 . S
Eu152 N187 2.562 . S
Eu152 O196 2.459 1_655 S
Eu152 O197 2.373 1_545 S
Eu152 O199 2.432 . S
Eu152 O200 2.291 1_655 S
Eu152 O204 2.335 1_655 S
Eu152 O207 2.372 . S
Eu152 C216 2.787 . S
C153 N154 1.365 1_554 S
C153 C156 1.405 . S
C153 C160 1.448 . S
N154 C153 1.365 1_556 S
N154 C157 1.319 . S
N154 Eu163 2.600 1_545 S
C155 C157 1.397 . S
C155 C158 1.367 . S
C155 H175 0.931 . S
C156 C153 1.405 . S
C156 C158 1.403 1_554 S
C156 C162 1.439 . S
C157 N154 1.319 . S
C157 C155 1.397 . S
C157 H168 0.930 1_545 S
C158 C155 1.367 . S
C158 C156 1.403 1_556 S
C158 H179 0.929 1_556 S
C159 C160 1.430 . S
C159 C161 1.387 . S
C159 C165 1.404 . S
C160 C153 1.448 . S
C160 C159 1.430 . S
C160 N164 1.351 . S
C161 C159 1.387 . S
C161 C162 1.374 . S
C161 H176 0.931 . S
C162 C156 1.439 . S
C162 C161 1.374 . S
C162 H177 0.931 . S
Eu163 N154 2.600 1_565 S
Eu163 N164 2.562 1_566 S
Eu163 O198 2.335 . S
Eu163 O201 2.372 . S
Eu163 O202 2.462 . S
Eu163 O203 2.373 1_565 S
Eu163 O205 2.432 . S
Eu163 O206 2.291 1_465 S
Eu163 C227 2.787 . S
N164 C160 1.351 . S
N164 Eu163 2.562 1_544 S
N164 C166 1.325 . S
C165 C159 1.404 . S
C165 C167 1.366 . S
C165 H173 0.930 . S
C166 N164 1.325 . S
C166 C167 1.416 . S
C166 H172 0.929 1_455 S
C167 C165 1.366 . S
C167 C166 1.416 . S
C167 H169 0.930 1_455 S
H168 C157 0.930 1_565 S
H169 C167 0.930 1_655 S
H170 C185 0.930 . S
H171 C192 0.930 . S
H172 C166 0.929 1_655 S
H173 C165 0.930 . S
H174 C188 0.929 . S
H175 C155 0.931 . S
H176 C161 0.931 . S
H177 C162 0.931 . S
H178 C183 0.931 . S
H179 C158 0.929 1_554 S
H180 C191 0.930 . S
N181 Eu152 2.600 . S
N181 C182 1.365 1_545 S
N181 C185 1.319 . S
C182 N181 1.365 1_565 S
C182 C184 1.405 . S
C182 C190 1.448 . S
C183 H178 0.931 . S
C183 C185 1.397 . S
C183 C186 1.367 1_545 S
C184 C182 1.405 . S
C184 C186 1.403 . S
C184 C217 1.439 . S
C185 H170 0.930 . S
C185 N181 1.319 . S
C185 C183 1.397 . S
C186 C183 1.367 1_565 S
C186 C184 1.403 . S
C186 H193 0.929 . S
N187 Eu152 2.562 . S
N187 C188 1.325 1_655 S
N187 C190 1.351 1_545 S
C188 H174 0.929 . S
C188 N187 1.325 1_455 S
C188 C192 1.416 1_545 S
C189 C190 1.430 . S
C189 C191 1.404 . S
C189 C218 1.387 . S
C190 C182 1.448 . S
C190 N187 1.351 1_565 S
C190 C189 1.430 . S
C191 H180 0.930 . S
C191 C189 1.404 . S
C191 C192 1.366 1_655 S
C192 H171 0.930 . S
C192 C188 1.416 1_565 S
C192 C191 1.366 1_455 S
H193 C186 0.929 . S
H194 C217 0.931 . S
H195 C218 0.931 . S
O196 Eu152 2.459 1_455 S
O196 C216 1.245 1_455 S
O197 Eu152 2.373 1_565 S
O197 C208 1.249 . S
O198 Eu163 2.335 . S
O198 C208 1.264 1_455 S
O199 Eu152 2.432 . S
O199 C216 1.268 . S
O200 Eu152 2.291 1_455 S
O200 C215 1.255 . S
O201 Eu163 2.372 . S
O201 C215 1.257 1_565 S
O202 Eu163 2.462 . S
O202 C227 1.252 . S
O203 Eu163 2.373 1_545 S
O203 C219 1.249 . S
O204 Eu152 2.335 1_455 S
O204 C219 1.264 . S
O205 Eu163 2.432 . S
O205 C227 1.268 . S
O206 Eu163 2.291 1_645 S
O206 C226 1.255 . S
O207 Eu152 2.372 . S
O207 C226 1.257 . S
C208 O197 1.249 . S
C208 O198 1.264 1_655 S
C209 C212 1.382 . S
C209 C214 1.390 . S
C209 C216 1.506 . S
C210 C211 1.398 . S
C210 C214 1.392 . S
C211 C210 1.398 . S
C211 C213 1.372 . S
C211 H228 0.931 . S
C212 C209 1.382 . S
C212 C213 1.390 . S
C212 H229 0.931 . S
C213 C211 1.372 . S
C213 C212 1.390 . S
C213 H230 0.929 . S
C214 C209 1.390 . S
C214 C210 1.392 . S
C214 H231 0.930 1_655 S
C215 O200 1.255 . S
C215 O201 1.257 1_545 S
C216 Eu152 2.787 . S
C216 O196 1.245 1_655 S
C216 O199 1.268 . S
C216 C209 1.506 . S
C217 C184 1.439 . S
C217 H194 0.931 . S
C217 C218 1.374 . S
C218 C189 1.387 . S
C218 H195 0.931 . S
C218 C217 1.374 . S
C219 O203 1.249 . S
C219 O204 1.264 . S
C220 C223 1.382 . S
C220 C224 1.390 . S
C220 C227 1.506 1_554 S
C221 C222 1.398 . S
C221 C224 1.392 . S
C222 C221 1.398 . S
C222 C225 1.372 . S
C222 H232 0.931 . S
C223 C220 1.382 . S
C223 C225 1.390 . S
C223 H233 0.931 1_554 S
C224 C220 1.390 . S
C224 C221 1.392 . S
C224 H234 0.930 . S
C225 C222 1.372 . S
C225 C223 1.390 . S
C225 H235 0.929 . S
C226 O206 1.255 . S
C226 O207 1.257 . S
C227 Eu163 2.787 . S
C227 O202 1.252 . S
C227 O205 1.268 . S
C227 C220 1.506 1_556 S
H228 C211 0.931 . S
H229 C212 0.931 . S
H230 C213 0.929 . S
H231 C214 0.930 1_455 S
H232 C222 0.931 . S
H233 C223 0.931 1_556 S
H234 C224 0.930 . S
H235 C225 0.929 . S
Eu236 N265 2.600 . S
Eu236 N271 2.562 . S
Eu236 O280 2.462 . S
Eu236 O281 2.373 . S
Eu236 O283 2.432 1_556 S
Eu236 O284 2.291 . S
Eu236 O288 2.335 1_545 S
Eu236 O291 2.372 . S
Eu236 C300 2.787 1_556 S
C237 N238 1.365 . S
C237 C240 1.405 . S
C237 C244 1.448 . S
N238 C237 1.365 . S
N238 C241 1.319 . S
N238 Eu247 2.600 . S
C239 C241 1.397 . S
C239 C242 1.367 . S
C239 H259 0.931 . S
C240 C237 1.405 . S
C240 C242 1.403 . S
C240 C246 1.439 . S
C241 N238 1.319 . S
C241 C239 1.397 . S
C241 H252 0.930 . S
C242 C239 1.367 . S
C242 C240 1.403 . S
C242 H263 0.929 . S
C243 C244 1.430 . S
C243 C245 1.387 . S
C243 C249 1.404 . S
C244 C237 1.448 . S
C244 C243 1.430 . S
C244 N248 1.351 . S
C245 C243 1.387 . S
C245 C246 1.374 . S
C245 H260 0.931 . S
C246 C240 1.439 . S
C246 C245 1.374 . S
C246 H261 0.931 . S
Eu247 N238 2.600 . S
Eu247 N248 2.562 . S
Eu247 O282 2.335 1_565 S
Eu247 O285 2.372 . S
Eu247 O286 2.462 . S
Eu247 O287 2.373 . S
Eu247 O289 2.432 . S
Eu247 O290 2.287 1_565 S
Eu247 C311 2.787 . S
N248 C244 1.351 . S
N248 Eu247 2.562 . S
N248 C250 1.325 . S
C249 C243 1.404 . S
C249 C251 1.366 . S
C249 H257 0.930 . S
C250 N248 1.325 . S
C250 C251 1.416 . S
C250 H256 0.929 . S
C251 C249 1.366 . S
C251 C250 1.416 . S
C251 H253 0.930 . S
H252 C241 0.930 . S
H253 C251 0.930 . S
H254 C269 0.930 . S
H255 C276 0.930 . S
H256 C250 0.929 . S
H257 C249 0.930 . S
H258 C272 0.929 . S
H259 C239 0.931 . S
H260 C245 0.931 . S
H261 C246 0.931 . S
H262 C267 0.931 . S
H263 C242 0.929 . S
H264 C275 0.930 . S
N265 Eu236 2.600 . S
N265 C266 1.365 . S
N265 C269 1.319 1_556 S
C266 N265 1.365 . S
C266 C268 1.405 . S
C266 C274 1.448 . S
C267 H262 0.931 . S
C267 C269 1.397 . S
C267 C270 1.367 . S
C268 C266 1.405 . S
C268 C270 1.403 1_556 S
C268 C301 1.439 . S
C269 H254 0.930 . S
C269 N265 1.319 1_554 S
C269 C267 1.397 . S
C270 C267 1.367 . S
C270 C268 1.403 1_554 S
C270 H277 0.929 . S
N271 Eu236 2.562 . S
N271 C272 1.325 . S
N271 C274 1.351 . S
C272 H258 0.929 . S
C272 N271 1.325 . S
C272 C276 1.416 . S
C273 C274 1.430 . S
C273 C275 1.404 . S
C273 C302 1.387 . S
C274 C266 1.448 . S
C274 N271 1.351 . S
C274 C273 1.430 . S
C275 H264 0.930 . S
C275 C273 1.404 . S
C275 C276 1.366 . S
C276 H255 0.930 . S
C276 C272 1.416 . S
C276 C275 1.366 . S
H277 C270 0.929 . S
H278 C301 0.931 . S
H279 C302 0.931 . S
O280 Eu236 2.462 . S
O280 C300 1.252 1_556 S
O281 Eu236 2.373 . S
O281 C292 1.249 . S
O282 Eu247 2.335 1_545 S
O282 C292 1.264 . S
O283 Eu236 2.432 1_554 S
O283 C300 1.268 . S
O284 Eu236 2.291 . S
O284 C299 1.235 1_545 S
O285 Eu247 2.372 . S
O285 C299 1.271 . S
O286 Eu247 2.462 . S
O286 C311 1.252 . S
O287 Eu247 2.373 . S
O287 C303 1.249 . S
O288 Eu236 2.335 1_565 S
O288 C303 1.264 . S
O289 Eu247 2.432 . S
O289 C311 1.268 . S
O290 Eu247 2.287 1_545 S
O290 C310 1.261 . S
O291 Eu236 2.372 . S
O291 C310 1.257 . S
C292 O281 1.249 . S
C292 O282 1.264 . S
C293 C296 1.382 . S
C293 C298 1.390 . S
C293 C300 1.506 . S
C294 C295 1.398 . S
C294 C298 1.392 . S
C295 C294 1.398 . S
C295 C297 1.372 . S
C295 H312 0.931 . S
C296 C293 1.382 . S
C296 C297 1.390 . S
C296 H313 0.931 . S
C297 C295 1.372 . S
C297 C296 1.390 . S
C297 H314 0.929 . S
C298 C293 1.390 . S
C298 C294 1.392 . S
C298 H315 0.930 . S
C299 O284 1.235 1_565 S
C299 O285 1.271 . S
C300 Eu236 2.787 1_554 S
C300 O280 1.252 1_554 S
C300 O283 1.268 . S
C300 C293 1.506 . S
C301 C268 1.439 . S
C301 H278 0.931 . S
C301 C302 1.374 . S
C302 C273 1.387 . S
C302 H279 0.931 . S
C302 C301 1.374 . S
C303 O287 1.249 . S
C303 O288 1.264 . S
C304 C307 1.382 . S
C304 C308 1.393 . S
C304 C311 1.506 . S
C305 C306 1.393 1_545 S
C305 C308 1.391 1_545 S
C306 C305 1.393 1_565 S
C306 C309 1.372 . S
C306 H316 0.931 . S
C307 C304 1.382 . S
C307 C309 1.390 . S
C307 H317 0.931 . S
C308 C304 1.393 . S
C308 C305 1.391 1_565 S
C308 H318 0.927 1_565 S
C309 C306 1.372 . S
C309 C307 1.390 . S
C309 H319 0.929 . S
C310 O290 1.261 . S
C310 O291 1.257 . S
C311 Eu247 2.787 . S
C311 O286 1.252 . S
C311 O289 1.268 . S
C311 C304 1.506 . S
H312 C295 0.931 . S
H313 C296 0.931 . S
H314 C297 0.929 . S
H315 C298 0.930 . S
H316 C306 0.931 . S
H317 C307 0.931 . S
H318 C308 0.927 1_545 S
H319 C309 0.929 . S
Eu320 N349 2.600 . S
Eu320 N355 2.562 . S
Eu320 O364 2.462 . S
Eu320 O365 2.373 . S
Eu320 O367 2.432 . S
Eu320 O368 2.291 . S
Eu320 O372 2.335 . S
Eu320 O375 2.372 . S
Eu320 C384 2.787 . S
C321 N322 1.365 1_554 S
C321 C324 1.405 . S
C321 C328 1.448 . S
N322 C321 1.365 1_556 S
N322 C325 1.319 . S
N322 Eu331 2.600 . S
C323 C325 1.397 . S
C323 C326 1.367 . S
C323 H343 0.931 . S
C324 C321 1.405 . S
C324 C326 1.403 1_554 S
C324 C330 1.439 . S
C325 N322 1.319 . S
C325 C323 1.397 . S
C325 H336 0.930 . S
C326 C323 1.367 . S
C326 C324 1.403 1_556 S
C326 H347 0.929 1_556 S
C327 C328 1.430 . S
C327 C329 1.387 . S
C327 C333 1.404 . S
C328 C321 1.448 . S
C328 C327 1.430 . S
C328 N332 1.351 . S
C329 C327 1.387 . S
C329 C330 1.374 . S
C329 H344 0.931 . S
C330 C324 1.439 . S
C330 C329 1.374 . S
C330 H345 0.931 . S
Eu331 N322 2.600 . S
Eu331 N332 2.562 1_556 S
Eu331 O366 2.335 . S
Eu331 O369 2.372 . S
Eu331 O370 2.462 . S
Eu331 O371 2.373 . S
Eu331 O373 2.432 . S
Eu331 O374 2.291 . S
Eu331 C395 2.787 . S
N332 C328 1.351 . S
N332 Eu331 2.562 1_554 S
N332 C334 1.325 . S
C333 C327 1.404 . S
C333 C335 1.366 . S
C333 H341 0.930 . S
C334 N332 1.325 . S
C334 C335 1.416 . S
C334 H340 0.929 . S
C335 C333 1.366 . S
C335 C334 1.416 . S
C335 H337 0.930 . S
H336 C325 0.930 . S
H337 C335 0.930 . S
H338 C353 0.930 . S
H339 C360 0.930 . S
H340 C334 0.929 . S
H341 C333 0.930 . S
H342 C356 0.929 . S
H343 C323 0.931 . S
H344 C329 0.931 . S
H345 C330 0.931 . S
H346 C351 0.931 . S
H347 C326 0.929 1_554 S
H348 C359 0.930 . S
N349 Eu320 2.600 . S
N349 C350 1.365 . S
N349 C353 1.319 . S
C350 N349 1.365 . S
C350 C352 1.405 . S
C350 C358 1.448 . S
C351 H346 0.931 . S
C351 C353 1.397 . S
C351 C354 1.367 . S
C352 C350 1.405 . S
C352 C354 1.403 . S
C352 C385 1.439 . S
C353 H338 0.930 . S
C353 N349 1.319 . S
C353 C351 1.397 . S
C354 C351 1.367 . S
C354 C352 1.403 . S
C354 H361 0.929 . S
N355 Eu320 2.562 . S
N355 C356 1.325 . S
N355 C358 1.351 . S
C356 H342 0.929 . S
C356 N355 1.325 . S
C356 C360 1.416 . S
C357 C358 1.430 . S
C357 C359 1.404 . S
C357 C386 1.387 . S
C358 C350 1.448 . S
C358 N355 1.351 . S
C358 C357 1.430 . S
C359 H348 0.930 . S
C359 C357 1.404 . S
C359 C360 1.366 . S
C360 H339 0.930 . S
C360 C356 1.416 . S
C360 C359 1.366 . S
H361 C354 0.929 . S
H362 C385 0.931 . S
H363 C386 0.931 . S
O364 Eu320 2.462 . S
O364 C384 1.252 . S
O365 Eu320 2.373 . S
O365 C376 1.249 . S
O366 Eu331 2.335 . S
O366 C376 1.264 . S
O367 Eu320 2.432 . S
O367 C384 1.268 . S
O368 Eu320 2.291 . S
O368 C383 1.255 . S
O369 Eu331 2.372 . S
O369 C383 1.257 . S
O370 Eu331 2.462 . S
O370 C395 1.252 . S
O371 Eu331 2.373 . S
O371 C387 1.249 . S
O372 Eu320 2.335 . S
O372 C387 1.264 . S
O373 Eu331 2.432 . S
O373 C395 1.268 . S
O374 Eu331 2.291 . S
O374 C394 1.255 . S
O375 Eu320 2.372 . S
O375 C394 1.257 . S
C376 O365 1.249 . S
C376 O366 1.264 . S
C377 C380 1.382 . S
C377 C382 1.390 . S
C377 C384 1.506 . S
C378 C379 1.398 . S
C378 C382 1.392 . S
C379 C378 1.398 . S
C379 C381 1.372 . S
C379 H396 0.931 . S
C380 C377 1.382 . S
C380 C381 1.390 . S
C380 H397 0.931 . S
C381 C379 1.372 . S
C381 C380 1.390 . S
C381 H398 0.929 . S
C382 C377 1.390 . S
C382 C378 1.392 . S
C382 H399 0.930 . S
C383 O368 1.255 . S
C383 O369 1.257 . S
C384 Eu320 2.787 . S
C384 O364 1.252 . S
C384 O367 1.268 . S
C384 C377 1.506 . S
C385 C352 1.439 . S
C385 H362 0.931 . S
C385 C386 1.374 . S
C386 C357 1.387 . S
C386 H363 0.931 . S
C386 C385 1.374 . S
C387 O371 1.249 . S
C387 O372 1.264 . S
C388 C391 1.382 . S
C388 C392 1.390 . S
C388 C395 1.506 1_554 S
C389 C390 1.398 . S
C389 C392 1.392 . S
C390 C389 1.398 . S
C390 C393 1.372 . S
C390 H400 0.931 . S
C391 C388 1.382 . S
C391 C393 1.390 . S
C391 H401 0.931 1_554 S
C392 C388 1.390 . S
C392 C389 1.392 . S
C392 H402 0.930 . S
C393 C390 1.372 . S
C393 C391 1.390 . S
C393 H403 0.929 . S
C394 O374 1.255 . S
C394 O375 1.257 . S
C395 Eu331 2.787 . S
C395 O370 1.252 . S
C395 O373 1.268 . S
C395 C388 1.506 1_556 S
H396 C379 0.931 . S
H397 C380 0.931 . S
H398 C381 0.929 . S
H399 C382 0.930 . S
H400 C390 0.931 . S
H401 C391 0.931 1_556 S
H402 C392 0.930 . S
H403 C393 0.929 . S
Eu404 N433 2.600 . S
Eu404 N439 2.562 . S
Eu404 O448 2.462 . S
Eu404 O449 2.373 1_455 S
Eu404 O451 2.432 . S
Eu404 O452 2.291 . S
Eu404 O456 2.335 . S
Eu404 O459 2.372 . S
Eu404 C468 2.787 . S
C405 N406 1.365 1_554 S
C405 C408 1.405 . S
C405 C412 1.448 . S
N406 C405 1.365 1_556 S
N406 C409 1.322 . S
N406 Eu415 2.600 1_455 S
C407 C409 1.407 . S
C407 C410 1.367 . S
C407 H427 0.931 . S
C408 C405 1.405 . S
C408 C410 1.403 1_554 S
C408 C414 1.439 . S
C409 N406 1.322 . S
C409 C407 1.407 . S
C409 H420 0.916 1_455 S
C410 C407 1.367 . S
C410 C408 1.403 1_556 S
C410 H431 0.929 1_556 S
C411 C412 1.430 . S
C411 C413 1.387 . S
C411 C417 1.404 . S
C412 C405 1.448 . S
C412 C411 1.430 . S
C412 N416 1.351 . S
C413 C411 1.387 . S
C413 C414 1.374 . S
C413 H428 0.931 . S
C414 C408 1.439 . S
C414 C413 1.374 . S
C414 H429 0.931 . S
Eu415 N406 2.600 1_655 S
Eu415 N416 2.562 1_656 S
Eu415 O450 2.335 . S
Eu415 O453 2.372 . S
Eu415 O454 2.462 . S
Eu415 O455 2.373 1_655 S
Eu415 O457 2.432 . S
Eu415 O458 2.291 1_655 S
Eu415 C479 2.787 . S
N416 C412 1.351 . S
N416 Eu415 2.562 1_454 S
N416 C418 1.325 . S
C417 C411 1.404 . S
C417 C419 1.366 . S
C417 H425 0.930 . S
C418 N416 1.325 . S
C418 C419 1.416 . S
C418 H424 0.929 . S
C419 C417 1.366 . S
C419 C418 1.416 . S
C419 H421 0.930 . S
H420 C409 0.916 1_655 S
H421 C419 0.930 . S
H422 C437 0.930 . S
H423 C444 0.930 . S
H424 C418 0.929 . S
H425 C417 0.930 . S
H426 C440 0.929 . S
H427 C407 0.931 . S
H428 C413 0.931 . S
H429 C414 0.931 . S
H430 C435 0.931 . S
H431 C410 0.929 1_554 S
H432 C443 0.930 . S
N433 Eu404 2.600 . S
N433 C434 1.365 1_455 S
N433 C437 1.319 . S
C434 N433 1.365 1_655 S
C434 C436 1.405 . S
C434 C442 1.448 . S
C435 H430 0.931 . S
C435 C437 1.397 . S
C435 C438 1.367 1_455 S
C436 C434 1.405 . S
C436 C438 1.403 . S
C436 C469 1.439 . S
C437 H422 0.930 . S
C437 N433 1.319 . S
C437 C435 1.397 . S
C438 C435 1.367 1_655 S
C438 C436 1.403 . S
C438 H445 0.929 . S
N439 Eu404 2.562 . S
N439 C440 1.325 . S
N439 C442 1.351 1_455 S
C440 H426 0.929 . S
C440 N439 1.325 . S
C440 C444 1.416 1_455 S
C441 C442 1.430 . S
C441 C443 1.404 . S
C441 C470 1.387 . S
C442 C434 1.448 . S
C442 N439 1.351 1_655 S
C442 C441 1.430 . S
C443 H432 0.930 . S
C443 C441 1.404 . S
C443 C444 1.366 . S
C444 H423 0.930 . S
C444 C440 1.416 1_655 S
C444 C443 1.366 . S
H445 C438 0.929 . S
H446 C469 0.931 . S
H447 C470 0.931 . S
O448 Eu404 2.462 . S
O448 C468 1.252 . S
O449 Eu404 2.373 1_655 S
O449 C460 1.249 . S
O450 Eu415 2.335 . S
O450 C460 1.264 . S
O451 Eu404 2.432 . S
O451 C468 1.268 . S
O452 Eu404 2.291 . S
O452 C467 1.255 . S
O453 Eu415 2.372 . S
O453 C467 1.257 1_655 S
O454 Eu415 2.462 . S
O454 C479 1.252 . S
O455 Eu415 2.373 1_455 S
O455 C471 1.249 . S
O456 Eu404 2.335 . S
O456 C471 1.264 . S
O457 Eu415 2.432 . S
O457 C479 1.268 . S
O458 Eu415 2.291 1_455 S
O458 C478 1.255 . S
O459 Eu404 2.372 . S
O459 C478 1.257 . S
C460 O449 1.249 . S
C460 O450 1.264 . S
C461 C464 1.382 . S
C461 C466 1.390 . S
C461 C468 1.506 . S
C462 C463 1.398 . S
C462 C466 1.392 . S
C463 C462 1.398 . S
C463 C465 1.372 . S
C463 H480 0.931 . S
C464 C461 1.382 . S
C464 C465 1.390 . S
C464 H481 0.931 . S
C465 C463 1.372 . S
C465 C464 1.390 . S
C465 H482 0.929 . S
C466 C461 1.390 . S
C466 C462 1.392 . S
C466 H483 0.930 . S
C467 O452 1.255 . S
C467 O453 1.257 1_455 S
C468 Eu404 2.787 . S
C468 O448 1.252 . S
C468 O451 1.268 . S
C468 C461 1.506 . S
C469 C436 1.439 . S
C469 H446 0.931 . S
C469 C470 1.374 . S
C470 C441 1.387 . S
C470 H447 0.931 . S
C470 C469 1.374 . S
C471 O455 1.249 . S
C471 O456 1.264 . S
C472 C475 1.382 . S
C472 C476 1.390 . S
C472 C479 1.506 1_554 S
C473 C474 1.398 . S
C473 C476 1.392 . S
C474 C473 1.398 . S
C474 C477 1.372 . S
C474 H484 0.931 . S
C475 C472 1.382 . S
C475 C477 1.390 . S
C475 H485 0.931 1_554 S
C476 C472 1.390 . S
C476 C473 1.392 . S
C476 H486 0.930 . S
C477 C474 1.372 . S
C477 C475 1.390 . S
C477 H487 0.929 . S
C478 O458 1.255 . S
C478 O459 1.257 . S
C479 Eu415 2.787 . S
C479 O454 1.252 . S
C479 O457 1.268 . S
C479 C472 1.506 1_556 S
H480 C463 0.931 . S
H481 C464 0.931 . S
H482 C465 0.929 . S
H483 C466 0.930 . S
H484 C474 0.931 . S
H485 C475 0.931 1_556 S
H486 C476 0.930 . S
H487 C477 0.929 . S
C488 C489 1.368 . S
C488 C494 1.378 1_545 S
C488 N496 1.353 1_545 S
C489 C488 1.368 . S
C489 C495 1.363 . S
C490 C491 1.363 . S
C490 C495 1.379 . S
C490 N497 1.356 . S
C491 C490 1.363 . S
C491 C494 1.363 1_545 S
N492 C494 1.356 . S
N492 H504 0.984 . S
N492 H505 0.985 . S
N493 C495 1.356 . S
N493 H498 0.984 . S
N493 H499 0.985 . S
C494 C488 1.378 1_565 S
C494 C491 1.363 1_565 S
C494 N492 1.356 . S
C495 C489 1.363 . S
C495 C490 1.379 . S
C495 N493 1.356 . S
N496 C488 1.353 1_565 S
N496 H502 0.984 . S
N496 H503 0.984 . S
N497 C490 1.356 . S
N497 H500 0.984 . S
N497 H501 0.985 . S
H498 N493 0.984 . S
H499 N493 0.985 . S
H500 N497 0.984 . S
H501 N497 0.985 . S
H502 N496 0.984 . S
H503 N496 0.984 . S
H504 N492 0.984 . S
H505 N492 0.985 . S
C506 C507 1.363 . S
C506 C512 1.379 . S
C506 N514 1.356 . S
C507 C506 1.363 . S
C507 C513 1.363 . S
C508 C509 1.363 . S
C508 C513 1.379 . S
C508 N515 1.356 . S
C509 C508 1.363 . S
C509 C512 1.363 . S
N510 C512 1.356 . S
N510 H522 0.984 . S
N510 H523 0.985 . S
N511 C513 1.356 . S
N511 H516 0.984 . S
N511 H517 0.985 . S
C512 C506 1.379 . S
C512 C509 1.363 . S
C512 N510 1.356 . S
C513 C507 1.363 . S
C513 C508 1.379 . S
C513 N511 1.356 . S
N514 C506 1.356 . S
N514 H520 0.984 . S
N514 H521 0.984 . S
N515 C508 1.356 . S
N515 H518 0.984 . S
N515 H519 0.985 . S
H516 N511 0.984 . S
H517 N511 0.985 . S
H518 N515 0.984 . S
H519 N515 0.985 . S
H520 N514 0.984 . S
H521 N514 0.984 . S
H522 N510 0.984 . S
H523 N510 0.985 . S
C524 C525 1.363 . S
C524 C530 1.379 . S
C524 N532 1.356 . S
C525 C524 1.363 . S
C525 C531 1.363 . S
C526 C527 1.363 . S
C526 C531 1.379 . S
C526 N533 1.356 . S
C527 C526 1.363 . S
C527 C530 1.363 . S
N528 C530 1.356 . S
N528 H540 0.984 . S
N528 H541 0.985 . S
N529 C531 1.356 . S
N529 H534 0.984 . S
N529 H535 0.985 . S
C530 C524 1.379 . S
C530 C527 1.363 . S
C530 N528 1.356 . S
C531 C525 1.363 . S
C531 C526 1.379 . S
C531 N529 1.356 . S
N532 C524 1.356 . S
N532 H538 0.984 . S
N532 H539 0.984 . S
N533 C526 1.356 . S
N533 H536 0.984 . S
N533 H537 0.985 . S
H534 N529 0.984 . S
H535 N529 0.985 . S
H536 N533 0.984 . S
H537 N533 0.985 . S
H538 N532 0.984 . S
H539 N532 0.984 . S
H540 N528 0.984 . S
H541 N528 0.985 . S
C542 C543 1.363 . S
C542 C548 1.379 . S
C542 N550 1.356 . S
C543 C542 1.363 . S
C543 C549 1.363 . S
C544 C545 1.363 . S
C544 C549 1.379 . S
C544 N551 1.356 1_455 S
C545 C544 1.363 . S
C545 C548 1.363 . S
N546 C548 1.356 . S
N546 H558 0.984 . S
N546 H559 0.985 . S
N547 C549 1.345 1_655 S
N547 H552 0.974 1_655 S
N547 H553 1.007 . S
C548 C542 1.379 . S
C548 C545 1.363 . S
C548 N546 1.356 . S
C549 C543 1.363 . S
C549 C544 1.379 . S
C549 N547 1.345 1_455 S
N550 C542 1.356 . S
N550 H556 0.984 . S
N550 H557 0.984 . S
N551 C544 1.356 1_655 S
N551 H554 0.984 . S
N551 H555 0.985 . S
H552 N547 0.974 1_455 S
H553 N547 1.007 . S
H554 N551 0.984 . S
H555 N551 0.985 . S
H556 N550 0.984 . S
H557 N550 0.984 . S
H558 N546 0.984 . S
H559 N546 0.985 . S
C560 C561 1.363 . S
C560 C566 1.379 . S
C560 N568 1.356 . S
C561 C560 1.363 . S
C561 C567 1.363 1_565 S
C562 C563 1.363 1_544 S
C562 C567 1.379 . S
C562 N569 1.356 1_554 S
C563 C562 1.363 1_566 S
C563 C566 1.363 1_556 S
N564 C566 1.356 1_556 S
N564 H576 0.984 1_556 S
N564 H577 0.985 . S
N565 C567 1.356 . S
N565 H570 0.984 . S
N565 H571 0.985 . S
C566 C560 1.379 . S
C566 C563 1.363 1_554 S
C566 N564 1.356 1_554 S
C567 C561 1.363 1_545 S
C567 C562 1.379 . S
C567 N565 1.356 . S
N568 C560 1.356 . S
N568 H574 0.984 . S
N568 H575 0.984 . S
N569 C562 1.356 1_556 S
N569 H572 0.984 . S
N569 H573 0.985 . S
H570 N565 0.984 . S
H571 N565 0.985 . S
H572 N569 0.984 . S
H573 N569 0.985 . S
H574 N568 0.984 . S
H575 N568 0.984 . S
H576 N564 0.984 1_554 S
H577 N564 0.985 . S
C578 C579 1.363 . S
C578 C584 1.379 1_554 S
C578 N586 1.356 . S
C579 C578 1.363 . S
C579 C585 1.363 . S
C580 C581 1.363 1_554 S
C580 C585 1.379 . S
C580 N587 1.356 . S
C581 C580 1.363 1_556 S
C581 C584 1.363 . S
N582 C584 1.356 . S
N582 H594 0.984 . S
N582 H595 0.985 . S
N583 C585 1.356 . S
N583 H588 0.984 . S
N583 H589 0.985 . S
C584 C578 1.379 1_556 S
C584 C581 1.363 . S
C584 N582 1.356 . S
C585 C579 1.363 . S
C585 C580 1.379 . S
C585 N583 1.356 . S
N586 C578 1.356 . S
N586 H592 0.984 . S
N586 H593 0.984 . S
N587 C580 1.356 . S
N587 H590 0.984 1_554 S
N587 H591 0.985 . S
H588 N583 0.984 . S
H589 N583 0.985 . S
H590 N587 0.984 1_556 S
H591 N587 0.985 . S
H592 N586 0.984 . S
H593 N586 0.984 . S
H594 N582 0.984 . S
H595 N582 0.985 . S
C596 C597 1.363 . S
C596 C602 1.379 . S
C596 N604 1.356 . S
C597 C596 1.363 . S
C597 C603 1.363 . S
C598 C599 1.363 1_554 S
C598 C603 1.379 . S
C598 N605 1.356 . S
C599 C598 1.363 1_556 S
C599 C602 1.363 1_556 S
N600 C602 1.356 1_556 S
N600 H612 0.984 . S
N600 H613 0.985 . S
N601 C603 1.356 . S
N601 H606 0.984 . S
N601 H607 0.985 . S
C602 C596 1.379 . S
C602 C599 1.363 1_554 S
C602 N600 1.356 1_554 S
C603 C597 1.363 . S
C603 C598 1.379 . S
C603 N601 1.356 . S
N604 C596 1.356 . S
N604 H610 0.984 . S
N604 H611 0.984 . S
N605 C598 1.356 . S
N605 H608 0.984 1_554 S
N605 H609 0.985 . S
H606 N601 0.984 . S
H607 N601 0.985 . S
H608 N605 0.984 1_556 S
H609 N605 0.985 . S
H610 N604 0.984 . S
H611 N604 0.984 . S
H612 N600 0.984 . S
H613 N600 0.985 . S
C614 C615 1.363 . S
C614 C620 1.379 1_554 S
C614 N622 1.356 . S
C615 C614 1.363 . S
C615 C621 1.363 . S
C616 C617 1.363 1_454 S
C616 C621 1.379 1_455 S
C616 N623 1.356 . S
C617 C616 1.363 1_656 S
C617 C620 1.363 . S
N618 C620 1.356 . S
N618 H630 0.984 . S
N618 H631 0.985 . S
N619 C621 1.355 1_455 S
N619 H624 0.980 1_455 S
N619 H625 0.991 . S
C620 C614 1.379 1_556 S
C620 C617 1.363 . S
C620 N618 1.356 . S
C621 C615 1.363 . S
C621 C616 1.379 1_655 S
C621 N619 1.355 1_655 S
N622 C614 1.356 . S
N622 H628 0.984 . S
N622 H629 0.984 . S
N623 C616 1.356 . S
N623 H626 0.984 1_554 S
N623 H627 0.985 . S
H624 N619 0.980 1_655 S
H625 N619 0.991 . S
H626 N623 0.984 1_556 S
H627 N623 0.985 . S
H628 N622 0.984 . S
H629 N622 0.984 . S
H630 N618 0.984 . S
H631 N618 0.985 . S
C632 C633 1.363 . S
C632 C638 1.379 . S
C632 N640 1.356 . S
C633 C632 1.363 . S
C633 C639 1.363 . S
C634 C635 1.363 1_655 S
C634 C639 1.379 1_655 S
C634 N641 1.356 . S
C635 C634 1.363 1_455 S
C635 C638 1.363 . S
N636 C638 1.356 . S
N636 H648 0.984 . S
N636 H649 0.985 . S
N637 C639 1.356 . S
N637 H642 0.984 1_554 S
N637 H643 0.985 1_454 S
C638 C632 1.379 . S
C638 C635 1.363 . S
C638 N636 1.356 . S
C639 C633 1.363 . S
C639 C634 1.379 1_455 S
C639 N637 1.356 . S
N640 C632 1.356 . S
N640 H646 0.984 . S
N640 H647 0.984 . S
N641 C634 1.356 . S
N641 H644 0.984 . S
N641 H645 0.985 . S
H642 N637 0.984 1_556 S
H643 N637 0.985 1_656 S
H644 N641 0.984 . S
H645 N641 0.985 . S
H646 N640 0.984 . S
H647 N640 0.984 . S
H648 N636 0.984 . S
H649 N636 0.985 . S
C650 C651 1.363 . S
C650 C656 1.379 1_545 S
C650 N658 1.356 . S
C651 C650 1.363 . S
C651 C657 1.363 . S
C652 C653 1.363 . S
C652 C657 1.379 . S
C652 N659 1.356 . S
C653 C652 1.363 . S
C653 C656 1.363 1_545 S
N654 C656 1.356 . S
N654 H666 0.984 . S
N654 H667 0.985 . S
N655 C657 1.356 . S
N655 H660 0.984 . S
N655 H661 0.985 . S
C656 C650 1.379 1_565 S
C656 C653 1.363 1_565 S
C656 N654 1.356 . S
C657 C651 1.363 . S
C657 C652 1.379 . S
C657 N655 1.356 . S
N658 C650 1.356 . S
N658 H664 0.984 1_545 S
N658 H665 0.984 . S
N659 C652 1.356 . S
N659 H662 0.984 . S
N659 H663 0.985 . S
H660 N655 0.984 . S
H661 N655 0.985 . S
H662 N659 0.984 . S
H663 N659 0.985 . S
H664 N658 0.984 1_565 S
H665 N658 0.984 . S
H666 N654 0.984 . S
H667 N654 0.985 . S
C668 C669 1.363 . S
C668 C674 1.379 . S
C668 N676 1.356 . S
C669 C668 1.363 . S
C669 C675 1.363 . S
C670 C671 1.363 . S
C670 C675 1.379 . S
C670 N677 1.356 . S
C671 C670 1.363 . S
C671 C674 1.363 . S
N672 C674 1.356 . S
N672 H684 0.984 . S
N672 H685 0.985 . S
N673 C675 1.356 . S
N673 H678 0.984 . S
N673 H679 0.985 1_554 S
C674 C668 1.379 . S
C674 C671 1.363 . S
C674 N672 1.356 . S
C675 C669 1.363 . S
C675 C670 1.379 . S
C675 N673 1.356 . S
N676 C668 1.356 . S
N676 H682 0.984 . S
N676 H683 0.984 . S
N677 C670 1.356 . S
N677 H680 0.984 . S
N677 H681 0.985 . S
H678 N673 0.984 . S
H679 N673 0.985 1_556 S
H680 N677 0.984 . S
H681 N677 0.985 . S
H682 N676 0.984 . S
H683 N676 0.984 . S
H684 N672 0.984 . S
H685 N672 0.985 . S
C686 C687 1.363 . S
C686 C692 1.379 . S
C686 N694 1.356 . S
C687 C686 1.363 . S
C687 C693 1.363 . S
C688 C689 1.363 . S
C688 C693 1.379 . S
C688 N695 1.356 . S
C689 C688 1.363 . S
C689 C692 1.363 . S
N690 C692 1.356 . S
N690 H702 0.984 . S
N690 H703 0.985 . S
N691 C693 1.356 . S
N691 H696 0.984 . S
N691 H697 0.985 . S
C692 C686 1.379 . S
C692 C689 1.363 . S
C692 N690 1.356 . S
C693 C687 1.363 . S
C693 C688 1.379 . S
C693 N691 1.356 . S
N694 C686 1.356 . S
N694 H700 0.984 . S
N694 H701 0.984 . S
N695 C688 1.356 . S
N695 H698 0.984 . S
N695 H699 0.985 . S
H696 N691 0.984 . S
H697 N691 0.985 . S
H698 N695 0.984 . S
H699 N695 0.985 . S
H700 N694 0.984 . S
H701 N694 0.984 . S
H702 N690 0.984 . S
H703 N690 0.985 . S
C704 C705 1.363 1_455 S
C704 C710 1.379 . S
C704 N712 1.355 1_455 S
C705 C704 1.363 1_655 S
C705 C711 1.363 . S
C706 C707 1.363 1_655 S
C706 C711 1.379 . S
C706 N713 1.359 . S
C707 C706 1.363 1_455 S
C707 C710 1.363 . S
N708 C710 1.356 . S
N708 H720 0.984 1_554 S
N708 H721 0.985 . S
N709 C711 1.356 . S
N709 H714 0.984 . S
N709 H715 0.985 . S
C710 C704 1.379 . S
C710 C707 1.363 . S
C710 N708 1.356 . S
C711 C705 1.363 . S
C711 C706 1.379 . S
C711 N709 1.356 . S
N712 C704 1.355 1_655 S
N712 H718 0.979 1_655 S
N712 H719 0.990 . S
N713 C706 1.359 . S
N713 H716 0.971 1_655 S
N713 H717 0.997 . S
H714 N709 0.984 . S
H715 N709 0.985 . S
H716 N713 0.971 1_455 S
H717 N713 0.997 . S
H718 N712 0.979 1_455 S
H719 N712 0.990 . S
H720 N708 0.984 1_556 S
H721 N708 0.985 . S
C722 C723 1.363 . S
C722 C728 1.379 . S
C722 N730 1.356 . S
C723 C722 1.363 . S
C723 C729 1.363 1_565 S
C724 C725 1.363 . S
C724 C729 1.379 . S
C724 N731 1.356 . S
C725 C724 1.363 . S
C725 C728 1.363 1_545 S
N726 C728 1.356 . S
N726 H738 0.984 . S
N726 H739 0.985 . S
N727 C729 1.356 . S
N727 H732 0.984 1_545 S
N727 H733 0.985 . S
C728 C722 1.379 . S
C728 C725 1.363 1_565 S
C728 N726 1.356 . S
C729 C723 1.363 1_545 S
C729 C724 1.379 . S
C729 N727 1.356 . S
N730 C722 1.356 . S
N730 H736 0.984 . S
N730 H737 0.984 . S
N731 C724 1.356 . S
N731 H734 0.984 . S
N731 H735 0.985 . S
H732 N727 0.984 1_565 S
H733 N727 0.985 . S
H734 N731 0.984 . S
H735 N731 0.985 . S
H736 N730 0.984 . S
H737 N730 0.984 . S
H738 N726 0.984 . S
H739 N726 0.985 . S
C740 C741 1.363 . S
C740 C746 1.379 . S
C740 N748 1.356 . S
C741 C740 1.363 . S
C741 C747 1.363 . S
C742 C743 1.363 . S
C742 C747 1.379 . S
C742 N749 1.356 . S
C743 C742 1.363 . S
C743 C746 1.363 . S
N744 C746 1.356 . S
N744 H756 0.984 . S
N744 H757 0.985 . S
N745 C747 1.356 . S
N745 H750 0.984 . S
N745 H751 0.985 . S
C746 C740 1.379 . S
C746 C743 1.363 . S
C746 N744 1.356 . S
C747 C741 1.363 . S
C747 C742 1.379 . S
C747 N745 1.356 . S
N748 C740 1.356 . S
N748 H754 0.984 . S
N748 H755 0.984 . S
N749 C742 1.356 . S
N749 H752 0.984 . S
N749 H753 0.985 . S
H750 N745 0.984 . S
H751 N745 0.985 . S
H752 N749 0.984 . S
H753 N749 0.985 . S
H754 N748 0.984 . S
H755 N748 0.984 . S
H756 N744 0.984 . S
H757 N744 0.985 . S
C758 C759 1.363 . S
C758 C764 1.379 . S
C758 N766 1.356 . S
C759 C758 1.363 . S
C759 C765 1.363 . S
C760 C761 1.363 . S
C760 C765 1.379 . S
C760 N767 1.356 . S
C761 C760 1.363 . S
C761 C764 1.363 . S
N762 C764 1.356 . S
N762 H774 0.984 . S
N762 H775 0.985 . S
N763 C765 1.356 . S
N763 H768 0.984 . S
N763 H769 0.985 . S
C764 C758 1.379 . S
C764 C761 1.363 . S
C764 N762 1.356 . S
C765 C759 1.363 . S
C765 C760 1.379 . S
C765 N763 1.356 . S
N766 C758 1.356 . S
N766 H772 0.984 . S
N766 H773 0.984 . S
N767 C760 1.356 . S
N767 H770 0.984 . S
N767 H771 0.985 . S
H768 N763 0.984 . S
H769 N763 0.985 . S
H770 N767 0.984 . S
H771 N767 0.985 . S
H772 N766 0.984 . S
H773 N766 0.984 . S
H774 N762 0.984 . S
H775 N762 0.985 . S
C776 C777 1.363 . S
C776 C782 1.379 . S
C776 N784 1.356 . S
C777 C776 1.363 . S
C777 C783 1.363 . S
C778 C779 1.363 . S
C778 C783 1.379 . S
C778 N785 1.356 . S
C779 C778 1.363 . S
C779 C782 1.363 . S
N780 C782 1.356 1_655 S
N780 H792 0.984 . S
N780 H793 0.982 1_655 S
N781 C783 1.356 . S
N781 H786 0.984 . S
N781 H787 0.985 1_556 S
C782 C776 1.379 . S
C782 C779 1.363 . S
C782 N780 1.356 1_455 S
C783 C777 1.363 . S
C783 C778 1.379 . S
C783 N781 1.356 . S
N784 C776 1.356 . S
N784 H790 0.984 1_455 S
N784 H791 0.984 . S
N785 C778 1.356 . S
N785 H788 0.984 . S
N785 H789 0.985 1_556 S
H786 N781 0.984 . S
H787 N781 0.985 1_554 S
H788 N785 0.984 . S
H789 N785 0.985 1_554 S
H790 N784 0.984 1_655 S
H791 N784 0.984 . S
H792 N780 0.984 . S
H793 N780 0.982 1_455 S
C794 C795 1.363 . S
C794 C800 1.379 . S
C794 N802 1.356 . S
C795 C794 1.363 . S
C795 C801 1.363 . S
C796 C797 1.363 . S
C796 C801 1.379 . S
C796 N803 1.356 1_556 S
C797 C796 1.363 . S
C797 C800 1.363 . S
N798 C800 1.356 . S
N798 H810 0.984 . S
N798 H811 0.985 . S
N799 C801 1.356 1_554 S
N799 H804 0.984 1_554 S
N799 H805 0.985 . S
C800 C794 1.379 . S
C800 C797 1.363 . S
C800 N798 1.356 . S
C801 C795 1.363 . S
C801 C796 1.379 . S
C801 N799 1.356 1_556 S
N802 C794 1.356 . S
N802 H808 0.984 . S
N802 H809 0.984 . S
N803 C796 1.356 1_554 S
N803 H806 0.984 1_554 S
N803 H807 0.985 . S
H804 N799 0.984 1_556 S
H805 N799 0.985 . S
H806 N803 0.984 1_556 S
H807 N803 0.985 . S
H808 N802 0.984 . S
H809 N802 0.984 . S
H810 N798 0.984 . S
H811 N798 0.985 . S
C812 C813 1.363 . S
C812 C818 1.379 . S
C812 N820 1.356 . S
C813 C812 1.363 . S
C813 C819 1.363 . S
C814 C815 1.363 . S
C814 C819 1.379 . S
C814 N821 1.356 . S
C815 C814 1.363 . S
C815 C818 1.363 . S
N816 C818 1.356 . S
N816 H828 0.984 . S
N816 H829 0.985 . S
N817 C819 1.356 . S
N817 H822 0.984 . S
N817 H823 0.985 1_556 S
C818 C812 1.379 . S
C818 C815 1.363 . S
C818 N816 1.356 . S
C819 C813 1.363 . S
C819 C814 1.379 . S
C819 N817 1.356 . S
N820 C812 1.356 . S
N820 H826 0.984 . S
N820 H827 0.984 . S
N821 C814 1.356 . S
N821 H824 0.984 . S
N821 H825 0.985 1_556 S
H822 N817 0.984 . S
H823 N817 0.985 1_554 S
H824 N821 0.984 . S
H825 N821 0.985 1_554 S
H826 N820 0.984 . S
H827 N820 0.984 . S
H828 N816 0.984 . S
H829 N816 0.985 . S
C830 C831 1.363 . S
C830 C836 1.379 . S
C830 N838 1.356 1_556 S
C831 C830 1.363 . S
C831 C837 1.363 . S
C832 C833 1.363 . S
C832 C837 1.379 . S
C832 N839 1.356 . S
C833 C832 1.363 . S
C833 C836 1.363 . S
N834 C836 1.362 . S
N834 H846 0.976 1_556 S
N834 H847 0.987 . S
N835 C837 1.356 . S
N835 H840 0.984 . S
N835 H841 0.985 . S
C836 C830 1.379 . S
C836 C833 1.363 . S
C836 N834 1.362 . S
C837 C831 1.363 . S
C837 C832 1.379 . S
C837 N835 1.356 . S
N838 C830 1.356 1_554 S
N838 H844 0.984 . S
N838 H845 0.984 1_554 S
N839 C832 1.356 . S
N839 H842 0.984 . S
N839 H843 0.985 . S
H840 N835 0.984 . S
H841 N835 0.985 . S
H842 N839 0.984 . S
H843 N839 0.985 . S
H844 N838 0.984 . S
H845 N838 0.984 1_556 S
H846 N834 0.976 1_554 S
H847 N834 0.987 . S
C848 C849 1.363 1_455 S
C848 C854 1.379 . S
C848 N856 1.356 . S
C849 C848 1.363 1_655 S
C849 C855 1.363 . S
C850 C851 1.363 . S
C850 C855 1.379 . S
C850 N857 1.356 . S
C851 C850 1.363 . S
C851 C854 1.363 1_655 S
N852 C854 1.356 . S
N852 H864 0.984 . S
N852 H865 0.985 . S
N853 C855 1.356 . S
N853 H858 0.984 . S
N853 H859 0.985 . S
C854 C848 1.379 . S
C854 C851 1.363 1_455 S
C854 N852 1.356 . S
C855 C849 1.363 . S
C855 C850 1.379 . S
C855 N853 1.356 . S
N856 C848 1.356 . S
N856 H862 0.984 . S
N856 H863 0.984 . S
N857 C850 1.356 . S
N857 H860 0.984 . S
N857 H861 0.985 . S
H858 N853 0.984 . S
H859 N853 0.985 . S
H860 N857 0.984 . S
H861 N857 0.985 . S
H862 N856 0.984 . S
H863 N856 0.984 . S
H864 N852 0.984 . S
H865 N852 0.985 . S
C866 C867 1.363 1_545 S
C866 C872 1.379 . S
C866 N874 1.356 . S
C867 C866 1.363 1_565 S
C867 C873 1.363 . S
C868 C869 1.363 . S
C868 C873 1.379 . S
C868 N875 1.356 . S
C869 C868 1.363 . S
C869 C872 1.363 1_565 S
N870 C872 1.356 . S
N870 H882 0.984 . S
N870 H883 0.985 . S
N871 C873 1.356 . S
N871 H876 0.984 . S
N871 H877 0.985 . S
C872 C866 1.379 . S
C872 C869 1.363 1_545 S
C872 N870 1.356 . S
C873 C867 1.363 . S
C873 C868 1.379 . S
C873 N871 1.356 . S
N874 C866 1.356 . S
N874 H880 0.984 . S
N874 H881 0.984 . S
N875 C868 1.356 . S
N875 H878 0.984 . S
N875 H879 0.985 . S
H876 N871 0.984 . S
H877 N871 0.985 . S
H878 N875 0.984 . S
H879 N875 0.985 . S
H880 N874 0.984 . S
H881 N874 0.984 . S
H882 N870 0.984 . S
H883 N870 0.985 . S
C884 C885 1.363 . S
C884 C890 1.379 . S
C884 N892 1.356 . S
C885 C884 1.363 . S
C885 C891 1.363 . S
C886 C887 1.363 . S
C886 C891 1.379 . S
C886 N893 1.356 . S
C887 C886 1.363 . S
C887 C890 1.363 . S
N888 C890 1.356 . S
N888 H900 0.984 . S
N888 H901 0.985 . S
N889 C891 1.356 . S
N889 H894 0.984 . S
N889 H895 0.985 . S
C890 C884 1.379 . S
C890 C887 1.363 . S
C890 N888 1.356 . S
C891 C885 1.363 . S
C891 C886 1.379 . S
C891 N889 1.356 . S
N892 C884 1.356 . S
N892 H898 0.984 . S
N892 H899 0.984 . S
N893 C886 1.356 . S
N893 H896 0.984 . S
N893 H897 0.985 . S
H894 N889 0.984 . S
H895 N889 0.985 . S
H896 N893 0.984 . S
H897 N893 0.985 . S
H898 N892 0.984 . S
H899 N892 0.984 . S
H900 N888 0.984 . S
H901 N888 0.985 . S
C902 C903 1.363 . S
C902 C908 1.379 . S
C902 N910 1.356 . S
C903 C902 1.363 . S
C903 C909 1.363 . S
C904 C905 1.363 . S
C904 C909 1.379 . S
C904 N911 1.356 . S
C905 C904 1.363 . S
C905 C908 1.363 . S
N906 C908 1.356 . S
N906 H918 0.984 . S
N906 H919 0.985 . S
N907 C909 1.356 . S
N907 H912 0.984 . S
N907 H913 0.985 . S
C908 C902 1.379 . S
C908 C905 1.363 . S
C908 N906 1.356 . S
C909 C903 1.363 . S
C909 C904 1.379 . S
C909 N907 1.356 . S
N910 C902 1.356 . S
N910 H916 0.984 . S
N910 H917 0.984 . S
N911 C904 1.356 . S
N911 H914 0.984 . S
N911 H915 0.985 . S
H912 N907 0.984 . S
H913 N907 0.985 . S
H914 N911 0.984 . S
H915 N911 0.985 . S
H916 N910 0.984 . S
H917 N910 0.984 . S
H918 N906 0.984 . S
H919 N906 0.985 . S
C489 C125 2.107 . S
C491 C215 2.156 . S
C509 C292 2.158 . S
C507 C144 2.105 . S
C527 C383 2.156 . S
C525 C87 2.110 . S
C545 C467 2.145 . S
C543 C106 2.098 . S
C563 C226 2.157 1_565 S
C561 C49 2.166 . S
C579 C68 2.163 . S
C581 C303 2.158 . S
C597 C11 2.166 . S
C599 C394 2.156 . S
C615 C30 2.155 . S
C617 C478 2.145 1_655 S
C635 C210 0.795 1_455 S
C633 C97 0.792 . S
C653 C305 0.790 . S
C651 C116 0.781 . S
C671 C378 0.797 . S
C669 C135 0.793 . S
C687 C78 0.778 . S
C689 C462 0.780 . S
C705 C21 0.792 . S
C707 C221 0.795 . S
C725 C294 0.784 . S
C723 C40 0.781 . S
C743 C389 0.797 . S
C741 C59 0.794 . S
C759 C2 0.778 . S
C761 C473 0.780 . S
C777 C101 2.032 . S
C779 C219 2.263 . S
C795 C120 2.043 . S
C797 C310 2.324 . S
C815 C387 2.278 . S
C813 C139 2.044 . S
C833 C471 2.281 . S
C831 C82 2.049 . S
C849 C25 2.034 . S
C851 C208 2.263 . S
C869 C299 2.329 . S
C867 C44 2.046 . S
C887 C376 2.277 . S
C885 C63 2.046 . S
C903 C6 2.051 . S
C905 C460 2.281 . S
