# Generated by pormake.
# Topology pyr, (3,6)-cn, num edge types: 1
# Building blocks:
#     Node 0, Type 0, BuildingBlock: BETDIP_clean_linker_0, # of connection points: 3
#     Node 1, Type 0, BuildingBlock: BETDIP_clean_linker_0, # of connection points: 3
#     Node 2, Type 0, BuildingBlock: BETDIP_clean_linker_0, # of connection points: 3
#     Node 3, Type 0, BuildingBlock: BETDIP_clean_linker_0, # of connection points: 3
#     Node 4, Type 0, BuildingBlock: BETDIP_clean_linker_0, # of connection points: 3
#     Node 5, Type 0, BuildingBlock: BETDIP_clean_linker_0, # of connection points: 3
#     Node 6, Type 0, BuildingBlock: BETDIP_clean_linker_0, # of connection points: 3
#     Node 7, Type 0, BuildingBlock: BETDIP_clean_linker_0, # of connection points: 3
#     Node 8, Type 1, BuildingBlock: PAMTOO_clean_sbu_0, # of connection points: 6
#     Node 9, Type 1, BuildingBlock: PAMTOO_clean_sbu_0, # of connection points: 6
#     Node 10, Type 1, BuildingBlock: PAMTOO_clean_sbu_0, # of connection points: 6
#     Node 11, Type 1, BuildingBlock: PAMTOO_clean_sbu_0, # of connection points: 6
#     Edge 12, Type (0, 1), BuildingBlock: KIFKEQ_clean_linker_1, # of connection points: 2
#     Edge 13, Type (0, 1), BuildingBlock: KIFKEQ_clean_linker_1, # of connection points: 2
#     Edge 14, Type (0, 1), BuildingBlock: KIFKEQ_clean_linker_1, # of connection points: 2
#     Edge 15, Type (0, 1), BuildingBlock: KIFKEQ_clean_linker_1, # of connection points: 2
#     Edge 16, Type (0, 1), BuildingBlock: KIFKEQ_clean_linker_1, # of connection points: 2
#     Edge 17, Type (0, 1), BuildingBlock: KIFKEQ_clean_linker_1, # of connection points: 2
#     Edge 18, Type (0, 1), BuildingBlock: KIFKEQ_clean_linker_1, # of connection points: 2
#     Edge 19, Type (0, 1), BuildingBlock: KIFKEQ_clean_linker_1, # of connection points: 2
#     Edge 20, Type (0, 1), BuildingBlock: KIFKEQ_clean_linker_1, # of connection points: 2
#     Edge 21, Type (0, 1), BuildingBlock: KIFKEQ_clean_linker_1, # of connection points: 2
#     Edge 22, Type (0, 1), BuildingBlock: KIFKEQ_clean_linker_1, # of connection points: 2
#     Edge 23, Type (0, 1), BuildingBlock: KIFKEQ_clean_linker_1, # of connection points: 2
#     Edge 24, Type (0, 1), BuildingBlock: KIFKEQ_clean_linker_1, # of connection points: 2
#     Edge 25, Type (0, 1), BuildingBlock: KIFKEQ_clean_linker_1, # of connection points: 2
#     Edge 26, Type (0, 1), BuildingBlock: KIFKEQ_clean_linker_1, # of connection points: 2
#     Edge 27, Type (0, 1), BuildingBlock: KIFKEQ_clean_linker_1, # of connection points: 2
#     Edge 28, Type (0, 1), BuildingBlock: KIFKEQ_clean_linker_1, # of connection points: 2
#     Edge 29, Type (0, 1), BuildingBlock: KIFKEQ_clean_linker_1, # of connection points: 2
#     Edge 30, Type (0, 1), BuildingBlock: KIFKEQ_clean_linker_1, # of connection points: 2
#     Edge 31, Type (0, 1), BuildingBlock: KIFKEQ_clean_linker_1, # of connection points: 2
#     Edge 32, Type (0, 1), BuildingBlock: KIFKEQ_clean_linker_1, # of connection points: 2
#     Edge 33, Type (0, 1), BuildingBlock: KIFKEQ_clean_linker_1, # of connection points: 2
#     Edge 34, Type (0, 1), BuildingBlock: KIFKEQ_clean_linker_1, # of connection points: 2
#     Edge 35, Type (0, 1), BuildingBlock: KIFKEQ_clean_linker_1, # of connection points: 2
# Relax obj value: 0.119
# Max RMSD: 0.197
# Mean RMSD: 0.129
data_MOF--net-pyr--node1-PAMTOO_clean_sbu_0--node2-BETDIP_clean_linker_0--edge1-KIFKEQ_clean_linker_1
_symmetry_space_group_name_H-M    P1
_symmetry_Int_Tables_number       1
_symmetry_cell_setting            triclinic
loop_
_symmetry_equiv_pos_as_xyz
'x, y, z'
_cell_length_a     38.151209
_cell_length_b     39.082468
_cell_length_c     39.48512
_cell_angle_alpha  89.844181
_cell_angle_beta   88.915774
_cell_angle_gamma 109.1358
loop_
_atom_site_label
_atom_site_type_symbol
_atom_site_fract_x
_atom_site_fract_y
_atom_site_fract_z
_atom_type_partial_charge
H0 H 0.30847 0.28374 0.25339 0.0
H1 H 0.36543 0.26446 0.16489 0.0
H2 H 0.38052 0.21968 0.26123 0.0
H3 H 0.32506 0.34213 0.22431 0.0
C4 C 0.31163 0.32909 0.20149 0.0
C5 C 0.32869 0.27291 0.24222 0.0
C6 C 0.34321 0.25083 0.26174 0.0
C7 C 0.33778 0.27892 0.20759 0.0
C8 C 0.36047 0.26147 0.19202 0.0
C9 C 0.37574 0.23952 0.21113 0.0
C10 C 0.36799 0.23559 0.24616 0.0
N11 N 0.32167 0.29997 0.18767 0.0
H12 H 0.13048 0.77617 0.76541 0.0
H13 H 0.1601 0.73361 0.67308 0.0
H14 H 0.22848 0.74467 0.76001 0.0
H15 H 0.11565 0.75242 0.64928 0.0
C16 C 0.10711 0.76884 0.6677 0.0
C17 C 0.14893 0.76486 0.75173 0.0
C18 C 0.18066 0.76202 0.76728 0.0
C19 C 0.14187 0.75593 0.71771 0.0
C20 C 0.16528 0.74098 0.69934 0.0
C21 C 0.19557 0.73524 0.71532 0.0
C22 C 0.20335 0.7464 0.74894 0.0
N23 N 0.11288 0.76567 0.7028 0.0
H24 H 0.70321 0.4318 0.8587 0.0
H25 H 0.60741 0.33488 0.85481 0.0
H26 H 0.69132 0.34367 0.9281 0.0
H27 H 0.58353 0.36727 0.82305 0.0
C28 C 0.60512 0.39003 0.81167 0.0
C29 C 0.68743 0.40507 0.86832 0.0
C30 C 0.70142 0.38981 0.89498 0.0
C31 C 0.65344 0.38582 0.8535 0.0
C32 C 0.63331 0.35067 0.8659 0.0
C33 C 0.64661 0.33564 0.89327 0.0
C34 C 0.68072 0.35533 0.90731 0.0
N35 N 0.64108 0.40255 0.826 0.0
H36 H 0.8074 0.62205 0.36849 0.0
H37 H 0.89388 0.724 0.34941 0.0
H38 H 0.8119 0.71585 0.42733 0.0
H39 H 0.9204 0.69155 0.31929 0.0
C40 C 0.89949 0.66698 0.31096 0.0
C41 C 0.82045 0.65042 0.37433 0.0
C42 C 0.80589 0.6663 0.40059 0.0
C43 C 0.85229 0.67063 0.35575 0.0
C44 C 0.86972 0.70753 0.36359 0.0
C45 C 0.85502 0.72385 0.38942 0.0
C46 C 0.8232 0.7031 0.40754 0.0
N47 N 0.86502 0.65298 0.32895 0.0
H48 H 0.63217 0.7708 0.95045 0.0
H49 H 0.68423 0.73357 0.86756 0.0
H50 H 0.63498 0.81608 0.85041 0.0
H51 H 0.66398 0.67918 0.90402 0.0
C52 C 0.67894 0.69584 0.92452 0.0
C53 C 0.63878 0.77113 0.92361 0.0
C54 C 0.63026 0.79566 0.90175 0.0
C55 C 0.6575 0.74812 0.91137 0.0
C56 C 0.66819 0.74996 0.87697 0.0
C57 C 0.66031 0.77453 0.85491 0.0
C58 C 0.64061 0.79668 0.8673 0.0
N59 N 0.66906 0.72636 0.93464 0.0
H60 H 0.83737 0.26168 0.34346 0.0
H61 H 0.82339 0.30085 0.4427 0.0
H62 H 0.76644 0.32612 0.35808 0.0
H63 H 0.87835 0.28685 0.453 0.0
C64 C 0.87461 0.26328 0.43717 0.0
C65 C 0.82627 0.27827 0.35955 0.0
C66 C 0.80142 0.29422 0.34644 0.0
C67 C 0.83496 0.28097 0.39389 0.0
C68 C 0.81846 0.30007 0.41576 0.0
C69 C 0.7941 0.317 0.40269 0.0
C70 C 0.78625 0.3143 0.36799 0.0
N71 N 0.85705 0.26053 0.40549 0.0
H72 H 0.30719 0.6348 0.24215 0.0
H73 H 0.40179 0.7315 0.25292 0.0
H74 H 0.32129 0.72728 0.17736 0.0
H75 H 0.40169 0.70958 0.30588 0.0
C76 C 0.39139 0.68023 0.30462 0.0
C77 C 0.32289 0.66219 0.23418 0.0
C78 C 0.30986 0.67882 0.20778 0.0
C79 C 0.35549 0.68101 0.25131 0.0
C80 C 0.37606 0.71676 0.24088 0.0
C81 C 0.36328 0.73367 0.21453 0.0
C82 C 0.33039 0.71449 0.1983 0.0
N83 N 0.36661 0.66293 0.27854 0.0
H84 H 0.09099 0.3129 0.75394 0.0
H85 H 0.19001 0.40635 0.74803 0.0
H86 H 0.16985 0.32407 0.67204 0.0
H87 H 0.17952 0.40544 0.80577 0.0
C88 C 0.14961 0.39912 0.80752 0.0
C89 C 0.11697 0.32794 0.7413 0.0
C90 C 0.12789 0.31456 0.71137 0.0
C91 C 0.13925 0.36088 0.75492 0.0
C92 C 0.17283 0.38065 0.73814 0.0
C93 C 0.18425 0.36731 0.70832 0.0
C94 C 0.16146 0.3344 0.69518 0.0
N95 N 0.12644 0.37392 0.78473 0.0
Dy96 Dy 0.03223 0.0284 0.53106 0.0
Dy97 Dy 0.95327 1.00528 0.57566 0.0
C98 C 0.02199 0.07703 0.59175 0.0
O99 O 0.03671 0.99668 0.5771 0.0
O100 O 0.97654 0.96043 0.58233 0.0
O101 O 0.09176 0.04326 0.53289 0.0
O102 O 0.06412 0.0328 0.48454 0.0
O103 O 0.93883 0.97139 0.52917 0.0
O104 O -0.00251 0.97551 0.50999 0.0
O105 O 0.95237 0.05255 0.54484 0.0
O106 O 0.00061 0.06039 0.50594 0.0
O107 O 0.89446 0.99601 0.58147 0.0
O108 O 0.92712 0.99262 0.62506 0.0
C109 C 0.01188 0.9659 0.5864 0.0
O110 O 0.03563 0.07709 0.56107 0.0
O111 O 0.99603 0.04844 0.60438 0.0
C112 C 0.12575 0.07287 0.48482 0.0
C113 C 0.18418 0.1289 0.45413 0.0
C114 C 0.154 0.13639 0.46968 0.0
C115 C 0.12493 0.10849 0.48502 0.0
C116 C 0.15585 0.06541 0.46975 0.0
C117 C 0.18476 0.09309 0.4545 0.0
C118 C 0.09575 0.04282 0.50004 0.0
C119 C 0.96124 0.96066 0.50933 0.0
C120 C 0.97126 0.06773 0.51751 0.0
C121 C 0.86356 0.95846 0.62723 0.0
C122 C 0.80673 0.90088 0.65799 0.0
C123 C 0.83209 0.8939 0.63485 0.0
C124 C 0.86039 0.92256 0.61956 0.0
C125 C 0.83791 0.96551 0.6495 0.0
C126 C 0.80984 0.93708 0.6648 0.0
C127 C 0.8942 0.98918 0.61384 0.0
H128 H 0.15281 0.16369 0.46989 0.0
H129 H 0.1018 0.1146 0.49676 0.0
H130 H 0.15678 0.03799 0.46939 0.0
H131 H 0.20705 0.08614 0.4421 0.0
H132 H 0.83035 0.86636 0.62892 0.0
H133 H 0.88012 0.91678 0.60232 0.0
H134 H 0.84018 0.99313 0.65579 0.0
H135 H 0.79148 0.9436 0.68303 0.0
Dy136 Dy 0.4737 0.02003 1.02586 0.0
Dy137 Dy 0.55064 0.03943 0.06873 0.0
C138 C 0.48147 0.9696 0.08785 0.0
O139 O 0.4775 0.06968 0.05498 0.0
O140 O 0.51337 0.0627 0.09859 0.0
O141 O 0.41474 1.01129 1.02513 0.0
O142 O 0.44553 1.01064 0.97838 0.0
O143 O 0.55538 0.08959 1.03941 0.0
O144 O 0.51694 0.06337 0.99613 0.0
O145 O 0.55827 1.01032 1.02199 0.0
O146 O 0.49785 0.97705 1.01217 0.0
O147 O 0.61041 0.0577 0.0681 0.0
O148 O 0.57968 0.04101 0.11545 0.0
C149 C 0.49021 0.07746 0.08559 0.0
O150 O 0.4596 0.98414 0.07211 0.0
O151 O 0.51771 0.98304 0.0845 0.0
C152 C 0.38218 0.97553 0.98038 0.0
C153 C 0.32554 0.92098 0.94856 0.0
C154 C 0.35728 0.91395 0.95984 0.0
C155 C 0.38554 0.94115 0.97564 0.0
C156 C 0.34964 0.98186 0.97101 0.0
C157 C 0.32152 0.95481 0.95525 0.0
C158 C 0.41308 1.00604 0.99251 0.0
C159 C 0.54313 0.09103 1.00879 0.0
C160 C 0.53345 0.98228 1.00851 0.0
C161 C 0.63692 0.08783 0.11753 0.0
C162 C 0.68292 0.14856 0.15182 0.0
C163 C 0.65945 0.15283 0.12624 0.0
C164 C 0.63652 0.12265 0.10929 0.0
C165 C 0.66057 0.08346 0.14257 0.0
C166 C 0.68332 0.11351 0.15963 0.0
C167 C 0.6122 0.05573 0.10096 0.0
H168 H 0.36114 0.88817 0.95482 0.0
H169 H 0.41053 0.93585 0.9829 0.0
H170 H 0.34658 1.00821 0.97471 0.0
H171 H 0.29712 0.96076 0.94719 0.0
H172 H 0.65865 0.17942 0.11946 0.0
H173 H 0.61826 0.12644 0.09001 0.0
H174 H 0.66099 0.05671 0.14934 0.0
H175 H 0.70039 0.1091 0.17968 0.0
Dy176 Dy 0.48921 0.4865 0.53252 0.0
Dy177 Dy 0.49813 0.56212 0.57353 0.0
C178 C 0.52502 0.50097 0.60677 0.0
O179 O 0.43149 0.48058 0.55036 0.0
O180 O 0.44768 0.52011 0.59473 0.0
O181 O 0.47532 0.42822 0.53146 0.0
O182 O 0.49696 0.46016 0.48632 0.0
O183 O 0.45882 0.55949 0.53149 0.0
O184 O 0.47906 0.52487 0.49456 0.0
O185 O 0.54715 0.57487 0.53809 0.0
O186 O 0.54965 0.51742 0.53222 0.0
O187 O 0.50654 0.61954 0.57202 0.0
O188 O 0.49624 0.59069 0.61993 0.0
C189 C 0.42327 0.49349 0.57906 0.0
O190 O 0.50309 0.47777 0.58597 0.0
O191 O 0.53288 0.53614 0.60258 0.0
C192 C 0.51938 0.41252 0.49776 0.0
C193 C 0.58148 0.38972 0.4862 0.0
C194 C 0.57948 0.41022 0.51493 0.0
C195 C 0.54879 0.42168 0.52056 0.0
C196 C 0.52062 0.39105 0.46974 0.0
C197 C 0.55139 0.37969 0.46401 0.0
C198 C 0.48972 0.42873 0.50116 0.0
C199 C 0.46239 0.54885 0.50051 0.0
C200 C 0.56472 0.55257 0.52858 0.0
C201 C 0.46584 0.63299 0.61083 0.0
C202 C 0.40382 0.65503 0.62523 0.0
C203 C 0.39984 0.62327 0.60684 0.0
C204 C 0.43052 0.61236 0.59977 0.0
C205 C 0.47024 0.66498 0.62871 0.0
C206 C 0.43944 0.67598 0.63584 0.0
C207 C 0.49748 0.62032 0.60395 0.0
H208 H 0.60234 0.41874 0.53227 0.0
H209 H 0.54861 0.43873 0.54211 0.0
H210 H 0.49834 0.38399 0.45174 0.0
H211 H 0.55194 0.36359 0.44185 0.0
H212 H 0.37296 0.60679 0.59789 0.0
H213 H 0.42663 0.58757 0.58585 0.0
H214 H 0.49732 0.68116 0.63747 0.0
H215 H 0.44337 0.70037 0.65037 0.0
Dy216 Dy 0.01234 0.56713 1.03008 0.0
Dy217 Dy 0.0009 0.49099 0.07185 0.0
C218 C 0.97286 0.55215 0.10406 0.0
O219 O 0.06898 0.57299 0.04911 0.0
O220 O 0.05052 0.53224 0.0933 0.0
O221 O 0.02702 0.62547 1.02815 0.0
O222 O 0.00763 0.5939 0.98329 0.0
O223 O 0.04387 0.49529 1.03127 0.0
O224 O 0.02432 0.52884 0.9933 0.0
O225 O 0.95459 0.47877 1.03505 0.0
O226 O 0.9518 0.53607 1.0287 0.0
O227 O 0.99249 0.43359 0.07059 0.0
O228 O -0.0007 0.46143 0.1185 0.0
C229 C 0.07569 0.55934 0.07784 0.0
O230 O 0.99549 0.57548 0.08295 0.0
O231 O 0.96513 0.51701 0.10043 0.0
C232 C 0.98463 0.64129 0.99411 0.0
C233 C 0.92258 0.66342 0.98241 0.0
C234 C 0.92324 0.64188 1.01081 0.0
C235 C 0.9539 0.63085 1.01654 0.0
C236 C 0.98473 0.6637 0.96635 0.0
C237 C 0.95396 0.67476 0.96055 0.0
C238 C 0.01422 0.62525 0.99773 0.0
C239 C 0.04188 0.50596 1.00008 0.0
C240 C 0.93734 0.50094 1.02484 0.0
C241 C 0.03032 0.41933 0.11051 0.0
C242 C 0.0915 0.39752 0.12686 0.0
C243 C 0.09631 0.42831 0.10643 0.0
C244 C 0.06606 0.43914 0.09845 0.0
C245 C 0.02508 0.3883 0.13046 0.0
C246 C 0.05547 0.37741 0.13857 0.0
C247 C -0.0008 0.43213 0.10273 0.0
H248 H 0.89938 0.63216 1.02783 0.0
H249 H 0.95306 0.61303 1.03785 0.0
H250 H 0.00809 0.67172 0.94863 0.0
H251 H 0.95442 0.69162 0.93862 0.0
H252 H 0.1235 0.44409 0.09653 0.0
H253 H 0.07065 0.46325 0.08303 0.0
H254 H -0.00234 0.37281 0.14009 0.0
H255 H 0.05089 0.35378 0.15464 0.0
H256 H 0.32234 0.29172 0.31023 0.0
H257 H 0.33053 0.18519 0.29316 0.0
H258 H 0.28892 0.26998 0.36371 0.0
H259 H 0.29947 0.16472 0.34706 0.0
H260 H 0.25877 0.13963 0.45272 0.0
H261 H 0.30468 0.17649 0.41197 0.0
H262 H 0.22296 0.21967 0.37249 0.0
H263 H 0.17662 0.18209 0.41247 0.0
C264 C 0.31766 0.26396 0.31797 0.0
C265 C 0.32899 0.24021 0.29699 0.0
C266 C 0.2988 0.2517 0.34871 0.0
C267 C 0.2918 0.21578 0.35945 0.0
C268 C 0.30506 0.19275 0.33962 0.0
C269 C 0.32313 0.20467 0.30867 0.0
C270 C 0.25071 0.15737 0.43567 0.0
C271 C 0.21382 0.1573 0.43528 0.0
C272 C 0.27706 0.1786 0.41256 0.0
C273 C 0.26717 0.20054 0.38896 0.0
C274 C 0.23132 0.20313 0.39062 0.0
C275 C 0.20479 0.18158 0.41354 0.0
H276 H 0.17029 0.82347 0.79249 0.0
H277 H 0.21916 0.74135 0.81769 0.0
H278 H 0.19781 0.85746 0.84158 0.0
H279 H 0.25008 0.77775 0.86511 0.0
H280 H 0.2924 0.84753 0.95768 0.0
H281 H 0.25013 0.80519 0.9191 0.0
H282 H 0.25878 0.89419 0.85045 0.0
H283 H 0.29945 0.93588 0.88914 0.0
C284 C 0.18633 0.81213 0.80869 0.0
C285 C 0.1928 0.77966 0.80049 0.0
C286 C 0.20283 0.8322 0.83666 0.0
C287 C 0.22719 0.82103 0.85672 0.0
C288 C 0.23165 0.78734 0.85013 0.0
C289 C 0.21435 0.76672 0.82251 0.0
C290 C 0.28479 0.85782 0.93444 0.0
C291 C 0.29877 0.89498 0.92655 0.0
C292 C 0.26072 0.83366 0.91232 0.0
C293 C 0.25061 0.84626 0.88179 0.0
C294 C 0.26484 0.88351 0.87414 0.0
C295 C 0.28839 0.90751 0.89628 0.0
H296 H 0.53978 0.36985 0.77943 0.0
H297 H 0.64834 0.45121 0.77647 0.0
H298 H 0.52219 0.39788 0.73025 0.0
H299 H 0.63085 0.47927 0.72677 0.0
H300 H 0.56793 0.5383 0.65899 0.0
H301 H 0.58891 0.51286 0.70843 0.0
H302 H 0.53697 0.40511 0.67002 0.0
H303 H 0.51584 0.43017 0.62122 0.0
C304 C 0.55993 0.39374 0.76818 0.0
C305 C 0.59544 0.40817 0.78177 0.0
C306 C 0.54993 0.40973 0.73984 0.0
C307 C 0.57517 0.44074 0.72429 0.0
C308 C 0.61064 0.45556 0.7382 0.0
C309 C 0.62074 0.43936 0.76658 0.0
C310 C 0.56114 0.5092 0.66105 0.0
C311 C 0.53985 0.48636 0.63615 0.0
C312 C 0.57331 0.49462 0.68934 0.0
C313 C 0.56431 0.45687 0.69346 0.0
C314 C 0.5438 0.43424 0.66811 0.0
C315 C 0.5318 0.44872 0.63993 0.0
H316 H 0.85694 0.60254 0.28261 0.0
H317 H 0.96187 0.68869 0.27188 0.0
H318 H 0.87216 0.57324 0.2323 0.0
H319 H 0.97728 0.65936 0.22201 0.0
H320 H 0.97626 0.62206 0.11423 0.0
H321 H 0.95664 0.64793 0.16391 0.0
H322 H 0.91559 0.54199 0.21097 0.0
H323 H 0.93504 0.51568 0.16066 0.0
C324 C 0.8833 0.61515 0.26959 0.0
C325 C 0.90822 0.64805 0.28106 0.0
C326 C 0.89209 0.59826 0.24087 0.0
C327 C 0.92582 0.61406 0.22295 0.0
C328 C 0.95079 0.64673 0.23482 0.0
C329 C 0.94209 0.66347 0.26351 0.0
C330 C 0.96295 0.60408 0.13504 0.0
C331 C 0.95763 0.56675 0.13351 0.0
C332 C 0.95184 0.61904 0.16366 0.0
C333 C 0.93506 0.59717 0.19168 0.0
C334 C 0.92838 0.55959 0.18978 0.0
C335 C 0.93959 0.54452 0.16098 0.0
H336 H 0.42649 0.26046 0.15819 0.0
H337 H 0.37337 0.17026 0.2257 0.0
H338 H 0.45863 0.22389 0.12898 0.0
H339 H 0.4063 0.1345 0.19724 0.0
H340 H 0.49415 0.08945 0.15411 0.0
H341 H 0.47093 0.13162 0.18597 0.0
H342 H 0.43691 0.1681 0.09271 0.0
H343 H 0.45988 0.12627 0.061 0.0
C344 C 0.42176 0.233 0.16692 0.0
C345 C 0.39734 0.21844 0.19439 0.0
C346 C 0.44031 0.21214 0.1503 0.0
C347 C 0.43509 0.17642 0.16097 0.0
C348 C 0.4114 0.16216 0.18885 0.0
C349 C 0.39258 0.18279 0.2052 0.0
C350 C 0.48201 0.10672 0.14045 0.0
C351 C 0.47853 0.10428 0.10511 0.0
C352 C 0.46864 0.13073 0.15866 0.0
C353 C 0.45212 0.15311 0.14178 0.0
C354 C 0.44982 0.15147 0.10637 0.0
C355 C 0.4627 0.12722 0.08826 0.0
H356 H 0.07797 0.77408 0.60608 0.0
H357 H 0.10025 0.82619 0.7034 0.0
H358 H 0.05297 0.82116 0.58671 0.0
H359 H 0.07615 0.87313 0.68387 0.0
H360 H 0.07765 0.97212 0.61607 0.0
H361 H 0.0992 0.92321 0.6358 0.0
H362 H 0.99626 0.84433 0.60549 0.0
H363 H 0.97424 0.89325 0.5863 0.0
C364 C 0.07736 0.79543 0.62329 0.0
C365 C 0.09082 0.79633 0.65622 0.0
C366 C 0.06303 0.82221 0.61229 0.0
C367 C 0.06277 0.8507 0.63385 0.0
C368 C 0.07622 0.85153 0.66675 0.0
C369 C 0.08982 0.8245 0.67793 0.0
C370 C 0.05951 0.94437 0.61383 0.0
C371 C 0.02419 0.9365 0.59986 0.0
C372 C 0.07183 0.91644 0.62513 0.0
C373 C 0.04938 0.8801 0.62203 0.0
C374 C 0.01413 0.87216 0.60794 0.0
C375 C 0.00147 0.90014 0.59727 0.0
H376 H 0.72463 0.45777 0.92228 0.0
H377 H 0.75939 0.36502 0.90325 0.0
H378 H 0.78093 0.48572 0.95448 0.0
H379 H 0.81617 0.39318 0.93402 0.0
H380 H 0.89221 0.43039 1.02183 0.0
H381 H 0.8358 0.40564 0.98981 0.0
H382 H 0.84628 0.51314 0.95367 0.0
H383 H 0.90194 0.53803 0.98695 0.0
C384 C 0.74475 0.44377 0.92442 0.0
C385 C 0.73762 0.40919 0.91049 0.0
C386 C 0.77704 0.45972 0.94286 0.0
C387 C 0.80304 0.44154 0.94743 0.0
C388 C 0.79643 0.40761 0.93203 0.0
C389 C 0.76406 0.39157 0.91405 0.0
C390 C 0.88236 0.44879 1.00724 0.0
C391 C 0.9017 0.48617 1.00694 0.0
C392 C 0.85011 0.43456 0.98855 0.0
C393 C 0.83654 0.45724 0.9686 0.0
C394 C 0.85555 0.49479 0.96887 0.0
C395 C 0.88762 0.50908 0.98792 0.0
H396 H 0.74238 0.61514 0.37829 0.0
H397 H 0.79361 0.66944 0.46883 0.0
H398 H 0.68541 0.58511 0.41102 0.0
H399 H 0.73637 0.64037 0.50101 0.0
H400 H 0.61186 0.62248 0.52831 0.0
H401 H 0.67165 0.64691 0.49849 0.0
H402 H 0.66104 0.54032 0.46124 0.0
H403 H 0.60137 0.51565 0.49126 0.0
C404 C 0.74173 0.6203 0.40519 0.0
C405 C 0.77243 0.64512 0.4208 0.0
C406 C 0.70907 0.60319 0.42388 0.0
C407 C 0.70642 0.61082 0.45842 0.0
C408 C 0.73749 0.63453 0.47428 0.0
C409 C 0.77019 0.65125 0.45577 0.0
C410 C 0.62237 0.6042 0.51397 0.0
C411 C 0.60188 0.56716 0.51217 0.0
C412 C 0.65665 0.61816 0.49703 0.0
C413 C 0.67088 0.59547 0.47755 0.0
C414 C 0.65057 0.5584 0.47591 0.0
C415 C 0.61654 0.54432 0.49328 0.0
H416 H 0.28631 0.38115 0.22568 0.0
H417 H 0.26696 0.30046 0.14749 0.0
H418 H 0.23326 0.39733 0.20695 0.0
H419 H 0.21409 0.3171 0.12816 0.0
H420 H 0.09739 0.32942 0.13052 0.0
H421 H 0.15123 0.31303 0.14717 0.0
H422 H 0.21375 0.42621 0.16032 0.0
H423 H 0.15973 0.44241 0.14514 0.0
C424 C 0.27088 0.36718 0.20421 0.0
C425 C 0.28076 0.33968 0.18801 0.0
C426 C 0.24058 0.37651 0.19337 0.0
C427 C 0.21943 0.35855 0.16601 0.0
C428 C 0.22956 0.33118 0.14955 0.0
C429 C 0.26 0.32184 0.16044 0.0
C430 C 0.12255 0.35074 0.13725 0.0
C431 C 0.12422 0.38722 0.13651 0.0
C432 C 0.15354 0.34139 0.14637 0.0
C433 C 0.18681 0.36832 0.15507 0.0
C434 C 0.18847 0.40476 0.15412 0.0
C435 C 0.15757 0.41408 0.14504 0.0
H436 H 0.62845 0.31919 0.95949 0.0
H437 H 0.61775 0.27067 0.86059 0.0
H438 H 0.60169 0.25957 0.98558 0.0
H439 H 0.59146 0.21037 0.88679 0.0
H440 H 0.51828 0.10936 0.94856 0.0
H441 H 0.53976 0.16804 0.91921 0.0
H442 H 0.62266 0.20906 0.9953 0.0
H443 H 0.60087 0.15116 1.02481 0.0
C444 C 0.62014 0.29565 0.94332 0.0
C445 C 0.62551 0.29953 0.90804 0.0
C446 C 0.60505 0.26142 0.95827 0.0
C447 C 0.59513 0.23 0.9384 0.0
C448 C 0.59875 0.23396 0.90288 0.0
C449 C 0.61375 0.26845 0.88784 0.0
C450 C 0.54123 0.13088 0.95889 0.0
C451 C 0.55764 0.12553 0.98922 0.0
C452 C 0.55359 0.16451 0.94201 0.0
C453 C 0.58262 0.19353 0.9551 0.0
C454 C 0.59963 0.1877 0.98488 0.0
C455 C 0.58728 0.15428 1.00172 0.0
H456 H 0.9274 0.75803 0.40543 0.0
H457 H 0.82231 0.77588 0.39564 0.0
H458 H 0.95347 0.81765 0.43104 0.0
H459 H 0.84837 0.83583 0.42029 0.0
H460 H 0.88998 0.91336 0.50906 0.0
H461 H 0.8658 0.85886 0.47545 0.0
H462 H 0.97264 0.88208 0.4249 0.0
H463 H 0.99712 0.93604 0.45921 0.0
C464 C 0.91024 0.77518 0.40791 0.0
C465 C 0.87282 0.76231 0.39881 0.0
C466 C 0.92509 0.80936 0.4226 0.0
C467 C 0.90287 0.83145 0.42824 0.0
C468 C 0.86604 0.81926 0.41716 0.0
C469 C 0.85117 0.78506 0.40277 0.0
C470 C 0.90824 0.90706 0.49057 0.0
C471 C 0.94554 0.92905 0.487 0.0
C472 C 0.89432 0.87583 0.4711 0.0
C473 C 0.91725 0.86594 0.44738 0.0
C474 C 0.95431 0.88849 0.44324 0.0
C475 C 0.96829 0.91959 0.46284 0.0
H476 H 0.23003 0.75508 0.65334 0.0
H477 H 0.21886 0.68051 0.73683 0.0
H478 H 0.27826 0.73408 0.62754 0.0
H479 H 0.26709 0.65996 0.71158 0.0
H480 H 0.33559 0.61068 0.6469 0.0
H481 H 0.28168 0.62748 0.66351 0.0
H482 H 0.34326 0.73977 0.64188 0.0
H483 H 0.39701 0.7228 0.62414 0.0
C484 C 0.23742 0.73376 0.6658 0.0
C485 C 0.22084 0.71943 0.69707 0.0
C486 C 0.26525 0.72202 0.65127 0.0
C487 C 0.27662 0.69549 0.66761 0.0
C488 C 0.25878 0.68017 0.69816 0.0
C489 C 0.2313 0.69206 0.71274 0.0
C490 C 0.33749 0.6389 0.64512 0.0
C491 C 0.37068 0.66542 0.63426 0.0
C492 C 0.30667 0.64855 0.65492 0.0
C493 C 0.30822 0.68496 0.65411 0.0
C494 C 0.34107 0.71144 0.64248 0.0
C495 C 0.37201 0.70178 0.63274 0.0
H496 H 0.73193 0.78426 0.83693 0.0
H497 H 0.62686 0.78014 0.7953 0.0
H498 H 0.76256 0.80509 0.78283 0.0
H499 H 0.65729 0.79985 0.74023 0.0
H500 H 0.73531 0.89522 0.67573 0.0
H501 H 0.69615 0.85542 0.71848 0.0
H502 H 0.7749 0.79755 0.72554 0.0
H503 H 0.81549 0.83932 0.68454 0.0
C504 C 0.71516 0.78664 0.81578 0.0
C505 C 0.67707 0.78082 0.82034 0.0
C506 C 0.73272 0.79848 0.78457 0.0
C507 C 0.71253 0.80447 0.75701 0.0
C508 C 0.67387 0.79625 0.76104 0.0
C509 C 0.65637 0.78482 0.79248 0.0
C510 C 0.74419 0.87385 0.68624 0.0
C511 C 0.77906 0.87118 0.67741 0.0
C512 C 0.72138 0.85055 0.71046 0.0
C513 C 0.73262 0.82359 0.7261 0.0
C514 C 0.7658 0.81862 0.71472 0.0
C515 C 0.7889 0.8423 0.6908 0.0
H516 H 0.72946 0.27289 0.32736 0.0
H517 H 0.84085 0.29354 0.28776 0.0
H518 H 0.70447 0.2468 0.27388 0.0
H519 H 0.81576 0.2678 0.23347 0.0
H520 H 0.75348 0.1625 0.17467 0.0
H521 H 0.78489 0.20697 0.21638 0.0
H522 H 0.69516 0.25162 0.21498 0.0
H523 H 0.66262 0.20558 0.1748 0.0
C524 C 0.74868 0.27302 0.30677 0.0
C525 C 0.78713 0.28506 0.31182 0.0
C526 C 0.73432 0.25807 0.27595 0.0
C527 C 0.75808 0.25491 0.24937 0.0
C528 C 0.79668 0.26925 0.25365 0.0
C529 C 0.81107 0.28405 0.28464 0.0
C530 C 0.74053 0.18193 0.18312 0.0
C531 C 0.70515 0.17992 0.17198 0.0
C532 C 0.75885 0.20787 0.20667 0.0
C533 C 0.74234 0.23264 0.2194 0.0
C534 C 0.70832 0.23249 0.20617 0.0
C535 C 0.68984 0.20631 0.18282 0.0
H536 H 0.42974 0.70708 0.36102 0.0
H537 H 0.37368 0.606 0.31181 0.0
H538 H 0.44503 0.67413 0.408 0.0
H539 H 0.38882 0.57283 0.35901 0.0
H540 H 0.46109 0.53172 0.43289 0.0
H541 H 0.44273 0.56205 0.38552 0.0
H542 H 0.41465 0.63425 0.45539 0.0
H543 H 0.43317 0.60424 0.50265 0.0
C544 C 0.42061 0.67776 0.3603 0.0
C545 C 0.40043 0.65921 0.33273 0.0
C546 C 0.42917 0.65883 0.38734 0.0
C547 C 0.41801 0.62074 0.38749 0.0
C548 C 0.39808 0.60214 0.35968 0.0
C549 C 0.38924 0.62114 0.33267 0.0
C550 C 0.45076 0.5539 0.43821 0.0
C551 C 0.44878 0.56552 0.47171 0.0
C552 C 0.44007 0.57122 0.411 0.0
C553 C 0.42741 0.60081 0.41652 0.0
C554 C 0.42477 0.61193 0.45008 0.0
C555 C 0.43519 0.59449 0.47727 0.0
H556 H 0.18591 0.43646 0.86123 0.0
H557 H 0.07727 0.39662 0.81755 0.0
H558 H 0.16054 0.46259 0.90811 0.0
H559 H 0.05194 0.42285 0.86427 0.0
H560 H 0.03204 0.51121 0.93206 0.0
H561 H 0.05803 0.48522 0.88579 0.0
H562 H 0.11578 0.44104 0.95784 0.0
H563 H 0.0897 0.46692 1.0043 0.0
C564 C 0.1566 0.43325 0.86173 0.0
C565 C 0.13358 0.41443 0.83584 0.0
C566 C 0.14206 0.44806 0.8886 0.0
C567 C 0.10424 0.44478 0.88988 0.0
C568 C 0.08125 0.42607 0.86384 0.0
C569 C 0.09571 0.41087 0.83718 0.0
C570 C 0.0504 0.49609 0.9381 0.0
C571 C 0.0588 0.4912 0.97193 0.0
C572 C 0.06507 0.48099 0.91156 0.0
C573 C 0.08886 0.46099 0.91816 0.0
C574 C 0.09772 0.45652 0.95194 0.0
C575 C 0.08267 0.47124 0.97855 0.0
H576 H 0.65105 0.86788 0.88691 0.0
H577 H 0.57256 0.78427 0.94763 0.0
H578 H 0.62563 0.91258 0.91014 0.0
H579 H 0.54777 0.82946 0.97178 0.0
H580 H 0.49112 0.91641 0.98392 0.0
H581 H 0.51284 0.87086 0.95646 0.0
H582 H 0.62618 0.94133 0.96514 0.0
H583 H 0.60468 0.98688 0.99208 0.0
C584 C 0.62808 0.85896 0.90499 0.0
C585 C 0.61369 0.82246 0.91532 0.0
C586 C 0.61381 0.88468 0.91859 0.0
C587 C 0.5848 0.8746 0.94289 0.0
C588 C 0.56992 0.83801 0.95287 0.0
C589 C 0.58433 0.81221 0.93931 0.0
C590 C 0.52065 0.92229 0.97971 0.0
C591 C 0.54615 0.95533 0.99017 0.0
C592 C 0.53308 0.89608 0.96421 0.0
C593 C 0.57121 0.90249 0.95864 0.0
C594 C 0.5966 0.93573 0.96868 0.0
C595 C 0.58424 0.9618 0.98429 0.0
H596 H 0.85839 0.1951 0.4118 0.0
H597 H 0.92783 0.26816 0.48395 0.0
H598 H 0.88447 0.14839 0.42796 0.0
H599 H 0.95454 0.2211 0.49978 0.0
H600 H 0.01466 0.1324 0.4896 0.0
H601 H 0.99344 0.18151 0.4685 0.0
H602 H 0.87974 0.11458 0.48705 0.0
H603 H 0.90076 0.06623 0.50871 0.0
C604 C 0.87952 0.20133 0.4309 0.0
C605 C 0.89113 0.23531 0.44669 0.0
C606 C 0.89439 0.17454 0.44011 0.0
C607 C 0.92159 0.18128 0.46493 0.0
C608 C 0.93385 0.21545 0.4803 0.0
C609 C 0.91842 0.24217 0.47147 0.0
C610 C 0.98517 0.12814 0.48861 0.0
C611 C 0.95928 0.09558 0.50059 0.0
C612 C 0.9731 0.15624 0.47691 0.0
C613 C 0.935 0.15172 0.47628 0.0
C614 C 0.90924 0.11866 0.48716 0.0
C615 C 0.92126 0.09105 0.49952 0.0
H616 H 0.28464 0.60788 0.18696 0.0
H617 H 0.25602 0.70607 0.18748 0.0
H618 H 0.22952 0.57805 0.15391 0.0
H619 H 0.20157 0.67652 0.15417 0.0
H620 H 0.12906 0.62528 0.06522 0.0
H621 H 0.18623 0.65289 0.09623 0.0
H622 H 0.16099 0.5572 0.15948 0.0
H623 H 0.10427 0.52951 0.12845 0.0
C624 C 0.26647 0.623 0.18034 0.0
C625 C 0.27502 0.65949 0.18967 0.0
C626 C 0.23498 0.60597 0.16126 0.0
C627 C 0.21142 0.62508 0.15099 0.0
C628 C 0.21959 0.66129 0.16093 0.0
C629 C 0.25082 0.67819 0.18012 0.0
C630 C 0.13592 0.61001 0.0855 0.0
C631 C 0.11192 0.57533 0.09449 0.0
C632 C 0.16852 0.62592 0.10344 0.0
C633 C 0.17802 0.60735 0.13052 0.0
C634 C 0.15464 0.57217 0.13868 0.0
C635 C 0.12195 0.55642 0.12098 0.0
H636 H 0.23573 0.33965 0.68175 0.0
H637 H 0.21285 0.44011 0.69395 0.0
H638 H 0.29165 0.3711 0.64877 0.0
H639 H 0.26907 0.47176 0.66084 0.0
H640 H 0.39421 0.5192 0.63308 0.0
H641 H 0.3364 0.48976 0.66401 0.0
H642 H 0.31035 0.40082 0.59373 0.0
H643 H 0.36883 0.43002 0.56299 0.0
C644 C 0.24258 0.36848 0.67724 0.0
C645 C 0.21971 0.38735 0.69032 0.0
C646 C 0.27456 0.38647 0.6582 0.0
C647 C 0.28463 0.42387 0.6518 0.0
C648 C 0.26221 0.44296 0.66547 0.0
C649 C 0.23009 0.42488 0.68454 0.0
C650 C 0.37614 0.49341 0.62405 0.0
C651 C 0.38638 0.47678 0.59569 0.0
C652 C 0.34281 0.47666 0.64171 0.0
C653 C 0.31885 0.44281 0.63153 0.0
C654 C 0.32851 0.42665 0.60256 0.0
C655 C 0.36188 0.4435 0.58477 0.0
H656 H 0.72894 0.73636 0.97029 0.0
H657 H 0.70732 0.64431 0.90409 0.0
H658 H 0.78871 0.73037 0.98452 0.0
H659 H 0.7667 0.63782 0.91877 0.0
H660 H 0.89095 0.66161 0.92066 0.0
H661 H 0.83225 0.67042 0.90808 0.0
H662 H 0.81661 0.69066 1.01388 0.0
H663 H 0.87614 0.68315 1.0263 0.0
C664 C 0.73677 0.71459 0.95909 0.0
C665 C 0.71359 0.6908 0.936 0.0
C666 C 0.77097 0.71111 0.96731 0.0
C667 C 0.78263 0.68384 0.95252 0.0
C668 C 0.75888 0.65955 0.93009 0.0
C669 C 0.72475 0.66302 0.92193 0.0
C670 C 0.87537 0.66862 0.94116 0.0
C671 C 0.88825 0.67166 0.97449 0.0
C672 C 0.84144 0.67315 0.93402 0.0
C673 C 0.81954 0.68082 0.96004 0.0
C674 C 0.83287 0.68489 0.99324 0.0
C675 C 0.86683 0.6803 1.0004 0.0
H676 H 0.4355 0.76153 0.19201 0.0
H677 H 0.3366 0.78988 0.20943 0.0
H678 H 0.46495 0.81974 0.16322 0.0
H679 H 0.36612 0.84845 0.18192 0.0
H680 H 0.40866 0.92624 0.09275 0.0
H681 H 0.38224 0.87124 0.12646 0.0
H682 H 0.49048 0.88379 0.16623 0.0
H683 H 0.51708 0.93814 0.13157 0.0
C684 C 0.4205 0.78069 0.19048 0.0
C685 C 0.38378 0.77121 0.20281 0.0
C686 C 0.43729 0.81407 0.17395 0.0
C687 C 0.41778 0.83879 0.16967 0.0
C688 C 0.38172 0.82987 0.18381 0.0
C689 C 0.3649 0.79646 0.19995 0.0
C690 C 0.42682 0.91737 0.10877 0.0
C691 C 0.46502 0.93668 0.10934 0.0
C692 C 0.41162 0.88586 0.12836 0.0
C693 C 0.43411 0.87292 0.14935 0.0
C694 C 0.4723 0.8925 0.15011 0.0
C695 C 0.48755 0.92387 0.13031 0.0
H696 H 0.10532 0.30237 0.64642 0.0
H697 H 0.09967 0.2483 0.74278 0.0
H698 H 0.0766 0.24422 0.61938 0.0
H699 H 0.07139 0.18959 0.71556 0.0
H700 H 0.99679 0.09174 0.65408 0.0
H701 H 0.01771 0.14903 0.68483 0.0
H702 H 0.09947 0.19503 0.60565 0.0
H703 H 0.07843 0.13864 0.5749 0.0
C704 C 0.09757 0.27795 0.66184 0.0
C705 C 0.10506 0.27974 0.69658 0.0
C706 C 0.08134 0.24462 0.64636 0.0
C707 C 0.07244 0.21218 0.66517 0.0
C708 C 0.07789 0.21407 0.70037 0.0
C709 C 0.09402 0.24762 0.71596 0.0
C710 C 0.01933 0.11408 0.64336 0.0
C711 C 0.03576 0.1106 0.61191 0.0
C712 C 0.03133 0.14686 0.66101 0.0
C713 C 0.05988 0.17678 0.64746 0.0
C714 C 0.07679 0.17286 0.61644 0.0
C715 C 0.06487 0.14031 0.5989 0.0
H716 H 0.7885 0.38424 0.39664 0.0
H717 H 0.74951 0.28645 0.45708 0.0
H718 H 0.74011 0.40497 0.42166 0.0
H719 H 0.70056 0.30686 0.4819 0.0
H720 H 0.62383 0.36499 0.52934 0.0
H721 H 0.68113 0.352 0.51561 0.0
H722 H 0.67336 0.38153 0.41121 0.0
H723 H 0.61701 0.39515 0.42498 0.0
C724 C 0.77018 0.36771 0.41605 0.0
C725 C 0.77255 0.33371 0.42483 0.0
C726 C 0.74226 0.37935 0.43012 0.0
C727 C 0.71596 0.35715 0.45315 0.0
C728 C 0.72039 0.32459 0.46424 0.0
C729 C 0.74851 0.31296 0.45017 0.0
C730 C 0.63459 0.36889 0.50353 0.0
C731 C 0.61577 0.3809 0.4782 0.0
C732 C 0.66726 0.36132 0.49566 0.0
C733 C 0.682 0.36608 0.46241 0.0
C734 C 0.66316 0.37819 0.43721 0.0
C735 C 0.63051 0.38547 0.44499 0.0
loop_
_geom_bond_atom_site_label_1
_geom_bond_atom_site_label_2
_geom_bond_distance
_geom_bond_site_symmetry_2
_ccdc_geom_bond_type
H0 C5 0.930 . S
H1 C8 0.930 . S
H2 C10 0.930 . S
H3 C4 1.016 . S
C4 H3 1.016 . S
C4 N11 1.286 . S
C5 H0 0.930 . S
C5 C6 1.397 . S
C5 C7 1.361 . S
C6 C5 1.397 . S
C6 C10 1.390 . S
C7 C5 1.361 . S
C7 C8 1.393 . S
C7 N11 1.413 . S
C8 H1 0.930 . S
C8 C7 1.393 . S
C8 C9 1.399 . S
C9 C8 1.399 . S
C9 C10 1.381 . S
C10 H2 0.930 . S
C10 C6 1.390 . S
C10 C9 1.381 . S
N11 C4 1.286 . S
N11 C7 1.413 . S
H12 C17 0.930 . S
H13 C20 0.930 . S
H14 C22 0.930 . S
H15 C16 1.016 . S
C16 H15 1.016 . S
C16 N23 1.286 . S
C17 H12 0.930 . S
C17 C18 1.397 . S
C17 C19 1.361 . S
C18 C17 1.397 . S
C18 C22 1.390 . S
C19 C17 1.361 . S
C19 C20 1.393 . S
C19 N23 1.413 . S
C20 H13 0.930 . S
C20 C19 1.393 . S
C20 C21 1.399 . S
C21 C20 1.399 . S
C21 C22 1.381 . S
C22 H14 0.930 . S
C22 C18 1.390 . S
C22 C21 1.381 . S
N23 C16 1.286 . S
N23 C19 1.413 . S
H24 C29 0.930 . S
H25 C32 0.930 . S
H26 C34 0.930 . S
H27 C28 1.016 . S
C28 H27 1.016 . S
C28 N35 1.286 . S
C29 H24 0.930 . S
C29 C30 1.397 . S
C29 C31 1.361 . S
C30 C29 1.397 . S
C30 C34 1.390 . S
C31 C29 1.361 . S
C31 C32 1.393 . S
C31 N35 1.413 . S
C32 H25 0.930 . S
C32 C31 1.393 . S
C32 C33 1.399 . S
C33 C32 1.399 . S
C33 C34 1.381 . S
C34 H26 0.930 . S
C34 C30 1.390 . S
C34 C33 1.381 . S
N35 C28 1.286 . S
N35 C31 1.413 . S
H36 C41 0.930 . S
H37 C44 0.930 . S
H38 C46 0.930 . S
H39 C40 1.016 . S
C40 H39 1.016 . S
C40 N47 1.286 . S
C41 H36 0.930 . S
C41 C42 1.397 . S
C41 C43 1.361 . S
C42 C41 1.397 . S
C42 C46 1.390 . S
C43 C41 1.361 . S
C43 C44 1.393 . S
C43 N47 1.413 . S
C44 H37 0.930 . S
C44 C43 1.393 . S
C44 C45 1.399 . S
C45 C44 1.399 . S
C45 C46 1.381 . S
C46 H38 0.930 . S
C46 C42 1.390 . S
C46 C45 1.381 . S
N47 C40 1.286 . S
N47 C43 1.413 . S
H48 C53 0.930 . S
H49 C56 0.930 . S
H50 C58 0.930 . S
H51 C52 1.016 . S
C52 H51 1.016 . S
C52 N59 1.286 . S
C53 H48 0.930 . S
C53 C54 1.397 . S
C53 C55 1.361 . S
C54 C53 1.397 . S
C54 C58 1.390 . S
C55 C53 1.361 . S
C55 C56 1.393 . S
C55 N59 1.413 . S
C56 H49 0.930 . S
C56 C55 1.393 . S
C56 C57 1.399 . S
C57 C56 1.399 . S
C57 C58 1.381 . S
C58 H50 0.930 . S
C58 C54 1.390 . S
C58 C57 1.381 . S
N59 C52 1.286 . S
N59 C55 1.413 . S
H60 C65 0.930 . S
H61 C68 0.930 . S
H62 C70 0.930 . S
H63 C64 1.016 . S
C64 H63 1.016 . S
C64 N71 1.286 . S
C65 H60 0.930 . S
C65 C66 1.397 . S
C65 C67 1.361 . S
C66 C65 1.397 . S
C66 C70 1.390 . S
C67 C65 1.361 . S
C67 C68 1.393 . S
C67 N71 1.413 . S
C68 H61 0.930 . S
C68 C67 1.393 . S
C68 C69 1.399 . S
C69 C68 1.399 . S
C69 C70 1.381 . S
C70 H62 0.930 . S
C70 C66 1.390 . S
C70 C69 1.381 . S
N71 C64 1.286 . S
N71 C67 1.413 . S
H72 C77 0.930 . S
H73 C80 0.930 . S
H74 C82 0.930 . S
H75 C76 1.016 . S
C76 H75 1.016 . S
C76 N83 1.286 . S
C77 H72 0.930 . S
C77 C78 1.397 . S
C77 C79 1.361 . S
C78 C77 1.397 . S
C78 C82 1.390 . S
C79 C77 1.361 . S
C79 C80 1.393 . S
C79 N83 1.413 . S
C80 H73 0.930 . S
C80 C79 1.393 . S
C80 C81 1.399 . S
C81 C80 1.399 . S
C81 C82 1.381 . S
C82 H74 0.930 . S
C82 C78 1.390 . S
C82 C81 1.381 . S
N83 C76 1.286 . S
N83 C79 1.413 . S
H84 C89 0.930 . S
H85 C92 0.930 . S
H86 C94 0.930 . S
H87 C88 1.016 . S
C88 H87 1.016 . S
C88 N95 1.286 . S
C89 H84 0.930 . S
C89 C90 1.397 . S
C89 C91 1.361 . S
C90 C89 1.397 . S
C90 C94 1.390 . S
C91 C89 1.361 . S
C91 C92 1.393 . S
C91 N95 1.413 . S
C92 H85 0.930 . S
C92 C91 1.393 . S
C92 C93 1.399 . S
C93 C92 1.399 . S
C93 C94 1.381 . S
C94 H86 0.930 . S
C94 C90 1.390 . S
C94 C93 1.381 . S
N95 C88 1.286 . S
N95 C91 1.413 . S
Dy96 O99 2.307 1_545 S
Dy96 O101 2.395 . S
Dy96 O102 2.379 . S
Dy96 O104 2.339 1_545 S
Dy96 O106 2.307 . S
Dy96 O110 2.275 . S
Dy96 C118 2.738 . S
Dy97 O100 2.300 . S
Dy97 O103 2.275 . S
Dy97 O105 2.307 1_565 S
Dy97 O107 2.395 . S
Dy97 O108 2.379 . S
Dy97 O111 2.339 1_565 S
Dy97 C127 2.738 . S
C98 O110 1.254 . S
C98 O111 1.257 1_455 S
O99 Dy96 2.307 1_565 S
O99 C109 1.266 . S
O100 Dy97 2.300 . S
O100 C109 1.234 1_655 S
O101 Dy96 2.395 . S
O101 C118 1.255 . S
O102 Dy96 2.379 . S
O102 C118 1.249 . S
O103 Dy97 2.275 . S
O103 C119 1.254 . S
O104 Dy96 2.339 1_565 S
O104 C119 1.257 1_455 S
O105 Dy97 2.307 1_545 S
O105 C120 1.266 . S
O106 Dy96 2.307 . S
O106 C120 1.227 1_455 S
O107 Dy97 2.395 . S
O107 C127 1.255 . S
O108 Dy97 2.379 . S
O108 C127 1.249 . S
C109 O99 1.266 . S
C109 O100 1.234 1_455 S
O110 Dy96 2.275 . S
O110 C98 1.254 . S
O111 Dy97 2.339 1_545 S
O111 C98 1.257 1_655 S
C112 C115 1.344 . S
C112 C116 1.328 . S
C112 C118 1.516 . S
C113 C114 1.304 . S
C113 C117 1.323 . S
C114 C113 1.304 . S
C114 C115 1.371 . S
C114 H128 0.930 . S
C115 C112 1.344 . S
C115 C114 1.371 . S
C115 H129 0.931 . S
C116 C112 1.328 . S
C116 C117 1.433 . S
C116 H130 0.931 . S
C117 C113 1.323 . S
C117 C116 1.433 . S
C117 H131 0.933 . S
C118 Dy96 2.738 . S
C118 O101 1.255 . S
C118 O102 1.249 . S
C118 C112 1.516 . S
C119 O103 1.254 . S
C119 O104 1.257 1_655 S
C120 O105 1.266 . S
C120 O106 1.227 1_655 S
C121 C124 1.344 . S
C121 C125 1.328 . S
C121 C127 1.516 . S
C122 C123 1.304 . S
C122 C126 1.323 . S
C123 C122 1.304 . S
C123 C124 1.371 . S
C123 H132 0.930 . S
C124 C121 1.344 . S
C124 C123 1.371 . S
C124 H133 0.931 . S
C125 C121 1.328 . S
C125 C126 1.433 . S
C125 H134 0.931 . S
C126 C122 1.323 . S
C126 C125 1.433 . S
C126 H135 0.933 . S
C127 Dy97 2.738 . S
C127 O107 1.255 . S
C127 O108 1.249 . S
C127 C121 1.516 . S
H128 C114 0.930 . S
H129 C115 0.931 . S
H130 C116 0.931 . S
H131 C117 0.933 . S
H132 C123 0.930 . S
H133 C124 0.931 . S
H134 C125 0.931 . S
H135 C126 0.933 . S
Dy136 O139 2.307 1_556 S
Dy136 O141 2.395 1_545 S
Dy136 O142 2.379 1_545 S
Dy136 O144 2.339 . S
Dy136 O146 2.298 1_545 S
Dy136 O150 2.275 1_546 S
Dy136 C158 2.738 1_545 S
Dy137 O140 2.298 . S
Dy137 O143 2.275 1_554 S
Dy137 O145 2.307 1_544 S
Dy137 O147 2.395 . S
Dy137 O148 2.379 . S
Dy137 O151 2.339 1_545 S
Dy137 C167 2.738 . S
C138 O150 1.254 . S
C138 O151 1.257 . S
O139 Dy136 2.307 1_554 S
O139 C149 1.266 . S
O140 Dy137 2.298 . S
O140 C149 1.236 . S
O141 Dy136 2.395 1_565 S
O141 C158 1.255 . S
O142 Dy136 2.379 1_565 S
O142 C158 1.249 . S
O143 Dy137 2.275 1_556 S
O143 C159 1.254 . S
O144 Dy136 2.339 . S
O144 C159 1.257 . S
O145 Dy137 2.307 1_566 S
O145 C160 1.266 . S
O146 Dy136 2.298 1_565 S
O146 C160 1.236 . S
O147 Dy137 2.395 . S
O147 C167 1.255 . S
O148 Dy137 2.379 . S
O148 C167 1.249 . S
C149 O139 1.266 . S
C149 O140 1.236 . S
O150 Dy136 2.275 1_564 S
O150 C138 1.254 . S
O151 Dy137 2.339 1_565 S
O151 C138 1.257 . S
C152 C155 1.344 . S
C152 C156 1.328 . S
C152 C158 1.516 . S
C153 C154 1.304 . S
C153 C157 1.323 . S
C154 C153 1.304 . S
C154 C155 1.371 . S
C154 H168 0.930 . S
C155 C152 1.344 . S
C155 C154 1.371 . S
C155 H169 0.931 . S
C156 C152 1.328 . S
C156 C157 1.433 . S
C156 H170 0.931 . S
C157 C153 1.323 . S
C157 C156 1.433 . S
C157 H171 0.933 . S
C158 Dy136 2.738 1_565 S
C158 O141 1.255 . S
C158 O142 1.249 . S
C158 C152 1.516 . S
C159 O143 1.254 . S
C159 O144 1.257 . S
C160 O145 1.266 . S
C160 O146 1.236 . S
C161 C164 1.344 . S
C161 C165 1.328 . S
C161 C167 1.516 . S
C162 C163 1.304 . S
C162 C166 1.323 . S
C163 C162 1.304 . S
C163 C164 1.371 . S
C163 H172 0.930 . S
C164 C161 1.344 . S
C164 C163 1.371 . S
C164 H173 0.931 . S
C165 C161 1.328 . S
C165 C166 1.433 . S
C165 H174 0.931 . S
C166 C162 1.323 . S
C166 C165 1.433 . S
C166 H175 0.933 . S
C167 Dy137 2.738 . S
C167 O147 1.255 . S
C167 O148 1.249 . S
C167 C161 1.516 . S
H168 C154 0.930 . S
H169 C155 0.931 . S
H170 C156 0.931 . S
H171 C157 0.933 . S
H172 C163 0.930 . S
H173 C164 0.931 . S
H174 C165 0.931 . S
H175 C166 0.933 . S
Dy176 O179 2.307 . S
Dy176 O181 2.395 . S
Dy176 O182 2.379 . S
Dy176 O184 2.339 . S
Dy176 O186 2.298 . S
Dy176 O190 2.275 . S
Dy176 C198 2.738 . S
Dy177 O180 2.298 . S
Dy177 O183 2.275 . S
Dy177 O185 2.307 . S
Dy177 O187 2.395 . S
Dy177 O188 2.379 . S
Dy177 O191 2.339 . S
Dy177 C207 2.738 . S
C178 O190 1.254 . S
C178 O191 1.257 . S
O179 Dy176 2.307 . S
O179 C189 1.266 . S
O180 Dy177 2.298 . S
O180 C189 1.236 . S
O181 Dy176 2.395 . S
O181 C198 1.255 . S
O182 Dy176 2.379 . S
O182 C198 1.249 . S
O183 Dy177 2.275 . S
O183 C199 1.254 . S
O184 Dy176 2.339 . S
O184 C199 1.257 . S
O185 Dy177 2.307 . S
O185 C200 1.266 . S
O186 Dy176 2.298 . S
O186 C200 1.236 . S
O187 Dy177 2.395 . S
O187 C207 1.255 . S
O188 Dy177 2.379 . S
O188 C207 1.249 . S
C189 O179 1.266 . S
C189 O180 1.236 . S
O190 Dy176 2.275 . S
O190 C178 1.254 . S
O191 Dy177 2.339 . S
O191 C178 1.257 . S
C192 C195 1.344 . S
C192 C196 1.328 . S
C192 C198 1.516 . S
C193 C194 1.304 . S
C193 C197 1.323 . S
C194 C193 1.304 . S
C194 C195 1.371 . S
C194 H208 0.930 . S
C195 C192 1.344 . S
C195 C194 1.371 . S
C195 H209 0.931 . S
C196 C192 1.328 . S
C196 C197 1.433 . S
C196 H210 0.931 . S
C197 C193 1.323 . S
C197 C196 1.433 . S
C197 H211 0.933 . S
C198 Dy176 2.738 . S
C198 O181 1.255 . S
C198 O182 1.249 . S
C198 C192 1.516 . S
C199 O183 1.254 . S
C199 O184 1.257 . S
C200 O185 1.266 . S
C200 O186 1.236 . S
C201 C204 1.344 . S
C201 C205 1.328 . S
C201 C207 1.516 . S
C202 C203 1.304 . S
C202 C206 1.323 . S
C203 C202 1.304 . S
C203 C204 1.371 . S
C203 H212 0.930 . S
C204 C201 1.344 . S
C204 C203 1.371 . S
C204 H213 0.931 . S
C205 C201 1.328 . S
C205 C206 1.433 . S
C205 H214 0.931 . S
C206 C202 1.323 . S
C206 C205 1.433 . S
C206 H215 0.933 . S
C207 Dy177 2.738 . S
C207 O187 1.255 . S
C207 O188 1.249 . S
C207 C201 1.516 . S
H208 C194 0.930 . S
H209 C195 0.931 . S
H210 C196 0.931 . S
H211 C197 0.933 . S
H212 C203 0.930 . S
H213 C204 0.931 . S
H214 C205 0.931 . S
H215 C206 0.933 . S
Dy216 O219 2.307 1_556 S
Dy216 O221 2.395 1_455 S
Dy216 O222 2.379 1_455 S
Dy216 O224 2.339 . S
Dy216 O226 2.298 1_455 S
Dy216 O230 2.275 1_456 S
Dy216 C238 2.738 1_455 S
Dy217 O220 2.298 . S
Dy217 O223 2.275 1_554 S
Dy217 O225 2.307 1_455 S
Dy217 O227 2.395 . S
Dy217 O228 2.379 . S
Dy217 O231 2.339 1_455 S
Dy217 C247 2.738 . S
C218 O230 1.254 . S
C218 O231 1.257 . S
O219 Dy216 2.307 1_554 S
O219 C229 1.266 . S
O220 Dy217 2.298 . S
O220 C229 1.236 . S
O221 Dy216 2.395 1_655 S
O221 C238 1.255 . S
O222 Dy216 2.379 1_655 S
O222 C238 1.249 . S
O223 Dy217 2.275 1_556 S
O223 C239 1.254 . S
O224 Dy216 2.339 . S
O224 C239 1.257 . S
O225 Dy217 2.307 1_655 S
O225 C240 1.266 1_554 S
O226 Dy216 2.298 1_655 S
O226 C240 1.236 . S
O227 Dy217 2.395 . S
O227 C247 1.255 . S
O228 Dy217 2.379 . S
O228 C247 1.249 . S
C229 O219 1.266 . S
C229 O220 1.236 . S
O230 Dy216 2.275 1_654 S
O230 C218 1.254 . S
O231 Dy217 2.339 1_655 S
O231 C218 1.257 . S
C232 C235 1.344 . S
C232 C236 1.328 . S
C232 C238 1.516 . S
C233 C234 1.304 . S
C233 C237 1.323 . S
C234 C233 1.304 . S
C234 C235 1.371 . S
C234 H248 0.930 . S
C235 C232 1.344 . S
C235 C234 1.371 . S
C235 H249 0.931 . S
C236 C232 1.328 . S
C236 C237 1.433 . S
C236 H250 0.931 . S
C237 C233 1.323 . S
C237 C236 1.433 . S
C237 H251 0.933 . S
C238 Dy216 2.738 1_655 S
C238 O221 1.255 . S
C238 O222 1.249 . S
C238 C232 1.516 . S
C239 O223 1.254 . S
C239 O224 1.257 . S
C240 O225 1.266 1_556 S
C240 O226 1.236 . S
C241 C244 1.344 . S
C241 C245 1.328 . S
C241 C247 1.516 . S
C242 C243 1.304 . S
C242 C246 1.323 . S
C243 C242 1.304 . S
C243 C244 1.371 . S
C243 H252 0.930 . S
C244 C241 1.344 . S
C244 C243 1.371 . S
C244 H253 0.931 . S
C245 C241 1.328 . S
C245 C246 1.433 . S
C245 H254 0.931 . S
C246 C242 1.323 . S
C246 C245 1.433 . S
C246 H255 0.933 . S
C247 Dy217 2.738 . S
C247 O227 1.255 . S
C247 O228 1.249 . S
C247 C241 1.516 . S
H248 C234 0.930 . S
H249 C235 0.931 . S
H250 C236 0.931 . S
H251 C237 0.933 . S
H252 C243 0.930 . S
H253 C244 0.931 . S
H254 C245 0.931 . S
H255 C246 0.933 . S
H256 C264 0.950 . S
H257 C269 0.950 . S
H258 C266 0.950 . S
H259 C268 0.950 . S
H260 C270 0.950 . S
H261 C272 0.950 . S
H262 C274 0.950 . S
H263 C275 0.950 . S
C264 H256 0.950 . S
C264 C265 1.386 . S
C264 C266 1.391 . S
C265 C264 1.386 . S
C265 C269 1.393 . S
C266 H258 0.950 . S
C266 C264 1.391 . S
C266 C267 1.400 . S
C267 C266 1.400 . S
C267 C268 1.398 . S
C267 C273 1.491 . S
C268 H259 0.950 . S
C268 C267 1.398 . S
C268 C269 1.391 . S
C269 H257 0.950 . S
C269 C265 1.393 . S
C269 C268 1.391 . S
C270 H260 0.950 . S
C270 C271 1.386 . S
C270 C272 1.391 . S
C271 C270 1.386 . S
C271 C275 1.393 . S
C272 H261 0.950 . S
C272 C270 1.391 . S
C272 C273 1.400 . S
C273 C267 1.491 . S
C273 C272 1.400 . S
C273 C274 1.398 . S
C274 H262 0.950 . S
C274 C273 1.398 . S
C274 C275 1.391 . S
C275 H263 0.950 . S
C275 C271 1.393 . S
C275 C274 1.391 . S
H276 C284 0.950 . S
H277 C289 0.950 . S
H278 C286 0.950 . S
H279 C288 0.950 . S
H280 C290 0.950 . S
H281 C292 0.950 . S
H282 C294 0.950 . S
H283 C295 0.950 . S
C284 H276 0.950 . S
C284 C285 1.386 . S
C284 C286 1.391 . S
C285 C284 1.386 . S
C285 C289 1.393 . S
C286 H278 0.950 . S
C286 C284 1.391 . S
C286 C287 1.400 . S
C287 C286 1.400 . S
C287 C288 1.398 . S
C287 C293 1.491 . S
C288 H279 0.950 . S
C288 C287 1.398 . S
C288 C289 1.391 . S
C289 H277 0.950 . S
C289 C285 1.393 . S
C289 C288 1.391 . S
C290 H280 0.950 . S
C290 C291 1.386 . S
C290 C292 1.391 . S
C291 C290 1.386 . S
C291 C295 1.393 . S
C292 H281 0.950 . S
C292 C290 1.391 . S
C292 C293 1.400 . S
C293 C287 1.491 . S
C293 C292 1.400 . S
C293 C294 1.398 . S
C294 H282 0.950 . S
C294 C293 1.398 . S
C294 C295 1.391 . S
C295 H283 0.950 . S
C295 C291 1.393 . S
C295 C294 1.391 . S
H296 C304 0.950 . S
H297 C309 0.950 . S
H298 C306 0.950 . S
H299 C308 0.950 . S
H300 C310 0.950 . S
H301 C312 0.950 . S
H302 C314 0.950 . S
H303 C315 0.950 . S
C304 H296 0.950 . S
C304 C305 1.386 . S
C304 C306 1.391 . S
C305 C304 1.386 . S
C305 C309 1.393 . S
C306 H298 0.950 . S
C306 C304 1.391 . S
C306 C307 1.400 . S
C307 C306 1.400 . S
C307 C308 1.398 . S
C307 C313 1.491 . S
C308 H299 0.950 . S
C308 C307 1.398 . S
C308 C309 1.391 . S
C309 H297 0.950 . S
C309 C305 1.393 . S
C309 C308 1.391 . S
C310 H300 0.950 . S
C310 C311 1.386 . S
C310 C312 1.391 . S
C311 C310 1.386 . S
C311 C315 1.393 . S
C312 H301 0.950 . S
C312 C310 1.391 . S
C312 C313 1.400 . S
C313 C307 1.491 . S
C313 C312 1.400 . S
C313 C314 1.398 . S
C314 H302 0.950 . S
C314 C313 1.398 . S
C314 C315 1.391 . S
C315 H303 0.950 . S
C315 C311 1.393 . S
C315 C314 1.391 . S
H316 C324 0.950 . S
H317 C329 0.950 . S
H318 C326 0.950 . S
H319 C328 0.950 . S
H320 C330 0.950 . S
H321 C332 0.950 . S
H322 C334 0.950 . S
H323 C335 0.950 . S
C324 H316 0.950 . S
C324 C325 1.386 . S
C324 C326 1.391 . S
C325 C324 1.386 . S
C325 C329 1.393 . S
C326 H318 0.950 . S
C326 C324 1.391 . S
C326 C327 1.400 . S
C327 C326 1.400 . S
C327 C328 1.398 . S
C327 C333 1.491 . S
C328 H319 0.950 . S
C328 C327 1.398 . S
C328 C329 1.391 . S
C329 H317 0.950 . S
C329 C325 1.393 . S
C329 C328 1.391 . S
C330 H320 0.950 . S
C330 C331 1.386 . S
C330 C332 1.391 . S
C331 C330 1.386 . S
C331 C335 1.393 . S
C332 H321 0.950 . S
C332 C330 1.391 . S
C332 C333 1.400 . S
C333 C327 1.491 . S
C333 C332 1.400 . S
C333 C334 1.398 . S
C334 H322 0.950 . S
C334 C333 1.398 . S
C334 C335 1.391 . S
C335 H323 0.950 . S
C335 C331 1.393 . S
C335 C334 1.391 . S
H336 C344 0.950 . S
H337 C349 0.950 . S
H338 C346 0.950 . S
H339 C348 0.950 . S
H340 C350 0.950 . S
H341 C352 0.950 . S
H342 C354 0.950 . S
H343 C355 0.950 . S
C344 H336 0.950 . S
C344 C345 1.386 . S
C344 C346 1.391 . S
C345 C344 1.386 . S
C345 C349 1.393 . S
C346 H338 0.950 . S
C346 C344 1.391 . S
C346 C347 1.400 . S
C347 C346 1.400 . S
C347 C348 1.398 . S
C347 C353 1.491 . S
C348 H339 0.950 . S
C348 C347 1.398 . S
C348 C349 1.391 . S
C349 H337 0.950 . S
C349 C345 1.393 . S
C349 C348 1.391 . S
C350 H340 0.950 . S
C350 C351 1.386 . S
C350 C352 1.391 . S
C351 C350 1.386 . S
C351 C355 1.393 . S
C352 H341 0.950 . S
C352 C350 1.391 . S
C352 C353 1.400 . S
C353 C347 1.491 . S
C353 C352 1.400 . S
C353 C354 1.398 . S
C354 H342 0.950 . S
C354 C353 1.398 . S
C354 C355 1.391 . S
C355 H343 0.950 . S
C355 C351 1.393 . S
C355 C354 1.391 . S
H356 C364 0.950 . S
H357 C369 0.950 . S
H358 C366 0.934 1_655 S
H359 C368 0.950 . S
H360 C370 0.950 . S
H361 C372 0.950 . S
H362 C374 0.950 1_655 S
H363 C375 0.950 1_655 S
C364 H356 0.950 . S
C364 C365 1.386 . S
C364 C366 1.391 . S
C365 C364 1.386 . S
C365 C369 1.393 . S
C366 H358 0.934 1_455 S
C366 C364 1.391 . S
C366 C367 1.400 . S
C367 C366 1.400 . S
C367 C368 1.398 . S
C367 C373 1.491 . S
C368 H359 0.950 . S
C368 C367 1.398 . S
C368 C369 1.391 . S
C369 H357 0.950 . S
C369 C365 1.393 . S
C369 C368 1.391 . S
C370 H360 0.950 . S
C370 C371 1.386 . S
C370 C372 1.391 . S
C371 C370 1.386 . S
C371 C375 1.393 . S
C372 H361 0.950 . S
C372 C370 1.391 . S
C372 C373 1.400 . S
C373 C367 1.491 . S
C373 C372 1.400 . S
C373 C374 1.398 . S
C374 H362 0.950 1_455 S
C374 C373 1.398 . S
C374 C375 1.391 . S
C375 H363 0.950 1_455 S
C375 C371 1.393 . S
C375 C374 1.391 . S
H376 C384 0.950 . S
H377 C389 0.950 . S
H378 C386 0.950 . S
H379 C388 0.950 . S
H380 C390 0.950 . S
H381 C392 0.950 . S
H382 C394 0.950 . S
H383 C395 0.950 1_554 S
C384 H376 0.950 . S
C384 C385 1.386 . S
C384 C386 1.391 . S
C385 C384 1.386 . S
C385 C389 1.393 . S
C386 H378 0.950 . S
C386 C384 1.391 . S
C386 C387 1.400 . S
C387 C386 1.400 . S
C387 C388 1.398 . S
C387 C393 1.491 . S
C388 H379 0.950 . S
C388 C387 1.398 . S
C388 C389 1.391 . S
C389 H377 0.950 . S
C389 C385 1.393 . S
C389 C388 1.391 . S
C390 H380 0.950 . S
C390 C391 1.386 . S
C390 C392 1.391 . S
C391 C390 1.386 . S
C391 C395 1.393 . S
C392 H381 0.950 . S
C392 C390 1.391 . S
C392 C393 1.400 . S
C393 C387 1.491 . S
C393 C392 1.400 . S
C393 C394 1.398 . S
C394 H382 0.950 . S
C394 C393 1.398 . S
C394 C395 1.391 . S
C395 H383 0.950 1_556 S
C395 C391 1.393 . S
C395 C394 1.391 . S
H396 C404 0.950 . S
H397 C409 0.950 . S
H398 C406 0.950 . S
H399 C408 0.950 . S
H400 C410 0.950 . S
H401 C412 0.950 . S
H402 C414 0.950 . S
H403 C415 0.950 . S
C404 H396 0.950 . S
C404 C405 1.386 . S
C404 C406 1.391 . S
C405 C404 1.386 . S
C405 C409 1.393 . S
C406 H398 0.950 . S
C406 C404 1.391 . S
C406 C407 1.400 . S
C407 C406 1.400 . S
C407 C408 1.398 . S
C407 C413 1.491 . S
C408 H399 0.950 . S
C408 C407 1.398 . S
C408 C409 1.391 . S
C409 H397 0.950 . S
C409 C405 1.393 . S
C409 C408 1.391 . S
C410 H400 0.950 . S
C410 C411 1.386 . S
C410 C412 1.391 . S
C411 C410 1.386 . S
C411 C415 1.393 . S
C412 H401 0.950 . S
C412 C410 1.391 . S
C412 C413 1.400 . S
C413 C407 1.491 . S
C413 C412 1.400 . S
C413 C414 1.398 . S
C414 H402 0.950 . S
C414 C413 1.398 . S
C414 C415 1.391 . S
C415 H403 0.950 . S
C415 C411 1.393 . S
C415 C414 1.391 . S
H416 C424 0.950 . S
H417 C429 0.950 . S
H418 C426 0.950 . S
H419 C428 0.950 . S
H420 C430 0.950 . S
H421 C432 0.950 . S
H422 C434 0.950 . S
H423 C435 0.950 . S
C424 H416 0.950 . S
C424 C425 1.386 . S
C424 C426 1.391 . S
C425 C424 1.386 . S
C425 C429 1.393 . S
C426 H418 0.950 . S
C426 C424 1.391 . S
C426 C427 1.400 . S
C427 C426 1.400 . S
C427 C428 1.398 . S
C427 C433 1.491 . S
C428 H419 0.950 . S
C428 C427 1.398 . S
C428 C429 1.391 . S
C429 H417 0.950 . S
C429 C425 1.393 . S
C429 C428 1.391 . S
C430 H420 0.950 . S
C430 C431 1.386 . S
C430 C432 1.391 . S
C431 C430 1.386 . S
C431 C435 1.393 . S
C432 H421 0.950 . S
C432 C430 1.391 . S
C432 C433 1.400 . S
C433 C427 1.491 . S
C433 C432 1.400 . S
C433 C434 1.398 . S
C434 H422 0.950 . S
C434 C433 1.398 . S
C434 C435 1.391 . S
C435 H423 0.950 . S
C435 C431 1.393 . S
C435 C434 1.391 . S
H436 C444 0.950 . S
H437 C449 0.950 . S
H438 C446 0.950 . S
H439 C448 0.950 . S
H440 C450 0.950 . S
H441 C452 0.950 . S
H442 C454 0.950 . S
H443 C455 0.950 . S
C444 H436 0.950 . S
C444 C445 1.386 . S
C444 C446 1.391 . S
C445 C444 1.386 . S
C445 C449 1.393 . S
C446 H438 0.950 . S
C446 C444 1.391 . S
C446 C447 1.400 . S
C447 C446 1.400 . S
C447 C448 1.398 . S
C447 C453 1.491 . S
C448 H439 0.950 . S
C448 C447 1.398 . S
C448 C449 1.391 . S
C449 H437 0.950 . S
C449 C445 1.393 . S
C449 C448 1.391 . S
C450 H440 0.950 . S
C450 C451 1.386 . S
C450 C452 1.391 . S
C451 C450 1.386 . S
C451 C455 1.393 . S
C452 H441 0.950 . S
C452 C450 1.391 . S
C452 C453 1.400 . S
C453 C447 1.491 . S
C453 C452 1.400 . S
C453 C454 1.398 . S
C454 H442 0.950 . S
C454 C453 1.398 . S
C454 C455 1.391 . S
C455 H443 0.950 . S
C455 C451 1.393 . S
C455 C454 1.391 . S
H456 C464 0.950 . S
H457 C469 0.950 . S
H458 C466 0.950 . S
H459 C468 0.950 . S
H460 C470 0.950 . S
H461 C472 0.950 . S
H462 C474 0.950 . S
H463 C475 0.950 1_455 S
C464 H456 0.950 . S
C464 C465 1.386 . S
C464 C466 1.391 . S
C465 C464 1.386 . S
C465 C469 1.393 . S
C466 H458 0.950 . S
C466 C464 1.391 . S
C466 C467 1.400 . S
C467 C466 1.400 . S
C467 C468 1.398 . S
C467 C473 1.491 . S
C468 H459 0.950 . S
C468 C467 1.398 . S
C468 C469 1.391 . S
C469 H457 0.950 . S
C469 C465 1.393 . S
C469 C468 1.391 . S
C470 H460 0.950 . S
C470 C471 1.386 . S
C470 C472 1.391 . S
C471 C470 1.386 . S
C471 C475 1.393 . S
C472 H461 0.950 . S
C472 C470 1.391 . S
C472 C473 1.400 . S
C473 C467 1.491 . S
C473 C472 1.400 . S
C473 C474 1.398 . S
C474 H462 0.950 . S
C474 C473 1.398 . S
C474 C475 1.391 . S
C475 H463 0.950 1_655 S
C475 C471 1.393 . S
C475 C474 1.391 . S
H476 C484 0.950 . S
H477 C489 0.950 . S
H478 C486 0.950 . S
H479 C488 0.950 . S
H480 C490 0.950 . S
H481 C492 0.950 . S
H482 C494 0.950 . S
H483 C495 0.950 . S
C484 H476 0.950 . S
C484 C485 1.386 . S
C484 C486 1.391 . S
C485 C484 1.386 . S
C485 C489 1.393 . S
C486 H478 0.950 . S
C486 C484 1.391 . S
C486 C487 1.400 . S
C487 C486 1.400 . S
C487 C488 1.398 . S
C487 C493 1.491 . S
C488 H479 0.950 . S
C488 C487 1.398 . S
C488 C489 1.391 . S
C489 H477 0.950 . S
C489 C485 1.393 . S
C489 C488 1.391 . S
C490 H480 0.950 . S
C490 C491 1.386 . S
C490 C492 1.391 . S
C491 C490 1.386 . S
C491 C495 1.393 . S
C492 H481 0.950 . S
C492 C490 1.391 . S
C492 C493 1.400 . S
C493 C487 1.491 . S
C493 C492 1.400 . S
C493 C494 1.398 . S
C494 H482 0.950 . S
C494 C493 1.398 . S
C494 C495 1.391 . S
C495 H483 0.950 . S
C495 C491 1.393 . S
C495 C494 1.391 . S
H496 C504 0.950 . S
H497 C509 0.950 . S
H498 C506 0.950 . S
H499 C508 0.950 . S
H500 C510 0.950 . S
H501 C512 0.950 . S
H502 C514 0.950 . S
H503 C515 0.950 . S
C504 H496 0.950 . S
C504 C505 1.386 . S
C504 C506 1.391 . S
C505 C504 1.386 . S
C505 C509 1.393 . S
C506 H498 0.950 . S
C506 C504 1.391 . S
C506 C507 1.400 . S
C507 C506 1.400 . S
C507 C508 1.398 . S
C507 C513 1.491 . S
C508 H499 0.950 . S
C508 C507 1.398 . S
C508 C509 1.391 . S
C509 H497 0.950 . S
C509 C505 1.393 . S
C509 C508 1.391 . S
C510 H500 0.950 . S
C510 C511 1.386 . S
C510 C512 1.391 . S
C511 C510 1.386 . S
C511 C515 1.393 . S
C512 H501 0.950 . S
C512 C510 1.391 . S
C512 C513 1.400 . S
C513 C507 1.491 . S
C513 C512 1.400 . S
C513 C514 1.398 . S
C514 H502 0.950 . S
C514 C513 1.398 . S
C514 C515 1.391 . S
C515 H503 0.950 . S
C515 C511 1.393 . S
C515 C514 1.391 . S
H516 C524 0.950 . S
H517 C529 0.950 . S
H518 C526 0.950 . S
H519 C528 0.950 . S
H520 C530 0.950 . S
H521 C532 0.950 . S
H522 C534 0.950 . S
H523 C535 0.950 . S
C524 H516 0.950 . S
C524 C525 1.386 . S
C524 C526 1.391 . S
C525 C524 1.386 . S
C525 C529 1.393 . S
C526 H518 0.950 . S
C526 C524 1.391 . S
C526 C527 1.400 . S
C527 C526 1.400 . S
C527 C528 1.398 . S
C527 C533 1.491 . S
C528 H519 0.950 . S
C528 C527 1.398 . S
C528 C529 1.391 . S
C529 H517 0.950 . S
C529 C525 1.393 . S
C529 C528 1.391 . S
C530 H520 0.950 . S
C530 C531 1.386 . S
C530 C532 1.391 . S
C531 C530 1.386 . S
C531 C535 1.393 . S
C532 H521 0.950 . S
C532 C530 1.391 . S
C532 C533 1.400 . S
C533 C527 1.491 . S
C533 C532 1.400 . S
C533 C534 1.398 . S
C534 H522 0.950 . S
C534 C533 1.398 . S
C534 C535 1.391 . S
C535 H523 0.950 . S
C535 C531 1.393 . S
C535 C534 1.391 . S
H536 C544 0.950 . S
H537 C549 0.950 . S
H538 C546 0.950 . S
H539 C548 0.950 . S
H540 C550 0.950 . S
H541 C552 0.950 . S
H542 C554 0.950 . S
H543 C555 0.950 . S
C544 H536 0.950 . S
C544 C545 1.386 . S
C544 C546 1.391 . S
C545 C544 1.386 . S
C545 C549 1.393 . S
C546 H538 0.950 . S
C546 C544 1.391 . S
C546 C547 1.400 . S
C547 C546 1.400 . S
C547 C548 1.398 . S
C547 C553 1.491 . S
C548 H539 0.950 . S
C548 C547 1.398 . S
C548 C549 1.391 . S
C549 H537 0.950 . S
C549 C545 1.393 . S
C549 C548 1.391 . S
C550 H540 0.950 . S
C550 C551 1.386 . S
C550 C552 1.391 . S
C551 C550 1.386 . S
C551 C555 1.393 . S
C552 H541 0.950 . S
C552 C550 1.391 . S
C552 C553 1.400 . S
C553 C547 1.491 . S
C553 C552 1.400 . S
C553 C554 1.398 . S
C554 H542 0.950 . S
C554 C553 1.398 . S
C554 C555 1.391 . S
C555 H543 0.950 . S
C555 C551 1.393 . S
C555 C554 1.391 . S
H556 C564 0.950 . S
H557 C569 0.950 . S
H558 C566 0.950 . S
H559 C568 0.950 . S
H560 C570 0.950 . S
H561 C572 0.950 . S
H562 C574 0.950 . S
H563 C575 0.950 . S
C564 H556 0.950 . S
C564 C565 1.386 . S
C564 C566 1.391 . S
C565 C564 1.386 . S
C565 C569 1.393 . S
C566 H558 0.950 . S
C566 C564 1.391 . S
C566 C567 1.400 . S
C567 C566 1.400 . S
C567 C568 1.398 . S
C567 C573 1.491 . S
C568 H559 0.950 . S
C568 C567 1.398 . S
C568 C569 1.391 . S
C569 H557 0.950 . S
C569 C565 1.393 . S
C569 C568 1.391 . S
C570 H560 0.950 . S
C570 C571 1.386 . S
C570 C572 1.391 . S
C571 C570 1.386 . S
C571 C575 1.393 . S
C572 H561 0.950 . S
C572 C570 1.391 . S
C572 C573 1.400 . S
C573 C567 1.491 . S
C573 C572 1.400 . S
C573 C574 1.398 . S
C574 H562 0.950 . S
C574 C573 1.398 . S
C574 C575 1.391 . S
C575 H563 0.950 . S
C575 C571 1.393 . S
C575 C574 1.391 . S
H576 C584 0.950 . S
H577 C589 0.950 . S
H578 C586 0.950 . S
H579 C588 0.950 . S
H580 C590 0.950 . S
H581 C592 0.950 . S
H582 C594 0.950 . S
H583 C595 0.950 . S
C584 H576 0.950 . S
C584 C585 1.386 . S
C584 C586 1.391 . S
C585 C584 1.386 . S
C585 C589 1.393 . S
C586 H578 0.950 . S
C586 C584 1.391 . S
C586 C587 1.400 . S
C587 C586 1.400 . S
C587 C588 1.398 . S
C587 C593 1.491 . S
C588 H579 0.950 . S
C588 C587 1.398 . S
C588 C589 1.391 . S
C589 H577 0.950 . S
C589 C585 1.393 . S
C589 C588 1.391 . S
C590 H580 0.950 . S
C590 C591 1.386 . S
C590 C592 1.391 . S
C591 C590 1.386 . S
C591 C595 1.393 . S
C592 H581 0.950 . S
C592 C590 1.391 . S
C592 C593 1.400 . S
C593 C587 1.491 . S
C593 C592 1.400 . S
C593 C594 1.398 . S
C594 H582 0.950 . S
C594 C593 1.398 . S
C594 C595 1.391 . S
C595 H583 0.950 . S
C595 C591 1.393 . S
C595 C594 1.391 . S
H596 C604 0.950 . S
H597 C609 0.950 . S
H598 C606 0.950 . S
H599 C608 0.950 . S
H600 C610 0.950 1_455 S
H601 C612 0.950 1_455 S
H602 C614 0.950 . S
H603 C615 0.950 . S
C604 H596 0.950 . S
C604 C605 1.386 . S
C604 C606 1.391 . S
C605 C604 1.386 . S
C605 C609 1.393 . S
C606 H598 0.950 . S
C606 C604 1.391 . S
C606 C607 1.400 . S
C607 C606 1.400 . S
C607 C608 1.398 . S
C607 C613 1.491 . S
C608 H599 0.950 . S
C608 C607 1.398 . S
C608 C609 1.391 . S
C609 H597 0.950 . S
C609 C605 1.393 . S
C609 C608 1.391 . S
C610 H600 0.950 1_655 S
C610 C611 1.386 . S
C610 C612 1.391 . S
C611 C610 1.386 . S
C611 C615 1.393 . S
C612 H601 0.950 1_655 S
C612 C610 1.391 . S
C612 C613 1.400 . S
C613 C607 1.491 . S
C613 C612 1.400 . S
C613 C614 1.398 . S
C614 H602 0.950 . S
C614 C613 1.398 . S
C614 C615 1.391 . S
C615 H603 0.950 . S
C615 C611 1.393 . S
C615 C614 1.391 . S
H616 C624 0.950 . S
H617 C629 0.950 . S
H618 C626 0.950 . S
H619 C628 0.950 . S
H620 C630 0.950 . S
H621 C632 0.950 . S
H622 C634 0.950 . S
H623 C635 0.950 . S
C624 H616 0.950 . S
C624 C625 1.386 . S
C624 C626 1.391 . S
C625 C624 1.386 . S
C625 C629 1.393 . S
C626 H618 0.950 . S
C626 C624 1.391 . S
C626 C627 1.400 . S
C627 C626 1.400 . S
C627 C628 1.398 . S
C627 C633 1.491 . S
C628 H619 0.950 . S
C628 C627 1.398 . S
C628 C629 1.391 . S
C629 H617 0.950 . S
C629 C625 1.393 . S
C629 C628 1.391 . S
C630 H620 0.950 . S
C630 C631 1.386 . S
C630 C632 1.391 . S
C631 C630 1.386 . S
C631 C635 1.393 . S
C632 H621 0.950 . S
C632 C630 1.391 . S
C632 C633 1.400 . S
C633 C627 1.491 . S
C633 C632 1.400 . S
C633 C634 1.398 . S
C634 H622 0.950 . S
C634 C633 1.398 . S
C634 C635 1.391 . S
C635 H623 0.950 . S
C635 C631 1.393 . S
C635 C634 1.391 . S
H636 C644 0.950 . S
H637 C649 0.950 . S
H638 C646 0.950 . S
H639 C648 0.950 . S
H640 C650 0.950 . S
H641 C652 0.950 . S
H642 C654 0.950 . S
H643 C655 0.950 . S
C644 H636 0.950 . S
C644 C645 1.386 . S
C644 C646 1.391 . S
C645 C644 1.386 . S
C645 C649 1.393 . S
C646 H638 0.950 . S
C646 C644 1.391 . S
C646 C647 1.400 . S
C647 C646 1.400 . S
C647 C648 1.398 . S
C647 C653 1.491 . S
C648 H639 0.950 . S
C648 C647 1.398 . S
C648 C649 1.391 . S
C649 H637 0.950 . S
C649 C645 1.393 . S
C649 C648 1.391 . S
C650 H640 0.950 . S
C650 C651 1.386 . S
C650 C652 1.391 . S
C651 C650 1.386 . S
C651 C655 1.393 . S
C652 H641 0.950 . S
C652 C650 1.391 . S
C652 C653 1.400 . S
C653 C647 1.491 . S
C653 C652 1.400 . S
C653 C654 1.398 . S
C654 H642 0.950 . S
C654 C653 1.398 . S
C654 C655 1.391 . S
C655 H643 0.950 . S
C655 C651 1.393 . S
C655 C654 1.391 . S
H656 C664 0.950 . S
H657 C669 0.950 . S
H658 C666 0.950 . S
H659 C668 0.950 . S
H660 C670 0.950 . S
H661 C672 0.950 . S
H662 C674 0.950 . S
H663 C675 0.950 . S
C664 H656 0.950 . S
C664 C665 1.386 . S
C664 C666 1.391 . S
C665 C664 1.386 . S
C665 C669 1.393 . S
C666 H658 0.950 . S
C666 C664 1.391 . S
C666 C667 1.400 . S
C667 C666 1.400 . S
C667 C668 1.398 . S
C667 C673 1.491 . S
C668 H659 0.950 . S
C668 C667 1.398 . S
C668 C669 1.391 . S
C669 H657 0.950 . S
C669 C665 1.393 . S
C669 C668 1.391 . S
C670 H660 0.950 . S
C670 C671 1.386 . S
C670 C672 1.391 . S
C671 C670 1.386 . S
C671 C675 1.393 . S
C672 H661 0.950 . S
C672 C670 1.391 . S
C672 C673 1.400 . S
C673 C667 1.491 . S
C673 C672 1.400 . S
C673 C674 1.398 . S
C674 H662 0.950 . S
C674 C673 1.398 . S
C674 C675 1.391 . S
C675 H663 0.950 . S
C675 C671 1.393 . S
C675 C674 1.391 . S
H676 C684 0.950 . S
H677 C689 0.950 . S
H678 C686 0.950 . S
H679 C688 0.950 . S
H680 C690 0.950 . S
H681 C692 0.950 . S
H682 C694 0.950 . S
H683 C695 0.950 . S
C684 H676 0.950 . S
C684 C685 1.386 . S
C684 C686 1.391 . S
C685 C684 1.386 . S
C685 C689 1.393 . S
C686 H678 0.950 . S
C686 C684 1.391 . S
C686 C687 1.400 . S
C687 C686 1.400 . S
C687 C688 1.398 . S
C687 C693 1.491 . S
C688 H679 0.950 . S
C688 C687 1.398 . S
C688 C689 1.391 . S
C689 H677 0.950 . S
C689 C685 1.393 . S
C689 C688 1.391 . S
C690 H680 0.950 . S
C690 C691 1.386 . S
C690 C692 1.391 . S
C691 C690 1.386 . S
C691 C695 1.393 . S
C692 H681 0.950 . S
C692 C690 1.391 . S
C692 C693 1.400 . S
C693 C687 1.491 . S
C693 C692 1.400 . S
C693 C694 1.398 . S
C694 H682 0.950 . S
C694 C693 1.398 . S
C694 C695 1.391 . S
C695 H683 0.950 . S
C695 C691 1.393 . S
C695 C694 1.391 . S
H696 C704 0.950 . S
H697 C709 0.950 . S
H698 C706 0.950 . S
H699 C708 0.950 . S
H700 C710 0.950 . S
H701 C712 0.950 . S
H702 C714 0.950 . S
H703 C715 0.950 . S
C704 H696 0.950 . S
C704 C705 1.386 . S
C704 C706 1.391 . S
C705 C704 1.386 . S
C705 C709 1.393 . S
C706 H698 0.950 . S
C706 C704 1.391 . S
C706 C707 1.400 . S
C707 C706 1.400 . S
C707 C708 1.398 . S
C707 C713 1.491 . S
C708 H699 0.950 . S
C708 C707 1.398 . S
C708 C709 1.391 . S
C709 H697 0.950 . S
C709 C705 1.393 . S
C709 C708 1.391 . S
C710 H700 0.950 . S
C710 C711 1.386 . S
C710 C712 1.391 . S
C711 C710 1.386 . S
C711 C715 1.393 . S
C712 H701 0.950 . S
C712 C710 1.391 . S
C712 C713 1.400 . S
C713 C707 1.491 . S
C713 C712 1.400 . S
C713 C714 1.398 . S
C714 H702 0.950 . S
C714 C713 1.398 . S
C714 C715 1.391 . S
C715 H703 0.950 . S
C715 C711 1.393 . S
C715 C714 1.391 . S
H716 C724 0.950 . S
H717 C729 0.950 . S
H718 C726 0.950 . S
H719 C728 0.950 . S
H720 C730 0.950 . S
H721 C732 0.950 . S
H722 C734 0.950 . S
H723 C735 0.950 . S
C724 H716 0.950 . S
C724 C725 1.386 . S
C724 C726 1.391 . S
C725 C724 1.386 . S
C725 C729 1.393 . S
C726 H718 0.950 . S
C726 C724 1.391 . S
C726 C727 1.400 . S
C727 C726 1.400 . S
C727 C728 1.398 . S
C727 C733 1.491 . S
C728 H719 0.950 . S
C728 C727 1.398 . S
C728 C729 1.391 . S
C729 H717 0.950 . S
C729 C725 1.393 . S
C729 C728 1.391 . S
C730 H720 0.950 . S
C730 C731 1.386 . S
C730 C732 1.391 . S
C731 C730 1.386 . S
C731 C735 1.393 . S
C732 H721 0.950 . S
C732 C730 1.391 . S
C732 C733 1.400 . S
C733 C727 1.491 . S
C733 C732 1.400 . S
C733 C734 1.398 . S
C734 H722 0.950 . S
C734 C733 1.398 . S
C734 C735 1.391 . S
C735 H723 0.950 . S
C735 C731 1.393 . S
C735 C734 1.391 . S
C265 C6 1.033 . S
C271 C113 1.072 . S
C285 C18 1.284 . S
C291 C153 1.294 . S
C311 C178 2.536 . S
C305 C28 2.574 . S
C325 C40 1.821 . S
C331 C218 1.770 . S
C351 C149 1.847 . S
C345 C9 1.783 . S
C371 C109 1.683 . S
C365 C16 1.613 . S
C391 C240 1.689 . S
C385 C30 1.708 . S
C411 C200 1.320 . S
C405 C42 1.348 . S
C425 C4 1.253 . S
C431 C242 1.255 . S
C451 C159 2.369 . S
C445 C33 2.399 . S
C465 C45 1.891 . S
C471 C119 1.867 . S
C485 C21 1.410 . S
C491 C202 1.448 . S
C511 C122 1.104 . S
C505 C57 1.092 . S
C525 C66 1.267 . S
C531 C162 1.288 . S
C545 C76 2.626 . S
C551 C199 2.570 . S
C565 C88 1.731 . S
C571 C239 1.707 . S
C585 C54 1.777 . S
C591 C160 1.843 . S
C611 C120 1.774 . S
C605 C64 1.732 . S
C631 C229 1.597 . S
C625 C78 1.613 . S
C651 C189 1.385 . S
C645 C93 1.400 . S
C665 C52 1.269 . S
C671 C233 1.297 . S
C691 C138 2.348 . S
C685 C81 2.377 . S
C711 C98 1.823 . S
C705 C90 1.859 . S
C725 C69 1.402 . S
C731 C193 1.461 . S
