# Generated by pormake.
# Topology pyr, (3,6)-cn, num edge types: 1
# Building blocks:
#     Node 0, Type 0, BuildingBlock: INOVEN_clean_linker_0, # of connection points: 3
#     Node 1, Type 0, BuildingBlock: INOVEN_clean_linker_0, # of connection points: 3
#     Node 2, Type 0, BuildingBlock: INOVEN_clean_linker_0, # of connection points: 3
#     Node 3, Type 0, BuildingBlock: INOVEN_clean_linker_0, # of connection points: 3
#     Node 4, Type 0, BuildingBlock: INOVEN_clean_linker_0, # of connection points: 3
#     Node 5, Type 0, BuildingBlock: INOVEN_clean_linker_0, # of connection points: 3
#     Node 6, Type 0, BuildingBlock: INOVEN_clean_linker_0, # of connection points: 3
#     Node 7, Type 0, BuildingBlock: INOVEN_clean_linker_0, # of connection points: 3
#     Node 8, Type 1, BuildingBlock: MIFKUJ_clean_sbu_0, # of connection points: 6
#     Node 9, Type 1, BuildingBlock: MIFKUJ_clean_sbu_0, # of connection points: 6
#     Node 10, Type 1, BuildingBlock: MIFKUJ_clean_sbu_0, # of connection points: 6
#     Node 11, Type 1, BuildingBlock: MIFKUJ_clean_sbu_0, # of connection points: 6
#     Edge 12, Type (0, 1), BuildingBlock: XIVTED_clean_linker_0, # of connection points: 2
#     Edge 13, Type (0, 1), BuildingBlock: XIVTED_clean_linker_0, # of connection points: 2
#     Edge 14, Type (0, 1), BuildingBlock: XIVTED_clean_linker_0, # of connection points: 2
#     Edge 15, Type (0, 1), BuildingBlock: XIVTED_clean_linker_0, # of connection points: 2
#     Edge 16, Type (0, 1), BuildingBlock: XIVTED_clean_linker_0, # of connection points: 2
#     Edge 17, Type (0, 1), BuildingBlock: XIVTED_clean_linker_0, # of connection points: 2
#     Edge 18, Type (0, 1), BuildingBlock: XIVTED_clean_linker_0, # of connection points: 2
#     Edge 19, Type (0, 1), BuildingBlock: XIVTED_clean_linker_0, # of connection points: 2
#     Edge 20, Type (0, 1), BuildingBlock: XIVTED_clean_linker_0, # of connection points: 2
#     Edge 21, Type (0, 1), BuildingBlock: XIVTED_clean_linker_0, # of connection points: 2
#     Edge 22, Type (0, 1), BuildingBlock: XIVTED_clean_linker_0, # of connection points: 2
#     Edge 23, Type (0, 1), BuildingBlock: XIVTED_clean_linker_0, # of connection points: 2
#     Edge 24, Type (0, 1), BuildingBlock: XIVTED_clean_linker_0, # of connection points: 2
#     Edge 25, Type (0, 1), BuildingBlock: XIVTED_clean_linker_0, # of connection points: 2
#     Edge 26, Type (0, 1), BuildingBlock: XIVTED_clean_linker_0, # of connection points: 2
#     Edge 27, Type (0, 1), BuildingBlock: XIVTED_clean_linker_0, # of connection points: 2
#     Edge 28, Type (0, 1), BuildingBlock: XIVTED_clean_linker_0, # of connection points: 2
#     Edge 29, Type (0, 1), BuildingBlock: XIVTED_clean_linker_0, # of connection points: 2
#     Edge 30, Type (0, 1), BuildingBlock: XIVTED_clean_linker_0, # of connection points: 2
#     Edge 31, Type (0, 1), BuildingBlock: XIVTED_clean_linker_0, # of connection points: 2
#     Edge 32, Type (0, 1), BuildingBlock: XIVTED_clean_linker_0, # of connection points: 2
#     Edge 33, Type (0, 1), BuildingBlock: XIVTED_clean_linker_0, # of connection points: 2
#     Edge 34, Type (0, 1), BuildingBlock: XIVTED_clean_linker_0, # of connection points: 2
#     Edge 35, Type (0, 1), BuildingBlock: XIVTED_clean_linker_0, # of connection points: 2
# Relax obj value: 0.054
# Max RMSD: 0.189
# Mean RMSD: 0.124
data_MOF--net-pyr--node1-MIFKUJ_clean_sbu_0--node2-INOVEN_clean_linker_0--edge1-XIVTED_clean_linker_0
_symmetry_space_group_name_H-M    P1
_symmetry_Int_Tables_number       1
_symmetry_cell_setting            triclinic
loop_
_symmetry_equiv_pos_as_xyz
'x, y, z'
_cell_length_a     38.436914
_cell_length_b     35.017162
_cell_length_c     38.849738
_cell_angle_alpha  86.239632
_cell_angle_beta   89.255355
_cell_angle_gamma 103.49244
loop_
_atom_site_label
_atom_site_type_symbol
_atom_site_fract_x
_atom_site_fract_y
_atom_site_fract_z
_atom_type_partial_charge
H0 H 0.1197 0.18962 0.22245 0.0
H1 H 0.20296 0.12728 0.23699 0.0
H2 H 0.19213 0.18635 0.13831 0.0
N3 N 0.13813 0.21573 0.15636 0.0
N4 N 0.11197 0.22778 0.16658 0.0
C5 C 0.14263 0.18036 0.2125 0.0
C6 C 0.15974 0.15694 0.2339 0.0
C7 C 0.15457 0.19133 0.17813 0.0
C8 C 0.18353 0.17833 0.16502 0.0
C9 C 0.20085 0.1546 0.18591 0.0
C10 C 0.18899 0.14445 0.22041 0.0
H11 H 0.35226 0.84098 0.64559 0.0
H12 H 0.40694 0.82786 0.7397 0.0
H13 H 0.33373 0.9044 0.7324 0.0
N14 N 0.31465 0.88866 0.66664 0.0
N15 N 0.29419 0.90751 0.67891 0.0
C16 C 0.35798 0.84874 0.67184 0.0
C17 C 0.38157 0.83146 0.69103 0.0
C18 C 0.34025 0.87448 0.68664 0.0
C19 C 0.34734 0.88437 0.72084 0.0
C20 C 0.37163 0.8679 0.74029 0.0
C21 C 0.38821 0.84092 0.72521 0.0
H22 H 0.62044 0.348 0.84249 0.0
H23 H 0.70223 0.36464 0.9181 0.0
H24 H 0.70632 0.45173 0.83339 0.0
N25 N 0.64576 0.41282 0.80409 0.0
N26 N 0.65703 0.44539 0.78781 0.0
C27 C 0.6449 0.36548 0.85232 0.0
C28 C 0.6591 0.35245 0.88271 0.0
C29 C 0.66155 0.40122 0.83462 0.0
C30 C 0.69331 0.42406 0.84713 0.0
C31 C 0.70834 0.41109 0.87732 0.0
C32 C 0.6907 0.37542 0.89519 0.0
H33 H 0.80038 0.64149 0.30997 0.0
H34 H 0.80997 0.71791 0.39336 0.0
H35 H 0.89768 0.72913 0.32061 0.0
N36 N 0.8644 0.66859 0.28325 0.0
N37 N 0.89475 0.68337 0.27018 0.0
C38 C 0.81571 0.66518 0.32404 0.0
C39 C 0.80068 0.67723 0.35339 0.0
C40 C 0.8505 0.68345 0.31221 0.0
C41 C 0.87066 0.71496 0.32955 0.0
C42 C 0.85608 0.72756 0.35897 0.0
C43 C 0.82119 0.70842 0.37062 0.0
H44 H 0.82325 0.91642 0.792 0.0
H45 H 0.90731 0.85496 0.80581 0.0
H46 H 0.83045 0.85232 0.8883 0.0
N47 N 0.79284 0.89748 0.8527 0.0
N48 N 0.77928 0.88848 0.88231 0.0
C49 C 0.83693 0.89829 0.80794 0.0
C50 C 0.86744 0.88797 0.79505 0.0
C51 C 0.82348 0.88545 0.84124 0.0
C52 C 0.84056 0.86159 0.8622 0.0
C53 C 0.87082 0.85009 0.84959 0.0
C54 C 0.88405 0.86348 0.81588 0.0
H55 H 0.61922 0.172 0.33194 0.0
H56 H 0.70334 0.11037 0.32428 0.0
H57 H 0.70351 0.18973 0.4046 0.0
N58 N 0.64212 0.21007 0.3857 0.0
N59 N 0.65424 0.22803 0.41126 0.0
C60 C 0.64354 0.16501 0.3415 0.0
C61 C 0.65936 0.13888 0.32452 0.0
C62 C 0.65911 0.18325 0.37028 0.0
C63 C 0.69111 0.17519 0.38258 0.0
C64 C 0.70751 0.14905 0.36602 0.0
C65 C 0.69142 0.13112 0.33688 0.0
H66 H 0.38905 0.71263 0.21904 0.0
H67 H 0.3049 0.71034 0.14675 0.0
H68 H 0.29691 0.6154 0.22486 0.0
N69 N 0.35982 0.64595 0.25395 0.0
N70 N 0.34099 0.62444 0.27733 0.0
C71 C 0.36354 0.69817 0.20899 0.0
C72 C 0.34909 0.71612 0.18106 0.0
C73 C 0.34454 0.66241 0.22526 0.0
C74 C 0.31116 0.64358 0.2128 0.0
C75 C 0.297 0.66036 0.18392 0.0
C76 C 0.31597 0.69684 0.16859 0.0
H77 H 0.10732 0.32891 0.72867 0.0
H78 H 0.20028 0.33541 0.66371 0.0
H79 H 0.19629 0.43018 0.72714 0.0
N80 N 0.13091 0.39711 0.75623 0.0
N81 N 0.14321 0.43045 0.76663 0.0
C82 C 0.13363 0.34461 0.71881 0.0
C83 C 0.152 0.32772 0.69473 0.0
C84 C 0.14952 0.38143 0.73086 0.0
C85 C 0.18389 0.40164 0.71821 0.0
C86 C 0.20222 0.38528 0.69377 0.0
C87 C 0.1861 0.34835 0.68236 0.0
Zn88 Zn 0.04026 0.02139 0.53263 0.0
Zn89 Zn 0.97655 0.04768 0.49917 0.0
C90 C 0.07717 0.09286 0.55788 0.0
O91 O 0.10352 0.08123 0.54317 0.0
C92 C 0.94043 0.96981 0.4842 0.0
O93 O 0.91739 0.97647 0.50701 0.0
O94 O 0.07866 0.99746 0.55394 0.0
O95 O 0.99383 0.9853 0.54846 0.0
O96 O 0.96952 0.03586 0.55086 0.0
C97 C 0.10451 0.98842 0.53825 0.0
O98 O 0.10702 0.99291 0.5044 0.0
O99 O 0.0454 0.07251 0.55548 0.0
C100 C 0.93163 0.07694 0.45076 0.0
O101 O 0.95404 0.06745 0.42887 0.0
O102 O 0.93638 0.07213 0.48295 0.0
O103 O 0.02315 0.08204 0.47952 0.0
O104 O 0.05012 0.03296 0.48177 0.0
O105 O 0.96872 0.99623 0.47654 0.0
C106 C 0.97261 0.00231 0.5632 0.0
C107 C 0.04614 0.06524 0.46733 0.0
Zn108 Zn 0.52065 0.0077 0.00609 0.0
Zn109 Zn 0.47399 0.05723 0.06203 0.0
C110 C 0.47252 0.95323 0.96629 0.0
O111 O 0.4852 0.92772 0.98567 0.0
C112 C 0.53584 0.06096 0.10634 0.0
O113 O 0.55435 0.06415 0.07721 0.0
O114 O 0.56175 0.98514 0.99286 0.0
O115 O 0.5381 0.06613 0.99789 0.0
O116 O 0.50393 0.09666 0.027 0.0
C117 C 0.57308 0.99058 0.96168 0.0
O118 O 0.55784 0.01114 0.93959 0.0
O119 O 0.4825 0.98959 0.97149 0.0
C120 C 0.4102 0.05932 0.09822 0.0
O121 O 0.41636 0.02665 0.11271 0.0
O122 O 0.43176 0.07859 0.07472 0.0
O123 O 0.45344 0.00107 0.05076 0.0
O124 O 0.50431 0.98316 0.05343 0.0
O125 O 0.50211 0.05693 0.10559 0.0
C126 C 0.52905 0.09734 0.00522 0.0
C127 C 0.47111 0.97619 0.06073 0.0
Zn128 Zn 0.51378 0.49581 0.51031 0.0
Zn129 Zn 0.49355 0.56555 0.54649 0.0
C130 C 0.56321 0.53341 0.45862 0.0
O131 O 0.54225 0.50576 0.44215 0.0
C132 C 0.44734 0.52084 0.60039 0.0
O133 O 0.47034 0.54347 0.61948 0.0
O134 O 0.5229 0.44448 0.49575 0.0
O135 O 0.51549 0.49195 0.56201 0.0
O136 O 0.53968 0.55485 0.56461 0.0
C137 C 0.55144 0.43637 0.50711 0.0
O138 O 0.57102 0.46029 0.52785 0.0
O139 O 0.55599 0.53686 0.49013 0.0
C140 C 0.45477 0.61934 0.56912 0.0
O141 O 0.42859 0.59225 0.55783 0.0
O142 O 0.48681 0.61576 0.56586 0.0
O143 O 0.48495 0.57024 0.4955 0.0
O144 O 0.47029 0.50661 0.48719 0.0
O145 O 0.45276 0.52341 0.56788 0.0
C146 C 0.53664 0.51944 0.57628 0.0
C147 C 0.46843 0.54178 0.47875 0.0
Zn148 Zn 0.00515 0.58972 0.99564 0.0
Zn149 Zn 0.0086 0.51392 0.03364 0.0
C150 C 0.94893 0.55565 0.9538 0.0
O151 O 0.97218 0.57706 0.93096 0.0
C152 C 0.06237 0.53915 0.08058 0.0
O153 O 0.03606 0.51879 0.10097 0.0
O154 O 0.00152 0.64268 0.9745 0.0
O155 O 0.00909 0.59546 0.04666 0.0
O156 O 0.97259 0.53759 0.05807 0.0
C157 C 0.97473 0.6536 0.98651 0.0
O158 O 0.95538 0.63181 0.01191 0.0
O159 O 0.95706 0.55495 0.98542 0.0
C160 C 0.02743 0.4418 0.04043 0.0
O161 O 0.04861 0.46056 0.01485 0.0
O162 O 0.00482 0.45849 0.05347 0.0
O163 O 0.00885 0.51066 0.9819 0.0
O164 O 0.04285 0.56994 0.97021 0.0
O165 O 0.05735 0.54256 0.04833 0.0
C166 C 0.98505 0.57275 0.06602 0.0
C167 C 0.03243 0.53434 0.96272 0.0
H168 H 0.15437 0.08544 0.26954 0.0
H169 H 0.04738 0.1354 0.43095 0.0
H170 H 0.13471 0.20059 0.28065 0.0
H171 H 0.09083 0.03231 0.42991 0.0
H172 H 0.07809 0.1596 0.3755 0.0
H173 H 0.13037 0.06517 0.32799 0.0
C174 C 0.14539 0.10665 0.28436 0.0
C175 C 0.1465 0.14479 0.27 0.0
C176 C 0.0811 0.13183 0.38756 0.0
C177 C 0.11825 0.12141 0.33685 0.0
C178 C 0.06353 0.11797 0.41918 0.0
C179 C 0.06637 0.08166 0.43501 0.0
C180 C 0.10133 0.10905 0.3715 0.0
C181 C 0.08777 0.06039 0.41862 0.0
C182 C 0.1315 0.09496 0.31771 0.0
C183 C 0.1338 0.17068 0.29035 0.0
N184 N 0.10418 0.07425 0.38764 0.0
N185 N 0.12 0.15844 0.32265 0.0
H186 H 0.37992 0.82017 0.79704 0.0
H187 H 0.44771 -0.00103 0.9167 0.0
H188 H 0.38337 0.94139 0.76502 0.0
H189 H 0.44852 0.87821 0.94643 0.0
H190 H 0.41806 0.97766 0.86359 0.0
H191 H 0.39934 0.84016 0.8541 0.0
C192 C 0.3847 0.85101 0.80201 0.0
C193 C 0.38035 0.87919 0.77601 0.0
C194 C 0.42446 0.95578 0.88186 0.0
C195 C 0.40243 0.90231 0.84154 0.0
C196 C 0.44131 0.96792 0.91228 0.0
C197 C 0.45091 0.94038 0.93599 0.0
C198 C 0.41716 0.91582 0.87503 0.0
C199 C 0.44186 0.90054 0.92883 0.0
C200 C 0.39564 0.86239 0.83469 0.0
C201 C 0.38621 0.91861 0.78426 0.0
N202 N 0.42575 0.88952 0.89892 0.0
N203 N 0.39721 0.92903 0.81619 0.0
H204 H 0.60436 0.39811 0.75356 0.0
H205 H 0.58526 0.56975 0.61383 0.0
H206 H 0.6718 0.5154 0.75221 0.0
H207 H 0.53233 0.44715 0.60891 0.0
H208 H 0.61601 0.55212 0.66536 0.0
H209 H 0.57625 0.41714 0.70151 0.0
C210 C 0.61325 0.42798 0.74226 0.0
C211 C 0.6404 0.45546 0.75719 0.0
C212 C 0.59771 0.52916 0.65288 0.0
C213 C 0.60819 0.47748 0.6974 0.0
C214 C 0.58012 0.53919 0.62353 0.0
C215 C 0.55608 0.50991 0.60708 0.0
C216 C 0.591 0.48964 0.66589 0.0
C217 C 0.55052 0.47077 0.62072 0.0
C218 C 0.59722 0.43884 0.71243 0.0
C219 C 0.65091 0.49359 0.74133 0.0
N220 N 0.56772 0.46187 0.64931 0.0
N221 N 0.63469 0.50364 0.71228 0.0
H222 H 0.95596 0.7134 0.23504 0.0
H223 H 0.92893 0.53601 0.10996 0.0
H224 H 0.86346 0.61583 0.24042 0.0
H225 H 0.01118 0.64343 0.09328 0.0
H226 H 0.90707 0.56238 0.16064 0.0
H227 H 0.97931 0.68591 0.18546 0.0
C228 C 0.94068 0.68622 0.22567 0.0
C229 C 0.90788 0.66705 0.24157 0.0
C230 C 0.92992 0.58014 0.14587 0.0
C231 C 0.93411 0.6352 0.18535 0.0
C232 C 0.94246 0.56506 0.117 0.0
C233 C 0.97186 0.58756 0.09728 0.0
C234 C 0.94705 0.6179 0.15523 0.0
C235 C 0.98834 0.62506 0.10762 0.0
C236 C 0.95388 0.67055 0.19748 0.0
C237 C 0.88887 0.63175 0.22876 0.0
N238 N 0.97572 0.63901 0.13587 0.0
N239 N 0.90231 0.61697 0.20142 0.0
H240 H 0.21404 0.08135 0.19726 0.0
H241 H 0.39242 0.12875 0.07803 0.0
H242 H 0.25634 0.19423 0.14223 0.0
H243 H 0.35672 0.02243 0.14433 0.0
H244 H 0.34091 0.15194 0.09821 0.0
H245 H 0.26447 0.05806 0.17524 0.0
C246 C 0.23405 0.10135 0.18068 0.0
C247 C 0.23104 0.13994 0.17181 0.0
C248 C 0.34437 0.12353 0.10831 0.0
C249 C 0.28873 0.11318 0.14604 0.0
C250 C 0.37373 0.11024 0.09676 0.0
C251 C 0.37893 0.07361 0.10957 0.0
C252 C 0.31996 0.09995 0.1327 0.0
C253 C 0.35386 0.0509 0.13381 0.0
C254 C 0.26276 0.08794 0.16796 0.0
C255 C 0.25739 0.16417 0.14955 0.0
N256 N 0.32549 0.06443 0.14457 0.0
N257 N 0.28518 0.15042 0.13748 0.0
H258 H 0.24456 0.94249 0.70111 0.0
H259 H 0.16169 0.9623 0.51416 0.0
H260 H 0.28447 0.90132 0.60981 0.0
H261 H 0.1118 0.98549 0.60828 0.0
H262 H 0.20885 0.94318 0.54815 0.0
H263 H 0.19773 0.96252 0.66681 0.0
C264 C 0.24343 0.93789 0.67381 0.0
C265 C 0.26818 0.92028 0.65834 0.0
C266 C 0.18752 0.95237 0.56135 0.0
C267 C 0.21502 0.94285 0.61887 0.0
C268 C 0.16058 0.96328 0.54195 0.0
C269 C 0.13268 0.97546 0.55836 0.0
C270 C 0.18672 0.9539 0.59741 0.0
C271 C 0.13268 0.97618 0.59449 0.0
C272 C 0.21675 0.94913 0.65427 0.0
C273 C 0.26582 0.91475 0.62284 0.0
N274 N 0.15931 0.96568 0.61275 0.0
N275 N 0.23969 0.92603 0.60433 0.0
H276 H 0.72827 0.42512 0.94389 0.0
H277 H 0.926 0.54773 0.88795 0.0
H278 H 0.76796 0.44833 0.83829 0.0
H279 H 0.89147 0.51426 0.9941 0.0
H280 H 0.86729 0.51349 0.86957 0.0
H281 H 0.78684 0.4598 0.96304 0.0
C282 C 0.74929 0.43746 0.92472 0.0
C283 C 0.74313 0.43376 0.88939 0.0
C284 C 0.8725 0.51353 0.89689 0.0
C285 C 0.81015 0.47374 0.91116 0.0
C286 C 0.90607 0.53311 0.90743 0.0
C287 C 0.91367 0.53387 0.94264 0.0
C288 C 0.84616 0.49462 0.9217 0.0
C289 C 0.88677 0.51434 0.96668 0.0
C290 C 0.78268 0.45735 0.93568 0.0
C291 C 0.77124 0.45089 0.86573 0.0
N292 N 0.85414 0.49557 0.95577 0.0
N293 N 0.80347 0.47004 0.87704 0.0
H294 H 0.76773 0.59856 0.35318 0.0
H295 H 0.60466 0.60369 0.47689 0.0
H296 H 0.74974 0.70893 0.38411 0.0
H297 H 0.5975 0.51685 0.40176 0.0
H298 H 0.66155 0.64045 0.44924 0.0
H299 H 0.70845 0.56536 0.37655 0.0
C300 C 0.75132 0.616 0.36449 0.0
C301 C 0.76405 0.65677 0.3666 0.0
C302 C 0.64728 0.61348 0.43877 0.0
C303 C 0.69648 0.61845 0.39444 0.0
C304 C 0.61498 0.59248 0.45455 0.0
C305 C 0.59642 0.55723 0.44156 0.0
C306 C 0.66133 0.59853 0.41041 0.0
C307 C 0.61088 0.54399 0.41252 0.0
C308 C 0.71753 0.59689 0.37803 0.0
C309 C 0.74159 0.67739 0.38248 0.0
N310 N 0.6427 0.56442 0.39814 0.0
N311 N 0.70904 0.65794 0.39608 0.0
H312 H 0.13 0.25536 0.09986 0.0
H313 H 0.99775 0.40102 0.10069 0.0
H314 H 0.05802 0.25807 0.18515 0.0
H315 H 0.07107 0.3977 0.0164 0.0
H316 H 0.01431 0.3438 0.12952 0.0
H317 H 0.10403 0.30285 0.06651 0.0
C318 C 0.10851 0.26581 0.11145 0.0
C319 C 0.09611 0.25318 0.14539 0.0
C320 C 0.02649 0.35539 0.10456 0.0
C321 C 0.06641 0.30759 0.10748 0.0
C322 C 0.01696 0.38796 0.08804 0.0
C323 C 0.03334 0.40441 0.05627 0.0
C324 C 0.05259 0.33925 0.08917 0.0
C325 C 0.05803 0.38627 0.04105 0.0
C326 C 0.09365 0.29291 0.09242 0.0
C327 C 0.06819 0.26743 0.15909 0.0
N328 N 0.0671 0.3549 0.05776 0.0
N329 N 0.05438 0.29416 0.14021 0.0
H330 H 0.63753 0.28115 0.8556 0.0
H331 H 0.53274 0.17166 0.02557 0.0
H332 H 0.63971 0.33769 0.95113 0.0
H333 H 0.56958 0.10949 0.94545 0.0
H334 H 0.56548 0.23407 0.99627 0.0
H335 H 0.60619 0.21878 0.88583 0.0
C336 C 0.63133 0.28033 0.88296 0.0
C337 C 0.6411 0.31445 0.90098 0.0
C338 C 0.5664 0.20671 0.98523 0.0
C339 C 0.60514 0.24355 0.93557 0.0
C340 C 0.5476 0.17114 0.00179 0.0
C341 C 0.54843 0.13534 0.98791 0.0
C342 C 0.5856 0.20645 0.9543 0.0
C343 C 0.5683 0.13639 0.95714 0.0
C344 C 0.61364 0.2448 0.9002 0.0
C345 C 0.63275 0.31189 0.93644 0.0
N346 N 0.5859 0.17138 0.94124 0.0
N347 N 0.61495 0.27705 0.95258 0.0
H348 H 0.89804 0.79811 0.33174 0.0
H349 H 0.89483 0.9006 0.50673 0.0
H350 H 0.86039 0.73349 0.42878 0.0
H351 H 0.96888 0.95395 0.42312 0.0
H352 H 0.88011 0.83976 0.47714 0.0
H353 H 0.92394 0.85603 0.36324 0.0
C354 C 0.89572 0.79587 0.35965 0.0
C355 C 0.87643 0.76109 0.37759 0.0
C356 C 0.89982 0.86464 0.46537 0.0
C357 C 0.90529 0.8273 0.41357 0.0
C358 C 0.90808 0.89944 0.48216 0.0
C359 C 0.93296 0.93237 0.46726 0.0
C360 C 0.91606 0.86292 0.43309 0.0
C361 C 0.94954 0.92915 0.43549 0.0
C362 C 0.91035 0.82898 0.37758 0.0
C363 C 0.87413 0.75999 0.41377 0.0
N364 N 0.94046 0.89513 0.41919 0.0
N365 N 0.8879 0.79273 0.43049 0.0
H366 H 0.42628 0.84157 0.63427 0.0
H367 H 0.39496 0.61599 0.60811 0.0
H368 H 0.37201 0.7542 0.71243 0.0
H369 H 0.49539 0.69439 0.57433 0.0
H370 H 0.38061 0.66824 0.64045 0.0
H371 H 0.4476 0.79001 0.60599 0.0
C372 C 0.41925 0.81156 0.64558 0.0
C373 C 0.39757 0.80187 0.67566 0.0
C374 C 0.40583 0.67393 0.62604 0.0
C375 C 0.42083 0.74315 0.64326 0.0
C376 C 0.41391 0.64432 0.60739 0.0
C377 C 0.44633 0.65106 0.58846 0.0
C378 C 0.42991 0.71087 0.62505 0.0
C379 C 0.47013 0.68813 0.58869 0.0
C380 C 0.43141 0.78233 0.62957 0.0
C381 C 0.3889 0.7627 0.68937 0.0
N382 N 0.46124 0.71696 0.60638 0.0
N383 N 0.40012 0.73458 0.67275 0.0
H384 H 0.89407 0.84908 0.74544 0.0
H385 H 0.93275 0.03462 0.60686 0.0
H386 H 0.87396 0.96214 0.76486 0.0
H387 H 0.96995 0.92909 0.5938 0.0
H388 H 0.90546 0.00578 0.66259 0.0
H389 H 0.9176 0.8757 0.68777 0.0
C390 C 0.89476 0.87952 0.73766 0.0
C391 C 0.882 0.9034 0.76002 0.0
C392 C 0.91953 0.98891 0.64748 0.0
C393 C 0.90835 0.93384 0.69399 0.0
C394 C 0.93499 0.0053 0.61561 0.0
C395 C 0.95387 0.98435 0.59578 0.0
C396 C 0.92285 0.95124 0.65953 0.0
C397 C 0.95587 0.94642 0.60837 0.0
C398 C 0.90797 0.89462 0.70468 0.0
C399 C 0.883 0.94247 0.74833 0.0
N400 N 0.94063 0.93112 0.6395 0.0
N401 N 0.89593 0.95644 0.71615 0.0
H402 H 0.69176 0.12937 0.26324 0.0
H403 H 0.50548 0.05407 0.17124 0.0
H404 H 0.58835 0.10683 0.31521 0.0
H405 H 0.60808 0.07841 0.11738 0.0
H406 H 0.53604 0.06721 0.22532 0.0
H407 H 0.66238 0.10454 0.21088 0.0
C408 C 0.66293 0.11873 0.26377 0.0
C409 C 0.64244 0.12056 0.29355 0.0
C410 C 0.55194 0.06945 0.20173 0.0
C411 C 0.60863 0.09249 0.23367 0.0
C412 C 0.53447 0.06192 0.17078 0.0
C413 C 0.55422 0.06548 0.13962 0.0
C414 C 0.58949 0.08081 0.20163 0.0
C415 C 0.59175 0.07551 0.14074 0.0
C416 C 0.64615 0.10477 0.23382 0.0
C417 C 0.60514 0.10665 0.29266 0.0
N418 N 0.60817 0.08312 0.1712 0.0
N419 N 0.58946 0.09346 0.2632 0.0
H420 H 0.31347 0.60863 0.34131 0.0
H421 H 0.46292 0.50809 0.41702 0.0
H422 H 0.40448 0.60306 0.27762 0.0
H423 H 0.42618 0.59416 0.47315 0.0
H424 H 0.42965 0.52506 0.36674 0.0
H425 H 0.34276 0.5851 0.39191 0.0
C426 C 0.33942 0.602 0.33808 0.0
C427 C 0.3569 0.60819 0.30571 0.0
C428 C 0.42878 0.5399 0.39023 0.0
C429 C 0.38979 0.58053 0.3625 0.0
C430 C 0.44753 0.5302 0.41881 0.0
C431 C 0.44731 0.54999 0.44901 0.0
C432 C 0.40889 0.56857 0.39246 0.0
C433 C 0.42717 0.57854 0.45014 0.0
C434 C 0.35606 0.58881 0.36674 0.0
C435 C 0.39046 0.59915 0.30241 0.0
N436 N 0.40846 0.5868 0.4223 0.0
N437 N 0.40582 0.58552 0.33052 0.0
H438 H 0.16467 0.50165 0.78937 0.0
H439 H 0.0111 0.46197 0.93729 0.0
H440 H 0.0819 0.39477 0.80346 0.0
H441 H 0.08727 0.57366 0.91812 0.0
H442 H 0.03656 0.43736 0.88801 0.0
H443 H 0.13666 0.52916 0.83602 0.0
C444 C 0.14046 0.48419 0.80228 0.0
C445 C 0.12559 0.44615 0.7927 0.0
C446 C 0.04767 0.4673 0.89443 0.0
C447 C 0.09347 0.47689 0.846 0.0
C448 C 0.03315 0.48143 0.92265 0.0
C449 C 0.04713 0.51997 0.93197 0.0
C450 C 0.07658 0.49175 0.87533 0.0
C451 C 0.07566 0.54376 0.9119 0.0
C452 C 0.1245 0.49978 0.82881 0.0
C453 C 0.09425 0.42433 0.81005 0.0
N454 N 0.08956 0.5292 0.88461 0.0
N455 N 0.07933 0.44 0.83597 0.0
H456 H 0.74105 0.9303 0.84292 0.0
H457 H 0.61012 0.94594 0.00038 0.0
H458 H 0.74786 0.8765 0.9449 0.0
H459 H 0.60378 0.99703 0.8971 0.0
H460 H 0.6597 0.91913 0.98085 0.0
H461 H 0.68978 0.95365 0.86248 0.0
C462 C 0.73167 0.92335 0.86951 0.0
C463 C 0.74871 0.90156 0.89258 0.0
C464 C 0.64741 0.93616 0.96248 0.0
C465 C 0.68996 0.92834 0.91513 0.0
C466 C 0.61914 0.95152 0.9736 0.0
C467 C 0.60287 0.97389 0.95034 0.0
C468 C 0.6595 0.94328 0.92787 0.0
C469 C 0.61557 0.98007 0.91595 0.0
C470 C 0.70234 0.93669 0.88067 0.0
C471 C 0.73532 0.89329 0.92656 0.0
N472 N 0.64316 0.9649 0.9058 0.0
N473 N 0.70674 0.90681 0.93695 0.0
H474 H 0.72612 0.13766 0.43334 0.0
H475 H 0.91428 0.09124 0.38378 0.0
H476 H 0.76614 0.14069 0.32862 0.0
H477 H 0.87688 0.09356 0.48871 0.0
H478 H 0.86069 0.11055 0.3632 0.0
H479 H 0.78155 0.12284 0.45417 0.0
C480 C 0.74664 0.1355 0.4147 0.0
C481 C 0.74133 0.1404 0.37912 0.0
C482 C 0.86423 0.10699 0.39074 0.0
C483 C 0.80486 0.12293 0.40288 0.0
C484 C 0.89488 0.09597 0.40254 0.0
C485 C 0.9001 0.09065 0.43806 0.0
C486 C 0.83843 0.11265 0.41459 0.0
C487 C 0.874 0.09728 0.46109 0.0
C488 C 0.77825 0.12682 0.42663 0.0
C489 C 0.76875 0.1366 0.35624 0.0
N490 N 0.84426 0.10777 0.44896 0.0
N491 N 0.79924 0.12806 0.3685 0.0
H492 H 0.23474 0.62145 0.21863 0.0
H493 H 0.1242 0.57932 0.04611 0.0
H494 H 0.28093 0.65311 0.11588 0.0
H495 H 0.07996 0.5394 0.14846 0.0
H496 H 0.18171 0.60744 0.07131 0.0
H497 H 0.17773 0.59105 0.19353 0.0
C498 C 0.23298 0.62174 0.19082 0.0
C499 C 0.2626 0.6401 0.16934 0.0
C500 C 0.15942 0.59249 0.08825 0.0
C501 C 0.19737 0.60583 0.14042 0.0
C502 C 0.12656 0.57652 0.07387 0.0
C503 C 0.09723 0.55698 0.0952 0.0
C504 C 0.16295 0.589 0.12423 0.0
C505 C 0.10185 0.55418 0.131 0.0
C506 C 0.20037 0.6046 0.17649 0.0
C507 C 0.25864 0.63994 0.13344 0.0
N508 N 0.13405 0.57003 0.14438 0.0
N509 N 0.22664 0.62323 0.12014 0.0
H510 H 0.2271 0.39344 0.62688 0.0
H511 H 0.4242 0.51367 0.66804 0.0
H512 H 0.25952 0.42437 0.72931 0.0
H513 H 0.39177 0.47545 0.56747 0.0
H514 H 0.36465 0.48057 0.69147 0.0
H515 H 0.28755 0.42384 0.60494 0.0
C516 C 0.24701 0.4066 0.64478 0.0
C517 C 0.23831 0.40615 0.68003 0.0
C518 C 0.37066 0.47925 0.66432 0.0
C519 C 0.3077 0.44132 0.655 0.0
C520 C 0.4047 0.498 0.65094 0.0
C521 C 0.41295 0.49746 0.6157 0.0
C522 C 0.34469 0.45992 0.64227 0.0
C523 C 0.3866 0.47674 0.59478 0.0
C524 C 0.28154 0.42403 0.63223 0.0
C525 C 0.26502 0.42433 0.70191 0.0
N526 N 0.35363 0.459 0.60835 0.0
N527 N 0.29858 0.44111 0.68905 0.0
H528 H 0.94275 0.85168 0.85394 0.0
H529 H 0.91339 0.6764 0.00088 0.0
H530 H 0.83885 0.78825 0.89516 0.0
H531 H 0.00735 0.70622 0.93334 0.0
H532 H 0.88966 0.72663 0.96928 0.0
H533 H 0.97019 0.80654 0.88888 0.0
C534 C 0.92563 0.82828 0.87017 0.0
C535 C 0.88829 0.82382 0.87143 0.0
C536 C 0.91555 0.72232 0.96147 0.0
C537 C 0.91978 0.77283 0.91209 0.0
C538 C 0.92925 0.69377 0.97959 0.0
C539 C 0.96233 0.68686 0.96956 0.0
C540 C 0.93513 0.74448 0.93324 0.0
C541 C 0.98166 0.71043 0.94181 0.0
C542 C 0.94141 0.80271 0.89025 0.0
C543 C 0.86772 0.79341 0.89365 0.0
N544 N 0.96771 0.73821 0.9245 0.0
N545 N 0.88374 0.76918 0.9131 0.0
H546 H 0.42079 0.74276 0.16491 0.0
H547 H 0.40027 0.95099 0.08033 0.0
H548 H 0.3207 0.77851 0.16089 0.0
H549 H 0.50072 0.91587 0.08439 0.0
H550 H 0.37095 0.88849 0.11111 0.0
H551 H 0.45103 0.80682 0.13707 0.0
C552 C 0.40523 0.76417 0.15837 0.0
C553 C 0.36814 0.75517 0.16504 0.0
C554 C 0.39942 0.89447 0.10532 0.0
C555 C 0.40246 0.82837 0.13292 0.0
C556 C 0.41619 0.93018 0.08773 0.0
C557 C 0.45301 0.93869 0.07971 0.0
C558 C 0.41958 0.86698 0.11493 0.0
C559 C 0.47226 0.91056 0.08998 0.0
C560 C 0.42245 0.80065 0.14232 0.0
C561 C 0.34924 0.78391 0.1557 0.0
N562 N 0.45531 0.87596 0.107 0.0
N563 N 0.36658 0.81915 0.14008 0.0
H564 H 0.184 0.26664 0.69075 0.0
H565 H 0.03033 0.13212 0.58571 0.0
H566 H 0.08511 0.3003 0.66891 0.0
H567 H 0.14212 0.12994 0.58054 0.0
H568 H 0.04515 0.18665 0.62392 0.0
H569 H 0.16326 0.20746 0.65998 0.0
C570 C 0.15769 0.26128 0.67973 0.0
C571 C 0.13647 0.28866 0.68182 0.0
C572 C 0.06629 0.17411 0.61432 0.0
C573 C 0.11258 0.22103 0.64636 0.0
C574 C 0.05792 0.14312 0.59254 0.0
C575 C 0.08508 0.12662 0.57978 0.0
C576 C 0.10191 0.18804 0.62377 0.0
C577 C 0.12033 0.14187 0.5895 0.0
C578 C 0.14592 0.22758 0.66208 0.0
C579 C 0.1023 0.27991 0.66772 0.0
N580 N 0.12765 0.17152 0.61098 0.0
N581 N 0.09148 0.24693 0.65017 0.0
H582 H 0.59252 0.2477 0.39096 0.0
H583 H 0.60911 0.40982 0.52962 0.0
H584 H 0.67649 0.27014 0.46462 0.0
H585 H 0.52325 0.38594 0.45779 0.0
H586 H 0.63258 0.35691 0.50769 0.0
H587 H 0.5654 0.29634 0.41632 0.0
C588 C 0.60519 0.26282 0.41259 0.0
C589 C 0.63693 0.25513 0.42583 0.0
C590 C 0.60851 0.36305 0.4968 0.0
C591 C 0.606 0.31083 0.45488 0.0
C592 C 0.59504 0.3933 0.50933 0.0
C593 C 0.56421 0.40248 0.49543 0.0
C594 C 0.59116 0.34177 0.47001 0.0
C595 C 0.54709 0.37991 0.46926 0.0
C596 C 0.58967 0.29058 0.42707 0.0
C597 C 0.65209 0.27546 0.45382 0.0
N598 N 0.56092 0.35073 0.45727 0.0
N599 N 0.63659 0.30249 0.46738 0.0
loop_
_geom_bond_atom_site_label_1
_geom_bond_atom_site_label_2
_geom_bond_distance
_geom_bond_site_symmetry_2
_ccdc_geom_bond_type
H0 C5 0.929 . S
H1 C10 0.931 . S
H2 C8 0.930 . S
N3 N4 1.234 . S
N3 C7 1.453 . S
N4 N3 1.234 . S
C5 H0 0.929 . S
C5 C6 1.373 . S
C5 C7 1.368 . S
C6 C5 1.373 . S
C6 C10 1.397 . S
C7 N3 1.453 . S
C7 C5 1.368 . S
C7 C8 1.373 . S
C8 H2 0.930 . S
C8 C7 1.373 . S
C8 C9 1.371 . S
C9 C8 1.371 . S
C9 C10 1.383 . S
C10 H1 0.931 . S
C10 C6 1.397 . S
C10 C9 1.383 . S
H11 C16 0.929 . S
H12 C21 0.931 . S
H13 C19 0.930 . S
N14 N15 1.234 . S
N14 C18 1.453 . S
N15 N14 1.234 . S
C16 H11 0.929 . S
C16 C17 1.373 . S
C16 C18 1.368 . S
C17 C16 1.373 . S
C17 C21 1.397 . S
C18 N14 1.453 . S
C18 C16 1.368 . S
C18 C19 1.373 . S
C19 H13 0.930 . S
C19 C18 1.373 . S
C19 C20 1.371 . S
C20 C19 1.371 . S
C20 C21 1.383 . S
C21 H12 0.931 . S
C21 C17 1.397 . S
C21 C20 1.383 . S
H22 C27 0.929 . S
H23 C32 0.931 . S
H24 C30 0.930 . S
N25 N26 1.234 . S
N25 C29 1.453 . S
N26 N25 1.234 . S
C27 H22 0.929 . S
C27 C28 1.373 . S
C27 C29 1.368 . S
C28 C27 1.373 . S
C28 C32 1.397 . S
C29 N25 1.453 . S
C29 C27 1.368 . S
C29 C30 1.373 . S
C30 H24 0.930 . S
C30 C29 1.373 . S
C30 C31 1.371 . S
C31 C30 1.371 . S
C31 C32 1.383 . S
C32 H23 0.931 . S
C32 C28 1.397 . S
C32 C31 1.383 . S
H33 C38 0.929 . S
H34 C43 0.931 . S
H35 C41 0.930 . S
N36 N37 1.234 . S
N36 C40 1.453 . S
N37 N36 1.234 . S
C38 H33 0.929 . S
C38 C39 1.373 . S
C38 C40 1.368 . S
C39 C38 1.373 . S
C39 C43 1.397 . S
C40 N36 1.453 . S
C40 C38 1.368 . S
C40 C41 1.373 . S
C41 H35 0.930 . S
C41 C40 1.373 . S
C41 C42 1.371 . S
C42 C41 1.371 . S
C42 C43 1.383 . S
C43 H34 0.931 . S
C43 C39 1.397 . S
C43 C42 1.383 . S
H44 C49 0.929 . S
H45 C54 0.931 . S
H46 C52 0.930 . S
N47 N48 1.234 . S
N47 C51 1.453 . S
N48 N47 1.234 . S
C49 H44 0.929 . S
C49 C50 1.373 . S
C49 C51 1.368 . S
C50 C49 1.373 . S
C50 C54 1.397 . S
C51 N47 1.453 . S
C51 C49 1.368 . S
C51 C52 1.373 . S
C52 H46 0.930 . S
C52 C51 1.373 . S
C52 C53 1.371 . S
C53 C52 1.371 . S
C53 C54 1.383 . S
C54 H45 0.931 . S
C54 C50 1.397 . S
C54 C53 1.383 . S
H55 C60 0.929 . S
H56 C65 0.931 . S
H57 C63 0.930 . S
N58 N59 1.234 . S
N58 C62 1.453 . S
N59 N58 1.234 . S
C60 H55 0.929 . S
C60 C61 1.373 . S
C60 C62 1.368 . S
C61 C60 1.373 . S
C61 C65 1.397 . S
C62 N58 1.453 . S
C62 C60 1.368 . S
C62 C63 1.373 . S
C63 H57 0.930 . S
C63 C62 1.373 . S
C63 C64 1.371 . S
C64 C63 1.371 . S
C64 C65 1.383 . S
C65 H56 0.931 . S
C65 C61 1.397 . S
C65 C64 1.383 . S
H66 C71 0.929 . S
H67 C76 0.931 . S
H68 C74 0.930 . S
N69 N70 1.234 . S
N69 C73 1.453 . S
N70 N69 1.234 . S
C71 H66 0.929 . S
C71 C72 1.373 . S
C71 C73 1.368 . S
C72 C71 1.373 . S
C72 C76 1.397 . S
C73 N69 1.453 . S
C73 C71 1.368 . S
C73 C74 1.373 . S
C74 H68 0.930 . S
C74 C73 1.373 . S
C74 C75 1.371 . S
C75 C74 1.371 . S
C75 C76 1.383 . S
C76 H67 0.931 . S
C76 C72 1.397 . S
C76 C75 1.383 . S
H77 C82 0.929 . S
H78 C87 0.931 . S
H79 C85 0.930 . S
N80 N81 1.234 . S
N80 C84 1.453 . S
N81 N80 1.234 . S
C82 H77 0.929 . S
C82 C83 1.373 . S
C82 C84 1.368 . S
C83 C82 1.373 . S
C83 C87 1.397 . S
C84 N80 1.453 . S
C84 C82 1.368 . S
C84 C85 1.373 . S
C85 H79 0.930 . S
C85 C84 1.373 . S
C85 C86 1.371 . S
C86 C85 1.371 . S
C86 C87 1.383 . S
C87 H78 0.931 . S
C87 C83 1.397 . S
C87 C86 1.383 . S
Zn88 O94 1.982 . S
Zn88 O95 1.965 1_545 S
Zn88 O99 2.024 . S
Zn88 O104 1.969 . S
Zn89 O96 1.969 1_545 S
Zn89 O102 1.969 . S
Zn89 O103 1.965 1_655 S
Zn89 O105 2.024 1_545 S
C90 O91 1.229 . S
C90 O99 1.058 . S
O91 C90 1.229 . S
C92 O93 1.229 . S
C92 O105 1.058 . S
O93 C92 1.229 . S
O94 Zn88 1.982 . S
O94 C97 1.262 1_545 S
O95 Zn88 1.965 1_565 S
O95 C106 1.260 1_455 S
O96 Zn89 1.969 1_565 S
O96 C106 1.258 . S
C97 O94 1.262 1_565 S
C97 O98 1.228 . S
O98 C97 1.228 . S
O99 Zn88 2.024 . S
O99 C90 1.058 . S
C100 O101 1.228 . S
C100 O102 1.267 . S
O101 C100 1.228 . S
O102 Zn89 1.969 . S
O102 C100 1.267 . S
O103 Zn89 1.965 1_455 S
O103 C107 1.260 . S
O104 Zn88 1.969 . S
O104 C107 1.258 . S
O105 Zn89 2.024 1_565 S
O105 C92 1.058 . S
C106 O95 1.260 1_655 S
C106 O96 1.258 . S
C107 O103 1.260 . S
C107 O104 1.258 . S
Zn108 O114 1.969 . S
Zn108 O115 1.965 1_566 S
Zn108 O119 2.024 . S
Zn108 O124 1.969 1_556 S
Zn109 O116 1.969 . S
Zn109 O122 1.969 . S
Zn109 O123 1.954 1_545 S
Zn109 O125 2.024 . S
C110 O111 1.229 . S
C110 O119 1.058 . S
O111 C110 1.229 . S
C112 O113 1.229 . S
C112 O125 1.058 . S
O113 C112 1.229 . S
O114 Zn108 1.969 . S
O114 C117 1.267 . S
O115 Zn108 1.965 1_544 S
O115 C126 1.260 . S
O116 Zn109 1.969 . S
O116 C126 1.258 . S
C117 O114 1.267 . S
C117 O118 1.228 . S
O118 C117 1.228 . S
O119 Zn108 2.024 . S
O119 C110 1.058 . S
C120 O121 1.228 . S
C120 O122 1.267 . S
O121 C120 1.228 . S
O122 Zn109 1.969 . S
O122 C120 1.267 . S
O123 Zn109 1.954 1_565 S
O123 C127 1.273 . S
O124 Zn108 1.969 1_554 S
O124 C127 1.258 . S
O125 Zn109 2.024 . S
O125 C112 1.058 . S
C126 O115 1.260 . S
C126 O116 1.258 . S
C127 O123 1.273 . S
C127 O124 1.258 . S
Zn128 O134 1.969 . S
Zn128 O135 1.965 . S
Zn128 O139 2.024 . S
Zn128 O144 1.969 . S
Zn129 O136 1.969 . S
Zn129 O142 1.969 . S
Zn129 O143 1.965 . S
Zn129 O145 2.024 . S
C130 O131 1.229 . S
C130 O139 1.058 . S
O131 C130 1.229 . S
C132 O133 1.229 . S
C132 O145 1.058 . S
O133 C132 1.229 . S
O134 Zn128 1.969 . S
O134 C137 1.267 . S
O135 Zn128 1.965 . S
O135 C146 1.260 . S
O136 Zn129 1.969 . S
O136 C146 1.258 . S
C137 O134 1.267 . S
C137 O138 1.228 . S
O138 C137 1.228 . S
O139 Zn128 2.024 . S
O139 C130 1.058 . S
C140 O141 1.228 . S
C140 O142 1.267 . S
O141 C140 1.228 . S
O142 Zn129 1.969 . S
O142 C140 1.267 . S
O143 Zn129 1.965 . S
O143 C147 1.260 . S
O144 Zn128 1.969 . S
O144 C147 1.258 . S
O145 Zn129 2.024 . S
O145 C132 1.058 . S
C146 O135 1.260 . S
C146 O136 1.258 . S
C147 O143 1.260 . S
C147 O144 1.258 . S
Zn148 O154 1.969 . S
Zn148 O155 1.965 1_556 S
Zn148 O159 2.024 . S
Zn148 O164 1.969 1_655 S
Zn149 O156 1.969 . S
Zn149 O162 1.969 . S
Zn149 O163 1.965 1_554 S
Zn149 O165 2.024 . S
C150 O151 1.229 . S
C150 O159 1.058 . S
O151 C150 1.229 . S
C152 O153 1.229 . S
C152 O165 1.058 . S
O153 C152 1.229 . S
O154 Zn148 1.969 . S
O154 C157 1.267 . S
O155 Zn148 1.965 1_554 S
O155 C166 1.260 . S
O156 Zn149 1.969 . S
O156 C166 1.258 1_455 S
C157 O154 1.267 . S
C157 O158 1.228 . S
O158 C157 1.228 . S
O159 Zn148 2.024 . S
O159 C150 1.058 . S
C160 O161 1.228 . S
C160 O162 1.267 . S
O161 C160 1.228 . S
O162 Zn149 1.969 . S
O162 C160 1.267 . S
O163 Zn149 1.965 1_556 S
O163 C167 1.260 . S
O164 Zn148 1.969 1_455 S
O164 C167 1.258 . S
O165 Zn149 2.024 . S
O165 C152 1.058 . S
C166 O155 1.260 . S
C166 O156 1.258 1_655 S
C167 O163 1.260 . S
C167 O164 1.258 . S
H168 C174 0.930 . S
H169 C178 0.930 . S
H170 C183 0.929 . S
H171 C181 0.929 . S
H172 C176 0.929 . S
H173 C182 0.929 . S
C174 H168 0.930 . S
C174 C175 1.367 . S
C174 C182 1.378 . S
C175 C174 1.367 . S
C175 C183 1.433 . S
C176 H172 0.929 . S
C176 C178 1.378 . S
C176 C180 1.350 . S
C177 C180 1.463 . S
C177 C182 1.350 . S
C177 N185 1.427 . S
C178 H169 0.930 . S
C178 C176 1.378 . S
C178 C179 1.367 . S
C179 C178 1.367 . S
C179 C181 1.433 . S
C180 C176 1.350 . S
C180 C177 1.463 . S
C180 N184 1.427 . S
C181 H171 0.929 . S
C181 C179 1.433 . S
C181 N184 1.384 . S
C182 H173 0.929 . S
C182 C174 1.378 . S
C182 C177 1.350 . S
C183 H170 0.929 . S
C183 C175 1.433 . S
C183 N185 1.384 . S
N184 C180 1.427 . S
N184 C181 1.384 . S
N185 C177 1.427 . S
N185 C183 1.384 . S
H186 C192 0.930 . S
H187 C196 0.930 1_545 S
H188 C201 0.929 . S
H189 C199 0.929 . S
H190 C194 0.929 . S
H191 C200 0.929 . S
C192 H186 0.930 . S
C192 C193 1.367 . S
C192 C200 1.378 . S
C193 C192 1.367 . S
C193 C201 1.433 . S
C194 H190 0.929 . S
C194 C196 1.378 . S
C194 C198 1.350 . S
C195 C198 1.463 . S
C195 C200 1.350 . S
C195 N203 1.427 . S
C196 H187 0.930 1_565 S
C196 C194 1.378 . S
C196 C197 1.367 . S
C197 C196 1.367 . S
C197 C199 1.433 . S
C198 C194 1.350 . S
C198 C195 1.463 . S
C198 N202 1.427 . S
C199 H189 0.929 . S
C199 C197 1.433 . S
C199 N202 1.384 . S
C200 H191 0.929 . S
C200 C192 1.378 . S
C200 C195 1.350 . S
C201 H188 0.929 . S
C201 C193 1.433 . S
C201 N203 1.384 . S
N202 C198 1.427 . S
N202 C199 1.384 . S
N203 C195 1.427 . S
N203 C201 1.384 . S
H204 C210 0.930 . S
H205 C214 0.930 . S
H206 C219 0.929 . S
H207 C217 0.929 . S
H208 C212 0.929 . S
H209 C218 0.929 . S
C210 H204 0.930 . S
C210 C211 1.367 . S
C210 C218 1.378 . S
C211 C210 1.367 . S
C211 C219 1.433 . S
C212 H208 0.929 . S
C212 C214 1.378 . S
C212 C216 1.350 . S
C213 C216 1.463 . S
C213 C218 1.350 . S
C213 N221 1.427 . S
C214 H205 0.930 . S
C214 C212 1.378 . S
C214 C215 1.367 . S
C215 C214 1.367 . S
C215 C217 1.433 . S
C216 C212 1.350 . S
C216 C213 1.463 . S
C216 N220 1.427 . S
C217 H207 0.929 . S
C217 C215 1.433 . S
C217 N220 1.384 . S
C218 H209 0.929 . S
C218 C210 1.378 . S
C218 C213 1.350 . S
C219 H206 0.929 . S
C219 C211 1.433 . S
C219 N221 1.384 . S
N220 C216 1.427 . S
N220 C217 1.384 . S
N221 C213 1.427 . S
N221 C219 1.384 . S
H222 C228 0.930 . S
H223 C232 0.930 . S
H224 C237 0.929 . S
H225 C235 0.929 1_455 S
H226 C230 0.929 . S
H227 C236 0.929 . S
C228 H222 0.930 . S
C228 C229 1.367 . S
C228 C236 1.378 . S
C229 C228 1.367 . S
C229 C237 1.433 . S
C230 H226 0.929 . S
C230 C232 1.378 . S
C230 C234 1.350 . S
C231 C234 1.463 . S
C231 C236 1.350 . S
C231 N239 1.427 . S
C232 H223 0.930 . S
C232 C230 1.378 . S
C232 C233 1.367 . S
C233 C232 1.367 . S
C233 C235 1.433 . S
C234 C230 1.350 . S
C234 C231 1.463 . S
C234 N238 1.427 . S
C235 H225 0.929 1_655 S
C235 C233 1.433 . S
C235 N238 1.384 . S
C236 H227 0.929 . S
C236 C228 1.378 . S
C236 C231 1.350 . S
C237 H224 0.929 . S
C237 C229 1.433 . S
C237 N239 1.384 . S
N238 C234 1.427 . S
N238 C235 1.384 . S
N239 C231 1.427 . S
N239 C237 1.384 . S
H240 C246 0.930 . S
H241 C250 0.930 . S
H242 C255 0.929 . S
H243 C253 0.929 . S
H244 C248 0.929 . S
H245 C254 0.929 . S
C246 H240 0.930 . S
C246 C247 1.367 . S
C246 C254 1.378 . S
C247 C246 1.367 . S
C247 C255 1.433 . S
C248 H244 0.929 . S
C248 C250 1.378 . S
C248 C252 1.350 . S
C249 C252 1.463 . S
C249 C254 1.350 . S
C249 N257 1.427 . S
C250 H241 0.930 . S
C250 C248 1.378 . S
C250 C251 1.367 . S
C251 C250 1.367 . S
C251 C253 1.433 . S
C252 C248 1.350 . S
C252 C249 1.463 . S
C252 N256 1.427 . S
C253 H243 0.929 . S
C253 C251 1.433 . S
C253 N256 1.384 . S
C254 H245 0.929 . S
C254 C246 1.378 . S
C254 C249 1.350 . S
C255 H242 0.929 . S
C255 C247 1.433 . S
C255 N257 1.384 . S
N256 C252 1.427 . S
N256 C253 1.384 . S
N257 C249 1.427 . S
N257 C255 1.384 . S
H258 C264 0.930 . S
H259 C268 0.930 . S
H260 C273 0.929 . S
H261 C271 0.929 1_545 S
H262 C266 0.929 . S
H263 C272 0.929 . S
C264 H258 0.930 . S
C264 C265 1.367 . S
C264 C272 1.378 . S
C265 C264 1.367 . S
C265 C273 1.433 . S
C266 H262 0.929 . S
C266 C268 1.378 . S
C266 C270 1.350 . S
C267 C270 1.463 . S
C267 C272 1.350 . S
C267 N275 1.427 . S
C268 H259 0.930 . S
C268 C266 1.378 . S
C268 C269 1.367 . S
C269 C268 1.367 . S
C269 C271 1.433 . S
C270 C266 1.350 . S
C270 C267 1.463 . S
C270 N274 1.427 . S
C271 H261 0.929 1_565 S
C271 C269 1.433 . S
C271 N274 1.384 . S
C272 H263 0.929 . S
C272 C264 1.378 . S
C272 C267 1.350 . S
C273 H260 0.929 . S
C273 C265 1.433 . S
C273 N275 1.384 . S
N274 C270 1.427 . S
N274 C271 1.384 . S
N275 C267 1.427 . S
N275 C273 1.384 . S
H276 C282 0.930 . S
H277 C286 0.930 . S
H278 C291 0.929 . S
H279 C289 0.929 . S
H280 C284 0.929 . S
H281 C290 0.929 . S
C282 H276 0.930 . S
C282 C283 1.367 . S
C282 C290 1.378 . S
C283 C282 1.367 . S
C283 C291 1.433 . S
C284 H280 0.929 . S
C284 C286 1.378 . S
C284 C288 1.350 . S
C285 C288 1.463 . S
C285 C290 1.350 . S
C285 N293 1.427 . S
C286 H277 0.930 . S
C286 C284 1.378 . S
C286 C287 1.367 . S
C287 C286 1.367 . S
C287 C289 1.433 . S
C288 C284 1.350 . S
C288 C285 1.463 . S
C288 N292 1.427 . S
C289 H279 0.929 . S
C289 C287 1.433 . S
C289 N292 1.384 . S
C290 H281 0.929 . S
C290 C282 1.378 . S
C290 C285 1.350 . S
C291 H278 0.929 . S
C291 C283 1.433 . S
C291 N293 1.384 . S
N292 C288 1.427 . S
N292 C289 1.384 . S
N293 C285 1.427 . S
N293 C291 1.384 . S
H294 C300 0.930 . S
H295 C304 0.930 . S
H296 C309 0.929 . S
H297 C307 0.929 . S
H298 C302 0.929 . S
H299 C308 0.929 . S
C300 H294 0.930 . S
C300 C301 1.367 . S
C300 C308 1.378 . S
C301 C300 1.367 . S
C301 C309 1.433 . S
C302 H298 0.929 . S
C302 C304 1.378 . S
C302 C306 1.350 . S
C303 C306 1.463 . S
C303 C308 1.350 . S
C303 N311 1.427 . S
C304 H295 0.930 . S
C304 C302 1.378 . S
C304 C305 1.367 . S
C305 C304 1.367 . S
C305 C307 1.433 . S
C306 C302 1.350 . S
C306 C303 1.463 . S
C306 N310 1.427 . S
C307 H297 0.929 . S
C307 C305 1.433 . S
C307 N310 1.384 . S
C308 H299 0.929 . S
C308 C300 1.378 . S
C308 C303 1.350 . S
C309 H296 0.929 . S
C309 C301 1.433 . S
C309 N311 1.384 . S
N310 C306 1.427 . S
N310 C307 1.384 . S
N311 C303 1.427 . S
N311 C309 1.384 . S
H312 C318 0.930 . S
H313 C322 0.930 . S
H314 C327 0.929 . S
H315 C325 0.929 . S
H316 C320 0.929 . S
H317 C326 0.929 . S
C318 H312 0.930 . S
C318 C319 1.367 . S
C318 C326 1.378 . S
C319 C318 1.367 . S
C319 C327 1.433 . S
C320 H316 0.929 . S
C320 C322 1.378 . S
C320 C324 1.350 . S
C321 C324 1.463 . S
C321 C326 1.350 . S
C321 N329 1.427 . S
C322 H313 0.930 . S
C322 C320 1.378 . S
C322 C323 1.367 . S
C323 C322 1.367 . S
C323 C325 1.433 . S
C324 C320 1.350 . S
C324 C321 1.463 . S
C324 N328 1.427 . S
C325 H315 0.929 . S
C325 C323 1.433 . S
C325 N328 1.384 . S
C326 H317 0.929 . S
C326 C318 1.378 . S
C326 C321 1.350 . S
C327 H314 0.929 . S
C327 C319 1.433 . S
C327 N329 1.384 . S
N328 C324 1.427 . S
N328 C325 1.384 . S
N329 C321 1.427 . S
N329 C327 1.384 . S
H330 C336 0.930 . S
H331 C340 0.930 1_554 S
H332 C345 0.929 . S
H333 C343 0.929 . S
H334 C338 0.929 . S
H335 C344 0.929 . S
C336 H330 0.930 . S
C336 C337 1.367 . S
C336 C344 1.378 . S
C337 C336 1.367 . S
C337 C345 1.433 . S
C338 H334 0.929 . S
C338 C340 1.378 . S
C338 C342 1.350 . S
C339 C342 1.463 . S
C339 C344 1.350 . S
C339 N347 1.427 . S
C340 H331 0.930 1_556 S
C340 C338 1.378 . S
C340 C341 1.367 . S
C341 C340 1.367 . S
C341 C343 1.433 . S
C342 C338 1.350 . S
C342 C339 1.463 . S
C342 N346 1.427 . S
C343 H333 0.929 . S
C343 C341 1.433 . S
C343 N346 1.384 . S
C344 H335 0.929 . S
C344 C336 1.378 . S
C344 C339 1.350 . S
C345 H332 0.929 . S
C345 C337 1.433 . S
C345 N347 1.384 . S
N346 C342 1.427 . S
N346 C343 1.384 . S
N347 C339 1.427 . S
N347 C345 1.384 . S
H348 C354 0.930 . S
H349 C358 0.930 . S
H350 C363 0.929 . S
H351 C361 0.929 . S
H352 C356 0.929 . S
H353 C362 0.929 . S
C354 H348 0.930 . S
C354 C355 1.367 . S
C354 C362 1.378 . S
C355 C354 1.367 . S
C355 C363 1.433 . S
C356 H352 0.929 . S
C356 C358 1.378 . S
C356 C360 1.350 . S
C357 C360 1.463 . S
C357 C362 1.350 . S
C357 N365 1.427 . S
C358 H349 0.930 . S
C358 C356 1.378 . S
C358 C359 1.367 . S
C359 C358 1.367 . S
C359 C361 1.433 . S
C360 C356 1.350 . S
C360 C357 1.463 . S
C360 N364 1.427 . S
C361 H351 0.929 . S
C361 C359 1.433 . S
C361 N364 1.384 . S
C362 H353 0.929 . S
C362 C354 1.378 . S
C362 C357 1.350 . S
C363 H350 0.929 . S
C363 C355 1.433 . S
C363 N365 1.384 . S
N364 C360 1.427 . S
N364 C361 1.384 . S
N365 C357 1.427 . S
N365 C363 1.384 . S
H366 C372 0.930 . S
H367 C376 0.930 . S
H368 C381 0.929 . S
H369 C379 0.929 . S
H370 C374 0.929 . S
H371 C380 0.929 . S
C372 H366 0.930 . S
C372 C373 1.367 . S
C372 C380 1.378 . S
C373 C372 1.367 . S
C373 C381 1.433 . S
C374 H370 0.929 . S
C374 C376 1.378 . S
C374 C378 1.350 . S
C375 C378 1.463 . S
C375 C380 1.350 . S
C375 N383 1.427 . S
C376 H367 0.930 . S
C376 C374 1.378 . S
C376 C377 1.367 . S
C377 C376 1.367 . S
C377 C379 1.433 . S
C378 C374 1.350 . S
C378 C375 1.463 . S
C378 N382 1.427 . S
C379 H369 0.929 . S
C379 C377 1.433 . S
C379 N382 1.384 . S
C380 H371 0.929 . S
C380 C372 1.378 . S
C380 C375 1.350 . S
C381 H368 0.929 . S
C381 C373 1.433 . S
C381 N383 1.384 . S
N382 C378 1.427 . S
N382 C379 1.384 . S
N383 C375 1.427 . S
N383 C381 1.384 . S
H384 C390 0.930 . S
H385 C394 0.930 1_545 S
H386 C399 0.929 . S
H387 C397 0.929 . S
H388 C392 0.929 . S
H389 C398 0.929 . S
C390 H384 0.930 . S
C390 C391 1.367 . S
C390 C398 1.378 . S
C391 C390 1.367 . S
C391 C399 1.433 . S
C392 H388 0.929 . S
C392 C394 1.378 . S
C392 C396 1.350 . S
C393 C396 1.463 . S
C393 C398 1.350 . S
C393 N401 1.427 . S
C394 H385 0.930 1_565 S
C394 C392 1.378 . S
C394 C395 1.367 . S
C395 C394 1.367 . S
C395 C397 1.433 . S
C396 C392 1.350 . S
C396 C393 1.463 . S
C396 N400 1.427 . S
C397 H387 0.929 . S
C397 C395 1.433 . S
C397 N400 1.384 . S
C398 H389 0.929 . S
C398 C390 1.378 . S
C398 C393 1.350 . S
C399 H386 0.929 . S
C399 C391 1.433 . S
C399 N401 1.384 . S
N400 C396 1.427 . S
N400 C397 1.384 . S
N401 C393 1.427 . S
N401 C399 1.384 . S
H402 C408 0.930 . S
H403 C412 0.930 . S
H404 C417 0.929 . S
H405 C415 0.929 . S
H406 C410 0.929 . S
H407 C416 0.929 . S
C408 H402 0.930 . S
C408 C409 1.367 . S
C408 C416 1.378 . S
C409 C408 1.367 . S
C409 C417 1.433 . S
C410 H406 0.929 . S
C410 C412 1.378 . S
C410 C414 1.350 . S
C411 C414 1.463 . S
C411 C416 1.350 . S
C411 N419 1.427 . S
C412 H403 0.930 . S
C412 C410 1.378 . S
C412 C413 1.367 . S
C413 C412 1.367 . S
C413 C415 1.433 . S
C414 C410 1.350 . S
C414 C411 1.463 . S
C414 N418 1.427 . S
C415 H405 0.929 . S
C415 C413 1.433 . S
C415 N418 1.384 . S
C416 H407 0.929 . S
C416 C408 1.378 . S
C416 C411 1.350 . S
C417 H404 0.929 . S
C417 C409 1.433 . S
C417 N419 1.384 . S
N418 C414 1.427 . S
N418 C415 1.384 . S
N419 C411 1.427 . S
N419 C417 1.384 . S
H420 C426 0.930 . S
H421 C430 0.930 . S
H422 C435 0.929 . S
H423 C433 0.929 . S
H424 C428 0.929 . S
H425 C434 0.929 . S
C426 H420 0.930 . S
C426 C427 1.367 . S
C426 C434 1.378 . S
C427 C426 1.367 . S
C427 C435 1.433 . S
C428 H424 0.929 . S
C428 C430 1.378 . S
C428 C432 1.350 . S
C429 C432 1.463 . S
C429 C434 1.350 . S
C429 N437 1.427 . S
C430 H421 0.930 . S
C430 C428 1.378 . S
C430 C431 1.367 . S
C431 C430 1.367 . S
C431 C433 1.433 . S
C432 C428 1.350 . S
C432 C429 1.463 . S
C432 N436 1.427 . S
C433 H423 0.929 . S
C433 C431 1.433 . S
C433 N436 1.384 . S
C434 H425 0.929 . S
C434 C426 1.378 . S
C434 C429 1.350 . S
C435 H422 0.929 . S
C435 C427 1.433 . S
C435 N437 1.384 . S
N436 C432 1.427 . S
N436 C433 1.384 . S
N437 C429 1.427 . S
N437 C435 1.384 . S
H438 C444 0.930 . S
H439 C448 0.930 . S
H440 C453 0.929 . S
H441 C451 0.929 . S
H442 C446 0.929 . S
H443 C452 0.929 . S
C444 H438 0.930 . S
C444 C445 1.367 . S
C444 C452 1.378 . S
C445 C444 1.367 . S
C445 C453 1.433 . S
C446 H442 0.929 . S
C446 C448 1.378 . S
C446 C450 1.350 . S
C447 C450 1.463 . S
C447 C452 1.350 . S
C447 N455 1.427 . S
C448 H439 0.930 . S
C448 C446 1.378 . S
C448 C449 1.367 . S
C449 C448 1.367 . S
C449 C451 1.433 . S
C450 C446 1.350 . S
C450 C447 1.463 . S
C450 N454 1.427 . S
C451 H441 0.929 . S
C451 C449 1.433 . S
C451 N454 1.384 . S
C452 H443 0.929 . S
C452 C444 1.378 . S
C452 C447 1.350 . S
C453 H440 0.929 . S
C453 C445 1.433 . S
C453 N455 1.384 . S
N454 C450 1.427 . S
N454 C451 1.384 . S
N455 C447 1.427 . S
N455 C453 1.384 . S
H456 C462 0.930 . S
H457 C466 0.930 . S
H458 C471 0.929 . S
H459 C469 0.929 . S
H460 C464 0.929 . S
H461 C470 0.929 . S
C462 H456 0.930 . S
C462 C463 1.367 . S
C462 C470 1.378 . S
C463 C462 1.367 . S
C463 C471 1.433 . S
C464 H460 0.929 . S
C464 C466 1.378 . S
C464 C468 1.350 . S
C465 C468 1.463 . S
C465 C470 1.350 . S
C465 N473 1.427 . S
C466 H457 0.930 . S
C466 C464 1.378 . S
C466 C467 1.367 . S
C467 C466 1.367 . S
C467 C469 1.433 . S
C468 C464 1.350 . S
C468 C465 1.463 . S
C468 N472 1.427 . S
C469 H459 0.929 . S
C469 C467 1.433 . S
C469 N472 1.384 . S
C470 H461 0.929 . S
C470 C462 1.378 . S
C470 C465 1.350 . S
C471 H458 0.929 . S
C471 C463 1.433 . S
C471 N473 1.384 . S
N472 C468 1.427 . S
N472 C469 1.384 . S
N473 C465 1.427 . S
N473 C471 1.384 . S
H474 C480 0.930 . S
H475 C484 0.930 . S
H476 C489 0.929 . S
H477 C487 0.929 . S
H478 C482 0.929 . S
H479 C488 0.929 . S
C480 H474 0.930 . S
C480 C481 1.367 . S
C480 C488 1.378 . S
C481 C480 1.367 . S
C481 C489 1.433 . S
C482 H478 0.929 . S
C482 C484 1.378 . S
C482 C486 1.350 . S
C483 C486 1.463 . S
C483 C488 1.350 . S
C483 N491 1.427 . S
C484 H475 0.930 . S
C484 C482 1.378 . S
C484 C485 1.367 . S
C485 C484 1.367 . S
C485 C487 1.433 . S
C486 C482 1.350 . S
C486 C483 1.463 . S
C486 N490 1.427 . S
C487 H477 0.929 . S
C487 C485 1.433 . S
C487 N490 1.384 . S
C488 H479 0.929 . S
C488 C480 1.378 . S
C488 C483 1.350 . S
C489 H476 0.929 . S
C489 C481 1.433 . S
C489 N491 1.384 . S
N490 C486 1.427 . S
N490 C487 1.384 . S
N491 C483 1.427 . S
N491 C489 1.384 . S
H492 C498 0.930 . S
H493 C502 0.930 . S
H494 C507 0.929 . S
H495 C505 0.929 . S
H496 C500 0.929 . S
H497 C506 0.929 . S
C498 H492 0.930 . S
C498 C499 1.367 . S
C498 C506 1.378 . S
C499 C498 1.367 . S
C499 C507 1.433 . S
C500 H496 0.929 . S
C500 C502 1.378 . S
C500 C504 1.350 . S
C501 C504 1.463 . S
C501 C506 1.350 . S
C501 N509 1.427 . S
C502 H493 0.930 . S
C502 C500 1.378 . S
C502 C503 1.367 . S
C503 C502 1.367 . S
C503 C505 1.433 . S
C504 C500 1.350 . S
C504 C501 1.463 . S
C504 N508 1.427 . S
C505 H495 0.929 . S
C505 C503 1.433 . S
C505 N508 1.384 . S
C506 H497 0.929 . S
C506 C498 1.378 . S
C506 C501 1.350 . S
C507 H494 0.929 . S
C507 C499 1.433 . S
C507 N509 1.384 . S
N508 C504 1.427 . S
N508 C505 1.384 . S
N509 C501 1.427 . S
N509 C507 1.384 . S
H510 C516 0.930 . S
H511 C520 0.930 . S
H512 C525 0.929 . S
H513 C523 0.929 . S
H514 C518 0.929 . S
H515 C524 0.929 . S
C516 H510 0.930 . S
C516 C517 1.367 . S
C516 C524 1.378 . S
C517 C516 1.367 . S
C517 C525 1.433 . S
C518 H514 0.929 . S
C518 C520 1.378 . S
C518 C522 1.350 . S
C519 C522 1.463 . S
C519 C524 1.350 . S
C519 N527 1.427 . S
C520 H511 0.930 . S
C520 C518 1.378 . S
C520 C521 1.367 . S
C521 C520 1.367 . S
C521 C523 1.433 . S
C522 C518 1.350 . S
C522 C519 1.463 . S
C522 N526 1.427 . S
C523 H513 0.929 . S
C523 C521 1.433 . S
C523 N526 1.384 . S
C524 H515 0.929 . S
C524 C516 1.378 . S
C524 C519 1.350 . S
C525 H512 0.929 . S
C525 C517 1.433 . S
C525 N527 1.384 . S
N526 C522 1.427 . S
N526 C523 1.384 . S
N527 C519 1.427 . S
N527 C525 1.384 . S
H528 C534 0.930 . S
H529 C538 0.930 . S
H530 C543 0.929 . S
H531 C541 0.929 . S
H532 C536 0.929 . S
H533 C542 0.929 . S
C534 H528 0.930 . S
C534 C535 1.367 . S
C534 C542 1.378 . S
C535 C534 1.367 . S
C535 C543 1.433 . S
C536 H532 0.929 . S
C536 C538 1.378 . S
C536 C540 1.350 . S
C537 C540 1.463 . S
C537 C542 1.350 . S
C537 N545 1.427 . S
C538 H529 0.930 . S
C538 C536 1.378 . S
C538 C539 1.367 . S
C539 C538 1.367 . S
C539 C541 1.433 . S
C540 C536 1.350 . S
C540 C537 1.463 . S
C540 N544 1.427 . S
C541 H531 0.929 . S
C541 C539 1.433 . S
C541 N544 1.384 . S
C542 H533 0.929 . S
C542 C534 1.378 . S
C542 C537 1.350 . S
C543 H530 0.929 . S
C543 C535 1.433 . S
C543 N545 1.384 . S
N544 C540 1.427 . S
N544 C541 1.384 . S
N545 C537 1.427 . S
N545 C543 1.384 . S
H546 C552 0.930 . S
H547 C556 0.930 . S
H548 C561 0.929 . S
H549 C559 0.929 . S
H550 C554 0.929 . S
H551 C560 0.929 . S
C552 H546 0.930 . S
C552 C553 1.367 . S
C552 C560 1.378 . S
C553 C552 1.367 . S
C553 C561 1.433 . S
C554 H550 0.929 . S
C554 C556 1.378 . S
C554 C558 1.350 . S
C555 C558 1.463 . S
C555 C560 1.350 . S
C555 N563 1.427 . S
C556 H547 0.930 . S
C556 C554 1.378 . S
C556 C557 1.367 . S
C557 C556 1.367 . S
C557 C559 1.433 . S
C558 C554 1.350 . S
C558 C555 1.463 . S
C558 N562 1.427 . S
C559 H549 0.929 . S
C559 C557 1.433 . S
C559 N562 1.384 . S
C560 H551 0.929 . S
C560 C552 1.378 . S
C560 C555 1.350 . S
C561 H548 0.929 . S
C561 C553 1.433 . S
C561 N563 1.384 . S
N562 C558 1.427 . S
N562 C559 1.384 . S
N563 C555 1.427 . S
N563 C561 1.384 . S
H564 C570 0.930 . S
H565 C574 0.930 . S
H566 C579 0.929 . S
H567 C577 0.929 . S
H568 C572 0.929 . S
H569 C578 0.929 . S
C570 H564 0.930 . S
C570 C571 1.367 . S
C570 C578 1.378 . S
C571 C570 1.367 . S
C571 C579 1.433 . S
C572 H568 0.929 . S
C572 C574 1.378 . S
C572 C576 1.350 . S
C573 C576 1.463 . S
C573 C578 1.350 . S
C573 N581 1.427 . S
C574 H565 0.930 . S
C574 C572 1.378 . S
C574 C575 1.367 . S
C575 C574 1.367 . S
C575 C577 1.433 . S
C576 C572 1.350 . S
C576 C573 1.463 . S
C576 N580 1.427 . S
C577 H567 0.929 . S
C577 C575 1.433 . S
C577 N580 1.384 . S
C578 H569 0.929 . S
C578 C570 1.378 . S
C578 C573 1.350 . S
C579 H566 0.929 . S
C579 C571 1.433 . S
C579 N581 1.384 . S
N580 C576 1.427 . S
N580 C577 1.384 . S
N581 C573 1.427 . S
N581 C579 1.384 . S
H582 C588 0.930 . S
H583 C592 0.930 . S
H584 C597 0.929 . S
H585 C595 0.929 . S
H586 C590 0.929 . S
H587 C596 0.929 . S
C588 H582 0.930 . S
C588 C589 1.367 . S
C588 C596 1.378 . S
C589 C588 1.367 . S
C589 C597 1.433 . S
C590 H586 0.929 . S
C590 C592 1.378 . S
C590 C594 1.350 . S
C591 C594 1.463 . S
C591 C596 1.350 . S
C591 N599 1.427 . S
C592 H583 0.930 . S
C592 C590 1.378 . S
C592 C593 1.367 . S
C593 C592 1.367 . S
C593 C595 1.433 . S
C594 C590 1.350 . S
C594 C591 1.463 . S
C594 N598 1.427 . S
C595 H585 0.929 . S
C595 C593 1.433 . S
C595 N598 1.384 . S
C596 H587 0.929 . S
C596 C588 1.378 . S
C596 C591 1.350 . S
C597 H584 0.929 . S
C597 C589 1.433 . S
C597 N599 1.384 . S
N598 C594 1.427 . S
N598 C595 1.384 . S
N599 C591 1.427 . S
N599 C597 1.384 . S
C175 C6 1.604 . S
C179 C107 1.595 . S
C193 C20 1.513 . S
C197 C110 1.470 . S
C215 C146 1.359 . S
C211 N26 1.382 . S
C229 N37 1.534 . S
C233 C166 1.540 . S
C251 C120 2.070 . S
C247 C9 2.081 . S
C269 C97 1.278 . S
C265 N15 1.301 . S
C287 C150 1.429 . S
C283 C31 1.503 . S
C305 C130 1.271 . S
C301 C39 1.361 . S
C319 N4 1.377 . S
C323 C160 1.312 . S
C341 C126 1.762 1_556 S
C337 C28 1.790 . S
C355 C42 1.458 . S
C359 C92 1.423 . S
C373 C17 1.457 . S
C377 C140 1.401 . S
C395 C106 1.683 . S
C391 C50 1.687 . S
C409 C61 1.320 . S
C413 C112 1.262 . S
C427 N70 1.692 . S
C431 C147 1.663 . S
C445 N81 1.388 . S
C449 C167 1.363 . S
C463 N48 1.534 . S
C467 C117 1.503 . S
C485 C100 1.919 . S
C481 C64 1.924 . S
C503 C152 1.430 . S
C499 C75 1.550 . S
C521 C132 1.259 . S
C517 C86 1.303 . S
C535 C53 1.602 . S
C539 C157 1.520 . S
C557 C127 1.389 . S
C553 C72 1.402 . S
C575 C90 1.702 . S
C571 C83 1.750 . S
C589 N59 1.321 . S
C593 C137 1.279 . S
