# Generated by pormake.
# Topology eea, (3,6)-cn, num edge types: 1
# Building blocks:
#     Node 0, Type 0, BuildingBlock: BETDIP_clean_linker_0, # of connection points: 3
#     Node 1, Type 0, BuildingBlock: BETDIP_clean_linker_0, # of connection points: 3
#     Node 2, Type 0, BuildingBlock: BETDIP_clean_linker_0, # of connection points: 3
#     Node 3, Type 0, BuildingBlock: BETDIP_clean_linker_0, # of connection points: 3
#     Node 4, Type 0, BuildingBlock: BETDIP_clean_linker_0, # of connection points: 3
#     Node 5, Type 0, BuildingBlock: BETDIP_clean_linker_0, # of connection points: 3
#     Node 6, Type 0, BuildingBlock: BETDIP_clean_linker_0, # of connection points: 3
#     Node 7, Type 0, BuildingBlock: BETDIP_clean_linker_0, # of connection points: 3
#     Node 8, Type 0, BuildingBlock: BETDIP_clean_linker_0, # of connection points: 3
#     Node 9, Type 0, BuildingBlock: BETDIP_clean_linker_0, # of connection points: 3
#     Node 10, Type 0, BuildingBlock: BETDIP_clean_linker_0, # of connection points: 3
#     Node 11, Type 0, BuildingBlock: BETDIP_clean_linker_0, # of connection points: 3
#     Node 12, Type 0, BuildingBlock: BETDIP_clean_linker_0, # of connection points: 3
#     Node 13, Type 0, BuildingBlock: BETDIP_clean_linker_0, # of connection points: 3
#     Node 14, Type 0, BuildingBlock: BETDIP_clean_linker_0, # of connection points: 3
#     Node 15, Type 0, BuildingBlock: BETDIP_clean_linker_0, # of connection points: 3
#     Node 16, Type 0, BuildingBlock: BETDIP_clean_linker_0, # of connection points: 3
#     Node 17, Type 0, BuildingBlock: BETDIP_clean_linker_0, # of connection points: 3
#     Node 18, Type 1, BuildingBlock: HISSIN_clean_sbu_0, # of connection points: 6
#     Node 19, Type 1, BuildingBlock: HISSIN_clean_sbu_0, # of connection points: 6
#     Node 20, Type 1, BuildingBlock: HISSIN_clean_sbu_0, # of connection points: 6
#     Node 21, Type 1, BuildingBlock: HISSIN_clean_sbu_0, # of connection points: 6
#     Node 22, Type 1, BuildingBlock: HISSIN_clean_sbu_0, # of connection points: 6
#     Node 23, Type 1, BuildingBlock: HISSIN_clean_sbu_0, # of connection points: 6
#     Node 24, Type 1, BuildingBlock: HISSIN_clean_sbu_0, # of connection points: 6
#     Node 25, Type 1, BuildingBlock: HISSIN_clean_sbu_0, # of connection points: 6
#     Node 26, Type 1, BuildingBlock: HISSIN_clean_sbu_0, # of connection points: 6
#     Edge 27, Type (0, 1), BuildingBlock: CIFDUS_clean_linker_0, # of connection points: 2
#     Edge 28, Type (0, 1), BuildingBlock: CIFDUS_clean_linker_0, # of connection points: 2
#     Edge 29, Type (0, 1), BuildingBlock: CIFDUS_clean_linker_0, # of connection points: 2
#     Edge 30, Type (0, 1), BuildingBlock: CIFDUS_clean_linker_0, # of connection points: 2
#     Edge 31, Type (0, 1), BuildingBlock: CIFDUS_clean_linker_0, # of connection points: 2
#     Edge 32, Type (0, 1), BuildingBlock: CIFDUS_clean_linker_0, # of connection points: 2
#     Edge 33, Type (0, 1), BuildingBlock: CIFDUS_clean_linker_0, # of connection points: 2
#     Edge 34, Type (0, 1), BuildingBlock: CIFDUS_clean_linker_0, # of connection points: 2
#     Edge 35, Type (0, 1), BuildingBlock: CIFDUS_clean_linker_0, # of connection points: 2
#     Edge 36, Type (0, 1), BuildingBlock: CIFDUS_clean_linker_0, # of connection points: 2
#     Edge 37, Type (0, 1), BuildingBlock: CIFDUS_clean_linker_0, # of connection points: 2
#     Edge 38, Type (0, 1), BuildingBlock: CIFDUS_clean_linker_0, # of connection points: 2
#     Edge 39, Type (0, 1), BuildingBlock: CIFDUS_clean_linker_0, # of connection points: 2
#     Edge 40, Type (0, 1), BuildingBlock: CIFDUS_clean_linker_0, # of connection points: 2
#     Edge 41, Type (0, 1), BuildingBlock: CIFDUS_clean_linker_0, # of connection points: 2
#     Edge 42, Type (0, 1), BuildingBlock: CIFDUS_clean_linker_0, # of connection points: 2
#     Edge 43, Type (0, 1), BuildingBlock: CIFDUS_clean_linker_0, # of connection points: 2
#     Edge 44, Type (0, 1), BuildingBlock: CIFDUS_clean_linker_0, # of connection points: 2
#     Edge 45, Type (0, 1), BuildingBlock: CIFDUS_clean_linker_0, # of connection points: 2
#     Edge 46, Type (0, 1), BuildingBlock: CIFDUS_clean_linker_0, # of connection points: 2
#     Edge 47, Type (0, 1), BuildingBlock: CIFDUS_clean_linker_0, # of connection points: 2
#     Edge 48, Type (0, 1), BuildingBlock: CIFDUS_clean_linker_0, # of connection points: 2
#     Edge 49, Type (0, 1), BuildingBlock: CIFDUS_clean_linker_0, # of connection points: 2
#     Edge 50, Type (0, 1), BuildingBlock: CIFDUS_clean_linker_0, # of connection points: 2
#     Edge 51, Type (0, 1), BuildingBlock: CIFDUS_clean_linker_0, # of connection points: 2
#     Edge 52, Type (0, 1), BuildingBlock: CIFDUS_clean_linker_0, # of connection points: 2
#     Edge 53, Type (0, 1), BuildingBlock: CIFDUS_clean_linker_0, # of connection points: 2
#     Edge 54, Type (0, 1), BuildingBlock: CIFDUS_clean_linker_0, # of connection points: 2
#     Edge 55, Type (0, 1), BuildingBlock: CIFDUS_clean_linker_0, # of connection points: 2
#     Edge 56, Type (0, 1), BuildingBlock: CIFDUS_clean_linker_0, # of connection points: 2
#     Edge 57, Type (0, 1), BuildingBlock: CIFDUS_clean_linker_0, # of connection points: 2
#     Edge 58, Type (0, 1), BuildingBlock: CIFDUS_clean_linker_0, # of connection points: 2
#     Edge 59, Type (0, 1), BuildingBlock: CIFDUS_clean_linker_0, # of connection points: 2
#     Edge 60, Type (0, 1), BuildingBlock: CIFDUS_clean_linker_0, # of connection points: 2
#     Edge 61, Type (0, 1), BuildingBlock: CIFDUS_clean_linker_0, # of connection points: 2
#     Edge 62, Type (0, 1), BuildingBlock: CIFDUS_clean_linker_0, # of connection points: 2
#     Edge 63, Type (0, 1), BuildingBlock: CIFDUS_clean_linker_0, # of connection points: 2
#     Edge 64, Type (0, 1), BuildingBlock: CIFDUS_clean_linker_0, # of connection points: 2
#     Edge 65, Type (0, 1), BuildingBlock: CIFDUS_clean_linker_0, # of connection points: 2
#     Edge 66, Type (0, 1), BuildingBlock: CIFDUS_clean_linker_0, # of connection points: 2
#     Edge 67, Type (0, 1), BuildingBlock: CIFDUS_clean_linker_0, # of connection points: 2
#     Edge 68, Type (0, 1), BuildingBlock: CIFDUS_clean_linker_0, # of connection points: 2
#     Edge 69, Type (0, 1), BuildingBlock: CIFDUS_clean_linker_0, # of connection points: 2
#     Edge 70, Type (0, 1), BuildingBlock: CIFDUS_clean_linker_0, # of connection points: 2
#     Edge 71, Type (0, 1), BuildingBlock: CIFDUS_clean_linker_0, # of connection points: 2
#     Edge 72, Type (0, 1), BuildingBlock: CIFDUS_clean_linker_0, # of connection points: 2
#     Edge 73, Type (0, 1), BuildingBlock: CIFDUS_clean_linker_0, # of connection points: 2
#     Edge 74, Type (0, 1), BuildingBlock: CIFDUS_clean_linker_0, # of connection points: 2
#     Edge 75, Type (0, 1), BuildingBlock: CIFDUS_clean_linker_0, # of connection points: 2
#     Edge 76, Type (0, 1), BuildingBlock: CIFDUS_clean_linker_0, # of connection points: 2
#     Edge 77, Type (0, 1), BuildingBlock: CIFDUS_clean_linker_0, # of connection points: 2
#     Edge 78, Type (0, 1), BuildingBlock: CIFDUS_clean_linker_0, # of connection points: 2
#     Edge 79, Type (0, 1), BuildingBlock: CIFDUS_clean_linker_0, # of connection points: 2
#     Edge 80, Type (0, 1), BuildingBlock: CIFDUS_clean_linker_0, # of connection points: 2
# Relax obj value: 0.061
# Max RMSD: 0.216
# Mean RMSD: 0.152
data_MOF--net-eea--node1-HISSIN_clean_sbu_0--node2-BETDIP_clean_linker_0--edge1-CIFDUS_clean_linker_0
_symmetry_space_group_name_H-M    P1
_symmetry_Int_Tables_number       1
_symmetry_cell_setting            triclinic
loop_
_symmetry_equiv_pos_as_xyz
'x, y, z'
_cell_length_a     47.436546
_cell_length_b     47.987061
_cell_length_c     63.079484
_cell_angle_alpha  93.122968
_cell_angle_beta   93.17163
_cell_angle_gamma 119.90252
loop_
_atom_site_label
_atom_site_type_symbol
_atom_site_fract_x
_atom_site_fract_y
_atom_site_fract_z
_atom_type_partial_charge
H0 H 0.25443 0.11228 0.37045 0.0
H1 H 0.29288 0.17885 0.42678 0.0
H2 H 0.30598 0.09641 0.42243 0.0
H3 H 0.29973 0.21407 0.3964 0.0
C4 C 0.27358 0.19927 0.39201 0.0
C5 C 0.26788 0.11963 0.3861 0.0
C6 C 0.28015 0.10105 0.39486 0.0
C7 C 0.27316 0.14803 0.39731 0.0
C8 C 0.29025 0.15773 0.41769 0.0
C9 C 0.30187 0.139 0.42695 0.0
C10 C 0.29717 0.11101 0.41529 0.0
N11 N 0.25901 0.16527 0.38849 0.0
H12 H 0.92229 0.14317 0.37943 0.0
H13 H 0.86337 0.10962 0.4318 0.0
H14 H 0.95166 0.20132 0.43991 0.0
H15 H 0.82364 0.082 0.40624 0.0
C16 C 0.8349 0.07417 0.39461 0.0
C17 C 0.91827 0.14687 0.39583 0.0
C18 C 0.94087 0.1752 0.40866 0.0
C19 C 0.88994 0.12341 0.40382 0.0
C20 C 0.88459 0.12791 0.42509 0.0
C21 C 0.90643 0.15616 0.438 0.0
C22 C 0.93448 0.1798 0.42972 0.0
N23 N 0.86769 0.09515 0.39035 0.0
H24 H 0.90806 0.8198 0.39865 0.0
H25 H 0.94127 0.77768 0.44521 0.0
H26 H 0.84576 0.76592 0.44619 0.0
H27 H 0.99007 0.82456 0.44046 0.0
C28 C 0.98839 0.82181 0.42314 0.0
C29 C 0.90344 0.8056 0.41215 0.0
C30 C 0.8737 0.79401 0.42149 0.0
C31 C 0.9281 0.80019 0.42074 0.0
C32 C 0.92261 0.7823 0.43856 0.0
C33 C 0.89319 0.7705 0.44801 0.0
C34 C 0.86885 0.77608 0.43923 0.0
N35 N 0.9582 0.81288 0.4113 0.0
H36 H 0.0864 0.21542 0.63285 0.0
H37 H 0.15005 0.25431 0.58343 0.0
H38 H 0.06439 0.26325 0.58411 0.0
H39 H 0.16499 0.2183 0.59242 0.0
C40 C 0.16411 0.21792 0.60957 0.0
C41 C 0.09223 0.22825 0.61868 0.0
C42 C 0.07161 0.23884 0.60989 0.0
C43 C 0.12021 0.23327 0.60921 0.0
C44 C 0.12788 0.2492 0.59046 0.0
C45 C 0.10768 0.25987 0.58113 0.0
C46 C 0.07974 0.25472 0.59107 0.0
N47 N 0.14052 0.2229 0.61946 0.0
H48 H 0.77507 0.87518 0.65676 0.0
H49 H 0.74489 0.89548 0.59673 0.0
H50 H 0.75103 0.80976 0.60049 0.0
H51 H 0.73492 0.92815 0.61606 0.0
C52 C 0.75295 0.93744 0.6298 0.0
C53 C 0.76645 0.86822 0.63999 0.0
C54 C 0.76414 0.8402 0.62997 0.0
C55 C 0.759 0.88814 0.6283 0.0
C56 C 0.74902 0.87964 0.60631 0.0
C57 C 0.74579 0.85128 0.59614 0.0
C58 C 0.75345 0.83174 0.60813 0.0
N59 N 0.76394 0.91754 0.63874 0.0
H60 H 0.12467 0.90183 0.63214 0.0
H61 H 0.09675 0.83826 0.57457 0.0
H62 H 0.18152 0.93295 0.57849 0.0
H63 H 0.079 0.8644 0.6435 0.0
C64 C 0.066 0.84342 0.63196 0.0
C65 C 0.12864 0.89713 0.61597 0.0
C66 C 0.15617 0.92096 0.60697 0.0
C67 C 0.10688 0.86733 0.60412 0.0
C68 C 0.11317 0.86142 0.58342 0.0
C69 C 0.14034 0.8847 0.57417 0.0
C70 C 0.16139 0.91445 0.58597 0.0
N71 N 0.07835 0.84246 0.61203 0.0
H72 H 0.91682 0.44901 0.71166 0.0
H73 H 0.95351 0.50364 0.77311 0.0
H74 H 0.95378 0.41477 0.76151 0.0
H75 H 0.89048 0.47744 0.70905 0.0
C76 C 0.90493 0.50024 0.71881 0.0
C77 C 0.92728 0.45197 0.72788 0.0
C78 C 0.93479 0.42886 0.73489 0.0
C79 C 0.9343 0.47917 0.74177 0.0
C80 C 0.94867 0.48291 0.76245 0.0
C81 C 0.95535 0.4596 0.76978 0.0
C82 C 0.94858 0.43283 0.75588 0.0
N83 N 0.9275 0.50347 0.73582 0.0
H84 H 0.58539 0.48006 0.71016 0.0
H85 H 0.52528 0.45154 0.76201 0.0
H86 H 0.61155 0.54476 0.76764 0.0
H87 H 0.52007 0.40321 0.75145 0.0
C88 C 0.51598 0.40233 0.73424 0.0
C89 C 0.58118 0.48562 0.72612 0.0
C90 C 0.60249 0.51598 0.73753 0.0
C91 C 0.55421 0.46181 0.7352 0.0
C92 C 0.54693 0.46917 0.75529 0.0
C93 C 0.56726 0.4992 0.76688 0.0
C94 C 0.59545 0.52209 0.75822 0.0
N95 N 0.53451 0.43073 0.72383 0.0
H96 H 0.54934 0.12745 0.72438 0.0
H97 H 0.5905 0.10443 0.77834 0.0
H98 H 0.49455 0.0922 0.77869 0.0
H99 H 0.63709 0.14701 0.76894 0.0
C100 C 0.63446 0.14175 0.75173 0.0
C101 C 0.54721 0.11907 0.74013 0.0
C102 C 0.5182 0.10935 0.75008 0.0
C103 C 0.57383 0.11844 0.75049 0.0
C104 C 0.57083 0.10666 0.77069 0.0
C105 C 0.5422 0.09686 0.78092 0.0
C106 C 0.51616 0.09851 0.77053 0.0
N107 N 0.6032 0.12946 0.74028 0.0
H108 H 0.76265 0.54861 0.9719 0.0
H109 H 0.81922 0.56753 0.918 0.0
H110 H 0.73452 0.57769 0.91468 0.0
H111 H 0.85792 0.57375 0.94108 0.0
C112 C 0.8469 0.55798 0.95351 0.0
C113 C 0.76649 0.55541 0.95576 0.0
C114 C 0.74495 0.56292 0.94453 0.0
C115 C 0.79368 0.55742 0.94658 0.0
C116 C 0.79892 0.56646 0.92563 0.0
C117 C 0.7781 0.57451 0.91424 0.0
C118 C 0.75114 0.57249 0.92376 0.0
N119 N 0.81499 0.5499 0.9587 0.0
H120 H 0.44415 0.19684 0.97627 0.0
H121 H 0.42295 0.23008 0.91894 0.0
H122 H 0.41937 0.1391 0.91593 0.0
H123 H 0.41338 0.26064 0.94066 0.0
C124 C 0.43025 0.26704 0.95481 0.0
C125 C 0.4375 0.19309 0.95921 0.0
C126 C 0.43238 0.16488 0.94744 0.0
C127 C 0.43368 0.21654 0.94925 0.0
C128 C 0.42515 0.21194 0.92711 0.0
C129 C 0.41932 0.18378 0.91514 0.0
C130 C 0.42293 0.16035 0.92537 0.0
N131 N 0.43964 0.24488 0.96178 0.0
H132 H 0.79465 0.24201 0.9636 0.0
H133 H 0.76894 0.17634 0.90744 0.0
H134 H 0.86463 0.26041 0.91791 0.0
H135 H 0.75727 0.19691 0.9776 0.0
C136 C 0.73859 0.18327 0.96449 0.0
C137 C 0.80151 0.23475 0.94916 0.0
C138 C 0.83266 0.2549 0.94245 0.0
C139 C 0.77874 0.206 0.93675 0.0
C140 C 0.78676 0.19816 0.91712 0.0
C141 C 0.81774 0.21772 0.91021 0.0
C142 C 0.84062 0.24561 0.92316 0.0
N143 N 0.74724 0.18487 0.94316 0.0
H144 H 0.56793 0.77092 0.04148 0.0
H145 H 0.62117 0.84378 0.09336 0.0
H146 H 0.61949 0.75352 0.09287 0.0
H147 H 0.63466 0.87231 0.05644 0.0
C148 C 0.6086 0.86368 0.05435 0.0
C149 C 0.58356 0.77873 0.05631 0.0
C150 C 0.59243 0.75792 0.06574 0.0
C151 C 0.59499 0.81002 0.06579 0.0
C152 C 0.61389 0.8202 0.08554 0.0
C153 C 0.62156 0.79925 0.09576 0.0
C154 C 0.61177 0.76873 0.08542 0.0
N155 N 0.58599 0.83053 0.05576 0.0
H156 H 0.27538 0.80477 0.05151 0.0
H157 H 0.20207 0.78169 0.0951 0.0
H158 H 0.28792 0.87487 0.10269 0.0
H159 H 0.16868 0.74821 0.06894 0.0
C160 C 0.18252 0.739 0.061 0.0
C161 C 0.26655 0.81205 0.06499 0.0
C162 C 0.28609 0.8427 0.07641 0.0
C163 C 0.23562 0.79028 0.07104 0.0
C164 C 0.22471 0.79885 0.08917 0.0
C165 C 0.24342 0.82925 0.10052 0.0
C166 C 0.27393 0.85113 0.09405 0.0
N167 N 0.21646 0.7595 0.05921 0.0
H168 H 0.22971 0.46288 0.06441 0.0
H169 H 0.26242 0.42293 0.11293 0.0
H170 H 0.17113 0.41984 0.11604 0.0
H171 H 0.28981 0.41689 0.08836 0.0
C172 C 0.29706 0.43682 0.07855 0.0
C173 C 0.22558 0.45048 0.07876 0.0
C174 C 0.19746 0.44269 0.08935 0.0
C175 C 0.24879 0.44261 0.08665 0.0
C176 C 0.2443 0.42793 0.10593 0.0
C177 C 0.21624 0.41954 0.11648 0.0
C178 C 0.19289 0.42663 0.10794 0.0
N179 N 0.27666 0.45044 0.07525 0.0
H180 H 0.42752 0.8654 0.29845 0.0
H181 H 0.48477 0.89478 0.24518 0.0
H182 H 0.40593 0.91379 0.24973 0.0
H183 H 0.48715 0.84913 0.25147 0.0
C184 C 0.49342 0.85369 0.26863 0.0
C185 C 0.43263 0.87707 0.2838 0.0
C186 C 0.41325 0.88954 0.27569 0.0
C187 C 0.45799 0.87829 0.27273 0.0
C188 C 0.46447 0.89263 0.25343 0.0
C189 C 0.44553 0.90509 0.24486 0.0
C190 C 0.42026 0.90383 0.25622 0.0
N191 N 0.47699 0.86538 0.28141 0.0
H192 H 0.133 0.54829 0.31155 0.0
H193 H 0.0839 0.56701 0.26025 0.0
H194 H 0.06973 0.47161 0.26301 0.0
H195 H 0.07888 0.59451 0.29915 0.0
C196 C 0.10519 0.6088 0.29866 0.0
C197 C 0.11611 0.53925 0.29727 0.0
C198 C 0.10176 0.50676 0.28897 0.0
C199 C 0.10874 0.56048 0.28735 0.0
C200 C 0.08815 0.5499 0.26833 0.0
C201 C 0.07489 0.51811 0.25906 0.0
C202 C 0.08118 0.49648 0.26972 0.0
N203 N 0.12348 0.59301 0.2961 0.0
H204 H 0.46984 0.5674 0.3107 0.0
H205 H 0.43472 0.49886 0.25553 0.0
H206 H 0.52346 0.59013 0.2552 0.0
H207 H 0.38511 0.49262 0.26786 0.0
C208 C 0.38966 0.49141 0.28478 0.0
C209 C 0.47277 0.56107 0.29454 0.0
C210 C 0.49934 0.58296 0.28409 0.0
C211 C 0.44911 0.53126 0.2842 0.0
C212 C 0.45283 0.52218 0.26343 0.0
C213 C 0.47999 0.5431 0.2529 0.0
C214 C 0.50288 0.5736 0.26332 0.0
N215 N 0.42165 0.51113 0.29509 0.0
Eu216 Eu 0.50244 0.99892 0.99301 0.0
Eu217 Eu 0.51684 0.02911 0.04372 0.0
C218 C 0.49071 0.05724 0.00752 0.0
C219 C 0.4959 0.99145 0.93163 0.0
C220 C 0.47027 0.99429 0.92172 0.0
C221 C 0.52664 0.0123 0.90096 0.0
C222 C 0.47281 0.00601 0.90167 0.0
C223 C 0.52406 1.0005 0.92097 0.0
C224 C 0.50099 0.01509 0.89103 0.0
C225 C 0.49302 0.97809 0.95259 0.0
O226 O 0.46309 0.9931 0.03812 0.0
O227 O 0.46227 0.96045 0.00973 0.0
C228 C 0.44878 0.96563 0.02598 0.0
O229 O 0.53219 0.9808 0.01024 0.0
O230 O 0.50453 0.04999 0.07078 0.0
O231 O 0.54513 0.04142 0.07472 0.0
O232 O 0.51526 0.98142 0.04345 0.0
C233 C 0.52818 0.97108 0.02945 0.0
O234 O 0.54652 0.04865 0.99463 0.0
O235 O 0.56543 0.05334 0.02964 0.0
O236 O 0.51115 0.06476 0.02463 0.0
O237 O 0.52012 0.98739 0.96451 0.0
O238 O 0.46987 0.97626 0.96374 0.0
O239 O 0.47893 0.02955 0.9959 0.0
C240 C 0.51389 0.03406 0.10392 0.0
C241 C 0.49199 1.00074 0.10322 0.0
C242 C 0.51311 0.0384 0.14242 0.0
C243 C 0.48074 0.98631 0.12202 0.0
C244 C 0.52429 0.05279 0.1236 0.0
C245 C 0.49125 0.00494 0.1419 0.0
C246 C 0.52608 0.04939 0.08424 0.0
C247 C 0.57028 0.06187 0.0101 0.0
H248 H 0.44812 0.98734 0.92938 0.0
H249 H 0.54847 0.01862 0.89306 0.0
H250 H 0.45274 0.00814 0.89455 0.0
H251 H 0.54407 0.99821 0.92802 0.0
H252 H 0.48369 0.98589 0.08812 0.0
H253 H 0.52211 0.05344 0.15743 0.0
H254 H 0.46362 0.96059 0.12095 0.0
H255 H 0.54126 0.07854 0.12445 0.0
Eu256 Eu 0.03916 0.50014 0.99026 0.0
Eu257 Eu 1.00021 0.48055 0.03469 0.0
C258 C 0.97459 0.43003 0.99217 0.0
C259 C 0.05878 0.51114 0.9329 0.0
C260 C 0.02549 0.4932 0.92572 0.0
C261 C 0.07202 0.52183 0.8966 0.0
C262 C 0.01548 0.48968 0.90406 0.0
C263 C 0.08201 0.52533 0.9183 0.0
C264 C 0.03863 0.50407 0.88929 0.0
C265 C 0.06919 0.51627 0.95568 0.0
O266 O 0.03774 0.46459 0.03765 0.0
O267 O 0.07274 0.49388 0.01318 0.0
C268 C 0.06554 0.47571 0.02902 0.0
O269 O 0.05714 0.54646 0.01069 0.0
O270 O 0.97467 0.44548 0.05731 0.0
O271 O 0.98223 0.4938 0.06238 0.0
O272 O 0.04617 0.52823 0.04384 0.0
C273 C 0.06136 0.55144 0.03152 0.0
O274 O 0.99192 0.49875 0.98213 0.0
O275 O 0.97708 0.50415 0.01563 0.0
O276 O 0.96722 0.4399 0.00975 0.0
O277 O 0.06132 0.53461 0.96683 0.0
O278 O 0.06361 0.49059 0.96495 0.0
O279 O 1.0025 0.44716 0.98405 0.0
C280 C 0.98512 0.46864 0.09272 0.0
C281 C 0.01795 0.47796 0.09796 0.0
C282 C 0.97592 0.46414 0.13019 0.0
C283 C 0.02971 0.48033 0.11919 0.0
C284 C 0.96417 0.46171 0.10892 0.0
C285 C 1.00885 0.4735 0.13558 0.0
C286 C 0.97282 0.46637 0.07043 0.0
C287 C 0.97461 0.50541 0.99482 0.0
H288 H 1.00728 0.48232 0.93691 0.0
H289 H 0.09038 0.53289 0.88555 0.0
H290 H 0.98958 0.47625 0.89894 0.0
H291 H 0.1078 0.53933 0.9237 0.0
H292 H 0.03452 0.48355 0.08563 0.0
H293 H 0.95916 0.45842 0.14239 0.0
H294 H 0.05529 0.48806 0.12279 0.0
H295 H 0.93874 0.45444 0.10512 0.0
Eu296 Eu 0.53051 0.50483 0.03424 0.0
Eu297 Eu 0.51514 0.52476 0.98676 0.0
C298 C 0.54204 0.57599 0.02788 0.0
C299 C 0.53479 0.50169 0.09381 0.0
C300 C 0.52085 0.52143 0.09556 0.0
C301 C 0.53601 0.49941 0.13221 0.0
C302 C 0.51445 0.53006 0.11549 0.0
C303 C 0.54237 0.49076 0.11222 0.0
C304 C 0.5219 0.51913 0.1341 0.0
C305 C 0.54039 0.49175 0.07271 0.0
O306 O 0.56877 0.54002 0.99062 0.0
O307 O 0.56813 0.50476 0.01398 0.0
C308 C 0.58202 0.52443 0.99929 0.0
O309 O 0.50015 0.45776 0.01376 0.0
O310 O 0.52891 0.56039 0.96355 0.0
O311 O 0.48689 0.51262 0.95574 0.0
O312 O 0.51064 0.47614 0.98057 0.0
C313 C 0.4996 0.4526 0.99304 0.0
O314 O 0.4863 0.50989 0.03674 0.0
O315 O 0.46678 0.50257 1.00148 0.0
O316 O 0.5223 0.56503 0.01026 0.0
O317 O 0.51406 0.47336 0.05994 0.0
O318 O 0.56314 0.51451 0.06299 0.0
O319 O 0.55313 0.55897 0.03707 0.0
C320 C 0.51873 0.53814 0.92787 0.0
C321 C 0.5406 0.52671 0.92574 0.0
C322 C 0.51913 0.54573 0.89011 0.0
C323 C 0.55159 0.5247 0.90587 0.0
C324 C 0.50818 0.54774 0.90998 0.0
C325 C 0.54087 0.53405 0.88777 0.0
C326 C 0.50686 0.5401 0.94865 0.0
C327 C 0.46253 0.50267 0.02195 0.0
H328 H 0.51464 0.52994 0.08147 0.0
H329 H 0.54246 0.49092 0.14621 0.0
H330 H 0.50318 0.54489 0.11628 0.0
H331 H 0.5531 0.47546 0.11114 0.0
H332 H 0.549 0.51916 0.93942 0.0
H333 H 0.51073 0.55356 0.8766 0.0
H334 H 0.568 0.51524 0.90463 0.0
H335 H 0.49143 0.55678 0.91137 0.0
Eu336 Eu 0.15351 0.31455 0.32006 0.0
Eu337 Eu 0.17264 0.35325 0.36848 0.0
C338 C 0.13961 0.37302 0.3308 0.0
C339 C 0.14606 0.29945 0.26027 0.0
C340 C 0.1635 0.33292 0.25892 0.0
C341 C 0.14018 0.29073 0.22163 0.0
C342 C 0.16949 0.34523 0.23906 0.0
C343 C 0.13437 0.27842 0.24154 0.0
C344 C 0.15796 0.32428 0.22018 0.0
C345 C 0.14072 0.28664 0.28122 0.0
O346 O 0.11909 0.31614 0.36485 0.0
O347 O 0.11985 0.27865 0.34136 0.0
C348 C 0.106 0.28633 0.35625 0.0
O349 O 0.19454 0.31067 0.33632 0.0
O350 O 0.15981 0.3725 0.39623 0.0
O351 O 0.20525 0.37207 0.39798 0.0
O352 O 0.1783 0.30939 0.36965 0.0
C353 C 0.19451 0.30312 0.3559 0.0
O354 O 0.19221 0.36512 0.31634 0.0
O355 O 0.21769 0.38042 0.35047 0.0
O356 O 0.16025 0.38372 0.34813 0.0
O357 O 0.16717 0.29445 0.2934 0.0
O358 O 0.1193 0.2897 0.29167 0.0
O359 O 0.12881 0.3442 0.32089 0.0
C360 C 0.17672 0.36093 0.42936 0.0
C361 C 0.19627 0.34988 0.4391 0.0
C362 C 0.14178 0.34269 0.45858 0.0
C363 C 0.18846 0.33512 0.45815 0.0
C364 C 0.1496 0.35748 0.4395 0.0
C365 C 0.16095 0.33103 0.46809 0.0
C366 C 0.18435 0.37573 0.40872 0.0
C367 C 0.21773 0.38392 0.32985 0.0
H368 H 0.17258 0.34953 0.27324 0.0
H369 H 0.13119 0.27399 0.20737 0.0
H370 H 0.18283 0.37117 0.23849 0.0
H371 H 0.12092 0.25252 0.24232 0.0
H372 H 0.21758 0.35244 0.43196 0.0
H373 H 0.12028 0.33978 0.46562 0.0
H374 H 0.20418 0.32704 0.46517 0.0
H375 H 0.13413 0.36591 0.43255 0.0
Eu376 Eu 0.69716 0.83148 0.323 0.0
Eu377 Eu 0.66564 0.81336 0.36967 0.0
C378 C 0.6423 0.75941 0.33009 0.0
C379 C 0.70628 0.83648 0.26292 0.0
C380 C 0.69643 0.80559 0.25312 0.0
C381 C 0.69176 0.85088 0.22933 0.0
C382 C 0.68427 0.79743 0.23163 0.0
C383 C 0.70411 0.8591 0.25076 0.0
C384 C 0.68159 0.81991 0.21951 0.0
C385 C 0.71902 0.8457 0.28564 0.0
O386 O 0.7079 0.80395 0.37108 0.0
O387 O 0.73749 0.83325 0.34445 0.0
C388 C 0.73466 0.81722 0.36116 0.0
O389 O 0.7148 0.87883 0.34259 0.0
O390 O 0.64908 0.78104 0.39508 0.0
O391 O 0.64364 0.82328 0.3963 0.0
O392 O 0.70892 0.86307 0.37663 0.0
C393 C 0.72067 0.88547 0.36338 0.0
O394 O 0.64547 0.82162 0.31784 0.0
O395 O 0.63964 0.83511 0.35201 0.0
O396 O 0.63298 0.77099 0.34582 0.0
O397 O 0.70845 0.86183 0.29667 0.0
O398 O 0.7211 0.82423 0.29642 0.0
O399 O 0.67004 0.77721 0.322 0.0
C400 C 0.65357 0.80701 0.42954 0.0
C401 C 0.65721 0.83478 0.44096 0.0
C402 C 0.66984 0.79214 0.46244 0.0
C403 C 0.667 0.84114 0.46282 0.0
C404 C 0.65998 0.78574 0.44053 0.0
C405 C 0.67323 0.81981 0.47386 0.0
C406 C 0.64168 0.79957 0.40654 0.0
C407 C 0.6308 0.8305 0.33143 0.0
H408 H 0.69802 0.78766 0.262 0.0
H409 H 0.68964 0.86866 0.22057 0.0
H410 H 0.67713 0.77353 0.22449 0.0
H411 H 0.7117 0.88314 0.2579 0.0
H412 H 0.65226 0.85159 0.43308 0.0
H413 H 0.67407 0.77503 0.47051 0.0
H414 H 0.66976 0.86287 0.47108 0.0
H415 H 0.65701 0.76392 0.43227 0.0
Eu416 Eu 0.20864 0.86032 0.36029 0.0
Eu417 Eu 0.17471 0.85699 0.31268 0.0
C418 C 0.21111 0.92167 0.34277 0.0
C419 C 0.22268 0.86389 0.42064 0.0
C420 C 0.19784 0.87089 0.42433 0.0
C421 C 0.22963 0.85943 0.45848 0.0
C422 C 0.18933 0.87269 0.44502 0.0
C423 C 0.23818 0.85774 0.43778 0.0
C424 C 0.20546 0.86744 0.46242 0.0
C425 C 0.23356 0.86447 0.3992 0.0
O426 O 0.22808 0.87604 0.309 0.0
O427 O 0.24275 0.85713 0.33783 0.0
C428 C 0.24804 0.86849 0.31902 0.0
O429 O 0.17118 0.80836 0.34995 0.0
O430 O 0.17256 0.88274 0.28584 0.0
O431 O 0.14074 0.83085 0.28445 0.0
O432 O 0.1771 0.81149 0.31442 0.0
C433 C 0.16839 0.79452 0.33087 0.0
O434 O 0.16232 0.86092 0.36606 0.0
O435 O 0.13288 0.83838 0.3334 0.0
O436 O 0.18347 0.90218 0.33139 0.0
O437 O 0.21824 0.83757 0.38678 0.0
O438 O 0.23853 0.8893 0.38915 0.0
O439 O 0.22958 0.91068 0.35031 0.0
C440 C 0.16446 0.85322 0.2533 0.0
C441 C 0.1857 0.84091 0.25208 0.0
C442 C 0.17149 0.86573 0.21657 0.0
C443 C 0.19989 0.84114 0.23326 0.0
C444 C 0.15731 0.8655 0.23545 0.0
C445 C 0.19318 0.85381 0.21534 0.0
C446 C 0.15266 0.85631 0.27379 0.0
C447 C 0.1345 0.84689 0.35383 0.0
H448 H 0.18561 0.87575 0.41127 0.0
H449 H 0.24213 0.85467 0.47143 0.0
H450 H 0.17087 0.87923 0.44744 0.0
H451 H 0.2573 0.85217 0.4352 0.0
H452 H 0.19177 0.83165 0.26583 0.0
H453 H 0.1661 0.87594 0.2031 0.0
H454 H 0.2161 0.83135 0.23274 0.0
H455 H 0.14136 0.87557 0.23628 0.0
Eu456 Eu 0.82578 0.6574 0.6544 0.0
Eu457 Eu 0.83955 0.68548 0.70569 0.0
C458 C 0.82376 0.72121 0.66885 0.0
C459 C 0.82936 0.65746 0.59488 0.0
C460 C 0.84759 0.69131 0.59723 0.0
C461 C 0.83146 0.65819 0.55654 0.0
C462 C 0.85716 0.70853 0.57931 0.0
C463 C 0.8217 0.64097 0.5745 0.0
C464 C 0.84881 0.69218 0.55874 0.0
C465 C 0.81706 0.63959 0.61359 0.0
O466 O 0.79095 0.64007 0.703 0.0
O467 O 0.77588 0.63459 0.66699 0.0
C468 C 0.76889 0.62749 0.68659 0.0
O469 O 0.8245 0.61795 0.67213 0.0
O470 O 0.82479 0.7026 0.7333 0.0
O471 O 0.86876 0.69947 0.73655 0.0
O472 O 0.85644 0.64873 0.70238 0.0
C473 C 0.84307 0.62192 0.68946 0.0
O474 O 0.8807 0.68937 0.66149 0.0
O475 O 0.88333 0.72188 0.69058 0.0
O476 O 0.81832 0.71223 0.68826 0.0
O477 O 0.83873 0.63843 0.62664 0.0
O478 O 0.79738 0.64606 0.62366 0.0
O479 O 0.83339 0.70715 0.65506 0.0
C480 C 0.83746 0.68875 0.7667 0.0
C481 C 0.85456 0.67585 0.77736 0.0
C482 C 0.8013 0.67454 0.79518 0.0
C483 C 0.84513 0.66247 0.79673 0.0
C484 C 0.81075 0.68795 0.77588 0.0
C485 C 0.81847 0.66181 0.80596 0.0
C486 C 0.84771 0.70397 0.74649 0.0
C487 C 0.89666 0.71613 0.67444 0.0
H488 H 0.85386 0.70443 0.61289 0.0
H489 H 0.82447 0.64496 0.54089 0.0
H490 H 0.87084 0.73467 0.58153 0.0
H491 H 0.8076 0.61483 0.57244 0.0
H492 H 0.87546 0.67634 0.77088 0.0
H493 H 0.7804 0.67408 0.80163 0.0
H494 H 0.85921 0.65331 0.80472 0.0
H495 H 0.79716 0.69785 0.76818 0.0
Eu496 Eu 0.36028 0.16824 0.6523 0.0
Eu497 Eu 0.32172 0.14879 0.69547 0.0
C498 C 0.29968 0.09659 0.6556 0.0
C499 C 0.37836 0.17181 0.59454 0.0
C500 C 0.34562 0.14893 0.58808 0.0
C501 C 0.38973 0.17712 0.55754 0.0
C502 C 0.33493 0.14029 0.56643 0.0
C503 C 0.4004 0.18573 0.57923 0.0
C504 C 0.35683 0.15445 0.55092 0.0
C505 C 0.38921 0.18205 0.6172 0.0
O506 O 0.36025 0.13366 0.69785 0.0
O507 O 0.39668 0.17034 0.67736 0.0
C508 C 0.39 0.15009 0.69193 0.0
O509 O 0.37648 0.21561 0.67178 0.0
O510 O 0.29681 0.11303 0.71784 0.0
O511 O 0.30292 0.16079 0.7232 0.0
O512 O 0.36706 0.19675 0.7047 0.0
C513 C 0.3812 0.2206 0.69268 0.0
O514 O 0.31101 0.16192 0.64314 0.0
O515 O 0.29793 0.17168 0.67609 0.0
O516 O 0.28929 0.10871 0.67028 0.0
O517 O 0.37773 0.19888 0.62629 0.0
O518 O 0.38808 0.15994 0.62887 0.0
O519 O 0.32935 0.11352 0.64966 0.0
C520 C 0.30705 0.13556 0.75381 0.0
C521 C 0.32022 0.1645 0.76716 0.0
C522 C 0.31824 0.11039 0.78314 0.0
C523 C 0.33251 0.16643 0.78818 0.0
C524 C 0.30586 0.10843 0.76213 0.0
C525 C 0.3319 0.13947 0.79639 0.0
C526 C 0.29492 0.13359 0.73128 0.0
C527 C 0.29395 0.16994 0.65511 0.0
H528 H 0.32827 0.13813 0.59979 0.0
H529 H 0.40722 0.18815 0.54596 0.0
H530 H 0.30936 0.12309 0.56183 0.0
H531 H 0.42576 0.20346 0.58404 0.0
H532 H 0.32119 0.18577 0.76138 0.0
H533 H 0.31757 0.08923 0.78889 0.0
H534 H 0.34225 0.18902 0.79806 0.0
H535 H 0.29565 0.08571 0.75231 0.0
Eu536 Eu 0.85553 0.18633 0.68833 0.0
Eu537 Eu 0.82533 0.1931 0.64168 0.0
C538 C 0.85927 0.25207 0.67703 0.0
C539 C 0.86557 0.18478 0.74814 0.0
C540 C 0.84642 0.19913 0.75132 0.0
C541 C 0.8636 0.1738 0.78532 0.0
C542 C 0.83602 0.20093 0.7714 0.0
C543 C 0.87405 0.1721 0.76522 0.0
C544 C 0.84445 0.18824 0.78867 0.0
C545 C 0.87537 0.1816 0.72684 0.0
O546 O 0.87908 0.21166 0.63911 0.0
O547 O 0.89212 0.18848 0.66613 0.0
C548 C 0.89863 0.20297 0.64845 0.0
O549 O 0.82462 0.13566 0.67232 0.0
O550 O 0.82799 0.22428 0.61708 0.0
O551 O 0.79148 0.17342 0.61281 0.0
O552 O 0.82609 0.14681 0.63743 0.0
C553 C 0.82024 0.12644 0.65186 0.0
O554 O 0.80944 0.18707 0.69429 0.0
O555 O 0.78182 0.16933 0.66089 0.0
O556 O 0.83301 0.23503 0.66381 0.0
O557 O 0.8535 0.15705 0.71414 0.0
O558 O 0.88948 0.20785 0.71713 0.0
O559 O 0.8763 0.23932 0.68433 0.0
C560 C 0.81886 0.19753 0.58325 0.0
C561 C 0.84055 0.18573 0.58229 0.0
C562 C 0.82418 0.20748 0.54599 0.0
C563 C 0.85413 0.18496 0.56338 0.0
C564 C 0.81071 0.20841 0.56503 0.0
C565 C 0.84611 0.1958 0.54498 0.0
C566 C 0.80675 0.20021 0.6037 0.0
C567 C 0.78218 0.17444 0.68164 0.0
H568 H 0.83944 0.20888 0.73826 0.0
H569 H 0.87013 0.16335 0.79814 0.0
H570 H 0.82168 0.21257 0.77343 0.0
H571 H 0.88849 0.16059 0.76296 0.0
H572 H 0.84731 0.17749 0.59631 0.0
H573 H 0.81722 0.21565 0.53203 0.0
H574 H 0.87131 0.17632 0.56329 0.0
H575 H 0.79417 0.2178 0.56558 0.0
H576 H 0.3062 0.85293 0.03612 0.0
H577 H 0.34087 0.88482 0.10267 0.0
H578 H 0.39351 0.92584 0.09277 0.0
H579 H 0.42947 0.95359 0.06541 0.0
H580 H 0.39759 0.91914 0.99909 0.0
H581 H 0.34425 0.87762 0.00876 0.0
C582 C 0.32535 0.86842 0.04852 0.0
C583 C 0.31907 0.86601 0.07014 0.0
C584 C 0.3561 0.89153 0.04277 0.0
C585 C 0.3444 0.88663 0.08588 0.0
C586 C 0.37473 0.91 0.08027 0.0
C587 C 0.41082 0.93697 0.05308 0.0
C588 C 0.41715 0.93959 0.03158 0.0
C589 C 0.38069 0.9129 0.05878 0.0
C590 C 0.39312 0.91756 0.01576 0.0
C591 C 0.36267 0.89392 0.02128 0.0
H592 H 0.1762 0.44164 0.04787 0.0
H593 H 0.16261 0.46279 0.1127 0.0
H594 H 0.11892 0.47209 0.09994 0.0
H595 H 0.08443 0.4747 0.0703 0.0
H596 H 0.10201 0.4593 0.00558 0.0
H597 H 0.14432 0.44763 0.01832 0.0
C598 C 0.16411 0.44876 0.05924 0.0
C599 C 0.17255 0.45091 0.08125 0.0
C600 C 0.13948 0.455 0.0518 0.0
C601 C 0.15618 0.45996 0.09567 0.0
C602 C 0.13124 0.46555 0.0884 0.0
C603 C 0.09742 0.46853 0.05907 0.0
C604 C 0.09 0.46749 0.03709 0.0
C605 C 0.1225 0.46292 0.06651 0.0
C606 C 0.10735 0.46014 0.02261 0.0
C607 C 0.13155 0.45352 0.02987 0.0
H608 H 0.57753 0.70284 0.08479 0.0
H609 H 0.58302 0.73852 0.02278 0.0
H610 H 0.56621 0.68512 0.00573 0.0
H611 H 0.55171 0.62855 0.00833 0.0
H612 H 0.55291 0.59512 0.07028 0.0
H613 H 0.56658 0.64783 0.08745 0.0
C614 C 0.57576 0.69936 0.06755 0.0
C615 C 0.58167 0.72507 0.05522 0.0
C616 C 0.56755 0.66897 0.0578 0.0
C617 C 0.57808 0.71931 0.03283 0.0
C618 C 0.56879 0.68877 0.023 0.0
C619 C 0.55499 0.63291 0.02558 0.0
C620 C 0.55129 0.60812 0.03806 0.0
C621 C 0.56365 0.66349 0.03532 0.0
C622 C 0.55589 0.614 0.06038 0.0
C623 C 0.56354 0.64404 0.07019 0.0
H624 H 0.87692 0.3115 0.92758 0.0
H625 H 0.84285 0.26872 0.98619 0.0
H626 H 0.88247 0.31944 0.00668 0.0
H627 H 0.92815 0.37578 0.00803 0.0
H628 H 0.96547 0.41558 0.94932 0.0
H629 H 0.92392 0.36574 0.92888 0.0
C630 C 0.87842 0.31278 0.94484 0.0
C631 C 0.85675 0.28593 0.95518 0.0
C632 C 0.90212 0.34154 0.95657 0.0
C633 C 0.8587 0.28893 0.97763 0.0
C634 C 0.88162 0.3179 0.98943 0.0
C635 C 0.92712 0.37343 0.99076 0.0
C636 C 0.94981 0.39927 0.98019 0.0
C637 C 0.90358 0.34434 0.97907 0.0
C638 C 0.94844 0.39591 0.95783 0.0
C639 C 0.9246 0.36749 0.94612 0.0
H640 H 0.7048 0.5185 0.97053 0.0
H641 H 0.71996 0.60331 0.94082 0.0
H642 H 0.6712 0.59874 0.95487 0.0
H643 H 0.62362 0.57037 0.97513 0.0
H644 H 0.60981 0.48726 0.00644 0.0
H645 H 0.65896 0.492 0.99263 0.0
C646 C 0.69781 0.53631 0.96736 0.0
C647 C 0.71606 0.56098 0.95433 0.0
C648 C 0.66991 0.53393 0.97584 0.0
C649 C 0.70613 0.58356 0.95031 0.0
C650 C 0.6783 0.58114 0.95849 0.0
C651 C 0.63138 0.55333 0.97902 0.0
C652 C 0.61288 0.52843 0.99178 0.0
C653 C 0.65984 0.5563 0.97114 0.0
C654 C 0.62354 0.50673 0.99672 0.0
C655 C 0.65165 0.50936 0.98877 0.0
H656 H 0.47946 0.1756 0.97909 0.0
H657 H 0.39661 0.09895 0.93968 0.0
H658 H 0.40701 0.05911 0.95511 0.0
H659 H 0.4405 0.04604 0.97888 0.0
H660 H 0.52188 0.12217 0.01948 0.0
H661 H 0.5105 0.16209 0.00489 0.0
C662 C 0.46327 0.15017 0.97411 0.0
C663 C 0.43747 0.14047 0.95801 0.0
C664 C 0.46904 0.12723 0.9833 0.0
C665 C 0.4171 0.10731 0.95165 0.0
C666 C 0.42287 0.08442 0.96059 0.0
C667 C 0.45568 0.07135 0.98465 0.0
C668 C 0.48215 0.08111 1.00015 0.0
C669 C 0.44897 0.09414 0.97623 0.0
C670 C 0.50132 0.11396 0.00759 0.0
C671 C 0.49491 0.13684 0.99918 0.0
H672 H 0.71772 0.16818 1.00346 0.0
H673 H 0.68407 0.14662 0.93646 0.0
H674 H 0.62908 0.10791 0.94483 0.0
H675 H 0.59078 0.07947 0.97103 0.0
H676 H 0.62435 0.09989 0.03811 0.0
H677 H 0.67905 0.13971 0.02985 0.0
C678 C 0.69827 0.15502 0.99073 0.0
C679 C 0.70498 0.1602 0.96941 0.0
C680 C 0.6667 0.13257 0.99565 0.0
C681 C 0.67964 0.14302 0.95302 0.0
C682 C 0.64814 0.12087 0.95779 0.0
C683 C 0.60997 0.09269 0.9839 0.0
C684 C 0.60335 0.08664 0.00519 0.0
C685 C 0.64143 0.11535 0.97903 0.0
C686 C 0.62868 0.10396 0.02159 0.0
C687 C 0.66001 0.12677 0.01688 0.0
H688 H 0.89977 0.55893 0.94016 0.0
H689 H 0.83753 0.52939 0.9914 0.0
H690 H 0.8719 0.51097 0.00917 0.0
H691 H 0.92043 0.5037 0.01003 0.0
H692 H 0.98003 0.53128 0.95716 0.0
H693 H 0.94599 0.54987 0.94021 0.0
C694 C 0.89372 0.54841 0.95522 0.0
C695 C 0.86633 0.54564 0.9645 0.0
C696 C 0.91319 0.5375 0.96507 0.0
C697 C 0.85852 0.53174 0.98392 0.0
C698 C 0.87822 0.52128 0.99409 0.0
C699 C 0.92591 0.51381 0.99483 0.0
C700 C 0.95286 0.5161 0.98495 0.0
C701 C 0.90574 0.52412 0.98483 0.0
C702 C 0.95943 0.52901 0.96513 0.0
C703 C 0.94001 0.53978 0.95539 0.0
H704 H 0.43279 0.31811 0.938 0.0
H705 H 0.46 0.28942 0.99562 0.0
H706 H 0.48328 0.34441 0.01285 0.0
H707 H 0.49596 0.40084 0.0113 0.0
H708 H 0.4718 0.42962 0.95253 0.0
H709 H 0.44739 0.37449 0.93593 0.0
C710 C 0.4438 0.32397 0.95435 0.0
C711 C 0.4446 0.29993 0.96559 0.0
C712 C 0.45773 0.35565 0.96389 0.0
C713 C 0.45918 0.30767 0.98666 0.0
C714 C 0.47243 0.33905 0.99651 0.0
C715 C 0.48529 0.39495 0.99488 0.0
C716 C 0.48555 0.4192 0.98318 0.0
C717 C 0.47185 0.36326 0.98526 0.0
C718 C 0.47202 0.4114 0.96184 0.0
C719 C 0.45797 0.37987 0.95234 0.0
H720 H 0.13112 0.69221 0.0775 0.0
H721 H 0.19598 0.70861 0.02842 0.0
H722 H 0.16441 0.65121 0.01529 0.0
H723 H 0.11665 0.59707 0.01687 0.0
H724 H 0.05426 0.58013 0.06762 0.0
H725 H 0.08683 0.63712 0.0813 0.0
C726 C 0.13836 0.68306 0.064 0.0
C727 C 0.16544 0.70435 0.05373 0.0
C728 C 0.12061 0.6501 0.05694 0.0
C729 C 0.17511 0.69248 0.03649 0.0
C730 C 0.15705 0.65977 0.02899 0.0
C731 C 0.11041 0.6059 0.03102 0.0
C732 C 0.083 0.58472 0.04114 0.0
C733 C 0.12952 0.63847 0.03894 0.0
C734 C 0.07532 0.59611 0.05963 0.0
C735 C 0.0938 0.62865 0.06736 0.0
H736 H 0.31809 0.4649 0.04124 0.0
H737 H 0.34918 0.43868 0.09857 0.0
H738 H 0.40338 0.45827 0.0866 0.0
H739 H 0.44117 0.48068 0.0596 0.0
H740 H 0.41043 0.50311 1.00046 0.0
H741 H 0.35682 0.48698 0.0132 0.0
C742 C 0.33693 0.46385 0.0511 0.0
C743 C 0.32989 0.45069 0.07086 0.0
C744 C 0.36792 0.47417 0.04371 0.0
C745 C 0.35418 0.44881 0.08336 0.0
C746 C 0.38512 0.45996 0.07651 0.0
C747 C 0.4229 0.48232 0.04947 0.0
C748 C 0.42993 0.49334 0.02914 0.0
C749 C 0.39215 0.47236 0.05667 0.0
C750 C 0.40566 0.49471 0.01617 0.0
C751 C 0.37504 0.48555 0.02348 0.0
H752 H 0.55252 0.8625 0.06263 0.0
H753 H 0.64011 0.91433 0.03106 0.0
H754 H 0.62215 0.95137 0.01945 0.0
H755 H 0.58176 0.9694 0.01879 0.0
H756 H 0.49719 0.92121 0.05372 0.0
H757 H 0.51356 0.88228 0.06358 0.0
C758 C 0.56748 0.88181 0.05309 0.0
C759 C 0.59731 0.88559 0.04738 0.0
C760 C 0.55755 0.90363 0.04718 0.0
C761 C 0.61696 0.91103 0.03548 0.0
C762 C 0.6067 0.93214 0.02886 0.0
C763 C 0.56692 0.95025 0.02848 0.0
C764 C 0.53824 0.94785 0.0354 0.0
C765 C 0.57708 0.92871 0.03466 0.0
C766 C 0.51941 0.92341 0.04826 0.0
C767 C 0.52872 0.90117 0.05385 0.0
H768 H 0.98004 0.16525 0.38293 0.0
H769 H 0.96951 0.24092 0.41504 0.0
H770 H 0.01969 0.28164 0.40182 0.0
H771 H 0.06638 0.29583 0.38126 0.0
H772 H 0.07623 0.22063 0.34786 0.0
H773 H 0.02596 0.17961 0.36113 0.0
C774 C 0.98845 0.19064 0.38681 0.0
C775 C 0.97103 0.19994 0.40008 0.0
C776 C 0.0171 0.21401 0.37888 0.0
C777 C 0.98267 0.233 0.4052 0.0
C778 C 0.01126 0.25634 0.39752 0.0
C779 C 0.05759 0.27048 0.37684 0.0
C780 C 0.07511 0.26132 0.36363 0.0
C781 C 0.02869 0.24711 0.38442 0.0
C782 C 0.06318 0.22835 0.35797 0.0
C783 C 0.03448 0.20488 0.36559 0.0
H784 H 0.85571 0.79783 0.37999 0.0
H785 H 0.83326 0.80632 0.44467 0.0
H786 H 0.78781 0.81269 0.43172 0.0
H787 H 0.75351 0.81508 0.4021 0.0
H788 H 0.77874 0.81214 0.33774 0.0
H789 H 0.82421 0.80499 0.35052 0.0
C790 C 0.84126 0.80156 0.39132 0.0
C791 C 0.8477 0.80076 0.4133 0.0
C792 C 0.81549 0.8062 0.38382 0.0
C793 C 0.82841 0.80562 0.42762 0.0
C794 C 0.80246 0.80958 0.42026 0.0
C795 C 0.76898 0.81284 0.3909 0.0
C796 C 0.76263 0.8138 0.36903 0.0
C797 C 0.79553 0.80954 0.3984 0.0
C798 C 0.78317 0.81145 0.35469 0.0
C799 C 0.80913 0.80731 0.36198 0.0
H800 H 0.22383 0.05511 0.37213 0.0
H801 H 0.32212 0.07778 0.39199 0.0
H802 H 0.30979 0.02463 0.37677 0.0
H803 H 0.27017 0.97065 0.35983 0.0
H804 H 0.17234 0.94851 0.33908 0.0
H805 H 0.18574 0.00292 0.35219 0.0
C806 C 0.24279 0.04874 0.37274 0.0
C807 C 0.27373 0.07028 0.38342 0.0
C808 C 0.23562 0.01823 0.36385 0.0
C809 C 0.29788 0.0614 0.38425 0.0
C810 C 0.29091 0.03108 0.37547 0.0
C811 C 0.25185 0.97781 0.35803 0.0
C812 C 0.22024 0.9555 0.3487 0.0
C813 C 0.25968 0.00909 0.36561 0.0
C814 C 0.19687 0.96523 0.34624 0.0
C815 C 0.20447 0.9963 0.3538 0.0
H816 H 0.56565 0.61873 0.28258 0.0
H817 H 0.48508 0.6218 0.3091 0.0
H818 H 0.52235 0.67557 0.32648 0.0
H819 H 0.5774 0.72239 0.33346 0.0
H820 H 0.65762 0.72145 0.30502 0.0
H821 H 0.62075 0.66646 0.28875 0.0
C822 C 0.55613 0.63123 0.29197 0.0
C823 C 0.52252 0.61591 0.29461 0.0
C824 C 0.57762 0.66264 0.30153 0.0
C825 C 0.51086 0.63251 0.30713 0.0
C826 C 0.53213 0.66346 0.31695 0.0
C827 C 0.58689 0.7101 0.32382 0.0
C828 C 0.62023 0.72592 0.32056 0.0
C829 C 0.56552 0.67877 0.31424 0.0
C830 C 0.63204 0.70981 0.30777 0.0
C831 C 0.61098 0.67835 0.29848 0.0
H832 H 0.35412 0.87945 0.25854 0.0
H833 H 0.40886 0.89332 0.31906 0.0
H834 H 0.36251 0.88657 0.33772 0.0
H835 H 0.30616 0.87713 0.33701 0.0
H836 H 0.25397 0.86815 0.27645 0.0
H837 H 0.29972 0.87329 0.25785 0.0
C838 C 0.35636 0.88164 0.27582 0.0
C839 C 0.38524 0.88678 0.28721 0.0
C840 C 0.32989 0.87863 0.28656 0.0
C841 C 0.38691 0.88873 0.30967 0.0
C842 C 0.36041 0.88512 0.32045 0.0
C843 C 0.30484 0.87627 0.31975 0.0
C844 C 0.27655 0.87212 0.30818 0.0
C845 C 0.3317 0.87996 0.30907 0.0
C846 C 0.2754 0.8714 0.28581 0.0
C847 C 0.30159 0.87429 0.27511 0.0
H848 H 0.10744 0.45659 0.27139 0.0
H849 H 0.11153 0.50508 0.33221 0.0
H850 H 0.12462 0.46899 0.35055 0.0
H851 H 0.1348 0.42315 0.34942 0.0
H852 H 0.12549 0.37217 0.28856 0.0
H853 H 0.11365 0.40911 0.27032 0.0
C854 C 0.11053 0.45904 0.28867 0.0
C855 C 0.10865 0.48388 0.30025 0.0
C856 C 0.11698 0.43753 0.29922 0.0
C857 C 0.11353 0.48679 0.3227 0.0
C858 C 0.12075 0.46592 0.33329 0.0
C859 C 0.13002 0.42014 0.33219 0.0
C860 C 0.1309 0.39492 0.3204 0.0
C861 C 0.12262 0.44121 0.32172 0.0
C862 C 0.12456 0.39116 0.29807 0.0
C863 C 0.11796 0.41238 0.28757 0.0
H864 H 0.32668 0.46888 0.27173 0.0
H865 H 0.38957 0.47459 0.3258 0.0
H866 H 0.34196 0.444 0.34554 0.0
H867 H 0.28177 0.41299 0.34653 0.0
H868 H 0.21997 0.40886 0.2921 0.0
H869 H 0.26766 0.44178 0.27365 0.0
C870 C 0.32991 0.46347 0.28787 0.0
C871 C 0.36142 0.47369 0.29724 0.0
C872 C 0.30256 0.44626 0.29913 0.0
C873 C 0.36545 0.46689 0.31823 0.0
C874 C 0.33824 0.44942 0.32952 0.0
C875 C 0.27884 0.41983 0.33082 0.0
C876 C 0.2473 0.40821 0.32069 0.0
C877 C 0.30658 0.43871 0.32006 0.0
C878 C 0.24392 0.41715 0.30023 0.0
C879 C 0.2712 0.43596 0.28958 0.0
H880 H 0.51731 0.86132 0.31066 0.0
H881 H 0.52628 0.8311 0.24695 0.0
H882 H 0.56913 0.82085 0.26058 0.0
H883 H 0.60464 0.82122 0.29036 0.0
H884 H 0.59615 0.85136 0.35429 0.0
H885 H 0.55261 0.86078 0.34082 0.0
C886 C 0.52858 0.85239 0.2998 0.0
C887 C 0.51865 0.84696 0.2778 0.0
C888 C 0.55335 0.84657 0.30777 0.0
C889 C 0.53352 0.83543 0.26394 0.0
C890 C 0.55804 0.82959 0.27172 0.0
C891 C 0.59329 0.82981 0.30141 0.0
C892 C 0.60382 0.8356 0.32333 0.0
C893 C 0.56826 0.8352 0.29358 0.0
C894 C 0.58864 0.84667 0.33733 0.0
C895 C 0.56369 0.8521 0.32964 0.0
H896 H 0.08663 0.64252 0.32398 0.0
H897 H 0.16072 0.65378 0.28307 0.0
H898 H 0.18658 0.71265 0.28899 0.0
H899 H 0.18738 0.76093 0.30543 0.0
H900 H 0.11661 0.74954 0.34927 0.0
H901 H 0.09014 0.69071 0.34275 0.0
C902 C 0.10852 0.658 0.31648 0.0
C903 C 0.12177 0.64415 0.30308 0.0
C904 C 0.12374 0.69168 0.32049 0.0
C905 C 0.15028 0.66413 0.29354 0.0
C906 C 0.16496 0.6977 0.29686 0.0
C907 C 0.1662 0.74544 0.31355 0.0
C908 C 0.15368 0.75926 0.32764 0.0
C909 C 0.15181 0.71174 0.31023 0.0
C910 C 0.12659 0.73922 0.33837 0.0
C911 C 0.11144 0.70568 0.33461 0.0
H912 H 0.78696 0.02472 0.41173 0.0
H913 H 0.84288 0.04813 0.35724 0.0
H914 H 0.81192 0.99144 0.34251 0.0
H915 H 0.76867 0.93526 0.34526 0.0
H916 H 0.71595 0.91169 0.4013 0.0
H917 H 0.74611 0.9684 0.41546 0.0
C918 C 0.79224 0.0173 0.39661 0.0
C919 C 0.8168 0.0403 0.38545 0.0
C920 C 0.77504 0.98472 0.38862 0.0
C921 C 0.82397 0.03065 0.36605 0.0
C922 C 0.80629 0.99833 0.35765 0.0
C923 C 0.76386 0.94263 0.36057 0.0
C924 C 0.74006 0.91949 0.37219 0.0
C925 C 0.78175 0.97516 0.3688 0.0
C926 C 0.73428 0.92912 0.39213 0.0
C927 C 0.75139 0.96152 0.40018 0.0
H928 H 0.99496 0.81384 0.38052 0.0
H929 H 0.04881 0.84528 0.44273 0.0
H930 H 0.0988 0.8562 0.42695 0.0
H931 H 0.12709 0.85625 0.39567 0.0
H932 H 0.07343 0.82386 0.33333 0.0
H933 H 0.02362 0.81389 0.34896 0.0
C934 C 0.01767 0.82323 0.39058 0.0
C935 C 0.01826 0.82889 0.41277 0.0
C936 C 0.04637 0.8292 0.38139 0.0
C937 C 0.04782 0.84082 0.4256 0.0
C938 C 0.0764 0.84704 0.4166 0.0
C939 C 0.10458 0.84708 0.38544 0.0
C940 C 0.10418 0.84087 0.36332 0.0
C941 C 0.07595 0.84123 0.39453 0.0
C942 C 0.07458 0.82884 0.35041 0.0
C943 C 0.04602 0.82314 0.35933 0.0
H944 H 0.2949 0.25647 0.37598 0.0
H945 H 0.20935 0.17662 0.39704 0.0
H946 H 0.1776 0.20298 0.38918 0.0
H947 H 0.17406 0.2485 0.37551 0.0
H948 H 0.25793 0.325 0.3505 0.0
H949 H 0.29067 0.30049 0.36069 0.0
C950 C 0.26931 0.24499 0.37883 0.0
C951 C 0.25435 0.21486 0.38705 0.0
C952 C 0.25103 0.25973 0.37357 0.0
C953 C 0.22118 0.19982 0.39056 0.0
C954 C 0.2031 0.2149 0.38614 0.0
C955 C 0.19956 0.25973 0.37246 0.0
C956 C 0.21388 0.28848 0.36253 0.0
C957 C 0.21774 0.2448 0.37755 0.0
C958 C 0.24666 0.30279 0.3582 0.0
C959 C 0.26529 0.28883 0.36401 0.0
H960 H 0.6395 0.50728 0.70834 0.0
H961 H 0.63232 0.58231 0.74464 0.0
H962 H 0.68245 0.623 0.7318 0.0
H963 H 0.72999 0.63762 0.71146 0.0
H964 H 0.73403 0.56396 0.67188 0.0
H965 H 0.68266 0.52252 0.6841 0.0
C966 C 0.64817 0.53246 0.71316 0.0
C967 C 0.63198 0.54115 0.72803 0.0
C968 C 0.67645 0.55618 0.70491 0.0
C969 C 0.64452 0.57428 0.73401 0.0
C970 C 0.67313 0.59784 0.72641 0.0
C971 C 0.71915 0.61253 0.70522 0.0
C972 C 0.73542 0.60367 0.69077 0.0
C973 C 0.68952 0.58906 0.7121 0.0
C974 C 0.72152 0.57122 0.6828 0.0
C975 C 0.69237 0.54758 0.68995 0.0
H976 H 0.52089 0.15701 0.72705 0.0
H977 H 0.45256 0.06636 0.74977 0.0
H978 H 0.4069 0.07125 0.73462 0.0
H979 H 0.38614 0.10149 0.71485 0.0
H980 H 0.4551 0.19107 0.69113 0.0
H981 H 0.5004 0.18612 0.70649 0.0
C982 C 0.49604 0.13805 0.72843 0.0
C983 C 0.49035 0.11143 0.73964 0.0
C984 C 0.46982 0.14084 0.71952 0.0
C985 C 0.45782 0.0874 0.74153 0.0
C986 C 0.43161 0.09009 0.73278 0.0
C987 C 0.41107 0.11994 0.71311 0.0
C988 C 0.41707 0.14659 0.70183 0.0
C989 C 0.43728 0.11681 0.72183 0.0
C990 C 0.44962 0.17018 0.69962 0.0
C991 C 0.47566 0.16742 0.70843 0.0
H992 H 0.87801 0.38705 0.71077 0.0
H993 H 0.97522 0.405 0.72835 0.0
H994 H 0.96074 0.35216 0.71121 0.0
H995 H 0.91922 0.29911 0.69411 0.0
H996 H 0.82203 0.28084 0.67595 0.0
H997 H 0.83776 0.33555 0.69026 0.0
C998 C 0.89618 0.37963 0.71038 0.0
C999 C 0.92749 0.39966 0.72101 0.0
C1000 C 0.88758 0.34901 0.70066 0.0
C1001 C 0.95079 0.38974 0.72051 0.0
C1002 C 0.94254 0.35953 0.71077 0.0
C1003 C 0.90152 0.30715 0.69319 0.0
C1004 C 0.86942 0.28585 0.68426 0.0
C1005 C 0.91075 0.33862 0.70134 0.0
C1006 C 0.8469 0.29677 0.68284 0.0
C1007 C 0.85586 0.32804 0.69104 0.0
H1008 H 0.22258 0.95683 0.60643 0.0
H1009 H 0.14206 0.95763 0.63467 0.0
H1010 H 0.17945 0.01113 0.65276 0.0
H1011 H 0.23452 0.05875 0.65933 0.0
H1012 H 0.31433 0.0593 0.62921 0.0
H1013 H 0.27743 0.00457 0.61263 0.0
C1014 C 0.21301 0.96874 0.61635 0.0
C1015 C 0.17931 0.95298 0.61902 0.0
C1016 C 0.23451 0.99996 0.62623 0.0
C1017 C 0.16779 0.96873 0.63246 0.0
C1018 C 0.18916 0.99955 0.64267 0.0
C1019 C 0.24395 0.04692 0.64919 0.0
C1020 C 0.27727 0.06324 0.64557 0.0
C1021 C 0.2225 0.01553 0.63951 0.0
C1022 C 0.28886 0.04746 0.63227 0.0
C1023 C 0.26776 0.01609 0.6228 0.0
H1024 H 0.01227 0.2266 0.59105 0.0
H1025 H 0.06326 0.23856 0.6528 0.0
H1026 H 0.0143 0.22684 0.6699 0.0
H1027 H 0.95671 0.21354 0.66763 0.0
H1028 H 0.90791 0.2073 0.60632 0.0
H1029 H 0.95633 0.2171 0.58898 0.0
C1030 C 0.01308 0.22724 0.60828 0.0
C1031 C 0.04175 0.23316 0.62041 0.0
C1032 C 0.98502 0.22151 0.61822 0.0
C1033 C 0.04158 0.23325 0.64278 0.0
C1034 C 0.01355 0.22683 0.6527 0.0
C1035 C 0.9567 0.21427 0.65047 0.0
C1036 C 0.92858 0.20944 0.6383 0.0
C1037 C 0.98506 0.22079 0.6406 0.0
C1038 C 0.92915 0.21093 0.6161 0.0
C1039 C 0.95688 0.21651 0.60614 0.0
H1040 H 0.80662 0.82194 0.61842 0.0
H1041 H 0.74519 0.81469 0.66808 0.0
H1042 H 0.75995 0.77877 0.68583 0.0
H1043 H 0.78777 0.74637 0.6856 0.0
H1044 H 0.84908 0.75516 0.63522 0.0
H1045 H 0.83705 0.79349 0.61954 0.0
C1046 C 0.7965 0.8125 0.63315 0.0
C1047 C 0.77454 0.82047 0.64179 0.0
C1048 C 0.80505 0.79205 0.64314 0.0
C1049 C 0.76211 0.80872 0.66112 0.0
C1050 C 0.77047 0.78815 0.67121 0.0
C1051 C 0.7988 0.75705 0.67138 0.0
C1052 C 0.81893 0.74748 0.6615 0.0
C1053 C 0.79159 0.77921 0.66218 0.0
C1054 C 0.83308 0.76161 0.64305 0.0
C1055 C 0.82627 0.78363 0.634 0.0
H1056 H 0.03589 0.83838 0.66793 0.0
H1057 H 0.02503 0.7867 0.60712 0.0
H1058 H 0.97254 0.74244 0.61522 0.0
H1059 H 0.92881 0.71883 0.63919 0.0
H1060 H 0.93949 0.77086 0.69992 0.0
H1061 H 0.99272 0.8142 0.69227 0.0
C1062 C 0.02204 0.81735 0.65651 0.0
C1063 C 0.03439 0.81596 0.63697 0.0
C1064 C 0.99173 0.79193 0.66125 0.0
C1065 C 0.01619 0.78854 0.62229 0.0
C1066 C 0.98609 0.76314 0.62691 0.0
C1067 C 0.94287 0.73949 0.65086 0.0
C1068 C 0.92999 0.74141 0.67013 0.0
C1069 C 0.97351 0.76461 0.6463 0.0
C1070 C 0.94861 0.76861 0.68494 0.0
C1071 C 0.97913 0.79351 0.68058 0.0
H1072 H 0.20486 0.20035 0.59361 0.0
H1073 H 0.17232 0.21632 0.65311 0.0
H1074 H 0.20925 0.20265 0.67262 0.0
H1075 H 0.25162 0.18653 0.67268 0.0
H1076 H 0.2827 0.17021 0.61241 0.0
H1077 H 0.24567 0.18346 0.59353 0.0
C1078 C 0.20583 0.20079 0.61086 0.0
C1079 C 0.18592 0.20934 0.62185 0.0
C1080 C 0.22696 0.19278 0.62192 0.0
C1081 C 0.18737 0.20977 0.64421 0.0
C1082 C 0.20853 0.20197 0.65539 0.0
C1083 C 0.25021 0.1858 0.65543 0.0
C1084 C 0.27015 0.17737 0.64413 0.0
C1085 C 0.22856 0.19347 0.64441 0.0
C1086 C 0.26783 0.17655 0.6217 0.0
C1087 C 0.2466 0.18419 0.61077 0.0
H1088 H 0.75218 0.98373 0.60837 0.0
H1089 H 0.78662 0.96801 0.66869 0.0
H1090 H 0.81035 0.02528 0.68101 0.0
H1091 H 0.82108 0.07991 0.67447 0.0
H1092 H 0.7892 0.09548 0.61306 0.0
H1093 H 0.76494 0.03832 0.60127 0.0
C1094 C 0.76485 0.99292 0.62423 0.0
C1095 C 0.76754 0.97183 0.63765 0.0
C1096 C 0.77899 0.02585 0.63095 0.0
C1097 C 0.78429 0.98389 0.65807 0.0
C1098 C 0.79782 0.01659 0.66511 0.0
C1099 C 0.80884 0.07075 0.65851 0.0
C1100 C 0.80686 0.09192 0.64471 0.0
C1101 C 0.79531 0.03782 0.65167 0.0
C1102 C 0.79121 0.07977 0.62399 0.0
C1103 C 0.7772 0.04704 0.61724 0.0
H1104 H 0.47693 0.34806 0.75158 0.0
H1105 H 0.50073 0.38647 0.69074 0.0
H1106 H 0.46048 0.33365 0.6724 0.0
H1107 H 0.41897 0.27613 0.67387 0.0
H1108 H 0.39572 0.23893 0.7353 0.0
H1109 H 0.43514 0.29166 0.75312 0.0
C1110 C 0.47327 0.34484 0.73429 0.0
C1111 C 0.49176 0.37098 0.72253 0.0
C1112 C 0.45013 0.3146 0.72395 0.0
C1113 C 0.48678 0.36665 0.70016 0.0
C1114 C 0.46377 0.33646 0.68968 0.0
C1115 C 0.42241 0.27959 0.69115 0.0
C1116 C 0.40434 0.25342 0.70316 0.0
C1117 C 0.44533 0.31019 0.70143 0.0
C1118 C 0.40921 0.25846 0.72557 0.0
C1119 C 0.43183 0.28867 0.73583 0.0
H1120 H 0.64088 0.13423 0.70888 0.0
H1121 H 0.69515 0.16639 0.77096 0.0
H1122 H 0.74544 0.17931 0.75496 0.0
H1123 H 0.77407 0.18149 0.72356 0.0
H1124 H 0.72062 0.14946 0.66116 0.0
H1125 H 0.67009 0.13653 0.67703 0.0
C1126 C 0.66372 0.14411 0.71886 0.0
C1127 C 0.66431 0.14941 0.7411 0.0
C1128 C 0.69273 0.15152 0.7095 0.0
C1129 C 0.6941 0.16215 0.75381 0.0
C1130 C 0.72288 0.16954 0.74468 0.0
C1131 C 0.75144 0.17172 0.71335 0.0
C1132 C 0.75131 0.16652 0.69114 0.0
C1133 C 0.7225 0.16433 0.72256 0.0
C1134 C 0.72157 0.15375 0.67829 0.0
C1135 C 0.6926 0.14634 0.68736 0.0
H1136 H 0.85772 0.49839 0.69199 0.0
H1137 H 0.93613 0.56124 0.73978 0.0
H1138 H 0.92315 0.604 0.7356 0.0
H1139 H 0.8898 0.62391 0.71799 0.0
H1140 H 0.81149 0.56062 0.6701 0.0
H1141 H 0.824 0.51788 0.67484 0.0
C1142 C 0.87195 0.52149 0.70144 0.0
C1143 C 0.89777 0.52661 0.7161 0.0
C1144 C 0.86432 0.54596 0.69902 0.0
C1145 C 0.91605 0.5566 0.72834 0.0
C1146 C 0.90864 0.58111 0.72599 0.0
C1147 C 0.87534 0.6007 0.70872 0.0
C1148 C 0.84984 0.59564 0.69367 0.0
C1149 C 0.8828 0.57608 0.71137 0.0
C1150 C 0.83142 0.56538 0.68172 0.0
C1151 C 0.83853 0.54082 0.68439 0.0
H1152 H 0.44861 0.96079 0.23345 0.0
H1153 H 0.45732 0.87998 0.2089 0.0
H1154 H 0.47148 0.90323 0.17497 0.0
H1155 H 0.48346 0.94737 0.15266 0.0
H1156 H 0.47403 0.02798 0.17667 0.0
H1157 H 0.4582 0.00402 0.2103 0.0
C1158 C 0.45322 0.9481 0.22058 0.0
C1159 C 0.45216 0.91879 0.22383 0.0
C1160 C 0.46146 0.96167 0.20102 0.0
C1161 C 0.4585 0.90283 0.207 0.0
C1162 C 0.46647 0.91604 0.18753 0.0
C1163 C 0.4775 0.95952 0.1651 0.0
C1164 C 0.4801 0.98955 0.16206 0.0
C1165 C 0.46835 0.94559 0.18442 0.0
C1166 C 0.47275 0.0051 0.17861 0.0
C1167 C 0.4635 0.99132 0.19785 0.0
H1168 H 0.08158 0.48472 0.22544 0.0
H1169 H 0.02712 0.53037 0.24444 0.0
H1170 H 1.00093 0.51947 0.2081 0.0
H1171 H 0.99599 0.49987 0.17049 0.0
H1172 H 0.05065 0.45437 0.15152 0.0
H1173 H 0.07427 0.46235 0.18826 0.0
C1174 C 0.06352 0.49174 0.22171 0.0
C1175 C 0.05634 0.50836 0.23762 0.0
C1176 C 0.04885 0.48574 0.20073 0.0
C1177 C 0.03329 0.51779 0.23244 0.0
C1178 C 0.01828 0.51154 0.21167 0.0
C1179 C 0.01268 0.49125 0.17444 0.0
C1180 C 0.02165 0.4767 0.15821 0.0
C1181 C 0.02626 0.49598 0.19561 0.0
C1182 C 0.0437 0.4661 0.16361 0.0
C1183 C 0.0571 0.47049 0.18465 0.0
H1184 H 0.50102 0.57972 0.21929 0.0
H1185 H 0.46969 0.48393 0.2376 0.0
H1186 H 0.47913 0.4679 0.2025 0.0
H1187 H 0.49739 0.48135 0.16682 0.0
H1188 H 0.53101 0.57789 0.14919 0.0
H1189 H 0.51973 0.5933 0.18381 0.0
C1190 C 0.49651 0.5554 0.21571 0.0
C1191 C 0.48472 0.53313 0.23118 0.0
C1192 C 0.50246 0.54645 0.19558 0.0
C1193 C 0.47838 0.50151 0.22598 0.0
C1194 C 0.48401 0.49237 0.20594 0.0
C1195 C 0.50255 0.50585 0.1706 0.0
C1196 C 0.51507 0.52838 0.15534 0.0
C1197 C 0.49627 0.51469 0.19066 0.0
C1198 C 0.52101 0.55988 0.16046 0.0
C1199 C 0.51473 0.5688 0.18033 0.0
H1200 H 1.00457 0.51309 0.79271 0.0
H1201 H 0.93486 0.41254 0.79704 0.0
H1202 H 0.95535 0.41721 0.83416 0.0
H1203 H 0.99225 0.45001 0.86552 0.0
H1204 H 0.06087 0.55099 0.86174 0.0
H1205 H 0.04175 0.54597 0.82419 0.0
C1206 C 0.99379 0.49229 0.80185 0.0
C1207 C 0.96831 0.46254 0.79218 0.0
C1208 C 1.00551 0.49518 0.82322 0.0
C1209 C 0.95481 0.43562 0.80407 0.0
C1210 C 0.96636 0.43829 0.82532 0.0
C1211 C 1.00287 0.47096 0.85651 0.0
C1212 C 0.02783 0.50082 0.86638 0.0
C1213 C 0.99157 0.46798 0.83506 0.0
C1214 C 0.04182 0.52765 0.85442 0.0
C1215 C 0.03077 0.52485 0.83301 0.0
H1216 H 0.60617 0.52467 0.80454 0.0
H1217 H 0.50804 0.48958 0.77636 0.0
H1218 H 0.49145 0.49768 0.81101 0.0
H1219 H 0.50409 0.51277 0.84948 0.0
H1220 H 0.60208 0.54821 0.8781 0.0
H1221 H 0.61934 0.54172 0.84324 0.0
C1222 C 0.58128 0.51918 0.80599 0.0
C1223 C 0.55834 0.50638 0.78791 0.0
C1224 C 0.57178 0.52369 0.82608 0.0
C1225 C 0.52607 0.49908 0.79007 0.0
C1226 C 0.51657 0.50377 0.80988 0.0
C1227 C 0.52934 0.51952 0.84809 0.0
C1228 C 0.5517 0.53097 0.86645 0.0
C1229 C 0.53911 0.51577 0.82802 0.0
C1230 C 0.58421 0.53897 0.86432 0.0
C1231 C 0.59416 0.53543 0.84435 0.0
H1232 H 0.4896 0.04659 0.79592 0.0
H1233 H 0.5892 0.12147 0.81477 0.0
H1234 H 0.58536 0.10269 0.85025 0.0
H1235 H 0.55354 0.06545 0.87615 0.0
H1236 H 0.45377 0.99101 0.85743 0.0
H1237 H 0.45761 0.00976 0.82191 0.0
C1238 C 0.51038 0.05902 0.80784 0.0
C1239 C 0.53967 0.08537 0.80259 0.0
C1240 C 0.50792 0.04832 0.82832 0.0
C1241 C 0.5665 0.10083 0.8182 0.0
C1242 C 0.56427 0.09025 0.83857 0.0
C1243 C 0.53271 0.05318 0.86425 0.0
C1244 C 0.50341 0.02686 0.86948 0.0
C1245 C 0.53512 0.064 0.84381 0.0
C1246 C 0.47649 0.01157 0.85394 0.0
C1247 C 0.47873 0.02215 0.83357 0.0
H1248 H 0.13023 0.24477 0.54584 0.0
H1249 H 0.10398 0.3131 0.5714 0.0
H1250 H 0.11746 0.34064 0.53886 0.0
H1251 H 0.13774 0.34608 0.50327 0.0
H1252 H 0.16387 0.27756 0.47783 0.0
H1253 H 0.15017 0.25001 0.51029 0.0
C1254 C 0.1277 0.26586 0.5444 0.0
C1255 C 0.11601 0.27672 0.56116 0.0
C1256 C 0.13571 0.28177 0.52564 0.0
C1257 C 0.11246 0.30383 0.55874 0.0
C1258 C 0.12037 0.31977 0.54014 0.0
C1259 C 0.14019 0.32496 0.50472 0.0
C1260 C 0.15206 0.31415 0.48803 0.0
C1261 C 0.13204 0.30898 0.52347 0.0
C1262 C 0.15538 0.28689 0.49045 0.0
C1263 C 0.14733 0.27092 0.509 0.0
H1264 H 0.6975 0.85535 0.57371 0.0
H1265 H 0.77052 0.82789 0.56626 0.0
H1266 H 0.75399 0.81487 0.52799 0.0
H1267 H 0.71991 0.81294 0.49639 0.0
H1268 H 0.64731 0.84095 0.50403 0.0
H1269 H 0.6631 0.85279 0.54234 0.0
C1270 C 0.70997 0.84673 0.5637 0.0
C1271 C 0.73524 0.84266 0.57289 0.0
C1272 C 0.70059 0.83962 0.54168 0.0
C1273 C 0.75073 0.83091 0.5597 0.0
C1274 C 0.74144 0.82365 0.53777 0.0
C1275 C 0.70734 0.82134 0.50647 0.0
C1276 C 0.68258 0.82621 0.49728 0.0
C1277 C 0.71649 0.82804 0.52856 0.0
C1278 C 0.66681 0.83748 0.51058 0.0
C1279 C 0.67568 0.84408 0.53253 0.0
H1280 H 0.19886 0.8994 0.55996 0.0
H1281 H 0.09629 0.85504 0.53889 0.0
H1282 H 0.10712 0.84477 0.50272 0.0
H1283 H 0.14592 0.8492 0.47692 0.0
H1284 H 0.24877 0.89576 0.49795 0.0
H1285 H 0.23755 0.90421 0.53424 0.0
C1286 C 0.17889 0.88773 0.54743 0.0
C1287 C 0.14682 0.8781 0.55217 0.0
C1288 C 0.18531 0.88217 0.52663 0.0
C1289 C 0.12116 0.86242 0.53578 0.0
C1290 C 0.12736 0.8567 0.51504 0.0
C1291 C 0.16592 0.86138 0.4894 0.0
C1292 C 0.19815 0.8717 0.48464 0.0
C1293 C 0.15937 0.86659 0.51027 0.0
C1294 C 0.22367 0.88703 0.50115 0.0
C1295 C 0.21732 0.89213 0.52192 0.0
H1296 H 0.60421 0.76196 0.12861 0.0
H1297 H 0.67477 0.85663 0.11246 0.0
H1298 H 0.70004 0.87123 0.14929 0.0
H1299 H 0.70176 0.85692 0.18604 0.0
H1300 H 0.62964 0.76259 0.20205 0.0
H1301 H 0.60586 0.74773 0.16511 0.0
C1302 C 0.62539 0.78566 0.13309 0.0
C1303 C 0.63777 0.80812 0.11783 0.0
C1304 C 0.63958 0.79387 0.15421 0.0
C1305 C 0.66475 0.83898 0.12396 0.0
C1306 C 0.67923 0.84728 0.14497 0.0
C1307 C 0.68068 0.83319 0.1815 0.0
C1308 C 0.6676 0.8109 0.19685 0.0
C1309 C 0.66673 0.82494 0.16026 0.0
C1310 C 0.64058 0.78007 0.19056 0.0
C1311 C 0.62678 0.77161 0.16945 0.0
H1312 H 0.27541 0.85345 0.14002 0.0
H1313 H 0.18327 0.82208 0.10362 0.0
H1314 H 0.15998 0.82842 0.13588 0.0
H1315 H 0.1646 0.83889 0.17469 0.0
H1316 H 0.25654 0.86989 0.21135 0.0
H1317 H 0.28108 0.86749 0.17876 0.0
C1318 C 0.25045 0.84862 0.13915 0.0
C1319 C 0.23101 0.83723 0.11957 0.0
C1320 C 0.23707 0.8518 0.15781 0.0
C1321 C 0.19857 0.83065 0.11861 0.0
C1322 C 0.18525 0.83423 0.13702 0.0
C1323 C 0.19015 0.84564 0.17552 0.0
C1324 C 0.20862 0.85432 0.19542 0.0
C1325 C 0.20408 0.84416 0.15676 0.0
C1326 C 0.24161 0.86257 0.19625 0.0
C1327 C 0.25573 0.8614 0.17762 0.0
H1328 H 0.16093 0.36775 0.12715 0.0
H1329 H 0.26055 0.43619 0.15119 0.0
H1330 H 0.25161 0.41223 0.18517 0.0
H1331 H 0.21489 0.37294 0.20846 0.0
H1332 H 0.115 0.30514 0.18452 0.0
H1333 H 0.12462 0.32774 0.15011 0.0
C1334 C 0.18065 0.37747 0.13987 0.0
C1335 C 0.21131 0.4038 0.13668 0.0
C1336 C 0.17526 0.36374 0.15939 0.0
C1337 C 0.2368 0.41577 0.15316 0.0
C1338 C 0.23164 0.40222 0.17264 0.0
C1339 C 0.1952 0.36322 0.19573 0.0
C1340 C 0.16424 0.33748 0.19908 0.0
C1341 C 0.20088 0.3764 0.176 0.0
C1342 C 0.13913 0.32477 0.18231 0.0
C1343 C 0.14456 0.33778 0.16266 0.0
H1344 H 0.77697 0.62584 0.8988 0.0
H1345 H 0.79515 0.54855 0.88102 0.0
H1346 H 0.80905 0.56848 0.84604 0.0
H1347 H 0.81651 0.60821 0.82056 0.0
H1348 H 0.79936 0.68612 0.83884 0.0
H1349 H 0.78399 0.66522 0.87329 0.0
C1350 C 0.78361 0.61314 0.88718 0.0
C1351 C 0.78504 0.58576 0.89256 0.0
C1352 C 0.79172 0.62482 0.86713 0.0
C1353 C 0.79417 0.56988 0.8774 0.0
C1354 C 0.80203 0.5812 0.85736 0.0
C1355 C 0.80965 0.62077 0.83213 0.0
C1356 C 0.80904 0.6487 0.82698 0.0
C1357 C 0.80112 0.6088 0.85209 0.0
C1358 C 0.79959 0.66432 0.84214 0.0
C1359 C 0.79098 0.6525 0.86195 0.0
H1360 H 0.36802 0.13094 0.89305 0.0
H1361 H 0.44748 0.22618 0.88541 0.0
H1362 H 0.42807 0.22044 0.84784 0.0
H1363 H 0.38746 0.1892 0.81755 0.0
H1364 H 0.30664 0.09471 0.82543 0.0
H1365 H 0.32795 0.09904 0.86234 0.0
C1366 C 0.38127 0.15021 0.88304 0.0
C1367 C 0.40905 0.17896 0.89196 0.0
C1368 C 0.3697 0.14691 0.86152 0.0
C1369 C 0.42585 0.20393 0.87892 0.0
C1370 C 0.41479 0.20065 0.85745 0.0
C1371 C 0.37435 0.16962 0.82737 0.0
C1372 C 0.34538 0.14175 0.81871 0.0
C1373 C 0.38647 0.17245 0.84867 0.0
C1374 C 0.32914 0.11634 0.83158 0.0
C1375 C 0.34121 0.11885 0.85274 0.0
H1376 H 0.78058 0.19884 0.87204 0.0
H1377 H 0.8742 0.21938 0.90122 0.0
H1378 H 0.89043 0.21154 0.86634 0.0
H1379 H 0.87913 0.20152 0.82745 0.0
H1380 H 0.78509 0.17974 0.79816 0.0
H1381 H 0.76805 0.18557 0.83316 0.0
C1382 C 0.80432 0.20108 0.87079 0.0
C1383 C 0.82621 0.20988 0.8892 0.0
C1384 C 0.81358 0.19666 0.85064 0.0
C1385 C 0.85706 0.21307 0.88727 0.0
C1386 C 0.86633 0.20851 0.86734 0.0
C1387 C 0.85472 0.19754 0.8287 0.0
C1388 C 0.83355 0.19038 0.81011 0.0
C1389 C 0.84497 0.20073 0.84889 0.0
C1390 C 0.80216 0.18584 0.81212 0.0
C1391 C 0.79228 0.18895 0.83216 0.0
H1392 H 0.28977 0.09806 0.45762 0.0
H1393 H 0.34683 0.19856 0.44661 0.0
H1394 H 0.36941 0.21214 0.48398 0.0
H1395 H 0.37175 0.19547 0.5199 0.0
H1396 H 0.31534 0.09471 0.53046 0.0
H1397 H 0.29381 0.08115 0.49298 0.0
C1398 C 0.30757 0.12288 0.46328 0.0
C1399 C 0.31673 0.14725 0.44934 0.0
C1400 C 0.32044 0.13045 0.48468 0.0
C1401 C 0.33922 0.1794 0.45708 0.0
C1402 C 0.35221 0.18714 0.4784 0.0
C1403 C 0.35511 0.1705 0.51392 0.0
C1404 C 0.3451 0.14614 0.52794 0.0
C1405 C 0.34286 0.16287 0.49236 0.0
C1406 C 0.3231 0.11395 0.52004 0.0
C1407 C 0.31089 0.10616 0.49861 0.0
H1408 H 0.90469 0.20786 0.45599 0.0
H1409 H 0.89058 0.11459 0.46874 0.0
H1410 H 0.8714 0.11905 0.50324 0.0
H1411 H 0.85526 0.14771 0.52856 0.0
H1412 H 0.86903 0.24103 0.51608 0.0
H1413 H 0.89127 0.23811 0.48252 0.0
C1414 C 0.89795 0.18884 0.46654 0.0
C1415 C 0.89895 0.16094 0.45991 0.0
C1416 C 0.88639 0.19132 0.48618 0.0
C1417 C 0.88979 0.1362 0.47353 0.0
C1418 C 0.87878 0.13871 0.4932 0.0
C1419 C 0.86357 0.16766 0.51868 0.0
C1420 C 0.86036 0.19449 0.52481 0.0
C1421 C 0.87643 0.16588 0.4995 0.0
C1422 C 0.87073 0.21986 0.51159 0.0
C1423 C 0.88369 0.21832 0.49247 0.0
H1424 H 0.87041 0.78121 0.48411 0.0
H1425 H 0.90451 0.72109 0.45559 0.0
H1426 H 0.89423 0.69165 0.48746 0.0
H1427 H 0.8744 0.68244 0.52325 0.0
H1428 H 0.84058 0.74313 0.55142 0.0
H1429 H 0.85189 0.77292 0.51989 0.0
C1430 C 0.87542 0.76154 0.48484 0.0
C1431 C 0.88794 0.75314 0.46749 0.0
C1432 C 0.86953 0.74487 0.50316 0.0
C1433 C 0.89497 0.72805 0.4688 0.0
C1434 C 0.88896 0.71115 0.48696 0.0
C1435 C 0.86945 0.70213 0.52242 0.0
C1436 C 0.8567 0.71057 0.53966 0.0
C1437 C 0.87606 0.71924 0.5042 0.0
C1438 C 0.85075 0.73639 0.53848 0.0
C1439 C 0.85704 0.75333 0.52041 0.0
loop_
_geom_bond_atom_site_label_1
_geom_bond_atom_site_label_2
_geom_bond_distance
_geom_bond_site_symmetry_2
_ccdc_geom_bond_type
H0 C5 0.930 . S
H1 C8 0.930 . S
H2 C10 0.930 . S
H3 C4 1.016 . S
C4 H3 1.016 . S
C4 N11 1.286 . S
C5 H0 0.930 . S
C5 C6 1.397 . S
C5 C7 1.361 . S
C6 C5 1.397 . S
C6 C10 1.390 . S
C7 C5 1.361 . S
C7 C8 1.393 . S
C7 N11 1.413 . S
C8 H1 0.930 . S
C8 C7 1.393 . S
C8 C9 1.399 . S
C9 C8 1.399 . S
C9 C10 1.381 . S
C10 H2 0.930 . S
C10 C6 1.390 . S
C10 C9 1.381 . S
N11 C4 1.286 . S
N11 C7 1.413 . S
H12 C17 0.930 . S
H13 C20 0.930 . S
H14 C22 0.930 . S
H15 C16 1.016 . S
C16 H15 1.016 . S
C16 N23 1.286 . S
C17 H12 0.930 . S
C17 C18 1.397 . S
C17 C19 1.361 . S
C18 C17 1.397 . S
C18 C22 1.390 . S
C19 C17 1.361 . S
C19 C20 1.393 . S
C19 N23 1.413 . S
C20 H13 0.930 . S
C20 C19 1.393 . S
C20 C21 1.399 . S
C21 C20 1.399 . S
C21 C22 1.381 . S
C22 H14 0.930 . S
C22 C18 1.390 . S
C22 C21 1.381 . S
N23 C16 1.286 . S
N23 C19 1.413 . S
H24 C29 0.930 . S
H25 C32 0.930 . S
H26 C34 0.930 . S
H27 C28 1.016 . S
C28 H27 1.016 . S
C28 N35 1.286 . S
C29 H24 0.930 . S
C29 C30 1.397 . S
C29 C31 1.361 . S
C30 C29 1.397 . S
C30 C34 1.390 . S
C31 C29 1.361 . S
C31 C32 1.393 . S
C31 N35 1.413 . S
C32 H25 0.930 . S
C32 C31 1.393 . S
C32 C33 1.399 . S
C33 C32 1.399 . S
C33 C34 1.381 . S
C34 H26 0.930 . S
C34 C30 1.390 . S
C34 C33 1.381 . S
N35 C28 1.286 . S
N35 C31 1.413 . S
H36 C41 0.930 . S
H37 C44 0.930 . S
H38 C46 0.930 . S
H39 C40 1.016 . S
C40 H39 1.016 . S
C40 N47 1.286 . S
C41 H36 0.930 . S
C41 C42 1.397 . S
C41 C43 1.361 . S
C42 C41 1.397 . S
C42 C46 1.390 . S
C43 C41 1.361 . S
C43 C44 1.393 . S
C43 N47 1.413 . S
C44 H37 0.930 . S
C44 C43 1.393 . S
C44 C45 1.399 . S
C45 C44 1.399 . S
C45 C46 1.381 . S
C46 H38 0.930 . S
C46 C42 1.390 . S
C46 C45 1.381 . S
N47 C40 1.286 . S
N47 C43 1.413 . S
H48 C53 0.930 . S
H49 C56 0.930 . S
H50 C58 0.930 . S
H51 C52 1.016 . S
C52 H51 1.016 . S
C52 N59 1.286 . S
C53 H48 0.930 . S
C53 C54 1.397 . S
C53 C55 1.361 . S
C54 C53 1.397 . S
C54 C58 1.390 . S
C55 C53 1.361 . S
C55 C56 1.393 . S
C55 N59 1.413 . S
C56 H49 0.930 . S
C56 C55 1.393 . S
C56 C57 1.399 . S
C57 C56 1.399 . S
C57 C58 1.381 . S
C58 H50 0.930 . S
C58 C54 1.390 . S
C58 C57 1.381 . S
N59 C52 1.286 . S
N59 C55 1.413 . S
H60 C65 0.930 . S
H61 C68 0.930 . S
H62 C70 0.930 . S
H63 C64 1.016 . S
C64 H63 1.016 . S
C64 N71 1.286 . S
C65 H60 0.930 . S
C65 C66 1.397 . S
C65 C67 1.361 . S
C66 C65 1.397 . S
C66 C70 1.390 . S
C67 C65 1.361 . S
C67 C68 1.393 . S
C67 N71 1.413 . S
C68 H61 0.930 . S
C68 C67 1.393 . S
C68 C69 1.399 . S
C69 C68 1.399 . S
C69 C70 1.381 . S
C70 H62 0.930 . S
C70 C66 1.390 . S
C70 C69 1.381 . S
N71 C64 1.286 . S
N71 C67 1.413 . S
H72 C77 0.930 . S
H73 C80 0.930 . S
H74 C82 0.930 . S
H75 C76 1.016 . S
C76 H75 1.016 . S
C76 N83 1.286 . S
C77 H72 0.930 . S
C77 C78 1.397 . S
C77 C79 1.361 . S
C78 C77 1.397 . S
C78 C82 1.390 . S
C79 C77 1.361 . S
C79 C80 1.393 . S
C79 N83 1.413 . S
C80 H73 0.930 . S
C80 C79 1.393 . S
C80 C81 1.399 . S
C81 C80 1.399 . S
C81 C82 1.381 . S
C82 H74 0.930 . S
C82 C78 1.390 . S
C82 C81 1.381 . S
N83 C76 1.286 . S
N83 C79 1.413 . S
H84 C89 0.930 . S
H85 C92 0.930 . S
H86 C94 0.930 . S
H87 C88 1.016 . S
C88 H87 1.016 . S
C88 N95 1.286 . S
C89 H84 0.930 . S
C89 C90 1.397 . S
C89 C91 1.361 . S
C90 C89 1.397 . S
C90 C94 1.390 . S
C91 C89 1.361 . S
C91 C92 1.393 . S
C91 N95 1.413 . S
C92 H85 0.930 . S
C92 C91 1.393 . S
C92 C93 1.399 . S
C93 C92 1.399 . S
C93 C94 1.381 . S
C94 H86 0.930 . S
C94 C90 1.390 . S
C94 C93 1.381 . S
N95 C88 1.286 . S
N95 C91 1.413 . S
H96 C101 0.930 . S
H97 C104 0.930 . S
H98 C106 0.930 . S
H99 C100 1.016 . S
C100 H99 1.016 . S
C100 N107 1.286 . S
C101 H96 0.930 . S
C101 C102 1.397 . S
C101 C103 1.361 . S
C102 C101 1.397 . S
C102 C106 1.390 . S
C103 C101 1.361 . S
C103 C104 1.393 . S
C103 N107 1.413 . S
C104 H97 0.930 . S
C104 C103 1.393 . S
C104 C105 1.399 . S
C105 C104 1.399 . S
C105 C106 1.381 . S
C106 H98 0.930 . S
C106 C102 1.390 . S
C106 C105 1.381 . S
N107 C100 1.286 . S
N107 C103 1.413 . S
H108 C113 0.930 . S
H109 C116 0.930 . S
H110 C118 0.930 . S
H111 C112 1.016 . S
C112 H111 1.016 . S
C112 N119 1.286 . S
C113 H108 0.930 . S
C113 C114 1.397 . S
C113 C115 1.361 . S
C114 C113 1.397 . S
C114 C118 1.390 . S
C115 C113 1.361 . S
C115 C116 1.393 . S
C115 N119 1.413 . S
C116 H109 0.930 . S
C116 C115 1.393 . S
C116 C117 1.399 . S
C117 C116 1.399 . S
C117 C118 1.381 . S
C118 H110 0.930 . S
C118 C114 1.390 . S
C118 C117 1.381 . S
N119 C112 1.286 . S
N119 C115 1.413 . S
H120 C125 0.907 1_554 S
H121 C128 0.930 . S
H122 C130 0.930 . S
H123 C124 1.016 . S
C124 H123 1.016 . S
C124 N131 1.286 . S
C125 H120 0.907 1_556 S
C125 C126 1.397 . S
C125 C127 1.361 . S
C126 C125 1.397 . S
C126 C130 1.390 . S
C127 C125 1.361 . S
C127 C128 1.393 . S
C127 N131 1.413 . S
C128 H121 0.930 . S
C128 C127 1.393 . S
C128 C129 1.399 . S
C129 C128 1.399 . S
C129 C130 1.381 . S
C130 H122 0.930 . S
C130 C126 1.390 . S
C130 C129 1.381 . S
N131 C124 1.286 . S
N131 C127 1.413 . S
H132 C137 0.930 . S
H133 C140 0.930 . S
H134 C142 0.930 . S
H135 C136 1.016 . S
C136 H135 1.016 . S
C136 N143 1.286 . S
C137 H132 0.930 . S
C137 C138 1.397 . S
C137 C139 1.361 . S
C138 C137 1.397 . S
C138 C142 1.390 . S
C139 C137 1.361 . S
C139 C140 1.393 . S
C139 N143 1.413 . S
C140 H133 0.930 . S
C140 C139 1.393 . S
C140 C141 1.399 . S
C141 C140 1.399 . S
C141 C142 1.381 . S
C142 H134 0.930 . S
C142 C138 1.390 . S
C142 C141 1.381 . S
N143 C136 1.286 . S
N143 C139 1.413 . S
H144 C149 0.930 . S
H145 C152 0.930 . S
H146 C154 0.930 . S
H147 C148 1.016 . S
C148 H147 1.016 . S
C148 N155 1.286 . S
C149 H144 0.930 . S
C149 C150 1.397 . S
C149 C151 1.361 . S
C150 C149 1.397 . S
C150 C154 1.390 . S
C151 C149 1.361 . S
C151 C152 1.393 . S
C151 N155 1.413 . S
C152 H145 0.930 . S
C152 C151 1.393 . S
C152 C153 1.399 . S
C153 C152 1.399 . S
C153 C154 1.381 . S
C154 H146 0.930 . S
C154 C150 1.390 . S
C154 C153 1.381 . S
N155 C148 1.286 . S
N155 C151 1.413 . S
H156 C161 0.930 . S
H157 C164 0.930 . S
H158 C166 0.930 . S
H159 C160 1.016 . S
C160 H159 1.016 . S
C160 N167 1.286 . S
C161 H156 0.930 . S
C161 C162 1.397 . S
C161 C163 1.361 . S
C162 C161 1.397 . S
C162 C166 1.390 . S
C163 C161 1.361 . S
C163 C164 1.393 . S
C163 N167 1.413 . S
C164 H157 0.930 . S
C164 C163 1.393 . S
C164 C165 1.399 . S
C165 C164 1.399 . S
C165 C166 1.381 . S
C166 H158 0.930 . S
C166 C162 1.390 . S
C166 C165 1.381 . S
N167 C160 1.286 . S
N167 C163 1.413 . S
H168 C173 0.930 . S
H169 C176 0.930 . S
H170 C178 0.930 . S
H171 C172 1.016 . S
C172 H171 1.016 . S
C172 N179 1.286 . S
C173 H168 0.930 . S
C173 C174 1.397 . S
C173 C175 1.361 . S
C174 C173 1.397 . S
C174 C178 1.390 . S
C175 C173 1.361 . S
C175 C176 1.393 . S
C175 N179 1.413 . S
C176 H169 0.930 . S
C176 C175 1.393 . S
C176 C177 1.399 . S
C177 C176 1.399 . S
C177 C178 1.381 . S
C178 H170 0.930 . S
C178 C174 1.390 . S
C178 C177 1.381 . S
N179 C172 1.286 . S
N179 C175 1.413 . S
H180 C185 0.930 . S
H181 C188 0.930 . S
H182 C190 0.930 . S
H183 C184 1.016 . S
C184 H183 1.016 . S
C184 N191 1.286 . S
C185 H180 0.930 . S
C185 C186 1.397 . S
C185 C187 1.361 . S
C186 C185 1.397 . S
C186 C190 1.390 . S
C187 C185 1.361 . S
C187 C188 1.393 . S
C187 N191 1.413 . S
C188 H181 0.930 . S
C188 C187 1.393 . S
C188 C189 1.399 . S
C189 C188 1.399 . S
C189 C190 1.381 . S
C190 H182 0.930 . S
C190 C186 1.390 . S
C190 C189 1.381 . S
N191 C184 1.286 . S
N191 C187 1.413 . S
H192 C197 0.930 . S
H193 C200 0.930 . S
H194 C202 0.930 . S
H195 C196 1.016 . S
C196 H195 1.016 . S
C196 N203 1.286 . S
C197 H192 0.930 . S
C197 C198 1.397 . S
C197 C199 1.361 . S
C198 C197 1.397 . S
C198 C202 1.390 . S
C199 C197 1.361 . S
C199 C200 1.393 . S
C199 N203 1.413 . S
C200 H193 0.930 . S
C200 C199 1.393 . S
C200 C201 1.399 . S
C201 C200 1.399 . S
C201 C202 1.381 . S
C202 H194 0.930 . S
C202 C198 1.390 . S
C202 C201 1.381 . S
N203 C196 1.286 . S
N203 C199 1.413 . S
H204 C209 0.930 . S
H205 C212 0.930 . S
H206 C214 0.930 . S
H207 C208 1.016 . S
C208 H207 1.016 . S
C208 N215 1.286 . S
C209 H204 0.930 . S
C209 C210 1.397 . S
C209 C211 1.361 . S
C210 C209 1.397 . S
C210 C214 1.390 . S
C211 C209 1.361 . S
C211 C212 1.393 . S
C211 N215 1.413 . S
C212 H205 0.930 . S
C212 C211 1.393 . S
C212 C213 1.399 . S
C213 C212 1.399 . S
C213 C214 1.381 . S
C214 H206 0.930 . S
C214 C210 1.390 . S
C214 C213 1.381 . S
N215 C208 1.286 . S
N215 C211 1.413 . S
Eu216 C225 2.828 1_565 S
Eu216 O227 2.392 . S
Eu216 O229 2.418 . S
Eu216 O234 2.373 1_565 S
Eu216 O237 2.488 . S
Eu216 O238 2.471 1_565 S
Eu216 O239 2.349 1_565 S
Eu217 O226 2.373 1_545 S
Eu217 O230 2.488 . S
Eu217 O231 2.471 1_545 S
Eu217 O232 2.349 1_545 S
Eu217 O235 2.392 . S
Eu217 O236 2.418 . S
Eu217 C246 2.828 . S
C218 O236 1.244 . S
C218 O239 1.265 1_554 S
C219 C220 1.379 . S
C219 C223 1.373 1_545 S
C219 C225 1.505 . S
C220 C219 1.379 . S
C220 C222 1.369 . S
C220 H248 0.930 . S
C221 C223 1.383 1_545 S
C221 C224 1.382 . S
C221 H249 0.930 1_545 S
C222 C220 1.369 . S
C222 C224 1.392 . S
C222 H250 0.930 . S
C223 C219 1.373 1_565 S
C223 C221 1.383 1_565 S
C223 H251 0.931 . S
C224 C221 1.382 . S
C224 C222 1.392 . S
C225 Eu216 2.828 1_545 S
C225 C219 1.505 . S
C225 O237 1.249 1_545 S
C225 O238 1.244 . S
O226 Eu217 2.373 1_565 S
O226 C228 1.258 . S
O227 Eu216 2.392 . S
O227 C228 1.242 1_556 S
C228 O226 1.258 . S
C228 O227 1.242 1_554 S
O229 Eu216 2.418 . S
O229 C233 1.244 1_556 S
O230 Eu217 2.488 . S
O230 C246 1.249 . S
O231 Eu217 2.471 1_565 S
O231 C246 1.244 1_565 S
O232 Eu217 2.349 1_565 S
O232 C233 1.265 . S
C233 O229 1.244 1_554 S
C233 O232 1.265 . S
O234 Eu216 2.373 1_545 S
O234 C247 1.258 . S
O235 Eu217 2.392 . S
O235 C247 1.242 1_554 S
O236 Eu217 2.418 . S
O236 C218 1.244 . S
O237 Eu216 2.488 . S
O237 C225 1.249 1_565 S
O238 Eu216 2.471 1_545 S
O238 C225 1.244 . S
O239 Eu216 2.349 1_545 S
O239 C218 1.265 1_556 S
C240 C241 1.379 . S
C240 C244 1.373 1_565 S
C240 C246 1.505 1_565 S
C241 C240 1.379 . S
C241 C243 1.369 . S
C241 H252 0.930 . S
C242 C244 1.383 . S
C242 C245 1.382 1_545 S
C242 H253 0.930 . S
C243 C241 1.369 . S
C243 C245 1.392 . S
C243 H254 0.930 . S
C244 C240 1.373 1_545 S
C244 C242 1.383 . S
C244 H255 0.931 . S
C245 C242 1.382 1_565 S
C245 C243 1.392 . S
C246 Eu217 2.828 . S
C246 O230 1.249 . S
C246 O231 1.244 1_545 S
C246 C240 1.505 1_545 S
C247 O234 1.258 . S
C247 O235 1.242 1_556 S
H248 C220 0.930 . S
H249 C221 0.930 1_565 S
H250 C222 0.930 . S
H251 C223 0.931 . S
H252 C241 0.930 . S
H253 C242 0.930 . S
H254 C243 0.930 . S
H255 C244 0.931 . S
Eu256 C265 2.827 . S
Eu256 O267 2.392 1_556 S
Eu256 O269 2.418 . S
Eu256 O274 2.373 1_455 S
Eu256 O277 2.488 . S
Eu256 O278 2.471 1_455 S
Eu256 O279 2.349 1_455 S
Eu257 O266 2.373 1_655 S
Eu257 O270 2.488 . S
Eu257 O271 2.471 1_655 S
Eu257 O272 2.349 1_655 S
Eu257 O275 2.392 . S
Eu257 O276 2.418 . S
Eu257 C286 2.828 1_655 S
C258 O276 1.266 . S
C258 O279 1.254 1_554 S
C259 C260 1.379 . S
C259 C263 1.373 1_655 S
C259 C265 1.506 1_655 S
C260 C259 1.379 . S
C260 C262 1.369 . S
C260 H288 0.930 . S
C261 C263 1.383 1_655 S
C261 C264 1.382 . S
C261 H289 0.930 1_655 S
C262 C260 1.369 . S
C262 C264 1.392 . S
C262 H290 0.930 . S
C263 C259 1.373 1_455 S
C263 C261 1.383 1_455 S
C263 H291 0.931 . S
C264 C261 1.382 . S
C264 C262 1.392 . S
C265 Eu256 2.827 . S
C265 C259 1.506 1_455 S
C265 O277 1.248 . S
C265 O278 1.245 1_455 S
O266 Eu257 2.373 1_455 S
O266 C268 1.258 . S
O267 Eu256 2.392 1_554 S
O267 C268 1.242 . S
C268 O266 1.258 . S
C268 O267 1.242 . S
O269 Eu256 2.418 . S
O269 C273 1.244 1_556 S
O270 Eu257 2.488 . S
O270 C286 1.249 1_655 S
O271 Eu257 2.471 1_455 S
O271 C286 1.244 . S
O272 Eu257 2.349 1_455 S
O272 C273 1.265 . S
C273 O269 1.244 1_554 S
C273 O272 1.265 . S
O274 Eu256 2.373 1_655 S
O274 C287 1.258 . S
O275 Eu257 2.392 . S
O275 C287 1.242 1_554 S
O276 Eu257 2.418 . S
O276 C258 1.266 . S
O277 Eu256 2.488 . S
O277 C265 1.248 . S
O278 Eu256 2.471 1_655 S
O278 C265 1.245 1_655 S
O279 Eu256 2.349 1_655 S
O279 C258 1.254 1_556 S
C280 C281 1.379 . S
C280 C284 1.373 1_455 S
C280 C286 1.505 . S
C281 C280 1.379 . S
C281 C283 1.369 . S
C281 H292 0.930 . S
C282 C284 1.383 1_455 S
C282 C285 1.382 . S
C282 H293 0.930 1_455 S
C283 C281 1.369 . S
C283 C285 1.392 . S
C283 H294 0.930 . S
C284 C280 1.373 1_655 S
C284 C282 1.383 1_655 S
C284 H295 0.931 . S
C285 C282 1.382 . S
C285 C283 1.392 . S
C286 Eu257 2.828 1_455 S
C286 O270 1.249 1_455 S
C286 O271 1.244 . S
C286 C280 1.505 . S
C287 O274 1.258 . S
C287 O275 1.242 1_556 S
H288 C260 0.930 . S
H289 C261 0.930 1_455 S
H290 C262 0.930 . S
H291 C263 0.931 . S
H292 C281 0.930 . S
H293 C282 0.930 1_655 S
H294 C283 0.930 . S
H295 C284 0.931 . S
Eu296 C305 2.828 . S
Eu296 O307 2.392 . S
Eu296 O309 2.418 . S
Eu296 O314 2.373 . S
Eu296 O317 2.488 . S
Eu296 O318 2.471 . S
Eu296 O319 2.349 . S
Eu297 O306 2.373 . S
Eu297 O310 2.488 . S
Eu297 O311 2.471 . S
Eu297 O312 2.349 . S
Eu297 O315 2.392 1_556 S
Eu297 O316 2.418 . S
Eu297 C326 2.828 . S
C298 O316 1.244 1_554 S
C298 O319 1.265 . S
C299 C300 1.379 . S
C299 C303 1.373 . S
C299 C305 1.505 . S
C300 C299 1.379 . S
C300 C302 1.369 . S
C300 H328 0.930 . S
C301 C303 1.383 . S
C301 C304 1.382 . S
C301 H329 0.930 . S
C302 C300 1.369 . S
C302 C304 1.392 . S
C302 H330 0.930 . S
C303 C299 1.373 . S
C303 C301 1.383 . S
C303 H331 0.931 . S
C304 C301 1.382 . S
C304 C302 1.392 . S
C305 Eu296 2.828 . S
C305 C299 1.505 . S
C305 O317 1.249 . S
C305 O318 1.244 . S
O306 Eu297 2.373 . S
O306 C308 1.258 . S
O307 Eu296 2.392 . S
O307 C308 1.242 1_554 S
C308 O306 1.258 . S
C308 O307 1.242 1_556 S
O309 Eu296 2.418 . S
O309 C313 1.244 . S
O310 Eu297 2.488 . S
O310 C326 1.249 . S
O311 Eu297 2.471 . S
O311 C326 1.244 . S
O312 Eu297 2.349 . S
O312 C313 1.265 1_556 S
C313 O309 1.244 . S
C313 O312 1.265 1_554 S
O314 Eu296 2.373 . S
O314 C327 1.258 . S
O315 Eu297 2.392 1_554 S
O315 C327 1.242 . S
O316 Eu297 2.418 . S
O316 C298 1.244 1_556 S
O317 Eu296 2.488 . S
O317 C305 1.249 . S
O318 Eu296 2.471 . S
O318 C305 1.244 . S
O319 Eu296 2.349 . S
O319 C298 1.265 . S
C320 C321 1.379 . S
C320 C324 1.373 . S
C320 C326 1.505 . S
C321 C320 1.379 . S
C321 C323 1.369 . S
C321 H332 0.930 . S
C322 C324 1.383 . S
C322 C325 1.382 . S
C322 H333 0.930 . S
C323 C321 1.369 . S
C323 C325 1.392 . S
C323 H334 0.930 . S
C324 C320 1.373 . S
C324 C322 1.383 . S
C324 H335 0.931 . S
C325 C322 1.382 . S
C325 C323 1.392 . S
C326 Eu297 2.828 . S
C326 O310 1.249 . S
C326 O311 1.244 . S
C326 C320 1.505 . S
C327 O314 1.258 . S
C327 O315 1.242 . S
H328 C300 0.930 . S
H329 C301 0.930 . S
H330 C302 0.930 . S
H331 C303 0.931 . S
H332 C321 0.930 . S
H333 C322 0.930 . S
H334 C323 0.930 . S
H335 C324 0.931 . S
Eu336 C345 2.828 . S
Eu336 O347 2.392 . S
Eu336 O349 2.418 . S
Eu336 O354 2.373 . S
Eu336 O357 2.488 . S
Eu336 O358 2.471 . S
Eu336 O359 2.349 . S
Eu337 O346 2.373 . S
Eu337 O350 2.488 . S
Eu337 O351 2.471 . S
Eu337 O352 2.349 . S
Eu337 O355 2.392 . S
Eu337 O356 2.418 . S
Eu337 C366 2.828 . S
C338 O356 1.244 . S
C338 O359 1.265 . S
C339 C340 1.379 . S
C339 C343 1.373 . S
C339 C345 1.505 . S
C340 C339 1.379 . S
C340 C342 1.369 . S
C340 H368 0.930 . S
C341 C343 1.383 . S
C341 C344 1.382 . S
C341 H369 0.930 . S
C342 C340 1.369 . S
C342 C344 1.392 . S
C342 H370 0.930 . S
C343 C339 1.373 . S
C343 C341 1.383 . S
C343 H371 0.931 . S
C344 C341 1.382 . S
C344 C342 1.392 . S
C345 Eu336 2.828 . S
C345 C339 1.505 . S
C345 O357 1.249 . S
C345 O358 1.244 . S
O346 Eu337 2.373 . S
O346 C348 1.258 . S
O347 Eu336 2.392 . S
O347 C348 1.242 . S
C348 O346 1.258 . S
C348 O347 1.242 . S
O349 Eu336 2.418 . S
O349 C353 1.244 . S
O350 Eu337 2.488 . S
O350 C366 1.249 . S
O351 Eu337 2.471 . S
O351 C366 1.244 . S
O352 Eu337 2.349 . S
O352 C353 1.265 . S
C353 O349 1.244 . S
C353 O352 1.265 . S
O354 Eu336 2.373 . S
O354 C367 1.258 . S
O355 Eu337 2.392 . S
O355 C367 1.242 . S
O356 Eu337 2.418 . S
O356 C338 1.244 . S
O357 Eu336 2.488 . S
O357 C345 1.249 . S
O358 Eu336 2.471 . S
O358 C345 1.244 . S
O359 Eu336 2.349 . S
O359 C338 1.265 . S
C360 C361 1.379 . S
C360 C364 1.373 . S
C360 C366 1.505 . S
C361 C360 1.379 . S
C361 C363 1.369 . S
C361 H372 0.930 . S
C362 C364 1.383 . S
C362 C365 1.382 . S
C362 H373 0.930 . S
C363 C361 1.369 . S
C363 C365 1.392 . S
C363 H374 0.930 . S
C364 C360 1.373 . S
C364 C362 1.383 . S
C364 H375 0.931 . S
C365 C362 1.382 . S
C365 C363 1.392 . S
C366 Eu337 2.828 . S
C366 O350 1.249 . S
C366 O351 1.244 . S
C366 C360 1.505 . S
C367 O354 1.258 . S
C367 O355 1.242 . S
H368 C340 0.930 . S
H369 C341 0.930 . S
H370 C342 0.930 . S
H371 C343 0.931 . S
H372 C361 0.930 . S
H373 C362 0.930 . S
H374 C363 0.930 . S
H375 C364 0.931 . S
Eu376 C385 2.828 . S
Eu376 O387 2.392 . S
Eu376 O389 2.418 . S
Eu376 O394 2.373 . S
Eu376 O397 2.488 . S
Eu376 O398 2.471 . S
Eu376 O399 2.349 . S
Eu377 O386 2.373 . S
Eu377 O390 2.488 . S
Eu377 O391 2.471 . S
Eu377 O392 2.349 . S
Eu377 O395 2.392 . S
Eu377 O396 2.418 . S
Eu377 C406 2.828 . S
C378 O396 1.244 . S
C378 O399 1.265 . S
C379 C380 1.379 . S
C379 C383 1.373 . S
C379 C385 1.505 . S
C380 C379 1.379 . S
C380 C382 1.369 . S
C380 H408 0.930 . S
C381 C383 1.383 . S
C381 C384 1.382 . S
C381 H409 0.930 . S
C382 C380 1.369 . S
C382 C384 1.392 . S
C382 H410 0.930 . S
C383 C379 1.373 . S
C383 C381 1.383 . S
C383 H411 0.931 . S
C384 C381 1.382 . S
C384 C382 1.392 . S
C385 Eu376 2.828 . S
C385 C379 1.505 . S
C385 O397 1.249 . S
C385 O398 1.244 . S
O386 Eu377 2.373 . S
O386 C388 1.258 . S
O387 Eu376 2.392 . S
O387 C388 1.242 . S
C388 O386 1.258 . S
C388 O387 1.242 . S
O389 Eu376 2.418 . S
O389 C393 1.244 . S
O390 Eu377 2.488 . S
O390 C406 1.249 . S
O391 Eu377 2.471 . S
O391 C406 1.244 . S
O392 Eu377 2.349 . S
O392 C393 1.265 . S
C393 O389 1.244 . S
C393 O392 1.265 . S
O394 Eu376 2.373 . S
O394 C407 1.258 . S
O395 Eu377 2.392 . S
O395 C407 1.242 . S
O396 Eu377 2.418 . S
O396 C378 1.244 . S
O397 Eu376 2.488 . S
O397 C385 1.249 . S
O398 Eu376 2.471 . S
O398 C385 1.244 . S
O399 Eu376 2.349 . S
O399 C378 1.265 . S
C400 C401 1.379 . S
C400 C404 1.373 . S
C400 C406 1.505 . S
C401 C400 1.379 . S
C401 C403 1.369 . S
C401 H412 0.930 . S
C402 C404 1.383 . S
C402 C405 1.382 . S
C402 H413 0.930 . S
C403 C401 1.369 . S
C403 C405 1.392 . S
C403 H414 0.930 . S
C404 C400 1.373 . S
C404 C402 1.383 . S
C404 H415 0.931 . S
C405 C402 1.382 . S
C405 C403 1.392 . S
C406 Eu377 2.828 . S
C406 O390 1.249 . S
C406 O391 1.244 . S
C406 C400 1.505 . S
C407 O394 1.258 . S
C407 O395 1.242 . S
H408 C380 0.930 . S
H409 C381 0.930 . S
H410 C382 0.930 . S
H411 C383 0.931 . S
H412 C401 0.930 . S
H413 C402 0.930 . S
H414 C403 0.930 . S
H415 C404 0.931 . S
Eu416 C425 2.828 . S
Eu416 O427 2.392 . S
Eu416 O429 2.418 . S
Eu416 O434 2.373 . S
Eu416 O437 2.488 . S
Eu416 O438 2.471 . S
Eu416 O439 2.349 . S
Eu417 O426 2.373 . S
Eu417 O430 2.488 . S
Eu417 O431 2.471 . S
Eu417 O432 2.349 . S
Eu417 O435 2.392 . S
Eu417 O436 2.418 . S
Eu417 C446 2.828 . S
C418 O436 1.244 . S
C418 O439 1.265 . S
C419 C420 1.379 . S
C419 C423 1.373 . S
C419 C425 1.505 . S
C420 C419 1.379 . S
C420 C422 1.369 . S
C420 H448 0.930 . S
C421 C423 1.383 . S
C421 C424 1.382 . S
C421 H449 0.930 . S
C422 C420 1.369 . S
C422 C424 1.392 . S
C422 H450 0.930 . S
C423 C419 1.373 . S
C423 C421 1.383 . S
C423 H451 0.931 . S
C424 C421 1.382 . S
C424 C422 1.392 . S
C425 Eu416 2.828 . S
C425 C419 1.505 . S
C425 O437 1.249 . S
C425 O438 1.244 . S
O426 Eu417 2.373 . S
O426 C428 1.258 . S
O427 Eu416 2.392 . S
O427 C428 1.242 . S
C428 O426 1.258 . S
C428 O427 1.242 . S
O429 Eu416 2.418 . S
O429 C433 1.244 . S
O430 Eu417 2.488 . S
O430 C446 1.249 . S
O431 Eu417 2.471 . S
O431 C446 1.244 . S
O432 Eu417 2.349 . S
O432 C433 1.265 . S
C433 O429 1.244 . S
C433 O432 1.265 . S
O434 Eu416 2.373 . S
O434 C447 1.258 . S
O435 Eu417 2.392 . S
O435 C447 1.242 . S
O436 Eu417 2.418 . S
O436 C418 1.244 . S
O437 Eu416 2.488 . S
O437 C425 1.249 . S
O438 Eu416 2.471 . S
O438 C425 1.244 . S
O439 Eu416 2.349 . S
O439 C418 1.265 . S
C440 C441 1.379 . S
C440 C444 1.373 . S
C440 C446 1.505 . S
C441 C440 1.379 . S
C441 C443 1.369 . S
C441 H452 0.930 . S
C442 C444 1.383 . S
C442 C445 1.382 . S
C442 H453 0.930 . S
C443 C441 1.369 . S
C443 C445 1.392 . S
C443 H454 0.930 . S
C444 C440 1.373 . S
C444 C442 1.383 . S
C444 H455 0.931 . S
C445 C442 1.382 . S
C445 C443 1.392 . S
C446 Eu417 2.828 . S
C446 O430 1.249 . S
C446 O431 1.244 . S
C446 C440 1.505 . S
C447 O434 1.258 . S
C447 O435 1.242 . S
H448 C420 0.930 . S
H449 C421 0.930 . S
H450 C422 0.930 . S
H451 C423 0.931 . S
H452 C441 0.930 . S
H453 C442 0.930 . S
H454 C443 0.930 . S
H455 C444 0.931 . S
Eu456 C465 2.828 . S
Eu456 O467 2.392 . S
Eu456 O469 2.418 . S
Eu456 O474 2.373 . S
Eu456 O477 2.488 . S
Eu456 O478 2.471 . S
Eu456 O479 2.349 . S
Eu457 O466 2.373 . S
Eu457 O470 2.488 . S
Eu457 O471 2.471 . S
Eu457 O472 2.349 . S
Eu457 O475 2.392 . S
Eu457 O476 2.418 . S
Eu457 C486 2.828 . S
C458 O476 1.244 . S
C458 O479 1.265 . S
C459 C460 1.379 . S
C459 C463 1.373 . S
C459 C465 1.505 . S
C460 C459 1.379 . S
C460 C462 1.369 . S
C460 H488 0.930 . S
C461 C463 1.383 . S
C461 C464 1.382 . S
C461 H489 0.930 . S
C462 C460 1.369 . S
C462 C464 1.392 . S
C462 H490 0.930 . S
C463 C459 1.373 . S
C463 C461 1.383 . S
C463 H491 0.931 . S
C464 C461 1.382 . S
C464 C462 1.392 . S
C465 Eu456 2.828 . S
C465 C459 1.505 . S
C465 O477 1.249 . S
C465 O478 1.244 . S
O466 Eu457 2.373 . S
O466 C468 1.258 . S
O467 Eu456 2.392 . S
O467 C468 1.242 . S
C468 O466 1.258 . S
C468 O467 1.242 . S
O469 Eu456 2.418 . S
O469 C473 1.244 . S
O470 Eu457 2.488 . S
O470 C486 1.249 . S
O471 Eu457 2.471 . S
O471 C486 1.244 . S
O472 Eu457 2.349 . S
O472 C473 1.265 . S
C473 O469 1.244 . S
C473 O472 1.265 . S
O474 Eu456 2.373 . S
O474 C487 1.258 . S
O475 Eu457 2.392 . S
O475 C487 1.242 . S
O476 Eu457 2.418 . S
O476 C458 1.244 . S
O477 Eu456 2.488 . S
O477 C465 1.249 . S
O478 Eu456 2.471 . S
O478 C465 1.244 . S
O479 Eu456 2.349 . S
O479 C458 1.265 . S
C480 C481 1.379 . S
C480 C484 1.373 . S
C480 C486 1.505 . S
C481 C480 1.379 . S
C481 C483 1.369 . S
C481 H492 0.930 . S
C482 C484 1.383 . S
C482 C485 1.382 . S
C482 H493 0.930 . S
C483 C481 1.369 . S
C483 C485 1.392 . S
C483 H494 0.930 . S
C484 C480 1.373 . S
C484 C482 1.383 . S
C484 H495 0.931 . S
C485 C482 1.382 . S
C485 C483 1.392 . S
C486 Eu457 2.828 . S
C486 O470 1.249 . S
C486 O471 1.244 . S
C486 C480 1.505 . S
C487 O474 1.258 . S
C487 O475 1.242 . S
H488 C460 0.930 . S
H489 C461 0.930 . S
H490 C462 0.930 . S
H491 C463 0.931 . S
H492 C481 0.930 . S
H493 C482 0.930 . S
H494 C483 0.930 . S
H495 C484 0.931 . S
Eu496 C505 2.828 . S
Eu496 O507 2.392 . S
Eu496 O509 2.418 . S
Eu496 O514 2.373 . S
Eu496 O517 2.488 . S
Eu496 O518 2.471 . S
Eu496 O519 2.349 . S
Eu497 O506 2.373 . S
Eu497 O510 2.488 . S
Eu497 O511 2.471 . S
Eu497 O512 2.349 . S
Eu497 O515 2.392 . S
Eu497 O516 2.418 . S
Eu497 C526 2.828 . S
C498 O516 1.244 . S
C498 O519 1.265 . S
C499 C500 1.379 . S
C499 C503 1.373 . S
C499 C505 1.505 . S
C500 C499 1.379 . S
C500 C502 1.369 . S
C500 H528 0.930 . S
C501 C503 1.383 . S
C501 C504 1.382 . S
C501 H529 0.930 . S
C502 C500 1.369 . S
C502 C504 1.392 . S
C502 H530 0.930 . S
C503 C499 1.373 . S
C503 C501 1.383 . S
C503 H531 0.931 . S
C504 C501 1.382 . S
C504 C502 1.392 . S
C505 Eu496 2.828 . S
C505 C499 1.505 . S
C505 O517 1.249 . S
C505 O518 1.244 . S
O506 Eu497 2.373 . S
O506 C508 1.258 . S
O507 Eu496 2.392 . S
O507 C508 1.242 . S
C508 O506 1.258 . S
C508 O507 1.242 . S
O509 Eu496 2.418 . S
O509 C513 1.244 . S
O510 Eu497 2.488 . S
O510 C526 1.249 . S
O511 Eu497 2.471 . S
O511 C526 1.244 . S
O512 Eu497 2.349 . S
O512 C513 1.265 . S
C513 O509 1.244 . S
C513 O512 1.265 . S
O514 Eu496 2.373 . S
O514 C527 1.258 . S
O515 Eu497 2.392 . S
O515 C527 1.242 . S
O516 Eu497 2.418 . S
O516 C498 1.244 . S
O517 Eu496 2.488 . S
O517 C505 1.249 . S
O518 Eu496 2.471 . S
O518 C505 1.244 . S
O519 Eu496 2.349 . S
O519 C498 1.265 . S
C520 C521 1.379 . S
C520 C524 1.373 . S
C520 C526 1.505 . S
C521 C520 1.379 . S
C521 C523 1.369 . S
C521 H532 0.930 . S
C522 C524 1.383 . S
C522 C525 1.382 . S
C522 H533 0.930 . S
C523 C521 1.369 . S
C523 C525 1.392 . S
C523 H534 0.930 . S
C524 C520 1.373 . S
C524 C522 1.383 . S
C524 H535 0.931 . S
C525 C522 1.382 . S
C525 C523 1.392 . S
C526 Eu497 2.828 . S
C526 O510 1.249 . S
C526 O511 1.244 . S
C526 C520 1.505 . S
C527 O514 1.258 . S
C527 O515 1.242 . S
H528 C500 0.930 . S
H529 C501 0.930 . S
H530 C502 0.930 . S
H531 C503 0.931 . S
H532 C521 0.930 . S
H533 C522 0.930 . S
H534 C523 0.930 . S
H535 C524 0.931 . S
Eu536 C545 2.828 . S
Eu536 O547 2.392 . S
Eu536 O549 2.418 . S
Eu536 O554 2.373 . S
Eu536 O557 2.488 . S
Eu536 O558 2.471 . S
Eu536 O559 2.349 . S
Eu537 O546 2.373 . S
Eu537 O550 2.488 . S
Eu537 O551 2.471 . S
Eu537 O552 2.349 . S
Eu537 O555 2.392 . S
Eu537 O556 2.418 . S
Eu537 C566 2.828 . S
C538 O556 1.244 . S
C538 O559 1.265 . S
C539 C540 1.379 . S
C539 C543 1.373 . S
C539 C545 1.505 . S
C540 C539 1.379 . S
C540 C542 1.369 . S
C540 H568 0.930 . S
C541 C543 1.383 . S
C541 C544 1.382 . S
C541 H569 0.930 . S
C542 C540 1.369 . S
C542 C544 1.392 . S
C542 H570 0.930 . S
C543 C539 1.373 . S
C543 C541 1.383 . S
C543 H571 0.931 . S
C544 C541 1.382 . S
C544 C542 1.392 . S
C545 Eu536 2.828 . S
C545 C539 1.505 . S
C545 O557 1.249 . S
C545 O558 1.244 . S
O546 Eu537 2.373 . S
O546 C548 1.258 . S
O547 Eu536 2.392 . S
O547 C548 1.242 . S
C548 O546 1.258 . S
C548 O547 1.242 . S
O549 Eu536 2.418 . S
O549 C553 1.244 . S
O550 Eu537 2.488 . S
O550 C566 1.249 . S
O551 Eu537 2.471 . S
O551 C566 1.244 . S
O552 Eu537 2.349 . S
O552 C553 1.265 . S
C553 O549 1.244 . S
C553 O552 1.265 . S
O554 Eu536 2.373 . S
O554 C567 1.258 . S
O555 Eu537 2.392 . S
O555 C567 1.242 . S
O556 Eu537 2.418 . S
O556 C538 1.244 . S
O557 Eu536 2.488 . S
O557 C545 1.249 . S
O558 Eu536 2.471 . S
O558 C545 1.244 . S
O559 Eu536 2.349 . S
O559 C538 1.265 . S
C560 C561 1.379 . S
C560 C564 1.373 . S
C560 C566 1.505 . S
C561 C560 1.379 . S
C561 C563 1.369 . S
C561 H572 0.930 . S
C562 C564 1.383 . S
C562 C565 1.382 . S
C562 H573 0.930 . S
C563 C561 1.369 . S
C563 C565 1.392 . S
C563 H574 0.930 . S
C564 C560 1.373 . S
C564 C562 1.383 . S
C564 H575 0.931 . S
C565 C562 1.382 . S
C565 C563 1.392 . S
C566 Eu537 2.828 . S
C566 O550 1.249 . S
C566 O551 1.244 . S
C566 C560 1.505 . S
C567 O554 1.258 . S
C567 O555 1.242 . S
H568 C540 0.930 . S
H569 C541 0.930 . S
H570 C542 0.930 . S
H571 C543 0.931 . S
H572 C561 0.930 . S
H573 C562 0.930 . S
H574 C563 0.930 . S
H575 C564 0.931 . S
H576 C582 0.930 . S
H577 C585 0.930 . S
H578 C586 0.930 . S
H579 C587 0.930 . S
H580 C590 0.930 1_556 S
H581 C591 0.930 1_556 S
C582 H576 0.930 . S
C582 C583 1.355 . S
C582 C584 1.415 . S
C583 C582 1.355 . S
C583 C585 1.419 . S
C584 C582 1.415 . S
C584 C589 1.425 . S
C584 C591 1.409 . S
C585 H577 0.930 . S
C585 C583 1.419 . S
C585 C586 1.362 . S
C586 H578 0.930 . S
C586 C585 1.362 . S
C586 C589 1.409 . S
C587 H579 0.930 . S
C587 C588 1.355 . S
C587 C589 1.415 . S
C588 C587 1.355 . S
C588 C590 1.419 . S
C589 C584 1.425 . S
C589 C586 1.409 . S
C589 C587 1.415 . S
C590 H580 0.930 1_554 S
C590 C588 1.419 . S
C590 C591 1.362 . S
C591 H581 0.930 1_554 S
C591 C584 1.409 . S
C591 C590 1.362 . S
H592 C598 0.930 . S
H593 C601 0.930 . S
H594 C602 0.930 . S
H595 C603 0.930 . S
H596 C606 0.930 . S
H597 C607 0.930 . S
C598 H592 0.930 . S
C598 C599 1.355 . S
C598 C600 1.415 . S
C599 C598 1.355 . S
C599 C601 1.419 . S
C600 C598 1.415 . S
C600 C605 1.425 . S
C600 C607 1.409 . S
C601 H593 0.930 . S
C601 C599 1.419 . S
C601 C602 1.362 . S
C602 H594 0.930 . S
C602 C601 1.362 . S
C602 C605 1.409 . S
C603 H595 0.930 . S
C603 C604 1.355 . S
C603 C605 1.415 . S
C604 C603 1.355 . S
C604 C606 1.419 . S
C605 C600 1.425 . S
C605 C602 1.409 . S
C605 C603 1.415 . S
C606 H596 0.930 . S
C606 C604 1.419 . S
C606 C607 1.362 . S
C607 H597 0.930 . S
C607 C600 1.409 . S
C607 C606 1.362 . S
H608 C614 0.930 . S
H609 C617 0.930 1_556 S
H610 C618 0.881 1_556 S
H611 C619 0.930 1_556 S
H612 C622 0.930 . S
H613 C623 0.930 . S
C614 H608 0.930 . S
C614 C615 1.355 . S
C614 C616 1.415 . S
C615 C614 1.355 . S
C615 C617 1.419 . S
C616 C614 1.415 . S
C616 C621 1.425 . S
C616 C623 1.409 . S
C617 H609 0.930 1_554 S
C617 C615 1.419 . S
C617 C618 1.376 . S
C618 H610 0.881 1_554 S
C618 C617 1.376 . S
C618 C621 1.445 . S
C619 H611 0.930 1_554 S
C619 C620 1.355 . S
C619 C621 1.415 . S
C620 C619 1.355 . S
C620 C622 1.419 . S
C621 C616 1.425 . S
C621 C618 1.445 . S
C621 C619 1.415 . S
C622 H612 0.930 . S
C622 C620 1.419 . S
C622 C623 1.362 . S
C623 H613 0.930 . S
C623 C616 1.409 . S
C623 C622 1.362 . S
H624 C630 0.930 . S
H625 C633 0.930 . S
H626 C634 0.939 . S
H627 C635 0.905 1_554 S
H628 C638 0.930 . S
H629 C639 0.930 . S
C630 H624 0.930 . S
C630 C631 1.355 . S
C630 C632 1.415 . S
C631 C630 1.355 . S
C631 C633 1.419 . S
C632 C630 1.415 . S
C632 C637 1.425 . S
C632 C639 1.409 . S
C633 H625 0.930 . S
C633 C631 1.419 . S
C633 C634 1.359 1_556 S
C634 H626 0.939 . S
C634 C633 1.359 1_554 S
C634 C637 1.404 1_554 S
C635 H627 0.905 1_556 S
C635 C636 1.371 . S
C635 C637 1.423 . S
C636 C635 1.371 . S
C636 C638 1.419 . S
C637 C632 1.425 . S
C637 C634 1.404 1_556 S
C637 C635 1.423 . S
C638 H628 0.930 . S
C638 C636 1.419 . S
C638 C639 1.362 . S
C639 H629 0.930 . S
C639 C632 1.409 . S
C639 C638 1.362 . S
H640 C646 0.930 . S
H641 C649 0.930 . S
H642 C650 0.930 . S
H643 C651 0.930 . S
H644 C654 0.983 . S
H645 C655 0.930 1_554 S
C646 H640 0.930 . S
C646 C647 1.355 . S
C646 C648 1.415 . S
C647 C646 1.355 . S
C647 C649 1.419 . S
C648 C646 1.415 . S
C648 C653 1.425 . S
C648 C655 1.409 . S
C649 H641 0.930 . S
C649 C647 1.419 . S
C649 C650 1.362 . S
C650 H642 0.930 . S
C650 C649 1.362 . S
C650 C653 1.409 . S
C651 H643 0.930 . S
C651 C652 1.355 . S
C651 C653 1.415 . S
C652 C651 1.355 . S
C652 C654 1.384 1_556 S
C653 C648 1.425 . S
C653 C650 1.409 . S
C653 C651 1.415 . S
C654 H644 0.983 . S
C654 C652 1.384 1_554 S
C654 C655 1.346 1_554 S
C655 H645 0.930 1_556 S
C655 C648 1.409 . S
C655 C654 1.346 1_556 S
H656 C662 0.930 1_554 S
H657 C665 0.930 . S
H658 C666 0.930 . S
H659 C667 0.930 . S
H660 C670 0.930 . S
H661 C671 0.930 . S
C662 H656 0.930 1_556 S
C662 C663 1.355 . S
C662 C664 1.415 . S
C663 C662 1.355 . S
C663 C665 1.419 . S
C664 C662 1.415 . S
C664 C669 1.425 . S
C664 C671 1.409 1_556 S
C665 H657 0.930 . S
C665 C663 1.419 . S
C665 C666 1.362 . S
C666 H658 0.930 . S
C666 C665 1.362 . S
C666 C669 1.409 . S
C667 H659 0.930 . S
C667 C668 1.395 . S
C667 C669 1.415 . S
C668 C667 1.395 . S
C668 C670 1.383 1_556 S
C669 C664 1.425 . S
C669 C666 1.409 . S
C669 C667 1.415 . S
C670 H660 0.930 . S
C670 C668 1.383 1_554 S
C670 C671 1.362 . S
C671 H661 0.930 . S
C671 C664 1.409 1_554 S
C671 C670 1.362 . S
H672 C678 0.930 . S
H673 C681 0.930 . S
H674 C682 0.930 . S
H675 C683 0.933 . S
H676 C686 0.930 . S
H677 C687 0.930 . S
C678 H672 0.930 . S
C678 C679 1.355 . S
C678 C680 1.415 . S
C679 C678 1.355 . S
C679 C681 1.419 . S
C680 C678 1.415 . S
C680 C685 1.425 . S
C680 C687 1.409 . S
C681 H673 0.930 . S
C681 C679 1.419 . S
C681 C682 1.362 . S
C682 H674 0.930 . S
C682 C681 1.362 . S
C682 C685 1.409 . S
C683 H675 0.933 . S
C683 C684 1.355 . S
C683 C685 1.415 . S
C684 C683 1.355 . S
C684 C686 1.419 . S
C685 C680 1.425 . S
C685 C682 1.409 . S
C685 C683 1.415 . S
C686 H676 0.930 . S
C686 C684 1.419 . S
C686 C687 1.362 . S
C687 H677 0.930 . S
C687 C680 1.409 . S
C687 C686 1.362 . S
H688 C694 0.930 . S
H689 C697 0.930 . S
H690 C698 0.930 . S
H691 C699 0.930 . S
H692 C702 0.930 . S
H693 C703 0.930 . S
C694 H688 0.930 . S
C694 C695 1.355 . S
C694 C696 1.415 . S
C695 C694 1.355 . S
C695 C697 1.419 . S
C696 C694 1.415 . S
C696 C701 1.425 . S
C696 C703 1.409 . S
C697 H689 0.930 . S
C697 C695 1.419 . S
C697 C698 1.362 . S
C698 H690 0.930 . S
C698 C697 1.362 . S
C698 C701 1.409 . S
C699 H691 0.930 . S
C699 C700 1.355 . S
C699 C701 1.415 . S
C700 C699 1.355 . S
C700 C702 1.419 . S
C701 C696 1.425 . S
C701 C698 1.409 . S
C701 C699 1.415 . S
C702 H692 0.930 . S
C702 C700 1.419 . S
C702 C703 1.362 . S
C703 H693 0.930 . S
C703 C696 1.409 . S
C703 C702 1.362 . S
H704 C710 0.930 . S
H705 C713 0.936 . S
H706 C714 0.934 . S
H707 C715 0.930 . S
H708 C718 0.930 . S
H709 C719 0.930 . S
C710 H704 0.930 . S
C710 C711 1.355 . S
C710 C712 1.415 . S
C711 C710 1.355 . S
C711 C713 1.419 . S
C712 C710 1.415 . S
C712 C717 1.425 . S
C712 C719 1.409 . S
C713 H705 0.936 . S
C713 C711 1.419 . S
C713 C714 1.362 1_556 S
C714 H706 0.934 . S
C714 C713 1.362 1_554 S
C714 C717 1.406 1_554 S
C715 H707 0.930 . S
C715 C716 1.353 1_554 S
C715 C717 1.415 1_554 S
C716 C715 1.353 1_556 S
C716 C718 1.421 . S
C717 C712 1.425 . S
C717 C714 1.406 1_556 S
C717 C715 1.415 1_556 S
C718 H708 0.930 . S
C718 C716 1.421 . S
C718 C719 1.362 . S
C719 H709 0.930 . S
C719 C712 1.409 . S
C719 C718 1.362 . S
H720 C726 0.930 . S
H721 C729 0.930 . S
H722 C730 0.930 . S
H723 C731 0.930 . S
H724 C734 0.930 . S
H725 C735 0.930 . S
C726 H720 0.930 . S
C726 C727 1.355 . S
C726 C728 1.415 . S
C727 C726 1.355 . S
C727 C729 1.419 . S
C728 C726 1.415 . S
C728 C733 1.425 . S
C728 C735 1.409 1_554 S
C729 H721 0.930 . S
C729 C727 1.419 . S
C729 C730 1.362 . S
C730 H722 0.930 . S
C730 C729 1.362 . S
C730 C733 1.409 . S
C731 H723 0.930 . S
C731 C732 1.355 . S
C731 C733 1.415 . S
C732 C731 1.355 . S
C732 C734 1.419 1_554 S
C733 C728 1.425 . S
C733 C730 1.409 . S
C733 C731 1.415 . S
C734 H724 0.930 . S
C734 C732 1.419 1_556 S
C734 C735 1.362 . S
C735 H725 0.930 . S
C735 C728 1.409 1_556 S
C735 C734 1.362 . S
H736 C742 0.930 . S
H737 C745 0.930 . S
H738 C746 0.930 . S
H739 C747 0.930 . S
H740 C750 0.930 . S
H741 C751 0.930 . S
C742 H736 0.930 . S
C742 C743 1.355 . S
C742 C744 1.415 . S
C743 C742 1.355 . S
C743 C745 1.419 . S
C744 C742 1.415 . S
C744 C749 1.425 . S
C744 C751 1.409 . S
C745 H737 0.930 . S
C745 C743 1.419 . S
C745 C746 1.362 . S
C746 H738 0.930 . S
C746 C745 1.362 . S
C746 C749 1.409 . S
C747 H739 0.930 . S
C747 C748 1.355 . S
C747 C749 1.415 . S
C748 C747 1.355 . S
C748 C750 1.419 . S
C749 C744 1.425 . S
C749 C746 1.409 . S
C749 C747 1.415 . S
C750 H740 0.930 . S
C750 C748 1.419 . S
C750 C751 1.362 . S
C751 H741 0.930 . S
C751 C744 1.409 . S
C751 C750 1.362 . S
H752 C758 0.930 . S
H753 C761 0.930 . S
H754 C762 0.930 . S
H755 C763 0.930 . S
H756 C766 0.930 . S
H757 C767 0.930 . S
C758 H752 0.930 . S
C758 C759 1.355 . S
C758 C760 1.415 . S
C759 C758 1.355 . S
C759 C761 1.419 . S
C760 C758 1.415 . S
C760 C765 1.425 . S
C760 C767 1.409 . S
C761 H753 0.930 . S
C761 C759 1.419 . S
C761 C762 1.362 . S
C762 H754 0.930 . S
C762 C761 1.362 . S
C762 C765 1.409 . S
C763 H755 0.930 . S
C763 C764 1.355 . S
C763 C765 1.415 . S
C764 C763 1.355 . S
C764 C766 1.419 . S
C765 C760 1.425 . S
C765 C762 1.409 . S
C765 C763 1.415 . S
C766 H756 0.930 . S
C766 C764 1.419 . S
C766 C767 1.362 . S
C767 H757 0.930 . S
C767 C760 1.409 . S
C767 C766 1.362 . S
H768 C774 0.930 . S
H769 C777 0.930 . S
H770 C778 0.930 . S
H771 C779 0.930 . S
H772 C782 0.930 . S
H773 C783 0.930 . S
C774 H768 0.930 . S
C774 C775 1.355 . S
C774 C776 1.415 . S
C775 C774 1.355 . S
C775 C777 1.419 . S
C776 C774 1.415 . S
C776 C781 1.425 . S
C776 C783 1.409 . S
C777 H769 0.930 . S
C777 C775 1.419 . S
C777 C778 1.362 . S
C778 H770 0.930 . S
C778 C777 1.362 . S
C778 C781 1.409 . S
C779 H771 0.930 . S
C779 C780 1.355 . S
C779 C781 1.415 1_455 S
C780 C779 1.355 . S
C780 C782 1.419 . S
C781 C776 1.425 . S
C781 C778 1.409 . S
C781 C779 1.415 1_655 S
C782 H772 0.930 . S
C782 C780 1.419 . S
C782 C783 1.362 1_455 S
C783 H773 0.930 . S
C783 C776 1.409 . S
C783 C782 1.362 1_655 S
H784 C790 0.930 . S
H785 C793 0.930 . S
H786 C794 0.930 . S
H787 C795 0.930 . S
H788 C798 0.930 . S
H789 C799 0.930 . S
C790 H784 0.930 . S
C790 C791 1.355 . S
C790 C792 1.415 . S
C791 C790 1.355 . S
C791 C793 1.419 . S
C792 C790 1.415 . S
C792 C797 1.425 . S
C792 C799 1.409 . S
C793 H785 0.930 . S
C793 C791 1.419 . S
C793 C794 1.362 . S
C794 H786 0.930 . S
C794 C793 1.362 . S
C794 C797 1.409 . S
C795 H787 0.930 . S
C795 C796 1.355 . S
C795 C797 1.415 . S
C796 C795 1.355 . S
C796 C798 1.419 . S
C797 C792 1.425 . S
C797 C794 1.409 . S
C797 C795 1.415 . S
C798 H788 0.930 . S
C798 C796 1.419 . S
C798 C799 1.362 . S
C799 H789 0.930 . S
C799 C792 1.409 . S
C799 C798 1.362 . S
H800 C806 0.930 . S
H801 C809 0.930 . S
H802 C810 0.930 . S
H803 C811 0.930 . S
H804 C814 0.930 . S
H805 C815 0.939 . S
C806 H800 0.930 . S
C806 C807 1.355 . S
C806 C808 1.415 . S
C807 C806 1.355 . S
C807 C809 1.419 . S
C808 C806 1.415 . S
C808 C813 1.425 . S
C808 C815 1.409 1_545 S
C809 H801 0.930 . S
C809 C807 1.419 . S
C809 C810 1.362 . S
C810 H802 0.930 . S
C810 C809 1.362 . S
C810 C813 1.409 . S
C811 H803 0.930 . S
C811 C812 1.355 . S
C811 C813 1.415 1_565 S
C812 C811 1.355 . S
C812 C814 1.419 . S
C813 C808 1.425 . S
C813 C810 1.409 . S
C813 C811 1.415 1_545 S
C814 H804 0.930 . S
C814 C812 1.419 . S
C814 C815 1.362 . S
C815 H805 0.939 . S
C815 C808 1.409 1_565 S
C815 C814 1.362 . S
H816 C822 0.930 . S
H817 C825 0.930 . S
H818 C826 0.930 . S
H819 C827 0.930 . S
H820 C830 0.930 . S
H821 C831 0.930 . S
C822 H816 0.930 . S
C822 C823 1.355 . S
C822 C824 1.415 . S
C823 C822 1.355 . S
C823 C825 1.419 . S
C824 C822 1.415 . S
C824 C829 1.425 . S
C824 C831 1.409 . S
C825 H817 0.930 . S
C825 C823 1.419 . S
C825 C826 1.362 . S
C826 H818 0.930 . S
C826 C825 1.362 . S
C826 C829 1.409 . S
C827 H819 0.930 . S
C827 C828 1.355 . S
C827 C829 1.415 . S
C828 C827 1.355 . S
C828 C830 1.419 . S
C829 C824 1.425 . S
C829 C826 1.409 . S
C829 C827 1.415 . S
C830 H820 0.930 . S
C830 C828 1.419 . S
C830 C831 1.362 . S
C831 H821 0.930 . S
C831 C824 1.409 . S
C831 C830 1.362 . S
H832 C838 0.930 . S
H833 C841 0.930 . S
H834 C842 0.930 . S
H835 C843 0.930 . S
H836 C846 0.930 . S
H837 C847 0.930 . S
C838 H832 0.930 . S
C838 C839 1.355 . S
C838 C840 1.415 . S
C839 C838 1.355 . S
C839 C841 1.419 . S
C840 C838 1.415 . S
C840 C845 1.425 . S
C840 C847 1.409 . S
C841 H833 0.930 . S
C841 C839 1.419 . S
C841 C842 1.362 . S
C842 H834 0.930 . S
C842 C841 1.362 . S
C842 C845 1.409 . S
C843 H835 0.930 . S
C843 C844 1.355 . S
C843 C845 1.415 . S
C844 C843 1.355 . S
C844 C846 1.419 . S
C845 C840 1.425 . S
C845 C842 1.409 . S
C845 C843 1.415 . S
C846 H836 0.930 . S
C846 C844 1.419 . S
C846 C847 1.362 . S
C847 H837 0.930 . S
C847 C840 1.409 . S
C847 C846 1.362 . S
H848 C854 0.930 . S
H849 C857 0.930 . S
H850 C858 0.930 . S
H851 C859 0.930 . S
H852 C862 0.930 . S
H853 C863 0.930 . S
C854 H848 0.930 . S
C854 C855 1.355 . S
C854 C856 1.415 . S
C855 C854 1.355 . S
C855 C857 1.419 . S
C856 C854 1.415 . S
C856 C861 1.425 . S
C856 C863 1.409 . S
C857 H849 0.930 . S
C857 C855 1.419 . S
C857 C858 1.362 . S
C858 H850 0.930 . S
C858 C857 1.362 . S
C858 C861 1.409 . S
C859 H851 0.930 . S
C859 C860 1.355 . S
C859 C861 1.415 . S
C860 C859 1.355 . S
C860 C862 1.419 . S
C861 C856 1.425 . S
C861 C858 1.409 . S
C861 C859 1.415 . S
C862 H852 0.930 . S
C862 C860 1.419 . S
C862 C863 1.362 . S
C863 H853 0.930 . S
C863 C856 1.409 . S
C863 C862 1.362 . S
H864 C870 0.930 . S
H865 C873 0.930 . S
H866 C874 0.930 . S
H867 C875 0.930 . S
H868 C878 0.930 . S
H869 C879 0.930 . S
C870 H864 0.930 . S
C870 C871 1.355 . S
C870 C872 1.415 . S
C871 C870 1.355 . S
C871 C873 1.419 . S
C872 C870 1.415 . S
C872 C877 1.425 . S
C872 C879 1.409 . S
C873 H865 0.930 . S
C873 C871 1.419 . S
C873 C874 1.362 . S
C874 H866 0.930 . S
C874 C873 1.362 . S
C874 C877 1.409 . S
C875 H867 0.930 . S
C875 C876 1.355 . S
C875 C877 1.415 . S
C876 C875 1.355 . S
C876 C878 1.419 . S
C877 C872 1.425 . S
C877 C874 1.409 . S
C877 C875 1.415 . S
C878 H868 0.930 . S
C878 C876 1.419 . S
C878 C879 1.362 . S
C879 H869 0.930 . S
C879 C872 1.409 . S
C879 C878 1.362 . S
H880 C886 0.930 . S
H881 C889 0.930 . S
H882 C890 0.930 . S
H883 C891 0.930 . S
H884 C894 0.930 . S
H885 C895 0.930 . S
C886 H880 0.930 . S
C886 C887 1.355 . S
C886 C888 1.415 . S
C887 C886 1.355 . S
C887 C889 1.419 . S
C888 C886 1.415 . S
C888 C893 1.425 . S
C888 C895 1.409 . S
C889 H881 0.930 . S
C889 C887 1.419 . S
C889 C890 1.362 . S
C890 H882 0.930 . S
C890 C889 1.362 . S
C890 C893 1.409 . S
C891 H883 0.930 . S
C891 C892 1.355 . S
C891 C893 1.415 . S
C892 C891 1.355 . S
C892 C894 1.419 . S
C893 C888 1.425 . S
C893 C890 1.409 . S
C893 C891 1.415 . S
C894 H884 0.930 . S
C894 C892 1.419 . S
C894 C895 1.362 . S
C895 H885 0.930 . S
C895 C888 1.409 . S
C895 C894 1.362 . S
H896 C902 0.930 . S
H897 C905 0.930 . S
H898 C906 0.930 . S
H899 C907 0.930 . S
H900 C910 0.930 . S
H901 C911 0.930 . S
C902 H896 0.930 . S
C902 C903 1.355 . S
C902 C904 1.415 . S
C903 C902 1.355 . S
C903 C905 1.419 . S
C904 C902 1.415 . S
C904 C909 1.425 . S
C904 C911 1.409 . S
C905 H897 0.930 . S
C905 C903 1.419 . S
C905 C906 1.362 . S
C906 H898 0.930 . S
C906 C905 1.362 . S
C906 C909 1.409 . S
C907 H899 0.930 . S
C907 C908 1.355 . S
C907 C909 1.415 . S
C908 C907 1.355 . S
C908 C910 1.419 . S
C909 C904 1.425 . S
C909 C906 1.409 . S
C909 C907 1.415 . S
C910 H900 0.930 . S
C910 C908 1.419 . S
C910 C911 1.362 . S
C911 H901 0.930 . S
C911 C904 1.409 . S
C911 C910 1.362 . S
H912 C918 0.930 . S
H913 C921 0.930 . S
H914 C922 0.930 . S
H915 C923 0.930 . S
H916 C926 0.930 . S
H917 C927 0.930 . S
C918 H912 0.930 . S
C918 C919 1.355 . S
C918 C920 1.415 1_545 S
C919 C918 1.355 . S
C919 C921 1.419 . S
C920 C918 1.415 1_565 S
C920 C925 1.425 . S
C920 C927 1.409 . S
C921 H913 0.930 . S
C921 C919 1.419 . S
C921 C922 1.362 1_545 S
C922 H914 0.930 . S
C922 C921 1.362 1_565 S
C922 C925 1.409 . S
C923 H915 0.930 . S
C923 C924 1.355 . S
C923 C925 1.415 . S
C924 C923 1.355 . S
C924 C926 1.419 . S
C925 C920 1.425 . S
C925 C922 1.409 . S
C925 C923 1.415 . S
C926 H916 0.930 . S
C926 C924 1.419 . S
C926 C927 1.362 . S
C927 H917 0.930 . S
C927 C920 1.409 . S
C927 C926 1.362 . S
H928 C934 0.930 . S
H929 C937 0.930 . S
H930 C938 0.930 . S
H931 C939 0.930 . S
H932 C942 0.930 . S
H933 C943 0.930 . S
C934 H928 0.930 . S
C934 C935 1.355 . S
C934 C936 1.415 . S
C935 C934 1.355 . S
C935 C937 1.419 . S
C936 C934 1.415 . S
C936 C941 1.425 . S
C936 C943 1.409 . S
C937 H929 0.930 . S
C937 C935 1.419 . S
C937 C938 1.362 . S
C938 H930 0.930 . S
C938 C937 1.362 . S
C938 C941 1.409 . S
C939 H931 0.930 . S
C939 C940 1.355 . S
C939 C941 1.415 . S
C940 C939 1.355 . S
C940 C942 1.419 . S
C941 C936 1.425 . S
C941 C938 1.409 . S
C941 C939 1.415 . S
C942 H932 0.930 . S
C942 C940 1.419 . S
C942 C943 1.362 . S
C943 H933 0.930 . S
C943 C936 1.409 . S
C943 C942 1.362 . S
H944 C950 0.930 . S
H945 C953 0.930 . S
H946 C954 0.930 . S
H947 C955 0.930 . S
H948 C958 0.930 . S
H949 C959 0.930 . S
C950 H944 0.930 . S
C950 C951 1.355 . S
C950 C952 1.415 . S
C951 C950 1.355 . S
C951 C953 1.419 . S
C952 C950 1.415 . S
C952 C957 1.425 . S
C952 C959 1.409 . S
C953 H945 0.930 . S
C953 C951 1.419 . S
C953 C954 1.362 . S
C954 H946 0.930 . S
C954 C953 1.362 . S
C954 C957 1.409 . S
C955 H947 0.930 . S
C955 C956 1.355 . S
C955 C957 1.415 . S
C956 C955 1.355 . S
C956 C958 1.419 . S
C957 C952 1.425 . S
C957 C954 1.409 . S
C957 C955 1.415 . S
C958 H948 0.930 . S
C958 C956 1.419 . S
C958 C959 1.362 . S
C959 H949 0.930 . S
C959 C952 1.409 . S
C959 C958 1.362 . S
H960 C966 0.930 . S
H961 C969 0.930 . S
H962 C970 0.930 . S
H963 C971 0.930 . S
H964 C974 0.930 . S
H965 C975 0.930 . S
C966 H960 0.930 . S
C966 C967 1.355 . S
C966 C968 1.415 . S
C967 C966 1.355 . S
C967 C969 1.419 . S
C968 C966 1.415 . S
C968 C973 1.425 . S
C968 C975 1.409 . S
C969 H961 0.930 . S
C969 C967 1.419 . S
C969 C970 1.362 . S
C970 H962 0.930 . S
C970 C969 1.362 . S
C970 C973 1.409 . S
C971 H963 0.930 . S
C971 C972 1.355 . S
C971 C973 1.415 . S
C972 C971 1.355 . S
C972 C974 1.419 . S
C973 C968 1.425 . S
C973 C970 1.409 . S
C973 C971 1.415 . S
C974 H964 0.930 . S
C974 C972 1.419 . S
C974 C975 1.362 . S
C975 H965 0.930 . S
C975 C968 1.409 . S
C975 C974 1.362 . S
H976 C982 0.930 . S
H977 C985 0.930 . S
H978 C986 0.930 . S
H979 C987 0.930 . S
H980 C990 0.930 . S
H981 C991 0.930 . S
C982 H976 0.930 . S
C982 C983 1.355 . S
C982 C984 1.415 . S
C983 C982 1.355 . S
C983 C985 1.419 . S
C984 C982 1.415 . S
C984 C989 1.425 . S
C984 C991 1.409 . S
C985 H977 0.930 . S
C985 C983 1.419 . S
C985 C986 1.362 . S
C986 H978 0.930 . S
C986 C985 1.362 . S
C986 C989 1.409 . S
C987 H979 0.930 . S
C987 C988 1.355 . S
C987 C989 1.415 . S
C988 C987 1.355 . S
C988 C990 1.419 . S
C989 C984 1.425 . S
C989 C986 1.409 . S
C989 C987 1.415 . S
C990 H980 0.930 . S
C990 C988 1.419 . S
C990 C991 1.362 . S
C991 H981 0.930 . S
C991 C984 1.409 . S
C991 C990 1.362 . S
H992 C998 0.930 . S
H993 C1001 0.930 . S
H994 C1002 0.930 . S
H995 C1003 0.930 . S
H996 C1006 0.930 . S
H997 C1007 0.930 . S
C998 H992 0.930 . S
C998 C999 1.355 . S
C998 C1000 1.415 . S
C999 C998 1.355 . S
C999 C1001 1.419 . S
C1000 C998 1.415 . S
C1000 C1005 1.425 . S
C1000 C1007 1.409 . S
C1001 H993 0.930 . S
C1001 C999 1.419 . S
C1001 C1002 1.362 . S
C1002 H994 0.930 . S
C1002 C1001 1.362 . S
C1002 C1005 1.409 . S
C1003 H995 0.930 . S
C1003 C1004 1.355 . S
C1003 C1005 1.415 . S
C1004 C1003 1.355 . S
C1004 C1006 1.419 . S
C1005 C1000 1.425 . S
C1005 C1002 1.409 . S
C1005 C1003 1.415 . S
C1006 H996 0.930 . S
C1006 C1004 1.419 . S
C1006 C1007 1.362 . S
C1007 H997 0.930 . S
C1007 C1000 1.409 . S
C1007 C1006 1.362 . S
H1008 C1014 0.930 . S
H1009 C1017 0.930 . S
H1010 C1018 0.930 . S
H1011 C1019 0.930 . S
H1012 C1022 0.930 . S
H1013 C1023 0.930 . S
C1014 H1008 0.930 . S
C1014 C1015 1.355 . S
C1014 C1016 1.415 . S
C1015 C1014 1.355 . S
C1015 C1017 1.419 . S
C1016 C1014 1.415 . S
C1016 C1021 1.425 . S
C1016 C1023 1.409 . S
C1017 H1009 0.930 . S
C1017 C1015 1.419 . S
C1017 C1018 1.362 . S
C1018 H1010 0.930 . S
C1018 C1017 1.362 . S
C1018 C1021 1.409 . S
C1019 H1011 0.930 . S
C1019 C1020 1.355 . S
C1019 C1021 1.415 1_545 S
C1020 C1019 1.355 . S
C1020 C1022 1.419 . S
C1021 C1016 1.425 . S
C1021 C1018 1.409 . S
C1021 C1019 1.415 1_565 S
C1022 H1012 0.930 . S
C1022 C1020 1.419 . S
C1022 C1023 1.362 1_545 S
C1023 H1013 0.930 . S
C1023 C1016 1.409 . S
C1023 C1022 1.362 1_565 S
H1024 C1030 0.930 . S
H1025 C1033 0.930 . S
H1026 C1034 0.930 . S
H1027 C1035 0.930 . S
H1028 C1038 0.930 . S
H1029 C1039 0.930 . S
C1030 H1024 0.930 . S
C1030 C1031 1.355 . S
C1030 C1032 1.415 . S
C1031 C1030 1.355 . S
C1031 C1033 1.419 . S
C1032 C1030 1.415 . S
C1032 C1037 1.425 . S
C1032 C1039 1.409 1_455 S
C1033 H1025 0.930 . S
C1033 C1031 1.419 . S
C1033 C1034 1.362 . S
C1034 H1026 0.930 . S
C1034 C1033 1.362 . S
C1034 C1037 1.409 . S
C1035 H1027 0.930 . S
C1035 C1036 1.355 . S
C1035 C1037 1.415 1_655 S
C1036 C1035 1.355 . S
C1036 C1038 1.419 . S
C1037 C1032 1.425 . S
C1037 C1034 1.409 . S
C1037 C1035 1.415 1_455 S
C1038 H1028 0.930 . S
C1038 C1036 1.419 . S
C1038 C1039 1.362 . S
C1039 H1029 0.930 . S
C1039 C1032 1.409 1_655 S
C1039 C1038 1.362 . S
H1040 C1046 0.930 . S
H1041 C1049 0.930 . S
H1042 C1050 0.930 . S
H1043 C1051 0.930 . S
H1044 C1054 0.930 . S
H1045 C1055 0.930 . S
C1046 H1040 0.930 . S
C1046 C1047 1.355 . S
C1046 C1048 1.415 . S
C1047 C1046 1.355 . S
C1047 C1049 1.419 . S
C1048 C1046 1.415 . S
C1048 C1053 1.425 . S
C1048 C1055 1.409 . S
C1049 H1041 0.930 . S
C1049 C1047 1.419 . S
C1049 C1050 1.362 . S
C1050 H1042 0.930 . S
C1050 C1049 1.362 . S
C1050 C1053 1.409 . S
C1051 H1043 0.930 . S
C1051 C1052 1.355 . S
C1051 C1053 1.415 . S
C1052 C1051 1.355 . S
C1052 C1054 1.419 . S
C1053 C1048 1.425 . S
C1053 C1050 1.409 . S
C1053 C1051 1.415 . S
C1054 H1044 0.930 . S
C1054 C1052 1.419 . S
C1054 C1055 1.362 . S
C1055 H1045 0.930 . S
C1055 C1048 1.409 . S
C1055 C1054 1.362 . S
H1056 C1062 0.930 1_455 S
H1057 C1065 0.930 . S
H1058 C1066 0.930 . S
H1059 C1067 0.930 . S
H1060 C1070 0.930 . S
H1061 C1071 0.930 . S
C1062 H1056 0.930 1_655 S
C1062 C1063 1.355 1_655 S
C1062 C1064 1.415 . S
C1063 C1062 1.355 1_455 S
C1063 C1065 1.419 . S
C1064 C1062 1.415 . S
C1064 C1069 1.425 . S
C1064 C1071 1.409 . S
C1065 H1057 0.930 . S
C1065 C1063 1.419 . S
C1065 C1066 1.362 1_455 S
C1066 H1058 0.930 . S
C1066 C1065 1.362 1_655 S
C1066 C1069 1.409 . S
C1067 H1059 0.930 . S
C1067 C1068 1.355 . S
C1067 C1069 1.415 . S
C1068 C1067 1.355 . S
C1068 C1070 1.419 . S
C1069 C1064 1.425 . S
C1069 C1066 1.409 . S
C1069 C1067 1.415 . S
C1070 H1060 0.930 . S
C1070 C1068 1.419 . S
C1070 C1071 1.362 . S
C1071 H1061 0.930 . S
C1071 C1064 1.409 . S
C1071 C1070 1.362 . S
H1072 C1078 0.930 . S
H1073 C1081 0.930 . S
H1074 C1082 0.930 . S
H1075 C1083 0.930 . S
H1076 C1086 0.930 . S
H1077 C1087 0.930 . S
C1078 H1072 0.930 . S
C1078 C1079 1.355 . S
C1078 C1080 1.415 . S
C1079 C1078 1.355 . S
C1079 C1081 1.419 . S
C1080 C1078 1.415 . S
C1080 C1085 1.425 . S
C1080 C1087 1.409 . S
C1081 H1073 0.930 . S
C1081 C1079 1.419 . S
C1081 C1082 1.362 . S
C1082 H1074 0.930 . S
C1082 C1081 1.362 . S
C1082 C1085 1.409 . S
C1083 H1075 0.930 . S
C1083 C1084 1.355 . S
C1083 C1085 1.415 . S
C1084 C1083 1.355 . S
C1084 C1086 1.419 . S
C1085 C1080 1.425 . S
C1085 C1082 1.409 . S
C1085 C1083 1.415 . S
C1086 H1076 0.930 . S
C1086 C1084 1.419 . S
C1086 C1087 1.362 . S
C1087 H1077 0.930 . S
C1087 C1080 1.409 . S
C1087 C1086 1.362 . S
H1088 C1094 0.930 1_565 S
H1089 C1097 0.930 . S
H1090 C1098 0.930 . S
H1091 C1099 0.930 . S
H1092 C1102 0.930 . S
H1093 C1103 0.930 . S
C1094 H1088 0.930 1_545 S
C1094 C1095 1.355 1_545 S
C1094 C1096 1.415 . S
C1095 C1094 1.355 1_565 S
C1095 C1097 1.419 . S
C1096 C1094 1.415 . S
C1096 C1101 1.425 . S
C1096 C1103 1.409 . S
C1097 H1089 0.930 . S
C1097 C1095 1.419 . S
C1097 C1098 1.362 1_565 S
C1098 H1090 0.930 . S
C1098 C1097 1.362 1_545 S
C1098 C1101 1.409 . S
C1099 H1091 0.930 . S
C1099 C1100 1.355 . S
C1099 C1101 1.415 . S
C1100 C1099 1.355 . S
C1100 C1102 1.419 . S
C1101 C1096 1.425 . S
C1101 C1098 1.409 . S
C1101 C1099 1.415 . S
C1102 H1092 0.930 . S
C1102 C1100 1.419 . S
C1102 C1103 1.362 . S
C1103 H1093 0.930 . S
C1103 C1096 1.409 . S
C1103 C1102 1.362 . S
H1104 C1110 0.930 . S
H1105 C1113 0.930 . S
H1106 C1114 0.930 . S
H1107 C1115 0.930 . S
H1108 C1118 0.930 . S
H1109 C1119 0.930 . S
C1110 H1104 0.930 . S
C1110 C1111 1.355 . S
C1110 C1112 1.415 . S
C1111 C1110 1.355 . S
C1111 C1113 1.419 . S
C1112 C1110 1.415 . S
C1112 C1117 1.425 . S
C1112 C1119 1.409 . S
C1113 H1105 0.930 . S
C1113 C1111 1.419 . S
C1113 C1114 1.362 . S
C1114 H1106 0.930 . S
C1114 C1113 1.362 . S
C1114 C1117 1.409 . S
C1115 H1107 0.930 . S
C1115 C1116 1.355 . S
C1115 C1117 1.415 . S
C1116 C1115 1.355 . S
C1116 C1118 1.419 . S
C1117 C1112 1.425 . S
C1117 C1114 1.409 . S
C1117 C1115 1.415 . S
C1118 H1108 0.930 . S
C1118 C1116 1.419 . S
C1118 C1119 1.362 . S
C1119 H1109 0.930 . S
C1119 C1112 1.409 . S
C1119 C1118 1.362 . S
H1120 C1126 0.930 . S
H1121 C1129 0.930 . S
H1122 C1130 0.930 . S
H1123 C1131 0.930 . S
H1124 C1134 0.930 . S
H1125 C1135 0.930 . S
C1126 H1120 0.930 . S
C1126 C1127 1.355 . S
C1126 C1128 1.415 . S
C1127 C1126 1.355 . S
C1127 C1129 1.419 . S
C1128 C1126 1.415 . S
C1128 C1133 1.425 . S
C1128 C1135 1.409 . S
C1129 H1121 0.930 . S
C1129 C1127 1.419 . S
C1129 C1130 1.362 . S
C1130 H1122 0.930 . S
C1130 C1129 1.362 . S
C1130 C1133 1.409 . S
C1131 H1123 0.930 . S
C1131 C1132 1.355 . S
C1131 C1133 1.415 . S
C1132 C1131 1.355 . S
C1132 C1134 1.419 . S
C1133 C1128 1.425 . S
C1133 C1130 1.409 . S
C1133 C1131 1.415 . S
C1134 H1124 0.930 . S
C1134 C1132 1.419 . S
C1134 C1135 1.362 . S
C1135 H1125 0.930 . S
C1135 C1128 1.409 . S
C1135 C1134 1.362 . S
H1136 C1142 0.930 . S
H1137 C1145 0.930 . S
H1138 C1146 0.930 . S
H1139 C1147 0.930 . S
H1140 C1150 0.930 . S
H1141 C1151 0.930 . S
C1142 H1136 0.930 . S
C1142 C1143 1.355 . S
C1142 C1144 1.415 . S
C1143 C1142 1.355 . S
C1143 C1145 1.419 . S
C1144 C1142 1.415 . S
C1144 C1149 1.425 . S
C1144 C1151 1.409 . S
C1145 H1137 0.930 . S
C1145 C1143 1.419 . S
C1145 C1146 1.362 . S
C1146 H1138 0.930 . S
C1146 C1145 1.362 . S
C1146 C1149 1.409 . S
C1147 H1139 0.930 . S
C1147 C1148 1.355 . S
C1147 C1149 1.415 . S
C1148 C1147 1.355 . S
C1148 C1150 1.419 . S
C1149 C1144 1.425 . S
C1149 C1146 1.409 . S
C1149 C1147 1.415 . S
C1150 H1140 0.930 . S
C1150 C1148 1.419 . S
C1150 C1151 1.362 . S
C1151 H1141 0.930 . S
C1151 C1144 1.409 . S
C1151 C1150 1.362 . S
H1152 C1158 0.930 . S
H1153 C1161 0.930 . S
H1154 C1162 0.930 . S
H1155 C1163 0.930 . S
H1156 C1166 0.930 . S
H1157 C1167 0.930 . S
C1158 H1152 0.930 . S
C1158 C1159 1.355 . S
C1158 C1160 1.415 . S
C1159 C1158 1.355 . S
C1159 C1161 1.419 . S
C1160 C1158 1.415 . S
C1160 C1165 1.425 . S
C1160 C1167 1.409 . S
C1161 H1153 0.930 . S
C1161 C1159 1.419 . S
C1161 C1162 1.362 . S
C1162 H1154 0.930 . S
C1162 C1161 1.362 . S
C1162 C1165 1.409 . S
C1163 H1155 0.930 . S
C1163 C1164 1.355 . S
C1163 C1165 1.415 . S
C1164 C1163 1.355 . S
C1164 C1166 1.419 . S
C1165 C1160 1.425 . S
C1165 C1162 1.409 . S
C1165 C1163 1.415 . S
C1166 H1156 0.930 . S
C1166 C1164 1.419 . S
C1166 C1167 1.362 . S
C1167 H1157 0.930 . S
C1167 C1160 1.409 . S
C1167 C1166 1.362 . S
H1168 C1174 0.930 . S
H1169 C1177 0.930 . S
H1170 C1178 0.930 1_655 S
H1171 C1179 0.930 . S
H1172 C1182 0.930 . S
H1173 C1183 0.930 . S
C1174 H1168 0.930 . S
C1174 C1175 1.355 . S
C1174 C1176 1.415 . S
C1175 C1174 1.355 . S
C1175 C1177 1.419 . S
C1176 C1174 1.415 . S
C1176 C1181 1.425 . S
C1176 C1183 1.409 . S
C1177 H1169 0.930 . S
C1177 C1175 1.419 . S
C1177 C1178 1.362 . S
C1178 H1170 0.930 1_455 S
C1178 C1177 1.362 . S
C1178 C1181 1.409 . S
C1179 H1171 0.930 . S
C1179 C1180 1.355 . S
C1179 C1181 1.415 . S
C1180 C1179 1.355 . S
C1180 C1182 1.419 . S
C1181 C1176 1.425 . S
C1181 C1178 1.409 . S
C1181 C1179 1.415 . S
C1182 H1172 0.930 . S
C1182 C1180 1.419 . S
C1182 C1183 1.362 . S
C1183 H1173 0.930 . S
C1183 C1176 1.409 . S
C1183 C1182 1.362 . S
H1184 C1190 0.930 . S
H1185 C1193 0.930 . S
H1186 C1194 0.930 . S
H1187 C1195 0.930 . S
H1188 C1198 0.930 . S
H1189 C1199 0.930 . S
C1190 H1184 0.930 . S
C1190 C1191 1.355 . S
C1190 C1192 1.415 . S
C1191 C1190 1.355 . S
C1191 C1193 1.419 . S
C1192 C1190 1.415 . S
C1192 C1197 1.425 . S
C1192 C1199 1.409 . S
C1193 H1185 0.930 . S
C1193 C1191 1.419 . S
C1193 C1194 1.362 . S
C1194 H1186 0.930 . S
C1194 C1193 1.362 . S
C1194 C1197 1.409 . S
C1195 H1187 0.930 . S
C1195 C1196 1.355 . S
C1195 C1197 1.415 . S
C1196 C1195 1.355 . S
C1196 C1198 1.419 . S
C1197 C1192 1.425 . S
C1197 C1194 1.409 . S
C1197 C1195 1.415 . S
C1198 H1188 0.930 . S
C1198 C1196 1.419 . S
C1198 C1199 1.362 . S
C1199 H1189 0.930 . S
C1199 C1192 1.409 . S
C1199 C1198 1.362 . S
H1200 C1206 0.930 . S
H1201 C1209 0.930 . S
H1202 C1210 0.930 . S
H1203 C1211 0.930 . S
H1204 C1214 0.930 . S
H1205 C1215 0.930 . S
C1206 H1200 0.930 . S
C1206 C1207 1.355 . S
C1206 C1208 1.415 . S
C1207 C1206 1.355 . S
C1207 C1209 1.419 . S
C1208 C1206 1.415 . S
C1208 C1213 1.425 . S
C1208 C1215 1.409 . S
C1209 H1201 0.930 . S
C1209 C1207 1.419 . S
C1209 C1210 1.362 . S
C1210 H1202 0.930 . S
C1210 C1209 1.362 . S
C1210 C1213 1.409 . S
C1211 H1203 0.930 . S
C1211 C1212 1.355 . S
C1211 C1213 1.415 . S
C1212 C1211 1.355 . S
C1212 C1214 1.419 . S
C1213 C1208 1.425 . S
C1213 C1210 1.409 . S
C1213 C1211 1.415 . S
C1214 H1204 0.930 . S
C1214 C1212 1.419 . S
C1214 C1215 1.362 . S
C1215 H1205 0.930 . S
C1215 C1208 1.409 . S
C1215 C1214 1.362 . S
H1216 C1222 0.930 . S
H1217 C1225 0.930 . S
H1218 C1226 0.930 . S
H1219 C1227 0.930 . S
H1220 C1230 0.930 . S
H1221 C1231 0.930 . S
C1222 H1216 0.930 . S
C1222 C1223 1.355 . S
C1222 C1224 1.415 . S
C1223 C1222 1.355 . S
C1223 C1225 1.419 . S
C1224 C1222 1.415 . S
C1224 C1229 1.425 . S
C1224 C1231 1.409 . S
C1225 H1217 0.930 . S
C1225 C1223 1.419 . S
C1225 C1226 1.362 . S
C1226 H1218 0.930 . S
C1226 C1225 1.362 . S
C1226 C1229 1.409 . S
C1227 H1219 0.930 . S
C1227 C1228 1.355 . S
C1227 C1229 1.415 . S
C1228 C1227 1.355 . S
C1228 C1230 1.419 . S
C1229 C1224 1.425 . S
C1229 C1226 1.409 . S
C1229 C1227 1.415 . S
C1230 H1220 0.930 . S
C1230 C1228 1.419 . S
C1230 C1231 1.362 . S
C1231 H1221 0.930 . S
C1231 C1224 1.409 . S
C1231 C1230 1.362 . S
H1232 C1238 0.930 . S
H1233 C1241 0.930 . S
H1234 C1242 0.930 . S
H1235 C1243 0.930 . S
H1236 C1246 0.930 . S
H1237 C1247 0.930 . S
C1238 H1232 0.930 . S
C1238 C1239 1.355 . S
C1238 C1240 1.415 . S
C1239 C1238 1.355 . S
C1239 C1241 1.419 . S
C1240 C1238 1.415 . S
C1240 C1245 1.425 . S
C1240 C1247 1.409 . S
C1241 H1233 0.930 . S
C1241 C1239 1.419 . S
C1241 C1242 1.362 . S
C1242 H1234 0.930 . S
C1242 C1241 1.362 . S
C1242 C1245 1.409 . S
C1243 H1235 0.930 . S
C1243 C1244 1.355 . S
C1243 C1245 1.415 . S
C1244 C1243 1.355 . S
C1244 C1246 1.419 . S
C1245 C1240 1.425 . S
C1245 C1242 1.409 . S
C1245 C1243 1.415 . S
C1246 H1236 0.930 . S
C1246 C1244 1.419 . S
C1246 C1247 1.362 . S
C1247 H1237 0.930 . S
C1247 C1240 1.409 . S
C1247 C1246 1.362 . S
H1248 C1254 0.930 . S
H1249 C1257 0.930 . S
H1250 C1258 0.930 . S
H1251 C1259 0.930 . S
H1252 C1262 0.930 . S
H1253 C1263 0.930 . S
C1254 H1248 0.930 . S
C1254 C1255 1.355 . S
C1254 C1256 1.415 . S
C1255 C1254 1.355 . S
C1255 C1257 1.419 . S
C1256 C1254 1.415 . S
C1256 C1261 1.425 . S
C1256 C1263 1.409 . S
C1257 H1249 0.930 . S
C1257 C1255 1.419 . S
C1257 C1258 1.362 . S
C1258 H1250 0.930 . S
C1258 C1257 1.362 . S
C1258 C1261 1.409 . S
C1259 H1251 0.930 . S
C1259 C1260 1.355 . S
C1259 C1261 1.415 . S
C1260 C1259 1.355 . S
C1260 C1262 1.419 . S
C1261 C1256 1.425 . S
C1261 C1258 1.409 . S
C1261 C1259 1.415 . S
C1262 H1252 0.930 . S
C1262 C1260 1.419 . S
C1262 C1263 1.362 . S
C1263 H1253 0.930 . S
C1263 C1256 1.409 . S
C1263 C1262 1.362 . S
H1264 C1270 0.930 . S
H1265 C1273 0.930 . S
H1266 C1274 0.930 . S
H1267 C1275 0.930 . S
H1268 C1278 0.930 . S
H1269 C1279 0.930 . S
C1270 H1264 0.930 . S
C1270 C1271 1.355 . S
C1270 C1272 1.415 . S
C1271 C1270 1.355 . S
C1271 C1273 1.419 . S
C1272 C1270 1.415 . S
C1272 C1277 1.425 . S
C1272 C1279 1.409 . S
C1273 H1265 0.930 . S
C1273 C1271 1.419 . S
C1273 C1274 1.362 . S
C1274 H1266 0.930 . S
C1274 C1273 1.362 . S
C1274 C1277 1.409 . S
C1275 H1267 0.930 . S
C1275 C1276 1.355 . S
C1275 C1277 1.415 . S
C1276 C1275 1.355 . S
C1276 C1278 1.419 . S
C1277 C1272 1.425 . S
C1277 C1274 1.409 . S
C1277 C1275 1.415 . S
C1278 H1268 0.930 . S
C1278 C1276 1.419 . S
C1278 C1279 1.362 . S
C1279 H1269 0.930 . S
C1279 C1272 1.409 . S
C1279 C1278 1.362 . S
H1280 C1286 0.930 . S
H1281 C1289 0.930 . S
H1282 C1290 0.930 . S
H1283 C1291 0.930 . S
H1284 C1294 0.930 . S
H1285 C1295 0.930 . S
C1286 H1280 0.930 . S
C1286 C1287 1.355 . S
C1286 C1288 1.415 . S
C1287 C1286 1.355 . S
C1287 C1289 1.419 . S
C1288 C1286 1.415 . S
C1288 C1293 1.425 . S
C1288 C1295 1.409 . S
C1289 H1281 0.930 . S
C1289 C1287 1.419 . S
C1289 C1290 1.362 . S
C1290 H1282 0.930 . S
C1290 C1289 1.362 . S
C1290 C1293 1.409 . S
C1291 H1283 0.930 . S
C1291 C1292 1.355 . S
C1291 C1293 1.415 . S
C1292 C1291 1.355 . S
C1292 C1294 1.419 . S
C1293 C1288 1.425 . S
C1293 C1290 1.409 . S
C1293 C1291 1.415 . S
C1294 H1284 0.930 . S
C1294 C1292 1.419 . S
C1294 C1295 1.362 . S
C1295 H1285 0.930 . S
C1295 C1288 1.409 . S
C1295 C1294 1.362 . S
H1296 C1302 0.930 . S
H1297 C1305 0.930 . S
H1298 C1306 0.930 . S
H1299 C1307 0.930 . S
H1300 C1310 0.930 . S
H1301 C1311 0.930 . S
C1302 H1296 0.930 . S
C1302 C1303 1.355 . S
C1302 C1304 1.415 . S
C1303 C1302 1.355 . S
C1303 C1305 1.419 . S
C1304 C1302 1.415 . S
C1304 C1309 1.425 . S
C1304 C1311 1.409 . S
C1305 H1297 0.930 . S
C1305 C1303 1.419 . S
C1305 C1306 1.362 . S
C1306 H1298 0.930 . S
C1306 C1305 1.362 . S
C1306 C1309 1.409 . S
C1307 H1299 0.930 . S
C1307 C1308 1.355 . S
C1307 C1309 1.415 . S
C1308 C1307 1.355 . S
C1308 C1310 1.419 . S
C1309 C1304 1.425 . S
C1309 C1306 1.409 . S
C1309 C1307 1.415 . S
C1310 H1300 0.930 . S
C1310 C1308 1.419 . S
C1310 C1311 1.362 . S
C1311 H1301 0.930 . S
C1311 C1304 1.409 . S
C1311 C1310 1.362 . S
H1312 C1318 0.930 . S
H1313 C1321 0.930 . S
H1314 C1322 0.930 . S
H1315 C1323 0.930 . S
H1316 C1326 0.930 . S
H1317 C1327 0.930 . S
C1318 H1312 0.930 . S
C1318 C1319 1.355 . S
C1318 C1320 1.415 . S
C1319 C1318 1.355 . S
C1319 C1321 1.419 . S
C1320 C1318 1.415 . S
C1320 C1325 1.425 . S
C1320 C1327 1.409 . S
C1321 H1313 0.930 . S
C1321 C1319 1.419 . S
C1321 C1322 1.362 . S
C1322 H1314 0.930 . S
C1322 C1321 1.362 . S
C1322 C1325 1.409 . S
C1323 H1315 0.930 . S
C1323 C1324 1.355 . S
C1323 C1325 1.415 . S
C1324 C1323 1.355 . S
C1324 C1326 1.419 . S
C1325 C1320 1.425 . S
C1325 C1322 1.409 . S
C1325 C1323 1.415 . S
C1326 H1316 0.930 . S
C1326 C1324 1.419 . S
C1326 C1327 1.362 . S
C1327 H1317 0.930 . S
C1327 C1320 1.409 . S
C1327 C1326 1.362 . S
H1328 C1334 0.930 . S
H1329 C1337 0.930 . S
H1330 C1338 0.930 . S
H1331 C1339 0.930 . S
H1332 C1342 0.930 . S
H1333 C1343 0.930 . S
C1334 H1328 0.930 . S
C1334 C1335 1.355 . S
C1334 C1336 1.415 . S
C1335 C1334 1.355 . S
C1335 C1337 1.419 . S
C1336 C1334 1.415 . S
C1336 C1341 1.425 . S
C1336 C1343 1.409 . S
C1337 H1329 0.930 . S
C1337 C1335 1.419 . S
C1337 C1338 1.362 . S
C1338 H1330 0.930 . S
C1338 C1337 1.362 . S
C1338 C1341 1.409 . S
C1339 H1331 0.930 . S
C1339 C1340 1.355 . S
C1339 C1341 1.415 . S
C1340 C1339 1.355 . S
C1340 C1342 1.419 . S
C1341 C1336 1.425 . S
C1341 C1338 1.409 . S
C1341 C1339 1.415 . S
C1342 H1332 0.930 . S
C1342 C1340 1.419 . S
C1342 C1343 1.362 . S
C1343 H1333 0.930 . S
C1343 C1336 1.409 . S
C1343 C1342 1.362 . S
H1344 C1350 0.930 . S
H1345 C1353 0.930 . S
H1346 C1354 0.930 . S
H1347 C1355 0.930 . S
H1348 C1358 0.930 . S
H1349 C1359 0.930 . S
C1350 H1344 0.930 . S
C1350 C1351 1.355 . S
C1350 C1352 1.415 . S
C1351 C1350 1.355 . S
C1351 C1353 1.419 . S
C1352 C1350 1.415 . S
C1352 C1357 1.425 . S
C1352 C1359 1.409 . S
C1353 H1345 0.930 . S
C1353 C1351 1.419 . S
C1353 C1354 1.362 . S
C1354 H1346 0.930 . S
C1354 C1353 1.362 . S
C1354 C1357 1.409 . S
C1355 H1347 0.930 . S
C1355 C1356 1.355 . S
C1355 C1357 1.415 . S
C1356 C1355 1.355 . S
C1356 C1358 1.419 . S
C1357 C1352 1.425 . S
C1357 C1354 1.409 . S
C1357 C1355 1.415 . S
C1358 H1348 0.930 . S
C1358 C1356 1.419 . S
C1358 C1359 1.362 . S
C1359 H1349 0.930 . S
C1359 C1352 1.409 . S
C1359 C1358 1.362 . S
H1360 C1366 0.930 . S
H1361 C1369 0.930 . S
H1362 C1370 0.930 . S
H1363 C1371 0.930 . S
H1364 C1374 0.930 . S
H1365 C1375 0.930 . S
C1366 H1360 0.930 . S
C1366 C1367 1.355 . S
C1366 C1368 1.415 . S
C1367 C1366 1.355 . S
C1367 C1369 1.419 . S
C1368 C1366 1.415 . S
C1368 C1373 1.425 . S
C1368 C1375 1.409 . S
C1369 H1361 0.930 . S
C1369 C1367 1.419 . S
C1369 C1370 1.362 . S
C1370 H1362 0.930 . S
C1370 C1369 1.362 . S
C1370 C1373 1.409 . S
C1371 H1363 0.930 . S
C1371 C1372 1.355 . S
C1371 C1373 1.415 . S
C1372 C1371 1.355 . S
C1372 C1374 1.419 . S
C1373 C1368 1.425 . S
C1373 C1370 1.409 . S
C1373 C1371 1.415 . S
C1374 H1364 0.930 . S
C1374 C1372 1.419 . S
C1374 C1375 1.362 . S
C1375 H1365 0.930 . S
C1375 C1368 1.409 . S
C1375 C1374 1.362 . S
H1376 C1382 0.930 . S
H1377 C1385 0.930 . S
H1378 C1386 0.930 . S
H1379 C1387 0.930 . S
H1380 C1390 0.930 . S
H1381 C1391 0.930 . S
C1382 H1376 0.930 . S
C1382 C1383 1.355 . S
C1382 C1384 1.415 . S
C1383 C1382 1.355 . S
C1383 C1385 1.419 . S
C1384 C1382 1.415 . S
C1384 C1389 1.425 . S
C1384 C1391 1.409 . S
C1385 H1377 0.930 . S
C1385 C1383 1.419 . S
C1385 C1386 1.362 . S
C1386 H1378 0.930 . S
C1386 C1385 1.362 . S
C1386 C1389 1.409 . S
C1387 H1379 0.930 . S
C1387 C1388 1.355 . S
C1387 C1389 1.415 . S
C1388 C1387 1.355 . S
C1388 C1390 1.419 . S
C1389 C1384 1.425 . S
C1389 C1386 1.409 . S
C1389 C1387 1.415 . S
C1390 H1380 0.930 . S
C1390 C1388 1.419 . S
C1390 C1391 1.362 . S
C1391 H1381 0.930 . S
C1391 C1384 1.409 . S
C1391 C1390 1.362 . S
H1392 C1398 0.930 . S
H1393 C1401 0.930 . S
H1394 C1402 0.930 . S
H1395 C1403 0.930 . S
H1396 C1406 0.930 . S
H1397 C1407 0.930 . S
C1398 H1392 0.930 . S
C1398 C1399 1.355 . S
C1398 C1400 1.415 . S
C1399 C1398 1.355 . S
C1399 C1401 1.419 . S
C1400 C1398 1.415 . S
C1400 C1405 1.425 . S
C1400 C1407 1.409 . S
C1401 H1393 0.930 . S
C1401 C1399 1.419 . S
C1401 C1402 1.362 . S
C1402 H1394 0.930 . S
C1402 C1401 1.362 . S
C1402 C1405 1.409 . S
C1403 H1395 0.930 . S
C1403 C1404 1.355 . S
C1403 C1405 1.415 . S
C1404 C1403 1.355 . S
C1404 C1406 1.419 . S
C1405 C1400 1.425 . S
C1405 C1402 1.409 . S
C1405 C1403 1.415 . S
C1406 H1396 0.930 . S
C1406 C1404 1.419 . S
C1406 C1407 1.362 . S
C1407 H1397 0.930 . S
C1407 C1400 1.409 . S
C1407 C1406 1.362 . S
H1408 C1414 0.930 . S
H1409 C1417 0.930 . S
H1410 C1418 0.930 . S
H1411 C1419 0.930 . S
H1412 C1422 0.930 . S
H1413 C1423 0.930 . S
C1414 H1408 0.930 . S
C1414 C1415 1.355 . S
C1414 C1416 1.415 . S
C1415 C1414 1.355 . S
C1415 C1417 1.419 . S
C1416 C1414 1.415 . S
C1416 C1421 1.425 . S
C1416 C1423 1.409 . S
C1417 H1409 0.930 . S
C1417 C1415 1.419 . S
C1417 C1418 1.362 . S
C1418 H1410 0.930 . S
C1418 C1417 1.362 . S
C1418 C1421 1.409 . S
C1419 H1411 0.930 . S
C1419 C1420 1.355 . S
C1419 C1421 1.415 . S
C1420 C1419 1.355 . S
C1420 C1422 1.419 . S
C1421 C1416 1.425 . S
C1421 C1418 1.409 . S
C1421 C1419 1.415 . S
C1422 H1412 0.930 . S
C1422 C1420 1.419 . S
C1422 C1423 1.362 . S
C1423 H1413 0.930 . S
C1423 C1416 1.409 . S
C1423 C1422 1.362 . S
H1424 C1430 0.930 . S
H1425 C1433 0.930 . S
H1426 C1434 0.930 . S
H1427 C1435 0.930 . S
H1428 C1438 0.930 . S
H1429 C1439 0.930 . S
C1430 H1424 0.930 . S
C1430 C1431 1.355 . S
C1430 C1432 1.415 . S
C1431 C1430 1.355 . S
C1431 C1433 1.419 . S
C1432 C1430 1.415 . S
C1432 C1437 1.425 . S
C1432 C1439 1.409 . S
C1433 H1425 0.930 . S
C1433 C1431 1.419 . S
C1433 C1434 1.362 . S
C1434 H1426 0.930 . S
C1434 C1433 1.362 . S
C1434 C1437 1.409 . S
C1435 H1427 0.930 . S
C1435 C1436 1.355 . S
C1435 C1437 1.415 . S
C1436 C1435 1.355 . S
C1436 C1438 1.419 . S
C1437 C1432 1.425 . S
C1437 C1434 1.409 . S
C1437 C1435 1.415 . S
C1438 H1428 0.930 . S
C1438 C1436 1.419 . S
C1438 C1439 1.362 . S
C1439 H1429 0.930 . S
C1439 C1432 1.409 . S
C1439 C1438 1.362 . S
C583 C162 1.647 . S
C588 C228 1.659 . S
C599 C174 1.765 . S
C604 C268 1.765 . S
C615 C150 1.612 . S
C620 C298 1.590 . S
C631 C138 1.495 . S
C636 C258 1.451 1_556 S
C652 C308 1.503 . S
C647 C114 1.508 . S
C663 C126 1.358 . S
C668 C218 1.331 1_556 S
C684 C247 1.647 . S
C679 C136 1.623 . S
C700 C287 1.644 . S
C695 C112 1.626 . S
C711 C124 1.614 . S
C716 C313 1.659 1_556 S
C727 C160 1.461 . S
C732 C273 1.484 . S
C743 C172 1.470 . S
C748 C327 1.480 . S
C764 C233 1.505 . S
C759 C148 1.488 . S
C780 C348 1.660 . S
C775 C18 1.648 . S
C791 C30 1.761 . S
C796 C388 1.756 . S
C807 C6 1.595 . S
C812 C418 1.556 . S
C823 C210 1.493 . S
C828 C378 1.486 . S
C839 C186 1.508 . S
C844 C428 1.506 . S
C855 C198 1.394 . S
C860 C338 1.374 . S
C871 C208 1.663 . S
C876 C367 1.676 . S
C887 C184 1.616 . S
C892 C407 1.638 . S
C908 C433 1.654 . S
C903 C196 1.606 . S
C919 C16 1.481 . S
C924 C393 1.511 . S
C940 C447 1.476 . S
C935 C28 1.463 1_455 S
C951 C4 1.424 . S
C956 C353 1.468 . S
C972 C468 1.665 . S
C967 C90 1.667 . S
C983 C102 1.761 . S
C988 C508 1.754 . S
C1004 C538 1.570 . S
C999 C78 1.605 . S
C1020 C498 1.483 . S
C1015 C66 1.487 . S
C1036 C548 1.505 . S
C1031 C42 1.508 . S
C1047 C54 1.393 . S
C1052 C458 1.371 . S
C1063 C64 1.659 . S
C1068 C487 1.680 . S
C1079 C40 1.658 . S
C1084 C527 1.669 . S
C1100 C553 1.671 . S
C1095 C52 1.625 . S
C1111 C88 1.516 . S
C1116 C513 1.537 . S
C1127 C100 1.440 . S
C1132 C567 1.459 . S
C1143 C76 1.494 . S
C1148 C473 1.511 . S
C1159 C189 1.564 . S
C1164 C245 1.537 . S
C1180 C285 1.912 . S
C1175 C201 1.948 . S
C1191 C213 1.580 . S
C1196 C304 1.582 . S
C1207 C81 1.740 . S
C1212 C264 1.749 . S
C1223 C93 1.700 . S
C1228 C325 1.684 . S
C1244 C224 1.334 . S
C1239 C105 1.349 . S
C1255 C45 1.541 . S
C1260 C365 1.514 . S
C1271 C57 1.914 . S
C1276 C405 1.860 . S
C1287 C69 1.539 . S
C1292 C424 1.556 . S
C1303 C153 1.771 . S
C1308 C384 1.765 . S
C1324 C445 1.676 . S
C1319 C165 1.695 . S
C1335 C177 1.337 . S
C1340 C344 1.333 . S
C1351 C117 1.542 . S
C1356 C485 1.499 . S
C1367 C129 1.912 . S
C1372 C525 1.856 . S
C1388 C544 1.581 . S
C1383 C141 1.556 . S
C1399 C9 1.762 . S
C1404 C504 1.741 . S
C1415 C21 1.682 . S
C1420 C565 1.656 . S
C1431 C33 1.349 . S
C1436 C464 1.337 . S
