# Generated by pormake.
# Topology pyr, (3,6)-cn, num edge types: 1
# Building blocks:
#     Node 0, Type 0, BuildingBlock: QEWDON_clean_linker_0, # of connection points: 3
#     Node 1, Type 0, BuildingBlock: QEWDON_clean_linker_0, # of connection points: 3
#     Node 2, Type 0, BuildingBlock: QEWDON_clean_linker_0, # of connection points: 3
#     Node 3, Type 0, BuildingBlock: QEWDON_clean_linker_0, # of connection points: 3
#     Node 4, Type 0, BuildingBlock: QEWDON_clean_linker_0, # of connection points: 3
#     Node 5, Type 0, BuildingBlock: QEWDON_clean_linker_0, # of connection points: 3
#     Node 6, Type 0, BuildingBlock: QEWDON_clean_linker_0, # of connection points: 3
#     Node 7, Type 0, BuildingBlock: QEWDON_clean_linker_0, # of connection points: 3
#     Node 8, Type 1, BuildingBlock: BETGAK_clean_sbu_0, # of connection points: 6
#     Node 9, Type 1, BuildingBlock: BETGAK_clean_sbu_0, # of connection points: 6
#     Node 10, Type 1, BuildingBlock: BETGAK_clean_sbu_0, # of connection points: 6
#     Node 11, Type 1, BuildingBlock: BETGAK_clean_sbu_0, # of connection points: 6
#     Edge 12, Type (0, 1), BuildingBlock: XUDNAN_clean_linker_2, # of connection points: 2
#     Edge 13, Type (0, 1), BuildingBlock: XUDNAN_clean_linker_2, # of connection points: 2
#     Edge 14, Type (0, 1), BuildingBlock: XUDNAN_clean_linker_2, # of connection points: 2
#     Edge 15, Type (0, 1), BuildingBlock: XUDNAN_clean_linker_2, # of connection points: 2
#     Edge 16, Type (0, 1), BuildingBlock: XUDNAN_clean_linker_2, # of connection points: 2
#     Edge 17, Type (0, 1), BuildingBlock: XUDNAN_clean_linker_2, # of connection points: 2
#     Edge 18, Type (0, 1), BuildingBlock: XUDNAN_clean_linker_2, # of connection points: 2
#     Edge 19, Type (0, 1), BuildingBlock: XUDNAN_clean_linker_2, # of connection points: 2
#     Edge 20, Type (0, 1), BuildingBlock: XUDNAN_clean_linker_2, # of connection points: 2
#     Edge 21, Type (0, 1), BuildingBlock: XUDNAN_clean_linker_2, # of connection points: 2
#     Edge 22, Type (0, 1), BuildingBlock: XUDNAN_clean_linker_2, # of connection points: 2
#     Edge 23, Type (0, 1), BuildingBlock: XUDNAN_clean_linker_2, # of connection points: 2
#     Edge 24, Type (0, 1), BuildingBlock: XUDNAN_clean_linker_2, # of connection points: 2
#     Edge 25, Type (0, 1), BuildingBlock: XUDNAN_clean_linker_2, # of connection points: 2
#     Edge 26, Type (0, 1), BuildingBlock: XUDNAN_clean_linker_2, # of connection points: 2
#     Edge 27, Type (0, 1), BuildingBlock: XUDNAN_clean_linker_2, # of connection points: 2
#     Edge 28, Type (0, 1), BuildingBlock: XUDNAN_clean_linker_2, # of connection points: 2
#     Edge 29, Type (0, 1), BuildingBlock: XUDNAN_clean_linker_2, # of connection points: 2
#     Edge 30, Type (0, 1), BuildingBlock: XUDNAN_clean_linker_2, # of connection points: 2
#     Edge 31, Type (0, 1), BuildingBlock: XUDNAN_clean_linker_2, # of connection points: 2
#     Edge 32, Type (0, 1), BuildingBlock: XUDNAN_clean_linker_2, # of connection points: 2
#     Edge 33, Type (0, 1), BuildingBlock: XUDNAN_clean_linker_2, # of connection points: 2
#     Edge 34, Type (0, 1), BuildingBlock: XUDNAN_clean_linker_2, # of connection points: 2
#     Edge 35, Type (0, 1), BuildingBlock: XUDNAN_clean_linker_2, # of connection points: 2
# Relax obj value: 0.173
# Max RMSD: 0.266
# Mean RMSD: 0.196
data_MOF--net-pyr--node1-BETGAK_clean_sbu_0--node2-QEWDON_clean_linker_0--edge1-XUDNAN_clean_linker_2
_symmetry_space_group_name_H-M    P1
_symmetry_Int_Tables_number       1
_symmetry_cell_setting            triclinic
loop_
_symmetry_equiv_pos_as_xyz
'x, y, z'
_cell_length_a     38.212682
_cell_length_b     41.852376
_cell_length_c     39.959515
_cell_angle_alpha  91.914092
_cell_angle_beta   89.867045
_cell_angle_gamma 108.94227
loop_
_atom_site_label
_atom_site_type_symbol
_atom_site_fract_x
_atom_site_fract_y
_atom_site_fract_z
_atom_type_partial_charge
H0 H 0.409 0.30218 0.17883 0.0
C1 C 0.3894 0.29806 0.19919 0.0
C2 C 0.37662 0.2663 0.21373 0.0
C3 C 0.37546 0.32395 0.20953 0.0
H4 H 0.34155 0.23674 0.25139 0.0
C5 C 0.35057 0.26095 0.23954 0.0
C6 C 0.33651 0.28664 0.25042 0.0
C7 C 0.349 0.31801 0.23505 0.0
C8 C 0.38771 0.35697 0.19314 0.0
H9 H 0.33796 0.33788 0.24276 0.0
C10 C 0.36153 0.37165 0.18247 0.0
C11 C 0.37276 0.40324 0.16732 0.0
C12 C 0.42548 0.37401 0.18822 0.0
H13 H 0.44618 0.36329 0.19635 0.0
C14 C 0.43689 0.40539 0.17335 0.0
H15 H 0.33233 0.35796 0.18525 0.0
C16 C 0.41082 0.42002 0.16305 0.0
H17 H 0.42054 0.44462 0.15205 0.0
H18 H 0.46608 0.41855 0.16996 0.0
H19 H 0.25553 0.92884 0.69976 0.0
C20 C 0.27082 0.9111 0.69913 0.0
C21 C 0.29933 0.91508 0.72259 0.0
C22 C 0.26151 0.88403 0.67532 0.0
H23 H 0.33986 0.89386 0.74072 0.0
C24 C 0.31831 0.89144 0.72227 0.0
C25 C 0.30936 0.86426 0.69883 0.0
C26 C 0.28124 0.8609 0.67515 0.0
C27 C 0.23014 0.87922 0.65167 0.0
H28 H 0.27432 0.83993 0.65699 0.0
C29 C 0.22463 0.90718 0.63671 0.0
C30 C 0.19336 0.90308 0.61654 0.0
C31 C 0.20449 0.84684 0.64517 0.0
H32 H 0.20768 0.82484 0.65662 0.0
C33 C 0.17367 0.84264 0.62466 0.0
H34 H 0.2442 0.93229 0.64133 0.0
C35 C 0.16787 0.87063 0.61065 0.0
H36 H 0.14353 0.86698 0.59519 0.0
H37 H 0.15392 0.81767 0.62004 0.0
H38 H 0.72592 0.45719 0.91305 0.0
C39 C 0.71696 0.43095 0.91984 0.0
C40 C 0.7365 0.42063 0.94554 0.0
C41 C 0.68389 0.40798 0.90521 0.0
H42 H 0.73721 0.37906 0.97561 0.0
C43 C 0.72288 0.38667 0.9556 0.0
C44 C 0.6905 0.36284 0.9418 0.0
C45 C 0.67173 0.37392 0.91642 0.0
C46 C 0.65761 0.41943 0.88307 0.0
H47 H 0.64684 0.35591 0.90564 0.0
C48 C 0.66734 0.44025 0.85405 0.0
C49 C 0.63905 0.44678 0.83392 0.0
C50 C 0.61997 0.40775 0.8919 0.0
H51 H 0.61106 0.39319 0.91409 0.0
C52 C 0.59292 0.41437 0.87282 0.0
H53 H 0.69603 0.45029 0.84675 0.0
C54 C 0.60217 0.43319 0.84424 0.0
H55 H 0.58003 0.4379 0.83046 0.0
H56 H 0.56427 0.40479 0.88037 0.0
H57 H 0.92454 0.79233 0.38811 0.0
C58 C 0.90235 0.77908 0.40452 0.0
C59 C 0.89543 0.7959 0.43429 0.0
C60 C 0.87913 0.74608 0.39456 0.0
H61 H 0.85758 0.79179 0.47544 0.0
C62 C 0.86448 0.7788 0.45378 0.0
C63 C 0.8405 0.74619 0.44446 0.0
C64 C 0.84876 0.72989 0.41542 0.0
C65 C 0.87893 0.73225 0.35882 0.0
H66 H 0.82943 0.70562 0.40727 0.0
C67 C 0.90715 0.72082 0.34355 0.0
C68 C 0.902 0.7057 0.31018 0.0
C69 C 0.84723 0.72951 0.33967 0.0
H70 H 0.82551 0.7382 0.35 0.0
C71 C 0.84261 0.71559 0.30727 0.0
H72 H 0.93194 0.72269 0.35763 0.0
C73 C 0.86935 0.70371 0.29283 0.0
H74 H 0.86458 0.69323 0.26744 0.0
H75 H 0.81786 0.71386 0.29317 0.0
H76 H 0.73607 0.78569 0.94813 0.0
C77 C 0.74913 0.80403 0.92958 0.0
C78 C 0.78375 0.80524 0.9169 0.0
C79 C 0.73239 0.82768 0.91998 0.0
H80 H 0.82858 0.83132 0.88505 0.0
C81 C 0.80146 0.83006 0.89416 0.0
C82 C 0.78486 0.85348 0.88362 0.0
C83 C 0.75013 0.85193 0.89659 0.0
C84 C 0.6975 0.82831 0.9359 0.0
H85 H 0.73669 0.86951 0.88844 0.0
C86 C 0.69383 0.85918 0.94745 0.0
C87 C 0.66165 0.86015 0.96401 0.0
C88 C 0.66831 0.79819 0.94074 0.0
H89 H 0.67031 0.77409 0.93194 0.0
C90 C 0.63614 0.79895 0.95687 0.0
H91 H 0.71628 0.88248 0.94379 0.0
C92 C 0.63278 0.82964 0.96855 0.0
H93 H 0.60784 0.82937 0.98161 0.0
H94 H 0.6138 0.77562 0.96057 0.0
H95 H 0.78036 0.19057 0.56224 0.0
C96 C 0.76503 0.18888 0.53914 0.0
C97 C 0.77402 0.17191 0.51121 0.0
C98 C 0.73597 0.20263 0.53736 0.0
H99 H 0.76394 0.15856 0.45886 0.0
C100 C 0.75576 0.17055 0.4806 0.0
C101 C 0.72776 0.18518 0.47783 0.0
C102 C 0.71709 0.19978 0.50652 0.0
C103 C 0.72443 0.21916 0.5674 0.0
H104 H 0.69336 0.20833 0.50452 0.0
C105 C 0.70595 0.24296 0.56327 0.0
C106 C 0.69076 0.25559 0.5906 0.0
C107 C 0.72988 0.21032 0.60028 0.0
H108 H 0.74317 0.19169 0.60502 0.0
C109 C 0.71702 0.22471 0.6278 0.0
H110 H 0.70252 0.2516 0.53865 0.0
C111 C 0.69722 0.24703 0.62306 0.0
H112 H 0.68587 0.2566 0.64454 0.0
H113 H 0.72133 0.21762 0.65288 0.0
H114 H 0.45222 0.82006 0.25769 0.0
C115 C 0.42624 0.80193 0.24917 0.0
C116 C 0.40568 0.81144 0.22397 0.0
C117 C 0.41417 0.76909 0.26317 0.0
H118 H 0.35741 0.79289 0.19209 0.0
C119 C 0.37228 0.78687 0.21265 0.0
C120 C 0.35877 0.75411 0.22581 0.0
C121 C 0.38002 0.74586 0.25149 0.0
C122 C 0.44098 0.75769 0.28454 0.0
H123 H 0.37089 0.72081 0.26152 0.0
C124 C 0.43258 0.7397 0.31546 0.0
C125 C 0.46038 0.72956 0.33273 0.0
C126 C 0.47699 0.76474 0.27199 0.0
H127 H 0.48464 0.77753 0.24863 0.0
C128 C 0.50373 0.75515 0.28857 0.0
H129 H 0.40511 0.73377 0.32583 0.0
C130 C 0.4957 0.73802 0.3183 0.0
H131 H 0.51789 0.73186 0.33045 0.0
H132 H 0.53123 0.76114 0.2782 0.0
H133 H 0.24749 0.46171 0.77329 0.0
C134 C 0.23409 0.43991 0.75711 0.0
C135 C 0.25069 0.43525 0.72605 0.0
C136 C 0.20099 0.41566 0.7682 0.0
H137 H 0.24604 0.40078 0.68359 0.0
C138 C 0.23288 0.40568 0.70629 0.0
C139 C 0.19937 0.38133 0.71588 0.0
C140 C 0.1839 0.3868 0.74686 0.0
C141 C 0.18716 0.41631 0.80398 0.0
H142 H 0.15851 0.36816 0.75478 0.0
C143 C 0.17934 0.44419 0.82084 0.0
C144 C 0.16447 0.44105 0.85428 0.0
C145 C 0.18128 0.3866 0.82175 0.0
H146 H 0.18753 0.36518 0.81049 0.0
C147 C 0.1678 0.38379 0.85421 0.0
H148 H 0.18376 0.46745 0.80787 0.0
C149 C 0.15947 0.4104 0.87018 0.0
H150 H 0.14972 0.40701 0.89571 0.0
H151 H 0.16385 0.36063 0.86726 0.0
La152 La 0.04926 0.10989 0.52895 0.0
La153 La 0.0338 0.07919 0.59628 0.0
C154 C 0.05108 0.14356 0.4773 0.0
C155 C 0.08059 0.16242 0.4548 0.0
C156 C 0.10778 0.14886 0.44334 0.0
C157 C 0.136 0.1674 0.42258 0.0
C158 C 0.13781 0.19996 0.41321 0.0
C159 C 0.11069 0.21355 0.42484 0.0
C160 C 0.08223 0.19484 0.44537 0.0
C161 C 0.09726 0.08037 0.54655 0.0
C162 C 0.08136 0.15879 0.59192 0.0
C163 C 0.03076 0.05958 0.65544 0.0
C164 C 1.00162 0.03761 0.67635 0.0
C165 C 0.96535 0.0389 0.67505 0.0
C166 C 0.9388 1.02083 0.69743 0.0
C167 C 0.94784 1.00076 0.72117 0.0
C168 C 0.98362 0.99818 0.72145 0.0
C169 C 1.01041 1.01668 0.69928 0.0
C170 C 0.97597 0.08746 0.56648 0.0
C171 C 1.00866 0.0314 0.53191 0.0
O172 O 0.04324 0.11078 0.47684 0.0
O173 O 0.0525 0.15613 0.50776 0.0
O174 O 0.09125 0.08631 0.51597 0.0
O175 O 0.08152 0.09561 0.56589 0.0
O176 O 0.08005 0.15477 0.55888 0.0
O177 O 0.0657 0.13276 0.61129 0.0
O178 O 0.02567 0.08768 0.64701 0.0
O179 O 0.04264 0.04506 0.63039 0.0
O180 O 0.97418 0.06298 0.58587 0.0
O181 O 1.00858 0.10725 0.56625 0.0
O182 O 0.02162 0.03321 0.56303 0.0
O183 O 1.00967 0.05946 0.51679 0.0
H184 H 0.10743 0.12405 0.45059 0.0
H185 H 0.15682 0.15651 0.41434 0.0
H186 H 0.11131 0.2385 0.41782 0.0
H187 H 0.06159 0.20577 0.45406 0.0
H188 H 0.95772 0.05457 0.65732 0.0
H189 H 0.91126 1.02283 0.69644 0.0
H190 H 0.99121 0.98288 0.7396 0.0
H191 H 0.03821 1.0153 0.7006 0.0
La192 La 0.57287 0.09682 0.10166 0.0
La193 La 0.51666 0.07356 0.05291 0.0
C194 C 0.62292 0.13239 0.14117 0.0
C195 C 0.62666 0.14182 0.17702 0.0
C196 C 0.6081 0.11892 0.2012 0.0
C197 C 0.61399 0.12775 0.23525 0.0
C198 C 0.63818 0.15971 0.24559 0.0
C199 C 0.6558 0.18288 0.22125 0.0
C200 C 0.65015 0.17394 0.18724 0.0
C201 C 0.52828 0.03416 0.11563 0.0
C202 C 0.49824 0.11446 0.11114 0.0
C203 C 0.47085 0.04114 1.00835 0.0
C204 C 0.44704 0.04558 0.98113 0.0
C205 C 0.46191 0.06534 0.95351 0.0
C206 C 0.44011 0.06365 0.92503 0.0
C207 C 0.40311 0.04228 0.92372 0.0
C208 C 0.38766 0.02451 0.95231 0.0
C209 C 0.40948 0.02607 0.98068 0.0
C210 C 0.56169 0.13682 0.04154 0.0
C211 C 0.58535 0.05006 0.04789 0.0
O212 O 0.61784 0.1007 0.13323 0.0
O213 O 0.60156 0.14453 0.12374 0.0
O214 O 0.56334 0.04634 0.12185 0.0
O215 O 0.51851 0.05794 0.10395 0.0
O216 O 0.53347 0.12192 0.11958 0.0
O217 O 0.48351 0.09229 0.08686 0.0
O218 O 0.4616 0.04606 0.03908 0.0
O219 O 0.50657 0.05283 1.00409 0.0
O220 O 0.52625 0.12583 0.03706 0.0
O221 O 0.57106 0.11204 0.05095 0.0
O222 O 0.54903 0.03944 0.04729 0.0
O223 O 0.60289 0.07903 0.06327 0.0
H224 H 0.58953 0.09407 0.19379 0.0
H225 H 0.59977 0.10956 0.25351 0.0
H226 H 0.67487 0.20755 0.2285 0.0
H227 H 0.66464 0.19191 0.16889 0.0
H228 H 0.49079 0.08079 0.9532 0.0
H229 H 0.45263 0.07788 0.90347 0.0
H230 H 0.35939 1.00751 0.95199 0.0
H231 H 0.39749 1.01049 1.0016 0.0
La232 La 0.54209 0.56618 0.56905 0.0
La233 La 0.55342 0.62451 0.6105 0.0
C234 C 0.55206 0.51855 0.5342 0.0
C235 C 0.55696 0.48594 0.54035 0.0
C236 C 0.558 0.47499 0.57305 0.0
C237 C 0.56545 0.445 0.57847 0.0
C238 C 0.57143 0.42536 0.55122 0.0
C239 C 0.56954 0.43612 0.5185 0.0
C240 C 0.56248 0.46624 0.51315 0.0
C241 C 0.48281 0.56148 0.60681 0.0
C242 C 0.58167 0.56934 0.64183 0.0
C243 C 0.54738 0.67269 0.64737 0.0
C244 C 0.52212 0.69222 0.65271 0.0
C245 C 0.52863 0.71526 0.68 0.0
C246 C 0.50327 0.73187 0.6879 0.0
C247 C 0.47094 0.72572 0.66855 0.0
C248 C 0.46503 0.70338 0.64047 0.0
C249 C 0.49039 0.68652 0.63272 0.0
C250 C 0.61269 0.62807 0.57229 0.0
C251 C 0.51457 0.62183 0.53882 0.0
O252 O 0.51945 0.52094 0.54067 0.0
O253 O 0.57881 0.54513 0.5453 0.0
O254 O 0.48183 0.55073 0.57592 0.0
O255 O 0.51654 0.57378 0.61563 0.0
O256 O 0.56993 0.55212 0.61315 0.0
O257 O 0.57783 0.59939 0.64667 0.0
O258 O 0.56584 0.67689 0.61942 0.0
O259 O 0.53416 0.6409 0.65478 0.0
O260 O 0.61343 0.638 0.60339 0.0
O261 O 0.5788 0.61701 0.5639 0.0
O262 O 0.51602 0.63233 0.57075 0.0
O263 O 0.52828 0.59734 0.53089 0.0
H264 H 0.55345 0.48972 0.59435 0.0
H265 H 0.56643 0.43711 0.6039 0.0
H266 H 0.57446 0.42167 0.49706 0.0
H267 H 0.56193 0.47445 0.48778 0.0
H268 H 0.55297 0.71984 0.69572 0.0
H269 H 0.50878 0.74932 0.70938 0.0
H270 H 0.44024 0.69808 0.62525 0.0
H271 H 0.48479 0.66851 0.61173 0.0
La272 La 0.04636 0.5564 0.09906 0.0
La273 La 0.0532 0.61641 0.06599 0.0
C274 C 0.05882 0.50512 0.12063 0.0
C275 C 0.09247 0.49497 0.122 0.0
C276 C 0.11079 0.49609 0.15267 0.0
C277 C 0.14363 0.4882 0.15394 0.0
C278 C 0.15875 0.47883 0.12456 0.0
C279 C 0.13994 0.47702 0.09399 0.0
C280 C 0.10724 0.48502 0.09269 0.0
C281 C 1.01594 0.59661 0.13412 0.0
C282 C 0.12113 0.61874 0.10968 0.0
C283 C 0.04248 0.66827 0.04395 0.0
C284 C 1.01144 0.67498 0.02734 0.0
C285 C 1.01862 0.69905 1.00252 0.0
C286 C 0.98953 0.70669 0.9874 0.0
C287 C 0.95271 0.69047 0.997 0.0
C288 C 0.9456 0.66569 1.02132 0.0
C289 C 0.97469 0.65796 0.0363 0.0
C290 C 0.08793 0.57944 0.03249 0.0
C291 C 0.97755 0.55275 0.05584 0.0
O292 O 0.05883 0.53109 0.13972 0.0
O293 O 0.04532 0.50637 0.09088 0.0
O294 O 1.00244 0.56394 0.13156 0.0
O295 O 0.0459 0.60526 0.11794 0.0
O296 O 0.10581 0.58543 0.10719 0.0
O297 O 0.10294 0.63792 0.0977 0.0
O298 O 0.05852 0.64998 0.02674 0.0
O299 O 0.0372 0.65923 0.07503 0.0
O300 O 0.09997 0.61198 0.03733 0.0
O301 O 0.05652 0.56811 0.0467 0.0
O302 O 0.99544 0.5852 0.05097 0.0
O303 O 0.99288 0.53509 0.07398 0.0
H304 H 0.1 0.50359 0.17564 0.0
H305 H 0.15756 0.49015 0.17786 0.0
H306 H 0.1504 0.46927 0.07098 0.0
H307 H 0.09379 0.48364 0.0686 0.0
H308 H 0.04679 0.71221 0.99509 0.0
H309 H 0.9959 0.72547 0.96832 0.0
H310 H 0.91766 0.65299 0.02957 0.0
H311 H 0.96844 0.63913 0.05533 0.0
H312 H 0.27832 0.2287 0.26089 0.0
H313 H 0.33133 0.33064 0.30138 0.0
H314 H 0.28475 0.32039 0.34612 0.0
H315 H 0.18443 0.22343 0.27863 0.0
H316 H 0.17087 0.17981 0.29003 0.0
H317 H 0.20736 0.19572 0.26027 0.0
H318 H 0.25167 0.17566 0.29682 0.0
H319 H 0.2153 0.15962 0.32664 0.0
H320 H 0.25895 0.1896 0.34019 0.0
H321 H 0.23271 0.29868 0.38697 0.0
H322 H 0.1806 0.26629 0.422 0.0
H323 H 0.1636 0.17811 0.3559 0.0
C324 C 0.28042 0.24885 0.27927 0.0
C325 C 0.30851 0.28055 0.27745 0.0
C326 C 0.30975 0.30633 0.30183 0.0
C327 C 0.28353 0.3007 0.32747 0.0
C328 C 0.25635 0.26912 0.32852 0.0
C329 C 0.25474 0.24358 0.30515 0.0
C330 C 0.22342 0.21162 0.31238 0.0
C331 C 0.19483 0.2021 0.28362 0.0
C332 C 0.23823 0.18241 0.31943 0.0
C333 C 0.2078 0.22309 0.34361 0.0
C334 C 0.22695 0.25641 0.35238 0.0
C335 C 0.21748 0.27257 0.38033 0.0
C336 C 0.18779 0.25407 0.39996 0.0
C337 C 0.16819 0.21974 0.39165 0.0
C338 C 0.17834 0.20422 0.36301 0.0
H339 H 0.368 0.95427 0.74476 0.0
H340 H 0.25107 0.93735 0.76022 0.0
H341 H 0.26624 0.97754 0.80888 0.0
H342 H 0.38994 0.9516 0.82676 0.0
H343 H 0.43494 0.98342 0.8256 0.0
H344 H 0.41539 0.95942 0.78817 0.0
H345 H 0.42287 1.01493 0.75763 0.0
H346 H 0.44246 0.03918 0.79517 0.0
H347 H 0.40278 0.04508 0.77535 0.0
H348 H 0.29337 1.01138 0.86115 0.0
H349 H 0.33002 0.0355 0.91232 0.0
H350 H 0.42888 0.02916 0.86305 0.0
C351 C 0.34561 0.95958 0.75795 0.0
C352 C 0.30837 0.94276 0.74864 0.0
C353 C 0.27984 0.95035 0.76654 0.0
C354 C 0.28821 0.97312 0.79426 0.0
C355 C 0.32523 0.98834 0.80351 0.0
C356 C 0.35349 0.98206 0.78566 0.0
C357 C 0.39055 0.99827 0.80286 0.0
C358 C 0.40873 0.97159 0.81136 0.0
C359 C 0.41617 0.02602 0.78147 0.0
C360 C 0.37856 1.01322 0.83405 0.0
C361 C 0.34089 1.00785 0.83372 0.0
C362 C 0.32299 1.01639 0.86137 0.0
C363 C 0.34396 0.02992 0.89036 0.0
C364 C 0.38235 0.03455 0.89151 0.0
C365 C 0.39985 0.02694 0.8626 0.0
H366 H 0.60464 0.43085 0.77135 0.0
H367 H 0.68352 0.51329 0.82727 0.0
H368 H 0.67991 0.5525 0.78313 0.0
H369 H 0.63724 0.46123 0.68552 0.0
H370 H 0.59094 0.44682 0.66841 0.0
H371 H 0.60298 0.42491 0.70233 0.0
H372 H 0.54918 0.43304 0.73714 0.0
H373 H 0.53725 0.45529 0.70352 0.0
H374 H 0.54696 0.47504 0.74476 0.0
H375 H 0.66047 0.58454 0.73584 0.0
H376 H 0.6334 0.6049 0.68827 0.0
H377 H 0.56877 0.50169 0.66021 0.0
C378 C 0.62224 0.45697 0.77381 0.0
C379 C 0.64507 0.46855 0.80307 0.0
C380 C 0.66667 0.50324 0.80519 0.0
C381 C 0.66434 0.52587 0.7802 0.0
C382 C 0.64058 0.51376 0.75251 0.0
C383 C 0.62051 0.47984 0.74883 0.0
C384 C 0.59607 0.47334 0.71726 0.0
C385 C 0.60749 0.4502 0.69188 0.0
C386 C 0.55493 0.45828 0.72622 0.0
C387 C 0.60467 0.50897 0.70407 0.0
C388 C 0.63036 0.53191 0.72492 0.0
C389 C 0.6409 0.56653 0.71923 0.0
C390 C 0.62515 0.57796 0.69195 0.0
C391 C 0.59909 0.55522 0.66968 0.0
C392 C 0.58909 0.52 0.67599 0.0
H393 H 0.88818 0.64359 0.2772 0.0
H394 H 0.97644 0.73783 0.29738 0.0
H395 H 1.01556 0.72037 0.25552 0.0
H396 H 0.94773 0.58992 0.26306 0.0
H397 H 0.91783 0.56474 0.23043 0.0
H398 H 0.89879 0.58369 0.26391 0.0
H399 H 0.87029 0.61264 0.22034 0.0
H400 H 0.8897 0.59423 0.18675 0.0
H401 H 0.89986 0.63939 0.19013 0.0
H402 H 0.04278 0.694 0.20551 0.0
H403 H 0.05733 0.65987 0.15894 0.0
H404 H 0.95178 0.58189 0.17233 0.0
C405 C 0.91616 0.66026 0.27355 0.0
C406 C 0.92918 0.69215 0.29131 0.0
C407 C 0.96584 0.71313 0.28501 0.0
C408 C 0.98814 0.70346 0.26082 0.0
C409 C 0.97382 0.67243 0.24297 0.0
C410 C 0.93878 0.65088 0.24965 0.0
C411 C 0.92924 0.61926 0.22669 0.0
C412 C 0.92303 0.58752 0.24725 0.0
C413 C 0.89526 0.61621 0.20468 0.0
C414 C 0.96409 0.6263 0.20561 0.0
C415 C 0.98948 0.65722 0.21521 0.0
C416 C 0.0231 0.66964 0.19833 0.0
C417 C 0.03113 0.65003 0.17164 0.0
C418 C 1.00599 0.61787 0.16172 0.0
C419 C 0.97191 0.60613 0.17919 0.0
H420 H 0.44754 0.26719 0.20004 0.0
H421 H 0.33308 0.2019 0.19771 0.0
H422 H 0.35238 0.15506 0.17408 0.0
H423 H 0.47418 0.2371 0.12319 0.0
H424 H 0.51967 0.23945 0.13754 0.0
H425 H 0.49715 0.26747 0.15577 0.0
H426 H 0.50493 0.24665 0.21479 0.0
H427 H 0.52745 0.21851 0.19671 0.0
H428 H 0.48729 0.20209 0.22256 0.0
H429 H 0.38309 0.11692 0.14689 0.0
H430 H 0.4239 0.08869 0.11996 0.0
H431 H 0.51908 0.17749 0.14192 0.0
C432 C 0.42663 0.24296 0.19466 0.0
C433 C 0.38883 0.23807 0.20078 0.0
C434 C 0.36222 0.20602 0.19359 0.0
C435 C 0.37289 0.17932 0.18007 0.0
C436 C 0.41032 0.18499 0.17421 0.0
C437 C 0.43686 0.21588 0.18149 0.0
C438 C 0.47516 0.21531 0.17223 0.0
C439 C 0.49255 0.24138 0.1456 0.0
C440 C 0.50018 0.22097 0.20344 0.0
C441 C 0.46586 0.17947 0.15802 0.0
C442 C 0.42827 0.16249 0.15938 0.0
C443 C 0.41262 0.12976 0.14607 0.0
C444 C 0.43599 0.11399 0.13074 0.0
C445 C 0.47459 0.13084 0.12917 0.0
C446 C 0.48973 0.16384 0.14335 0.0
H447 H 0.13176 0.92146 0.62483 0.0
H448 H 0.2398 0.95199 0.57863 0.0
H449 H 0.22828 1.00253 0.55685 0.0
H450 H 0.08319 0.94815 0.56029 0.0
H451 H 0.05497 0.96267 0.58927 0.0
H452 H 0.07179 0.92888 0.60029 0.0
H453 H 0.10168 0.9628 0.65436 0.0
H454 H 0.08512 0.99675 0.64327 0.0
H455 H 0.13374 1.00505 0.65119 0.0
H456 H 0.20257 0.04775 0.53722 0.0
H457 H 0.16643 0.08578 0.52477 0.0
H458 H 0.07844 0.02731 0.58789 0.0
C459 C 0.15283 0.93872 0.60993 0.0
C460 C 0.18648 0.93291 0.60302 0.0
C461 C 0.21381 0.95619 0.58401 0.0
C462 C 0.20749 0.98484 0.57158 0.0
C463 C 0.17398 0.98995 0.57893 0.0
C464 C 0.14724 0.96765 0.59791 0.0
C465 C 0.11389 0.97913 0.60285 0.0
C466 C 0.07891 0.95317 0.58724 0.0
C467 C 0.1083 0.98637 0.64013 0.0
C468 C 0.12594 1.0113 0.58359 0.0
C469 C 0.16044 1.017 0.5696 0.0
C470 C 0.17587 0.0439 0.54863 0.0
C471 C 0.15529 0.06534 0.54174 0.0
C472 C 0.12026 0.0601 0.55644 0.0
C473 C 0.10571 0.03291 0.57767 0.0
H474 H 0.8061 0.46534 0.92502 0.0
H475 H 0.73989 0.43039 1.01305 0.0
H476 H 0.7926 0.46184 0.04925 0.0
H477 H 0.8912 0.46096 0.95767 0.0
H478 H 0.92082 0.49914 0.93969 0.0
H479 H 0.87737 0.47589 0.91972 0.0
H480 H 0.8576 0.52943 0.92238 0.0
H481 H 0.90113 0.5529 0.94221 0.0
H482 H 0.85827 0.5514 0.96208 0.0
H483 H 0.85377 0.4918 0.07688 0.0
H484 H 0.91827 0.52272 0.09404 0.0
H485 H 0.94755 0.54334 0.99027 0.0
C486 C 0.80248 0.46499 0.95189 0.0
C487 C 0.76827 0.44497 0.96594 0.0
C488 C 0.7654 0.44509 1.00139 0.0
C489 C 0.79538 0.46299 1.02233 0.0
C490 C 0.82878 0.48148 1.00794 0.0
C491 C 0.83256 0.48319 0.97355 0.0
C492 C 0.87225 0.50477 0.96514 0.0
C493 C 0.89155 0.48394 0.94431 0.0
C494 C 0.87231 0.53651 0.94686 0.0
C495 C 0.89008 0.51416 1.00003 0.0
C496 C 0.86424 0.5002 0.02422 0.0
C497 C 0.87401 0.50331 0.05813 0.0
C498 C 0.91088 0.52097 0.06772 0.0
C499 C 0.93813 0.53613 0.04383 0.0
C500 C 0.92732 0.5328 1.00935 0.0
H501 H 0.80877 0.6832 0.47383 0.0
H502 H 0.78861 0.77709 0.45464 0.0
H503 H 0.72798 0.75587 0.48224 0.0
H504 H 0.71323 0.62714 0.46307 0.0
H505 H 0.71537 0.6005 0.497 0.0
H506 H 0.75671 0.62205 0.47436 0.0
H507 H 0.78924 0.64955 0.52981 0.0
H508 H 0.74807 0.62796 0.5526 0.0
H509 H 0.76791 0.67332 0.5566 0.0
H510 H 0.66863 0.72452 0.51129 0.0
H511 H 0.61759 0.68743 0.54439 0.0
H512 H 0.67568 0.61436 0.54927 0.0
C513 C 0.79148 0.69918 0.47537 0.0
C514 C 0.80377 0.73203 0.4619 0.0
C515 C 0.78022 0.75209 0.46481 0.0
C516 C 0.7455 0.74012 0.48035 0.0
C517 C 0.73427 0.7079 0.49346 0.0
C518 C 0.75667 0.68776 0.49155 0.0
C519 C 0.73832 0.6547 0.50926 0.0
C520 C 0.73045 0.62429 0.48444 0.0
C521 C 0.76232 0.65118 0.53882 0.0
C522 C 0.70232 0.65951 0.52143 0.0
C523 C 0.70046 0.69025 0.51149 0.0
C524 C 0.66993 0.70046 0.51923 0.0
C525 C 0.6409 0.67914 0.53795 0.0
C526 C 0.64233 0.64789 0.54929 0.0
C527 C 0.67358 0.63797 0.54076 0.0
H528 H 0.30746 0.40173 0.19774 0.0
H529 H 0.3744 0.43872 0.11037 0.0
H530 H 0.32788 0.46336 0.09089 0.0
H531 H 0.21994 0.37733 0.15445 0.0
H532 H 0.19597 0.38941 0.18899 0.0
H533 H 0.23534 0.37595 0.19682 0.0
H534 H 0.26709 0.43201 0.2303 0.0
H535 H 0.22786 0.4457 0.22248 0.0
H536 H 0.27355 0.47172 0.21077 0.0
H537 H 0.27381 0.48345 0.08052 0.0
H538 H 0.21553 0.49681 0.07956 0.0
H539 H 0.18234 0.44398 0.17205 0.0
C540 C 0.31232 0.41479 0.17437 0.0
C541 C 0.34482 0.41838 0.15571 0.0
C542 C 0.35015 0.43612 0.12549 0.0
C543 C 0.32375 0.45003 0.11407 0.0
C544 C 0.29204 0.44588 0.13303 0.0
C545 C 0.28615 0.4286 0.16247 0.0
C546 C 0.24933 0.42704 0.17773 0.0
C547 C 0.22363 0.39025 0.17959 0.0
C548 C 0.25481 0.44521 0.21237 0.0
C549 C 0.23544 0.44617 0.15225 0.0
C550 C 0.26054 0.4569 0.12672 0.0
C551 C 0.25385 0.47504 0.10029 0.0
C552 C 0.22054 0.48231 0.09986 0.0
C553 C 0.19418 0.47131 0.12562 0.0
C554 C 0.20199 0.45308 0.15217 0.0
H555 H 0.61745 0.32041 0.95466 0.0
H556 H 0.73169 0.32279 0.9598 0.0
H557 H 0.71175 0.26723 0.98564 0.0
H558 H 0.58887 0.28003 0.03323 0.0
H559 H 0.54372 0.25404 1.01852 0.0
H560 H 0.56643 0.29394 0.99969 0.0
H561 H 0.56003 0.26386 0.94135 0.0
H562 H 0.53711 0.22389 0.95999 0.0
H563 H 0.57778 0.22915 0.93497 0.0
H564 H 0.67957 0.21075 1.01321 0.0
H565 H 0.63778 0.15833 0.03718 0.0
H566 H 0.54356 0.19002 1.01391 0.0
C567 C 0.63832 0.30914 0.96079 0.0
C568 C 0.67658 0.32696 0.95511 0.0
C569 C 0.70246 0.31069 0.96412 0.0
C570 C 0.69131 0.27874 0.97882 0.0
C571 C 0.65379 0.26235 0.98463 0.0
C572 C 0.62757 0.27688 0.97567 0.0
C573 C 0.58896 0.25368 0.98492 0.0
C574 C 0.57093 0.27149 1.01061 0.0
C575 C 0.56452 0.24195 0.95343 0.0
C576 C 0.59758 0.22404 1.00044 0.0
C577 C 0.63525 0.22967 1.00008 0.0
C578 C 0.65003 0.20618 1.01338 0.0
C579 C 0.62598 0.1763 0.02709 0.0
C580 C 0.58713 0.16948 0.02756 0.0
C581 C 0.57301 0.19408 1.014 0.0
H582 H 0.91851 0.82765 0.49733 0.0
H583 H 0.92038 0.84881 0.39164 0.0
H584 H 0.94989 0.90954 0.40537 0.0
H585 H 0.8977 0.90072 0.52796 0.0
H586 H 0.92726 0.90831 0.56447 0.0
H587 H 0.90776 0.86606 0.54674 0.0
H588 H 0.97333 0.86123 0.54112 0.0
H589 H 0.99299 0.90343 0.559 0.0
H590 H 1.00827 0.89273 0.51874 0.0
H591 H 0.97516 0.96898 0.43051 0.0
H592 H 0.99882 1.02186 0.4643 0.0
H593 H 0.98416 0.96451 0.55477 0.0
C594 C 0.92539 0.84498 0.47698 0.0
C595 C 0.91702 0.83275 0.4431 0.0
C596 C 0.92682 0.85679 0.41759 0.0
C597 C 0.94341 0.89163 0.42523 0.0
C598 C 0.95074 0.90272 0.45867 0.0
C599 C 0.94256 0.88008 0.48419 0.0
C600 C 0.95351 0.89899 0.51806 0.0
C601 C 0.91953 0.89317 0.54064 0.0
C602 C 0.98382 0.88846 0.53525 0.0
C603 C 0.96846 0.93577 0.50764 0.0
C604 C 0.96636 0.93714 0.4732 0.0
C605 C 0.97717 0.96804 0.45744 0.0
C606 C 0.99053 0.99817 0.47707 0.0
C607 C 0.99363 0.99795 0.51248 0.0
C608 C 0.98249 0.96595 0.52785 0.0
H609 H 0.34037 0.839 0.64652 0.0
H610 H 0.32292 0.83311 0.75378 0.0
H611 H 0.3592 0.79409 0.75687 0.0
H612 H 0.33645 0.75042 0.63148 0.0
H613 H 0.37235 0.7613 0.60047 0.0
H614 H 0.3425 0.78666 0.60617 0.0
H615 H 0.39985 0.84004 0.61605 0.0
H616 H 0.42983 0.81487 0.6105 0.0
H617 H 0.43287 0.84037 0.64833 0.0
H618 H 0.40038 0.75919 0.74921 0.0
H619 H 0.44415 0.7299 0.73118 0.0
H620 H 0.43524 0.75797 0.62876 0.0
C621 C 0.34364 0.82894 0.6705 0.0
C622 C 0.32894 0.83904 0.69994 0.0
C623 C 0.33428 0.82588 0.73101 0.0
C624 C 0.35462 0.80358 0.73297 0.0
C625 C 0.3693 0.79457 0.70362 0.0
C626 C 0.36401 0.80668 0.67293 0.0
C627 C 0.38449 0.79435 0.64554 0.0
C628 C 0.35732 0.77184 0.61937 0.0
C629 C 0.41348 0.82418 0.62916 0.0
C630 C 0.40265 0.77397 0.66577 0.0
C631 C 0.39327 0.77429 0.69917 0.0
C632 C 0.40775 0.75852 0.7231 0.0
C633 C 0.43274 0.74217 0.71266 0.0
C634 C 0.44307 0.74177 0.67863 0.0
C635 C 0.42744 0.75754 0.65485 0.0
H636 H 0.82907 0.84813 0.83058 0.0
H637 H 0.78617 0.91965 0.88368 0.0
H638 H 0.821 0.96429 0.84618 0.0
H639 H 0.92052 0.90574 0.82254 0.0
H640 H 0.92779 0.8892 0.78184 0.0
H641 H 0.89686 0.86205 0.81087 0.0
H642 H 0.84402 0.84719 0.76661 0.0
H643 H 0.87479 0.87426 0.73741 0.0
H644 H 0.83164 0.88072 0.74796 0.0
H645 H 0.86167 1.00154 0.80381 0.0
H646 H 0.9071 0.02917 0.76084 0.0
H647 H 0.92695 0.93442 0.73849 0.0
C648 C 0.827 0.87316 0.83456 0.0
C649 C 0.80455 0.88015 0.8601 0.0
C650 C 0.80242 0.9133 0.8639 0.0
C651 C 0.82236 0.93896 0.84288 0.0
C652 C 0.84458 0.9312 0.81836 0.0
C653 C 0.84717 0.89917 0.81423 0.0
C654 C 0.87444 0.89781 0.78711 0.0
C655 C 0.90682 0.88813 0.80146 0.0
C656 C 0.85505 0.87356 0.75805 0.0
C657 C 0.88692 0.93418 0.7767 0.0
C658 C 0.86907 0.95294 0.79479 0.0
C659 C 0.8758 0.98711 0.78947 0.0
C660 C 0.9015 1.00253 0.765 0.0
C661 C 0.92039 0.98385 0.74648 0.0
C662 C 0.91302 0.94927 0.7525 0.0
H663 H 0.7067 0.1352 0.42814 0.0
H664 H 0.71015 0.23804 0.45276 0.0
H665 H 0.68339 0.24124 0.39742 0.0
H666 H 0.73441 0.14954 0.34374 0.0
H667 H 0.70492 0.10891 0.3279 0.0
H668 H 0.72164 0.11375 0.37045 0.0
H669 H 0.65421 0.09027 0.39159 0.0
H670 H 0.63726 0.08547 0.34905 0.0
H671 H 0.62094 0.11004 0.37942 0.0
H672 H 0.66011 0.23477 0.33831 0.0
H673 H 0.6417 0.21874 0.27923 0.0
H674 H 0.6543 0.12061 0.2928 0.0
C675 C 0.70174 0.15836 0.42194 0.0
C676 C 0.71029 0.18627 0.44492 0.0
C677 C 0.70319 0.21608 0.43584 0.0
C678 C 0.68815 0.21822 0.4044 0.0
C679 C 0.68029 0.19034 0.38231 0.0
C680 C 0.68677 0.16096 0.39064 0.0
C681 C 0.67728 0.13518 0.36177 0.0
C682 C 0.71161 0.12634 0.35029 0.0
C683 C 0.64553 0.10336 0.37102 0.0
C684 C 0.66503 0.15489 0.33575 0.0
C685 C 0.6668 0.18659 0.34816 0.0
C686 C 0.65832 0.20991 0.32836 0.0
C687 C 0.64808 0.20067 0.29486 0.0
C688 C 0.64642 0.16842 0.28157 0.0
C689 C 0.65465 0.1452 0.30247 0.0
H690 H 0.48419 0.67603 0.35017 0.0
H691 H 0.42904 0.74337 0.39243 0.0
H692 H 0.43446 0.72215 0.44894 0.0
H693 H 0.44493 0.6054 0.40693 0.0
H694 H 0.48736 0.59542 0.40858 0.0
H695 H 0.4758 0.61373 0.37173 0.0
H696 H 0.53838 0.66209 0.37655 0.0
H697 H 0.54999 0.64416 0.41356 0.0
H698 H 0.55016 0.68729 0.41489 0.0
H699 H 0.45243 0.69634 0.50327 0.0
H700 H 0.47575 0.66715 0.54655 0.0
H701 H 0.5191 0.61622 0.46877 0.0
C702 C 0.47249 0.68599 0.37114 0.0
C703 C 0.4558 0.71157 0.36612 0.0
C704 C 0.44126 0.72355 0.39483 0.0
C705 C 0.44467 0.71178 0.42731 0.0
C706 C 0.46253 0.68756 0.4313 0.0
C707 C 0.47569 0.67449 0.40367 0.0
C708 C 0.4948 0.64945 0.41438 0.0
C709 C 0.47451 0.61389 0.39952 0.0
C710 C 0.53575 0.66147 0.40424 0.0
C711 C 0.49093 0.65055 0.45243 0.0
C712 C 0.47225 0.67273 0.4618 0.0
C713 C 0.46666 0.67875 0.49579 0.0
C714 C 0.48017 0.66193 0.52045 0.0
C715 C 0.49923 0.6388 0.51171 0.0
C716 C 0.50436 0.63322 0.47684 0.0
H717 H 0.10508 0.43483 0.89738 0.0
H718 H 0.20265 0.51002 0.85913 0.0
H719 H 0.19287 0.55249 0.89963 0.0
H720 H 0.05046 0.49138 0.91449 0.0
H721 H 0.03079 0.47064 0.95221 0.0
H722 H 0.04385 0.44705 0.91867 0.0
H723 H 0.08534 0.42874 0.95984 0.0
H724 H 0.0727 0.45254 0.99343 0.0
H725 H 0.12075 0.46057 0.9835 0.0
H726 H 0.17528 0.58582 0.9482 0.0
H727 H 0.14924 0.60867 0.99599 0.0
H728 H 0.06211 0.51232 1.00423 0.0
C729 C 0.12439 0.46031 0.89716 0.0
C730 C 0.15498 0.46869 0.87456 0.0
C731 C 0.17889 0.50264 0.87542 0.0
C732 C 0.17367 0.52694 0.89876 0.0
C733 C 0.14417 0.51734 0.92133 0.0
C734 C 0.11961 0.48485 0.92039 0.0
C735 C 0.09052 0.48079 0.94782 0.0
C736 C 0.05159 0.47194 0.93237 0.0
C737 C 0.09245 0.45407 0.9726 0.0
C738 C 0.10257 0.51602 0.96468 0.0
C739 C 0.13372 0.53658 0.94893 0.0
C740 C 0.15073 0.56989 0.96028 0.0
C741 C 0.13556 0.58268 0.98776 0.0
C742 C 0.10319 0.5627 1.00426 0.0
C743 C 0.08666 0.52859 0.99241 0.0
H744 H 0.60019 0.88053 0.96332 0.0
H745 H 0.71567 0.91369 0.99421 0.0
H746 H 0.71009 0.9678 1.01563 0.0
H747 H 0.59642 0.96155 0.93859 0.0
H748 H 0.55058 0.95443 0.95486 0.0
H749 H 0.56431 0.91916 0.94011 0.0
H750 H 0.54742 0.89122 0.99752 0.0
H751 H 0.53343 0.92628 1.01232 0.0
H752 H 0.5678 0.91467 0.03523 0.0
H753 H 0.6911 1.0178 0.03553 0.0
H754 H 0.65942 0.05824 0.05422 0.0
H755 H 0.55634 0.99103 1.01159 0.0
C756 C 0.62433 0.89906 0.97468 0.0
C757 C 0.65843 0.89285 0.97683 0.0
C758 C 0.6894 0.91804 0.99164 0.0
C759 C 0.68648 0.94883 1.00404 0.0
C760 C 0.65241 0.95404 1.00153 0.0
C761 C 0.62186 0.92978 0.98734 0.0
C762 C 0.58802 0.94096 0.98886 0.0
C763 C 0.57402 0.94422 0.9535 0.0
C764 C 0.55737 0.91685 1.00973 0.0
C765 C 0.60418 0.97516 1.00646 0.0
C766 C 0.64142 0.98246 1.01334 0.0
C767 C 0.66197 1.01241 0.03014 0.0
C768 C 0.64379 0.03525 0.04059 0.0
C769 C 0.60546 0.02779 0.03436 0.0
C770 C 0.58569 0.99753 1.0167 0.0
H771 H 0.84761 0.19841 0.52787 0.0
H772 H 0.76069 0.10469 0.50186 0.0
H773 H 0.80434 0.07292 0.50979 0.0
H774 H 0.92236 0.17479 0.48585 0.0
H775 H 0.95628 0.19604 0.51744 0.0
H776 H 0.91863 0.21158 0.50838 0.0
H777 H 0.9 0.20735 0.5709 0.0
H778 H 0.93755 0.19184 0.58012 0.0
H779 H 0.89091 0.1676 0.59108 0.0
H780 H 0.85501 0.05109 0.52632 0.0
H781 H 0.91155 0.04077 0.54622 0.0
H782 H 0.96748 0.1488 0.55663 0.0
C783 C 0.83807 0.17124 0.52361 0.0
C784 C 0.801 0.15377 0.51438 0.0
C785 C 0.78915 0.11831 0.50884 0.0
C786 C 0.81367 0.10014 0.51327 0.0
C787 C 0.85006 0.118 0.52259 0.0
C788 C 0.86244 0.15279 0.52721 0.0
C789 C 0.9029 0.16568 0.53746 0.0
C790 C 0.92643 0.18836 0.51068 0.0
C791 C 0.90812 0.1842 0.57194 0.0
C792 C 0.91093 0.13262 0.53894 0.0
C793 C 0.88001 0.10543 0.53034 0.0
C794 C 0.87965 0.07216 0.53244 0.0
C795 C 0.91171 0.06653 0.54382 0.0
C796 C 0.94367 0.09401 0.5524 0.0
C797 C 0.9435 0.12744 0.54945 0.0
H798 H 0.29514 0.76383 0.19855 0.0
H799 H 0.34245 0.68466 0.21739 0.0
H800 H 0.28789 0.64277 0.19079 0.0
H801 H 0.19906 0.71417 0.21148 0.0
H802 H 0.18168 0.73296 0.17812 0.0
H803 H 0.22377 0.75682 0.1999 0.0
H804 H 0.2585 0.76705 0.14358 0.0
H805 H 0.21654 0.74316 0.12164 0.0
H806 H 0.25769 0.7314 0.11662 0.0
H807 H 0.22776 0.6086 0.16066 0.0
H808 H 0.16801 0.58565 0.13073 0.0
H809 H 0.15936 0.68643 0.12865 0.0
C810 C 0.29439 0.73776 0.19707 0.0
C811 C 0.32392 0.72812 0.21073 0.0
C812 C 0.32057 0.69328 0.20819 0.0
C813 C 0.28956 0.66908 0.19267 0.0
C814 C 0.26148 0.67959 0.17932 0.0
C815 C 0.26357 0.71315 0.18138 0.0
C816 C 0.22972 0.71779 0.16456 0.0
C817 C 0.20723 0.73124 0.19004 0.0
C818 C 0.24131 0.74124 0.13484 0.0
C819 C 0.20828 0.68166 0.15262 0.0
C820 C 0.22716 0.66004 0.16153 0.0
C821 C 0.21293 0.62545 0.1536 0.0
C822 C 0.17872 0.61258 0.13643 0.0
C823 C 0.15848 0.63396 0.12687 0.0
C824 C 0.1739 0.66917 0.13517 0.0
H825 H 0.27578 0.45179 0.66079 0.0
H826 H 0.31098 0.47432 0.76464 0.0
H827 H 0.37209 0.51076 0.74594 0.0
H828 H 0.36151 0.44497 0.63069 0.0
H829 H 0.35887 0.46348 0.59109 0.0
H830 H 0.31708 0.44122 0.61267 0.0
H831 H 0.29605 0.49402 0.61121 0.0
H832 H 0.33781 0.51648 0.58964 0.0
H833 H 0.32603 0.53393 0.62823 0.0
H834 H 0.43206 0.5438 0.71501 0.0
H835 H 0.48317 0.56871 0.67565 0.0
H836 H 0.40999 0.523 0.59205 0.0
C837 C 0.29616 0.46414 0.67987 0.0
C838 C 0.28761 0.45966 0.71457 0.0
C839 C 0.31573 0.4773 0.73805 0.0
C840 C 0.35097 0.49803 0.72758 0.0
C841 C 0.35842 0.50126 0.69333 0.0
C842 C 0.33165 0.48474 0.66984 0.0
C843 C 0.34687 0.49145 0.6345 0.0
C844 C 0.34603 0.45831 0.61616 0.0
C845 C 0.32541 0.51008 0.61473 0.0
C846 C 0.38649 0.51411 0.64163 0.0
C847 C 0.39261 0.51968 0.67574 0.0
C848 C 0.4273 0.53954 0.68831 0.0
C849 C 0.45631 0.55371 0.66567 0.0
C850 C 0.45097 0.54807 0.63057 0.0
C851 C 0.41525 0.52806 0.61864 0.0
H852 H 0.85527 0.82095 0.93821 0.0
H853 H 0.75434 0.73648 0.92177 0.0
H854 H 0.78667 0.69717 0.93963 0.0
H855 H 0.91831 0.77936 0.90839 0.0
H856 H 0.95329 0.79958 0.93947 0.0
H857 H 0.92202 0.82073 0.92555 0.0
H858 H 0.90226 0.82708 0.98688 0.0
H859 H 0.93362 0.80615 1.00101 0.0
H860 H 0.88534 0.79007 1.01171 0.0
H861 H 0.83101 0.6673 0.95831 0.0
H862 H 0.88263 0.64954 0.97879 0.0
H863 H 0.95336 0.75442 0.98396 0.0
C864 C 0.84003 0.79415 0.93816 0.0
C865 C 0.80244 0.78162 0.92841 0.0
C866 C 0.78317 0.7465 0.92929 0.0
C867 C 0.80133 0.72404 0.93921 0.0
C868 C 0.8386 0.73726 0.94833 0.0
C869 C 0.85761 0.77153 0.94809 0.0
C870 C 0.89728 0.77951 0.95953 0.0
C871 C 0.92431 0.79575 0.93156 0.0
C872 C 0.90506 0.80203 0.99169 0.0
C873 C 0.89777 0.74433 0.96614 0.0
C874 C 0.86376 0.72025 0.95945 0.0
C875 C 0.85771 0.68598 0.96378 0.0
C876 C 0.88713 0.67616 0.97556 0.0
C877 C 0.92208 0.70057 0.98297 0.0
C878 C 0.92725 0.73504 0.97801 0.0
H879 H 0.47796 0.8545 0.20884 0.0
H880 H 0.36276 0.84925 0.20376 0.0
H881 H 0.38084 0.90342 0.17545 0.0
H882 H 0.51509 0.94622 0.22521 0.0
H883 H 0.55579 0.95162 0.2002 0.0
H884 H 0.53407 0.91215 0.22016 0.0
H885 H 0.52815 0.88021 0.16283 0.0
H886 H 0.54969 0.9196 0.14269 0.0
H887 H 0.50487 0.89223 0.12866 0.0
H888 H 0.41137 0.95908 0.1455 0.0
H889 H 0.45191 1.01124 0.11991 0.0
H890 H 0.54788 0.98299 0.14523 0.0
C891 C 0.45645 0.86479 0.20215 0.0
C892 C 0.4185 0.84647 0.20856 0.0
C893 C 0.39181 0.86158 0.19882 0.0
C894 C 0.40188 0.89279 0.18272 0.0
C895 C 0.43914 0.90968 0.17628 0.0
C896 C 0.46612 0.89633 0.18594 0.0
C897 C 0.50426 0.91994 0.17606 0.0
C898 C 0.52875 0.93327 0.20727 0.0
C899 C 0.52284 0.90191 0.15108 0.0
C900 C 0.49451 0.94845 0.15942 0.0
C901 C 0.4567 0.94194 0.15969 0.0
C902 C 0.44103 0.96435 0.14538 0.0
C903 C 0.46434 0.99407 0.13075 0.0
C904 C 0.50331 1.00176 0.13042 0.0
C905 C 0.51829 0.97825 0.14502 0.0
H906 H 0.16175 0.31325 0.7318 0.0
H907 H 0.19493 0.37876 0.6473 0.0
H908 H 0.16982 0.32981 0.60862 0.0
H909 H 0.18134 0.24108 0.69409 0.0
H910 H 0.14155 0.20974 0.71101 0.0
H911 H 0.16179 0.2498 0.73307 0.0
H912 H 0.09858 0.25994 0.73265 0.0
H913 H 0.0781 0.21983 0.71074 0.0
H914 H 0.07463 0.25791 0.69341 0.0
H915 H 0.14293 0.27427 0.57811 0.0
H916 H 0.11318 0.21602 0.55738 0.0
H917 H 0.09368 0.18295 0.65973 0.0
C918 C 0.16344 0.3174 0.70517 0.0
C919 C 0.1812 0.35048 0.693 0.0
C920 C 0.1826 0.35412 0.65775 0.0
C921 C 0.16808 0.32628 0.63535 0.0
C922 C 0.15161 0.29428 0.64806 0.0
C923 C 0.14881 0.28953 0.68211 0.0
C924 C 0.12936 0.25201 0.6886 0.0
C925 C 0.15505 0.23729 0.70784 0.0
C926 C 0.09301 0.24714 0.70748 0.0
C927 C 0.1219 0.23659 0.65292 0.0
C928 C 0.13521 0.26173 0.63013 0.0
C929 C 0.1323 0.25444 0.59579 0.0
C930 C 0.11523 0.22088 0.58421 0.0
C931 C 0.10071 0.19412 0.60658 0.0
C932 C 0.10432 0.20241 0.64168 0.0
H933 H 0.69254 0.31713 0.61893 0.0
H934 H 0.63235 0.23793 0.54772 0.0
H935 H 0.59183 0.27096 0.53359 0.0
H936 H 0.61234 0.34224 0.64703 0.0
H937 H 0.63887 0.38658 0.64969 0.0
H938 H 0.66107 0.3554 0.65694 0.0
H939 H 0.70886 0.3809 0.61085 0.0
H940 H 0.68686 0.41211 0.60352 0.0
H941 H 0.69276 0.38511 0.56938 0.0
H942 H 0.56117 0.31353 0.52379 0.0
H943 H 0.54222 0.36419 0.51848 0.0
H944 H 0.62196 0.41657 0.59557 0.0
C945 C 0.67035 0.3066 0.60087 0.0
C946 C 0.66548 0.27508 0.58435 0.0
C947 C 0.63661 0.2622 0.56043 0.0
C948 C 0.61334 0.28063 0.5524 0.0
C949 C 0.61919 0.31188 0.5686 0.0
C950 C 0.64688 0.32485 0.59237 0.0
C951 C 0.64865 0.36015 0.60423 0.0
C952 C 0.63969 0.36113 0.6417 0.0
C953 C 0.68653 0.38609 0.59652 0.0
C954 C 0.61818 0.36511 0.58289 0.0
C955 C 0.60137 0.33679 0.56277 0.0
C956 C 0.57382 0.33578 0.53963 0.0
C957 C 0.56339 0.36467 0.53666 0.0
C958 C 0.58057 0.39416 0.55665 0.0
C959 C 0.60793 0.39414 0.58039 0.0
loop_
_geom_bond_atom_site_label_1
_geom_bond_atom_site_label_2
_geom_bond_distance
_geom_bond_site_symmetry_2
_ccdc_geom_bond_type
H0 C1 0.949 . S
C1 H0 0.949 . S
C1 C2 1.395 . S
C1 C3 1.391 . S
C2 C1 1.395 . S
C2 C5 1.390 . S
C3 C1 1.391 . S
C3 C7 1.387 . S
C3 C8 1.491 . S
H4 C5 0.950 . S
C5 C2 1.390 . S
C5 H4 0.950 . S
C5 C6 1.378 . S
C6 C5 1.378 . S
C6 C7 1.409 . S
C7 C3 1.387 . S
C7 C6 1.409 . S
C7 H9 0.951 . S
C8 C3 1.491 . S
C8 C10 1.382 . S
C8 C12 1.404 . S
H9 C7 0.951 . S
C10 C8 1.382 . S
C10 C11 1.390 . S
C10 H15 0.949 . S
C11 C10 1.390 . S
C11 C16 1.399 . S
C12 C8 1.404 . S
C12 H13 0.950 . S
C12 C14 1.375 . S
H13 C12 0.950 . S
C14 C12 1.375 . S
C14 C16 1.382 . S
C14 H18 0.950 . S
H15 C10 0.949 . S
C16 C11 1.399 . S
C16 C14 1.382 . S
C16 H17 0.952 . S
H17 C16 0.952 . S
H18 C14 0.950 . S
H19 C20 0.949 . S
C20 H19 0.949 . S
C20 C21 1.395 . S
C20 C22 1.391 . S
C21 C20 1.395 . S
C21 C24 1.390 . S
C22 C20 1.391 . S
C22 C26 1.387 . S
C22 C27 1.491 . S
H23 C24 0.950 . S
C24 C21 1.390 . S
C24 H23 0.950 . S
C24 C25 1.378 . S
C25 C24 1.378 . S
C25 C26 1.409 . S
C26 C22 1.387 . S
C26 C25 1.409 . S
C26 H28 0.951 . S
C27 C22 1.491 . S
C27 C29 1.382 . S
C27 C31 1.404 . S
H28 C26 0.951 . S
C29 C27 1.382 . S
C29 C30 1.390 . S
C29 H34 0.949 . S
C30 C29 1.390 . S
C30 C35 1.399 . S
C31 C27 1.404 . S
C31 H32 0.950 . S
C31 C33 1.375 . S
H32 C31 0.950 . S
C33 C31 1.375 . S
C33 C35 1.382 . S
C33 H37 0.950 . S
H34 C29 0.949 . S
C35 C30 1.399 . S
C35 C33 1.382 . S
C35 H36 0.952 . S
H36 C35 0.952 . S
H37 C33 0.950 . S
H38 C39 0.949 . S
C39 H38 0.949 . S
C39 C40 1.395 . S
C39 C41 1.391 . S
C40 C39 1.395 . S
C40 C43 1.390 . S
C41 C39 1.391 . S
C41 C45 1.387 . S
C41 C46 1.491 . S
H42 C43 0.950 . S
C43 C40 1.390 . S
C43 H42 0.950 . S
C43 C44 1.378 . S
C44 C43 1.378 . S
C44 C45 1.409 . S
C45 C41 1.387 . S
C45 C44 1.409 . S
C45 H47 0.951 . S
C46 C41 1.491 . S
C46 C48 1.382 . S
C46 C50 1.404 . S
H47 C45 0.951 . S
C48 C46 1.382 . S
C48 C49 1.390 . S
C48 H53 0.949 . S
C49 C48 1.390 . S
C49 C54 1.399 . S
C50 C46 1.404 . S
C50 H51 0.950 . S
C50 C52 1.375 . S
H51 C50 0.950 . S
C52 C50 1.375 . S
C52 C54 1.382 . S
C52 H56 0.950 . S
H53 C48 0.949 . S
C54 C49 1.399 . S
C54 C52 1.382 . S
C54 H55 0.952 . S
H55 C54 0.952 . S
H56 C52 0.950 . S
H57 C58 0.949 . S
C58 H57 0.949 . S
C58 C59 1.395 . S
C58 C60 1.391 . S
C59 C58 1.395 . S
C59 C62 1.390 . S
C60 C58 1.391 . S
C60 C64 1.387 . S
C60 C65 1.491 . S
H61 C62 0.950 . S
C62 C59 1.390 . S
C62 H61 0.950 . S
C62 C63 1.378 . S
C63 C62 1.378 . S
C63 C64 1.409 . S
C64 C60 1.387 . S
C64 C63 1.409 . S
C64 H66 0.951 . S
C65 C60 1.491 . S
C65 C67 1.382 . S
C65 C69 1.404 . S
H66 C64 0.951 . S
C67 C65 1.382 . S
C67 C68 1.390 . S
C67 H72 0.949 . S
C68 C67 1.390 . S
C68 C73 1.399 . S
C69 C65 1.404 . S
C69 H70 0.950 . S
C69 C71 1.375 . S
H70 C69 0.950 . S
C71 C69 1.375 . S
C71 C73 1.382 . S
C71 H75 0.950 . S
H72 C67 0.949 . S
C73 C68 1.399 . S
C73 C71 1.382 . S
C73 H74 0.952 . S
H74 C73 0.952 . S
H75 C71 0.950 . S
H76 C77 0.949 . S
C77 H76 0.949 . S
C77 C78 1.395 . S
C77 C79 1.391 . S
C78 C77 1.395 . S
C78 C81 1.390 . S
C79 C77 1.391 . S
C79 C83 1.387 . S
C79 C84 1.491 . S
H80 C81 0.950 . S
C81 C78 1.390 . S
C81 H80 0.950 . S
C81 C82 1.378 . S
C82 C81 1.378 . S
C82 C83 1.409 . S
C83 C79 1.387 . S
C83 C82 1.409 . S
C83 H85 0.951 . S
C84 C79 1.491 . S
C84 C86 1.382 . S
C84 C88 1.404 . S
H85 C83 0.951 . S
C86 C84 1.382 . S
C86 C87 1.390 . S
C86 H91 0.949 . S
C87 C86 1.390 . S
C87 C92 1.399 . S
C88 C84 1.404 . S
C88 H89 0.950 . S
C88 C90 1.375 . S
H89 C88 0.950 . S
C90 C88 1.375 . S
C90 C92 1.382 . S
C90 H94 0.950 . S
H91 C86 0.949 . S
C92 C87 1.399 . S
C92 C90 1.382 . S
C92 H93 0.952 . S
H93 C92 0.952 . S
H94 C90 0.950 . S
H95 C96 0.949 . S
C96 H95 0.949 . S
C96 C97 1.395 . S
C96 C98 1.391 . S
C97 C96 1.395 . S
C97 C100 1.390 . S
C98 C96 1.391 . S
C98 C102 1.387 . S
C98 C103 1.491 . S
H99 C100 0.950 . S
C100 C97 1.390 . S
C100 H99 0.950 . S
C100 C101 1.378 . S
C101 C100 1.378 . S
C101 C102 1.409 . S
C102 C98 1.387 . S
C102 C101 1.409 . S
C102 H104 0.951 . S
C103 C98 1.491 . S
C103 C105 1.382 . S
C103 C107 1.404 . S
H104 C102 0.951 . S
C105 C103 1.382 . S
C105 C106 1.390 . S
C105 H110 0.949 . S
C106 C105 1.390 . S
C106 C111 1.399 . S
C107 C103 1.404 . S
C107 H108 0.950 . S
C107 C109 1.375 . S
H108 C107 0.950 . S
C109 C107 1.375 . S
C109 C111 1.382 . S
C109 H113 0.950 . S
H110 C105 0.949 . S
C111 C106 1.399 . S
C111 C109 1.382 . S
C111 H112 0.952 . S
H112 C111 0.952 . S
H113 C109 0.950 . S
H114 C115 0.949 . S
C115 H114 0.949 . S
C115 C116 1.395 . S
C115 C117 1.391 . S
C116 C115 1.395 . S
C116 C119 1.390 . S
C117 C115 1.391 . S
C117 C121 1.387 . S
C117 C122 1.491 . S
H118 C119 0.950 . S
C119 C116 1.390 . S
C119 H118 0.950 . S
C119 C120 1.378 . S
C120 C119 1.378 . S
C120 C121 1.409 . S
C121 C117 1.387 . S
C121 C120 1.409 . S
C121 H123 0.951 . S
C122 C117 1.491 . S
C122 C124 1.382 . S
C122 C126 1.404 . S
H123 C121 0.951 . S
C124 C122 1.382 . S
C124 C125 1.390 . S
C124 H129 0.949 . S
C125 C124 1.390 . S
C125 C130 1.399 . S
C126 C122 1.404 . S
C126 H127 0.950 . S
C126 C128 1.375 . S
H127 C126 0.950 . S
C128 C126 1.375 . S
C128 C130 1.382 . S
C128 H132 0.950 . S
H129 C124 0.949 . S
C130 C125 1.399 . S
C130 C128 1.382 . S
C130 H131 0.952 . S
H131 C130 0.952 . S
H132 C128 0.950 . S
H133 C134 0.949 . S
C134 H133 0.949 . S
C134 C135 1.395 . S
C134 C136 1.391 . S
C135 C134 1.395 . S
C135 C138 1.390 . S
C136 C134 1.391 . S
C136 C140 1.387 . S
C136 C141 1.491 . S
H137 C138 0.950 . S
C138 C135 1.390 . S
C138 H137 0.950 . S
C138 C139 1.378 . S
C139 C138 1.378 . S
C139 C140 1.409 . S
C140 C136 1.387 . S
C140 C139 1.409 . S
C140 H142 0.951 . S
C141 C136 1.491 . S
C141 C143 1.382 . S
C141 C145 1.404 . S
H142 C140 0.951 . S
C143 C141 1.382 . S
C143 C144 1.390 . S
C143 H148 0.949 . S
C144 C143 1.390 . S
C144 C149 1.399 . S
C145 C141 1.404 . S
C145 H146 0.950 . S
C145 C147 1.375 . S
H146 C145 0.950 . S
C147 C145 1.375 . S
C147 C149 1.382 . S
C147 H151 0.950 . S
H148 C143 0.949 . S
C149 C144 1.399 . S
C149 C147 1.382 . S
C149 H150 0.952 . S
H150 C149 0.952 . S
H151 C147 0.950 . S
La152 C154 2.928 . S
La152 O172 2.521 . S
La152 O173 2.628 . S
La152 O174 2.554 . S
La152 O175 2.757 . S
La152 O176 2.470 . S
La152 O181 2.482 1_455 S
La152 O183 2.504 1_445 S
La153 C163 2.928 1_545 S
La153 O175 2.482 1_655 S
La153 O177 2.503 1_655 S
La153 O178 2.521 1_545 S
La153 O179 2.628 1_545 S
La153 O180 2.554 . S
La153 O181 2.757 . S
La153 O182 2.470 1_545 S
C154 La152 2.928 . S
C154 C155 1.503 . S
C154 O172 1.261 . S
C154 O173 1.243 . S
C155 C154 1.503 . S
C155 C156 1.394 . S
C155 C160 1.373 . S
C156 C155 1.394 . S
C156 C157 1.380 . S
C156 H184 0.930 . S
C157 C156 1.380 . S
C157 C158 1.376 . S
C157 H185 0.930 . S
C158 C157 1.376 . S
C158 C159 1.370 . S
C159 C158 1.370 . S
C159 C160 1.396 . S
C159 H186 0.929 . S
C160 C155 1.373 . S
C160 C159 1.396 . S
C160 H187 0.929 . S
C161 O174 1.240 . S
C161 O175 1.289 . S
C162 O176 1.258 . S
C162 O177 1.256 . S
C163 La153 2.928 1_565 S
C163 C164 1.503 . S
C163 O178 1.261 . S
C163 O179 1.243 . S
C164 C163 1.503 . S
C164 C165 1.394 . S
C164 C169 1.373 . S
C165 C164 1.394 . S
C165 C166 1.380 . S
C165 H188 0.930 . S
C166 C165 1.380 . S
C166 C167 1.376 . S
C166 H189 0.930 . S
C167 C166 1.376 . S
C167 C168 1.370 . S
C168 C167 1.370 . S
C168 C169 1.396 . S
C168 H190 0.929 . S
C169 C164 1.373 . S
C169 C168 1.396 . S
C169 H191 0.929 . S
C170 O180 1.240 . S
C170 O181 1.289 . S
C171 O182 1.258 . S
C171 O183 1.255 . S
O172 La152 2.521 . S
O172 C154 1.261 . S
O173 La152 2.628 . S
O173 C154 1.243 . S
O174 La152 2.554 . S
O174 C161 1.240 . S
O175 La152 2.757 . S
O175 La153 2.482 1_455 S
O175 C161 1.289 . S
O176 La152 2.470 . S
O176 C162 1.258 . S
O177 La153 2.503 1_455 S
O177 C162 1.256 . S
O178 La153 2.521 1_565 S
O178 C163 1.261 . S
O179 La153 2.628 1_565 S
O179 C163 1.243 . S
O180 La153 2.554 . S
O180 C170 1.240 . S
O181 La152 2.482 1_655 S
O181 La153 2.757 . S
O181 C170 1.289 . S
O182 La153 2.470 1_565 S
O182 C171 1.258 . S
O183 La152 2.504 1_665 S
O183 C171 1.255 . S
H184 C156 0.930 . S
H185 C157 0.930 . S
H186 C159 0.929 . S
H187 C160 0.929 . S
H188 C165 0.930 . S
H189 C166 0.930 . S
H190 C168 0.929 . S
H191 C169 0.929 . S
La192 C194 2.928 . S
La192 O212 2.521 . S
La192 O213 2.628 . S
La192 O214 2.554 1_545 S
La192 O215 2.757 1_545 S
La192 O216 2.470 . S
La192 O221 2.482 . S
La192 O223 2.503 . S
La193 C203 2.928 1_544 S
La193 O215 2.482 1_545 S
La193 O217 2.503 . S
La193 O218 2.521 1_554 S
La193 O219 2.628 1_545 S
La193 O220 2.554 . S
La193 O221 2.757 . S
La193 O222 2.470 . S
C194 La192 2.928 . S
C194 C195 1.503 . S
C194 O212 1.261 . S
C194 O213 1.243 . S
C195 C194 1.503 . S
C195 C196 1.394 . S
C195 C200 1.373 . S
C196 C195 1.394 . S
C196 C197 1.380 . S
C196 H224 0.930 . S
C197 C196 1.380 . S
C197 C198 1.376 . S
C197 H225 0.930 . S
C198 C197 1.376 . S
C198 C199 1.370 . S
C199 C198 1.370 . S
C199 C200 1.396 . S
C199 H226 0.929 . S
C200 C195 1.373 . S
C200 C199 1.396 . S
C200 H227 0.929 . S
C201 O214 1.240 . S
C201 O215 1.289 . S
C202 O216 1.258 . S
C202 O217 1.256 . S
C203 La193 2.928 1_566 S
C203 C204 1.503 . S
C203 O218 1.261 1_565 S
C203 O219 1.243 1_556 S
C204 C203 1.503 . S
C204 C205 1.394 . S
C204 C209 1.373 . S
C205 C204 1.394 . S
C205 C206 1.380 . S
C205 H228 0.930 1_565 S
C206 C205 1.380 . S
C206 C207 1.376 . S
C206 H229 0.930 . S
C207 C206 1.376 . S
C207 C208 1.370 . S
C208 C207 1.370 . S
C208 C209 1.396 . S
C208 H230 0.929 . S
C209 C204 1.373 . S
C209 C208 1.396 . S
C209 H231 0.929 . S
C210 O220 1.240 . S
C210 O221 1.289 . S
C211 O222 1.258 1_565 S
C211 O223 1.256 1_565 S
O212 La192 2.521 . S
O212 C194 1.261 . S
O213 La192 2.628 . S
O213 C194 1.243 . S
O214 La192 2.554 1_565 S
O214 C201 1.240 . S
O215 La192 2.757 1_565 S
O215 La193 2.482 1_565 S
O215 C201 1.289 . S
O216 La192 2.470 . S
O216 C202 1.258 . S
O217 La193 2.503 . S
O217 C202 1.256 . S
O218 La193 2.521 1_556 S
O218 C203 1.261 1_545 S
O219 La193 2.628 1_565 S
O219 C203 1.243 1_554 S
O220 La193 2.554 . S
O220 C210 1.240 . S
O221 La192 2.482 . S
O221 La193 2.757 . S
O221 C210 1.289 . S
O222 La193 2.470 . S
O222 C211 1.258 1_545 S
O223 La192 2.503 . S
O223 C211 1.256 1_545 S
H224 C196 0.930 . S
H225 C197 0.930 . S
H226 C199 0.929 . S
H227 C200 0.929 . S
H228 C205 0.930 1_545 S
H229 C206 0.930 . S
H230 C208 0.929 . S
H231 C209 0.929 . S
La232 C234 2.928 . S
La232 O252 2.521 . S
La232 O253 2.628 . S
La232 O254 2.554 . S
La232 O255 2.757 . S
La232 O256 2.470 . S
La232 O261 2.482 . S
La232 O263 2.503 . S
La233 C243 2.928 . S
La233 O255 2.482 . S
La233 O257 2.503 . S
La233 O258 2.521 . S
La233 O259 2.628 . S
La233 O260 2.554 . S
La233 O261 2.757 . S
La233 O262 2.470 . S
C234 La232 2.928 . S
C234 C235 1.503 . S
C234 O252 1.261 . S
C234 O253 1.243 . S
C235 C234 1.503 . S
C235 C236 1.394 . S
C235 C240 1.373 . S
C236 C235 1.394 . S
C236 C237 1.380 . S
C236 H264 0.930 . S
C237 C236 1.380 . S
C237 C238 1.376 . S
C237 H265 0.930 . S
C238 C237 1.376 . S
C238 C239 1.370 . S
C239 C238 1.370 . S
C239 C240 1.396 . S
C239 H266 0.929 . S
C240 C235 1.373 . S
C240 C239 1.396 . S
C240 H267 0.929 . S
C241 O254 1.240 . S
C241 O255 1.289 . S
C242 O256 1.258 . S
C242 O257 1.256 . S
C243 La233 2.928 . S
C243 C244 1.503 . S
C243 O258 1.261 . S
C243 O259 1.243 . S
C244 C243 1.503 . S
C244 C245 1.394 . S
C244 C249 1.373 . S
C245 C244 1.394 . S
C245 C246 1.380 . S
C245 H268 0.930 . S
C246 C245 1.380 . S
C246 C247 1.376 . S
C246 H269 0.930 . S
C247 C246 1.376 . S
C247 C248 1.370 . S
C248 C247 1.370 . S
C248 C249 1.396 . S
C248 H270 0.929 . S
C249 C244 1.373 . S
C249 C248 1.396 . S
C249 H271 0.929 . S
C250 O260 1.240 . S
C250 O261 1.289 . S
C251 O262 1.258 . S
C251 O263 1.256 . S
O252 La232 2.521 . S
O252 C234 1.261 . S
O253 La232 2.628 . S
O253 C234 1.243 . S
O254 La232 2.554 . S
O254 C241 1.240 . S
O255 La232 2.757 . S
O255 La233 2.482 . S
O255 C241 1.289 . S
O256 La232 2.470 . S
O256 C242 1.258 . S
O257 La233 2.503 . S
O257 C242 1.256 . S
O258 La233 2.521 . S
O258 C243 1.261 . S
O259 La233 2.628 . S
O259 C243 1.243 . S
O260 La233 2.554 . S
O260 C250 1.240 . S
O261 La232 2.482 . S
O261 La233 2.757 . S
O261 C250 1.289 . S
O262 La233 2.470 . S
O262 C251 1.258 . S
O263 La232 2.503 . S
O263 C251 1.256 . S
H264 C236 0.930 . S
H265 C237 0.930 . S
H266 C239 0.929 . S
H267 C240 0.929 . S
H268 C245 0.930 . S
H269 C246 0.930 . S
H270 C248 0.929 . S
H271 C249 0.929 . S
La272 C274 2.928 . S
La272 O292 2.521 . S
La272 O293 2.628 . S
La272 O294 2.554 . S
La272 O295 2.757 . S
La272 O296 2.470 . S
La272 O301 2.482 1_554 S
La272 O303 2.503 1_455 S
La273 C283 2.928 1_455 S
La273 O295 2.482 1_556 S
La273 O297 2.503 1_556 S
La273 O298 2.521 . S
La273 O299 2.628 1_455 S
La273 O300 2.554 . S
La273 O301 2.757 . S
La273 O302 2.470 1_455 S
C274 La272 2.928 . S
C274 C275 1.503 . S
C274 O292 1.261 . S
C274 O293 1.243 . S
C275 C274 1.503 . S
C275 C276 1.394 . S
C275 C280 1.373 . S
C276 C275 1.394 . S
C276 C277 1.380 . S
C276 H304 0.930 . S
C277 C276 1.380 . S
C277 C278 1.376 . S
C277 H305 0.930 . S
C278 C277 1.376 . S
C278 C279 1.370 . S
C279 C278 1.370 . S
C279 C280 1.396 . S
C279 H306 0.929 . S
C280 C275 1.373 . S
C280 C279 1.396 . S
C280 H307 0.929 . S
C281 O294 1.240 . S
C281 O295 1.289 . S
C282 O296 1.258 . S
C282 O297 1.256 . S
C283 La273 2.928 1_655 S
C283 C284 1.503 . S
C283 O298 1.261 1_655 S
C283 O299 1.243 . S
C284 C283 1.503 . S
C284 C285 1.394 . S
C284 C289 1.373 . S
C285 C284 1.394 . S
C285 C286 1.380 . S
C285 H308 0.930 . S
C286 C285 1.380 . S
C286 C287 1.376 . S
C286 H309 0.930 . S
C287 C286 1.376 . S
C287 C288 1.370 . S
C288 C287 1.370 . S
C288 C289 1.396 . S
C288 H310 0.929 . S
C289 C284 1.373 . S
C289 C288 1.396 . S
C289 H311 0.929 . S
C290 O300 1.240 . S
C290 O301 1.289 . S
C291 O302 1.258 . S
C291 O303 1.256 1_556 S
O292 La272 2.521 . S
O292 C274 1.261 . S
O293 La272 2.628 . S
O293 C274 1.243 . S
O294 La272 2.554 . S
O294 C281 1.240 . S
O295 La272 2.757 . S
O295 La273 2.482 1_554 S
O295 C281 1.289 . S
O296 La272 2.470 . S
O296 C282 1.258 . S
O297 La273 2.503 1_554 S
O297 C282 1.256 . S
O298 La273 2.521 . S
O298 C283 1.261 1_455 S
O299 La273 2.628 1_655 S
O299 C283 1.243 . S
O300 La273 2.554 . S
O300 C290 1.240 . S
O301 La272 2.482 1_556 S
O301 La273 2.757 . S
O301 C290 1.289 . S
O302 La273 2.470 1_655 S
O302 C291 1.258 . S
O303 La272 2.503 1_655 S
O303 C291 1.256 1_554 S
H304 C276 0.930 . S
H305 C277 0.930 . S
H306 C279 0.929 . S
H307 C280 0.929 . S
H308 C285 0.930 . S
H309 C286 0.930 . S
H310 C288 0.929 . S
H311 C289 0.929 . S
H312 C324 0.930 . S
H313 C326 0.930 . S
H314 C327 0.930 . S
H315 C331 0.959 . S
H316 C331 0.959 . S
H317 C331 0.961 . S
H318 C332 0.960 . S
H319 C332 0.961 . S
H320 C332 0.959 . S
H321 C335 0.929 . S
H322 C336 0.931 . S
H323 C338 0.930 . S
C324 H312 0.930 . S
C324 C325 1.399 . S
C324 C329 1.399 . S
C325 C324 1.399 . S
C325 C326 1.376 . S
C326 H313 0.930 . S
C326 C325 1.376 . S
C326 C327 1.388 . S
C327 H314 0.930 . S
C327 C326 1.388 . S
C327 C328 1.390 . S
C328 C327 1.390 . S
C328 C329 1.394 . S
C328 C334 1.465 . S
C329 C324 1.399 . S
C329 C328 1.394 . S
C329 C330 1.516 . S
C330 C329 1.516 . S
C330 C331 1.502 . S
C330 C332 1.561 . S
C330 C333 1.526 . S
C331 H315 0.959 . S
C331 H316 0.959 . S
C331 H317 0.961 . S
C331 C330 1.502 . S
C332 H318 0.960 . S
C332 H319 0.961 . S
C332 H320 0.959 . S
C332 C330 1.561 . S
C333 C330 1.526 . S
C333 C334 1.396 . S
C333 C338 1.390 . S
C334 C328 1.465 . S
C334 C333 1.396 . S
C334 C335 1.399 . S
C335 H321 0.929 . S
C335 C334 1.399 . S
C335 C336 1.385 . S
C336 H322 0.931 . S
C336 C335 1.385 . S
C336 C337 1.389 . S
C337 C336 1.389 . S
C337 C338 1.387 . S
C338 H323 0.930 . S
C338 C333 1.390 . S
C338 C337 1.387 . S
H339 C351 0.930 . S
H340 C353 0.930 . S
H341 C354 0.930 . S
H342 C358 0.959 . S
H343 C358 0.959 . S
H344 C358 0.961 . S
H345 C359 0.960 . S
H346 C359 0.961 . S
H347 C359 0.959 . S
H348 C362 0.929 . S
H349 C363 0.931 . S
H350 C365 0.930 . S
C351 H339 0.930 . S
C351 C352 1.399 . S
C351 C356 1.399 . S
C352 C351 1.399 . S
C352 C353 1.376 . S
C353 H340 0.930 . S
C353 C352 1.376 . S
C353 C354 1.388 . S
C354 H341 0.930 . S
C354 C353 1.388 . S
C354 C355 1.390 . S
C355 C354 1.390 . S
C355 C356 1.394 . S
C355 C361 1.465 . S
C356 C351 1.399 . S
C356 C355 1.394 . S
C356 C357 1.516 . S
C357 C356 1.516 . S
C357 C358 1.502 . S
C357 C359 1.561 . S
C357 C360 1.526 . S
C358 H342 0.959 . S
C358 H343 0.959 . S
C358 H344 0.961 . S
C358 C357 1.502 . S
C359 H345 0.960 . S
C359 H346 0.961 . S
C359 H347 0.959 . S
C359 C357 1.561 . S
C360 C357 1.526 . S
C360 C361 1.396 . S
C360 C365 1.390 . S
C361 C355 1.465 . S
C361 C360 1.396 . S
C361 C362 1.399 . S
C362 H348 0.929 . S
C362 C361 1.399 . S
C362 C363 1.385 . S
C363 H349 0.931 . S
C363 C362 1.385 . S
C363 C364 1.389 . S
C364 C363 1.389 . S
C364 C365 1.387 . S
C365 H350 0.930 . S
C365 C360 1.390 . S
C365 C364 1.387 . S
H366 C378 0.930 . S
H367 C380 0.930 . S
H368 C381 0.930 . S
H369 C385 0.959 . S
H370 C385 0.959 . S
H371 C385 0.961 . S
H372 C386 0.960 . S
H373 C386 0.961 . S
H374 C386 0.959 . S
H375 C389 0.929 . S
H376 C390 0.931 . S
H377 C392 0.930 . S
C378 H366 0.930 . S
C378 C379 1.399 . S
C378 C383 1.399 . S
C379 C378 1.399 . S
C379 C380 1.376 . S
C380 H367 0.930 . S
C380 C379 1.376 . S
C380 C381 1.388 . S
C381 H368 0.930 . S
C381 C380 1.388 . S
C381 C382 1.390 . S
C382 C381 1.390 . S
C382 C383 1.394 . S
C382 C388 1.465 . S
C383 C378 1.399 . S
C383 C382 1.394 . S
C383 C384 1.516 . S
C384 C383 1.516 . S
C384 C385 1.502 . S
C384 C386 1.561 . S
C384 C387 1.526 . S
C385 H369 0.959 . S
C385 H370 0.959 . S
C385 H371 0.961 . S
C385 C384 1.502 . S
C386 H372 0.960 . S
C386 H373 0.961 . S
C386 H374 0.959 . S
C386 C384 1.561 . S
C387 C384 1.526 . S
C387 C388 1.396 . S
C387 C392 1.390 . S
C388 C382 1.465 . S
C388 C387 1.396 . S
C388 C389 1.399 . S
C389 H375 0.929 . S
C389 C388 1.399 . S
C389 C390 1.385 . S
C390 H376 0.931 . S
C390 C389 1.385 . S
C390 C391 1.389 . S
C391 C390 1.389 . S
C391 C392 1.387 . S
C392 H377 0.930 . S
C392 C387 1.390 . S
C392 C391 1.387 . S
H393 C405 0.930 . S
H394 C407 0.930 . S
H395 C408 0.930 . S
H396 C412 0.959 . S
H397 C412 0.959 . S
H398 C412 0.961 . S
H399 C413 0.960 . S
H400 C413 0.961 . S
H401 C413 0.959 . S
H402 C416 0.929 . S
H403 C417 0.929 . S
H404 C419 0.930 . S
C405 H393 0.930 . S
C405 C406 1.399 . S
C405 C410 1.399 . S
C406 C405 1.399 . S
C406 C407 1.376 . S
C407 H394 0.930 . S
C407 C406 1.376 . S
C407 C408 1.388 . S
C408 H395 0.930 . S
C408 C407 1.388 . S
C408 C409 1.390 . S
C409 C408 1.390 . S
C409 C410 1.394 . S
C409 C415 1.465 . S
C410 C405 1.399 . S
C410 C409 1.394 . S
C410 C411 1.516 . S
C411 C410 1.516 . S
C411 C412 1.502 . S
C411 C413 1.561 . S
C411 C414 1.526 . S
C412 H396 0.959 . S
C412 H397 0.959 . S
C412 H398 0.961 . S
C412 C411 1.502 . S
C413 H399 0.960 . S
C413 H400 0.961 . S
C413 H401 0.959 . S
C413 C411 1.561 . S
C414 C411 1.526 . S
C414 C415 1.396 . S
C414 C419 1.390 . S
C415 C409 1.465 . S
C415 C414 1.396 . S
C415 C416 1.399 . S
C416 H402 0.929 . S
C416 C415 1.399 . S
C416 C417 1.386 1_655 S
C417 H403 0.929 . S
C417 C416 1.386 1_455 S
C417 C418 1.390 1_455 S
C418 C417 1.390 1_655 S
C418 C419 1.387 . S
C419 H404 0.930 . S
C419 C414 1.390 . S
C419 C418 1.387 . S
H420 C432 0.930 . S
H421 C434 0.930 . S
H422 C435 0.930 . S
H423 C439 0.959 . S
H424 C439 0.959 . S
H425 C439 0.961 . S
H426 C440 0.960 . S
H427 C440 0.961 . S
H428 C440 0.959 . S
H429 C443 0.929 . S
H430 C444 0.931 . S
H431 C446 0.930 . S
C432 H420 0.930 . S
C432 C433 1.399 . S
C432 C437 1.399 . S
C433 C432 1.399 . S
C433 C434 1.376 . S
C434 H421 0.930 . S
C434 C433 1.376 . S
C434 C435 1.388 . S
C435 H422 0.930 . S
C435 C434 1.388 . S
C435 C436 1.390 . S
C436 C435 1.390 . S
C436 C437 1.394 . S
C436 C442 1.465 . S
C437 C432 1.399 . S
C437 C436 1.394 . S
C437 C438 1.516 . S
C438 C437 1.516 . S
C438 C439 1.502 . S
C438 C440 1.561 . S
C438 C441 1.526 . S
C439 H423 0.959 . S
C439 H424 0.959 . S
C439 H425 0.961 . S
C439 C438 1.502 . S
C440 H426 0.960 . S
C440 H427 0.961 . S
C440 H428 0.959 . S
C440 C438 1.561 . S
C441 C438 1.526 . S
C441 C442 1.396 . S
C441 C446 1.390 . S
C442 C436 1.465 . S
C442 C441 1.396 . S
C442 C443 1.399 . S
C443 H429 0.929 . S
C443 C442 1.399 . S
C443 C444 1.385 . S
C444 H430 0.931 . S
C444 C443 1.385 . S
C444 C445 1.389 . S
C445 C444 1.389 . S
C445 C446 1.387 . S
C446 H431 0.930 . S
C446 C441 1.390 . S
C446 C445 1.387 . S
H447 C459 0.930 . S
H448 C461 0.930 . S
H449 C462 0.930 . S
H450 C466 0.959 . S
H451 C466 0.959 . S
H452 C466 0.961 . S
H453 C467 0.960 . S
H454 C467 0.961 . S
H455 C467 0.959 . S
H456 C470 0.929 . S
H457 C471 0.931 . S
H458 C473 0.930 . S
C459 H447 0.930 . S
C459 C460 1.399 . S
C459 C464 1.399 . S
C460 C459 1.399 . S
C460 C461 1.376 . S
C461 H448 0.930 . S
C461 C460 1.376 . S
C461 C462 1.388 . S
C462 H449 0.930 . S
C462 C461 1.388 . S
C462 C463 1.390 . S
C463 C462 1.390 . S
C463 C464 1.394 . S
C463 C469 1.465 . S
C464 C459 1.399 . S
C464 C463 1.394 . S
C464 C465 1.516 . S
C465 C464 1.516 . S
C465 C466 1.502 . S
C465 C467 1.561 . S
C465 C468 1.526 . S
C466 H450 0.959 . S
C466 H451 0.959 . S
C466 H452 0.961 . S
C466 C465 1.502 . S
C467 H453 0.960 . S
C467 H454 0.961 . S
C467 H455 0.959 . S
C467 C465 1.561 . S
C468 C465 1.526 . S
C468 C469 1.396 . S
C468 C473 1.390 . S
C469 C463 1.465 . S
C469 C468 1.396 . S
C469 C470 1.399 1_565 S
C470 H456 0.929 . S
C470 C469 1.399 1_545 S
C470 C471 1.385 . S
C471 H457 0.931 . S
C471 C470 1.385 . S
C471 C472 1.389 . S
C472 C471 1.389 . S
C472 C473 1.387 1_545 S
C473 H458 0.930 . S
C473 C468 1.390 . S
C473 C472 1.387 1_565 S
H474 C486 0.930 . S
H475 C488 0.930 . S
H476 C489 0.930 . S
H477 C493 0.959 . S
H478 C493 0.959 . S
H479 C493 0.961 . S
H480 C494 0.960 . S
H481 C494 0.961 . S
H482 C494 0.959 . S
H483 C497 0.929 . S
H484 C498 0.931 . S
H485 C500 0.930 . S
C486 H474 0.930 . S
C486 C487 1.399 . S
C486 C491 1.399 . S
C487 C486 1.399 . S
C487 C488 1.376 . S
C488 H475 0.930 . S
C488 C487 1.376 . S
C488 C489 1.388 . S
C489 H476 0.930 . S
C489 C488 1.388 . S
C489 C490 1.390 . S
C490 C489 1.390 . S
C490 C491 1.394 . S
C490 C496 1.465 . S
C491 C486 1.399 . S
C491 C490 1.394 . S
C491 C492 1.516 . S
C492 C491 1.516 . S
C492 C493 1.502 . S
C492 C494 1.561 . S
C492 C495 1.526 . S
C493 H477 0.959 . S
C493 H478 0.959 . S
C493 H479 0.961 . S
C493 C492 1.502 . S
C494 H480 0.960 . S
C494 H481 0.961 . S
C494 H482 0.959 . S
C494 C492 1.561 . S
C495 C492 1.526 . S
C495 C496 1.396 . S
C495 C500 1.390 . S
C496 C490 1.465 . S
C496 C495 1.396 . S
C496 C497 1.399 1_556 S
C497 H483 0.929 . S
C497 C496 1.399 1_554 S
C497 C498 1.385 . S
C498 H484 0.931 . S
C498 C497 1.385 . S
C498 C499 1.389 1_554 S
C499 C498 1.389 1_556 S
C499 C500 1.387 . S
C500 H485 0.930 . S
C500 C495 1.390 . S
C500 C499 1.387 . S
H501 C513 0.930 . S
H502 C515 0.930 . S
H503 C516 0.930 . S
H504 C520 0.959 . S
H505 C520 0.959 . S
H506 C520 0.961 . S
H507 C521 0.960 . S
H508 C521 0.961 . S
H509 C521 0.959 . S
H510 C524 0.929 . S
H511 C525 0.931 . S
H512 C527 0.930 . S
C513 H501 0.930 . S
C513 C514 1.399 . S
C513 C518 1.399 . S
C514 C513 1.399 . S
C514 C515 1.376 . S
C515 H502 0.930 . S
C515 C514 1.376 . S
C515 C516 1.388 . S
C516 H503 0.930 . S
C516 C515 1.388 . S
C516 C517 1.390 . S
C517 C516 1.390 . S
C517 C518 1.394 . S
C517 C523 1.465 . S
C518 C513 1.399 . S
C518 C517 1.394 . S
C518 C519 1.516 . S
C519 C518 1.516 . S
C519 C520 1.502 . S
C519 C521 1.561 . S
C519 C522 1.526 . S
C520 H504 0.959 . S
C520 H505 0.959 . S
C520 H506 0.961 . S
C520 C519 1.502 . S
C521 H507 0.960 . S
C521 H508 0.961 . S
C521 H509 0.959 . S
C521 C519 1.561 . S
C522 C519 1.526 . S
C522 C523 1.396 . S
C522 C527 1.390 . S
C523 C517 1.465 . S
C523 C522 1.396 . S
C523 C524 1.399 . S
C524 H510 0.929 . S
C524 C523 1.399 . S
C524 C525 1.385 . S
C525 H511 0.931 . S
C525 C524 1.385 . S
C525 C526 1.389 . S
C526 C525 1.389 . S
C526 C527 1.387 . S
C527 H512 0.930 . S
C527 C522 1.390 . S
C527 C526 1.387 . S
H528 C540 0.930 . S
H529 C542 0.930 . S
H530 C543 0.930 . S
H531 C547 0.959 . S
H532 C547 0.959 . S
H533 C547 0.961 . S
H534 C548 0.960 . S
H535 C548 0.961 . S
H536 C548 0.959 . S
H537 C551 0.929 . S
H538 C552 0.931 . S
H539 C554 0.930 . S
C540 H528 0.930 . S
C540 C541 1.399 . S
C540 C545 1.399 . S
C541 C540 1.399 . S
C541 C542 1.376 . S
C542 H529 0.930 . S
C542 C541 1.376 . S
C542 C543 1.388 . S
C543 H530 0.930 . S
C543 C542 1.388 . S
C543 C544 1.390 . S
C544 C543 1.390 . S
C544 C545 1.394 . S
C544 C550 1.465 . S
C545 C540 1.399 . S
C545 C544 1.394 . S
C545 C546 1.516 . S
C546 C545 1.516 . S
C546 C547 1.502 . S
C546 C548 1.561 . S
C546 C549 1.526 . S
C547 H531 0.959 . S
C547 H532 0.959 . S
C547 H533 0.961 . S
C547 C546 1.502 . S
C548 H534 0.960 . S
C548 H535 0.961 . S
C548 H536 0.959 . S
C548 C546 1.561 . S
C549 C546 1.526 . S
C549 C550 1.396 . S
C549 C554 1.390 . S
C550 C544 1.465 . S
C550 C549 1.396 . S
C550 C551 1.399 . S
C551 H537 0.929 . S
C551 C550 1.399 . S
C551 C552 1.385 . S
C552 H538 0.931 . S
C552 C551 1.385 . S
C552 C553 1.389 . S
C553 C552 1.389 . S
C553 C554 1.387 . S
C554 H539 0.930 . S
C554 C549 1.390 . S
C554 C553 1.387 . S
H555 C567 0.930 . S
H556 C569 0.930 . S
H557 C570 0.930 1_554 S
H558 C574 0.959 . S
H559 C574 0.959 . S
H560 C574 0.961 . S
H561 C575 0.960 . S
H562 C575 0.961 . S
H563 C575 0.959 . S
H564 C578 0.929 . S
H565 C579 0.931 . S
H566 C581 0.930 . S
C567 H555 0.930 . S
C567 C568 1.399 . S
C567 C572 1.399 . S
C568 C567 1.399 . S
C568 C569 1.376 . S
C569 H556 0.930 . S
C569 C568 1.376 . S
C569 C570 1.388 . S
C570 H557 0.930 1_556 S
C570 C569 1.388 . S
C570 C571 1.390 . S
C571 C570 1.390 . S
C571 C572 1.394 . S
C571 C577 1.476 . S
C572 C567 1.399 . S
C572 C571 1.394 . S
C572 C573 1.516 . S
C573 C572 1.516 . S
C573 C574 1.502 . S
C573 C575 1.561 . S
C573 C576 1.526 . S
C574 H558 0.959 . S
C574 H559 0.959 . S
C574 H560 0.961 . S
C574 C573 1.502 . S
C575 H561 0.960 . S
C575 H562 0.961 . S
C575 H563 0.959 . S
C575 C573 1.561 . S
C576 C573 1.526 . S
C576 C577 1.406 . S
C576 C581 1.390 . S
C577 C571 1.476 . S
C577 C576 1.406 . S
C577 C578 1.382 1_556 S
C578 H564 0.929 . S
C578 C577 1.382 1_554 S
C578 C579 1.385 . S
C579 H565 0.931 . S
C579 C578 1.385 . S
C579 C580 1.389 . S
C580 C579 1.389 . S
C580 C581 1.387 1_554 S
C581 H566 0.930 . S
C581 C576 1.390 . S
C581 C580 1.387 1_556 S
H582 C594 0.930 . S
H583 C596 0.930 . S
H584 C597 0.930 . S
H585 C601 0.959 . S
H586 C601 0.959 . S
H587 C601 0.961 . S
H588 C602 0.960 . S
H589 C602 0.961 . S
H590 C602 0.959 . S
H591 C605 0.929 . S
H592 C606 0.931 . S
H593 C608 0.930 . S
C594 H582 0.930 . S
C594 C595 1.399 . S
C594 C599 1.399 . S
C595 C594 1.399 . S
C595 C596 1.376 . S
C596 H583 0.930 . S
C596 C595 1.376 . S
C596 C597 1.388 . S
C597 H584 0.930 . S
C597 C596 1.388 . S
C597 C598 1.390 . S
C598 C597 1.390 . S
C598 C599 1.394 . S
C598 C604 1.465 . S
C599 C594 1.399 . S
C599 C598 1.394 . S
C599 C600 1.516 . S
C600 C599 1.516 . S
C600 C601 1.502 . S
C600 C602 1.561 . S
C600 C603 1.526 . S
C601 H585 0.959 . S
C601 H586 0.959 . S
C601 H587 0.961 . S
C601 C600 1.502 . S
C602 H588 0.960 . S
C602 H589 0.961 . S
C602 H590 0.959 . S
C602 C600 1.561 . S
C603 C600 1.526 . S
C603 C604 1.396 . S
C603 C608 1.390 . S
C604 C598 1.465 . S
C604 C603 1.396 . S
C604 C605 1.399 . S
C605 H591 0.929 . S
C605 C604 1.399 . S
C605 C606 1.385 . S
C606 H592 0.931 . S
C606 C605 1.385 . S
C606 C607 1.389 . S
C607 C606 1.389 . S
C607 C608 1.387 . S
C608 H593 0.930 . S
C608 C603 1.390 . S
C608 C607 1.387 . S
H609 C621 0.930 . S
H610 C623 0.930 . S
H611 C624 0.930 . S
H612 C628 0.959 . S
H613 C628 0.959 . S
H614 C628 0.961 . S
H615 C629 0.960 . S
H616 C629 0.961 . S
H617 C629 0.959 . S
H618 C632 0.929 . S
H619 C633 0.931 . S
H620 C635 0.930 . S
C621 H609 0.930 . S
C621 C622 1.399 . S
C621 C626 1.399 . S
C622 C621 1.399 . S
C622 C623 1.376 . S
C623 H610 0.930 . S
C623 C622 1.376 . S
C623 C624 1.388 . S
C624 H611 0.930 . S
C624 C623 1.388 . S
C624 C625 1.390 . S
C625 C624 1.390 . S
C625 C626 1.394 . S
C625 C631 1.465 . S
C626 C621 1.399 . S
C626 C625 1.394 . S
C626 C627 1.516 . S
C627 C626 1.516 . S
C627 C628 1.502 . S
C627 C629 1.561 . S
C627 C630 1.526 . S
C628 H612 0.959 . S
C628 H613 0.959 . S
C628 H614 0.961 . S
C628 C627 1.502 . S
C629 H615 0.960 . S
C629 H616 0.961 . S
C629 H617 0.959 . S
C629 C627 1.561 . S
C630 C627 1.526 . S
C630 C631 1.396 . S
C630 C635 1.390 . S
C631 C625 1.465 . S
C631 C630 1.396 . S
C631 C632 1.399 . S
C632 H618 0.929 . S
C632 C631 1.399 . S
C632 C633 1.385 . S
C633 H619 0.931 . S
C633 C632 1.385 . S
C633 C634 1.389 . S
C634 C633 1.389 . S
C634 C635 1.387 . S
C635 H620 0.930 . S
C635 C630 1.390 . S
C635 C634 1.387 . S
H636 C648 0.930 . S
H637 C650 0.930 . S
H638 C651 0.930 . S
H639 C655 0.959 . S
H640 C655 0.959 . S
H641 C655 0.961 . S
H642 C656 0.960 . S
H643 C656 0.961 . S
H644 C656 0.959 . S
H645 C659 0.929 . S
H646 C660 0.931 . S
H647 C662 0.930 . S
C648 H636 0.930 . S
C648 C649 1.399 . S
C648 C653 1.399 . S
C649 C648 1.399 . S
C649 C650 1.376 . S
C650 H637 0.930 . S
C650 C649 1.376 . S
C650 C651 1.388 . S
C651 H638 0.930 . S
C651 C650 1.388 . S
C651 C652 1.390 . S
C652 C651 1.390 . S
C652 C653 1.394 . S
C652 C658 1.465 . S
C653 C648 1.399 . S
C653 C652 1.394 . S
C653 C654 1.516 . S
C654 C653 1.516 . S
C654 C655 1.502 . S
C654 C656 1.561 . S
C654 C657 1.526 . S
C655 H639 0.959 . S
C655 H640 0.959 . S
C655 H641 0.961 . S
C655 C654 1.502 . S
C656 H642 0.960 . S
C656 H643 0.961 . S
C656 H644 0.959 . S
C656 C654 1.561 . S
C657 C654 1.526 . S
C657 C658 1.396 . S
C657 C662 1.390 . S
C658 C652 1.465 . S
C658 C657 1.396 . S
C658 C659 1.399 . S
C659 H645 0.929 . S
C659 C658 1.399 . S
C659 C660 1.385 . S
C660 H646 0.931 . S
C660 C659 1.385 . S
C660 C661 1.389 . S
C661 C660 1.389 . S
C661 C662 1.387 . S
C662 H647 0.930 . S
C662 C657 1.390 . S
C662 C661 1.387 . S
H663 C675 0.930 . S
H664 C677 0.930 . S
H665 C678 0.930 . S
H666 C682 0.959 . S
H667 C682 0.959 . S
H668 C682 0.961 . S
H669 C683 0.960 . S
H670 C683 0.961 . S
H671 C683 0.959 . S
H672 C686 0.929 . S
H673 C687 0.931 . S
H674 C689 0.930 . S
C675 H663 0.930 . S
C675 C676 1.399 . S
C675 C680 1.399 . S
C676 C675 1.399 . S
C676 C677 1.376 . S
C677 H664 0.930 . S
C677 C676 1.376 . S
C677 C678 1.388 . S
C678 H665 0.930 . S
C678 C677 1.388 . S
C678 C679 1.390 . S
C679 C678 1.390 . S
C679 C680 1.394 . S
C679 C685 1.465 . S
C680 C675 1.399 . S
C680 C679 1.394 . S
C680 C681 1.516 . S
C681 C680 1.516 . S
C681 C682 1.502 . S
C681 C683 1.561 . S
C681 C684 1.526 . S
C682 H666 0.959 . S
C682 H667 0.959 . S
C682 H668 0.961 . S
C682 C681 1.502 . S
C683 H669 0.960 . S
C683 H670 0.961 . S
C683 H671 0.959 . S
C683 C681 1.561 . S
C684 C681 1.526 . S
C684 C685 1.396 . S
C684 C689 1.390 . S
C685 C679 1.465 . S
C685 C684 1.396 . S
C685 C686 1.399 . S
C686 H672 0.929 . S
C686 C685 1.399 . S
C686 C687 1.385 . S
C687 H673 0.931 . S
C687 C686 1.385 . S
C687 C688 1.389 . S
C688 C687 1.389 . S
C688 C689 1.387 . S
C689 H674 0.930 . S
C689 C684 1.390 . S
C689 C688 1.387 . S
H690 C702 0.930 . S
H691 C704 0.930 . S
H692 C705 0.930 . S
H693 C709 0.959 . S
H694 C709 0.959 . S
H695 C709 0.961 . S
H696 C710 0.960 . S
H697 C710 0.961 . S
H698 C710 0.959 . S
H699 C713 0.929 . S
H700 C714 0.931 . S
H701 C716 0.930 . S
C702 H690 0.930 . S
C702 C703 1.399 . S
C702 C707 1.399 . S
C703 C702 1.399 . S
C703 C704 1.376 . S
C704 H691 0.930 . S
C704 C703 1.376 . S
C704 C705 1.388 . S
C705 H692 0.930 . S
C705 C704 1.388 . S
C705 C706 1.390 . S
C706 C705 1.390 . S
C706 C707 1.394 . S
C706 C712 1.465 . S
C707 C702 1.399 . S
C707 C706 1.394 . S
C707 C708 1.516 . S
C708 C707 1.516 . S
C708 C709 1.502 . S
C708 C710 1.561 . S
C708 C711 1.526 . S
C709 H693 0.959 . S
C709 H694 0.959 . S
C709 H695 0.961 . S
C709 C708 1.502 . S
C710 H696 0.960 . S
C710 H697 0.961 . S
C710 H698 0.959 . S
C710 C708 1.561 . S
C711 C708 1.526 . S
C711 C712 1.396 . S
C711 C716 1.390 . S
C712 C706 1.465 . S
C712 C711 1.396 . S
C712 C713 1.399 . S
C713 H699 0.929 . S
C713 C712 1.399 . S
C713 C714 1.385 . S
C714 H700 0.931 . S
C714 C713 1.385 . S
C714 C715 1.389 . S
C715 C714 1.389 . S
C715 C716 1.387 . S
C716 H701 0.930 . S
C716 C711 1.390 . S
C716 C715 1.387 . S
H717 C729 0.930 . S
H718 C731 0.930 . S
H719 C732 0.930 . S
H720 C736 0.959 . S
H721 C736 0.959 . S
H722 C736 0.961 . S
H723 C737 0.960 . S
H724 C737 0.961 . S
H725 C737 0.959 . S
H726 C740 0.929 . S
H727 C741 0.931 . S
H728 C743 0.930 . S
C729 H717 0.930 . S
C729 C730 1.399 . S
C729 C734 1.399 . S
C730 C729 1.399 . S
C730 C731 1.376 . S
C731 H718 0.930 . S
C731 C730 1.376 . S
C731 C732 1.388 . S
C732 H719 0.930 . S
C732 C731 1.388 . S
C732 C733 1.390 . S
C733 C732 1.390 . S
C733 C734 1.394 . S
C733 C739 1.465 . S
C734 C729 1.399 . S
C734 C733 1.394 . S
C734 C735 1.516 . S
C735 C734 1.516 . S
C735 C736 1.502 . S
C735 C737 1.561 . S
C735 C738 1.526 . S
C736 H720 0.959 . S
C736 H721 0.959 . S
C736 H722 0.961 . S
C736 C735 1.502 . S
C737 H723 0.960 . S
C737 H724 0.961 . S
C737 H725 0.959 . S
C737 C735 1.561 . S
C738 C735 1.526 . S
C738 C739 1.396 . S
C738 C743 1.390 . S
C739 C733 1.465 . S
C739 C738 1.396 . S
C739 C740 1.399 . S
C740 H726 0.929 . S
C740 C739 1.399 . S
C740 C741 1.385 . S
C741 H727 0.931 . S
C741 C740 1.385 . S
C741 C742 1.389 . S
C742 C741 1.389 . S
C742 C743 1.387 . S
C743 H728 0.930 . S
C743 C738 1.390 . S
C743 C742 1.387 . S
H744 C756 0.930 . S
H745 C758 0.930 . S
H746 C759 0.930 . S
H747 C763 0.959 . S
H748 C763 0.959 . S
H749 C763 0.961 . S
H750 C764 0.960 . S
H751 C764 0.961 . S
H752 C764 0.959 . S
H753 C767 0.929 . S
H754 C768 0.931 . S
H755 C770 0.930 . S
C756 H744 0.930 . S
C756 C757 1.399 . S
C756 C761 1.399 . S
C757 C756 1.399 . S
C757 C758 1.376 . S
C758 H745 0.930 . S
C758 C757 1.376 . S
C758 C759 1.388 . S
C759 H746 0.930 . S
C759 C758 1.388 . S
C759 C760 1.390 . S
C760 C759 1.390 . S
C760 C761 1.394 . S
C760 C766 1.465 . S
C761 C756 1.399 . S
C761 C760 1.394 . S
C761 C762 1.516 . S
C762 C761 1.516 . S
C762 C763 1.502 . S
C762 C764 1.561 . S
C762 C765 1.526 . S
C763 H747 0.959 . S
C763 H748 0.959 . S
C763 H749 0.961 . S
C763 C762 1.502 . S
C764 H750 0.960 . S
C764 H751 0.961 . S
C764 H752 0.959 . S
C764 C762 1.561 . S
C765 C762 1.526 . S
C765 C766 1.396 . S
C765 C770 1.390 . S
C766 C760 1.465 . S
C766 C765 1.396 . S
C766 C767 1.399 1_556 S
C767 H753 0.929 . S
C767 C766 1.399 1_554 S
C767 C768 1.385 . S
C768 H754 0.931 . S
C768 C767 1.385 . S
C768 C769 1.389 . S
C769 C768 1.389 . S
C769 C770 1.387 1_554 S
C770 H755 0.930 . S
C770 C765 1.390 . S
C770 C769 1.387 1_556 S
H771 C783 0.930 . S
H772 C785 0.930 . S
H773 C786 0.930 . S
H774 C790 0.959 . S
H775 C790 0.959 . S
H776 C790 0.961 . S
H777 C791 0.960 . S
H778 C791 0.961 . S
H779 C791 0.959 . S
H780 C794 0.929 . S
H781 C795 0.931 . S
H782 C797 0.930 . S
C783 H771 0.930 . S
C783 C784 1.399 . S
C783 C788 1.399 . S
C784 C783 1.399 . S
C784 C785 1.376 . S
C785 H772 0.930 . S
C785 C784 1.376 . S
C785 C786 1.388 . S
C786 H773 0.930 . S
C786 C785 1.388 . S
C786 C787 1.390 . S
C787 C786 1.390 . S
C787 C788 1.394 . S
C787 C793 1.465 . S
C788 C783 1.399 . S
C788 C787 1.394 . S
C788 C789 1.516 . S
C789 C788 1.516 . S
C789 C790 1.502 . S
C789 C791 1.561 . S
C789 C792 1.526 . S
C790 H774 0.959 . S
C790 H775 0.959 . S
C790 H776 0.961 . S
C790 C789 1.502 . S
C791 H777 0.960 . S
C791 H778 0.961 . S
C791 H779 0.959 . S
C791 C789 1.561 . S
C792 C789 1.526 . S
C792 C793 1.396 . S
C792 C797 1.390 . S
C793 C787 1.465 . S
C793 C792 1.396 . S
C793 C794 1.399 . S
C794 H780 0.929 . S
C794 C793 1.399 . S
C794 C795 1.385 . S
C795 H781 0.931 . S
C795 C794 1.385 . S
C795 C796 1.389 . S
C796 C795 1.389 . S
C796 C797 1.387 . S
C797 H782 0.930 . S
C797 C792 1.390 . S
C797 C796 1.387 . S
H798 C810 0.930 . S
H799 C812 0.930 . S
H800 C813 0.930 . S
H801 C817 0.959 . S
H802 C817 0.959 . S
H803 C817 0.961 . S
H804 C818 0.960 . S
H805 C818 0.961 . S
H806 C818 0.959 . S
H807 C821 0.929 . S
H808 C822 0.931 . S
H809 C824 0.930 . S
C810 H798 0.930 . S
C810 C811 1.399 . S
C810 C815 1.399 . S
C811 C810 1.399 . S
C811 C812 1.376 . S
C812 H799 0.930 . S
C812 C811 1.376 . S
C812 C813 1.388 . S
C813 H800 0.930 . S
C813 C812 1.388 . S
C813 C814 1.390 . S
C814 C813 1.390 . S
C814 C815 1.394 . S
C814 C820 1.465 . S
C815 C810 1.399 . S
C815 C814 1.394 . S
C815 C816 1.516 . S
C816 C815 1.516 . S
C816 C817 1.502 . S
C816 C818 1.561 . S
C816 C819 1.526 . S
C817 H801 0.959 . S
C817 H802 0.959 . S
C817 H803 0.961 . S
C817 C816 1.502 . S
C818 H804 0.960 . S
C818 H805 0.961 . S
C818 H806 0.959 . S
C818 C816 1.561 . S
C819 C816 1.526 . S
C819 C820 1.396 . S
C819 C824 1.390 . S
C820 C814 1.465 . S
C820 C819 1.396 . S
C820 C821 1.399 . S
C821 H807 0.929 . S
C821 C820 1.399 . S
C821 C822 1.385 . S
C822 H808 0.931 . S
C822 C821 1.385 . S
C822 C823 1.389 . S
C823 C822 1.389 . S
C823 C824 1.387 . S
C824 H809 0.930 . S
C824 C819 1.390 . S
C824 C823 1.387 . S
H825 C837 0.930 . S
H826 C839 0.930 . S
H827 C840 0.930 . S
H828 C844 0.959 . S
H829 C844 0.959 . S
H830 C844 0.961 . S
H831 C845 0.960 . S
H832 C845 0.961 . S
H833 C845 0.959 . S
H834 C848 0.929 . S
H835 C849 0.931 . S
H836 C851 0.930 . S
C837 H825 0.930 . S
C837 C838 1.399 . S
C837 C842 1.399 . S
C838 C837 1.399 . S
C838 C839 1.376 . S
C839 H826 0.930 . S
C839 C838 1.376 . S
C839 C840 1.388 . S
C840 H827 0.930 . S
C840 C839 1.388 . S
C840 C841 1.390 . S
C841 C840 1.390 . S
C841 C842 1.394 . S
C841 C847 1.465 . S
C842 C837 1.399 . S
C842 C841 1.394 . S
C842 C843 1.516 . S
C843 C842 1.516 . S
C843 C844 1.502 . S
C843 C845 1.561 . S
C843 C846 1.526 . S
C844 H828 0.959 . S
C844 H829 0.959 . S
C844 H830 0.961 . S
C844 C843 1.502 . S
C845 H831 0.960 . S
C845 H832 0.961 . S
C845 H833 0.959 . S
C845 C843 1.561 . S
C846 C843 1.526 . S
C846 C847 1.396 . S
C846 C851 1.390 . S
C847 C841 1.465 . S
C847 C846 1.396 . S
C847 C848 1.399 . S
C848 H834 0.929 . S
C848 C847 1.399 . S
C848 C849 1.385 . S
C849 H835 0.931 . S
C849 C848 1.385 . S
C849 C850 1.389 . S
C850 C849 1.389 . S
C850 C851 1.387 . S
C851 H836 0.930 . S
C851 C846 1.390 . S
C851 C850 1.387 . S
H852 C864 0.930 . S
H853 C866 0.930 . S
H854 C867 0.930 . S
H855 C871 0.959 . S
H856 C871 0.959 . S
H857 C871 0.961 . S
H858 C872 0.960 . S
H859 C872 0.961 . S
H860 C872 0.959 . S
H861 C875 0.929 . S
H862 C876 0.931 . S
H863 C878 0.930 . S
C864 H852 0.930 . S
C864 C865 1.399 . S
C864 C869 1.399 . S
C865 C864 1.399 . S
C865 C866 1.376 . S
C866 H853 0.930 . S
C866 C865 1.376 . S
C866 C867 1.388 . S
C867 H854 0.930 . S
C867 C866 1.388 . S
C867 C868 1.390 . S
C868 C867 1.390 . S
C868 C869 1.394 . S
C868 C874 1.465 . S
C869 C864 1.399 . S
C869 C868 1.394 . S
C869 C870 1.516 . S
C870 C869 1.516 . S
C870 C871 1.502 . S
C870 C872 1.561 . S
C870 C873 1.526 . S
C871 H855 0.959 . S
C871 H856 0.959 . S
C871 H857 0.961 . S
C871 C870 1.502 . S
C872 H858 0.960 . S
C872 H859 0.961 . S
C872 H860 0.959 . S
C872 C870 1.561 . S
C873 C870 1.526 . S
C873 C874 1.396 . S
C873 C878 1.390 . S
C874 C868 1.465 . S
C874 C873 1.396 . S
C874 C875 1.399 . S
C875 H861 0.929 . S
C875 C874 1.399 . S
C875 C876 1.385 . S
C876 H862 0.931 . S
C876 C875 1.385 . S
C876 C877 1.389 . S
C877 C876 1.389 . S
C877 C878 1.387 . S
C878 H863 0.930 . S
C878 C873 1.390 . S
C878 C877 1.387 . S
H879 C891 0.930 . S
H880 C893 0.930 . S
H881 C894 0.930 . S
H882 C898 0.959 . S
H883 C898 0.959 . S
H884 C898 0.961 . S
H885 C899 0.960 . S
H886 C899 0.961 . S
H887 C899 0.959 . S
H888 C902 0.929 . S
H889 C903 0.931 . S
H890 C905 0.930 . S
C891 H879 0.930 . S
C891 C892 1.399 . S
C891 C896 1.399 . S
C892 C891 1.399 . S
C892 C893 1.376 . S
C893 H880 0.930 . S
C893 C892 1.376 . S
C893 C894 1.388 . S
C894 H881 0.930 . S
C894 C893 1.388 . S
C894 C895 1.390 . S
C895 C894 1.390 . S
C895 C896 1.394 . S
C895 C901 1.465 . S
C896 C891 1.399 . S
C896 C895 1.394 . S
C896 C897 1.516 . S
C897 C896 1.516 . S
C897 C898 1.502 . S
C897 C899 1.561 . S
C897 C900 1.526 . S
C898 H882 0.959 . S
C898 H883 0.959 . S
C898 H884 0.961 . S
C898 C897 1.502 . S
C899 H885 0.960 . S
C899 H886 0.961 . S
C899 H887 0.959 . S
C899 C897 1.561 . S
C900 C897 1.526 . S
C900 C901 1.396 . S
C900 C905 1.390 . S
C901 C895 1.465 . S
C901 C900 1.396 . S
C901 C902 1.399 . S
C902 H888 0.929 . S
C902 C901 1.399 . S
C902 C903 1.385 . S
C903 H889 0.931 . S
C903 C902 1.385 . S
C903 C904 1.389 . S
C904 C903 1.389 . S
C904 C905 1.387 . S
C905 H890 0.930 . S
C905 C900 1.390 . S
C905 C904 1.387 . S
H906 C918 0.930 . S
H907 C920 0.930 . S
H908 C921 0.930 . S
H909 C925 0.959 . S
H910 C925 0.959 . S
H911 C925 0.961 . S
H912 C926 0.960 . S
H913 C926 0.961 . S
H914 C926 0.959 . S
H915 C929 0.929 . S
H916 C930 0.931 . S
H917 C932 0.930 . S
C918 H906 0.930 . S
C918 C919 1.399 . S
C918 C923 1.399 . S
C919 C918 1.399 . S
C919 C920 1.376 . S
C920 H907 0.930 . S
C920 C919 1.376 . S
C920 C921 1.388 . S
C921 H908 0.930 . S
C921 C920 1.388 . S
C921 C922 1.390 . S
C922 C921 1.390 . S
C922 C923 1.394 . S
C922 C928 1.465 . S
C923 C918 1.399 . S
C923 C922 1.394 . S
C923 C924 1.516 . S
C924 C923 1.516 . S
C924 C925 1.502 . S
C924 C926 1.561 . S
C924 C927 1.526 . S
C925 H909 0.959 . S
C925 H910 0.959 . S
C925 H911 0.961 . S
C925 C924 1.502 . S
C926 H912 0.960 . S
C926 H913 0.961 . S
C926 H914 0.959 . S
C926 C924 1.561 . S
C927 C924 1.526 . S
C927 C928 1.396 . S
C927 C932 1.390 . S
C928 C922 1.465 . S
C928 C927 1.396 . S
C928 C929 1.399 . S
C929 H915 0.929 . S
C929 C928 1.399 . S
C929 C930 1.385 . S
C930 H916 0.931 . S
C930 C929 1.385 . S
C930 C931 1.389 . S
C931 C930 1.389 . S
C931 C932 1.387 . S
C932 H917 0.930 . S
C932 C927 1.390 . S
C932 C931 1.387 . S
H933 C945 0.930 . S
H934 C947 0.930 . S
H935 C948 0.930 . S
H936 C952 0.959 . S
H937 C952 0.959 . S
H938 C952 0.961 . S
H939 C953 0.960 . S
H940 C953 0.961 . S
H941 C953 0.959 . S
H942 C956 0.929 . S
H943 C957 0.931 . S
H944 C959 0.930 . S
C945 H933 0.930 . S
C945 C946 1.399 . S
C945 C950 1.399 . S
C946 C945 1.399 . S
C946 C947 1.376 . S
C947 H934 0.930 . S
C947 C946 1.376 . S
C947 C948 1.388 . S
C948 H935 0.930 . S
C948 C947 1.388 . S
C948 C949 1.390 . S
C949 C948 1.390 . S
C949 C950 1.394 . S
C949 C955 1.465 . S
C950 C945 1.399 . S
C950 C949 1.394 . S
C950 C951 1.516 . S
C951 C950 1.516 . S
C951 C952 1.502 . S
C951 C953 1.561 . S
C951 C954 1.526 . S
C952 H936 0.959 . S
C952 H937 0.959 . S
C952 H938 0.961 . S
C952 C951 1.502 . S
C953 H939 0.960 . S
C953 H940 0.961 . S
C953 H941 0.959 . S
C953 C951 1.561 . S
C954 C951 1.526 . S
C954 C955 1.396 . S
C954 C959 1.390 . S
C955 C949 1.465 . S
C955 C954 1.396 . S
C955 C956 1.399 . S
C956 H942 0.929 . S
C956 C955 1.399 . S
C956 C957 1.385 . S
C957 H943 0.931 . S
C957 C956 1.385 . S
C957 C958 1.389 . S
C958 C957 1.389 . S
C958 C959 1.387 . S
C959 H944 0.930 . S
C959 C954 1.390 . S
C959 C958 1.387 . S
C325 C6 1.204 . S
C337 C158 1.203 . S
C352 C21 1.474 . S
C364 C207 1.451 . S
C391 C242 1.833 . S
C379 C49 1.800 . S
C406 C68 2.091 . S
C418 C281 2.157 1_655 S
C445 C202 2.976 . S
C433 C2 2.878 . S
C472 C161 0.327 . S
C460 C30 0.542 . S
C499 C291 1.889 . S
C487 C40 1.920 . S
C526 C250 1.532 . S
C514 C63 1.521 . S
C541 C11 1.397 . S
C553 C278 1.527 . S
C580 C210 2.620 . S
C568 C44 2.690 . S
C595 C59 1.972 . S
C607 C171 1.945 . S
C622 C25 1.216 . S
C634 C247 1.232 . S
C661 C167 1.408 . S
C649 C82 1.436 . S
C676 C101 1.170 . S
C688 C198 1.244 . S
C703 C125 2.303 . S
C715 C251 2.376 . S
C730 C144 1.811 . S
C742 C290 1.924 . S
C757 C87 1.898 . S
C769 C211 1.998 . S
C796 C170 1.692 . S
C784 C97 1.818 . S
C823 C282 1.648 . S
C811 C120 1.738 . S
C850 C241 1.588 . S
C838 C135 1.636 . S
C865 C78 1.940 . S
C877 C287 1.993 . S
C904 C201 1.888 . S
C892 C116 1.931 . S
C931 C162 2.645 . S
C919 C139 2.649 . S
C946 C106 0.853 . S
C958 C238 0.885 . S
