# Generated by pormake.
# Topology zzz, (3,6)-cn, num edge types: 1
# Building blocks:
#     Node 0, Type 0, BuildingBlock: BETDAH_clean_linker_0, # of connection points: 3
#     Node 1, Type 0, BuildingBlock: BETDAH_clean_linker_0, # of connection points: 3
#     Node 2, Type 0, BuildingBlock: BETDAH_clean_linker_0, # of connection points: 3
#     Node 3, Type 0, BuildingBlock: BETDAH_clean_linker_0, # of connection points: 3
#     Node 4, Type 0, BuildingBlock: BETDAH_clean_linker_0, # of connection points: 3
#     Node 5, Type 0, BuildingBlock: BETDAH_clean_linker_0, # of connection points: 3
#     Node 6, Type 0, BuildingBlock: BETDAH_clean_linker_0, # of connection points: 3
#     Node 7, Type 0, BuildingBlock: BETDAH_clean_linker_0, # of connection points: 3
#     Node 8, Type 1, BuildingBlock: BETDIP_clean_sbu_0, # of connection points: 6
#     Node 9, Type 1, BuildingBlock: BETDIP_clean_sbu_0, # of connection points: 6
#     Node 10, Type 1, BuildingBlock: BETDIP_clean_sbu_0, # of connection points: 6
#     Node 11, Type 1, BuildingBlock: BETDIP_clean_sbu_0, # of connection points: 6
#     Edge 12, Type (0, 1), BuildingBlock: XIVTED_clean_linker_0, # of connection points: 2
#     Edge 13, Type (0, 1), BuildingBlock: XIVTED_clean_linker_0, # of connection points: 2
#     Edge 14, Type (0, 1), BuildingBlock: XIVTED_clean_linker_0, # of connection points: 2
#     Edge 15, Type (0, 1), BuildingBlock: XIVTED_clean_linker_0, # of connection points: 2
#     Edge 16, Type (0, 1), BuildingBlock: XIVTED_clean_linker_0, # of connection points: 2
#     Edge 17, Type (0, 1), BuildingBlock: XIVTED_clean_linker_0, # of connection points: 2
#     Edge 18, Type (0, 1), BuildingBlock: XIVTED_clean_linker_0, # of connection points: 2
#     Edge 19, Type (0, 1), BuildingBlock: XIVTED_clean_linker_0, # of connection points: 2
#     Edge 20, Type (0, 1), BuildingBlock: XIVTED_clean_linker_0, # of connection points: 2
#     Edge 21, Type (0, 1), BuildingBlock: XIVTED_clean_linker_0, # of connection points: 2
#     Edge 22, Type (0, 1), BuildingBlock: XIVTED_clean_linker_0, # of connection points: 2
#     Edge 23, Type (0, 1), BuildingBlock: XIVTED_clean_linker_0, # of connection points: 2
#     Edge 24, Type (0, 1), BuildingBlock: XIVTED_clean_linker_0, # of connection points: 2
#     Edge 25, Type (0, 1), BuildingBlock: XIVTED_clean_linker_0, # of connection points: 2
#     Edge 26, Type (0, 1), BuildingBlock: XIVTED_clean_linker_0, # of connection points: 2
#     Edge 27, Type (0, 1), BuildingBlock: XIVTED_clean_linker_0, # of connection points: 2
#     Edge 28, Type (0, 1), BuildingBlock: XIVTED_clean_linker_0, # of connection points: 2
#     Edge 29, Type (0, 1), BuildingBlock: XIVTED_clean_linker_0, # of connection points: 2
#     Edge 30, Type (0, 1), BuildingBlock: XIVTED_clean_linker_0, # of connection points: 2
#     Edge 31, Type (0, 1), BuildingBlock: XIVTED_clean_linker_0, # of connection points: 2
#     Edge 32, Type (0, 1), BuildingBlock: XIVTED_clean_linker_0, # of connection points: 2
#     Edge 33, Type (0, 1), BuildingBlock: XIVTED_clean_linker_0, # of connection points: 2
#     Edge 34, Type (0, 1), BuildingBlock: XIVTED_clean_linker_0, # of connection points: 2
#     Edge 35, Type (0, 1), BuildingBlock: XIVTED_clean_linker_0, # of connection points: 2
# Relax obj value: 0.268
# Max RMSD: 0.168
# Mean RMSD: 0.149
data_MOF--net-zzz--node1-BETDIP_clean_sbu_0--node2-BETDAH_clean_linker_0--edge1-XIVTED_clean_linker_0
_symmetry_space_group_name_H-M    P1
_symmetry_Int_Tables_number       1
_symmetry_cell_setting            triclinic
loop_
_symmetry_equiv_pos_as_xyz
'x, y, z'
_cell_length_a     52.356705
_cell_length_b     52.355759
_cell_length_c     13.767037
_cell_angle_alpha  89.962401
_cell_angle_beta   89.576381
_cell_angle_gamma 89.994694
loop_
_atom_site_label
_atom_site_type_symbol
_atom_site_fract_x
_atom_site_fract_y
_atom_site_fract_z
_atom_type_partial_charge
H0 H 0.80785 0.47736 0.40015 0.0
H1 H 0.73562 0.4957 0.27194 0.0
H2 H 0.7659 0.54256 0.50219 0.0
C3 C 0.7906 0.48886 0.39936 0.0
C4 C 0.78901 0.51009 0.46062 0.0
C5 C 0.77163 0.48374 0.33059 0.0
C6 C 0.75002 0.49952 0.3261 0.0
C7 C 0.74746 0.5205 0.3896 0.0
C8 C 0.7673 0.52594 0.45559 0.0
N9 N 0.72563 0.53679 0.38688 0.0
C10 C 0.7056 0.53443 0.32084 0.0
H11 H 0.99272 0.81292 0.29522 0.0
H12 H 0.99813 0.73249 0.24987 0.0
H13 H 1.01249 0.76395 0.53476 0.0
C14 C 0.99572 0.79399 0.32523 0.0
C15 C 1.00306 0.79141 0.42257 0.0
C16 C 0.99408 0.77285 0.26347 0.0
C17 C 0.99868 0.74844 0.29971 0.0
C18 C 1.00463 0.74482 0.39836 0.0
C19 C 1.00687 0.76648 0.45981 0.0
N20 N 1.00943 0.71978 0.43533 0.0
C21 C 1.00827 0.69776 0.37772 0.0
H22 H 0.72598 0.98486 0.28098 0.0
H23 H 0.80493 0.99942 0.22817 0.0
H24 H 0.77358 1.00942 0.51734 0.0
C25 C 0.74459 0.98968 0.30992 0.0
C26 C 0.74688 0.9965 0.40804 0.0
C27 C 0.76548 0.99054 0.24613 0.0
C28 C 0.78927 0.99822 0.27963 0.0
C29 C 0.79264 1.0046 0.37803 0.0
C30 C 0.77122 1.00411 0.44191 0.0
N31 N 0.81725 1.0117 0.4131 0.0
C32 C 0.83925 1.01141 0.35456 0.0
H33 H 0.47613 0.7305 0.38339 0.0
H34 H 0.49362 0.8021 0.24579 0.0
H35 H 0.54276 0.77214 0.46923 0.0
C36 C 0.48766 0.74769 0.37901 0.0
C37 C 0.50956 0.74932 0.43616 0.0
C38 C 0.48196 0.76641 0.30939 0.0
C39 C 0.49789 0.78785 0.30037 0.0
C40 C 0.51964 0.79037 0.3594 0.0
C41 C 0.52558 0.77078 0.42617 0.0
N42 N 0.53628 0.81182 0.35088 0.0
C43 C 0.53361 0.83125 0.28205 0.0
H44 H 0.22688 0.5611 0.1585 0.0
H45 H 0.30064 0.54575 0.2799 0.0
H46 H 0.27115 0.4982 0.05011 0.0
C47 C 0.24464 0.55039 0.15748 0.0
C48 C 0.24684 0.52941 0.09538 0.0
C49 C 0.26378 0.55623 0.22466 0.0
C50 C 0.28611 0.54142 0.22682 0.0
C51 C 0.28924 0.52076 0.16205 0.0
C52 C 0.26928 0.5146 0.09756 0.0
N53 N 0.31179 0.50548 0.1618 0.0
C54 C 0.33198 0.50826 0.22683 0.0
H55 H 0.97809 0.22832 0.15865 0.0
H56 H 0.99292 0.30241 0.27975 0.0
H57 H 0.04257 0.27149 0.05697 0.0
C58 C 0.98902 0.24593 0.15867 0.0
C59 C 1.01064 0.24767 0.099 0.0
C60 C 0.98264 0.26542 0.2245 0.0
C61 C 0.9977 0.28757 0.22792 0.0
C62 C 0.01909 0.29021 0.16588 0.0
C63 C 0.02569 0.26994 0.10261 0.0
N64 N 0.0346 0.3126 0.16694 0.0
C65 C 0.03157 0.33295 0.23175 0.0
H66 H 0.30622 0.97606 0.11949 0.0
H67 H 0.23381 0.994 0.25098 0.0
H68 H 0.26549 0.04285 0.02765 0.0
C69 C 0.28911 0.98774 0.12205 0.0
C70 C 0.28802 1.00964 0.06406 0.0
C71 C 0.26983 0.98215 0.1902 0.0
C72 C 0.24843 0.99817 0.19723 0.0
C73 C 0.24638 0.01985 0.13696 0.0
C74 C 0.26652 0.02572 0.07167 0.0
N75 N 0.22481 0.03644 0.14239 0.0
C76 C 0.20465 0.03377 0.20878 0.0
H77 H 0.55633 0.3105 0.14522 0.0
H78 H 0.53933 0.23615 0.26045 0.0
H79 H 0.4945 0.26719 0.02596 0.0
C80 C 0.54556 0.2928 0.14176 0.0
C81 C 0.52529 0.29105 0.07677 0.0
C82 C 0.55057 0.27323 0.20856 0.0
C83 C 0.53566 0.25098 0.20749 0.0
C84 C 0.51573 0.24833 0.1398 0.0
C85 C 0.51039 0.26868 0.07561 0.0
N86 N 0.50033 0.2259 0.13657 0.0
C87 C 0.50279 0.20518 0.19977 0.0
Tb88 Tb 0.03333 1.01252 0.84293 0.0
Tb89 Tb 1.00162 0.02687 0.68309 0.0
C90 C 0.05128 0.98667 0.97845 0.0
C91 C 0.05073 0.95849 0.98304 0.0
C92 C 0.03345 0.94653 0.04667 0.0
C93 C 0.02664 0.92109 0.03234 0.0
C94 C 0.03719 0.90704 0.95482 0.0
C95 C 0.05624 0.9182 0.89675 0.0
C96 C 0.06289 0.94377 0.91041 0.0
C97 C 0.05989 0.02835 0.69091 0.0
C98 C 1.0141 0.96998 0.69269 0.0
C99 C 0.98084 0.04979 0.54442 0.0
C100 C 0.96996 0.07575 0.53772 0.0
C101 C 0.98524 0.09732 0.55429 0.0
C102 C 0.97457 0.12169 0.55397 0.0
C103 C 0.94834 0.12518 0.53704 0.0
C104 C 0.93302 0.1036 0.51999 0.0
C105 C 0.94375 0.0791 0.5204 0.0
C106 C 0.97567 1.01164 0.83887 0.0
C107 C 0.02157 0.07006 0.83224 0.0
O108 O 0.02881 0.99761 0.98351 0.0
O109 O 0.06554 0.99665 0.90994 0.0
O110 O 0.04039 1.01406 0.68851 0.0
O111 O 0.0651 0.03371 0.78042 0.0
O112 O 0.0199 0.97542 0.78374 0.0
O113 O 1.00978 0.98863 0.63069 0.0
O114 O 1.00563 0.04818 0.555 0.0
O115 O 0.9686 0.03407 0.60183 0.0
O116 O 0.99501 0.02594 0.83735 0.0
O117 O 0.97001 1.00571 0.75044 0.0
O118 O 1.01171 0.06432 0.74649 0.0
O119 O 0.02973 0.0519 0.89098 0.0
H120 H 0.02385 0.95735 0.1032 0.0
H121 H 1.01243 0.91261 0.08007 0.0
H122 H 0.06482 0.90765 0.83722 0.0
H123 H 0.07628 0.95237 0.85976 0.0
H124 H 1.00549 0.09549 0.56811 0.0
H125 H 0.98713 0.13787 0.56468 0.0
H126 H 0.91278 0.10563 0.50638 0.0
H127 H 0.93155 0.06273 0.50787 0.0
Tb128 Tb 0.52358 0.02855 0.8108 0.0
Tb129 Tb 0.50909 1.0004 0.63814 0.0
C130 C 0.54906 0.03913 0.95682 0.0
C131 C 0.57508 0.02918 0.97083 0.0
C132 C 0.58022 1.00341 0.94922 0.0
C133 C 0.60515 0.99507 0.93418 0.0
C134 C 0.6257 1.01211 0.94266 0.0
C135 C 0.62066 0.03759 0.96982 0.0
C136 C 0.59554 0.04609 0.98302 0.0
C137 C 0.50882 0.05853 0.66861 0.0
C138 C 0.56632 1.01043 0.65655 0.0
C139 C 0.4858 0.98395 0.49277 0.0
C140 C 0.45983 0.97313 0.48507 0.0
C141 C 0.43828 0.98782 0.50944 0.0
C142 C 0.41404 0.97685 0.51069 0.0
C143 C 0.41069 0.9509 0.48771 0.0
C144 C 0.43223 0.93622 0.4624 0.0
C145 C 0.45657 0.94726 0.46111 0.0
C146 C 0.52356 0.97102 0.78422 0.0
C147 C 0.4657 0.01881 0.79251 0.0
O148 O 0.53078 0.02204 0.95853 0.0
O149 O 0.5469 0.05487 0.88346 0.0
O150 O 0.52239 0.03861 0.6593 0.0
O151 O 0.5044 0.06272 0.76008 0.0
O152 O 0.56033 0.01525 0.74821 0.0
O153 O 0.54818 1.00735 0.59172 0.0
O154 O 0.48746 1.00829 0.51407 0.0
O155 O 0.50191 0.97016 0.54234 0.0
O156 O 0.50989 0.99077 0.7893 0.0
O157 O 0.52866 0.96651 0.69382 0.0
O158 O 0.47168 1.00866 0.70698 0.0
O159 O 0.48353 0.0272 0.85183 0.0
H160 H 0.56489 0.98992 0.93729 0.0
H161 H 0.60815 0.97542 0.91241 0.0
H162 H 0.63607 0.0511 0.97979 0.0
H163 H 0.59205 0.0661 0.99822 0.0
H164 H 0.44006 1.00779 0.5287 0.0
H165 H 0.39784 0.98893 0.5279 0.0
H166 H 0.43028 0.91621 0.444 0.0
H167 H 0.47292 0.93547 0.44269 0.0
Tb168 Tb 0.50342 0.52776 0.84912 0.0
Tb169 Tb 0.53607 0.51507 0.68946 0.0
C170 C 0.48174 0.54965 0.98942 0.0
C171 C 0.47105 0.57562 0.99884 0.0
C172 C 0.48637 0.59721 0.98198 0.0
C173 C 0.47572 0.62159 0.98379 0.0
C174 C 0.44949 0.62506 0.00226 0.0
C175 C 0.43417 0.60345 0.01975 0.0
C176 C 0.44487 0.57896 0.01799 0.0
C177 C 0.47795 0.51189 0.69535 0.0
C178 C 0.52172 0.57186 0.7006 0.0
C179 C 0.5577 0.49279 0.54999 0.0
C180 C 0.56578 0.46595 0.53842 0.0
C181 C 0.54813 0.44593 0.54893 0.0
C182 C 0.55629 0.4206 0.54661 0.0
C183 C 0.58228 0.41463 0.53398 0.0
C184 C 0.59993 0.43466 0.52229 0.0
C185 C 0.59174 0.4601 0.52459 0.0
C186 C 0.56131 0.531 0.84401 0.0
C187 C 0.51747 0.47099 0.83606 0.0
O188 O 0.50659 0.54777 0.98045 0.0
O189 O 0.46982 0.53477 0.92875 0.0
O190 O 0.49693 0.52683 0.69443 0.0
O191 O 0.47284 0.50566 0.7842 0.0
O192 O 0.51254 0.56581 0.78758 0.0
O193 O 0.5298 0.55391 0.64076 0.0
O194 O 0.53309 0.49718 0.55368 0.0
O195 O 0.57002 0.50562 0.61596 0.0
O196 O 0.54247 0.51589 0.8442 0.0
O197 O 0.56639 0.53746 0.7553 0.0
O198 O 0.52577 0.4771 0.74806 0.0
O199 O 0.51044 0.48897 0.89767 0.0
H200 H 0.5066 0.59535 0.96658 0.0
H201 H 0.48827 0.63779 0.97266 0.0
H202 H 0.41392 0.60547 0.03445 0.0
H203 H 0.43265 0.56257 0.03054 0.0
H204 H 0.52799 0.44974 0.56027 0.0
H205 H 0.54208 0.40565 0.55328 0.0
H206 H 0.62007 0.43068 0.51207 0.0
H207 H 0.60573 0.47523 0.51698 0.0
Tb208 Tb 1.01116 0.50161 0.86455 0.0
Tb209 Tb 0.02323 0.53678 0.7123 0.0
C210 C 0.98945 0.47798 1.00067 0.0
C211 C 0.96301 0.46856 0.01046 0.0
C212 C 0.94223 0.485 0.99526 0.0
C213 C 0.91735 0.47556 0.99627 0.0
C214 C 0.91261 0.44946 0.0124 0.0
C215 C 0.93339 0.43302 0.02859 0.0
C216 C 0.95839 0.44251 0.02737 0.0
C217 C 0.02771 0.47862 0.70538 0.0
C218 C 0.96671 0.52139 0.72183 0.0
C219 C 0.04464 0.56082 0.57618 0.0
C220 C 0.07111 0.56989 0.56316 0.0
C221 C 0.09182 0.55325 0.57644 0.0
C222 C 0.1168 0.56236 0.57124 0.0
C223 C 0.12171 0.58831 0.55261 0.0
C224 C 0.10098 0.60495 0.53833 0.0
C225 C 0.07588 0.5958 0.54381 0.0
C226 C 1.00724 0.55928 0.87428 0.0
C227 C 0.06781 0.51676 0.8527 0.0
O228 O 0.99262 0.50279 1.00008 0.0
O229 O 1.00309 0.46674 0.93348 0.0
O230 O 1.01232 0.49728 0.70854 0.0
O231 O 0.0341 0.47261 0.79298 0.0
O232 O 0.97294 0.51118 0.80652 0.0
O233 O 0.9845 0.53057 0.66341 0.0
O234 O 0.04108 0.53607 0.57539 0.0
O235 O 0.03181 0.5719 0.64596 0.0
O236 O 0.02256 0.54072 0.86816 0.0
O237 O 1.00053 0.56578 0.78748 0.0
O238 O 0.06146 0.5266 0.7676 0.0
O239 O 0.05004 0.50808 0.91257 0.0
H240 H 0.9451 0.50517 0.98154 0.0
H241 H 0.90178 0.48889 0.98617 0.0
H242 H 0.93033 0.41285 0.0417 0.0
H243 H 0.97416 0.42944 0.03849 0.0
H244 H 0.08882 0.53318 0.59175 0.0
H245 H 0.1323 0.54887 0.58004 0.0
H246 H 0.10415 0.62502 0.52345 0.0
H247 H 0.06017 0.609 0.53391 0.0
H248 H 0.2025 0.05575 0.38578 0.0
H249 H 0.06027 1.00625 0.50856 0.0
H250 H 0.15894 1.00978 0.18767 0.0
H251 H 0.10448 0.05484 0.69609 0.0
H252 H 0.09532 1.00747 0.38835 0.0
H253 H 0.16638 0.05533 0.50013 0.0
C254 C 0.18527 0.04549 0.36678 0.0
C255 C 0.18358 0.03273 0.27783 0.0
C256 C 0.09727 0.01795 0.45565 0.0
C257 C 0.14203 0.0322 0.40764 0.0
C258 C 0.07722 0.01735 0.52403 0.0
C259 C 0.07948 0.03041 0.61262 0.0
C260 C 0.11972 0.03171 0.47614 0.0
C261 C 0.10192 0.0444 0.629 0.0
C262 C 0.16461 0.04528 0.43179 0.0
C263 C 0.16089 0.01978 0.25604 0.0
N264 N 0.1211 0.04459 0.5619 0.0
N265 N 0.14097 0.01982 0.32051 0.0
H266 H 0.52625 0.15966 0.1679 0.0
H267 H 0.48309 0.10332 0.68667 0.0
H268 H 0.4818 0.20138 0.37893 0.0
H269 H 0.52876 0.0604 0.48229 0.0
H270 H 0.48137 0.13866 0.57138 0.0
H271 H 0.52692 0.1227 0.2786 0.0
C272 C 0.51671 0.16098 0.23782 0.0
C273 C 0.50401 0.18346 0.265 0.0
C274 C 0.49172 0.12153 0.55119 0.0
C275 C 0.50451 0.14144 0.39143 0.0
C276 C 0.49266 0.10128 0.61709 0.0
C277 C 0.50619 0.0789 0.59431 0.0
C278 C 0.50443 0.11958 0.46129 0.0
C279 C 0.51813 0.07733 0.50282 0.0
C280 C 0.51703 0.13992 0.30082 0.0
C281 C 0.49184 0.18433 0.35575 0.0
N282 N 0.51708 0.09744 0.43979 0.0
N283 N 0.49238 0.16365 0.41569 0.0
H284 H 0.33515 0.4847 0.40049 0.0
H285 H 0.47661 0.53607 0.5167 0.0
H286 H 0.37711 0.53344 0.20431 0.0
H287 H 0.43427 0.48396 0.6994 0.0
H288 H 0.44126 0.53534 0.39957 0.0
H289 H 0.37166 0.48469 0.5109 0.0
C290 C 0.3521 0.49549 0.38112 0.0
C291 C 0.35322 0.50915 0.29388 0.0
C292 C 0.4398 0.52398 0.4651 0.0
C293 C 0.39524 0.50918 0.41914 0.0
C294 C 0.46002 0.5243 0.53168 0.0
C295 C 0.45835 0.51012 0.61811 0.0
C296 C 0.41778 0.50939 0.4853 0.0
C297 C 0.43637 0.49528 0.63399 0.0
C298 C 0.37299 0.49544 0.44386 0.0
C299 C 0.37559 0.52275 0.27147 0.0
N300 N 0.417 0.49541 0.56875 0.0
N301 N 0.39575 0.52245 0.33374 0.0
H302 H 0.05822 0.33804 0.39723 0.0
H303 H 1.00093 0.47637 0.53258 0.0
H304 H 1.00343 0.37658 0.2173 0.0
H305 H 0.05854 0.43709 0.69769 0.0
H306 H 1.00176 0.44122 0.41343 0.0
H307 H 0.05829 0.37476 0.50737 0.0
C308 C 0.04611 0.35428 0.38139 0.0
C309 C 0.03073 0.35436 0.29879 0.0
C310 C 1.01433 0.44042 0.47546 0.0
C311 C 0.03074 0.39667 0.42387 0.0
C312 C 1.01396 0.46055 0.54311 0.0
C313 C 0.02963 0.45962 0.62541 0.0
C314 C 0.03048 0.41926 0.49045 0.0
C315 C 0.04603 0.43859 0.63567 0.0
C316 C 0.04619 0.37531 0.44397 0.0
C317 C 0.01547 0.37586 0.28085 0.0
N318 N 0.04592 0.4193 0.56963 0.0
N319 N 0.01582 0.39619 0.34294 0.0
H320 H 0.88083 0.04266 0.34788 0.0
H321 H 0.93303 0.98191 0.84984 0.0
H322 H 0.84646 0.97776 0.20816 0.0
H323 H 0.97633 0.03656 0.01501 0.0
H324 H 0.90099 0.98064 0.98 0.0
H325 H 0.9158 0.04148 0.22722 0.0
C326 C 0.88076 0.02811 0.29196 0.0
C327 C 0.86079 1.01034 0.28734 0.0
C328 C 0.91755 0.99282 0.98835 0.0
C329 C 0.90043 1.00894 0.14889 0.0
C330 C 0.93586 0.99354 0.91391 0.0
C331 C 0.95735 1.00941 0.92138 0.0
C332 C 0.92049 1.0083 0.07096 0.0
C333 C 0.96004 0.02404 0.00625 0.0
C334 C 0.90068 0.02742 0.22318 0.0
C335 C 0.86147 0.99189 0.21373 0.0
N336 N 0.94174 0.0233 0.07734 0.0
N337 N 0.88084 0.99175 0.14716 0.0
H338 H 0.55284 0.83062 0.09957 0.0
H339 H 0.50481 0.97261 0.97135 0.0
H340 H 0.51135 0.87783 0.30233 0.0
H341 H 0.54813 0.92518 0.77435 0.0
H342 H 0.50743 0.93882 0.09483 0.0
H343 H 0.55135 0.86533 0.97984 0.0
C344 C 0.54336 0.84835 0.1185 0.0
C345 C 0.53215 0.85149 0.21029 0.0
C346 C 0.51643 0.93583 0.0247 0.0
C347 C 0.53039 0.89136 0.07437 0.0
C348 C 0.51499 0.95515 0.95432 0.0
C349 C 0.52618 0.95165 0.86231 0.0
C350 C 0.52912 0.91282 0.00286 0.0
C351 C 0.53913 0.92865 0.84415 0.0
C352 C 0.54253 0.86819 0.05039 0.0
C353 C 0.52015 0.87476 0.23187 0.0
N354 N 0.54015 0.91013 0.91345 0.0
N355 N 0.51957 0.89383 0.1644 0.0
H356 H 0.70306 0.55836 0.14752 0.0
H357 H 0.56204 0.50708 0.02304 0.0
H358 H 0.66034 0.50929 0.34012 0.0
H359 H 0.60526 0.55864 0.84116 0.0
H360 H 0.59693 0.50785 0.14197 0.0
H361 H 0.66702 0.55846 0.03479 0.0
C362 C 0.68604 0.54752 0.16565 0.0
C363 C 0.68458 0.53374 0.25259 0.0
C364 C 0.5987 0.51908 0.07623 0.0
C365 C 0.6431 0.53379 0.12458 0.0
C366 C 0.57874 0.51873 0.00856 0.0
C367 C 0.58077 0.53276 0.92186 0.0
C368 C 0.62085 0.53356 0.05692 0.0
C369 C 0.60289 0.54745 0.90675 0.0
C370 C 0.66542 0.54762 0.10156 0.0
C371 C 0.66214 0.52009 0.27331 0.0
N372 N 0.62201 0.54737 0.97311 0.0
N373 N 0.64225 0.52043 0.20975 0.0
H374 H 0.9737 0.69097 0.23549 0.0
H375 H 0.03419 0.55857 0.04572 0.0
H376 H 0.03887 0.65565 0.36937 0.0
H377 H 0.97669 0.60115 0.89225 0.0
H378 H 0.03354 0.59119 0.17438 0.0
H379 H 0.97195 0.65577 0.11842 0.0
C380 C 0.98758 0.67568 0.2403 0.0
C381 C 1.00649 0.67617 0.31165 0.0
C382 C 0.02096 0.5933 0.11282 0.0
C383 C 1.00466 0.6357 0.17806 0.0
C384 C 0.02124 0.57462 0.03962 0.0
C385 C 1.00552 0.57719 0.9579 0.0
C386 C 1.00472 0.61462 0.1046 0.0
C387 C 0.98919 0.59843 0.95369 0.0
C388 C 0.98661 0.65558 0.17346 0.0
C389 C 0.02399 0.65591 0.31514 0.0
N390 N 0.98926 0.61628 0.02557 0.0
N391 N 0.0227 0.63649 0.24917 0.0
H392 H 0.98727 0.26841 0.42125 0.0
H393 H 0.91381 0.1432 0.40456 0.0
H394 H 0.93375 0.24847 0.1976 0.0
H395 H 0.95929 0.16739 0.64792 0.0
H396 H 0.90754 0.18769 0.36002 0.0
H397 H 0.96429 0.24075 0.53432 0.0
C398 C 0.96994 0.25914 0.39716 0.0
C399 C 0.96294 0.25983 0.29914 0.0
C400 C 0.91837 0.1834 0.42474 0.0
C401 C 0.93727 0.22731 0.42641 0.0
C402 C 0.92187 0.15787 0.45054 0.0
C403 C 0.93806 0.1515 0.52762 0.0
C404 C 0.93167 0.20258 0.47489 0.0
C405 C 0.94766 0.17143 0.58504 0.0
C406 C 0.95692 0.24306 0.46155 0.0
C407 C 0.94021 0.24767 0.27208 0.0
N408 N 0.94499 0.19605 0.55583 0.0
N409 N 0.92867 0.23115 0.3344 0.0
H410 H 0.2846 0.93251 0.16221 0.0
H411 H 0.36981 0.95918 0.61023 0.0
H412 H 0.26883 0.98766 0.3869 0.0
H413 H 0.3916 0.91832 0.35036 0.0
H414 H 0.32492 0.9525 0.56987 0.0
H415 H 0.31301 0.9099 0.27283 0.0
C416 C 0.2862 0.93916 0.23644 0.0
C417 C 0.27527 0.96251 0.26449 0.0
C418 C 0.33954 0.94431 0.52332 0.0
C419 C 0.30818 0.93734 0.38981 0.0
C420 C 0.36517 0.94829 0.54585 0.0
C421 C 0.38446 0.94029 0.48123 0.0
C422 C 0.33325 0.93245 0.43525 0.0
C423 C 0.3774 0.92535 0.40124 0.0
C424 C 0.30256 0.92636 0.29939 0.0
C425 C 0.27748 0.97005 0.36172 0.0
N426 N 0.35235 0.92249 0.37914 0.0
N427 N 0.29445 0.958 0.42014 0.0
H428 H 0.60043 0.28831 0.1959 0.0
H429 H 0.56608 0.37347 0.64192 0.0
H430 H 0.54022 0.27272 0.40241 0.0
H431 H 0.61661 0.39389 0.40525 0.0
H432 H 0.57031 0.32856 0.59617 0.0
H433 H 0.62061 0.31643 0.31419 0.0
C434 C 0.59212 0.28991 0.26797 0.0
C435 C 0.56826 0.27893 0.28872 0.0
C436 C 0.58104 0.3428 0.55593 0.0
C437 C 0.59057 0.31168 0.42248 0.0
C438 C 0.57849 0.36846 0.58153 0.0
C439 C 0.59022 0.38752 0.52487 0.0
C440 C 0.59521 0.33625 0.4726 0.0
C441 C 0.60683 0.37991 0.44992 0.0
C442 C 0.60349 0.30614 0.33522 0.0
C443 C 0.55839 0.28128 0.38315 0.0
N444 N 0.60833 0.3549 0.42446 0.0
N445 N 0.56913 0.29814 0.4457 0.0
H446 H 0.24742 0.60552 0.20447 0.0
H447 H 0.16358 0.57568 0.66166 0.0
H448 H 0.26433 0.54845 0.42012 0.0
H449 H 0.14099 0.62088 0.41454 0.0
H450 H 0.20823 0.58054 0.61204 0.0
H451 H 0.21863 0.62647 0.31992 0.0
C452 C 0.24595 0.5981 0.27779 0.0
C453 C 0.25751 0.5748 0.30208 0.0
C454 C 0.19355 0.59 0.57022 0.0
C455 C 0.22412 0.59803 0.4329 0.0
C456 C 0.16805 0.5871 0.5981 0.0
C457 C 0.14849 0.59707 0.53997 0.0
C458 C 0.19947 0.60277 0.48321 0.0
C459 C 0.15539 0.61246 0.46058 0.0
C460 C 0.22935 0.60991 0.34343 0.0
C461 C 0.25533 0.56612 0.39808 0.0
N462 N 0.18029 0.61431 0.43315 0.0
N463 N 0.23818 0.57727 0.45924 0.0
H464 H 0.95478 0.79474 0.1645 0.0
H465 H 0.06487 0.86351 0.91942 0.0
H466 H 0.03002 0.76299 0.12593 0.0
H467 H 0.98768 0.89167 0.94065 0.0
H468 H 0.04857 0.81981 0.92825 0.0
H469 H 0.96098 0.8202 0.01789 0.0
C470 C 0.97217 0.79231 0.12233 0.0
C471 C 0.99228 0.77756 0.15836 0.0
C472 C 0.03508 0.83549 0.92832 0.0
C473 C 1.00024 0.80767 0.99511 0.0
C474 C 0.04443 0.86044 0.92351 0.0
C475 C 0.02763 0.88106 0.93461 0.0
C476 C 1.00888 0.83141 0.94622 0.0
C477 C 1.00132 0.87615 0.93699 0.0
C478 C 0.97588 0.807 0.03898 0.0
C479 C 1.01432 0.77472 0.10116 0.0
N480 N 0.99277 0.85182 0.94539 0.0
N481 N 0.01817 0.79046 0.02408 0.0
H482 H 0.75115 0.94638 0.15825 0.0
H483 H 0.66645 0.03796 0.86094 0.0
H484 H 0.76782 0.02548 0.10074 0.0
H485 H 0.64579 0.96516 0.98689 0.0
H486 H 0.71149 0.02595 0.87254 0.0
H487 H 0.72405 0.94528 0.01478 0.0
C488 C 0.75004 0.96317 0.11239 0.0
C489 C 0.76084 0.98628 0.14227 0.0
C490 C 0.69698 1.01236 0.89479 0.0
C491 C 0.72899 0.98565 0.98264 0.0
C492 C 0.6713 0.01934 0.88974 0.0
C493 C 0.65231 1.00309 0.92758 0.0
C494 C 0.70361 0.98905 0.93832 0.0
C495 C 0.65964 0.97865 0.95876 0.0
C496 C 0.73445 0.96264 0.03093 0.0
C497 C 0.75917 1.00747 0.08065 0.0
N498 N 0.68471 0.97263 0.96537 0.0
N499 N 0.74263 1.00697 0.00526 0.0
H500 H 0.48675 0.76891 0.11206 0.0
H501 H 0.41481 0.64297 0.13627 0.0
H502 H 0.43305 0.74907 0.33853 0.0
H503 H 0.46033 0.66725 0.89045 0.0
H504 H 0.40795 0.68747 0.17965 0.0
H505 H 0.46417 0.74086 1.00104 0.0
C506 C 0.46949 0.75954 0.13735 0.0
C507 C 0.46239 0.76036 0.23572 0.0
C508 C 0.41891 0.68318 0.11467 0.0
C509 C 0.43718 0.72735 0.11052 0.0
C510 C 0.42277 0.65765 0.08958 0.0
C511 C 0.43911 0.65134 0.01202 0.0
C512 C 0.43201 0.70243 0.06327 0.0
C513 C 0.44859 0.67127 0.95368 0.0
C514 C 0.45669 0.74324 0.07403 0.0
C515 C 0.43969 0.74811 0.26394 0.0
N516 N 0.44554 0.69591 0.98211 0.0
N517 N 0.4284 0.73133 0.20266 0.0
H518 H 0.78662 0.434 0.35226 0.0
H519 H 0.87158 0.46201 0.89872 0.0
H520 H 0.7713 0.49108 0.13477 0.0
H521 H 0.89253 0.41624 0.14642 0.0
H522 H 0.82664 0.45731 0.94459 0.0
H523 H 0.81462 0.4119 0.23714 0.0
C524 C 0.78828 0.44123 0.27871 0.0
C525 C 0.77747 0.46485 0.2538 0.0
C526 C 0.84103 0.44766 0.98726 0.0
C527 C 0.80995 0.44026 0.12333 0.0
C528 C 0.86669 0.45047 0.9615 0.0
C529 C 0.88585 0.44038 0.02122 0.0
C530 C 0.83458 0.43491 0.07381 0.0
C531 C 0.87844 0.4248 0.09939 0.0
C532 C 0.8044 0.42873 0.21319 0.0
C533 C 0.77979 0.4732 0.15741 0.0
N534 N 0.8534 0.4231 0.12493 0.0
N535 N 0.79651 0.46138 0.09642 0.0
H536 H 0.05104 0.2152 0.1243 0.0
H537 H 0.99615 0.1107 0.75325 0.0
H538 H 0.98469 0.22709 0.94705 0.0
H539 H 0.04864 0.09189 0.98234 0.0
H540 H 0.99687 0.15527 0.80512 0.0
H541 H 0.05599 0.17229 0.05335 0.0
C542 C 0.03804 0.20907 0.0681 0.0
C543 C 0.01767 0.22483 0.04025 0.0
C544 C 1.00835 0.14146 0.8439 0.0
C545 C 0.02278 0.17563 0.96053 0.0
C546 C 1.00804 0.11594 0.81395 0.0
C547 C 0.02238 0.09737 0.8632 0.0
C548 C 0.02327 0.14876 0.92364 0.0
C549 C 0.03717 0.10545 0.94235 0.0
C550 C 0.04063 0.18447 0.02864 0.0
C551 C 1.00086 0.21566 0.96937 0.0
N552 N 0.03725 0.13049 0.97003 0.0
N553 N 1.00373 0.19172 0.93224 0.0
H554 H 0.32 0.05081 0.08071 0.0
H555 H 0.42535 0.99236 0.7164 0.0
H556 H 0.3091 0.98171 0.91667 0.0
H557 H 0.44343 0.04733 0.93872 0.0
H558 H 0.38065 0.99335 0.76864 0.0
H559 H 0.36281 0.0553 0.00748 0.0
C560 C 0.32632 0.03704 0.02697 0.0
C561 C 0.31089 0.01602 0.0038 0.0
C562 C 0.39434 1.00532 0.80577 0.0
C563 C 0.35997 0.02069 0.9213 0.0
C564 C 0.41992 1.00485 0.77561 0.0
C565 C 0.43831 0.0198 0.82301 0.0
C566 C 0.38684 0.021 0.88372 0.0
C567 C 0.43001 0.03536 0.90027 0.0
C568 C 0.35087 0.0394 0.98621 0.0
C569 C 0.3203 0.99833 0.9357 0.0
N570 N 0.40494 0.03557 0.92814 0.0
N571 N 0.34418 1.00101 0.89718 0.0
H572 H 0.55094 0.3103 0.9199 0.0
H573 H 0.49133 0.44947 0.98953 0.0
H574 H 0.48718 0.3254 0.11051 0.0
H575 H 0.54106 0.42998 0.7498 0.0
H576 H 0.48977 0.40427 0.03571 0.0
H577 H 0.5471 0.35364 0.85341 0.0
C578 C 0.53561 0.32254 0.94541 0.0
C579 C 0.51898 0.31414 0.01912 0.0
C580 C 0.50088 0.40985 0.97253 0.0
C581 C 0.5152 0.36419 0.94713 0.0
C582 C 0.50192 0.43571 0.94647 0.0
C583 C 0.51632 0.44361 0.86538 0.0
C584 C 0.51462 0.39168 0.91799 0.0
C585 C 0.52953 0.42481 0.81221 0.0
C586 C 0.53358 0.34736 0.90833 0.0
C587 C 0.49998 0.331 0.05214 0.0
N588 N 0.52851 0.39983 0.83974 0.0
N589 N 0.4988 0.3553 0.01685 0.0
H590 H 0.22682 0.55532 0.94199 0.0
H591 H 0.09017 0.48902 0.9992 0.0
H592 H 0.21406 0.48946 0.12325 0.0
H593 H 0.10807 0.54301 0.77212 0.0
H594 H 0.13533 0.4886 0.04522 0.0
H595 H 0.18391 0.55017 0.87453 0.0
C596 C 0.2152 0.53929 0.96526 0.0
C597 C 0.22414 0.52249 0.03679 0.0
C598 C 0.12942 0.50039 0.98477 0.0
C599 C 0.17449 0.51711 0.96347 0.0
C600 C 0.10357 0.50075 0.95877 0.0
C601 C 0.09522 0.51604 0.88133 0.0
C602 C 0.1471 0.51567 0.93383 0.0
C603 C 0.11358 0.53075 0.83153 0.0
C604 C 0.1906 0.53649 0.92759 0.0
C605 C 0.20806 0.50248 0.0667 0.0
N606 N 0.13852 0.53033 0.85897 0.0
N607 N 0.18391 0.50053 0.0309 0.0
H608 H 0.98717 0.80569 0.60886 0.0
H609 H 0.02249 0.95202 0.50922 0.0
H610 H 0.03124 0.83225 0.36304 0.0
H611 H 1.00413 0.92624 0.79871 0.0
H612 H 0.02219 0.90776 0.4536 0.0
H613 H 0.9911 0.84863 0.6825 0.0
C614 C 0.99795 0.82034 0.57108 0.0
C615 C 1.00846 0.8154 0.47862 0.0
C616 C 0.01833 0.91165 0.52955 0.0
C617 C 1.0125 0.86458 0.56102 0.0
C618 C 0.01834 0.93701 0.56123 0.0
C619 C 1.0135 0.9429 0.65899 0.0
C620 C 1.013 0.89174 0.59543 0.0
C621 C 1.00832 0.92251 0.72297 0.0
C622 C 1.00003 0.84488 0.61275 0.0
C623 C 0.02225 0.83522 0.43322 0.0
N624 N 1.00803 0.89786 0.6901 0.0
N625 N 0.02352 0.85881 0.47394 0.0
H626 H 0.72957 0.03261 0.54133 0.0
H627 H 0.58643 0.98414 0.50203 0.0
H628 H 0.70917 0.96031 0.41353 0.0
H629 H 0.60878 0.03078 0.74497 0.0
H630 H 0.63148 0.97929 0.45692 0.0
H631 H 0.68616 0.03545 0.61198 0.0
C632 C 0.71624 0.01712 0.52963 0.0
C633 C 0.72305 0.9964 0.46968 0.0
C634 C 0.62657 0.99052 0.52039 0.0
C635 C 0.67315 0.99999 0.54737 0.0
C636 C 0.6008 0.99344 0.54578 0.0
C637 C 0.59373 1.00782 0.62761 0.0
C638 C 0.64562 1.00249 0.57575 0.0
C639 C 0.61336 0.01934 0.68175 0.0
C640 C 0.69139 0.01887 0.56924 0.0
C641 C 0.70474 0.97698 0.45698 0.0
N642 N 0.63837 0.01665 0.65445 0.0
N643 N 0.68069 0.97949 0.49361 0.0
H644 H 0.48289 0.73002 0.5905 0.0
H645 H 0.54868 0.59318 0.54903 0.0
H646 H 0.54971 0.7164 0.41392 0.0
H647 H 0.4964 0.61284 0.78065 0.0
H648 H 0.54914 0.638 0.49771 0.0
H649 H 0.48791 0.68762 0.66371 0.0
C650 C 0.49906 0.71832 0.5693 0.0
C651 C 0.51615 0.72686 0.49725 0.0
C652 C 0.53772 0.63255 0.56026 0.0
C653 C 0.52144 0.6778 0.57753 0.0
C654 C 0.53732 0.6069 0.58931 0.0
C655 C 0.52247 0.59913 0.66946 0.0
C656 C 0.52288 0.65065 0.61073 0.0
C657 C 0.50826 0.6179 0.71896 0.0
C658 C 0.50181 0.69403 0.6104 0.0
C659 C 0.53641 0.71071 0.47053 0.0
N660 N 0.50865 0.64266 0.6884 0.0
N661 N 0.5383 0.68684 0.50961 0.0
H662 H 0.80898 0.48164 0.60778 0.0
H663 H 0.94481 0.55044 0.57843 0.0
H664 H 0.82161 0.5508 0.4451 0.0
H665 H 0.92624 0.4938 0.79515 0.0
H666 H 0.90001 0.55079 0.52808 0.0
H667 H 0.85139 0.48622 0.68015 0.0
C668 C 0.82046 0.49819 0.58946 0.0
C669 C 0.81161 0.51609 0.52159 0.0
C670 C 0.90568 0.53843 0.58722 0.0
C671 C 0.86073 0.52095 0.60092 0.0
C672 C 0.93133 0.5381 0.61572 0.0
C673 C 0.93941 0.52209 0.6915 0.0
C674 C 0.88788 0.52236 0.63378 0.0
C675 C 0.92093 0.50662 0.73716 0.0
C676 C 0.84477 0.5007 0.63008 0.0
C677 C 0.82751 0.53685 0.4985 0.0
N678 N 0.89617 0.507 0.70719 0.0
N679 N 0.8514 0.53853 0.537 0.0
loop_
_geom_bond_atom_site_label_1
_geom_bond_atom_site_label_2
_geom_bond_distance
_geom_bond_site_symmetry_2
_ccdc_geom_bond_type
H0 C3 0.929 . S
H1 C6 0.929 . S
H2 C8 0.930 . S
C3 H0 0.929 . S
C3 C4 1.398 . S
C3 C5 1.396 . S
C4 C3 1.398 . S
C4 C8 1.407 . S
C5 C3 1.396 . S
C5 C6 1.394 . S
C6 H1 0.929 . S
C6 C5 1.394 . S
C6 C7 1.382 . S
C7 C6 1.382 . S
C7 C8 1.392 . S
C7 N9 1.420 . S
C8 H2 0.930 . S
C8 C4 1.407 . S
C8 C7 1.392 . S
N9 C7 1.420 . S
N9 C10 1.244 . S
C10 N9 1.244 . S
H11 C14 0.929 . S
H12 C17 0.929 . S
H13 C19 0.930 . S
C14 H11 0.929 . S
C14 C15 1.395 1_655 S
C14 C16 1.395 1_655 S
C15 C14 1.395 1_455 S
C15 C19 1.413 . S
C16 C14 1.395 1_455 S
C16 C17 1.397 . S
C17 H12 0.929 . S
C17 C16 1.397 . S
C17 C18 1.382 . S
C18 C17 1.382 . S
C18 C19 1.392 . S
C18 N20 1.420 . S
C19 H13 0.930 . S
C19 C15 1.413 . S
C19 C18 1.392 . S
N20 C18 1.420 . S
N20 C21 1.232 1_455 S
C21 N20 1.232 1_655 S
H22 C25 0.929 . S
H23 C28 0.929 . S
H24 C30 0.930 . S
C25 H22 0.929 . S
C25 C26 1.395 1_565 S
C25 C27 1.395 1_565 S
C26 C25 1.395 1_545 S
C26 C30 1.413 . S
C27 C25 1.395 1_545 S
C27 C28 1.397 . S
C28 H23 0.929 . S
C28 C27 1.397 . S
C28 C29 1.382 . S
C29 C28 1.382 . S
C29 C30 1.392 . S
C29 N31 1.420 . S
C30 H24 0.930 . S
C30 C26 1.413 . S
C30 C29 1.392 . S
N31 C29 1.420 . S
N31 C32 1.232 1_545 S
C32 N31 1.232 1_565 S
H33 C36 0.929 . S
H34 C39 0.929 . S
H35 C41 0.930 . S
C36 H33 0.929 . S
C36 C37 1.398 . S
C36 C38 1.396 . S
C37 C36 1.398 . S
C37 C41 1.407 . S
C38 C36 1.396 . S
C38 C39 1.394 . S
C39 H34 0.929 . S
C39 C38 1.394 . S
C39 C40 1.382 . S
C40 C39 1.382 . S
C40 C41 1.392 . S
C40 N42 1.420 . S
C41 H35 0.930 . S
C41 C37 1.407 . S
C41 C40 1.392 . S
N42 C40 1.420 . S
N42 C43 1.244 . S
C43 N42 1.244 . S
H44 C47 0.929 . S
H45 C50 0.929 . S
H46 C52 0.930 . S
C47 H44 0.929 . S
C47 C48 1.398 1_554 S
C47 C49 1.396 . S
C48 C47 1.398 1_556 S
C48 C52 1.407 . S
C49 C47 1.396 . S
C49 C50 1.394 . S
C50 H45 0.929 . S
C50 C49 1.394 . S
C50 C51 1.382 . S
C51 C50 1.382 . S
C51 C52 1.392 1_554 S
C51 N53 1.420 . S
C52 H46 0.930 . S
C52 C48 1.407 . S
C52 C51 1.392 1_556 S
N53 C51 1.420 . S
N53 C54 1.244 . S
C54 N53 1.244 . S
H55 C58 0.929 . S
H56 C61 0.929 . S
H57 C63 0.930 . S
C58 H55 0.929 . S
C58 C59 1.395 1_654 S
C58 C60 1.394 1_655 S
C59 C58 1.395 1_456 S
C59 C63 1.416 . S
C60 C58 1.394 1_455 S
C60 C61 1.398 . S
C61 H56 0.929 . S
C61 C60 1.398 . S
C61 C62 1.382 . S
C62 C61 1.382 . S
C62 C63 1.392 1_554 S
C62 N64 1.420 . S
C63 H57 0.930 . S
C63 C59 1.416 . S
C63 C62 1.392 1_556 S
N64 C62 1.420 . S
N64 C65 1.236 1_455 S
C65 N64 1.236 1_655 S
H66 C69 0.929 . S
H67 C72 0.929 . S
H68 C74 0.930 . S
C69 H66 0.929 . S
C69 C70 1.395 1_564 S
C69 C71 1.394 1_565 S
C70 C69 1.395 1_546 S
C70 C74 1.416 . S
C71 C69 1.394 1_545 S
C71 C72 1.398 . S
C72 H67 0.929 . S
C72 C71 1.398 . S
C72 C73 1.382 . S
C73 C72 1.382 . S
C73 C74 1.392 1_554 S
C73 N75 1.420 . S
C74 H68 0.930 . S
C74 C70 1.416 . S
C74 C73 1.392 1_556 S
N75 C73 1.420 . S
N75 C76 1.237 1_545 S
C76 N75 1.237 1_565 S
H77 C80 0.929 . S
H78 C83 0.929 . S
H79 C85 0.930 . S
C80 H77 0.929 . S
C80 C81 1.398 1_554 S
C80 C82 1.396 . S
C81 C80 1.398 1_556 S
C81 C85 1.407 . S
C82 C80 1.396 . S
C82 C83 1.394 . S
C83 H78 0.929 . S
C83 C82 1.394 . S
C83 C84 1.382 . S
C84 C83 1.382 . S
C84 C85 1.392 1_554 S
C84 N86 1.420 . S
C85 H79 0.930 . S
C85 C81 1.407 . S
C85 C84 1.392 1_556 S
N86 C84 1.420 . S
N86 C87 1.244 . S
C87 N86 1.244 . S
Tb88 C90 2.809 . S
Tb88 O108 2.484 . S
Tb88 O109 2.440 . S
Tb88 O110 2.658 1_565 S
Tb88 O111 2.409 . S
Tb88 O112 2.378 . S
Tb88 O116 2.325 1_455 S
Tb88 O119 2.341 1_565 S
Tb89 C99 2.809 . S
Tb89 O110 2.325 1_655 S
Tb89 O113 2.341 1_545 S
Tb89 O114 2.484 . S
Tb89 O115 2.440 . S
Tb89 O116 2.658 1_545 S
Tb89 O117 2.409 . S
Tb89 O118 2.378 . S
C90 Tb88 2.809 . S
C90 C91 1.514 1_556 S
C90 O108 1.248 . S
C90 O109 1.266 . S
C91 C90 1.514 1_554 S
C91 C92 1.359 . S
C91 C96 1.348 . S
C92 C91 1.359 . S
C92 C93 1.380 . S
C92 H120 0.929 1_455 S
C93 C92 1.380 . S
C93 C94 1.347 . S
C93 H121 0.931 1_455 S
C94 C93 1.347 . S
C94 C95 1.369 . S
C95 C94 1.369 . S
C95 C96 1.408 . S
C95 H122 0.930 . S
C96 C91 1.348 . S
C96 C95 1.408 . S
C96 H123 0.930 1_554 S
C97 O110 1.281 1_565 S
C97 O111 1.254 . S
C98 O112 1.236 1_655 S
C98 O113 1.266 . S
C99 Tb89 2.809 . S
C99 C100 1.514 . S
C99 O114 1.248 . S
C99 O115 1.266 . S
C100 C99 1.514 . S
C100 C101 1.359 . S
C100 C105 1.348 . S
C101 C100 1.359 . S
C101 C102 1.380 . S
C101 H124 0.929 1_655 S
C102 C101 1.380 . S
C102 C103 1.347 . S
C102 H125 0.931 1_655 S
C103 C102 1.347 . S
C103 C104 1.369 . S
C104 C103 1.369 . S
C104 C105 1.408 . S
C104 H126 0.930 . S
C105 C100 1.348 . S
C105 C104 1.408 . S
C105 H127 0.930 . S
C106 O116 1.281 1_545 S
C106 O117 1.254 . S
C107 O118 1.236 1_455 S
C107 O119 1.266 . S
O108 Tb88 2.484 . S
O108 C90 1.248 . S
O109 Tb88 2.440 . S
O109 C90 1.266 . S
O110 Tb88 2.658 1_545 S
O110 Tb89 2.325 1_455 S
O110 C97 1.281 1_545 S
O111 Tb88 2.409 . S
O111 C97 1.254 . S
O112 Tb88 2.378 . S
O112 C98 1.236 1_455 S
O113 Tb89 2.341 1_565 S
O113 C98 1.266 . S
O114 Tb89 2.484 . S
O114 C99 1.248 . S
O115 Tb89 2.440 . S
O115 C99 1.266 . S
O116 Tb88 2.325 1_655 S
O116 Tb89 2.658 1_565 S
O116 C106 1.281 1_565 S
O117 Tb89 2.409 . S
O117 C106 1.254 . S
O118 Tb89 2.378 . S
O118 C107 1.236 1_655 S
O119 Tb88 2.341 1_545 S
O119 C107 1.266 . S
H120 C92 0.929 1_655 S
H121 C93 0.931 1_655 S
H122 C95 0.930 . S
H123 C96 0.930 1_556 S
H124 C101 0.929 1_455 S
H125 C102 0.931 1_455 S
H126 C104 0.930 . S
H127 C105 0.930 . S
Tb128 C130 2.809 . S
Tb128 O148 2.484 . S
Tb128 O149 2.440 . S
Tb128 O150 2.658 . S
Tb128 O151 2.409 . S
Tb128 O152 2.378 . S
Tb128 O156 2.325 1_545 S
Tb128 O159 2.341 . S
Tb129 C139 2.809 . S
Tb129 O150 2.325 1_565 S
Tb129 O153 2.341 . S
Tb129 O154 2.500 . S
Tb129 O155 2.440 . S
Tb129 O156 2.658 . S
Tb129 O157 2.409 . S
Tb129 O158 2.378 . S
C130 Tb128 2.809 . S
C130 C131 1.514 1_556 S
C130 O148 1.248 . S
C130 O149 1.266 . S
C131 C130 1.514 1_554 S
C131 C132 1.359 . S
C131 C136 1.348 . S
C132 C131 1.359 . S
C132 C133 1.380 . S
C132 H160 0.929 1_545 S
C133 C132 1.380 . S
C133 C134 1.347 . S
C133 H161 0.931 1_545 S
C134 C133 1.347 . S
C134 C135 1.369 . S
C135 C134 1.369 . S
C135 C136 1.408 . S
C135 H162 0.930 . S
C136 C131 1.348 . S
C136 C135 1.408 . S
C136 H163 0.930 1_554 S
C137 O150 1.281 . S
C137 O151 1.254 . S
C138 O152 1.236 1_565 S
C138 O153 1.266 . S
C139 Tb129 2.809 . S
C139 C140 1.514 . S
C139 O154 1.284 . S
C139 O155 1.266 . S
C140 C139 1.514 . S
C140 C141 1.359 . S
C140 C145 1.348 . S
C141 C140 1.359 . S
C141 C142 1.380 . S
C141 H164 0.929 1_565 S
C142 C141 1.380 . S
C142 C143 1.347 . S
C142 H165 0.931 1_565 S
C143 C142 1.347 . S
C143 C144 1.369 . S
C144 C143 1.369 . S
C144 C145 1.408 . S
C144 H166 0.930 . S
C145 C140 1.348 . S
C145 C144 1.408 . S
C145 H167 0.930 . S
C146 O156 1.281 . S
C146 O157 1.254 . S
C147 O158 1.236 1_545 S
C147 O159 1.266 . S
O148 Tb128 2.484 . S
O148 C130 1.248 . S
O149 Tb128 2.440 . S
O149 C130 1.266 . S
O150 Tb128 2.658 . S
O150 Tb129 2.325 1_545 S
O150 C137 1.281 . S
O151 Tb128 2.409 . S
O151 C137 1.254 . S
O152 Tb128 2.378 . S
O152 C138 1.236 1_545 S
O153 Tb129 2.341 . S
O153 C138 1.266 . S
O154 Tb129 2.500 . S
O154 C139 1.284 . S
O155 Tb129 2.440 . S
O155 C139 1.266 . S
O156 Tb128 2.325 1_565 S
O156 Tb129 2.658 . S
O156 C146 1.281 . S
O157 Tb129 2.409 . S
O157 C146 1.254 . S
O158 Tb129 2.378 . S
O158 C147 1.236 1_565 S
O159 Tb128 2.341 . S
O159 C147 1.266 . S
H160 C132 0.929 1_565 S
H161 C133 0.931 1_565 S
H162 C135 0.930 . S
H163 C136 0.930 1_556 S
H164 C141 0.929 1_545 S
H165 C142 0.931 1_545 S
H166 C144 0.930 . S
H167 C145 0.930 . S
Tb168 C170 2.809 . S
Tb168 O188 2.484 . S
Tb168 O189 2.440 . S
Tb168 O190 2.658 . S
Tb168 O191 2.409 . S
Tb168 O192 2.378 . S
Tb168 O196 2.325 . S
Tb168 O199 2.341 . S
Tb169 C179 2.809 . S
Tb169 O190 2.325 . S
Tb169 O193 2.341 . S
Tb169 O194 2.484 . S
Tb169 O195 2.440 . S
Tb169 O196 2.658 . S
Tb169 O197 2.409 . S
Tb169 O198 2.378 . S
C170 Tb168 2.809 . S
C170 C171 1.514 1_556 S
C170 O188 1.248 . S
C170 O189 1.266 . S
C171 C170 1.514 1_554 S
C171 C172 1.359 . S
C171 C176 1.348 . S
C172 C171 1.359 . S
C172 C173 1.380 . S
C172 H200 0.929 . S
C173 C172 1.380 . S
C173 C174 1.347 . S
C173 H201 0.931 . S
C174 C173 1.347 . S
C174 C175 1.369 . S
C175 C174 1.369 . S
C175 C176 1.408 . S
C175 H202 0.930 . S
C176 C171 1.348 . S
C176 C175 1.408 . S
C176 H203 0.930 1_554 S
C177 O190 1.281 . S
C177 O191 1.254 . S
C178 O192 1.236 . S
C178 O193 1.266 . S
C179 Tb169 2.809 . S
C179 C180 1.514 . S
C179 O194 1.248 . S
C179 O195 1.266 . S
C180 C179 1.514 . S
C180 C181 1.359 . S
C180 C185 1.348 . S
C181 C180 1.359 . S
C181 C182 1.380 . S
C181 H204 0.929 . S
C182 C181 1.380 . S
C182 C183 1.347 . S
C182 H205 0.931 . S
C183 C182 1.347 . S
C183 C184 1.369 . S
C184 C183 1.369 . S
C184 C185 1.408 . S
C184 H206 0.930 . S
C185 C180 1.348 . S
C185 C184 1.408 . S
C185 H207 0.930 . S
C186 O196 1.281 . S
C186 O197 1.254 . S
C187 O198 1.236 . S
C187 O199 1.266 . S
O188 Tb168 2.484 . S
O188 C170 1.248 . S
O189 Tb168 2.440 . S
O189 C170 1.266 . S
O190 Tb168 2.658 . S
O190 Tb169 2.325 . S
O190 C177 1.281 . S
O191 Tb168 2.409 . S
O191 C177 1.254 . S
O192 Tb168 2.378 . S
O192 C178 1.236 . S
O193 Tb169 2.341 . S
O193 C178 1.266 . S
O194 Tb169 2.484 . S
O194 C179 1.248 . S
O195 Tb169 2.440 . S
O195 C179 1.266 . S
O196 Tb168 2.325 . S
O196 Tb169 2.658 . S
O196 C186 1.281 . S
O197 Tb169 2.409 . S
O197 C186 1.254 . S
O198 Tb169 2.378 . S
O198 C187 1.236 . S
O199 Tb168 2.341 . S
O199 C187 1.266 . S
H200 C172 0.929 . S
H201 C173 0.931 . S
H202 C175 0.930 . S
H203 C176 0.930 1_556 S
H204 C181 0.929 . S
H205 C182 0.931 . S
H206 C184 0.930 . S
H207 C185 0.930 . S
Tb208 C210 2.809 . S
Tb208 O228 2.484 . S
Tb208 O229 2.440 . S
Tb208 O230 2.658 1_655 S
Tb208 O231 2.409 . S
Tb208 O232 2.378 . S
Tb208 O236 2.325 . S
Tb208 O239 2.341 1_655 S
Tb209 C219 2.809 . S
Tb209 O230 2.325 . S
Tb209 O233 2.341 1_455 S
Tb209 O234 2.484 . S
Tb209 O235 2.440 . S
Tb209 O236 2.658 1_455 S
Tb209 O237 2.409 . S
Tb209 O238 2.378 . S
C210 Tb208 2.809 . S
C210 C211 1.514 1_556 S
C210 O228 1.248 . S
C210 O229 1.266 . S
C211 C210 1.514 1_554 S
C211 C212 1.359 . S
C211 C216 1.348 . S
C212 C211 1.359 . S
C212 C213 1.380 . S
C212 H240 0.929 . S
C213 C212 1.380 . S
C213 C214 1.347 . S
C213 H241 0.931 . S
C214 C213 1.347 . S
C214 C215 1.369 . S
C215 C214 1.369 . S
C215 C216 1.408 . S
C215 H242 0.930 . S
C216 C211 1.348 . S
C216 C215 1.408 . S
C216 H243 0.930 1_554 S
C217 O230 1.273 1_655 S
C217 O231 1.264 . S
C218 O232 1.236 . S
C218 O233 1.266 . S
C219 Tb209 2.809 . S
C219 C220 1.514 . S
C219 O234 1.248 . S
C219 O235 1.266 . S
C220 C219 1.514 . S
C220 C221 1.359 . S
C220 C225 1.348 . S
C221 C220 1.359 . S
C221 C222 1.380 . S
C221 H244 0.929 . S
C222 C221 1.380 . S
C222 C223 1.347 . S
C222 H245 0.931 . S
C223 C222 1.347 . S
C223 C224 1.369 . S
C224 C223 1.369 . S
C224 C225 1.408 . S
C224 H246 0.930 . S
C225 C220 1.348 . S
C225 C224 1.408 . S
C225 H247 0.930 . S
C226 O236 1.270 1_455 S
C226 O237 1.269 . S
C227 O238 1.236 . S
C227 O239 1.266 . S
O228 Tb208 2.484 . S
O228 C210 1.248 . S
O229 Tb208 2.440 . S
O229 C210 1.266 . S
O230 Tb208 2.658 1_455 S
O230 Tb209 2.325 . S
O230 C217 1.273 1_455 S
O231 Tb208 2.409 . S
O231 C217 1.264 . S
O232 Tb208 2.378 . S
O232 C218 1.236 . S
O233 Tb209 2.341 1_655 S
O233 C218 1.266 . S
O234 Tb209 2.484 . S
O234 C219 1.248 . S
O235 Tb209 2.440 . S
O235 C219 1.266 . S
O236 Tb208 2.325 . S
O236 Tb209 2.658 1_655 S
O236 C226 1.270 1_655 S
O237 Tb209 2.409 . S
O237 C226 1.269 . S
O238 Tb209 2.378 . S
O238 C227 1.236 . S
O239 Tb208 2.341 1_455 S
O239 C227 1.266 . S
H240 C212 0.929 . S
H241 C213 0.931 . S
H242 C215 0.930 . S
H243 C216 0.930 1_556 S
H244 C221 0.929 . S
H245 C222 0.931 . S
H246 C224 0.930 . S
H247 C225 0.930 . S
H248 C254 0.930 . S
H249 C258 0.930 . S
H250 C263 0.929 . S
H251 C261 0.929 . S
H252 C256 0.929 . S
H253 C262 0.929 . S
C254 H248 0.930 . S
C254 C255 1.384 . S
C254 C262 1.378 . S
C255 C254 1.384 . S
C255 C263 1.416 1_545 S
C256 H252 0.929 . S
C256 C258 1.378 . S
C256 C260 1.366 . S
C257 C260 1.461 1_545 S
C257 C262 1.375 . S
C257 N265 1.402 1_545 S
C258 H249 0.930 . S
C258 C256 1.378 . S
C258 C259 1.374 . S
C259 C258 1.374 . S
C259 C261 1.426 1_565 S
C260 C256 1.366 . S
C260 C257 1.461 1_565 S
C260 N264 1.411 1_565 S
C261 H251 0.929 . S
C261 C259 1.426 1_545 S
C261 N264 1.384 . S
C262 H253 0.929 . S
C262 C254 1.378 . S
C262 C257 1.375 . S
C263 H250 0.929 . S
C263 C255 1.416 1_565 S
C263 N265 1.384 . S
N264 C260 1.411 1_545 S
N264 C261 1.384 . S
N265 C257 1.402 1_565 S
N265 C263 1.384 . S
H266 C272 0.930 . S
H267 C276 0.930 . S
H268 C281 0.929 . S
H269 C279 0.929 . S
H270 C274 0.929 . S
H271 C280 0.929 . S
C272 H266 0.930 . S
C272 C273 1.367 . S
C272 C280 1.378 . S
C273 C272 1.367 . S
C273 C281 1.433 . S
C274 H270 0.929 . S
C274 C276 1.378 . S
C274 C278 1.350 . S
C275 C278 1.463 . S
C275 C280 1.350 . S
C275 N283 1.427 . S
C276 H267 0.930 . S
C276 C274 1.378 . S
C276 C277 1.367 . S
C277 C276 1.367 . S
C277 C279 1.433 . S
C278 C274 1.350 . S
C278 C275 1.463 . S
C278 N282 1.427 . S
C279 H269 0.929 . S
C279 C277 1.433 . S
C279 N282 1.384 . S
C280 H271 0.929 . S
C280 C272 1.378 . S
C280 C275 1.350 . S
C281 H268 0.929 . S
C281 C273 1.433 . S
C281 N283 1.384 . S
N282 C278 1.427 . S
N282 C279 1.384 . S
N283 C275 1.427 . S
N283 C281 1.384 . S
H284 C290 0.930 . S
H285 C294 0.930 . S
H286 C299 0.929 . S
H287 C297 0.929 . S
H288 C292 0.929 . S
H289 C298 0.929 . S
C290 H284 0.930 . S
C290 C291 1.367 . S
C290 C298 1.378 . S
C291 C290 1.367 . S
C291 C299 1.433 . S
C292 H288 0.929 . S
C292 C294 1.378 . S
C292 C296 1.350 . S
C293 C296 1.463 . S
C293 C298 1.350 . S
C293 N301 1.427 . S
C294 H285 0.930 . S
C294 C292 1.378 . S
C294 C295 1.367 . S
C295 C294 1.367 . S
C295 C297 1.433 . S
C296 C292 1.350 . S
C296 C293 1.463 . S
C296 N300 1.427 . S
C297 H287 0.929 . S
C297 C295 1.433 . S
C297 N300 1.384 . S
C298 H289 0.929 . S
C298 C290 1.378 . S
C298 C293 1.350 . S
C299 H286 0.929 . S
C299 C291 1.433 . S
C299 N301 1.384 . S
N300 C296 1.427 . S
N300 C297 1.384 . S
N301 C293 1.427 . S
N301 C299 1.384 . S
H302 C308 0.930 . S
H303 C312 0.930 . S
H304 C317 0.929 . S
H305 C315 0.929 . S
H306 C310 0.929 . S
H307 C316 0.929 . S
C308 H302 0.930 . S
C308 C309 1.397 . S
C308 C316 1.378 . S
C309 C308 1.397 . S
C309 C317 1.403 1_455 S
C310 H306 0.929 . S
C310 C312 1.378 . S
C310 C314 1.349 . S
C311 C314 1.463 1_455 S
C311 C316 1.350 . S
C311 N319 1.427 1_455 S
C312 H303 0.930 . S
C312 C310 1.378 . S
C312 C313 1.351 1_655 S
C313 C312 1.351 1_455 S
C313 C315 1.449 . S
C314 C310 1.349 . S
C314 C311 1.463 1_655 S
C314 N318 1.428 1_655 S
C315 H305 0.929 . S
C315 C313 1.449 . S
C315 N318 1.384 . S
C316 H307 0.929 . S
C316 C308 1.378 . S
C316 C311 1.350 . S
C317 H304 0.929 . S
C317 C309 1.403 1_655 S
C317 N319 1.384 . S
N318 C314 1.428 1_455 S
N318 C315 1.384 . S
N319 C311 1.427 1_655 S
N319 C317 1.384 . S
H320 C326 0.930 . S
H321 C330 0.930 . S
H322 C335 0.929 . S
H323 C333 0.929 . S
H324 C328 0.929 . S
H325 C334 0.929 . S
C326 H320 0.930 . S
C326 C327 1.383 . S
C326 C334 1.378 . S
C327 C326 1.383 . S
C327 C335 1.417 1_545 S
C328 H324 0.929 . S
C328 C330 1.378 1_554 S
C328 C332 1.367 . S
C329 C332 1.461 1_545 S
C329 C334 1.373 . S
C329 N337 1.404 1_545 S
C330 H321 0.930 . S
C330 C328 1.378 1_556 S
C330 C331 1.377 . S
C331 C330 1.377 . S
C331 C333 1.423 1_566 S
C332 C328 1.367 . S
C332 C329 1.461 1_565 S
C332 N336 1.410 1_565 S
C333 H323 0.929 . S
C333 C331 1.423 1_544 S
C333 N336 1.384 . S
C334 H325 0.929 . S
C334 C326 1.378 . S
C334 C329 1.373 . S
C335 H322 0.929 . S
C335 C327 1.417 1_565 S
C335 N337 1.384 . S
N336 C332 1.410 1_545 S
N336 C333 1.384 . S
N337 C329 1.404 1_565 S
N337 C335 1.384 . S
H338 C344 0.930 . S
H339 C348 0.930 . S
H340 C353 0.929 . S
H341 C351 0.929 . S
H342 C346 0.929 . S
H343 C352 0.929 . S
C344 H338 0.930 . S
C344 C345 1.367 . S
C344 C352 1.378 . S
C345 C344 1.367 . S
C345 C353 1.433 . S
C346 H342 0.929 . S
C346 C348 1.378 . S
C346 C350 1.350 . S
C347 C350 1.463 . S
C347 C352 1.350 . S
C347 N355 1.427 . S
C348 H339 0.930 . S
C348 C346 1.378 . S
C348 C349 1.367 1_554 S
C349 C348 1.367 1_556 S
C349 C351 1.433 . S
C350 C346 1.350 . S
C350 C347 1.463 . S
C350 N354 1.427 . S
C351 H341 0.929 . S
C351 C349 1.433 . S
C351 N354 1.384 1_556 S
C352 H343 0.929 . S
C352 C344 1.378 . S
C352 C347 1.350 . S
C353 H340 0.929 . S
C353 C345 1.433 . S
C353 N355 1.384 . S
N354 C350 1.427 . S
N354 C351 1.384 1_554 S
N355 C347 1.427 . S
N355 C353 1.384 . S
H356 C362 0.930 . S
H357 C366 0.930 . S
H358 C371 0.929 . S
H359 C369 0.929 . S
H360 C364 0.929 . S
H361 C370 0.929 . S
C362 H356 0.930 . S
C362 C363 1.367 . S
C362 C370 1.378 . S
C363 C362 1.367 . S
C363 C371 1.433 . S
C364 H360 0.929 . S
C364 C366 1.378 . S
C364 C368 1.350 . S
C365 C368 1.463 . S
C365 C370 1.350 . S
C365 N373 1.427 . S
C366 H357 0.930 . S
C366 C364 1.378 . S
C366 C367 1.367 1_554 S
C367 C366 1.367 1_556 S
C367 C369 1.433 . S
C368 C364 1.350 . S
C368 C365 1.463 . S
C368 N372 1.427 . S
C369 H359 0.929 . S
C369 C367 1.433 . S
C369 N372 1.384 1_556 S
C370 H361 0.929 . S
C370 C362 1.378 . S
C370 C365 1.350 . S
C371 H358 0.929 . S
C371 C363 1.433 . S
C371 N373 1.384 . S
N372 C368 1.427 . S
N372 C369 1.384 1_554 S
N373 C365 1.427 . S
N373 C371 1.384 . S
H374 C380 0.930 . S
H375 C384 0.930 . S
H376 C389 0.929 . S
H377 C387 0.929 . S
H378 C382 0.929 . S
H379 C388 0.929 . S
C380 H374 0.930 . S
C380 C381 1.367 1_455 S
C380 C388 1.378 . S
C381 C380 1.367 1_655 S
C381 C389 1.433 . S
C382 H378 0.929 . S
C382 C384 1.378 . S
C382 C386 1.358 . S
C383 C386 1.462 . S
C383 C388 1.347 1_655 S
C383 N391 1.430 . S
C384 H375 0.930 . S
C384 C382 1.378 . S
C384 C385 1.367 1_554 S
C385 C384 1.367 1_556 S
C385 C387 1.433 1_655 S
C386 C382 1.358 . S
C386 C383 1.462 . S
C386 N390 1.420 1_654 S
C387 H377 0.929 . S
C387 C385 1.433 1_455 S
C387 N390 1.384 . S
C388 H379 0.929 . S
C388 C380 1.378 . S
C388 C383 1.347 1_455 S
C389 H376 0.929 . S
C389 C381 1.433 . S
C389 N391 1.384 . S
N390 C386 1.420 1_456 S
N390 C387 1.384 . S
N391 C383 1.430 . S
N391 C389 1.384 . S
H392 C398 0.930 . S
H393 C402 0.930 . S
H394 C407 0.929 . S
H395 C405 0.929 . S
H396 C400 0.929 . S
H397 C406 0.929 . S
C398 H392 0.930 . S
C398 C399 1.367 . S
C398 C406 1.378 1_455 S
C399 C398 1.367 . S
C399 C407 1.433 1_455 S
C400 H396 0.929 . S
C400 C402 1.378 . S
C400 C404 1.350 . S
C401 C404 1.463 . S
C401 C406 1.350 . S
C401 N409 1.427 . S
C402 H393 0.930 . S
C402 C400 1.378 . S
C402 C403 1.367 . S
C403 C402 1.367 . S
C403 C405 1.433 . S
C404 C400 1.350 . S
C404 C401 1.463 . S
C404 N408 1.427 . S
C405 H395 0.929 . S
C405 C403 1.433 . S
C405 N408 1.384 . S
C406 H397 0.929 . S
C406 C398 1.378 1_655 S
C406 C401 1.350 . S
C407 H394 0.929 . S
C407 C399 1.433 1_655 S
C407 N409 1.384 . S
N408 C404 1.427 . S
N408 C405 1.384 . S
N409 C401 1.427 . S
N409 C407 1.384 . S
H410 C416 0.930 . S
H411 C420 0.930 . S
H412 C425 0.929 . S
H413 C423 0.929 . S
H414 C418 0.929 . S
H415 C424 0.929 . S
C416 H410 0.930 . S
C416 C417 1.367 1_565 S
C416 C424 1.378 . S
C417 C416 1.367 1_545 S
C417 C425 1.433 . S
C418 H414 0.929 . S
C418 C420 1.378 . S
C418 C422 1.350 . S
C419 C422 1.463 . S
C419 C424 1.350 . S
C419 N427 1.415 1_565 S
C420 H411 0.930 . S
C420 C418 1.378 . S
C420 C421 1.367 . S
C421 C420 1.367 . S
C421 C423 1.433 . S
C422 C418 1.350 . S
C422 C419 1.463 . S
C422 N426 1.427 . S
C423 H413 0.929 . S
C423 C421 1.433 . S
C423 N426 1.384 . S
C424 H415 0.929 . S
C424 C416 1.378 . S
C424 C419 1.350 . S
C425 H412 0.929 . S
C425 C417 1.433 . S
C425 N427 1.391 . S
N426 C422 1.427 . S
N426 C423 1.384 . S
N427 C419 1.415 1_545 S
N427 C425 1.391 . S
H428 C434 0.930 . S
H429 C438 0.930 . S
H430 C443 0.929 . S
H431 C441 0.929 . S
H432 C436 0.929 . S
H433 C442 0.929 . S
C434 H428 0.930 . S
C434 C435 1.367 . S
C434 C442 1.378 . S
C435 C434 1.367 . S
C435 C443 1.433 . S
C436 H432 0.929 . S
C436 C438 1.378 . S
C436 C440 1.350 . S
C437 C440 1.463 . S
C437 C442 1.350 . S
C437 N445 1.427 . S
C438 H429 0.930 . S
C438 C436 1.378 . S
C438 C439 1.367 . S
C439 C438 1.367 . S
C439 C441 1.433 . S
C440 C436 1.350 . S
C440 C437 1.463 . S
C440 N444 1.427 . S
C441 H431 0.929 . S
C441 C439 1.433 . S
C441 N444 1.384 . S
C442 H433 0.929 . S
C442 C434 1.378 . S
C442 C437 1.350 . S
C443 H430 0.929 . S
C443 C435 1.433 . S
C443 N445 1.384 . S
N444 C440 1.427 . S
N444 C441 1.384 . S
N445 C437 1.427 . S
N445 C443 1.384 . S
H446 C452 0.930 . S
H447 C456 0.930 . S
H448 C461 0.929 . S
H449 C459 0.929 . S
H450 C454 0.929 . S
H451 C460 0.929 . S
C452 H446 0.930 . S
C452 C453 1.367 . S
C452 C460 1.378 . S
C453 C452 1.367 . S
C453 C461 1.433 . S
C454 H450 0.929 . S
C454 C456 1.378 . S
C454 C458 1.350 . S
C455 C458 1.463 . S
C455 C460 1.350 . S
C455 N463 1.427 . S
C456 H447 0.930 . S
C456 C454 1.378 . S
C456 C457 1.367 . S
C457 C456 1.367 . S
C457 C459 1.433 . S
C458 C454 1.350 . S
C458 C455 1.463 . S
C458 N462 1.427 . S
C459 H449 0.929 . S
C459 C457 1.433 . S
C459 N462 1.384 . S
C460 H451 0.929 . S
C460 C452 1.378 . S
C460 C455 1.350 . S
C461 H448 0.929 . S
C461 C453 1.433 . S
C461 N463 1.384 . S
N462 C458 1.427 . S
N462 C459 1.384 . S
N463 C455 1.427 . S
N463 C461 1.384 . S
H464 C470 0.930 . S
H465 C474 0.930 . S
H466 C479 0.929 . S
H467 C477 0.929 1_655 S
H468 C472 0.929 . S
H469 C478 0.929 . S
C470 H464 0.930 . S
C470 C471 1.367 . S
C470 C478 1.378 . S
C471 C470 1.367 . S
C471 C479 1.433 1_655 S
C472 H468 0.929 . S
C472 C474 1.378 . S
C472 C476 1.350 . S
C473 C476 1.463 . S
C473 C478 1.350 1_455 S
C473 N481 1.427 . S
C474 H465 0.930 . S
C474 C472 1.378 . S
C474 C475 1.367 . S
C475 C474 1.367 . S
C475 C477 1.433 . S
C476 C472 1.350 . S
C476 C473 1.463 . S
C476 N480 1.427 . S
C477 H467 0.929 1_455 S
C477 C475 1.433 . S
C477 N480 1.384 . S
C478 H469 0.929 . S
C478 C470 1.378 . S
C478 C473 1.350 1_655 S
C479 H466 0.929 . S
C479 C471 1.433 1_455 S
C479 N481 1.384 . S
N480 C476 1.427 . S
N480 C477 1.384 . S
N481 C473 1.427 . S
N481 C479 1.384 . S
H482 C488 0.930 . S
H483 C492 0.930 . S
H484 C497 0.929 . S
H485 C495 0.929 . S
H486 C490 0.929 . S
H487 C496 0.929 . S
C488 H482 0.930 . S
C488 C489 1.367 . S
C488 C496 1.378 . S
C489 C488 1.367 . S
C489 C497 1.433 1_565 S
C490 H486 0.929 . S
C490 C492 1.378 . S
C490 C494 1.350 . S
C491 C494 1.463 . S
C491 C496 1.350 1_545 S
C491 N499 1.427 . S
C492 H483 0.930 . S
C492 C490 1.378 . S
C492 C493 1.367 . S
C493 C492 1.367 . S
C493 C495 1.433 . S
C494 C490 1.350 . S
C494 C491 1.463 . S
C494 N498 1.427 . S
C495 H485 0.929 . S
C495 C493 1.433 . S
C495 N498 1.384 . S
C496 H487 0.929 . S
C496 C488 1.378 . S
C496 C491 1.350 1_565 S
C497 H484 0.929 . S
C497 C489 1.433 1_545 S
C497 N499 1.384 . S
N498 C494 1.427 . S
N498 C495 1.384 . S
N499 C491 1.427 . S
N499 C497 1.384 . S
H500 C506 0.930 . S
H501 C510 0.930 . S
H502 C515 0.929 . S
H503 C513 0.929 . S
H504 C508 0.929 . S
H505 C514 0.929 . S
C506 H500 0.930 . S
C506 C507 1.367 . S
C506 C514 1.378 . S
C507 C506 1.367 . S
C507 C515 1.433 . S
C508 H504 0.929 . S
C508 C510 1.378 . S
C508 C512 1.350 . S
C509 C512 1.463 . S
C509 C514 1.350 . S
C509 N517 1.427 . S
C510 H501 0.930 . S
C510 C508 1.378 . S
C510 C511 1.367 . S
C511 C510 1.367 . S
C511 C513 1.433 . S
C512 C508 1.350 . S
C512 C509 1.463 . S
C512 N516 1.427 . S
C513 H503 0.929 . S
C513 C511 1.433 . S
C513 N516 1.384 . S
C514 H505 0.929 . S
C514 C506 1.378 . S
C514 C509 1.350 . S
C515 H502 0.929 . S
C515 C507 1.433 . S
C515 N517 1.384 . S
N516 C512 1.427 . S
N516 C513 1.384 . S
N517 C509 1.427 . S
N517 C515 1.384 . S
H518 C524 0.930 . S
H519 C528 0.930 . S
H520 C533 0.929 . S
H521 C531 0.929 . S
H522 C526 0.929 . S
H523 C532 0.929 . S
C524 H518 0.930 . S
C524 C525 1.367 . S
C524 C532 1.378 . S
C525 C524 1.367 . S
C525 C533 1.433 . S
C526 H522 0.929 . S
C526 C528 1.378 . S
C526 C530 1.350 . S
C527 C530 1.463 . S
C527 C532 1.350 . S
C527 N535 1.427 . S
C528 H519 0.930 . S
C528 C526 1.378 . S
C528 C529 1.367 . S
C529 C528 1.367 . S
C529 C531 1.433 . S
C530 C526 1.350 . S
C530 C527 1.463 . S
C530 N534 1.427 . S
C531 H521 0.929 . S
C531 C529 1.433 . S
C531 N534 1.384 . S
C532 H523 0.929 . S
C532 C524 1.378 . S
C532 C527 1.350 . S
C533 H520 0.929 . S
C533 C525 1.433 . S
C533 N535 1.384 . S
N534 C530 1.427 . S
N534 C531 1.384 . S
N535 C527 1.427 . S
N535 C533 1.384 . S
H536 C542 0.930 1_554 S
H537 C546 0.930 . S
H538 C551 0.929 . S
H539 C549 0.929 . S
H540 C544 0.931 . S
H541 C550 0.929 1_554 S
C542 H536 0.930 1_556 S
C542 C543 1.367 . S
C542 C550 1.378 . S
C543 C542 1.367 . S
C543 C551 1.433 1_455 S
C544 H540 0.931 . S
C544 C546 1.378 . S
C544 C548 1.350 . S
C545 C548 1.463 . S
C545 C550 1.350 . S
C545 N553 1.429 . S
C546 H537 0.930 . S
C546 C544 1.378 . S
C546 C547 1.367 . S
C547 C546 1.367 . S
C547 C549 1.433 . S
C548 C544 1.350 . S
C548 C545 1.463 . S
C548 N552 1.427 . S
C549 H539 0.929 . S
C549 C547 1.433 . S
C549 N552 1.384 . S
C550 H541 0.929 1_556 S
C550 C542 1.378 . S
C550 C545 1.350 . S
C551 H538 0.929 . S
C551 C543 1.433 1_655 S
C551 N553 1.383 1_655 S
N552 C548 1.427 . S
N552 C549 1.384 . S
N553 C545 1.429 . S
N553 C551 1.383 1_455 S
H554 C560 0.930 1_554 S
H555 C564 0.930 . S
H556 C569 0.936 . S
H557 C567 0.929 . S
H558 C562 0.929 . S
H559 C568 0.929 1_554 S
C560 H554 0.930 1_556 S
C560 C561 1.367 . S
C560 C568 1.378 . S
C561 C560 1.367 . S
C561 C569 1.430 1_545 S
C562 H558 0.929 . S
C562 C564 1.378 . S
C562 C566 1.350 . S
C563 C566 1.463 . S
C563 C568 1.350 . S
C563 N571 1.433 . S
C564 H555 0.930 . S
C564 C562 1.378 . S
C564 C565 1.367 . S
C565 C564 1.367 . S
C565 C567 1.433 . S
C566 C562 1.350 . S
C566 C563 1.463 . S
C566 N570 1.427 . S
C567 H557 0.929 . S
C567 C565 1.433 . S
C567 N570 1.384 . S
C568 H559 0.929 1_556 S
C568 C560 1.378 . S
C568 C563 1.350 . S
C569 H556 0.936 . S
C569 C561 1.430 1_565 S
C569 N571 1.381 1_565 S
N570 C566 1.427 . S
N570 C567 1.384 . S
N571 C563 1.433 . S
N571 C569 1.381 1_545 S
H572 C578 0.930 . S
H573 C582 0.930 . S
H574 C587 0.929 . S
H575 C585 0.929 . S
H576 C580 0.929 . S
H577 C586 0.929 . S
C578 H572 0.930 . S
C578 C579 1.367 . S
C578 C586 1.378 . S
C579 C578 1.367 . S
C579 C587 1.433 . S
C580 H576 0.929 . S
C580 C582 1.378 . S
C580 C584 1.350 . S
C581 C584 1.463 . S
C581 C586 1.350 . S
C581 N589 1.427 . S
C582 H573 0.930 . S
C582 C580 1.378 . S
C582 C583 1.367 . S
C583 C582 1.367 . S
C583 C585 1.433 . S
C584 C580 1.350 . S
C584 C581 1.463 . S
C584 N588 1.427 . S
C585 H575 0.929 . S
C585 C583 1.433 . S
C585 N588 1.384 . S
C586 H577 0.929 . S
C586 C578 1.378 . S
C586 C581 1.350 . S
C587 H574 0.929 . S
C587 C579 1.433 . S
C587 N589 1.384 . S
N588 C584 1.427 . S
N588 C585 1.384 . S
N589 C581 1.427 . S
N589 C587 1.384 . S
H590 C596 0.930 . S
H591 C600 0.930 . S
H592 C605 0.929 1_554 S
H593 C603 0.929 . S
H594 C598 0.929 . S
H595 C604 0.929 . S
C596 H590 0.930 . S
C596 C597 1.367 . S
C596 C604 1.378 . S
C597 C596 1.367 . S
C597 C605 1.433 . S
C598 H594 0.929 . S
C598 C600 1.378 . S
C598 C602 1.350 . S
C599 C602 1.463 . S
C599 C604 1.350 . S
C599 N607 1.427 . S
C600 H591 0.930 . S
C600 C598 1.378 . S
C600 C601 1.367 . S
C601 C600 1.367 . S
C601 C603 1.433 . S
C602 C598 1.350 . S
C602 C599 1.463 . S
C602 N606 1.427 . S
C603 H593 0.929 . S
C603 C601 1.433 . S
C603 N606 1.384 . S
C604 H595 0.929 . S
C604 C596 1.378 . S
C604 C599 1.350 . S
C605 H592 0.929 1_556 S
C605 C597 1.433 . S
C605 N607 1.384 . S
N606 C602 1.427 . S
N606 C603 1.384 . S
N607 C599 1.427 . S
N607 C605 1.384 . S
H608 C614 0.929 1_455 S
H609 C618 0.930 . S
H610 C623 0.929 . S
H611 C621 0.929 . S
H612 C616 0.929 . S
H613 C622 0.931 . S
C614 H608 0.929 1_655 S
C614 C615 1.367 . S
C614 C622 1.378 . S
C615 C614 1.367 . S
C615 C623 1.433 . S
C616 H612 0.929 . S
C616 C618 1.378 . S
C616 C620 1.350 . S
C617 C620 1.463 . S
C617 C622 1.350 . S
C617 N625 1.427 . S
C618 H609 0.930 . S
C618 C616 1.378 . S
C618 C619 1.367 . S
C619 C618 1.367 . S
C619 C621 1.433 . S
C620 C616 1.350 . S
C620 C617 1.463 . S
C620 N624 1.427 . S
C621 H611 0.929 . S
C621 C619 1.433 . S
C621 N624 1.384 . S
C622 H613 0.931 . S
C622 C614 1.378 . S
C622 C617 1.350 . S
C623 H610 0.929 . S
C623 C615 1.433 . S
C623 N625 1.384 . S
N624 C620 1.427 . S
N624 C621 1.384 . S
N625 C617 1.427 . S
N625 C623 1.384 . S
H626 C632 0.930 . S
H627 C636 0.930 . S
H628 C641 0.929 . S
H629 C639 0.929 . S
H630 C634 0.929 . S
H631 C640 0.929 . S
C632 H626 0.930 . S
C632 C633 1.367 1_545 S
C632 C640 1.378 . S
C633 C632 1.367 1_565 S
C633 C641 1.433 . S
C634 H630 0.929 . S
C634 C636 1.378 . S
C634 C638 1.350 . S
C635 C638 1.463 . S
C635 C640 1.350 1_565 S
C635 N643 1.427 . S
C636 H627 0.930 . S
C636 C634 1.378 . S
C636 C637 1.367 . S
C637 C636 1.367 . S
C637 C639 1.433 1_565 S
C638 C634 1.350 . S
C638 C635 1.463 . S
C638 N642 1.427 1_565 S
C639 H629 0.929 . S
C639 C637 1.433 1_545 S
C639 N642 1.384 . S
C640 H631 0.929 . S
C640 C632 1.378 . S
C640 C635 1.350 1_545 S
C641 H628 0.929 . S
C641 C633 1.433 . S
C641 N643 1.384 . S
N642 C638 1.427 1_545 S
N642 C639 1.384 . S
N643 C635 1.427 . S
N643 C641 1.384 . S
H644 C650 0.930 . S
H645 C654 0.930 . S
H646 C659 0.929 . S
H647 C657 0.929 . S
H648 C652 0.929 . S
H649 C658 0.929 . S
C650 H644 0.930 . S
C650 C651 1.367 . S
C650 C658 1.378 . S
C651 C650 1.367 . S
C651 C659 1.433 . S
C652 H648 0.929 . S
C652 C654 1.378 . S
C652 C656 1.350 . S
C653 C656 1.463 . S
C653 C658 1.350 . S
C653 N661 1.427 . S
C654 H645 0.930 . S
C654 C652 1.378 . S
C654 C655 1.367 . S
C655 C654 1.367 . S
C655 C657 1.433 . S
C656 C652 1.350 . S
C656 C653 1.463 . S
C656 N660 1.427 . S
C657 H647 0.929 . S
C657 C655 1.433 . S
C657 N660 1.384 . S
C658 H649 0.929 . S
C658 C650 1.378 . S
C658 C653 1.350 . S
C659 H646 0.929 . S
C659 C651 1.433 . S
C659 N661 1.384 . S
N660 C656 1.427 . S
N660 C657 1.384 . S
N661 C653 1.427 . S
N661 C659 1.384 . S
H662 C668 0.930 . S
H663 C672 0.930 . S
H664 C677 0.929 . S
H665 C675 0.929 . S
H666 C670 0.929 . S
H667 C676 0.929 . S
C668 H662 0.930 . S
C668 C669 1.367 . S
C668 C676 1.378 . S
C669 C668 1.367 . S
C669 C677 1.433 . S
C670 H666 0.929 . S
C670 C672 1.378 . S
C670 C674 1.350 . S
C671 C674 1.463 . S
C671 C676 1.350 . S
C671 N679 1.427 . S
C672 H663 0.930 . S
C672 C670 1.378 . S
C672 C673 1.367 . S
C673 C672 1.367 . S
C673 C675 1.433 . S
C674 C670 1.350 . S
C674 C671 1.463 . S
C674 N678 1.427 . S
C675 H665 0.929 . S
C675 C673 1.433 . S
C675 N678 1.384 . S
C676 H667 0.929 . S
C676 C668 1.378 . S
C676 C671 1.350 . S
C677 H664 0.929 . S
C677 C669 1.433 . S
C677 N679 1.384 . S
N678 C674 1.427 . S
N678 C675 1.384 . S
N679 C671 1.427 . S
N679 C677 1.384 . S
C255 C76 1.822 1_545 S
C259 C97 1.950 . S
C277 C137 1.969 . S
C273 C87 1.838 . S
C295 C177 1.977 . S
C291 C54 1.848 . S
C313 C217 1.962 1_455 S
C309 C65 1.830 1_455 S
C331 C106 1.954 1_565 S
C327 C32 1.827 1_545 S
C345 C43 1.825 . S
C349 C146 1.974 . S
C363 C10 1.836 . S
C367 C186 1.979 . S
C381 C21 1.821 . S
C385 C226 1.965 1_655 S
C403 C103 0.490 . S
C399 C60 0.486 . S
C421 C143 0.491 . S
C417 C71 0.495 . S
C439 C183 0.502 . S
C435 C82 0.533 . S
C453 C49 0.485 . S
C457 C223 0.483 . S
C471 C16 0.513 1_655 S
C475 C94 0.503 . S
C493 C134 0.505 . S
C489 C27 0.503 1_565 S
C511 C174 0.508 . S
C507 C38 0.510 . S
C525 C5 0.511 . S
C529 C214 0.481 . S
C543 C59 2.052 . S
C547 C107 2.297 . S
C561 C70 2.014 . S
C565 C147 2.262 . S
C583 C187 2.247 . S
C579 C81 2.008 . S
C601 C227 2.285 . S
C597 C48 2.044 . S
C615 C15 2.071 1_655 S
C619 C98 2.310 . S
C637 C138 2.266 . S
C633 C26 2.020 1_565 S
C655 C178 2.245 . S
C651 C37 2.015 . S
C669 C4 2.044 . S
C673 C218 2.293 . S
