# Generated by pormake.
# Topology apo, (3,6)-cn, num edge types: 1
# Building blocks:
#     Node 0, Type 0, BuildingBlock: QEWDON_clean_linker_0, # of connection points: 3
#     Node 1, Type 0, BuildingBlock: QEWDON_clean_linker_0, # of connection points: 3
#     Node 2, Type 0, BuildingBlock: QEWDON_clean_linker_0, # of connection points: 3
#     Node 3, Type 0, BuildingBlock: QEWDON_clean_linker_0, # of connection points: 3
#     Node 4, Type 0, BuildingBlock: QEWDON_clean_linker_0, # of connection points: 3
#     Node 5, Type 0, BuildingBlock: QEWDON_clean_linker_0, # of connection points: 3
#     Node 6, Type 0, BuildingBlock: QEWDON_clean_linker_0, # of connection points: 3
#     Node 7, Type 0, BuildingBlock: QEWDON_clean_linker_0, # of connection points: 3
#     Node 8, Type 1, BuildingBlock: MIDCAF_clean_sbu_0, # of connection points: 6
#     Node 9, Type 1, BuildingBlock: MIDCAF_clean_sbu_0, # of connection points: 6
#     Node 10, Type 1, BuildingBlock: MIDCAF_clean_sbu_0, # of connection points: 6
#     Node 11, Type 1, BuildingBlock: MIDCAF_clean_sbu_0, # of connection points: 6
#     Edge 12, Type (0, 1), BuildingBlock: ZUJKAS_clean_linker_0, # of connection points: 2
#     Edge 13, Type (0, 1), BuildingBlock: ZUJKAS_clean_linker_0, # of connection points: 2
#     Edge 14, Type (0, 1), BuildingBlock: ZUJKAS_clean_linker_0, # of connection points: 2
#     Edge 15, Type (0, 1), BuildingBlock: ZUJKAS_clean_linker_0, # of connection points: 2
#     Edge 16, Type (0, 1), BuildingBlock: ZUJKAS_clean_linker_0, # of connection points: 2
#     Edge 17, Type (0, 1), BuildingBlock: ZUJKAS_clean_linker_0, # of connection points: 2
#     Edge 18, Type (0, 1), BuildingBlock: ZUJKAS_clean_linker_0, # of connection points: 2
#     Edge 19, Type (0, 1), BuildingBlock: ZUJKAS_clean_linker_0, # of connection points: 2
#     Edge 20, Type (0, 1), BuildingBlock: ZUJKAS_clean_linker_0, # of connection points: 2
#     Edge 21, Type (0, 1), BuildingBlock: ZUJKAS_clean_linker_0, # of connection points: 2
#     Edge 22, Type (0, 1), BuildingBlock: ZUJKAS_clean_linker_0, # of connection points: 2
#     Edge 23, Type (0, 1), BuildingBlock: ZUJKAS_clean_linker_0, # of connection points: 2
#     Edge 24, Type (0, 1), BuildingBlock: ZUJKAS_clean_linker_0, # of connection points: 2
#     Edge 25, Type (0, 1), BuildingBlock: ZUJKAS_clean_linker_0, # of connection points: 2
#     Edge 26, Type (0, 1), BuildingBlock: ZUJKAS_clean_linker_0, # of connection points: 2
#     Edge 27, Type (0, 1), BuildingBlock: ZUJKAS_clean_linker_0, # of connection points: 2
#     Edge 28, Type (0, 1), BuildingBlock: ZUJKAS_clean_linker_0, # of connection points: 2
#     Edge 29, Type (0, 1), BuildingBlock: ZUJKAS_clean_linker_0, # of connection points: 2
#     Edge 30, Type (0, 1), BuildingBlock: ZUJKAS_clean_linker_0, # of connection points: 2
#     Edge 31, Type (0, 1), BuildingBlock: ZUJKAS_clean_linker_0, # of connection points: 2
#     Edge 32, Type (0, 1), BuildingBlock: ZUJKAS_clean_linker_0, # of connection points: 2
#     Edge 33, Type (0, 1), BuildingBlock: ZUJKAS_clean_linker_0, # of connection points: 2
#     Edge 34, Type (0, 1), BuildingBlock: ZUJKAS_clean_linker_0, # of connection points: 2
#     Edge 35, Type (0, 1), BuildingBlock: ZUJKAS_clean_linker_0, # of connection points: 2
# Relax obj value: 0.009
# Max RMSD: 0.115
# Mean RMSD: 0.096
data_MOF--net-apo--node1-MIDCAF_clean_sbu_0--node2-QEWDON_clean_linker_0--edge1-ZUJKAS_clean_linker_0
_symmetry_space_group_name_H-M    P1
_symmetry_Int_Tables_number       1
_symmetry_cell_setting            triclinic
loop_
_symmetry_equiv_pos_as_xyz
'x, y, z'
_cell_length_a     49.728477
_cell_length_b     54.645585
_cell_length_c     45.084919
_cell_angle_alpha  89.931945
_cell_angle_beta   90.032535
_cell_angle_gamma 90.231529
loop_
_atom_site_label
_atom_site_type_symbol
_atom_site_fract_x
_atom_site_fract_y
_atom_site_fract_z
_atom_type_partial_charge
H0 H 0.30947 0.36463 0.36507 0.0
C1 C 0.31738 0.3594 0.38657 0.0
C2 C 0.34379 0.36607 0.39465 0.0
C3 C 0.30042 0.34751 0.40688 0.0
H4 H 0.37316 0.36548 0.42999 0.0
C5 C 0.35331 0.35957 0.42302 0.0
C6 C 0.33657 0.34751 0.44355 0.0
C7 C 0.31013 0.34157 0.43522 0.0
C8 C 0.27137 0.345 0.40061 0.0
H9 H 0.29675 0.33288 0.45107 0.0
C10 C 0.26143 0.32812 0.37963 0.0
C11 C 0.23343 0.32544 0.37544 0.0
C12 C 0.25332 0.3596 0.41659 0.0
H13 H 0.26065 0.37272 0.43272 0.0
C14 C 0.22574 0.3575 0.41188 0.0
H15 H 0.27529 0.31657 0.36755 0.0
C16 C 0.21582 0.34052 0.39156 0.0
H17 H 0.19426 0.33914 0.38846 0.0
H18 H 0.21198 0.36893 0.42419 0.0
H19 H 0.19084 0.13675 0.85165 0.0
C20 C 0.18577 0.14442 0.87309 0.0
C21 C 0.15986 0.14094 0.88482 0.0
C22 C 0.20589 0.15633 0.88957 0.0
H23 H 0.1345 0.14696 0.92285 0.0
C24 C 0.15426 0.14993 0.91338 0.0
C25 C 0.1743 0.16147 0.93054 0.0
C26 C 0.20009 0.16486 0.91825 0.0
C27 C 0.23387 0.15623 0.87843 0.0
H28 H 0.21592 0.17322 0.93135 0.0
C29 C 0.24701 0.17787 0.86932 0.0
C30 C 0.27353 0.17694 0.85814 0.0
C31 C 0.24732 0.13378 0.87635 0.0
H32 H 0.23749 0.11696 0.88318 0.0
C33 C 0.27351 0.1328 0.86551 0.0
H34 H 0.23664 0.19523 0.87086 0.0
C35 C 0.28654 0.15416 0.85644 0.0
H36 H 0.30674 0.15278 0.84761 0.0
H37 H 0.28371 0.11539 0.86395 0.0
H38 H 0.81295 0.14395 0.65619 0.0
C39 C 0.82027 0.14862 0.63426 0.0
C40 C 0.84624 0.14143 0.62539 0.0
C41 C 0.8029 0.16034 0.61423 0.0
H42 H 0.87449 0.14116 0.58898 0.0
C43 C 0.855 0.14739 0.59655 0.0
C44 C 0.83799 0.15939 0.57636 0.0
C45 C 0.81187 0.16564 0.58537 0.0
C46 C 0.77414 0.16341 0.62176 0.0
H47 H 0.79825 0.17422 0.56975 0.0
C48 C 0.76567 0.17905 0.64477 0.0
C49 C 0.7381 0.18088 0.65186 0.0
C50 C 0.75494 0.14977 0.60594 0.0
H51 H 0.76108 0.13758 0.58827 0.0
C52 C 0.72776 0.15138 0.61307 0.0
H53 H 0.78038 0.18972 0.65698 0.0
C54 C 0.71936 0.16676 0.63586 0.0
H55 H 0.69805 0.168 0.64059 0.0
H56 H 0.71312 0.14073 0.6008 0.0
H57 H 0.70264 0.36908 0.16286 0.0
C58 C 0.69603 0.36268 0.14129 0.0
C59 C 0.66976 0.3677 0.13139 0.0
C60 C 0.71437 0.3506 0.12283 0.0
H61 H 0.64232 0.36472 0.09449 0.0
C62 C 0.66201 0.35986 0.10289 0.0
C63 C 0.68021 0.34782 0.08406 0.0
C64 C 0.70639 0.34317 0.09435 0.0
C65 C 0.74308 0.34974 0.13099 0.0
H66 H 0.72092 0.33453 0.07987 0.0
C67 C 0.75393 0.33009 0.14727 0.0
C68 C 0.78177 0.3293 0.15311 0.0
C69 C 0.75999 0.36873 0.12129 0.0
H70 H 0.75191 0.38395 0.10875 0.0
C71 C 0.78744 0.36814 0.12745 0.0
H72 H 0.74097 0.31526 0.15457 0.0
C73 C 0.79833 0.34852 0.14309 0.0
H74 H 0.81976 0.34833 0.14743 0.0
H75 H 0.80037 0.38285 0.11984 0.0
H76 H 0.66196 0.68124 0.67261 0.0
C77 C 0.66162 0.67942 0.64868 0.0
C78 C 0.65235 0.65756 0.63562 0.0
C79 C 0.6693 0.69939 0.63092 0.0
H80 H 0.64377 0.63933 0.59422 0.0
C81 C 0.65174 0.65575 0.60449 0.0
C82 C 0.65937 0.67557 0.58641 0.0
C83 C 0.66797 0.69742 0.59987 0.0
C84 C 0.67558 0.7233 0.64467 0.0
H85 H 0.67338 0.71303 0.58623 0.0
C86 C 0.69904 0.72691 0.66171 0.0
C87 C 0.7045 0.74997 0.67455 0.0
C88 C 0.65763 0.74275 0.64062 0.0
H89 H 0.6395 0.74029 0.6276 0.0
C90 C 0.66276 0.76545 0.65354 0.0
H91 H 0.71298 0.71192 0.66476 0.0
C92 C 0.68598 0.76908 0.67035 0.0
H93 H 0.68975 0.7871 0.6795 0.0
H94 H 0.64879 0.78035 0.65031 0.0
H95 H 0.8594 0.82739 0.1793 0.0
C96 C 0.85893 0.82796 0.15527 0.0
C97 C 0.86804 0.84894 0.14017 0.0
C98 C 0.85024 0.80725 0.13953 0.0
H99 H 0.87528 0.8649 0.09706 0.0
C100 C 0.8675 0.84915 0.10897 0.0
C101 C 0.85912 0.82844 0.0929 0.0
C102 C 0.85064 0.80744 0.10839 0.0
C103 C 0.84438 0.7844 0.15578 0.0
H104 H 0.84486 0.79112 0.09627 0.0
C105 C 0.81885 0.77984 0.16815 0.0
C106 C 0.81425 0.75847 0.18502 0.0
C107 C 0.86514 0.76747 0.16002 0.0
H108 H 0.8849 0.77079 0.15071 0.0
C109 C 0.86066 0.74631 0.17663 0.0
H110 H 0.80282 0.79297 0.16498 0.0
C111 C 0.83546 0.74184 0.18915 0.0
H112 H 0.83242 0.72513 0.20167 0.0
H113 H 0.87679 0.73333 0.17984 0.0
H114 H 0.16351 0.82892 0.34944 0.0
C115 C 0.16335 0.83043 0.37342 0.0
C116 C 0.15391 0.85193 0.38701 0.0
C117 C 0.17151 0.81039 0.39067 0.0
H118 H 0.14584 0.86953 0.42898 0.0
C119 C 0.15378 0.85337 0.4182 0.0
C120 C 0.16184 0.83342 0.43572 0.0
C121 C 0.17048 0.8119 0.42174 0.0
C122 C 0.17835 0.78689 0.3764 0.0
H123 H 0.17622 0.7962 0.43502 0.0
C124 C 0.20232 0.78405 0.36017 0.0
C125 C 0.20887 0.76119 0.34753 0.0
C126 C 0.16073 0.76697 0.37958 0.0
H127 H 0.14221 0.76886 0.39201 0.0
C128 C 0.16681 0.7445 0.36673 0.0
H129 H 0.21591 0.79948 0.35779 0.0
C130 C 0.19069 0.74154 0.35094 0.0
H131 H 0.19523 0.7236 0.34213 0.0
H132 H 0.15314 0.72919 0.36936 0.0
H133 H 0.36395 0.67851 0.84306 0.0
C134 C 0.36033 0.67784 0.86676 0.0
C135 C 0.36871 0.65742 0.88332 0.0
C136 C 0.3488 0.6982 0.88079 0.0
H137 H 0.37134 0.642 0.92736 0.0
C138 C 0.3648 0.65751 0.91424 0.0
C139 C 0.35401 0.67801 0.9287 0.0
C140 C 0.34587 0.69831 0.91178 0.0
C141 C 0.34383 0.72068 0.86342 0.0
H142 H 0.33827 0.7145 0.92278 0.0
C143 C 0.31758 0.72833 0.85626 0.0
C144 C 0.31359 0.74975 0.83926 0.0
C145 C 0.36596 0.7344 0.8535 0.0
H146 H 0.38626 0.7287 0.85874 0.0
C147 C 0.36211 0.75558 0.83684 0.0
H148 H 0.30046 0.71772 0.86388 0.0
C149 C 0.33618 0.76323 0.82974 0.0
H150 H 0.33381 0.77955 0.81634 0.0
H151 H 0.3793 0.76606 0.82925 0.0
Zn152 Zn 0.03604 0.1186 0.30719 0.0
Zn153 Zn 0.99019 0.11699 0.20375 0.0
Zn154 Zn 0.01277 0.119 0.25575 0.0
C155 C 0.03831 0.14179 0.19499 0.0
C156 C 0.99491 0.06896 0.2207 0.0
O157 O 0.98482 0.13699 0.28802 0.0
O158 O 0.0083 0.13633 0.32966 0.0
C159 C 0.07049 0.1446 0.2702 0.0
O160 O 0.04029 0.13737 0.22306 0.0
O161 O 0.01758 0.13515 0.18095 0.0
O162 O 0.98762 0.08122 0.19841 0.0
O163 O 1.00481 0.07993 0.24362 0.0
O164 O 0.06906 0.1365 0.29637 0.0
O165 O 0.05136 0.14004 0.2516 0.0
O166 O 0.02115 0.0802 0.26909 0.0
O167 O 0.03911 0.08308 0.31381 0.0
C168 C 0.03148 0.07004 0.29231 0.0
O169 O 0.97398 0.13943 0.25917 0.0
O170 O 0.95701 0.1346 0.21422 0.0
C171 C 0.98705 0.14187 0.31594 0.0
C172 C 0.95511 0.14328 0.24006 0.0
Zn173 Zn 0.53498 0.38915 0.71158 0.0
Zn174 Zn 0.4893 0.39002 0.81524 0.0
Zn175 Zn 0.51172 0.38815 0.76308 0.0
C176 C 0.49531 0.43808 0.79909 0.0
C177 C 0.45311 0.36521 0.77869 0.0
O178 O 0.55012 0.36692 0.76657 0.0
O179 O 0.56819 0.37155 0.72212 0.0
C180 C 0.53053 0.43751 0.72686 0.0
O181 O 0.50431 0.42718 0.77573 0.0
O182 O 0.48849 0.42573 0.82153 0.0
O183 O 0.45501 0.374 0.80448 0.0
O184 O 0.47241 0.36821 0.75988 0.0
O185 O 0.53782 0.42474 0.70503 0.0
O186 O 0.52042 0.42704 0.75003 0.0
O187 O 0.48368 0.36988 0.7312 0.0
O188 O 0.50711 0.37085 0.68957 0.0
C189 C 0.48599 0.36488 0.70335 0.0
O190 O 0.53908 0.36949 0.7952 0.0
O191 O 0.51613 0.37056 0.83718 0.0
C192 C 0.56935 0.36281 0.748 0.0
C193 C 0.5369 0.36434 0.82304 0.0
Zn194 Zn 0.02581 0.89005 0.81439 0.0
Zn195 Zn 0.98911 0.8814 0.70552 0.0
Zn196 Zn 1.00693 0.8858 0.76033 0.0
C197 C 0.98755 0.93132 0.71935 0.0
C198 C 0.95381 0.85468 0.74132 0.0
O199 O 0.04742 0.86792 0.7619 0.0
O200 O 0.06132 0.87497 0.80772 0.0
C201 C 0.01839 0.93753 0.79421 0.0
O202 O 0.99737 0.92306 0.74386 0.0
O203 O 0.98219 0.91681 0.69835 0.0
O204 O 0.95878 0.85919 0.71442 0.0
O205 O 0.96889 0.86371 0.76195 0.0
O206 O 0.02454 0.92618 0.81763 0.0
O207 O 0.01136 0.92553 0.7708 0.0
O208 O 0.97798 0.86747 0.79123 0.0
O209 O 0.99804 0.87049 0.83497 0.0
C210 C 0.97849 0.86326 0.8194 0.0
O211 O 0.03868 0.86805 0.73235 0.0
O212 O 0.02085 0.86638 0.68737 0.0
C213 C 0.06547 0.86598 0.78237 0.0
C214 C 0.04028 0.86232 0.70462 0.0
Zn215 Zn 0.52339 0.61988 0.20009 0.0
Zn216 Zn 0.48875 0.62328 0.3067 0.0
Zn217 Zn 0.50647 0.62129 0.25471 0.0
C218 C 0.54158 0.63582 0.31221 0.0
C219 C 0.47948 0.57588 0.28825 0.0
O220 O 0.47662 0.64037 0.22528 0.0
O221 O 0.49492 0.63895 0.18056 0.0
C222 C 0.56383 0.64327 0.23295 0.0
O223 O 0.5386 0.63714 0.28382 0.0
O224 O 0.52296 0.62738 0.32824 0.0
O225 O 0.47048 0.59087 0.30701 0.0
O226 O 0.49604 0.58319 0.2681 0.0
O227 O 0.55836 0.63613 0.20701 0.0
O228 O 0.54689 0.6395 0.25417 0.0
O229 O 0.51142 0.5821 0.24206 0.0
O230 O 0.52353 0.58384 0.19487 0.0
C231 C 0.51835 0.57137 0.21776 0.0
O232 O 0.46936 0.64444 0.25495 0.0
O233 O 0.46599 0.65263 0.30274 0.0
C234 C 0.47589 0.64534 0.19727 0.0
C235 C 0.45838 0.65635 0.27645 0.0
H236 H 0.16013 0.90138 0.39467 0.0
H237 H 0.13636 0.93424 0.36891 0.0
H238 H 0.09732 0.88119 0.3126 0.0
H239 H 0.12037 0.84811 0.33887 0.0
H240 H 0.13438 0.94819 0.3088 0.0
H241 H 0.03415 0.91811 0.35031 0.0
H242 H 0.06518 0.90653 0.36551 0.0
H243 H 0.05323 0.89568 0.33029 0.0
C244 C 0.14651 0.89668 0.37679 0.0
C245 C 0.14202 0.87208 0.36903 0.0
C246 C 0.13306 0.9155 0.36196 0.0
C247 C 0.11475 0.91015 0.33914 0.0
C248 C 0.11103 0.88571 0.33046 0.0
H249 H 0.04512 0.03867 0.24717 0.0
H250 H 0.06208 0.99668 0.25267 0.0
C251 C 0.12449 0.86685 0.34529 0.0
C252 C 0.09891 0.93022 0.32547 0.0
H253 H 0.03557 0.95411 0.32187 0.0
C254 C 0.11272 0.94935 0.31122 0.0
C255 C 0.07066 0.9317 0.32882 0.0
C256 C 0.05484 0.91205 0.34473 0.0
C257 C 0.09921 0.97034 0.30124 0.0
C258 C 0.07105 0.97212 0.30529 0.0
C259 C 0.05709 0.95256 0.31849 0.0
C260 C 0.0566 0.9955 0.3003 0.0
C261 C 0.11539 0.99109 0.28804 0.0
C262 C 0.04657 0.00817 0.32491 0.0
C263 C 0.03673 0.03189 0.32178 0.0
C264 C 0.03649 0.04341 0.29391 0.0
C265 C 0.04481 0.03015 0.26886 0.0
C266 C 0.05478 0.00629 0.27204 0.0
H267 H 0.13739 0.98819 0.29038 0.0
H268 H 0.11067 0.99272 0.26406 0.0
H269 H 0.1101 0.00868 0.29883 0.0
H270 H 0.04769 1.0002 0.3469 0.0
H271 H 0.03037 0.04164 0.34146 0.0
H272 H 0.41257 0.63272 0.90444 0.0
H273 H 0.43685 0.59929 0.88115 0.0
H274 H 0.38428 0.60314 0.8052 0.0
H275 H 0.35885 0.63597 0.82913 0.0
H276 H 0.39144 0.55684 0.82265 0.0
H277 H 0.4911 0.60128 0.81538 0.0
H278 H 0.4786 0.60196 0.85264 0.0
H279 H 0.46094 0.61818 0.82381 0.0
C280 C 0.40588 0.62635 0.88293 0.0
C281 C 0.38356 0.63701 0.86879 0.0
C282 C 0.42019 0.60749 0.86934 0.0
C283 C 0.41287 0.59907 0.84106 0.0
C284 C 0.39054 0.60954 0.82687 0.0
H285 H 0.47837 0.46725 0.75334 0.0
H286 H 0.46049 0.50901 0.7576 0.0
C287 C 0.37607 0.62838 0.84054 0.0
C288 C 0.4276 0.5783 0.82737 0.0
H289 H 0.49087 0.55693 0.8133 0.0
C290 C 0.41311 0.55706 0.81995 0.0
C291 C 0.4559 0.5786 0.82362 0.0
C292 C 0.47247 0.60135 0.82899 0.0
C293 C 0.42629 0.53568 0.81078 0.0
C294 C 0.45467 0.53557 0.80886 0.0
C295 C 0.4691 0.55709 0.81487 0.0
C296 C 0.46958 0.51246 0.80435 0.0
C297 C 0.40994 0.51288 0.80481 0.0
C298 C 0.48156 0.50111 0.82888 0.0
C299 C 0.49164 0.4774 0.82653 0.0
C300 C 0.49024 0.4647 0.79949 0.0
C301 C 0.47997 0.47673 0.77435 0.0
C302 C 0.4696 0.50047 0.7768 0.0
H303 H 0.38821 0.51551 0.80945 0.0
H304 H 0.41224 0.50754 0.78121 0.0
H305 H 0.41742 0.4975 0.81863 0.0
H306 H 0.48173 0.51008 0.8503 0.0
H307 H 0.49944 0.46856 0.84624 0.0
H308 H 0.65975 0.60828 0.62868 0.0
H309 H 0.63633 0.57505 0.65436 0.0
H310 H 0.59625 0.62749 0.71019 0.0
H311 H 0.61899 0.66096 0.68393 0.0
H312 H 0.63375 0.56069 0.71391 0.0
H313 H 0.53371 0.59002 0.6717 0.0
H314 H 0.56478 0.60218 0.65709 0.0
H315 H 0.55245 0.61244 0.69236 0.0
C316 C 0.64602 0.61277 0.64648 0.0
C317 C 0.64106 0.63731 0.65402 0.0
C318 C 0.63275 0.59374 0.66126 0.0
C319 C 0.61418 0.5988 0.68386 0.0
C320 C 0.61014 0.62319 0.69248 0.0
H321 H 0.54466 0.46821 0.77257 0.0
H322 H 0.56172 0.51034 0.76803 0.0
C323 C 0.62342 0.64228 0.67767 0.0
C324 C 0.59833 0.57844 0.69716 0.0
H325 H 0.53513 0.55367 0.69942 0.0
C326 C 0.61212 0.55929 0.71119 0.0
C327 C 0.57011 0.57663 0.69339 0.0
C328 C 0.5543 0.59627 0.67765 0.0
C329 C 0.59867 0.53795 0.72051 0.0
C330 C 0.57056 0.53587 0.71604 0.0
C331 C 0.5566 0.55544 0.70309 0.0
C332 C 0.55619 0.51225 0.72044 0.0
C333 C 0.61489 0.51723 0.73343 0.0
C334 C 0.54608 0.4999 0.69554 0.0
C335 C 0.53612 0.4761 0.69815 0.0
C336 C 0.53582 0.46416 0.72577 0.0
C337 C 0.54432 0.47706 0.75108 0.0
C338 C 0.55438 0.501 0.74844 0.0
H339 H 0.63689 0.52037 0.73121 0.0
H340 H 0.61015 0.5153 0.75737 0.0
H341 H 0.60968 0.4997 0.72236 0.0
H342 H 0.54718 0.50822 0.67374 0.0
H343 H 0.52967 0.46663 0.67826 0.0
H344 H 0.90328 0.84687 0.18679 0.0
H345 H 0.9267 0.88094 0.21093 0.0
H346 H 0.8855 0.93192 0.15392 0.0
H347 H 0.86149 0.89804 0.13021 0.0
H348 H 0.96119 0.91351 0.18364 0.0
H349 H 0.87667 0.96321 0.23542 0.0
H350 H 0.87358 0.93203 0.22257 0.0
H351 H 0.87091 0.95711 0.19684 0.0
C352 C 0.89869 0.86538 0.17989 0.0
C353 C 0.88039 0.86974 0.15665 0.0
C354 C 0.91225 0.88481 0.19357 0.0
C355 C 0.90763 0.909 0.1845 0.0
C356 C 0.88902 0.91345 0.1617 0.0
H357 H 0.99699 0.03844 0.1735 0.0
H358 H 0.97948 0.99676 0.17045 0.0
C359 C 0.87549 0.89405 0.14796 0.0
C360 C 0.9236 0.92948 0.19721 0.0
H361 H 0.91751 0.98627 0.22791 0.0
C362 C 0.95168 0.92924 0.1938 0.0
C363 C 0.91131 0.94982 0.21097 0.0
C364 C 0.88148 0.9505 0.21697 0.0
C365 C 0.96755 0.94945 0.20203 0.0
C366 C 0.95497 0.97053 0.21362 0.0
C367 C 0.92713 0.97016 0.21882 0.0
C368 C 0.9696 0.99408 0.21708 0.0
C369 C 0.99757 0.94832 0.19756 0.0
C370 C 0.97023 0.00638 0.24444 0.0
C371 C 0.98037 0.03031 0.24625 0.0
C372 C 0.98967 0.04233 0.22063 0.0
C373 C 0.99008 0.02956 0.19362 0.0
C374 C 0.98021 0.00568 0.19188 0.0
H375 H 1.00485 0.92913 0.1979 0.0
H376 H 1.00267 0.95628 0.17561 0.0
H377 H 0.0084 0.95891 0.2149 0.0
H378 H 0.96193 0.99781 0.26411 0.0
H379 H 0.97943 0.03988 0.26725 0.0
H380 H 0.90127 0.14137 0.63268 0.0
H381 H 0.92853 0.1093 0.65568 0.0
H382 H 0.85646 0.0725 0.68493 0.0
H383 H 0.82907 0.10362 0.66086 0.0
H384 H 0.93347 0.08693 0.71311 0.0
H385 H 0.89193 0.02353 0.62832 0.0
H386 H 0.88751 0.05622 0.6262 0.0
H387 H 0.86688 0.03818 0.6507 0.0
C388 C 0.89119 0.12655 0.64419 0.0
C389 C 0.86289 0.12495 0.6444 0.0
C390 C 0.90683 0.10836 0.65758 0.0
C391 C 0.89451 0.08828 0.67153 0.0
C392 C 0.86638 0.08766 0.67389 0.0
H393 H 0.96753 0.96288 0.76098 0.0
H394 H 0.94794 1.00331 0.75165 0.0
C395 C 0.85072 0.10568 0.66032 0.0
C396 C 0.91074 0.06675 0.68058 0.0
H397 H 0.91974 0.00627 0.665 0.0
C398 C 0.93055 0.06926 0.70264 0.0
C399 C 0.9072 0.04383 0.66651 0.0
C400 C 0.88743 0.04023 0.64142 0.0
C401 C 0.94667 0.0493 0.71126 0.0
C402 C 0.9426 0.02626 0.69761 0.0
C403 C 0.92286 0.0239 0.67551 0.0
C404 C 0.95865 1.00416 0.70509 0.0
C405 C 0.96821 0.05315 0.73437 0.0
C406 C 0.97158 0.99132 0.68225 0.0
C407 C 0.98235 0.96818 0.68745 0.0
C408 C 0.98074 0.95745 0.7157 0.0
C409 C 0.96937 0.97089 0.73909 0.0
C410 C 0.95823 0.99403 0.73377 0.0
H411 H 0.97362 0.07281 0.73667 0.0
H412 H 0.9607 0.04662 0.75617 0.0
H413 H 0.98664 0.04268 0.72888 0.0
H414 H 0.97221 0.99875 0.65996 0.0
H415 H 0.99107 0.95825 0.66905 0.0
H416 H 0.61512 0.36319 0.13915 0.0
H417 H 0.58454 0.39351 0.16054 0.0
H418 H 0.65232 0.43867 0.1847 0.0
H419 H 0.68291 0.40899 0.16266 0.0
H420 H 0.58064 0.4187 0.21898 0.0
H421 H 0.60701 0.47952 0.12437 0.0
H422 H 0.61465 0.44727 0.12459 0.0
H423 H 0.6352 0.46833 0.14525 0.0
C424 C 0.62353 0.37946 0.1493 0.0
C425 C 0.65149 0.38374 0.14888 0.0
C426 C 0.60604 0.39665 0.16172 0.0
C427 C 0.61617 0.41843 0.17389 0.0
C428 C 0.6441 0.42203 0.17523 0.0
H429 H 0.54412 0.54354 0.25896 0.0
H430 H 0.56363 0.50299 0.25081 0.0
C431 C 0.66159 0.40491 0.1628 0.0
C432 C 0.59769 0.43852 0.18217 0.0
H433 H 0.57991 0.49641 0.16201 0.0
C434 C 0.58034 0.43569 0.20654 0.0
C435 C 0.59705 0.46048 0.16556 0.0
C436 C 0.61427 0.46412 0.13832 0.0
C437 C 0.56281 0.4546 0.21515 0.0
C438 C 0.56285 0.47684 0.19904 0.0
C439 C 0.57987 0.47937 0.17438 0.0
C440 C 0.54601 0.49818 0.20726 0.0
C441 C 0.54422 0.45059 0.24113 0.0
C442 C 0.529 0.50869 0.18593 0.0
C443 C 0.51797 0.53183 0.19055 0.0
C444 C 0.52352 0.54482 0.21671 0.0
C445 C 0.53888 0.53358 0.23901 0.0
C446 C 0.55012 0.51043 0.2343 0.0
H447 H 0.54139 0.4308 0.24597 0.0
H448 H 0.55302 0.45935 0.26112 0.0
H449 H 0.52425 0.45896 0.23699 0.0
H450 H 0.52562 0.49963 0.16488 0.0
H451 H 0.50638 0.54019 0.17291 0.0
H452 H 0.39833 0.36487 0.38399 0.0
H453 H 0.42565 0.39646 0.35945 0.0
H454 H 0.35374 0.43632 0.33747 0.0
H455 H 0.32643 0.40545 0.36249 0.0
H456 H 0.42283 0.42084 0.29801 0.0
H457 H 0.40094 0.48093 0.39427 0.0
H458 H 0.39664 0.44812 0.39563 0.0
H459 H 0.37195 0.46685 0.37754 0.0
C460 C 0.38831 0.38022 0.37362 0.0
C461 C 0.36016 0.38266 0.37545 0.0
C462 C 0.40395 0.39813 0.35942 0.0
C463 C 0.39169 0.41877 0.34689 0.0
C464 C 0.36357 0.42052 0.3471 0.0
H465 H 0.42757 0.56231 0.28766 0.0
H466 H 0.40887 0.52185 0.29834 0.0
C467 C 0.34796 0.40271 0.36126 0.0
C468 C 0.40807 0.43982 0.33647 0.0
H469 H 0.42142 0.4996 0.3526 0.0
C470 C 0.4228 0.43803 0.30998 0.0
C471 C 0.40822 0.46208 0.3524 0.0
C472 C 0.39381 0.46468 0.38169 0.0
C473 C 0.43661 0.45846 0.29826 0.0
C474 C 0.43572 0.48099 0.31363 0.0
C475 C 0.42185 0.48237 0.34068 0.0
C476 C 0.4475 0.50398 0.30168 0.0
C477 C 0.45119 0.45612 0.2691 0.0
C478 C 0.47548 0.50725 0.29913 0.0
C479 C 0.48621 0.53048 0.29277 0.0
C480 C 0.46907 0.55061 0.28903 0.0
C481 C 0.44116 0.54701 0.29028 0.0
C482 C 0.43048 0.52393 0.29639 0.0
H483 H 0.44634 0.43865 0.25766 0.0
H484 H 0.44602 0.47161 0.2542 0.0
H485 H 0.4732 0.45679 0.2731 0.0
H486 H 0.48901 0.49224 0.30373 0.0
H487 H 0.50779 0.53302 0.29285 0.0
H488 H 0.125 0.10685 0.90775 0.0
H489 H 0.09418 0.08002 0.88101 0.0
H490 H 0.11852 0.11262 0.79815 0.0
H491 H 0.14907 0.14026 0.82485 0.0
H492 H 0.05033 0.09187 0.83681 0.0
H493 H 0.13554 0.03688 0.79237 0.0
H494 H 0.13967 0.05669 0.82408 0.0
H495 H 0.13623 0.06961 0.78772 0.0
C496 C 0.12341 0.10887 0.88392 0.0
C497 C 0.13959 0.12585 0.86852 0.0
C498 C 0.10583 0.09336 0.86864 0.0
C499 C 0.10416 0.09426 0.83763 0.0
C500 C 0.11967 0.11154 0.8221 0.0
H501 H 0.03409 0.96667 0.74767 0.0
H502 H 0.0499 0.00923 0.75087 0.0
C503 C 0.1372 0.12722 0.83741 0.0
C504 C 0.08743 0.0759 0.82187 0.0
H505 H 0.09215 0.02103 0.78624 0.0
C506 C 0.05938 0.0766 0.82523 0.0
C507 C 0.09926 0.05616 0.80646 0.0
C508 C 0.12932 0.05454 0.8024 0.0
C509 C 0.04298 0.05741 0.81488 0.0
C510 C 0.05503 0.03673 0.8016 0.0
C511 C 0.08289 0.03686 0.79644 0.0
C512 C 0.04017 0.01333 0.79739 0.0
C513 C 0.01296 0.05917 0.81899 0.0
C514 C 0.02874 1.00173 0.82218 0.0
C515 C 0.01973 0.97757 0.82037 0.0
C516 C 0.02196 0.96442 0.79375 0.0
C517 C 0.03177 0.97646 0.76837 0.0
C518 C 0.04095 1.00073 0.77022 0.0
H519 H 1.00628 0.07854 0.81835 0.0
H520 H 1.00194 0.04874 0.80166 0.0
H521 H 1.00746 0.05161 0.84103 0.0
H522 H 0.02846 0.01076 0.84355 0.0
H523 H 0.01235 0.96874 0.84032 0.0
H524 H 0.20611 0.15262 0.97911 0.0
H525 H 0.19365 0.15633 0.03149 0.0
H526 H 0.11688 0.18618 1.00613 0.0
H527 H 0.12945 0.18319 0.95382 0.0
H528 H 0.14016 0.20893 0.05723 0.0
H529 H 0.13898 0.1072 0.06586 0.0
H530 H 0.1699 0.12113 0.05381 0.0
H531 H 0.1406 0.12279 0.03061 0.0
C532 C 0.18685 0.16058 0.98468 0.0
C533 C 0.16866 0.16739 0.96223 0.0
C534 C 0.17966 0.16244 0.01465 0.0
C535 C 0.15413 0.17108 0.02272 0.0
C536 C 0.13662 0.17931 1.00044 0.0
H537 H 0.03328 0.17331 0.14924 0.0
H538 H 0.0673 0.18405 0.11265 0.0
C539 C 0.14378 0.17746 0.97053 0.0
C540 C 0.14457 0.16984 0.05395 0.0
H541 H 0.12349 0.12921 0.10678 0.0
C542 C 0.1369 0.19152 0.06828 0.0
C543 C 0.14048 0.14714 0.0685 0.0
C544 C 0.14771 0.12318 0.05396 0.0
C545 C 0.12429 0.19104 0.0962 0.0
C546 C 0.11872 0.16825 0.1099 0.0
C547 C 0.12783 0.14669 0.09637 0.0
C548 C 0.09996 0.16592 0.13549 0.0
C549 C 0.11652 0.21493 0.11045 0.0
C550 C 0.10692 0.15241 0.16095 0.0
C551 C 0.08728 0.14621 0.18209 0.0
C552 C 0.06038 0.15315 0.17777 0.0
C553 C 0.05389 0.16783 0.15321 0.0
C554 C 0.07341 0.17414 0.13234 0.0
H555 H 0.13053 0.22985 0.10382 0.0
H556 H 0.09608 0.22012 0.10287 0.0
H557 H 0.11637 0.21351 0.13502 0.0
H558 H 0.12721 0.14567 0.16373 0.0
H559 H 0.09275 0.13458 0.20059 0.0
H560 H 0.38514 0.32952 0.46189 0.0
H561 H 0.4019 0.32597 0.5128 0.0
H562 H 0.32628 0.35274 0.54609 0.0
H563 H 0.30951 0.35665 0.49522 0.0
H564 H 0.37184 0.37777 0.56774 0.0
H565 H 0.38362 0.27759 0.58038 0.0
H566 H 0.39841 0.28952 0.547 0.0
H567 H 0.3626 0.29113 0.55211 0.0
C568 C 0.372 0.33441 0.48007 0.0
C569 C 0.34597 0.34328 0.4745 0.0
C570 C 0.38149 0.33215 0.50916 0.0
C571 C 0.36518 0.33873 0.53327 0.0
C572 C 0.33907 0.34728 0.52783 0.0
H573 H 0.43134 0.36954 0.71174 0.0
H574 H 0.39613 0.35947 0.6754 0.0
C575 C 0.32949 0.3494 0.49875 0.0
C576 C 0.37638 0.3388 0.56382 0.0
H577 H 0.40822 0.30275 0.6147 0.0
C578 C 0.37932 0.36133 0.57837 0.0
C579 C 0.38601 0.3173 0.57761 0.0
C580 C 0.3823 0.29247 0.56363 0.0
C581 C 0.39337 0.36324 0.60533 0.0
C582 C 0.40418 0.34186 0.6185 0.0
C583 C 0.39987 0.31912 0.60472 0.0
C584 C 0.42349 0.34329 0.64367 0.0
C585 C 0.39811 0.38835 0.61831 0.0
C586 C 0.45011 0.33592 0.63893 0.0
C587 C 0.46999 0.34122 0.65976 0.0
C588 C 0.46375 0.35401 0.68589 0.0
C589 C 0.43672 0.35953 0.69193 0.0
C590 C 0.41667 0.3541 0.67096 0.0
H591 H 0.39243 0.40319 0.60267 0.0
H592 H 0.38585 0.39043 0.63869 0.0
H593 H 0.41959 0.39081 0.62443 0.0
H594 H 0.45589 0.32741 0.6182 0.0
H595 H 0.49062 0.33654 0.65458 0.0
H596 H 0.71004 0.35544 0.03369 0.0
H597 H 0.69532 0.35117 0.98211 0.0
H598 H 0.618 0.32504 0.01188 0.0
H599 H 0.63276 0.32866 0.06351 0.0
H600 H 0.63987 0.29945 0.96082 0.0
H601 H 0.64083 0.40088 0.94783 0.0
H602 H 0.67151 0.3868 0.96007 0.0
H603 H 0.64249 0.38632 0.98372 0.0
C604 C 0.69011 0.34824 0.02928 0.0
C605 C 0.6725 0.34253 0.05276 0.0
C606 C 0.68166 0.34603 0.99977 0.0
C607 C 0.65545 0.33812 0.99319 0.0
C608 C 0.63829 0.33127 0.01649 0.0
H609 H 0.53214 0.33333 0.86946 0.0
H610 H 0.56664 0.32299 0.90557 0.0
C611 C 0.64669 0.3335 0.04597 0.0
C612 C 0.64505 0.33856 0.96232 0.0
H613 H 0.6238 0.37787 0.90834 0.0
C614 C 0.6367 0.31655 0.94912 0.0
C615 C 0.64117 0.36087 0.94695 0.0
C616 C 0.64927 0.38513 0.9603 0.0
C617 C 0.62363 0.31635 0.92146 0.0
C618 C 0.61825 0.33879 0.90695 0.0
C619 C 0.628 0.36065 0.91938 0.0
C620 C 0.59915 0.34058 0.88165 0.0
C621 C 0.61522 0.29212 0.90835 0.0
C622 C 0.60587 0.35363 0.85574 0.0
C623 C 0.58596 0.35968 0.83494 0.0
C624 C 0.55904 0.35299 0.84 0.0
C625 C 0.55276 0.33864 0.86494 0.0
C626 C 0.57256 0.33253 0.88553 0.0
H627 H 0.6292 0.27734 0.91518 0.0
H628 H 0.59491 0.28721 0.91668 0.0
H629 H 0.61453 0.29289 0.88374 0.0
H630 H 0.62621 0.36023 0.85241 0.0
H631 H 0.59128 0.37106 0.81614 0.0
H632 H 0.88617 0.17772 0.55717 0.0
H633 H 0.90254 0.18065 0.50609 0.0
H634 H 0.82678 0.15261 0.47399 0.0
H635 H 0.81032 0.14946 0.52515 0.0
H636 H 0.87305 0.12759 0.4528 0.0
H637 H 0.88315 0.22775 0.43734 0.0
H638 H 0.89792 0.21674 0.47116 0.0
H639 H 0.86217 0.2143 0.4658 0.0
C640 C 0.87289 0.17244 0.53921 0.0
C641 C 0.84694 0.16341 0.54521 0.0
C642 C 0.88217 0.17433 0.51001 0.0
C643 C 0.86575 0.16717 0.48618 0.0
C644 C 0.83967 0.15849 0.49202 0.0
H645 H 0.93256 0.13493 0.30833 0.0
H646 H 0.89729 0.14417 0.34483 0.0
C647 C 0.83027 0.1568 0.52125 0.0
C648 C 0.87684 0.16673 0.45559 0.0
H649 H 0.90822 0.20247 0.40384 0.0
C650 C 0.88026 0.14398 0.44172 0.0
C651 C 0.88614 0.18815 0.44122 0.0
C652 C 0.88196 0.21316 0.45449 0.0
C653 C 0.89448 0.14186 0.4149 0.0
C654 C 0.90496 0.16321 0.40116 0.0
C655 C 0.90015 0.18612 0.41426 0.0
C656 C 0.92429 0.16177 0.376 0.0
C657 C 0.89974 0.11662 0.40269 0.0
C658 C 0.9507 0.17011 0.38038 0.0
C659 C 0.9706 0.16527 0.35946 0.0
C660 C 0.9646 0.15201 0.33357 0.0
C661 C 0.93774 0.14532 0.32797 0.0
C662 C 0.91767 0.15029 0.34901 0.0
H663 H 0.89441 0.10197 0.41879 0.0
H664 H 0.88747 0.1138 0.38241 0.0
H665 H 0.92125 0.11457 0.3966 0.0
H666 H 0.95633 0.17913 0.40087 0.0
H667 H 0.99108 0.17077 0.36433 0.0
H668 H 0.88465 0.79464 0.05854 0.0
H669 H 0.89517 0.79775 1.00557 0.0
H670 H 0.8498 0.86474 1.00018 0.0
H671 H 0.84014 0.86215 0.0534 0.0
H672 H 0.86799 0.80037 0.95355 0.0
H673 H 0.92244 0.88777 0.97341 0.0
H674 H 0.91027 0.86886 1.00331 0.0
H675 H 0.88764 0.88879 0.9837 0.0
C676 C 0.87658 0.80981 0.04591 0.0
C677 C 0.86183 0.8283 0.06009 0.0
C678 C 0.88262 0.8116 0.01565 0.0
C679 C 0.87385 0.8318 0.99899 0.0
C680 C 0.85748 0.84937 0.01272 0.0
H681 H 0.9291 0.88305 0.82614 0.0
H682 H 0.89717 0.87305 0.86585 0.0
C683 C 0.85183 0.84781 0.04307 0.0
C684 C 0.88345 0.83529 0.96798 0.0
H685 H 0.91987 0.87419 0.92409 0.0
C686 C 0.87919 0.81659 0.94706 0.0
C687 C 0.89825 0.85639 0.95947 0.0
C688 C 0.90518 0.87649 0.98119 0.0
C689 C 0.8895 0.81835 0.91804 0.0
C690 C 0.90442 0.83933 0.90978 0.0
C691 C 0.90808 0.85826 0.93039 0.0
C692 C 0.91896 0.84124 0.88111 0.0
C693 C 0.8846 0.79774 0.8965 0.0
C694 C 0.94122 0.82615 0.87581 0.0
C695 C 0.9594 0.83185 0.85315 0.0
C696 C 0.9554 0.85253 0.8352 0.0
C697 C 0.93208 0.86653 0.83902 0.0
C698 C 0.914 0.86096 0.86187 0.0
H699 H 0.86734 0.7861 0.9034 0.0
H700 H 0.88073 0.80494 0.87385 0.0
H701 H 0.90278 0.78605 0.8955 0.0
H702 H 0.9458 0.81119 0.89074 0.0
H703 H 0.97765 0.82122 0.85111 0.0
H704 H 0.63655 0.70888 0.54867 0.0
H705 H 0.62638 0.70356 0.49588 0.0
H706 H 0.66497 0.63304 0.49724 0.0
H707 H 0.67484 0.6381 0.55012 0.0
H708 H 0.65628 0.69452 0.44437 0.0
H709 H 0.5888 0.6163 0.47128 0.0
H710 H 0.60231 0.6363 0.4994 0.0
H711 H 0.62281 0.61256 0.48375 0.0
C712 C 0.64328 0.69243 0.5376 0.0
C713 C 0.65624 0.67378 0.55363 0.0
C714 C 0.63742 0.68939 0.50743 0.0
C715 C 0.64445 0.6677 0.49273 0.0
C716 C 0.6588 0.64969 0.50828 0.0
H717 H 0.58516 0.60865 0.32598 0.0
H718 H 0.61689 0.61758 0.36626 0.0
C719 C 0.66446 0.65261 0.53847 0.0
C720 C 0.63508 0.66322 0.46185 0.0
H721 H 0.59436 0.62586 0.42085 0.0
C722 C 0.64287 0.67943 0.43915 0.0
C723 C 0.61746 0.64359 0.45506 0.0
C724 C 0.60712 0.62631 0.47865 0.0
C725 C 0.63347 0.67651 0.40988 0.0
C726 C 0.61565 0.65703 0.40325 0.0
C727 C 0.6083 0.64061 0.42584 0.0
C728 C 0.60225 0.65428 0.37393 0.0
C729 C 0.64265 0.69426 0.38632 0.0
C730 C 0.58433 0.67232 0.36393 0.0
C731 C 0.56637 0.66724 0.34081 0.0
C732 C 0.56616 0.64414 0.32728 0.0
C733 C 0.58548 0.62681 0.33561 0.0
C734 C 0.60342 0.63185 0.35876 0.0
H735 H 0.66203 0.70311 0.39242 0.0
H736 H 0.64502 0.685 0.36457 0.0
H737 H 0.62737 0.70886 0.38379 0.0
H738 H 0.58258 0.68952 0.37564 0.0
H739 H 0.55111 0.68059 0.33527 0.0
H740 H 0.37781 0.71262 0.96338 0.0
H741 H 0.38715 0.70994 0.01662 0.0
H742 H 0.34086 0.64311 0.02159 0.0
H743 H 0.33255 0.64521 0.96802 0.0
H744 H 0.36039 0.70744 0.06859 0.0
H745 H 0.41287 0.61944 0.04832 0.0
H746 H 0.40093 0.63847 0.0185 0.0
H747 H 0.37797 0.61888 0.03838 0.0
C748 C 0.36917 0.69764 0.97599 0.0
C749 C 0.35467 0.679 0.9616 0.0
C750 C 0.37454 0.69609 1.00642 0.0
C751 C 0.36533 0.67597 0.02305 0.0
C752 C 0.3489 0.65842 1.00911 0.0
H753 H 0.4256 0.62612 0.19482 0.0
H754 H 0.39168 0.63578 0.15704 0.0
C755 C 0.34396 0.65971 0.97858 0.0
C756 C 0.37499 0.67236 0.05404 0.0
H757 H 0.41186 0.63356 0.09733 0.0
C758 C 0.37143 0.69118 0.07494 0.0
C759 C 0.3896 0.6512 0.0624 0.0
C760 C 0.39584 0.63095 0.0407 0.0
C761 C 0.38245 0.68956 0.10367 0.0
C762 C 0.39735 0.66861 0.11168 0.0
C763 C 0.40009 0.64947 0.09122 0.0
C764 C 0.41319 0.66711 0.13955 0.0
C765 C 0.37849 0.71037 0.12512 0.0
C766 C 0.43599 0.68207 0.14298 0.0
C767 C 0.45536 0.67649 0.16441 0.0
C768 C 0.45206 0.65609 0.18303 0.0
C769 C 0.4282 0.64236 0.1813 0.0
C770 C 0.40893 0.64776 0.15959 0.0
H771 H 0.36112 0.72197 0.11873 0.0
H772 H 0.3753 0.70338 0.148 0.0
H773 H 0.3968 0.72204 0.12525 0.0
H774 H 0.44 0.69675 0.12741 0.0
H775 H 0.47391 0.68696 0.1649 0.0
H776 H 0.13702 0.80038 0.47204 0.0
H777 H 0.12818 0.80426 0.52522 0.0
H778 H 0.17234 0.87237 0.52681 0.0
H779 H 0.18026 0.86901 0.47329 0.0
H780 H 0.15754 0.8075 0.57493 0.0
H781 H 0.10162 0.89438 0.55865 0.0
H782 H 0.11253 0.87584 0.52797 0.0
H783 H 0.13599 0.89567 0.54673 0.0
C784 C 0.14506 0.81605 0.48382 0.0
C785 C 0.15908 0.83453 0.46851 0.0
C786 C 0.14002 0.81826 0.51422 0.0
C787 C 0.14907 0.83888 0.53 0.0
C788 C 0.16443 0.85666 0.51503 0.0
H789 H 0.08985 0.88367 0.70472 0.0
H790 H 0.12465 0.87664 0.66698 0.0
C791 C 0.16907 0.85468 0.4845 0.0
C792 C 0.141 0.84222 0.56157 0.0
H793 H 0.10471 0.87947 0.60721 0.0
C794 C 0.14624 0.82338 0.58205 0.0
C795 C 0.12623 0.86294 0.57099 0.0
C796 C 0.11851 0.88326 0.54993 0.0
C797 C 0.13637 0.82435 0.61127 0.0
C798 C 0.12094 0.84467 0.62028 0.0
C799 C 0.11685 0.86403 0.60034 0.0
C800 C 0.10516 0.84473 0.64822 0.0
C801 C 0.1419 0.80336 0.6321 0.0
C802 C 0.08336 0.82852 0.65101 0.0
C803 C 0.06345 0.8327 0.6722 0.0
C804 C 0.06518 0.85295 0.69123 0.0
C805 C 0.08835 0.8677 0.69059 0.0
C806 C 0.10811 0.86378 0.66894 0.0
H807 H 0.16007 0.79302 0.6253 0.0
H808 H 0.14465 0.80997 0.6552 0.0
H809 H 0.12451 0.79057 0.6318 0.0
H810 H 0.08038 0.81399 0.635 0.0
H811 H 0.04555 0.82131 0.67204 0.0
H812 H 0.24748 0.3149 0.31773 0.0
H813 H 0.22455 0.28626 0.28379 0.0
H814 H 0.17104 0.2647 0.35446 0.0
H815 H 0.1935 0.29312 0.38803 0.0
H816 H 0.21488 0.23563 0.28551 0.0
H817 H 0.11908 0.28597 0.28943 0.0
H818 H 0.15037 0.29915 0.3022 0.0
H819 H 0.13091 0.27949 0.32617 0.0
C820 C 0.23097 0.30384 0.32597 0.0
C821 C 0.22196 0.30653 0.35537 0.0
C822 C 0.21783 0.28761 0.30657 0.0
C823 C 0.19556 0.27389 0.31637 0.0
C824 C 0.18759 0.27567 0.34613 0.0
H825 H 0.12063 0.14263 0.29306 0.0
H826 H 0.15407 0.17503 0.29307 0.0
C827 C 0.20051 0.29186 0.36533 0.0
C828 C 0.18027 0.25753 0.29608 0.0
H829 H 0.11571 0.24274 0.27778 0.0
C830 C 0.19327 0.23744 0.28318 0.0
C831 C 0.15222 0.26027 0.29203 0.0
C832 C 0.1374 0.28257 0.30291 0.0
C833 C 0.17852 0.21881 0.26893 0.0
C834 C 0.15005 0.22006 0.26829 0.0
C835 C 0.13745 0.24139 0.27856 0.0
C836 C 0.13281 0.19829 0.26206 0.0
C837 C 0.19361 0.19765 0.25555 0.0
C838 C 0.10961 0.20013 0.24424 0.0
C839 C 0.09002 0.18154 0.2446 0.0
C840 C 0.09336 0.16093 0.26287 0.0
C841 C 0.1175 0.15831 0.27874 0.0
C842 C 0.13688 0.17679 0.27849 0.0
H843 H 0.21299 0.20399 0.24592 0.0
H844 H 0.19842 0.18419 0.27321 0.0
H845 H 0.18173 0.18836 0.23797 0.0
H846 H 0.10587 0.21658 0.23151 0.0
H847 H 0.07147 0.18421 0.23245 0.0
H848 H 0.3253 0.19036 0.86998 0.0
H849 H 0.35052 0.22493 0.84964 0.0
H850 H 0.28 0.2488 0.80227 0.0
H851 H 0.25456 0.21378 0.82231 0.0
H852 H 0.3295 0.24758 0.76733 0.0
H853 H 0.34167 0.29748 0.87352 0.0
H854 H 0.35126 0.26587 0.87553 0.0
H855 H 0.31677 0.27371 0.8684 0.0
C856 C 0.31509 0.20297 0.85529 0.0
C857 C 0.28791 0.19932 0.84776 0.0
C858 C 0.32952 0.22279 0.84377 0.0
C859 C 0.31712 0.23951 0.82455 0.0
C860 C 0.28993 0.23611 0.8171 0.0
H861 H 0.4014 0.37557 0.79159 0.0
H862 H 0.36454 0.34618 0.79618 0.0
C863 C 0.27537 0.21627 0.82878 0.0
C864 C 0.33289 0.26036 0.81235 0.0
H865 H 0.3703 0.30966 0.83385 0.0
C866 C 0.33817 0.26138 0.78175 0.0
C867 C 0.34396 0.27847 0.83113 0.0
C868 C 0.33796 0.27904 0.86394 0.0
C869 C 0.35509 0.27958 0.76962 0.0
C870 C 0.36723 0.29697 0.78869 0.0
C871 C 0.36113 0.29633 0.81914 0.0
C872 C 0.38694 0.31571 0.77827 0.0
C873 C 0.35976 0.28001 0.73659 0.0
C874 C 0.41138 0.3088 0.76499 0.0
C875 C 0.43238 0.32585 0.76174 0.0
C876 C 0.42934 0.34984 0.77227 0.0
C877 C 0.40421 0.35717 0.78324 0.0
C878 C 0.38318 0.34034 0.78602 0.0
H879 H 0.34302 0.27094 0.72445 0.0
H880 H 0.36198 0.29903 0.72824 0.0
H881 H 0.37852 0.26993 0.7315 0.0
H882 H 0.41501 0.28987 0.75927 0.0
H883 H 0.4517 0.31969 0.7536 0.0
H884 H 0.74912 0.22972 0.65719 0.0
H885 H 0.7253 0.25938 0.68815 0.0
H886 H 0.68021 0.20064 0.72873 0.0
H887 H 0.70353 0.17108 0.6973 0.0
H888 H 0.64778 0.23396 0.70663 0.0
H889 H 0.72502 0.28206 0.77289 0.0
H890 H 0.73317 0.28213 0.73415 0.0
H891 H 0.73171 0.25356 0.75408 0.0
C892 C 0.73474 0.22312 0.67339 0.0
C893 C 0.7281 0.19813 0.67476 0.0
C894 C 0.72117 0.24007 0.6912 0.0
C895 C 0.70105 0.23229 0.71106 0.0
C896 C 0.69564 0.20713 0.71367 0.0
H897 H 0.56902 0.32181 0.78343 0.0
H898 H 0.60274 0.28902 0.78297 0.0
C899 C 0.70897 0.19025 0.69569 0.0
C900 C 0.68315 0.25039 0.72582 0.0
H901 H 0.68284 0.30335 0.76615 0.0
C902 C 0.6554 0.24881 0.72022 0.0
C903 C 0.69304 0.26984 0.74351 0.0
C904 C 0.72234 0.27187 0.75176 0.0
C905 C 0.63753 0.26679 0.7303 0.0
C906 C 0.64754 0.28681 0.74694 0.0
C907 C 0.67514 0.28793 0.75357 0.0
C908 C 0.63025 0.30821 0.75377 0.0
C909 C 0.60829 0.26497 0.72142 0.0
C910 C 0.63539 0.33045 0.73929 0.0
C911 C 0.61637 0.34914 0.73974 0.0
C912 C 0.59185 0.34607 0.75485 0.0
C913 C 0.58778 0.32474 0.77173 0.0
C914 C 0.60691 0.30591 0.77122 0.0
H915 H 0.60474 0.25055 0.70451 0.0
H916 H 0.596 0.26046 0.74123 0.0
H917 H 0.60111 0.2827 0.71239 0.0
H918 H 0.65327 0.33271 0.72582 0.0
H919 H 0.62013 0.36545 0.72667 0.0
H920 H 0.82193 0.30054 0.13289 0.0
H921 H 0.84636 0.26883 0.15982 0.0
H922 H 0.79557 0.2801 0.23615 0.0
H923 H 0.77035 0.31142 0.20858 0.0
H924 H 0.87558 0.27506 0.20865 0.0
H925 H 0.79534 0.20646 0.23139 0.0
H926 H 0.7908 0.23127 0.20546 0.0
H927 H 0.78886 0.23684 0.24467 0.0
C928 C 0.81571 0.29594 0.15525 0.0
C929 C 0.79426 0.30832 0.16867 0.0
C930 C 0.82972 0.2779 0.17069 0.0
C931 C 0.82283 0.27195 0.20004 0.0
C932 C 0.80099 0.28398 0.21338 0.0
H933 H 0.95212 0.18215 0.27894 0.0
H934 H 0.91729 0.21392 0.27935 0.0
C935 C 0.78663 0.30189 0.19767 0.0
C936 C 0.83965 0.25402 0.21657 0.0
H937 H 0.83882 0.19729 0.24854 0.0
C938 C 0.86752 0.25814 0.21767 0.0
C939 C 0.82908 0.23203 0.2285 0.0
C940 C 0.79942 0.22618 0.22733 0.0
C941 C 0.8853 0.24033 0.22845 0.0
C942 C 0.87486 0.21797 0.2396 0.0
C943 C 0.84682 0.21447 0.24023 0.0
C944 C 0.89265 0.19664 0.24562 0.0
C945 C 0.91516 0.24502 0.22568 0.0
C946 C 0.88926 0.17541 0.22855 0.0
C947 C 0.90863 0.15707 0.22894 0.0
C948 C 0.93199 0.15951 0.24629 0.0
C949 C 0.93431 0.1797 0.26543 0.0
C950 C 0.9146 0.19804 0.26531 0.0
H951 H 0.91967 0.26116 0.21149 0.0
H952 H 0.92374 0.24858 0.24799 0.0
H953 H 0.92549 0.22889 0.2161 0.0
H954 H 0.87247 0.17371 0.21334 0.0
H955 H 0.90609 0.14161 0.21416 0.0
H956 H 0.71065 0.77464 0.72692 0.0
H957 H 0.75269 0.78836 0.74986 0.0
H958 H 0.79785 0.75075 0.68237 0.0
H959 H 0.75581 0.73687 0.65931 0.0
H960 H 0.82058 0.74735 0.7409 0.0
H961 H 0.79616 0.84324 0.70951 0.0
H962 H 0.77135 0.82773 0.73162 0.0
H963 H 0.77812 0.81733 0.69459 0.0
C964 C 0.72955 0.76909 0.71711 0.0
C965 C 0.72989 0.75493 0.69105 0.0
C966 C 0.75355 0.77697 0.73024 0.0
C967 C 0.77839 0.77101 0.71748 0.0
C968 C 0.77888 0.75565 0.69252 0.0
H969 H 0.94182 0.81195 0.71473 0.0
H970 H 0.89921 0.78979 0.71621 0.0
C971 C 0.75485 0.74765 0.67942 0.0
C972 C 0.80372 0.78218 0.72877 0.0
H973 H 0.83704 0.83678 0.73417 0.0
C974 C 0.82411 0.76692 0.73968 0.0
C975 C 0.80827 0.80775 0.72735 0.0
C976 C 0.78746 0.82502 0.71494 0.0
C977 C 0.84912 0.77652 0.74868 0.0
C978 C 0.85402 0.80198 0.74616 0.0
C979 C 0.83324 0.8173 0.73632 0.0
C980 C 0.88132 0.81282 0.74982 0.0
C981 C 0.87013 0.75925 0.76055 0.0
C982 C 0.8857 0.83316 0.76837 0.0
C983 C 0.91023 0.84596 0.76747 0.0
C984 C 0.93057 0.83867 0.74785 0.0
C985 C 0.92656 0.81774 0.73034 0.0
C986 C 0.90224 0.80495 0.73132 0.0
H987 H 0.86069 0.74293 0.77102 0.0
H988 H 0.8828 0.75276 0.74192 0.0
H989 H 0.88332 0.76839 0.77708 0.0
H990 H 0.86971 0.83981 0.7825 0.0
H991 H 0.91251 0.86251 0.78036 0.0
H992 H 0.80253 0.74404 0.24158 0.0
H993 H 0.75943 0.72888 0.26054 0.0
H994 H 0.72246 0.74392 0.17594 0.0
H995 H 0.76543 0.75968 0.15711 0.0
H996 H 0.68846 0.75396 0.22292 0.0
H997 H 0.73378 0.66165 0.23541 0.0
H998 H 0.74998 0.68538 0.25641 0.0
H999 H 0.75082 0.68632 0.21655 0.0
C1000 C 0.7851 0.74439 0.22716 0.0
C1001 C 0.78739 0.75275 0.19774 0.0
C1002 C 0.76052 0.73565 0.23799 0.0
C1003 C 0.73786 0.73468 0.21945 0.0
C1004 C 0.7397 0.74438 0.19062 0.0
H1005 H 0.60861 0.63865 0.19959 0.0
H1006 H 0.65025 0.66185 0.20267 0.0
C1007 C 0.76424 0.75341 0.17988 0.0
C1008 C 0.71286 0.72192 0.22911 0.0
H1009 H 0.68816 0.66546 0.24745 0.0
C1010 C 0.68839 0.73468 0.22865 0.0
C1011 C 0.71279 0.6967 0.23645 0.0
C1012 C 0.73817 0.6816 0.23603 0.0
C1013 C 0.66378 0.72271 0.23428 0.0
C1014 C 0.66373 0.6974 0.24096 0.0
C1015 C 0.68829 0.68492 0.24264 0.0
C1016 C 0.63854 0.68267 0.2413 0.0
C1017 C 0.63795 0.73689 0.2314 0.0
C1018 C 0.61813 0.68625 0.26246 0.0
C1019 C 0.59396 0.67289 0.2607 0.0
C1020 C 0.58997 0.6558 0.23778 0.0
C1021 C 0.61089 0.65179 0.2174 0.0
C1022 C 0.63481 0.665 0.21917 0.0
H1023 H 0.64129 0.75554 0.22226 0.0
H1024 H 0.62358 0.72701 0.21678 0.0
H1025 H 0.62849 0.73869 0.25357 0.0
H1026 H 0.62073 0.69958 0.27999 0.0
H1027 H 0.57811 0.67658 0.27648 0.0
H1028 H 0.2189 0.7338 0.29772 0.0
H1029 H 0.26266 0.72116 0.27853 0.0
H1030 H 0.30223 0.76705 0.34301 0.0
H1031 H 0.25861 0.77891 0.36328 0.0
H1032 H 0.30853 0.74424 0.25562 0.0
H1033 H 0.32972 0.69889 0.36333 0.0
H1034 H 0.2969 0.71044 0.35386 0.0
H1035 H 0.32281 0.73098 0.36654 0.0
C1036 C 0.2369 0.74127 0.30782 0.0
C1037 C 0.23518 0.757 0.33249 0.0
C1038 C 0.26191 0.73419 0.29661 0.0
C1039 C 0.28572 0.74273 0.30975 0.0
C1040 C 0.2841 0.75984 0.33291 0.0
H1041 H 0.45163 0.7001 0.30296 0.0
H1042 H 0.41016 0.72375 0.30592 0.0
C1043 C 0.25909 0.76682 0.34428 0.0
C1044 C 0.31204 0.73216 0.30096 0.0
H1045 H 0.36482 0.69931 0.3282 0.0
C1046 C 0.32089 0.73443 0.27145 0.0
C1047 C 0.32794 0.719 0.32152 0.0
C1048 C 0.3188 0.71442 0.353 0.0
C1049 C 0.3456 0.72443 0.26223 0.0
C1050 C 0.36165 0.71175 0.28302 0.0
C1051 C 0.35261 0.7093 0.31236 0.0
C1052 C 0.388 0.70075 0.2754 0.0
C1053 C 0.3546 0.7278 0.23056 0.0
C1054 C 0.38967 0.68046 0.25633 0.0
C1055 C 0.41357 0.66695 0.25446 0.0
C1056 C 0.43593 0.67352 0.27178 0.0
C1057 C 0.43469 0.69473 0.28928 0.0
C1058 C 0.41101 0.70823 0.29101 0.0
H1059 H 0.34277 0.74212 0.21895 0.0
H1060 H 0.37625 0.73282 0.22965 0.0
H1061 H 0.35196 0.71031 0.2184 0.0
H1062 H 0.37202 0.67405 0.24454 0.0
H1063 H 0.41378 0.65029 0.24154 0.0
H1064 H 0.27146 0.72261 0.81708 0.0
H1065 H 0.2282 0.73793 0.79838 0.0
H1066 H 0.25085 0.8112 0.82384 0.0
H1067 H 0.29388 0.79614 0.84224 0.0
H1068 H 0.18668 0.76292 0.82511 0.0
H1069 H 0.23154 0.82049 0.73716 0.0
H1070 H 0.2505 0.79739 0.75665 0.0
H1071 H 0.24586 0.82723 0.77274 0.0
C1072 C 0.26704 0.74194 0.81892 0.0
C1073 C 0.28622 0.75822 0.83079 0.0
C1074 C 0.24242 0.75069 0.80806 0.0
C1075 C 0.23661 0.77583 0.80887 0.0
C1076 C 0.25523 0.79186 0.82201 0.0
H1077 H 0.11368 0.87709 0.80648 0.0
H1078 H 0.15447 0.85246 0.80619 0.0
C1079 C 0.27978 0.7832 0.83269 0.0
C1080 C 0.21101 0.78559 0.79661 0.0
H1081 H 0.18635 0.83106 0.75223 0.0
C1082 C 0.18653 0.7774 0.80863 0.0
C1083 C 0.21074 0.80431 0.77483 0.0
C1084 C 0.23607 0.81267 0.75936 0.0
C1085 C 0.16208 0.78871 0.80111 0.0
C1086 C 0.16216 0.8086 0.78102 0.0
C1087 C 0.18637 0.81582 0.76766 0.0
C1088 C 0.13825 0.82444 0.77744 0.0
C1089 C 0.13648 0.78042 0.81604 0.0
C1090 C 0.11586 0.81721 0.76048 0.0
C1091 C 0.09241 0.8315 0.76034 0.0
C1092 C 0.09111 0.85297 0.77744 0.0
C1093 C 0.11405 0.86058 0.7932 0.0
C1094 C 0.13739 0.84655 0.79305 0.0
H1095 H 0.13983 0.76482 0.83142 0.0
H1096 H 0.12766 0.79584 0.82872 0.0
H1097 H 0.12158 0.77479 0.79901 0.0
H1098 H 0.11623 0.80019 0.7482 0.0
H1099 H 0.07493 0.82508 0.74826 0.0
loop_
_geom_bond_atom_site_label_1
_geom_bond_atom_site_label_2
_geom_bond_distance
_geom_bond_site_symmetry_2
_ccdc_geom_bond_type
H0 C1 0.949 . S
C1 H0 0.949 . S
C1 C2 1.395 . S
C1 C3 1.391 . S
C2 C1 1.395 . S
C2 C5 1.390 . S
C3 C1 1.391 . S
C3 C7 1.387 . S
C3 C8 1.491 . S
H4 C5 0.950 . S
C5 C2 1.390 . S
C5 H4 0.950 . S
C5 C6 1.378 . S
C6 C5 1.378 . S
C6 C7 1.409 . S
C7 C3 1.387 . S
C7 C6 1.409 . S
C7 H9 0.951 . S
C8 C3 1.491 . S
C8 C10 1.382 . S
C8 C12 1.404 . S
H9 C7 0.951 . S
C10 C8 1.382 . S
C10 C11 1.390 . S
C10 H15 0.949 . S
C11 C10 1.390 . S
C11 C16 1.399 . S
C12 C8 1.404 . S
C12 H13 0.950 . S
C12 C14 1.375 . S
H13 C12 0.950 . S
C14 C12 1.375 . S
C14 C16 1.382 . S
C14 H18 0.950 . S
H15 C10 0.949 . S
C16 C11 1.399 . S
C16 C14 1.382 . S
C16 H17 0.952 . S
H17 C16 0.952 . S
H18 C14 0.950 . S
H19 C20 0.949 . S
C20 H19 0.949 . S
C20 C21 1.395 . S
C20 C22 1.391 . S
C21 C20 1.395 . S
C21 C24 1.390 . S
C22 C20 1.391 . S
C22 C26 1.387 . S
C22 C27 1.491 . S
H23 C24 0.950 . S
C24 C21 1.390 . S
C24 H23 0.950 . S
C24 C25 1.378 . S
C25 C24 1.378 . S
C25 C26 1.409 . S
C26 C22 1.387 . S
C26 C25 1.409 . S
C26 H28 0.951 . S
C27 C22 1.491 . S
C27 C29 1.382 . S
C27 C31 1.404 . S
H28 C26 0.951 . S
C29 C27 1.382 . S
C29 C30 1.390 . S
C29 H34 0.949 . S
C30 C29 1.390 . S
C30 C35 1.399 . S
C31 C27 1.404 . S
C31 H32 0.950 . S
C31 C33 1.375 . S
H32 C31 0.950 . S
C33 C31 1.375 . S
C33 C35 1.382 . S
C33 H37 0.950 . S
H34 C29 0.949 . S
C35 C30 1.399 . S
C35 C33 1.382 . S
C35 H36 0.952 . S
H36 C35 0.952 . S
H37 C33 0.950 . S
H38 C39 0.949 . S
C39 H38 0.949 . S
C39 C40 1.395 . S
C39 C41 1.391 . S
C40 C39 1.395 . S
C40 C43 1.390 . S
C41 C39 1.391 . S
C41 C45 1.387 . S
C41 C46 1.491 . S
H42 C43 0.950 . S
C43 C40 1.390 . S
C43 H42 0.950 . S
C43 C44 1.378 . S
C44 C43 1.378 . S
C44 C45 1.409 . S
C45 C41 1.387 . S
C45 C44 1.409 . S
C45 H47 0.951 . S
C46 C41 1.491 . S
C46 C48 1.382 . S
C46 C50 1.404 . S
H47 C45 0.951 . S
C48 C46 1.382 . S
C48 C49 1.390 . S
C48 H53 0.949 . S
C49 C48 1.390 . S
C49 C54 1.399 . S
C50 C46 1.404 . S
C50 H51 0.950 . S
C50 C52 1.375 . S
H51 C50 0.950 . S
C52 C50 1.375 . S
C52 C54 1.382 . S
C52 H56 0.950 . S
H53 C48 0.949 . S
C54 C49 1.399 . S
C54 C52 1.382 . S
C54 H55 0.952 . S
H55 C54 0.952 . S
H56 C52 0.950 . S
H57 C58 0.949 . S
C58 H57 0.949 . S
C58 C59 1.395 . S
C58 C60 1.391 . S
C59 C58 1.395 . S
C59 C62 1.390 . S
C60 C58 1.391 . S
C60 C64 1.387 . S
C60 C65 1.491 . S
H61 C62 0.950 . S
C62 C59 1.390 . S
C62 H61 0.950 . S
C62 C63 1.378 . S
C63 C62 1.378 . S
C63 C64 1.409 . S
C64 C60 1.387 . S
C64 C63 1.409 . S
C64 H66 0.951 . S
C65 C60 1.491 . S
C65 C67 1.382 . S
C65 C69 1.404 . S
H66 C64 0.951 . S
C67 C65 1.382 . S
C67 C68 1.390 . S
C67 H72 0.949 . S
C68 C67 1.390 . S
C68 C73 1.399 . S
C69 C65 1.404 . S
C69 H70 0.950 . S
C69 C71 1.375 . S
H70 C69 0.950 . S
C71 C69 1.375 . S
C71 C73 1.382 . S
C71 H75 0.950 . S
H72 C67 0.949 . S
C73 C68 1.399 . S
C73 C71 1.382 . S
C73 H74 0.952 . S
H74 C73 0.952 . S
H75 C71 0.950 . S
H76 C77 0.949 . S
C77 H76 0.949 . S
C77 C78 1.395 . S
C77 C79 1.391 . S
C78 C77 1.395 . S
C78 C81 1.390 . S
C79 C77 1.391 . S
C79 C83 1.387 . S
C79 C84 1.491 . S
H80 C81 0.950 . S
C81 C78 1.390 . S
C81 H80 0.950 . S
C81 C82 1.378 . S
C82 C81 1.378 . S
C82 C83 1.409 . S
C83 C79 1.387 . S
C83 C82 1.409 . S
C83 H85 0.951 . S
C84 C79 1.491 . S
C84 C86 1.382 . S
C84 C88 1.404 . S
H85 C83 0.951 . S
C86 C84 1.382 . S
C86 C87 1.390 . S
C86 H91 0.949 . S
C87 C86 1.390 . S
C87 C92 1.399 . S
C88 C84 1.404 . S
C88 H89 0.950 . S
C88 C90 1.375 . S
H89 C88 0.950 . S
C90 C88 1.375 . S
C90 C92 1.382 . S
C90 H94 0.950 . S
H91 C86 0.949 . S
C92 C87 1.399 . S
C92 C90 1.382 . S
C92 H93 0.952 . S
H93 C92 0.952 . S
H94 C90 0.950 . S
H95 C96 0.949 . S
C96 H95 0.949 . S
C96 C97 1.395 . S
C96 C98 1.391 . S
C97 C96 1.395 . S
C97 C100 1.390 . S
C98 C96 1.391 . S
C98 C102 1.387 . S
C98 C103 1.491 . S
H99 C100 0.950 . S
C100 C97 1.390 . S
C100 H99 0.950 . S
C100 C101 1.378 . S
C101 C100 1.378 . S
C101 C102 1.409 . S
C102 C98 1.387 . S
C102 C101 1.409 . S
C102 H104 0.951 . S
C103 C98 1.491 . S
C103 C105 1.382 . S
C103 C107 1.404 . S
H104 C102 0.951 . S
C105 C103 1.382 . S
C105 C106 1.390 . S
C105 H110 0.949 . S
C106 C105 1.390 . S
C106 C111 1.399 . S
C107 C103 1.404 . S
C107 H108 0.950 . S
C107 C109 1.375 . S
H108 C107 0.950 . S
C109 C107 1.375 . S
C109 C111 1.382 . S
C109 H113 0.950 . S
H110 C105 0.949 . S
C111 C106 1.399 . S
C111 C109 1.382 . S
C111 H112 0.952 . S
H112 C111 0.952 . S
H113 C109 0.950 . S
H114 C115 0.949 . S
C115 H114 0.949 . S
C115 C116 1.395 . S
C115 C117 1.391 . S
C116 C115 1.395 . S
C116 C119 1.390 . S
C117 C115 1.391 . S
C117 C121 1.387 . S
C117 C122 1.491 . S
H118 C119 0.950 . S
C119 C116 1.390 . S
C119 H118 0.950 . S
C119 C120 1.378 . S
C120 C119 1.378 . S
C120 C121 1.409 . S
C121 C117 1.387 . S
C121 C120 1.409 . S
C121 H123 0.951 . S
C122 C117 1.491 . S
C122 C124 1.382 . S
C122 C126 1.404 . S
H123 C121 0.951 . S
C124 C122 1.382 . S
C124 C125 1.390 . S
C124 H129 0.949 . S
C125 C124 1.390 . S
C125 C130 1.399 . S
C126 C122 1.404 . S
C126 H127 0.950 . S
C126 C128 1.375 . S
H127 C126 0.950 . S
C128 C126 1.375 . S
C128 C130 1.382 . S
C128 H132 0.950 . S
H129 C124 0.949 . S
C130 C125 1.399 . S
C130 C128 1.382 . S
C130 H131 0.952 . S
H131 C130 0.952 . S
H132 C128 0.950 . S
H133 C134 0.949 . S
C134 H133 0.949 . S
C134 C135 1.395 . S
C134 C136 1.391 . S
C135 C134 1.395 . S
C135 C138 1.390 . S
C136 C134 1.391 . S
C136 C140 1.387 . S
C136 C141 1.491 . S
H137 C138 0.950 . S
C138 C135 1.390 . S
C138 H137 0.950 . S
C138 C139 1.378 . S
C139 C138 1.378 . S
C139 C140 1.409 . S
C140 C136 1.387 . S
C140 C139 1.409 . S
C140 H142 0.951 . S
C141 C136 1.491 . S
C141 C143 1.382 . S
C141 C145 1.404 . S
H142 C140 0.951 . S
C143 C141 1.382 . S
C143 C144 1.390 . S
C143 H148 0.949 . S
C144 C143 1.390 . S
C144 C149 1.399 . S
C145 C141 1.404 . S
C145 H146 0.950 . S
C145 C147 1.375 . S
H146 C145 0.950 . S
C147 C145 1.375 . S
C147 C149 1.382 . S
C147 H151 0.950 . S
H148 C143 0.949 . S
C149 C144 1.399 . S
C149 C147 1.382 . S
C149 H150 0.952 . S
H150 C149 0.952 . S
H151 C147 0.950 . S
Zn152 O158 1.920 1_455 S
Zn152 O164 1.898 . S
Zn152 O167 1.905 . S
Zn153 O161 1.905 1_655 S
Zn153 O162 1.898 . S
Zn153 O170 1.920 . S
Zn154 O157 2.062 1_455 S
Zn154 O160 2.133 . S
Zn154 O163 2.095 1_455 S
Zn154 O165 2.142 . S
Zn154 O166 2.139 . S
Zn154 O169 2.059 1_455 S
C155 O160 1.166 . S
C155 O161 1.182 . S
C156 O162 1.167 . S
C156 O163 1.299 . S
O157 Zn154 2.062 1_655 S
O157 C171 1.305 . S
O158 Zn152 1.920 1_655 S
O158 C171 1.234 . S
C159 O164 1.167 . S
C159 O165 1.299 . S
O160 Zn154 2.133 . S
O160 C155 1.166 . S
O161 Zn153 1.905 1_455 S
O161 C155 1.182 . S
O162 Zn153 1.898 . S
O162 C156 1.167 . S
O163 Zn154 2.095 1_655 S
O163 C156 1.299 . S
O164 Zn152 1.898 . S
O164 C159 1.167 . S
O165 Zn154 2.142 . S
O165 C159 1.299 . S
O166 Zn154 2.139 . S
O166 C168 1.166 . S
O167 Zn152 1.905 . S
O167 C168 1.182 . S
C168 O166 1.166 . S
C168 O167 1.182 . S
O169 Zn154 2.059 1_655 S
O169 C172 1.305 . S
O170 Zn153 1.920 . S
O170 C172 1.234 . S
C171 O157 1.305 . S
C171 O158 1.234 . S
C172 O169 1.305 . S
C172 O170 1.234 . S
Zn173 O179 1.920 . S
Zn173 O185 1.898 . S
Zn173 O188 1.905 . S
Zn174 O182 1.905 . S
Zn174 O183 1.898 . S
Zn174 O191 1.920 . S
Zn175 O178 2.080 . S
Zn175 O181 2.114 . S
Zn175 O184 2.120 . S
Zn175 O186 2.120 . S
Zn175 O187 2.114 . S
Zn175 O190 2.080 . S
C176 O181 1.166 . S
C176 O182 1.182 . S
C177 O183 1.167 . S
C177 O184 1.299 . S
O178 Zn175 2.080 . S
O178 C192 1.305 . S
O179 Zn173 1.920 . S
O179 C192 1.234 . S
C180 O185 1.167 . S
C180 O186 1.299 . S
O181 Zn175 2.114 . S
O181 C176 1.166 . S
O182 Zn174 1.905 . S
O182 C176 1.182 . S
O183 Zn174 1.898 . S
O183 C177 1.167 . S
O184 Zn175 2.120 . S
O184 C177 1.299 . S
O185 Zn173 1.898 . S
O185 C180 1.167 . S
O186 Zn175 2.120 . S
O186 C180 1.299 . S
O187 Zn175 2.114 . S
O187 C189 1.166 . S
O188 Zn173 1.905 . S
O188 C189 1.182 . S
C189 O187 1.166 . S
C189 O188 1.182 . S
O190 Zn175 2.080 . S
O190 C193 1.305 . S
O191 Zn174 1.920 . S
O191 C193 1.234 . S
C192 O178 1.305 . S
C192 O179 1.234 . S
C193 O190 1.305 . S
C193 O191 1.234 . S
Zn194 O200 1.920 . S
Zn194 O206 1.898 . S
Zn194 O209 1.905 1_455 S
Zn195 O203 1.905 . S
Zn195 O204 1.898 . S
Zn195 O212 1.920 1_655 S
Zn196 O199 2.080 . S
Zn196 O202 2.114 1_455 S
Zn196 O205 2.120 1_455 S
Zn196 O207 2.120 . S
Zn196 O208 2.114 1_455 S
Zn196 O211 2.080 . S
C197 O202 1.166 . S
C197 O203 1.182 . S
C198 O204 1.167 . S
C198 O205 1.299 . S
O199 Zn196 2.080 . S
O199 C213 1.305 . S
O200 Zn194 1.920 . S
O200 C213 1.234 . S
C201 O206 1.167 . S
C201 O207 1.299 . S
O202 Zn196 2.114 1_655 S
O202 C197 1.166 . S
O203 Zn195 1.905 . S
O203 C197 1.182 . S
O204 Zn195 1.898 . S
O204 C198 1.167 . S
O205 Zn196 2.120 1_655 S
O205 C198 1.299 . S
O206 Zn194 1.898 . S
O206 C201 1.167 . S
O207 Zn196 2.120 . S
O207 C201 1.299 . S
O208 Zn196 2.114 1_655 S
O208 C210 1.166 . S
O209 Zn194 1.905 1_655 S
O209 C210 1.182 . S
C210 O208 1.166 . S
C210 O209 1.182 . S
O211 Zn196 2.080 . S
O211 C214 1.305 . S
O212 Zn195 1.920 1_455 S
O212 C214 1.234 . S
C213 O199 1.305 . S
C213 O200 1.234 . S
C214 O211 1.305 . S
C214 O212 1.234 . S
Zn215 O221 1.920 . S
Zn215 O227 1.898 . S
Zn215 O230 1.905 . S
Zn216 O224 1.905 . S
Zn216 O225 1.898 . S
Zn216 O233 1.920 . S
Zn217 O220 2.080 . S
Zn217 O223 2.114 . S
Zn217 O226 2.120 . S
Zn217 O228 2.120 . S
Zn217 O229 2.114 . S
Zn217 O232 2.080 . S
C218 O223 1.166 . S
C218 O224 1.182 . S
C219 O225 1.167 . S
C219 O226 1.299 . S
O220 Zn217 2.080 . S
O220 C234 1.305 . S
O221 Zn215 1.920 . S
O221 C234 1.234 . S
C222 O227 1.167 . S
C222 O228 1.299 . S
O223 Zn217 2.114 . S
O223 C218 1.166 . S
O224 Zn216 1.905 . S
O224 C218 1.182 . S
O225 Zn216 1.898 . S
O225 C219 1.167 . S
O226 Zn217 2.120 . S
O226 C219 1.299 . S
O227 Zn215 1.898 . S
O227 C222 1.167 . S
O228 Zn217 2.120 . S
O228 C222 1.299 . S
O229 Zn217 2.114 . S
O229 C231 1.166 . S
O230 Zn215 1.905 . S
O230 C231 1.182 . S
C231 O229 1.166 . S
C231 O230 1.182 . S
O232 Zn217 2.080 . S
O232 C235 1.305 . S
O233 Zn216 1.920 . S
O233 C235 1.234 . S
C234 O220 1.305 . S
C234 O221 1.234 . S
C235 O232 1.305 . S
C235 O233 1.234 . S
H236 C244 0.929 . S
H237 C246 0.930 . S
H238 C248 0.930 . S
H239 C251 0.929 . S
H240 C254 0.930 . S
H241 C256 0.960 . S
H242 C256 0.960 . S
H243 C256 0.960 . S
C244 H236 0.929 . S
C244 C245 1.377 . S
C244 C246 1.384 . S
C245 C244 1.377 . S
C245 C251 1.390 . S
C246 H237 0.930 . S
C246 C244 1.384 . S
C246 C247 1.372 . S
C247 C246 1.372 . S
C247 C248 1.400 . S
C247 C252 1.490 . S
C248 H238 0.930 . S
C248 C247 1.400 . S
C248 C251 1.386 . S
H249 C265 0.930 . S
H250 C266 0.931 1_565 S
C251 H239 0.929 . S
C251 C245 1.390 . S
C251 C248 1.386 . S
C252 C247 1.490 . S
C252 C254 1.395 . S
C252 C255 1.403 . S
H253 C259 0.930 . S
C254 H240 0.930 . S
C254 C252 1.395 . S
C254 C257 1.403 . S
C255 C252 1.403 . S
C255 C256 1.524 . S
C255 C259 1.400 . S
C256 H241 0.960 . S
C256 H242 0.960 . S
C256 H243 0.960 . S
C256 C255 1.524 . S
C257 C254 1.403 . S
C257 C258 1.392 . S
C257 C261 1.519 . S
C258 C257 1.392 . S
C258 C259 1.385 . S
C258 C260 1.478 . S
C259 H253 0.930 . S
C259 C255 1.400 . S
C259 C258 1.385 . S
C260 C258 1.478 . S
C260 C262 1.381 1_565 S
C260 C266 1.383 1_565 S
C261 C257 1.519 . S
C261 H267 0.964 . S
C261 H268 0.945 1_565 S
C261 H269 0.948 1_565 S
C262 C260 1.381 1_545 S
C262 C263 1.394 . S
C262 H270 0.930 . S
C263 C262 1.394 . S
C263 C264 1.383 . S
C263 H271 0.929 . S
C264 C263 1.383 . S
C264 C265 1.377 . S
C265 H249 0.930 . S
C265 C264 1.377 . S
C265 C266 1.379 . S
C266 H250 0.931 1_545 S
C266 C260 1.383 1_545 S
C266 C265 1.379 . S
H267 C261 0.964 . S
H268 C261 0.945 1_545 S
H269 C261 0.948 1_545 S
H270 C262 0.930 . S
H271 C263 0.929 . S
H272 C280 0.929 . S
H273 C282 0.930 . S
H274 C284 0.930 . S
H275 C287 0.929 . S
H276 C290 0.930 . S
H277 C292 0.960 . S
H278 C292 0.960 . S
H279 C292 0.960 . S
C280 H272 0.929 . S
C280 C281 1.377 . S
C280 C282 1.384 . S
C281 C280 1.377 . S
C281 C287 1.390 . S
C282 H273 0.930 . S
C282 C280 1.384 . S
C282 C283 1.372 . S
C283 C282 1.372 . S
C283 C284 1.400 . S
C283 C288 1.490 . S
C284 H274 0.930 . S
C284 C283 1.400 . S
C284 C287 1.386 . S
H285 C301 0.930 . S
H286 C302 0.931 . S
C287 H275 0.929 . S
C287 C281 1.390 . S
C287 C284 1.386 . S
C288 C283 1.490 . S
C288 C290 1.395 . S
C288 C291 1.403 . S
H289 C295 0.930 . S
C290 H276 0.930 . S
C290 C288 1.395 . S
C290 C293 1.403 . S
C291 C288 1.403 . S
C291 C292 1.524 . S
C291 C295 1.400 . S
C292 H277 0.960 . S
C292 H278 0.960 . S
C292 H279 0.960 . S
C292 C291 1.524 . S
C293 C290 1.403 . S
C293 C294 1.392 . S
C293 C297 1.495 . S
C294 C293 1.392 . S
C294 C295 1.385 . S
C294 C296 1.478 . S
C295 H289 0.930 . S
C295 C291 1.400 . S
C295 C294 1.385 . S
C296 C294 1.478 . S
C296 C298 1.381 . S
C296 C302 1.383 . S
C297 C293 1.495 . S
C297 H303 0.959 . S
C297 H304 0.961 . S
C297 H305 0.960 . S
C298 C296 1.381 . S
C298 C299 1.394 . S
C298 H306 0.930 . S
C299 C298 1.394 . S
C299 C300 1.383 . S
C299 H307 0.929 . S
C300 C299 1.383 . S
C300 C301 1.377 . S
C301 H285 0.930 . S
C301 C300 1.377 . S
C301 C302 1.379 . S
C302 H286 0.931 . S
C302 C296 1.383 . S
C302 C301 1.379 . S
H303 C297 0.959 . S
H304 C297 0.961 . S
H305 C297 0.960 . S
H306 C298 0.930 . S
H307 C299 0.929 . S
H308 C316 0.929 . S
H309 C318 0.930 . S
H310 C320 0.930 . S
H311 C323 0.929 . S
H312 C326 0.930 . S
H313 C328 0.960 . S
H314 C328 0.960 . S
H315 C328 0.960 . S
C316 H308 0.929 . S
C316 C317 1.377 . S
C316 C318 1.384 . S
C317 C316 1.377 . S
C317 C323 1.390 . S
C318 H309 0.930 . S
C318 C316 1.384 . S
C318 C319 1.372 . S
C319 C318 1.372 . S
C319 C320 1.400 . S
C319 C324 1.490 . S
C320 H310 0.930 . S
C320 C319 1.400 . S
C320 C323 1.386 . S
H321 C337 0.930 . S
H322 C338 0.931 . S
C323 H311 0.929 . S
C323 C317 1.390 . S
C323 C320 1.386 . S
C324 C319 1.490 . S
C324 C326 1.395 . S
C324 C327 1.403 . S
H325 C331 0.930 . S
C326 H312 0.930 . S
C326 C324 1.395 . S
C326 C329 1.403 . S
C327 C324 1.403 . S
C327 C328 1.524 . S
C327 C331 1.400 . S
C328 H313 0.960 . S
C328 H314 0.960 . S
C328 H315 0.960 . S
C328 C327 1.524 . S
C329 C326 1.403 . S
C329 C330 1.392 . S
C329 C333 1.495 . S
C330 C329 1.392 . S
C330 C331 1.385 . S
C330 C332 1.478 . S
C331 H325 0.930 . S
C331 C327 1.400 . S
C331 C330 1.385 . S
C332 C330 1.478 . S
C332 C334 1.381 . S
C332 C338 1.383 . S
C333 C329 1.495 . S
C333 H339 0.959 . S
C333 H340 0.961 . S
C333 H341 0.960 . S
C334 C332 1.381 . S
C334 C335 1.394 . S
C334 H342 0.930 . S
C335 C334 1.394 . S
C335 C336 1.383 . S
C335 H343 0.929 . S
C336 C335 1.383 . S
C336 C337 1.377 . S
C337 H321 0.930 . S
C337 C336 1.377 . S
C337 C338 1.379 . S
C338 H322 0.931 . S
C338 C332 1.383 . S
C338 C337 1.379 . S
H339 C333 0.959 . S
H340 C333 0.961 . S
H341 C333 0.960 . S
H342 C334 0.930 . S
H343 C335 0.929 . S
H344 C352 0.929 . S
H345 C354 0.930 . S
H346 C356 0.930 . S
H347 C359 0.929 . S
H348 C362 0.930 . S
H349 C364 0.960 . S
H350 C364 0.960 . S
H351 C364 0.960 . S
C352 H344 0.929 . S
C352 C353 1.377 . S
C352 C354 1.384 . S
C353 C352 1.377 . S
C353 C359 1.390 . S
C354 H345 0.930 . S
C354 C352 1.384 . S
C354 C355 1.372 . S
C355 C354 1.372 . S
C355 C356 1.400 . S
C355 C360 1.490 . S
C356 H346 0.930 . S
C356 C355 1.400 . S
C356 C359 1.386 . S
H357 C373 0.930 . S
H358 C374 0.931 . S
C359 H347 0.929 . S
C359 C353 1.390 . S
C359 C356 1.386 . S
C360 C355 1.490 . S
C360 C362 1.395 . S
C360 C363 1.403 . S
H361 C367 0.930 . S
C362 H348 0.930 . S
C362 C360 1.395 . S
C362 C365 1.403 . S
C363 C360 1.403 . S
C363 C364 1.524 . S
C363 C367 1.400 . S
C364 H349 0.960 . S
C364 H350 0.960 . S
C364 H351 0.960 . S
C364 C363 1.524 . S
C365 C362 1.403 . S
C365 C366 1.392 . S
C365 C369 1.495 . S
C366 C365 1.392 . S
C366 C367 1.385 . S
C366 C368 1.478 . S
C367 H361 0.930 . S
C367 C363 1.400 . S
C367 C366 1.385 . S
C368 C366 1.478 . S
C368 C370 1.381 . S
C368 C374 1.383 1_565 S
C369 C365 1.495 . S
C369 H375 0.959 . S
C369 H376 0.961 . S
C369 H377 0.960 . S
C370 C368 1.381 . S
C370 C371 1.394 1_565 S
C370 H378 0.930 . S
C371 C370 1.394 1_545 S
C371 C372 1.383 . S
C371 H379 0.929 . S
C372 C371 1.383 . S
C372 C373 1.377 . S
C373 H357 0.930 . S
C373 C372 1.377 . S
C373 C374 1.379 . S
C374 H358 0.931 . S
C374 C368 1.383 1_545 S
C374 C373 1.379 . S
H375 C369 0.959 . S
H376 C369 0.961 . S
H377 C369 0.960 . S
H378 C370 0.930 . S
H379 C371 0.929 . S
H380 C388 0.929 . S
H381 C390 0.930 . S
H382 C392 0.930 . S
H383 C395 0.929 . S
H384 C398 0.930 . S
H385 C400 0.960 . S
H386 C400 0.960 . S
H387 C400 0.960 . S
C388 H380 0.929 . S
C388 C389 1.377 . S
C388 C390 1.384 . S
C389 C388 1.377 . S
C389 C395 1.390 . S
C390 H381 0.930 . S
C390 C388 1.384 . S
C390 C391 1.372 . S
C391 C390 1.372 . S
C391 C392 1.400 . S
C391 C396 1.490 . S
C392 H382 0.930 . S
C392 C391 1.400 . S
C392 C395 1.386 . S
H393 C409 0.930 . S
H394 C410 0.931 1_545 S
C395 H383 0.929 . S
C395 C389 1.390 . S
C395 C392 1.386 . S
C396 C391 1.490 . S
C396 C398 1.395 . S
C396 C399 1.403 . S
H397 C403 0.930 . S
C398 H384 0.930 . S
C398 C396 1.395 . S
C398 C401 1.403 . S
C399 C396 1.403 . S
C399 C400 1.524 . S
C399 C403 1.400 . S
C400 H385 0.960 . S
C400 H386 0.960 . S
C400 H387 0.960 . S
C400 C399 1.524 . S
C401 C398 1.403 . S
C401 C402 1.392 . S
C401 C405 1.495 . S
C402 C401 1.392 . S
C402 C403 1.385 . S
C402 C404 1.478 . S
C403 H397 0.930 . S
C403 C399 1.400 . S
C403 C402 1.385 . S
C404 C402 1.478 . S
C404 C406 1.381 1_545 S
C404 C410 1.383 1_545 S
C405 C401 1.495 . S
C405 H411 0.959 . S
C405 H412 0.961 . S
C405 H413 0.960 . S
C406 C404 1.381 1_565 S
C406 C407 1.394 . S
C406 H414 0.930 1_565 S
C407 C406 1.394 . S
C407 C408 1.383 . S
C407 H415 0.929 . S
C408 C407 1.383 . S
C408 C409 1.377 . S
C409 H393 0.930 . S
C409 C408 1.377 . S
C409 C410 1.379 . S
C410 H394 0.931 1_565 S
C410 C404 1.383 1_565 S
C410 C409 1.379 . S
H411 C405 0.959 . S
H412 C405 0.961 . S
H413 C405 0.960 . S
H414 C406 0.930 1_545 S
H415 C407 0.929 . S
H416 C424 0.929 . S
H417 C426 0.930 . S
H418 C428 0.930 . S
H419 C431 0.929 . S
H420 C434 0.930 . S
H421 C436 0.960 . S
H422 C436 0.960 . S
H423 C436 0.960 . S
C424 H416 0.929 . S
C424 C425 1.377 . S
C424 C426 1.384 . S
C425 C424 1.377 . S
C425 C431 1.390 . S
C426 H417 0.930 . S
C426 C424 1.384 . S
C426 C427 1.372 . S
C427 C426 1.372 . S
C427 C428 1.400 . S
C427 C432 1.490 . S
C428 H418 0.930 . S
C428 C427 1.400 . S
C428 C431 1.386 . S
H429 C445 0.930 . S
H430 C446 0.931 . S
C431 H419 0.929 . S
C431 C425 1.390 . S
C431 C428 1.386 . S
C432 C427 1.490 . S
C432 C434 1.395 . S
C432 C435 1.403 . S
H433 C439 0.930 . S
C434 H420 0.930 . S
C434 C432 1.395 . S
C434 C437 1.403 . S
C435 C432 1.403 . S
C435 C436 1.524 . S
C435 C439 1.400 . S
C436 H421 0.960 . S
C436 H422 0.960 . S
C436 H423 0.960 . S
C436 C435 1.524 . S
C437 C434 1.403 . S
C437 C438 1.392 . S
C437 C441 1.495 . S
C438 C437 1.392 . S
C438 C439 1.385 . S
C438 C440 1.478 . S
C439 H433 0.930 . S
C439 C435 1.400 . S
C439 C438 1.385 . S
C440 C438 1.478 . S
C440 C442 1.381 . S
C440 C446 1.383 . S
C441 C437 1.495 . S
C441 H447 0.959 . S
C441 H448 0.961 . S
C441 H449 0.960 . S
C442 C440 1.381 . S
C442 C443 1.394 . S
C442 H450 0.930 . S
C443 C442 1.394 . S
C443 C444 1.383 . S
C443 H451 0.929 . S
C444 C443 1.383 . S
C444 C445 1.377 . S
C445 H429 0.930 . S
C445 C444 1.377 . S
C445 C446 1.379 . S
C446 H430 0.931 . S
C446 C440 1.383 . S
C446 C445 1.379 . S
H447 C441 0.959 . S
H448 C441 0.961 . S
H449 C441 0.960 . S
H450 C442 0.930 . S
H451 C443 0.929 . S
H452 C460 0.929 . S
H453 C462 0.930 . S
H454 C464 0.930 . S
H455 C467 0.929 . S
H456 C470 0.930 . S
H457 C472 0.960 . S
H458 C472 0.960 . S
H459 C472 0.960 . S
C460 H452 0.929 . S
C460 C461 1.377 . S
C460 C462 1.384 . S
C461 C460 1.377 . S
C461 C467 1.390 . S
C462 H453 0.930 . S
C462 C460 1.384 . S
C462 C463 1.372 . S
C463 C462 1.372 . S
C463 C464 1.400 . S
C463 C468 1.490 . S
C464 H454 0.930 . S
C464 C463 1.400 . S
C464 C467 1.386 . S
H465 C481 0.930 . S
H466 C482 0.931 . S
C467 H455 0.929 . S
C467 C461 1.390 . S
C467 C464 1.386 . S
C468 C463 1.490 . S
C468 C470 1.395 . S
C468 C471 1.403 . S
H469 C475 0.930 . S
C470 H456 0.930 . S
C470 C468 1.395 . S
C470 C473 1.403 . S
C471 C468 1.403 . S
C471 C472 1.524 . S
C471 C475 1.400 . S
C472 H457 0.960 . S
C472 H458 0.960 . S
C472 H459 0.960 . S
C472 C471 1.524 . S
C473 C470 1.403 . S
C473 C474 1.392 . S
C473 C477 1.495 . S
C474 C473 1.392 . S
C474 C475 1.385 . S
C474 C476 1.478 . S
C475 H469 0.930 . S
C475 C471 1.400 . S
C475 C474 1.385 . S
C476 C474 1.478 . S
C476 C478 1.381 . S
C476 C482 1.383 . S
C477 C473 1.495 . S
C477 H483 0.959 . S
C477 H484 0.961 . S
C477 H485 0.960 . S
C478 C476 1.381 . S
C478 C479 1.394 . S
C478 H486 0.930 . S
C479 C478 1.394 . S
C479 C480 1.383 . S
C479 H487 0.929 . S
C480 C479 1.383 . S
C480 C481 1.377 . S
C481 H465 0.930 . S
C481 C480 1.377 . S
C481 C482 1.379 . S
C482 H466 0.931 . S
C482 C476 1.383 . S
C482 C481 1.379 . S
H483 C477 0.959 . S
H484 C477 0.961 . S
H485 C477 0.960 . S
H486 C478 0.930 . S
H487 C479 0.929 . S
H488 C496 0.929 . S
H489 C498 0.930 . S
H490 C500 0.930 . S
H491 C503 0.929 . S
H492 C506 0.930 . S
H493 C508 0.960 . S
H494 C508 0.960 . S
H495 C508 0.960 . S
C496 H488 0.929 . S
C496 C497 1.377 . S
C496 C498 1.384 . S
C497 C496 1.377 . S
C497 C503 1.390 . S
C498 H489 0.930 . S
C498 C496 1.384 . S
C498 C499 1.372 . S
C499 C498 1.372 . S
C499 C500 1.400 . S
C499 C504 1.490 . S
C500 H490 0.930 . S
C500 C499 1.400 . S
C500 C503 1.386 . S
H501 C517 0.930 . S
H502 C518 0.931 . S
C503 H491 0.929 . S
C503 C497 1.390 . S
C503 C500 1.386 . S
C504 C499 1.490 . S
C504 C506 1.395 . S
C504 C507 1.403 . S
H505 C511 0.930 . S
C506 H492 0.930 . S
C506 C504 1.395 . S
C506 C509 1.403 . S
C507 C504 1.403 . S
C507 C508 1.524 . S
C507 C511 1.400 . S
C508 H493 0.960 . S
C508 H494 0.960 . S
C508 H495 0.960 . S
C508 C507 1.524 . S
C509 C506 1.403 . S
C509 C510 1.392 . S
C509 C513 1.495 . S
C510 C509 1.392 . S
C510 C511 1.385 . S
C510 C512 1.478 . S
C511 H505 0.930 . S
C511 C507 1.400 . S
C511 C510 1.385 . S
C512 C510 1.478 . S
C512 C514 1.381 1_545 S
C512 C518 1.383 . S
C513 C509 1.495 . S
C513 H519 0.959 . S
C513 H520 0.961 . S
C513 H521 0.960 . S
C514 C512 1.381 1_565 S
C514 C515 1.394 . S
C514 H522 0.930 . S
C515 C514 1.394 . S
C515 C516 1.383 . S
C515 H523 0.929 . S
C516 C515 1.383 . S
C516 C517 1.377 . S
C517 H501 0.930 . S
C517 C516 1.377 . S
C517 C518 1.379 1_565 S
C518 H502 0.931 . S
C518 C512 1.383 . S
C518 C517 1.379 1_545 S
H519 C513 0.959 . S
H520 C513 0.961 . S
H521 C513 0.960 . S
H522 C514 0.930 . S
H523 C515 0.929 . S
H524 C532 0.929 . S
H525 C534 0.930 . S
H526 C536 0.930 . S
H527 C539 0.929 . S
H528 C542 0.930 . S
H529 C544 0.960 . S
H530 C544 0.960 . S
H531 C544 0.960 . S
C532 H524 0.929 . S
C532 C533 1.377 . S
C532 C534 1.384 1_556 S
C533 C532 1.377 . S
C533 C539 1.390 . S
C534 H525 0.930 . S
C534 C532 1.384 1_554 S
C534 C535 1.372 . S
C535 C534 1.372 . S
C535 C536 1.400 1_554 S
C535 C540 1.490 . S
C536 H526 0.930 . S
C536 C535 1.400 1_556 S
C536 C539 1.386 . S
H537 C553 0.930 . S
H538 C554 0.931 . S
C539 H527 0.929 . S
C539 C533 1.390 . S
C539 C536 1.386 . S
C540 C535 1.490 . S
C540 C542 1.395 . S
C540 C543 1.403 . S
H541 C547 0.930 . S
C542 H528 0.930 . S
C542 C540 1.395 . S
C542 C545 1.403 . S
C543 C540 1.403 . S
C543 C544 1.524 . S
C543 C547 1.400 . S
C544 H529 0.960 . S
C544 H530 0.960 . S
C544 H531 0.960 . S
C544 C543 1.524 . S
C545 C542 1.403 . S
C545 C546 1.392 . S
C545 C549 1.495 . S
C546 C545 1.392 . S
C546 C547 1.385 . S
C546 C548 1.478 . S
C547 H541 0.930 . S
C547 C543 1.400 . S
C547 C546 1.385 . S
C548 C546 1.478 . S
C548 C550 1.381 . S
C548 C554 1.383 . S
C549 C545 1.495 . S
C549 H555 0.959 . S
C549 H556 0.961 . S
C549 H557 0.960 . S
C550 C548 1.381 . S
C550 C551 1.394 . S
C550 H558 0.930 . S
C551 C550 1.394 . S
C551 C552 1.383 . S
C551 H559 0.929 . S
C552 C551 1.383 . S
C552 C553 1.377 . S
C553 H537 0.930 . S
C553 C552 1.377 . S
C553 C554 1.379 . S
C554 H538 0.931 . S
C554 C548 1.383 . S
C554 C553 1.379 . S
H555 C549 0.959 . S
H556 C549 0.961 . S
H557 C549 0.960 . S
H558 C550 0.930 . S
H559 C551 0.929 . S
H560 C568 0.929 . S
H561 C570 0.930 . S
H562 C572 0.930 . S
H563 C575 0.929 . S
H564 C578 0.930 . S
H565 C580 0.960 . S
H566 C580 0.960 . S
H567 C580 0.960 . S
C568 H560 0.929 . S
C568 C569 1.377 . S
C568 C570 1.384 . S
C569 C568 1.377 . S
C569 C575 1.390 . S
C570 H561 0.930 . S
C570 C568 1.384 . S
C570 C571 1.372 . S
C571 C570 1.372 . S
C571 C572 1.400 . S
C571 C576 1.490 . S
C572 H562 0.930 . S
C572 C571 1.400 . S
C572 C575 1.386 . S
H573 C589 0.930 . S
H574 C590 0.931 . S
C575 H563 0.929 . S
C575 C569 1.390 . S
C575 C572 1.386 . S
C576 C571 1.490 . S
C576 C578 1.395 . S
C576 C579 1.403 . S
H577 C583 0.930 . S
C578 H564 0.930 . S
C578 C576 1.395 . S
C578 C581 1.403 . S
C579 C576 1.403 . S
C579 C580 1.524 . S
C579 C583 1.400 . S
C580 H565 0.960 . S
C580 H566 0.960 . S
C580 H567 0.960 . S
C580 C579 1.524 . S
C581 C578 1.403 . S
C581 C582 1.392 . S
C581 C585 1.495 . S
C582 C581 1.392 . S
C582 C583 1.385 . S
C582 C584 1.478 . S
C583 H577 0.930 . S
C583 C579 1.400 . S
C583 C582 1.385 . S
C584 C582 1.478 . S
C584 C586 1.381 . S
C584 C590 1.383 . S
C585 C581 1.495 . S
C585 H591 0.959 . S
C585 H592 0.961 . S
C585 H593 0.960 . S
C586 C584 1.381 . S
C586 C587 1.394 . S
C586 H594 0.930 . S
C587 C586 1.394 . S
C587 C588 1.383 . S
C587 H595 0.929 . S
C588 C587 1.383 . S
C588 C589 1.377 . S
C589 H573 0.930 . S
C589 C588 1.377 . S
C589 C590 1.379 . S
C590 H574 0.931 . S
C590 C584 1.383 . S
C590 C589 1.379 . S
H591 C585 0.959 . S
H592 C585 0.961 . S
H593 C585 0.960 . S
H594 C586 0.930 . S
H595 C587 0.929 . S
H596 C604 0.929 . S
H597 C606 0.930 . S
H598 C608 0.930 . S
H599 C611 0.929 . S
H600 C614 0.930 . S
H601 C616 0.960 . S
H602 C616 0.960 . S
H603 C616 0.960 1_554 S
C604 H596 0.929 . S
C604 C605 1.377 . S
C604 C606 1.384 1_554 S
C605 C604 1.377 . S
C605 C611 1.390 . S
C606 H597 0.930 . S
C606 C604 1.384 1_556 S
C606 C607 1.372 . S
C607 C606 1.372 . S
C607 C608 1.400 1_556 S
C607 C612 1.490 . S
C608 H598 0.930 . S
C608 C607 1.400 1_554 S
C608 C611 1.386 . S
H609 C625 0.930 . S
H610 C626 0.931 . S
C611 H599 0.929 . S
C611 C605 1.390 . S
C611 C608 1.386 . S
C612 C607 1.490 . S
C612 C614 1.395 . S
C612 C615 1.403 . S
H613 C619 0.930 . S
C614 H600 0.930 . S
C614 C612 1.395 . S
C614 C617 1.403 . S
C615 C612 1.403 . S
C615 C616 1.524 . S
C615 C619 1.400 . S
C616 H601 0.960 . S
C616 H602 0.960 . S
C616 H603 0.960 1_556 S
C616 C615 1.524 . S
C617 C614 1.403 . S
C617 C618 1.392 . S
C617 C621 1.495 . S
C618 C617 1.392 . S
C618 C619 1.385 . S
C618 C620 1.478 . S
C619 H613 0.930 . S
C619 C615 1.400 . S
C619 C618 1.385 . S
C620 C618 1.478 . S
C620 C622 1.381 . S
C620 C626 1.383 . S
C621 C617 1.495 . S
C621 H627 0.959 . S
C621 H628 0.961 . S
C621 H629 0.960 . S
C622 C620 1.381 . S
C622 C623 1.394 . S
C622 H630 0.930 . S
C623 C622 1.394 . S
C623 C624 1.383 . S
C623 H631 0.929 . S
C624 C623 1.383 . S
C624 C625 1.377 . S
C625 H609 0.930 . S
C625 C624 1.377 . S
C625 C626 1.379 . S
C626 H610 0.931 . S
C626 C620 1.383 . S
C626 C625 1.379 . S
H627 C621 0.959 . S
H628 C621 0.961 . S
H629 C621 0.960 . S
H630 C622 0.930 . S
H631 C623 0.929 . S
H632 C640 0.929 . S
H633 C642 0.930 . S
H634 C644 0.930 . S
H635 C647 0.929 . S
H636 C650 0.930 . S
H637 C652 0.960 . S
H638 C652 0.960 . S
H639 C652 0.960 . S
C640 H632 0.929 . S
C640 C641 1.377 . S
C640 C642 1.384 . S
C641 C640 1.377 . S
C641 C647 1.390 . S
C642 H633 0.930 . S
C642 C640 1.384 . S
C642 C643 1.372 . S
C643 C642 1.372 . S
C643 C644 1.400 . S
C643 C648 1.490 . S
C644 H634 0.930 . S
C644 C643 1.400 . S
C644 C647 1.386 . S
H645 C661 0.930 . S
H646 C662 0.931 . S
C647 H635 0.929 . S
C647 C641 1.390 . S
C647 C644 1.386 . S
C648 C643 1.490 . S
C648 C650 1.395 . S
C648 C651 1.403 . S
H649 C655 0.930 . S
C650 H636 0.930 . S
C650 C648 1.395 . S
C650 C653 1.403 . S
C651 C648 1.403 . S
C651 C652 1.524 . S
C651 C655 1.400 . S
C652 H637 0.960 . S
C652 H638 0.960 . S
C652 H639 0.960 . S
C652 C651 1.524 . S
C653 C650 1.403 . S
C653 C654 1.392 . S
C653 C657 1.495 . S
C654 C653 1.392 . S
C654 C655 1.385 . S
C654 C656 1.478 . S
C655 H649 0.930 . S
C655 C651 1.400 . S
C655 C654 1.385 . S
C656 C654 1.478 . S
C656 C658 1.381 . S
C656 C662 1.383 . S
C657 C653 1.495 . S
C657 H663 0.959 . S
C657 H664 0.961 . S
C657 H665 0.960 . S
C658 C656 1.381 . S
C658 C659 1.394 . S
C658 H666 0.930 . S
C659 C658 1.394 . S
C659 C660 1.383 . S
C659 H667 0.929 . S
C660 C659 1.383 . S
C660 C661 1.377 . S
C661 H645 0.930 . S
C661 C660 1.377 . S
C661 C662 1.379 . S
C662 H646 0.931 . S
C662 C656 1.383 . S
C662 C661 1.379 . S
H663 C657 0.959 . S
H664 C657 0.961 . S
H665 C657 0.960 . S
H666 C658 0.930 . S
H667 C659 0.929 . S
H668 C676 0.929 . S
H669 C678 0.930 . S
H670 C680 0.930 . S
H671 C683 0.929 . S
H672 C686 0.930 . S
H673 C688 0.960 . S
H674 C688 0.960 . S
H675 C688 0.979 . S
C676 H668 0.929 . S
C676 C677 1.377 . S
C676 C678 1.384 1_554 S
C677 C676 1.377 . S
C677 C683 1.390 . S
C678 H669 0.930 . S
C678 C676 1.384 1_556 S
C678 C679 1.372 . S
C679 C678 1.372 . S
C679 C680 1.400 1_556 S
C679 C684 1.490 . S
C680 H670 0.930 . S
C680 C679 1.400 1_554 S
C680 C683 1.386 . S
H681 C697 0.930 . S
H682 C698 0.931 . S
C683 H671 0.929 . S
C683 C677 1.390 . S
C683 C680 1.386 . S
C684 C679 1.490 . S
C684 C686 1.395 . S
C684 C687 1.403 . S
H685 C691 0.930 . S
C686 H672 0.930 . S
C686 C684 1.395 . S
C686 C689 1.403 . S
C687 C684 1.403 . S
C687 C688 1.524 . S
C687 C691 1.400 . S
C688 H673 0.960 . S
C688 H674 0.960 . S
C688 H675 0.979 . S
C688 C687 1.524 . S
C689 C686 1.403 . S
C689 C690 1.392 . S
C689 C693 1.495 . S
C690 C689 1.392 . S
C690 C691 1.385 . S
C690 C692 1.478 . S
C691 H685 0.930 . S
C691 C687 1.400 . S
C691 C690 1.385 . S
C692 C690 1.478 . S
C692 C694 1.381 . S
C692 C698 1.383 . S
C693 C689 1.495 . S
C693 H699 0.959 . S
C693 H700 0.961 . S
C693 H701 0.960 . S
C694 C692 1.381 . S
C694 C695 1.394 . S
C694 H702 0.930 . S
C695 C694 1.394 . S
C695 C696 1.383 . S
C695 H703 0.929 . S
C696 C695 1.383 . S
C696 C697 1.377 . S
C697 H681 0.930 . S
C697 C696 1.377 . S
C697 C698 1.379 . S
C698 H682 0.931 . S
C698 C692 1.383 . S
C698 C697 1.379 . S
H699 C693 0.959 . S
H700 C693 0.961 . S
H701 C693 0.960 . S
H702 C694 0.930 . S
H703 C695 0.929 . S
H704 C712 0.929 . S
H705 C714 0.930 . S
H706 C716 0.930 . S
H707 C719 0.929 . S
H708 C722 0.930 . S
H709 C724 0.960 . S
H710 C724 0.960 . S
H711 C724 0.960 . S
C712 H704 0.929 . S
C712 C713 1.377 . S
C712 C714 1.384 . S
C713 C712 1.377 . S
C713 C719 1.390 . S
C714 H705 0.930 . S
C714 C712 1.384 . S
C714 C715 1.372 . S
C715 C714 1.372 . S
C715 C716 1.400 . S
C715 C720 1.490 . S
C716 H706 0.930 . S
C716 C715 1.400 . S
C716 C719 1.386 . S
H717 C733 0.930 . S
H718 C734 0.931 . S
C719 H707 0.929 . S
C719 C713 1.390 . S
C719 C716 1.386 . S
C720 C715 1.490 . S
C720 C722 1.395 . S
C720 C723 1.403 . S
H721 C727 0.930 . S
C722 H708 0.930 . S
C722 C720 1.395 . S
C722 C725 1.403 . S
C723 C720 1.403 . S
C723 C724 1.524 . S
C723 C727 1.400 . S
C724 H709 0.960 . S
C724 H710 0.960 . S
C724 H711 0.960 . S
C724 C723 1.524 . S
C725 C722 1.403 . S
C725 C726 1.392 . S
C725 C729 1.495 . S
C726 C725 1.392 . S
C726 C727 1.385 . S
C726 C728 1.478 . S
C727 H721 0.930 . S
C727 C723 1.400 . S
C727 C726 1.385 . S
C728 C726 1.478 . S
C728 C730 1.381 . S
C728 C734 1.383 . S
C729 C725 1.495 . S
C729 H735 0.959 . S
C729 H736 0.961 . S
C729 H737 0.960 . S
C730 C728 1.381 . S
C730 C731 1.394 . S
C730 H738 0.930 . S
C731 C730 1.394 . S
C731 C732 1.383 . S
C731 H739 0.929 . S
C732 C731 1.383 . S
C732 C733 1.377 . S
C733 H717 0.930 . S
C733 C732 1.377 . S
C733 C734 1.379 . S
C734 H718 0.931 . S
C734 C728 1.383 . S
C734 C733 1.379 . S
H735 C729 0.959 . S
H736 C729 0.961 . S
H737 C729 0.960 . S
H738 C730 0.930 . S
H739 C731 0.929 . S
H740 C748 0.929 . S
H741 C750 0.931 . S
H742 C752 0.930 . S
H743 C755 0.929 . S
H744 C758 0.930 . S
H745 C760 0.960 . S
H746 C760 0.950 1_556 S
H747 C760 0.960 1_556 S
C748 H740 0.929 . S
C748 C749 1.377 . S
C748 C750 1.383 1_556 S
C749 C748 1.377 . S
C749 C755 1.390 . S
C750 H741 0.931 . S
C750 C748 1.383 1_554 S
C750 C751 1.372 . S
C751 C750 1.372 . S
C751 C752 1.400 1_554 S
C751 C756 1.490 . S
C752 H742 0.930 . S
C752 C751 1.400 1_556 S
C752 C755 1.386 . S
H753 C769 0.930 . S
H754 C770 0.931 . S
C755 H743 0.929 . S
C755 C749 1.390 . S
C755 C752 1.386 . S
C756 C751 1.490 . S
C756 C758 1.395 . S
C756 C759 1.403 . S
H757 C763 0.930 . S
C758 H744 0.930 . S
C758 C756 1.395 . S
C758 C761 1.403 . S
C759 C756 1.403 . S
C759 C760 1.524 . S
C759 C763 1.400 . S
C760 H745 0.960 . S
C760 H746 0.950 1_554 S
C760 H747 0.960 1_554 S
C760 C759 1.524 . S
C761 C758 1.403 . S
C761 C762 1.392 . S
C761 C765 1.495 . S
C762 C761 1.392 . S
C762 C763 1.385 . S
C762 C764 1.478 . S
C763 H757 0.930 . S
C763 C759 1.400 . S
C763 C762 1.385 . S
C764 C762 1.478 . S
C764 C766 1.381 . S
C764 C770 1.383 . S
C765 C761 1.495 . S
C765 H771 0.959 . S
C765 H772 0.961 . S
C765 H773 0.960 . S
C766 C764 1.381 . S
C766 C767 1.394 . S
C766 H774 0.930 . S
C767 C766 1.394 . S
C767 C768 1.383 . S
C767 H775 0.929 . S
C768 C767 1.383 . S
C768 C769 1.377 . S
C769 H753 0.930 . S
C769 C768 1.377 . S
C769 C770 1.379 . S
C770 H754 0.931 . S
C770 C764 1.383 . S
C770 C769 1.379 . S
H771 C765 0.959 . S
H772 C765 0.961 . S
H773 C765 0.960 . S
H774 C766 0.930 . S
H775 C767 0.929 . S
H776 C784 0.929 . S
H777 C786 0.930 . S
H778 C788 0.930 . S
H779 C791 0.929 . S
H780 C794 0.930 . S
H781 C796 0.960 . S
H782 C796 0.960 . S
H783 C796 0.960 . S
C784 H776 0.929 . S
C784 C785 1.377 . S
C784 C786 1.384 . S
C785 C784 1.377 . S
C785 C791 1.390 . S
C786 H777 0.930 . S
C786 C784 1.384 . S
C786 C787 1.372 . S
C787 C786 1.372 . S
C787 C788 1.400 . S
C787 C792 1.490 . S
C788 H778 0.930 . S
C788 C787 1.400 . S
C788 C791 1.386 . S
H789 C805 0.930 . S
H790 C806 0.931 . S
C791 H779 0.929 . S
C791 C785 1.390 . S
C791 C788 1.386 . S
C792 C787 1.490 . S
C792 C794 1.395 . S
C792 C795 1.403 . S
H793 C799 0.930 . S
C794 H780 0.930 . S
C794 C792 1.395 . S
C794 C797 1.403 . S
C795 C792 1.403 . S
C795 C796 1.524 . S
C795 C799 1.400 . S
C796 H781 0.960 . S
C796 H782 0.960 . S
C796 H783 0.960 . S
C796 C795 1.524 . S
C797 C794 1.403 . S
C797 C798 1.392 . S
C797 C801 1.495 . S
C798 C797 1.392 . S
C798 C799 1.385 . S
C798 C800 1.478 . S
C799 H793 0.930 . S
C799 C795 1.400 . S
C799 C798 1.385 . S
C800 C798 1.478 . S
C800 C802 1.381 . S
C800 C806 1.383 . S
C801 C797 1.495 . S
C801 H807 0.959 . S
C801 H808 0.961 . S
C801 H809 0.960 . S
C802 C800 1.381 . S
C802 C803 1.394 . S
C802 H810 0.930 . S
C803 C802 1.394 . S
C803 C804 1.383 . S
C803 H811 0.929 . S
C804 C803 1.383 . S
C804 C805 1.377 . S
C805 H789 0.930 . S
C805 C804 1.377 . S
C805 C806 1.379 . S
C806 H790 0.931 . S
C806 C800 1.383 . S
C806 C805 1.379 . S
H807 C801 0.959 . S
H808 C801 0.961 . S
H809 C801 0.960 . S
H810 C802 0.930 . S
H811 C803 0.929 . S
H812 C820 0.929 . S
H813 C822 0.930 . S
H814 C824 0.930 . S
H815 C827 0.929 . S
H816 C830 0.930 . S
H817 C832 0.960 . S
H818 C832 0.960 . S
H819 C832 0.960 . S
C820 H812 0.929 . S
C820 C821 1.377 . S
C820 C822 1.384 . S
C821 C820 1.377 . S
C821 C827 1.390 . S
C822 H813 0.930 . S
C822 C820 1.384 . S
C822 C823 1.372 . S
C823 C822 1.372 . S
C823 C824 1.400 . S
C823 C828 1.490 . S
C824 H814 0.930 . S
C824 C823 1.400 . S
C824 C827 1.386 . S
H825 C841 0.930 . S
H826 C842 0.931 . S
C827 H815 0.929 . S
C827 C821 1.390 . S
C827 C824 1.386 . S
C828 C823 1.490 . S
C828 C830 1.395 . S
C828 C831 1.403 . S
H829 C835 0.930 . S
C830 H816 0.930 . S
C830 C828 1.395 . S
C830 C833 1.403 . S
C831 C828 1.403 . S
C831 C832 1.524 . S
C831 C835 1.400 . S
C832 H817 0.960 . S
C832 H818 0.960 . S
C832 H819 0.960 . S
C832 C831 1.524 . S
C833 C830 1.403 . S
C833 C834 1.392 . S
C833 C837 1.495 . S
C834 C833 1.392 . S
C834 C835 1.385 . S
C834 C836 1.478 . S
C835 H829 0.930 . S
C835 C831 1.400 . S
C835 C834 1.385 . S
C836 C834 1.478 . S
C836 C838 1.381 . S
C836 C842 1.383 . S
C837 C833 1.495 . S
C837 H843 0.959 . S
C837 H844 0.961 . S
C837 H845 0.960 . S
C838 C836 1.381 . S
C838 C839 1.394 . S
C838 H846 0.930 . S
C839 C838 1.394 . S
C839 C840 1.383 . S
C839 H847 0.929 . S
C840 C839 1.383 . S
C840 C841 1.377 . S
C841 H825 0.930 . S
C841 C840 1.377 . S
C841 C842 1.379 . S
C842 H826 0.931 . S
C842 C836 1.383 . S
C842 C841 1.379 . S
H843 C837 0.959 . S
H844 C837 0.961 . S
H845 C837 0.960 . S
H846 C838 0.930 . S
H847 C839 0.929 . S
H848 C856 0.929 . S
H849 C858 0.930 . S
H850 C860 0.930 . S
H851 C863 0.929 . S
H852 C866 0.930 . S
H853 C868 0.960 . S
H854 C868 0.960 . S
H855 C868 0.960 . S
C856 H848 0.929 . S
C856 C857 1.377 . S
C856 C858 1.384 . S
C857 C856 1.377 . S
C857 C863 1.390 . S
C858 H849 0.930 . S
C858 C856 1.384 . S
C858 C859 1.372 . S
C859 C858 1.372 . S
C859 C860 1.400 . S
C859 C864 1.490 . S
C860 H850 0.930 . S
C860 C859 1.400 . S
C860 C863 1.386 . S
H861 C877 0.930 . S
H862 C878 0.931 . S
C863 H851 0.929 . S
C863 C857 1.390 . S
C863 C860 1.386 . S
C864 C859 1.490 . S
C864 C866 1.395 . S
C864 C867 1.403 . S
H865 C871 0.930 . S
C866 H852 0.930 . S
C866 C864 1.395 . S
C866 C869 1.403 . S
C867 C864 1.403 . S
C867 C868 1.524 . S
C867 C871 1.400 . S
C868 H853 0.960 . S
C868 H854 0.960 . S
C868 H855 0.960 . S
C868 C867 1.524 . S
C869 C866 1.403 . S
C869 C870 1.392 . S
C869 C873 1.495 . S
C870 C869 1.392 . S
C870 C871 1.385 . S
C870 C872 1.478 . S
C871 H865 0.930 . S
C871 C867 1.400 . S
C871 C870 1.385 . S
C872 C870 1.478 . S
C872 C874 1.381 . S
C872 C878 1.383 . S
C873 C869 1.495 . S
C873 H879 0.959 . S
C873 H880 0.961 . S
C873 H881 0.960 . S
C874 C872 1.381 . S
C874 C875 1.394 . S
C874 H882 0.930 . S
C875 C874 1.394 . S
C875 C876 1.383 . S
C875 H883 0.929 . S
C876 C875 1.383 . S
C876 C877 1.377 . S
C877 H861 0.930 . S
C877 C876 1.377 . S
C877 C878 1.379 . S
C878 H862 0.931 . S
C878 C872 1.383 . S
C878 C877 1.379 . S
H879 C873 0.959 . S
H880 C873 0.961 . S
H881 C873 0.960 . S
H882 C874 0.930 . S
H883 C875 0.929 . S
H884 C892 0.929 . S
H885 C894 0.930 . S
H886 C896 0.930 . S
H887 C899 0.929 . S
H888 C902 0.930 . S
H889 C904 0.960 . S
H890 C904 0.960 . S
H891 C904 0.960 . S
C892 H884 0.929 . S
C892 C893 1.377 . S
C892 C894 1.384 . S
C893 C892 1.377 . S
C893 C899 1.390 . S
C894 H885 0.930 . S
C894 C892 1.384 . S
C894 C895 1.372 . S
C895 C894 1.372 . S
C895 C896 1.400 . S
C895 C900 1.490 . S
C896 H886 0.930 . S
C896 C895 1.400 . S
C896 C899 1.386 . S
H897 C913 0.930 . S
H898 C914 0.931 . S
C899 H887 0.929 . S
C899 C893 1.390 . S
C899 C896 1.386 . S
C900 C895 1.490 . S
C900 C902 1.395 . S
C900 C903 1.403 . S
H901 C907 0.930 . S
C902 H888 0.930 . S
C902 C900 1.395 . S
C902 C905 1.403 . S
C903 C900 1.403 . S
C903 C904 1.524 . S
C903 C907 1.400 . S
C904 H889 0.960 . S
C904 H890 0.960 . S
C904 H891 0.960 . S
C904 C903 1.524 . S
C905 C902 1.403 . S
C905 C906 1.392 . S
C905 C909 1.495 . S
C906 C905 1.392 . S
C906 C907 1.385 . S
C906 C908 1.478 . S
C907 H901 0.930 . S
C907 C903 1.400 . S
C907 C906 1.385 . S
C908 C906 1.478 . S
C908 C910 1.381 . S
C908 C914 1.383 . S
C909 C905 1.495 . S
C909 H915 0.959 . S
C909 H916 0.961 . S
C909 H917 0.960 . S
C910 C908 1.381 . S
C910 C911 1.394 . S
C910 H918 0.930 . S
C911 C910 1.394 . S
C911 C912 1.383 . S
C911 H919 0.929 . S
C912 C911 1.383 . S
C912 C913 1.377 . S
C913 H897 0.930 . S
C913 C912 1.377 . S
C913 C914 1.379 . S
C914 H898 0.931 . S
C914 C908 1.383 . S
C914 C913 1.379 . S
H915 C909 0.959 . S
H916 C909 0.961 . S
H917 C909 0.960 . S
H918 C910 0.930 . S
H919 C911 0.929 . S
H920 C928 0.929 . S
H921 C930 0.930 . S
H922 C932 0.930 . S
H923 C935 0.929 . S
H924 C938 0.930 . S
H925 C940 0.960 . S
H926 C940 0.960 . S
H927 C940 0.960 . S
C928 H920 0.929 . S
C928 C929 1.377 . S
C928 C930 1.384 . S
C929 C928 1.377 . S
C929 C935 1.390 . S
C930 H921 0.930 . S
C930 C928 1.384 . S
C930 C931 1.372 . S
C931 C930 1.372 . S
C931 C932 1.400 . S
C931 C936 1.490 . S
C932 H922 0.930 . S
C932 C931 1.400 . S
C932 C935 1.386 . S
H933 C949 0.930 . S
H934 C950 0.931 . S
C935 H923 0.929 . S
C935 C929 1.390 . S
C935 C932 1.386 . S
C936 C931 1.490 . S
C936 C938 1.395 . S
C936 C939 1.403 . S
H937 C943 0.930 . S
C938 H924 0.930 . S
C938 C936 1.395 . S
C938 C941 1.403 . S
C939 C936 1.403 . S
C939 C940 1.524 . S
C939 C943 1.400 . S
C940 H925 0.960 . S
C940 H926 0.960 . S
C940 H927 0.960 . S
C940 C939 1.524 . S
C941 C938 1.403 . S
C941 C942 1.392 . S
C941 C945 1.495 . S
C942 C941 1.392 . S
C942 C943 1.385 . S
C942 C944 1.478 . S
C943 H937 0.930 . S
C943 C939 1.400 . S
C943 C942 1.385 . S
C944 C942 1.478 . S
C944 C946 1.381 . S
C944 C950 1.383 . S
C945 C941 1.495 . S
C945 H951 0.959 . S
C945 H952 0.961 . S
C945 H953 0.960 . S
C946 C944 1.381 . S
C946 C947 1.394 . S
C946 H954 0.930 . S
C947 C946 1.394 . S
C947 C948 1.383 . S
C947 H955 0.929 . S
C948 C947 1.383 . S
C948 C949 1.377 . S
C949 H933 0.930 . S
C949 C948 1.377 . S
C949 C950 1.379 . S
C950 H934 0.931 . S
C950 C944 1.383 . S
C950 C949 1.379 . S
H951 C945 0.959 . S
H952 C945 0.961 . S
H953 C945 0.960 . S
H954 C946 0.930 . S
H955 C947 0.929 . S
H956 C964 0.929 . S
H957 C966 0.930 . S
H958 C968 0.930 . S
H959 C971 0.929 . S
H960 C974 0.930 . S
H961 C976 0.960 . S
H962 C976 0.960 . S
H963 C976 0.960 . S
C964 H956 0.929 . S
C964 C965 1.377 . S
C964 C966 1.384 . S
C965 C964 1.377 . S
C965 C971 1.390 . S
C966 H957 0.930 . S
C966 C964 1.384 . S
C966 C967 1.372 . S
C967 C966 1.372 . S
C967 C968 1.400 . S
C967 C972 1.490 . S
C968 H958 0.930 . S
C968 C967 1.400 . S
C968 C971 1.386 . S
H969 C985 0.930 . S
H970 C986 0.931 . S
C971 H959 0.929 . S
C971 C965 1.390 . S
C971 C968 1.386 . S
C972 C967 1.490 . S
C972 C974 1.395 . S
C972 C975 1.403 . S
H973 C979 0.930 . S
C974 H960 0.930 . S
C974 C972 1.395 . S
C974 C977 1.403 . S
C975 C972 1.403 . S
C975 C976 1.524 . S
C975 C979 1.400 . S
C976 H961 0.960 . S
C976 H962 0.960 . S
C976 H963 0.960 . S
C976 C975 1.524 . S
C977 C974 1.403 . S
C977 C978 1.392 . S
C977 C981 1.495 . S
C978 C977 1.392 . S
C978 C979 1.385 . S
C978 C980 1.478 . S
C979 H973 0.930 . S
C979 C975 1.400 . S
C979 C978 1.385 . S
C980 C978 1.478 . S
C980 C982 1.381 . S
C980 C986 1.383 . S
C981 C977 1.495 . S
C981 H987 0.959 . S
C981 H988 0.961 . S
C981 H989 0.960 . S
C982 C980 1.381 . S
C982 C983 1.394 . S
C982 H990 0.930 . S
C983 C982 1.394 . S
C983 C984 1.383 . S
C983 H991 0.929 . S
C984 C983 1.383 . S
C984 C985 1.377 . S
C985 H969 0.930 . S
C985 C984 1.377 . S
C985 C986 1.379 . S
C986 H970 0.931 . S
C986 C980 1.383 . S
C986 C985 1.379 . S
H987 C981 0.959 . S
H988 C981 0.961 . S
H989 C981 0.960 . S
H990 C982 0.930 . S
H991 C983 0.929 . S
H992 C1000 0.929 . S
H993 C1002 0.930 . S
H994 C1004 0.930 . S
H995 C1007 0.929 . S
H996 C1010 0.930 . S
H997 C1012 0.960 . S
H998 C1012 0.960 . S
H999 C1012 0.960 . S
C1000 H992 0.929 . S
C1000 C1001 1.377 . S
C1000 C1002 1.384 . S
C1001 C1000 1.377 . S
C1001 C1007 1.390 . S
C1002 H993 0.930 . S
C1002 C1000 1.384 . S
C1002 C1003 1.372 . S
C1003 C1002 1.372 . S
C1003 C1004 1.400 . S
C1003 C1008 1.490 . S
C1004 H994 0.930 . S
C1004 C1003 1.400 . S
C1004 C1007 1.386 . S
H1005 C1021 0.930 . S
H1006 C1022 0.931 . S
C1007 H995 0.929 . S
C1007 C1001 1.390 . S
C1007 C1004 1.386 . S
C1008 C1003 1.490 . S
C1008 C1010 1.395 . S
C1008 C1011 1.403 . S
H1009 C1015 0.930 . S
C1010 H996 0.930 . S
C1010 C1008 1.395 . S
C1010 C1013 1.403 . S
C1011 C1008 1.403 . S
C1011 C1012 1.524 . S
C1011 C1015 1.400 . S
C1012 H997 0.960 . S
C1012 H998 0.960 . S
C1012 H999 0.960 . S
C1012 C1011 1.524 . S
C1013 C1010 1.403 . S
C1013 C1014 1.392 . S
C1013 C1017 1.495 . S
C1014 C1013 1.392 . S
C1014 C1015 1.385 . S
C1014 C1016 1.478 . S
C1015 H1009 0.930 . S
C1015 C1011 1.400 . S
C1015 C1014 1.385 . S
C1016 C1014 1.478 . S
C1016 C1018 1.381 . S
C1016 C1022 1.383 . S
C1017 C1013 1.495 . S
C1017 H1023 0.959 . S
C1017 H1024 0.961 . S
C1017 H1025 0.960 . S
C1018 C1016 1.381 . S
C1018 C1019 1.394 . S
C1018 H1026 0.930 . S
C1019 C1018 1.394 . S
C1019 C1020 1.383 . S
C1019 H1027 0.929 . S
C1020 C1019 1.383 . S
C1020 C1021 1.377 . S
C1021 H1005 0.930 . S
C1021 C1020 1.377 . S
C1021 C1022 1.379 . S
C1022 H1006 0.931 . S
C1022 C1016 1.383 . S
C1022 C1021 1.379 . S
H1023 C1017 0.959 . S
H1024 C1017 0.961 . S
H1025 C1017 0.960 . S
H1026 C1018 0.930 . S
H1027 C1019 0.929 . S
H1028 C1036 0.929 . S
H1029 C1038 0.930 . S
H1030 C1040 0.930 . S
H1031 C1043 0.929 . S
H1032 C1046 0.930 . S
H1033 C1048 0.960 . S
H1034 C1048 0.960 . S
H1035 C1048 0.960 . S
C1036 H1028 0.929 . S
C1036 C1037 1.377 . S
C1036 C1038 1.384 . S
C1037 C1036 1.377 . S
C1037 C1043 1.390 . S
C1038 H1029 0.930 . S
C1038 C1036 1.384 . S
C1038 C1039 1.372 . S
C1039 C1038 1.372 . S
C1039 C1040 1.400 . S
C1039 C1044 1.490 . S
C1040 H1030 0.930 . S
C1040 C1039 1.400 . S
C1040 C1043 1.386 . S
H1041 C1057 0.930 . S
H1042 C1058 0.931 . S
C1043 H1031 0.929 . S
C1043 C1037 1.390 . S
C1043 C1040 1.386 . S
C1044 C1039 1.490 . S
C1044 C1046 1.395 . S
C1044 C1047 1.403 . S
H1045 C1051 0.930 . S
C1046 H1032 0.930 . S
C1046 C1044 1.395 . S
C1046 C1049 1.403 . S
C1047 C1044 1.403 . S
C1047 C1048 1.524 . S
C1047 C1051 1.400 . S
C1048 H1033 0.960 . S
C1048 H1034 0.960 . S
C1048 H1035 0.960 . S
C1048 C1047 1.524 . S
C1049 C1046 1.403 . S
C1049 C1050 1.392 . S
C1049 C1053 1.495 . S
C1050 C1049 1.392 . S
C1050 C1051 1.385 . S
C1050 C1052 1.478 . S
C1051 H1045 0.930 . S
C1051 C1047 1.400 . S
C1051 C1050 1.385 . S
C1052 C1050 1.478 . S
C1052 C1054 1.381 . S
C1052 C1058 1.383 . S
C1053 C1049 1.495 . S
C1053 H1059 0.959 . S
C1053 H1060 0.961 . S
C1053 H1061 0.960 . S
C1054 C1052 1.381 . S
C1054 C1055 1.394 . S
C1054 H1062 0.930 . S
C1055 C1054 1.394 . S
C1055 C1056 1.383 . S
C1055 H1063 0.929 . S
C1056 C1055 1.383 . S
C1056 C1057 1.377 . S
C1057 H1041 0.930 . S
C1057 C1056 1.377 . S
C1057 C1058 1.379 . S
C1058 H1042 0.931 . S
C1058 C1052 1.383 . S
C1058 C1057 1.379 . S
H1059 C1053 0.959 . S
H1060 C1053 0.961 . S
H1061 C1053 0.960 . S
H1062 C1054 0.930 . S
H1063 C1055 0.929 . S
H1064 C1072 0.929 . S
H1065 C1074 0.930 . S
H1066 C1076 0.930 . S
H1067 C1079 0.929 . S
H1068 C1082 0.930 . S
H1069 C1084 0.960 . S
H1070 C1084 0.960 . S
H1071 C1084 0.960 . S
C1072 H1064 0.929 . S
C1072 C1073 1.377 . S
C1072 C1074 1.384 . S
C1073 C1072 1.377 . S
C1073 C1079 1.390 . S
C1074 H1065 0.930 . S
C1074 C1072 1.384 . S
C1074 C1075 1.372 . S
C1075 C1074 1.372 . S
C1075 C1076 1.400 . S
C1075 C1080 1.490 . S
C1076 H1066 0.930 . S
C1076 C1075 1.400 . S
C1076 C1079 1.386 . S
H1077 C1093 0.930 . S
H1078 C1094 0.931 . S
C1079 H1067 0.929 . S
C1079 C1073 1.390 . S
C1079 C1076 1.386 . S
C1080 C1075 1.490 . S
C1080 C1082 1.395 . S
C1080 C1083 1.403 . S
H1081 C1087 0.930 . S
C1082 H1068 0.930 . S
C1082 C1080 1.395 . S
C1082 C1085 1.403 . S
C1083 C1080 1.403 . S
C1083 C1084 1.524 . S
C1083 C1087 1.400 . S
C1084 H1069 0.960 . S
C1084 H1070 0.960 . S
C1084 H1071 0.960 . S
C1084 C1083 1.524 . S
C1085 C1082 1.403 . S
C1085 C1086 1.392 . S
C1085 C1089 1.495 . S
C1086 C1085 1.392 . S
C1086 C1087 1.385 . S
C1086 C1088 1.478 . S
C1087 H1081 0.930 . S
C1087 C1083 1.400 . S
C1087 C1086 1.385 . S
C1088 C1086 1.478 . S
C1088 C1090 1.381 . S
C1088 C1094 1.383 . S
C1089 C1085 1.495 . S
C1089 H1095 0.959 . S
C1089 H1096 0.961 . S
C1089 H1097 0.960 . S
C1090 C1088 1.381 . S
C1090 C1091 1.394 . S
C1090 H1098 0.930 . S
C1091 C1090 1.394 . S
C1091 C1092 1.383 . S
C1091 H1099 0.929 . S
C1092 C1091 1.383 . S
C1092 C1093 1.377 . S
C1093 H1077 0.930 . S
C1093 C1092 1.377 . S
C1093 C1094 1.379 . S
C1094 H1078 0.931 . S
C1094 C1088 1.383 . S
C1094 C1093 1.379 . S
H1095 C1089 0.959 . S
H1096 C1089 0.961 . S
H1097 C1089 0.960 . S
H1098 C1090 0.930 . S
H1099 C1091 0.929 . S
C245 C116 1.431 . S
C264 C168 1.339 . S
C300 C176 1.337 . S
C281 C135 1.431 . S
C336 C180 1.348 . S
C317 C78 1.428 . S
C353 C97 1.439 . S
C372 C156 1.391 . S
C408 C197 1.402 . S
C389 C40 1.429 . S
C444 C231 1.409 . S
C425 C59 1.429 . S
C461 C2 1.428 . S
C480 C219 1.403 . S
C497 C21 1.431 . S
C516 C201 1.369 . S
C552 C155 1.446 . S
C533 C25 1.549 . S
C588 C189 1.380 . S
C569 C6 1.552 . S
C624 C193 1.450 . S
C605 C63 1.547 . S
C660 C171 1.374 . S
C641 C44 1.551 . S
C696 C210 1.459 . S
C677 C101 1.553 . S
C713 C82 1.552 . S
C732 C218 1.454 . S
C768 C234 1.454 . S
C749 C139 1.551 . S
C785 C120 1.551 . S
C804 C214 1.450 . S
C840 C159 1.406 . S
C821 C11 1.404 . S
C876 C177 1.397 . S
C857 C30 1.400 . S
C893 C49 1.396 . S
C912 C192 1.392 . S
C948 C172 1.379 . S
C929 C68 1.399 . S
C984 C198 1.417 . S
C965 C87 1.435 . S
C1001 C106 1.442 . S
C1020 C222 1.382 . S
C1037 C125 1.421 . S
C1056 C235 1.428 . S
C1073 C144 1.434 . S
C1092 C213 1.371 . S
