# Generated by pormake.
# Topology pyr, (3,6)-cn, num edge types: 1
# Building blocks:
#     Node 0, Type 0, BuildingBlock: MIDCAF_clean_linker_0, # of connection points: 3
#     Node 1, Type 0, BuildingBlock: MIDCAF_clean_linker_0, # of connection points: 3
#     Node 2, Type 0, BuildingBlock: MIDCAF_clean_linker_0, # of connection points: 3
#     Node 3, Type 0, BuildingBlock: MIDCAF_clean_linker_0, # of connection points: 3
#     Node 4, Type 0, BuildingBlock: MIDCAF_clean_linker_0, # of connection points: 3
#     Node 5, Type 0, BuildingBlock: MIDCAF_clean_linker_0, # of connection points: 3
#     Node 6, Type 0, BuildingBlock: MIDCAF_clean_linker_0, # of connection points: 3
#     Node 7, Type 0, BuildingBlock: MIDCAF_clean_linker_0, # of connection points: 3
#     Node 8, Type 1, BuildingBlock: VOLQOD_clean_sbu_1, # of connection points: 6
#     Node 9, Type 1, BuildingBlock: VOLQOD_clean_sbu_1, # of connection points: 6
#     Node 10, Type 1, BuildingBlock: VOLQOD_clean_sbu_1, # of connection points: 6
#     Node 11, Type 1, BuildingBlock: VOLQOD_clean_sbu_1, # of connection points: 6
#     Edge 12, Type (0, 1), BuildingBlock: CIFDUS_clean_linker_0, # of connection points: 2
#     Edge 13, Type (0, 1), BuildingBlock: CIFDUS_clean_linker_0, # of connection points: 2
#     Edge 14, Type (0, 1), BuildingBlock: CIFDUS_clean_linker_0, # of connection points: 2
#     Edge 15, Type (0, 1), BuildingBlock: CIFDUS_clean_linker_0, # of connection points: 2
#     Edge 16, Type (0, 1), BuildingBlock: CIFDUS_clean_linker_0, # of connection points: 2
#     Edge 17, Type (0, 1), BuildingBlock: CIFDUS_clean_linker_0, # of connection points: 2
#     Edge 18, Type (0, 1), BuildingBlock: CIFDUS_clean_linker_0, # of connection points: 2
#     Edge 19, Type (0, 1), BuildingBlock: CIFDUS_clean_linker_0, # of connection points: 2
#     Edge 20, Type (0, 1), BuildingBlock: CIFDUS_clean_linker_0, # of connection points: 2
#     Edge 21, Type (0, 1), BuildingBlock: CIFDUS_clean_linker_0, # of connection points: 2
#     Edge 22, Type (0, 1), BuildingBlock: CIFDUS_clean_linker_0, # of connection points: 2
#     Edge 23, Type (0, 1), BuildingBlock: CIFDUS_clean_linker_0, # of connection points: 2
#     Edge 24, Type (0, 1), BuildingBlock: CIFDUS_clean_linker_0, # of connection points: 2
#     Edge 25, Type (0, 1), BuildingBlock: CIFDUS_clean_linker_0, # of connection points: 2
#     Edge 26, Type (0, 1), BuildingBlock: CIFDUS_clean_linker_0, # of connection points: 2
#     Edge 27, Type (0, 1), BuildingBlock: CIFDUS_clean_linker_0, # of connection points: 2
#     Edge 28, Type (0, 1), BuildingBlock: CIFDUS_clean_linker_0, # of connection points: 2
#     Edge 29, Type (0, 1), BuildingBlock: CIFDUS_clean_linker_0, # of connection points: 2
#     Edge 30, Type (0, 1), BuildingBlock: CIFDUS_clean_linker_0, # of connection points: 2
#     Edge 31, Type (0, 1), BuildingBlock: CIFDUS_clean_linker_0, # of connection points: 2
#     Edge 32, Type (0, 1), BuildingBlock: CIFDUS_clean_linker_0, # of connection points: 2
#     Edge 33, Type (0, 1), BuildingBlock: CIFDUS_clean_linker_0, # of connection points: 2
#     Edge 34, Type (0, 1), BuildingBlock: CIFDUS_clean_linker_0, # of connection points: 2
#     Edge 35, Type (0, 1), BuildingBlock: CIFDUS_clean_linker_0, # of connection points: 2
# Relax obj value: 0.035
# Max RMSD: 0.119
# Mean RMSD: 0.043
data_MOF--net-pry--node1-VOLQOD_clean_sbu_1--node2-MIDCAF_clean_linker_0--edge1-CIFDUS_clean_linker_0
_symmetry_space_group_name_H-M    P1
_symmetry_Int_Tables_number       1
_symmetry_cell_setting            triclinic
loop_
_symmetry_equiv_pos_as_xyz
'x, y, z'
_cell_length_a     40.752385
_cell_length_b     40.852814
_cell_length_c     41.044667
_cell_angle_alpha  90.130976
_cell_angle_beta   90.31352
_cell_angle_gamma 90.216816
loop_
_atom_site_label
_atom_site_type_symbol
_atom_site_fract_x
_atom_site_fract_y
_atom_site_fract_z
_atom_type_partial_charge
C0 C 0.05948 0.10038 0.22021 0.0
C1 C 0.064 0.06765 0.22945 0.0
C2 C 0.08036 0.04622 0.20837 0.0
C3 C 0.09354 0.05781 0.1792 0.0
H4 H 0.18756 0.0571 0.13855 0.0
H5 H 0.2409 0.03535 0.12495 0.0
H6 H 0.2393 0.08895 0.03421 0.0
H7 H 0.18625 0.11212 0.04874 0.0
H8 H 0.13461 0.17544 0.04637 0.0
H9 H 0.12046 0.22976 0.02646 0.0
H10 H 0.05941 0.24503 0.11091 0.0
H11 H 0.07248 0.19047 0.13009 0.0
H12 H 0.06902 0.13746 0.1848 0.0
H13 H 0.04684 0.11727 0.23616 0.0
H14 H 0.08425 0.02091 0.21516 0.0
H15 H 0.10707 0.04104 0.16389 0.0
N16 N 0.13405 0.08881 0.12988 0.0
N17 N 0.14141 0.13055 0.09143 0.0
N18 N 0.09755 0.13289 0.12816 0.0
C19 C 0.15142 0.10185 0.1049 0.0
C20 C 0.1144 0.14618 0.10294 0.0
C21 C 0.10702 0.10405 0.14152 0.0
C22 C 0.18261 0.08647 0.09478 0.0
C23 C 0.19836 0.06409 0.11553 0.0
C24 C 0.22902 0.0514 0.1076 0.0
C25 C 0.24461 0.0603 0.07843 0.0
C26 C 0.22839 0.08198 0.05717 0.0
C27 C 0.19784 0.0951 0.06537 0.0
C28 C 0.10475 0.17855 0.08986 0.0
C29 C 0.11798 0.19031 0.06056 0.0
C30 C 0.10999 0.22156 0.04924 0.0
C31 C 0.08887 0.24193 0.06712 0.0
C32 C 0.0753 0.22991 0.09617 0.0
C33 C 0.08298 0.19858 0.10729 0.0
C34 C 0.09004 0.09089 0.17042 0.0
C35 C 0.07209 0.11184 0.1908 0.0
C36 C 0.27807 0.94869 0.61423 0.0
C37 C 0.2609 0.92765 0.59299 0.0
C38 C 0.27539 0.89799 0.58365 0.0
C39 C 0.30628 0.88929 0.5956 0.0
H40 H 0.39112 0.83502 0.5721 0.0
H41 H 0.41615 0.78533 0.55115 0.0
H42 H 0.47015 0.77436 0.64141 0.0
H43 H 0.44614 0.82477 0.66179 0.0
H44 H 0.45658 0.89636 0.70038 0.0
H45 H 0.47657 0.91928 0.75148 0.0
H46 H 0.38483 0.97038 0.76391 0.0
H47 H 0.3651 0.94823 0.71222 0.0
H48 H 0.32124 0.95631 0.64327 0.0
H49 H 0.26734 0.97162 0.62196 0.0
H50 H 0.26278 0.88147 0.56707 0.0
H51 H 0.31653 0.86605 0.58811 0.0
N52 N 0.37141 0.87374 0.61862 0.0
N53 N 0.41209 0.87852 0.6589 0.0
N54 N 0.36767 0.91488 0.65835 0.0
C55 C 0.39991 0.86308 0.63209 0.0
C56 C 0.39622 0.90453 0.67212 0.0
C57 C 0.35514 0.89963 0.63154 0.0
C58 C 0.4165 0.83383 0.61869 0.0
C59 C 0.40851 0.82213 0.5874 0.0
C60 C 0.42273 0.79349 0.57545 0.0
C61 C 0.44499 0.77557 0.59466 0.0
C62 C 0.45347 0.78768 0.62571 0.0
C63 C 0.43955 0.81656 0.6375 0.0
C64 C 0.4091 0.92021 0.70223 0.0
C65 C 0.44068 0.91264 0.71385 0.0
C66 C 0.45212 0.92567 0.74329 0.0
C67 C 0.43219 0.9464 0.76203 0.0
C68 C 0.40096 0.95474 0.74997 0.0
C69 C 0.38958 0.94188 0.72037 0.0
C70 C 0.32322 0.90989 0.61751 0.0
C71 C 0.30885 0.93981 0.62654 0.0
C72 C 0.59778 0.28262 0.96329 0.0
C73 C 0.57653 0.26339 0.94398 0.0
C74 C 0.5674 0.27489 0.913 0.0
C75 C 0.5794 0.30469 0.90148 0.0
H76 H 0.57874 0.36229 0.82202 0.0
H77 H 0.55594 0.38227 0.77134 0.0
H78 H 0.59506 0.47869 0.79201 0.0
H79 H 0.61935 0.45806 0.84251 0.0
H80 H 0.68397 0.45595 0.89564 0.0
H81 H 0.73487 0.47764 0.9187 0.0
H82 H 0.7426 0.39277 0.98089 0.0
H83 H 0.69145 0.3717 0.95882 0.0
H84 H 0.6265 0.32645 0.96706 0.0
H85 H 0.60491 0.27475 0.98748 0.0
H86 H 0.55155 0.2605 0.89722 0.0
H87 H 0.57211 0.31249 0.8773 0.0
N88 N 0.60204 0.36779 0.88 0.0
N89 N 0.6406 0.41052 0.88227 0.0
N90 N 0.64062 0.36953 0.92234 0.0
C91 C 0.61466 0.3957 0.86722 0.0
C92 C 0.6538 0.39743 0.90988 0.0
C93 C 0.61468 0.35464 0.90759 0.0
C94 C 0.60081 0.40862 0.83642 0.0
C95 C 0.58246 0.38782 0.8159 0.0
C96 C 0.56911 0.39938 0.78682 0.0
C97 C 0.57325 0.43224 0.77758 0.0
C98 C 0.59164 0.45315 0.79812 0.0
C99 C 0.60546 0.44139 0.82714 0.0
C100 C 0.68358 0.41197 0.92519 0.0
C101 C 0.69637 0.44206 0.91444 0.0
C102 C 0.72569 0.45442 0.92756 0.0
C103 C 0.74303 0.43689 0.95156 0.0
C104 C 0.72977 0.40722 0.96282 0.0
C105 C 0.7004 0.395 0.94992 0.0
C106 C 0.60109 0.32365 0.92053 0.0
C107 C 0.61004 0.31235 0.95164 0.0
C108 C 0.78785 0.60765 0.44808 0.0
C109 C 0.77934 0.57458 0.44322 0.0
C110 C 0.80235 0.5536 0.42872 0.0
C111 C 0.83224 0.56578 0.41749 0.0
H112 H 0.89533 0.54783 0.34106 0.0
H113 H 0.91147 0.52292 0.28962 0.0
H114 H 0.96194 0.61215 0.26313 0.0
H115 H 0.94683 0.6366 0.31477 0.0
H116 H 0.94874 0.69544 0.36245 0.0
H117 H 0.96629 0.75106 0.37529 0.0
H118 H 0.90901 0.74882 0.46344 0.0
H119 H 0.89146 0.69305 0.45087 0.0
H120 H 0.82318 0.64562 0.44014 0.0
H121 H 0.77065 0.6246 0.45885 0.0
H122 H 0.79696 0.52783 0.42534 0.0
H123 H 0.84892 0.54917 0.40543 0.0
N124 N 0.88266 0.59692 0.37908 0.0
N125 N 0.91929 0.64039 0.37092 0.0
N126 N 0.88134 0.6427 0.41359 0.0
C127 C 0.90758 0.61052 0.36195 0.0
C128 C 0.90652 0.65653 0.39689 0.0
C129 C 0.8694 0.61282 0.4049 0.0
C130 C 0.91969 0.59429 0.33205 0.0
C131 C 0.91018 0.56202 0.32441 0.0
C132 C 0.91926 0.54777 0.29482 0.0
C133 C 0.93789 0.56553 0.27214 0.0
C134 C 0.94804 0.59751 0.28019 0.0
C135 C 0.93921 0.61164 0.30984 0.0
C136 C 0.91854 0.68974 0.40556 0.0
C137 C 0.94 0.70663 0.38471 0.0
C138 C 0.94995 0.73859 0.39193 0.0
C139 C 0.93891 0.75429 0.42027 0.0
C140 C 0.9181 0.73721 0.44153 0.0
C141 C 0.90792 0.70532 0.4342 0.0
C142 C 0.84002 0.59914 0.42091 0.0
C143 C 0.81797 0.61976 0.43722 0.0
C144 C 0.79117 0.94807 0.90683 0.0
C145 C 0.78054 0.93678 0.93731 0.0
C146 C 0.80255 0.91968 0.95736 0.0
C147 C 0.83419 0.91267 0.9465 0.0
H148 H 0.90161 0.83674 0.95473 0.0
H149 H 0.91974 0.7815 0.96843 0.0
H150 H 0.98436 0.78178 0.88547 0.0
H151 H 0.96653 0.83676 0.87163 0.0
H152 H 0.96342 0.88967 0.82191 0.0
H153 H 0.98328 0.9115 0.77106 0.0
H154 H 0.92472 0.99843 0.78493 0.0
H155 H 0.90353 0.9757 0.83566 0.0
H156 H 0.83015 0.94981 0.87218 0.0
H157 H 0.7747 0.96158 0.89107 0.0
H158 H 0.79488 0.91065 0.98093 0.0
H159 H 0.85028 0.89853 0.9621 0.0
N160 N 0.89099 0.88497 0.91469 0.0
N161 N 0.9319 0.88845 0.87509 0.0
N162 N 0.89008 0.92761 0.87639 0.0
C163 C 0.91871 0.87288 0.90107 0.0
C164 C 0.91798 0.91588 0.86271 0.0
C165 C 0.87656 0.91233 0.90255 0.0
C166 C 0.93234 0.84113 0.91189 0.0
C167 C 0.91997 0.82521 0.93961 0.0
C168 C 0.93041 0.79365 0.94756 0.0
C169 C 0.95316 0.77735 0.92777 0.0
C170 C 0.96646 0.79368 0.90085 0.0
C171 C 0.95631 0.82528 0.89308 0.0
C172 C 0.93173 0.93086 0.8329 0.0
C173 C 0.95488 0.91358 0.8144 0.0
C174 C 0.96653 0.92627 0.78519 0.0
C175 C 0.95577 0.95685 0.77381 0.0
C176 C 0.93321 0.97459 0.7927 0.0
C177 C 0.92118 0.96165 0.82188 0.0
C178 C 0.84456 0.92305 0.91556 0.0
C179 C 0.82298 0.94152 0.89616 0.0
C180 C 0.57784 0.04141 0.32218 0.0
C181 C 0.55 0.05455 0.30683 0.0
C182 C 0.53201 0.07889 0.32299 0.0
C183 C 0.54274 0.09112 0.35312 0.0
H184 H 0.52581 0.16563 0.42231 0.0
H185 H 0.5065 0.21978 0.43928 0.0
H186 H 0.59556 0.23439 0.49479 0.0
H187 H 0.61485 0.18069 0.47841 0.0
H188 H 0.66859 0.13094 0.47981 0.0
H189 H 0.72434 0.11733 0.49547 0.0
H190 H 0.72027 0.0313 0.43412 0.0
H191 H 0.66459 0.04543 0.41754 0.0
H192 H 0.61059 0.04328 0.36286 0.0
H193 H 0.59189 0.02227 0.3105 0.0
H194 H 0.5105 0.08954 0.31165 0.0
H195 H 0.529 0.11074 0.36435 0.0
N196 N 0.57131 0.12175 0.41063 0.0
N197 N 0.61464 0.12649 0.44815 0.0
N198 N 0.61451 0.0839 0.41 0.0
C199 C 0.58571 0.1377 0.43612 0.0
C200 C 0.62917 0.09959 0.4354 0.0
C201 C 0.58553 0.09469 0.3975 0.0
C202 C 0.57204 0.16885 0.4487 0.0
C203 C 0.5411 0.18022 0.43845 0.0
C204 C 0.52995 0.2111 0.44824 0.0
C205 C 0.54973 0.23123 0.46806 0.0
C206 C 0.58002 0.21942 0.47922 0.0
C207 C 0.59097 0.18855 0.46985 0.0
C208 C 0.66205 0.08942 0.44719 0.0
C209 C 0.67937 0.10894 0.46978 0.0
C210 C 0.71139 0.10104 0.47895 0.0
C211 C 0.7269 0.07328 0.46598 0.0
C212 C 0.70927 0.05317 0.44415 0.0
C213 C 0.67723 0.06118 0.4348 0.0
C214 C 0.5716 0.07911 0.36775 0.0
C215 C 0.58847 0.05345 0.3523 0.0
C216 C 0.31185 0.53248 0.07618 0.0
C217 C 0.29503 0.55174 0.0533 0.0
C218 C 0.30947 0.58104 0.04257 0.0
C219 C 0.33948 0.59159 0.05548 0.0
H220 H 0.3977 0.67322 0.06237 0.0
H221 H 0.41899 0.72746 0.04905 0.0
H222 H 0.50817 0.70658 0.10202 0.0
H223 H 0.48677 0.65232 0.11603 0.0
H224 H 0.4751 0.60203 0.17883 0.0
H225 H 0.48571 0.58645 0.23523 0.0
H226 H 0.39852 0.52612 0.23452 0.0
H227 H 0.3877 0.54158 0.17822 0.0
H228 H 0.35353 0.52822 0.10772 0.0
H229 H 0.30118 0.50988 0.08502 0.0
H230 H 0.29715 0.59619 0.02469 0.0
H231 H 0.34941 0.61477 0.04732 0.0
N232 N 0.40025 0.61373 0.08497 0.0
N233 N 0.43656 0.61317 0.12949 0.0
N234 N 0.39583 0.57277 0.12457 0.0
C235 C 0.42611 0.62713 0.10129 0.0
C236 C 0.4215 0.58599 0.14133 0.0
C237 C 0.38521 0.58631 0.09625 0.0
C238 C 0.4405 0.65852 0.09039 0.0
C239 C 0.42202 0.67995 0.07088 0.0
C240 C 0.43407 0.71105 0.06338 0.0
C241 C 0.46507 0.72108 0.07468 0.0
C242 C 0.48421 0.69927 0.093 0.0
C243 C 0.4719 0.66834 0.10107 0.0
C244 C 0.43038 0.57332 0.17401 0.0
C245 C 0.45838 0.58512 0.19051 0.0
C246 C 0.46457 0.57611 0.22278 0.0
C247 C 0.44276 0.55534 0.23929 0.0
C248 C 0.4155 0.54251 0.22247 0.0
C249 C 0.40946 0.55125 0.19012 0.0
C250 C 0.35555 0.57319 0.07966 0.0
C251 C 0.34174 0.54315 0.08933 0.0
C252 C 0.0867 0.30072 0.56289 0.0
C253 C 0.05353 0.29325 0.5689 0.0
C254 C 0.03366 0.31727 0.58332 0.0
C255 C 0.04694 0.34751 0.5926 0.0
H256 H 0.04832 0.40199 0.67893 0.0
H257 H 0.03089 0.42309 0.73166 0.0
H258 H 0.09135 0.50886 0.71838 0.0
H259 H 0.10949 0.48764 0.66564 0.0
H260 H 0.18476 0.45663 0.64019 0.0
H261 H 0.24231 0.46707 0.62794 0.0
H262 H 0.23178 0.41487 0.53694 0.0
H263 H 0.17408 0.40396 0.5492 0.0
H264 H 0.12569 0.33553 0.56755 0.0
H265 H 0.10299 0.28271 0.55242 0.0
H266 H 0.0079 0.31264 0.58777 0.0
H267 H 0.03115 0.36519 0.60433 0.0
N268 N 0.08033 0.4015 0.62477 0.0
N269 N 0.12538 0.43709 0.62892 0.0
N270 N 0.12554 0.39467 0.59037 0.0
C271 C 0.09515 0.42768 0.63908 0.0
C272 C 0.14068 0.42082 0.60447 0.0
C273 C 0.09526 0.38497 0.60029 0.0
C274 C 0.08058 0.443 0.66824 0.0
C275 C 0.05747 0.42565 0.68684 0.0
C276 C 0.04754 0.4376 0.71705 0.0
C277 C 0.05999 0.4674 0.72891 0.0
C278 C 0.0814 0.48584 0.70954 0.0
C279 C 0.09184 0.47361 0.67952 0.0
C280 C 0.17482 0.42937 0.59569 0.0
C281 C 0.19453 0.44758 0.61741 0.0
C282 C 0.22755 0.45338 0.61056 0.0
C283 C 0.24141 0.44157 0.58164 0.0
C284 C 0.22157 0.42427 0.55939 0.0
C285 C 0.18863 0.41798 0.56648 0.0
C286 C 0.0803 0.35454 0.58732 0.0
C287 C 0.09983 0.33107 0.57173 0.0
O288 O 0.99328 0.0954 0.52794 0.0
Zn289 Zn 0.97584 0.04881 0.52689 0.0
O290 O 0.00537 0.01966 0.50282 0.0
Zn291 Zn 0.98323 0.00296 0.46364 0.0
Zn292 Zn 0.04463 0.04363 0.49008 0.0
Zn293 Zn 0.01839 0.98316 0.53056 0.0
O294 O 0.98165 0.95373 0.464 0.0
O295 O 0.00257 0.94007 0.51214 0.0
O296 O 0.93089 0.04895 0.50628 0.0
O297 O 0.93634 0.01847 0.46176 0.0
O298 O 0.0058 0.0177 0.42244 0.0
O299 O 0.04916 0.04468 0.44164 0.0
O300 O 0.08595 0.0246 0.50954 0.0
O301 O 0.9701 0.03372 0.57321 0.0
O302 O 0.06743 0.98067 0.53535 0.0
O303 O 0.00034 0.98861 0.57569 0.0
C304 C 0.01991 0.10785 0.51742 0.0
C305 C 0.98926 0.93217 0.48507 0.0
C306 C 0.03199 0.03413 0.41784 0.0
C307 C 0.9189 0.03607 0.48052 0.0
C308 C 0.09105 0.99902 0.52648 0.0
C309 C 0.98161 0.00955 0.58903 0.0
O310 O 0.04139 0.09047 0.50326 0.0
O311 O 0.51857 0.06946 0.99441 0.0
Zn312 Zn 0.49535 0.02611 -0.00101 0.0
O313 O 0.51889 0.99734 0.02929 0.0
Zn314 Zn 0.53345 0.9582 0.00623 0.0
Zn315 Zn 0.55745 0.01994 0.04664 0.0
Zn316 Zn 0.48995 0.98492 0.06521 0.0
O317 O 0.51792 0.91719 0.02864 0.0
O318 O 0.48442 0.93591 0.06689 0.0
O319 O 0.49029 0.00509 0.95442 0.0
O320 O 0.5149 0.95716 0.96092 0.0
O321 O 0.58267 0.95691 0.00202 0.0
O322 O 0.5994 0.99801 0.03349 0.0
O323 O 0.55625 0.02215 0.09535 0.0
O324 O 0.44984 0.03559 0.01526 0.0
O325 O 0.50842 -7e-05 0.10887 0.0
O326 O 0.44501 0.00467 0.05947 0.0
C327 C 0.54367 0.08188 0.00843 0.0
C328 C 0.4976 0.91223 0.0516 0.0
C329 C 0.60559 0.97392 0.01485 0.0
C330 C 0.49888 0.97724 0.94335 0.0
C331 C 0.53538 0.01384 0.11678 0.0
C332 C 0.433 0.02476 0.03897 0.0
O333 O 0.56024 0.0658 0.0293 0.0
O334 O 0.53968 0.52326 0.58502 0.0
Zn335 Zn 0.53405 0.54121 0.53979 0.0
O336 O 0.50959 0.51023 0.51231 0.0
Zn337 Zn 0.53855 0.49429 0.47822 0.0
Zn338 Zn 0.49384 0.47339 0.53861 0.0
Zn339 Zn 0.4721 0.53212 0.49221 0.0
O340 O 0.52178 0.5061 0.43364 0.0
O341 O 0.47543 0.53271 0.44323 0.0
O342 O 0.57978 0.54914 0.52304 0.0
O343 O 0.58356 0.51373 0.48223 0.0
O344 O 0.54271 0.4455 0.48011 0.0
O345 O 0.50921 0.43014 0.51984 0.0
O346 O 0.44436 0.47211 0.54002 0.0
O347 O 0.51072 0.58459 0.54257 0.0
O348 O 0.4298 0.50971 0.50377 0.0
O349 O 0.46844 0.57845 0.50868 0.0
C350 C 0.52934 0.49767 0.5994 0.0
C351 C 0.49654 0.52131 0.42348 0.0
C352 C 0.52924 0.42322 0.49712 0.0
C353 C 0.59627 0.53561 0.5005 0.0
C354 C 0.42238 0.48722 0.52385 0.0
C355 C 0.48508 0.5958 0.52868 0.0
O356 O 0.51125 0.47672 0.58474 0.0
O357 O 0.98188 0.50234 0.0777 0.0
Zn358 Zn 0.98489 0.48412 0.0317 0.0
O359 O 0.01539 0.51027 0.00529 0.0
Zn360 Zn 0.99282 0.52751 0.96707 0.0
Zn361 Zn 0.03203 0.5469 0.03078 0.0
Zn362 Zn 0.05249 0.48356 0.99147 0.0
O363 O 0.01423 0.51291 0.92561 0.0
O364 O 0.05277 0.47861 0.94272 0.0
O365 O 0.93945 0.48271 0.01104 0.0
O366 O 0.94641 0.51107 0.96547 0.0
O367 O 0.99098 0.57668 0.96766 0.0
O368 O 0.015 0.58994 0.0145 0.0
O369 O 0.08106 0.54928 0.02968 0.0
O370 O 0.00136 0.43747 0.0357 0.0
O371 O 0.09607 0.50356 0.00474 0.0
O372 O 0.04945 0.43853 0.01047 0.0
C373 C 0.99812 0.52481 0.09228 0.0
C374 C 0.03697 0.49249 0.91978 0.0
C375 C -6e-05 0.59805 0.98854 0.0
C376 C 0.92834 0.49417 0.98429 0.0
C377 C 0.10329 0.53028 0.01918 0.0
C378 C 0.02767 0.42334 0.02671 0.0
O379 O 0.01871 0.54259 0.07721 0.0
H380 H 0.08329 0.09412 0.28629 0.0
H381 H 0.02403 0.01643 0.24575 0.0
H382 H 0.00864 0.9988 0.30079 0.0
H383 H 0.01198 0.00616 0.36051 0.0
H384 H 0.07398 0.08265 0.40012 0.0
H385 H 0.08851 0.09998 0.34538 0.0
C386 C 0.06685 0.07345 0.28962 0.0
C387 C 0.05438 0.05679 0.2623 0.0
C388 C 0.05878 0.06319 0.3211 0.0
C389 C 0.0337 0.02962 0.26664 0.0
C390 C 0.02496 0.0196 0.29801 0.0
C391 C 0.02871 0.02656 0.35711 0.0
C392 C 0.04177 0.04311 0.38439 0.0
C393 C 0.03733 0.03627 0.32545 0.0
C394 C 0.06366 0.06935 0.3796 0.0
C395 C 0.07191 0.07941 0.34829 0.0
H396 H 0.4654 0.91178 0.80788 0.0
H397 H 0.42385 0.00707 0.78973 0.0
H398 H 0.44078 0.02516 0.84413 0.0
H399 H 0.46709 0.01364 0.89709 0.0
H400 H 0.5096 0.91837 0.91392 0.0
H401 H 0.49311 0.90091 0.85955 0.0
C402 C 0.46047 0.9367 0.81554 0.0
C403 C 0.44342 0.95801 0.79464 0.0
C404 C 0.47049 0.947 0.84667 0.0
C405 C 0.43662 0.98999 0.80541 0.0
C406 C 0.44645 0.00042 0.83647 0.0
C407 C 0.47284 0.98909 0.88885 0.0
C408 C 0.48952 0.9674 0.90974 0.0
C409 C 0.46329 0.97907 0.85737 0.0
C410 C 0.4968 0.93568 0.89851 0.0
C411 C 0.48735 0.92558 0.86736 0.0
H412 H 0.59956 0.47625 0.7348 0.0
H413 H 0.51429 0.41509 0.74982 0.0
H414 H 0.49317 0.43 0.6963 0.0
H415 H 0.49985 0.45863 0.6442 0.0
H416 H 0.58323 0.52246 0.63055 0.0
H417 H 0.60363 0.50887 0.68487 0.0
C418 C 0.57605 0.46663 0.72674 0.0
C419 C 0.55892 0.44409 0.74628 0.0
C420 C 0.56363 0.47577 0.69609 0.0
C421 C 0.52857 0.43176 0.73505 0.0
C422 C 0.51628 0.44045 0.70448 0.0
C423 C 0.5224 0.46968 0.65319 0.0
C424 C 0.54012 0.49129 0.63326 0.0
C425 C 0.53385 0.46203 0.68459 0.0
C426 C 0.56908 0.50576 0.64541 0.0
C427 C 0.58084 0.49792 0.67644 0.0
H428 H 0.99473 0.57167 0.23829 0.0
H429 H 0.89825 0.52798 0.23271 0.0
H430 H 0.9094 0.5089 0.17748 0.0
H431 H 0.94503 0.50837 0.12912 0.0
H432 H 0.03985 0.55569 0.13412 0.0
H433 H 0.03061 0.56998 0.19095 0.0
C434 C 0.97604 0.55811 0.22498 0.0
C435 C 0.94563 0.55152 0.23963 0.0
C436 C 0.9822 0.54807 0.19294 0.0
C437 C 0.92203 0.53317 0.22224 0.0
C438 C 0.92826 0.52247 0.1905 0.0
C439 C 0.96376 0.52152 0.14278 0.0
C440 C 0.99296 0.53113 0.12734 0.0
C441 C 0.95806 0.53028 0.17539 0.0
C442 C 0.01699 0.54828 0.14531 0.0
C443 C 0.01178 0.55644 0.17785 0.0
H444 H 0.2949 0.09287 0.04867 0.0
H445 H 0.27003 -0.00039 0.09161 0.0
H446 H 0.32617 0.98096 0.08415 0.0
H447 H 0.3827 0.99134 0.06641 0.0
H448 H 0.40653 0.08272 0.01956 0.0
H449 H 0.35019 0.10161 0.027 0.0
C450 C 0.30145 0.06822 0.05585 0.0
C451 C 0.27813 0.04792 0.07108 0.0
C452 C 0.33368 0.0573 0.05086 0.0
C453 C 0.28751 0.01618 0.08057 0.0
C454 C 0.31962 0.00534 0.07613 0.0
C455 C 0.37553 0.0154 0.05788 0.0
C456 C 0.39875 0.03574 0.04276 0.0
C457 C 0.34299 0.02582 0.06164 0.0
C458 C 0.38905 0.06663 0.0313 0.0
C459 C 0.35688 0.07745 0.03558 0.0
H460 H 0.24037 0.98524 0.56686 0.0
H461 H 0.20666 0.8887 0.59315 0.0
H462 H 0.15126 0.90217 0.57467 0.0
H463 H 0.11236 0.94144 0.55169 0.0
H464 H 0.14597 0.03774 0.52401 0.0
H465 H 0.20143 0.0243 0.54237 0.0
C466 C 0.2208 0.96727 0.56862 0.0
C467 C 0.2275 0.93607 0.58136 0.0
C468 C 0.18905 0.9751 0.55769 0.0
C469 C 0.2021 0.9128 0.58317 0.0
C470 C 0.17043 0.92052 0.57273 0.0
C471 C 0.13178 0.95954 0.54965 0.0
C472 C 0.12493 0.99061 0.53661 0.0
C473 C 0.16362 0.95159 0.56001 0.0
C474 C 0.15052 0.01362 0.5339 0.0
C475 C 0.18225 0.00599 0.54447 0.0
H476 H 0.79184 0.46574 0.91666 0.0
H477 H 0.76777 0.43382 0.01387 0.0
H478 H 0.82282 0.4486 0.03264 0.0
H479 H 0.87844 0.46923 0.02109 0.0
H480 H 0.90122 0.50299 0.92413 0.0
H481 H 0.84586 0.48942 0.90595 0.0
C482 C 0.79831 0.46257 0.94211 0.0
C483 C 0.77561 0.44848 0.9637 0.0
C484 C 0.8299 0.47139 0.95285 0.0
C485 C 0.78485 0.44407 0.9965 0.0
C486 C 0.81632 0.45267 0.00733 0.0
C487 C 0.87127 0.47369 0.99601 0.0
C488 C 0.89411 0.48696 0.97404 0.0
C489 C 0.83919 0.466 0.98563 0.0
C490 C 0.88424 0.49283 0.94166 0.0
C491 C 0.85255 0.48502 0.93116 0.0
H492 H 0.74123 0.59068 0.4955 0.0
H493 H 0.74162 0.53191 0.40786 0.0
H494 H 0.6858 0.51388 0.41865 0.0
H495 H 0.63619 0.51631 0.45146 0.0
H496 H 0.63416 0.57694 0.53776 0.0
H497 H 0.69111 0.5932 0.52852 0.0
C498 C 0.72907 0.57406 0.47866 0.0
C499 C 0.74581 0.56258 0.45101 0.0
C500 C 0.69656 0.56432 0.48456 0.0
C501 C 0.72972 0.54067 0.42971 0.0
C502 C 0.69761 0.53057 0.43566 0.0
C503 C 0.64814 0.53303 0.46836 0.0
C504 C 0.63084 0.5454 0.49523 0.0
C505 C 0.68073 0.54243 0.46283 0.0
C506 C 0.64682 0.56711 0.51679 0.0
C507 C 0.67942 0.57639 0.51157 0.0
H508 H 0.03097 0.27533 0.07096 0.0
H509 H 0.13134 0.28547 0.03909 0.0
H510 H 0.12079 0.34177 0.02282 0.0
H511 H 0.08388 0.38865 0.01926 0.0
H512 H 0.98427 0.37981 0.05361 0.0
H513 H 0.99405 0.32264 0.06793 0.0
C514 C 0.05066 0.28989 0.06072 0.0
C515 C 0.08191 0.27598 0.05624 0.0
C516 C 0.04467 0.32258 0.05206 0.0
C517 C 0.10689 0.29519 0.04234 0.0
C518 C 0.10098 0.32755 0.03328 0.0
C519 C 0.06421 0.37427 0.0298 0.0
C520 C 0.03337 0.3886 0.03533 0.0
C521 C 0.07005 0.34154 0.03821 0.0
C522 C 0.00828 0.36951 0.04916 0.0
C523 C 0.01383 0.33677 0.05731 0.0
H524 H 0.61082 0.21759 0.97804 0.0
H525 H 0.51544 0.23625 0.93582 0.0
H526 H 0.49701 0.18174 0.95176 0.0
H527 H 0.50822 0.12845 0.97686 0.0
H528 H 0.60286 0.1108 0.02111 0.0
H529 H 0.62104 0.16556 0.00574 0.0
C530 C 0.58581 0.21002 0.97279 0.0
C531 C 0.56466 0.231 0.95556 0.0
C532 C 0.57521 0.1788 0.98236 0.0
C533 C 0.53248 0.22043 0.94853 0.0
C534 C 0.52183 0.18931 0.95779 0.0
C535 C 0.53282 0.13658 0.98315 0.0
C536 C 0.55418 0.11547 -6e-05 0.0
C537 C 0.54307 0.16819 0.97447 0.0
C538 C 0.58587 0.12654 0.00822 0.0
C539 C 0.59634 0.15784 -0.00061 0.0
H540 H 0.9602 0.78023 0.47775 0.0
H541 H 0.93843 0.80555 0.37799 0.0
H542 H 0.95254 0.86266 0.38911 0.0
H543 H 0.96998 0.90548 0.42731 0.0
H544 H 0.99235 0.88034 0.52711 0.0
H545 H 0.97895 0.8231 0.51584 0.0
C546 C 0.95845 0.79832 0.45852 0.0
C547 C 0.94827 0.78873 0.42712 0.0
C548 C 0.96664 0.83111 0.46508 0.0
C549 C 0.94652 0.8123 0.40228 0.0
C550 C 0.95441 0.84496 0.40866 0.0
C551 C 0.97195 0.88753 0.44664 0.0
C552 C 0.98202 0.89729 0.47805 0.0
C553 C 0.96437 0.85466 0.43999 0.0
C554 C 0.98467 0.87356 0.5027 0.0
C555 C 0.97696 0.8408 0.4963 0.0
H556 H 0.41302 0.72846 0.55953 0.0
H557 H 0.507 0.75091 0.60347 0.0
H558 H 0.52768 0.69745 0.58691 0.0
H559 H 0.51876 0.64389 0.56084 0.0
H560 H 0.42543 0.62275 0.51492 0.0
H561 H 0.4052 0.67654 0.53071 0.0
C562 C 0.43824 0.72202 0.56501 0.0
C563 C 0.45831 0.74378 0.5829 0.0
C564 C 0.45015 0.69144 0.55502 0.0
C565 C 0.49074 0.73452 0.59026 0.0
C566 C 0.50269 0.704 0.58061 0.0
C567 C 0.49402 0.65107 0.55419 0.0
C568 C 0.47362 0.62918 0.53686 0.0
C569 C 0.48252 0.68216 0.56321 0.0
C570 C 0.44172 0.63906 0.52822 0.0
C571 C 0.43006 0.66981 0.53732 0.0
H572 H 0.9202 0.99011 0.72803 0.0
H573 H 0.01684 0.9511 0.74688 0.0
H574 H 0.03324 0.96409 0.69143 0.0
H575 H 0.01928 0.9836 0.63666 0.0
H576 H 0.92433 0.02631 0.61863 0.0
H577 H 0.90834 0.01541 0.675 0.0
C578 C 0.94509 0.98509 0.72035 0.0
C579 C 0.96699 0.96902 0.74156 0.0
C580 C 0.95463 0.99313 0.68851 0.0
C581 C 0.9991 0.96257 0.73088 0.0
C582 C 0.00862 0.97015 0.69919 0.0
C583 C 0.99514 0.99062 0.64517 0.0
C584 C 0.97283 0.00529 0.62355 0.0
C585 C 0.98637 0.98478 0.67762 0.0
C586 C 0.94186 0.01489 0.63491 0.0
C587 C 0.93271 0.00859 0.66707 0.0
H588 H 0.59128 0.04937 0.25594 0.0
H589 H 0.48945 0.03845 0.28182 0.0
H590 H 0.47583 0.02381 0.22535 0.0
H591 H 0.49307 0.01507 0.16832 0.0
H592 H 0.59509 0.02802 0.14321 0.0
H593 H 0.60842 0.04057 0.19974 0.0
C594 C 0.56616 0.04337 0.24931 0.0
C595 C 0.54145 0.04469 0.27301 0.0
C596 C 0.55854 0.0354 0.21691 0.0
C597 C 0.50888 0.03764 0.26393 0.0
C598 C 0.50112 0.02921 0.23171 0.0
C599 C 0.51823 0.02046 0.17528 0.0
C600 C 0.54301 0.0206 0.15149 0.0
C601 C 0.52576 0.02815 0.20793 0.0
C602 C 0.57546 0.0279 0.16091 0.0
C603 C 0.58318 0.03504 0.19327 0.0
H604 H 0.49892 0.5373 0.27042 0.0
H605 H 0.39679 0.55868 0.28698 0.0
H606 H 0.40435 0.55006 0.3454 0.0
H607 H 0.44017 0.53757 0.39187 0.0
H608 H 0.54213 0.51492 0.37537 0.0
H609 H 0.53448 0.52307 0.31691 0.0
C610 C 0.47839 0.54008 0.28689 0.0
C611 C 0.44738 0.5486 0.27447 0.0
C612 C 0.48288 0.53499 0.32044 0.0
C613 C 0.42083 0.55179 0.29595 0.0
C614 C 0.42517 0.54706 0.32936 0.0
C615 C 0.46075 0.53448 0.3755 0.0
C616 C 0.4917 0.52584 0.38802 0.0
C617 C 0.45612 0.53883 0.34189 0.0
C618 C 0.51802 0.52154 0.3664 0.0
C619 C 0.51369 0.52624 0.33296 0.0
H620 H 0.07332 0.43307 0.78295 0.0
H621 H 0.03247 0.52438 0.75006 0.0
H622 H 0.0215 0.54042 0.80666 0.0
H623 H 0.02334 0.52788 0.86535 0.0
H624 H 0.0672 0.43749 0.89777 0.0
H625 H 0.0774 0.42165 0.84141 0.0
C626 C 0.06185 0.4564 0.78831 0.0
C627 C 0.05324 0.47742 0.76271 0.0
C628 C 0.05634 0.46558 0.82069 0.0
C629 C 0.03907 0.50787 0.76962 0.0
C630 C 0.03284 0.51696 0.80186 0.0
C631 C 0.03514 0.50473 0.86004 0.0
C632 C 0.04435 0.48381 0.88567 0.0
C633 C 0.04133 0.49595 0.82758 0.0
C634 C 0.05997 0.45407 0.87849 0.0
C635 C 0.06571 0.44493 0.84628 0.0
H636 H 0.7585 0.96094 0.99486 0.0
H637 H 0.72554 0.92252 0.90233 0.0
H638 H 0.66839 0.92876 0.91896 0.0
H639 H 0.62786 0.94591 0.95943 0.0
H640 H 0.66052 0.98742 0.05079 0.0
H641 H 0.71773 0.97889 0.03522 0.0
C642 C 0.73872 0.95388 0.97846 0.0
C643 C 0.74608 0.94136 0.94745 0.0
C644 C 0.70595 0.95794 0.98803 0.0
C645 C 0.72037 0.93254 0.92621 0.0
C646 C 0.68774 0.93593 0.93576 0.0
C647 C 0.64751 0.95276 0.97606 0.0
C648 C 0.64003 0.96702 0.00629 0.0
C649 C 0.68026 0.94865 0.96658 0.0
C650 C 0.66571 0.97635 0.02738 0.0
C651 C 0.69839 0.97153 0.01848 0.0
H652 H 0.77487 0.05141 0.42546 0.0
H653 H 0.75734 0.07943 0.52534 0.0
H654 H 0.81522 0.07126 0.53831 0.0
H655 H 0.87086 0.05667 0.52128 0.0
H656 H 0.88801 0.02631 0.42202 0.0
H657 H 0.83007 0.03447 0.40899 0.0
C658 C 0.78355 0.05524 0.4502 0.0
C659 C 0.76172 0.06619 0.47432 0.0
C660 C 0.81682 0.05018 0.45761 0.0
C661 C 0.77364 0.07152 0.50613 0.0
C662 C 0.80672 0.06671 0.51364 0.0
C663 C 0.86197 0.05194 0.49675 0.0
C664 C 0.8838 0.04111 0.47262 0.0
C665 C 0.82857 0.05629 0.48951 0.0
C666 C 0.87175 0.03468 0.44107 0.0
C667 C 0.83862 0.03935 0.43359 0.0
H668 H 0.24202 0.59108 0.0516 0.0
H669 H 0.2725 0.49198 0.03244 0.0
H670 H 0.21586 0.4767 0.01874 0.0
H671 H 0.15734 0.49131 0.01428 0.0
H672 H 0.12739 0.59033 0.03564 0.0
H673 H 0.18422 0.60589 0.04611 0.0
C674 C 0.23633 0.56626 0.04392 0.0
C675 C 0.26134 0.54273 0.04281 0.0
C676 C 0.2038 0.55762 0.03664 0.0
C677 C 0.25356 0.51048 0.03354 0.0
C678 C 0.22124 0.50177 0.02569 0.0
C679 C 0.16329 0.51633 0.02101 0.0
C680 C 0.13809 0.53957 0.02425 0.0
C681 C 0.19608 0.52508 0.02749 0.0
C682 C 0.14622 0.57186 0.03318 0.0
C683 C 0.17874 0.58084 0.03912 0.0
H684 H 0.26878 0.46664 0.52699 0.0
H685 H 0.2928 0.4283 0.6219 0.0
H686 H 0.3512 0.43763 0.61185 0.0
H687 H 0.39523 0.45784 0.57656 0.0
H688 H 0.37099 0.4989 0.48271 0.0
H689 H 0.31293 0.48721 0.49174 0.0
C690 C 0.28691 0.46017 0.54531 0.0
C691 C 0.27668 0.44682 0.57509 0.0
C692 C 0.32033 0.46611 0.53957 0.0
C693 C 0.30022 0.43884 0.59887 0.0
C694 C 0.33355 0.44407 0.5931 0.0
C695 C 0.37726 0.46401 0.55799 0.0
C696 C 0.38741 0.47913 0.52899 0.0
C697 C 0.34387 0.45785 0.56361 0.0
C698 C 0.36379 0.48734 0.50531 0.0
C699 C 0.33059 0.48065 0.51043 0.0
H700 H 0.97151 0.74994 0.98532 0.0
H701 H 0.95361 0.72738 0.88405 0.0
H702 H 0.96643 0.6699 0.8939 0.0
H703 H 0.98212 0.62605 0.93129 0.0
H704 H 0.00152 0.64847 0.03243 0.0
H705 H 0.98864 0.70597 0.02266 0.0
C706 C 0.97037 0.73234 0.96551 0.0
C707 C 0.96168 0.74277 0.93404 0.0
C708 C 0.97798 0.69937 0.97131 0.0
C709 C 0.96059 0.71991 0.90842 0.0
C710 C 0.96774 0.68705 0.91406 0.0
C711 C 0.98347 0.64348 0.95123 0.0
C712 C 0.99261 0.63294 0.98255 0.0
C713 C 0.97639 0.67651 0.9454 0.0
C714 C 0.99459 0.65594 0.00805 0.0
C715 C 0.98718 0.68882 0.00252 0.0
H716 H 0.43369 0.77692 0.08998 0.0
H717 H 0.5224 0.74049 0.04654 0.0
H718 H 0.54067 0.79669 0.03567 0.0
H719 H 0.53061 0.85609 0.0377 0.0
H720 H 0.44278 0.89215 0.08369 0.0
H721 H 0.42499 0.83617 0.09456 0.0
C722 C 0.45697 0.78141 0.07806 0.0
C723 C 0.47658 0.75486 0.06871 0.0
C724 C 0.46744 0.81362 0.07245 0.0
C725 C 0.50696 0.76073 0.05384 0.0
C726 C 0.51733 0.79277 0.04762 0.0
C727 C 0.50762 0.85169 0.05016 0.0
C728 C 0.48798 0.87827 0.0597 0.0
C729 C 0.49768 0.81941 0.05669 0.0
C730 C 0.45842 0.87216 0.07616 0.0
C731 C 0.44814 0.84015 0.08229 0.0
H732 H 0.06821 0.25419 0.51719 0.0
H733 H 0.00935 0.25715 0.6043 0.0
H734 H 0.99136 0.20095 0.59452 0.0
H735 H 0.9957 0.14937 0.56346 0.0
H736 H 0.0587 0.14567 0.47935 0.0
H737 H 0.0722 0.20343 0.48617 0.0
C738 C 0.05164 0.24255 0.53424 0.0
C739 C 0.0404 0.25997 0.56155 0.0
C740 C 0.04235 0.20987 0.52918 0.0
C741 C 0.01817 0.24461 0.58282 0.0
C742 C 0.00808 0.21229 0.57744 0.0
C743 C 0.01215 0.16134 0.54652 0.0
C744 C 0.02631 0.14326 0.52108 0.0
C745 C 0.02046 0.19449 0.55101 0.0
C746 C 0.04774 0.15899 0.49936 0.0
C747 C 0.05542 0.19204 0.50317 0.0
H748 H 0.58585 0.28544 0.45797 0.0
H749 H 0.49212 0.25318 0.49412 0.0
H750 H 0.47758 0.30993 0.50739 0.0
H751 H 0.49207 0.36881 0.5088 0.0
H752 H 0.58509 0.40033 0.46972 0.0
H753 H 0.59951 0.34376 0.4577 0.0
C754 C 0.5623 0.29089 0.4689 0.0
C755 C 0.54018 0.26534 0.47541 0.0
C756 C 0.55407 0.32339 0.47597 0.0
C757 C 0.50948 0.2726 0.48895 0.0
C758 C 0.50126 0.30496 0.4966 0.0
C759 C 0.51552 0.36321 0.49779 0.0
C760 C 0.53754 0.3887 0.4903 0.0
C761 C 0.52344 0.33056 0.4903 0.0
C762 C 0.56767 0.38117 0.47563 0.0
C763 C 0.57598 0.34883 0.46878 0.0
loop_
_geom_bond_atom_site_label_1
_geom_bond_atom_site_label_2
_geom_bond_distance
_geom_bond_site_symmetry_2
_ccdc_geom_bond_type
C0 C1 1.384 . S
C0 H13 0.947 . S
C0 C35 1.382 . S
C1 C0 1.384 . S
C1 C2 1.378 . S
C2 C1 1.378 . S
C2 C3 1.378 . S
C2 H14 0.952 . S
C3 C2 1.378 . S
C3 H15 0.950 . S
C3 C34 1.383 . S
H4 C23 0.947 . S
H5 C24 0.946 . S
H6 C26 0.953 . S
H7 C27 0.945 . S
H8 C29 0.952 . S
H9 C30 0.949 . S
H10 C32 0.950 . S
H11 C33 0.948 . S
H12 C35 0.951 . S
H13 C0 0.947 . S
H14 C2 0.952 . S
H15 C3 0.950 . S
N16 C19 1.382 . S
N16 C21 1.363 . S
N17 C19 1.371 . S
N17 C20 1.372 . S
N18 C20 1.361 . S
N18 C21 1.377 . S
C19 N16 1.382 . S
C19 N17 1.371 . S
C19 C22 1.480 . S
C20 N17 1.372 . S
C20 N18 1.361 . S
C20 C28 1.457 . S
C21 N16 1.363 . S
C21 N18 1.377 . S
C21 C34 1.479 . S
C22 C19 1.480 . S
C22 C23 1.383 . S
C22 C27 1.385 . S
C23 H4 0.947 . S
C23 C22 1.383 . S
C23 C24 1.388 . S
C24 H5 0.946 . S
C24 C23 1.388 . S
C24 C25 1.384 . S
C25 C24 1.384 . S
C25 C26 1.377 . S
C26 H6 0.953 . S
C26 C25 1.377 . S
C26 C27 1.369 . S
C27 H7 0.945 . S
C27 C22 1.385 . S
C27 C26 1.369 . S
C28 C20 1.457 . S
C28 C29 1.372 . S
C28 C33 1.364 . S
C29 H8 0.952 . S
C29 C28 1.372 . S
C29 C30 1.389 . S
C30 H9 0.949 . S
C30 C29 1.389 . S
C30 C31 1.387 . S
C31 C30 1.387 . S
C31 C32 1.372 . S
C32 H10 0.950 . S
C32 C31 1.372 . S
C32 C33 1.379 . S
C33 H11 0.948 . S
C33 C28 1.364 . S
C33 C32 1.379 . S
C34 C3 1.383 . S
C34 C21 1.479 . S
C34 C35 1.398 . S
C35 C0 1.382 . S
C35 H12 0.951 . S
C35 C34 1.398 . S
C36 C37 1.384 . S
C36 H49 0.947 . S
C36 C71 1.382 . S
C37 C36 1.384 . S
C37 C38 1.378 . S
C38 C37 1.378 . S
C38 C39 1.378 . S
C38 H50 0.952 . S
C39 C38 1.378 . S
C39 H51 0.950 . S
C39 C70 1.383 . S
H40 C59 0.947 . S
H41 C60 0.946 . S
H42 C62 0.953 . S
H43 C63 0.945 . S
H44 C65 0.952 . S
H45 C66 0.949 . S
H46 C68 0.950 . S
H47 C69 0.948 . S
H48 C71 0.951 . S
H49 C36 0.947 . S
H50 C38 0.952 . S
H51 C39 0.950 . S
N52 C55 1.382 . S
N52 C57 1.363 . S
N53 C55 1.371 . S
N53 C56 1.372 . S
N54 C56 1.361 . S
N54 C57 1.377 . S
C55 N52 1.382 . S
C55 N53 1.371 . S
C55 C58 1.480 . S
C56 N53 1.372 . S
C56 N54 1.361 . S
C56 C64 1.457 . S
C57 N52 1.363 . S
C57 N54 1.377 . S
C57 C70 1.479 . S
C58 C55 1.480 . S
C58 C59 1.383 . S
C58 C63 1.385 . S
C59 H40 0.947 . S
C59 C58 1.383 . S
C59 C60 1.388 . S
C60 H41 0.946 . S
C60 C59 1.388 . S
C60 C61 1.384 . S
C61 C60 1.384 . S
C61 C62 1.377 . S
C62 H42 0.953 . S
C62 C61 1.377 . S
C62 C63 1.369 . S
C63 H43 0.945 . S
C63 C58 1.385 . S
C63 C62 1.369 . S
C64 C56 1.457 . S
C64 C65 1.372 . S
C64 C69 1.364 . S
C65 H44 0.952 . S
C65 C64 1.372 . S
C65 C66 1.389 . S
C66 H45 0.949 . S
C66 C65 1.389 . S
C66 C67 1.387 . S
C67 C66 1.387 . S
C67 C68 1.372 . S
C68 H46 0.950 . S
C68 C67 1.372 . S
C68 C69 1.379 . S
C69 H47 0.948 . S
C69 C64 1.364 . S
C69 C68 1.379 . S
C70 C39 1.383 . S
C70 C57 1.479 . S
C70 C71 1.398 . S
C71 C36 1.382 . S
C71 H48 0.951 . S
C71 C70 1.398 . S
C72 C73 1.384 . S
C72 H85 0.947 . S
C72 C107 1.382 . S
C73 C72 1.384 . S
C73 C74 1.378 . S
C74 C73 1.378 . S
C74 C75 1.378 . S
C74 H86 0.952 . S
C75 C74 1.378 . S
C75 H87 0.950 . S
C75 C106 1.383 . S
H76 C95 0.947 . S
H77 C96 0.946 . S
H78 C98 0.953 . S
H79 C99 0.945 . S
H80 C101 0.952 . S
H81 C102 0.949 . S
H82 C104 0.950 . S
H83 C105 0.948 . S
H84 C107 0.951 . S
H85 C72 0.947 . S
H86 C74 0.952 . S
H87 C75 0.950 . S
N88 C91 1.382 . S
N88 C93 1.363 . S
N89 C91 1.371 . S
N89 C92 1.372 . S
N90 C92 1.361 . S
N90 C93 1.377 . S
C91 N88 1.382 . S
C91 N89 1.371 . S
C91 C94 1.480 . S
C92 N89 1.372 . S
C92 N90 1.361 . S
C92 C100 1.457 . S
C93 N88 1.363 . S
C93 N90 1.377 . S
C93 C106 1.479 . S
C94 C91 1.480 . S
C94 C95 1.383 . S
C94 C99 1.385 . S
C95 H76 0.947 . S
C95 C94 1.383 . S
C95 C96 1.388 . S
C96 H77 0.946 . S
C96 C95 1.388 . S
C96 C97 1.384 . S
C97 C96 1.384 . S
C97 C98 1.377 . S
C98 H78 0.953 . S
C98 C97 1.377 . S
C98 C99 1.369 . S
C99 H79 0.945 . S
C99 C94 1.385 . S
C99 C98 1.369 . S
C100 C92 1.457 . S
C100 C101 1.372 . S
C100 C105 1.364 . S
C101 H80 0.952 . S
C101 C100 1.372 . S
C101 C102 1.389 . S
C102 H81 0.949 . S
C102 C101 1.389 . S
C102 C103 1.387 . S
C103 C102 1.387 . S
C103 C104 1.372 . S
C104 H82 0.950 . S
C104 C103 1.372 . S
C104 C105 1.379 . S
C105 H83 0.948 . S
C105 C100 1.364 . S
C105 C104 1.379 . S
C106 C75 1.383 . S
C106 C93 1.479 . S
C106 C107 1.398 . S
C107 C72 1.382 . S
C107 H84 0.951 . S
C107 C106 1.398 . S
C108 C109 1.384 . S
C108 H121 0.947 . S
C108 C143 1.382 . S
C109 C108 1.384 . S
C109 C110 1.378 . S
C110 C109 1.378 . S
C110 C111 1.378 . S
C110 H122 0.952 . S
C111 C110 1.378 . S
C111 H123 0.950 . S
C111 C142 1.383 . S
H112 C131 0.947 . S
H113 C132 0.946 . S
H114 C134 0.953 . S
H115 C135 0.945 . S
H116 C137 0.952 . S
H117 C138 0.949 . S
H118 C140 0.950 . S
H119 C141 0.948 . S
H120 C143 0.951 . S
H121 C108 0.947 . S
H122 C110 0.952 . S
H123 C111 0.950 . S
N124 C127 1.382 . S
N124 C129 1.363 . S
N125 C127 1.371 . S
N125 C128 1.372 . S
N126 C128 1.361 . S
N126 C129 1.377 . S
C127 N124 1.382 . S
C127 N125 1.371 . S
C127 C130 1.480 . S
C128 N125 1.372 . S
C128 N126 1.361 . S
C128 C136 1.457 . S
C129 N124 1.363 . S
C129 N126 1.377 . S
C129 C142 1.479 . S
C130 C127 1.480 . S
C130 C131 1.383 . S
C130 C135 1.385 . S
C131 H112 0.947 . S
C131 C130 1.383 . S
C131 C132 1.388 . S
C132 H113 0.946 . S
C132 C131 1.388 . S
C132 C133 1.384 . S
C133 C132 1.384 . S
C133 C134 1.377 . S
C134 H114 0.953 . S
C134 C133 1.377 . S
C134 C135 1.369 . S
C135 H115 0.945 . S
C135 C130 1.385 . S
C135 C134 1.369 . S
C136 C128 1.457 . S
C136 C137 1.372 . S
C136 C141 1.364 . S
C137 H116 0.952 . S
C137 C136 1.372 . S
C137 C138 1.389 . S
C138 H117 0.949 . S
C138 C137 1.389 . S
C138 C139 1.387 . S
C139 C138 1.387 . S
C139 C140 1.372 . S
C140 H118 0.950 . S
C140 C139 1.372 . S
C140 C141 1.379 . S
C141 H119 0.948 . S
C141 C136 1.364 . S
C141 C140 1.379 . S
C142 C111 1.383 . S
C142 C129 1.479 . S
C142 C143 1.398 . S
C143 C108 1.382 . S
C143 H120 0.951 . S
C143 C142 1.398 . S
C144 C145 1.384 . S
C144 H157 0.947 1_565 S
C144 C179 1.382 . S
C145 C144 1.384 . S
C145 C146 1.378 . S
C146 C145 1.378 . S
C146 C147 1.378 . S
C146 H158 0.952 1_556 S
C147 C146 1.378 . S
C147 H159 0.950 . S
C147 C178 1.383 . S
H148 C167 0.947 . S
H149 C168 0.946 . S
H150 C170 0.953 . S
H151 C171 0.945 . S
H152 C173 0.952 . S
H153 C174 0.949 . S
H154 C176 0.968 . S
H155 C177 0.965 . S
H156 C179 0.951 . S
H157 C144 0.947 1_545 S
H158 C146 0.952 1_554 S
H159 C147 0.950 . S
N160 C163 1.382 . S
N160 C165 1.363 . S
N161 C163 1.371 . S
N161 C164 1.372 . S
N162 C164 1.361 . S
N162 C165 1.377 . S
C163 N160 1.382 . S
C163 N161 1.371 . S
C163 C166 1.480 . S
C164 N161 1.372 . S
C164 N162 1.361 . S
C164 C172 1.457 . S
C165 N160 1.363 . S
C165 N162 1.377 . S
C165 C178 1.479 . S
C166 C163 1.480 . S
C166 C167 1.383 . S
C166 C171 1.385 . S
C167 H148 0.947 . S
C167 C166 1.383 . S
C167 C168 1.388 . S
C168 H149 0.946 . S
C168 C167 1.388 . S
C168 C169 1.384 . S
C169 C168 1.384 . S
C169 C170 1.377 . S
C170 H150 0.953 . S
C170 C169 1.377 . S
C170 C171 1.369 . S
C171 H151 0.945 . S
C171 C166 1.385 . S
C171 C170 1.369 . S
C172 C164 1.457 . S
C172 C173 1.372 . S
C172 C177 1.364 . S
C173 H152 0.952 . S
C173 C172 1.372 . S
C173 C174 1.389 . S
C174 H153 0.949 . S
C174 C173 1.389 . S
C174 C175 1.387 . S
C175 C174 1.387 . S
C175 C176 1.361 1_565 S
C176 H154 0.968 . S
C176 C175 1.361 1_545 S
C176 C177 1.371 1_545 S
C177 H155 0.965 . S
C177 C172 1.364 . S
C177 C176 1.371 1_565 S
C178 C147 1.383 . S
C178 C165 1.479 . S
C178 C179 1.398 . S
C179 C144 1.382 . S
C179 H156 0.951 . S
C179 C178 1.398 . S
C180 C181 1.384 . S
C180 H193 0.955 . S
C180 C215 1.382 . S
C181 C180 1.384 . S
C181 C182 1.378 . S
C182 C181 1.378 . S
C182 C183 1.378 . S
C182 H194 0.952 . S
C183 C182 1.378 . S
C183 H195 0.950 . S
C183 C214 1.383 . S
H184 C203 0.947 . S
H185 C204 0.946 . S
H186 C206 0.953 . S
H187 C207 0.945 . S
H188 C209 0.952 . S
H189 C210 0.949 . S
H190 C212 0.950 . S
H191 C213 0.948 . S
H192 C215 0.951 . S
H193 C180 0.955 . S
H194 C182 0.952 . S
H195 C183 0.950 . S
N196 C199 1.382 . S
N196 C201 1.363 . S
N197 C199 1.371 . S
N197 C200 1.372 . S
N198 C200 1.361 . S
N198 C201 1.377 . S
C199 N196 1.382 . S
C199 N197 1.371 . S
C199 C202 1.480 . S
C200 N197 1.372 . S
C200 N198 1.361 . S
C200 C208 1.457 . S
C201 N196 1.363 . S
C201 N198 1.377 . S
C201 C214 1.479 . S
C202 C199 1.480 . S
C202 C203 1.383 . S
C202 C207 1.385 . S
C203 H184 0.947 . S
C203 C202 1.383 . S
C203 C204 1.388 . S
C204 H185 0.946 . S
C204 C203 1.388 . S
C204 C205 1.384 . S
C205 C204 1.384 . S
C205 C206 1.377 . S
C206 H186 0.953 . S
C206 C205 1.377 . S
C206 C207 1.369 . S
C207 H187 0.945 . S
C207 C202 1.385 . S
C207 C206 1.369 . S
C208 C200 1.457 . S
C208 C209 1.372 . S
C208 C213 1.364 . S
C209 H188 0.952 . S
C209 C208 1.372 . S
C209 C210 1.389 . S
C210 H189 0.949 . S
C210 C209 1.389 . S
C210 C211 1.387 . S
C211 C210 1.387 . S
C211 C212 1.372 . S
C212 H190 0.950 . S
C212 C211 1.372 . S
C212 C213 1.379 . S
C213 H191 0.948 . S
C213 C208 1.364 . S
C213 C212 1.379 . S
C214 C183 1.383 . S
C214 C201 1.479 . S
C214 C215 1.398 . S
C215 C180 1.382 . S
C215 H192 0.951 . S
C215 C214 1.398 . S
C216 C217 1.384 . S
C216 H229 0.947 . S
C216 C251 1.382 . S
C217 C216 1.384 . S
C217 C218 1.378 . S
C218 C217 1.378 . S
C218 C219 1.378 . S
C218 H230 0.952 . S
C219 C218 1.378 . S
C219 H231 0.950 . S
C219 C250 1.383 . S
H220 C239 0.947 . S
H221 C240 0.946 . S
H222 C242 0.953 . S
H223 C243 0.945 . S
H224 C245 0.952 . S
H225 C246 0.949 . S
H226 C248 0.950 . S
H227 C249 0.948 . S
H228 C251 0.951 . S
H229 C216 0.947 . S
H230 C218 0.952 . S
H231 C219 0.950 . S
N232 C235 1.382 . S
N232 C237 1.363 . S
N233 C235 1.371 . S
N233 C236 1.372 . S
N234 C236 1.361 . S
N234 C237 1.377 . S
C235 N232 1.382 . S
C235 N233 1.371 . S
C235 C238 1.480 . S
C236 N233 1.372 . S
C236 N234 1.361 . S
C236 C244 1.457 . S
C237 N232 1.363 . S
C237 N234 1.377 . S
C237 C250 1.479 . S
C238 C235 1.480 . S
C238 C239 1.383 . S
C238 C243 1.385 . S
C239 H220 0.947 . S
C239 C238 1.383 . S
C239 C240 1.388 . S
C240 H221 0.946 . S
C240 C239 1.388 . S
C240 C241 1.384 . S
C241 C240 1.384 . S
C241 C242 1.377 . S
C242 H222 0.953 . S
C242 C241 1.377 . S
C242 C243 1.369 . S
C243 H223 0.945 . S
C243 C238 1.385 . S
C243 C242 1.369 . S
C244 C236 1.457 . S
C244 C245 1.372 . S
C244 C249 1.364 . S
C245 H224 0.952 . S
C245 C244 1.372 . S
C245 C246 1.389 . S
C246 H225 0.949 . S
C246 C245 1.389 . S
C246 C247 1.387 . S
C247 C246 1.387 . S
C247 C248 1.372 . S
C248 H226 0.950 . S
C248 C247 1.372 . S
C248 C249 1.379 . S
C249 H227 0.948 . S
C249 C244 1.364 . S
C249 C248 1.379 . S
C250 C219 1.383 . S
C250 C237 1.479 . S
C250 C251 1.398 . S
C251 C216 1.382 . S
C251 H228 0.951 . S
C251 C250 1.398 . S
C252 C253 1.384 . S
C252 H265 0.947 . S
C252 C287 1.382 . S
C253 C252 1.384 . S
C253 C254 1.378 . S
C254 C253 1.378 . S
C254 C255 1.378 . S
C254 H266 0.952 . S
C255 C254 1.378 . S
C255 H267 0.950 . S
C255 C286 1.383 . S
H256 C275 0.947 . S
H257 C276 0.946 . S
H258 C278 0.953 . S
H259 C279 0.945 . S
H260 C281 0.952 . S
H261 C282 0.949 . S
H262 C284 0.950 . S
H263 C285 0.948 . S
H264 C287 0.951 . S
H265 C252 0.947 . S
H266 C254 0.952 . S
H267 C255 0.950 . S
N268 C271 1.382 . S
N268 C273 1.363 . S
N269 C271 1.371 . S
N269 C272 1.372 . S
N270 C272 1.361 . S
N270 C273 1.377 . S
C271 N268 1.382 . S
C271 N269 1.371 . S
C271 C274 1.480 . S
C272 N269 1.372 . S
C272 N270 1.361 . S
C272 C280 1.457 . S
C273 N268 1.363 . S
C273 N270 1.377 . S
C273 C286 1.479 . S
C274 C271 1.480 . S
C274 C275 1.383 . S
C274 C279 1.385 . S
C275 H256 0.947 . S
C275 C274 1.383 . S
C275 C276 1.388 . S
C276 H257 0.946 . S
C276 C275 1.388 . S
C276 C277 1.384 . S
C277 C276 1.384 . S
C277 C278 1.377 . S
C278 H258 0.953 . S
C278 C277 1.377 . S
C278 C279 1.369 . S
C279 H259 0.945 . S
C279 C274 1.385 . S
C279 C278 1.369 . S
C280 C272 1.457 . S
C280 C281 1.372 . S
C280 C285 1.364 . S
C281 H260 0.952 . S
C281 C280 1.372 . S
C281 C282 1.389 . S
C282 H261 0.949 . S
C282 C281 1.389 . S
C282 C283 1.387 . S
C283 C282 1.387 . S
C283 C284 1.372 . S
C284 H262 0.950 . S
C284 C283 1.372 . S
C284 C285 1.379 . S
C285 H263 0.948 . S
C285 C280 1.364 . S
C285 C284 1.379 . S
C286 C255 1.383 . S
C286 C273 1.479 . S
C286 C287 1.398 . S
C287 C252 1.382 . S
C287 H264 0.951 . S
C287 C286 1.398 . S
O288 Zn289 1.953 . S
O288 C304 1.225 1_655 S
Zn289 O288 1.953 . S
Zn289 O290 1.949 1_655 S
Zn289 O296 1.919 . S
Zn289 O301 1.924 . S
O290 Zn289 1.949 1_455 S
O290 Zn291 1.923 1_445 S
O290 Zn292 1.950 . S
O290 Zn293 1.945 1_545 S
Zn291 O290 1.923 1_665 S
Zn291 O294 1.933 . S
Zn291 O297 1.941 1_565 S
Zn291 O298 1.965 1_665 S
Zn292 O290 1.950 . S
Zn292 O299 1.938 . S
Zn292 O300 1.906 1_545 S
Zn292 O310 1.953 . S
Zn293 O290 1.945 1_565 S
Zn293 O295 1.932 1_455 S
Zn293 O302 1.977 . S
Zn293 O303 1.910 1_455 S
O294 Zn291 1.933 . S
O294 C305 1.226 . S
O295 Zn293 1.932 1_655 S
O295 C305 1.307 . S
O296 Zn289 1.919 . S
O296 C307 1.253 . S
O297 Zn291 1.941 1_545 S
O297 C307 1.283 . S
O298 Zn291 1.965 1_445 S
O298 C306 1.303 . S
O299 Zn292 1.938 . S
O299 C306 1.247 . S
O300 Zn292 1.906 1_565 S
O300 C308 1.304 . S
O301 Zn289 1.924 . S
O301 C309 1.311 1_545 S
O302 Zn293 1.977 . S
O302 C308 1.272 . S
O303 Zn293 1.910 1_655 S
O303 C309 1.231 . S
C304 O288 1.225 1_455 S
C304 O310 1.298 . S
C305 O294 1.226 . S
C305 O295 1.307 . S
C306 O298 1.303 . S
C306 O299 1.247 . S
C307 O296 1.253 . S
C307 O297 1.283 . S
C308 O300 1.304 . S
C308 O302 1.272 . S
C309 O301 1.311 1_565 S
C309 O303 1.231 . S
O310 Zn292 1.953 . S
O310 C304 1.298 . S
O311 Zn312 1.953 . S
O311 C327 1.225 . S
Zn312 O311 1.953 . S
Zn312 O313 1.949 1_556 S
Zn312 O319 1.919 . S
Zn312 O324 1.924 1_556 S
O313 Zn312 1.949 1_554 S
O313 Zn314 1.922 1_545 S
O313 Zn315 1.950 . S
O313 Zn316 1.945 1_545 S
Zn314 O313 1.922 1_565 S
Zn314 O317 1.933 . S
Zn314 O320 1.943 1_554 S
Zn314 O321 1.966 1_554 S
Zn315 O313 1.950 . S
Zn315 O322 1.938 . S
Zn315 O323 1.906 . S
Zn315 O333 1.953 . S
Zn316 O313 1.945 1_565 S
Zn316 O318 1.932 . S
Zn316 O325 1.977 1_565 S
Zn316 O326 1.910 1_565 S
O317 Zn314 1.933 . S
O317 C328 1.226 . S
O318 Zn316 1.932 . S
O318 C328 1.307 . S
O319 Zn312 1.919 . S
O319 C330 1.253 1_545 S
O320 Zn314 1.943 1_556 S
O320 C330 1.283 . S
O321 Zn314 1.966 1_556 S
O321 C329 1.303 . S
O322 Zn315 1.938 . S
O322 C329 1.247 1_544 S
O323 Zn315 1.906 . S
O323 C331 1.304 . S
O324 Zn312 1.924 1_554 S
O324 C332 1.311 . S
O325 Zn316 1.977 1_545 S
O325 C331 1.272 . S
O326 Zn316 1.910 1_545 S
O326 C332 1.231 . S
C327 O311 1.225 . S
C327 O333 1.298 1_556 S
C328 O317 1.226 . S
C328 O318 1.307 . S
C329 O321 1.303 . S
C329 O322 1.247 1_566 S
C330 O319 1.253 1_565 S
C330 O320 1.283 . S
C331 O323 1.304 . S
C331 O325 1.272 . S
C332 O324 1.311 . S
C332 O326 1.231 . S
O333 Zn315 1.953 . S
O333 C327 1.298 1_554 S
O334 Zn335 1.953 . S
O334 C350 1.225 . S
Zn335 O334 1.953 . S
Zn335 O336 1.949 . S
Zn335 O342 1.919 . S
Zn335 O347 1.924 . S
O336 Zn335 1.949 . S
O336 Zn337 1.923 . S
O336 Zn338 1.950 . S
O336 Zn339 1.945 . S
Zn337 O336 1.923 . S
Zn337 O340 1.933 . S
Zn337 O343 1.941 . S
Zn337 O344 1.965 . S
Zn338 O336 1.950 . S
Zn338 O345 1.938 . S
Zn338 O346 1.906 . S
Zn338 O356 1.953 . S
Zn339 O336 1.945 . S
Zn339 O341 1.932 . S
Zn339 O348 1.977 . S
Zn339 O349 1.910 . S
O340 Zn337 1.933 . S
O340 C351 1.226 . S
O341 Zn339 1.932 . S
O341 C351 1.307 . S
O342 Zn335 1.919 . S
O342 C353 1.253 . S
O343 Zn337 1.941 . S
O343 C353 1.283 . S
O344 Zn337 1.965 . S
O344 C352 1.303 . S
O345 Zn338 1.938 . S
O345 C352 1.247 . S
O346 Zn338 1.906 . S
O346 C354 1.304 . S
O347 Zn335 1.924 . S
O347 C355 1.311 . S
O348 Zn339 1.977 . S
O348 C354 1.272 . S
O349 Zn339 1.910 . S
O349 C355 1.231 . S
C350 O334 1.225 . S
C350 O356 1.298 . S
C351 O340 1.226 . S
C351 O341 1.307 . S
C352 O344 1.303 . S
C352 O345 1.247 . S
C353 O342 1.253 . S
C353 O343 1.283 . S
C354 O346 1.304 . S
C354 O348 1.272 . S
C355 O347 1.311 . S
C355 O349 1.231 . S
O356 Zn338 1.953 . S
O356 C350 1.298 . S
O357 Zn358 1.953 . S
O357 C373 1.225 . S
Zn358 O357 1.953 . S
Zn358 O359 1.949 1_655 S
Zn358 O365 1.919 . S
Zn358 O370 1.924 . S
O359 Zn358 1.949 1_455 S
O359 Zn360 1.923 1_454 S
O359 Zn361 1.950 . S
O359 Zn362 1.945 1_554 S
Zn360 O359 1.923 1_656 S
Zn360 O363 1.933 1_655 S
Zn360 O366 1.941 . S
Zn360 O367 1.965 . S
Zn361 O359 1.950 . S
Zn361 O368 1.938 . S
Zn361 O369 1.906 . S
Zn361 O379 1.953 . S
Zn362 O359 1.945 1_556 S
Zn362 O364 1.932 . S
Zn362 O371 1.977 1_556 S
Zn362 O372 1.910 1_556 S
O363 Zn360 1.933 1_455 S
O363 C374 1.226 . S
O364 Zn362 1.932 . S
O364 C374 1.307 . S
O365 Zn358 1.919 . S
O365 C376 1.253 1_554 S
O366 Zn360 1.941 . S
O366 C376 1.283 . S
O367 Zn360 1.965 . S
O367 C375 1.303 . S
O368 Zn361 1.938 . S
O368 C375 1.247 1_454 S
O369 Zn361 1.906 . S
O369 C377 1.304 . S
O370 Zn358 1.924 . S
O370 C378 1.311 1_655 S
O371 Zn362 1.977 1_554 S
O371 C377 1.272 . S
O372 Zn362 1.910 1_554 S
O372 C378 1.231 . S
C373 O357 1.225 . S
C373 O379 1.298 1_655 S
C374 O363 1.226 . S
C374 O364 1.307 . S
C375 O367 1.303 . S
C375 O368 1.247 1_656 S
C376 O365 1.253 1_556 S
C376 O366 1.283 . S
C377 O369 1.304 . S
C377 O371 1.272 . S
C378 O370 1.311 1_455 S
C378 O372 1.231 . S
O379 Zn361 1.953 . S
O379 C373 1.298 1_455 S
H380 C386 0.930 . S
H381 C389 0.930 . S
H382 C390 0.930 . S
H383 C391 0.930 . S
H384 C394 0.930 . S
H385 C395 0.930 . S
C386 H380 0.930 . S
C386 C387 1.355 . S
C386 C388 1.415 . S
C387 C386 1.355 . S
C387 C389 1.419 . S
C388 C386 1.415 . S
C388 C393 1.425 . S
C388 C395 1.409 . S
C389 H381 0.930 . S
C389 C387 1.419 . S
C389 C390 1.362 . S
C390 H382 0.930 . S
C390 C389 1.362 . S
C390 C393 1.409 . S
C391 H383 0.930 . S
C391 C392 1.355 . S
C391 C393 1.415 . S
C392 C391 1.355 . S
C392 C394 1.419 . S
C393 C388 1.425 . S
C393 C390 1.409 . S
C393 C391 1.415 . S
C394 H384 0.930 . S
C394 C392 1.419 . S
C394 C395 1.362 . S
C395 H385 0.930 . S
C395 C388 1.409 . S
C395 C394 1.362 . S
H396 C402 0.930 . S
H397 C405 0.930 . S
H398 C406 0.930 . S
H399 C407 0.930 . S
H400 C410 0.930 . S
H401 C411 0.930 . S
C402 H396 0.930 . S
C402 C403 1.355 . S
C402 C404 1.415 . S
C403 C402 1.355 . S
C403 C405 1.419 . S
C404 C402 1.415 . S
C404 C409 1.425 . S
C404 C411 1.409 . S
C405 H397 0.930 . S
C405 C403 1.419 . S
C405 C406 1.362 . S
C406 H398 0.930 . S
C406 C405 1.362 . S
C406 C409 1.409 . S
C407 H399 0.930 . S
C407 C408 1.355 . S
C407 C409 1.415 . S
C408 C407 1.355 . S
C408 C410 1.419 . S
C409 C404 1.425 . S
C409 C406 1.409 . S
C409 C407 1.415 . S
C410 H400 0.930 . S
C410 C408 1.419 . S
C410 C411 1.362 . S
C411 H401 0.930 . S
C411 C404 1.409 . S
C411 C410 1.362 . S
H412 C418 0.930 . S
H413 C421 0.930 . S
H414 C422 0.930 . S
H415 C423 0.930 . S
H416 C426 0.930 . S
H417 C427 0.930 . S
C418 H412 0.930 . S
C418 C419 1.355 . S
C418 C420 1.415 . S
C419 C418 1.355 . S
C419 C421 1.419 . S
C420 C418 1.415 . S
C420 C425 1.425 . S
C420 C427 1.409 . S
C421 H413 0.930 . S
C421 C419 1.419 . S
C421 C422 1.362 . S
C422 H414 0.930 . S
C422 C421 1.362 . S
C422 C425 1.409 . S
C423 H415 0.930 . S
C423 C424 1.355 . S
C423 C425 1.415 . S
C424 C423 1.355 . S
C424 C426 1.419 . S
C425 C420 1.425 . S
C425 C422 1.409 . S
C425 C423 1.415 . S
C426 H416 0.930 . S
C426 C424 1.419 . S
C426 C427 1.362 . S
C427 H417 0.930 . S
C427 C420 1.409 . S
C427 C426 1.362 . S
H428 C434 0.930 . S
H429 C437 0.930 . S
H430 C438 0.930 . S
H431 C439 0.930 . S
H432 C442 0.930 . S
H433 C443 0.930 . S
C434 H428 0.930 . S
C434 C435 1.355 . S
C434 C436 1.415 . S
C435 C434 1.355 . S
C435 C437 1.419 . S
C436 C434 1.415 . S
C436 C441 1.425 . S
C436 C443 1.409 1_655 S
C437 H429 0.930 . S
C437 C435 1.419 . S
C437 C438 1.362 . S
C438 H430 0.930 . S
C438 C437 1.362 . S
C438 C441 1.409 . S
C439 H431 0.930 . S
C439 C440 1.355 . S
C439 C441 1.415 . S
C440 C439 1.355 . S
C440 C442 1.419 1_655 S
C441 C436 1.425 . S
C441 C438 1.409 . S
C441 C439 1.415 . S
C442 H432 0.930 . S
C442 C440 1.419 1_455 S
C442 C443 1.362 . S
C443 H433 0.930 . S
C443 C436 1.409 1_455 S
C443 C442 1.362 . S
H444 C450 0.930 . S
H445 C453 0.930 . S
H446 C454 0.930 . S
H447 C455 0.930 . S
H448 C458 0.930 . S
H449 C459 0.930 . S
C450 H444 0.930 . S
C450 C451 1.355 . S
C450 C452 1.415 . S
C451 C450 1.355 . S
C451 C453 1.419 . S
C452 C450 1.415 . S
C452 C457 1.425 . S
C452 C459 1.409 . S
C453 H445 0.930 . S
C453 C451 1.419 . S
C453 C454 1.362 . S
C454 H446 0.930 . S
C454 C453 1.362 . S
C454 C457 1.409 . S
C455 H447 0.930 . S
C455 C456 1.355 . S
C455 C457 1.415 . S
C456 C455 1.355 . S
C456 C458 1.419 . S
C457 C452 1.425 . S
C457 C454 1.409 . S
C457 C455 1.415 . S
C458 H448 0.930 . S
C458 C456 1.419 . S
C458 C459 1.362 . S
C459 H449 0.930 . S
C459 C452 1.409 . S
C459 C458 1.362 . S
H460 C466 0.930 . S
H461 C469 0.930 . S
H462 C470 0.930 . S
H463 C471 0.930 . S
H464 C474 0.930 1_545 S
H465 C475 0.930 1_545 S
C466 H460 0.930 . S
C466 C467 1.355 . S
C466 C468 1.415 . S
C467 C466 1.355 . S
C467 C469 1.419 . S
C468 C466 1.415 . S
C468 C473 1.425 . S
C468 C475 1.409 . S
C469 H461 0.930 . S
C469 C467 1.419 . S
C469 C470 1.362 . S
C470 H462 0.930 . S
C470 C469 1.362 . S
C470 C473 1.409 . S
C471 H463 0.930 . S
C471 C472 1.355 . S
C471 C473 1.415 . S
C472 C471 1.355 . S
C472 C474 1.419 . S
C473 C468 1.425 . S
C473 C470 1.409 . S
C473 C471 1.415 . S
C474 H464 0.930 1_565 S
C474 C472 1.419 . S
C474 C475 1.362 . S
C475 H465 0.930 1_565 S
C475 C468 1.409 . S
C475 C474 1.362 . S
H476 C482 0.930 . S
H477 C485 0.930 . S
H478 C486 0.930 1_554 S
H479 C487 0.930 1_554 S
H480 C490 0.930 . S
H481 C491 0.930 . S
C482 H476 0.930 . S
C482 C483 1.355 . S
C482 C484 1.415 . S
C483 C482 1.355 . S
C483 C485 1.419 . S
C484 C482 1.415 . S
C484 C489 1.425 . S
C484 C491 1.409 . S
C485 H477 0.930 . S
C485 C483 1.419 . S
C485 C486 1.362 . S
C486 H478 0.930 1_556 S
C486 C485 1.362 . S
C486 C489 1.409 . S
C487 H479 0.930 1_556 S
C487 C488 1.355 . S
C487 C489 1.415 . S
C488 C487 1.355 . S
C488 C490 1.419 . S
C489 C484 1.425 . S
C489 C486 1.409 . S
C489 C487 1.415 . S
C490 H480 0.930 . S
C490 C488 1.419 . S
C490 C491 1.362 . S
C491 H481 0.930 . S
C491 C484 1.409 . S
C491 C490 1.362 . S
H492 C498 0.930 . S
H493 C501 0.930 . S
H494 C502 0.930 . S
H495 C503 0.930 . S
H496 C506 0.930 . S
H497 C507 0.930 . S
C498 H492 0.930 . S
C498 C499 1.355 . S
C498 C500 1.415 . S
C499 C498 1.355 . S
C499 C501 1.419 . S
C500 C498 1.415 . S
C500 C505 1.425 . S
C500 C507 1.409 . S
C501 H493 0.930 . S
C501 C499 1.419 . S
C501 C502 1.362 . S
C502 H494 0.930 . S
C502 C501 1.362 . S
C502 C505 1.409 . S
C503 H495 0.930 . S
C503 C504 1.355 . S
C503 C505 1.415 . S
C504 C503 1.355 . S
C504 C506 1.419 . S
C505 C500 1.425 . S
C505 C502 1.409 . S
C505 C503 1.415 . S
C506 H496 0.930 . S
C506 C504 1.419 . S
C506 C507 1.362 . S
C507 H497 0.930 . S
C507 C500 1.409 . S
C507 C506 1.362 . S
H508 C514 0.930 . S
H509 C517 0.930 . S
H510 C518 0.930 . S
H511 C519 0.930 . S
H512 C522 0.930 1_655 S
H513 C523 0.930 1_655 S
C514 H508 0.930 . S
C514 C515 1.355 . S
C514 C516 1.415 . S
C515 C514 1.355 . S
C515 C517 1.419 . S
C516 C514 1.415 . S
C516 C521 1.425 . S
C516 C523 1.409 . S
C517 H509 0.930 . S
C517 C515 1.419 . S
C517 C518 1.362 . S
C518 H510 0.930 . S
C518 C517 1.362 . S
C518 C521 1.409 . S
C519 H511 0.930 . S
C519 C520 1.355 . S
C519 C521 1.415 . S
C520 C519 1.355 . S
C520 C522 1.419 . S
C521 C516 1.425 . S
C521 C518 1.409 . S
C521 C519 1.415 . S
C522 H512 0.930 1_455 S
C522 C520 1.419 . S
C522 C523 1.362 . S
C523 H513 0.930 1_455 S
C523 C516 1.409 . S
C523 C522 1.362 . S
H524 C530 0.930 . S
H525 C533 0.930 . S
H526 C534 0.930 . S
H527 C535 0.930 . S
H528 C538 0.930 . S
H529 C539 0.930 . S
C530 H524 0.930 . S
C530 C531 1.355 . S
C530 C532 1.415 . S
C531 C530 1.355 . S
C531 C533 1.419 . S
C532 C530 1.415 . S
C532 C537 1.425 . S
C532 C539 1.409 . S
C533 H525 0.930 . S
C533 C531 1.419 . S
C533 C534 1.362 . S
C534 H526 0.930 . S
C534 C533 1.362 . S
C534 C537 1.409 . S
C535 H527 0.930 . S
C535 C536 1.355 . S
C535 C537 1.415 . S
C536 C535 1.355 . S
C536 C538 1.419 . S
C537 C532 1.425 . S
C537 C534 1.409 . S
C537 C535 1.415 . S
C538 H528 0.930 . S
C538 C536 1.419 . S
C538 C539 1.362 . S
C539 H529 0.930 . S
C539 C532 1.409 . S
C539 C538 1.362 . S
H540 C546 0.930 . S
H541 C549 0.930 . S
H542 C550 0.930 . S
H543 C551 0.930 . S
H544 C554 0.930 . S
H545 C555 0.930 . S
C546 H540 0.930 . S
C546 C547 1.355 . S
C546 C548 1.415 . S
C547 C546 1.355 . S
C547 C549 1.419 . S
C548 C546 1.415 . S
C548 C553 1.425 . S
C548 C555 1.409 . S
C549 H541 0.930 . S
C549 C547 1.419 . S
C549 C550 1.362 . S
C550 H542 0.930 . S
C550 C549 1.362 . S
C550 C553 1.409 . S
C551 H543 0.930 . S
C551 C552 1.355 . S
C551 C553 1.415 . S
C552 C551 1.355 . S
C552 C554 1.419 . S
C553 C548 1.425 . S
C553 C550 1.409 . S
C553 C551 1.415 . S
C554 H544 0.930 . S
C554 C552 1.419 . S
C554 C555 1.362 . S
C555 H545 0.930 . S
C555 C548 1.409 . S
C555 C554 1.362 . S
H556 C562 0.930 . S
H557 C565 0.930 . S
H558 C566 0.930 . S
H559 C567 0.930 . S
H560 C570 0.930 . S
H561 C571 0.930 . S
C562 H556 0.930 . S
C562 C563 1.355 . S
C562 C564 1.415 . S
C563 C562 1.355 . S
C563 C565 1.419 . S
C564 C562 1.415 . S
C564 C569 1.425 . S
C564 C571 1.409 . S
C565 H557 0.930 . S
C565 C563 1.419 . S
C565 C566 1.362 . S
C566 H558 0.930 . S
C566 C565 1.362 . S
C566 C569 1.409 . S
C567 H559 0.930 . S
C567 C568 1.355 . S
C567 C569 1.415 . S
C568 C567 1.355 . S
C568 C570 1.419 . S
C569 C564 1.425 . S
C569 C566 1.409 . S
C569 C567 1.415 . S
C570 H560 0.930 . S
C570 C568 1.419 . S
C570 C571 1.362 . S
C571 H561 0.930 . S
C571 C564 1.409 . S
C571 C570 1.362 . S
H572 C578 0.930 1_545 S
H573 C581 0.930 . S
H574 C582 0.930 . S
H575 C583 0.930 1_455 S
H576 C586 0.930 . S
H577 C587 0.930 . S
C578 H572 0.930 1_565 S
C578 C579 1.355 . S
C578 C580 1.416 . S
C579 C578 1.355 . S
C579 C581 1.419 1_655 S
C580 C578 1.416 . S
C580 C585 1.432 . S
C580 C587 1.402 1_565 S
C581 H573 0.930 . S
C581 C579 1.419 1_455 S
C581 C582 1.362 . S
C582 H574 0.930 . S
C582 C581 1.362 . S
C582 C585 1.409 1_455 S
C583 H575 0.930 1_655 S
C583 C584 1.348 1_565 S
C583 C585 1.415 . S
C584 C583 1.348 1_545 S
C584 C586 1.426 . S
C585 C580 1.432 . S
C585 C582 1.409 1_655 S
C585 C583 1.415 . S
C586 H576 0.930 . S
C586 C584 1.426 . S
C586 C587 1.362 . S
C587 H577 0.930 . S
C587 C580 1.402 1_545 S
C587 C586 1.362 . S
H588 C594 0.930 . S
H589 C597 0.930 . S
H590 C598 0.930 . S
H591 C599 0.930 . S
H592 C602 0.930 . S
H593 C603 0.930 . S
C594 H588 0.930 . S
C594 C595 1.355 . S
C594 C596 1.415 . S
C595 C594 1.355 . S
C595 C597 1.419 . S
C596 C594 1.415 . S
C596 C601 1.425 . S
C596 C603 1.409 . S
C597 H589 0.930 . S
C597 C595 1.419 . S
C597 C598 1.362 . S
C598 H590 0.930 . S
C598 C597 1.362 . S
C598 C601 1.409 . S
C599 H591 0.930 . S
C599 C600 1.355 . S
C599 C601 1.415 . S
C600 C599 1.355 . S
C600 C602 1.419 . S
C601 C596 1.425 . S
C601 C598 1.409 . S
C601 C599 1.415 . S
C602 H592 0.930 . S
C602 C600 1.419 . S
C602 C603 1.362 . S
C603 H593 0.930 . S
C603 C596 1.409 . S
C603 C602 1.362 . S
H604 C610 0.930 . S
H605 C613 0.930 . S
H606 C614 0.930 . S
H607 C615 0.930 . S
H608 C618 0.930 . S
H609 C619 0.930 . S
C610 H604 0.930 . S
C610 C611 1.355 . S
C610 C612 1.415 . S
C611 C610 1.355 . S
C611 C613 1.419 . S
C612 C610 1.415 . S
C612 C617 1.425 . S
C612 C619 1.409 . S
C613 H605 0.930 . S
C613 C611 1.419 . S
C613 C614 1.362 . S
C614 H606 0.930 . S
C614 C613 1.362 . S
C614 C617 1.409 . S
C615 H607 0.930 . S
C615 C616 1.355 . S
C615 C617 1.415 . S
C616 C615 1.355 . S
C616 C618 1.419 . S
C617 C612 1.425 . S
C617 C614 1.409 . S
C617 C615 1.415 . S
C618 H608 0.930 . S
C618 C616 1.419 . S
C618 C619 1.362 . S
C619 H609 0.930 . S
C619 C612 1.409 . S
C619 C618 1.362 . S
H620 C626 0.930 . S
H621 C629 0.930 . S
H622 C630 0.930 . S
H623 C631 0.930 . S
H624 C634 0.930 . S
H625 C635 0.930 . S
C626 H620 0.930 . S
C626 C627 1.355 . S
C626 C628 1.415 . S
C627 C626 1.355 . S
C627 C629 1.419 . S
C628 C626 1.415 . S
C628 C633 1.425 . S
C628 C635 1.409 . S
C629 H621 0.930 . S
C629 C627 1.419 . S
C629 C630 1.362 . S
C630 H622 0.930 . S
C630 C629 1.362 . S
C630 C633 1.409 . S
C631 H623 0.930 . S
C631 C632 1.355 . S
C631 C633 1.415 . S
C632 C631 1.355 . S
C632 C634 1.419 . S
C633 C628 1.425 . S
C633 C630 1.409 . S
C633 C631 1.415 . S
C634 H624 0.930 . S
C634 C632 1.419 . S
C634 C635 1.362 . S
C635 H625 0.930 . S
C635 C628 1.409 . S
C635 C634 1.362 . S
H636 C642 0.906 1_544 S
H637 C645 0.930 . S
H638 C646 0.930 . S
H639 C647 0.930 . S
H640 C650 0.930 . S
H641 C651 0.930 . S
C642 H636 0.906 1_566 S
C642 C643 1.375 . S
C642 C644 1.418 . S
C643 C642 1.375 . S
C643 C645 1.419 . S
C644 C642 1.418 . S
C644 C649 1.425 . S
C644 C651 1.409 1_566 S
C645 H637 0.930 . S
C645 C643 1.419 . S
C645 C646 1.362 . S
C646 H638 0.930 . S
C646 C645 1.362 . S
C646 C649 1.409 . S
C647 H639 0.930 . S
C647 C648 1.355 . S
C647 C649 1.415 . S
C648 C647 1.355 . S
C648 C650 1.419 1_566 S
C649 C644 1.425 . S
C649 C646 1.409 . S
C649 C647 1.415 . S
C650 H640 0.930 . S
C650 C648 1.419 1_544 S
C650 C651 1.362 . S
C651 H641 0.930 . S
C651 C644 1.409 1_544 S
C651 C650 1.362 . S
H652 C658 0.930 . S
H653 C661 0.930 . S
H654 C662 0.930 . S
H655 C663 0.930 . S
H656 C666 0.930 . S
H657 C667 0.930 . S
C658 H652 0.930 . S
C658 C659 1.355 . S
C658 C660 1.415 . S
C659 C658 1.355 . S
C659 C661 1.419 . S
C660 C658 1.415 . S
C660 C665 1.425 . S
C660 C667 1.409 . S
C661 H653 0.930 . S
C661 C659 1.419 . S
C661 C662 1.362 . S
C662 H654 0.930 . S
C662 C661 1.362 . S
C662 C665 1.409 . S
C663 H655 0.930 . S
C663 C664 1.355 . S
C663 C665 1.415 . S
C664 C663 1.355 . S
C664 C666 1.419 . S
C665 C660 1.425 . S
C665 C662 1.409 . S
C665 C663 1.415 . S
C666 H656 0.930 . S
C666 C664 1.419 . S
C666 C667 1.362 . S
C667 H657 0.930 . S
C667 C660 1.409 . S
C667 C666 1.362 . S
H668 C674 0.930 . S
H669 C677 0.930 . S
H670 C678 0.930 . S
H671 C679 0.930 . S
H672 C682 0.930 . S
H673 C683 0.930 . S
C674 H668 0.930 . S
C674 C675 1.355 . S
C674 C676 1.415 . S
C675 C674 1.355 . S
C675 C677 1.419 . S
C676 C674 1.415 . S
C676 C681 1.425 . S
C676 C683 1.409 1_554 S
C677 H669 0.930 . S
C677 C675 1.419 . S
C677 C678 1.362 . S
C678 H670 0.930 . S
C678 C677 1.362 . S
C678 C681 1.409 . S
C679 H671 0.930 . S
C679 C680 1.355 . S
C679 C681 1.415 . S
C680 C679 1.355 . S
C680 C682 1.419 1_554 S
C681 C676 1.425 . S
C681 C678 1.409 . S
C681 C679 1.415 . S
C682 H672 0.930 . S
C682 C680 1.419 1_556 S
C682 C683 1.362 . S
C683 H673 0.930 . S
C683 C676 1.409 1_556 S
C683 C682 1.362 . S
H684 C690 0.930 . S
H685 C693 0.930 . S
H686 C694 0.930 . S
H687 C695 0.930 . S
H688 C698 0.930 . S
H689 C699 0.930 . S
C690 H684 0.930 . S
C690 C691 1.355 . S
C690 C692 1.415 . S
C691 C690 1.355 . S
C691 C693 1.419 . S
C692 C690 1.415 . S
C692 C697 1.425 . S
C692 C699 1.409 . S
C693 H685 0.930 . S
C693 C691 1.419 . S
C693 C694 1.362 . S
C694 H686 0.930 . S
C694 C693 1.362 . S
C694 C697 1.409 . S
C695 H687 0.930 . S
C695 C696 1.355 . S
C695 C697 1.415 . S
C696 C695 1.355 . S
C696 C698 1.419 . S
C697 C692 1.425 . S
C697 C694 1.409 . S
C697 C695 1.415 . S
C698 H688 0.930 . S
C698 C696 1.419 . S
C698 C699 1.362 . S
C699 H689 0.930 . S
C699 C692 1.409 . S
C699 C698 1.362 . S
H700 C706 0.930 1_554 S
H701 C709 0.930 . S
H702 C710 0.930 . S
H703 C711 0.930 . S
H704 C714 0.930 1_455 S
H705 C715 0.930 1_455 S
C706 H700 0.930 1_556 S
C706 C707 1.355 . S
C706 C708 1.415 . S
C707 C706 1.355 . S
C707 C709 1.419 . S
C708 C706 1.415 . S
C708 C713 1.425 . S
C708 C715 1.409 1_556 S
C709 H701 0.930 . S
C709 C707 1.419 . S
C709 C710 1.362 . S
C710 H702 0.930 . S
C710 C709 1.362 . S
C710 C713 1.409 . S
C711 H703 0.930 . S
C711 C712 1.355 . S
C711 C713 1.415 . S
C712 C711 1.355 . S
C712 C714 1.419 1_556 S
C713 C708 1.425 . S
C713 C710 1.409 . S
C713 C711 1.415 . S
C714 H704 0.930 1_655 S
C714 C712 1.419 1_554 S
C714 C715 1.362 . S
C715 H705 0.930 1_655 S
C715 C708 1.409 1_554 S
C715 C714 1.362 . S
H716 C722 0.930 . S
H717 C725 0.930 . S
H718 C726 0.930 . S
H719 C727 0.930 . S
H720 C730 0.930 . S
H721 C731 0.930 . S
C722 H716 0.930 . S
C722 C723 1.355 . S
C722 C724 1.415 . S
C723 C722 1.355 . S
C723 C725 1.419 . S
C724 C722 1.415 . S
C724 C729 1.425 . S
C724 C731 1.409 . S
C725 H717 0.930 . S
C725 C723 1.419 . S
C725 C726 1.362 . S
C726 H718 0.930 . S
C726 C725 1.362 . S
C726 C729 1.409 . S
C727 H719 0.930 . S
C727 C728 1.355 . S
C727 C729 1.415 . S
C728 C727 1.355 . S
C728 C730 1.419 . S
C729 C724 1.425 . S
C729 C726 1.409 . S
C729 C727 1.415 . S
C730 H720 0.930 . S
C730 C728 1.419 . S
C730 C731 1.362 . S
C731 H721 0.930 . S
C731 C724 1.409 . S
C731 C730 1.362 . S
H732 C738 0.930 . S
H733 C741 0.930 . S
H734 C742 0.930 . S
H735 C743 0.930 . S
H736 C746 0.930 . S
H737 C747 0.930 . S
C738 H732 0.930 . S
C738 C739 1.355 . S
C738 C740 1.415 . S
C739 C738 1.355 . S
C739 C741 1.419 . S
C740 C738 1.415 . S
C740 C745 1.425 . S
C740 C747 1.409 . S
C741 H733 0.930 . S
C741 C739 1.419 . S
C741 C742 1.362 . S
C742 H734 0.930 . S
C742 C741 1.362 . S
C742 C745 1.409 . S
C743 H735 0.930 . S
C743 C744 1.355 . S
C743 C745 1.415 . S
C744 C743 1.355 . S
C744 C746 1.419 . S
C745 C740 1.425 . S
C745 C742 1.409 . S
C745 C743 1.415 . S
C746 H736 0.930 . S
C746 C744 1.419 . S
C746 C747 1.362 . S
C747 H737 0.930 . S
C747 C740 1.409 . S
C747 C746 1.362 . S
H748 C754 0.930 . S
H749 C757 0.930 . S
H750 C758 0.930 . S
H751 C759 0.930 . S
H752 C762 0.930 . S
H753 C763 0.930 . S
C754 H748 0.930 . S
C754 C755 1.355 . S
C754 C756 1.415 . S
C755 C754 1.355 . S
C755 C757 1.419 . S
C756 C754 1.415 . S
C756 C761 1.425 . S
C756 C763 1.409 . S
C757 H749 0.930 . S
C757 C755 1.419 . S
C757 C758 1.362 . S
C758 H750 0.930 . S
C758 C757 1.362 . S
C758 C761 1.409 . S
C759 H751 0.930 . S
C759 C760 1.355 . S
C759 C761 1.415 . S
C760 C759 1.355 . S
C760 C762 1.419 . S
C761 C756 1.425 . S
C761 C758 1.409 . S
C761 C759 1.415 . S
C762 H752 0.930 . S
C762 C760 1.419 . S
C762 C763 1.362 . S
C763 H753 0.930 . S
C763 C756 1.409 . S
C763 C762 1.362 . S
C387 C1 1.572 . S
C392 C306 1.603 . S
C403 C67 1.563 . S
C408 C330 1.553 . S
C424 C350 1.455 . S
C419 C97 1.437 . S
C435 C133 1.465 . S
C440 C373 1.471 . S
C456 C332 1.673 . S
C451 C25 1.694 . S
C472 C308 1.622 . S
C467 C37 1.645 . S
C488 C376 1.605 . S
C483 C103 1.618 . S
C504 C353 1.531 . S
C499 C109 1.608 . S
C515 C31 1.408 . S
C520 C378 1.405 . S
C536 C327 1.642 . S
C531 C73 1.609 . S
C547 C139 1.635 . S
C552 C305 1.646 . S
C563 C61 1.386 . S
C568 C355 1.347 . S
C584 C309 1.736 1_545 S
C579 C175 1.719 . S
C595 C181 1.639 . S
C600 C331 1.689 . S
C611 C247 1.791 . S
C616 C351 1.807 . S
C627 C277 1.806 . S
C632 C374 1.819 . S
C643 C145 1.616 . S
C648 C329 1.591 . S
C664 C307 1.679 . S
C659 C211 1.622 . S
C680 C377 1.557 . S
C675 C217 1.556 . S
C696 C354 1.605 . S
C691 C283 1.607 . S
C707 C169 1.914 . S
C712 C375 1.881 . S
C728 C328 1.638 . S
C723 C241 1.629 . S
C744 C304 1.627 . S
C739 C253 1.608 . S
C755 C205 1.861 . S
C760 C352 1.896 . S
