# Generated by pormake.
# Topology nom, (4,4)-cn, num edge types: 1
# Building blocks:
#     Node 0, Type 0, BuildingBlock: KUFVIS_clean_linker_0, # of connection points: 4
#     Node 1, Type 0, BuildingBlock: KUFVIS_clean_linker_0, # of connection points: 4
#     Node 2, Type 0, BuildingBlock: KUFVIS_clean_linker_0, # of connection points: 4
#     Node 3, Type 0, BuildingBlock: KUFVIS_clean_linker_0, # of connection points: 4
#     Node 4, Type 0, BuildingBlock: KUFVIS_clean_linker_0, # of connection points: 4
#     Node 5, Type 0, BuildingBlock: KUFVIS_clean_linker_0, # of connection points: 4
#     Node 6, Type 1, BuildingBlock: AZAVOO_clean_sbu_0, # of connection points: 4
#     Node 7, Type 1, BuildingBlock: AZAVOO_clean_sbu_0, # of connection points: 4
#     Node 8, Type 1, BuildingBlock: AZAVOO_clean_sbu_0, # of connection points: 4
#     Node 9, Type 1, BuildingBlock: AZAVOO_clean_sbu_0, # of connection points: 4
#     Node 10, Type 1, BuildingBlock: AZAVOO_clean_sbu_0, # of connection points: 4
#     Node 11, Type 1, BuildingBlock: AZAVOO_clean_sbu_0, # of connection points: 4
#     Edge 12, Type (0, 1), BuildingBlock: ZUJKAS_clean_linker_0, # of connection points: 2
#     Edge 13, Type (0, 1), BuildingBlock: ZUJKAS_clean_linker_0, # of connection points: 2
#     Edge 14, Type (0, 1), BuildingBlock: ZUJKAS_clean_linker_0, # of connection points: 2
#     Edge 15, Type (0, 1), BuildingBlock: ZUJKAS_clean_linker_0, # of connection points: 2
#     Edge 16, Type (0, 1), BuildingBlock: ZUJKAS_clean_linker_0, # of connection points: 2
#     Edge 17, Type (0, 1), BuildingBlock: ZUJKAS_clean_linker_0, # of connection points: 2
#     Edge 18, Type (0, 1), BuildingBlock: ZUJKAS_clean_linker_0, # of connection points: 2
#     Edge 19, Type (0, 1), BuildingBlock: ZUJKAS_clean_linker_0, # of connection points: 2
#     Edge 20, Type (0, 1), BuildingBlock: ZUJKAS_clean_linker_0, # of connection points: 2
#     Edge 21, Type (0, 1), BuildingBlock: ZUJKAS_clean_linker_0, # of connection points: 2
#     Edge 22, Type (0, 1), BuildingBlock: ZUJKAS_clean_linker_0, # of connection points: 2
#     Edge 23, Type (0, 1), BuildingBlock: ZUJKAS_clean_linker_0, # of connection points: 2
#     Edge 24, Type (0, 1), BuildingBlock: ZUJKAS_clean_linker_0, # of connection points: 2
#     Edge 25, Type (0, 1), BuildingBlock: ZUJKAS_clean_linker_0, # of connection points: 2
#     Edge 26, Type (0, 1), BuildingBlock: ZUJKAS_clean_linker_0, # of connection points: 2
#     Edge 27, Type (0, 1), BuildingBlock: ZUJKAS_clean_linker_0, # of connection points: 2
#     Edge 28, Type (0, 1), BuildingBlock: ZUJKAS_clean_linker_0, # of connection points: 2
#     Edge 29, Type (0, 1), BuildingBlock: ZUJKAS_clean_linker_0, # of connection points: 2
#     Edge 30, Type (0, 1), BuildingBlock: ZUJKAS_clean_linker_0, # of connection points: 2
#     Edge 31, Type (0, 1), BuildingBlock: ZUJKAS_clean_linker_0, # of connection points: 2
#     Edge 32, Type (0, 1), BuildingBlock: ZUJKAS_clean_linker_0, # of connection points: 2
#     Edge 33, Type (0, 1), BuildingBlock: ZUJKAS_clean_linker_0, # of connection points: 2
#     Edge 34, Type (0, 1), BuildingBlock: ZUJKAS_clean_linker_0, # of connection points: 2
#     Edge 35, Type (0, 1), BuildingBlock: ZUJKAS_clean_linker_0, # of connection points: 2
# Relax obj value: 0.031
# Max RMSD: 0.157
# Mean RMSD: 0.093
data_MOF--net-nom--node1-AZAVOO_clean_sbu_0--node2-KUFVIS_clean_linker_0--edge1-ZUJKAS_clean_linker_0
_symmetry_space_group_name_H-M    P1
_symmetry_Int_Tables_number       1
_symmetry_cell_setting            triclinic
loop_
_symmetry_equiv_pos_as_xyz
'x, y, z'
_cell_length_a     59.190857
_cell_length_b     59.5994
_cell_length_c     58.061745
_cell_angle_alpha  91.145469
_cell_angle_beta   91.228557
_cell_angle_gamma 120.00447
loop_
_atom_site_label
_atom_site_type_symbol
_atom_site_fract_x
_atom_site_fract_y
_atom_site_fract_z
_atom_type_partial_charge
H0 H 0.10152 0.59424 0.34594 0.0
H1 H 0.04004 0.56656 0.29445 0.0
H2 H 0.02529 0.53423 0.36253 0.0
H3 H 0.98546 0.52624 0.3555 0.0
H4 H 0.92605 0.49064 0.302 0.0
H5 H 1.00584 0.52994 0.2837 0.0
C6 C 0.08107 0.58176 0.34093 0.0
C7 C 0.06398 0.56507 0.35694 0.0
C8 C 0.07262 0.58174 0.3183 0.0
C9 C 0.04626 0.56527 0.31176 0.0
C10 C 0.02833 0.54799 0.32755 0.0
C11 C 0.03788 0.54771 0.3501 0.0
C12 C 0.99986 0.53085 0.32064 0.0
C13 C 0.98032 0.52153 0.33738 0.0
C14 C 0.95374 0.50601 0.33083 0.0
C15 C 0.94655 0.50139 0.30736 0.0
C16 C 0.96523 0.51039 0.29052 0.0
C17 C 0.99179 0.5242 0.29712 0.0
H18 H 0.53578 0.10223 0.50253 0.0
H19 H 0.49119 0.04236 0.45163 0.0
H20 H 0.50118 0.02306 0.52145 0.0
H21 H 0.46343 0.98748 0.51327 0.0
H22 H 0.43348 0.92703 0.46096 0.0
H23 H 0.48804 1.00449 0.4428 0.0
C24 C 0.52429 0.08173 0.49778 0.0
C25 C 0.51859 0.06342 0.51461 0.0
C26 C 0.51502 0.07415 0.47506 0.0
C27 C 0.49929 0.04771 0.46908 0.0
C28 C 0.49413 0.02855 0.48551 0.0
C29 C 0.50439 0.0369 0.50835 0.0
C30 C 0.47773 1.00017 0.4789 0.0
C31 C 0.46309 0.98167 0.49545 0.0
C32 C 0.44723 0.95533 0.48898 0.0
C33 C 0.44541 0.94744 0.46588 0.0
C34 C 0.45976 0.96512 0.44922 0.0
C35 C 0.47635 0.99128 0.45582 0.0
H36 H 0.55304 0.44967 0.61027 0.0
H37 H 0.51861 0.4768 0.6598 0.0
H38 H 0.53303 0.50666 0.59099 0.0
H39 H 0.49581 0.50848 0.59848 0.0
H40 H 0.48927 0.55946 0.64748 0.0
H41 H 0.52859 0.51875 0.66788 0.0
C42 C 0.54484 0.46183 0.61472 0.0
C43 C 0.54362 0.47794 0.59821 0.0
C44 C 0.53592 0.46137 0.6369 0.0
C45 C 0.52574 0.47751 0.64266 0.0
C46 C 0.52425 0.49395 0.62617 0.0
C47 C 0.53325 0.49384 0.60384 0.0
C48 C 0.51401 0.51165 0.63224 0.0
C49 C 0.50021 0.51763 0.61555 0.0
C50 C 0.49188 0.53539 0.62082 0.0
C51 C 0.49673 0.54666 0.64305 0.0
C52 C 0.50944 0.54032 0.66012 0.0
C53 C 0.5182 0.52298 0.65467 0.0
H54 H 0.10709 0.56986 0.79525 0.0
H55 H 0.04891 0.52785 0.8445 0.0
H56 H 0.0263 0.53498 0.77481 0.0
H57 H 0.99132 0.49572 0.78307 0.0
H58 H 0.93225 0.48249 0.83106 0.0
H59 H 0.01273 0.53151 0.85165 0.0
C60 C 0.08672 0.55919 0.79969 0.0
C61 C 0.06735 0.55315 0.7826 0.0
C62 C 0.08022 0.55023 0.82202 0.0
C63 C 0.05379 0.53523 0.82734 0.0
C64 C 0.03387 0.52985 0.81056 0.0
C65 C 0.04103 0.53875 0.78808 0.0
C66 C 1.00574 0.5157 0.81649 0.0
C67 C 0.98613 0.49945 0.79991 0.0
C68 C 0.9596 0.48804 0.80493 0.0
C69 C 0.9527 0.49214 0.82685 0.0
C70 C 0.97177 0.50727 0.84382 0.0
C71 C 0.99821 0.51915 0.83858 0.0
H72 H 0.49866 0.93318 0.01346 0.0
H73 H 0.53125 0.98572 0.95834 0.0
H74 H 0.51866 0.01224 0.02428 0.0
H75 H 0.55527 0.04859 0.01545 0.0
H76 H 0.57003 0.10032 0.96033 0.0
H77 H 0.52544 0.01841 0.94614 0.0
C78 C 0.5069 0.95259 0.007 0.0
C79 C 0.50881 0.9725 0.02151 0.0
C80 C 0.51438 0.95705 0.98408 0.0
C81 C 0.52459 0.98222 0.97581 0.0
C82 C 0.52683 1.00273 0.99026 0.0
C83 C 0.51812 0.99728 0.01299 0.0
C84 C 0.53854 0.0298 0.98195 0.0
C85 C 0.55252 0.05138 -0.00253 0.0
C86 C 0.56314 0.07682 0.98991 0.0
C87 C 0.56106 0.08073 0.96648 0.0
C88 C 0.54807 0.05976 0.95069 0.0
C89 C 0.53616 0.03439 0.95849 0.0
H90 H 0.49581 0.59309 0.11922 0.0
H91 H 0.5276 0.56533 0.17099 0.0
H92 H 0.51672 0.53625 0.10036 0.0
H93 H 0.55231 0.53271 0.11126 0.0
H94 H 0.56047 0.48606 0.16235 0.0
H95 H 0.51706 0.52389 0.17763 0.0
C96 C 0.50411 0.58118 0.12408 0.0
C97 C 0.50666 0.56567 0.10711 0.0
C98 C 0.51132 0.581 0.14719 0.0
C99 C 0.52113 0.56471 0.15329 0.0
C100 C 0.52319 0.54823 0.13662 0.0
C101 C 0.51564 0.5488 0.11349 0.0
C102 C 0.53317 0.53057 0.14343 0.0
C103 C 0.54787 0.52451 0.12815 0.0
C104 C 0.55704 0.5078 0.13471 0.0
C105 C 0.55262 0.4982 0.15691 0.0
C106 C 0.53879 0.50446 0.17245 0.0
C107 C 0.52842 0.51993 0.16555 0.0
Mg108 Mg 0.63669 0.37345 0.35858 0.0
O109 O 0.62933 0.3951 0.38816 0.0
O110 O 0.64546 0.43606 0.37741 0.0
Mg111 Mg 0.66185 0.44058 0.34154 0.0
C112 C 0.63407 0.41831 0.39193 0.0
C113 C 0.60294 0.32447 0.38619 0.0
O114 O 0.58628 0.33229 0.38125 0.0
O115 O 0.68031 0.39372 0.36941 0.0
O116 O 0.69385 0.43308 0.35564 0.0
O117 O 0.5982 0.36362 0.34206 0.0
O118 O 0.63524 0.39903 0.33525 0.0
C119 C 0.69847 0.41667 0.36533 0.0
C120 C 0.61021 0.38585 0.33253 0.0
O121 O 0.62658 0.33844 0.38063 0.0
Mg122 Mg 0.28628 0.64644 0.58363 0.0
O123 O 0.25668 0.62809 0.55255 0.0
O124 O 0.23178 0.58605 0.56011 0.0
Mg125 Mg 0.24421 0.57742 0.59455 0.0
C126 C 0.23788 0.60522 0.5472 0.0
C127 C 0.32211 0.70349 0.57999 0.0
O128 O 0.31828 0.69881 0.60202 0.0
O129 O 0.30989 0.62784 0.57113 0.0
O130 O 0.28348 0.58651 0.57979 0.0
O131 O 0.25853 0.65494 0.60158 0.0
O132 O 0.2589 0.61822 0.60452 0.0
C133 C 0.30481 0.60436 0.57198 0.0
C134 C 0.2479 0.6317 0.60915 0.0
O135 O 0.31156 0.68437 0.56553 0.0
Mg136 Mg 0.64567 0.26983 0.75244 0.0
O137 O 0.63743 0.24201 0.7209 0.0
O138 O 0.65424 0.21701 0.73048 0.0
Mg139 Mg 0.67315 0.22849 0.7665 0.0
C140 C 0.64196 0.22355 0.71628 0.0
C141 C 0.62337 0.30479 0.74518 0.0
O142 O 0.62058 0.29895 0.76703 0.0
O143 O 0.68876 0.29442 0.74392 0.0
O144 O 0.70406 0.26833 0.75393 0.0
O145 O 0.60815 0.24034 0.76675 0.0
O146 O 0.64596 0.24241 0.77396 0.0
C147 C 0.70754 0.28978 0.74633 0.0
C148 C 0.621 0.23028 0.77595 0.0
O149 O 0.63418 0.2955 0.73246 0.0
Mg150 Mg 0.39645 0.6491 0.86528 0.0
O151 O 0.40463 0.62912 0.89551 0.0
O152 O 0.38691 0.58722 0.88487 0.0
Mg153 Mg 0.36747 0.58014 0.84915 0.0
C154 C 0.39966 0.60604 0.89942 0.0
C155 C 0.40966 0.70472 0.87606 0.0
O156 O 0.40142 0.70043 0.85436 0.0
O157 O 0.35365 0.63159 0.87486 0.0
O158 O 0.3375 0.59009 0.86361 0.0
O159 O 0.4332 0.65596 0.84933 0.0
O160 O 0.3948 0.62092 0.84226 0.0
C161 C 0.3346 0.60836 0.87222 0.0
C162 C 0.41961 0.63322 0.83939 0.0
O163 O 0.40931 0.68626 0.88701 0.0
Mg164 Mg 0.75902 0.39483 0.04873 0.0
O165 O 0.7869 0.40436 0.08079 0.0
O166 O 0.81219 0.38748 0.0723 0.0
Mg167 Mg 0.80129 0.36768 0.03672 0.0
C168 C 0.80548 0.39999 0.08597 0.0
C169 C 0.72521 0.41851 0.05309 0.0
O170 O 0.73274 0.42086 0.03171 0.0
O171 O 0.73434 0.35224 0.05839 0.0
O172 O 0.76121 0.33742 0.04944 0.0
O173 O 0.78848 0.43146 0.03316 0.0
O174 O 0.78677 0.39387 0.02784 0.0
C175 C 0.73946 0.33382 0.05669 0.0
C176 C 0.79858 0.41841 0.02456 0.0
O177 O 0.73284 0.4072 0.06701 0.0
Mg178 Mg 0.37797 0.75754 0.2125 0.0
O179 O 0.39717 0.7853 0.24443 0.0
O180 O 0.43933 0.81066 0.23678 0.0
Mg181 Mg 0.44747 0.79909 0.2018 0.0
C182 C 0.42015 0.80391 0.24996 0.0
C183 C 0.32034 0.72267 0.21734 0.0
O184 O 0.32386 0.72738 0.1953 0.0
O185 O 0.39601 0.73289 0.22285 0.0
O186 O 0.43808 0.75954 0.21561 0.0
O187 O 0.37059 0.78705 0.19687 0.0
O188 O 0.40638 0.78484 0.19192 0.0
C189 C 0.41969 0.73801 0.22245 0.0
C190 C 0.39375 0.79703 0.1888 0.0
O191 O 0.34028 0.73236 0.23104 0.0
H192 H 0.08256 0.56625 0.27708 0.0
H193 H 0.12214 0.59028 0.25496 0.0
H194 H 0.14749 0.65713 0.30068 0.0
H195 H 0.10797 0.63334 0.32261 0.0
H196 H 0.15897 0.66897 0.25312 0.0
H197 H 0.19128 0.60236 0.28678 0.0
H198 H 0.1603 0.58724 0.27123 0.0
H199 H 0.16409 0.6041 0.29828 0.0
C200 C 0.09617 0.58635 0.28187 0.0
C201 C 0.09237 0.59793 0.3016 0.0
C202 C 0.11887 0.59995 0.26941 0.0
C203 C 0.13796 0.62527 0.27652 0.0
C204 C 0.13308 0.63755 0.29501 0.0
H205 H 0.30519 0.71047 0.26191 0.0
H206 H 0.26045 0.68661 0.27543 0.0
C207 C 0.11052 0.62398 0.3075 0.0
C208 C 0.16403 0.63822 0.26629 0.0
H209 H 0.22018 0.63548 0.26312 0.0
C210 C 0.17231 0.66157 0.2551 0.0
C211 C 0.18152 0.62874 0.26937 0.0
C212 C 0.17405 0.60435 0.28221 0.0
C213 C 0.19766 0.67571 0.24684 0.0
C214 C 0.21504 0.66607 0.24969 0.0
C215 C 0.20675 0.64273 0.26089 0.0
C216 C 0.24206 0.68013 0.24145 0.0
C217 C 0.20588 0.7012 0.23569 0.0
C218 C 0.24649 0.68393 0.21786 0.0
C219 C 0.27194 0.69748 0.21011 0.0
C220 C 0.29351 0.70742 0.22579 0.0
C221 C 0.28902 0.70313 0.2494 0.0
C222 C 0.2635 0.68952 0.25715 0.0
H223 H 0.19257 0.70875 0.23969 0.0
H224 H 0.22606 0.71599 0.24142 0.0
H225 H 0.20551 0.69842 0.2167 0.0
H226 H 0.23025 0.67639 0.20543 0.0
H227 H 0.27465 0.70027 0.19179 0.0
H228 H 0.56336 0.10954 0.46221 0.0
H229 H 0.57578 0.14984 0.44254 0.0
H230 H 0.4945 0.12636 0.4317 0.0
H231 H 0.482 0.08582 0.45148 0.0
H232 H 0.56158 0.16255 0.39778 0.0
H233 H 0.52743 0.19414 0.4739 0.0
H234 H 0.53289 0.16694 0.47451 0.0
H235 H 0.50434 0.16369 0.45988 0.0
C236 C 0.54817 0.11267 0.45498 0.0
C237 C 0.52176 0.09469 0.45827 0.0
C238 C 0.55526 0.13568 0.44383 0.0
C239 C 0.53607 0.14121 0.43601 0.0
C240 C 0.50959 0.12249 0.43784 0.0
H241 H 0.55283 0.2884 0.39553 0.0
H242 H 0.53631 0.24372 0.40665 0.0
C243 C 0.50246 0.0993 0.4489 0.0
C244 C 0.54405 0.16755 0.42809 0.0
H245 H 0.54626 0.22394 0.44459 0.0
C246 C 0.5581 0.17596 0.40788 0.0
C247 C 0.53962 0.18499 0.44144 0.0
C248 C 0.52542 0.17719 0.46374 0.0
C249 C 0.56772 0.2014 0.40057 0.0
C250 C 0.56374 0.21903 0.41419 0.0
C251 C 0.54937 0.21045 0.43423 0.0
C252 C 0.57416 0.24644 0.40793 0.0
C253 C 0.58173 0.20902 0.37819 0.0
C254 C 0.60107 0.26311 0.40558 0.0
C255 C 0.61062 0.28873 0.39915 0.0
C256 C 0.59344 0.29824 0.39518 0.0
C257 C 0.56663 0.28174 0.39839 0.0
C258 C 0.55711 0.25614 0.40471 0.0
H259 H 0.57668 0.19178 0.36685 0.0
H260 H 0.57694 0.22218 0.36869 0.0
H261 H 0.60311 0.21931 0.38192 0.0
H262 H 0.61469 0.25627 0.40862 0.0
H263 H 0.63139 0.30095 0.39696 0.0
H264 H 0.44762 0.50111 0.59607 0.0
H265 H 0.4167 0.51099 0.57635 0.0
H266 H 0.46958 0.59269 0.58962 0.0
H267 H 0.50053 0.58292 0.60898 0.0
H268 H 0.39581 0.53535 0.60171 0.0
H269 H 0.44131 0.59204 0.52479 0.0
H270 H 0.4525 0.57209 0.53826 0.0
H271 H 0.46236 0.60391 0.55016 0.0
C272 C 0.45304 0.52118 0.59393 0.0
C273 C 0.47638 0.54125 0.6041 0.0
C274 C 0.43534 0.52682 0.58277 0.0
C275 C 0.44088 0.5526 0.58136 0.0
C276 C 0.46505 0.57271 0.59006 0.0
H277 H 0.35799 0.63608 0.57327 0.0
H278 H 0.39073 0.62238 0.57161 0.0
C279 C 0.48265 0.56709 0.60128 0.0
C280 C 0.42001 0.55833 0.57458 0.0
H281 H 0.40598 0.59603 0.54024 0.0
C282 C 0.39778 0.5482 0.58796 0.0
C283 C 0.42284 0.57546 0.5569 0.0
C284 C 0.44594 0.58633 0.54156 0.0
C285 C 0.37881 0.5555 0.58482 0.0
C286 C 0.38175 0.57291 0.56733 0.0
C287 C 0.40371 0.58264 0.55357 0.0
C288 C 0.36266 0.58194 0.56402 0.0
C289 C 0.35647 0.54544 0.60107 0.0
C290 C 0.33622 0.56401 0.55915 0.0
C291 C 0.31752 0.57169 0.56039 0.0
C292 C 0.32495 0.59759 0.56607 0.0
C293 C 0.35167 0.61599 0.56887 0.0
C294 C 0.37038 0.60818 0.56795 0.0
H295 H 0.36061 0.53771 0.61688 0.0
H296 H 0.35221 0.56093 0.60631 0.0
H297 H 0.3387 0.52945 0.59227 0.0
H298 H 0.3299 0.54378 0.5555 0.0
H299 H 0.29711 0.55713 0.55781 0.0
H300 H 0.95373 0.44496 0.78176 0.0
H301 H 0.91403 0.41149 0.76107 0.0
H302 H 0.87792 0.45827 0.7707 0.0
H303 H 0.91743 0.49163 0.79115 0.0
H304 H 0.86758 0.38756 0.78461 0.0
H305 H 0.85366 0.42901 0.70468 0.0
H306 H 0.88499 0.44211 0.71975 0.0
H307 H 0.86118 0.45005 0.72971 0.0
C308 C 0.93764 0.44844 0.77867 0.0
C309 C 0.93854 0.47078 0.78805 0.0
C310 C 0.91497 0.42931 0.76696 0.0
C311 C 0.89308 0.43247 0.76416 0.0
C312 C 0.89468 0.45559 0.77221 0.0
H313 H 0.72707 0.34232 0.74676 0.0
H314 H 0.77315 0.3762 0.74746 0.0
C315 C 0.9172 0.47457 0.78404 0.0
C316 C 0.86737 0.4103 0.75639 0.0
H317 H 0.81532 0.39246 0.71899 0.0
C318 C 0.85634 0.38837 0.76997 0.0
C319 C 0.85262 0.41161 0.73751 0.0
C320 C 0.86379 0.43437 0.72193 0.0
C321 C 0.83055 0.36824 0.76591 0.0
C322 C 0.81555 0.3697 0.74726 0.0
C323 C 0.82683 0.39132 0.73323 0.0
C324 C 0.78771 0.34958 0.74304 0.0
C325 C 0.81921 0.3463 0.78244 0.0
C326 C 0.78054 0.32349 0.73925 0.0
C327 C 0.7543 0.30411 0.73917 0.0
C328 C 0.73466 0.31048 0.7424 0.0
C329 C 0.74173 0.33677 0.74427 0.0
C330 C 0.76807 0.35616 0.74468 0.0
H331 H 0.83097 0.35139 0.79887 0.0
H332 H 0.79889 0.34085 0.78649 0.0
H333 H 0.81894 0.32909 0.77445 0.0
H334 H 0.79533 0.31802 0.73729 0.0
H335 H 0.74947 0.28405 0.73732 0.0
H336 H 0.49069 0.94274 0.94105 0.0
H337 H 0.47548 0.90095 0.92037 0.0
H338 H 0.51232 0.87883 0.973 0.0
H339 H 0.52769 0.92045 0.99357 0.0
H340 H 0.50325 0.87215 0.90515 0.0
H341 H 0.43126 0.82506 0.97338 0.0
H342 H 0.44721 0.85947 0.96887 0.0
H343 H 0.46457 0.84594 0.98325 0.0
C344 C 0.49616 0.92925 0.94782 0.0
C345 C 0.51011 0.9347 0.96904 0.0
C346 C 0.48735 0.90536 0.93609 0.0
C347 C 0.49237 0.88668 0.94544 0.0
C348 C 0.5079 0.89286 0.96571 0.0
H349 H 0.43457 0.72255 0.9185 0.0
H350 H 0.4552 0.76698 0.93474 0.0
C351 C 0.51669 0.91663 0.9774 0.0
C352 C 0.47984 0.86002 0.93512 0.0
H353 H 0.43404 0.7974 0.94533 0.0
C354 C 0.48805 0.85578 0.91382 0.0
C355 C 0.46007 0.83876 0.94658 0.0
C356 C 0.45003 0.8424 0.96921 0.0
C357 C 0.47735 0.83065 0.90388 0.0
C358 C 0.4575 0.80934 0.91532 0.0
C359 C 0.44927 0.8137 0.93659 0.0
C360 C 0.44483 0.78238 0.90549 0.0
C361 C 0.48789 0.8271 0.88151 0.0
C362 C 0.43161 0.77613 0.88392 0.0
C363 C 0.41987 0.75083 0.8746 0.0
C364 C 0.42085 0.73112 0.88676 0.0
C365 C 0.43347 0.73725 0.90867 0.0
C366 C 0.44532 0.76265 0.91795 0.0
H367 H 0.50762 0.84374 0.87852 0.0
H368 H 0.489 0.80904 0.88126 0.0
H369 H 0.4747 0.82573 0.86701 0.0
H370 H 0.43031 0.79083 0.87427 0.0
H371 H 0.41013 0.74676 0.85776 0.0
H372 H 0.60219 0.53981 0.11306 0.0
H373 H 0.63132 0.52708 0.09453 0.0
H374 H 0.57545 0.44664 0.10469 0.0
H375 H 0.5464 0.45923 0.12279 0.0
H376 H 0.6526 0.50096 0.11709 0.0
H377 H 0.59624 0.44447 0.03882 0.0
H378 H 0.58852 0.46613 0.05446 0.0
H379 H 0.57759 0.43397 0.06432 0.0
C380 C 0.59585 0.51942 0.11057 0.0
C381 C 0.57206 0.50048 0.11922 0.0
C382 C 0.61254 0.51217 0.1002 0.0
C383 C 0.60548 0.48589 0.09808 0.0
C384 C 0.58113 0.46697 0.10572 0.0
H385 H 0.70357 0.4157 0.09524 0.0
H386 H 0.67535 0.43315 0.10611 0.0
C387 C 0.56458 0.47418 0.11612 0.0
C388 C 0.62434 0.47814 0.09006 0.0
H389 H 0.63088 0.43752 0.05198 0.0
C390 C 0.64802 0.48734 0.10267 0.0
C391 C 0.6184 0.46045 0.0712 0.0
C392 C 0.59392 0.45087 0.05627 0.0
C393 C 0.66556 0.47873 0.09736 0.0
C394 C 0.65903 0.46009 0.0792 0.0
C395 C 0.63572 0.45151 0.06614 0.0
C396 C 0.67635 0.44969 0.07301 0.0
C397 C 0.691 0.48983 0.11115 0.0
C398 C 0.68582 0.45267 0.0507 0.0
C399 C 0.70168 0.44257 0.04442 0.0
C400 C 0.70841 0.42914 0.06029 0.0
C401 C 0.69886 0.42606 0.08266 0.0
C402 C 0.68287 0.43616 0.08893 0.0
H403 H 0.69608 0.50853 0.12006 0.0
H404 H 0.6892 0.476 0.12448 0.0
H405 H 0.70724 0.49298 0.09995 0.0
H406 H 0.681 0.46295 0.03811 0.0
H407 H 0.70865 0.44533 0.02703 0.0
H408 H 0.39556 0.91955 0.48888 0.0
H409 H 0.3753 0.87931 0.50987 0.0
H410 H 0.44817 0.904 0.54725 0.0
H411 H 0.46858 0.94439 0.52607 0.0
H412 H 0.42794 0.85594 0.52351 0.0
H413 H 0.352 0.85853 0.5758 0.0
H414 H 0.35101 0.86659 0.54631 0.0
H415 H 0.37896 0.88739 0.56469 0.0
C416 C 0.40696 0.91677 0.50218 0.0
C417 C 0.43356 0.93507 0.50599 0.0
C418 C 0.39538 0.89379 0.51417 0.0
C419 C 0.41018 0.88869 0.53019 0.0
C420 C 0.43638 0.90764 0.53503 0.0
H421 H 0.34562 0.74736 0.6075 0.0
H422 H 0.36832 0.79231 0.59589 0.0
C423 C 0.44795 0.93078 0.52312 0.0
C424 C 0.39913 0.86241 0.53959 0.0
H425 H 0.34783 0.81685 0.56893 0.0
C426 C 0.4106 0.84748 0.53368 0.0
C427 C 0.37655 0.85143 0.55287 0.0
C428 C 0.36402 0.86688 0.56049 0.0
C429 C 0.39965 0.8216 0.54014 0.0
C430 C 0.37646 0.81028 0.55259 0.0
C431 C 0.36544 0.82546 0.55912 0.0
C432 C 0.36347 0.78282 0.55932 0.0
C433 C 0.41304 0.80661 0.53364 0.0
C434 C 0.35317 0.76247 0.54257 0.0
C435 C 0.34011 0.7366 0.54915 0.0
C436 C 0.33705 0.73067 0.5726 0.0
C437 C 0.34761 0.75116 0.58927 0.0
C438 C 0.36058 0.77692 0.58269 0.0
H439 H 0.43368 0.81968 0.52922 0.0
H440 H 0.41259 0.79426 0.5479 0.0
H441 H 0.40268 0.79377 0.51833 0.0
H442 H 0.35483 0.7666 0.52441 0.0
H443 H 0.33209 0.72129 0.53589 0.0
H444 H 0.51761 0.40968 0.63185 0.0
H445 H 0.52989 0.38354 0.65521 0.0
H446 H 0.57331 0.44872 0.70277 0.0
H447 H 0.56112 0.47512 0.67918 0.0
H448 H 0.60254 0.42753 0.68498 0.0
H449 H 0.50938 0.35031 0.71799 0.0
H450 H 0.50782 0.35438 0.68755 0.0
H451 H 0.51314 0.38025 0.70742 0.0
C452 C 0.52916 0.41819 0.64765 0.0
C453 C 0.5384 0.44436 0.65378 0.0
C454 C 0.5361 0.40322 0.66102 0.0
C455 C 0.55237 0.41412 0.68081 0.0
C456 C 0.5606 0.43992 0.68762 0.0
H457 H 0.59856 0.32588 0.76848 0.0
H458 H 0.58228 0.35338 0.75371 0.0
C459 C 0.55349 0.4549 0.67428 0.0
C460 C 0.563 0.39939 0.69269 0.0
H461 H 0.54509 0.34205 0.71828 0.0
C462 C 0.59003 0.40898 0.69253 0.0
C463 C 0.54667 0.37525 0.70257 0.0
C464 C 0.51767 0.36452 0.70413 0.0
C465 C 0.60106 0.3947 0.70134 0.0
C466 C 0.58458 0.37002 0.71025 0.0
C467 C 0.55766 0.36082 0.71113 0.0
C468 C 0.59491 0.35356 0.71902 0.0
C469 C 0.63027 0.40616 0.70107 0.0
C470 C 0.60726 0.34433 0.70433 0.0
C471 C 0.61665 0.32852 0.71273 0.0
C472 C 0.61374 0.32162 0.73595 0.0
C473 C 0.60122 0.33084 0.75052 0.0
C474 C 0.59184 0.34655 0.74212 0.0
H475 H 0.64054 0.4275 0.69917 0.0
H476 H 0.63776 0.4019 0.71711 0.0
H477 H 0.63514 0.39748 0.68626 0.0
H478 H 0.60942 0.34914 0.68632 0.0
H479 H 0.62607 0.32166 0.70104 0.0
H480 H 0.08744 0.51526 0.84606 0.0
H481 H 0.12811 0.52336 0.86576 0.0
H482 H 0.16243 0.6051 0.85419 0.0
H483 H 0.12194 0.59708 0.83467 0.0
H484 H 0.17313 0.5445 0.84008 0.0
H485 H 0.19056 0.60498 0.91938 0.0
H486 H 0.15853 0.58551 0.90573 0.0
H487 H 0.18128 0.61644 0.89457 0.0
C488 C 0.10333 0.53503 0.84858 0.0
C489 C 0.10165 0.55556 0.83886 0.0
C490 C 0.12657 0.53964 0.85973 0.0
C491 C 0.14825 0.56486 0.86161 0.0
C492 C 0.14585 0.58557 0.85337 0.0
H493 H 0.31512 0.64153 0.87284 0.0
H494 H 0.26907 0.62962 0.87389 0.0
C495 C 0.12276 0.58096 0.8421 0.0
C496 C 0.17447 0.56911 0.86832 0.0
H497 H 0.22817 0.60568 0.90368 0.0
C498 C 0.18501 0.55747 0.85428 0.0
C499 C 0.19005 0.58638 0.8866 0.0
C500 C 0.17947 0.59889 0.90258 0.0
C501 C 0.21102 0.56344 0.85732 0.0
C502 C 0.2268 0.581 0.87542 0.0
C503 C 0.21607 0.59218 0.88988 0.0
C504 C 0.25479 0.58882 0.87867 0.0
C505 C 0.22168 0.55189 0.8403 0.0
C506 C 0.26216 0.57009 0.88209 0.0
C507 C 0.28834 0.57675 0.88113 0.0
C508 C 0.30776 0.60242 0.87726 0.0
C509 C 0.30061 0.62159 0.87581 0.0
C510 C 0.2743 0.6148 0.8764 0.0
H511 H 0.20924 0.5444 0.82425 0.0
H512 H 0.24177 0.56642 0.83558 0.0
H513 H 0.22234 0.53541 0.84818 0.0
H514 H 0.24753 0.55006 0.88453 0.0
H515 H 0.29328 0.56161 0.88269 0.0
H516 H 0.55644 0.1187 0.99348 0.0
H517 H 0.58451 0.15977 0.0146 0.0
H518 H 0.62981 0.12808 0.04359 0.0
H519 H 0.6019 0.08688 0.02216 0.0
H520 H 0.6019 0.17501 0.06303 0.0
H521 H 0.68094 0.18983 0.00414 0.0
H522 H 0.64728 0.1654 -0.00172 0.0
H523 H 0.6664 0.16039 0.0198 0.0
C524 C 0.57216 0.12037 0.00463 0.0
C525 C 0.57724 0.09975 0.00594 0.0
C526 C 0.58806 0.14377 0.01679 0.0
C527 C 0.60941 0.14705 0.03041 0.0
C528 C 0.61353 0.12596 0.03299 0.0
H529 H 0.74646 0.29422 0.07018 0.0
H530 H 0.71396 0.24811 0.06927 0.0
C531 C 0.59752 0.10243 0.02086 0.0
C532 C 0.62878 0.17332 0.03963 0.0
H533 H 0.68983 0.22356 0.03057 0.0
C534 C 0.62127 0.1856 0.05619 0.0
C535 C 0.65393 0.18709 0.03053 0.0
C536 C 0.6627 0.17519 0.01208 0.0
C537 C 0.6383 0.2114 0.06384 0.0
C538 C 0.66322 0.22541 0.05424 0.0
C539 C 0.67081 0.21284 0.03804 0.0
C540 C 0.68148 0.25344 0.05959 0.0
C541 C 0.62945 0.22332 0.08214 0.0
C542 C 0.67394 0.27196 0.05531 0.0
C543 C 0.69251 0.29847 0.05618 0.0
C544 C 0.719 0.30683 0.06084 0.0
C545 C 0.72621 0.28836 0.06639 0.0
C546 C 0.70764 0.26198 0.06588 0.0
H547 H 0.61454 0.20825 0.09297 0.0
H548 H 0.64608 0.23745 0.09348 0.0
H549 H 0.62042 0.23363 0.07372 0.0
H550 H 0.65403 0.26592 0.0499 0.0
H551 H 0.68641 0.31222 0.0516 0.0
H552 H 0.52105 0.63053 0.14267 0.0
H553 H 0.50772 0.65453 0.16765 0.0
H554 H 0.48149 0.59413 0.21711 0.0
H555 H 0.49301 0.56882 0.19103 0.0
H556 H 0.44604 0.60592 0.2117 0.0
H557 H 0.53681 0.69887 0.22336 0.0
H558 H 0.53115 0.69203 0.193 0.0
H559 H 0.53655 0.67069 0.21109 0.0
C560 C 0.51255 0.62231 0.1589 0.0
C561 C 0.50775 0.59753 0.16464 0.0
C562 C 0.50537 0.63636 0.17345 0.0
C563 C 0.49401 0.62649 0.19459 0.0
C564 C 0.49036 0.60228 0.20098 0.0
H565 H 0.45835 0.74136 0.25101 0.0
H566 H 0.47451 0.71075 0.25257 0.0
C567 C 0.49717 0.58792 0.18614 0.0
C568 C 0.48355 0.64037 0.20841 0.0
H569 H 0.49652 0.70158 0.22221 0.0
C570 C 0.45729 0.62678 0.21458 0.0
C571 C 0.49825 0.66744 0.21314 0.0
C572 C 0.52733 0.68293 0.21003 0.0
C573 C 0.44483 0.63982 0.22326 0.0
C574 C 0.4586 0.6673 0.22471 0.0
C575 C 0.48548 0.68059 0.22059 0.0
C576 C 0.44535 0.6828 0.22806 0.0
C577 C 0.41699 0.62387 0.23049 0.0
C578 C 0.42285 0.67697 0.21462 0.0
C579 C 0.41299 0.69394 0.21456 0.0
C580 C 0.42603 0.71757 0.22719 0.0
C581 C 0.44789 0.7231 0.24127 0.0
C582 C 0.4572 0.70567 0.24201 0.0
H583 H 0.41377 0.6057 0.23835 0.0
H584 H 0.41175 0.63463 0.24309 0.0
H585 H 0.40364 0.61818 0.21506 0.0
H586 H 0.4138 0.66014 0.20298 0.0
H587 H 0.39645 0.68957 0.20317 0.0
H588 H 0.94794 0.52903 0.37031 0.0
H589 H 0.9087 0.51253 0.39311 0.0
H590 H 0.87214 0.44213 0.3506 0.0
H591 H 0.91169 0.45734 0.32964 0.0
H592 H 0.86676 0.5069 0.37989 0.0
H593 H 0.83956 0.40985 0.40673 0.0
H594 H 0.8719 0.43134 0.39691 0.0
H595 H 0.84586 0.40963 0.37682 0.0
C596 C 0.93191 0.50958 0.36658 0.0
C597 C 0.93275 0.4947 0.34788 0.0
C598 C 0.90935 0.50019 0.37951 0.0
C599 C 0.8872 0.47589 0.37382 0.0
C600 C 0.8889 0.46051 0.35607 0.0
H601 H 0.74044 0.44982 0.34183 0.0
H602 H 0.78613 0.46453 0.3504 0.0
C603 C 0.9115 0.46954 0.34364 0.0
C604 C 0.86112 0.46838 0.38313 0.0
H605 H 0.80201 0.41453 0.39122 0.0
C606 C 0.8529 0.4868 0.38312 0.0
C607 C 0.84281 0.44246 0.3884 0.0
C608 C 0.85074 0.4224 0.39249 0.0
C609 C 0.82658 0.47945 0.38542 0.0
C610 C 0.80769 0.4528 0.38647 0.0
C611 C 0.81622 0.43485 0.38937 0.0
C612 C 0.77941 0.44314 0.38168 0.0
C613 C 0.81932 0.50038 0.38593 0.0
C614 C 0.75997 0.42473 0.39549 0.0
C615 C 0.73344 0.41549 0.39008 0.0
C616 C 0.72606 0.42478 0.37094 0.0
C617 C 0.74552 0.44271 0.35697 0.0
C618 C 0.77177 0.4514 0.36204 0.0
H619 H 0.83479 0.51813 0.39521 0.0
H620 H 0.8177 0.50577 0.36803 0.0
H621 H 0.80054 0.49403 0.39444 0.0
H622 H 0.7653 0.41768 0.41052 0.0
H623 H 0.7188 0.40159 0.40109 0.0
H624 H 0.06296 0.52528 0.38052 0.0
H625 H 0.08899 0.52941 0.41561 0.0
H626 H 0.11621 0.61143 0.42022 0.0
H627 H 0.09 0.60725 0.38568 0.0
H628 H 0.14247 0.55939 0.41765 0.0
H629 H 0.10166 0.59225 0.48679 0.0
H630 H 0.08402 0.57759 0.45987 0.0
H631 H 0.10857 0.61141 0.46171 0.0
C632 C 0.07377 0.54394 0.38958 0.0
C633 C 0.07449 0.56594 0.38051 0.0
C634 C 0.08877 0.54635 0.40947 0.0
C635 C 0.10441 0.57071 0.42064 0.0
C636 C 0.10393 0.59237 0.41223 0.0
H637 H 0.23354 0.64117 0.52141 0.0
H638 H 0.2017 0.63248 0.4898 0.0
C639 C 0.08905 0.58999 0.39243 0.0
C640 C 0.12354 0.5743 0.43933 0.0
H641 H 0.14524 0.60022 0.49375 0.0
C642 C 0.14287 0.56798 0.43441 0.0
C643 C 0.12419 0.58577 0.46109 0.0
C644 C 0.10334 0.59192 0.46778 0.0
C645 C 0.16322 0.57346 0.45044 0.0
C646 C 0.16412 0.58534 0.47201 0.0
C647 C 0.14464 0.59137 0.47707 0.0
C648 C 0.18458 0.5908 0.48991 0.0
C649 C 0.184 0.5671 0.44397 0.0
C650 C 0.1856 0.57027 0.50023 0.0
C651 C 0.20365 0.57513 0.51821 0.0
C652 C 0.22108 0.60067 0.52631 0.0
C653 C 0.22053 0.62131 0.51549 0.0
C654 C 0.20228 0.61638 0.49754 0.0
H655 H 0.18394 0.56374 0.42507 0.0
H656 H 0.20367 0.58296 0.44981 0.0
H657 H 0.18038 0.54919 0.45255 0.0
H658 H 0.17192 0.55039 0.49478 0.0
H659 H 0.20352 0.55875 0.52611 0.0
H660 H 0.50654 0.09443 0.53955 0.0
H661 H 0.52722 0.11785 0.5759 0.0
H662 H 0.57109 0.07799 0.58028 0.0
H663 H 0.55052 0.05465 0.54342 0.0
H664 H 0.53127 0.10337 0.6205 0.0
H665 H 0.62778 0.155 0.57977 0.0
H666 H 0.59766 0.13596 0.56316 0.0
H667 H 0.61198 0.12021 0.57885 0.0
C668 C 0.52024 0.09032 0.54851 0.0
C669 C 0.52714 0.07294 0.5387 0.0
C670 C 0.53203 0.10369 0.56924 0.0
C671 C 0.55106 0.10005 0.58053 0.0
C672 C 0.55678 0.08141 0.57158 0.0
H673 H 0.65308 0.18766 0.69818 0.0
H674 H 0.63124 0.1575 0.66544 0.0
C675 C 0.54486 0.0679 0.55073 0.0
C676 C 0.56584 0.11714 0.60075 0.0
H677 H 0.6261 0.16666 0.61838 0.0
C678 C 0.55204 0.11709 0.62012 0.0
C679 C 0.5929 0.13517 0.6001 0.0
C680 C 0.60851 0.13687 0.57932 0.0
C681 C 0.56455 0.13464 0.63886 0.0
C682 C 0.59148 0.15297 0.638 0.0
C683 C 0.60541 0.15267 0.61887 0.0
C684 C 0.6056 0.17242 0.65696 0.0
C685 C 0.5489 0.13333 0.65948 0.0
C686 C 0.59897 0.19139 0.66259 0.0
C687 C 0.6115 0.20883 0.6813 0.0
C688 C 0.63087 0.20753 0.69471 0.0
C689 C 0.63813 0.18913 0.68837 0.0
C690 C 0.62568 0.17184 0.66965 0.0
H691 H 0.53031 0.11455 0.6598 0.0
H692 H 0.56029 0.13607 0.67578 0.0
H693 H 0.54408 0.14907 0.65879 0.0
H694 H 0.58383 0.19246 0.65269 0.0
H695 H 0.60545 0.22274 0.68567 0.0
H696 H 0.49157 0.51267 0.69895 0.0
H697 H 0.48224 0.52815 0.73504 0.0
H698 H 0.52044 0.60603 0.71055 0.0
H699 H 0.52964 0.59066 0.67448 0.0
H700 H 0.51302 0.5739 0.77061 0.0
H701 H 0.43858 0.57818 0.71358 0.0
H702 H 0.45441 0.56015 0.70553 0.0
H703 H 0.4715 0.59482 0.70388 0.0
C704 C 0.49891 0.53324 0.70171 0.0
C705 C 0.5111 0.55048 0.68394 0.0
C706 C 0.49351 0.54203 0.72227 0.0
C707 C 0.50038 0.56814 0.72524 0.0
C708 C 0.51489 0.58579 0.70847 0.0
H709 H 0.47167 0.65353 0.83205 0.0
H710 H 0.49187 0.63603 0.80646 0.0
C711 C 0.52014 0.57701 0.68793 0.0
C712 C 0.48874 0.57611 0.74367 0.0
H713 H 0.44289 0.5939 0.7519 0.0
C714 C 0.49766 0.57825 0.76663 0.0
C715 C 0.46843 0.58133 0.73836 0.0
C716 C 0.45744 0.57835 0.71405 0.0
C717 C 0.48706 0.58607 0.78444 0.0
C718 C 0.46726 0.59202 0.77897 0.0
C719 C 0.45811 0.5894 0.75604 0.0
C720 C 0.45565 0.60121 0.79654 0.0
C721 C 0.49685 0.58758 0.80893 0.0
C722 C 0.42857 0.58756 0.79933 0.0
C723 C 0.41694 0.59764 0.81372 0.0
C724 C 0.43218 0.62163 0.82557 0.0
C725 C 0.4594 0.63497 0.82321 0.0
C726 C 0.47102 0.62488 0.80875 0.0
H727 H 0.50678 0.57606 0.81096 0.0
H728 H 0.51114 0.60808 0.81384 0.0
H729 H 0.48059 0.58055 0.82103 0.0
H730 H 0.41633 0.56937 0.78991 0.0
H731 H 0.39594 0.58694 0.81499 0.0
H732 H 0.98757 0.49561 0.88401 0.0
H733 H 0.96494 0.48654 0.92056 0.0
H734 H 0.91397 0.5123 0.89273 0.0
H735 H 0.93634 0.52119 0.85621 0.0
H736 H 0.94653 0.5153 0.95349 0.0
H737 H 0.86975 0.43068 0.9019 0.0
H738 H 0.90294 0.44941 0.89282 0.0
H739 H 0.88096 0.46177 0.88954 0.0
C740 C 0.9722 0.50026 0.88606 0.0
C741 C 0.96343 0.5088 0.86732 0.0
C742 C 0.95929 0.49504 0.90687 0.0
C743 C 0.93766 0.49848 0.90912 0.0
C744 C 0.93057 0.50941 0.8912 0.0
H745 H 0.82736 0.46968 0.01474 0.0
H746 H 0.86426 0.48982 0.98934 0.0
C747 C 0.9433 0.51445 0.8704 0.0
C748 C 0.91991 0.48682 0.9283 0.0
H749 H 0.85917 0.43732 0.9394 0.0
C750 C 0.92746 0.49819 0.95055 0.0
C751 C 0.89531 0.46424 0.92436 0.0
C752 C 0.88673 0.45061 0.90093 0.0
C753 C 0.91054 0.48787 0.96896 0.0
C754 C 0.88549 0.46587 0.96476 0.0
C755 C 0.87835 0.45421 0.94258 0.0
C756 C 0.86582 0.45475 0.98274 0.0
C757 C 0.91966 0.50043 0.99269 0.0
C758 C 0.85436 0.42834 0.9874 0.0
C759 C 0.83302 0.41668 0.0016 0.0
C760 C 0.82274 0.43125 0.01145 0.0
C761 C 0.83487 0.45793 0.00746 0.0
C762 C 0.85614 0.46955 0.99312 0.0
H763 H 0.94131 0.5118 -0.00559 0.0
H764 H 0.91217 0.51393 -0.00418 0.0
H765 H 0.91223 0.48572 0.00619 0.0
H766 H 0.86141 0.41652 0.9794 0.0
H767 H 0.82409 0.39608 0.00416 0.0
H768 H 0.47267 0.98008 0.04352 0.0
H769 H 0.45328 0.96235 0.0806 0.0
H770 H 0.50644 0.9332 0.08962 0.0
H771 H 0.5258 0.95096 0.05299 0.0
H772 H 0.42868 0.9101 0.08608 0.0
H773 H 0.5052 0.95829 0.15462 0.0
H774 H 0.50725 0.97247 0.12697 0.0
H775 H 0.51744 0.94883 0.13058 0.0
C776 C 0.48071 0.97065 0.0539 0.0
C777 C 0.50057 0.9667 0.04551 0.0
C778 C 0.46965 0.96053 0.07498 0.0
C779 C 0.47865 0.94676 0.08801 0.0
C780 C 0.4996 0.94429 0.0802 0.0
H781 H 0.43981 0.82048 0.16674 0.0
H782 H 0.45851 0.86079 0.14608 0.0
C783 C 0.51047 0.95419 0.05916 0.0
C784 C 0.46371 0.93106 0.10744 0.0
H785 H 0.47267 0.91286 0.16062 0.0
C786 C 0.43794 0.91115 0.1027 0.0
C787 C 0.47586 0.93252 0.12908 0.0
C788 C 0.50289 0.95439 0.13568 0.0
C789 C 0.42489 0.89121 0.11813 0.0
C790 C 0.4379 0.89154 0.13896 0.0
C791 C 0.46286 0.91257 0.14452 0.0
C792 C 0.42741 0.86865 0.15352 0.0
C793 C 0.39816 0.8689 0.1112 0.0
C794 C 0.40393 0.85997 0.16485 0.0
C795 C 0.3931 0.83681 0.17663 0.0
C796 C 0.40572 0.82213 0.17736 0.0
C797 C 0.42965 0.83136 0.1666 0.0
C798 C 0.4404 0.85443 0.15481 0.0
H799 H 0.39241 0.86994 0.09308 0.0
H800 H 0.39757 0.85013 0.11322 0.0
H801 H 0.38347 0.86916 0.12258 0.0
H802 H 0.39378 0.87086 0.16424 0.0
H803 H 0.37473 0.83029 0.18493 0.0
H804 H 0.57858 0.51831 0.20315 0.0
H805 H 0.57799 0.49629 0.23828 0.0
H806 H 0.49432 0.44787 0.23017 0.0
H807 H 0.49503 0.46986 0.19446 0.0
H808 H 0.55296 0.48522 0.2803 0.0
H809 H 0.52069 0.39628 0.2245 0.0
H810 H 0.53121 0.42747 0.21241 0.0
H811 H 0.49992 0.41025 0.22521 0.0
C812 C 0.56 0.50346 0.20925 0.0
C813 C 0.53688 0.49557 0.1962 0.0
C814 C 0.55964 0.4909 0.2293 0.0
C815 C 0.53618 0.47014 0.2366 0.0
C816 C 0.51267 0.4636 0.22461 0.0
H817 H 0.55718 0.36501 0.32836 0.0
H818 H 0.5333 0.38354 0.30898 0.0
C819 C 0.51303 0.47626 0.20441 0.0
C820 C 0.53753 0.45382 0.25486 0.0
H821 H 0.53802 0.39721 0.26117 0.0
C822 C 0.54904 0.46569 0.27638 0.0
C823 C 0.53237 0.42831 0.2497 0.0
C824 C 0.52049 0.41474 0.2267 0.0
C825 C 0.55729 0.45351 0.29215 0.0
C826 C 0.55409 0.42897 0.28614 0.0
C827 C 0.54051 0.41611 0.26559 0.0
C828 C 0.56805 0.41818 0.29908 0.0
C829 C 0.57058 0.46752 0.31462 0.0
C830 C 0.59541 0.43129 0.29943 0.0
C831 C 0.60905 0.42067 0.31012 0.0
C832 C 0.5956 0.39675 0.32082 0.0
C833 C 0.56812 0.38354 0.32035 0.0
C834 C 0.55444 0.39411 0.30941 0.0
H835 H 0.56447 0.4817 0.31979 0.0
H836 H 0.56622 0.45367 0.32864 0.0
H837 H 0.59202 0.47835 0.31256 0.0
H838 H 0.60624 0.44956 0.29097 0.0
H839 H 0.63012 0.43111 0.30971 0.0
H840 H 0.49914 0.97108 0.42159 0.0
H841 H 0.49436 0.94723 0.38509 0.0
H842 H 0.41063 0.91191 0.38727 0.0
H843 H 0.41535 0.93591 0.42332 0.0
H844 H 0.46819 0.89345 0.38214 0.0
H845 H 0.42339 0.93047 0.32001 0.0
H846 H 0.4397 0.94782 0.34662 0.0
H847 H 0.40661 0.9213 0.34657 0.0
C848 C 0.47982 0.95889 0.4138 0.0
C849 C 0.45761 0.95529 0.42519 0.0
C850 C 0.47708 0.94516 0.39309 0.0
C851 C 0.45214 0.92794 0.38339 0.0
C852 C 0.43007 0.92543 0.39418 0.0
H853 H 0.38377 0.80424 0.27841 0.0
H854 H 0.39199 0.83387 0.31153 0.0
C855 C 0.43277 0.93903 0.41483 0.0
C856 C 0.44883 0.91036 0.36357 0.0
H857 H 0.41971 0.88954 0.31 0.0
C858 C 0.4579 0.89281 0.36624 0.0
C859 C 0.43513 0.90939 0.34296 0.0
C860 C 0.42586 0.92842 0.33874 0.0
C861 C 0.45304 0.87384 0.3491 0.0
C862 C 0.43904 0.87264 0.32864 0.0
C863 C 0.43022 0.89037 0.32583 0.0
C864 C 0.43404 0.85364 0.30961 0.0
C865 C 0.46233 0.8548 0.35326 0.0
C866 C 0.45497 0.85488 0.29773 0.0
C867 C 0.45038 0.83805 0.27891 0.0
C868 C 0.42472 0.81965 0.27147 0.0
C869 C 0.40376 0.81805 0.28375 0.0
C870 C 0.4084 0.83503 0.30259 0.0
H871 H 0.46681 0.85414 0.37183 0.0
H872 H 0.44746 0.83499 0.34693 0.0
H873 H 0.48042 0.86074 0.34375 0.0
H874 H 0.47488 0.86934 0.30267 0.0
H875 H 0.46702 0.83988 0.26988 0.0
H876 H 0.51594 0.46239 0.5573 0.0
H877 H 0.5306 0.45326 0.52079 0.0
H878 H 0.60804 0.48361 0.55116 0.0
H879 H 0.59317 0.49186 0.58774 0.0
H880 H 0.56842 0.48105 0.49029 0.0
H881 H 0.58872 0.4102 0.53262 0.0
H882 H 0.57149 0.42423 0.54654 0.0
H883 H 0.6066 0.44195 0.54611 0.0
C884 C 0.53619 0.46756 0.5559 0.0
C885 C 0.55347 0.47766 0.57517 0.0
C886 C 0.54452 0.46226 0.53516 0.0
C887 C 0.57022 0.4671 0.5335 0.0
C888 C 0.58794 0.47903 0.55229 0.0
H889 H 0.64954 0.46648 0.41052 0.0
H890 H 0.63306 0.47751 0.44449 0.0
C891 C 0.57955 0.48399 0.57304 0.0
C892 C 0.57824 0.45855 0.51262 0.0
H893 H 0.60436 0.42173 0.49476 0.0
C894 C 0.57616 0.46798 0.49121 0.0
C895 C 0.58772 0.44097 0.51379 0.0
C896 C 0.58851 0.42852 0.53596 0.0
C897 C 0.58408 0.46094 0.47102 0.0
C898 C 0.595 0.44457 0.47243 0.0
C899 C 0.59634 0.43455 0.49374 0.0
C900 C 0.60537 0.43775 0.45208 0.0
C901 C 0.58029 0.47081 0.44836 0.0
C902 C 0.59618 0.41167 0.44566 0.0
C903 C 0.60595 0.40524 0.42646 0.0
C904 C 0.62503 0.42483 0.41328 0.0
C905 C 0.63462 0.45091 0.42011 0.0
C906 C 0.62505 0.45728 0.43942 0.0
H907 H 0.56458 0.47582 0.44913 0.0
H908 H 0.59863 0.48866 0.44432 0.0
H909 H 0.57533 0.45624 0.43408 0.0
H910 H 0.58116 0.39627 0.45533 0.0
H911 H 0.59813 0.38497 0.42165 0.0
H912 H 0.10009 0.60123 0.76717 0.0
H913 H 0.12161 0.61132 0.73018 0.0
H914 H 0.07538 0.53097 0.70784 0.0
H915 H 0.0535 0.52086 0.74477 0.0
H916 H 0.13356 0.55529 0.71262 0.0
H917 H 0.10104 0.61106 0.65933 0.0
H918 H 0.10635 0.61937 0.68972 0.0
H919 H 0.08043 0.58799 0.68003 0.0
C920 C 0.09387 0.58595 0.754 0.0
C921 C 0.07522 0.56031 0.75869 0.0
C922 C 0.10606 0.59172 0.7329 0.0
C923 C 0.09992 0.57189 0.71631 0.0
C924 C 0.0801 0.54654 0.72037 0.0
H925 H 0.21024 0.58076 0.61333 0.0
H926 H 0.17124 0.56379 0.63619 0.0
C927 C 0.06761 0.54082 0.74139 0.0
C928 C 0.11748 0.57691 0.69702 0.0
H929 H 0.14068 0.61283 0.64925 0.0
C930 C 0.13488 0.56747 0.69847 0.0
C931 C 0.11924 0.59309 0.67893 0.0
C932 C 0.10068 0.60339 0.67669 0.0
C933 C 0.15499 0.57485 0.68293 0.0
C934 C 0.1571 0.59141 0.66491 0.0
C935 C 0.13901 0.60009 0.663 0.0
C936 C 0.17912 0.60148 0.64905 0.0
C937 C 0.17466 0.56609 0.68689 0.0
C938 C 0.19579 0.62833 0.6477 0.0
C939 C 0.21781 0.63806 0.63427 0.0
C940 C 0.22373 0.62112 0.62216 0.0
C941 C 0.20658 0.59428 0.6229 0.0
C942 C 0.18426 0.58455 0.63599 0.0
H943 H 0.17417 0.55937 0.70469 0.0
H944 H 0.17009 0.54961 0.67477 0.0
H945 H 0.19478 0.58196 0.68389 0.0
H946 H 0.19217 0.64177 0.65755 0.0
H947 H 0.23062 0.65886 0.63393 0.0
H948 H 0.59035 0.08563 0.925 0.0
H949 H 0.59193 0.10288 0.88691 0.0
H950 H 0.50779 0.06406 0.88276 0.0
H951 H 0.5062 0.04679 0.92129 0.0
H952 H 0.56896 0.08154 0.84171 0.0
H953 H 0.53242 0.14267 0.88192 0.0
H954 H 0.54368 0.1251 0.89915 0.0
H955 H 0.51282 0.10802 0.88361 0.0
C956 C 0.57219 0.08029 0.9157 0.0
C957 C 0.54818 0.06515 0.926 0.0
C958 C 0.57309 0.09006 0.89395 0.0
C959 C 0.55 0.08501 0.88219 0.0
C960 C 0.52582 0.06834 0.89172 0.0
H961 H 0.56834 0.19795 0.77886 0.0
H962 H 0.54601 0.15776 0.79992 0.0
C963 C 0.52491 0.05839 0.91357 0.0
C964 C 0.55206 0.09999 0.86156 0.0
H965 H 0.55102 0.15437 0.84602 0.0
C966 C 0.56446 0.09709 0.84234 0.0
C967 C 0.5461 0.12021 0.86244 0.0
C968 C 0.53313 0.12443 0.88287 0.0
C969 C 0.5725 0.11486 0.8246 0.0
C970 C 0.56844 0.13628 0.82643 0.0
C971 C 0.55423 0.138 0.84474 0.0
C972 C 0.58153 0.15875 0.8114 0.0
C973 C 0.58604 0.11102 0.80447 0.0
C974 C 0.60889 0.1727 0.81099 0.0
C975 C 0.62168 0.19566 0.79909 0.0
C976 C 0.60736 0.20524 0.78749 0.0
C977 C 0.57993 0.19107 0.78763 0.0
C978 C 0.56713 0.16806 0.79957 0.0
H979 H 0.57938 0.09014 0.80128 0.0
H980 H 0.5825 0.11892 0.7885 0.0
H981 H 0.60738 0.12118 0.80842 0.0
H982 H 0.62044 0.16634 0.82059 0.0
H983 H 0.64281 0.20625 0.79957 0.0
H984 H 0.47425 0.52613 0.07665 0.0
H985 H 0.45759 0.53035 0.03877 0.0
H986 H 0.50537 0.61358 0.04593 0.0
H987 H 0.52234 0.60943 0.08329 0.0
H988 H 0.42985 0.55598 0.03243 0.0
H989 H 0.5179 0.60015 0.98001 0.0
H990 H 0.51652 0.58443 0.00664 0.0
H991 H 0.52284 0.61729 0.00708 0.0
C992 C 0.48169 0.54523 0.06977 0.0
C993 C 0.49951 0.56746 0.08287 0.0
C994 C 0.47208 0.54764 0.04826 0.0
C995 C 0.48043 0.57228 0.03944 0.0
C996 C 0.49902 0.59437 0.05214 0.0
H997 H 0.43434 0.64121 0.93201 0.0
H998 H 0.45308 0.63209 0.96617 0.0
C999 C 0.50854 0.59199 0.07357 0.0
C1000 C 0.46805 0.5753 0.01816 0.0
H1001 H 0.48167 0.60423 0.96615 0.0
C1002 C 0.4411 0.56619 0.01779 0.0
C1003 C 0.48281 0.58882 -0.00084 0.0
C1004 C 0.51157 0.59801 -0.0019 0.0
C1005 C 0.42866 0.57099 -0.00075 0.0
C1006 C 0.44354 0.58499 0.9805 0.0
C1007 C 0.47039 0.59371 0.98067 0.0
C1008 C 0.4315 0.59045 0.96036 0.0
C1009 C 0.39987 0.56173 0.00016 0.0
C1010 C 0.4132 0.57006 0.94587 0.0
C1011 C 0.40249 0.57517 0.9264 0.0
C1012 C 0.40991 0.60083 0.92097 0.0
C1013 C 0.42808 0.62124 0.93572 0.0
C1014 C 0.43888 0.61608 0.95518 0.0
H1015 H 0.39261 0.55661 0.01786 0.0
H1016 H 0.39558 0.57678 0.994 0.0
H1017 H 0.38887 0.54419 0.98872 0.0
H1018 H 0.40753 0.55018 0.94939 0.0
H1019 H 0.3886 0.55895 0.91545 0.0
H1020 H 0.97195 0.48021 0.25852 0.0
H1021 H 0.9479 0.46379 0.22123 0.0
H1022 H 0.91229 0.51096 0.23142 0.0
H1023 H 0.93626 0.52733 0.26842 0.0
H1024 H 0.89287 0.43623 0.21897 0.0
H1025 H 0.93131 0.52146 0.1635 0.0
H1026 H 0.94904 0.52045 0.18881 0.0
H1027 H 0.92281 0.52721 0.19164 0.0
C1028 C 0.9597 0.48769 0.25231 0.0
C1029 C 0.95603 0.50513 0.2661 0.0
C1030 C 0.94586 0.47821 0.23116 0.0
C1031 C 0.92847 0.48632 0.22348 0.0
C1032 C 0.92595 0.50481 0.23676 0.0
H1033 H 0.80588 0.43636 0.11627 0.0
H1034 H 0.83496 0.45675 0.15041 0.0
C1035 C 0.93959 0.51412 0.25788 0.0
C1036 C 0.91064 0.47334 0.20316 0.0
H1037 H 0.89069 0.4846 0.15119 0.0
C1038 C 0.89258 0.44673 0.20402 0.0
C1039 C 0.91004 0.48718 0.18387 0.0
C1040 C 0.92948 0.51561 0.18173 0.0
C1041 C 0.87362 0.43366 0.1863 0.0
C1042 C 0.873 0.44749 0.16701 0.0
C1043 C 0.8911 0.47409 0.16609 0.0
C1044 C 0.85447 0.4344 0.14712 0.0
C1045 C 0.85403 0.40528 0.18863 0.0
C1046 C 0.85579 0.41509 0.13407 0.0
C1047 C 0.83927 0.40343 0.11471 0.0
C1048 C 0.8211 0.41091 0.10783 0.0
C1049 C 0.8195 0.43002 0.12116 0.0
C1050 C 0.83618 0.44177 0.14058 0.0
H1051 H 0.85251 0.39945 0.20684 0.0
H1052 H 0.83438 0.40062 0.18193 0.0
H1053 H 0.86029 0.39351 0.17847 0.0
H1054 H 0.87002 0.4094 0.13858 0.0
H1055 H 0.84112 0.38882 0.10489 0.0
loop_
_geom_bond_atom_site_label_1
_geom_bond_atom_site_label_2
_geom_bond_distance
_geom_bond_site_symmetry_2
_ccdc_geom_bond_type
H0 C6 0.930 . S
H1 C9 0.931 . S
H2 C11 0.931 . S
H3 C13 0.930 . S
H4 C15 0.930 . S
H5 C17 0.931 . S
C6 H0 0.930 . S
C6 C7 1.380 . S
C6 C8 1.394 . S
C7 C6 1.380 . S
C7 C11 1.382 . S
C8 C6 1.394 . S
C8 C9 1.400 . S
C9 H1 0.931 . S
C9 C8 1.400 . S
C9 C10 1.375 . S
C10 C9 1.375 . S
C10 C11 1.415 . S
C10 C12 1.501 1_455 S
C11 H2 0.931 . S
C11 C7 1.382 . S
C11 C10 1.415 . S
C12 C10 1.501 1_655 S
C12 C13 1.384 . S
C12 C17 1.408 . S
C13 H3 0.930 . S
C13 C12 1.384 . S
C13 C14 1.389 . S
C14 C13 1.389 . S
C14 C15 1.405 . S
C15 H4 0.930 . S
C15 C14 1.405 . S
C15 C16 1.364 . S
C16 C15 1.364 . S
C16 C17 1.400 . S
C17 H5 0.931 . S
C17 C12 1.408 . S
C17 C16 1.400 . S
H18 C24 0.930 . S
H19 C27 0.931 . S
H20 C29 0.931 . S
H21 C31 0.930 . S
H22 C33 0.930 . S
H23 C35 0.931 1_545 S
C24 H18 0.930 . S
C24 C25 1.380 . S
C24 C26 1.394 . S
C25 C24 1.380 . S
C25 C29 1.382 . S
C26 C24 1.394 . S
C26 C27 1.400 . S
C27 H19 0.931 . S
C27 C26 1.400 . S
C27 C28 1.375 . S
C28 C27 1.375 . S
C28 C29 1.415 . S
C28 C30 1.501 1_545 S
C29 H20 0.931 . S
C29 C25 1.382 . S
C29 C28 1.415 . S
C30 C28 1.501 1_565 S
C30 C31 1.384 . S
C30 C35 1.408 . S
C31 H21 0.930 . S
C31 C30 1.384 . S
C31 C32 1.389 . S
C32 C31 1.389 . S
C32 C33 1.405 . S
C33 H22 0.930 . S
C33 C32 1.405 . S
C33 C34 1.364 . S
C34 C33 1.364 . S
C34 C35 1.400 . S
C35 H23 0.931 1_565 S
C35 C30 1.408 . S
C35 C34 1.400 . S
H36 C42 0.930 . S
H37 C45 0.931 . S
H38 C47 0.931 . S
H39 C49 0.930 . S
H40 C51 0.930 . S
H41 C53 0.931 . S
C42 H36 0.930 . S
C42 C43 1.380 . S
C42 C44 1.394 . S
C43 C42 1.380 . S
C43 C47 1.382 . S
C44 C42 1.394 . S
C44 C45 1.400 . S
C45 H37 0.931 . S
C45 C44 1.400 . S
C45 C46 1.375 . S
C46 C45 1.375 . S
C46 C47 1.415 . S
C46 C48 1.501 . S
C47 H38 0.931 . S
C47 C43 1.382 . S
C47 C46 1.415 . S
C48 C46 1.501 . S
C48 C49 1.384 . S
C48 C53 1.408 . S
C49 H39 0.930 . S
C49 C48 1.384 . S
C49 C50 1.389 . S
C50 C49 1.389 . S
C50 C51 1.405 . S
C51 H40 0.930 . S
C51 C50 1.405 . S
C51 C52 1.364 . S
C52 C51 1.364 . S
C52 C53 1.400 . S
C53 H41 0.931 . S
C53 C48 1.408 . S
C53 C52 1.400 . S
H54 C60 0.930 . S
H55 C63 0.931 . S
H56 C65 0.931 . S
H57 C67 0.930 . S
H58 C69 0.930 . S
H59 C71 0.931 1_455 S
C60 H54 0.930 . S
C60 C61 1.380 . S
C60 C62 1.394 . S
C61 C60 1.380 . S
C61 C65 1.382 . S
C62 C60 1.394 . S
C62 C63 1.400 . S
C63 H55 0.931 . S
C63 C62 1.400 . S
C63 C64 1.375 . S
C64 C63 1.375 . S
C64 C65 1.415 . S
C64 C66 1.501 1_455 S
C65 H56 0.931 . S
C65 C61 1.382 . S
C65 C64 1.415 . S
C66 C64 1.501 1_655 S
C66 C67 1.384 . S
C66 C71 1.408 . S
C67 H57 0.930 . S
C67 C66 1.384 . S
C67 C68 1.389 . S
C68 C67 1.389 . S
C68 C69 1.405 . S
C69 H58 0.930 . S
C69 C68 1.405 . S
C69 C70 1.364 . S
C70 C69 1.364 . S
C70 C71 1.400 . S
C71 H59 0.931 1_655 S
C71 C66 1.408 . S
C71 C70 1.400 . S
H72 C78 0.930 . S
H73 C81 0.931 . S
H74 C83 0.931 1_545 S
H75 C85 0.930 . S
H76 C87 0.930 . S
H77 C89 0.931 . S
C78 H72 0.930 . S
C78 C79 1.380 . S
C78 C80 1.394 1_554 S
C79 C78 1.380 . S
C79 C83 1.382 . S
C80 C78 1.394 1_556 S
C80 C81 1.400 . S
C81 H73 0.931 . S
C81 C80 1.400 . S
C81 C82 1.371 1_565 S
C82 C81 1.371 1_545 S
C82 C83 1.414 1_546 S
C82 C84 1.505 . S
C83 H74 0.931 1_565 S
C83 C79 1.382 . S
C83 C82 1.414 1_564 S
C84 C82 1.505 . S
C84 C85 1.384 1_556 S
C84 C89 1.408 . S
C85 H75 0.930 . S
C85 C84 1.384 1_554 S
C85 C86 1.389 1_554 S
C86 C85 1.389 1_556 S
C86 C87 1.405 . S
C87 H76 0.930 . S
C87 C86 1.405 . S
C87 C88 1.364 . S
C88 C87 1.364 . S
C88 C89 1.400 . S
C89 H77 0.931 . S
C89 C84 1.408 . S
C89 C88 1.400 . S
H90 C96 0.930 . S
H91 C99 0.931 . S
H92 C101 0.931 . S
H93 C103 0.930 . S
H94 C105 0.930 . S
H95 C107 0.931 . S
C96 H90 0.930 . S
C96 C97 1.380 . S
C96 C98 1.394 . S
C97 C96 1.380 . S
C97 C101 1.382 . S
C98 C96 1.394 . S
C98 C99 1.400 . S
C99 H91 0.931 . S
C99 C98 1.400 . S
C99 C100 1.375 . S
C100 C99 1.375 . S
C100 C101 1.415 . S
C100 C102 1.501 . S
C101 H92 0.931 . S
C101 C97 1.382 . S
C101 C100 1.415 . S
C102 C100 1.501 . S
C102 C103 1.384 . S
C102 C107 1.408 . S
C103 H93 0.930 . S
C103 C102 1.384 . S
C103 C104 1.389 . S
C104 C103 1.389 . S
C104 C105 1.405 . S
C105 H94 0.930 . S
C105 C104 1.405 . S
C105 C106 1.364 . S
C106 C105 1.364 . S
C106 C107 1.400 . S
C107 H95 0.931 . S
C107 C102 1.408 . S
C107 C106 1.400 . S
Mg108 O109 2.028 . S
Mg108 O115 1.986 . S
Mg108 O117 2.114 . S
Mg108 O118 2.251 . S
Mg108 O121 2.010 . S
O109 Mg108 2.028 . S
O109 C112 1.250 . S
O110 Mg111 2.028 . S
O110 C112 1.248 . S
Mg111 O110 2.028 . S
Mg111 O116 2.032 . S
Mg111 O118 2.079 . S
C112 O109 1.250 . S
C112 O110 1.248 . S
C113 O114 1.264 . S
C113 O121 1.249 . S
O114 C113 1.264 . S
O115 Mg108 1.986 . S
O115 C119 1.246 . S
O116 Mg111 2.032 . S
O116 C119 1.259 . S
O117 Mg108 2.114 . S
O117 C120 1.252 . S
O118 Mg108 2.251 . S
O118 Mg111 2.079 . S
O118 C120 1.273 . S
C119 O115 1.246 . S
C119 O116 1.259 . S
C120 O117 1.252 . S
C120 O118 1.273 . S
O121 Mg108 2.010 . S
O121 C113 1.249 . S
Mg122 O123 2.028 . S
Mg122 O129 1.986 . S
Mg122 O131 2.114 . S
Mg122 O132 2.251 . S
Mg122 O135 2.010 . S
O123 Mg122 2.028 . S
O123 C126 1.250 . S
O124 Mg125 2.028 . S
O124 C126 1.248 . S
Mg125 O124 2.028 . S
Mg125 O130 2.032 . S
Mg125 O132 2.079 . S
C126 O123 1.250 . S
C126 O124 1.248 . S
C127 O128 1.264 . S
C127 O135 1.249 . S
O128 C127 1.264 . S
O129 Mg122 1.986 . S
O129 C133 1.246 . S
O130 Mg125 2.032 . S
O130 C133 1.259 . S
O131 Mg122 2.114 . S
O131 C134 1.252 . S
O132 Mg122 2.251 . S
O132 Mg125 2.079 . S
O132 C134 1.273 . S
C133 O129 1.246 . S
C133 O130 1.259 . S
C134 O131 1.252 . S
C134 O132 1.273 . S
O135 Mg122 2.010 . S
O135 C127 1.249 . S
Mg136 O137 2.028 . S
Mg136 O143 1.986 . S
Mg136 O145 2.114 . S
Mg136 O146 2.251 . S
Mg136 O149 2.010 . S
O137 Mg136 2.028 . S
O137 C140 1.250 . S
O138 Mg139 2.028 . S
O138 C140 1.248 . S
Mg139 O138 2.028 . S
Mg139 O144 2.032 . S
Mg139 O146 2.079 . S
C140 O137 1.250 . S
C140 O138 1.248 . S
C141 O142 1.264 . S
C141 O149 1.249 . S
O142 C141 1.264 . S
O143 Mg136 1.986 . S
O143 C147 1.246 . S
O144 Mg139 2.032 . S
O144 C147 1.259 . S
O145 Mg136 2.114 . S
O145 C148 1.252 . S
O146 Mg136 2.251 . S
O146 Mg139 2.079 . S
O146 C148 1.273 . S
C147 O143 1.246 . S
C147 O144 1.259 . S
C148 O145 1.252 . S
C148 O146 1.273 . S
O149 Mg136 2.010 . S
O149 C141 1.249 . S
Mg150 O151 2.028 . S
Mg150 O157 1.986 . S
Mg150 O159 2.114 . S
Mg150 O160 2.251 . S
Mg150 O163 2.010 . S
O151 Mg150 2.028 . S
O151 C154 1.250 . S
O152 Mg153 2.028 . S
O152 C154 1.248 . S
Mg153 O152 2.028 . S
Mg153 O158 2.032 . S
Mg153 O160 2.079 . S
C154 O151 1.250 . S
C154 O152 1.248 . S
C155 O156 1.264 . S
C155 O163 1.249 . S
O156 C155 1.264 . S
O157 Mg150 1.986 . S
O157 C161 1.246 . S
O158 Mg153 2.032 . S
O158 C161 1.259 . S
O159 Mg150 2.114 . S
O159 C162 1.252 . S
O160 Mg150 2.251 . S
O160 Mg153 2.079 . S
O160 C162 1.273 . S
C161 O157 1.246 . S
C161 O158 1.259 . S
C162 O159 1.252 . S
C162 O160 1.273 . S
O163 Mg150 2.010 . S
O163 C155 1.249 . S
Mg164 O165 2.028 . S
Mg164 O171 1.986 . S
Mg164 O173 2.114 . S
Mg164 O174 2.251 . S
Mg164 O177 2.010 . S
O165 Mg164 2.028 . S
O165 C168 1.250 . S
O166 Mg167 2.028 . S
O166 C168 1.248 . S
Mg167 O166 2.028 . S
Mg167 O172 2.032 . S
Mg167 O174 2.079 . S
C168 O165 1.250 . S
C168 O166 1.248 . S
C169 O170 1.264 . S
C169 O177 1.249 . S
O170 C169 1.264 . S
O171 Mg164 1.986 . S
O171 C175 1.246 . S
O172 Mg167 2.032 . S
O172 C175 1.259 . S
O173 Mg164 2.114 . S
O173 C176 1.252 . S
O174 Mg164 2.251 . S
O174 Mg167 2.079 . S
O174 C176 1.273 . S
C175 O171 1.246 . S
C175 O172 1.259 . S
C176 O173 1.252 . S
C176 O174 1.273 . S
O177 Mg164 2.010 . S
O177 C169 1.249 . S
Mg178 O179 2.028 . S
Mg178 O185 1.986 . S
Mg178 O187 2.114 . S
Mg178 O188 2.251 . S
Mg178 O191 2.010 . S
O179 Mg178 2.028 . S
O179 C182 1.250 . S
O180 Mg181 2.028 . S
O180 C182 1.248 . S
Mg181 O180 2.028 . S
Mg181 O186 2.032 . S
Mg181 O188 2.079 . S
C182 O179 1.250 . S
C182 O180 1.248 . S
C183 O184 1.264 . S
C183 O191 1.249 . S
O184 C183 1.264 . S
O185 Mg178 1.986 . S
O185 C189 1.246 . S
O186 Mg181 2.032 . S
O186 C189 1.259 . S
O187 Mg178 2.114 . S
O187 C190 1.252 . S
O188 Mg178 2.251 . S
O188 Mg181 2.079 . S
O188 C190 1.273 . S
C189 O185 1.246 . S
C189 O186 1.259 . S
C190 O187 1.252 . S
C190 O188 1.273 . S
O191 Mg178 2.010 . S
O191 C183 1.249 . S
H192 C200 0.929 . S
H193 C202 0.930 . S
H194 C204 0.930 . S
H195 C207 0.929 . S
H196 C210 0.930 . S
H197 C212 0.960 . S
H198 C212 0.960 . S
H199 C212 0.960 . S
C200 H192 0.929 . S
C200 C201 1.377 . S
C200 C202 1.384 . S
C201 C200 1.377 . S
C201 C207 1.390 . S
C202 H193 0.930 . S
C202 C200 1.384 . S
C202 C203 1.372 . S
C203 C202 1.372 . S
C203 C204 1.400 . S
C203 C208 1.490 . S
C204 H194 0.930 . S
C204 C203 1.400 . S
C204 C207 1.386 . S
H205 C221 0.930 . S
H206 C222 0.931 . S
C207 H195 0.929 . S
C207 C201 1.390 . S
C207 C204 1.386 . S
C208 C203 1.490 . S
C208 C210 1.395 . S
C208 C211 1.403 . S
H209 C215 0.930 . S
C210 H196 0.930 . S
C210 C208 1.395 . S
C210 C213 1.403 . S
C211 C208 1.403 . S
C211 C212 1.524 . S
C211 C215 1.400 . S
C212 H197 0.960 . S
C212 H198 0.960 . S
C212 H199 0.960 . S
C212 C211 1.524 . S
C213 C210 1.403 . S
C213 C214 1.392 . S
C213 C217 1.495 . S
C214 C213 1.392 . S
C214 C215 1.385 . S
C214 C216 1.478 . S
C215 H209 0.930 . S
C215 C211 1.400 . S
C215 C214 1.385 . S
C216 C214 1.478 . S
C216 C218 1.381 . S
C216 C222 1.383 . S
C217 C213 1.495 . S
C217 H223 0.959 . S
C217 H224 0.961 . S
C217 H225 0.960 . S
C218 C216 1.381 . S
C218 C219 1.394 . S
C218 H226 0.930 . S
C219 C218 1.394 . S
C219 C220 1.383 . S
C219 H227 0.929 . S
C220 C219 1.383 . S
C220 C221 1.377 . S
C221 H205 0.930 . S
C221 C220 1.377 . S
C221 C222 1.379 . S
C222 H206 0.931 . S
C222 C216 1.383 . S
C222 C221 1.379 . S
H223 C217 0.959 . S
H224 C217 0.961 . S
H225 C217 0.960 . S
H226 C218 0.930 . S
H227 C219 0.929 . S
H228 C236 0.929 . S
H229 C238 0.930 . S
H230 C240 0.930 . S
H231 C243 0.929 . S
H232 C246 0.930 . S
H233 C248 0.960 . S
H234 C248 0.960 . S
H235 C248 0.960 . S
C236 H228 0.929 . S
C236 C237 1.377 . S
C236 C238 1.384 . S
C237 C236 1.377 . S
C237 C243 1.390 . S
C238 H229 0.930 . S
C238 C236 1.384 . S
C238 C239 1.372 . S
C239 C238 1.372 . S
C239 C240 1.400 . S
C239 C244 1.490 . S
C240 H230 0.930 . S
C240 C239 1.400 . S
C240 C243 1.386 . S
H241 C257 0.930 . S
H242 C258 0.931 . S
C243 H231 0.929 . S
C243 C237 1.390 . S
C243 C240 1.386 . S
C244 C239 1.490 . S
C244 C246 1.395 . S
C244 C247 1.403 . S
H245 C251 0.930 . S
C246 H232 0.930 . S
C246 C244 1.395 . S
C246 C249 1.403 . S
C247 C244 1.403 . S
C247 C248 1.524 . S
C247 C251 1.400 . S
C248 H233 0.960 . S
C248 H234 0.960 . S
C248 H235 0.960 . S
C248 C247 1.524 . S
C249 C246 1.403 . S
C249 C250 1.392 . S
C249 C253 1.495 . S
C250 C249 1.392 . S
C250 C251 1.385 . S
C250 C252 1.478 . S
C251 H245 0.930 . S
C251 C247 1.400 . S
C251 C250 1.385 . S
C252 C250 1.478 . S
C252 C254 1.381 . S
C252 C258 1.383 . S
C253 C249 1.495 . S
C253 H259 0.959 . S
C253 H260 0.961 . S
C253 H261 0.960 . S
C254 C252 1.381 . S
C254 C255 1.394 . S
C254 H262 0.930 . S
C255 C254 1.394 . S
C255 C256 1.383 . S
C255 H263 0.929 . S
C256 C255 1.383 . S
C256 C257 1.377 . S
C257 H241 0.930 . S
C257 C256 1.377 . S
C257 C258 1.379 . S
C258 H242 0.931 . S
C258 C252 1.383 . S
C258 C257 1.379 . S
H259 C253 0.959 . S
H260 C253 0.961 . S
H261 C253 0.960 . S
H262 C254 0.930 . S
H263 C255 0.929 . S
H264 C272 0.929 . S
H265 C274 0.930 . S
H266 C276 0.930 . S
H267 C279 0.929 . S
H268 C282 0.930 . S
H269 C284 0.960 . S
H270 C284 0.960 . S
H271 C284 0.960 . S
C272 H264 0.929 . S
C272 C273 1.377 . S
C272 C274 1.384 . S
C273 C272 1.377 . S
C273 C279 1.390 . S
C274 H265 0.930 . S
C274 C272 1.384 . S
C274 C275 1.372 . S
C275 C274 1.372 . S
C275 C276 1.400 . S
C275 C280 1.490 . S
C276 H266 0.930 . S
C276 C275 1.400 . S
C276 C279 1.386 . S
H277 C293 0.930 . S
H278 C294 0.931 . S
C279 H267 0.929 . S
C279 C273 1.390 . S
C279 C276 1.386 . S
C280 C275 1.490 . S
C280 C282 1.395 . S
C280 C283 1.403 . S
H281 C287 0.930 . S
C282 H268 0.930 . S
C282 C280 1.395 . S
C282 C285 1.403 . S
C283 C280 1.403 . S
C283 C284 1.524 . S
C283 C287 1.400 . S
C284 H269 0.960 . S
C284 H270 0.960 . S
C284 H271 0.960 . S
C284 C283 1.524 . S
C285 C282 1.403 . S
C285 C286 1.392 . S
C285 C289 1.495 . S
C286 C285 1.392 . S
C286 C287 1.385 . S
C286 C288 1.478 . S
C287 H281 0.930 . S
C287 C283 1.400 . S
C287 C286 1.385 . S
C288 C286 1.478 . S
C288 C290 1.381 . S
C288 C294 1.383 . S
C289 C285 1.495 . S
C289 H295 0.959 . S
C289 H296 0.961 . S
C289 H297 0.960 . S
C290 C288 1.381 . S
C290 C291 1.394 . S
C290 H298 0.930 . S
C291 C290 1.394 . S
C291 C292 1.383 . S
C291 H299 0.929 . S
C292 C291 1.383 . S
C292 C293 1.377 . S
C293 H277 0.930 . S
C293 C292 1.377 . S
C293 C294 1.379 . S
C294 H278 0.931 . S
C294 C288 1.383 . S
C294 C293 1.379 . S
H295 C289 0.959 . S
H296 C289 0.961 . S
H297 C289 0.960 . S
H298 C290 0.930 . S
H299 C291 0.929 . S
H300 C308 0.929 . S
H301 C310 0.930 . S
H302 C312 0.930 . S
H303 C315 0.929 . S
H304 C318 0.930 . S
H305 C320 0.960 . S
H306 C320 0.960 . S
H307 C320 0.960 . S
C308 H300 0.929 . S
C308 C309 1.377 . S
C308 C310 1.384 . S
C309 C308 1.377 . S
C309 C315 1.390 . S
C310 H301 0.930 . S
C310 C308 1.384 . S
C310 C311 1.372 . S
C311 C310 1.372 . S
C311 C312 1.400 . S
C311 C316 1.490 . S
C312 H302 0.930 . S
C312 C311 1.400 . S
C312 C315 1.386 . S
H313 C329 0.930 . S
H314 C330 0.931 . S
C315 H303 0.929 . S
C315 C309 1.390 . S
C315 C312 1.386 . S
C316 C311 1.490 . S
C316 C318 1.395 . S
C316 C319 1.403 . S
H317 C323 0.930 . S
C318 H304 0.930 . S
C318 C316 1.395 . S
C318 C321 1.403 . S
C319 C316 1.403 . S
C319 C320 1.524 . S
C319 C323 1.400 . S
C320 H305 0.960 . S
C320 H306 0.960 . S
C320 H307 0.960 . S
C320 C319 1.524 . S
C321 C318 1.403 . S
C321 C322 1.392 . S
C321 C325 1.495 . S
C322 C321 1.392 . S
C322 C323 1.385 . S
C322 C324 1.478 . S
C323 H317 0.930 . S
C323 C319 1.400 . S
C323 C322 1.385 . S
C324 C322 1.478 . S
C324 C326 1.381 . S
C324 C330 1.383 . S
C325 C321 1.495 . S
C325 H331 0.959 . S
C325 H332 0.961 . S
C325 H333 0.960 . S
C326 C324 1.381 . S
C326 C327 1.394 . S
C326 H334 0.930 . S
C327 C326 1.394 . S
C327 C328 1.383 . S
C327 H335 0.929 . S
C328 C327 1.383 . S
C328 C329 1.377 . S
C329 H313 0.930 . S
C329 C328 1.377 . S
C329 C330 1.379 . S
C330 H314 0.931 . S
C330 C324 1.383 . S
C330 C329 1.379 . S
H331 C325 0.959 . S
H332 C325 0.961 . S
H333 C325 0.960 . S
H334 C326 0.930 . S
H335 C327 0.929 . S
H336 C344 0.929 . S
H337 C346 0.930 . S
H338 C348 0.930 . S
H339 C351 0.962 . S
H340 C354 0.930 . S
H341 C356 0.960 . S
H342 C356 0.960 . S
H343 C356 0.960 . S
C344 H336 0.929 . S
C344 C345 1.377 . S
C344 C346 1.384 . S
C345 C344 1.377 . S
C345 C351 1.390 . S
C346 H337 0.930 . S
C346 C344 1.384 . S
C346 C347 1.372 . S
C347 C346 1.372 . S
C347 C348 1.400 . S
C347 C352 1.490 . S
C348 H338 0.930 . S
C348 C347 1.400 . S
C348 C351 1.386 . S
H349 C365 0.930 . S
H350 C366 0.931 . S
C351 H339 0.962 . S
C351 C345 1.390 . S
C351 C348 1.386 . S
C352 C347 1.490 . S
C352 C354 1.395 . S
C352 C355 1.403 . S
H353 C359 0.930 . S
C354 H340 0.930 . S
C354 C352 1.395 . S
C354 C357 1.403 . S
C355 C352 1.403 . S
C355 C356 1.524 . S
C355 C359 1.400 . S
C356 H341 0.960 . S
C356 H342 0.960 . S
C356 H343 0.960 . S
C356 C355 1.524 . S
C357 C354 1.403 . S
C357 C358 1.392 . S
C357 C361 1.495 . S
C358 C357 1.392 . S
C358 C359 1.385 . S
C358 C360 1.478 . S
C359 H353 0.930 . S
C359 C355 1.400 . S
C359 C358 1.385 . S
C360 C358 1.478 . S
C360 C362 1.381 . S
C360 C366 1.383 . S
C361 C357 1.495 . S
C361 H367 0.959 . S
C361 H368 0.961 . S
C361 H369 0.960 . S
C362 C360 1.381 . S
C362 C363 1.394 . S
C362 H370 0.930 . S
C363 C362 1.394 . S
C363 C364 1.383 . S
C363 H371 0.929 . S
C364 C363 1.383 . S
C364 C365 1.377 . S
C365 H349 0.930 . S
C365 C364 1.377 . S
C365 C366 1.379 . S
C366 H350 0.931 . S
C366 C360 1.383 . S
C366 C365 1.379 . S
H367 C361 0.959 . S
H368 C361 0.961 . S
H369 C361 0.960 . S
H370 C362 0.930 . S
H371 C363 0.929 . S
H372 C380 0.929 . S
H373 C382 0.930 . S
H374 C384 0.930 . S
H375 C387 0.929 . S
H376 C390 0.930 . S
H377 C392 0.960 . S
H378 C392 0.960 . S
H379 C392 0.960 . S
C380 H372 0.929 . S
C380 C381 1.377 . S
C380 C382 1.384 . S
C381 C380 1.377 . S
C381 C387 1.390 . S
C382 H373 0.930 . S
C382 C380 1.384 . S
C382 C383 1.372 . S
C383 C382 1.372 . S
C383 C384 1.400 . S
C383 C388 1.490 . S
C384 H374 0.930 . S
C384 C383 1.400 . S
C384 C387 1.386 . S
H385 C401 0.930 . S
H386 C402 0.931 . S
C387 H375 0.929 . S
C387 C381 1.390 . S
C387 C384 1.386 . S
C388 C383 1.490 . S
C388 C390 1.395 . S
C388 C391 1.403 . S
H389 C395 0.930 . S
C390 H376 0.930 . S
C390 C388 1.395 . S
C390 C393 1.403 . S
C391 C388 1.403 . S
C391 C392 1.524 . S
C391 C395 1.400 . S
C392 H377 0.960 . S
C392 H378 0.960 . S
C392 H379 0.960 . S
C392 C391 1.524 . S
C393 C390 1.403 . S
C393 C394 1.392 . S
C393 C397 1.495 . S
C394 C393 1.392 . S
C394 C395 1.385 . S
C394 C396 1.478 . S
C395 H389 0.930 . S
C395 C391 1.400 . S
C395 C394 1.385 . S
C396 C394 1.478 . S
C396 C398 1.381 . S
C396 C402 1.383 . S
C397 C393 1.495 . S
C397 H403 0.959 . S
C397 H404 0.961 . S
C397 H405 0.960 . S
C398 C396 1.381 . S
C398 C399 1.394 . S
C398 H406 0.930 . S
C399 C398 1.394 . S
C399 C400 1.383 . S
C399 H407 0.929 . S
C400 C399 1.383 . S
C400 C401 1.377 . S
C401 H385 0.930 . S
C401 C400 1.377 . S
C401 C402 1.379 . S
C402 H386 0.931 . S
C402 C396 1.383 . S
C402 C401 1.379 . S
H403 C397 0.959 . S
H404 C397 0.961 . S
H405 C397 0.960 . S
H406 C398 0.930 . S
H407 C399 0.929 . S
H408 C416 0.929 . S
H409 C418 0.930 . S
H410 C420 0.930 . S
H411 C423 0.929 . S
H412 C426 0.930 . S
H413 C428 0.960 . S
H414 C428 0.960 . S
H415 C428 0.960 . S
C416 H408 0.929 . S
C416 C417 1.377 . S
C416 C418 1.384 . S
C417 C416 1.377 . S
C417 C423 1.390 . S
C418 H409 0.930 . S
C418 C416 1.384 . S
C418 C419 1.372 . S
C419 C418 1.372 . S
C419 C420 1.400 . S
C419 C424 1.490 . S
C420 H410 0.930 . S
C420 C419 1.400 . S
C420 C423 1.386 . S
H421 C437 0.930 . S
H422 C438 0.931 . S
C423 H411 0.929 . S
C423 C417 1.390 . S
C423 C420 1.386 . S
C424 C419 1.490 . S
C424 C426 1.395 . S
C424 C427 1.403 . S
H425 C431 0.930 . S
C426 H412 0.930 . S
C426 C424 1.395 . S
C426 C429 1.403 . S
C427 C424 1.403 . S
C427 C428 1.524 . S
C427 C431 1.400 . S
C428 H413 0.960 . S
C428 H414 0.960 . S
C428 H415 0.960 . S
C428 C427 1.524 . S
C429 C426 1.403 . S
C429 C430 1.392 . S
C429 C433 1.495 . S
C430 C429 1.392 . S
C430 C431 1.385 . S
C430 C432 1.478 . S
C431 H425 0.930 . S
C431 C427 1.400 . S
C431 C430 1.385 . S
C432 C430 1.478 . S
C432 C434 1.381 . S
C432 C438 1.383 . S
C433 C429 1.495 . S
C433 H439 0.959 . S
C433 H440 0.961 . S
C433 H441 0.960 . S
C434 C432 1.381 . S
C434 C435 1.394 . S
C434 H442 0.930 . S
C435 C434 1.394 . S
C435 C436 1.383 . S
C435 H443 0.929 . S
C436 C435 1.383 . S
C436 C437 1.377 . S
C437 H421 0.930 . S
C437 C436 1.377 . S
C437 C438 1.379 . S
C438 H422 0.931 . S
C438 C432 1.383 . S
C438 C437 1.379 . S
H439 C433 0.959 . S
H440 C433 0.961 . S
H441 C433 0.960 . S
H442 C434 0.930 . S
H443 C435 0.929 . S
H444 C452 0.929 . S
H445 C454 0.930 . S
H446 C456 0.930 . S
H447 C459 0.929 . S
H448 C462 0.930 . S
H449 C464 0.960 . S
H450 C464 0.960 . S
H451 C464 0.960 . S
C452 H444 0.929 . S
C452 C453 1.377 . S
C452 C454 1.384 . S
C453 C452 1.377 . S
C453 C459 1.390 . S
C454 H445 0.930 . S
C454 C452 1.384 . S
C454 C455 1.372 . S
C455 C454 1.372 . S
C455 C456 1.400 . S
C455 C460 1.490 . S
C456 H446 0.930 . S
C456 C455 1.400 . S
C456 C459 1.386 . S
H457 C473 0.930 . S
H458 C474 0.931 . S
C459 H447 0.929 . S
C459 C453 1.390 . S
C459 C456 1.386 . S
C460 C455 1.490 . S
C460 C462 1.395 . S
C460 C463 1.403 . S
H461 C467 0.930 . S
C462 H448 0.930 . S
C462 C460 1.395 . S
C462 C465 1.403 . S
C463 C460 1.403 . S
C463 C464 1.524 . S
C463 C467 1.400 . S
C464 H449 0.960 . S
C464 H450 0.960 . S
C464 H451 0.960 . S
C464 C463 1.524 . S
C465 C462 1.403 . S
C465 C466 1.392 . S
C465 C469 1.495 . S
C466 C465 1.392 . S
C466 C467 1.385 . S
C466 C468 1.478 . S
C467 H461 0.930 . S
C467 C463 1.400 . S
C467 C466 1.385 . S
C468 C466 1.478 . S
C468 C470 1.381 . S
C468 C474 1.383 . S
C469 C465 1.495 . S
C469 H475 0.959 . S
C469 H476 0.961 . S
C469 H477 0.960 . S
C470 C468 1.381 . S
C470 C471 1.394 . S
C470 H478 0.930 . S
C471 C470 1.394 . S
C471 C472 1.383 . S
C471 H479 0.929 . S
C472 C471 1.383 . S
C472 C473 1.377 . S
C473 H457 0.930 . S
C473 C472 1.377 . S
C473 C474 1.379 . S
C474 H458 0.931 . S
C474 C468 1.383 . S
C474 C473 1.379 . S
H475 C469 0.959 . S
H476 C469 0.961 . S
H477 C469 0.960 . S
H478 C470 0.930 . S
H479 C471 0.929 . S
H480 C488 0.929 . S
H481 C490 0.930 . S
H482 C492 0.930 . S
H483 C495 0.929 . S
H484 C498 0.930 . S
H485 C500 0.960 . S
H486 C500 0.960 . S
H487 C500 0.960 . S
C488 H480 0.929 . S
C488 C489 1.377 . S
C488 C490 1.384 . S
C489 C488 1.377 . S
C489 C495 1.390 . S
C490 H481 0.930 . S
C490 C488 1.384 . S
C490 C491 1.372 . S
C491 C490 1.372 . S
C491 C492 1.400 . S
C491 C496 1.490 . S
C492 H482 0.930 . S
C492 C491 1.400 . S
C492 C495 1.386 . S
H493 C509 0.930 . S
H494 C510 0.931 . S
C495 H483 0.929 . S
C495 C489 1.390 . S
C495 C492 1.386 . S
C496 C491 1.490 . S
C496 C498 1.395 . S
C496 C499 1.403 . S
H497 C503 0.930 . S
C498 H484 0.930 . S
C498 C496 1.395 . S
C498 C501 1.403 . S
C499 C496 1.403 . S
C499 C500 1.524 . S
C499 C503 1.400 . S
C500 H485 0.960 . S
C500 H486 0.960 . S
C500 H487 0.960 . S
C500 C499 1.524 . S
C501 C498 1.403 . S
C501 C502 1.392 . S
C501 C505 1.495 . S
C502 C501 1.392 . S
C502 C503 1.385 . S
C502 C504 1.478 . S
C503 H497 0.930 . S
C503 C499 1.400 . S
C503 C502 1.385 . S
C504 C502 1.478 . S
C504 C506 1.381 . S
C504 C510 1.383 . S
C505 C501 1.495 . S
C505 H511 0.959 . S
C505 H512 0.961 . S
C505 H513 0.960 . S
C506 C504 1.381 . S
C506 C507 1.394 . S
C506 H514 0.930 . S
C507 C506 1.394 . S
C507 C508 1.383 . S
C507 H515 0.929 . S
C508 C507 1.383 . S
C508 C509 1.377 . S
C509 H493 0.930 . S
C509 C508 1.377 . S
C509 C510 1.379 . S
C510 H494 0.931 . S
C510 C504 1.383 . S
C510 C509 1.379 . S
H511 C505 0.959 . S
H512 C505 0.961 . S
H513 C505 0.960 . S
H514 C506 0.930 . S
H515 C507 0.929 . S
H516 C524 0.929 . S
H517 C526 0.930 1_556 S
H518 C528 0.930 . S
H519 C531 0.929 . S
H520 C534 0.930 . S
H521 C536 0.960 . S
H522 C536 0.960 1_556 S
H523 C536 0.960 . S
C524 H516 0.929 . S
C524 C525 1.377 1_556 S
C524 C526 1.384 1_556 S
C525 C524 1.377 1_554 S
C525 C531 1.390 . S
C526 H517 0.930 1_554 S
C526 C524 1.384 1_554 S
C526 C527 1.372 . S
C527 C526 1.372 . S
C527 C528 1.400 . S
C527 C532 1.490 . S
C528 H518 0.930 . S
C528 C527 1.400 . S
C528 C531 1.386 . S
H529 C545 0.930 . S
H530 C546 0.931 . S
C531 H519 0.929 . S
C531 C525 1.390 . S
C531 C528 1.386 . S
C532 C527 1.490 . S
C532 C534 1.395 . S
C532 C535 1.403 . S
H533 C539 0.930 . S
C534 H520 0.930 . S
C534 C532 1.395 . S
C534 C537 1.403 . S
C535 C532 1.403 . S
C535 C536 1.524 . S
C535 C539 1.400 . S
C536 H521 0.960 . S
C536 H522 0.960 1_554 S
C536 H523 0.960 . S
C536 C535 1.524 . S
C537 C534 1.403 . S
C537 C538 1.392 . S
C537 C541 1.495 . S
C538 C537 1.392 . S
C538 C539 1.385 . S
C538 C540 1.478 . S
C539 H533 0.930 . S
C539 C535 1.400 . S
C539 C538 1.385 . S
C540 C538 1.478 . S
C540 C542 1.381 . S
C540 C546 1.383 . S
C541 C537 1.495 . S
C541 H547 0.959 . S
C541 H548 0.961 . S
C541 H549 0.960 . S
C542 C540 1.381 . S
C542 C543 1.394 . S
C542 H550 0.930 . S
C543 C542 1.394 . S
C543 C544 1.383 . S
C543 H551 0.929 . S
C544 C543 1.383 . S
C544 C545 1.377 . S
C545 H529 0.930 . S
C545 C544 1.377 . S
C545 C546 1.379 . S
C546 H530 0.931 . S
C546 C540 1.383 . S
C546 C545 1.379 . S
H547 C541 0.959 . S
H548 C541 0.961 . S
H549 C541 0.960 . S
H550 C542 0.930 . S
H551 C543 0.929 . S
H552 C560 0.929 . S
H553 C562 0.930 . S
H554 C564 0.930 . S
H555 C567 0.929 . S
H556 C570 0.930 . S
H557 C572 0.960 . S
H558 C572 0.960 . S
H559 C572 0.960 . S
C560 H552 0.929 . S
C560 C561 1.377 . S
C560 C562 1.384 . S
C561 C560 1.377 . S
C561 C567 1.390 . S
C562 H553 0.930 . S
C562 C560 1.384 . S
C562 C563 1.372 . S
C563 C562 1.372 . S
C563 C564 1.400 . S
C563 C568 1.490 . S
C564 H554 0.930 . S
C564 C563 1.400 . S
C564 C567 1.386 . S
H565 C581 0.930 . S
H566 C582 0.931 . S
C567 H555 0.929 . S
C567 C561 1.390 . S
C567 C564 1.386 . S
C568 C563 1.490 . S
C568 C570 1.395 . S
C568 C571 1.403 . S
H569 C575 0.930 . S
C570 H556 0.930 . S
C570 C568 1.395 . S
C570 C573 1.403 . S
C571 C568 1.403 . S
C571 C572 1.524 . S
C571 C575 1.400 . S
C572 H557 0.960 . S
C572 H558 0.960 . S
C572 H559 0.960 . S
C572 C571 1.524 . S
C573 C570 1.403 . S
C573 C574 1.392 . S
C573 C577 1.495 . S
C574 C573 1.392 . S
C574 C575 1.385 . S
C574 C576 1.478 . S
C575 H569 0.930 . S
C575 C571 1.400 . S
C575 C574 1.385 . S
C576 C574 1.478 . S
C576 C578 1.381 . S
C576 C582 1.383 . S
C577 C573 1.495 . S
C577 H583 0.959 . S
C577 H584 0.961 . S
C577 H585 0.960 . S
C578 C576 1.381 . S
C578 C579 1.394 . S
C578 H586 0.930 . S
C579 C578 1.394 . S
C579 C580 1.383 . S
C579 H587 0.929 . S
C580 C579 1.383 . S
C580 C581 1.377 . S
C581 H565 0.930 . S
C581 C580 1.377 . S
C581 C582 1.379 . S
C582 H566 0.931 . S
C582 C576 1.383 . S
C582 C581 1.379 . S
H583 C577 0.959 . S
H584 C577 0.961 . S
H585 C577 0.960 . S
H586 C578 0.930 . S
H587 C579 0.929 . S
H588 C596 0.929 . S
H589 C598 0.930 . S
H590 C600 0.930 . S
H591 C603 0.929 . S
H592 C606 0.930 . S
H593 C608 0.960 . S
H594 C608 0.960 . S
H595 C608 0.960 . S
C596 H588 0.929 . S
C596 C597 1.377 . S
C596 C598 1.384 . S
C597 C596 1.377 . S
C597 C603 1.390 . S
C598 H589 0.930 . S
C598 C596 1.384 . S
C598 C599 1.372 . S
C599 C598 1.372 . S
C599 C600 1.400 . S
C599 C604 1.490 . S
C600 H590 0.930 . S
C600 C599 1.400 . S
C600 C603 1.386 . S
H601 C617 0.930 . S
H602 C618 0.931 . S
C603 H591 0.929 . S
C603 C597 1.390 . S
C603 C600 1.386 . S
C604 C599 1.490 . S
C604 C606 1.395 . S
C604 C607 1.403 . S
H605 C611 0.930 . S
C606 H592 0.930 . S
C606 C604 1.395 . S
C606 C609 1.403 . S
C607 C604 1.403 . S
C607 C608 1.524 . S
C607 C611 1.400 . S
C608 H593 0.960 . S
C608 H594 0.960 . S
C608 H595 0.960 . S
C608 C607 1.524 . S
C609 C606 1.403 . S
C609 C610 1.392 . S
C609 C613 1.495 . S
C610 C609 1.392 . S
C610 C611 1.385 . S
C610 C612 1.478 . S
C611 H605 0.930 . S
C611 C607 1.400 . S
C611 C610 1.385 . S
C612 C610 1.478 . S
C612 C614 1.381 . S
C612 C618 1.383 . S
C613 C609 1.495 . S
C613 H619 0.959 . S
C613 H620 0.961 . S
C613 H621 0.960 . S
C614 C612 1.381 . S
C614 C615 1.394 . S
C614 H622 0.930 . S
C615 C614 1.394 . S
C615 C616 1.383 . S
C615 H623 0.929 . S
C616 C615 1.383 . S
C616 C617 1.377 . S
C617 H601 0.930 . S
C617 C616 1.377 . S
C617 C618 1.379 . S
C618 H602 0.931 . S
C618 C612 1.383 . S
C618 C617 1.379 . S
H619 C613 0.959 . S
H620 C613 0.961 . S
H621 C613 0.960 . S
H622 C614 0.930 . S
H623 C615 0.929 . S
H624 C632 0.929 . S
H625 C634 0.930 . S
H626 C636 0.930 . S
H627 C639 0.929 . S
H628 C642 0.930 . S
H629 C644 0.960 . S
H630 C644 0.960 . S
H631 C644 0.960 . S
C632 H624 0.929 . S
C632 C633 1.377 . S
C632 C634 1.384 . S
C633 C632 1.377 . S
C633 C639 1.390 . S
C634 H625 0.930 . S
C634 C632 1.384 . S
C634 C635 1.372 . S
C635 C634 1.372 . S
C635 C636 1.400 . S
C635 C640 1.490 . S
C636 H626 0.930 . S
C636 C635 1.400 . S
C636 C639 1.386 . S
H637 C653 0.930 . S
H638 C654 0.931 . S
C639 H627 0.929 . S
C639 C633 1.390 . S
C639 C636 1.386 . S
C640 C635 1.490 . S
C640 C642 1.395 . S
C640 C643 1.403 . S
H641 C647 0.930 . S
C642 H628 0.930 . S
C642 C640 1.395 . S
C642 C645 1.403 . S
C643 C640 1.403 . S
C643 C644 1.524 . S
C643 C647 1.400 . S
C644 H629 0.960 . S
C644 H630 0.960 . S
C644 H631 0.960 . S
C644 C643 1.524 . S
C645 C642 1.403 . S
C645 C646 1.392 . S
C645 C649 1.495 . S
C646 C645 1.392 . S
C646 C647 1.385 . S
C646 C648 1.478 . S
C647 H641 0.930 . S
C647 C643 1.400 . S
C647 C646 1.385 . S
C648 C646 1.478 . S
C648 C650 1.381 . S
C648 C654 1.383 . S
C649 C645 1.495 . S
C649 H655 0.959 . S
C649 H656 0.961 . S
C649 H657 0.960 . S
C650 C648 1.381 . S
C650 C651 1.394 . S
C650 H658 0.930 . S
C651 C650 1.394 . S
C651 C652 1.383 . S
C651 H659 0.929 . S
C652 C651 1.383 . S
C652 C653 1.377 . S
C653 H637 0.930 . S
C653 C652 1.377 . S
C653 C654 1.379 . S
C654 H638 0.931 . S
C654 C648 1.383 . S
C654 C653 1.379 . S
H655 C649 0.959 . S
H656 C649 0.961 . S
H657 C649 0.960 . S
H658 C650 0.930 . S
H659 C651 0.929 . S
H660 C668 0.929 . S
H661 C670 0.930 . S
H662 C672 0.930 . S
H663 C675 0.929 . S
H664 C678 0.930 . S
H665 C680 0.960 . S
H666 C680 0.960 . S
H667 C680 0.960 . S
C668 H660 0.929 . S
C668 C669 1.377 . S
C668 C670 1.384 . S
C669 C668 1.377 . S
C669 C675 1.390 . S
C670 H661 0.930 . S
C670 C668 1.384 . S
C670 C671 1.372 . S
C671 C670 1.372 . S
C671 C672 1.400 . S
C671 C676 1.490 . S
C672 H662 0.930 . S
C672 C671 1.400 . S
C672 C675 1.386 . S
H673 C689 0.930 . S
H674 C690 0.931 . S
C675 H663 0.929 . S
C675 C669 1.390 . S
C675 C672 1.386 . S
C676 C671 1.490 . S
C676 C678 1.395 . S
C676 C679 1.403 . S
H677 C683 0.930 . S
C678 H664 0.930 . S
C678 C676 1.395 . S
C678 C681 1.403 . S
C679 C676 1.403 . S
C679 C680 1.524 . S
C679 C683 1.400 . S
C680 H665 0.960 . S
C680 H666 0.960 . S
C680 H667 0.960 . S
C680 C679 1.524 . S
C681 C678 1.403 . S
C681 C682 1.392 . S
C681 C685 1.495 . S
C682 C681 1.392 . S
C682 C683 1.385 . S
C682 C684 1.478 . S
C683 H677 0.930 . S
C683 C679 1.400 . S
C683 C682 1.385 . S
C684 C682 1.478 . S
C684 C686 1.381 . S
C684 C690 1.383 . S
C685 C681 1.495 . S
C685 H691 0.959 . S
C685 H692 0.961 . S
C685 H693 0.960 . S
C686 C684 1.381 . S
C686 C687 1.394 . S
C686 H694 0.930 . S
C687 C686 1.394 . S
C687 C688 1.383 . S
C687 H695 0.929 . S
C688 C687 1.383 . S
C688 C689 1.377 . S
C689 H673 0.930 . S
C689 C688 1.377 . S
C689 C690 1.379 . S
C690 H674 0.931 . S
C690 C684 1.383 . S
C690 C689 1.379 . S
H691 C685 0.959 . S
H692 C685 0.961 . S
H693 C685 0.960 . S
H694 C686 0.930 . S
H695 C687 0.929 . S
H696 C704 0.929 . S
H697 C706 0.930 . S
H698 C708 0.930 . S
H699 C711 0.929 . S
H700 C714 0.930 . S
H701 C716 0.960 . S
H702 C716 0.960 . S
H703 C716 0.960 . S
C704 H696 0.929 . S
C704 C705 1.377 . S
C704 C706 1.384 . S
C705 C704 1.377 . S
C705 C711 1.390 . S
C706 H697 0.930 . S
C706 C704 1.384 . S
C706 C707 1.372 . S
C707 C706 1.372 . S
C707 C708 1.400 . S
C707 C712 1.490 . S
C708 H698 0.930 . S
C708 C707 1.400 . S
C708 C711 1.386 . S
H709 C725 0.930 . S
H710 C726 0.931 . S
C711 H699 0.929 . S
C711 C705 1.390 . S
C711 C708 1.386 . S
C712 C707 1.490 . S
C712 C714 1.395 . S
C712 C715 1.403 . S
H713 C719 0.930 . S
C714 H700 0.930 . S
C714 C712 1.395 . S
C714 C717 1.403 . S
C715 C712 1.403 . S
C715 C716 1.524 . S
C715 C719 1.400 . S
C716 H701 0.960 . S
C716 H702 0.960 . S
C716 H703 0.960 . S
C716 C715 1.524 . S
C717 C714 1.403 . S
C717 C718 1.392 . S
C717 C721 1.495 . S
C718 C717 1.392 . S
C718 C719 1.385 . S
C718 C720 1.478 . S
C719 H713 0.930 . S
C719 C715 1.400 . S
C719 C718 1.385 . S
C720 C718 1.478 . S
C720 C722 1.381 . S
C720 C726 1.383 . S
C721 C717 1.495 . S
C721 H727 0.959 . S
C721 H728 0.961 . S
C721 H729 0.960 . S
C722 C720 1.381 . S
C722 C723 1.394 . S
C722 H730 0.930 . S
C723 C722 1.394 . S
C723 C724 1.383 . S
C723 H731 0.929 . S
C724 C723 1.383 . S
C724 C725 1.377 . S
C725 H709 0.930 . S
C725 C724 1.377 . S
C725 C726 1.379 . S
C726 H710 0.931 . S
C726 C720 1.383 . S
C726 C725 1.379 . S
H727 C721 0.959 . S
H728 C721 0.961 . S
H729 C721 0.960 . S
H730 C722 0.930 . S
H731 C723 0.929 . S
H732 C740 0.929 . S
H733 C742 0.930 . S
H734 C744 0.930 . S
H735 C747 0.929 . S
H736 C750 0.930 . S
H737 C752 0.960 . S
H738 C752 0.960 . S
H739 C752 0.960 . S
C740 H732 0.929 . S
C740 C741 1.377 . S
C740 C742 1.384 . S
C741 C740 1.377 . S
C741 C747 1.390 . S
C742 H733 0.930 . S
C742 C740 1.384 . S
C742 C743 1.372 . S
C743 C742 1.372 . S
C743 C744 1.400 . S
C743 C748 1.490 . S
C744 H734 0.930 . S
C744 C743 1.400 . S
C744 C747 1.386 . S
H745 C761 0.930 . S
H746 C762 0.931 . S
C747 H735 0.929 . S
C747 C741 1.390 . S
C747 C744 1.386 . S
C748 C743 1.490 . S
C748 C750 1.395 . S
C748 C751 1.403 . S
H749 C755 0.930 . S
C750 H736 0.930 . S
C750 C748 1.395 . S
C750 C753 1.403 . S
C751 C748 1.403 . S
C751 C752 1.524 . S
C751 C755 1.400 . S
C752 H737 0.960 . S
C752 H738 0.960 . S
C752 H739 0.960 . S
C752 C751 1.524 . S
C753 C750 1.403 . S
C753 C754 1.392 . S
C753 C757 1.495 . S
C754 C753 1.392 . S
C754 C755 1.385 . S
C754 C756 1.478 . S
C755 H749 0.930 . S
C755 C751 1.400 . S
C755 C754 1.385 . S
C756 C754 1.478 . S
C756 C758 1.389 . S
C756 C762 1.383 . S
C757 C753 1.495 . S
C757 H763 0.959 . S
C757 H764 0.961 . S
C757 H765 0.960 1_556 S
C758 C756 1.389 . S
C758 C759 1.387 1_556 S
C758 H766 0.929 1_556 S
C759 C758 1.387 1_554 S
C759 C760 1.383 . S
C759 H767 0.929 . S
C760 C759 1.383 . S
C760 C761 1.377 1_554 S
C761 H745 0.930 . S
C761 C760 1.377 1_556 S
C761 C762 1.379 . S
C762 H746 0.931 . S
C762 C756 1.383 . S
C762 C761 1.379 . S
H763 C757 0.959 . S
H764 C757 0.961 . S
H765 C757 0.960 1_554 S
H766 C758 0.929 1_554 S
H767 C759 0.929 . S
H768 C776 0.929 . S
H769 C778 0.930 . S
H770 C780 0.930 . S
H771 C783 0.929 . S
H772 C786 0.930 . S
H773 C788 0.960 . S
H774 C788 0.960 . S
H775 C788 0.960 . S
C776 H768 0.929 . S
C776 C777 1.377 . S
C776 C778 1.384 . S
C777 C776 1.377 . S
C777 C783 1.390 . S
C778 H769 0.930 . S
C778 C776 1.384 . S
C778 C779 1.372 . S
C779 C778 1.372 . S
C779 C780 1.400 . S
C779 C784 1.490 . S
C780 H770 0.930 . S
C780 C779 1.400 . S
C780 C783 1.386 . S
H781 C797 0.930 . S
H782 C798 0.931 . S
C783 H771 0.929 . S
C783 C777 1.390 . S
C783 C780 1.386 . S
C784 C779 1.490 . S
C784 C786 1.395 . S
C784 C787 1.403 . S
H785 C791 0.930 . S
C786 H772 0.930 . S
C786 C784 1.395 . S
C786 C789 1.403 . S
C787 C784 1.403 . S
C787 C788 1.524 . S
C787 C791 1.400 . S
C788 H773 0.960 . S
C788 H774 0.960 . S
C788 H775 0.960 . S
C788 C787 1.524 . S
C789 C786 1.403 . S
C789 C790 1.392 . S
C789 C793 1.495 . S
C790 C789 1.392 . S
C790 C791 1.385 . S
C790 C792 1.478 . S
C791 H785 0.930 . S
C791 C787 1.400 . S
C791 C790 1.385 . S
C792 C790 1.478 . S
C792 C794 1.381 . S
C792 C798 1.383 . S
C793 C789 1.495 . S
C793 H799 0.959 . S
C793 H800 0.961 . S
C793 H801 0.960 . S
C794 C792 1.381 . S
C794 C795 1.394 . S
C794 H802 0.930 . S
C795 C794 1.394 . S
C795 C796 1.383 . S
C795 H803 0.929 . S
C796 C795 1.383 . S
C796 C797 1.377 . S
C797 H781 0.930 . S
C797 C796 1.377 . S
C797 C798 1.379 . S
C798 H782 0.931 . S
C798 C792 1.383 . S
C798 C797 1.379 . S
H799 C793 0.959 . S
H800 C793 0.961 . S
H801 C793 0.960 . S
H802 C794 0.930 . S
H803 C795 0.929 . S
H804 C812 0.929 . S
H805 C814 0.930 . S
H806 C816 0.930 . S
H807 C819 0.929 . S
H808 C822 0.930 . S
H809 C824 0.960 . S
H810 C824 0.960 . S
H811 C824 0.960 . S
C812 H804 0.929 . S
C812 C813 1.377 . S
C812 C814 1.384 . S
C813 C812 1.377 . S
C813 C819 1.390 . S
C814 H805 0.930 . S
C814 C812 1.384 . S
C814 C815 1.372 . S
C815 C814 1.372 . S
C815 C816 1.400 . S
C815 C820 1.490 . S
C816 H806 0.930 . S
C816 C815 1.400 . S
C816 C819 1.386 . S
H817 C833 0.930 . S
H818 C834 0.931 . S
C819 H807 0.929 . S
C819 C813 1.390 . S
C819 C816 1.386 . S
C820 C815 1.490 . S
C820 C822 1.395 . S
C820 C823 1.403 . S
H821 C827 0.930 . S
C822 H808 0.930 . S
C822 C820 1.395 . S
C822 C825 1.403 . S
C823 C820 1.403 . S
C823 C824 1.524 . S
C823 C827 1.400 . S
C824 H809 0.960 . S
C824 H810 0.960 . S
C824 H811 0.960 . S
C824 C823 1.524 . S
C825 C822 1.403 . S
C825 C826 1.392 . S
C825 C829 1.495 . S
C826 C825 1.392 . S
C826 C827 1.385 . S
C826 C828 1.478 . S
C827 H821 0.930 . S
C827 C823 1.400 . S
C827 C826 1.385 . S
C828 C826 1.478 . S
C828 C830 1.381 . S
C828 C834 1.383 . S
C829 C825 1.495 . S
C829 H835 0.959 . S
C829 H836 0.961 . S
C829 H837 0.960 . S
C830 C828 1.381 . S
C830 C831 1.394 . S
C830 H838 0.930 . S
C831 C830 1.394 . S
C831 C832 1.383 . S
C831 H839 0.929 . S
C832 C831 1.383 . S
C832 C833 1.377 . S
C833 H817 0.930 . S
C833 C832 1.377 . S
C833 C834 1.379 . S
C834 H818 0.931 . S
C834 C828 1.383 . S
C834 C833 1.379 . S
H835 C829 0.959 . S
H836 C829 0.961 . S
H837 C829 0.960 . S
H838 C830 0.930 . S
H839 C831 0.929 . S
H840 C848 0.929 . S
H841 C850 0.930 . S
H842 C852 0.930 . S
H843 C855 0.929 . S
H844 C858 0.930 . S
H845 C860 0.960 . S
H846 C860 0.960 . S
H847 C860 0.960 . S
C848 H840 0.929 . S
C848 C849 1.377 . S
C848 C850 1.384 . S
C849 C848 1.377 . S
C849 C855 1.390 . S
C850 H841 0.930 . S
C850 C848 1.384 . S
C850 C851 1.372 . S
C851 C850 1.372 . S
C851 C852 1.400 . S
C851 C856 1.490 . S
C852 H842 0.930 . S
C852 C851 1.400 . S
C852 C855 1.386 . S
H853 C869 0.930 . S
H854 C870 0.931 . S
C855 H843 0.929 . S
C855 C849 1.390 . S
C855 C852 1.386 . S
C856 C851 1.490 . S
C856 C858 1.395 . S
C856 C859 1.403 . S
H857 C863 0.930 . S
C858 H844 0.930 . S
C858 C856 1.395 . S
C858 C861 1.403 . S
C859 C856 1.403 . S
C859 C860 1.524 . S
C859 C863 1.400 . S
C860 H845 0.960 . S
C860 H846 0.960 . S
C860 H847 0.960 . S
C860 C859 1.524 . S
C861 C858 1.403 . S
C861 C862 1.392 . S
C861 C865 1.495 . S
C862 C861 1.392 . S
C862 C863 1.385 . S
C862 C864 1.478 . S
C863 H857 0.930 . S
C863 C859 1.400 . S
C863 C862 1.385 . S
C864 C862 1.478 . S
C864 C866 1.381 . S
C864 C870 1.383 . S
C865 C861 1.495 . S
C865 H871 0.959 . S
C865 H872 0.961 . S
C865 H873 0.960 . S
C866 C864 1.381 . S
C866 C867 1.394 . S
C866 H874 0.930 . S
C867 C866 1.394 . S
C867 C868 1.383 . S
C867 H875 0.929 . S
C868 C867 1.383 . S
C868 C869 1.377 . S
C869 H853 0.930 . S
C869 C868 1.377 . S
C869 C870 1.379 . S
C870 H854 0.931 . S
C870 C864 1.383 . S
C870 C869 1.379 . S
H871 C865 0.959 . S
H872 C865 0.961 . S
H873 C865 0.960 . S
H874 C866 0.930 . S
H875 C867 0.929 . S
H876 C884 0.929 . S
H877 C886 0.930 . S
H878 C888 0.930 . S
H879 C891 0.929 . S
H880 C894 0.930 . S
H881 C896 0.960 . S
H882 C896 0.960 . S
H883 C896 0.960 . S
C884 H876 0.929 . S
C884 C885 1.377 . S
C884 C886 1.384 . S
C885 C884 1.377 . S
C885 C891 1.390 . S
C886 H877 0.930 . S
C886 C884 1.384 . S
C886 C887 1.372 . S
C887 C886 1.372 . S
C887 C888 1.400 . S
C887 C892 1.490 . S
C888 H878 0.930 . S
C888 C887 1.400 . S
C888 C891 1.386 . S
H889 C905 0.930 . S
H890 C906 0.931 . S
C891 H879 0.929 . S
C891 C885 1.390 . S
C891 C888 1.386 . S
C892 C887 1.490 . S
C892 C894 1.395 . S
C892 C895 1.403 . S
H893 C899 0.930 . S
C894 H880 0.930 . S
C894 C892 1.395 . S
C894 C897 1.403 . S
C895 C892 1.403 . S
C895 C896 1.524 . S
C895 C899 1.400 . S
C896 H881 0.960 . S
C896 H882 0.960 . S
C896 H883 0.960 . S
C896 C895 1.524 . S
C897 C894 1.403 . S
C897 C898 1.392 . S
C897 C901 1.495 . S
C898 C897 1.392 . S
C898 C899 1.385 . S
C898 C900 1.478 . S
C899 H893 0.930 . S
C899 C895 1.400 . S
C899 C898 1.385 . S
C900 C898 1.478 . S
C900 C902 1.381 . S
C900 C906 1.383 . S
C901 C897 1.495 . S
C901 H907 0.959 . S
C901 H908 0.961 . S
C901 H909 0.960 . S
C902 C900 1.381 . S
C902 C903 1.394 . S
C902 H910 0.930 . S
C903 C902 1.394 . S
C903 C904 1.383 . S
C903 H911 0.929 . S
C904 C903 1.383 . S
C904 C905 1.377 . S
C905 H889 0.930 . S
C905 C904 1.377 . S
C905 C906 1.379 . S
C906 H890 0.931 . S
C906 C900 1.383 . S
C906 C905 1.379 . S
H907 C901 0.959 . S
H908 C901 0.961 . S
H909 C901 0.960 . S
H910 C902 0.930 . S
H911 C903 0.929 . S
H912 C920 0.929 . S
H913 C922 0.930 . S
H914 C924 0.930 . S
H915 C927 0.929 . S
H916 C930 0.930 . S
H917 C932 0.960 . S
H918 C932 0.960 . S
H919 C932 0.960 . S
C920 H912 0.929 . S
C920 C921 1.377 . S
C920 C922 1.384 . S
C921 C920 1.377 . S
C921 C927 1.390 . S
C922 H913 0.930 . S
C922 C920 1.384 . S
C922 C923 1.372 . S
C923 C922 1.372 . S
C923 C924 1.400 . S
C923 C928 1.490 . S
C924 H914 0.930 . S
C924 C923 1.400 . S
C924 C927 1.386 . S
H925 C941 0.930 . S
H926 C942 0.931 . S
C927 H915 0.929 . S
C927 C921 1.390 . S
C927 C924 1.386 . S
C928 C923 1.490 . S
C928 C930 1.395 . S
C928 C931 1.403 . S
H929 C935 0.930 . S
C930 H916 0.930 . S
C930 C928 1.395 . S
C930 C933 1.403 . S
C931 C928 1.403 . S
C931 C932 1.524 . S
C931 C935 1.400 . S
C932 H917 0.960 . S
C932 H918 0.960 . S
C932 H919 0.960 . S
C932 C931 1.524 . S
C933 C930 1.403 . S
C933 C934 1.392 . S
C933 C937 1.495 . S
C934 C933 1.392 . S
C934 C935 1.385 . S
C934 C936 1.478 . S
C935 H929 0.930 . S
C935 C931 1.400 . S
C935 C934 1.385 . S
C936 C934 1.478 . S
C936 C938 1.381 . S
C936 C942 1.383 . S
C937 C933 1.495 . S
C937 H943 0.959 . S
C937 H944 0.961 . S
C937 H945 0.960 . S
C938 C936 1.381 . S
C938 C939 1.394 . S
C938 H946 0.930 . S
C939 C938 1.394 . S
C939 C940 1.383 . S
C939 H947 0.929 . S
C940 C939 1.383 . S
C940 C941 1.377 . S
C941 H925 0.930 . S
C941 C940 1.377 . S
C941 C942 1.379 . S
C942 H926 0.931 . S
C942 C936 1.383 . S
C942 C941 1.379 . S
H943 C937 0.959 . S
H944 C937 0.961 . S
H945 C937 0.960 . S
H946 C938 0.930 . S
H947 C939 0.929 . S
H948 C956 0.929 . S
H949 C958 0.930 . S
H950 C960 0.930 . S
H951 C963 0.929 . S
H952 C966 0.930 . S
H953 C968 0.960 . S
H954 C968 0.960 . S
H955 C968 0.960 . S
C956 H948 0.929 . S
C956 C957 1.377 . S
C956 C958 1.384 . S
C957 C956 1.377 . S
C957 C963 1.390 . S
C958 H949 0.930 . S
C958 C956 1.384 . S
C958 C959 1.372 . S
C959 C958 1.372 . S
C959 C960 1.400 . S
C959 C964 1.490 . S
C960 H950 0.930 . S
C960 C959 1.400 . S
C960 C963 1.386 . S
H961 C977 0.930 . S
H962 C978 0.931 . S
C963 H951 0.929 . S
C963 C957 1.390 . S
C963 C960 1.386 . S
C964 C959 1.490 . S
C964 C966 1.395 . S
C964 C967 1.403 . S
H965 C971 0.930 . S
C966 H952 0.930 . S
C966 C964 1.395 . S
C966 C969 1.403 . S
C967 C964 1.403 . S
C967 C968 1.524 . S
C967 C971 1.400 . S
C968 H953 0.960 . S
C968 H954 0.960 . S
C968 H955 0.960 . S
C968 C967 1.524 . S
C969 C966 1.403 . S
C969 C970 1.392 . S
C969 C973 1.495 . S
C970 C969 1.392 . S
C970 C971 1.385 . S
C970 C972 1.478 . S
C971 H965 0.930 . S
C971 C967 1.400 . S
C971 C970 1.385 . S
C972 C970 1.478 . S
C972 C974 1.381 . S
C972 C978 1.383 . S
C973 C969 1.495 . S
C973 H979 0.959 . S
C973 H980 0.961 . S
C973 H981 0.960 . S
C974 C972 1.381 . S
C974 C975 1.394 . S
C974 H982 0.930 . S
C975 C974 1.394 . S
C975 C976 1.383 . S
C975 H983 0.929 . S
C976 C975 1.383 . S
C976 C977 1.377 . S
C977 H961 0.930 . S
C977 C976 1.377 . S
C977 C978 1.379 . S
C978 H962 0.931 . S
C978 C972 1.383 . S
C978 C977 1.379 . S
H979 C973 0.959 . S
H980 C973 0.961 . S
H981 C973 0.960 . S
H982 C974 0.930 . S
H983 C975 0.929 . S
H984 C992 0.929 . S
H985 C994 0.930 . S
H986 C996 0.930 . S
H987 C999 0.929 . S
H988 C1002 0.930 . S
H989 C1004 0.960 . S
H990 C1004 0.960 . S
H991 C1004 0.960 . S
C992 H984 0.929 . S
C992 C993 1.377 . S
C992 C994 1.384 . S
C993 C992 1.377 . S
C993 C999 1.390 . S
C994 H985 0.930 . S
C994 C992 1.384 . S
C994 C995 1.372 . S
C995 C994 1.372 . S
C995 C996 1.400 . S
C995 C1000 1.490 . S
C996 H986 0.930 . S
C996 C995 1.400 . S
C996 C999 1.386 . S
H997 C1013 0.930 . S
H998 C1014 0.931 1_554 S
C999 H987 0.929 . S
C999 C993 1.390 . S
C999 C996 1.386 . S
C1000 C995 1.490 . S
C1000 C1002 1.395 . S
C1000 C1003 1.403 . S
H1001 C1007 0.930 . S
C1002 H988 0.930 . S
C1002 C1000 1.395 . S
C1002 C1005 1.403 . S
C1003 C1000 1.403 . S
C1003 C1004 1.524 . S
C1003 C1007 1.400 . S
C1004 H989 0.960 . S
C1004 H990 0.960 . S
C1004 H991 0.960 . S
C1004 C1003 1.524 . S
C1005 C1002 1.403 . S
C1005 C1006 1.392 . S
C1005 C1009 1.495 1_554 S
C1006 C1005 1.392 . S
C1006 C1007 1.385 . S
C1006 C1008 1.478 1_554 S
C1007 H1001 0.930 . S
C1007 C1003 1.400 . S
C1007 C1006 1.385 . S
C1008 C1006 1.478 1_556 S
C1008 C1010 1.381 . S
C1008 C1014 1.383 . S
C1009 C1005 1.495 1_556 S
C1009 H1015 0.959 1_556 S
C1009 H1016 0.969 . S
C1009 H1017 0.960 . S
C1010 C1008 1.381 . S
C1010 C1011 1.394 . S
C1010 H1018 0.930 . S
C1011 C1010 1.394 . S
C1011 C1012 1.383 . S
C1011 H1019 0.929 . S
C1012 C1011 1.383 . S
C1012 C1013 1.377 . S
C1013 H997 0.930 . S
C1013 C1012 1.377 . S
C1013 C1014 1.379 . S
C1014 H998 0.931 1_556 S
C1014 C1008 1.383 . S
C1014 C1013 1.379 . S
H1015 C1009 0.959 1_554 S
H1016 C1009 0.969 . S
H1017 C1009 0.960 . S
H1018 C1010 0.930 . S
H1019 C1011 0.929 . S
H1020 C1028 0.929 . S
H1021 C1030 0.930 . S
H1022 C1032 0.930 . S
H1023 C1035 0.929 . S
H1024 C1038 0.930 . S
H1025 C1040 0.960 . S
H1026 C1040 0.960 . S
H1027 C1040 0.960 . S
C1028 H1020 0.929 . S
C1028 C1029 1.377 . S
C1028 C1030 1.384 . S
C1029 C1028 1.377 . S
C1029 C1035 1.390 . S
C1030 H1021 0.930 . S
C1030 C1028 1.384 . S
C1030 C1031 1.372 . S
C1031 C1030 1.372 . S
C1031 C1032 1.400 . S
C1031 C1036 1.490 . S
C1032 H1022 0.930 . S
C1032 C1031 1.400 . S
C1032 C1035 1.386 . S
H1033 C1049 0.930 . S
H1034 C1050 0.931 . S
C1035 H1023 0.929 . S
C1035 C1029 1.390 . S
C1035 C1032 1.386 . S
C1036 C1031 1.490 . S
C1036 C1038 1.395 . S
C1036 C1039 1.403 . S
H1037 C1043 0.930 . S
C1038 H1024 0.930 . S
C1038 C1036 1.395 . S
C1038 C1041 1.403 . S
C1039 C1036 1.403 . S
C1039 C1040 1.524 . S
C1039 C1043 1.400 . S
C1040 H1025 0.960 . S
C1040 H1026 0.960 . S
C1040 H1027 0.960 . S
C1040 C1039 1.524 . S
C1041 C1038 1.403 . S
C1041 C1042 1.392 . S
C1041 C1045 1.495 . S
C1042 C1041 1.392 . S
C1042 C1043 1.385 . S
C1042 C1044 1.478 . S
C1043 H1037 0.930 . S
C1043 C1039 1.400 . S
C1043 C1042 1.385 . S
C1044 C1042 1.478 . S
C1044 C1046 1.381 . S
C1044 C1050 1.383 . S
C1045 C1041 1.495 . S
C1045 H1051 0.959 . S
C1045 H1052 0.961 . S
C1045 H1053 0.960 . S
C1046 C1044 1.381 . S
C1046 C1047 1.394 . S
C1046 H1054 0.930 . S
C1047 C1046 1.394 . S
C1047 C1048 1.383 . S
C1047 H1055 0.929 . S
C1048 C1047 1.383 . S
C1048 C1049 1.377 . S
C1049 H1033 0.930 . S
C1049 C1048 1.377 . S
C1049 C1050 1.379 . S
C1050 H1034 0.931 . S
C1050 C1044 1.383 . S
C1050 C1049 1.379 . S
H1051 C1045 0.959 . S
H1052 C1045 0.961 . S
H1053 C1045 0.960 . S
H1054 C1046 0.930 . S
H1055 C1047 0.929 . S
C220 C183 1.241 . S
C201 C8 1.445 . S
C237 C26 1.473 . S
C256 C113 1.244 . S
C273 C50 1.445 . S
C292 C133 1.468 . S
C309 C68 1.386 . S
C328 C147 1.398 . S
C364 C155 1.219 . S
C345 C80 1.421 . S
C381 C104 1.441 . S
C400 C169 1.304 . S
C417 C32 1.465 . S
C436 C127 1.311 . S
C453 C44 1.412 . S
C472 C141 1.232 . S
C489 C62 1.370 . S
C508 C161 1.387 . S
C544 C175 1.452 . S
C525 C86 1.394 1_554 S
C580 C189 1.445 . S
C561 C98 1.402 . S
C616 C119 1.455 . S
C597 C14 1.433 . S
C633 C7 1.426 . S
C652 C126 1.429 . S
C669 C25 1.434 . S
C688 C140 1.460 . S
C724 C162 1.467 . S
C705 C52 1.418 . S
C741 C70 1.423 . S
C760 C176 1.473 . S
C796 C190 1.447 . S
C777 C79 1.393 . S
C832 C120 1.415 . S
C813 C106 1.367 . S
C868 C182 1.431 . S
C849 C34 1.425 . S
C885 C43 1.419 . S
C904 C112 1.411 . S
C940 C134 1.455 . S
C921 C61 1.405 . S
C957 C88 1.417 . S
C976 C148 1.463 . S
C993 C97 1.476 . S
C1012 C154 1.469 . S
C1029 C16 1.461 . S
C1048 C168 1.484 . S
