# Generated by pormake.
# Topology ctn, (3,4)-cn, num edge types: 1
# Building blocks:
#     Node 0, Type 0, BuildingBlock: BETDIP_clean_linker_0, # of connection points: 3
#     Node 1, Type 0, BuildingBlock: BETDIP_clean_linker_0, # of connection points: 3
#     Node 2, Type 0, BuildingBlock: BETDIP_clean_linker_0, # of connection points: 3
#     Node 3, Type 0, BuildingBlock: BETDIP_clean_linker_0, # of connection points: 3
#     Node 4, Type 0, BuildingBlock: BETDIP_clean_linker_0, # of connection points: 3
#     Node 5, Type 0, BuildingBlock: BETDIP_clean_linker_0, # of connection points: 3
#     Node 6, Type 0, BuildingBlock: BETDIP_clean_linker_0, # of connection points: 3
#     Node 7, Type 0, BuildingBlock: BETDIP_clean_linker_0, # of connection points: 3
#     Node 8, Type 0, BuildingBlock: BETDIP_clean_linker_0, # of connection points: 3
#     Node 9, Type 0, BuildingBlock: BETDIP_clean_linker_0, # of connection points: 3
#     Node 10, Type 0, BuildingBlock: BETDIP_clean_linker_0, # of connection points: 3
#     Node 11, Type 0, BuildingBlock: BETDIP_clean_linker_0, # of connection points: 3
#     Node 12, Type 0, BuildingBlock: BETDIP_clean_linker_0, # of connection points: 3
#     Node 13, Type 0, BuildingBlock: BETDIP_clean_linker_0, # of connection points: 3
#     Node 14, Type 0, BuildingBlock: BETDIP_clean_linker_0, # of connection points: 3
#     Node 15, Type 0, BuildingBlock: BETDIP_clean_linker_0, # of connection points: 3
#     Node 16, Type 1, BuildingBlock: UXUYUI_clean_sbu_0, # of connection points: 4
#     Node 17, Type 1, BuildingBlock: UXUYUI_clean_sbu_0, # of connection points: 4
#     Node 18, Type 1, BuildingBlock: UXUYUI_clean_sbu_0, # of connection points: 4
#     Node 19, Type 1, BuildingBlock: UXUYUI_clean_sbu_0, # of connection points: 4
#     Node 20, Type 1, BuildingBlock: UXUYUI_clean_sbu_0, # of connection points: 4
#     Node 21, Type 1, BuildingBlock: UXUYUI_clean_sbu_0, # of connection points: 4
#     Node 22, Type 1, BuildingBlock: UXUYUI_clean_sbu_0, # of connection points: 4
#     Node 23, Type 1, BuildingBlock: UXUYUI_clean_sbu_0, # of connection points: 4
#     Node 24, Type 1, BuildingBlock: UXUYUI_clean_sbu_0, # of connection points: 4
#     Node 25, Type 1, BuildingBlock: UXUYUI_clean_sbu_0, # of connection points: 4
#     Node 26, Type 1, BuildingBlock: UXUYUI_clean_sbu_0, # of connection points: 4
#     Node 27, Type 1, BuildingBlock: UXUYUI_clean_sbu_0, # of connection points: 4
#     Edge 28, Type (0, 1), BuildingBlock: ZUJKAS_clean_linker_0, # of connection points: 2
#     Edge 29, Type (0, 1), BuildingBlock: ZUJKAS_clean_linker_0, # of connection points: 2
#     Edge 30, Type (0, 1), BuildingBlock: ZUJKAS_clean_linker_0, # of connection points: 2
#     Edge 31, Type (0, 1), BuildingBlock: ZUJKAS_clean_linker_0, # of connection points: 2
#     Edge 32, Type (0, 1), BuildingBlock: ZUJKAS_clean_linker_0, # of connection points: 2
#     Edge 33, Type (0, 1), BuildingBlock: ZUJKAS_clean_linker_0, # of connection points: 2
#     Edge 34, Type (0, 1), BuildingBlock: ZUJKAS_clean_linker_0, # of connection points: 2
#     Edge 35, Type (0, 1), BuildingBlock: ZUJKAS_clean_linker_0, # of connection points: 2
#     Edge 36, Type (0, 1), BuildingBlock: ZUJKAS_clean_linker_0, # of connection points: 2
#     Edge 37, Type (0, 1), BuildingBlock: ZUJKAS_clean_linker_0, # of connection points: 2
#     Edge 38, Type (0, 1), BuildingBlock: ZUJKAS_clean_linker_0, # of connection points: 2
#     Edge 39, Type (0, 1), BuildingBlock: ZUJKAS_clean_linker_0, # of connection points: 2
#     Edge 40, Type (0, 1), BuildingBlock: ZUJKAS_clean_linker_0, # of connection points: 2
#     Edge 41, Type (0, 1), BuildingBlock: ZUJKAS_clean_linker_0, # of connection points: 2
#     Edge 42, Type (0, 1), BuildingBlock: ZUJKAS_clean_linker_0, # of connection points: 2
#     Edge 43, Type (0, 1), BuildingBlock: ZUJKAS_clean_linker_0, # of connection points: 2
#     Edge 44, Type (0, 1), BuildingBlock: ZUJKAS_clean_linker_0, # of connection points: 2
#     Edge 45, Type (0, 1), BuildingBlock: ZUJKAS_clean_linker_0, # of connection points: 2
#     Edge 46, Type (0, 1), BuildingBlock: ZUJKAS_clean_linker_0, # of connection points: 2
#     Edge 47, Type (0, 1), BuildingBlock: ZUJKAS_clean_linker_0, # of connection points: 2
#     Edge 48, Type (0, 1), BuildingBlock: ZUJKAS_clean_linker_0, # of connection points: 2
#     Edge 49, Type (0, 1), BuildingBlock: ZUJKAS_clean_linker_0, # of connection points: 2
#     Edge 50, Type (0, 1), BuildingBlock: ZUJKAS_clean_linker_0, # of connection points: 2
#     Edge 51, Type (0, 1), BuildingBlock: ZUJKAS_clean_linker_0, # of connection points: 2
#     Edge 52, Type (0, 1), BuildingBlock: ZUJKAS_clean_linker_0, # of connection points: 2
#     Edge 53, Type (0, 1), BuildingBlock: ZUJKAS_clean_linker_0, # of connection points: 2
#     Edge 54, Type (0, 1), BuildingBlock: ZUJKAS_clean_linker_0, # of connection points: 2
#     Edge 55, Type (0, 1), BuildingBlock: ZUJKAS_clean_linker_0, # of connection points: 2
#     Edge 56, Type (0, 1), BuildingBlock: ZUJKAS_clean_linker_0, # of connection points: 2
#     Edge 57, Type (0, 1), BuildingBlock: ZUJKAS_clean_linker_0, # of connection points: 2
#     Edge 58, Type (0, 1), BuildingBlock: ZUJKAS_clean_linker_0, # of connection points: 2
#     Edge 59, Type (0, 1), BuildingBlock: ZUJKAS_clean_linker_0, # of connection points: 2
#     Edge 60, Type (0, 1), BuildingBlock: ZUJKAS_clean_linker_0, # of connection points: 2
#     Edge 61, Type (0, 1), BuildingBlock: ZUJKAS_clean_linker_0, # of connection points: 2
#     Edge 62, Type (0, 1), BuildingBlock: ZUJKAS_clean_linker_0, # of connection points: 2
#     Edge 63, Type (0, 1), BuildingBlock: ZUJKAS_clean_linker_0, # of connection points: 2
#     Edge 64, Type (0, 1), BuildingBlock: ZUJKAS_clean_linker_0, # of connection points: 2
#     Edge 65, Type (0, 1), BuildingBlock: ZUJKAS_clean_linker_0, # of connection points: 2
#     Edge 66, Type (0, 1), BuildingBlock: ZUJKAS_clean_linker_0, # of connection points: 2
#     Edge 67, Type (0, 1), BuildingBlock: ZUJKAS_clean_linker_0, # of connection points: 2
#     Edge 68, Type (0, 1), BuildingBlock: ZUJKAS_clean_linker_0, # of connection points: 2
#     Edge 69, Type (0, 1), BuildingBlock: ZUJKAS_clean_linker_0, # of connection points: 2
#     Edge 70, Type (0, 1), BuildingBlock: ZUJKAS_clean_linker_0, # of connection points: 2
#     Edge 71, Type (0, 1), BuildingBlock: ZUJKAS_clean_linker_0, # of connection points: 2
#     Edge 72, Type (0, 1), BuildingBlock: ZUJKAS_clean_linker_0, # of connection points: 2
#     Edge 73, Type (0, 1), BuildingBlock: ZUJKAS_clean_linker_0, # of connection points: 2
#     Edge 74, Type (0, 1), BuildingBlock: ZUJKAS_clean_linker_0, # of connection points: 2
#     Edge 75, Type (0, 1), BuildingBlock: ZUJKAS_clean_linker_0, # of connection points: 2
# Relax obj value: 0.067
# Max RMSD: 0.193
# Mean RMSD: 0.117
data_MOF--net-ctn--node1-UXUYUI_clean_sbu_0--node2-BETDIP_clean_linker_0--edge1-ZUJKAS_clean_linker_0
_symmetry_space_group_name_H-M    P1
_symmetry_Int_Tables_number       1
_symmetry_cell_setting            triclinic
loop_
_symmetry_equiv_pos_as_xyz
'x, y, z'
_cell_length_a     81.383525
_cell_length_b     81.693832
_cell_length_c     89.23438
_cell_angle_alpha  93.348389
_cell_angle_beta   93.552424
_cell_angle_gamma 92.812676
loop_
_atom_site_label
_atom_site_type_symbol
_atom_site_fract_x
_atom_site_fract_y
_atom_site_fract_z
_atom_type_partial_charge
H0 H 0.03559 0.06118 0.05623 0.0
H1 H 0.07524 0.04616 0.02994 0.0
H2 H 0.06325 0.01987 0.06857 0.0
H3 H 0.07694 0.07455 0.02727 0.0
C4 C 0.06397 0.07625 0.02448 0.0
C5 C 0.04531 0.05286 0.05421 0.0
C6 C 0.0484 0.04038 0.06406 0.0
C7 C 0.05512 0.0552 0.0421 0.0
C8 C 0.0678 0.04453 0.03943 0.0
C9 C 0.07086 0.03168 0.04889 0.0
C10 C 0.06117 0.02982 0.06128 0.0
N11 N 0.05178 0.06819 0.03259 0.0
H12 H 0.27438 0.70358 0.19887 0.0
H13 H 0.31726 0.73409 0.21431 0.0
H14 H 0.30373 0.69186 0.23824 0.0
H15 H 0.3029 0.75351 0.20278 0.0
C16 C 0.29726 0.74688 0.1927 0.0
C17 C 0.28475 0.70633 0.20699 0.0
C18 C 0.28764 0.69604 0.21887 0.0
C19 C 0.29514 0.72021 0.20542 0.0
C20 C 0.30894 0.72361 0.21561 0.0
C21 C 0.31217 0.7134 0.22749 0.0
C22 C 0.30137 0.69972 0.22907 0.0
N23 N 0.29162 0.73019 0.1932 0.0
H24 H 0.95808 0.48415 0.01716 0.0
H25 H 0.99548 0.465 0.04622 0.0
H26 H 0.97096 0.50789 0.06098 0.0
H27 H 0.0055 0.45688 0.02407 0.0
C28 C 0.99443 0.45278 0.01719 0.0
C29 C 0.96547 0.485 0.02773 0.0
C30 C 0.96289 0.49738 0.03885 0.0
C31 C 0.97752 0.47362 0.0301 0.0
C32 C 0.98678 0.47429 0.04397 0.0
C33 C 0.98451 0.48659 0.05524 0.0
C34 C 0.97253 0.4981 0.05255 0.0
N35 N 0.97975 0.46138 0.01849 0.0
H36 H 0.72049 0.77933 0.20091 0.0
H37 H 0.73655 0.82174 0.22993 0.0
H38 H 0.76167 0.81058 0.19002 0.0
H39 H 0.71099 0.82002 0.2371 0.0
C40 C 0.70713 0.80707 0.23639 0.0
C41 C 0.72874 0.79009 0.20341 0.0
C42 C 0.74138 0.79366 0.19385 0.0
C43 C 0.72665 0.80026 0.21629 0.0
C44 C 0.73766 0.81398 0.21984 0.0
C45 C 0.75027 0.81781 0.21036 0.0
C46 C 0.75198 0.80763 0.19737 0.0
N47 N 0.71358 0.79612 0.22552 0.0
H48 H 0.03655 0.96148 0.45335 0.0
H49 H 0.07883 0.97796 0.48265 0.0
H50 H 0.06624 0.00416 0.44362 0.0
H51 H 0.0783 0.95171 0.48852 0.0
C52 C 0.06533 0.94784 0.48822 0.0
C53 C 0.04705 0.97004 0.45608 0.0
C54 C 0.05 0.98322 0.44698 0.0
C55 C 0.05753 0.9678 0.46879 0.0
C56 C 0.071 0.97909 0.47257 0.0
C57 C 0.07414 0.99233 0.46359 0.0
C58 C 0.06359 0.99426 0.45083 0.0
N59 N 0.05389 0.95436 0.47773 0.0
H60 H 0.22605 0.73801 0.80479 0.0
H61 H 0.24484 0.70091 0.77552 0.0
H62 H 0.27099 0.7154 0.81796 0.0
H63 H 0.2305 0.71366 0.7575 0.0
C64 C 0.21976 0.71805 0.7628 0.0
C65 C 0.23552 0.72951 0.80247 0.0
C66 C 0.24872 0.72794 0.81312 0.0
C67 C 0.23427 0.72022 0.78876 0.0
C68 C 0.24613 0.70872 0.78578 0.0
C69 C 0.25937 0.70676 0.79633 0.0
C70 C 0.26059 0.71649 0.80996 0.0
N71 N 0.22064 0.72251 0.77848 0.0
H72 H 0.99706 0.56197 0.46416 0.0
H73 H 0.9703 0.5158 0.45293 0.0
H74 H 0.95712 0.54663 0.49045 0.0
H75 H 0.9926 0.50951 0.44121 0.0
C76 C 0.99773 0.52088 0.43728 0.0
C77 C 0.98747 0.55299 0.46654 0.0
C78 C 0.97746 0.55607 0.47857 0.0
C79 C 0.9852 0.53845 0.45738 0.0
C80 C 0.97245 0.52693 0.46008 0.0
C81 C 0.96224 0.52978 0.47202 0.0
C82 C 0.96492 0.54435 0.48122 0.0
N83 N 0.99567 0.53611 0.44532 0.0
H84 H 0.80006 0.8117 0.77391 0.0
H85 H 0.81808 0.77419 0.8014 0.0
H86 H 0.77553 0.79976 0.81355 0.0
H87 H 0.84074 0.77717 0.7893 0.0
C88 C 0.83769 0.78212 0.77851 0.0
C89 C 0.79895 0.80449 0.78365 0.0
C90 C 0.78618 0.80711 0.79328 0.0
C91 C 0.81067 0.79292 0.78655 0.0
C92 C 0.80952 0.78361 0.79927 0.0
C93 C 0.79689 0.78605 0.80914 0.0
C94 C 0.78529 0.79783 0.80603 0.0
N95 N 0.82316 0.79088 0.7762 0.0
H96 H 0.30003 0.31159 0.27357 0.0
H97 H 0.31804 0.27446 0.30147 0.0
H98 H 0.27511 0.29987 0.31304 0.0
H99 H 0.3297 0.26552 0.28049 0.0
C100 C 0.33241 0.27632 0.27436 0.0
C101 C 0.29879 0.30438 0.28329 0.0
C102 C 0.28613 0.30726 0.29296 0.0
C103 C 0.31007 0.29235 0.286 0.0
C104 C 0.30896 0.28327 0.29887 0.0
C105 C 0.29646 0.28603 0.30881 0.0
C106 C 0.28505 0.29799 0.30569 0.0
N107 N 0.32264 0.29021 0.27577 0.0
H108 H 0.45621 0.9835 0.51757 0.0
H109 H 0.4946 0.96502 0.54604 0.0
H110 H 0.4694 0.00724 0.56135 0.0
H111 H 0.50415 0.95713 0.52351 0.0
C112 C 0.49293 0.95266 0.517 0.0
C113 C 0.46364 0.9843 0.52812 0.0
C114 C 0.46121 0.99674 0.53923 0.0
C115 C 0.47597 0.97316 0.53027 0.0
C116 C 0.48563 0.97411 0.54394 0.0
C117 C 0.48339 0.98638 0.55523 0.0
C118 C 0.47118 0.9977 0.55274 0.0
N119 N 0.4781 0.96091 0.51865 0.0
H120 H 0.22019 0.27975 0.7005 0.0
H121 H 0.23719 0.32139 0.73011 0.0
H122 H 0.26153 0.31081 0.68969 0.0
H123 H 0.22329 0.30944 0.74687 0.0
C124 C 0.21342 0.30156 0.74121 0.0
C125 C 0.22881 0.29019 0.70325 0.0
C126 C 0.24107 0.29407 0.69339 0.0
C127 C 0.22739 0.29975 0.71663 0.0
C128 C 0.23824 0.31364 0.72004 0.0
C129 C 0.25065 0.31766 0.71039 0.0
C130 C 0.25198 0.30777 0.69715 0.0
N131 N 0.21468 0.29523 0.72614 0.0
H132 H 0.77371 0.20511 0.70002 0.0
H133 H 0.81714 0.23521 0.71468 0.0
H134 H 0.80378 0.19314 0.73885 0.0
H135 H 0.80482 0.25417 0.70192 0.0
C136 C 0.7977 0.24767 0.69253 0.0
C137 C 0.78426 0.20778 0.70795 0.0
C138 C 0.78735 0.19746 0.71976 0.0
C139 C 0.79473 0.22153 0.70614 0.0
C140 C 0.80875 0.22482 0.71611 0.0
C141 C 0.81212 0.21464 0.72797 0.0
C142 C 0.80129 0.20103 0.72973 0.0
N143 N 0.791 0.23145 0.69391 0.0
H144 H 0.53445 0.56004 0.55515 0.0
H145 H 0.57238 0.54276 0.52785 0.0
H146 H 0.56459 0.52137 0.56985 0.0
H147 H 0.55658 0.5525 0.50936 0.0
C148 C 0.55201 0.56366 0.51441 0.0
C149 C 0.54438 0.55191 0.55343 0.0
C150 C 0.54834 0.54048 0.56412 0.0
C151 C 0.55278 0.55267 0.54024 0.0
C152 C 0.56563 0.5421 0.53787 0.0
C153 C 0.56991 0.53065 0.54842 0.0
C154 C 0.56114 0.5299 0.56149 0.0
N155 N 0.54826 0.56446 0.52979 0.0
H156 H 0.53724 0.46141 0.95378 0.0
H157 H 0.58133 0.47678 0.98115 0.0
H158 H 0.56784 0.50263 0.94218 0.0
H159 H 0.57087 0.4623 0.9982 0.0
C160 C 0.562 0.45304 0.99297 0.0
C161 C 0.54808 0.46964 0.95604 0.0
C162 C 0.55131 0.48223 0.94637 0.0
C163 C 0.55852 0.46777 0.96887 0.0
C164 C 0.57268 0.47842 0.97176 0.0
C165 C 0.57612 0.49105 0.96219 0.0
C166 C 0.5653 0.49289 0.94959 0.0
N167 N 0.55449 0.45493 0.97837 0.0
H168 H 0.72676 0.23865 0.30378 0.0
H169 H 0.74518 0.20066 0.27513 0.0
H170 H 0.77054 0.21464 0.31791 0.0
H171 H 0.72584 0.20598 0.25871 0.0
C172 C 0.71763 0.2148 0.26321 0.0
C173 C 0.73596 0.22978 0.30168 0.0
C174 C 0.74896 0.22804 0.3125 0.0
C175 C 0.73442 0.22008 0.28819 0.0
C176 C 0.74604 0.20823 0.28549 0.0
C177 C 0.75911 0.20613 0.29619 0.0
C178 C 0.76049 0.21614 0.30964 0.0
N179 N 0.72094 0.22269 0.2778 0.0
H180 H 0.49631 0.06246 0.96281 0.0
H181 H 0.46944 0.01644 0.95125 0.0
H182 H 0.45826 0.04547 0.99056 0.0
H183 H 0.49185 0.0104 0.93941 0.0
C184 C 0.49669 0.02184 0.93538 0.0
C185 C 0.48701 0.05329 0.96539 0.0
C186 C 0.47766 0.05582 0.97799 0.0
C187 C 0.48447 0.03899 0.9559 0.0
C188 C 0.47193 0.02729 0.95872 0.0
C189 C 0.4624 0.02959 0.9712 0.0
C190 C 0.46549 0.04377 0.98085 0.0
N191 N 0.49448 0.03702 0.94346 0.0
Li192 Li 0.27509 0.88979 0.00397 0.0
Li193 Li 0.26158 0.86943 0.01892 0.0
Li194 Li 0.25615 0.86903 0.99158 0.0
Li195 Li 0.2456 0.89051 0.00835 0.0
C196 C 0.28258 0.85235 0.99566 0.0
N197 N 0.29159 0.82455 0.97971 0.0
C198 C 0.28001 0.83689 1.0013 0.0
C199 C 0.28977 0.85367 0.98192 0.0
C200 C 0.28467 0.82298 0.99307 0.0
C201 C 0.2942 0.83947 0.97401 0.0
C202 C 0.27034 0.89421 0.03786 0.0
C203 C 0.26571 0.89179 0.0641 0.0
N204 N 0.28225 0.89371 0.0675 0.0
C205 C 0.28728 0.89619 0.04161 0.0
C206 C 0.25945 0.89204 0.04919 0.0
C207 C 0.29305 0.89591 0.05667 0.0
C208 C 0.29451 0.91956 0.00573 0.0
N209 N 0.29473 0.90315 0.0023 0.0
C210 C 0.32264 0.90601 0.99557 0.0
C211 C 0.30848 0.89622 0.99752 0.0
C212 C 0.32268 0.92309 0.99863 0.0
C213 C 0.30839 0.92983 0.00389 0.0
H214 H 0.28347 0.9247 0.00972 0.0
H215 H 0.30841 0.88312 0.9951 0.0
C216 C 0.2517 0.84983 0.04248 0.0
N217 N 0.26487 0.85629 0.03576 0.0
C218 C 0.25407 0.84075 0.05515 0.0
C219 C 0.28352 0.84479 0.05352 0.0
C220 C 0.28057 0.85389 0.04095 0.0
C221 C 0.27015 0.83817 0.06085 0.0
H222 H 0.23936 0.85177 0.03804 0.0
H223 H 0.29081 0.85917 0.03536 0.0
C224 C 0.26205 0.90618 0.98214 0.0
N225 N 0.27479 0.93346 0.96902 0.0
C226 C 0.25615 0.92165 0.98556 0.0
C227 C 0.27438 0.90457 0.97199 0.0
C228 C 0.26275 0.93529 0.97881 0.0
C229 C 0.28069 0.91851 0.96551 0.0
C230 C 0.2234 0.86574 0.00711 0.0
C231 C 0.21396 0.86154 0.99369 0.0
C232 C 0.21554 0.86987 0.02021 0.0
C233 C 0.19678 0.86157 0.9936 0.0
C234 C 0.19834 0.86979 0.01963 0.0
N235 N 0.1894 0.86568 0.00645 0.0
C236 C 0.24761 0.83877 0.9752 0.0
C237 C 0.25451 0.86072 0.96014 0.0
C238 C 0.24626 0.82771 0.96258 0.0
N239 N 0.25195 0.85486 0.97379 0.0
C240 C 0.25333 0.8501 0.94723 0.0
C241 C 0.24937 0.83328 0.94836 0.0
H242 H 0.2456 0.83446 0.98621 0.0
H243 H 0.25789 0.87356 0.95931 0.0
C244 C 0.22877 0.91463 0.0244 0.0
N245 N 0.22796 0.90472 0.01158 0.0
C246 C 0.21603 0.92493 0.0274 0.0
C247 C 0.20189 0.91486 0.00381 0.0
C248 C 0.21501 0.90485 1.00121 0.0
C249 C 0.20224 0.92506 0.0171 0.0
H250 H 0.23938 0.9146 0.0323 0.0
H251 H 0.21478 0.89705 0.99098 0.0
O252 O 0.27773 0.86608 0.00337 0.0
O253 O 0.26448 0.894 0.02315 0.0
O254 O 0.25596 0.89272 0.98884 0.0
O255 O 0.24023 0.86593 0.0074 0.0
H256 H 0.2743 0.8356 0.01182 0.0
H257 H 0.29158 0.8655 0.97724 0.0
H258 H 0.28269 0.81094 0.99727 0.0
H259 H 0.29964 0.8403 0.9633 0.0
H260 H 0.25744 0.88999 0.07296 0.0
H261 H 0.29589 0.89776 0.03299 0.0
H262 H 0.24631 0.89029 0.04646 0.0
H263 H 0.30614 0.89736 0.05973 0.0
H264 H 0.33334 0.9003 0.99141 0.0
H265 H 0.30795 0.94288 0.00663 0.0
H266 H 0.24343 0.83568 0.06034 0.0
H267 H 0.29611 0.8432 0.05763 0.0
H268 H 0.24668 0.92316 0.99343 0.0
H269 H 0.27929 0.89275 0.96939 0.0
H270 H 0.25835 0.94734 0.9814 0.0
H271 H 0.29034 0.91747 0.95775 0.0
H272 H 0.21981 0.85841 0.98343 0.0
H273 H 0.22265 0.87341 0.03064 0.0
H274 H 0.18933 0.85839 0.98328 0.0
H275 H 0.19211 0.87309 0.02965 0.0
H276 H 0.24291 0.81492 0.96397 0.0
H277 H 0.256 0.85495 0.93656 0.0
H278 H 0.21709 0.93284 0.03761 0.0
H279 H 0.19151 0.91441 0.99558 0.0
Li280 Li 0.12429 0.49782 0.26487 0.0
Li281 Li 0.14361 0.4812 0.25351 0.0
Li282 Li 0.14491 0.51046 0.25047 0.0
Li283 Li 0.12242 0.49204 0.23663 0.0
C284 C 0.14838 0.50163 0.28444 0.0
N285 N 0.14644 0.50656 0.31518 0.0
C286 C 0.14748 0.48822 0.29345 0.0
C287 C 0.14834 0.51756 0.29109 0.0
C288 C 0.14651 0.49097 0.30896 0.0
C289 C 0.14734 0.51979 0.30664 0.0
C290 C 0.11763 0.45975 0.25186 0.0
C291 C 0.11028 0.43417 0.23756 0.0
N292 N 0.11435 0.42583 0.24989 0.0
C293 C 0.12171 0.45091 0.2644 0.0
C294 C 0.11186 0.45131 0.23832 0.0
C295 C 0.11998 0.43377 0.26317 0.0
C296 C 0.10653 0.51635 0.286 0.0
N297 N 0.11093 0.50102 0.28171 0.0
C298 C 0.09721 0.48977 0.30201 0.0
C299 C 0.1063 0.48781 0.28932 0.0
C300 C 0.09268 0.50549 0.30685 0.0
C301 C 0.09737 0.51889 0.29859 0.0
H302 H 0.11027 0.52666 0.27975 0.0
H303 H 0.10978 0.47574 0.28565 0.0
C304 C 0.17032 0.4653 0.26668 0.0
N305 N 0.15778 0.46309 0.25585 0.0
C306 C 0.18088 0.45272 0.26947 0.0
C307 C 0.16598 0.43595 0.24943 0.0
C308 C 0.15572 0.4489 0.247 0.0
C309 C 0.17865 0.43768 0.26094 0.0
H310 H 0.17218 0.47689 0.27319 0.0
H311 H 0.14605 0.44755 0.23812 0.0
C312 C 0.11959 0.5292 0.2449 0.0
N313 N 0.1184 0.5613 0.23681 0.0
C314 C 0.11314 0.5326 0.2306 0.0
C315 C 0.12529 0.54216 0.25513 0.0
C316 C 0.11267 0.5489 0.22671 0.0
C317 C 0.12464 0.55829 0.25081 0.0
C318 C 0.15876 0.48479 0.22838 0.0
C319 C 0.17508 0.48884 0.23359 0.0
C320 C 0.15528 0.47223 0.21715 0.0
C321 C 0.1877 0.48012 0.22753 0.0
C322 C 0.16826 0.46382 0.21137 0.0
N323 N 0.18406 0.46789 0.21664 0.0
C324 C 0.17096 0.53447 0.25864 0.0
C325 C 0.15781 0.53632 0.2344 0.0
C326 C 0.18147 0.54809 0.25659 0.0
N327 N 0.15929 0.52904 0.2477 0.0
C328 C 0.16795 0.55005 0.23191 0.0
C329 C 0.17995 0.55614 0.24311 0.0
H330 H 0.17219 0.52818 0.26894 0.0
H331 H 0.14871 0.53147 0.22573 0.0
C332 C 0.09205 0.48578 0.21958 0.0
N333 N 0.10843 0.48944 0.21873 0.0
C334 C 0.08144 0.48488 0.2066 0.0
C335 C 0.10474 0.49167 0.19217 0.0
C336 C 0.11491 0.49233 0.20541 0.0
C337 C 0.08771 0.48798 0.19264 0.0
H338 H 0.08725 0.48368 0.23038 0.0
H339 H 0.12793 0.49555 0.20513 0.0
O340 O 0.14883 0.49917 0.26916 0.0
O341 O 0.1191 0.47656 0.25283 0.0
O342 O 0.12034 0.51328 0.24883 0.0
O343 O 0.14622 0.4929 0.23445 0.0
H344 H 0.14731 0.47581 0.28852 0.0
H345 H 0.14885 0.52809 0.28431 0.0
H346 H 0.14571 0.48069 0.31605 0.0
H347 H 0.1472 0.53204 0.31191 0.0
H348 H 0.10588 0.4275 0.22714 0.0
H349 H 0.12648 0.45714 0.27489 0.0
H350 H 0.10876 0.45788 0.22846 0.0
H351 H 0.12321 0.42679 0.27276 0.0
H352 H 0.09363 0.47905 0.30788 0.0
H353 H 0.09426 0.53124 0.30198 0.0
H354 H 0.19077 0.45481 0.27816 0.0
H355 H 0.16378 0.4246 0.24254 0.0
H356 H 0.10856 0.52279 0.22255 0.0
H357 H 0.13049 0.53979 0.26618 0.0
H358 H 0.10776 0.55169 0.21567 0.0
H359 H 0.12917 0.56841 0.25857 0.0
H360 H 0.17793 0.49849 0.24233 0.0
H361 H 0.14268 0.46889 0.2131 0.0
H362 H 0.2004 0.48304 0.2315 0.0
H363 H 0.16576 0.454 0.20274 0.0
H364 H 0.19055 0.55238 0.26551 0.0
H365 H 0.16657 0.55569 0.22125 0.0
H366 H 0.06846 0.48179 0.20751 0.0
H367 H 0.11011 0.49446 0.18175 0.0
Li368 Li 0.7617 0.64399 0.99564 0.0
Li369 Li 0.7747 0.66597 0.01302 0.0
Li370 Li 0.77943 0.66475 0.98508 0.0
Li371 Li 0.79254 0.64554 1.00187 0.0
C372 C 0.74229 0.66939 0.9917 0.0
N373 N 0.70905 0.67159 0.98416 0.0
C374 C 0.73186 0.67527 0.00242 0.0
C375 C 0.73585 0.66489 0.97708 0.0
C376 C 0.71508 0.67623 0.99841 0.0
C377 C 0.719 0.66601 0.9735 0.0
C378 C 0.77386 0.63856 0.03001 0.0
C379 C 0.78763 0.63755 0.05464 0.0
N380 N 0.77324 0.632 0.06001 0.0
C381 C 0.75927 0.63261 0.03573 0.0
C382 C 0.7882 0.64086 0.03949 0.0
C383 C 0.75918 0.62946 0.05094 0.0
C384 C 0.74297 0.61656 0.98166 0.0
N385 N 0.74268 0.62935 0.99208 0.0
C386 C 0.71547 0.62072 0.99802 0.0
C387 C 0.72933 0.63156 1.00027 0.0
C388 C 0.71538 0.60738 0.98733 0.0
C389 C 0.72938 0.6054 0.97907 0.0
H390 H 0.75385 0.61489 0.9755 0.0
H391 H 0.7295 0.64167 0.00864 0.0
C392 C 0.78145 0.69301 0.03466 0.0
N393 N 0.7713 0.67955 0.03064 0.0
C394 C 0.77908 0.70269 0.04772 0.0
C395 C 0.75563 0.6847 0.05206 0.0
C396 C 0.75847 0.67539 0.03895 0.0
C397 C 0.76604 0.69854 0.05666 0.0
H398 H 0.79136 0.69629 0.0277 0.0
H399 H 0.75035 0.66485 0.03535 0.0
C400 C 0.7834 0.63689 0.96757 0.0
N401 N 0.79052 0.63018 0.93802 0.0
C402 C 0.7993 0.63291 0.96413 0.0
C403 C 0.77106 0.63719 0.95599 0.0
C404 C 0.80267 0.62962 0.94912 0.0
C405 C 0.77492 0.63384 0.94112 0.0
C406 C 0.81158 0.67489 0.00697 0.0
C407 C 0.82209 0.68046 0.99633 0.0
C408 C 0.81749 0.67452 0.02198 0.0
C409 C 0.83847 0.68521 1.00083 0.0
C410 C 0.83394 0.67937 0.02604 0.0
N411 N 0.84401 0.68455 0.01547 0.0
C412 C 0.7707 0.68842 0.9644 0.0
C413 C 0.79506 0.6751 0.95912 0.0
C414 C 0.77184 0.69742 0.95162 0.0
N415 N 0.78211 0.67737 0.96781 0.0
C416 C 0.79668 0.68382 0.94623 0.0
C417 C 0.78491 0.69511 0.94226 0.0
H418 H 0.76068 0.69027 0.97161 0.0
H419 H 0.80414 0.66645 0.96214 0.0
C420 C 0.80805 0.61831 0.01274 0.0
N421 N 0.81104 0.63239 0.00574 0.0
C422 C 0.82074 0.60786 0.01582 0.0
C423 C 0.83939 0.62635 0.0041 0.0
C424 C 0.82633 0.63649 1.00131 0.0
C425 C 0.83668 0.61181 0.01148 0.0
H426 H 0.79572 0.6151 0.01584 0.0
H427 H 0.82837 0.64747 0.99538 0.0
O428 O 0.75872 0.66817 0.99547 0.0
O429 O 0.77413 0.64184 0.01515 0.0
O430 O 0.77991 0.64025 0.9822 0.0
O431 O 0.79552 0.67013 0.00273 0.0
H432 H 0.73664 0.67904 0.01373 0.0
H433 H 0.74377 0.66058 0.96859 0.0
H434 H 0.70686 0.68067 0.00662 0.0
H435 H 0.71385 0.66247 0.96224 0.0
H436 H 0.79864 0.63934 0.06211 0.0
H437 H 0.74809 0.63056 0.02853 0.0
H438 H 0.79969 0.645 0.03519 0.0
H439 H 0.74794 0.62498 0.05554 0.0
H440 H 0.70491 0.62284 0.00455 0.0
H441 H 0.73 0.59514 0.97091 0.0
H442 H 0.78724 0.71341 0.05069 0.0
H443 H 0.74549 0.68095 0.05862 0.0
H444 H 0.80898 0.63249 0.97293 0.0
H445 H 0.75862 0.63992 0.95844 0.0
H446 H 0.81496 0.62665 0.94629 0.0
H447 H 0.7655 0.63412 0.93205 0.0
H448 H 0.8177 0.68104 0.98471 0.0
H449 H 0.80944 0.67069 0.03044 0.0
H450 H 0.84676 0.68943 0.99269 0.0
H451 H 0.83868 0.67908 0.03761 0.0
H452 H 0.76265 0.70621 0.94919 0.0
H453 H 0.8069 0.68152 0.93932 0.0
H454 H 0.818 0.59663 0.02126 0.0
H455 H 0.85148 0.6299 1.00058 0.0
Li456 Li 0.90363 0.03494 0.25295 0.0
Li457 Li 0.92367 0.01749 0.26494 0.0
Li458 Li 0.92285 0.0218 0.23697 0.0
Li459 Li 0.90147 0.00414 0.2474 0.0
C460 C 0.93093 0.05447 0.25776 0.0
N461 N 0.93578 0.08784 0.26463 0.0
C462 C 0.9366 0.06034 0.27228 0.0
C463 C 0.92795 0.06556 0.24668 0.0
C464 C 0.93893 0.07726 0.27555 0.0
C465 C 0.93041 0.08239 0.2504 0.0
C466 C 0.89463 0.01205 0.28016 0.0
C467 C 0.88952 0.99042 0.29684 0.0
N468 N 0.88491 0.00171 0.30736 0.0
C469 C 0.8896 0.02339 0.29106 0.0
C470 C 0.89439 0.9954 0.283 0.0
C471 C 0.88483 0.01794 0.30477 0.0
C472 C 0.87914 0.05722 0.2458 0.0
N473 N 0.89098 0.05377 0.2564 0.0
C474 C 0.88378 0.07635 0.27256 0.0
C475 C 0.89345 0.06302 0.26959 0.0
C476 C 0.87131 0.08012 0.26189 0.0
C477 C 0.86914 0.07041 0.24831 0.0
H478 H 0.8773 0.04959 0.23547 0.0
H479 H 0.90276 0.05988 0.27795 0.0
C480 C 0.95037 0.00515 0.28225 0.0
N481 N 0.9372 0.01474 0.28285 0.0
C482 C 0.95981 0.00233 0.29538 0.0
C483 C 0.94244 0.01989 0.30942 0.0
C484 C 0.9333 0.0223 0.29604 0.0
C485 C 0.9558 0.00964 0.30924 0.0
H486 H 0.9535 0.99961 0.27157 0.0
H487 H 0.92308 0.03024 0.29618 0.0
C488 C 0.89552 0.02301 0.21832 0.0
N489 N 0.89023 0.02474 0.18758 0.0
C490 C 0.88953 0.00913 0.20937 0.0
C491 C 0.89859 0.03783 0.21167 0.0
C492 C 0.88699 0.01024 0.19384 0.0
C493 C 0.89591 0.03844 0.1961 0.0
C494 C 0.92993 0.98524 0.24701 0.0
C495 C 0.93612 0.97826 0.23398 0.0
C496 C 0.92833 0.97581 0.25947 0.0
C497 C 0.94028 0.96186 0.23352 0.0
C498 C 0.93263 0.95946 0.25857 0.0
N499 N 0.93844 0.95287 0.24572 0.0
C500 C 0.94797 0.03607 0.22025 0.0
C501 C 0.93254 0.0135 0.20755 0.0
C502 C 0.95738 0.03796 0.2078 0.0
N503 N 0.93577 0.02404 0.21987 0.0
C504 C 0.94151 0.01506 0.19482 0.0
C505 C 0.95412 0.02743 0.19482 0.0
H506 H 0.95042 0.0442 0.23022 0.0
H507 H 0.92301 0.00383 0.20761 0.0
C508 C 0.87154 0.98603 0.24978 0.0
N509 N 0.88645 0.98537 0.24375 0.0
C510 C 0.86012 0.97262 0.24774 0.0
C511 C 0.87949 0.9582 0.23309 0.0
C512 C 0.89048 0.97192 0.23533 0.0
C513 C 0.8641 0.95841 0.23939 0.0
H514 H 0.86856 0.99696 0.25627 0.0
H515 H 0.90213 0.97186 0.2302 0.0
O516 O 0.92838 0.03795 0.2544 0.0
O517 O 0.89939 0.0172 0.26668 0.0
O518 O 0.89825 0.02211 0.23353 0.0
O519 O 0.9257 1.00128 0.2476 0.0
H520 H 0.93911 0.05193 0.28095 0.0
H521 H 0.92374 0.06122 0.23536 0.0
H522 H 0.94322 0.08198 0.28676 0.0
H523 H 0.92805 0.09111 0.24196 0.0
H524 H 0.88933 0.97757 0.29919 0.0
H525 H 0.88949 0.03629 0.28901 0.0
H526 H 0.89772 0.98637 0.27456 0.0
H527 H 0.88105 0.02662 0.31335 0.0
H528 H 0.88574 0.08333 0.28327 0.0
H529 H 0.8598 0.07295 0.23971 0.0
H530 H 0.97022 0.99461 0.29466 0.0
H531 H 0.93888 0.02576 0.31984 0.0
H532 H 0.88699 0.99759 0.21434 0.0
H533 H 0.90304 0.04873 0.21844 0.0
H534 H 0.88246 0.99957 0.18677 0.0
H535 H 0.89835 0.0498 0.19079 0.0
H536 H 0.93765 0.9854 0.2243 0.0
H537 H 0.92404 0.9811 0.26978 0.0
H538 H 0.94499 0.95629 0.22347 0.0
H539 H 0.93142 0.95203 0.26813 0.0
H540 H 0.96694 0.04771 0.20825 0.0
H541 H 0.93876 0.0065 0.18515 0.0
H542 H 0.84842 0.97327 0.25284 0.0
H543 H 0.8829 0.94762 0.22631 0.0
Li544 Li 0.27383 0.16598 0.51261 0.0
Li545 Li 0.26065 0.14404 0.49528 0.0
Li546 Li 0.29151 0.14546 0.50169 0.0
Li547 Li 0.27876 0.16476 0.48475 0.0
C548 C 0.27169 0.13916 0.5297 0.0
N549 N 0.26896 0.13393 0.55979 0.0
C550 C 0.25649 0.13413 0.53486 0.0
C551 C 0.28556 0.14123 0.5398 0.0
C552 C 0.25534 0.13164 0.55012 0.0
C553 C 0.28392 0.1386 0.55498 0.0
C554 C 0.24192 0.17019 0.49024 0.0
C555 C 0.21992 0.16767 0.47072 0.0
N556 N 0.20946 0.17394 0.48063 0.0
C557 C 0.23101 0.17677 0.50018 0.0
C558 C 0.23638 0.16575 0.47535 0.0
C559 C 0.21463 0.17851 0.49512 0.0
C560 C 0.2814 0.19206 0.53512 0.0
N561 N 0.27037 0.17956 0.53021 0.0
C562 C 0.25389 0.18532 0.55097 0.0
C563 C 0.25669 0.17622 0.53773 0.0
C564 C 0.2652 0.19812 0.55649 0.0
C565 C 0.27905 0.20154 0.5483 0.0
H566 H 0.29206 0.19465 0.52883 0.0
H567 H 0.2479 0.16648 0.53341 0.0
C568 C 0.24273 0.11558 0.48261 0.0
N569 N 0.24163 0.12942 0.49165 0.0
C570 C 0.22928 0.10424 0.48014 0.0
C571 C 0.21379 0.12159 0.49631 0.0
C572 C 0.22758 0.13254 0.49854 0.0
C573 C 0.21456 0.10717 0.48705 0.0
H574 H 0.25413 0.11325 0.47746 0.0
H575 H 0.22715 0.14338 0.50602 0.0
C576 C 0.31106 0.17416 0.50626 0.0
N577 N 0.344 0.18243 0.51379 0.0
C578 C 0.32127 0.17975 0.4954 0.0
C579 C 0.31756 0.17302 0.52101 0.0
C580 C 0.3379 0.18382 0.49941 0.0
C581 C 0.33425 0.17718 0.52458 0.0
C582 C 0.28214 0.13604 0.46743 0.0
C583 C 0.29803 0.13216 0.46388 0.0
C584 C 0.26945 0.13524 0.45607 0.0
C585 C 0.30105 0.1279 0.44895 0.0
C586 C 0.27297 0.13094 0.44128 0.0
N587 N 0.28857 0.12741 0.43805 0.0
C588 C 0.30637 0.1181 0.51279 0.0
C589 C 0.32515 0.13569 0.50127 0.0
C590 C 0.31874 0.10731 0.51591 0.0
N591 N 0.30976 0.13202 0.50567 0.0
C592 C 0.33793 0.12527 0.50422 0.0
C593 C 0.33479 0.11082 0.5116 0.0
H594 H 0.29399 0.1153 0.51596 0.0
H595 H 0.32748 0.14652 0.4952 0.0
C596 C 0.27098 0.1892 0.4645 0.0
N597 N 0.28168 0.17735 0.46747 0.0
C598 C 0.27233 0.19825 0.45178 0.0
C599 C 0.29594 0.18305 0.44554 0.0
C600 C 0.29415 0.17432 0.4584 0.0
C601 C 0.28488 0.19516 0.44202 0.0
H602 H 0.26133 0.1916 0.47199 0.0
H603 H 0.30281 0.1652 0.46117 0.0
O604 O 0.273 0.14184 0.51482 0.0
O605 O 0.25796 0.16822 0.49503 0.0
O606 O 0.29476 0.17006 0.50251 0.0
O607 O 0.27897 0.14028 0.482 0.0
H608 H 0.24566 0.13231 0.52718 0.0
H609 H 0.29748 0.14471 0.53595 0.0
H610 H 0.24362 0.12788 0.55428 0.0
H611 H 0.29454 0.14024 0.56292 0.0
H612 H 0.21546 0.16421 0.45925 0.0
H613 H 0.23512 0.18047 0.51168 0.0
H614 H 0.24473 0.16094 0.46746 0.0
H615 H 0.20603 0.1835 0.50272 0.0
H616 H 0.24288 0.18246 0.55675 0.0
H617 H 0.28812 0.21126 0.55216 0.0
H618 H 0.23037 0.09333 0.47285 0.0
H619 H 0.2028 0.12419 0.50207 0.0
H620 H 0.31643 0.18092 0.48398 0.0
H621 H 0.30979 0.16905 0.52963 0.0
H622 H 0.34595 0.18807 0.49109 0.0
H623 H 0.33945 0.17628 0.53594 0.0
H624 H 0.30797 0.1326 0.47253 0.0
H625 H 0.25701 0.1378 0.45865 0.0
H626 H 0.31333 0.12501 0.44603 0.0
H627 H 0.26328 0.13035 0.43237 0.0
H628 H 0.31578 0.09638 0.52172 0.0
H629 H 0.35004 0.12831 0.50046 0.0
H630 H 0.26346 0.20739 0.44949 0.0
H631 H 0.30602 0.18048 0.43853 0.0
Li632 Li 0.42376 0.51734 0.76525 0.0
Li633 Li 0.40385 0.53518 0.75352 0.0
Li634 Li 0.40154 0.50442 0.74748 0.0
Li635 Li 0.42303 0.52216 0.73741 0.0
C636 C 0.39465 0.51231 0.78051 0.0
N637 N 0.38482 0.50263 0.8079 0.0
C638 C 0.39004 0.52396 0.79135 0.0
C639 C 0.39392 0.4957 0.78351 0.0
C640 C 0.38522 0.51884 0.80516 0.0
C641 C 0.38901 0.49106 0.79744 0.0
C642 C 0.4315 0.55442 0.75875 0.0
C643 C 0.4312 0.5826 0.75209 0.0
N644 N 0.43714 0.5876 0.76629 0.0
C645 C 0.43776 0.55982 0.77323 0.0
C646 C 0.42834 0.56588 0.74804 0.0
C647 C 0.44047 0.57665 0.77684 0.0
C648 C 0.45023 0.50441 0.78243 0.0
N649 N 0.43723 0.51422 0.78312 0.0
C650 C 0.44265 0.5192 0.80969 0.0
C651 C 0.43351 0.5218 0.79636 0.0
C652 C 0.45583 0.50873 0.80941 0.0
C653 C 0.45966 0.50139 0.79551 0.0
H654 H 0.45325 0.49887 0.77172 0.0
H655 H 0.42345 0.52994 0.79658 0.0
C656 C 0.37906 0.55738 0.74698 0.0
N657 N 0.39129 0.55404 0.75725 0.0
C658 C 0.36907 0.57053 0.74976 0.0
C659 C 0.38453 0.57664 0.77359 0.0
C660 C 0.39419 0.56338 0.77035 0.0
C661 C 0.37165 0.58029 0.76329 0.0
H662 H 0.37683 0.54964 0.73674 0.0
H663 H 0.40386 0.56038 0.77842 0.0
C664 C 0.42952 0.4852 0.74725 0.0
N665 N 0.43708 0.45254 0.74628 0.0
C666 C 0.4358 0.47794 0.73439 0.0
C667 C 0.42736 0.47591 0.75971 0.0
C668 C 0.43947 0.4614 0.73409 0.0
C669 C 0.43118 0.45941 0.75898 0.0
C670 C 0.39609 0.52408 0.71872 0.0
C671 C 0.39066 0.51037 0.70929 0.0
C672 C 0.399 0.53922 0.71258 0.0
C673 C 0.38852 0.51198 0.6938 0.0
C674 C 0.39673 0.54033 0.69703 0.0
N675 N 0.3916 0.52679 0.68804 0.0
C676 C 0.37184 0.48588 0.75003 0.0
C677 C 0.39026 0.4728 0.73427 0.0
C678 C 0.36049 0.47244 0.74774 0.0
N679 N 0.38649 0.48573 0.74349 0.0
C680 C 0.37927 0.45911 0.73166 0.0
C681 C 0.36416 0.45876 0.73849 0.0
H682 H 0.36899 0.49646 0.75707 0.0
H683 H 0.40174 0.47312 0.72883 0.0
C684 C 0.44774 0.53707 0.72058 0.0
N685 N 0.43603 0.52459 0.72039 0.0
C686 C 0.45728 0.53894 0.70822 0.0
C687 C 0.44261 0.51503 0.69573 0.0
C688 C 0.43338 0.51362 0.70832 0.0
C689 C 0.4548 0.52781 0.69555 0.0
H690 H 0.44977 0.54551 0.73037 0.0
H691 H 0.42409 0.50373 0.70847 0.0
O692 O 0.39945 0.51714 0.76692 0.0
O693 O 0.4286 0.538 0.75506 0.0
O694 O 0.42574 0.50137 0.74768 0.0
O695 O 0.39845 0.52269 0.7339 0.0
H696 H 0.3903 0.53684 0.78919 0.0
H697 H 0.39688 0.48644 0.77512 0.0
H698 H 0.38176 0.52776 0.81369 0.0
H699 H 0.38844 0.47824 0.79991 0.0
H700 H 0.4287 0.59161 0.74394 0.0
H701 H 0.44044 0.55113 0.78161 0.0
H702 H 0.42368 0.56191 0.73675 0.0
H703 H 0.44522 0.58101 0.78803 0.0
H704 H 0.43924 0.52511 0.82015 0.0
H705 H 0.46992 0.4935 0.79472 0.0
H706 H 0.35915 0.57272 0.74159 0.0
H707 H 0.38711 0.58392 0.78408 0.0
H708 H 0.43779 0.48496 0.72471 0.0
H709 H 0.42302 0.48142 0.76991 0.0
H710 H 0.44424 0.4556 0.72416 0.0
H711 H 0.42953 0.45209 0.76855 0.0
H712 H 0.38825 0.49859 0.71385 0.0
H713 H 0.40298 0.54999 0.71972 0.0
H714 H 0.38443 0.50145 0.68635 0.0
H715 H 0.39903 0.55195 0.69211 0.0
H716 H 0.34887 0.47287 0.753 0.0
H717 H 0.38268 0.44883 0.7245 0.0
H718 H 0.4667 0.54882 0.7087 0.0
H719 H 0.44009 0.50628 0.68618 0.0
Li720 Li 0.77364 0.39099 0.50376 0.0
Li721 Li 0.76104 0.37052 0.51929 0.0
Li722 Li 0.75664 0.36828 0.49176 0.0
Li723 Li 0.7439 0.38963 0.50718 0.0
C724 C 0.79412 0.36697 0.50429 0.0
N725 N 0.82814 0.36793 0.50506 0.0
C726 C 0.80327 0.36474 0.51772 0.0
C727 C 0.80226 0.36961 0.49123 0.0
C728 C 0.82047 0.36527 0.51788 0.0
C729 C 0.81947 0.37009 0.49186 0.0
C730 C 0.75748 0.40818 0.5303 0.0
C731 C 0.73949 0.42098 0.54745 0.0
N732 N 0.74625 0.43596 0.54465 0.0
C733 C 0.76428 0.4237 0.52762 0.0
C734 C 0.74503 0.40678 0.54034 0.0
C735 C 0.75843 0.4376 0.53499 0.0
C736 C 0.79344 0.41356 0.48901 0.0
N737 N 0.79253 0.40526 0.50172 0.0
C738 C 0.81915 0.41649 0.51101 0.0
C739 C 0.80488 0.40676 0.51277 0.0
C740 C 0.82062 0.42497 0.49784 0.0
C741 C 0.8074 0.42353 0.48684 0.0
H742 H 0.78331 0.41243 0.48054 0.0
H743 H 0.80373 0.40019 0.52286 0.0
C744 C 0.76767 0.34199 0.53453 0.0
N745 N 0.76452 0.35813 0.53656 0.0
C746 C 0.76998 0.33246 0.54691 0.0
C747 C 0.76605 0.35642 0.56324 0.0
C748 C 0.76379 0.36547 0.55055 0.0
C749 C 0.76916 0.33966 0.56153 0.0
H750 H 0.76838 0.33653 0.52327 0.0
H751 H 0.76143 0.37835 0.55185 0.0
C752 C 0.75033 0.39197 0.47356 0.0
N753 N 0.73982 0.39049 0.44345 0.0
C754 C 0.73393 0.39467 0.46925 0.0
C755 C 0.76141 0.3886 0.46256 0.0
C756 C 0.72886 0.39387 0.45397 0.0
C757 C 0.75585 0.38786 0.4474 0.0
C758 C 0.73373 0.35235 0.51365 0.0
C759 C 0.73496 0.33654 0.50709 0.0
C760 C 0.72674 0.35445 0.52751 0.0
C761 C 0.72926 0.32304 0.51459 0.0
C762 C 0.72123 0.34064 0.53466 0.0
N763 N 0.72259 0.32535 0.52811 0.0
C764 C 0.76698 0.34384 0.4714 0.0
C765 C 0.73986 0.35188 0.46553 0.0
C766 C 0.76606 0.33297 0.45869 0.0
N767 N 0.75409 0.35318 0.47446 0.0
C768 C 0.73847 0.34126 0.45259 0.0
C769 C 0.75172 0.33167 0.449 0.0
H770 H 0.77802 0.34485 0.47881 0.0
H771 H 0.72965 0.35918 0.46839 0.0
C772 C 0.72697 0.41894 0.50649 0.0
N773 N 0.72524 0.40275 0.50917 0.0
C774 C 0.71421 0.42934 0.50916 0.0
C775 C 0.69782 0.40608 0.51661 0.0
C776 C 0.71096 0.39615 0.51392 0.0
C777 C 0.69945 0.42297 0.51445 0.0
H778 H 0.73842 0.42383 0.50258 0.0
H779 H 0.70987 0.38323 0.51588 0.0
O780 O 0.77728 0.36675 0.50395 0.0
O781 O 0.7628 0.39446 0.52296 0.0
O782 O 0.7555 0.39253 0.48847 0.0
O783 O 0.73956 0.3657 0.50664 0.0
H784 H 0.79719 0.36278 0.52795 0.0
H785 H 0.79536 0.37148 0.48076 0.0
H786 H 0.82772 0.36363 0.52821 0.0
H787 H 0.82594 0.37224 0.48186 0.0
H788 H 0.72976 0.42009 0.55514 0.0
H789 H 0.77387 0.42503 0.51985 0.0
H790 H 0.73949 0.39488 0.5424 0.0
H791 H 0.76354 0.44969 0.53299 0.0
H792 H 0.82904 0.41709 0.51975 0.0
H793 H 0.80776 0.43013 0.47668 0.0
H794 H 0.77259 0.31965 0.54506 0.0
H795 H 0.76517 0.36244 0.57428 0.0
H796 H 0.72518 0.39724 0.47761 0.0
H797 H 0.77412 0.38636 0.46571 0.0
H798 H 0.71619 0.39588 0.45047 0.0
H799 H 0.76425 0.38515 0.43877 0.0
H800 H 0.74038 0.33468 0.4964 0.0
H801 H 0.72587 0.3666 0.53283 0.0
H802 H 0.73019 0.31072 0.50968 0.0
H803 H 0.71593 0.34207 0.54546 0.0
H804 H 0.7766 0.32587 0.45631 0.0
H805 H 0.7271 0.34046 0.44553 0.0
H806 H 0.71589 0.44224 0.50713 0.0
H807 H 0.68669 0.40068 0.52075 0.0
Li808 Li 0.6438 0.98025 0.75239 0.0
Li809 Li 0.62444 0.9985 0.76385 0.0
Li810 Li 0.6232 0.99296 0.73561 0.0
Li811 Li 0.64516 0.01082 0.74903 0.0
C812 C 0.61354 0.96136 0.75006 0.0
N813 N 0.60185 0.92892 0.74682 0.0
C814 C 0.60747 0.95364 0.76232 0.0
C815 C 0.61334 0.95266 0.73609 0.0
C816 C 0.60172 0.93721 0.76048 0.0
C817 C 0.60746 0.93625 0.73469 0.0
C818 C 0.65127 1.00135 0.78294 0.0
C819 C 0.65168 0.01901 0.80561 0.0
N820 N 0.65541 0.00609 0.8139 0.0
C821 C 0.65529 0.98829 0.79168 0.0
C822 C 0.64962 0.01688 0.78994 0.0
C823 C 0.65728 0.99091 0.80731 0.0
C824 C 0.67101 0.96039 0.74859 0.0
N825 N 0.65658 0.96152 0.75539 0.0
C826 C 0.66127 0.93684 0.76781 0.0
C827 C 0.65161 0.9501 0.76488 0.0
C828 C 0.67621 0.93531 0.7609 0.0
C829 C 0.681 0.94725 0.75108 0.0
H830 H 0.67492 0.96984 0.74139 0.0
H831 H 0.64038 0.95151 0.77053 0.0
C832 C 0.60149 0.0143 0.78175 0.0
N833 N 0.61164 0.00159 0.78092 0.0
C834 C 0.59209 0.01673 0.7942 0.0
C835 C 0.60364 0.99287 0.80466 0.0
C836 C 0.6128 0.99091 0.79201 0.0
C837 C 0.59308 0.00592 0.80587 0.0
H838 H 0.60059 0.02249 0.77269 0.0
H839 H 0.62089 0.98085 0.79105 0.0
C840 C 0.65206 0.98637 0.72028 0.0
N841 N 0.66145 0.97441 0.69265 0.0
C842 C 0.65918 0.997 0.7105 0.0
C843 C 0.65003 0.9696 0.71611 0.0
C844 C 0.66375 0.99074 0.69654 0.0
C845 C 0.65478 0.9638 0.70208 0.0
C846 C 0.61965 0.03019 0.74514 0.0
C847 C 0.61424 0.03488 0.73093 0.0
C848 C 0.62375 0.04222 0.75673 0.0
C849 C 0.61335 0.05156 0.72846 0.0
C850 C 0.62272 0.05877 0.75382 0.0
N851 N 0.61761 0.06306 0.73986 0.0
C852 C 0.59378 0.98309 0.71789 0.0
C853 C 0.61441 0.99659 0.7048 0.0
C854 C 0.58306 0.98181 0.70496 0.0
N855 N 0.60916 0.99032 0.71756 0.0
C856 C 0.60412 0.9956 0.69164 0.0
C857 C 0.58817 0.98817 0.6916 0.0
H858 H 0.58978 0.97846 0.72825 0.0
H859 H 0.6264 0.00287 0.70496 0.0
C860 C 0.67132 0.03445 0.75779 0.0
N861 N 0.65942 0.02964 0.74685 0.0
C862 C 0.68173 0.04829 0.75627 0.0
C863 C 0.66747 0.05192 0.73221 0.0
C864 C 0.65744 0.03796 0.73416 0.0
C865 C 0.67982 0.05726 0.74336 0.0
H866 H 0.67277 0.02751 0.7677 0.0
H867 H 0.64806 0.03373 0.72551 0.0
O868 O 0.61921 0.97747 0.75169 0.0
O869 O 0.64904 0.99895 0.76762 0.0
O870 O 0.6475 0.99233 0.73399 0.0
O871 O 0.62082 0.01391 0.7477 0.0
H872 H 0.60729 0.96022 0.77316 0.0
H873 H 0.61744 0.95855 0.72637 0.0
H874 H 0.59712 0.93105 0.7699 0.0
H875 H 0.60729 0.92938 0.72395 0.0
H876 H 0.65033 0.03095 0.81117 0.0
H877 H 0.65679 0.97623 0.78647 0.0
H878 H 0.64677 0.02717 0.78337 0.0
H879 H 0.66029 0.98088 0.81421 0.0
H880 H 0.65711 0.9279 0.77543 0.0
H881 H 0.69255 0.94669 0.74572 0.0
H882 H 0.58392 0.0268 0.79454 0.0
H883 H 0.60495 0.98434 0.81344 0.0
H884 H 0.66108 0.00998 0.71359 0.0
H885 H 0.6451 0.9611 0.72371 0.0
H886 H 0.66914 0.99886 0.68882 0.0
H887 H 0.65324 0.95085 0.69871 0.0
H888 H 0.61082 0.02577 0.72187 0.0
H889 H 0.62772 0.03883 0.76784 0.0
H890 H 0.60929 0.05535 0.71749 0.0
H891 H 0.62598 0.0682 0.76267 0.0
H892 H 0.57091 0.9759 0.70543 0.0
H893 H 0.60846 1.00103 0.68173 0.0
H894 H 0.69104 0.05204 0.76517 0.0
H895 H 0.66575 0.05831 0.72198 0.0
Li896 Li 0.03499 0.25364 0.86342 0.0
Li897 Li 0.01708 0.26606 0.88273 0.0
Li898 Li 0.0219 0.23706 0.88178 0.0
Li899 Li 0.00395 0.24787 0.86292 0.0
C900 C 0.04774 0.251 0.89755 0.0
N901 N 0.06518 0.23966 0.92203 0.0
C902 C 0.04334 0.25519 0.91212 0.0
C903 C 0.06105 0.24113 0.89542 0.0
C904 C 0.05231 0.24931 0.92435 0.0
C905 C 0.0697 0.2355 0.90795 0.0
C906 C 0.01662 0.28563 0.8604 0.0
C907 C 0.00263 0.31089 0.86308 0.0
N908 N 0.01696 0.3195 0.86104 0.0
C909 C 0.0312 0.29472 0.85828 0.0
C910 C 0.00219 0.29375 0.86275 0.0
C911 C 0.03112 0.31184 0.85865 0.0
C912 C 0.0501 0.25568 0.83615 0.0
N913 N 0.0531 0.25714 0.85133 0.0
C914 C 0.08157 0.26425 0.84868 0.0
C915 C 0.06842 0.26137 0.85772 0.0
C916 C 0.07889 0.26289 0.83291 0.0
C917 C 0.06286 0.25852 0.82669 0.0
H918 H 0.03774 0.25244 0.8314 0.0
H919 H 0.07042 0.2626 0.86983 0.0
C920 C 1.00092 0.28647 0.90324 0.0
N921 N 0.01483 0.28518 0.89567 0.0
C922 C 0.99882 0.30038 0.91263 0.0
C923 C 0.02559 0.31125 0.90658 0.0
C924 C 0.02716 0.29711 0.89728 0.0
C925 C 0.01123 0.31305 0.91437 0.0
H926 H 0.99148 0.27665 0.90209 0.0
H927 H 0.0382 0.29566 0.89129 0.0
C928 C 0.02486 0.21643 0.85685 0.0
N929 N 0.03109 0.18378 0.85127 0.0
C930 C 0.01329 0.20413 0.86007 0.0
C931 C 0.03958 0.21214 0.85075 0.0
C932 C 0.01669 0.18769 0.8572 0.0
C933 C 0.0425 0.19555 0.84801 0.0
C934 C 0.98461 0.243 0.88445 0.0
C935 C 0.9796 0.22685 0.88704 0.0
C936 C 0.97274 0.25428 0.88109 0.0
C937 C 0.96279 0.22226 0.88622 0.0
C938 C 0.95605 0.24919 0.88034 0.0
N939 N 0.95146 0.23342 0.8829 0.0
C940 C 0.01788 0.22027 0.90797 0.0
C941 C 0.0362 0.2074 0.89197 0.0
C942 C 0.02021 0.20847 0.9185 0.0
N943 N 0.02565 0.21944 0.8949 0.0
C944 C 0.03868 0.19518 0.90208 0.0
C945 C 0.03062 0.19565 0.91554 0.0
H946 H 0.00995 0.23023 0.91028 0.0
H947 H 0.04295 0.20739 0.88194 0.0
C948 C 0.98074 0.2564 0.8402 0.0
N949 N 0.98487 0.24416 0.84918 0.0
C950 C 0.9668 0.25446 0.83018 0.0
C951 C 0.96163 0.22728 0.83874 0.0
C952 C 0.97575 0.22969 0.84847 0.0
C953 C 0.95698 0.23977 0.82944 0.0
H954 H 0.98827 0.26771 0.84081 0.0
H955 H 0.97933 0.22005 0.85555 0.0
O956 O 0.0388 0.2562 0.88543 0.0
O957 O 0.01653 0.26888 0.8604 0.0
O958 O 0.02179 0.23261 0.85951 0.0
O959 O 1.00103 0.24771 0.88506 0.0
H960 H 0.03299 0.26273 0.91393 0.0
H961 H 0.06447 0.23761 0.88419 0.0
H962 H 0.04899 0.25237 0.93569 0.0
H963 H 0.07995 0.22775 0.90647 0.0
H964 H 0.99158 0.31734 0.86499 0.0
H965 H 0.04249 0.28865 0.8565 0.0
H966 H 0.99081 0.28691 0.86447 0.0
H967 H 0.04233 0.31904 0.85709 0.0
H968 H 0.09372 0.2674 0.85401 0.0
H969 H 0.06011 0.25759 0.81463 0.0
H970 H 0.98771 0.30107 0.91866 0.0
H971 H 0.03544 0.32074 0.90752 0.0
H972 H 0.00199 0.20722 0.86505 0.0
H973 H 0.04867 0.22151 0.8482 0.0
H974 H 0.0079 0.17804 0.85974 0.0
H975 H 0.05384 0.19205 0.84331 0.0
H976 H 0.98857 0.21787 0.88944 0.0
H977 H 0.97637 0.26677 0.87887 0.0
H978 H 0.95875 0.20978 0.88813 0.0
H979 H 0.94676 0.25777 0.87766 0.0
H980 H 0.01381 0.20929 0.92879 0.0
H981 H 0.0471 0.18569 0.89956 0.0
H982 H 0.9636 0.26443 0.82326 0.0
H983 H 0.95453 0.21568 0.83836 0.0
Li984 Li 0.5348 0.75447 0.36385 0.0
Li985 Li 0.51688 0.76672 0.38215 0.0
Li986 Li 0.52178 0.73659 0.38184 0.0
Li987 Li 0.50399 0.74825 0.36227 0.0
C988 C 0.5539 0.75486 0.39152 0.0
N989 N 0.58627 0.75292 0.40234 0.0
C990 C 0.56249 0.76862 0.3988 0.0
C991 C 0.5617 0.74006 0.38997 0.0
C992 C 0.57886 0.76741 0.40412 0.0
C993 C 0.57809 0.73933 0.39546 0.0
C994 C 0.51518 0.78593 0.35949 0.0
C995 C 0.49902 0.80985 0.36138 0.0
N996 N 0.51261 0.8195 0.35906 0.0
C997 C 0.52896 0.79607 0.35701 0.0
C998 C 0.50005 0.79285 0.36158 0.0
C999 C 0.52742 0.81302 0.35686 0.0
C1000 C 0.5526 0.75095 0.33792 0.0
N1001 N 0.55337 0.75811 0.3521 0.0
C1002 C 0.57959 0.77129 0.34844 0.0
C1003 C 0.56649 0.76816 0.35746 0.0
C1004 C 0.57914 0.76408 0.33371 0.0
C1005 C 0.56543 0.75371 0.32851 0.0
H1006 H 0.54187 0.74326 0.33382 0.0
H1007 H 0.56666 0.77406 0.36861 0.0
C1008 C 0.50056 0.78637 0.40311 0.0
N1009 N 0.5141 0.78582 0.39495 0.0
C1010 C 0.49807 0.80021 0.41247 0.0
C1011 C 0.52361 0.81264 0.40498 0.0
C1012 C 0.52559 0.79855 0.39576 0.0
C1013 C 0.50969 0.81361 0.4135 0.0
H1014 H 0.49173 0.77601 0.40246 0.0
H1015 H 0.53626 0.7978 0.38917 0.0
C1016 C 0.52696 0.71807 0.35444 0.0
N1017 N 0.53682 0.68788 0.34381 0.0
C1018 C 0.51526 0.706 0.34835 0.0
C1019 C 0.54369 0.71488 0.35485 0.0
C1020 C 0.52049 0.69078 0.34312 0.0
C1021 C 0.54842 0.69952 0.34949 0.0
C1022 C 0.4847 0.743 0.38481 0.0
C1023 C 0.48035 0.72714 0.38879 0.0
C1024 C 0.47236 0.75371 0.38128 0.0
C1025 C 0.46369 0.7222 0.38899 0.0
C1026 C 0.45584 0.7483 0.38158 0.0
N1027 N 0.45188 0.73278 0.38539 0.0
C1028 C 0.53091 0.72252 0.40885 0.0
C1029 C 0.5204 0.70288 0.38964 0.0
C1030 C 0.53307 0.71023 0.41893 0.0
N1031 N 0.52477 0.71867 0.39449 0.0
C1032 C 0.52235 0.69018 0.39934 0.0
C1033 C 0.52874 0.69378 0.41424 0.0
H1034 H 0.53409 0.7352 0.41249 0.0
H1035 H 0.51507 0.70012 0.37836 0.0
C1036 C 0.48157 0.75564 0.33856 0.0
N1037 N 0.48499 0.74417 0.34859 0.0
C1038 C 0.46763 0.7535 0.32857 0.0
C1039 C 0.46104 0.72766 0.33925 0.0
C1040 C 0.47517 0.73026 0.34898 0.0
C1041 C 0.45709 0.73939 0.32889 0.0
H1042 H 0.48965 0.76651 0.33836 0.0
H1043 H 0.47824 0.72122 0.35692 0.0
O1044 O 0.53785 0.75587 0.38623 0.0
O1045 O 0.51652 0.76934 0.35993 0.0
O1046 O 0.52203 0.73307 0.35953 0.0
O1047 O 0.50096 0.748 0.38441 0.0
H1048 H 0.5566 0.78013 0.40025 0.0
H1049 H 0.55514 0.72918 0.38477 0.0
H1050 H 0.58568 0.778 0.40968 0.0
H1051 H 0.58427 0.72795 0.39431 0.0
H1052 H 0.48742 0.81538 0.36309 0.0
H1053 H 0.54074 0.79093 0.35532 0.0
H1054 H 0.48926 0.78518 0.36345 0.0
H1055 H 0.538 0.82102 0.35504 0.0
H1056 H 0.58994 0.77929 0.35295 0.0
H1057 H 0.5644 0.74812 0.31717 0.0
H1058 H 0.48731 0.8003 0.41902 0.0
H1059 H 0.53279 0.82273 0.40531 0.0
H1060 H 0.50229 0.7083 0.34776 0.0
H1061 H 0.55296 0.7242 0.35907 0.0
H1062 H 0.51155 0.68129 0.33849 0.0
H1063 H 0.56133 0.69688 0.34979 0.0
H1064 H 0.48973 0.71871 0.39163 0.0
H1065 H 0.47549 0.76603 0.3782 0.0
H1066 H 0.46015 0.70994 0.39199 0.0
H1067 H 0.44616 0.75642 0.37877 0.0
H1068 H 0.53818 0.71359 0.43025 0.0
H1069 H 0.51854 0.67773 0.39531 0.0
H1070 H 0.465 0.76291 0.32084 0.0
H1071 H 0.45339 0.7165 0.33974 0.0
Li1072 Li 0.01839 0.77548 0.61676 0.0
Li1073 Li 1.00165 0.76123 0.6356 0.0
Li1074 Li 0.03099 0.75826 0.63527 0.0
Li1075 Li 0.01285 0.74462 0.61597 0.0
C1076 C 0.0281 0.78591 0.65125 0.0
N1077 N 0.04682 0.79873 0.67647 0.0
C1078 C 0.02437 0.78119 0.66551 0.0
C1079 C 0.04128 0.7972 0.6498 0.0
C1080 C 0.034 0.7878 0.67812 0.0
C1081 C 0.05061 0.80354 0.6627 0.0
C1082 C 0.98104 0.76692 0.6127 0.0
C1083 C 0.95192 0.76089 0.61438 0.0
N1084 N 0.94906 0.77688 0.61223 0.0
C1085 C 0.97781 0.78327 0.61044 0.0
C1086 C 0.968 0.75561 0.6146 0.0
C1087 C 0.96155 0.78807 0.61026 0.0
C1088 C 0.02179 0.79033 0.58966 0.0
N1089 N 0.02096 0.79372 0.60468 0.0
C1090 C 0.02464 0.82252 0.60158 0.0
C1091 C 0.02217 0.80942 0.61075 0.0
C1092 C 0.02589 0.81938 0.58603 0.0
C1093 C 0.02428 0.80302 0.58009 0.0
H1094 H 0.02069 0.77771 0.58516 0.0
H1095 H 0.02133 0.81175 0.62273 0.0
C1096 C 0.97973 0.75119 0.65705 0.0
N1097 N 0.98392 0.76381 0.64852 0.0
C1098 C 0.9673 0.75272 0.66706 0.0
C1099 C 0.96379 0.78033 0.65951 0.0
C1100 C 0.97635 0.77826 0.64966 0.0
C1101 C 0.95917 0.76746 0.66845 0.0
H1102 H 0.98622 0.73999 0.65628 0.0
H1103 H 0.98021 0.78827 0.64305 0.0
C1104 C 0.05014 0.75689 0.61157 0.0
N1105 N 0.0836 0.7555 0.60822 0.0
C1106 C 0.05836 0.74291 0.61531 0.0
C1107 C 0.05895 0.77015 0.6061 0.0
C1108 C 0.07528 0.74245 0.61356 0.0
C1109 C 0.07585 0.76921 0.60448 0.0
C1110 C 0.0112 0.72436 0.63685 0.0
C1111 C 0.0245 0.71432 0.63884 0.0
C1112 C 0.99536 0.71718 0.6334 0.0
C1113 C 0.02172 0.69728 0.63734 0.0
C1114 C 0.9931 0.70009 0.63196 0.0
N1115 N 0.00621 0.69057 0.63395 0.0
C1116 C 0.04886 0.74705 0.66035 0.0
C1117 C 0.06484 0.76519 0.64663 0.0
C1118 C 0.06241 0.74487 0.67027 0.0
N1119 N 0.05038 0.75673 0.64857 0.0
C1120 C 0.07876 0.76327 0.65621 0.0
C1121 C 0.07769 0.75284 0.66812 0.0
H1122 H 0.0371 0.74092 0.66201 0.0
H1123 H 0.06562 0.77343 0.63765 0.0
C1124 C 0.99468 0.7245 0.59303 0.0
N1125 N 0.00886 0.72587 0.60201 0.0
C1126 C 0.99153 0.71105 0.58266 0.0
C1127 C 0.01761 0.70065 0.59097 0.0
C1128 C 0.0203 0.71435 0.60107 0.0
C1129 C 0.00309 0.69887 0.58151 0.0
H1130 H 0.98587 0.73394 0.59382 0.0
H1131 H 0.03149 0.71567 0.60824 0.0
O1132 O 0.0191 0.77921 0.63876 0.0
O1133 O 0.9969 0.76205 0.61316 0.0
O1134 O 0.03357 0.75759 0.61314 0.0
O1135 O 0.01368 0.7411 0.63803 0.0
H1136 H 0.01426 0.77237 0.66679 0.0
H1137 H 0.04443 0.80082 0.63882 0.0
H1138 H 0.03132 0.7842 0.68923 0.0
H1139 H 0.06092 0.8122 0.66175 0.0
H1140 H 0.94173 0.75229 0.61592 0.0
H1141 H 0.98773 0.79221 0.60897 0.0
H1142 H 0.97027 0.74291 0.61634 0.0
H1143 H 0.95888 0.8007 0.60859 0.0
H1144 H 0.02591 0.83492 0.60665 0.0
H1145 H 0.0249 0.80004 0.56816 0.0
H1146 H 0.9641 0.74244 0.67363 0.0
H1147 H 0.95805 0.792 0.66039 0.0
H1148 H 0.05187 0.7327 0.6199 0.0
H1149 H 0.05284 0.7811 0.60321 0.0
H1150 H 0.08181 0.73177 0.61654 0.0
H1151 H 0.08282 0.77939 0.60029 0.0
H1152 H 0.03689 0.71959 0.64125 0.0
H1153 H 0.98495 0.72473 0.6317 0.0
H1154 H 0.03191 0.68937 0.63877 0.0
H1155 H 0.98092 0.69439 0.62923 0.0
H1156 H 0.06102 0.73675 0.67932 0.0
H1157 H 0.09021 0.76996 0.65438 0.0
H1158 H 0.98028 0.71036 0.57545 0.0
H1159 H 0.02678 0.69149 0.5907 0.0
Li1160 Li 0.51795 0.27501 0.11638 0.0
Li1161 Li 0.50071 0.26211 0.13494 0.0
Li1162 Li 0.53079 0.25922 0.13517 0.0
Li1163 Li 0.51224 0.24496 0.11485 0.0
C1164 C 0.52725 0.28673 0.15093 0.0
N1165 N 0.5453 0.29974 0.17648 0.0
C1166 C 0.52062 0.28618 0.16499 0.0
C1167 C 0.543 0.29403 0.14985 0.0
C1168 C 0.52996 0.2928 0.17777 0.0
C1169 C 0.55195 0.30048 0.1629 0.0
C1170 C 0.48013 0.26318 0.10907 0.0
C1171 C 0.45259 0.25061 0.10656 0.0
N1172 N 0.44673 0.26505 0.10228 0.0
C1173 C 0.47387 0.27787 0.10456 0.0
C1174 C 0.46945 0.2494 0.10999 0.0
C1175 C 0.45693 0.27858 0.10121 0.0
C1176 C 0.51617 0.29108 0.08922 0.0
N1177 N 0.52031 0.29334 0.10421 0.0
C1178 C 0.52894 0.32133 0.10145 0.0
C1179 C 0.52642 0.30813 0.11047 0.0
C1180 C 0.52517 0.31929 0.08583 0.0
C1181 C 0.51859 0.3039 0.07977 0.0
H1182 H 0.51126 0.27919 0.08457 0.0
H1183 H 0.52944 0.30964 0.12245 0.0
C1184 C 0.48235 0.25425 0.15934 0.0
N1185 N 0.48258 0.26392 0.14746 0.0
C1186 C 0.46971 0.25508 0.16919 0.0
C1187 C 0.45774 0.27594 0.15451 0.0
C1188 C 0.47072 0.2748 0.145 0.0
C1189 C 0.45709 0.26599 0.16683 0.0
H1190 H 0.49217 0.24605 0.16132 0.0
H1191 H 0.47138 0.28268 0.13573 0.0
C1192 C 0.54209 0.26283 0.10177 0.0
N1193 N 0.55803 0.27507 0.07803 0.0
C1194 C 0.5384 0.25599 0.08715 0.0
C1195 C 0.55399 0.27578 0.10434 0.0
C1196 C 0.54659 0.26237 0.07529 0.0
C1197 C 0.56187 0.28184 0.09218 0.0
C1198 C 0.51061 0.22615 0.13991 0.0
C1199 C 0.52402 0.21714 0.14444 0.0
C1200 C 0.49477 0.21859 0.13847 0.0
C1201 C 0.52136 0.20062 0.14728 0.0
C1202 C 0.49262 0.20204 0.1414 0.0
N1203 N 0.50585 0.19347 0.1457 0.0
C1204 C 0.54776 0.254 0.16288 0.0
C1205 C 0.5649 0.25624 0.14249 0.0
C1206 C 0.56134 0.25134 0.17262 0.0
N1207 N 0.54979 0.25642 0.14815 0.0
C1208 C 0.57881 0.25353 0.15181 0.0
C1209 C 0.57712 0.25098 0.16709 0.0
H1210 H 0.53554 0.25391 0.167 0.0
H1211 H 0.56614 0.258 0.1307 0.0
C1212 C 0.4981 0.22682 0.08897 0.0
N1213 N 0.5084 0.22589 0.10145 0.0
C1214 C 0.49535 0.21333 0.0786 0.0
C1215 C 0.51377 0.19813 0.09416 0.0
C1216 C 0.5164 0.21201 0.10408 0.0
C1217 C 0.50317 0.19873 0.08121 0.0
H1218 H 0.4922 0.23813 0.08695 0.0
H1219 H 0.525 0.21176 0.11375 0.0
O1220 O 0.51843 0.28002 0.13833 0.0
O1221 O 0.49666 0.26228 0.11243 0.0
O1222 O 0.53394 0.257 0.11348 0.0
O1223 O 0.51298 0.24234 0.13711 0.0
H1224 H 0.50845 0.28061 0.16603 0.0
H1225 H 0.54834 0.29449 0.13908 0.0
H1226 H 0.52501 0.2924 0.18873 0.0
H1227 H 0.5642 0.30604 0.16225 0.0
H1228 H 0.44417 0.24006 0.10726 0.0
H1229 H 0.48201 0.28863 0.10375 0.0
H1230 H 0.47415 0.2379 0.11328 0.0
H1231 H 0.45189 0.28988 0.09776 0.0
H1232 H 0.53373 0.33302 0.1067 0.0
H1233 H 0.51567 0.30165 0.0678 0.0
H1234 H 0.47002 0.24747 0.17872 0.0
H1235 H 0.44828 0.28447 0.15216 0.0
H1236 H 0.52924 0.24596 0.08496 0.0
H1237 H 0.55694 0.28125 0.11557 0.0
H1238 H 0.5438 0.25726 0.06391 0.0
H1239 H 0.57099 0.29196 0.09398 0.0
H1240 H 0.53637 0.22281 0.14561 0.0
H1241 H 0.48424 0.22544 0.13517 0.0
H1242 H 0.53163 0.19347 0.15072 0.0
H1243 H 0.48043 0.19601 0.1403 0.0
H1244 H 0.55944 0.24919 0.18426 0.0
H1245 H 0.59076 0.25348 0.1471 0.0
H1246 H 0.48711 0.21425 0.06871 0.0
H1247 H 0.52023 0.18717 0.0964 0.0
H1248 H 0.24251 0.76048 0.81721 0.0
H1249 H 0.24304 0.77718 0.84087 0.0
H1250 H 0.25852 0.73594 0.8652 0.0
H1251 H 0.2577 0.71896 0.84156 0.0
H1252 H 0.22427 0.76952 0.86651 0.0
H1253 H 0.29204 0.77478 0.88024 0.0
H1254 H 0.28316 0.7692 0.86147 0.0
H1255 H 0.28299 0.75444 0.87559 0.0
C1256 C 0.24596 0.7549 0.82758 0.0
C1257 C 0.24998 0.73833 0.82748 0.0
C1258 C 0.24634 0.7645 0.84108 0.0
C1259 C 0.25092 0.75782 0.85475 0.0
C1260 C 0.25518 0.74138 0.85473 0.0
H1261 H 0.26044 0.80211 0.94645 0.0
H1262 H 0.26002 0.78314 0.92417 0.0
C1263 C 0.25474 0.73172 0.84121 0.0
C1264 C 0.2506 0.76798 0.86902 0.0
H1265 H 0.27522 0.78672 0.89804 0.0
C1266 C 0.23539 0.77329 0.87343 0.0
C1267 C 0.26513 0.77274 0.87804 0.0
C1268 C 0.28181 0.76763 0.87362 0.0
C1269 C 0.23429 0.78324 0.88665 0.0
C1270 C 0.24887 0.78836 0.89551 0.0
C1271 C 0.26407 0.78283 0.89122 0.0
C1272 C 0.24866 0.79972 0.9091 0.0
C1273 C 0.21749 0.78796 0.89111 0.0
C1274 C 0.24251 0.8154 0.90803 0.0
C1275 C 0.24254 0.82619 0.92077 0.0
C1276 C 0.24889 0.82162 0.93486 0.0
C1277 C 0.25517 0.80593 0.93586 0.0
C1278 C 0.25507 0.79512 0.92311 0.0
H1279 H 0.20759 0.77921 0.8859 0.0
H1280 H 0.21677 0.78841 0.90352 0.0
H1281 H 0.21507 0.8003 0.88719 0.0
H1282 H 0.23783 0.81937 0.89728 0.0
H1283 H 0.23751 0.83811 0.91958 0.0
H1284 H 0.00441 0.49357 0.42058 0.0
H1285 H 0.02096 0.49165 0.39857 0.0
H1286 H 0.02992 0.54425 0.40187 0.0
H1287 H 0.01355 0.54624 0.42395 0.0
H1288 H 0.01595 0.50622 0.37114 0.0
H1289 H 0.07642 0.52699 0.40007 0.0
H1290 H 0.05887 0.52062 0.41016 0.0
H1291 H 0.06013 0.54069 0.40293 0.0
C1292 C 0.00998 0.5047 0.41663 0.0
C1293 C 0.00777 0.52001 0.42401 0.0
C1294 C 0.01939 0.5036 0.40407 0.0
C1295 C 0.02684 0.51778 0.39871 0.0
C1296 C 0.02454 0.53312 0.40599 0.0
H1297 H 0.06674 0.52514 0.31073 0.0
H1298 H 0.05082 0.5286 0.333 0.0
C1299 C 0.01511 0.53424 0.41857 0.0
C1300 C 0.03672 0.51648 0.38532 0.0
H1301 H 0.07543 0.52337 0.37347 0.0
C1302 C 0.02895 0.50997 0.37163 0.0
C1303 C 0.05372 0.52123 0.38606 0.0
C1304 C 0.06286 0.52764 0.40061 0.0
C1305 C 0.0377 0.50819 0.35861 0.0
C1306 C 0.05461 0.51326 0.35927 0.0
C1307 C 0.06242 0.51964 0.37298 0.0
C1308 C 0.06452 0.5116 0.34593 0.0
C1309 C 0.02886 0.50059 0.34433 0.0
C1310 C 0.07775 0.50122 0.34598 0.0
C1311 C 0.08693 0.49931 0.33332 0.0
C1312 C 0.08313 0.50783 0.32041 0.0
C1313 C 0.07005 0.51847 0.32052 0.0
C1314 C 0.06084 0.52034 0.33317 0.0
H1315 H 0.01709 0.49396 0.34654 0.0
H1316 H 0.02597 0.51041 0.33665 0.0
H1317 H 0.03674 0.49188 0.33847 0.0
H1318 H 0.08086 0.49446 0.35576 0.0
H1319 H 0.0971 0.49123 0.33369 0.0
H1320 H 0.76926 0.77199 0.8203 0.0
H1321 H 0.76754 0.75674 0.84301 0.0
H1322 H 0.82035 0.76239 0.85111 0.0
H1323 H 0.82215 0.77809 0.8287 0.0
H1324 H 0.78221 0.72763 0.85009 0.0
H1325 H 0.80364 0.77894 0.89131 0.0
H1326 H 0.79715 0.78215 0.87204 0.0
H1327 H 0.81732 0.77509 0.87662 0.0
C1328 C 0.7805 0.77016 0.82701 0.0
C1329 C 0.79584 0.77637 0.82272 0.0
C1330 C 0.7795 0.76134 0.83993 0.0
C1331 C 0.79379 0.75864 0.84888 0.0
C1332 C 0.80914 0.76459 0.84453 0.0
H1333 H 0.81278 0.70877 0.93116 0.0
H1334 H 0.81488 0.7236 0.90825 0.0
C1335 C 0.81016 0.7734 0.83161 0.0
C1336 C 0.79263 0.74938 0.86264 0.0
H1337 H 0.80048 0.75253 0.90079 0.0
C1338 C 0.78614 0.73308 0.86118 0.0
C1339 C 0.79779 0.75652 0.8771 0.0
C1340 C 0.80423 0.77418 0.87944 0.0
C1341 C 0.78493 0.72363 0.87377 0.0
C1342 C 0.79006 0.73078 0.88824 0.0
C1343 C 0.79657 0.74707 0.88969 0.0
C1344 C 0.78871 0.7216 0.90203 0.0
C1345 C 0.77849 0.70597 0.87142 0.0
C1346 C 0.77328 0.7157 0.90623 0.0
C1347 C 0.77205 0.70713 0.91927 0.0
C1348 C 0.78622 0.70435 0.92844 0.0
C1349 C 0.80165 0.71045 0.92426 0.0
C1350 C 0.80286 0.71903 0.91122 0.0
H1351 H 0.77928 0.70117 0.85959 0.0
H1352 H 0.78543 0.69802 0.87896 0.0
H1353 H 0.76534 0.7051 0.87405 0.0
H1354 H 0.76216 0.71781 0.89947 0.0
H1355 H 0.75999 0.7025 0.92206 0.0
H1356 H 0.0377 0.95968 0.4255 0.0
H1357 H 0.02137 0.96372 0.40212 0.0
H1358 H 0.02151 0.01563 0.41413 0.0
H1359 H 0.03783 0.0117 0.43746 0.0
H1360 H 0.99068 0.97679 0.39694 0.0
H1361 H 0.03964 0.0145 0.37251 0.0
H1362 H 0.04362 0.00275 0.38874 0.0
H1363 H 0.03447 0.02229 0.39075 0.0
C1364 C 0.03411 0.97192 0.42322 0.0
C1365 C 0.03919 0.9854 0.43326 0.0
C1366 C 0.02485 0.97422 0.40983 0.0
C1367 C 0.02053 0.99002 0.40624 0.0
C1368 C 0.02509 0.0034 0.41648 0.0
H1369 H 0.96615 0.03178 0.33256 0.0
H1370 H 0.98147 0.02648 0.35611 0.0
C1371 C 0.03438 1.00113 0.42982 0.0
C1372 C 0.01128 0.99256 0.39177 0.0
H1373 H 0.01311 0.01317 0.35964 0.0
C1374 C 0.99561 0.98466 0.38874 0.0
C1375 C 0.01776 0.00281 0.38107 0.0
C1376 C 0.03486 0.01096 0.38333 0.0
C1377 C 0.98609 0.98706 0.37544 0.0
C1378 C 0.99251 0.99746 0.36484 0.0
C1379 C 0.00821 0.00526 0.36782 0.0
C1380 C 0.9831 1.0005 0.3506 0.0
C1381 C 0.96908 0.97877 0.373 0.0
C1382 C 0.97912 0.98768 0.33963 0.0
C1383 C 0.97035 0.99065 0.32617 0.0
C1384 C 0.96541 0.00653 0.32342 0.0
C1385 C 0.96957 0.01938 0.3344 0.0
C1386 C 0.97839 0.01639 0.34783 0.0
H1387 H 0.96453 0.97431 0.3836 0.0
H1388 H 0.96015 0.98728 0.36829 0.0
H1389 H 0.96944 0.96804 0.36483 0.0
H1390 H 0.98287 0.97537 0.34145 0.0
H1391 H 0.96724 0.98047 0.318 0.0
H1392 H 0.23817 0.26047 0.68891 0.0
H1393 H 0.24184 0.24388 0.66568 0.0
H1394 H 0.25129 0.28796 0.64263 0.0
H1395 H 0.24733 0.30464 0.66563 0.0
H1396 H 0.22469 0.24517 0.63612 0.0
H1397 H 0.29202 0.26011 0.63588 0.0
H1398 H 0.28066 0.26328 0.65248 0.0
H1399 H 0.27945 0.27749 0.63789 0.0
C1400 C 0.24084 0.26665 0.67886 0.0
C1401 C 0.2426 0.2839 0.67919 0.0
C1402 C 0.24302 0.25715 0.66563 0.0
C1403 C 0.2471 0.2647 0.65253 0.0
C1404 C 0.24848 0.28189 0.65271 0.0
H1405 H 0.26966 0.2314 0.56242 0.0
H1406 H 0.26492 0.24727 0.58575 0.0
C1407 C 0.24625 0.29139 0.66589 0.0
C1408 C 0.2499 0.25466 0.63864 0.0
H1409 H 0.27929 0.24538 0.61426 0.0
C1410 C 0.23663 0.24512 0.63136 0.0
C1411 C 0.26549 0.2547 0.63246 0.0
C1412 C 0.28029 0.26433 0.64011 0.0
C1413 C 0.23844 0.23587 0.61784 0.0
C1414 C 0.25405 0.2359 0.61164 0.0
C1415 C 0.26734 0.24539 0.619 0.0
C1416 C 0.25689 0.22619 0.59753 0.0
C1417 C 0.22352 0.22653 0.6101 0.0
C1418 C 0.2542 0.20905 0.59648 0.0
C1419 C 0.2569 0.19996 0.58317 0.0
C1420 C 0.26251 0.20781 0.57068 0.0
C1421 C 0.26546 0.22496 0.57186 0.0
C1422 C 0.26269 0.23405 0.58516 0.0
H1423 H 0.21186 0.23135 0.61395 0.0
H1424 H 0.22347 0.22713 0.5977 0.0
H1425 H 0.22376 0.21345 0.61278 0.0
H1426 H 0.25015 0.20266 0.60601 0.0
H1427 H 0.25481 0.18674 0.58274 0.0
H1428 H 0.53758 0.51289 0.57748 0.0
H1429 H 0.52206 0.51135 0.60003 0.0
H1430 H 0.52242 0.56419 0.60457 0.0
H1431 H 0.53809 0.56588 0.58213 0.0
H1432 H 0.53063 0.52477 0.62953 0.0
H1433 H 0.47331 0.55016 0.60559 0.0
H1434 H 0.48921 0.54293 0.594 0.0
H1435 H 0.49178 0.56273 0.60398 0.0
C1436 C 0.53447 0.5242 0.58333 0.0
C1437 C 0.53903 0.53952 0.57794 0.0
C1438 C 0.52553 0.52329 0.59618 0.0
C1439 C 0.52087 0.53764 0.60385 0.0
C1440 C 0.52557 0.55295 0.59864 0.0
H1441 H 0.4649 0.55598 0.68267 0.0
H1442 H 0.48157 0.55848 0.66092 0.0
C1443 C 0.53452 0.55389 0.5858 0.0
C1444 C 0.51129 0.53657 0.61742 0.0
H1445 H 0.47456 0.54571 0.6316 0.0
C1446 C 0.51835 0.5293 0.62998 0.0
C1447 C 0.4953 0.54254 0.61799 0.0
C1448 C 0.48685 0.54991 0.60464 0.0
C1449 C 0.50994 0.52804 0.64318 0.0
C1450 C 0.49389 0.5339 0.64372 0.0
C1451 C 0.48687 0.54124 0.63118 0.0
C1452 C 0.48408 0.53235 0.65711 0.0
C1453 C 0.51844 0.52072 0.65653 0.0
C1454 C 0.47982 0.51683 0.66212 0.0
C1455 C 0.47041 0.51536 0.67461 0.0
C1456 C 0.46492 0.5294 0.6823 0.0
C1457 C 0.46911 0.54494 0.67717 0.0
C1458 C 0.47854 0.54638 0.66468 0.0
H1459 H 0.53204 0.5211 0.65582 0.0
H1460 H 0.51559 0.52728 0.66723 0.0
H1461 H 0.51407 0.50767 0.65684 0.0
H1462 H 0.48368 0.50581 0.65629 0.0
H1463 H 0.46755 0.50322 0.67831 0.0
H1464 H 0.77957 0.23643 0.66657 0.0
H1465 H 0.77406 0.25146 0.644 0.0
H1466 H 0.80257 0.29363 0.6647 0.0
H1467 H 0.80796 0.27872 0.68739 0.0
H1468 H 0.77201 0.30114 0.65122 0.0
H1469 H 0.80667 0.26236 0.61227 0.0
H1470 H 0.79154 0.25137 0.62219 0.0
H1471 H 0.80919 0.26159 0.63245 0.0
C1472 C 0.7847 0.24889 0.6663 0.0
C1473 C 0.79424 0.25643 0.67872 0.0
C1474 C 0.78162 0.25742 0.65336 0.0
C1475 C 0.78811 0.27357 0.6526 0.0
C1476 C 0.79752 0.28115 0.66504 0.0
H1477 H 0.78654 0.34878 0.5882 0.0
H1478 H 0.79045 0.33264 0.61024 0.0
C1479 C 0.8006 0.27263 0.67797 0.0
C1480 C 0.78481 0.28277 0.63898 0.0
H1481 H 0.79124 0.28306 0.60153 0.0
C1482 C 0.77623 0.29722 0.64036 0.0
C1483 C 0.79029 0.27757 0.62482 0.0
C1484 C 0.80006 0.26245 0.62279 0.0
C1485 C 0.77288 0.30656 0.62792 0.0
C1486 C 0.77852 0.30147 0.6138 0.0
C1487 C 0.78694 0.28693 0.61238 0.0
C1488 C 0.77608 0.31124 0.60043 0.0
C1489 C 0.76311 0.32167 0.62997 0.0
C1490 C 0.76704 0.30443 0.58747 0.0
C1491 C 0.76479 0.31363 0.57483 0.0
C1492 C 0.77162 0.3298 0.57491 0.0
C1493 C 0.78084 0.33649 0.58787 0.0
C1494 C 0.78309 0.32729 0.60048 0.0
H1495 H 0.75599 0.3214 0.64019 0.0
H1496 H 0.77171 0.33271 0.63123 0.0
H1497 H 0.75443 0.32294 0.62005 0.0
H1498 H 0.76158 0.29204 0.58719 0.0
H1499 H 0.75749 0.30816 0.56509 0.0
H1500 H 0.51656 0.98252 0.5591 0.0
H1501 H 0.53346 0.98282 0.58275 0.0
H1502 H 0.4909 0.99305 0.60751 0.0
H1503 H 0.47376 0.99223 0.58391 0.0
H1504 H 0.53944 0.00803 0.60511 0.0
H1505 H 0.50882 0.95316 0.62753 0.0
H1506 H 0.50584 0.95804 0.60811 0.0
H1507 H 0.49519 0.96883 0.62237 0.0
C1508 C 0.51074 0.98466 0.56958 0.0
C1509 C 0.49377 0.98722 0.56961 0.0
C1510 C 0.52045 0.98493 0.58308 0.0
C1511 C 0.51339 0.9877 0.59689 0.0
C1512 C 0.49653 0.99058 0.59698 0.0
H1513 H 0.55507 0.9933 0.68951 0.0
H1514 H 0.53679 0.9933 0.66666 0.0
C1515 C 0.4868 0.99031 0.58347 0.0
C1516 C 0.52379 0.98776 0.61115 0.0
H1517 H 0.52909 0.96813 0.64374 0.0
C1518 C 0.5372 0.99929 0.61355 0.0
C1519 C 0.52081 0.97637 0.62215 0.0
C1520 C 0.50698 0.96329 0.61991 0.0
C1521 C 0.54765 0.99982 0.62671 0.0
C1522 C 0.54476 0.98833 0.63764 0.0
C1523 C 0.53126 0.97691 0.63532 0.0
C1524 C 0.55576 0.98785 0.65147 0.0
C1525 C 0.56155 0.01283 0.6289 0.0
C1526 C 0.5724 0.98442 0.6505 0.0
C1527 C 0.58286 0.98431 0.66352 0.0
C1528 C 0.57686 0.98754 0.67779 0.0
C1529 C 0.56006 0.9906 0.67872 0.0
C1530 C 0.54962 0.9907 0.66568 0.0
H1531 H 0.55952 0.02314 0.62153 0.0
H1532 H 0.56301 0.01781 0.64079 0.0
H1533 H 0.57323 0.00732 0.62605 0.0
H1534 H 0.5773 0.98181 0.63966 0.0
H1535 H 0.59563 0.9816 0.66241 0.0
H1536 H 0.81461 0.21246 0.75857 0.0
H1537 H 0.83928 0.21722 0.77567 0.0
H1538 H 0.86785 0.22962 0.73846 0.0
H1539 H 0.84335 0.22449 0.72118 0.0
H1540 H 0.87041 0.20078 0.77288 0.0
H1541 H 0.87729 0.26871 0.77103 0.0
H1542 H 0.85807 0.25723 0.76568 0.0
H1543 H 0.87452 0.25717 0.75318 0.0
C1544 C 0.82615 0.21609 0.75398 0.0
C1545 C 0.82699 0.21808 0.73848 0.0
C1546 C 0.8402 0.2189 0.76379 0.0
C1547 C 0.85531 0.22392 0.75833 0.0
C1548 C 0.85622 0.22601 0.74291 0.0
H1549 H 0.95351 0.24756 0.80005 0.0
H1550 H 0.92886 0.24342 0.7828 0.0
C1551 C 0.8422 0.22311 0.73307 0.0
C1552 C 0.87024 0.22644 0.76871 0.0
H1553 H 0.89853 0.25576 0.78432 0.0
C1554 C 0.87656 0.21279 0.77545 0.0
C1555 C 0.87823 0.24212 0.7719 0.0
C1556 C 0.87168 0.25721 0.76518 0.0
C1557 C 0.89085 0.21435 0.78517 0.0
C1558 C 0.89877 0.23007 0.78854 0.0
C1559 C 0.89244 0.24372 0.78175 0.0
C1560 C 0.91364 0.23262 0.79908 0.0
C1561 C 0.89755 0.19906 0.79142 0.0
C1562 C 0.9132 0.22817 0.81401 0.0
C1563 C 0.92728 0.23045 0.82385 0.0
C1564 C 0.942 0.23746 0.81901 0.0
C1565 C 0.94232 0.24223 0.80413 0.0
C1566 C 0.92826 0.23982 0.79426 0.0
H1567 H 0.89305 0.18784 0.78445 0.0
H1568 H 0.91124 0.1997 0.79212 0.0
H1569 H 0.89337 0.19782 0.80292 0.0
H1570 H 0.90193 0.22302 0.8181 0.0
H1571 H 0.92658 0.22694 0.83532 0.0
H1572 H 0.46791 0.93742 0.4982 0.0
H1573 H 0.46988 0.91361 0.48046 0.0
H1574 H 0.5218 0.9124 0.49311 0.0
H1575 H 0.51987 0.93602 0.51098 0.0
H1576 H 0.48955 0.90996 0.45588 0.0
H1577 H 0.50476 0.86535 0.49851 0.0
H1578 H 0.4967 0.88503 0.50335 0.0
H1579 H 0.51818 0.88356 0.50011 0.0
C1580 C 0.47973 0.93205 0.49722 0.0
C1581 C 0.49376 0.9385 0.50601 0.0
C1582 C 0.48084 0.91847 0.48708 0.0
C1583 C 0.49593 0.91108 0.48566 0.0
C1584 C 0.50996 0.91769 0.49427 0.0
H1585 H 0.53302 0.83134 0.432 0.0
H1586 H 0.52914 0.85531 0.44891 0.0
C1587 C 0.50887 0.93123 0.50439 0.0
C1588 C 0.49713 0.89662 0.47501 0.0
H1589 H 0.50814 0.85679 0.47298 0.0
C1590 C 0.49348 0.89828 0.45961 0.0
C1591 C 0.50225 0.88141 0.47992 0.0
C1592 C 0.50555 0.87863 0.49638 0.0
C1593 C 0.49529 0.88527 0.44893 0.0
C1594 C 0.50067 0.87015 0.45384 0.0
C1595 C 0.50411 0.86843 0.46925 0.0
C1596 C 0.50297 0.85597 0.44317 0.0
C1597 C 0.49189 0.88794 0.43246 0.0
C1598 C 0.48952 0.84835 0.4344 0.0
C1599 C 0.49171 0.83469 0.42467 0.0
C1600 C 0.5074 0.82836 0.42358 0.0
C1601 C 0.52084 0.83605 0.4324 0.0
C1602 C 0.51862 0.84968 0.44214 0.0
H1603 H 0.49165 0.90119 0.43034 0.0
H1604 H 0.50133 0.88231 0.42563 0.0
H1605 H 0.47969 0.88202 0.42857 0.0
H1606 H 0.47729 0.85286 0.4352 0.0
H1607 H 0.48113 0.82914 0.41795 0.0
H1608 H 0.18705 0.2798 0.7327 0.0
H1609 H 0.16353 0.27285 0.7475 0.0
H1610 H 0.18388 0.30626 0.78388 0.0
H1611 H 0.20742 0.31324 0.76919 0.0
H1612 H 0.16479 0.26012 0.77758 0.0
H1613 H 0.13564 0.32009 0.77543 0.0
H1614 H 0.15044 0.3136 0.76232 0.0
H1615 H 0.15729 0.32128 0.78106 0.0
C1616 C 0.18649 0.2857 0.74383 0.0
C1617 C 0.19903 0.29712 0.7498 0.0
C1618 C 0.17306 0.2817 0.75226 0.0
C1619 C 0.17189 0.2892 0.76669 0.0
C1620 C 0.18444 0.30053 0.77268 0.0
H1621 H 0.10404 0.28664 0.83728 0.0
H1622 H 0.12654 0.2921 0.82107 0.0
C1623 C 0.19789 0.30445 0.76431 0.0
C1624 C 0.15773 0.28499 0.77569 0.0
H1625 H 0.12503 0.30138 0.79221 0.0
C1626 C 0.156 0.26907 0.7807 0.0
C1627 C 0.14636 0.29674 0.77977 0.0
C1628 C 0.14737 0.31386 0.77429 0.0
C1629 C 0.14344 0.26471 0.79008 0.0
C1630 C 0.1321 0.27651 0.79425 0.0
C1631 C 0.13374 0.29237 0.78905 0.0
C1632 C 0.11859 0.27277 0.80419 0.0
C1633 C 0.14279 0.2477 0.79583 0.0
C1634 C 0.10655 0.26016 0.80006 0.0
C1635 C 0.09377 0.25685 0.80942 0.0
C1636 C 0.09264 0.26622 0.82303 0.0
C1637 C 0.10466 0.27897 0.82704 0.0
C1638 C 0.11747 0.28221 0.81772 0.0
H1639 H 0.15477 0.24184 0.79504 0.0
H1640 H 0.13946 0.248 0.80772 0.0
H1641 H 0.1333 0.23988 0.78894 0.0
H1642 H 0.10694 0.25293 0.78954 0.0
H1643 H 0.08483 0.24686 0.80601 0.0
H1644 H 0.55726 0.56468 0.48486 0.0
H1645 H 0.5528 0.58731 0.46849 0.0
H1646 H 0.53531 0.61627 0.50562 0.0
H1647 H 0.53993 0.59374 0.5221 0.0
H1648 H 0.52347 0.60248 0.46127 0.0
H1649 H 0.57078 0.64702 0.48982 0.0
H1650 H 0.57015 0.62541 0.49313 0.0
H1651 H 0.55603 0.63864 0.50185 0.0
C1652 C 0.5525 0.5759 0.48953 0.0
C1653 C 0.549 0.57747 0.50474 0.0
C1654 C 0.54995 0.5888 0.48017 0.0
C1655 C 0.54393 0.60355 0.48588 0.0
C1656 C 0.54025 0.6051 0.50105 0.0
H1657 H 0.52221 0.6945 0.44404 0.0
H1658 H 0.52543 0.67263 0.46144 0.0
C1659 C 0.54281 0.59218 0.51043 0.0
C1660 C 0.54128 0.61714 0.47581 0.0
H1661 H 0.5538 0.65669 0.47011 0.0
C1662 C 0.53011 0.61433 0.46319 0.0
C1663 C 0.54992 0.6326 0.47837 0.0
C1664 C 0.56251 0.63613 0.49144 0.0
C1665 C 0.52726 0.6266 0.45309 0.0
C1666 C 0.53605 0.64199 0.45554 0.0
C1667 C 0.54709 0.64487 0.46826 0.0
C1668 C 0.53413 0.65521 0.44494 0.0
C1669 C 0.51467 0.62305 0.44002 0.0
C1670 C 0.53817 0.65275 0.42993 0.0
C1671 C 0.53642 0.66524 0.41997 0.0
C1672 C 0.53069 0.6805 0.42485 0.0
C1673 C 0.52682 0.68297 0.43995 0.0
C1674 C 0.52857 0.67046 0.44989 0.0
H1675 H 0.50596 0.61261 0.44199 0.0
H1676 H 0.50749 0.63399 0.43788 0.0
H1677 H 0.52111 0.61975 0.42975 0.0
H1678 H 0.54285 0.64121 0.42596 0.0
H1679 H 0.53979 0.66302 0.40851 0.0
H1680 H 0.83536 0.79349 0.75006 0.0
H1681 H 0.85529 0.79078 0.73073 0.0
H1682 H 0.88674 0.76479 0.76078 0.0
H1683 H 0.86676 0.7673 0.78013 0.0
H1684 H 0.88835 0.8022 0.73216 0.0
H1685 H 0.88255 0.73441 0.72246 0.0
H1686 H 0.86771 0.74586 0.73235 0.0
H1687 H 0.88696 0.74134 0.74183 0.0
C1688 C 0.84648 0.78713 0.75254 0.0
C1689 C 0.84951 0.78053 0.7666 0.0
C1690 C 0.85786 0.78561 0.74148 0.0
C1691 C 0.87238 0.77738 0.74423 0.0
C1692 C 0.87546 0.77089 0.7583 0.0
H1693 H 0.95923 0.75709 0.69707 0.0
H1694 H 0.93784 0.75993 0.71494 0.0
C1695 C 0.8641 0.77241 0.76936 0.0
C1696 C 0.88453 0.77597 0.73254 0.0
H1697 H 0.90481 0.74818 0.71148 0.0
C1698 C 0.89187 0.7904 0.72754 0.0
C1699 C 0.88908 0.76055 0.72653 0.0
C1700 C 0.88107 0.74465 0.73095 0.0
C1701 C 0.904 0.78983 0.71701 0.0
C1702 C 0.9087 0.77441 0.71115 0.0
C1703 C 0.90122 0.75999 0.71602 0.0
C1704 C 0.92164 0.77293 0.70021 0.0
C1705 C 0.91203 0.80572 0.71258 0.0
C1706 C 0.91958 0.77918 0.68593 0.0
C1707 C 0.93179 0.77752 0.67563 0.0
C1708 C 0.94622 0.76946 0.6794 0.0
C1709 C 0.94818 0.76317 0.69371 0.0
C1710 C 0.936 0.76485 0.70398 0.0
H1711 H 0.90992 0.81616 0.72066 0.0
H1712 H 0.92552 0.80469 0.71188 0.0
H1713 H 0.90674 0.80859 0.70134 0.0
H1714 H 0.90844 0.78517 0.68267 0.0
H1715 H 0.92978 0.78229 0.66463 0.0
H1716 H 0.08491 0.93243 0.50786 0.0
H1717 H 0.07698 0.91088 0.5244 0.0
H1718 H 0.02623 0.91278 0.50783 0.0
H1719 H 0.03412 0.93418 0.49111 0.0
H1720 H 0.05532 0.91173 0.54716 0.0
H1721 H 0.03462 0.86389 0.50225 0.0
H1722 H 0.04653 0.88227 0.49856 0.0
H1723 H 0.0248 0.88301 0.5009 0.0
C1724 C 0.07207 0.92819 0.50772 0.0
C1725 C 0.06017 0.93488 0.49814 0.0
C1726 C 0.06755 0.91592 0.51718 0.0
C1727 C 0.05105 0.91007 0.51721 0.0
C1728 C 0.03908 0.91689 0.50778 0.0
H1729 H 0.01255 0.84963 0.58643 0.0
H1730 H 0.01809 0.87195 0.56997 0.0
C1731 C 0.0436 0.92917 0.49828 0.0
C1732 C 0.04646 0.89697 0.52726 0.0
H1733 H 0.03036 0.85756 0.52731 0.0
C1734 C 0.04982 0.89989 0.54284 0.0
C1735 C 0.03946 0.88147 0.52157 0.0
C1736 C 0.03626 0.87735 0.5049 0.0
C1737 C 0.04639 0.88775 0.55289 0.0
C1738 C 0.03915 0.87235 0.54721 0.0
C1739 C 0.03578 0.86942 0.53164 0.0
C1740 C 0.0356 0.85886 0.55719 0.0
C1741 C 0.05097 0.89136 0.56944 0.0
C1742 C 0.04333 0.84398 0.55527 0.0
C1743 C 0.04017 0.83121 0.56462 0.0
C1744 C 0.02914 0.83302 0.57607 0.0
C1745 C 0.02131 0.84792 0.57789 0.0
C1746 C 0.02445 0.86069 0.56849 0.0
H1747 H 0.05991 0.9021 0.57149 0.0
H1748 H 0.03972 0.89417 0.5753 0.0
H1749 H 0.05639 0.88059 0.57449 0.0
H1750 H 0.05198 0.8423 0.54662 0.0
H1751 H 0.04658 0.81999 0.56302 0.0
H1752 H 0.18984 0.72788 0.77162 0.0
H1753 H 0.16562 0.73337 0.75544 0.0
H1754 H 0.19201 0.72126 0.71616 0.0
H1755 H 0.21618 0.71538 0.73233 0.0
H1756 H 0.16235 0.75607 0.73452 0.0
H1757 H 0.14958 0.69358 0.70732 0.0
H1758 H 0.16361 0.69761 0.72373 0.0
H1759 H 0.1702 0.7016 0.70535 0.0
C1760 C 0.19046 0.72628 0.75954 0.0
C1761 C 0.20489 0.72116 0.7532 0.0
C1762 C 0.17661 0.72944 0.75031 0.0
C1763 C 0.1769 0.7275 0.73459 0.0
C1764 C 0.19135 0.72247 0.72826 0.0
H1765 H 0.10883 0.74732 0.65991 0.0
H1766 H 0.13299 0.74176 0.67623 0.0
C1767 C 0.20517 0.71921 0.73749 0.0
C1768 C 0.16228 0.73127 0.72486 0.0
H1769 H 0.1347 0.71502 0.69685 0.0
C1770 C 0.15625 0.74706 0.72634 0.0
C1771 C 0.15432 0.7195 0.71421 0.0
C1772 C 0.15964 0.70208 0.71263 0.0
C1773 C 0.14264 0.75148 0.71729 0.0
C1774 C 0.13482 0.73977 0.70655 0.0
C1775 C 0.14081 0.72398 0.70506 0.0
C1776 C 0.12031 0.74362 0.69681 0.0
C1777 C 0.13689 0.76872 0.71906 0.0
C1778 C 0.1052 0.74645 0.703 0.0
C1779 C 0.09139 0.74961 0.69372 0.0
C1780 C 0.09246 0.75004 0.67807 0.0
C1781 C 0.10767 0.74729 0.67193 0.0
C1782 C 0.12144 0.74402 0.68122 0.0
H1783 H 0.14617 0.77716 0.72561 0.0
H1784 H 0.13417 0.77367 0.70789 0.0
H1785 H 0.12535 0.76856 0.72507 0.0
H1786 H 0.10405 0.74602 0.71501 0.0
H1787 H 0.07987 0.75178 0.69879 0.0
H1788 H 0.95404 0.57533 0.49015 0.0
H1789 H 0.9584 0.59992 0.5072 0.0
H1790 H 0.011 0.59652 0.5061 0.0
H1791 H 0.00681 0.57164 0.48937 0.0
H1792 H 0.97782 0.60181 0.53652 0.0
H1793 H 1.00124 0.64494 0.49577 0.0
H1794 H 0.98929 0.62618 0.48988 0.0
H1795 H 0.01058 0.62544 0.49625 0.0
C1796 C 0.96655 0.57972 0.4936 0.0
C1797 C 0.98008 0.57146 0.4884 0.0
C1798 C 0.969 0.59383 0.50327 0.0
C1799 C 0.985 0.60007 0.50778 0.0
C1800 C 0.99855 0.592 0.50255 0.0
H1801 H 0.02559 0.68369 0.56458 0.0
H1802 H 0.02094 0.65951 0.54716 0.0
C1803 C 0.99612 0.57782 0.49295 0.0
C1804 C 0.98751 0.61472 0.51838 0.0
H1805 H 0.00179 0.65483 0.52123 0.0
C1806 C 0.983 0.61344 0.5332 0.0
C1807 C 0.99436 0.62978 0.51398 0.0
C1808 C 0.99907 0.63182 0.49809 0.0
C1809 C 0.98543 0.62681 0.54387 0.0
C1810 C 0.99213 0.64197 0.53945 0.0
C1811 C 0.99662 0.64322 0.52459 0.0
C1812 C 0.99479 0.65664 0.5501 0.0
C1813 C 0.98122 0.62439 0.55986 0.0
C1814 C 0.9816 0.66321 0.55742 0.0
C1815 C 0.98425 0.67691 0.5676 0.0
C1816 C 1.00015 0.68444 0.57051 0.0
C1817 C 0.01326 0.67802 0.56288 0.0
C1818 C 0.0106 0.66427 0.55279 0.0
H1819 H 0.98078 0.61121 0.56231 0.0
H1820 H 0.99032 0.63118 0.56802 0.0
H1821 H 0.96888 0.62909 0.56161 0.0
H1822 H 0.96922 0.65776 0.55527 0.0
H1823 H 0.97388 0.68143 0.57332 0.0
H1824 H 0.75995 0.84096 0.19138 0.0
H1825 H 0.77931 0.86469 0.19709 0.0
H1826 H 0.78585 0.85145 0.24309 0.0
H1827 H 0.76632 0.82777 0.23747 0.0
H1828 H 0.78223 0.88423 0.24125 0.0
H1829 H 0.82895 0.86348 0.20275 0.0
H1830 H 0.80891 0.86465 0.19341 0.0
H1831 H 0.81202 0.85015 0.20762 0.0
C1832 C 0.76561 0.84305 0.20268 0.0
C1833 C 0.76172 0.83244 0.21395 0.0
C1834 C 0.77669 0.85659 0.20592 0.0
C1835 C 0.78429 0.85966 0.22044 0.0
C1836 C 0.7802 0.84927 0.23179 0.0
H1837 H 0.87064 0.92608 0.24145 0.0
H1838 H 0.85121 0.90216 0.23766 0.0
C1839 C 0.76901 0.83578 0.22858 0.0
C1840 C 0.79637 0.8738 0.2238 0.0
H1841 H 0.83244 0.89112 0.21296 0.0
C1842 C 0.79326 0.8857 0.23513 0.0
C1843 C 0.8109 0.87558 0.21597 0.0
C1844 C 0.81551 0.8627 0.20437 0.0
C1845 C 0.80409 0.89951 0.23861 0.0
C1846 C 0.81823 0.90165 0.2303 0.0
C1847 C 0.82151 0.88957 0.2192 0.0
C1848 C 0.82986 0.91627 0.23297 0.0
C1849 C 0.80042 0.91151 0.25132 0.0
C1850 C 0.82436 0.93215 0.23146 0.0
C1851 C 0.83543 0.94584 0.23367 0.0
C1852 C 0.85227 0.9439 0.23723 0.0
C1853 C 0.85777 0.92797 0.2386 0.0
C1854 C 0.84667 0.9143 0.23649 0.0
H1855 H 0.7922 0.90575 0.25924 0.0
H1856 H 0.81192 0.91641 0.25772 0.0
H1857 H 0.79405 0.92196 0.24663 0.0
H1858 H 0.81153 0.93396 0.22834 0.0
H1859 H 0.83087 0.95793 0.2323 0.0
H1860 H 0.75299 0.17471 0.28402 0.0
H1861 H 0.77297 0.15416 0.27846 0.0
H1862 H 0.81263 0.18812 0.29616 0.0
H1863 H 0.79273 0.20886 0.3016 0.0
H1864 H 0.79968 0.15714 0.2596 0.0
H1865 H 0.821 0.14608 0.31837 0.0
H1866 H 0.80223 0.15616 0.31382 0.0
H1867 H 0.82186 0.1672 0.31369 0.0
C1868 C 0.76597 0.17786 0.28668 0.0
C1869 C 0.77126 0.19346 0.29325 0.0
C1870 C 0.77736 0.16607 0.28355 0.0
C1871 C 0.79426 0.16955 0.28704 0.0
C1872 C 0.79961 0.18507 0.29364 0.0
H1873 H 0.87977 0.11069 0.27536 0.0
H1874 H 0.86147 0.13283 0.28107 0.0
C1875 C 0.78822 0.1969 0.29675 0.0
C1876 C 0.80625 0.15707 0.28334 0.0
H1877 H 0.83482 0.13276 0.29896 0.0
C1878 C 0.80736 0.15179 0.2682 0.0
C1879 C 0.81631 0.15019 0.29457 0.0
C1880 C 0.81527 0.15506 0.31105 0.0
C1881 C 0.81832 0.13986 0.26397 0.0
C1882 C 0.82819 0.13277 0.27522 0.0
C1883 C 0.82724 0.1382 0.29035 0.0
C1884 C 0.8393 0.11943 0.27156 0.0
C1885 C 0.81941 0.13516 0.24747 0.0
C1886 C 0.8329 0.10447 0.26448 0.0
C1887 C 0.8433 0.09181 0.26121 0.0
C1888 C 0.86034 0.09377 0.26509 0.0
C1889 C 0.8667 0.10873 0.27231 0.0
C1890 C 0.85628 0.12141 0.27554 0.0
H1891 H 0.81481 0.14484 0.24029 0.0
H1892 H 0.83229 0.13286 0.24485 0.0
H1893 H 0.81168 0.12373 0.24445 0.0
H1894 H 0.81979 0.1025 0.26165 0.0
H1895 H 0.83794 0.08034 0.25594 0.0
H1896 H 0.45509 0.0174 0.99808 0.0
H1897 H 0.43212 0.99838 0.00295 0.0
H1898 H 0.4163 0.99533 0.9558 0.0
H1899 H 0.43919 0.01439 0.95085 0.0
H1900 H 0.39881 0.00272 0.99775 0.0
H1901 H 0.41702 0.94707 0.96556 0.0
H1902 H 0.43112 0.96459 0.97048 0.0
H1903 H 0.41619 0.96495 0.95481 0.0
C1904 C 0.44672 0.01267 0.98875 0.0
C1905 C 0.44897 0.01739 0.97407 0.0
C1906 C 0.43365 0.00176 0.99154 0.0
C1907 C 0.42263 0.99528 0.97972 0.0
C1908 C 0.42487 0.99989 0.96504 0.0
H1909 H 0.3237 0.95296 0.98625 0.0
H1910 H 0.34804 0.97047 0.9821 0.0
C1911 C 0.43796 0.01078 0.96223 0.0
C1912 C 0.40835 0.98432 0.98286 0.0
H1913 H 0.38991 0.94621 0.97419 0.0
C1914 C 0.39689 0.99034 0.99266 0.0
C1915 C 0.40598 0.96811 0.97634 0.0
C1916 C 0.4183 0.9607 0.96632 0.0
C1917 C 0.38296 0.98069 0.99589 0.0
C1918 C 0.38028 0.96469 0.98894 0.0
C1919 C 0.39191 0.95854 0.97938 0.0
C1920 C 0.36552 0.9541 0.9915 0.0
C1921 C 0.37133 0.98764 0.00685 0.0
C1922 C 0.36728 0.93893 0.99787 0.0
C1923 C 0.35339 0.92889 1.00024 0.0
C1924 C 0.33746 0.9338 0.99623 0.0
C1925 C 0.33577 0.94896 0.98973 0.0
C1926 C 0.34966 0.95898 0.98734 0.0
H1927 H 0.3773 0.99806 0.01409 0.0
H1928 H 0.36052 0.99223 1.00051 0.0
H1929 H 0.36682 0.97808 0.01418 0.0
H1930 H 0.37942 0.93493 1.00112 0.0
H1931 H 0.35513 0.91737 0.00539 0.0
H1932 H 0.27379 0.32954 0.31294 0.0
H1933 H 0.25458 0.35088 0.3075 0.0
H1934 H 0.25275 0.3357 0.26029 0.0
H1935 H 0.27144 0.31398 0.26569 0.0
H1936 H 0.25905 0.37679 0.28941 0.0
H1937 H 0.20413 0.33744 0.26801 0.0
H1938 H 0.22156 0.32948 0.27818 0.0
H1939 H 0.22241 0.33314 0.25856 0.0
C1940 C 0.26908 0.33055 0.30143 0.0
C1941 C 0.27414 0.32001 0.28976 0.0
C1942 C 0.25819 0.34283 0.29833 0.0
C1943 C 0.25206 0.34475 0.28352 0.0
C1944 C 0.25707 0.33425 0.27184 0.0
H1945 H 0.19149 0.41584 0.24078 0.0
H1946 H 0.20927 0.39332 0.2463 0.0
C1947 C 0.26792 0.32196 0.27493 0.0
C1948 C 0.24099 0.35817 0.2802 0.0
H1949 H 0.20304 0.36603 0.2645 0.0
C1950 C 0.24676 0.37444 0.28405 0.0
C1951 C 0.22498 0.35507 0.27315 0.0
C1952 C 0.21781 0.33783 0.26935 0.0
C1953 C 0.23708 0.38771 0.28083 0.0
C1954 C 0.22111 0.38461 0.27375 0.0
C1955 C 0.21531 0.36836 0.26988 0.0
C1956 C 0.21015 0.39809 0.27044 0.0
C1957 C 0.24414 0.40496 0.28475 0.0
C1958 C 0.20455 0.40805 0.2822 0.0
C1959 C 0.19431 0.42084 0.2791 0.0
C1960 C 0.18942 0.42392 0.26416 0.0
C1961 C 0.19489 0.41374 0.2524 0.0
C1962 C 0.20511 0.40091 0.25553 0.0
H1963 H 0.25777 0.40538 0.28673 0.0
H1964 H 0.24089 0.41318 0.27566 0.0
H1965 H 0.23889 0.40982 0.2952 0.0
H1966 H 0.20801 0.40586 0.2938 0.0
H1967 H 0.19006 0.42819 0.28844 0.0
H1968 H 0.10576 0.98537 0.47227 0.0
H1969 H 0.1297 0.00473 0.47742 0.0
H1970 H 0.09912 0.04503 0.46813 0.0
H1971 H 0.07509 0.02582 0.46323 0.0
H1972 H 0.14218 0.02711 0.45665 0.0
H1973 H 0.12394 0.05941 0.50908 0.0
H1974 H 0.11475 0.03965 0.50205 0.0
H1975 H 0.10853 0.05803 0.49368 0.0
C1976 C 0.10409 0.99838 0.47156 0.0
C1977 C 0.08853 0.00407 0.46736 0.0
C1978 C 0.11778 0.0094 0.47441 0.0
C1979 C 0.11613 0.02631 0.4733 0.0
C1980 C 0.1006 0.03205 0.46926 0.0
H1981 H 0.18199 0.1134 0.48208 0.0
H1982 H 0.15838 0.09348 0.47864 0.0
C1983 C 0.08693 0.02105 0.46633 0.0
C1984 C 0.13076 0.0379 0.47569 0.0
H1985 H 0.14712 0.07094 0.49781 0.0
C1986 C 0.14335 0.03663 0.4657 0.0
C1987 C 0.13215 0.05035 0.48746 0.0
C1988 C 0.11921 0.05193 0.49878 0.0
C1989 C 0.15716 0.04773 0.46695 0.0
C1990 C 0.15858 0.0602 0.47873 0.0
C1991 C 0.14601 0.0614 0.48878 0.0
C1992 C 0.17296 0.07219 0.48079 0.0
C1993 C 0.16986 0.04629 0.45538 0.0
C1994 C 0.18897 0.06685 0.48333 0.0
C1995 C 0.20248 0.07819 0.48525 0.0
C1996 C 0.20021 0.09512 0.48486 0.0
C1997 C 0.18413 0.10045 0.48254 0.0
C1998 C 0.17064 0.08909 0.48053 0.0
H1999 H 0.16478 0.03924 0.44495 0.0
H2000 H 0.17453 0.05859 0.45236 0.0
H2001 H 0.18043 0.03972 0.46007 0.0
H2002 H 0.19101 0.0539 0.48397 0.0
H2003 H 0.21467 0.07371 0.48731 0.0
H2004 H 0.79548 0.16668 0.72733 0.0
H2005 H 0.7768 0.14319 0.73134 0.0
H2006 H 0.735 0.17176 0.72054 0.0
H2007 H 0.75356 0.19546 0.7168 0.0
H2008 H 0.75092 0.14238 0.75231 0.0
H2009 H 0.72734 0.12884 0.69282 0.0
H2010 H 0.74612 0.14113 0.69796 0.0
H2011 H 0.72646 0.14979 0.69999 0.0
C2012 C 0.78231 0.16803 0.7259 0.0
C2013 C 0.77602 0.18298 0.72175 0.0
C2014 C 0.77167 0.15456 0.72812 0.0
C2015 C 0.75456 0.15571 0.72609 0.0
C2016 C 0.7482 0.17056 0.72192 0.0
H2017 H 0.67109 0.08666 0.73295 0.0
H2018 H 0.68916 0.11075 0.72929 0.0
C2019 C 0.75883 0.18407 0.71975 0.0
C2020 C 0.74336 0.14148 0.72872 0.0
H2021 H 0.7149 0.11353 0.71116 0.0
C2022 C 0.74307 0.13602 0.74333 0.0
C2023 C 0.73309 0.13331 0.71698 0.0
C2024 C 0.73328 0.13843 0.70101 0.0
C2025 C 0.73259 0.1227 0.74656 0.0
C2026 C 0.72243 0.11438 0.73477 0.0
C2027 C 0.7227 0.11991 0.72017 0.0
C2028 C 0.71151 0.09986 0.73731 0.0
C2029 C 0.73223 0.1179 0.76262 0.0
C2030 C 0.71809 0.08569 0.7429 0.0
C2031 C 0.70779 0.07193 0.74504 0.0
C2032 C 0.69073 0.07201 0.74143 0.0
C2033 C 0.68419 0.08618 0.73572 0.0
C2034 C 0.69449 0.09996 0.73367 0.0
H2035 H 0.73693 0.12816 0.77071 0.0
H2036 H 0.71954 0.11404 0.76534 0.0
H2037 H 0.74022 0.10745 0.76423 0.0
H2038 H 0.73124 0.08518 0.74542 0.0
H2039 H 0.71323 0.06111 0.7492 0.0
H2040 H 0.42952 0.99068 0.52735 0.0
H2041 H 0.40852 0.01061 0.52279 0.0
H2042 H 0.44267 0.04985 0.54094 0.0
H2043 H 0.46384 0.03005 0.5453 0.0
H2044 H 0.39572 0.03328 0.54463 0.0
H2045 H 0.42591 0.06489 0.49927 0.0
H2046 H 0.43148 0.04489 0.50484 0.0
H2047 H 0.4386 0.06299 0.51624 0.0
C2048 C 0.43261 0.00357 0.53024 0.0
C2049 C 0.44837 0.00879 0.53663 0.0
C2050 C 0.42058 0.01491 0.5277 0.0
C2051 C 0.42412 0.0317 0.53136 0.0
C2052 C 0.43977 0.03696 0.53785 0.0
H2053 H 0.36695 0.11834 0.52165 0.0
H2054 H 0.38861 0.09926 0.52684 0.0
C2055 C 0.45179 0.02562 0.54046 0.0
C2056 C 0.41131 0.04367 0.52863 0.0
H2057 H 0.4018 0.07621 0.50796 0.0
C2058 C 0.39701 0.04265 0.5366 0.0
C2059 C 0.4131 0.05592 0.5182 0.0
C2060 C 0.42803 0.05724 0.50903 0.0
C2061 C 0.38449 0.05369 0.53454 0.0
C2062 C 0.38616 0.06582 0.52395 0.0
C2063 C 0.40053 0.0669 0.51606 0.0
C2064 C 0.37302 0.07736 0.52075 0.0
C2065 C 0.36974 0.05245 0.54394 0.0
C2066 C 0.35716 0.0714 0.51536 0.0
C2067 C 0.34478 0.08225 0.51239 0.0
C2068 C 0.34805 0.09932 0.51461 0.0
C2069 C 0.36405 0.10527 0.51974 0.0
C2070 C 0.37642 0.09439 0.52276 0.0
H2071 H 0.37251 0.04592 0.55431 0.0
H2072 H 0.36552 0.0648 0.54723 0.0
H2073 H 0.35946 0.04543 0.5373 0.0
H2074 H 0.35437 0.05833 0.51332 0.0
H2075 H 0.33269 0.07727 0.50816 0.0
H2076 H 0.57096 0.49794 0.55374 0.0
H2077 H 0.59307 0.47952 0.54864 0.0
H2078 H 0.6215 0.5194 0.53154 0.0
H2079 H 0.59969 0.53801 0.53691 0.0
H2080 H 0.61809 0.48932 0.51244 0.0
H2081 H 0.63951 0.47943 0.57146 0.0
H2082 H 0.61768 0.4764 0.56695 0.0
H2083 H 0.62745 0.49653 0.56652 0.0
C2084 C 0.58202 0.50287 0.54912 0.0
C2085 C 0.58351 0.51948 0.54573 0.0
C2086 C 0.59462 0.49231 0.54618 0.0
C2087 C 0.60895 0.49814 0.53981 0.0
C2088 C 0.61052 0.51467 0.53644 0.0
H2089 H 0.70219 0.45326 0.52939 0.0
H2090 H 0.68003 0.47135 0.53527 0.0
C2091 C 0.59799 0.52526 0.53944 0.0
C2092 C 0.62214 0.48692 0.53625 0.0
H2093 H 0.65138 0.46361 0.55227 0.0
C2094 C 0.62537 0.48368 0.52113 0.0
C2095 C 0.63169 0.47972 0.54764 0.0
C2096 C 0.62906 0.48324 0.56408 0.0
C2097 C 0.6378 0.47327 0.51707 0.0
C2098 C 0.64718 0.46586 0.52844 0.0
C2099 C 0.64407 0.46923 0.54358 0.0
C2100 C 0.66049 0.45482 0.52484 0.0
C2101 C 0.64103 0.47047 0.50067 0.0
C2102 C 0.65681 0.43949 0.51713 0.0
C2103 C 0.66943 0.42913 0.51374 0.0
C2104 C 0.68598 0.43395 0.51798 0.0
C2105 C 0.6896 0.4493 0.52577 0.0
C2106 C 0.67696 0.45959 0.52924 0.0
H2107 H 0.63502 0.47953 0.49363 0.0
H2108 H 0.65448 0.47118 0.49914 0.0
H2109 H 0.63609 0.458 0.49656 0.0
H2110 H 0.64415 0.43552 0.51377 0.0
H2111 H 0.66626 0.41742 0.50767 0.0
H2112 H 0.74358 0.26082 0.31624 0.0
H2113 H 0.74425 0.2778 0.33977 0.0
H2114 H 0.7582 0.23639 0.36458 0.0
H2115 H 0.7572 0.21915 0.34111 0.0
H2116 H 0.72502 0.27095 0.36546 0.0
H2117 H 0.79274 0.27448 0.37938 0.0
H2118 H 0.7838 0.26899 0.36062 0.0
H2119 H 0.78328 0.2543 0.37479 0.0
C2120 C 0.74672 0.25527 0.32669 0.0
C2121 C 0.75028 0.23858 0.32677 0.0
C2122 C 0.74718 0.26503 0.34012 0.0
C2123 C 0.75139 0.25837 0.35387 0.0
C2124 C 0.75516 0.2418 0.35404 0.0
H2125 H 0.76159 0.30018 0.44607 0.0
H2126 H 0.76086 0.28213 0.42314 0.0
C2127 C 0.75462 0.23199 0.3406 0.0
C2128 C 0.75126 0.26868 0.36808 0.0
H2129 H 0.77613 0.28643 0.39738 0.0
C2130 C 0.73618 0.27437 0.37246 0.0
C2131 C 0.76583 0.27301 0.37718 0.0
C2132 C 0.78239 0.26751 0.37277 0.0
C2133 C 0.73525 0.28418 0.38581 0.0
C2134 C 0.74987 0.28874 0.39482 0.0
C2135 C 0.76494 0.28294 0.39046 0.0
C2136 C 0.74985 0.29961 0.40876 0.0
C2137 C 0.71856 0.28923 0.39028 0.0
C2138 C 0.74399 0.31547 0.4083 0.0
C2139 C 0.74432 0.32578 0.42141 0.0
C2140 C 0.75074 0.3205 0.43519 0.0
C2141 C 0.75668 0.30464 0.43561 0.0
C2142 C 0.75624 0.2943 0.42252 0.0
H2143 H 0.70846 0.2809 0.38478 0.0
H2144 H 0.71771 0.28932 0.40265 0.0
H2145 H 0.71655 0.30179 0.38669 0.0
H2146 H 0.73941 0.32 0.39775 0.0
H2147 H 0.73993 0.33803 0.42068 0.0
H2148 H 0.50388 0.9946 0.91887 0.0
H2149 H 0.52044 0.99282 0.89687 0.0
H2150 H 0.52823 0.04554 0.89967 0.0
H2151 H 0.51186 0.04739 0.92177 0.0
H2152 H 0.51502 0.00701 0.86929 0.0
H2153 H 0.57513 0.02956 0.89793 0.0
H2154 H 0.55777 0.02296 0.90813 0.0
H2155 H 0.55848 0.04287 0.90057 0.0
C2156 C 0.50919 0.00579 0.91481 0.0
C2157 C 0.50667 0.0211 0.92207 0.0
C2158 C 0.51862 0.00477 0.90225 0.0
C2159 C 0.52576 0.01902 0.89677 0.0
C2160 C 0.52311 0.03436 0.9039 0.0
H2161 H 0.58674 0.03464 0.82141 0.0
H2162 H 0.5699 0.03814 0.84307 0.0
C2163 C 0.51368 0.0354 0.91648 0.0
C2164 C 0.53564 0.01779 0.88337 0.0
H2165 H 0.57423 0.02519 0.87142 0.0
C2166 C 0.52797 0.01096 0.86975 0.0
C2167 C 0.55252 0.023 0.884 0.0
C2168 C 0.56155 0.02989 0.89846 0.0
C2169 C 0.5367 0.0093 0.85671 0.0
C2170 C 0.55362 0.01435 0.85738 0.0
C2171 C 0.56125 0.02134 0.87095 0.0
C2172 C 0.56369 0.0122 0.84418 0.0
C2173 C 0.52766 0.00239 0.84227 0.0
C2174 C 0.56592 0.99645 0.83774 0.0
C2175 C 0.57545 0.99442 0.82532 0.0
C2176 C 0.58302 0.0081 0.81914 0.0
C2177 C 0.58089 0.02387 0.82574 0.0
C2178 C 0.57136 0.02588 0.83817 0.0
H2179 H 0.51411 0.00331 0.84262 0.0
H2180 H 0.53187 0.00886 0.83248 0.0
H2181 H 0.53017 0.98921 0.8405 0.0
H2182 H 0.56035 0.98571 0.84236 0.0
H2183 H 0.57671 0.98212 0.82046 0.0
H2184 H 0.30065 0.25318 0.31151 0.0
H2185 H 0.2987 0.23769 0.33408 0.0
H2186 H 0.28791 0.28185 0.35964 0.0
H2187 H 0.28995 0.29745 0.3372 0.0
H2188 H 0.31689 0.24245 0.36192 0.0
H2189 H 0.25017 0.24949 0.36845 0.0
H2190 H 0.25984 0.25381 0.35134 0.0
H2191 H 0.26192 0.2685 0.36723 0.0
C2192 C 0.29795 0.25962 0.32196 0.0
C2193 C 0.29536 0.27655 0.32252 0.0
C2194 C 0.29677 0.25073 0.33482 0.0
C2195 C 0.29289 0.25856 0.34848 0.0
C2196 C 0.29053 0.27548 0.34914 0.0
H2197 H 0.28096 0.22798 0.43889 0.0
H2198 H 0.28324 0.24313 0.41618 0.0
C2199 C 0.2917 0.28438 0.33629 0.0
C2200 C 0.29163 0.2491 0.36211 0.0
H2201 H 0.26525 0.23798 0.38852 0.0
C2202 C 0.30558 0.24139 0.3677 0.0
C2203 C 0.27687 0.24776 0.36964 0.0
C2204 C 0.26129 0.25519 0.36381 0.0
C2205 C 0.30527 0.23266 0.3808 0.0
C2206 C 0.29051 0.23136 0.38835 0.0
C2207 C 0.27655 0.23903 0.38274 0.0
C2208 C 0.28928 0.22209 0.40211 0.0
C2209 C 0.32085 0.22524 0.38664 0.0
C2210 C 0.29172 0.20518 0.4017 0.0
C2211 C 0.29037 0.19647 0.41465 0.0
C2212 C 0.28642 0.20447 0.42826 0.0
C2213 C 0.28384 0.22139 0.42858 0.0
C2214 C 0.28522 0.23009 0.41563 0.0
H2215 H 0.33196 0.2309 0.38196 0.0
H2216 H 0.32233 0.2267 0.39911 0.0
H2217 H 0.3202 0.21192 0.38329 0.0
H2218 H 0.29447 0.19867 0.39131 0.0
H2219 H 0.29213 0.1834 0.41392 0.0
H2220 H 0.538 0.45843 0.9256 0.0
H2221 H 0.52139 0.46227 0.9023 0.0
H2222 H 0.52293 0.51446 0.91331 0.0
H2223 H 0.53955 0.51072 0.93651 0.0
H2224 H 0.49106 0.47595 0.89709 0.0
H2225 H 0.54047 0.51188 0.87151 0.0
H2226 H 0.54436 0.50045 0.88796 0.0
H2227 H 0.53573 0.52028 0.88968 0.0
C2228 C 0.53466 0.47069 0.92311 0.0
C2229 C 0.54024 0.48429 0.9328 0.0
C2230 C 0.52524 0.47288 0.90978 0.0
C2231 C 0.52125 0.48869 0.90591 0.0
C2232 C 0.52626 0.5022 0.91586 0.0
H2233 H 0.46676 0.53076 0.83262 0.0
H2234 H 0.48224 0.52526 0.85604 0.0
C2235 C 0.53572 0.50004 0.92912 0.0
C2236 C 0.5119 0.49112 0.89147 0.0
H2237 H 0.51374 0.51117 0.85902 0.0
C2238 C 0.49605 0.48355 0.88871 0.0
C2239 C 0.51846 0.50101 0.88053 0.0
C2240 C 0.53575 0.50875 0.88246 0.0
C2241 C 0.48641 0.48598 0.87549 0.0
C2242 C 0.49289 0.49607 0.86468 0.0
C2243 C 0.50879 0.5035 0.86737 0.0
C2244 C 0.48334 0.49921 0.85055 0.0
C2245 C 0.46922 0.47806 0.87333 0.0
C2246 C 0.479 0.48641 0.83964 0.0
C2247 C 0.47015 0.4895 0.82626 0.0
C2248 C 0.46547 0.50547 0.82353 0.0
C2249 C 0.46997 0.51829 0.83446 0.0
C2250 C 0.47888 0.51519 0.8478 0.0
H2251 H 0.46478 0.47372 0.88401 0.0
H2252 H 0.46043 0.48679 0.86877 0.0
H2253 H 0.46919 0.46731 0.86513 0.0
H2254 H 0.48254 0.47403 0.84145 0.0
H2255 H 0.46677 0.47935 0.81812 0.0
H2256 H 0.71749 0.77979 0.17331 0.0
H2257 H 0.7213 0.76281 0.15035 0.0
H2258 H 0.77395 0.7668 0.16013 0.0
H2259 H 0.77023 0.78333 0.18328 0.0
H2260 H 0.73907 0.77163 0.1259 0.0
H2261 H 0.76469 0.71738 0.15168 0.0
H2262 H 0.75426 0.73274 0.1623 0.0
H2263 H 0.77536 0.73653 0.15803 0.0
C2264 C 0.72986 0.77682 0.1707 0.0
C2265 C 0.74355 0.7829 0.18014 0.0
C2266 C 0.73202 0.76722 0.15753 0.0
C2267 C 0.74789 0.76338 0.15363 0.0
C2268 C 0.76157 0.76937 0.16305 0.0
H2269 H 0.78918 0.7121 0.07803 0.0
H2270 H 0.78451 0.72825 0.10122 0.0
C2271 C 0.75943 0.77897 0.17619 0.0
C2272 C 0.75022 0.75367 0.13942 0.0
H2273 H 0.76632 0.71861 0.12525 0.0
C2274 C 0.74492 0.75998 0.12575 0.0
C2275 C 0.75792 0.7385 0.13926 0.0
C2276 C 0.76326 0.73078 0.1536 0.0
C2277 C 0.74743 0.75171 0.11189 0.0
C2278 C 0.75519 0.73659 0.11173 0.0
C2279 C 0.76042 0.73023 0.1254 0.0
C2280 C 0.75795 0.72711 0.09749 0.0
C2281 C 0.74212 0.75945 0.09755 0.0
C2282 C 0.74456 0.72103 0.08775 0.0
C2283 C 0.74719 0.71189 0.07446 0.0
C2284 C 0.76327 0.70855 0.07067 0.0
C2285 C 0.77666 0.71463 0.08049 0.0
C2286 C 0.77401 0.72377 0.0938 0.0
H2287 H 0.74035 0.77278 0.09951 0.0
H2288 H 0.75132 0.75778 0.08898 0.0
H2289 H 0.7302 0.75346 0.09291 0.0
H2290 H 0.73205 0.72323 0.0905 0.0
H2291 H 0.7366 0.70752 0.0671 0.0
H2292 H 0.05956 0.03567 0.09294 0.0
H2293 H 0.04332 0.03329 0.11502 0.0
H2294 H 0.99876 0.0389 0.0875 0.0
H2295 H 0.01489 0.04119 0.06533 0.0
H2296 H 0.02006 0.05814 0.12589 0.0
H2297 H 0.99082 0.99584 0.11095 0.0
H2298 H 0.00965 0.00301 0.10318 0.0
H2299 H 0.99027 0.0103 0.09648 0.0
C2300 C 0.04628 0.03622 0.09156 0.0
C2301 C 0.0385 0.03856 0.07738 0.0
C2302 C 0.03705 0.03495 0.10419 0.0
C2303 C 0.01986 0.0358 0.10285 0.0
C2304 C 0.01202 0.03807 0.08873 0.0
H2305 H 0.94267 0.02627 0.16529 0.0
H2306 H 0.95869 0.02888 0.14315 0.0
C2307 C 0.02125 0.03948 0.07611 0.0
C2308 C 0.01015 0.03468 0.1163 0.0
H2309 H 0.98214 0.01007 0.13258 0.0
C2310 C 0.01179 0.04763 0.12741 0.0
C2311 C 0.99933 0.021 0.11815 0.0
C2312 C 0.99741 0.00665 0.10664 0.0
C2313 C 0.00267 0.04739 0.14027 0.0
C2314 C 0.99197 0.03358 0.14225 0.0
C2315 C 0.99035 0.02064 0.13109 0.0
C2316 C 0.98231 0.03231 0.15579 0.0
C2317 C 0.00427 0.06212 0.15138 0.0
C2318 C 0.99023 0.0332 0.17028 0.0
C2319 C 0.98108 0.03182 0.18296 0.0
C2320 C 0.96384 0.02923 0.18139 0.0
C2321 C 0.95595 0.02814 0.16686 0.0
C2322 C 0.96509 0.02967 0.1542 0.0
H2323 H 0.00887 0.07331 0.14612 0.0
H2324 H 0.99228 0.06461 0.15611 0.0
H2325 H 0.01325 0.05974 0.16077 0.0
H2326 H 0.00353 0.03476 0.17179 0.0
H2327 H 0.98754 0.03243 0.19397 0.0
H2328 H 0.3026 0.7795 0.18997 0.0
H2329 H 0.29749 0.79498 0.16759 0.0
H2330 H 0.28056 0.75016 0.14213 0.0
H2331 H 0.28524 0.73472 0.16455 0.0
H2332 H 0.31077 0.79262 0.14069 0.0
H2333 H 0.2432 0.77952 0.13285 0.0
H2334 H 0.25501 0.7751 0.14978 0.0
H2335 H 0.25465 0.76132 0.13326 0.0
C2336 C 0.29769 0.773 0.1796 0.0
C2337 C 0.29418 0.75597 0.17903 0.0
C2338 C 0.2948 0.78183 0.16683 0.0
C2339 C 0.28837 0.77378 0.15324 0.0
C2340 C 0.28512 0.7567 0.15258 0.0
H2341 H 0.2922 0.81441 0.06528 0.0
H2342 H 0.29676 0.79882 0.08763 0.0
C2343 C 0.28789 0.74787 0.16539 0.0
C2344 C 0.2855 0.78325 0.13969 0.0
H2345 H 0.256 0.79231 0.11298 0.0
C2346 C 0.29878 0.79259 0.13465 0.0
C2347 C 0.2698 0.7834 0.13195 0.0
C2348 C 0.25481 0.77444 0.1373 0.0
C2349 C 0.29685 0.80192 0.12199 0.0
C2350 C 0.28129 0.80159 0.11393 0.0
C2351 C 0.26796 0.79241 0.11907 0.0
C2352 C 0.27849 0.81091 0.10029 0.0
C2353 C 0.31141 0.81232 0.1176 0.0
C2354 C 0.26636 0.82255 0.09978 0.0
C2355 C 0.26362 0.83135 0.08697 0.0
C2356 C 0.27297 0.82869 0.0744 0.0
C2357 C 0.285 0.81693 0.07488 0.0
C2358 C 0.28765 0.80804 0.08766 0.0
H2359 H 0.32076 0.81487 0.12717 0.0
H2360 H 0.31742 0.80567 0.10841 0.0
H2361 H 0.3075 0.8242 0.11352 0.0
H2362 H 0.25911 0.82494 0.10938 0.0
H2363 H 0.25436 0.84043 0.08699 0.0
H2364 H 0.01738 0.48121 0.05961 0.0
H2365 H 0.03391 0.48143 0.0834 0.0
H2366 H 0.99177 0.49492 0.10746 0.0
H2367 H 0.97488 0.49391 0.08375 0.0
H2368 H 0.04177 0.50617 0.10448 0.0
H2369 H 0.00658 0.45598 0.12972 0.0
H2370 H 0.00359 0.46013 0.11013 0.0
H2371 H 0.99425 0.47252 0.12425 0.0
C2372 C 0.01152 0.48397 0.06997 0.0
C2373 C 0.99472 0.48736 0.06975 0.0
C2374 C 0.02105 0.48423 0.08356 0.0
C2375 C 0.01402 0.4879 0.09725 0.0
C2376 C 0.99736 0.49167 0.09708 0.0
H2377 H 0.05638 0.49893 0.1896 0.0
H2378 H 0.03836 0.49897 0.16661 0.0
C2379 C 0.98778 0.49132 0.08348 0.0
C2380 C 0.02429 0.48804 0.11161 0.0
H2381 H 0.02758 0.47059 0.1455 0.0
C2382 C 0.03868 0.49836 0.11343 0.0
C2383 C 0.02025 0.47782 0.12329 0.0
C2384 C 0.00542 0.46587 0.12174 0.0
C2385 C 0.04908 0.49882 0.12662 0.0
C2386 C 0.04504 0.48862 0.13824 0.0
C2387 C 0.03059 0.47842 0.13654 0.0
C2388 C 0.05583 0.4882 0.15218 0.0
C2389 C 0.06424 0.51034 0.1281 0.0
C2390 C 0.07151 0.48186 0.15169 0.0
C2391 C 0.08178 0.48162 0.16482 0.0
C2392 C 0.07657 0.48774 0.17872 0.0
C2393 C 0.06073 0.4939 0.17916 0.0
C2394 C 0.05044 0.49405 0.16602 0.0
H2395 H 0.06379 0.51975 0.1196 0.0
H2396 H 0.06569 0.51666 0.13951 0.0
H2397 H 0.0753 0.50318 0.12648 0.0
H2398 H 0.07578 0.47704 0.14113 0.0
H2399 H 0.09374 0.4765 0.16408 0.0
H2400 H 0.34353 0.72311 0.22101 0.0
H2401 H 0.36789 0.72799 0.23851 0.0
H2402 H 0.33867 0.71612 0.27545 0.0
H2403 H 0.31419 0.71149 0.25811 0.0
H2404 H 0.37257 0.75043 0.26493 0.0
H2405 H 0.37764 0.68516 0.27823 0.0
H2406 H 0.36554 0.69121 0.26201 0.0
H2407 H 0.35775 0.69332 0.28039 0.0
C2408 C 0.34223 0.72171 0.23288 0.0
C2409 C 0.32691 0.71683 0.23814 0.0
C2410 C 0.35619 0.72442 0.24284 0.0
C2411 C 0.35511 0.72218 0.25822 0.0
C2412 C 0.33981 0.7176 0.26357 0.0
H2413 H 0.42623 0.72814 0.3353 0.0
H2414 H 0.40146 0.72443 0.31819 0.0
C2415 C 0.32585 0.71494 0.25364 0.0
C2416 C 0.37 0.72468 0.26868 0.0
H2417 H 0.39576 0.70472 0.29221 0.0
C2418 C 0.3777 0.74045 0.27088 0.0
C2419 C 0.37658 0.71162 0.27643 0.0
C2420 C 0.36907 0.69433 0.2741 0.0
C2421 C 0.3917 0.74359 0.28083 0.0
C2422 C 0.39837 0.7305 0.28852 0.0
C2423 C 0.39063 0.71473 0.28632 0.0
C2424 C 0.41341 0.73287 0.29885 0.0
C2425 C 0.39898 0.76096 0.28329 0.0
C2426 C 0.42841 0.73861 0.2936 0.0
C2427 C 0.44258 0.74074 0.30334 0.0
C2428 C 0.44207 0.73699 0.3185 0.0
C2429 C 0.42707 0.731 0.32366 0.0
C2430 C 0.41289 0.72895 0.31392 0.0
H2431 H 0.38992 0.77006 0.28 0.0
H2432 H 0.40334 0.76378 0.29524 0.0
H2433 H 0.40967 0.76246 0.27627 0.0
H2434 H 0.42921 0.74129 0.28191 0.0
H2435 H 0.454 0.74509 0.29895 0.0
H2436 H 0.02106 0.43531 0.01209 0.0
H2437 H 0.02314 0.41193 0.99397 0.0
H2438 H 0.97196 0.41504 0.97926 0.0
H2439 H 0.96986 0.43857 0.99725 0.0
H2440 H 0.00515 0.38179 0.99232 0.0
H2441 H 0.99514 0.41409 0.93968 0.0
H2442 H 1.00009 0.42491 0.95774 0.0
H2443 H 0.9795 0.41654 0.95287 0.0
C2444 C 0.01029 0.43105 0.00492 0.0
C2445 C 0.99535 0.43879 0.00602 0.0
C2446 C 0.01148 0.4177 0.9946 0.0
C2447 C 0.99777 0.41188 0.98513 0.0
C2448 C 0.98278 0.41954 0.98625 0.0
H2449 H 0.98349 0.33031 0.9175 0.0
H2450 H 0.97997 0.35406 0.93482 0.0
C2451 C 0.98157 0.43293 0.99659 0.0
C2452 C 0.99915 0.39749 0.97444 0.0
H2453 H 0.99675 0.38522 0.93707 0.0
C2454 C 0.00335 0.38254 0.98024 0.0
C2455 C 0.99672 0.3985 0.95869 0.0
C2456 C 0.99275 0.41439 0.95181 0.0
C2457 C 0.00509 0.36852 0.97072 0.0
C2458 C 0.00286 0.36957 0.95497 0.0
C2459 C 0.99848 0.38447 0.94916 0.0
C2460 C 0.00513 0.35534 0.94434 0.0
C2461 C 0.00904 0.35263 0.97763 0.0
C2462 C 0.02052 0.34837 0.94378 0.0
C2463 C 0.02256 0.33475 0.93396 0.0
C2464 C 0.00924 0.32788 0.92445 0.0
C2465 C 0.99392 0.33513 0.92484 0.0
C2466 C 0.99191 0.34876 0.93465 0.0
H2467 H 0.00612 0.35278 0.98964 0.0
H2468 H 0.0021 0.34203 0.97142 0.0
H2469 H 0.0224 0.35075 0.97707 0.0
H2470 H 0.03096 0.35344 0.95097 0.0
H2471 H 0.03448 0.32942 0.93402 0.0
H2472 H 0.69229 0.82566 0.25708 0.0
H2473 H 0.67074 0.81709 0.27338 0.0
H2474 H 0.67095 0.76753 0.25391 0.0
H2475 H 0.69267 0.77599 0.2377 0.0
H2476 H 0.6393 0.80315 0.26479 0.0
H2477 H 0.67549 0.76133 0.29924 0.0
H2478 H 0.68507 0.77593 0.28761 0.0
H2479 H 0.67537 0.75707 0.27925 0.0
C2480 C 0.68778 0.81292 0.25634 0.0
C2481 C 0.69418 0.80151 0.24617 0.0
C2482 C 0.67548 0.80804 0.26563 0.0
C2483 C 0.66938 0.79163 0.265 0.0
C2484 C 0.6757 0.78019 0.25479 0.0
H2485 H 0.59318 0.74286 0.31386 0.0
H2486 H 0.61468 0.74925 0.29674 0.0
C2487 C 0.68804 0.78507 0.24547 0.0
C2488 C 0.6561 0.78671 0.27476 0.0
H2489 H 0.64711 0.76239 0.30336 0.0
C2490 C 0.64101 0.79425 0.27323 0.0
C2491 C 0.65834 0.77503 0.28572 0.0
C2492 C 0.67447 0.76694 0.2882 0.0
C2493 C 0.62806 0.79041 0.28233 0.0
C2494 C 0.63038 0.77893 0.29345 0.0
C2495 C 0.64538 0.7712 0.29484 0.0
C2496 C 0.61747 0.77504 0.30393 0.0
C2497 C 0.61193 0.79851 0.27982 0.0
C2498 C 0.6121 0.78736 0.31382 0.0
C2499 C 0.59978 0.78378 0.32354 0.0
C2500 C 0.59262 0.76776 0.32366 0.0
C2501 C 0.59825 0.75537 0.31391 0.0
C2502 C 0.6106 0.75898 0.30419 0.0
H2503 H 0.61062 0.80336 0.26845 0.0
H2504 H 0.6013 0.78978 0.28115 0.0
H2505 H 0.61143 0.80898 0.28825 0.0
H2506 H 0.61744 0.79979 0.314 0.0
H2507 H 0.59565 0.79365 0.33079 0.0
H2508 H 0.0333 0.08143 0.01139 0.0
H2509 H 0.02662 0.10066 0.99211 0.0
H2510 H 0.07783 0.1174 0.99325 0.0
H2511 H 0.08462 0.09777 0.01207 0.0
H2512 H 0.0293 0.13304 0.99233 0.0
H2513 H 0.06851 0.10794 0.94904 0.0
H2514 H 0.06443 0.09737 0.96571 0.0
H2515 H 0.0803 0.11361 0.96635 0.0
C2516 C 0.04313 0.08918 0.00748 0.0
C2517 C 0.05951 0.08808 0.01315 0.0
C2518 C 0.0393 0.10016 0.99646 0.0
C2519 C 0.05177 0.11026 0.99097 0.0
C2520 C 0.06807 0.10941 0.99694 0.0
H2521 H 0.03797 0.20026 0.9458 0.0
H2522 H 0.04242 0.17927 0.96389 0.0
C2523 C 0.07192 0.09829 0.00779 0.0
C2524 C 0.04772 0.12197 0.97931 0.0
H2525 H 0.05876 0.13468 0.94538 0.0
C2526 C 0.03565 0.1333 0.982 0.0
C2527 C 0.05573 0.12214 0.96567 0.0
C2528 C 0.06782 0.10949 0.96144 0.0
C2529 C 0.03171 0.14507 0.97166 0.0
C2530 C 0.04047 0.14588 0.95847 0.0
C2531 C 0.05221 0.13425 0.95558 0.0
C2532 C 0.03772 0.15868 0.94751 0.0
C2533 C 0.018 0.15628 0.97491 0.0
C2534 C 0.03423 0.15418 0.93216 0.0
C2535 C 0.03204 0.16618 0.92176 0.0
C2536 C 0.03317 0.18292 0.92653 0.0
C2537 C 0.03676 0.18743 0.94186 0.0
C2538 C 0.03919 0.17544 0.95222 0.0
H2539 H 0.00919 0.15067 0.9824 0.0
H2540 H 0.02333 0.16788 0.98074 0.0
H2541 H 0.01107 0.15928 0.96439 0.0
H2542 H 0.03312 0.14135 0.92822 0.0
H2543 H 0.02922 0.16237 0.91001 0.0
H2544 H 0.35026 0.2503 0.26661 0.0
H2545 H 0.37136 0.24883 0.24814 0.0
H2546 H 0.36459 0.29933 0.23878 0.0
H2547 H 0.34357 0.30091 0.25719 0.0
H2548 H 0.36715 0.25562 0.21641 0.0
H2549 H 0.41521 0.29687 0.24822 0.0
H2550 H 0.3982 0.28727 0.25711 0.0
H2551 H 0.39499 0.30474 0.24619 0.0
C2552 C 0.35334 0.26109 0.26064 0.0
C2553 C 0.34529 0.27569 0.26334 0.0
C2554 C 0.36534 0.26023 0.2501 0.0
C2555 C 0.36963 0.27402 0.24222 0.0
C2556 C 0.36161 0.28863 0.2449 0.0
H2557 H 0.44195 0.29354 0.17685 0.0
H2558 H 0.42004 0.29529 0.19431 0.0
C2559 C 0.34955 0.28947 0.25538 0.0
C2560 C 0.38224 0.27303 0.23095 0.0
H2561 H 0.42057 0.28794 0.22342 0.0
C2562 C 0.37886 0.26263 0.21793 0.0
C2563 C 0.39743 0.28229 0.23295 0.0
C2564 C 0.40181 0.29335 0.24691 0.0
C2565 C 0.3902 0.26142 0.20673 0.0
C2566 C 0.40552 0.27053 0.2088 0.0
C2567 C 0.40884 0.28097 0.22182 0.0
C2568 C 0.41837 0.26927 0.19772 0.0
C2569 C 0.38548 0.25068 0.19263 0.0
C2570 C 0.42479 0.25408 0.19386 0.0
C2571 C 0.43714 0.25298 0.18369 0.0
C2572 C 0.44356 0.26711 0.17732 0.0
C2573 C 0.43715 0.28235 0.1813 0.0
C2574 C 0.4247 0.28341 0.1914 0.0
H2575 H 0.37188 0.24871 0.19075 0.0
H2576 H 0.39034 0.25612 0.18257 0.0
H2577 H 0.3907 0.23849 0.19376 0.0
H2578 H 0.42039 0.24305 0.19884 0.0
H2579 H 0.44163 0.24101 0.1808 0.0
H2580 H 0.57581 0.44573 0.01991 0.0
H2581 H 0.56875 0.4225 0.03485 0.0
H2582 H 0.53058 0.40543 1.00105 0.0
H2583 H 0.5379 0.42842 0.98588 0.0
H2584 H 0.5401 0.41461 0.04717 0.0
H2585 H 0.55495 0.36406 0.00674 0.0
H2586 H 0.56116 0.38524 0.00451 0.0
H2587 H 0.54037 0.37767 0.99917 0.0
C2588 C 0.56599 0.43694 0.01563 0.0
C2589 C 0.55748 0.43882 1.00172 0.0
C2590 C 0.56194 0.4237 0.02418 0.0
C2591 C 0.5493 0.41207 0.01898 0.0
C2592 C 0.54064 0.41401 0.00513 0.0
H2593 H 0.50631 0.32753 0.06102 0.0
H2594 H 0.51171 0.34996 0.04467 0.0
C2595 C 0.54477 0.42722 0.99651 0.0
C2596 C 0.54495 0.39823 0.02834 0.0
H2597 H 0.54205 0.35635 0.02858 0.0
C2598 C 0.54056 0.40187 0.0431 0.0
C2599 C 0.54553 0.3816 0.02303 0.0
C2600 C 0.5509 0.37686 0.00755 0.0
C2601 C 0.53671 0.38938 0.05266 0.0
C2602 C 0.53737 0.3728 0.04736 0.0
C2603 C 0.54153 0.3691 0.03257 0.0
C2604 C 0.5342 0.35914 0.05719 0.0
C2605 C 0.53185 0.39398 0.06834 0.0
C2606 C 0.54518 0.35677 0.06952 0.0
C2607 C 0.54226 0.34387 0.07879 0.0
C2608 C 0.52825 0.33306 0.07593 0.0
C2609 C 0.51732 0.33546 0.06348 0.0
C2610 C 0.52032 0.34833 0.05416 0.0
H2611 H 0.52855 0.407 0.06961 0.0
H2612 H 0.52122 0.38598 0.07124 0.0
H2613 H 0.54235 0.39221 0.07652 0.0
H2614 H 0.55611 0.36485 0.07189 0.0
H2615 H 0.55113 0.34222 0.08806 0.0
H2616 H 0.70849 0.20224 0.23497 0.0
H2617 H 0.68459 0.20885 0.21875 0.0
H2618 H 0.6699 0.24275 0.25371 0.0
H2619 H 0.69382 0.23637 0.26987 0.0
H2620 H 0.65116 0.20539 0.22395 0.0
H2621 H 0.67012 0.27061 0.21708 0.0
H2622 H 0.68421 0.25616 0.22435 0.0
H2623 H 0.66969 0.26525 0.23629 0.0
C2624 C 0.70018 0.21115 0.23915 0.0
C2625 C 0.70307 0.21884 0.25362 0.0
C2626 C 0.68654 0.2149 0.2299 0.0
C2627 C 0.67562 0.22648 0.23494 0.0
C2628 C 0.67837 0.23403 0.24948 0.0
H2629 H 0.58503 0.26323 0.196 0.0
H2630 H 0.6087 0.25699 0.21264 0.0
C2631 C 0.692 0.2303 0.25873 0.0
C2632 C 0.66116 0.23036 0.2251 0.0
H2633 H 0.64311 0.26161 0.20756 0.0
C2634 C 0.64943 0.21767 0.22031 0.0
C2635 C 0.65892 0.2464 0.2204 0.0
C2636 C 0.67146 0.26038 0.22467 0.0
C2637 C 0.6354 0.22061 0.2111 0.0
C2638 C 0.63318 0.23664 0.2064 0.0
C2639 C 0.64486 0.24935 0.21122 0.0
C2640 C 0.61889 0.24039 0.19631 0.0
C2641 C 0.6229 0.20663 0.20669 0.0
C2642 C 0.61692 0.23329 0.18157 0.0
C2643 C 0.60343 0.23681 0.17206 0.0
C2644 C 0.59165 0.24754 0.17711 0.0
C2645 C 0.59377 0.25477 0.19185 0.0
C2646 C 0.60732 0.25129 0.20133 0.0
H2647 H 0.62437 0.19623 0.21406 0.0
H2648 H 0.61015 0.21079 0.2072 0.0
H2649 H 0.62456 0.20205 0.19496 0.0
H2650 H 0.62585 0.22503 0.17741 0.0
H2651 H 0.60209 0.23093 0.16082 0.0
H2652 H 0.5071 0.07268 0.98684 0.0
H2653 H 0.51159 0.09737 0.00363 0.0
H2654 H 0.45944 0.0975 0.00975 0.0
H2655 H 0.45467 0.07359 0.99212 0.0
H2656 H 0.47105 0.12738 0.00652 0.0
H2657 H 0.51235 0.0995 0.04845 0.0
H2658 H 0.52012 0.09864 0.03007 0.0
H2659 H 0.50112 0.08749 0.0332 0.0
C2660 C 0.49653 0.07806 0.99157 0.0
C2661 C 0.48051 0.07097 0.98817 0.0
C2662 C 0.49917 0.09205 1.0014 0.0
C2663 C 0.48591 0.09907 0.00829 0.0
C2664 C 0.4699 0.09222 0.00471 0.0
H2665 H 0.4952 0.1671 0.08728 0.0
H2666 H 0.49057 0.1432 0.06935 0.0
C2667 C 0.46721 0.0784 0.99473 0.0
C2668 C 0.4886 0.11371 0.01903 0.0
H2669 H 0.51021 0.12843 0.05145 0.0
C2670 C 0.47957 0.12758 0.01638 0.0
C2671 C 0.49951 0.11389 0.03205 0.0
C2672 C 0.50869 0.09902 0.03621 0.0
C2673 C 0.48119 0.14164 0.0263 0.0
C2674 C 0.49263 0.14209 0.03896 0.0
C2675 C 0.50158 0.12817 0.04167 0.0
C2676 C 0.49527 0.1567 0.04974 0.0
C2677 C 0.47026 0.15565 0.02329 0.0
C2678 C 0.49961 0.17222 0.04473 0.0
C2679 C 0.50198 0.18592 0.05493 0.0
C2680 C 0.50046 0.18426 0.07037 0.0
C2681 C 0.49649 0.16868 0.07543 0.0
C2682 C 0.49384 0.15505 0.0652 0.0
H2683 H 0.45895 0.15142 0.01623 0.0
H2684 H 0.46652 0.16169 0.03392 0.0
H2685 H 0.47707 0.16491 0.01709 0.0
H2686 H 0.50131 0.17375 0.03295 0.0
H2687 H 0.50531 0.19775 0.05079 0.0
H2688 H 0.24352 0.3484 0.72134 0.0
H2689 H 0.26259 0.37241 0.72686 0.0
H2690 H 0.30288 0.34406 0.71284 0.0
H2691 H 0.28402 0.31985 0.7078 0.0
H2692 H 0.31057 0.36302 0.73937 0.0
H2693 H 0.28268 0.40019 0.69526 0.0
H2694 H 0.26843 0.39281 0.70823 0.0
H2695 H 0.27795 0.37844 0.6959 0.0
C2696 C 0.25646 0.34722 0.71958 0.0
C2697 C 0.26223 0.33222 0.71404 0.0
C2698 C 0.26731 0.36101 0.72257 0.0
C2699 C 0.28409 0.36009 0.72001 0.0
C2700 C 0.28994 0.34507 0.71478 0.0
H2701 H 0.35617 0.44024 0.7122 0.0
H2702 H 0.33704 0.41614 0.70819 0.0
C2703 C 0.27913 0.33128 0.7118 0.0
C2704 C 0.29562 0.37474 0.72281 0.0
H2705 H 0.30355 0.4136 0.71197 0.0
C2706 C 0.30905 0.37409 0.73338 0.0
C2707 C 0.29372 0.38907 0.71484 0.0
C2708 C 0.28002 0.39019 0.70282 0.0
C2709 C 0.32056 0.38744 0.7363 0.0
C2710 C 0.31842 0.40193 0.72861 0.0
C2711 C 0.30508 0.40253 0.71795 0.0
C2712 C 0.3301 0.41649 0.73121 0.0
C2713 C 0.33511 0.38579 0.74734 0.0
C2714 C 0.33243 0.42479 0.74546 0.0
C2715 C 0.34346 0.4385 0.74783 0.0
C2716 C 0.35232 0.44425 0.73596 0.0
C2717 C 0.34978 0.436 0.72165 0.0
C2718 C 0.33875 0.42229 0.7193 0.0
H2719 H 0.33724 0.37272 0.74928 0.0
H2720 H 0.34652 0.39158 0.74333 0.0
H2721 H 0.33272 0.39206 0.7583 0.0
H2722 H 0.32565 0.4207 0.75475 0.0
H2723 H 0.3452 0.44447 0.75902 0.0
H2724 H 0.27328 0.6857 0.81568 0.0
H2725 H 0.29327 0.66507 0.81025 0.0
H2726 H 0.29301 0.67875 0.7643 0.0
H2727 H 0.27345 0.69975 0.76973 0.0
H2728 H 0.28927 0.63835 0.78925 0.0
H2729 H 0.34221 0.67968 0.77678 0.0
H2730 H 0.32468 0.687 0.78611 0.0
H2731 H 0.32339 0.68293 0.76604 0.0
C2732 C 0.27768 0.68451 0.80448 0.0
C2733 C 0.27179 0.69443 0.79315 0.0
C2734 C 0.28902 0.67264 0.80137 0.0
C2735 C 0.2948 0.67052 0.78692 0.0
C2736 C 0.28896 0.68038 0.77559 0.0
H2737 H 0.35903 0.60247 0.74429 0.0
H2738 H 0.34021 0.62411 0.75008 0.0
C2739 C 0.27762 0.69225 0.77868 0.0
C2740 C 0.30643 0.65756 0.78356 0.0
H2741 H 0.34463 0.65113 0.7712 0.0
C2742 C 0.30141 0.64115 0.78539 0.0
C2743 C 0.32224 0.66123 0.77846 0.0
C2744 C 0.32855 0.67867 0.77685 0.0
C2745 C 0.31166 0.62827 0.78201 0.0
C2746 C 0.32748 0.63194 0.77692 0.0
C2747 C 0.3325 0.64835 0.77508 0.0
C2748 C 0.33901 0.61891 0.77349 0.0
C2749 C 0.30532 0.61083 0.78359 0.0
C2750 C 0.34476 0.60897 0.78478 0.0
C2751 C 0.35543 0.59653 0.78149 0.0
C2752 C 0.36065 0.59385 0.76685 0.0
C2753 C 0.35507 0.60404 0.75562 0.0
C2754 C 0.3444 0.61648 0.75893 0.0
H2755 H 0.29166 0.60985 0.78375 0.0
H2756 H 0.30908 0.60253 0.77425 0.0
H2757 H 0.31056 0.60649 0.79434 0.0
H2758 H 0.34099 0.61082 0.79616 0.0
H2759 H 0.35934 0.58884 0.79039 0.0
H2760 H 0.9526 0.51987 0.49913 0.0
H2761 H 0.92919 0.50128 0.50368 0.0
H2762 H 0.91775 0.49355 0.45591 0.0
H2763 H 0.94083 0.5125 0.45121 0.0
H2764 H 0.89461 0.50559 0.49225 0.0
H2765 H 0.91953 0.44634 0.47283 0.0
H2766 H 0.93267 0.46437 0.4786 0.0
H2767 H 0.9214 0.46301 0.46061 0.0
C2768 C 0.94507 0.5143 0.48957 0.0
C2769 C 0.94859 0.51774 0.47479 0.0
C2770 C 0.93178 0.5036 0.4922 0.0
C2771 C 0.92187 0.49598 0.48013 0.0
C2772 C 0.92543 0.49916 0.46537 0.0
H2773 H 0.83596 0.42858 0.47163 0.0
H2774 H 0.86027 0.44611 0.46768 0.0
C2775 C 0.93866 0.50994 0.46271 0.0
C2776 C 0.90735 0.48527 0.48299 0.0
H2777 H 0.89174 0.44561 0.47914 0.0
C2778 C 0.89397 0.49246 0.48946 0.0
C2779 C 0.90659 0.46821 0.47922 0.0
C2780 C 0.92082 0.45992 0.47252 0.0
C2781 C 0.87963 0.48305 0.49202 0.0
C2782 C 0.87888 0.46591 0.48839 0.0
C2783 C 0.89233 0.45873 0.48195 0.0
C2784 C 0.86415 0.45524 0.49095 0.0
C2785 C 0.86525 0.49167 0.49815 0.0
C2786 C 0.85835 0.45436 0.50539 0.0
C2787 C 0.84425 0.44456 0.50765 0.0
C2788 C 0.83579 0.43524 0.49554 0.0
C2789 C 0.84191 0.43585 0.48116 0.0
C2790 C 0.85592 0.44575 0.4789 0.0
H2791 H 0.866 0.50499 0.49622 0.0
H2792 H 0.85334 0.48622 0.49292 0.0
H2793 H 0.86535 0.49041 0.51047 0.0
H2794 H 0.86471 0.46127 0.51493 0.0
H2795 H 0.83987 0.44449 0.51886 0.0
H2796 H 0.77292 0.82872 0.81334 0.0
H2797 H 0.75313 0.8495 0.80795 0.0
H2798 H 0.75274 0.83547 0.76058 0.0
H2799 H 0.77184 0.81412 0.76592 0.0
H2800 H 0.75664 0.87589 0.79138 0.0
H2801 H 0.70407 0.83548 0.76648 0.0
H2802 H 0.7216 0.82762 0.77656 0.0
H2803 H 0.72274 0.83249 0.75723 0.0
C2804 C 0.76838 0.82981 0.8018 0.0
C2805 C 0.77395 0.81965 0.79008 0.0
C2806 C 0.75716 0.8418 0.79872 0.0
C2807 C 0.75123 0.84388 0.78388 0.0
C2808 C 0.75683 0.83385 0.77215 0.0
H2809 H 0.6926 0.91622 0.74111 0.0
H2810 H 0.71083 0.89407 0.74687 0.0
C2811 C 0.76796 0.82179 0.77522 0.0
C2812 C 0.73976 0.85701 0.78062 0.0
H2813 H 0.70228 0.86419 0.76349 0.0
C2814 C 0.7447 0.8733 0.78538 0.0
C2815 C 0.72417 0.85364 0.77279 0.0
C2816 C 0.71774 0.83634 0.7681 0.0
C2817 C 0.73463 0.88632 0.78228 0.0
C2818 C 0.71918 0.88295 0.77429 0.0
C2819 C 0.71419 0.8667 0.76955 0.0
C2820 C 0.708 0.89618 0.77083 0.0
C2821 C 0.74066 0.90364 0.78733 0.0
C2822 C 0.70027 0.90453 0.78239 0.0
C2823 C 0.68983 0.91713 0.77915 0.0
C2824 C 0.68699 0.92164 0.76427 0.0
C2825 C 0.69468 0.91314 0.75269 0.0
C2826 C 0.70502 0.90045 0.75595 0.0
H2827 H 0.75402 0.90449 0.79089 0.0
H2828 H 0.73842 0.91204 0.77815 0.0
H2829 H 0.73376 0.90796 0.79701 0.0
H2830 H 0.70233 0.90131 0.79394 0.0
H2831 H 0.68422 0.92354 0.78832 0.0
H2832 H 0.59744 0.50226 0.94206 0.0
H2833 H 0.62117 0.52179 0.94701 0.0
H2834 H 0.61224 0.52502 0.99419 0.0
H2835 H 0.58834 0.5056 0.98932 0.0
H2836 H 0.62095 0.55425 0.95992 0.0
H2837 H 0.66157 0.51578 0.99389 0.0
H2838 H 0.64387 0.50725 0.98231 0.0
H2839 H 0.64117 0.51763 1.00023 0.0
C2840 C 0.60048 0.50715 0.95349 0.0
C2841 C 0.59098 0.50238 0.9653 0.0
C2842 C 0.61409 0.51825 0.9563 0.0
C2843 C 0.61856 0.5247 0.97098 0.0
C2844 C 0.60919 0.51993 0.98282 0.0
H2845 H 0.69621 0.59488 0.00861 0.0
H2846 H 0.67233 0.5754 0.00464 0.0
C2847 C 0.59555 0.50883 0.98002 0.0
C2848 C 0.63267 0.5369 0.97375 0.0
H2849 H 0.67074 0.5435 0.99204 0.0
C2850 C 0.63187 0.5519 0.9669 0.0
C2851 C 0.64683 0.53381 0.98293 0.0
C2852 C 0.64855 0.5177 0.99018 0.0
C2853 C 0.6448 0.56399 0.9691 0.0
C2854 C 0.65905 0.56084 0.97815 0.0
C2855 C 0.6598 0.54587 0.98509 0.0
C2856 C 0.67339 0.57285 0.98046 0.0
C2857 C 0.64292 0.58015 0.96196 0.0
C2858 C 0.682 0.57777 0.96819 0.0
C2859 C 0.69555 0.58902 0.9704 0.0
C2860 C 0.70087 0.59549 0.98495 0.0
C2861 C 0.6923 0.59038 0.99723 0.0
C2862 C 0.67872 0.57914 0.995 0.0
H2863 H 0.62978 0.58233 0.95901 0.0
H2864 H 0.64829 0.59055 0.96957 0.0
H2865 H 0.64952 0.58 0.95144 0.0
H2866 H 0.67829 0.57282 0.9569 0.0
H2867 H 0.70178 0.59276 0.96068 0.0
H2868 H 0.29571 0.66538 0.22688 0.0
H2869 H 0.27699 0.64188 0.23077 0.0
H2870 H 0.2353 0.67006 0.21867 0.0
H2871 H 0.25388 0.69379 0.21511 0.0
H2872 H 0.2502 0.6417 0.25128 0.0
H2873 H 0.2288 0.62636 0.19146 0.0
H2874 H 0.24754 0.63863 0.19686 0.0
H2875 H 0.22789 0.64749 0.19812 0.0
C2876 C 0.28256 0.66665 0.22514 0.0
C2877 C 0.27631 0.68151 0.22069 0.0
C2878 C 0.2719 0.65317 0.22728 0.0
C2879 C 0.2548 0.65421 0.22487 0.0
C2880 C 0.24849 0.66895 0.22036 0.0
H2881 H 0.17142 0.58474 0.23094 0.0
H2882 H 0.18949 0.60872 0.22691 0.0
C2883 C 0.25913 0.68248 0.21829 0.0
C2884 C 0.24357 0.64001 0.2275 0.0
H2885 H 0.21597 0.61134 0.20976 0.0
C2886 C 0.24273 0.63501 0.24222 0.0
C2887 C 0.2338 0.63143 0.21565 0.0
C2888 C 0.23456 0.63611 0.19959 0.0
C2889 C 0.2322 0.62174 0.24546 0.0
C2890 C 0.22257 0.61297 0.23357 0.0
C2891 C 0.22337 0.61805 0.21885 0.0
C2892 C 0.21166 0.59844 0.23614 0.0
C2893 C 0.2312 0.61748 0.26162 0.0
C2894 C 0.21815 0.58462 0.24249 0.0
C2895 C 0.20785 0.57093 0.24484 0.0
C2896 C 0.19089 0.57071 0.2407 0.0
C2897 C 0.18446 0.58449 0.23414 0.0
C2898 C 0.19475 0.59821 0.23188 0.0
H2899 H 0.23544 0.62804 0.26956 0.0
H2900 H 0.21842 0.61353 0.26398 0.0
H2901 H 0.23929 0.60723 0.26385 0.0
H2902 H 0.23123 0.58434 0.24548 0.0
H2903 H 0.21322 0.5604 0.24966 0.0
H2904 H 0.95626 0.51338 0.0132 0.0
H2905 H 0.93536 0.5334 0.00874 0.0
H2906 H 0.91992 0.52895 0.05375 0.0
H2907 H 0.94079 0.50893 0.0583 0.0
H2908 H 0.90156 0.52964 0.00975 0.0
H2909 H 0.92699 0.57845 0.05186 0.0
H2910 H 0.93869 0.56131 0.0459 0.0
H2911 H 0.92352 0.55884 0.05952 0.0
C2912 C 0.94838 0.51662 0.02213 0.0
C2913 C 0.95023 0.5096 0.03613 0.0
C2914 C 0.9365 0.52812 0.01959 0.0
C2915 C 0.92627 0.53288 0.03099 0.0
C2916 C 0.92796 0.52578 0.04492 0.0
H2917 H 0.84369 0.59556 0.0369 0.0
H2918 H 0.86544 0.5764 0.04129 0.0
C2919 C 0.93987 0.51431 0.04749 0.0
C2920 C 0.9135 0.5449 0.02814 0.0
H2921 H 0.90026 0.58204 0.0406 0.0
C2922 C 0.90134 0.54115 0.01643 0.0
C2923 C 0.91322 0.55991 0.03688 0.0
C2924 C 0.92639 0.56498 0.04915 0.0
C2925 C 0.8887 0.55183 0.01341 0.0
C2926 C 0.88837 0.56677 0.02221 0.0
C2927 C 0.90055 0.57056 0.03389 0.0
C2928 C 0.87538 0.57857 0.01953 0.0
C2929 C 0.87558 0.54687 1.00107 0.0
C2930 C 0.87392 0.58633 0.00592 0.0
C2931 C 0.86148 0.59725 0.00336 0.0
C2932 C 0.85027 0.60064 0.01438 0.0
C2933 C 0.85196 0.59304 0.0281 0.0
C2934 C 0.86444 0.58216 0.03067 0.0
H2935 H 0.87541 0.53352 0.99779 0.0
H2936 H 0.86319 0.54991 0.0046 0.0
H2937 H 0.87807 0.5537 0.99099 0.0
H2938 H 0.8824 0.58391 0.99727 0.0
H2939 H 0.86046 0.60279 0.99263 0.0
H2940 H 0.07914 0.01866 0.0215 0.0
H2941 H 0.10129 1.00039 0.01633 0.0
H2942 H 0.11446 0.99997 0.06382 0.0
H2943 H 0.09264 0.01865 0.06915 0.0
H2944 H 0.13672 0.0068 0.02625 0.0
H2945 H 0.10806 0.95026 0.04769 0.0
H2946 H 0.09614 0.9673 0.04225 0.0
H2947 H 0.10837 0.96873 0.05976 0.0
C2948 C 0.08682 0.01484 0.03087 0.0
C2949 C 0.08409 0.0202 0.04576 0.0
C2950 C 0.09941 0.0043 0.02788 0.0
C2951 C 0.10939 0.99874 0.0397 0.0
C2952 C 0.10671 0.00396 0.05456 0.0
H2953 H 0.18931 0.93239 0.04423 0.0
H2954 H 0.16725 0.95067 0.04951 0.0
C2955 C 0.0942 0.01459 0.05757 0.0
C2956 C 0.12287 0.98779 0.03642 0.0
H2957 H 0.13517 0.94877 0.03991 0.0
C2958 C 0.13641 0.9941 0.02919 0.0
C2959 C 0.1224 0.97128 0.04035 0.0
C2960 C 0.10794 0.96387 0.04786 0.0
C2961 C 0.14967 0.98438 0.02599 0.0
C2962 C 0.14914 0.96776 0.02974 0.0
C2963 C 0.13556 0.96148 0.037 0.0
C2964 C 0.16261 0.95672 0.0264 0.0
C2965 C 0.16431 0.99217 0.01899 0.0
C2966 C 0.16722 0.95383 0.01161 0.0
C2967 C 0.18005 0.94359 0.00857 0.0
C2968 C 0.18839 0.9358 0.02024 0.0
C2969 C 0.18344 0.93843 0.035 0.0
C2970 C 0.17071 0.94877 0.03803 0.0
H2971 H 0.16496 0.00575 0.02093 0.0
H2972 H 0.17604 0.98744 0.02356 0.0
H2973 H 0.16316 0.98925 0.00666 0.0
H2974 H 0.1609 0.9595 0.00238 0.0
H2975 H 0.18355 0.94197 0.99709 0.0
loop_
_geom_bond_atom_site_label_1
_geom_bond_atom_site_label_2
_geom_bond_distance
_geom_bond_site_symmetry_2
_ccdc_geom_bond_type
H0 C5 0.930 . S
H1 C8 0.930 . S
H2 C10 0.930 . S
H3 C4 1.016 . S
C4 H3 1.016 . S
C4 N11 1.286 . S
C5 H0 0.930 . S
C5 C6 1.397 . S
C5 C7 1.361 . S
C6 C5 1.397 . S
C6 C10 1.390 . S
C7 C5 1.361 . S
C7 C8 1.393 . S
C7 N11 1.413 . S
C8 H1 0.930 . S
C8 C7 1.393 . S
C8 C9 1.399 . S
C9 C8 1.399 . S
C9 C10 1.381 . S
C10 H2 0.930 . S
C10 C6 1.390 . S
C10 C9 1.381 . S
N11 C4 1.286 . S
N11 C7 1.413 . S
H12 C17 0.930 . S
H13 C20 0.930 . S
H14 C22 0.930 . S
H15 C16 1.016 . S
C16 H15 1.016 . S
C16 N23 1.286 . S
C17 H12 0.930 . S
C17 C18 1.397 . S
C17 C19 1.361 . S
C18 C17 1.397 . S
C18 C22 1.390 . S
C19 C17 1.361 . S
C19 C20 1.393 . S
C19 N23 1.413 . S
C20 H13 0.930 . S
C20 C19 1.393 . S
C20 C21 1.399 . S
C21 C20 1.399 . S
C21 C22 1.381 . S
C22 H14 0.930 . S
C22 C18 1.390 . S
C22 C21 1.381 . S
N23 C16 1.286 . S
N23 C19 1.413 . S
H24 C29 0.930 . S
H25 C32 0.930 . S
H26 C34 0.930 . S
H27 C28 1.016 . S
C28 H27 1.016 . S
C28 N35 1.286 . S
C29 H24 0.930 . S
C29 C30 1.397 . S
C29 C31 1.361 . S
C30 C29 1.397 . S
C30 C34 1.390 . S
C31 C29 1.361 . S
C31 C32 1.393 . S
C31 N35 1.413 . S
C32 H25 0.930 . S
C32 C31 1.393 . S
C32 C33 1.399 . S
C33 C32 1.399 . S
C33 C34 1.381 . S
C34 H26 0.930 . S
C34 C30 1.390 . S
C34 C33 1.381 . S
N35 C28 1.286 . S
N35 C31 1.413 . S
H36 C41 0.930 . S
H37 C44 0.930 . S
H38 C46 0.930 . S
H39 C40 1.016 . S
C40 H39 1.016 . S
C40 N47 1.286 . S
C41 H36 0.930 . S
C41 C42 1.397 . S
C41 C43 1.361 . S
C42 C41 1.397 . S
C42 C46 1.390 . S
C43 C41 1.361 . S
C43 C44 1.393 . S
C43 N47 1.413 . S
C44 H37 0.930 . S
C44 C43 1.393 . S
C44 C45 1.399 . S
C45 C44 1.399 . S
C45 C46 1.381 . S
C46 H38 0.930 . S
C46 C42 1.390 . S
C46 C45 1.381 . S
N47 C40 1.286 . S
N47 C43 1.413 . S
H48 C53 0.930 . S
H49 C56 0.930 . S
H50 C58 0.920 1_545 S
H51 C52 1.016 . S
C52 H51 1.016 . S
C52 N59 1.286 . S
C53 H48 0.930 . S
C53 C54 1.397 . S
C53 C55 1.361 . S
C54 C53 1.397 . S
C54 C58 1.390 . S
C55 C53 1.361 . S
C55 C56 1.393 . S
C55 N59 1.413 . S
C56 H49 0.930 . S
C56 C55 1.393 . S
C56 C57 1.399 . S
C57 C56 1.399 . S
C57 C58 1.381 . S
C58 H50 0.920 1_565 S
C58 C54 1.390 . S
C58 C57 1.381 . S
N59 C52 1.286 . S
N59 C55 1.413 . S
H60 C65 0.930 . S
H61 C68 0.930 . S
H62 C70 0.930 . S
H63 C64 1.016 . S
C64 H63 1.016 . S
C64 N71 1.286 . S
C65 H60 0.930 . S
C65 C66 1.397 . S
C65 C67 1.361 . S
C66 C65 1.397 . S
C66 C70 1.390 . S
C67 C65 1.361 . S
C67 C68 1.393 . S
C67 N71 1.413 . S
C68 H61 0.930 . S
C68 C67 1.393 . S
C68 C69 1.399 . S
C69 C68 1.399 . S
C69 C70 1.381 . S
C70 H62 0.930 . S
C70 C66 1.390 . S
C70 C69 1.381 . S
N71 C64 1.286 . S
N71 C67 1.413 . S
H72 C77 0.930 1_455 S
H73 C80 0.930 . S
H74 C82 0.930 . S
H75 C76 1.016 . S
C76 H75 1.016 . S
C76 N83 1.286 . S
C77 H72 0.930 1_655 S
C77 C78 1.397 . S
C77 C79 1.361 . S
C78 C77 1.397 . S
C78 C82 1.390 . S
C79 C77 1.361 . S
C79 C80 1.393 . S
C79 N83 1.413 1_655 S
C80 H73 0.930 . S
C80 C79 1.393 . S
C80 C81 1.399 . S
C81 C80 1.399 . S
C81 C82 1.381 . S
C82 H74 0.930 . S
C82 C78 1.390 . S
C82 C81 1.381 . S
N83 C76 1.286 . S
N83 C79 1.413 1_455 S
H84 C89 0.930 . S
H85 C92 0.930 . S
H86 C94 0.930 . S
H87 C88 1.016 . S
C88 H87 1.016 . S
C88 N95 1.286 . S
C89 H84 0.930 . S
C89 C90 1.397 . S
C89 C91 1.361 . S
C90 C89 1.397 . S
C90 C94 1.390 . S
C91 C89 1.361 . S
C91 C92 1.393 . S
C91 N95 1.413 . S
C92 H85 0.930 . S
C92 C91 1.393 . S
C92 C93 1.399 . S
C93 C92 1.399 . S
C93 C94 1.381 . S
C94 H86 0.930 . S
C94 C90 1.390 . S
C94 C93 1.381 . S
N95 C88 1.286 . S
N95 C91 1.413 . S
H96 C101 0.930 . S
H97 C104 0.930 . S
H98 C106 0.930 . S
H99 C100 1.016 . S
C100 H99 1.016 . S
C100 N107 1.286 . S
C101 H96 0.930 . S
C101 C102 1.397 . S
C101 C103 1.361 . S
C102 C101 1.397 . S
C102 C106 1.390 . S
C103 C101 1.361 . S
C103 C104 1.393 . S
C103 N107 1.413 . S
C104 H97 0.930 . S
C104 C103 1.393 . S
C104 C105 1.399 . S
C105 C104 1.399 . S
C105 C106 1.381 . S
C106 H98 0.930 . S
C106 C102 1.390 . S
C106 C105 1.381 . S
N107 C100 1.286 . S
N107 C103 1.413 . S
H108 C113 0.930 . S
H109 C116 0.930 . S
H110 C118 0.930 1_545 S
H111 C112 1.016 . S
C112 H111 1.016 . S
C112 N119 1.286 . S
C113 H108 0.930 . S
C113 C114 1.397 . S
C113 C115 1.361 . S
C114 C113 1.397 . S
C114 C118 1.390 . S
C115 C113 1.361 . S
C115 C116 1.393 . S
C115 N119 1.413 . S
C116 H109 0.930 . S
C116 C115 1.393 . S
C116 C117 1.399 . S
C117 C116 1.399 . S
C117 C118 1.381 . S
C118 H110 0.930 1_565 S
C118 C114 1.390 . S
C118 C117 1.381 . S
N119 C112 1.286 . S
N119 C115 1.413 . S
H120 C125 0.930 . S
H121 C128 0.930 . S
H122 C130 0.930 . S
H123 C124 1.016 . S
C124 H123 1.016 . S
C124 N131 1.286 . S
C125 H120 0.930 . S
C125 C126 1.397 . S
C125 C127 1.361 . S
C126 C125 1.397 . S
C126 C130 1.390 . S
C127 C125 1.361 . S
C127 C128 1.393 . S
C127 N131 1.413 . S
C128 H121 0.930 . S
C128 C127 1.393 . S
C128 C129 1.399 . S
C129 C128 1.399 . S
C129 C130 1.381 . S
C130 H122 0.930 . S
C130 C126 1.390 . S
C130 C129 1.381 . S
N131 C124 1.286 . S
N131 C127 1.413 . S
H132 C137 0.930 . S
H133 C140 0.930 . S
H134 C142 0.930 . S
H135 C136 1.016 . S
C136 H135 1.016 . S
C136 N143 1.286 . S
C137 H132 0.930 . S
C137 C138 1.397 . S
C137 C139 1.361 . S
C138 C137 1.397 . S
C138 C142 1.390 . S
C139 C137 1.361 . S
C139 C140 1.393 . S
C139 N143 1.413 . S
C140 H133 0.930 . S
C140 C139 1.393 . S
C140 C141 1.399 . S
C141 C140 1.399 . S
C141 C142 1.381 . S
C142 H134 0.930 . S
C142 C138 1.390 . S
C142 C141 1.381 . S
N143 C136 1.286 . S
N143 C139 1.413 . S
H144 C149 0.930 . S
H145 C152 0.930 . S
H146 C154 0.930 . S
H147 C148 1.016 . S
C148 H147 1.016 . S
C148 N155 1.286 . S
C149 H144 0.930 . S
C149 C150 1.397 . S
C149 C151 1.361 . S
C150 C149 1.397 . S
C150 C154 1.390 . S
C151 C149 1.361 . S
C151 C152 1.393 . S
C151 N155 1.413 . S
C152 H145 0.930 . S
C152 C151 1.393 . S
C152 C153 1.399 . S
C153 C152 1.399 . S
C153 C154 1.381 . S
C154 H146 0.930 . S
C154 C150 1.390 . S
C154 C153 1.381 . S
N155 C148 1.286 . S
N155 C151 1.413 . S
H156 C161 0.930 . S
H157 C164 0.930 . S
H158 C166 0.930 . S
H159 C160 1.039 . S
C160 H159 1.039 . S
C160 N167 1.286 . S
C161 H156 0.930 . S
C161 C162 1.397 . S
C161 C163 1.361 . S
C162 C161 1.397 . S
C162 C166 1.390 . S
C163 C161 1.361 . S
C163 C164 1.393 . S
C163 N167 1.413 . S
C164 H157 0.930 . S
C164 C163 1.393 . S
C164 C165 1.399 . S
C165 C164 1.399 . S
C165 C166 1.381 . S
C166 H158 0.930 . S
C166 C162 1.390 . S
C166 C165 1.381 . S
N167 C160 1.286 . S
N167 C163 1.413 . S
H168 C173 0.930 . S
H169 C176 0.930 . S
H170 C178 0.930 . S
H171 C172 1.016 . S
C172 H171 1.016 . S
C172 N179 1.286 . S
C173 H168 0.930 . S
C173 C174 1.397 . S
C173 C175 1.361 . S
C174 C173 1.397 . S
C174 C178 1.390 . S
C175 C173 1.361 . S
C175 C176 1.393 . S
C175 N179 1.413 . S
C176 H169 0.930 . S
C176 C175 1.393 . S
C176 C177 1.399 . S
C177 C176 1.399 . S
C177 C178 1.381 . S
C178 H170 0.930 . S
C178 C174 1.390 . S
C178 C177 1.381 . S
N179 C172 1.286 . S
N179 C175 1.413 . S
H180 C185 0.930 . S
H181 C188 0.930 . S
H182 C190 0.930 . S
H183 C184 1.016 . S
C184 H183 1.016 . S
C184 N191 1.286 . S
C185 H180 0.930 . S
C185 C186 1.397 . S
C185 C187 1.361 . S
C186 C185 1.397 . S
C186 C190 1.390 . S
C187 C185 1.361 . S
C187 C188 1.393 . S
C187 N191 1.413 . S
C188 H181 0.930 . S
C188 C187 1.393 . S
C188 C189 1.399 . S
C189 C188 1.399 . S
C189 C190 1.381 . S
C190 H182 0.930 . S
C190 C186 1.390 . S
C190 C189 1.381 . S
N191 C184 1.286 . S
N191 C187 1.413 . S
Li192 N209 1.990 . S
Li192 O252 1.956 . S
Li192 O253 1.970 . S
Li192 O254 1.961 1_554 S
Li193 N217 1.990 . S
Li193 O252 1.970 . S
Li193 O253 1.956 . S
Li193 O255 1.961 . S
Li194 N239 1.990 . S
Li194 O252 1.961 1_556 S
Li194 O254 1.956 . S
Li194 O255 1.970 1_556 S
Li195 N245 1.990 . S
Li195 O253 1.961 . S
Li195 O254 1.970 1_554 S
Li195 O255 1.956 . S
C196 C198 1.348 . S
C196 C199 1.356 1_554 S
C196 O252 1.325 . S
N197 C200 1.314 . S
N197 C201 1.279 1_554 S
C198 C196 1.348 . S
C198 C200 1.353 . S
C198 H256 0.929 . S
C199 C196 1.356 1_556 S
C199 C201 1.358 . S
C199 H257 0.930 . S
C200 N197 1.314 . S
C200 C198 1.353 . S
C200 H258 0.930 . S
C201 N197 1.279 1_556 S
C201 C199 1.358 . S
C201 H259 0.930 . S
C202 C205 1.348 . S
C202 C206 1.356 . S
C202 O253 1.325 . S
C203 N204 1.279 . S
C203 C206 1.358 . S
C203 H260 0.930 . S
N204 C203 1.279 . S
N204 C207 1.314 . S
C205 C202 1.348 . S
C205 C207 1.353 . S
C205 H261 0.929 . S
C206 C202 1.356 . S
C206 C203 1.358 . S
C206 H262 0.930 . S
C207 N204 1.314 . S
C207 C205 1.353 . S
C207 H263 0.930 . S
C208 N209 1.314 . S
C208 C213 1.353 . S
C208 H214 0.930 . S
N209 Li192 1.990 . S
N209 C208 1.314 . S
N209 C211 1.279 . S
C210 C211 1.358 . S
C210 C212 1.356 . S
C210 H264 0.930 . S
C211 N209 1.279 . S
C211 C210 1.358 . S
C211 H215 0.930 . S
C212 C210 1.356 . S
C212 C213 1.348 . S
C213 C208 1.353 . S
C213 C212 1.348 . S
C213 H265 0.916 1_554 S
H214 C208 0.930 . S
H215 C211 0.930 . S
C216 N217 1.314 . S
C216 C218 1.353 . S
C216 H222 0.930 . S
N217 Li193 1.990 . S
N217 C216 1.314 . S
N217 C220 1.279 . S
C218 C216 1.353 . S
C218 C221 1.348 . S
C218 H266 0.929 . S
C219 C220 1.358 . S
C219 C221 1.356 . S
C219 H267 0.930 . S
C220 N217 1.279 . S
C220 C219 1.358 . S
C220 H223 0.930 . S
C221 C218 1.348 . S
C221 C219 1.356 . S
H222 C216 0.930 . S
H223 C220 0.930 . S
C224 C226 1.348 . S
C224 C227 1.356 . S
C224 O254 1.325 . S
N225 C228 1.314 . S
N225 C229 1.279 . S
C226 C224 1.348 . S
C226 C228 1.353 . S
C226 H268 0.929 . S
C227 C224 1.356 . S
C227 C229 1.358 . S
C227 H269 0.930 . S
C228 N225 1.314 . S
C228 C226 1.353 . S
C228 H270 0.930 . S
C229 N225 1.279 . S
C229 C227 1.358 . S
C229 H271 0.930 . S
C230 C231 1.354 . S
C230 C232 1.356 . S
C230 O255 1.325 . S
C231 C230 1.354 . S
C231 C233 1.355 . S
C231 H272 0.921 1_554 S
C232 C230 1.356 . S
C232 C234 1.358 . S
C232 H273 0.930 . S
C233 C231 1.355 . S
C233 N235 1.314 . S
C233 H274 0.930 1_554 S
C234 C232 1.358 . S
C234 N235 1.279 . S
C234 H275 0.930 . S
N235 C233 1.314 . S
N235 C234 1.279 . S
C236 C238 1.353 . S
C236 N239 1.314 . S
C236 H242 0.930 . S
C237 N239 1.279 . S
C237 C240 1.358 . S
C237 H243 0.930 . S
C238 C236 1.353 . S
C238 C241 1.348 . S
C238 H276 0.929 . S
N239 Li194 1.990 . S
N239 C236 1.314 . S
N239 C237 1.279 . S
C240 C237 1.358 . S
C240 C241 1.356 . S
C240 H277 0.930 . S
C241 C238 1.348 . S
C241 C240 1.356 . S
H242 C236 0.930 . S
H243 C237 0.930 . S
C244 N245 1.314 . S
C244 C246 1.353 . S
C244 H250 0.930 . S
N245 Li195 1.990 . S
N245 C244 1.314 . S
N245 C248 1.279 . S
C246 C244 1.353 . S
C246 C249 1.348 . S
C246 H278 0.929 . S
C247 C248 1.358 . S
C247 C249 1.356 . S
C247 H279 0.930 . S
C248 N245 1.279 . S
C248 C247 1.358 . S
C248 H251 0.930 . S
C249 C246 1.348 . S
C249 C247 1.356 . S
H250 C244 0.930 . S
H251 C248 0.930 . S
O252 Li192 1.956 . S
O252 Li193 1.970 . S
O252 Li194 1.961 1_554 S
O252 C196 1.325 . S
O253 Li192 1.970 . S
O253 Li193 1.956 . S
O253 Li195 1.961 . S
O253 C202 1.325 . S
O254 Li192 1.961 1_556 S
O254 Li194 1.956 . S
O254 Li195 1.970 1_556 S
O254 C224 1.325 . S
O255 Li193 1.961 . S
O255 Li194 1.970 1_554 S
O255 Li195 1.956 . S
O255 C230 1.325 . S
H256 C198 0.929 . S
H257 C199 0.930 . S
H258 C200 0.930 . S
H259 C201 0.930 . S
H260 C203 0.930 . S
H261 C205 0.929 . S
H262 C206 0.930 . S
H263 C207 0.930 . S
H264 C210 0.930 . S
H265 C213 0.916 1_556 S
H266 C218 0.929 . S
H267 C219 0.930 . S
H268 C226 0.929 . S
H269 C227 0.930 . S
H270 C228 0.930 . S
H271 C229 0.930 . S
H272 C231 0.921 1_556 S
H273 C232 0.930 . S
H274 C233 0.930 1_556 S
H275 C234 0.930 . S
H276 C238 0.929 . S
H277 C240 0.930 . S
H278 C246 0.929 . S
H279 C247 0.930 . S
Li280 N297 1.990 . S
Li280 O340 1.956 . S
Li280 O341 1.970 . S
Li280 O342 1.961 . S
Li281 N305 1.990 . S
Li281 O340 1.970 . S
Li281 O341 1.956 . S
Li281 O343 1.961 . S
Li282 N327 1.990 . S
Li282 O340 1.961 . S
Li282 O342 1.956 . S
Li282 O343 1.970 . S
Li283 N333 1.990 . S
Li283 O341 1.961 . S
Li283 O342 1.970 . S
Li283 O343 1.956 . S
C284 C286 1.348 . S
C284 C287 1.356 . S
C284 O340 1.325 . S
N285 C288 1.314 . S
N285 C289 1.279 . S
C286 C284 1.348 . S
C286 C288 1.353 . S
C286 H344 0.929 . S
C287 C284 1.356 . S
C287 C289 1.358 . S
C287 H345 0.930 . S
C288 N285 1.314 . S
C288 C286 1.353 . S
C288 H346 0.930 . S
C289 N285 1.279 . S
C289 C287 1.358 . S
C289 H347 0.930 . S
C290 C293 1.348 . S
C290 C294 1.356 . S
C290 O341 1.325 . S
C291 N292 1.279 . S
C291 C294 1.358 . S
C291 H348 0.930 . S
N292 C291 1.279 . S
N292 C295 1.314 . S
C293 C290 1.348 . S
C293 C295 1.353 . S
C293 H349 0.929 . S
C294 C290 1.356 . S
C294 C291 1.358 . S
C294 H350 0.930 . S
C295 N292 1.314 . S
C295 C293 1.353 . S
C295 H351 0.930 . S
C296 N297 1.314 . S
C296 C301 1.353 . S
C296 H302 0.930 . S
N297 Li280 1.990 . S
N297 C296 1.314 . S
N297 C299 1.279 . S
C298 C299 1.358 . S
C298 C300 1.356 . S
C298 H352 0.930 . S
C299 N297 1.279 . S
C299 C298 1.358 . S
C299 H303 0.930 . S
C300 C298 1.356 . S
C300 C301 1.348 . S
C301 C296 1.353 . S
C301 C300 1.348 . S
C301 H353 0.929 . S
H302 C296 0.930 . S
H303 C299 0.930 . S
C304 N305 1.314 . S
C304 C306 1.353 . S
C304 H310 0.930 . S
N305 Li281 1.990 . S
N305 C304 1.314 . S
N305 C308 1.279 . S
C306 C304 1.353 . S
C306 C309 1.348 . S
C306 H354 0.929 . S
C307 C308 1.358 . S
C307 C309 1.356 . S
C307 H355 0.930 . S
C308 N305 1.279 . S
C308 C307 1.358 . S
C308 H311 0.930 . S
C309 C306 1.348 . S
C309 C307 1.356 . S
H310 C304 0.930 . S
H311 C308 0.930 . S
C312 C314 1.348 . S
C312 C315 1.356 . S
C312 O342 1.325 . S
N313 C316 1.314 . S
N313 C317 1.279 . S
C314 C312 1.348 . S
C314 C316 1.353 . S
C314 H356 0.929 . S
C315 C312 1.356 . S
C315 C317 1.358 . S
C315 H357 0.930 . S
C316 N313 1.314 . S
C316 C314 1.353 . S
C316 H358 0.930 . S
C317 N313 1.279 . S
C317 C315 1.358 . S
C317 H359 0.930 . S
C318 C319 1.348 . S
C318 C320 1.356 . S
C318 O343 1.325 . S
C319 C318 1.348 . S
C319 C321 1.353 . S
C319 H360 0.929 . S
C320 C318 1.356 . S
C320 C322 1.358 . S
C320 H361 0.930 . S
C321 C319 1.353 . S
C321 N323 1.314 . S
C321 H362 0.930 . S
C322 C320 1.358 . S
C322 N323 1.279 . S
C322 H363 0.930 . S
N323 C321 1.314 . S
N323 C322 1.279 . S
C324 C326 1.353 . S
C324 N327 1.314 . S
C324 H330 0.930 . S
C325 N327 1.279 . S
C325 C328 1.358 . S
C325 H331 0.930 . S
C326 C324 1.353 . S
C326 C329 1.348 . S
C326 H364 0.929 . S
N327 Li282 1.990 . S
N327 C324 1.314 . S
N327 C325 1.279 . S
C328 C325 1.358 . S
C328 C329 1.356 . S
C328 H365 0.930 . S
C329 C326 1.348 . S
C329 C328 1.356 . S
H330 C324 0.930 . S
H331 C325 0.930 . S
C332 N333 1.314 . S
C332 C334 1.353 . S
C332 H338 0.930 . S
N333 Li283 1.990 . S
N333 C332 1.314 . S
N333 C336 1.279 . S
C334 C332 1.353 . S
C334 C337 1.348 . S
C334 H366 0.929 . S
C335 C336 1.358 . S
C335 C337 1.356 . S
C335 H367 0.930 . S
C336 N333 1.279 . S
C336 C335 1.358 . S
C336 H339 0.930 . S
C337 C334 1.348 . S
C337 C335 1.356 . S
H338 C332 0.930 . S
H339 C336 0.930 . S
O340 Li280 1.956 . S
O340 Li281 1.970 . S
O340 Li282 1.961 . S
O340 C284 1.325 . S
O341 Li280 1.970 . S
O341 Li281 1.956 . S
O341 Li283 1.961 . S
O341 C290 1.325 . S
O342 Li280 1.961 . S
O342 Li282 1.956 . S
O342 Li283 1.970 . S
O342 C312 1.325 . S
O343 Li281 1.961 . S
O343 Li282 1.970 . S
O343 Li283 1.956 . S
O343 C318 1.325 . S
H344 C286 0.929 . S
H345 C287 0.930 . S
H346 C288 0.930 . S
H347 C289 0.930 . S
H348 C291 0.930 . S
H349 C293 0.929 . S
H350 C294 0.930 . S
H351 C295 0.930 . S
H352 C298 0.930 . S
H353 C301 0.929 . S
H354 C306 0.929 . S
H355 C307 0.930 . S
H356 C314 0.929 . S
H357 C315 0.930 . S
H358 C316 0.930 . S
H359 C317 0.930 . S
H360 C319 0.929 . S
H361 C320 0.930 . S
H362 C321 0.930 . S
H363 C322 0.930 . S
H364 C326 0.929 . S
H365 C328 0.930 . S
H366 C334 0.929 . S
H367 C335 0.930 . S
Li368 N385 1.990 . S
Li368 O428 1.956 . S
Li368 O429 1.970 1_556 S
Li368 O430 1.961 . S
Li369 N393 1.990 . S
Li369 O428 1.970 1_554 S
Li369 O429 1.956 . S
Li369 O431 1.961 . S
Li370 N415 1.990 . S
Li370 O428 1.961 . S
Li370 O430 1.956 . S
Li370 O431 1.970 1_556 S
Li371 N421 1.990 . S
Li371 O429 1.961 . S
Li371 O430 1.970 1_554 S
Li371 O431 1.956 . S
C372 C374 1.348 1_556 S
C372 C375 1.356 . S
C372 O428 1.325 . S
N373 C376 1.314 1_556 S
N373 C377 1.279 . S
C374 C372 1.348 1_554 S
C374 C376 1.353 . S
C374 H432 0.929 . S
C375 C372 1.356 . S
C375 C377 1.358 . S
C375 H433 0.930 . S
C376 N373 1.314 1_554 S
C376 C374 1.353 . S
C376 H434 0.930 . S
C377 N373 1.279 . S
C377 C375 1.358 . S
C377 H435 0.930 . S
C378 C381 1.348 . S
C378 C382 1.356 . S
C378 O429 1.325 . S
C379 N380 1.279 . S
C379 C382 1.358 . S
C379 H436 0.930 . S
N380 C379 1.279 . S
N380 C383 1.314 . S
C381 C378 1.348 . S
C381 C383 1.353 . S
C381 H437 0.929 . S
C382 C378 1.356 . S
C382 C379 1.358 . S
C382 H438 0.930 . S
C383 N380 1.314 . S
C383 C381 1.353 . S
C383 H439 0.930 . S
C384 N385 1.314 . S
C384 C389 1.353 . S
C384 H390 0.930 . S
N385 Li368 1.990 . S
N385 C384 1.314 . S
N385 C387 1.279 . S
C386 C387 1.358 . S
C386 C388 1.356 . S
C386 H440 0.930 . S
C387 N385 1.279 . S
C387 C386 1.358 . S
C387 H391 0.930 . S
C388 C386 1.356 . S
C388 C389 1.348 . S
C389 C384 1.353 . S
C389 C388 1.348 . S
C389 H441 0.929 . S
H390 C384 0.930 . S
H391 C387 0.930 . S
C392 N393 1.314 . S
C392 C394 1.353 . S
C392 H398 0.930 . S
N393 Li369 1.990 . S
N393 C392 1.314 . S
N393 C396 1.279 . S
C394 C392 1.353 . S
C394 C397 1.348 . S
C394 H442 0.929 . S
C395 C396 1.358 . S
C395 C397 1.356 . S
C395 H443 0.930 . S
C396 N393 1.279 . S
C396 C395 1.358 . S
C396 H399 0.930 . S
C397 C394 1.348 . S
C397 C395 1.356 . S
H398 C392 0.930 . S
H399 C396 0.930 . S
C400 C402 1.348 . S
C400 C403 1.356 . S
C400 O430 1.325 . S
N401 C404 1.314 . S
N401 C405 1.279 . S
C402 C400 1.348 . S
C402 C404 1.353 . S
C402 H444 0.929 . S
C403 C400 1.356 . S
C403 C405 1.358 . S
C403 H445 0.930 . S
C404 N401 1.314 . S
C404 C402 1.353 . S
C404 H446 0.930 . S
C405 N401 1.279 . S
C405 C403 1.358 . S
C405 H447 0.930 . S
C406 C407 1.348 1_554 S
C406 C408 1.356 . S
C406 O431 1.325 . S
C407 C406 1.348 1_556 S
C407 C409 1.353 . S
C407 H448 0.929 . S
C408 C406 1.356 . S
C408 C410 1.358 . S
C408 H449 0.930 . S
C409 C407 1.353 . S
C409 N411 1.314 1_556 S
C409 H450 0.930 . S
C410 C408 1.358 . S
C410 N411 1.279 . S
C410 H451 0.930 . S
N411 C409 1.314 1_554 S
N411 C410 1.279 . S
C412 C414 1.353 . S
C412 N415 1.314 . S
C412 H418 0.930 . S
C413 N415 1.279 . S
C413 C416 1.358 . S
C413 H419 0.930 . S
C414 C412 1.353 . S
C414 C417 1.348 . S
C414 H452 0.929 . S
N415 Li370 1.990 . S
N415 C412 1.314 . S
N415 C413 1.279 . S
C416 C413 1.358 . S
C416 C417 1.356 . S
C416 H453 0.930 . S
C417 C414 1.348 . S
C417 C416 1.356 . S
H418 C412 0.930 . S
H419 C413 0.930 . S
C420 N421 1.314 . S
C420 C422 1.353 . S
C420 H426 0.930 . S
N421 Li371 1.990 . S
N421 C420 1.314 . S
N421 C424 1.279 . S
C422 C420 1.353 . S
C422 C425 1.348 . S
C422 H454 0.929 . S
C423 C424 1.358 . S
C423 C425 1.356 . S
C423 H455 0.930 . S
C424 N421 1.279 . S
C424 C423 1.358 . S
C424 H427 0.930 . S
C425 C422 1.348 . S
C425 C423 1.356 . S
H426 C420 0.930 . S
H427 C424 0.930 . S
O428 Li368 1.956 . S
O428 Li369 1.970 1_556 S
O428 Li370 1.961 . S
O428 C372 1.325 . S
O429 Li368 1.970 1_554 S
O429 Li369 1.956 . S
O429 Li371 1.961 . S
O429 C378 1.325 . S
O430 Li368 1.961 . S
O430 Li370 1.956 . S
O430 Li371 1.970 1_556 S
O430 C400 1.325 . S
O431 Li369 1.961 . S
O431 Li370 1.970 1_554 S
O431 Li371 1.956 . S
O431 C406 1.325 . S
H432 C374 0.929 . S
H433 C375 0.930 . S
H434 C376 0.930 . S
H435 C377 0.930 . S
H436 C379 0.930 . S
H437 C381 0.929 . S
H438 C382 0.930 . S
H439 C383 0.930 . S
H440 C386 0.930 . S
H441 C389 0.929 . S
H442 C394 0.929 . S
H443 C395 0.930 . S
H444 C402 0.929 . S
H445 C403 0.930 . S
H446 C404 0.930 . S
H447 C405 0.930 . S
H448 C407 0.929 . S
H449 C408 0.930 . S
H450 C409 0.930 . S
H451 C410 0.930 . S
H452 C414 0.929 . S
H453 C416 0.930 . S
H454 C422 0.929 . S
H455 C423 0.930 . S
Li456 N473 1.990 . S
Li456 O516 1.956 . S
Li456 O517 1.970 . S
Li456 O518 1.961 . S
Li457 N481 1.990 . S
Li457 O516 1.970 . S
Li457 O517 1.956 . S
Li457 O519 1.961 . S
Li458 N503 1.990 . S
Li458 O516 1.961 . S
Li458 O518 1.956 . S
Li458 O519 1.970 . S
Li459 N509 1.990 1_545 S
Li459 O517 1.961 . S
Li459 O518 1.970 . S
Li459 O519 1.956 . S
C460 C462 1.348 . S
C460 C463 1.356 . S
C460 O516 1.325 . S
N461 C464 1.314 . S
N461 C465 1.279 . S
C462 C460 1.348 . S
C462 C464 1.353 . S
C462 H520 0.929 . S
C463 C460 1.356 . S
C463 C465 1.358 . S
C463 H521 0.930 . S
C464 N461 1.314 . S
C464 C462 1.353 . S
C464 H522 0.930 . S
C465 N461 1.279 . S
C465 C463 1.358 . S
C465 H523 0.930 . S
C466 C469 1.348 . S
C466 C470 1.378 . S
C466 O517 1.325 . S
C467 N468 1.279 1_565 S
C467 C470 1.356 1_565 S
C467 H524 0.930 . S
N468 C467 1.279 1_545 S
N468 C471 1.314 . S
C469 C466 1.348 . S
C469 C471 1.353 . S
C469 H525 0.929 . S
C470 C466 1.378 . S
C470 C467 1.356 1_545 S
C470 H526 0.910 1_545 S
C471 N468 1.314 . S
C471 C469 1.353 . S
C471 H527 0.930 . S
C472 N473 1.314 . S
C472 C477 1.353 . S
C472 H478 0.930 . S
N473 Li456 1.990 . S
N473 C472 1.314 . S
N473 C475 1.279 . S
C474 C475 1.358 . S
C474 C476 1.356 . S
C474 H528 0.930 . S
C475 N473 1.279 . S
C475 C474 1.358 . S
C475 H479 0.930 . S
C476 C474 1.356 . S
C476 C477 1.348 . S
C477 C472 1.353 . S
C477 C476 1.348 . S
C477 H529 0.929 . S
H478 C472 0.930 . S
H479 C475 0.930 . S
C480 N481 1.314 . S
C480 C482 1.353 . S
C480 H486 0.930 . S
N481 Li457 1.990 . S
N481 C480 1.314 . S
N481 C484 1.279 . S
C482 C480 1.353 . S
C482 C485 1.348 . S
C482 H530 0.929 . S
C483 C484 1.358 . S
C483 C485 1.356 . S
C483 H531 0.930 . S
C484 N481 1.279 . S
C484 C483 1.358 . S
C484 H487 0.930 . S
C485 C482 1.348 . S
C485 C483 1.356 . S
H486 C480 0.930 . S
H487 C484 0.930 . S
C488 C490 1.348 . S
C488 C491 1.356 . S
C488 O518 1.325 . S
N489 C492 1.314 . S
N489 C493 1.279 . S
C490 C488 1.348 . S
C490 C492 1.353 . S
C490 H532 0.929 1_545 S
C491 C488 1.356 . S
C491 C493 1.358 . S
C491 H533 0.930 . S
C492 N489 1.314 . S
C492 C490 1.353 . S
C492 H534 0.930 . S
C493 N489 1.279 . S
C493 C491 1.358 . S
C493 H535 0.930 . S
C494 C495 1.348 . S
C494 C496 1.356 . S
C494 O519 1.325 1_565 S
C495 C494 1.348 . S
C495 C497 1.353 . S
C495 H536 0.929 . S
C496 C494 1.356 . S
C496 C498 1.358 . S
C496 H537 0.930 . S
C497 C495 1.353 . S
C497 N499 1.314 . S
C497 H538 0.930 . S
C498 C496 1.358 . S
C498 N499 1.279 . S
C498 H539 0.930 . S
N499 C497 1.314 . S
N499 C498 1.279 . S
C500 C502 1.353 . S
C500 N503 1.314 . S
C500 H506 0.930 . S
C501 N503 1.279 . S
C501 C504 1.358 . S
C501 H507 0.930 . S
C502 C500 1.353 . S
C502 C505 1.348 . S
C502 H540 0.929 . S
N503 Li458 1.990 . S
N503 C500 1.314 . S
N503 C501 1.279 . S
C504 C501 1.358 . S
C504 C505 1.356 . S
C504 H541 0.930 . S
C505 C502 1.348 . S
C505 C504 1.356 . S
H506 C500 0.930 . S
H507 C501 0.930 . S
C508 N509 1.314 . S
C508 C510 1.353 . S
C508 H514 0.930 . S
N509 Li459 1.990 1_565 S
N509 C508 1.314 . S
N509 C512 1.279 . S
C510 C508 1.353 . S
C510 C513 1.348 . S
C510 H542 0.929 . S
C511 C512 1.358 . S
C511 C513 1.356 . S
C511 H543 0.930 . S
C512 N509 1.279 . S
C512 C511 1.358 . S
C512 H515 0.930 . S
C513 C510 1.348 . S
C513 C511 1.356 . S
H514 C508 0.930 . S
H515 C512 0.930 . S
O516 Li456 1.956 . S
O516 Li457 1.970 . S
O516 Li458 1.961 . S
O516 C460 1.325 . S
O517 Li456 1.970 . S
O517 Li457 1.956 . S
O517 Li459 1.961 . S
O517 C466 1.325 . S
O518 Li456 1.961 . S
O518 Li458 1.956 . S
O518 Li459 1.970 . S
O518 C488 1.325 . S
O519 Li457 1.961 . S
O519 Li458 1.970 . S
O519 Li459 1.956 . S
O519 C494 1.325 1_545 S
H520 C462 0.929 . S
H521 C463 0.930 . S
H522 C464 0.930 . S
H523 C465 0.930 . S
H524 C467 0.930 . S
H525 C469 0.929 . S
H526 C470 0.910 1_565 S
H527 C471 0.930 . S
H528 C474 0.930 . S
H529 C477 0.929 . S
H530 C482 0.929 . S
H531 C483 0.930 . S
H532 C490 0.929 1_565 S
H533 C491 0.930 . S
H534 C492 0.930 . S
H535 C493 0.930 . S
H536 C495 0.929 . S
H537 C496 0.930 . S
H538 C497 0.930 . S
H539 C498 0.930 . S
H540 C502 0.929 . S
H541 C504 0.930 . S
H542 C510 0.929 . S
H543 C511 0.930 . S
Li544 N561 1.990 . S
Li544 O604 1.956 . S
Li544 O605 1.970 . S
Li544 O606 1.961 . S
Li545 N569 1.990 . S
Li545 O604 1.970 . S
Li545 O605 1.956 . S
Li545 O607 1.961 . S
Li546 N591 1.990 . S
Li546 O604 1.961 . S
Li546 O606 1.956 . S
Li546 O607 1.970 . S
Li547 N597 1.990 . S
Li547 O605 1.961 . S
Li547 O606 1.970 . S
Li547 O607 1.956 . S
C548 C550 1.348 . S
C548 C551 1.356 . S
C548 O604 1.325 . S
N549 C552 1.314 . S
N549 C553 1.279 . S
C550 C548 1.348 . S
C550 C552 1.353 . S
C550 H608 0.929 . S
C551 C548 1.356 . S
C551 C553 1.358 . S
C551 H609 0.930 . S
C552 N549 1.314 . S
C552 C550 1.353 . S
C552 H610 0.930 . S
C553 N549 1.279 . S
C553 C551 1.358 . S
C553 H611 0.930 . S
C554 C557 1.348 . S
C554 C558 1.356 . S
C554 O605 1.325 . S
C555 N556 1.279 . S
C555 C558 1.358 . S
C555 H612 0.930 . S
N556 C555 1.279 . S
N556 C559 1.314 . S
C557 C554 1.348 . S
C557 C559 1.353 . S
C557 H613 0.929 . S
C558 C554 1.356 . S
C558 C555 1.358 . S
C558 H614 0.930 . S
C559 N556 1.314 . S
C559 C557 1.353 . S
C559 H615 0.930 . S
C560 N561 1.314 . S
C560 C565 1.353 . S
C560 H566 0.930 . S
N561 Li544 1.990 . S
N561 C560 1.314 . S
N561 C563 1.279 . S
C562 C563 1.358 . S
C562 C564 1.356 . S
C562 H616 0.930 . S
C563 N561 1.279 . S
C563 C562 1.358 . S
C563 H567 0.930 . S
C564 C562 1.356 . S
C564 C565 1.348 . S
C565 C560 1.353 . S
C565 C564 1.348 . S
C565 H617 0.929 . S
H566 C560 0.930 . S
H567 C563 0.930 . S
C568 N569 1.314 . S
C568 C570 1.353 . S
C568 H574 0.930 . S
N569 Li545 1.990 . S
N569 C568 1.314 . S
N569 C572 1.279 . S
C570 C568 1.353 . S
C570 C573 1.348 . S
C570 H618 0.929 . S
C571 C572 1.358 . S
C571 C573 1.356 . S
C571 H619 0.930 . S
C572 N569 1.279 . S
C572 C571 1.358 . S
C572 H575 0.930 . S
C573 C570 1.348 . S
C573 C571 1.356 . S
H574 C568 0.930 . S
H575 C572 0.930 . S
C576 C578 1.348 . S
C576 C579 1.356 . S
C576 O606 1.325 . S
N577 C580 1.314 . S
N577 C581 1.279 . S
C578 C576 1.348 . S
C578 C580 1.353 . S
C578 H620 0.929 . S
C579 C576 1.356 . S
C579 C581 1.358 . S
C579 H621 0.930 . S
C580 N577 1.314 . S
C580 C578 1.353 . S
C580 H622 0.930 . S
C581 N577 1.279 . S
C581 C579 1.358 . S
C581 H623 0.930 . S
C582 C583 1.348 . S
C582 C584 1.356 . S
C582 O607 1.325 . S
C583 C582 1.348 . S
C583 C585 1.353 . S
C583 H624 0.929 . S
C584 C582 1.356 . S
C584 C586 1.358 . S
C584 H625 0.930 . S
C585 C583 1.353 . S
C585 N587 1.314 . S
C585 H626 0.930 . S
C586 C584 1.358 . S
C586 N587 1.279 . S
C586 H627 0.930 . S
N587 C585 1.314 . S
N587 C586 1.279 . S
C588 C590 1.353 . S
C588 N591 1.314 . S
C588 H594 0.930 . S
C589 N591 1.279 . S
C589 C592 1.358 . S
C589 H595 0.930 . S
C590 C588 1.353 . S
C590 C593 1.348 . S
C590 H628 0.929 . S
N591 Li546 1.990 . S
N591 C588 1.314 . S
N591 C589 1.279 . S
C592 C589 1.358 . S
C592 C593 1.356 . S
C592 H629 0.930 . S
C593 C590 1.348 . S
C593 C592 1.356 . S
H594 C588 0.930 . S
H595 C589 0.930 . S
C596 N597 1.314 . S
C596 C598 1.353 . S
C596 H602 0.930 . S
N597 Li547 1.990 . S
N597 C596 1.314 . S
N597 C600 1.279 . S
C598 C596 1.353 . S
C598 C601 1.348 . S
C598 H630 0.929 . S
C599 C600 1.358 . S
C599 C601 1.356 . S
C599 H631 0.930 . S
C600 N597 1.279 . S
C600 C599 1.358 . S
C600 H603 0.930 . S
C601 C598 1.348 . S
C601 C599 1.356 . S
H602 C596 0.930 . S
H603 C600 0.930 . S
O604 Li544 1.956 . S
O604 Li545 1.970 . S
O604 Li546 1.961 . S
O604 C548 1.325 . S
O605 Li544 1.970 . S
O605 Li545 1.956 . S
O605 Li547 1.961 . S
O605 C554 1.325 . S
O606 Li544 1.961 . S
O606 Li546 1.956 . S
O606 Li547 1.970 . S
O606 C576 1.325 . S
O607 Li545 1.961 . S
O607 Li546 1.970 . S
O607 Li547 1.956 . S
O607 C582 1.325 . S
H608 C550 0.929 . S
H609 C551 0.930 . S
H610 C552 0.930 . S
H611 C553 0.930 . S
H612 C555 0.930 . S
H613 C557 0.929 . S
H614 C558 0.930 . S
H615 C559 0.930 . S
H616 C562 0.930 . S
H617 C565 0.929 . S
H618 C570 0.929 . S
H619 C571 0.930 . S
H620 C578 0.929 . S
H621 C579 0.930 . S
H622 C580 0.930 . S
H623 C581 0.930 . S
H624 C583 0.929 . S
H625 C584 0.930 . S
H626 C585 0.930 . S
H627 C586 0.930 . S
H628 C590 0.929 . S
H629 C592 0.930 . S
H630 C598 0.929 . S
H631 C599 0.930 . S
Li632 N649 1.990 . S
Li632 O692 1.956 . S
Li632 O693 1.970 . S
Li632 O694 1.961 . S
Li633 N657 1.990 . S
Li633 O692 1.970 . S
Li633 O693 1.956 . S
Li633 O695 1.961 . S
Li634 N679 1.990 . S
Li634 O692 1.961 . S
Li634 O694 1.956 . S
Li634 O695 1.970 . S
Li635 N685 1.990 . S
Li635 O693 1.961 . S
Li635 O694 1.970 . S
Li635 O695 1.956 . S
C636 C638 1.348 . S
C636 C639 1.356 . S
C636 O692 1.325 . S
N637 C640 1.314 . S
N637 C641 1.279 . S
C638 C636 1.348 . S
C638 C640 1.353 . S
C638 H696 0.929 . S
C639 C636 1.356 . S
C639 C641 1.358 . S
C639 H697 0.930 . S
C640 N637 1.314 . S
C640 C638 1.353 . S
C640 H698 0.930 . S
C641 N637 1.279 . S
C641 C639 1.358 . S
C641 H699 0.930 . S
C642 C645 1.348 . S
C642 C646 1.356 . S
C642 O693 1.325 . S
C643 N644 1.279 . S
C643 C646 1.358 . S
C643 H700 0.930 . S
N644 C643 1.279 . S
N644 C647 1.314 . S
C645 C642 1.348 . S
C645 C647 1.353 . S
C645 H701 0.929 . S
C646 C642 1.356 . S
C646 C643 1.358 . S
C646 H702 0.930 . S
C647 N644 1.314 . S
C647 C645 1.353 . S
C647 H703 0.930 . S
C648 N649 1.314 . S
C648 C653 1.353 . S
C648 H654 0.930 . S
N649 Li632 1.990 . S
N649 C648 1.314 . S
N649 C651 1.279 . S
C650 C651 1.358 . S
C650 C652 1.356 . S
C650 H704 0.930 . S
C651 N649 1.279 . S
C651 C650 1.358 . S
C651 H655 0.930 . S
C652 C650 1.356 . S
C652 C653 1.348 . S
C653 C648 1.353 . S
C653 C652 1.348 . S
C653 H705 0.929 . S
H654 C648 0.930 . S
H655 C651 0.930 . S
C656 N657 1.314 . S
C656 C658 1.353 . S
C656 H662 0.930 . S
N657 Li633 1.990 . S
N657 C656 1.314 . S
N657 C660 1.279 . S
C658 C656 1.353 . S
C658 C661 1.348 . S
C658 H706 0.929 . S
C659 C660 1.358 . S
C659 C661 1.356 . S
C659 H707 0.930 . S
C660 N657 1.279 . S
C660 C659 1.358 . S
C660 H663 0.930 . S
C661 C658 1.348 . S
C661 C659 1.356 . S
H662 C656 0.930 . S
H663 C660 0.930 . S
C664 C666 1.348 . S
C664 C667 1.356 . S
C664 O694 1.325 . S
N665 C668 1.314 . S
N665 C669 1.279 . S
C666 C664 1.348 . S
C666 C668 1.353 . S
C666 H708 0.929 . S
C667 C664 1.356 . S
C667 C669 1.358 . S
C667 H709 0.930 . S
C668 N665 1.314 . S
C668 C666 1.353 . S
C668 H710 0.930 . S
C669 N665 1.279 . S
C669 C667 1.358 . S
C669 H711 0.930 . S
C670 C671 1.348 . S
C670 C672 1.356 . S
C670 O695 1.325 . S
C671 C670 1.348 . S
C671 C673 1.353 . S
C671 H712 0.929 . S
C672 C670 1.356 . S
C672 C674 1.358 . S
C672 H713 0.930 . S
C673 C671 1.353 . S
C673 N675 1.314 . S
C673 H714 0.930 . S
C674 C672 1.358 . S
C674 N675 1.279 . S
C674 H715 0.930 . S
N675 C673 1.314 . S
N675 C674 1.279 . S
C676 C678 1.353 . S
C676 N679 1.314 . S
C676 H682 0.930 . S
C677 N679 1.279 . S
C677 C680 1.358 . S
C677 H683 0.930 . S
C678 C676 1.353 . S
C678 C681 1.348 . S
C678 H716 0.929 . S
N679 Li634 1.990 . S
N679 C676 1.314 . S
N679 C677 1.279 . S
C680 C677 1.358 . S
C680 C681 1.356 . S
C680 H717 0.930 . S
C681 C678 1.348 . S
C681 C680 1.356 . S
H682 C676 0.930 . S
H683 C677 0.930 . S
C684 N685 1.314 . S
C684 C686 1.353 . S
C684 H690 0.930 . S
N685 Li635 1.990 . S
N685 C684 1.314 . S
N685 C688 1.279 . S
C686 C684 1.353 . S
C686 C689 1.348 . S
C686 H718 0.929 . S
C687 C688 1.358 . S
C687 C689 1.356 . S
C687 H719 0.930 . S
C688 N685 1.279 . S
C688 C687 1.358 . S
C688 H691 0.930 . S
C689 C686 1.348 . S
C689 C687 1.356 . S
H690 C684 0.930 . S
H691 C688 0.930 . S
O692 Li632 1.956 . S
O692 Li633 1.970 . S
O692 Li634 1.961 . S
O692 C636 1.325 . S
O693 Li632 1.970 . S
O693 Li633 1.956 . S
O693 Li635 1.961 . S
O693 C642 1.325 . S
O694 Li632 1.961 . S
O694 Li634 1.956 . S
O694 Li635 1.970 . S
O694 C664 1.325 . S
O695 Li633 1.961 . S
O695 Li634 1.970 . S
O695 Li635 1.956 . S
O695 C670 1.325 . S
H696 C638 0.929 . S
H697 C639 0.930 . S
H698 C640 0.930 . S
H699 C641 0.930 . S
H700 C643 0.930 . S
H701 C645 0.929 . S
H702 C646 0.930 . S
H703 C647 0.930 . S
H704 C650 0.930 . S
H705 C653 0.929 . S
H706 C658 0.929 . S
H707 C659 0.930 . S
H708 C666 0.929 . S
H709 C667 0.930 . S
H710 C668 0.930 . S
H711 C669 0.930 . S
H712 C671 0.929 . S
H713 C672 0.930 . S
H714 C673 0.930 . S
H715 C674 0.930 . S
H716 C678 0.929 . S
H717 C680 0.930 . S
H718 C686 0.929 . S
H719 C687 0.930 . S
Li720 N737 1.990 . S
Li720 O780 1.956 . S
Li720 O781 1.970 . S
Li720 O782 1.961 . S
Li721 N745 1.990 . S
Li721 O780 1.970 . S
Li721 O781 1.956 . S
Li721 O783 1.961 . S
Li722 N767 1.990 . S
Li722 O780 1.961 . S
Li722 O782 1.956 . S
Li722 O783 1.970 . S
Li723 N773 1.990 . S
Li723 O781 1.961 . S
Li723 O782 1.970 . S
Li723 O783 1.956 . S
C724 C726 1.348 . S
C724 C727 1.356 . S
C724 O780 1.325 . S
N725 C728 1.314 . S
N725 C729 1.279 . S
C726 C724 1.348 . S
C726 C728 1.353 . S
C726 H784 0.929 . S
C727 C724 1.356 . S
C727 C729 1.358 . S
C727 H785 0.930 . S
C728 N725 1.314 . S
C728 C726 1.353 . S
C728 H786 0.930 . S
C729 N725 1.279 . S
C729 C727 1.358 . S
C729 H787 0.930 . S
C730 C733 1.348 . S
C730 C734 1.356 . S
C730 O781 1.325 . S
C731 N732 1.279 . S
C731 C734 1.358 . S
C731 H788 0.930 . S
N732 C731 1.279 . S
N732 C735 1.314 . S
C733 C730 1.348 . S
C733 C735 1.353 . S
C733 H789 0.929 . S
C734 C730 1.356 . S
C734 C731 1.358 . S
C734 H790 0.930 . S
C735 N732 1.314 . S
C735 C733 1.353 . S
C735 H791 0.930 . S
C736 N737 1.314 . S
C736 C741 1.353 . S
C736 H742 0.930 . S
N737 Li720 1.990 . S
N737 C736 1.314 . S
N737 C739 1.279 . S
C738 C739 1.358 . S
C738 C740 1.356 . S
C738 H792 0.930 . S
C739 N737 1.279 . S
C739 C738 1.358 . S
C739 H743 0.930 . S
C740 C738 1.356 . S
C740 C741 1.348 . S
C741 C736 1.353 . S
C741 C740 1.348 . S
C741 H793 0.929 . S
H742 C736 0.930 . S
H743 C739 0.930 . S
C744 N745 1.314 . S
C744 C746 1.353 . S
C744 H750 0.930 . S
N745 Li721 1.990 . S
N745 C744 1.314 . S
N745 C748 1.279 . S
C746 C744 1.353 . S
C746 C749 1.348 . S
C746 H794 0.929 . S
C747 C748 1.358 . S
C747 C749 1.356 . S
C747 H795 0.930 . S
C748 N745 1.279 . S
C748 C747 1.358 . S
C748 H751 0.930 . S
C749 C746 1.348 . S
C749 C747 1.356 . S
H750 C744 0.930 . S
H751 C748 0.930 . S
C752 C754 1.348 . S
C752 C755 1.356 . S
C752 O782 1.325 . S
N753 C756 1.314 . S
N753 C757 1.279 . S
C754 C752 1.348 . S
C754 C756 1.353 . S
C754 H796 0.929 . S
C755 C752 1.356 . S
C755 C757 1.358 . S
C755 H797 0.930 . S
C756 N753 1.314 . S
C756 C754 1.353 . S
C756 H798 0.930 . S
C757 N753 1.279 . S
C757 C755 1.358 . S
C757 H799 0.930 . S
C758 C759 1.348 . S
C758 C760 1.356 . S
C758 O783 1.325 . S
C759 C758 1.348 . S
C759 C761 1.353 . S
C759 H800 0.929 . S
C760 C758 1.356 . S
C760 C762 1.358 . S
C760 H801 0.930 . S
C761 C759 1.353 . S
C761 N763 1.314 . S
C761 H802 0.930 . S
C762 C760 1.358 . S
C762 N763 1.279 . S
C762 H803 0.930 . S
N763 C761 1.314 . S
N763 C762 1.279 . S
C764 C766 1.353 . S
C764 N767 1.314 . S
C764 H770 0.930 . S
C765 N767 1.279 . S
C765 C768 1.358 . S
C765 H771 0.930 . S
C766 C764 1.353 . S
C766 C769 1.348 . S
C766 H804 0.929 . S
N767 Li722 1.990 . S
N767 C764 1.314 . S
N767 C765 1.279 . S
C768 C765 1.358 . S
C768 C769 1.356 . S
C768 H805 0.930 . S
C769 C766 1.348 . S
C769 C768 1.356 . S
H770 C764 0.930 . S
H771 C765 0.930 . S
C772 N773 1.314 . S
C772 C774 1.353 . S
C772 H778 0.930 . S
N773 Li723 1.990 . S
N773 C772 1.314 . S
N773 C776 1.279 . S
C774 C772 1.353 . S
C774 C777 1.348 . S
C774 H806 0.929 . S
C775 C776 1.358 . S
C775 C777 1.356 . S
C775 H807 0.930 . S
C776 N773 1.279 . S
C776 C775 1.358 . S
C776 H779 0.930 . S
C777 C774 1.348 . S
C777 C775 1.356 . S
H778 C772 0.930 . S
H779 C776 0.930 . S
O780 Li720 1.956 . S
O780 Li721 1.970 . S
O780 Li722 1.961 . S
O780 C724 1.325 . S
O781 Li720 1.970 . S
O781 Li721 1.956 . S
O781 Li723 1.961 . S
O781 C730 1.325 . S
O782 Li720 1.961 . S
O782 Li722 1.956 . S
O782 Li723 1.970 . S
O782 C752 1.325 . S
O783 Li721 1.961 . S
O783 Li722 1.970 . S
O783 Li723 1.956 . S
O783 C758 1.325 . S
H784 C726 0.929 . S
H785 C727 0.930 . S
H786 C728 0.930 . S
H787 C729 0.930 . S
H788 C731 0.930 . S
H789 C733 0.929 . S
H790 C734 0.930 . S
H791 C735 0.930 . S
H792 C738 0.930 . S
H793 C741 0.929 . S
H794 C746 0.929 . S
H795 C747 0.930 . S
H796 C754 0.929 . S
H797 C755 0.930 . S
H798 C756 0.930 . S
H799 C757 0.930 . S
H800 C759 0.929 . S
H801 C760 0.930 . S
H802 C761 0.930 . S
H803 C762 0.930 . S
H804 C766 0.929 . S
H805 C768 0.930 . S
H806 C774 0.929 . S
H807 C775 0.930 . S
Li808 N825 1.990 . S
Li808 O868 1.956 . S
Li808 O869 1.970 1_565 S
Li808 O870 1.961 . S
Li809 N833 1.990 . S
Li809 O868 1.970 1_545 S
Li809 O869 1.956 . S
Li809 O871 1.961 . S
Li810 N855 1.990 . S
Li810 O868 1.961 . S
Li810 O870 1.956 . S
Li810 O871 1.970 1_565 S
Li811 N861 1.990 . S
Li811 O869 1.961 . S
Li811 O870 1.970 1_545 S
Li811 O871 1.956 . S
C812 C814 1.348 . S
C812 C815 1.356 . S
C812 O868 1.325 . S
N813 C816 1.314 . S
N813 C817 1.279 . S
C814 C812 1.348 . S
C814 C816 1.353 . S
C814 H872 0.929 . S
C815 C812 1.356 . S
C815 C817 1.358 . S
C815 H873 0.930 . S
C816 N813 1.314 . S
C816 C814 1.353 . S
C816 H874 0.930 . S
C817 N813 1.279 . S
C817 C815 1.358 . S
C817 H875 0.930 . S
C818 C821 1.348 1_545 S
C818 C822 1.356 . S
C818 O869 1.325 . S
C819 N820 1.279 . S
C819 C822 1.358 . S
C819 H876 0.930 . S
N820 C819 1.279 . S
N820 C823 1.314 1_545 S
C821 C818 1.348 1_565 S
C821 C823 1.353 . S
C821 H877 0.929 . S
C822 C818 1.356 . S
C822 C819 1.358 . S
C822 H878 0.930 . S
C823 N820 1.314 1_565 S
C823 C821 1.353 . S
C823 H879 0.930 . S
C824 N825 1.314 . S
C824 C829 1.353 . S
C824 H830 0.930 . S
N825 Li808 1.990 . S
N825 C824 1.314 . S
N825 C827 1.279 . S
C826 C827 1.358 . S
C826 C828 1.356 . S
C826 H880 0.930 . S
C827 N825 1.279 . S
C827 C826 1.358 . S
C827 H831 0.930 . S
C828 C826 1.356 . S
C828 C829 1.348 . S
C829 C824 1.353 . S
C829 C828 1.348 . S
C829 H881 0.929 . S
H830 C824 0.930 . S
H831 C827 0.930 . S
C832 N833 1.314 . S
C832 C834 1.353 . S
C832 H838 0.930 . S
N833 Li809 1.990 . S
N833 C832 1.314 . S
N833 C836 1.279 . S
C834 C832 1.353 . S
C834 C837 1.348 . S
C834 H882 0.929 . S
C835 C836 1.358 . S
C835 C837 1.356 . S
C835 H883 0.930 . S
C836 N833 1.279 . S
C836 C835 1.358 . S
C836 H839 0.930 . S
C837 C834 1.348 . S
C837 C835 1.356 . S
H838 C832 0.930 . S
H839 C836 0.930 . S
C840 C842 1.348 1_565 S
C840 C843 1.356 . S
C840 O870 1.325 . S
N841 C844 1.314 1_565 S
N841 C845 1.279 . S
C842 C840 1.348 1_545 S
C842 C844 1.353 . S
C842 H884 0.929 . S
C843 C840 1.356 . S
C843 C845 1.358 . S
C843 H885 0.930 . S
C844 N841 1.314 1_545 S
C844 C842 1.353 . S
C844 H886 0.930 . S
C845 N841 1.279 . S
C845 C843 1.358 . S
C845 H887 0.930 . S
C846 C847 1.348 . S
C846 C848 1.356 . S
C846 O871 1.325 . S
C847 C846 1.348 . S
C847 C849 1.353 . S
C847 H888 0.929 . S
C848 C846 1.356 . S
C848 C850 1.358 . S
C848 H889 0.930 . S
C849 C847 1.353 . S
C849 N851 1.314 . S
C849 H890 0.930 . S
C850 C848 1.358 . S
C850 N851 1.279 . S
C850 H891 0.930 . S
N851 C849 1.314 . S
N851 C850 1.279 . S
C852 C854 1.353 . S
C852 N855 1.314 . S
C852 H858 0.930 . S
C853 N855 1.279 . S
C853 C856 1.358 . S
C853 H859 0.930 . S
C854 C852 1.353 . S
C854 C857 1.348 . S
C854 H892 0.929 . S
N855 Li810 1.990 . S
N855 C852 1.314 . S
N855 C853 1.279 . S
C856 C853 1.358 . S
C856 C857 1.356 . S
C856 H893 0.930 . S
C857 C854 1.348 . S
C857 C856 1.356 . S
H858 C852 0.930 . S
H859 C853 0.930 . S
C860 N861 1.314 . S
C860 C862 1.353 . S
C860 H866 0.930 . S
N861 Li811 1.990 . S
N861 C860 1.314 . S
N861 C864 1.279 . S
C862 C860 1.353 . S
C862 C865 1.348 . S
C862 H894 0.929 . S
C863 C864 1.358 . S
C863 C865 1.356 . S
C863 H895 0.930 . S
C864 N861 1.279 . S
C864 C863 1.358 . S
C864 H867 0.930 . S
C865 C862 1.348 . S
C865 C863 1.356 . S
H866 C860 0.930 . S
H867 C864 0.930 . S
O868 Li808 1.956 . S
O868 Li809 1.970 1_565 S
O868 Li810 1.961 . S
O868 C812 1.325 . S
O869 Li808 1.970 1_545 S
O869 Li809 1.956 . S
O869 Li811 1.961 . S
O869 C818 1.325 . S
O870 Li808 1.961 . S
O870 Li810 1.956 . S
O870 Li811 1.970 1_565 S
O870 C840 1.325 . S
O871 Li809 1.961 . S
O871 Li810 1.970 1_545 S
O871 Li811 1.956 . S
O871 C846 1.325 . S
H872 C814 0.929 . S
H873 C815 0.930 . S
H874 C816 0.930 . S
H875 C817 0.930 . S
H876 C819 0.930 . S
H877 C821 0.929 . S
H878 C822 0.930 . S
H879 C823 0.930 . S
H880 C826 0.930 . S
H881 C829 0.929 . S
H882 C834 0.929 . S
H883 C835 0.930 . S
H884 C842 0.929 . S
H885 C843 0.930 . S
H886 C844 0.930 . S
H887 C845 0.930 . S
H888 C847 0.929 . S
H889 C848 0.930 . S
H890 C849 0.930 . S
H891 C850 0.930 . S
H892 C854 0.929 . S
H893 C856 0.930 . S
H894 C862 0.929 . S
H895 C863 0.930 . S
Li896 N913 1.990 . S
Li896 O956 1.956 . S
Li896 O957 1.970 . S
Li896 O958 1.961 . S
Li897 N921 1.991 . S
Li897 O956 1.970 . S
Li897 O957 1.956 . S
Li897 O959 1.961 1_455 S
Li898 N943 1.990 . S
Li898 O956 1.961 . S
Li898 O958 1.956 . S
Li898 O959 1.970 1_455 S
Li899 N949 1.990 . S
Li899 O957 1.961 1_655 S
Li899 O958 1.970 1_655 S
Li899 O959 1.956 . S
C900 C902 1.348 . S
C900 C903 1.356 . S
C900 O956 1.325 . S
N901 C904 1.314 . S
N901 C905 1.279 . S
C902 C900 1.348 . S
C902 C904 1.353 . S
C902 H960 0.929 . S
C903 C900 1.356 . S
C903 C905 1.358 . S
C903 H961 0.930 . S
C904 N901 1.314 . S
C904 C902 1.353 . S
C904 H962 0.930 . S
C905 N901 1.279 . S
C905 C903 1.358 . S
C905 H963 0.930 . S
C906 C909 1.348 . S
C906 C910 1.356 1_455 S
C906 O957 1.325 . S
C907 N908 1.279 . S
C907 C910 1.358 . S
C907 H964 0.930 . S
N908 C907 1.279 . S
N908 C911 1.314 1_655 S
C909 C906 1.348 . S
C909 C911 1.353 . S
C909 H965 0.929 . S
C910 C906 1.356 1_655 S
C910 C907 1.358 . S
C910 H966 0.930 . S
C911 N908 1.314 1_455 S
C911 C909 1.353 . S
C911 H967 0.930 . S
C912 N913 1.314 . S
C912 C917 1.353 . S
C912 H918 0.930 . S
N913 Li896 1.990 . S
N913 C912 1.314 . S
N913 C915 1.279 . S
C914 C915 1.358 . S
C914 C916 1.356 . S
C914 H968 0.930 . S
C915 N913 1.279 . S
C915 C914 1.358 . S
C915 H919 0.930 . S
C916 C914 1.356 . S
C916 C917 1.348 . S
C917 C912 1.353 . S
C917 C916 1.348 . S
C917 H969 0.929 . S
H918 C912 0.930 . S
H919 C915 0.930 . S
C920 N921 1.313 1_655 S
C920 C922 1.353 . S
C920 H926 0.930 . S
N921 Li897 1.991 . S
N921 C920 1.313 1_455 S
N921 C924 1.280 . S
C922 C920 1.353 . S
C922 C925 1.348 . S
C922 H970 0.929 . S
C923 C924 1.366 . S
C923 C925 1.347 1_455 S
C923 H971 0.933 . S
C924 N921 1.280 . S
C924 C923 1.366 . S
C924 H927 0.930 . S
C925 C922 1.348 . S
C925 C923 1.347 1_655 S
H926 C920 0.930 . S
H927 C924 0.930 . S
C928 C930 1.348 1_455 S
C928 C931 1.356 . S
C928 O958 1.325 . S
N929 C932 1.275 1_455 S
N929 C933 1.279 . S
C930 C928 1.348 1_655 S
C930 C932 1.365 . S
C930 H972 0.929 . S
C931 C928 1.356 . S
C931 C933 1.358 . S
C931 H973 0.930 . S
C932 N929 1.275 1_655 S
C932 C930 1.365 . S
C932 H974 0.963 . S
C933 N929 1.279 . S
C933 C931 1.358 . S
C933 H975 0.930 . S
C934 C935 1.348 . S
C934 C936 1.356 . S
C934 O959 1.325 . S
C935 C934 1.348 . S
C935 C937 1.353 . S
C935 H976 0.929 . S
C936 C934 1.356 . S
C936 C938 1.358 . S
C936 H977 0.930 . S
C937 C935 1.353 . S
C937 N939 1.314 . S
C937 H978 0.930 . S
C938 C936 1.358 . S
C938 N939 1.279 . S
C938 H979 0.930 . S
N939 C937 1.314 . S
N939 C938 1.279 . S
C940 C942 1.353 . S
C940 N943 1.314 . S
C940 H946 0.930 . S
C941 N943 1.279 . S
C941 C944 1.358 . S
C941 H947 0.930 . S
C942 C940 1.353 . S
C942 C945 1.348 . S
C942 H980 0.929 . S
N943 Li898 1.990 . S
N943 C940 1.314 . S
N943 C941 1.279 . S
C944 C941 1.358 . S
C944 C945 1.356 . S
C944 H981 0.930 . S
C945 C942 1.348 . S
C945 C944 1.356 . S
H946 C940 0.930 . S
H947 C941 0.930 . S
C948 N949 1.314 . S
C948 C950 1.353 . S
C948 H954 0.930 . S
N949 Li899 1.990 . S
N949 C948 1.314 . S
N949 C952 1.279 . S
C950 C948 1.353 . S
C950 C953 1.348 . S
C950 H982 0.929 . S
C951 C952 1.358 . S
C951 C953 1.356 . S
C951 H983 0.930 . S
C952 N949 1.279 . S
C952 C951 1.358 . S
C952 H955 0.930 . S
C953 C950 1.348 . S
C953 C951 1.356 . S
H954 C948 0.930 . S
H955 C952 0.930 . S
O956 Li896 1.956 . S
O956 Li897 1.970 . S
O956 Li898 1.961 . S
O956 C900 1.325 . S
O957 Li896 1.970 . S
O957 Li897 1.956 . S
O957 Li899 1.961 1_455 S
O957 C906 1.325 . S
O958 Li896 1.961 . S
O958 Li898 1.956 . S
O958 Li899 1.970 1_455 S
O958 C928 1.325 . S
O959 Li897 1.961 1_655 S
O959 Li898 1.970 1_655 S
O959 Li899 1.956 . S
O959 C934 1.325 . S
H960 C902 0.929 . S
H961 C903 0.930 . S
H962 C904 0.930 . S
H963 C905 0.930 . S
H964 C907 0.930 . S
H965 C909 0.929 . S
H966 C910 0.930 . S
H967 C911 0.930 . S
H968 C914 0.930 . S
H969 C917 0.929 . S
H970 C922 0.929 . S
H971 C923 0.933 . S
H972 C930 0.929 . S
H973 C931 0.930 . S
H974 C932 0.963 . S
H975 C933 0.930 . S
H976 C935 0.929 . S
H977 C936 0.930 . S
H978 C937 0.930 . S
H979 C938 0.930 . S
H980 C942 0.929 . S
H981 C944 0.930 . S
H982 C950 0.929 . S
H983 C951 0.930 . S
Li984 N1001 1.990 . S
Li984 O1044 1.956 . S
Li984 O1045 1.970 . S
Li984 O1046 1.961 . S
Li985 N1009 1.990 . S
Li985 O1044 1.970 . S
Li985 O1045 1.956 . S
Li985 O1047 1.961 . S
Li986 N1031 1.990 . S
Li986 O1044 1.961 . S
Li986 O1046 1.956 . S
Li986 O1047 1.970 . S
Li987 N1037 1.990 . S
Li987 O1045 1.961 . S
Li987 O1046 1.970 . S
Li987 O1047 1.956 . S
C988 C990 1.348 . S
C988 C991 1.356 . S
C988 O1044 1.325 . S
N989 C992 1.314 . S
N989 C993 1.279 . S
C990 C988 1.348 . S
C990 C992 1.353 . S
C990 H1048 0.929 . S
C991 C988 1.356 . S
C991 C993 1.358 . S
C991 H1049 0.930 . S
C992 N989 1.314 . S
C992 C990 1.353 . S
C992 H1050 0.930 . S
C993 N989 1.279 . S
C993 C991 1.358 . S
C993 H1051 0.930 . S
C994 C997 1.348 . S
C994 C998 1.356 . S
C994 O1045 1.325 . S
C995 N996 1.279 . S
C995 C998 1.358 . S
C995 H1052 0.930 . S
N996 C995 1.279 . S
N996 C999 1.314 . S
C997 C994 1.348 . S
C997 C999 1.353 . S
C997 H1053 0.929 . S
C998 C994 1.356 . S
C998 C995 1.358 . S
C998 H1054 0.930 . S
C999 N996 1.314 . S
C999 C997 1.353 . S
C999 H1055 0.930 . S
C1000 N1001 1.314 . S
C1000 C1005 1.353 . S
C1000 H1006 0.930 . S
N1001 Li984 1.990 . S
N1001 C1000 1.314 . S
N1001 C1003 1.279 . S
C1002 C1003 1.358 . S
C1002 C1004 1.356 . S
C1002 H1056 0.930 . S
C1003 N1001 1.279 . S
C1003 C1002 1.358 . S
C1003 H1007 0.930 . S
C1004 C1002 1.356 . S
C1004 C1005 1.348 . S
C1005 C1000 1.353 . S
C1005 C1004 1.348 . S
C1005 H1057 0.929 . S
H1006 C1000 0.930 . S
H1007 C1003 0.930 . S
C1008 N1009 1.314 . S
C1008 C1010 1.353 . S
C1008 H1014 0.930 . S
N1009 Li985 1.990 . S
N1009 C1008 1.314 . S
N1009 C1012 1.279 . S
C1010 C1008 1.353 . S
C1010 C1013 1.348 . S
C1010 H1058 0.929 . S
C1011 C1012 1.358 . S
C1011 C1013 1.356 . S
C1011 H1059 0.930 . S
C1012 N1009 1.279 . S
C1012 C1011 1.358 . S
C1012 H1015 0.930 . S
C1013 C1010 1.348 . S
C1013 C1011 1.356 . S
H1014 C1008 0.930 . S
H1015 C1012 0.930 . S
C1016 C1018 1.348 . S
C1016 C1019 1.356 . S
C1016 O1046 1.325 . S
N1017 C1020 1.314 . S
N1017 C1021 1.279 . S
C1018 C1016 1.348 . S
C1018 C1020 1.353 . S
C1018 H1060 0.929 . S
C1019 C1016 1.356 . S
C1019 C1021 1.358 . S
C1019 H1061 0.930 . S
C1020 N1017 1.314 . S
C1020 C1018 1.353 . S
C1020 H1062 0.930 . S
C1021 N1017 1.279 . S
C1021 C1019 1.358 . S
C1021 H1063 0.930 . S
C1022 C1023 1.348 . S
C1022 C1024 1.356 . S
C1022 O1047 1.325 . S
C1023 C1022 1.348 . S
C1023 C1025 1.353 . S
C1023 H1064 0.929 . S
C1024 C1022 1.356 . S
C1024 C1026 1.358 . S
C1024 H1065 0.930 . S
C1025 C1023 1.353 . S
C1025 N1027 1.314 . S
C1025 H1066 0.930 . S
C1026 C1024 1.358 . S
C1026 N1027 1.279 . S
C1026 H1067 0.930 . S
N1027 C1025 1.314 . S
N1027 C1026 1.279 . S
C1028 C1030 1.353 . S
C1028 N1031 1.314 . S
C1028 H1034 0.930 . S
C1029 N1031 1.279 . S
C1029 C1032 1.358 . S
C1029 H1035 0.930 . S
C1030 C1028 1.353 . S
C1030 C1033 1.348 . S
C1030 H1068 0.929 . S
N1031 Li986 1.990 . S
N1031 C1028 1.314 . S
N1031 C1029 1.279 . S
C1032 C1029 1.358 . S
C1032 C1033 1.356 . S
C1032 H1069 0.930 . S
C1033 C1030 1.348 . S
C1033 C1032 1.356 . S
H1034 C1028 0.930 . S
H1035 C1029 0.930 . S
C1036 N1037 1.314 . S
C1036 C1038 1.353 . S
C1036 H1042 0.930 . S
N1037 Li987 1.990 . S
N1037 C1036 1.314 . S
N1037 C1040 1.279 . S
C1038 C1036 1.353 . S
C1038 C1041 1.348 . S
C1038 H1070 0.929 . S
C1039 C1040 1.358 . S
C1039 C1041 1.356 . S
C1039 H1071 0.930 . S
C1040 N1037 1.279 . S
C1040 C1039 1.358 . S
C1040 H1043 0.930 . S
C1041 C1038 1.348 . S
C1041 C1039 1.356 . S
H1042 C1036 0.930 . S
H1043 C1040 0.930 . S
O1044 Li984 1.956 . S
O1044 Li985 1.970 . S
O1044 Li986 1.961 . S
O1044 C988 1.325 . S
O1045 Li984 1.970 . S
O1045 Li985 1.956 . S
O1045 Li987 1.961 . S
O1045 C994 1.325 . S
O1046 Li984 1.961 . S
O1046 Li986 1.956 . S
O1046 Li987 1.970 . S
O1046 C1016 1.325 . S
O1047 Li985 1.961 . S
O1047 Li986 1.970 . S
O1047 Li987 1.956 . S
O1047 C1022 1.325 . S
H1048 C990 0.929 . S
H1049 C991 0.930 . S
H1050 C992 0.930 . S
H1051 C993 0.930 . S
H1052 C995 0.930 . S
H1053 C997 0.929 . S
H1054 C998 0.930 . S
H1055 C999 0.930 . S
H1056 C1002 0.930 . S
H1057 C1005 0.929 . S
H1058 C1010 0.929 . S
H1059 C1011 0.930 . S
H1060 C1018 0.929 . S
H1061 C1019 0.930 . S
H1062 C1020 0.930 . S
H1063 C1021 0.930 . S
H1064 C1023 0.929 . S
H1065 C1024 0.930 . S
H1066 C1025 0.930 . S
H1067 C1026 0.930 . S
H1068 C1030 0.929 . S
H1069 C1032 0.930 . S
H1070 C1038 0.929 . S
H1071 C1039 0.930 . S
Li1072 N1089 1.990 . S
Li1072 O1132 1.956 . S
Li1072 O1133 1.970 1_455 S
Li1072 O1134 1.961 . S
Li1073 N1097 1.990 . S
Li1073 O1132 1.970 1_655 S
Li1073 O1133 1.956 . S
Li1073 O1135 1.961 1_655 S
Li1074 N1119 1.990 . S
Li1074 O1132 1.961 . S
Li1074 O1134 1.956 . S
Li1074 O1135 1.970 . S
Li1075 N1125 1.990 . S
Li1075 O1133 1.961 1_455 S
Li1075 O1134 1.970 . S
Li1075 O1135 1.956 . S
C1076 C1078 1.348 . S
C1076 C1079 1.356 . S
C1076 O1132 1.325 . S
N1077 C1080 1.314 . S
N1077 C1081 1.279 . S
C1078 C1076 1.348 . S
C1078 C1080 1.353 . S
C1078 H1136 0.929 1_455 S
C1079 C1076 1.356 . S
C1079 C1081 1.358 . S
C1079 H1137 0.930 . S
C1080 N1077 1.314 . S
C1080 C1078 1.353 . S
C1080 H1138 0.930 1_455 S
C1081 N1077 1.279 . S
C1081 C1079 1.358 . S
C1081 H1139 0.930 . S
C1082 C1085 1.348 . S
C1082 C1086 1.356 . S
C1082 O1133 1.325 . S
C1083 N1084 1.279 . S
C1083 C1086 1.358 . S
C1083 H1140 0.930 . S
N1084 C1083 1.279 . S
N1084 C1087 1.314 . S
C1085 C1082 1.348 . S
C1085 C1087 1.353 . S
C1085 H1141 0.929 . S
C1086 C1082 1.356 . S
C1086 C1083 1.358 . S
C1086 H1142 0.930 . S
C1087 N1084 1.314 . S
C1087 C1085 1.353 . S
C1087 H1143 0.930 . S
C1088 N1089 1.314 . S
C1088 C1093 1.353 . S
C1088 H1094 0.930 . S
N1089 Li1072 1.990 . S
N1089 C1088 1.314 . S
N1089 C1091 1.279 . S
C1090 C1091 1.358 . S
C1090 C1092 1.356 . S
C1090 H1144 0.930 . S
C1091 N1089 1.279 . S
C1091 C1090 1.358 . S
C1091 H1095 0.930 . S
C1092 C1090 1.356 . S
C1092 C1093 1.348 . S
C1093 C1088 1.353 . S
C1093 C1092 1.348 . S
C1093 H1145 0.929 . S
H1094 C1088 0.930 . S
H1095 C1091 0.930 . S
C1096 N1097 1.314 . S
C1096 C1098 1.353 . S
C1096 H1102 0.930 . S
N1097 Li1073 1.990 . S
N1097 C1096 1.314 . S
N1097 C1100 1.279 . S
C1098 C1096 1.353 . S
C1098 C1101 1.348 . S
C1098 H1146 0.929 . S
C1099 C1100 1.358 . S
C1099 C1101 1.356 . S
C1099 H1147 0.930 . S
C1100 N1097 1.279 . S
C1100 C1099 1.358 . S
C1100 H1103 0.930 . S
C1101 C1098 1.348 . S
C1101 C1099 1.356 . S
H1102 C1096 0.930 . S
H1103 C1100 0.930 . S
C1104 C1106 1.348 . S
C1104 C1107 1.356 . S
C1104 O1134 1.325 . S
N1105 C1108 1.314 . S
N1105 C1109 1.279 . S
C1106 C1104 1.348 . S
C1106 C1108 1.353 . S
C1106 H1148 0.929 . S
C1107 C1104 1.356 . S
C1107 C1109 1.358 . S
C1107 H1149 0.930 . S
C1108 N1105 1.314 . S
C1108 C1106 1.353 . S
C1108 H1150 0.930 . S
C1109 N1105 1.279 . S
C1109 C1107 1.358 . S
C1109 H1151 0.930 . S
C1110 C1111 1.348 . S
C1110 C1112 1.356 1_455 S
C1110 O1135 1.325 . S
C1111 C1110 1.348 . S
C1111 C1113 1.353 . S
C1111 H1152 0.929 . S
C1112 C1110 1.356 1_655 S
C1112 C1114 1.358 . S
C1112 H1153 0.930 . S
C1113 C1111 1.353 . S
C1113 N1115 1.256 1_455 S
C1113 H1154 0.930 . S
C1114 C1112 1.358 . S
C1114 N1115 1.328 . S
C1114 H1155 0.930 . S
N1115 C1113 1.256 1_655 S
N1115 C1114 1.328 . S
C1116 C1118 1.353 . S
C1116 N1119 1.314 . S
C1116 H1122 0.930 . S
C1117 N1119 1.279 . S
C1117 C1120 1.358 . S
C1117 H1123 0.930 . S
C1118 C1116 1.353 . S
C1118 C1121 1.348 . S
C1118 H1156 0.929 . S
N1119 Li1074 1.990 . S
N1119 C1116 1.314 . S
N1119 C1117 1.279 . S
C1120 C1117 1.358 . S
C1120 C1121 1.356 . S
C1120 H1157 0.930 . S
C1121 C1118 1.348 . S
C1121 C1120 1.356 . S
H1122 C1116 0.930 . S
H1123 C1117 0.930 . S
C1124 N1125 1.314 1_655 S
C1124 C1126 1.353 . S
C1124 H1130 0.930 . S
N1125 Li1075 1.990 . S
N1125 C1124 1.314 1_455 S
N1125 C1128 1.279 . S
C1126 C1124 1.353 . S
C1126 C1129 1.348 . S
C1126 H1158 0.929 . S
C1127 C1128 1.358 . S
C1127 C1129 1.356 1_455 S
C1127 H1159 0.930 . S
C1128 N1125 1.279 . S
C1128 C1127 1.358 . S
C1128 H1131 0.930 . S
C1129 C1126 1.348 . S
C1129 C1127 1.356 1_655 S
H1130 C1124 0.930 . S
H1131 C1128 0.930 . S
O1132 Li1072 1.956 . S
O1132 Li1073 1.970 1_455 S
O1132 Li1074 1.961 . S
O1132 C1076 1.325 . S
O1133 Li1072 1.970 1_655 S
O1133 Li1073 1.956 . S
O1133 Li1075 1.961 1_655 S
O1133 C1082 1.325 . S
O1134 Li1072 1.961 . S
O1134 Li1074 1.956 . S
O1134 Li1075 1.970 . S
O1134 C1104 1.325 . S
O1135 Li1073 1.961 1_455 S
O1135 Li1074 1.970 . S
O1135 Li1075 1.956 . S
O1135 C1110 1.325 . S
H1136 C1078 0.929 1_655 S
H1137 C1079 0.930 . S
H1138 C1080 0.930 1_655 S
H1139 C1081 0.930 . S
H1140 C1083 0.930 . S
H1141 C1085 0.929 . S
H1142 C1086 0.930 . S
H1143 C1087 0.930 . S
H1144 C1090 0.930 . S
H1145 C1093 0.929 . S
H1146 C1098 0.929 . S
H1147 C1099 0.930 . S
H1148 C1106 0.929 . S
H1149 C1107 0.930 . S
H1150 C1108 0.930 . S
H1151 C1109 0.930 . S
H1152 C1111 0.929 . S
H1153 C1112 0.930 . S
H1154 C1113 0.930 . S
H1155 C1114 0.930 . S
H1156 C1118 0.929 . S
H1157 C1120 0.930 . S
H1158 C1126 0.929 . S
H1159 C1127 0.930 . S
Li1160 N1177 1.990 . S
Li1160 O1220 1.956 . S
Li1160 O1221 1.970 . S
Li1160 O1222 1.961 . S
Li1161 N1185 1.990 . S
Li1161 O1220 1.970 . S
Li1161 O1221 1.956 . S
Li1161 O1223 1.961 . S
Li1162 N1207 1.990 . S
Li1162 O1220 1.961 . S
Li1162 O1222 1.956 . S
Li1162 O1223 1.970 . S
Li1163 N1213 1.990 . S
Li1163 O1221 1.961 . S
Li1163 O1222 1.970 . S
Li1163 O1223 1.956 . S
C1164 C1166 1.348 . S
C1164 C1167 1.356 . S
C1164 O1220 1.325 . S
N1165 C1168 1.314 . S
N1165 C1169 1.279 . S
C1166 C1164 1.348 . S
C1166 C1168 1.353 . S
C1166 H1224 0.929 . S
C1167 C1164 1.356 . S
C1167 C1169 1.358 . S
C1167 H1225 0.930 . S
C1168 N1165 1.314 . S
C1168 C1166 1.353 . S
C1168 H1226 0.930 . S
C1169 N1165 1.279 . S
C1169 C1167 1.358 . S
C1169 H1227 0.930 . S
C1170 C1173 1.348 . S
C1170 C1174 1.356 . S
C1170 O1221 1.325 . S
C1171 N1172 1.279 . S
C1171 C1174 1.358 . S
C1171 H1228 0.930 . S
N1172 C1171 1.279 . S
N1172 C1175 1.314 . S
C1173 C1170 1.348 . S
C1173 C1175 1.353 . S
C1173 H1229 0.929 . S
C1174 C1170 1.356 . S
C1174 C1171 1.358 . S
C1174 H1230 0.930 . S
C1175 N1172 1.314 . S
C1175 C1173 1.353 . S
C1175 H1231 0.930 . S
C1176 N1177 1.314 . S
C1176 C1181 1.353 . S
C1176 H1182 0.930 . S
N1177 Li1160 1.990 . S
N1177 C1176 1.314 . S
N1177 C1179 1.279 . S
C1178 C1179 1.358 . S
C1178 C1180 1.356 . S
C1178 H1232 0.930 . S
C1179 N1177 1.279 . S
C1179 C1178 1.358 . S
C1179 H1183 0.930 . S
C1180 C1178 1.356 . S
C1180 C1181 1.348 . S
C1181 C1176 1.353 . S
C1181 C1180 1.348 . S
C1181 H1233 0.929 . S
H1182 C1176 0.930 . S
H1183 C1179 0.930 . S
C1184 N1185 1.314 . S
C1184 C1186 1.353 . S
C1184 H1190 0.930 . S
N1185 Li1161 1.990 . S
N1185 C1184 1.314 . S
N1185 C1188 1.279 . S
C1186 C1184 1.353 . S
C1186 C1189 1.348 . S
C1186 H1234 0.929 . S
C1187 C1188 1.358 . S
C1187 C1189 1.356 . S
C1187 H1235 0.930 . S
C1188 N1185 1.279 . S
C1188 C1187 1.358 . S
C1188 H1191 0.930 . S
C1189 C1186 1.348 . S
C1189 C1187 1.356 . S
H1190 C1184 0.930 . S
H1191 C1188 0.930 . S
C1192 C1194 1.348 . S
C1192 C1195 1.356 . S
C1192 O1222 1.325 . S
N1193 C1196 1.314 . S
N1193 C1197 1.279 . S
C1194 C1192 1.348 . S
C1194 C1196 1.353 . S
C1194 H1236 0.929 . S
C1195 C1192 1.356 . S
C1195 C1197 1.358 . S
C1195 H1237 0.930 . S
C1196 N1193 1.314 . S
C1196 C1194 1.353 . S
C1196 H1238 0.930 . S
C1197 N1193 1.279 . S
C1197 C1195 1.358 . S
C1197 H1239 0.930 . S
C1198 C1199 1.348 . S
C1198 C1200 1.356 . S
C1198 O1223 1.325 . S
C1199 C1198 1.348 . S
C1199 C1201 1.353 . S
C1199 H1240 0.929 . S
C1200 C1198 1.356 . S
C1200 C1202 1.358 . S
C1200 H1241 0.930 . S
C1201 C1199 1.353 . S
C1201 N1203 1.314 . S
C1201 H1242 0.930 . S
C1202 C1200 1.358 . S
C1202 N1203 1.279 . S
C1202 H1243 0.930 . S
N1203 C1201 1.314 . S
N1203 C1202 1.279 . S
C1204 C1206 1.353 . S
C1204 N1207 1.314 . S
C1204 H1210 0.930 . S
C1205 N1207 1.279 . S
C1205 C1208 1.358 . S
C1205 H1211 0.930 . S
C1206 C1204 1.353 . S
C1206 C1209 1.348 . S
C1206 H1244 0.929 . S
N1207 Li1162 1.990 . S
N1207 C1204 1.314 . S
N1207 C1205 1.279 . S
C1208 C1205 1.358 . S
C1208 C1209 1.356 . S
C1208 H1245 0.930 . S
C1209 C1206 1.348 . S
C1209 C1208 1.356 . S
H1210 C1204 0.930 . S
H1211 C1205 0.930 . S
C1212 N1213 1.314 . S
C1212 C1214 1.353 . S
C1212 H1218 0.930 . S
N1213 Li1163 1.990 . S
N1213 C1212 1.314 . S
N1213 C1216 1.279 . S
C1214 C1212 1.353 . S
C1214 C1217 1.348 . S
C1214 H1246 0.929 . S
C1215 C1216 1.358 . S
C1215 C1217 1.356 . S
C1215 H1247 0.930 . S
C1216 N1213 1.279 . S
C1216 C1215 1.358 . S
C1216 H1219 0.930 . S
C1217 C1214 1.348 . S
C1217 C1215 1.356 . S
H1218 C1212 0.930 . S
H1219 C1216 0.930 . S
O1220 Li1160 1.956 . S
O1220 Li1161 1.970 . S
O1220 Li1162 1.961 . S
O1220 C1164 1.325 . S
O1221 Li1160 1.970 . S
O1221 Li1161 1.956 . S
O1221 Li1163 1.961 . S
O1221 C1170 1.325 . S
O1222 Li1160 1.961 . S
O1222 Li1162 1.956 . S
O1222 Li1163 1.970 . S
O1222 C1192 1.325 . S
O1223 Li1161 1.961 . S
O1223 Li1162 1.970 . S
O1223 Li1163 1.956 . S
O1223 C1198 1.325 . S
H1224 C1166 0.929 . S
H1225 C1167 0.930 . S
H1226 C1168 0.930 . S
H1227 C1169 0.930 . S
H1228 C1171 0.930 . S
H1229 C1173 0.929 . S
H1230 C1174 0.930 . S
H1231 C1175 0.930 . S
H1232 C1178 0.930 . S
H1233 C1181 0.929 . S
H1234 C1186 0.929 . S
H1235 C1187 0.930 . S
H1236 C1194 0.929 . S
H1237 C1195 0.930 . S
H1238 C1196 0.930 . S
H1239 C1197 0.930 . S
H1240 C1199 0.929 . S
H1241 C1200 0.930 . S
H1242 C1201 0.930 . S
H1243 C1202 0.930 . S
H1244 C1206 0.929 . S
H1245 C1208 0.930 . S
H1246 C1214 0.929 . S
H1247 C1215 0.930 . S
H1248 C1256 0.929 . S
H1249 C1258 0.930 . S
H1250 C1260 0.930 . S
H1251 C1263 0.929 . S
H1252 C1266 0.930 . S
H1253 C1268 0.960 . S
H1254 C1268 0.960 . S
H1255 C1268 0.960 . S
C1256 H1248 0.929 . S
C1256 C1257 1.377 . S
C1256 C1258 1.384 . S
C1257 C1256 1.377 . S
C1257 C1263 1.390 . S
C1258 H1249 0.930 . S
C1258 C1256 1.384 . S
C1258 C1259 1.372 . S
C1259 C1258 1.372 . S
C1259 C1260 1.400 . S
C1259 C1264 1.490 . S
C1260 H1250 0.930 . S
C1260 C1259 1.400 . S
C1260 C1263 1.386 . S
H1261 C1277 0.930 . S
H1262 C1278 0.931 . S
C1263 H1251 0.929 . S
C1263 C1257 1.390 . S
C1263 C1260 1.386 . S
C1264 C1259 1.490 . S
C1264 C1266 1.395 . S
C1264 C1267 1.403 . S
H1265 C1271 0.930 . S
C1266 H1252 0.930 . S
C1266 C1264 1.395 . S
C1266 C1269 1.403 . S
C1267 C1264 1.403 . S
C1267 C1268 1.524 . S
C1267 C1271 1.400 . S
C1268 H1253 0.960 . S
C1268 H1254 0.960 . S
C1268 H1255 0.960 . S
C1268 C1267 1.524 . S
C1269 C1266 1.403 . S
C1269 C1270 1.392 . S
C1269 C1273 1.495 . S
C1270 C1269 1.392 . S
C1270 C1271 1.385 . S
C1270 C1272 1.478 . S
C1271 H1265 0.930 . S
C1271 C1267 1.400 . S
C1271 C1270 1.385 . S
C1272 C1270 1.478 . S
C1272 C1274 1.381 . S
C1272 C1278 1.383 . S
C1273 C1269 1.495 . S
C1273 H1279 0.959 . S
C1273 H1280 0.961 . S
C1273 H1281 0.960 . S
C1274 C1272 1.381 . S
C1274 C1275 1.394 . S
C1274 H1282 0.930 . S
C1275 C1274 1.394 . S
C1275 C1276 1.383 . S
C1275 H1283 0.929 . S
C1276 C1275 1.383 . S
C1276 C1277 1.377 . S
C1277 H1261 0.930 . S
C1277 C1276 1.377 . S
C1277 C1278 1.379 . S
C1278 H1262 0.931 . S
C1278 C1272 1.383 . S
C1278 C1277 1.379 . S
H1279 C1273 0.959 . S
H1280 C1273 0.961 . S
H1281 C1273 0.960 . S
H1282 C1274 0.930 . S
H1283 C1275 0.929 . S
H1284 C1292 0.929 . S
H1285 C1294 0.930 . S
H1286 C1296 0.930 . S
H1287 C1299 0.929 1_655 S
H1288 C1302 0.930 . S
H1289 C1304 0.960 . S
H1290 C1304 0.960 . S
H1291 C1304 0.960 . S
C1292 H1284 0.929 . S
C1292 C1293 1.377 . S
C1292 C1294 1.384 . S
C1293 C1292 1.377 . S
C1293 C1299 1.390 . S
C1294 H1285 0.930 . S
C1294 C1292 1.384 . S
C1294 C1295 1.372 . S
C1295 C1294 1.372 . S
C1295 C1296 1.400 . S
C1295 C1300 1.490 . S
C1296 H1286 0.930 . S
C1296 C1295 1.400 . S
C1296 C1299 1.386 . S
H1297 C1313 0.930 . S
H1298 C1314 0.931 . S
C1299 H1287 0.929 1_455 S
C1299 C1293 1.390 . S
C1299 C1296 1.386 . S
C1300 C1295 1.490 . S
C1300 C1302 1.395 . S
C1300 C1303 1.403 . S
H1301 C1307 0.930 . S
C1302 H1288 0.930 . S
C1302 C1300 1.395 . S
C1302 C1305 1.403 . S
C1303 C1300 1.403 . S
C1303 C1304 1.524 . S
C1303 C1307 1.400 . S
C1304 H1289 0.960 . S
C1304 H1290 0.960 . S
C1304 H1291 0.960 . S
C1304 C1303 1.524 . S
C1305 C1302 1.403 . S
C1305 C1306 1.392 . S
C1305 C1309 1.495 . S
C1306 C1305 1.392 . S
C1306 C1307 1.385 . S
C1306 C1308 1.478 . S
C1307 H1301 0.930 . S
C1307 C1303 1.400 . S
C1307 C1306 1.385 . S
C1308 C1306 1.478 . S
C1308 C1310 1.381 . S
C1308 C1314 1.383 . S
C1309 C1305 1.495 . S
C1309 H1315 0.959 . S
C1309 H1316 0.961 . S
C1309 H1317 0.960 . S
C1310 C1308 1.381 . S
C1310 C1311 1.394 . S
C1310 H1318 0.930 . S
C1311 C1310 1.394 . S
C1311 C1312 1.383 . S
C1311 H1319 0.929 . S
C1312 C1311 1.383 . S
C1312 C1313 1.377 . S
C1313 H1297 0.930 . S
C1313 C1312 1.377 . S
C1313 C1314 1.379 . S
C1314 H1298 0.931 . S
C1314 C1308 1.383 . S
C1314 C1313 1.379 . S
H1315 C1309 0.959 . S
H1316 C1309 0.961 . S
H1317 C1309 0.960 . S
H1318 C1310 0.930 . S
H1319 C1311 0.929 . S
H1320 C1328 0.929 . S
H1321 C1330 0.930 . S
H1322 C1332 0.930 . S
H1323 C1335 0.929 . S
H1324 C1338 0.930 . S
H1325 C1340 0.960 . S
H1326 C1340 0.960 . S
H1327 C1340 0.960 . S
C1328 H1320 0.929 . S
C1328 C1329 1.377 . S
C1328 C1330 1.384 . S
C1329 C1328 1.377 . S
C1329 C1335 1.390 . S
C1330 H1321 0.930 . S
C1330 C1328 1.384 . S
C1330 C1331 1.372 . S
C1331 C1330 1.372 . S
C1331 C1332 1.400 . S
C1331 C1336 1.490 . S
C1332 H1322 0.930 . S
C1332 C1331 1.400 . S
C1332 C1335 1.386 . S
H1333 C1349 0.930 . S
H1334 C1350 0.931 . S
C1335 H1323 0.929 . S
C1335 C1329 1.390 . S
C1335 C1332 1.386 . S
C1336 C1331 1.490 . S
C1336 C1338 1.395 . S
C1336 C1339 1.403 . S
H1337 C1343 0.930 . S
C1338 H1324 0.930 . S
C1338 C1336 1.395 . S
C1338 C1341 1.403 . S
C1339 C1336 1.403 . S
C1339 C1340 1.524 . S
C1339 C1343 1.400 . S
C1340 H1325 0.960 . S
C1340 H1326 0.960 . S
C1340 H1327 0.960 . S
C1340 C1339 1.524 . S
C1341 C1338 1.403 . S
C1341 C1342 1.392 . S
C1341 C1345 1.495 . S
C1342 C1341 1.392 . S
C1342 C1343 1.385 . S
C1342 C1344 1.478 . S
C1343 H1337 0.930 . S
C1343 C1339 1.400 . S
C1343 C1342 1.385 . S
C1344 C1342 1.478 . S
C1344 C1346 1.381 . S
C1344 C1350 1.383 . S
C1345 C1341 1.495 . S
C1345 H1351 0.959 . S
C1345 H1352 0.961 . S
C1345 H1353 0.960 . S
C1346 C1344 1.381 . S
C1346 C1347 1.394 . S
C1346 H1354 0.930 . S
C1347 C1346 1.394 . S
C1347 C1348 1.383 . S
C1347 H1355 0.929 . S
C1348 C1347 1.383 . S
C1348 C1349 1.377 . S
C1349 H1333 0.930 . S
C1349 C1348 1.377 . S
C1349 C1350 1.379 . S
C1350 H1334 0.931 . S
C1350 C1344 1.383 . S
C1350 C1349 1.379 . S
H1351 C1345 0.959 . S
H1352 C1345 0.961 . S
H1353 C1345 0.960 . S
H1354 C1346 0.930 . S
H1355 C1347 0.929 . S
H1356 C1364 0.929 . S
H1357 C1366 0.930 . S
H1358 C1368 0.930 . S
H1359 C1371 0.929 . S
H1360 C1374 0.913 1_655 S
H1361 C1376 0.960 . S
H1362 C1376 0.960 . S
H1363 C1376 0.960 . S
C1364 H1356 0.929 . S
C1364 C1365 1.377 . S
C1364 C1366 1.384 . S
C1365 C1364 1.377 . S
C1365 C1371 1.390 1_565 S
C1366 H1357 0.930 . S
C1366 C1364 1.384 . S
C1366 C1367 1.372 . S
C1367 C1366 1.372 . S
C1367 C1368 1.400 1_565 S
C1367 C1372 1.490 . S
C1368 H1358 0.930 . S
C1368 C1367 1.400 1_545 S
C1368 C1371 1.386 . S
H1369 C1385 0.930 . S
H1370 C1386 0.931 . S
C1371 H1359 0.929 . S
C1371 C1365 1.390 1_545 S
C1371 C1368 1.386 . S
C1372 C1367 1.490 . S
C1372 C1374 1.395 . S
C1372 C1375 1.403 1_565 S
H1373 C1379 0.930 . S
C1374 H1360 0.913 1_455 S
C1374 C1372 1.395 . S
C1374 C1377 1.403 1_455 S
C1375 C1372 1.403 1_545 S
C1375 C1376 1.524 . S
C1375 C1379 1.400 . S
C1376 H1361 0.960 . S
C1376 H1362 0.960 . S
C1376 H1363 0.960 . S
C1376 C1375 1.524 . S
C1377 C1374 1.403 1_655 S
C1377 C1378 1.405 . S
C1377 C1381 1.495 . S
C1378 C1377 1.405 . S
C1378 C1379 1.356 1_665 S
C1378 C1380 1.494 1_565 S
C1379 H1373 0.930 . S
C1379 C1375 1.400 . S
C1379 C1378 1.356 1_445 S
C1380 C1378 1.494 1_545 S
C1380 C1382 1.381 1_545 S
C1380 C1386 1.383 . S
C1381 C1377 1.495 . S
C1381 H1387 0.959 . S
C1381 H1388 0.961 . S
C1381 H1389 0.960 . S
C1382 C1380 1.381 1_565 S
C1382 C1383 1.394 . S
C1382 H1390 0.930 . S
C1383 C1382 1.394 . S
C1383 C1384 1.383 1_565 S
C1383 H1391 0.929 . S
C1384 C1383 1.383 1_545 S
C1384 C1385 1.377 . S
C1385 H1369 0.930 . S
C1385 C1384 1.377 . S
C1385 C1386 1.379 . S
C1386 H1370 0.931 . S
C1386 C1380 1.383 . S
C1386 C1385 1.379 . S
H1387 C1381 0.959 . S
H1388 C1381 0.961 . S
H1389 C1381 0.960 . S
H1390 C1382 0.930 . S
H1391 C1383 0.929 . S
H1392 C1400 0.929 . S
H1393 C1402 0.930 . S
H1394 C1404 0.930 . S
H1395 C1407 0.929 . S
H1396 C1410 0.930 . S
H1397 C1412 0.960 . S
H1398 C1412 0.960 . S
H1399 C1412 0.960 . S
C1400 H1392 0.929 . S
C1400 C1401 1.377 . S
C1400 C1402 1.384 . S
C1401 C1400 1.377 . S
C1401 C1407 1.390 . S
C1402 H1393 0.930 . S
C1402 C1400 1.384 . S
C1402 C1403 1.372 . S
C1403 C1402 1.372 . S
C1403 C1404 1.400 . S
C1403 C1408 1.490 . S
C1404 H1394 0.930 . S
C1404 C1403 1.400 . S
C1404 C1407 1.386 . S
H1405 C1421 0.930 . S
H1406 C1422 0.931 . S
C1407 H1395 0.929 . S
C1407 C1401 1.390 . S
C1407 C1404 1.386 . S
C1408 C1403 1.490 . S
C1408 C1410 1.395 . S
C1408 C1411 1.403 . S
H1409 C1415 0.930 . S
C1410 H1396 0.930 . S
C1410 C1408 1.395 . S
C1410 C1413 1.403 . S
C1411 C1408 1.403 . S
C1411 C1412 1.524 . S
C1411 C1415 1.400 . S
C1412 H1397 0.960 . S
C1412 H1398 0.960 . S
C1412 H1399 0.960 . S
C1412 C1411 1.524 . S
C1413 C1410 1.403 . S
C1413 C1414 1.392 . S
C1413 C1417 1.495 . S
C1414 C1413 1.392 . S
C1414 C1415 1.385 . S
C1414 C1416 1.478 . S
C1415 H1409 0.930 . S
C1415 C1411 1.400 . S
C1415 C1414 1.385 . S
C1416 C1414 1.478 . S
C1416 C1418 1.381 . S
C1416 C1422 1.383 . S
C1417 C1413 1.495 . S
C1417 H1423 0.959 . S
C1417 H1424 0.961 . S
C1417 H1425 0.960 . S
C1418 C1416 1.381 . S
C1418 C1419 1.394 . S
C1418 H1426 0.930 . S
C1419 C1418 1.394 . S
C1419 C1420 1.383 . S
C1419 H1427 0.929 . S
C1420 C1419 1.383 . S
C1420 C1421 1.377 . S
C1421 H1405 0.930 . S
C1421 C1420 1.377 . S
C1421 C1422 1.379 . S
C1422 H1406 0.931 . S
C1422 C1416 1.383 . S
C1422 C1421 1.379 . S
H1423 C1417 0.959 . S
H1424 C1417 0.961 . S
H1425 C1417 0.960 . S
H1426 C1418 0.930 . S
H1427 C1419 0.929 . S
H1428 C1436 0.929 . S
H1429 C1438 0.930 . S
H1430 C1440 0.930 . S
H1431 C1443 0.929 . S
H1432 C1446 0.930 . S
H1433 C1448 0.960 . S
H1434 C1448 0.960 . S
H1435 C1448 0.960 . S
C1436 H1428 0.929 . S
C1436 C1437 1.377 . S
C1436 C1438 1.384 . S
C1437 C1436 1.377 . S
C1437 C1443 1.390 . S
C1438 H1429 0.930 . S
C1438 C1436 1.384 . S
C1438 C1439 1.372 . S
C1439 C1438 1.372 . S
C1439 C1440 1.400 . S
C1439 C1444 1.490 . S
C1440 H1430 0.930 . S
C1440 C1439 1.400 . S
C1440 C1443 1.386 . S
H1441 C1457 0.930 . S
H1442 C1458 0.931 . S
C1443 H1431 0.929 . S
C1443 C1437 1.390 . S
C1443 C1440 1.386 . S
C1444 C1439 1.490 . S
C1444 C1446 1.395 . S
C1444 C1447 1.403 . S
H1445 C1451 0.930 . S
C1446 H1432 0.930 . S
C1446 C1444 1.395 . S
C1446 C1449 1.403 . S
C1447 C1444 1.403 . S
C1447 C1448 1.524 . S
C1447 C1451 1.400 . S
C1448 H1433 0.960 . S
C1448 H1434 0.960 . S
C1448 H1435 0.960 . S
C1448 C1447 1.524 . S
C1449 C1446 1.403 . S
C1449 C1450 1.392 . S
C1449 C1453 1.495 . S
C1450 C1449 1.392 . S
C1450 C1451 1.385 . S
C1450 C1452 1.478 . S
C1451 H1445 0.930 . S
C1451 C1447 1.400 . S
C1451 C1450 1.385 . S
C1452 C1450 1.478 . S
C1452 C1454 1.381 . S
C1452 C1458 1.383 . S
C1453 C1449 1.495 . S
C1453 H1459 0.959 . S
C1453 H1460 0.961 . S
C1453 H1461 0.960 . S
C1454 C1452 1.381 . S
C1454 C1455 1.394 . S
C1454 H1462 0.930 . S
C1455 C1454 1.394 . S
C1455 C1456 1.383 . S
C1455 H1463 0.929 . S
C1456 C1455 1.383 . S
C1456 C1457 1.377 . S
C1457 H1441 0.930 . S
C1457 C1456 1.377 . S
C1457 C1458 1.379 . S
C1458 H1442 0.931 . S
C1458 C1452 1.383 . S
C1458 C1457 1.379 . S
H1459 C1453 0.959 . S
H1460 C1453 0.961 . S
H1461 C1453 0.960 . S
H1462 C1454 0.930 . S
H1463 C1455 0.929 . S
H1464 C1472 0.929 . S
H1465 C1474 0.930 . S
H1466 C1476 0.930 . S
H1467 C1479 0.929 . S
H1468 C1482 0.930 . S
H1469 C1484 0.960 . S
H1470 C1484 0.960 . S
H1471 C1484 0.960 . S
C1472 H1464 0.929 . S
C1472 C1473 1.377 . S
C1472 C1474 1.384 . S
C1473 C1472 1.377 . S
C1473 C1479 1.390 . S
C1474 H1465 0.930 . S
C1474 C1472 1.384 . S
C1474 C1475 1.372 . S
C1475 C1474 1.372 . S
C1475 C1476 1.400 . S
C1475 C1480 1.490 . S
C1476 H1466 0.930 . S
C1476 C1475 1.400 . S
C1476 C1479 1.386 . S
H1477 C1493 0.930 . S
H1478 C1494 0.931 . S
C1479 H1467 0.929 . S
C1479 C1473 1.390 . S
C1479 C1476 1.386 . S
C1480 C1475 1.490 . S
C1480 C1482 1.395 . S
C1480 C1483 1.403 . S
H1481 C1487 0.930 . S
C1482 H1468 0.930 . S
C1482 C1480 1.395 . S
C1482 C1485 1.403 . S
C1483 C1480 1.403 . S
C1483 C1484 1.524 . S
C1483 C1487 1.400 . S
C1484 H1469 0.960 . S
C1484 H1470 0.960 . S
C1484 H1471 0.960 . S
C1484 C1483 1.524 . S
C1485 C1482 1.403 . S
C1485 C1486 1.392 . S
C1485 C1489 1.495 . S
C1486 C1485 1.392 . S
C1486 C1487 1.385 . S
C1486 C1488 1.478 . S
C1487 H1481 0.930 . S
C1487 C1483 1.400 . S
C1487 C1486 1.385 . S
C1488 C1486 1.478 . S
C1488 C1490 1.381 . S
C1488 C1494 1.383 . S
C1489 C1485 1.495 . S
C1489 H1495 0.959 . S
C1489 H1496 0.961 . S
C1489 H1497 0.960 . S
C1490 C1488 1.381 . S
C1490 C1491 1.394 . S
C1490 H1498 0.930 . S
C1491 C1490 1.394 . S
C1491 C1492 1.383 . S
C1491 H1499 0.929 . S
C1492 C1491 1.383 . S
C1492 C1493 1.377 . S
C1493 H1477 0.930 . S
C1493 C1492 1.377 . S
C1493 C1494 1.379 . S
C1494 H1478 0.931 . S
C1494 C1488 1.383 . S
C1494 C1493 1.379 . S
H1495 C1489 0.959 . S
H1496 C1489 0.961 . S
H1497 C1489 0.960 . S
H1498 C1490 0.930 . S
H1499 C1491 0.929 . S
H1500 C1508 0.929 . S
H1501 C1510 0.930 . S
H1502 C1512 0.930 . S
H1503 C1515 0.929 . S
H1504 C1518 0.930 . S
H1505 C1520 0.960 . S
H1506 C1520 0.960 . S
H1507 C1520 0.960 . S
C1508 H1500 0.929 . S
C1508 C1509 1.377 . S
C1508 C1510 1.384 . S
C1509 C1508 1.377 . S
C1509 C1515 1.390 . S
C1510 H1501 0.930 . S
C1510 C1508 1.384 . S
C1510 C1511 1.372 . S
C1511 C1510 1.372 . S
C1511 C1512 1.400 . S
C1511 C1516 1.490 . S
C1512 H1502 0.930 . S
C1512 C1511 1.400 . S
C1512 C1515 1.386 . S
H1513 C1529 0.922 1_545 S
H1514 C1530 0.920 1_545 S
C1515 H1503 0.929 . S
C1515 C1509 1.390 . S
C1515 C1512 1.386 . S
C1516 C1511 1.490 . S
C1516 C1518 1.395 . S
C1516 C1519 1.403 . S
H1517 C1523 0.930 . S
C1518 H1504 0.930 . S
C1518 C1516 1.395 . S
C1518 C1521 1.403 . S
C1519 C1516 1.403 . S
C1519 C1520 1.524 . S
C1519 C1523 1.400 . S
C1520 H1505 0.960 . S
C1520 H1506 0.960 . S
C1520 H1507 0.960 . S
C1520 C1519 1.524 . S
C1521 C1518 1.403 . S
C1521 C1522 1.392 . S
C1521 C1525 1.495 1_565 S
C1522 C1521 1.392 . S
C1522 C1523 1.385 . S
C1522 C1524 1.478 . S
C1523 H1517 0.930 . S
C1523 C1519 1.400 . S
C1523 C1522 1.385 . S
C1524 C1522 1.478 . S
C1524 C1526 1.381 . S
C1524 C1530 1.383 . S
C1525 C1521 1.495 1_545 S
C1525 H1531 0.959 . S
C1525 H1532 0.961 . S
C1525 H1533 0.960 1_545 S
C1526 C1524 1.381 . S
C1526 C1527 1.394 . S
C1526 H1534 0.930 . S
C1527 C1526 1.394 . S
C1527 C1528 1.383 . S
C1527 H1535 0.929 . S
C1528 C1527 1.383 . S
C1528 C1529 1.377 . S
C1529 H1513 0.922 1_565 S
C1529 C1528 1.377 . S
C1529 C1530 1.379 . S
C1530 H1514 0.920 1_565 S
C1530 C1524 1.383 . S
C1530 C1529 1.379 . S
H1531 C1525 0.959 . S
H1532 C1525 0.961 . S
H1533 C1525 0.960 1_565 S
H1534 C1526 0.930 . S
H1535 C1527 0.929 . S
H1536 C1544 0.929 . S
H1537 C1546 0.930 . S
H1538 C1548 0.930 . S
H1539 C1551 0.929 . S
H1540 C1554 0.930 . S
H1541 C1556 0.960 . S
H1542 C1556 0.960 . S
H1543 C1556 0.960 . S
C1544 H1536 0.929 . S
C1544 C1545 1.377 . S
C1544 C1546 1.384 . S
C1545 C1544 1.377 . S
C1545 C1551 1.390 . S
C1546 H1537 0.930 . S
C1546 C1544 1.384 . S
C1546 C1547 1.372 . S
C1547 C1546 1.372 . S
C1547 C1548 1.400 . S
C1547 C1552 1.490 . S
C1548 H1538 0.930 . S
C1548 C1547 1.400 . S
C1548 C1551 1.386 . S
H1549 C1565 0.930 . S
H1550 C1566 0.931 . S
C1551 H1539 0.929 . S
C1551 C1545 1.390 . S
C1551 C1548 1.386 . S
C1552 C1547 1.490 . S
C1552 C1554 1.395 . S
C1552 C1555 1.403 . S
H1553 C1559 0.930 . S
C1554 H1540 0.930 . S
C1554 C1552 1.395 . S
C1554 C1557 1.403 . S
C1555 C1552 1.403 . S
C1555 C1556 1.524 . S
C1555 C1559 1.400 . S
C1556 H1541 0.960 . S
C1556 H1542 0.960 . S
C1556 H1543 0.960 . S
C1556 C1555 1.524 . S
C1557 C1554 1.403 . S
C1557 C1558 1.392 . S
C1557 C1561 1.495 . S
C1558 C1557 1.392 . S
C1558 C1559 1.385 . S
C1558 C1560 1.478 . S
C1559 H1553 0.930 . S
C1559 C1555 1.400 . S
C1559 C1558 1.385 . S
C1560 C1558 1.478 . S
C1560 C1562 1.381 . S
C1560 C1566 1.383 . S
C1561 C1557 1.495 . S
C1561 H1567 0.959 . S
C1561 H1568 0.961 . S
C1561 H1569 0.960 . S
C1562 C1560 1.381 . S
C1562 C1563 1.394 . S
C1562 H1570 0.930 . S
C1563 C1562 1.394 . S
C1563 C1564 1.383 . S
C1563 H1571 0.929 . S
C1564 C1563 1.383 . S
C1564 C1565 1.377 . S
C1565 H1549 0.930 . S
C1565 C1564 1.377 . S
C1565 C1566 1.379 . S
C1566 H1550 0.931 . S
C1566 C1560 1.383 . S
C1566 C1565 1.379 . S
H1567 C1561 0.959 . S
H1568 C1561 0.961 . S
H1569 C1561 0.960 . S
H1570 C1562 0.930 . S
H1571 C1563 0.929 . S
H1572 C1580 0.929 . S
H1573 C1582 0.930 . S
H1574 C1584 0.930 . S
H1575 C1587 0.929 . S
H1576 C1590 0.930 . S
H1577 C1592 0.960 . S
H1578 C1592 0.960 . S
H1579 C1592 0.960 . S
C1580 H1572 0.929 . S
C1580 C1581 1.377 . S
C1580 C1582 1.384 . S
C1581 C1580 1.377 . S
C1581 C1587 1.390 . S
C1582 H1573 0.930 . S
C1582 C1580 1.384 . S
C1582 C1583 1.372 . S
C1583 C1582 1.372 . S
C1583 C1584 1.400 . S
C1583 C1588 1.490 . S
C1584 H1574 0.930 . S
C1584 C1583 1.400 . S
C1584 C1587 1.386 . S
H1585 C1601 0.930 . S
H1586 C1602 0.931 . S
C1587 H1575 0.929 . S
C1587 C1581 1.390 . S
C1587 C1584 1.386 . S
C1588 C1583 1.490 . S
C1588 C1590 1.395 . S
C1588 C1591 1.403 . S
H1589 C1595 0.930 . S
C1590 H1576 0.930 . S
C1590 C1588 1.395 . S
C1590 C1593 1.403 . S
C1591 C1588 1.403 . S
C1591 C1592 1.524 . S
C1591 C1595 1.400 . S
C1592 H1577 0.960 . S
C1592 H1578 0.960 . S
C1592 H1579 0.960 . S
C1592 C1591 1.524 . S
C1593 C1590 1.403 . S
C1593 C1594 1.392 . S
C1593 C1597 1.495 . S
C1594 C1593 1.392 . S
C1594 C1595 1.385 . S
C1594 C1596 1.478 . S
C1595 H1589 0.930 . S
C1595 C1591 1.400 . S
C1595 C1594 1.385 . S
C1596 C1594 1.478 . S
C1596 C1598 1.381 . S
C1596 C1602 1.383 . S
C1597 C1593 1.495 . S
C1597 H1603 0.959 . S
C1597 H1604 0.961 . S
C1597 H1605 0.960 . S
C1598 C1596 1.381 . S
C1598 C1599 1.394 . S
C1598 H1606 0.930 . S
C1599 C1598 1.394 . S
C1599 C1600 1.383 . S
C1599 H1607 0.929 . S
C1600 C1599 1.383 . S
C1600 C1601 1.377 . S
C1601 H1585 0.930 . S
C1601 C1600 1.377 . S
C1601 C1602 1.379 . S
C1602 H1586 0.931 . S
C1602 C1596 1.383 . S
C1602 C1601 1.379 . S
H1603 C1597 0.959 . S
H1604 C1597 0.961 . S
H1605 C1597 0.960 . S
H1606 C1598 0.930 . S
H1607 C1599 0.929 . S
H1608 C1616 0.929 . S
H1609 C1618 0.930 . S
H1610 C1620 0.930 . S
H1611 C1623 0.929 . S
H1612 C1626 0.930 . S
H1613 C1628 0.960 . S
H1614 C1628 0.960 . S
H1615 C1628 0.960 . S
C1616 H1608 0.929 . S
C1616 C1617 1.377 . S
C1616 C1618 1.384 . S
C1617 C1616 1.377 . S
C1617 C1623 1.390 . S
C1618 H1609 0.930 . S
C1618 C1616 1.384 . S
C1618 C1619 1.372 . S
C1619 C1618 1.372 . S
C1619 C1620 1.400 . S
C1619 C1624 1.490 . S
C1620 H1610 0.930 . S
C1620 C1619 1.400 . S
C1620 C1623 1.386 . S
H1621 C1637 0.930 . S
H1622 C1638 0.931 . S
C1623 H1611 0.929 . S
C1623 C1617 1.390 . S
C1623 C1620 1.386 . S
C1624 C1619 1.490 . S
C1624 C1626 1.395 . S
C1624 C1627 1.403 . S
H1625 C1631 0.930 . S
C1626 H1612 0.930 . S
C1626 C1624 1.395 . S
C1626 C1629 1.403 . S
C1627 C1624 1.403 . S
C1627 C1628 1.524 . S
C1627 C1631 1.400 . S
C1628 H1613 0.960 . S
C1628 H1614 0.960 . S
C1628 H1615 0.960 . S
C1628 C1627 1.524 . S
C1629 C1626 1.403 . S
C1629 C1630 1.392 . S
C1629 C1633 1.495 . S
C1630 C1629 1.392 . S
C1630 C1631 1.385 . S
C1630 C1632 1.478 . S
C1631 H1625 0.930 . S
C1631 C1627 1.400 . S
C1631 C1630 1.385 . S
C1632 C1630 1.478 . S
C1632 C1634 1.381 . S
C1632 C1638 1.383 . S
C1633 C1629 1.495 . S
C1633 H1639 0.959 . S
C1633 H1640 0.961 . S
C1633 H1641 0.960 . S
C1634 C1632 1.381 . S
C1634 C1635 1.394 . S
C1634 H1642 0.930 . S
C1635 C1634 1.394 . S
C1635 C1636 1.383 . S
C1635 H1643 0.929 . S
C1636 C1635 1.383 . S
C1636 C1637 1.377 . S
C1637 H1621 0.930 . S
C1637 C1636 1.377 . S
C1637 C1638 1.379 . S
C1638 H1622 0.931 . S
C1638 C1632 1.383 . S
C1638 C1637 1.379 . S
H1639 C1633 0.959 . S
H1640 C1633 0.961 . S
H1641 C1633 0.960 . S
H1642 C1634 0.930 . S
H1643 C1635 0.929 . S
H1644 C1652 0.929 . S
H1645 C1654 0.930 . S
H1646 C1656 0.930 . S
H1647 C1659 0.929 . S
H1648 C1662 0.930 . S
H1649 C1664 0.960 . S
H1650 C1664 0.960 . S
H1651 C1664 0.960 . S
C1652 H1644 0.929 . S
C1652 C1653 1.377 . S
C1652 C1654 1.384 . S
C1653 C1652 1.377 . S
C1653 C1659 1.390 . S
C1654 H1645 0.930 . S
C1654 C1652 1.384 . S
C1654 C1655 1.372 . S
C1655 C1654 1.372 . S
C1655 C1656 1.400 . S
C1655 C1660 1.490 . S
C1656 H1646 0.930 . S
C1656 C1655 1.400 . S
C1656 C1659 1.386 . S
H1657 C1673 0.930 . S
H1658 C1674 0.931 . S
C1659 H1647 0.929 . S
C1659 C1653 1.390 . S
C1659 C1656 1.386 . S
C1660 C1655 1.490 . S
C1660 C1662 1.395 . S
C1660 C1663 1.403 . S
H1661 C1667 0.930 . S
C1662 H1648 0.930 . S
C1662 C1660 1.395 . S
C1662 C1665 1.403 . S
C1663 C1660 1.403 . S
C1663 C1664 1.524 . S
C1663 C1667 1.400 . S
C1664 H1649 0.960 . S
C1664 H1650 0.960 . S
C1664 H1651 0.960 . S
C1664 C1663 1.524 . S
C1665 C1662 1.403 . S
C1665 C1666 1.392 . S
C1665 C1669 1.495 . S
C1666 C1665 1.392 . S
C1666 C1667 1.385 . S
C1666 C1668 1.478 . S
C1667 H1661 0.930 . S
C1667 C1663 1.400 . S
C1667 C1666 1.385 . S
C1668 C1666 1.478 . S
C1668 C1670 1.381 . S
C1668 C1674 1.383 . S
C1669 C1665 1.495 . S
C1669 H1675 0.959 . S
C1669 H1676 0.961 . S
C1669 H1677 0.960 . S
C1670 C1668 1.381 . S
C1670 C1671 1.394 . S
C1670 H1678 0.930 . S
C1671 C1670 1.394 . S
C1671 C1672 1.383 . S
C1671 H1679 0.929 . S
C1672 C1671 1.383 . S
C1672 C1673 1.377 . S
C1673 H1657 0.930 . S
C1673 C1672 1.377 . S
C1673 C1674 1.379 . S
C1674 H1658 0.931 . S
C1674 C1668 1.383 . S
C1674 C1673 1.379 . S
H1675 C1669 0.959 . S
H1676 C1669 0.961 . S
H1677 C1669 0.960 . S
H1678 C1670 0.930 . S
H1679 C1671 0.929 . S
H1680 C1688 0.929 . S
H1681 C1690 0.930 . S
H1682 C1692 0.930 . S
H1683 C1695 0.929 . S
H1684 C1698 0.930 . S
H1685 C1700 0.960 . S
H1686 C1700 0.960 . S
H1687 C1700 0.960 . S
C1688 H1680 0.929 . S
C1688 C1689 1.377 . S
C1688 C1690 1.384 . S
C1689 C1688 1.377 . S
C1689 C1695 1.390 . S
C1690 H1681 0.930 . S
C1690 C1688 1.384 . S
C1690 C1691 1.372 . S
C1691 C1690 1.372 . S
C1691 C1692 1.400 . S
C1691 C1696 1.490 . S
C1692 H1682 0.930 . S
C1692 C1691 1.400 . S
C1692 C1695 1.386 . S
H1693 C1709 0.930 . S
H1694 C1710 0.931 . S
C1695 H1683 0.929 . S
C1695 C1689 1.390 . S
C1695 C1692 1.386 . S
C1696 C1691 1.490 . S
C1696 C1698 1.395 . S
C1696 C1699 1.403 . S
H1697 C1703 0.930 . S
C1698 H1684 0.930 . S
C1698 C1696 1.395 . S
C1698 C1701 1.403 . S
C1699 C1696 1.403 . S
C1699 C1700 1.524 . S
C1699 C1703 1.400 . S
C1700 H1685 0.960 . S
C1700 H1686 0.960 . S
C1700 H1687 0.960 . S
C1700 C1699 1.524 . S
C1701 C1698 1.403 . S
C1701 C1702 1.392 . S
C1701 C1705 1.495 . S
C1702 C1701 1.392 . S
C1702 C1703 1.385 . S
C1702 C1704 1.478 . S
C1703 H1697 0.930 . S
C1703 C1699 1.400 . S
C1703 C1702 1.385 . S
C1704 C1702 1.478 . S
C1704 C1706 1.381 . S
C1704 C1710 1.383 . S
C1705 C1701 1.495 . S
C1705 H1711 0.959 . S
C1705 H1712 0.961 . S
C1705 H1713 0.960 . S
C1706 C1704 1.381 . S
C1706 C1707 1.394 . S
C1706 H1714 0.930 . S
C1707 C1706 1.394 . S
C1707 C1708 1.383 . S
C1707 H1715 0.929 . S
C1708 C1707 1.383 . S
C1708 C1709 1.377 . S
C1709 H1693 0.930 . S
C1709 C1708 1.377 . S
C1709 C1710 1.379 . S
C1710 H1694 0.931 . S
C1710 C1704 1.383 . S
C1710 C1709 1.379 . S
H1711 C1705 0.959 . S
H1712 C1705 0.961 . S
H1713 C1705 0.960 . S
H1714 C1706 0.930 . S
H1715 C1707 0.929 . S
H1716 C1724 0.929 . S
H1717 C1726 0.930 . S
H1718 C1728 0.930 . S
H1719 C1731 0.929 . S
H1720 C1734 0.930 . S
H1721 C1736 0.960 1_655 S
H1722 C1736 0.960 . S
H1723 C1736 0.960 . S
C1724 H1716 0.929 . S
C1724 C1725 1.377 . S
C1724 C1726 1.384 . S
C1725 C1724 1.377 . S
C1725 C1731 1.390 . S
C1726 H1717 0.930 . S
C1726 C1724 1.384 . S
C1726 C1727 1.372 . S
C1727 C1726 1.372 . S
C1727 C1728 1.400 . S
C1727 C1732 1.490 . S
C1728 H1718 0.930 . S
C1728 C1727 1.400 . S
C1728 C1731 1.386 . S
H1729 C1745 0.930 . S
H1730 C1746 0.931 . S
C1731 H1719 0.929 . S
C1731 C1725 1.390 . S
C1731 C1728 1.386 . S
C1732 C1727 1.490 . S
C1732 C1734 1.395 . S
C1732 C1735 1.403 . S
H1733 C1739 0.930 . S
C1734 H1720 0.930 . S
C1734 C1732 1.395 . S
C1734 C1737 1.403 . S
C1735 C1732 1.403 . S
C1735 C1736 1.524 . S
C1735 C1739 1.400 . S
C1736 H1721 0.960 1_455 S
C1736 H1722 0.960 . S
C1736 H1723 0.960 . S
C1736 C1735 1.524 . S
C1737 C1734 1.403 . S
C1737 C1738 1.392 . S
C1737 C1741 1.495 . S
C1738 C1737 1.392 . S
C1738 C1739 1.385 . S
C1738 C1740 1.478 . S
C1739 H1733 0.930 . S
C1739 C1735 1.400 . S
C1739 C1738 1.385 . S
C1740 C1738 1.478 . S
C1740 C1742 1.381 . S
C1740 C1746 1.383 . S
C1741 C1737 1.495 . S
C1741 H1747 0.959 . S
C1741 H1748 0.961 . S
C1741 H1749 0.960 . S
C1742 C1740 1.381 . S
C1742 C1743 1.394 . S
C1742 H1750 0.930 . S
C1743 C1742 1.394 . S
C1743 C1744 1.383 . S
C1743 H1751 0.929 . S
C1744 C1743 1.383 . S
C1744 C1745 1.377 . S
C1745 H1729 0.930 . S
C1745 C1744 1.377 . S
C1745 C1746 1.379 . S
C1746 H1730 0.931 . S
C1746 C1740 1.383 . S
C1746 C1745 1.379 . S
H1747 C1741 0.959 . S
H1748 C1741 0.961 . S
H1749 C1741 0.960 . S
H1750 C1742 0.930 . S
H1751 C1743 0.929 . S
H1752 C1760 0.929 . S
H1753 C1762 0.930 . S
H1754 C1764 0.930 . S
H1755 C1767 0.929 . S
H1756 C1770 0.930 . S
H1757 C1772 0.960 . S
H1758 C1772 0.960 . S
H1759 C1772 0.960 . S
C1760 H1752 0.929 . S
C1760 C1761 1.377 . S
C1760 C1762 1.384 . S
C1761 C1760 1.377 . S
C1761 C1767 1.390 . S
C1762 H1753 0.930 . S
C1762 C1760 1.384 . S
C1762 C1763 1.372 . S
C1763 C1762 1.372 . S
C1763 C1764 1.400 . S
C1763 C1768 1.490 . S
C1764 H1754 0.930 . S
C1764 C1763 1.400 . S
C1764 C1767 1.386 . S
H1765 C1781 0.930 . S
H1766 C1782 0.931 . S
C1767 H1755 0.929 . S
C1767 C1761 1.390 . S
C1767 C1764 1.386 . S
C1768 C1763 1.490 . S
C1768 C1770 1.395 . S
C1768 C1771 1.403 . S
H1769 C1775 0.930 . S
C1770 H1756 0.930 . S
C1770 C1768 1.395 . S
C1770 C1773 1.403 . S
C1771 C1768 1.403 . S
C1771 C1772 1.524 . S
C1771 C1775 1.400 . S
C1772 H1757 0.960 . S
C1772 H1758 0.960 . S
C1772 H1759 0.960 . S
C1772 C1771 1.524 . S
C1773 C1770 1.403 . S
C1773 C1774 1.392 . S
C1773 C1777 1.495 . S
C1774 C1773 1.392 . S
C1774 C1775 1.385 . S
C1774 C1776 1.478 . S
C1775 H1769 0.930 . S
C1775 C1771 1.400 . S
C1775 C1774 1.385 . S
C1776 C1774 1.478 . S
C1776 C1778 1.381 . S
C1776 C1782 1.383 . S
C1777 C1773 1.495 . S
C1777 H1783 0.959 . S
C1777 H1784 0.961 . S
C1777 H1785 0.960 . S
C1778 C1776 1.381 . S
C1778 C1779 1.394 . S
C1778 H1786 0.930 . S
C1779 C1778 1.394 . S
C1779 C1780 1.383 . S
C1779 H1787 0.929 . S
C1780 C1779 1.383 . S
C1780 C1781 1.377 . S
C1781 H1765 0.930 . S
C1781 C1780 1.377 . S
C1781 C1782 1.379 . S
C1782 H1766 0.931 . S
C1782 C1776 1.383 . S
C1782 C1781 1.379 . S
H1783 C1777 0.959 . S
H1784 C1777 0.961 . S
H1785 C1777 0.960 . S
H1786 C1778 0.930 . S
H1787 C1779 0.929 . S
H1788 C1796 0.929 . S
H1789 C1798 0.930 . S
H1790 C1800 0.930 . S
H1791 C1803 0.929 . S
H1792 C1806 0.930 . S
H1793 C1808 0.960 . S
H1794 C1808 0.960 . S
H1795 C1808 0.960 1_455 S
C1796 H1788 0.929 . S
C1796 C1797 1.377 . S
C1796 C1798 1.384 . S
C1797 C1796 1.377 . S
C1797 C1803 1.390 1_655 S
C1798 H1789 0.930 . S
C1798 C1796 1.384 . S
C1798 C1799 1.372 . S
C1799 C1798 1.372 . S
C1799 C1800 1.400 1_655 S
C1799 C1804 1.490 . S
C1800 H1790 0.930 . S
C1800 C1799 1.400 1_455 S
C1800 C1803 1.386 . S
H1801 C1817 0.930 . S
H1802 C1818 0.931 . S
C1803 H1791 0.929 . S
C1803 C1797 1.390 1_455 S
C1803 C1800 1.386 . S
C1804 C1799 1.490 . S
C1804 C1806 1.395 . S
C1804 C1807 1.403 . S
H1805 C1811 0.930 . S
C1806 H1792 0.930 . S
C1806 C1804 1.395 . S
C1806 C1809 1.403 . S
C1807 C1804 1.403 . S
C1807 C1808 1.524 . S
C1807 C1811 1.400 . S
C1808 H1793 0.960 . S
C1808 H1794 0.960 . S
C1808 H1795 0.960 1_655 S
C1808 C1807 1.524 . S
C1809 C1806 1.403 . S
C1809 C1810 1.392 . S
C1809 C1813 1.495 . S
C1810 C1809 1.392 . S
C1810 C1811 1.385 . S
C1810 C1812 1.478 . S
C1811 H1805 0.930 . S
C1811 C1807 1.400 . S
C1811 C1810 1.385 . S
C1812 C1810 1.478 . S
C1812 C1814 1.381 . S
C1812 C1818 1.383 1_655 S
C1813 C1809 1.495 . S
C1813 H1819 0.959 . S
C1813 H1820 0.992 . S
C1813 H1821 0.960 . S
C1814 C1812 1.381 . S
C1814 C1815 1.394 . S
C1814 H1822 0.930 . S
C1815 C1814 1.394 . S
C1815 C1816 1.383 . S
C1815 H1823 0.929 . S
C1816 C1815 1.383 . S
C1816 C1817 1.377 1_655 S
C1817 H1801 0.930 . S
C1817 C1816 1.377 1_455 S
C1817 C1818 1.379 . S
C1818 H1802 0.931 . S
C1818 C1812 1.383 1_455 S
C1818 C1817 1.379 . S
H1819 C1813 0.959 . S
H1820 C1813 0.992 . S
H1821 C1813 0.960 . S
H1822 C1814 0.930 . S
H1823 C1815 0.929 . S
H1824 C1832 0.929 . S
H1825 C1834 0.930 . S
H1826 C1836 0.930 . S
H1827 C1839 0.929 . S
H1828 C1842 0.930 . S
H1829 C1844 0.960 . S
H1830 C1844 0.960 . S
H1831 C1844 0.960 . S
C1832 H1824 0.929 . S
C1832 C1833 1.377 . S
C1832 C1834 1.384 . S
C1833 C1832 1.377 . S
C1833 C1839 1.390 . S
C1834 H1825 0.930 . S
C1834 C1832 1.384 . S
C1834 C1835 1.372 . S
C1835 C1834 1.372 . S
C1835 C1836 1.400 . S
C1835 C1840 1.490 . S
C1836 H1826 0.930 . S
C1836 C1835 1.400 . S
C1836 C1839 1.386 . S
H1837 C1853 0.930 . S
H1838 C1854 0.931 . S
C1839 H1827 0.929 . S
C1839 C1833 1.390 . S
C1839 C1836 1.386 . S
C1840 C1835 1.490 . S
C1840 C1842 1.395 . S
C1840 C1843 1.403 . S
H1841 C1847 0.930 . S
C1842 H1828 0.930 . S
C1842 C1840 1.395 . S
C1842 C1845 1.403 . S
C1843 C1840 1.403 . S
C1843 C1844 1.524 . S
C1843 C1847 1.400 . S
C1844 H1829 0.960 . S
C1844 H1830 0.960 . S
C1844 H1831 0.960 . S
C1844 C1843 1.524 . S
C1845 C1842 1.403 . S
C1845 C1846 1.392 . S
C1845 C1849 1.495 . S
C1846 C1845 1.392 . S
C1846 C1847 1.385 . S
C1846 C1848 1.478 . S
C1847 H1841 0.930 . S
C1847 C1843 1.400 . S
C1847 C1846 1.385 . S
C1848 C1846 1.478 . S
C1848 C1850 1.381 . S
C1848 C1854 1.383 . S
C1849 C1845 1.495 . S
C1849 H1855 0.959 . S
C1849 H1856 0.961 . S
C1849 H1857 0.960 . S
C1850 C1848 1.381 . S
C1850 C1851 1.394 . S
C1850 H1858 0.930 . S
C1851 C1850 1.394 . S
C1851 C1852 1.383 . S
C1851 H1859 0.929 . S
C1852 C1851 1.383 . S
C1852 C1853 1.377 . S
C1853 H1837 0.930 . S
C1853 C1852 1.377 . S
C1853 C1854 1.379 . S
C1854 H1838 0.931 . S
C1854 C1848 1.383 . S
C1854 C1853 1.379 . S
H1855 C1849 0.959 . S
H1856 C1849 0.961 . S
H1857 C1849 0.960 . S
H1858 C1850 0.930 . S
H1859 C1851 0.929 . S
H1860 C1868 0.929 . S
H1861 C1870 0.930 . S
H1862 C1872 0.930 . S
H1863 C1875 0.929 . S
H1864 C1878 0.930 . S
H1865 C1880 0.960 . S
H1866 C1880 0.960 . S
H1867 C1880 0.960 . S
C1868 H1860 0.929 . S
C1868 C1869 1.377 . S
C1868 C1870 1.384 . S
C1869 C1868 1.377 . S
C1869 C1875 1.390 . S
C1870 H1861 0.930 . S
C1870 C1868 1.384 . S
C1870 C1871 1.372 . S
C1871 C1870 1.372 . S
C1871 C1872 1.400 . S
C1871 C1876 1.490 . S
C1872 H1862 0.930 . S
C1872 C1871 1.400 . S
C1872 C1875 1.386 . S
H1873 C1889 0.930 . S
H1874 C1890 0.931 . S
C1875 H1863 0.929 . S
C1875 C1869 1.390 . S
C1875 C1872 1.386 . S
C1876 C1871 1.490 . S
C1876 C1878 1.395 . S
C1876 C1879 1.403 . S
H1877 C1883 0.930 . S
C1878 H1864 0.930 . S
C1878 C1876 1.395 . S
C1878 C1881 1.403 . S
C1879 C1876 1.403 . S
C1879 C1880 1.524 . S
C1879 C1883 1.400 . S
C1880 H1865 0.960 . S
C1880 H1866 0.960 . S
C1880 H1867 0.960 . S
C1880 C1879 1.524 . S
C1881 C1878 1.403 . S
C1881 C1882 1.392 . S
C1881 C1885 1.495 . S
C1882 C1881 1.392 . S
C1882 C1883 1.385 . S
C1882 C1884 1.478 . S
C1883 H1877 0.930 . S
C1883 C1879 1.400 . S
C1883 C1882 1.385 . S
C1884 C1882 1.478 . S
C1884 C1886 1.381 . S
C1884 C1890 1.383 . S
C1885 C1881 1.495 . S
C1885 H1891 0.959 . S
C1885 H1892 0.961 . S
C1885 H1893 0.960 . S
C1886 C1884 1.381 . S
C1886 C1887 1.394 . S
C1886 H1894 0.930 . S
C1887 C1886 1.394 . S
C1887 C1888 1.383 . S
C1887 H1895 0.929 . S
C1888 C1887 1.383 . S
C1888 C1889 1.377 . S
C1889 H1873 0.930 . S
C1889 C1888 1.377 . S
C1889 C1890 1.379 . S
C1890 H1874 0.931 . S
C1890 C1884 1.383 . S
C1890 C1889 1.379 . S
H1891 C1885 0.959 . S
H1892 C1885 0.961 . S
H1893 C1885 0.960 . S
H1894 C1886 0.930 . S
H1895 C1887 0.929 . S
H1896 C1904 0.929 . S
H1897 C1906 0.930 . S
H1898 C1908 0.930 . S
H1899 C1911 0.929 . S
H1900 C1914 0.900 1_554 S
H1901 C1916 0.960 . S
H1902 C1916 0.960 . S
H1903 C1916 0.960 . S
C1904 H1896 0.929 . S
C1904 C1905 1.377 1_565 S
C1904 C1906 1.384 . S
C1905 C1904 1.377 1_545 S
C1905 C1911 1.390 . S
C1906 H1897 0.930 . S
C1906 C1904 1.384 . S
C1906 C1907 1.372 . S
C1907 C1906 1.372 . S
C1907 C1908 1.400 . S
C1907 C1912 1.490 . S
C1908 H1898 0.930 . S
C1908 C1907 1.400 . S
C1908 C1911 1.386 1_565 S
H1909 C1925 0.930 . S
H1910 C1926 0.931 . S
C1911 H1899 0.929 . S
C1911 C1905 1.390 . S
C1911 C1908 1.386 1_545 S
C1912 C1907 1.490 . S
C1912 C1914 1.449 . S
C1912 C1915 1.403 . S
H1913 C1919 0.930 . S
C1914 H1900 0.900 1_556 S
C1914 C1912 1.449 . S
C1914 C1917 1.382 1_556 S
C1915 C1912 1.403 . S
C1915 C1916 1.524 . S
C1915 C1919 1.400 . S
C1916 H1901 0.960 . S
C1916 H1902 0.960 . S
C1916 H1903 0.960 . S
C1916 C1915 1.524 . S
C1917 C1914 1.382 1_554 S
C1917 C1918 1.392 1_554 S
C1917 C1921 1.495 . S
C1918 C1917 1.392 1_556 S
C1918 C1919 1.385 . S
C1918 C1920 1.478 . S
C1919 H1913 0.930 . S
C1919 C1915 1.400 . S
C1919 C1918 1.385 . S
C1920 C1918 1.478 . S
C1920 C1922 1.381 1_556 S
C1920 C1926 1.383 . S
C1921 C1917 1.495 . S
C1921 H1927 0.959 . S
C1921 H1928 0.961 . S
C1921 H1929 0.960 . S
C1922 C1920 1.381 1_554 S
C1922 C1923 1.394 . S
C1922 H1930 0.930 . S
C1923 C1922 1.394 . S
C1923 C1924 1.383 . S
C1923 H1931 0.929 . S
C1924 C1923 1.383 . S
C1924 C1925 1.377 1_554 S
C1925 H1909 0.930 . S
C1925 C1924 1.377 1_556 S
C1925 C1926 1.379 . S
C1926 H1910 0.931 . S
C1926 C1920 1.383 . S
C1926 C1925 1.379 . S
H1927 C1921 0.959 . S
H1928 C1921 0.961 . S
H1929 C1921 0.960 . S
H1930 C1922 0.930 . S
H1931 C1923 0.929 . S
H1932 C1940 0.929 . S
H1933 C1942 0.930 . S
H1934 C1944 0.930 . S
H1935 C1947 0.929 . S
H1936 C1950 0.930 . S
H1937 C1952 0.960 . S
H1938 C1952 0.960 . S
H1939 C1952 0.960 . S
C1940 H1932 0.929 . S
C1940 C1941 1.377 . S
C1940 C1942 1.384 . S
C1941 C1940 1.377 . S
C1941 C1947 1.390 . S
C1942 H1933 0.930 . S
C1942 C1940 1.384 . S
C1942 C1943 1.372 . S
C1943 C1942 1.372 . S
C1943 C1944 1.400 . S
C1943 C1948 1.490 . S
C1944 H1934 0.930 . S
C1944 C1943 1.400 . S
C1944 C1947 1.386 . S
H1945 C1961 0.930 . S
H1946 C1962 0.931 . S
C1947 H1935 0.929 . S
C1947 C1941 1.390 . S
C1947 C1944 1.386 . S
C1948 C1943 1.490 . S
C1948 C1950 1.395 . S
C1948 C1951 1.403 . S
H1949 C1955 0.930 . S
C1950 H1936 0.930 . S
C1950 C1948 1.395 . S
C1950 C1953 1.403 . S
C1951 C1948 1.403 . S
C1951 C1952 1.524 . S
C1951 C1955 1.400 . S
C1952 H1937 0.960 . S
C1952 H1938 0.960 . S
C1952 H1939 0.960 . S
C1952 C1951 1.524 . S
C1953 C1950 1.403 . S
C1953 C1954 1.392 . S
C1953 C1957 1.495 . S
C1954 C1953 1.392 . S
C1954 C1955 1.385 . S
C1954 C1956 1.478 . S
C1955 H1949 0.930 . S
C1955 C1951 1.400 . S
C1955 C1954 1.385 . S
C1956 C1954 1.478 . S
C1956 C1958 1.381 . S
C1956 C1962 1.383 . S
C1957 C1953 1.495 . S
C1957 H1963 0.959 . S
C1957 H1964 0.961 . S
C1957 H1965 0.960 . S
C1958 C1956 1.381 . S
C1958 C1959 1.394 . S
C1958 H1966 0.930 . S
C1959 C1958 1.394 . S
C1959 C1960 1.383 . S
C1959 H1967 0.929 . S
C1960 C1959 1.383 . S
C1960 C1961 1.377 . S
C1961 H1945 0.930 . S
C1961 C1960 1.377 . S
C1961 C1962 1.379 . S
C1962 H1946 0.931 . S
C1962 C1956 1.383 . S
C1962 C1961 1.379 . S
H1963 C1957 0.959 . S
H1964 C1957 0.961 . S
H1965 C1957 0.960 . S
H1966 C1958 0.930 . S
H1967 C1959 0.929 . S
H1968 C1976 0.929 1_565 S
H1969 C1978 0.930 . S
H1970 C1980 0.930 . S
H1971 C1983 0.929 . S
H1972 C1986 0.930 . S
H1973 C1988 0.960 . S
H1974 C1988 0.960 . S
H1975 C1988 0.960 . S
C1976 H1968 0.929 1_545 S
C1976 C1977 1.377 . S
C1976 C1978 1.384 . S
C1977 C1976 1.377 . S
C1977 C1983 1.390 . S
C1978 H1969 0.930 . S
C1978 C1976 1.384 . S
C1978 C1979 1.372 . S
C1979 C1978 1.372 . S
C1979 C1980 1.400 . S
C1979 C1984 1.490 . S
C1980 H1970 0.930 . S
C1980 C1979 1.400 . S
C1980 C1983 1.386 . S
H1981 C1997 0.930 . S
H1982 C1998 0.931 . S
C1983 H1971 0.929 . S
C1983 C1977 1.390 . S
C1983 C1980 1.386 . S
C1984 C1979 1.490 . S
C1984 C1986 1.395 . S
C1984 C1987 1.403 . S
H1985 C1991 0.930 . S
C1986 H1972 0.930 . S
C1986 C1984 1.395 . S
C1986 C1989 1.403 . S
C1987 C1984 1.403 . S
C1987 C1988 1.524 . S
C1987 C1991 1.400 . S
C1988 H1973 0.960 . S
C1988 H1974 0.960 . S
C1988 H1975 0.960 . S
C1988 C1987 1.524 . S
C1989 C1986 1.403 . S
C1989 C1990 1.392 . S
C1989 C1993 1.495 . S
C1990 C1989 1.392 . S
C1990 C1991 1.385 . S
C1990 C1992 1.478 . S
C1991 H1985 0.930 . S
C1991 C1987 1.400 . S
C1991 C1990 1.385 . S
C1992 C1990 1.478 . S
C1992 C1994 1.381 . S
C1992 C1998 1.383 . S
C1993 C1989 1.495 . S
C1993 H1999 0.959 . S
C1993 H2000 0.961 . S
C1993 H2001 0.960 . S
C1994 C1992 1.381 . S
C1994 C1995 1.394 . S
C1994 H2002 0.930 . S
C1995 C1994 1.394 . S
C1995 C1996 1.383 . S
C1995 H2003 0.929 . S
C1996 C1995 1.383 . S
C1996 C1997 1.377 . S
C1997 H1981 0.930 . S
C1997 C1996 1.377 . S
C1997 C1998 1.379 . S
C1998 H1982 0.931 . S
C1998 C1992 1.383 . S
C1998 C1997 1.379 . S
H1999 C1993 0.959 . S
H2000 C1993 0.961 . S
H2001 C1993 0.960 . S
H2002 C1994 0.930 . S
H2003 C1995 0.929 . S
H2004 C2012 0.929 . S
H2005 C2014 0.930 . S
H2006 C2016 0.930 . S
H2007 C2019 0.929 . S
H2008 C2022 0.930 . S
H2009 C2024 0.960 . S
H2010 C2024 0.960 . S
H2011 C2024 0.960 . S
C2012 H2004 0.929 . S
C2012 C2013 1.377 . S
C2012 C2014 1.384 . S
C2013 C2012 1.377 . S
C2013 C2019 1.390 . S
C2014 H2005 0.930 . S
C2014 C2012 1.384 . S
C2014 C2015 1.372 . S
C2015 C2014 1.372 . S
C2015 C2016 1.400 . S
C2015 C2020 1.490 . S
C2016 H2006 0.930 . S
C2016 C2015 1.400 . S
C2016 C2019 1.386 . S
H2017 C2033 0.930 . S
H2018 C2034 0.931 . S
C2019 H2007 0.929 . S
C2019 C2013 1.390 . S
C2019 C2016 1.386 . S
C2020 C2015 1.490 . S
C2020 C2022 1.395 . S
C2020 C2023 1.403 . S
H2021 C2027 0.930 . S
C2022 H2008 0.930 . S
C2022 C2020 1.395 . S
C2022 C2025 1.403 . S
C2023 C2020 1.403 . S
C2023 C2024 1.524 . S
C2023 C2027 1.400 . S
C2024 H2009 0.960 . S
C2024 H2010 0.960 . S
C2024 H2011 0.960 . S
C2024 C2023 1.524 . S
C2025 C2022 1.403 . S
C2025 C2026 1.392 . S
C2025 C2029 1.495 . S
C2026 C2025 1.392 . S
C2026 C2027 1.385 . S
C2026 C2028 1.478 . S
C2027 H2021 0.930 . S
C2027 C2023 1.400 . S
C2027 C2026 1.385 . S
C2028 C2026 1.478 . S
C2028 C2030 1.381 . S
C2028 C2034 1.383 . S
C2029 C2025 1.495 . S
C2029 H2035 0.959 . S
C2029 H2036 0.961 . S
C2029 H2037 0.960 . S
C2030 C2028 1.381 . S
C2030 C2031 1.394 . S
C2030 H2038 0.930 . S
C2031 C2030 1.394 . S
C2031 C2032 1.383 . S
C2031 H2039 0.929 . S
C2032 C2031 1.383 . S
C2032 C2033 1.377 . S
C2033 H2017 0.930 . S
C2033 C2032 1.377 . S
C2033 C2034 1.379 . S
C2034 H2018 0.931 . S
C2034 C2028 1.383 . S
C2034 C2033 1.379 . S
H2035 C2029 0.959 . S
H2036 C2029 0.961 . S
H2037 C2029 0.960 . S
H2038 C2030 0.930 . S
H2039 C2031 0.929 . S
H2040 C2048 0.929 1_565 S
H2041 C2050 0.930 . S
H2042 C2052 0.930 . S
H2043 C2055 0.929 . S
H2044 C2058 0.930 . S
H2045 C2060 0.960 . S
H2046 C2060 0.960 . S
H2047 C2060 0.960 . S
C2048 H2040 0.929 1_545 S
C2048 C2049 1.377 . S
C2048 C2050 1.384 . S
C2049 C2048 1.377 . S
C2049 C2055 1.390 . S
C2050 H2041 0.930 . S
C2050 C2048 1.384 . S
C2050 C2051 1.372 . S
C2051 C2050 1.372 . S
C2051 C2052 1.400 . S
C2051 C2056 1.490 . S
C2052 H2042 0.930 . S
C2052 C2051 1.400 . S
C2052 C2055 1.386 . S
H2053 C2069 0.930 . S
H2054 C2070 0.931 . S
C2055 H2043 0.929 . S
C2055 C2049 1.390 . S
C2055 C2052 1.386 . S
C2056 C2051 1.490 . S
C2056 C2058 1.395 . S
C2056 C2059 1.403 . S
H2057 C2063 0.930 . S
C2058 H2044 0.930 . S
C2058 C2056 1.395 . S
C2058 C2061 1.403 . S
C2059 C2056 1.403 . S
C2059 C2060 1.524 . S
C2059 C2063 1.400 . S
C2060 H2045 0.960 . S
C2060 H2046 0.960 . S
C2060 H2047 0.960 . S
C2060 C2059 1.524 . S
C2061 C2058 1.403 . S
C2061 C2062 1.392 . S
C2061 C2065 1.495 . S
C2062 C2061 1.392 . S
C2062 C2063 1.385 . S
C2062 C2064 1.478 . S
C2063 H2057 0.930 . S
C2063 C2059 1.400 . S
C2063 C2062 1.385 . S
C2064 C2062 1.478 . S
C2064 C2066 1.381 . S
C2064 C2070 1.383 . S
C2065 C2061 1.495 . S
C2065 H2071 0.959 . S
C2065 H2072 0.961 . S
C2065 H2073 0.960 . S
C2066 C2064 1.381 . S
C2066 C2067 1.394 . S
C2066 H2074 0.930 . S
C2067 C2066 1.394 . S
C2067 C2068 1.383 . S
C2067 H2075 0.929 . S
C2068 C2067 1.383 . S
C2068 C2069 1.377 . S
C2069 H2053 0.930 . S
C2069 C2068 1.377 . S
C2069 C2070 1.379 . S
C2070 H2054 0.931 . S
C2070 C2064 1.383 . S
C2070 C2069 1.379 . S
H2071 C2065 0.959 . S
H2072 C2065 0.961 . S
H2073 C2065 0.960 . S
H2074 C2066 0.930 . S
H2075 C2067 0.929 . S
H2076 C2084 0.929 . S
H2077 C2086 0.930 . S
H2078 C2088 0.930 . S
H2079 C2091 0.929 . S
H2080 C2094 0.930 . S
H2081 C2096 0.960 . S
H2082 C2096 0.960 . S
H2083 C2096 0.960 . S
C2084 H2076 0.929 . S
C2084 C2085 1.377 . S
C2084 C2086 1.384 . S
C2085 C2084 1.377 . S
C2085 C2091 1.390 . S
C2086 H2077 0.930 . S
C2086 C2084 1.384 . S
C2086 C2087 1.372 . S
C2087 C2086 1.372 . S
C2087 C2088 1.400 . S
C2087 C2092 1.490 . S
C2088 H2078 0.930 . S
C2088 C2087 1.400 . S
C2088 C2091 1.386 . S
H2089 C2105 0.930 . S
H2090 C2106 0.931 . S
C2091 H2079 0.929 . S
C2091 C2085 1.390 . S
C2091 C2088 1.386 . S
C2092 C2087 1.490 . S
C2092 C2094 1.395 . S
C2092 C2095 1.403 . S
H2093 C2099 0.930 . S
C2094 H2080 0.930 . S
C2094 C2092 1.395 . S
C2094 C2097 1.403 . S
C2095 C2092 1.403 . S
C2095 C2096 1.524 . S
C2095 C2099 1.400 . S
C2096 H2081 0.960 . S
C2096 H2082 0.960 . S
C2096 H2083 0.960 . S
C2096 C2095 1.524 . S
C2097 C2094 1.403 . S
C2097 C2098 1.392 . S
C2097 C2101 1.495 . S
C2098 C2097 1.392 . S
C2098 C2099 1.385 . S
C2098 C2100 1.478 . S
C2099 H2093 0.930 . S
C2099 C2095 1.400 . S
C2099 C2098 1.385 . S
C2100 C2098 1.478 . S
C2100 C2102 1.381 . S
C2100 C2106 1.383 . S
C2101 C2097 1.495 . S
C2101 H2107 0.959 . S
C2101 H2108 0.961 . S
C2101 H2109 0.960 . S
C2102 C2100 1.381 . S
C2102 C2103 1.394 . S
C2102 H2110 0.930 . S
C2103 C2102 1.394 . S
C2103 C2104 1.383 . S
C2103 H2111 0.929 . S
C2104 C2103 1.383 . S
C2104 C2105 1.377 . S
C2105 H2089 0.930 . S
C2105 C2104 1.377 . S
C2105 C2106 1.379 . S
C2106 H2090 0.931 . S
C2106 C2100 1.383 . S
C2106 C2105 1.379 . S
H2107 C2101 0.959 . S
H2108 C2101 0.961 . S
H2109 C2101 0.960 . S
H2110 C2102 0.930 . S
H2111 C2103 0.929 . S
H2112 C2120 0.929 . S
H2113 C2122 0.930 . S
H2114 C2124 0.930 . S
H2115 C2127 0.929 . S
H2116 C2130 0.930 . S
H2117 C2132 0.960 . S
H2118 C2132 0.960 . S
H2119 C2132 0.960 . S
C2120 H2112 0.929 . S
C2120 C2121 1.377 . S
C2120 C2122 1.384 . S
C2121 C2120 1.377 . S
C2121 C2127 1.390 . S
C2122 H2113 0.930 . S
C2122 C2120 1.384 . S
C2122 C2123 1.372 . S
C2123 C2122 1.372 . S
C2123 C2124 1.400 . S
C2123 C2128 1.490 . S
C2124 H2114 0.930 . S
C2124 C2123 1.400 . S
C2124 C2127 1.386 . S
H2125 C2141 0.930 . S
H2126 C2142 0.931 . S
C2127 H2115 0.929 . S
C2127 C2121 1.390 . S
C2127 C2124 1.386 . S
C2128 C2123 1.490 . S
C2128 C2130 1.395 . S
C2128 C2131 1.403 . S
H2129 C2135 0.930 . S
C2130 H2116 0.930 . S
C2130 C2128 1.395 . S
C2130 C2133 1.403 . S
C2131 C2128 1.403 . S
C2131 C2132 1.524 . S
C2131 C2135 1.400 . S
C2132 H2117 0.960 . S
C2132 H2118 0.960 . S
C2132 H2119 0.960 . S
C2132 C2131 1.524 . S
C2133 C2130 1.403 . S
C2133 C2134 1.392 . S
C2133 C2137 1.495 . S
C2134 C2133 1.392 . S
C2134 C2135 1.385 . S
C2134 C2136 1.478 . S
C2135 H2129 0.930 . S
C2135 C2131 1.400 . S
C2135 C2134 1.385 . S
C2136 C2134 1.478 . S
C2136 C2138 1.381 . S
C2136 C2142 1.383 . S
C2137 C2133 1.495 . S
C2137 H2143 0.959 . S
C2137 H2144 0.961 . S
C2137 H2145 0.960 . S
C2138 C2136 1.381 . S
C2138 C2139 1.394 . S
C2138 H2146 0.930 . S
C2139 C2138 1.394 . S
C2139 C2140 1.383 . S
C2139 H2147 0.929 . S
C2140 C2139 1.383 . S
C2140 C2141 1.377 . S
C2141 H2125 0.930 . S
C2141 C2140 1.377 . S
C2141 C2142 1.379 . S
C2142 H2126 0.931 . S
C2142 C2136 1.383 . S
C2142 C2141 1.379 . S
H2143 C2137 0.959 . S
H2144 C2137 0.961 . S
H2145 C2137 0.960 . S
H2146 C2138 0.930 . S
H2147 C2139 0.929 . S
H2148 C2156 0.929 1_565 S
H2149 C2158 0.930 1_565 S
H2150 C2160 0.930 . S
H2151 C2163 0.929 . S
H2152 C2166 0.930 . S
H2153 C2168 0.960 . S
H2154 C2168 0.960 . S
H2155 C2168 0.960 . S
C2156 H2148 0.929 1_545 S
C2156 C2157 1.377 . S
C2156 C2158 1.384 . S
C2157 C2156 1.377 . S
C2157 C2163 1.390 . S
C2158 H2149 0.930 1_545 S
C2158 C2156 1.384 . S
C2158 C2159 1.372 . S
C2159 C2158 1.372 . S
C2159 C2160 1.400 . S
C2159 C2164 1.490 . S
C2160 H2150 0.930 . S
C2160 C2159 1.400 . S
C2160 C2163 1.386 . S
H2161 C2177 0.930 . S
H2162 C2178 0.931 . S
C2163 H2151 0.929 . S
C2163 C2157 1.390 . S
C2163 C2160 1.386 . S
C2164 C2159 1.490 . S
C2164 C2166 1.395 . S
C2164 C2167 1.403 . S
H2165 C2171 0.930 . S
C2166 H2152 0.930 . S
C2166 C2164 1.395 . S
C2166 C2169 1.403 . S
C2167 C2164 1.403 . S
C2167 C2168 1.524 . S
C2167 C2171 1.400 . S
C2168 H2153 0.960 . S
C2168 H2154 0.960 . S
C2168 H2155 0.960 . S
C2168 C2167 1.524 . S
C2169 C2166 1.403 . S
C2169 C2170 1.392 . S
C2169 C2173 1.495 . S
C2170 C2169 1.392 . S
C2170 C2171 1.385 . S
C2170 C2172 1.478 . S
C2171 H2165 0.930 . S
C2171 C2167 1.400 . S
C2171 C2170 1.385 . S
C2172 C2170 1.478 . S
C2172 C2174 1.381 1_545 S
C2172 C2178 1.383 . S
C2173 C2169 1.495 . S
C2173 H2179 0.959 . S
C2173 H2180 0.961 . S
C2173 H2181 0.960 1_545 S
C2174 C2172 1.381 1_565 S
C2174 C2175 1.394 . S
C2174 H2182 0.930 . S
C2175 C2174 1.394 . S
C2175 C2176 1.383 1_565 S
C2175 H2183 0.929 . S
C2176 C2175 1.383 1_545 S
C2176 C2177 1.377 . S
C2177 H2161 0.930 . S
C2177 C2176 1.377 . S
C2177 C2178 1.379 . S
C2178 H2162 0.931 . S
C2178 C2172 1.383 . S
C2178 C2177 1.379 . S
H2179 C2173 0.959 . S
H2180 C2173 0.961 . S
H2181 C2173 0.960 1_565 S
H2182 C2174 0.930 . S
H2183 C2175 0.929 . S
H2184 C2192 0.929 . S
H2185 C2194 0.930 . S
H2186 C2196 0.930 . S
H2187 C2199 0.929 . S
H2188 C2202 0.930 . S
H2189 C2204 0.960 . S
H2190 C2204 0.960 . S
H2191 C2204 0.960 . S
C2192 H2184 0.929 . S
C2192 C2193 1.377 . S
C2192 C2194 1.384 . S
C2193 C2192 1.377 . S
C2193 C2199 1.390 . S
C2194 H2185 0.930 . S
C2194 C2192 1.384 . S
C2194 C2195 1.372 . S
C2195 C2194 1.372 . S
C2195 C2196 1.400 . S
C2195 C2200 1.490 . S
C2196 H2186 0.930 . S
C2196 C2195 1.400 . S
C2196 C2199 1.386 . S
H2197 C2213 0.930 . S
H2198 C2214 0.931 . S
C2199 H2187 0.929 . S
C2199 C2193 1.390 . S
C2199 C2196 1.386 . S
C2200 C2195 1.490 . S
C2200 C2202 1.395 . S
C2200 C2203 1.403 . S
H2201 C2207 0.930 . S
C2202 H2188 0.930 . S
C2202 C2200 1.395 . S
C2202 C2205 1.403 . S
C2203 C2200 1.403 . S
C2203 C2204 1.524 . S
C2203 C2207 1.400 . S
C2204 H2189 0.960 . S
C2204 H2190 0.960 . S
C2204 H2191 0.960 . S
C2204 C2203 1.524 . S
C2205 C2202 1.403 . S
C2205 C2206 1.392 . S
C2205 C2209 1.495 . S
C2206 C2205 1.392 . S
C2206 C2207 1.385 . S
C2206 C2208 1.478 . S
C2207 H2201 0.930 . S
C2207 C2203 1.400 . S
C2207 C2206 1.385 . S
C2208 C2206 1.478 . S
C2208 C2210 1.381 . S
C2208 C2214 1.383 . S
C2209 C2205 1.495 . S
C2209 H2215 0.959 . S
C2209 H2216 0.961 . S
C2209 H2217 0.960 . S
C2210 C2208 1.381 . S
C2210 C2211 1.394 . S
C2210 H2218 0.930 . S
C2211 C2210 1.394 . S
C2211 C2212 1.383 . S
C2211 H2219 0.929 . S
C2212 C2211 1.383 . S
C2212 C2213 1.377 . S
C2213 H2197 0.930 . S
C2213 C2212 1.377 . S
C2213 C2214 1.379 . S
C2214 H2198 0.931 . S
C2214 C2208 1.383 . S
C2214 C2213 1.379 . S
H2215 C2209 0.959 . S
H2216 C2209 0.961 . S
H2217 C2209 0.960 . S
H2218 C2210 0.930 . S
H2219 C2211 0.929 . S
H2220 C2228 0.929 . S
H2221 C2230 0.930 . S
H2222 C2232 0.930 . S
H2223 C2235 0.929 . S
H2224 C2238 0.930 . S
H2225 C2240 0.960 . S
H2226 C2240 0.960 . S
H2227 C2240 0.960 . S
C2228 H2220 0.929 . S
C2228 C2229 1.377 . S
C2228 C2230 1.384 . S
C2229 C2228 1.377 . S
C2229 C2235 1.390 . S
C2230 H2221 0.930 . S
C2230 C2228 1.384 . S
C2230 C2231 1.372 . S
C2231 C2230 1.372 . S
C2231 C2232 1.400 . S
C2231 C2236 1.490 . S
C2232 H2222 0.930 . S
C2232 C2231 1.400 . S
C2232 C2235 1.386 . S
H2233 C2249 0.930 . S
H2234 C2250 0.931 . S
C2235 H2223 0.929 . S
C2235 C2229 1.390 . S
C2235 C2232 1.386 . S
C2236 C2231 1.490 . S
C2236 C2238 1.395 . S
C2236 C2239 1.403 . S
H2237 C2243 0.930 . S
C2238 H2224 0.930 . S
C2238 C2236 1.395 . S
C2238 C2241 1.403 . S
C2239 C2236 1.403 . S
C2239 C2240 1.524 . S
C2239 C2243 1.400 . S
C2240 H2225 0.960 . S
C2240 H2226 0.960 . S
C2240 H2227 0.960 . S
C2240 C2239 1.524 . S
C2241 C2238 1.403 . S
C2241 C2242 1.392 . S
C2241 C2245 1.495 . S
C2242 C2241 1.392 . S
C2242 C2243 1.385 . S
C2242 C2244 1.478 . S
C2243 H2237 0.930 . S
C2243 C2239 1.400 . S
C2243 C2242 1.385 . S
C2244 C2242 1.478 . S
C2244 C2246 1.381 . S
C2244 C2250 1.383 . S
C2245 C2241 1.495 . S
C2245 H2251 0.959 . S
C2245 H2252 0.961 . S
C2245 H2253 0.960 . S
C2246 C2244 1.381 . S
C2246 C2247 1.394 . S
C2246 H2254 0.930 . S
C2247 C2246 1.394 . S
C2247 C2248 1.383 . S
C2247 H2255 0.929 . S
C2248 C2247 1.383 . S
C2248 C2249 1.377 . S
C2249 H2233 0.930 . S
C2249 C2248 1.377 . S
C2249 C2250 1.379 . S
C2250 H2234 0.931 . S
C2250 C2244 1.383 . S
C2250 C2249 1.379 . S
H2251 C2245 0.959 . S
H2252 C2245 0.961 . S
H2253 C2245 0.960 . S
H2254 C2246 0.930 . S
H2255 C2247 0.929 . S
H2256 C2264 0.929 . S
H2257 C2266 0.930 . S
H2258 C2268 0.930 . S
H2259 C2271 0.929 . S
H2260 C2274 0.930 . S
H2261 C2276 0.960 . S
H2262 C2276 0.960 . S
H2263 C2276 0.960 . S
C2264 H2256 0.929 . S
C2264 C2265 1.377 . S
C2264 C2266 1.384 . S
C2265 C2264 1.377 . S
C2265 C2271 1.390 . S
C2266 H2257 0.930 . S
C2266 C2264 1.384 . S
C2266 C2267 1.372 . S
C2267 C2266 1.372 . S
C2267 C2268 1.400 . S
C2267 C2272 1.490 . S
C2268 H2258 0.930 . S
C2268 C2267 1.400 . S
C2268 C2271 1.386 . S
H2269 C2285 0.930 . S
H2270 C2286 0.931 . S
C2271 H2259 0.929 . S
C2271 C2265 1.390 . S
C2271 C2268 1.386 . S
C2272 C2267 1.490 . S
C2272 C2274 1.395 . S
C2272 C2275 1.403 . S
H2273 C2279 0.930 . S
C2274 H2260 0.930 . S
C2274 C2272 1.395 . S
C2274 C2277 1.403 . S
C2275 C2272 1.403 . S
C2275 C2276 1.524 . S
C2275 C2279 1.400 . S
C2276 H2261 0.960 . S
C2276 H2262 0.960 . S
C2276 H2263 0.960 . S
C2276 C2275 1.524 . S
C2277 C2274 1.403 . S
C2277 C2278 1.392 . S
C2277 C2281 1.495 . S
C2278 C2277 1.392 . S
C2278 C2279 1.385 . S
C2278 C2280 1.478 . S
C2279 H2273 0.930 . S
C2279 C2275 1.400 . S
C2279 C2278 1.385 . S
C2280 C2278 1.478 . S
C2280 C2282 1.381 . S
C2280 C2286 1.383 . S
C2281 C2277 1.495 . S
C2281 H2287 0.959 . S
C2281 H2288 0.961 . S
C2281 H2289 0.960 . S
C2282 C2280 1.381 . S
C2282 C2283 1.394 . S
C2282 H2290 0.930 . S
C2283 C2282 1.394 . S
C2283 C2284 1.383 . S
C2283 H2291 0.929 . S
C2284 C2283 1.383 . S
C2284 C2285 1.377 . S
C2285 H2269 0.930 . S
C2285 C2284 1.377 . S
C2285 C2286 1.379 . S
C2286 H2270 0.931 . S
C2286 C2280 1.383 . S
C2286 C2285 1.379 . S
H2287 C2281 0.959 . S
H2288 C2281 0.961 . S
H2289 C2281 0.960 . S
H2290 C2282 0.930 . S
H2291 C2283 0.929 . S
H2292 C2300 0.929 . S
H2293 C2302 0.930 . S
H2294 C2304 0.930 1_655 S
H2295 C2307 0.929 . S
H2296 C2310 0.930 . S
H2297 C2312 0.959 1_565 S
H2298 C2312 0.961 1_465 S
H2299 C2312 0.960 . S
C2300 H2292 0.929 . S
C2300 C2301 1.377 . S
C2300 C2302 1.384 . S
C2301 C2300 1.377 . S
C2301 C2307 1.390 . S
C2302 H2293 0.930 . S
C2302 C2300 1.384 . S
C2302 C2303 1.372 . S
C2303 C2302 1.372 . S
C2303 C2304 1.400 . S
C2303 C2308 1.490 . S
C2304 H2294 0.930 1_455 S
C2304 C2303 1.400 . S
C2304 C2307 1.386 . S
H2305 C2321 0.930 . S
H2306 C2322 0.931 . S
C2307 H2295 0.929 . S
C2307 C2301 1.390 . S
C2307 C2304 1.386 . S
C2308 C2303 1.490 . S
C2308 C2310 1.395 . S
C2308 C2311 1.403 . S
H2309 C2315 0.930 . S
C2310 H2296 0.930 . S
C2310 C2308 1.395 . S
C2310 C2313 1.403 . S
C2311 C2308 1.403 . S
C2311 C2312 1.524 1_455 S
C2311 C2315 1.400 1_455 S
C2312 H2297 0.959 1_545 S
C2312 H2298 0.961 1_645 S
C2312 H2299 0.960 . S
C2312 C2311 1.524 1_655 S
C2313 C2310 1.403 . S
C2313 C2314 1.392 1_455 S
C2313 C2317 1.495 . S
C2314 C2313 1.392 1_655 S
C2314 C2315 1.385 . S
C2314 C2316 1.478 . S
C2315 H2309 0.930 . S
C2315 C2311 1.400 1_655 S
C2315 C2314 1.385 . S
C2316 C2314 1.478 . S
C2316 C2318 1.387 . S
C2316 C2322 1.383 . S
C2317 C2313 1.495 . S
C2317 H2323 0.959 . S
C2317 H2324 0.961 1_455 S
C2317 H2325 0.960 . S
C2318 C2316 1.387 . S
C2318 C2319 1.399 . S
C2318 H2326 0.920 1_655 S
C2319 C2318 1.399 . S
C2319 C2320 1.383 . S
C2319 H2327 0.957 . S
C2320 C2319 1.383 . S
C2320 C2321 1.377 . S
C2321 H2305 0.930 . S
C2321 C2320 1.377 . S
C2321 C2322 1.379 . S
C2322 H2306 0.931 . S
C2322 C2316 1.383 . S
C2322 C2321 1.379 . S
H2323 C2317 0.959 . S
H2324 C2317 0.961 1_655 S
H2325 C2317 0.960 . S
H2326 C2318 0.920 1_455 S
H2327 C2319 0.957 . S
H2328 C2336 0.929 . S
H2329 C2338 0.930 . S
H2330 C2340 0.930 . S
H2331 C2343 0.929 . S
H2332 C2346 0.930 . S
H2333 C2348 0.960 . S
H2334 C2348 0.960 . S
H2335 C2348 0.960 . S
C2336 H2328 0.929 . S
C2336 C2337 1.377 . S
C2336 C2338 1.384 . S
C2337 C2336 1.377 . S
C2337 C2343 1.390 . S
C2338 H2329 0.930 . S
C2338 C2336 1.384 . S
C2338 C2339 1.372 . S
C2339 C2338 1.372 . S
C2339 C2340 1.400 . S
C2339 C2344 1.490 . S
C2340 H2330 0.930 . S
C2340 C2339 1.400 . S
C2340 C2343 1.386 . S
H2341 C2357 0.930 . S
H2342 C2358 0.931 . S
C2343 H2331 0.929 . S
C2343 C2337 1.390 . S
C2343 C2340 1.386 . S
C2344 C2339 1.490 . S
C2344 C2346 1.395 . S
C2344 C2347 1.403 . S
H2345 C2351 0.930 . S
C2346 H2332 0.930 . S
C2346 C2344 1.395 . S
C2346 C2349 1.403 . S
C2347 C2344 1.403 . S
C2347 C2348 1.524 . S
C2347 C2351 1.400 . S
C2348 H2333 0.960 . S
C2348 H2334 0.960 . S
C2348 H2335 0.960 . S
C2348 C2347 1.524 . S
C2349 C2346 1.403 . S
C2349 C2350 1.392 . S
C2349 C2353 1.495 . S
C2350 C2349 1.392 . S
C2350 C2351 1.385 . S
C2350 C2352 1.478 . S
C2351 H2345 0.930 . S
C2351 C2347 1.400 . S
C2351 C2350 1.385 . S
C2352 C2350 1.478 . S
C2352 C2354 1.381 . S
C2352 C2358 1.383 . S
C2353 C2349 1.495 . S
C2353 H2359 0.959 . S
C2353 H2360 0.961 . S
C2353 H2361 0.960 . S
C2354 C2352 1.381 . S
C2354 C2355 1.394 . S
C2354 H2362 0.930 . S
C2355 C2354 1.394 . S
C2355 C2356 1.383 . S
C2355 H2363 0.929 . S
C2356 C2355 1.383 . S
C2356 C2357 1.377 . S
C2357 H2341 0.930 . S
C2357 C2356 1.377 . S
C2357 C2358 1.379 . S
C2358 H2342 0.931 . S
C2358 C2352 1.383 . S
C2358 C2357 1.379 . S
H2359 C2353 0.959 . S
H2360 C2353 0.961 . S
H2361 C2353 0.960 . S
H2362 C2354 0.930 . S
H2363 C2355 0.929 . S
H2364 C2372 0.929 . S
H2365 C2374 0.930 . S
H2366 C2376 0.930 1_655 S
H2367 C2379 0.929 . S
H2368 C2382 0.930 . S
H2369 C2384 0.960 . S
H2370 C2384 0.960 . S
H2371 C2384 0.960 . S
C2372 H2364 0.929 . S
C2372 C2373 1.400 . S
C2372 C2374 1.384 . S
C2373 C2372 1.400 . S
C2373 C2379 1.378 1_455 S
C2374 H2365 0.930 . S
C2374 C2372 1.384 . S
C2374 C2375 1.372 . S
C2375 C2374 1.372 . S
C2375 C2376 1.400 . S
C2375 C2380 1.490 . S
C2376 H2366 0.930 1_455 S
C2376 C2375 1.400 . S
C2376 C2379 1.386 1_455 S
H2377 C2393 0.930 . S
H2378 C2394 0.931 . S
C2379 H2367 0.929 . S
C2379 C2373 1.378 1_655 S
C2379 C2376 1.386 1_655 S
C2380 C2375 1.490 . S
C2380 C2382 1.395 . S
C2380 C2383 1.403 . S
H2381 C2387 0.930 . S
C2382 H2368 0.930 . S
C2382 C2380 1.395 . S
C2382 C2385 1.403 . S
C2383 C2380 1.403 . S
C2383 C2384 1.524 . S
C2383 C2387 1.400 . S
C2384 H2369 0.960 . S
C2384 H2370 0.960 . S
C2384 H2371 0.960 . S
C2384 C2383 1.524 . S
C2385 C2382 1.403 . S
C2385 C2386 1.392 . S
C2385 C2389 1.495 . S
C2386 C2385 1.392 . S
C2386 C2387 1.385 . S
C2386 C2388 1.478 . S
C2387 H2381 0.930 . S
C2387 C2383 1.400 . S
C2387 C2386 1.385 . S
C2388 C2386 1.478 . S
C2388 C2390 1.381 . S
C2388 C2394 1.383 . S
C2389 C2385 1.495 . S
C2389 H2395 0.959 . S
C2389 H2396 0.961 . S
C2389 H2397 0.960 . S
C2390 C2388 1.381 . S
C2390 C2391 1.394 . S
C2390 H2398 0.930 . S
C2391 C2390 1.394 . S
C2391 C2392 1.383 . S
C2391 H2399 0.929 . S
C2392 C2391 1.383 . S
C2392 C2393 1.377 . S
C2393 H2377 0.930 . S
C2393 C2392 1.377 . S
C2393 C2394 1.379 . S
C2394 H2378 0.931 . S
C2394 C2388 1.383 . S
C2394 C2393 1.379 . S
H2395 C2389 0.959 . S
H2396 C2389 0.961 . S
H2397 C2389 0.960 . S
H2398 C2390 0.930 . S
H2399 C2391 0.929 . S
H2400 C2408 0.929 . S
H2401 C2410 0.930 . S
H2402 C2412 0.930 . S
H2403 C2415 0.929 . S
H2404 C2418 0.930 . S
H2405 C2420 0.960 . S
H2406 C2420 0.960 . S
H2407 C2420 0.960 . S
C2408 H2400 0.929 . S
C2408 C2409 1.377 . S
C2408 C2410 1.384 . S
C2409 C2408 1.377 . S
C2409 C2415 1.390 . S
C2410 H2401 0.930 . S
C2410 C2408 1.384 . S
C2410 C2411 1.372 . S
C2411 C2410 1.372 . S
C2411 C2412 1.400 . S
C2411 C2416 1.490 . S
C2412 H2402 0.930 . S
C2412 C2411 1.400 . S
C2412 C2415 1.386 . S
H2413 C2429 0.930 . S
H2414 C2430 0.931 . S
C2415 H2403 0.929 . S
C2415 C2409 1.390 . S
C2415 C2412 1.386 . S
C2416 C2411 1.490 . S
C2416 C2418 1.395 . S
C2416 C2419 1.403 . S
H2417 C2423 0.930 . S
C2418 H2404 0.930 . S
C2418 C2416 1.395 . S
C2418 C2421 1.403 . S
C2419 C2416 1.403 . S
C2419 C2420 1.524 . S
C2419 C2423 1.400 . S
C2420 H2405 0.960 . S
C2420 H2406 0.960 . S
C2420 H2407 0.960 . S
C2420 C2419 1.524 . S
C2421 C2418 1.403 . S
C2421 C2422 1.392 . S
C2421 C2425 1.495 . S
C2422 C2421 1.392 . S
C2422 C2423 1.385 . S
C2422 C2424 1.478 . S
C2423 H2417 0.930 . S
C2423 C2419 1.400 . S
C2423 C2422 1.385 . S
C2424 C2422 1.478 . S
C2424 C2426 1.381 . S
C2424 C2430 1.383 . S
C2425 C2421 1.495 . S
C2425 H2431 0.959 . S
C2425 H2432 0.961 . S
C2425 H2433 0.960 . S
C2426 C2424 1.381 . S
C2426 C2427 1.394 . S
C2426 H2434 0.930 . S
C2427 C2426 1.394 . S
C2427 C2428 1.383 . S
C2427 H2435 0.929 . S
C2428 C2427 1.383 . S
C2428 C2429 1.377 . S
C2429 H2413 0.930 . S
C2429 C2428 1.377 . S
C2429 C2430 1.379 . S
C2430 H2414 0.931 . S
C2430 C2424 1.383 . S
C2430 C2429 1.379 . S
H2431 C2425 0.959 . S
H2432 C2425 0.961 . S
H2433 C2425 0.960 . S
H2434 C2426 0.930 . S
H2435 C2427 0.929 . S
H2436 C2444 0.929 1_554 S
H2437 C2446 0.930 . S
H2438 C2448 0.930 . S
H2439 C2451 0.929 . S
H2440 C2454 0.929 . S
H2441 C2456 0.960 . S
H2442 C2456 0.960 . S
H2443 C2456 0.960 . S
C2444 H2436 0.929 1_556 S
C2444 C2445 1.377 1_455 S
C2444 C2446 1.384 . S
C2445 C2444 1.377 1_655 S
C2445 C2451 1.390 . S
C2446 H2437 0.930 . S
C2446 C2444 1.384 . S
C2446 C2447 1.372 1_455 S
C2447 C2446 1.372 1_655 S
C2447 C2448 1.400 . S
C2447 C2452 1.490 . S
C2448 H2438 0.930 . S
C2448 C2447 1.400 . S
C2448 C2451 1.386 . S
H2449 C2465 0.930 . S
H2450 C2466 0.931 . S
C2451 H2439 0.929 . S
C2451 C2445 1.390 . S
C2451 C2448 1.386 . S
C2452 C2447 1.490 . S
C2452 C2454 1.395 . S
C2452 C2455 1.403 . S
H2453 C2459 0.930 . S
C2454 H2440 0.929 . S
C2454 C2452 1.395 . S
C2454 C2457 1.403 . S
C2455 C2452 1.403 . S
C2455 C2456 1.524 . S
C2455 C2459 1.400 . S
C2456 H2441 0.960 . S
C2456 H2442 0.960 . S
C2456 H2443 0.960 . S
C2456 C2455 1.524 . S
C2457 C2454 1.403 . S
C2457 C2458 1.392 . S
C2457 C2461 1.495 1_655 S
C2458 C2457 1.392 . S
C2458 C2459 1.385 . S
C2458 C2460 1.478 . S
C2459 H2453 0.930 . S
C2459 C2455 1.400 . S
C2459 C2458 1.385 . S
C2460 C2458 1.478 . S
C2460 C2462 1.381 1_655 S
C2460 C2466 1.383 . S
C2461 C2457 1.495 1_455 S
C2461 H2467 0.959 . S
C2461 H2468 0.961 1_455 S
C2461 H2469 0.960 . S
C2462 C2460 1.381 1_455 S
C2462 C2463 1.394 . S
C2462 H2470 0.930 . S
C2463 C2462 1.394 . S
C2463 C2464 1.383 1_455 S
C2463 H2471 0.929 . S
C2464 C2463 1.383 1_655 S
C2464 C2465 1.377 . S
C2465 H2449 0.930 . S
C2465 C2464 1.377 . S
C2465 C2466 1.379 . S
C2466 H2450 0.931 . S
C2466 C2460 1.383 . S
C2466 C2465 1.379 . S
H2467 C2461 0.959 . S
H2468 C2461 0.961 1_655 S
H2469 C2461 0.960 . S
H2470 C2462 0.930 . S
H2471 C2463 0.929 . S
H2472 C2480 0.929 . S
H2473 C2482 0.930 . S
H2474 C2484 0.930 . S
H2475 C2487 0.929 . S
H2476 C2490 0.930 . S
H2477 C2492 0.960 . S
H2478 C2492 0.960 . S
H2479 C2492 0.960 . S
C2480 H2472 0.929 . S
C2480 C2481 1.377 . S
C2480 C2482 1.384 . S
C2481 C2480 1.377 . S
C2481 C2487 1.390 . S
C2482 H2473 0.930 . S
C2482 C2480 1.384 . S
C2482 C2483 1.372 . S
C2483 C2482 1.372 . S
C2483 C2484 1.400 . S
C2483 C2488 1.490 . S
C2484 H2474 0.930 . S
C2484 C2483 1.400 . S
C2484 C2487 1.386 . S
H2485 C2501 0.930 . S
H2486 C2502 0.931 . S
C2487 H2475 0.929 . S
C2487 C2481 1.390 . S
C2487 C2484 1.386 . S
C2488 C2483 1.490 . S
C2488 C2490 1.395 . S
C2488 C2491 1.403 . S
H2489 C2495 0.930 . S
C2490 H2476 0.930 . S
C2490 C2488 1.395 . S
C2490 C2493 1.403 . S
C2491 C2488 1.403 . S
C2491 C2492 1.524 . S
C2491 C2495 1.400 . S
C2492 H2477 0.960 . S
C2492 H2478 0.960 . S
C2492 H2479 0.960 . S
C2492 C2491 1.524 . S
C2493 C2490 1.403 . S
C2493 C2494 1.392 . S
C2493 C2497 1.495 . S
C2494 C2493 1.392 . S
C2494 C2495 1.385 . S
C2494 C2496 1.478 . S
C2495 H2489 0.930 . S
C2495 C2491 1.400 . S
C2495 C2494 1.385 . S
C2496 C2494 1.478 . S
C2496 C2498 1.381 . S
C2496 C2502 1.383 . S
C2497 C2493 1.495 . S
C2497 H2503 0.959 . S
C2497 H2504 0.961 . S
C2497 H2505 0.960 . S
C2498 C2496 1.381 . S
C2498 C2499 1.394 . S
C2498 H2506 0.930 . S
C2499 C2498 1.394 . S
C2499 C2500 1.383 . S
C2499 H2507 0.929 . S
C2500 C2499 1.383 . S
C2500 C2501 1.377 . S
C2501 H2485 0.930 . S
C2501 C2500 1.377 . S
C2501 C2502 1.379 . S
C2502 H2486 0.931 . S
C2502 C2496 1.383 . S
C2502 C2501 1.379 . S
H2503 C2497 0.959 . S
H2504 C2497 0.961 . S
H2505 C2497 0.960 . S
H2506 C2498 0.930 . S
H2507 C2499 0.929 . S
H2508 C2516 0.948 . S
H2509 C2518 0.930 . S
H2510 C2520 0.930 . S
H2511 C2523 0.929 . S
H2512 C2526 0.930 . S
H2513 C2528 0.960 . S
H2514 C2528 0.960 . S
H2515 C2528 0.960 . S
C2516 H2508 0.948 . S
C2516 C2517 1.377 . S
C2516 C2518 1.384 . S
C2517 C2516 1.377 . S
C2517 C2523 1.390 . S
C2518 H2509 0.930 . S
C2518 C2516 1.384 . S
C2518 C2519 1.372 . S
C2519 C2518 1.372 . S
C2519 C2520 1.400 . S
C2519 C2524 1.490 . S
C2520 H2510 0.930 . S
C2520 C2519 1.400 . S
C2520 C2523 1.386 . S
H2521 C2537 0.930 . S
H2522 C2538 0.931 . S
C2523 H2511 0.929 . S
C2523 C2517 1.390 . S
C2523 C2520 1.386 . S
C2524 C2519 1.490 . S
C2524 C2526 1.395 . S
C2524 C2527 1.403 . S
H2525 C2531 0.930 . S
C2526 H2512 0.930 . S
C2526 C2524 1.395 . S
C2526 C2529 1.403 . S
C2527 C2524 1.403 . S
C2527 C2528 1.524 . S
C2527 C2531 1.400 . S
C2528 H2513 0.960 . S
C2528 H2514 0.960 . S
C2528 H2515 0.960 . S
C2528 C2527 1.524 . S
C2529 C2526 1.403 . S
C2529 C2530 1.392 . S
C2529 C2533 1.495 . S
C2530 C2529 1.392 . S
C2530 C2531 1.385 . S
C2530 C2532 1.478 . S
C2531 H2525 0.930 . S
C2531 C2527 1.400 . S
C2531 C2530 1.385 . S
C2532 C2530 1.478 . S
C2532 C2534 1.381 . S
C2532 C2538 1.383 . S
C2533 C2529 1.495 . S
C2533 H2539 0.959 . S
C2533 H2540 0.961 . S
C2533 H2541 0.960 . S
C2534 C2532 1.381 . S
C2534 C2535 1.394 . S
C2534 H2542 0.930 1_455 S
C2535 C2534 1.394 . S
C2535 C2536 1.383 . S
C2535 H2543 0.929 1_455 S
C2536 C2535 1.383 . S
C2536 C2537 1.377 . S
C2537 H2521 0.930 . S
C2537 C2536 1.377 . S
C2537 C2538 1.379 . S
C2538 H2522 0.931 . S
C2538 C2532 1.383 . S
C2538 C2537 1.379 . S
H2539 C2533 0.959 . S
H2540 C2533 0.961 . S
H2541 C2533 0.960 . S
H2542 C2534 0.930 1_655 S
H2543 C2535 0.929 1_655 S
H2544 C2552 0.929 . S
H2545 C2554 0.930 . S
H2546 C2556 0.930 . S
H2547 C2559 0.929 . S
H2548 C2562 0.930 . S
H2549 C2564 0.960 . S
H2550 C2564 0.960 . S
H2551 C2564 0.960 . S
C2552 H2544 0.929 . S
C2552 C2553 1.377 . S
C2552 C2554 1.384 . S
C2553 C2552 1.377 . S
C2553 C2559 1.390 . S
C2554 H2545 0.930 . S
C2554 C2552 1.384 . S
C2554 C2555 1.372 . S
C2555 C2554 1.372 . S
C2555 C2556 1.400 . S
C2555 C2560 1.490 . S
C2556 H2546 0.930 . S
C2556 C2555 1.400 . S
C2556 C2559 1.386 . S
H2557 C2573 0.930 . S
H2558 C2574 0.931 . S
C2559 H2547 0.929 . S
C2559 C2553 1.390 . S
C2559 C2556 1.386 . S
C2560 C2555 1.490 . S
C2560 C2562 1.395 . S
C2560 C2563 1.403 . S
H2561 C2567 0.930 . S
C2562 H2548 0.930 . S
C2562 C2560 1.395 . S
C2562 C2565 1.403 . S
C2563 C2560 1.403 . S
C2563 C2564 1.524 . S
C2563 C2567 1.400 . S
C2564 H2549 0.960 . S
C2564 H2550 0.960 . S
C2564 H2551 0.960 . S
C2564 C2563 1.524 . S
C2565 C2562 1.403 . S
C2565 C2566 1.392 . S
C2565 C2569 1.495 . S
C2566 C2565 1.392 . S
C2566 C2567 1.385 . S
C2566 C2568 1.478 . S
C2567 H2561 0.930 . S
C2567 C2563 1.400 . S
C2567 C2566 1.385 . S
C2568 C2566 1.478 . S
C2568 C2570 1.381 . S
C2568 C2574 1.383 . S
C2569 C2565 1.495 . S
C2569 H2575 0.959 . S
C2569 H2576 0.961 . S
C2569 H2577 0.960 . S
C2570 C2568 1.381 . S
C2570 C2571 1.394 . S
C2570 H2578 0.930 . S
C2571 C2570 1.394 . S
C2571 C2572 1.383 . S
C2571 H2579 0.929 . S
C2572 C2571 1.383 . S
C2572 C2573 1.377 . S
C2573 H2557 0.930 . S
C2573 C2572 1.377 . S
C2573 C2574 1.379 . S
C2574 H2558 0.931 . S
C2574 C2568 1.383 . S
C2574 C2573 1.379 . S
H2575 C2569 0.959 . S
H2576 C2569 0.961 . S
H2577 C2569 0.960 . S
H2578 C2570 0.930 . S
H2579 C2571 0.929 . S
H2580 C2588 0.929 . S
H2581 C2590 0.930 . S
H2582 C2592 0.930 . S
H2583 C2595 0.929 1_556 S
H2584 C2598 0.930 . S
H2585 C2600 0.960 . S
H2586 C2600 0.960 . S
H2587 C2600 0.960 . S
C2588 H2580 0.929 . S
C2588 C2589 1.377 . S
C2588 C2590 1.384 . S
C2589 C2588 1.377 . S
C2589 C2595 1.390 . S
C2590 H2581 0.930 . S
C2590 C2588 1.384 . S
C2590 C2591 1.372 . S
C2591 C2590 1.372 . S
C2591 C2592 1.400 . S
C2591 C2596 1.490 . S
C2592 H2582 0.930 . S
C2592 C2591 1.400 . S
C2592 C2595 1.386 . S
H2593 C2609 0.930 . S
H2594 C2610 0.931 . S
C2595 H2583 0.929 1_554 S
C2595 C2589 1.390 . S
C2595 C2592 1.386 . S
C2596 C2591 1.490 . S
C2596 C2598 1.395 . S
C2596 C2599 1.403 . S
H2597 C2603 0.930 . S
C2598 H2584 0.930 . S
C2598 C2596 1.395 . S
C2598 C2601 1.403 . S
C2599 C2596 1.403 . S
C2599 C2600 1.524 . S
C2599 C2603 1.400 . S
C2600 H2585 0.960 . S
C2600 H2586 0.960 . S
C2600 H2587 0.960 . S
C2600 C2599 1.524 . S
C2601 C2598 1.403 . S
C2601 C2602 1.392 . S
C2601 C2605 1.495 . S
C2602 C2601 1.392 . S
C2602 C2603 1.385 . S
C2602 C2604 1.478 . S
C2603 H2597 0.930 . S
C2603 C2599 1.400 . S
C2603 C2602 1.385 . S
C2604 C2602 1.478 . S
C2604 C2606 1.381 . S
C2604 C2610 1.383 . S
C2605 C2601 1.495 . S
C2605 H2611 0.959 . S
C2605 H2612 0.961 . S
C2605 H2613 0.960 . S
C2606 C2604 1.381 . S
C2606 C2607 1.394 . S
C2606 H2614 0.930 . S
C2607 C2606 1.394 . S
C2607 C2608 1.383 . S
C2607 H2615 0.929 . S
C2608 C2607 1.383 . S
C2608 C2609 1.377 . S
C2609 H2593 0.930 . S
C2609 C2608 1.377 . S
C2609 C2610 1.379 . S
C2610 H2594 0.931 . S
C2610 C2604 1.383 . S
C2610 C2609 1.379 . S
H2611 C2605 0.959 . S
H2612 C2605 0.961 . S
H2613 C2605 0.960 . S
H2614 C2606 0.930 . S
H2615 C2607 0.929 . S
H2616 C2624 0.929 . S
H2617 C2626 0.930 . S
H2618 C2628 0.930 . S
H2619 C2631 0.929 . S
H2620 C2634 0.930 . S
H2621 C2636 0.960 . S
H2622 C2636 0.960 . S
H2623 C2636 0.960 . S
C2624 H2616 0.929 . S
C2624 C2625 1.377 . S
C2624 C2626 1.384 . S
C2625 C2624 1.377 . S
C2625 C2631 1.390 . S
C2626 H2617 0.930 . S
C2626 C2624 1.384 . S
C2626 C2627 1.372 . S
C2627 C2626 1.372 . S
C2627 C2628 1.400 . S
C2627 C2632 1.490 . S
C2628 H2618 0.930 . S
C2628 C2627 1.400 . S
C2628 C2631 1.386 . S
H2629 C2645 0.930 . S
H2630 C2646 0.931 . S
C2631 H2619 0.929 . S
C2631 C2625 1.390 . S
C2631 C2628 1.386 . S
C2632 C2627 1.490 . S
C2632 C2634 1.395 . S
C2632 C2635 1.403 . S
H2633 C2639 0.930 . S
C2634 H2620 0.930 . S
C2634 C2632 1.395 . S
C2634 C2637 1.403 . S
C2635 C2632 1.403 . S
C2635 C2636 1.524 . S
C2635 C2639 1.400 . S
C2636 H2621 0.960 . S
C2636 H2622 0.960 . S
C2636 H2623 0.960 . S
C2636 C2635 1.524 . S
C2637 C2634 1.403 . S
C2637 C2638 1.392 . S
C2637 C2641 1.495 . S
C2638 C2637 1.392 . S
C2638 C2639 1.385 . S
C2638 C2640 1.478 . S
C2639 H2633 0.930 . S
C2639 C2635 1.400 . S
C2639 C2638 1.385 . S
C2640 C2638 1.478 . S
C2640 C2642 1.381 . S
C2640 C2646 1.383 . S
C2641 C2637 1.495 . S
C2641 H2647 0.959 . S
C2641 H2648 0.961 . S
C2641 H2649 0.960 . S
C2642 C2640 1.381 . S
C2642 C2643 1.394 . S
C2642 H2650 0.930 . S
C2643 C2642 1.394 . S
C2643 C2644 1.383 . S
C2643 H2651 0.929 . S
C2644 C2643 1.383 . S
C2644 C2645 1.377 . S
C2645 H2629 0.930 . S
C2645 C2644 1.377 . S
C2645 C2646 1.379 . S
C2646 H2630 0.931 . S
C2646 C2640 1.383 . S
C2646 C2645 1.379 . S
H2647 C2641 0.959 . S
H2648 C2641 0.961 . S
H2649 C2641 0.960 . S
H2650 C2642 0.930 . S
H2651 C2643 0.929 . S
H2652 C2660 0.929 . S
H2653 C2662 0.930 . S
H2654 C2664 0.930 . S
H2655 C2667 0.929 . S
H2656 C2670 0.930 . S
H2657 C2672 0.960 . S
H2658 C2672 0.960 . S
H2659 C2672 0.960 . S
C2660 H2652 0.929 . S
C2660 C2661 1.377 . S
C2660 C2662 1.384 . S
C2661 C2660 1.377 . S
C2661 C2667 1.390 1_556 S
C2662 H2653 0.930 . S
C2662 C2660 1.384 . S
C2662 C2663 1.372 1_556 S
C2663 C2662 1.372 1_554 S
C2663 C2664 1.400 . S
C2663 C2668 1.490 . S
C2664 H2654 0.930 . S
C2664 C2663 1.400 . S
C2664 C2667 1.386 . S
H2665 C2681 0.930 . S
H2666 C2682 0.931 . S
C2667 H2655 0.929 . S
C2667 C2661 1.390 1_554 S
C2667 C2664 1.386 . S
C2668 C2663 1.490 . S
C2668 C2670 1.395 . S
C2668 C2671 1.403 . S
H2669 C2675 0.930 . S
C2670 H2656 0.930 . S
C2670 C2668 1.395 . S
C2670 C2673 1.403 . S
C2671 C2668 1.403 . S
C2671 C2672 1.524 . S
C2671 C2675 1.400 . S
C2672 H2657 0.960 . S
C2672 H2658 0.960 . S
C2672 H2659 0.960 . S
C2672 C2671 1.524 . S
C2673 C2670 1.403 . S
C2673 C2674 1.392 . S
C2673 C2677 1.495 . S
C2674 C2673 1.392 . S
C2674 C2675 1.385 . S
C2674 C2676 1.478 . S
C2675 H2669 0.930 . S
C2675 C2671 1.400 . S
C2675 C2674 1.385 . S
C2676 C2674 1.478 . S
C2676 C2678 1.381 . S
C2676 C2682 1.383 . S
C2677 C2673 1.495 . S
C2677 H2683 0.959 . S
C2677 H2684 0.961 . S
C2677 H2685 0.960 . S
C2678 C2676 1.381 . S
C2678 C2679 1.394 . S
C2678 H2686 0.930 . S
C2679 C2678 1.394 . S
C2679 C2680 1.383 . S
C2679 H2687 0.929 . S
C2680 C2679 1.383 . S
C2680 C2681 1.377 . S
C2681 H2665 0.930 . S
C2681 C2680 1.377 . S
C2681 C2682 1.379 . S
C2682 H2666 0.931 . S
C2682 C2676 1.383 . S
C2682 C2681 1.379 . S
H2683 C2677 0.959 . S
H2684 C2677 0.961 . S
H2685 C2677 0.960 . S
H2686 C2678 0.930 . S
H2687 C2679 0.929 . S
H2688 C2696 0.929 . S
H2689 C2698 0.930 . S
H2690 C2700 0.930 . S
H2691 C2703 0.929 . S
H2692 C2706 0.930 . S
H2693 C2708 0.960 . S
H2694 C2708 0.960 . S
H2695 C2708 0.960 . S
C2696 H2688 0.929 . S
C2696 C2697 1.377 . S
C2696 C2698 1.384 . S
C2697 C2696 1.377 . S
C2697 C2703 1.390 . S
C2698 H2689 0.930 . S
C2698 C2696 1.384 . S
C2698 C2699 1.372 . S
C2699 C2698 1.372 . S
C2699 C2700 1.400 . S
C2699 C2704 1.490 . S
C2700 H2690 0.930 . S
C2700 C2699 1.400 . S
C2700 C2703 1.386 . S
H2701 C2717 0.930 . S
H2702 C2718 0.931 . S
C2703 H2691 0.929 . S
C2703 C2697 1.390 . S
C2703 C2700 1.386 . S
C2704 C2699 1.490 . S
C2704 C2706 1.395 . S
C2704 C2707 1.403 . S
H2705 C2711 0.930 . S
C2706 H2692 0.930 . S
C2706 C2704 1.395 . S
C2706 C2709 1.403 . S
C2707 C2704 1.403 . S
C2707 C2708 1.524 . S
C2707 C2711 1.400 . S
C2708 H2693 0.960 . S
C2708 H2694 0.960 . S
C2708 H2695 0.960 . S
C2708 C2707 1.524 . S
C2709 C2706 1.403 . S
C2709 C2710 1.392 . S
C2709 C2713 1.495 . S
C2710 C2709 1.392 . S
C2710 C2711 1.385 . S
C2710 C2712 1.478 . S
C2711 H2705 0.930 . S
C2711 C2707 1.400 . S
C2711 C2710 1.385 . S
C2712 C2710 1.478 . S
C2712 C2714 1.381 . S
C2712 C2718 1.383 . S
C2713 C2709 1.495 . S
C2713 H2719 0.959 . S
C2713 H2720 0.961 . S
C2713 H2721 0.960 . S
C2714 C2712 1.381 . S
C2714 C2715 1.394 . S
C2714 H2722 0.930 . S
C2715 C2714 1.394 . S
C2715 C2716 1.383 . S
C2715 H2723 0.929 . S
C2716 C2715 1.383 . S
C2716 C2717 1.377 . S
C2717 H2701 0.930 . S
C2717 C2716 1.377 . S
C2717 C2718 1.379 . S
C2718 H2702 0.931 . S
C2718 C2712 1.383 . S
C2718 C2717 1.379 . S
H2719 C2713 0.959 . S
H2720 C2713 0.961 . S
H2721 C2713 0.960 . S
H2722 C2714 0.930 . S
H2723 C2715 0.929 . S
H2724 C2732 0.929 . S
H2725 C2734 0.930 . S
H2726 C2736 0.930 . S
H2727 C2739 0.929 . S
H2728 C2742 0.930 . S
H2729 C2744 0.960 . S
H2730 C2744 0.960 . S
H2731 C2744 0.960 . S
C2732 H2724 0.929 . S
C2732 C2733 1.377 . S
C2732 C2734 1.384 . S
C2733 C2732 1.377 . S
C2733 C2739 1.390 . S
C2734 H2725 0.930 . S
C2734 C2732 1.384 . S
C2734 C2735 1.372 . S
C2735 C2734 1.372 . S
C2735 C2736 1.400 . S
C2735 C2740 1.490 . S
C2736 H2726 0.930 . S
C2736 C2735 1.400 . S
C2736 C2739 1.386 . S
H2737 C2753 0.930 . S
H2738 C2754 0.931 . S
C2739 H2727 0.929 . S
C2739 C2733 1.390 . S
C2739 C2736 1.386 . S
C2740 C2735 1.490 . S
C2740 C2742 1.395 . S
C2740 C2743 1.403 . S
H2741 C2747 0.930 . S
C2742 H2728 0.930 . S
C2742 C2740 1.395 . S
C2742 C2745 1.403 . S
C2743 C2740 1.403 . S
C2743 C2744 1.524 . S
C2743 C2747 1.400 . S
C2744 H2729 0.960 . S
C2744 H2730 0.960 . S
C2744 H2731 0.960 . S
C2744 C2743 1.524 . S
C2745 C2742 1.403 . S
C2745 C2746 1.392 . S
C2745 C2749 1.495 . S
C2746 C2745 1.392 . S
C2746 C2747 1.385 . S
C2746 C2748 1.478 . S
C2747 H2741 0.930 . S
C2747 C2743 1.400 . S
C2747 C2746 1.385 . S
C2748 C2746 1.478 . S
C2748 C2750 1.381 . S
C2748 C2754 1.383 . S
C2749 C2745 1.495 . S
C2749 H2755 0.959 . S
C2749 H2756 0.961 . S
C2749 H2757 0.960 . S
C2750 C2748 1.381 . S
C2750 C2751 1.394 . S
C2750 H2758 0.930 . S
C2751 C2750 1.394 . S
C2751 C2752 1.383 . S
C2751 H2759 0.929 . S
C2752 C2751 1.383 . S
C2752 C2753 1.377 . S
C2753 H2737 0.930 . S
C2753 C2752 1.377 . S
C2753 C2754 1.379 . S
C2754 H2738 0.931 . S
C2754 C2748 1.383 . S
C2754 C2753 1.379 . S
H2755 C2749 0.959 . S
H2756 C2749 0.961 . S
H2757 C2749 0.960 . S
H2758 C2750 0.930 . S
H2759 C2751 0.929 . S
H2760 C2768 0.929 . S
H2761 C2770 0.930 . S
H2762 C2772 0.930 . S
H2763 C2775 0.929 . S
H2764 C2778 0.930 . S
H2765 C2780 0.960 . S
H2766 C2780 0.960 . S
H2767 C2780 0.960 . S
C2768 H2760 0.929 . S
C2768 C2769 1.377 . S
C2768 C2770 1.384 . S
C2769 C2768 1.377 . S
C2769 C2775 1.390 . S
C2770 H2761 0.930 . S
C2770 C2768 1.384 . S
C2770 C2771 1.372 . S
C2771 C2770 1.372 . S
C2771 C2772 1.400 . S
C2771 C2776 1.490 . S
C2772 H2762 0.930 . S
C2772 C2771 1.400 . S
C2772 C2775 1.386 . S
H2773 C2789 0.930 . S
H2774 C2790 0.931 . S
C2775 H2763 0.929 . S
C2775 C2769 1.390 . S
C2775 C2772 1.386 . S
C2776 C2771 1.490 . S
C2776 C2778 1.395 . S
C2776 C2779 1.403 . S
H2777 C2783 0.930 . S
C2778 H2764 0.930 . S
C2778 C2776 1.395 . S
C2778 C2781 1.403 . S
C2779 C2776 1.403 . S
C2779 C2780 1.524 . S
C2779 C2783 1.400 . S
C2780 H2765 0.960 . S
C2780 H2766 0.960 . S
C2780 H2767 0.960 . S
C2780 C2779 1.524 . S
C2781 C2778 1.403 . S
C2781 C2782 1.392 . S
C2781 C2785 1.495 . S
C2782 C2781 1.392 . S
C2782 C2783 1.385 . S
C2782 C2784 1.478 . S
C2783 H2777 0.930 . S
C2783 C2779 1.400 . S
C2783 C2782 1.385 . S
C2784 C2782 1.478 . S
C2784 C2786 1.381 . S
C2784 C2790 1.383 . S
C2785 C2781 1.495 . S
C2785 H2791 0.959 . S
C2785 H2792 0.961 . S
C2785 H2793 0.960 . S
C2786 C2784 1.381 . S
C2786 C2787 1.394 . S
C2786 H2794 0.930 . S
C2787 C2786 1.394 . S
C2787 C2788 1.383 . S
C2787 H2795 0.929 . S
C2788 C2787 1.383 . S
C2788 C2789 1.377 . S
C2789 H2773 0.930 . S
C2789 C2788 1.377 . S
C2789 C2790 1.379 . S
C2790 H2774 0.931 . S
C2790 C2784 1.383 . S
C2790 C2789 1.379 . S
H2791 C2785 0.959 . S
H2792 C2785 0.961 . S
H2793 C2785 0.960 . S
H2794 C2786 0.930 . S
H2795 C2787 0.929 . S
H2796 C2804 0.929 . S
H2797 C2806 0.930 . S
H2798 C2808 0.930 . S
H2799 C2811 0.929 . S
H2800 C2814 0.930 . S
H2801 C2816 0.960 . S
H2802 C2816 0.960 . S
H2803 C2816 0.960 . S
C2804 H2796 0.929 . S
C2804 C2805 1.377 . S
C2804 C2806 1.384 . S
C2805 C2804 1.377 . S
C2805 C2811 1.390 . S
C2806 H2797 0.930 . S
C2806 C2804 1.384 . S
C2806 C2807 1.372 . S
C2807 C2806 1.372 . S
C2807 C2808 1.400 . S
C2807 C2812 1.490 . S
C2808 H2798 0.930 . S
C2808 C2807 1.400 . S
C2808 C2811 1.386 . S
H2809 C2825 0.930 . S
H2810 C2826 0.931 . S
C2811 H2799 0.929 . S
C2811 C2805 1.390 . S
C2811 C2808 1.386 . S
C2812 C2807 1.490 . S
C2812 C2814 1.395 . S
C2812 C2815 1.403 . S
H2813 C2819 0.930 . S
C2814 H2800 0.930 . S
C2814 C2812 1.395 . S
C2814 C2817 1.403 . S
C2815 C2812 1.403 . S
C2815 C2816 1.524 . S
C2815 C2819 1.400 . S
C2816 H2801 0.960 . S
C2816 H2802 0.960 . S
C2816 H2803 0.960 . S
C2816 C2815 1.524 . S
C2817 C2814 1.403 . S
C2817 C2818 1.392 . S
C2817 C2821 1.495 . S
C2818 C2817 1.392 . S
C2818 C2819 1.385 . S
C2818 C2820 1.478 . S
C2819 H2813 0.930 . S
C2819 C2815 1.400 . S
C2819 C2818 1.385 . S
C2820 C2818 1.478 . S
C2820 C2822 1.381 . S
C2820 C2826 1.383 . S
C2821 C2817 1.495 . S
C2821 H2827 0.959 . S
C2821 H2828 0.961 . S
C2821 H2829 0.960 . S
C2822 C2820 1.381 . S
C2822 C2823 1.394 . S
C2822 H2830 0.930 . S
C2823 C2822 1.394 . S
C2823 C2824 1.383 . S
C2823 H2831 0.929 . S
C2824 C2823 1.383 . S
C2824 C2825 1.377 . S
C2825 H2809 0.930 . S
C2825 C2824 1.377 . S
C2825 C2826 1.379 . S
C2826 H2810 0.931 . S
C2826 C2820 1.383 . S
C2826 C2825 1.379 . S
H2827 C2821 0.959 . S
H2828 C2821 0.961 . S
H2829 C2821 0.960 . S
H2830 C2822 0.930 . S
H2831 C2823 0.929 . S
H2832 C2840 0.929 . S
H2833 C2842 0.930 . S
H2834 C2844 0.982 . S
H2835 C2847 0.929 . S
H2836 C2850 0.930 . S
H2837 C2852 0.960 . S
H2838 C2852 0.938 1_556 S
H2839 C2852 0.960 . S
C2840 H2832 0.929 . S
C2840 C2841 1.377 . S
C2840 C2842 1.384 . S
C2841 C2840 1.377 . S
C2841 C2847 1.390 . S
C2842 H2833 0.930 . S
C2842 C2840 1.384 . S
C2842 C2843 1.372 . S
C2843 C2842 1.372 . S
C2843 C2844 1.400 . S
C2843 C2848 1.490 . S
C2844 H2834 0.982 . S
C2844 C2843 1.400 . S
C2844 C2847 1.386 . S
H2845 C2861 0.930 1_554 S
H2846 C2862 0.931 1_554 S
C2847 H2835 0.929 . S
C2847 C2841 1.390 . S
C2847 C2844 1.386 . S
C2848 C2843 1.490 . S
C2848 C2850 1.395 . S
C2848 C2851 1.403 . S
H2849 C2855 0.931 . S
C2850 H2836 0.930 . S
C2850 C2848 1.395 . S
C2850 C2853 1.403 . S
C2851 C2848 1.403 . S
C2851 C2852 1.524 1_556 S
C2851 C2855 1.400 . S
C2852 H2837 0.960 . S
C2852 H2838 0.938 1_554 S
C2852 H2839 0.960 . S
C2852 C2851 1.524 1_554 S
C2853 C2850 1.403 . S
C2853 C2854 1.392 . S
C2853 C2857 1.495 . S
C2854 C2853 1.392 . S
C2854 C2855 1.385 . S
C2854 C2856 1.478 . S
C2855 H2849 0.931 . S
C2855 C2851 1.400 . S
C2855 C2854 1.385 . S
C2856 C2854 1.478 . S
C2856 C2858 1.381 . S
C2856 C2862 1.383 . S
C2857 C2853 1.495 . S
C2857 H2863 0.959 . S
C2857 H2864 0.961 . S
C2857 H2865 0.960 . S
C2858 C2856 1.381 . S
C2858 C2859 1.394 . S
C2858 H2866 0.930 . S
C2859 C2858 1.394 . S
C2859 C2860 1.383 . S
C2859 H2867 0.929 . S
C2860 C2859 1.383 . S
C2860 C2861 1.377 . S
C2861 H2845 0.930 1_556 S
C2861 C2860 1.377 . S
C2861 C2862 1.379 . S
C2862 H2846 0.931 1_556 S
C2862 C2856 1.383 . S
C2862 C2861 1.379 . S
H2863 C2857 0.959 . S
H2864 C2857 0.961 . S
H2865 C2857 0.960 . S
H2866 C2858 0.930 . S
H2867 C2859 0.929 . S
H2868 C2876 0.929 . S
H2869 C2878 0.930 . S
H2870 C2880 0.930 . S
H2871 C2883 0.929 . S
H2872 C2886 0.930 . S
H2873 C2888 0.960 . S
H2874 C2888 0.960 . S
H2875 C2888 0.960 . S
C2876 H2868 0.929 . S
C2876 C2877 1.377 . S
C2876 C2878 1.384 . S
C2877 C2876 1.377 . S
C2877 C2883 1.390 . S
C2878 H2869 0.930 . S
C2878 C2876 1.384 . S
C2878 C2879 1.372 . S
C2879 C2878 1.372 . S
C2879 C2880 1.400 . S
C2879 C2884 1.490 . S
C2880 H2870 0.930 . S
C2880 C2879 1.400 . S
C2880 C2883 1.386 . S
H2881 C2897 0.930 . S
H2882 C2898 0.931 . S
C2883 H2871 0.929 . S
C2883 C2877 1.390 . S
C2883 C2880 1.386 . S
C2884 C2879 1.490 . S
C2884 C2886 1.395 . S
C2884 C2887 1.403 . S
H2885 C2891 0.930 . S
C2886 H2872 0.930 . S
C2886 C2884 1.395 . S
C2886 C2889 1.403 . S
C2887 C2884 1.403 . S
C2887 C2888 1.524 . S
C2887 C2891 1.400 . S
C2888 H2873 0.960 . S
C2888 H2874 0.960 . S
C2888 H2875 0.960 . S
C2888 C2887 1.524 . S
C2889 C2886 1.403 . S
C2889 C2890 1.392 . S
C2889 C2893 1.495 . S
C2890 C2889 1.392 . S
C2890 C2891 1.385 . S
C2890 C2892 1.478 . S
C2891 H2885 0.930 . S
C2891 C2887 1.400 . S
C2891 C2890 1.385 . S
C2892 C2890 1.478 . S
C2892 C2894 1.381 . S
C2892 C2898 1.383 . S
C2893 C2889 1.495 . S
C2893 H2899 0.959 . S
C2893 H2900 0.961 . S
C2893 H2901 0.960 . S
C2894 C2892 1.381 . S
C2894 C2895 1.394 . S
C2894 H2902 0.930 . S
C2895 C2894 1.394 . S
C2895 C2896 1.383 . S
C2895 H2903 0.929 . S
C2896 C2895 1.383 . S
C2896 C2897 1.377 . S
C2897 H2881 0.930 . S
C2897 C2896 1.377 . S
C2897 C2898 1.379 . S
C2898 H2882 0.931 . S
C2898 C2892 1.383 . S
C2898 C2897 1.379 . S
H2899 C2893 0.959 . S
H2900 C2893 0.961 . S
H2901 C2893 0.960 . S
H2902 C2894 0.930 . S
H2903 C2895 0.929 . S
H2904 C2912 0.929 . S
H2905 C2914 0.930 . S
H2906 C2916 0.930 . S
H2907 C2919 0.929 . S
H2908 C2922 0.930 . S
H2909 C2924 0.960 . S
H2910 C2924 0.960 . S
H2911 C2924 0.960 . S
C2912 H2904 0.929 . S
C2912 C2913 1.377 . S
C2912 C2914 1.384 . S
C2913 C2912 1.377 . S
C2913 C2919 1.390 . S
C2914 H2905 0.930 . S
C2914 C2912 1.384 . S
C2914 C2915 1.372 . S
C2915 C2914 1.372 . S
C2915 C2916 1.400 . S
C2915 C2920 1.490 . S
C2916 H2906 0.930 . S
C2916 C2915 1.400 . S
C2916 C2919 1.386 . S
H2917 C2933 0.930 . S
H2918 C2934 0.931 . S
C2919 H2907 0.929 . S
C2919 C2913 1.390 . S
C2919 C2916 1.386 . S
C2920 C2915 1.490 . S
C2920 C2922 1.395 . S
C2920 C2923 1.403 . S
H2921 C2927 0.930 . S
C2922 H2908 0.930 . S
C2922 C2920 1.395 . S
C2922 C2925 1.403 . S
C2923 C2920 1.403 . S
C2923 C2924 1.524 . S
C2923 C2927 1.400 . S
C2924 H2909 0.960 . S
C2924 H2910 0.960 . S
C2924 H2911 0.960 . S
C2924 C2923 1.524 . S
C2925 C2922 1.403 . S
C2925 C2926 1.392 . S
C2925 C2929 1.495 . S
C2926 C2925 1.392 . S
C2926 C2927 1.385 . S
C2926 C2928 1.478 . S
C2927 H2921 0.930 . S
C2927 C2923 1.400 . S
C2927 C2926 1.385 . S
C2928 C2926 1.478 . S
C2928 C2930 1.381 . S
C2928 C2934 1.383 . S
C2929 C2925 1.495 . S
C2929 H2935 0.959 . S
C2929 H2936 0.961 . S
C2929 H2937 0.960 1_554 S
C2930 C2928 1.381 . S
C2930 C2931 1.390 1_554 S
C2930 H2938 0.930 1_554 S
C2931 C2930 1.390 1_556 S
C2931 C2932 1.351 1_556 S
C2931 H2939 0.967 . S
C2932 C2931 1.351 1_554 S
C2932 C2933 1.377 . S
C2933 H2917 0.930 . S
C2933 C2932 1.377 . S
C2933 C2934 1.379 . S
C2934 H2918 0.931 . S
C2934 C2928 1.383 . S
C2934 C2933 1.379 . S
H2935 C2929 0.959 . S
H2936 C2929 0.961 . S
H2937 C2929 0.960 1_556 S
H2938 C2930 0.930 1_556 S
H2939 C2931 0.967 . S
H2940 C2948 0.929 . S
H2941 C2950 0.930 . S
H2942 C2952 0.960 . S
H2943 C2955 0.929 . S
H2944 C2958 0.930 1_545 S
H2945 C2960 0.960 . S
H2946 C2960 0.960 . S
H2947 C2960 0.960 . S
C2948 H2940 0.929 . S
C2948 C2949 1.377 . S
C2948 C2950 1.384 . S
C2949 C2948 1.377 . S
C2949 C2955 1.390 . S
C2950 H2941 0.930 . S
C2950 C2948 1.384 . S
C2950 C2951 1.372 1_545 S
C2951 C2950 1.372 1_565 S
C2951 C2952 1.408 . S
C2951 C2956 1.490 . S
C2952 H2942 0.960 . S
C2952 C2951 1.408 . S
C2952 C2955 1.351 1_565 S
H2953 C2969 0.930 . S
H2954 C2970 0.931 . S
C2955 H2943 0.929 . S
C2955 C2949 1.390 . S
C2955 C2952 1.351 1_545 S
C2956 C2951 1.490 . S
C2956 C2958 1.395 . S
C2956 C2959 1.403 . S
H2957 C2963 0.930 . S
C2958 H2944 0.930 1_565 S
C2958 C2956 1.395 . S
C2958 C2961 1.403 . S
C2959 C2956 1.403 . S
C2959 C2960 1.524 . S
C2959 C2963 1.400 . S
C2960 H2945 0.960 . S
C2960 H2946 0.960 . S
C2960 H2947 0.960 . S
C2960 C2959 1.524 . S
C2961 C2958 1.403 . S
C2961 C2962 1.392 . S
C2961 C2965 1.495 . S
C2962 C2961 1.392 . S
C2962 C2963 1.385 . S
C2962 C2964 1.478 . S
C2963 H2957 0.930 . S
C2963 C2959 1.400 . S
C2963 C2962 1.385 . S
C2964 C2962 1.478 . S
C2964 C2966 1.381 . S
C2964 C2970 1.383 . S
C2965 C2961 1.495 . S
C2965 H2971 0.959 1_565 S
C2965 H2972 0.961 . S
C2965 H2973 0.960 . S
C2966 C2964 1.381 . S
C2966 C2967 1.394 . S
C2966 H2974 0.930 1_554 S
C2967 C2966 1.394 . S
C2967 C2968 1.383 . S
C2967 H2975 0.929 1_554 S
C2968 C2967 1.383 . S
C2968 C2969 1.377 . S
C2969 H2953 0.930 . S
C2969 C2968 1.377 . S
C2969 C2970 1.379 . S
C2970 H2954 0.931 . S
C2970 C2964 1.383 . S
C2970 C2969 1.379 . S
H2971 C2965 0.959 1_545 S
H2972 C2965 0.961 . S
H2973 C2965 0.960 . S
H2974 C2966 0.930 1_556 S
H2975 C2967 0.929 1_556 S
C1276 C241 1.807 . S
C1257 C66 1.804 . S
C1312 C300 1.004 . S
C1293 C76 1.009 . S
C1329 C93 1.936 . S
C1348 C417 1.920 . S
C1384 C485 1.467 . S
C1365 C54 1.493 . S
C1420 C564 1.491 . S
C1401 C126 1.507 . S
C1456 C689 1.918 . S
C1437 C150 1.925 . S
C1473 C136 1.027 . S
C1492 C749 1.022 . S
C1528 C857 1.840 . S
C1509 C117 1.853 . S
C1545 C141 1.237 . S
C1564 C953 1.240 . S
C1600 C1013 1.276 . S
C1581 C112 1.275 . S
C1617 C124 1.579 . S
C1636 C916 1.580 . S
C1672 C1033 1.200 . S
C1653 C148 1.186 . S
C1689 C88 1.203 . S
C1708 C1101 1.208 . S
C1725 C52 1.661 . S
C1744 C1092 1.659 . S
C1761 C64 1.170 . S
C1780 C1121 1.168 . S
C1797 C78 1.118 . S
C1816 C1129 1.122 . S
C1833 C45 1.803 . S
C1852 C513 1.807 . S
C1869 C177 2.008 . S
C1888 C476 2.001 . S
C1924 C212 1.364 . S
C1905 C189 1.354 . S
C1960 C309 1.641 . S
C1941 C102 1.643 . S
C1977 C57 1.829 1_545 S
C1996 C573 1.832 . S
C2032 C865 1.438 . S
C2013 C138 1.434 . S
C2068 C593 1.901 . S
C2049 C114 1.915 1_545 S
C2104 C777 1.782 . S
C2085 C153 1.783 . S
C2140 C769 1.805 . S
C2121 C174 1.804 . S
C2157 C184 1.007 . S
C2176 C837 1.014 . S
C2193 C105 1.937 . S
C2212 C601 1.924 . S
C2248 C652 1.466 . S
C2229 C162 1.493 . S
C2265 C42 1.506 . S
C2284 C397 1.502 . S
C2320 C505 1.916 . S
C2301 C6 1.925 . S
C2356 C221 1.026 . S
C2337 C16 1.027 . S
C2392 C337 1.841 . S
C2373 C33 1.842 1_455 S
C2409 C21 1.233 . S
C2428 C1041 1.228 . S
C2445 C28 1.274 1_556 S
C2464 C925 1.277 . S
C2481 C40 1.577 . S
C2500 C1004 1.579 . S
C2517 C4 1.191 1_556 S
C2536 C945 1.186 . S
C2572 C1189 1.208 . S
C2553 C100 1.201 . S
C2608 C1180 1.660 . S
C2589 C160 1.659 1_554 S
C2644 C1209 1.172 . S
C2625 C172 1.167 . S
C2661 C186 1.123 . S
C2680 C1217 1.126 . S
C2697 C129 1.805 . S
C2716 C681 1.809 . S
C2752 C661 2.002 . S
C2733 C69 2.008 . S
C2788 C740 1.362 . S
C2769 C81 1.353 . S
C2824 C828 1.642 . S
C2805 C90 1.643 . S
C2841 C165 1.828 . S
C2860 C388 1.837 . S
C2896 C329 1.439 . S
C2877 C18 1.433 . S
C2913 C30 1.916 . S
C2932 C425 1.901 . S
C2968 C249 1.785 . S
C2949 C9 1.784 . S
