# Generated by pormake.
# Topology pyr, (3,6)-cn, num edge types: 1
# Building blocks:
#     Node 0, Type 0, BuildingBlock: KAKCAD_clean_linker_0, # of connection points: 3
#     Node 1, Type 0, BuildingBlock: KAKCAD_clean_linker_0, # of connection points: 3
#     Node 2, Type 0, BuildingBlock: KAKCAD_clean_linker_0, # of connection points: 3
#     Node 3, Type 0, BuildingBlock: KAKCAD_clean_linker_0, # of connection points: 3
#     Node 4, Type 0, BuildingBlock: KAKCAD_clean_linker_0, # of connection points: 3
#     Node 5, Type 0, BuildingBlock: KAKCAD_clean_linker_0, # of connection points: 3
#     Node 6, Type 0, BuildingBlock: KAKCAD_clean_linker_0, # of connection points: 3
#     Node 7, Type 0, BuildingBlock: KAKCAD_clean_linker_0, # of connection points: 3
#     Node 8, Type 1, BuildingBlock: VOLQOD_clean_sbu_1, # of connection points: 6
#     Node 9, Type 1, BuildingBlock: VOLQOD_clean_sbu_1, # of connection points: 6
#     Node 10, Type 1, BuildingBlock: VOLQOD_clean_sbu_1, # of connection points: 6
#     Node 11, Type 1, BuildingBlock: VOLQOD_clean_sbu_1, # of connection points: 6
#     Edge 12, Type (0, 1), BuildingBlock: XIVTED_clean_linker_0, # of connection points: 2
#     Edge 13, Type (0, 1), BuildingBlock: XIVTED_clean_linker_0, # of connection points: 2
#     Edge 14, Type (0, 1), BuildingBlock: XIVTED_clean_linker_0, # of connection points: 2
#     Edge 15, Type (0, 1), BuildingBlock: XIVTED_clean_linker_0, # of connection points: 2
#     Edge 16, Type (0, 1), BuildingBlock: XIVTED_clean_linker_0, # of connection points: 2
#     Edge 17, Type (0, 1), BuildingBlock: XIVTED_clean_linker_0, # of connection points: 2
#     Edge 18, Type (0, 1), BuildingBlock: XIVTED_clean_linker_0, # of connection points: 2
#     Edge 19, Type (0, 1), BuildingBlock: XIVTED_clean_linker_0, # of connection points: 2
#     Edge 20, Type (0, 1), BuildingBlock: XIVTED_clean_linker_0, # of connection points: 2
#     Edge 21, Type (0, 1), BuildingBlock: XIVTED_clean_linker_0, # of connection points: 2
#     Edge 22, Type (0, 1), BuildingBlock: XIVTED_clean_linker_0, # of connection points: 2
#     Edge 23, Type (0, 1), BuildingBlock: XIVTED_clean_linker_0, # of connection points: 2
#     Edge 24, Type (0, 1), BuildingBlock: XIVTED_clean_linker_0, # of connection points: 2
#     Edge 25, Type (0, 1), BuildingBlock: XIVTED_clean_linker_0, # of connection points: 2
#     Edge 26, Type (0, 1), BuildingBlock: XIVTED_clean_linker_0, # of connection points: 2
#     Edge 27, Type (0, 1), BuildingBlock: XIVTED_clean_linker_0, # of connection points: 2
#     Edge 28, Type (0, 1), BuildingBlock: XIVTED_clean_linker_0, # of connection points: 2
#     Edge 29, Type (0, 1), BuildingBlock: XIVTED_clean_linker_0, # of connection points: 2
#     Edge 30, Type (0, 1), BuildingBlock: XIVTED_clean_linker_0, # of connection points: 2
#     Edge 31, Type (0, 1), BuildingBlock: XIVTED_clean_linker_0, # of connection points: 2
#     Edge 32, Type (0, 1), BuildingBlock: XIVTED_clean_linker_0, # of connection points: 2
#     Edge 33, Type (0, 1), BuildingBlock: XIVTED_clean_linker_0, # of connection points: 2
#     Edge 34, Type (0, 1), BuildingBlock: XIVTED_clean_linker_0, # of connection points: 2
#     Edge 35, Type (0, 1), BuildingBlock: XIVTED_clean_linker_0, # of connection points: 2
# Relax obj value: 0.035
# Max RMSD: 0.119
# Mean RMSD: 0.043
data_MOF--net-pry--node1-VOLQOD_clean_sbu_1--node2-KAKCAD_clean_linker_0--edge1-XIVTED_clean_linker_0
_symmetry_space_group_name_H-M    P1
_symmetry_Int_Tables_number       1
_symmetry_cell_setting            triclinic
loop_
_symmetry_equiv_pos_as_xyz
'x, y, z'
_cell_length_a     45.722544
_cell_length_b     45.690931
_cell_length_c     45.866443
_cell_angle_alpha  90.397189
_cell_angle_beta   89.887329
_cell_angle_gamma 90.232
loop_
_atom_site_label
_atom_site_type_symbol
_atom_site_fract_x
_atom_site_fract_y
_atom_site_fract_z
_atom_type_partial_charge
C0 C 0.06066 0.09738 0.21395 0.0
C1 C 0.08016 0.09127 0.23676 0.0
C2 C 0.07122 0.10538 0.18647 0.0
C3 C 0.10148 0.10728 0.18126 0.0
C4 C 0.1209 0.10087 0.20402 0.0
C5 C 0.11038 0.09289 0.23138 0.0
C6 C 0.11305 0.11666 0.15252 0.0
C7 C 0.10063 0.14045 0.13788 0.0
C8 C 0.11323 0.15112 0.11204 0.0
C9 C 0.13839 0.13748 0.10076 0.0
C10 C 0.15115 0.11375 0.11521 0.0
C11 C 0.13799 0.10318 0.14074 0.0
C12 C 0.17934 0.1013 0.10496 0.0
C13 C 0.18477 0.09652 0.07513 0.0
C14 C 0.2014 0.09481 0.12518 0.0
C15 C 0.22824 0.08376 0.11585 0.0
C16 C 0.23375 0.07897 0.08606 0.0
C17 C 0.1014 0.17784 0.09815 0.0
C18 C 0.07107 0.18221 0.09584 0.0
C19 C 0.1205 0.19976 0.0881 0.0
C20 C 0.10956 0.22551 0.07624 0.0
C21 C 0.07926 0.23005 0.07419 0.0
C22 C 0.0601 0.20807 0.08401 0.0
C23 C 0.21173 0.08547 0.06577 0.0
H24 H 0.03724 0.09651 0.21749 0.0
H25 H 0.05572 0.11003 0.1693 0.0
H26 H 0.14434 0.10253 0.20089 0.0
H27 H 0.12601 0.08793 0.24835 0.0
H28 H 0.08206 0.15166 0.14744 0.0
H29 H 0.14743 0.08453 0.1517 0.0
H30 H 0.14857 0.14591 0.08117 0.0
H31 H 0.16812 0.10109 0.05905 0.0
H32 H 0.19819 0.09887 0.14825 0.0
H33 H 0.24494 0.07956 0.132 0.0
H34 H 0.0558 0.16561 0.10313 0.0
H35 H 0.14397 0.1974 0.09013 0.0
H36 H 0.21524 0.08176 0.04268 0.0
H37 H 0.03664 0.21081 0.08245 0.0
H38 H 0.12491 0.24225 0.0694 0.0
C39 C 0.40065 0.94295 0.72963 0.0
C40 C 0.42978 0.93732 0.73763 0.0
C41 C 0.38977 0.93345 0.70278 0.0
C42 C 0.40788 0.91875 0.6827 0.0
C43 C 0.43747 0.91463 0.68999 0.0
C44 C 0.44818 0.92347 0.7172 0.0
C45 C 0.39537 0.90604 0.65535 0.0
C46 C 0.37184 0.91962 0.64117 0.0
C47 C 0.35737 0.90586 0.61771 0.0
C48 C 0.36805 0.87891 0.60725 0.0
C49 C 0.3923 0.86558 0.62029 0.0
C50 C 0.40554 0.8791 0.64449 0.0
C51 C 0.40336 0.83707 0.60924 0.0
C52 C 0.41147 0.81495 0.62875 0.0
C53 C 0.40636 0.83194 0.57913 0.0
C54 C 0.4175 0.80538 0.56879 0.0
C55 C 0.4259 0.7834 0.58834 0.0
C56 C 0.33004 0.91863 0.60551 0.0
C57 C 0.31008 0.93323 0.62393 0.0
C58 C 0.32292 0.91522 0.57581 0.0
C59 C 0.29622 0.92536 0.56507 0.0
C60 C 0.27638 0.93965 0.58364 0.0
C61 C 0.28372 0.94385 0.61304 0.0
C62 C 0.42266 0.78845 0.61842 0.0
H63 H 0.38592 0.95432 0.74429 0.0
H64 H 0.36679 0.93684 0.69833 0.0
H65 H 0.45237 0.90406 0.67492 0.0
H66 H 0.47069 0.91853 0.72242 0.0
H67 H 0.36456 0.94091 0.64861 0.0
H68 H 0.42353 0.86822 0.65515 0.0
H69 H 0.3568 0.86758 0.58972 0.0
H70 H 0.40889 0.81799 0.65205 0.0
H71 H 0.4006 0.84868 0.56358 0.0
H72 H 0.42 0.80224 0.54549 0.0
H73 H 0.3143 0.93571 0.64703 0.0
H74 H 0.33787 0.9046 0.56082 0.0
H75 H 0.42838 0.77174 0.63401 0.0
H76 H 0.26857 0.95446 0.62788 0.0
H77 H 0.29107 0.92207 0.54223 0.0
C78 C 0.70869 0.45331 0.93001 0.0
C79 C 0.73382 0.43599 0.92691 0.0
C80 C 0.68134 0.4423 0.92167 0.0
C81 C 0.67871 0.41362 0.9108 0.0
C82 C 0.7038 0.39621 0.90805 0.0
C83 C 0.73118 0.40741 0.91577 0.0
C84 C 0.64992 0.40179 0.90208 0.0
C85 C 0.63337 0.4159 0.88065 0.0
C86 C 0.60686 0.40367 0.87079 0.0
C87 C 0.59639 0.37787 0.8838 0.0
C88 C 0.61291 0.36352 0.90504 0.0
C89 C 0.63977 0.37541 0.9139 0.0
C90 C 0.60309 0.33498 0.91637 0.0
C91 C 0.57592 0.33219 0.9304 0.0
C92 C 0.62064 0.31014 0.91234 0.0
C93 C 0.61092 0.28278 0.92172 0.0
C94 C 0.5838 0.27996 0.93582 0.0
C95 C 0.5918 0.41606 0.84498 0.0
C96 C 0.59005 0.44648 0.84084 0.0
C97 C 0.58074 0.39726 0.82322 0.0
C98 C 0.56879 0.40851 0.79772 0.0
C99 C 0.56766 0.43887 0.79323 0.0
C100 C 0.57815 0.45777 0.81519 0.0
C101 C 0.56649 0.30488 0.94041 0.0
H102 H 0.7103 0.47545 0.93846 0.0
H103 H 0.66221 0.45604 0.92398 0.0
H104 H 0.70225 0.37407 0.89956 0.0
H105 H 0.75028 0.39364 0.91333 0.0
H106 H 0.64209 0.43545 0.87052 0.0
H107 H 0.65276 0.36415 0.93007 0.0
H108 H 0.57589 0.36825 0.87663 0.0
H109 H 0.5621 0.35114 0.93367 0.0
H110 H 0.64159 0.31184 0.90139 0.0
H111 H 0.62462 0.2638 0.91807 0.0
H112 H 0.5981 0.46156 0.85731 0.0
H113 H 0.58232 0.37372 0.82532 0.0
H114 H 0.54545 0.30309 0.95117 0.0
H115 H 0.57728 0.48128 0.8125 0.0
H116 H 0.56143 0.39332 0.78102 0.0
C117 C 0.91019 0.57156 0.29158 0.0
C118 C 0.94036 0.57273 0.2858 0.0
C119 C 0.89908 0.58159 0.31817 0.0
C120 C 0.91787 0.593 0.33968 0.0
C121 C 0.94811 0.59374 0.33414 0.0
C122 C 0.95924 0.58371 0.30748 0.0
C123 C 0.90562 0.60531 0.36715 0.0
C124 C 0.88201 0.59142 0.38112 0.0
C125 C 0.86825 0.60442 0.40533 0.0
C126 C 0.87882 0.63131 0.41599 0.0
C127 C 0.90252 0.64542 0.40247 0.0
C128 C 0.91597 0.63217 0.37823 0.0
C129 C 0.91167 0.67506 0.41222 0.0
C130 C 0.89054 0.69668 0.41764 0.0
C131 C 0.94142 0.68223 0.41538 0.0
C132 C 0.94985 0.71051 0.42378 0.0
C133 C 0.92868 0.7322 0.42882 0.0
C134 C 0.84146 0.59116 0.41806 0.0
C135 C 0.81953 0.57983 0.39971 0.0
C136 C 0.83683 0.59114 0.44838 0.0
C137 C 0.81058 0.58057 0.46003 0.0
C138 C 0.78845 0.56975 0.4416 0.0
C139 C 0.79336 0.56925 0.41134 0.0
C140 C 0.89896 0.72494 0.42579 0.0
H141 H 0.89497 0.56375 0.27518 0.0
H142 H 0.87562 0.58124 0.32148 0.0
H143 H 0.96317 0.60212 0.3504 0.0
H144 H 0.98264 0.58456 0.30383 0.0
H145 H 0.87412 0.57054 0.37292 0.0
H146 H 0.93344 0.6436 0.367 0.0
H147 H 0.868 0.6418 0.43431 0.0
H148 H 0.86747 0.69189 0.41503 0.0
H149 H 0.95814 0.66594 0.41143 0.0
H150 H 0.97293 0.71557 0.42577 0.0
H151 H 0.82214 0.58004 0.37624 0.0
H152 H 0.85346 0.59943 0.4631 0.0
H153 H 0.88215 0.74112 0.42982 0.0
H154 H 0.77658 0.56156 0.39649 0.0
H155 H 0.8076 0.5809 0.48346 0.0
C156 C 0.94429 0.92146 0.80821 0.0
C157 C 0.93935 0.95044 0.79951 0.0
C158 C 0.93933 0.91297 0.83688 0.0
C159 C 0.92997 0.93334 0.85803 0.0
C160 C 0.92581 0.96258 0.84961 0.0
C161 C 0.93035 0.97102 0.82063 0.0
C162 C 0.92305 0.92332 0.88812 0.0
C163 C 0.93885 0.90013 0.90037 0.0
C164 C 0.92918 0.88639 0.92587 0.0
C165 C 0.90455 0.89727 0.94049 0.0
C166 C 0.88904 0.92109 0.92919 0.0
C167 C 0.89846 0.93414 0.90314 0.0
C168 C 0.86068 0.92957 0.94218 0.0
C169 C 0.83887 0.90831 0.94615 0.0
C170 C 0.8546 0.95888 0.9491 0.0
C171 C 0.82704 0.96679 0.95981 0.0
C172 C 0.80484 0.94559 0.96322 0.0
C173 C 0.94199 0.85803 0.93438 0.0
C174 C 0.94475 0.83578 0.91334 0.0
C175 C 0.94992 0.85231 0.96333 0.0
C176 C 0.96053 0.82471 0.97103 0.0
C177 C 0.96291 0.80222 0.94998 0.0
C178 C 0.95487 0.80821 0.92105 0.0
C179 C 0.81123 0.91623 0.95629 0.0
H180 H 0.95187 0.90509 0.79281 0.0
H181 H 0.94215 0.8901 0.84214 0.0
H182 H 0.91883 0.97893 0.86532 0.0
H183 H 0.92615 0.99351 0.81472 0.0
H184 H 0.95805 0.89167 0.88934 0.0
H185 H 0.88526 0.95118 0.89353 0.0
H186 H 0.89645 0.8862 0.95974 0.0
H187 H 0.84288 0.88563 0.94043 0.0
H188 H 0.87118 0.97562 0.9462 0.0
H189 H 0.82319 0.98952 0.96532 0.0
H190 H 0.93815 0.83941 0.89098 0.0
H191 H 0.94793 0.86918 0.97992 0.0
H192 H 0.79466 0.89932 0.95781 0.0
H193 H 0.9555 0.79137 0.90435 0.0
H194 H 0.96681 0.82104 0.99345 0.0
C195 C 0.57233 0.03773 0.32845 0.0
C196 C 0.56822 0.05821 0.3061 0.0
C197 C 0.57698 0.04719 0.35719 0.0
C198 C 0.57716 0.07722 0.36405 0.0
C199 C 0.57232 0.09754 0.34173 0.0
C200 C 0.56792 0.08815 0.31313 0.0
C201 C 0.58419 0.08791 0.39384 0.0
C202 C 0.60877 0.0772 0.40856 0.0
C203 C 0.61871 0.09079 0.43433 0.0
C204 C 0.60335 0.11501 0.44554 0.0
C205 C 0.57884 0.12611 0.43094 0.0
C206 C 0.56889 0.11175 0.40567 0.0
C207 C 0.5665 0.15502 0.43943 0.0
C208 C 0.56375 0.16342 0.46887 0.0
C209 C 0.5598 0.1755 0.41772 0.0
C210 C 0.55161 0.20391 0.42517 0.0
C211 C 0.55019 0.21274 0.45452 0.0
C212 C 0.64716 0.08206 0.44723 0.0
C213 C 0.65531 0.05245 0.44854 0.0
C214 C 0.66729 0.10356 0.45643 0.0
C215 C 0.69508 0.09573 0.46605 0.0
C216 C 0.70355 0.06623 0.46649 0.0
C217 C 0.68325 0.04462 0.458 0.0
C218 C 0.55564 0.19202 0.47635 0.0
H219 H 0.57274 0.01451 0.32356 0.0
H220 H 0.58065 0.03108 0.374 0.0
H221 H 0.57279 0.12085 0.3462 0.0
H222 H 0.56446 0.1044 0.29641 0.0
H223 H 0.62145 0.05974 0.39871 0.0
H224 H 0.54989 0.12002 0.39432 0.0
H225 H 0.61149 0.12623 0.46478 0.0
H226 H 0.56851 0.14809 0.48611 0.0
H227 H 0.56209 0.17007 0.39481 0.0
H228 H 0.54704 0.2192 0.40784 0.0
H229 H 0.64022 0.03535 0.4419 0.0
H230 H 0.66207 0.12661 0.4551 0.0
H231 H 0.55477 0.1982 0.49918 0.0
H232 H 0.68908 0.02168 0.45842 0.0
H233 H 0.71038 0.11292 0.47197 0.0
C234 C 0.30874 0.55935 0.09153 0.0
C235 C 0.30181 0.56473 0.06231 0.0
C236 C 0.33606 0.56725 0.10259 0.0
C237 C 0.35736 0.58017 0.0845 0.0
C238 C 0.35057 0.58469 0.05492 0.0
C239 C 0.32294 0.57735 0.04403 0.0
C240 C 0.38579 0.59032 0.09696 0.0
C241 C 0.3987 0.57527 0.12019 0.0
C242 C 0.42301 0.5869 0.13497 0.0
C243 C 0.43618 0.61262 0.12452 0.0
C244 C 0.42415 0.62775 0.10079 0.0
C245 C 0.39871 0.61655 0.08748 0.0
C246 C 0.43646 0.65646 0.09134 0.0
C247 C 0.44813 0.67639 0.11186 0.0
C248 C 0.43523 0.66486 0.06186 0.0
C249 C 0.44415 0.69282 0.0534 0.0
C250 C 0.45523 0.71265 0.07407 0.0
C251 C 0.43198 0.57445 0.16346 0.0
C252 C 0.41041 0.56566 0.18351 0.0
C253 C 0.46152 0.57355 0.17196 0.0
C254 C 0.46914 0.56515 0.20026 0.0
C255 C 0.44734 0.55761 0.22057 0.0
C256 C 0.418 0.55724 0.21161 0.0
C257 C 0.4577 0.70409 0.10323 0.0
H258 H 0.2926 0.54999 0.10611 0.0
H259 H 0.34 0.56408 0.12561 0.0
H260 H 0.36651 0.59412 0.0402 0.0
H261 H 0.31804 0.58153 0.02134 0.0
H262 H 0.38923 0.55483 0.12752 0.0
H263 H 0.388 0.62915 0.07072 0.0
H264 H 0.45511 0.6215 0.13568 0.0
H265 H 0.44893 0.67114 0.13482 0.0
H266 H 0.42699 0.64998 0.04531 0.0
H267 H 0.44223 0.69906 0.03074 0.0
H268 H 0.38741 0.56645 0.17798 0.0
H269 H 0.47869 0.57992 0.15696 0.0
H270 H 0.46594 0.71928 0.11953 0.0
H271 H 0.40074 0.55107 0.22658 0.0
H272 H 0.49195 0.56568 0.20656 0.0
C273 C 0.08286 0.31085 0.56041 0.0
C274 C 0.05288 0.3044 0.5625 0.0
C275 C 0.09346 0.33844 0.56805 0.0
C276 C 0.07438 0.36044 0.5779 0.0
C277 C 0.04432 0.3541 0.58003 0.0
C278 C 0.03366 0.32629 0.57242 0.0
C279 C 0.08648 0.38922 0.58726 0.0
C280 C 0.10988 0.40171 0.5718 0.0
C281 C 0.12554 0.42562 0.58322 0.0
C282 C 0.11609 0.4385 0.60945 0.0
C283 C 0.09223 0.42682 0.62494 0.0
C284 C 0.07742 0.40225 0.61357 0.0
C285 C 0.08509 0.43795 0.6546 0.0
C286 C 0.10765 0.44442 0.67443 0.0
C287 C 0.0559 0.44074 0.66385 0.0
C288 C 0.04945 0.4493 0.69249 0.0
C289 C 0.07208 0.45511 0.71246 0.0
C290 C 0.15412 0.43417 0.57024 0.0
C291 C 0.17359 0.41234 0.56073 0.0
C292 C 0.16335 0.46357 0.56974 0.0
C293 C 0.19187 0.47078 0.56115 0.0
C294 C 0.21166 0.44871 0.55298 0.0
C295 C 0.20193 0.41954 0.5521 0.0
C296 C 0.10122 0.45297 0.70296 0.0
H297 H 0.09835 0.29429 0.55357 0.0
H298 H 0.11684 0.34224 0.56697 0.0
H299 H 0.02909 0.37062 0.58752 0.0
H300 H 0.01042 0.32197 0.57414 0.0
H301 H 0.11682 0.39189 0.55137 0.0
H302 H 0.06023 0.39201 0.62627 0.0
H303 H 0.1283 0.45669 0.61868 0.0
H304 H 0.13039 0.44206 0.6682 0.0
H305 H 0.03805 0.43604 0.64902 0.0
H306 H 0.02676 0.45055 0.69921 0.0
H307 H 0.16748 0.38943 0.5612 0.0
H308 H 0.14879 0.48092 0.57668 0.0
H309 H 0.11916 0.45767 0.71768 0.0
H310 H 0.2165 0.40208 0.54545 0.0
H311 H 0.19876 0.49347 0.5621 0.0
O312 O 0.98466 0.07994 0.54007 0.0
Zn313 Zn 0.9703 0.03816 0.53813 0.0
O314 O 0.99505 0.01383 0.51295 0.0
Zn315 Zn 0.97321 0.00201 0.47814 0.0
Zn316 Zn 0.0294 0.03641 0.5016 0.0
Zn317 Zn 0.00748 0.97893 0.53389 0.0
O318 O 0.97186 0.95819 0.47412 0.0
O319 O 0.99385 0.94193 0.5139 0.0
O320 O 0.92883 0.03871 0.5233 0.0
O321 O 0.93138 0.0152 0.48084 0.0
O322 O 0.99146 0.01824 0.44147 0.0
O323 O 0.03204 0.03924 0.45812 0.0
O324 O 0.06674 0.01851 0.5164 0.0
O325 O 0.96939 0.02243 0.57896 0.0
O326 O 0.05143 0.97699 0.53632 0.0
O327 O 0.99183 0.97949 0.575 0.0
C328 C 0.00772 0.09221 0.53037 0.0
C329 C 0.9804 0.93718 0.49004 0.0
C330 C 0.01534 0.032 0.43709 0.0
C331 C 0.91676 0.029 0.50015 0.0
C332 C 0.07199 0.9944 0.52911 0.0
C333 C 0.97802 0.99851 0.59005 0.0
O334 O 0.02675 0.07782 0.51602 0.0
O335 O 0.50745 0.06469 0.9871 0.0
Zn336 Zn 0.49038 0.02441 0.99261 0.0
O337 O 0.51521 0.00049 0.01735 0.0
Zn338 Zn 0.53165 0.96808 0.99451 0.0
Zn339 Zn 0.54685 0.02488 0.03286 0.0
Zn340 Zn 0.49168 0.98488 0.04935 0.0
O341 O 0.51932 0.92911 0.01101 0.0
O342 O 0.48872 0.94102 0.04685 0.0
O343 O 0.48582 0.00591 0.95323 0.0
O344 O 0.51752 0.96914 0.95268 0.0
O345 O 0.57558 0.96937 0.99475 0.0
O346 O 0.58621 0.00977 0.0199 0.0
O347 O 0.54645 0.0248 0.07669 0.0
O348 O 0.45007 0.02916 0.00965 0.0
O349 O 0.5094 0.99549 0.08825 0.0
O350 O 0.4508 0.00098 0.04883 0.0
C351 C 0.52795 0.07864 -0.00012 0.0
C352 C 0.50156 0.92189 0.03116 0.0
C353 C 0.59415 0.98733 0.00535 0.0
C354 C 0.49844 0.98485 0.94006 0.0
C355 C 0.53079 0.01184 0.09567 0.0
C356 C 0.43744 0.01835 0.03189 0.0
O357 O 0.54393 0.06649 0.01898 0.0
O358 O 0.53027 0.51516 0.57577 0.0
Zn359 Zn 0.52866 0.5304 0.53451 0.0
O360 O 0.50401 0.50503 0.50985 0.0
Zn361 Zn 0.52721 0.48864 0.47794 0.0
Zn362 Zn 0.48778 0.47312 0.53308 0.0
Zn363 Zn 0.47204 0.52774 0.49345 0.0
O364 O 0.51226 0.50102 0.43854 0.0
O365 O 0.47407 0.52868 0.44979 0.0
O366 O 0.57015 0.53228 0.519 0.0
O367 O 0.56883 0.50204 0.4809 0.0
O368 O 0.52724 0.44474 0.47901 0.0
O369 O 0.50035 0.43368 0.51774 0.0
O370 O 0.44385 0.47371 0.53285 0.0
O371 O 0.51239 0.57151 0.53661 0.0
O372 O 0.43276 0.51129 0.50464 0.0
O373 O 0.47336 0.56913 0.50794 0.0
C374 C 0.51785 0.49373 0.5885 0.0
C375 C 0.49097 0.51711 0.43092 0.0
C376 C 0.51589 0.42591 0.49599 0.0
C377 C 0.58279 0.51935 0.49775 0.0
C378 C 0.42501 0.48991 0.52057 0.0
C379 C 0.49026 0.58349 0.52484 0.0
O380 O 0.50095 0.4763 0.57471 0.0
O381 O 0.98447 0.50322 0.06648 0.0
Zn382 Zn 0.9869 0.4878 0.02526 0.0
O383 O 0.01339 0.5118 0.00156 0.0
Zn384 Zn 0.99231 0.52825 0.96846 0.0
Zn385 Zn 0.0294 0.5436 0.02553 0.0
Zn386 Zn 0.04529 0.48761 0.98679 0.0
O387 O 0.00975 0.51566 0.93011 0.0
O388 O 0.0461 0.48652 0.94297 0.0
O389 O 0.94622 0.48733 0.00821 0.0
O390 O 0.95051 0.51443 0.96835 0.0
O391 O 0.99271 0.57233 0.96988 0.0
O392 O 0.01675 0.58283 0.01072 0.0
O393 O 0.07351 0.54307 0.02543 0.0
O394 O 0.00099 0.44593 0.02747 0.0
O395 O 0.08428 0.50279 0.00029 0.0
O396 O 0.04138 0.44632 0.00056 0.0
C397 C 0.99738 0.52399 0.08002 0.0
C398 C 0.03085 0.49882 0.9234 0.0
C399 C 0.00281 0.59086 0.98818 0.0
C400 C 0.93526 0.49859 0.98538 0.0
C401 C 0.09216 0.52523 0.01492 0.0
C402 C 0.02298 0.43282 0.01645 0.0
O403 O 0.01549 0.54072 0.06707 0.0
H404 H 0.10134 0.11019 0.28929 0.0
H405 H 0.98769 0.01834 0.38547 0.0
H406 H 0.03419 0.05522 0.25151 0.0
H407 H 0.06223 0.06512 0.42035 0.0
H408 H 0.00227 0.0334 0.33637 0.0
H409 H 0.08502 0.09588 0.3377 0.0
C410 C 0.08322 0.09497 0.29118 0.0
C411 C 0.06931 0.08365 0.26627 0.0
C412 C 0.01539 0.04031 0.35481 0.0
C413 C 0.05022 0.06738 0.32183 0.0
C414 C 0.0071 0.03173 0.38284 0.0
C415 C 0.02377 0.04042 0.40712 0.0
C416 C 0.04044 0.05781 0.35109 0.0
C417 C 0.04871 0.0578 0.40236 0.0
C418 C 0.07381 0.0869 0.31887 0.0
C419 C 0.04545 0.06459 0.27011 0.0
N420 N 0.05622 0.06591 0.37496 0.0
N421 N 0.03671 0.05695 0.2974 0.0
H422 H 0.39863 0.937 0.789 0.0
H423 H 0.53101 0.95874 0.89683 0.0
H424 H 0.48538 0.95397 0.75516 0.0
H425 H 0.44589 0.99533 0.91466 0.0
H426 H 0.51508 0.94759 0.84671 0.0
H427 H 0.41602 0.94939 0.83763 0.0
C428 C 0.42123 0.94363 0.79154 0.0
C429 C 0.44039 0.94475 0.76754 0.0
C430 C 0.50005 0.95814 0.8617 0.0
C431 C 0.4606 0.95773 0.82372 0.0
C432 C 0.50902 0.96435 0.89021 0.0
C433 C 0.48973 0.97802 0.90981 0.0
C434 C 0.47143 0.96495 0.85317 0.0
C435 C 0.4615 0.98496 0.90017 0.0
C436 C 0.43115 0.95043 0.81945 0.0
C437 C 0.46978 0.95241 0.77284 0.0
N438 N 0.45309 0.97807 0.87261 0.0
N439 N 0.47905 0.95845 0.80041 0.0
H440 H 0.52031 0.42035 0.76146 0.0
H441 H 0.55614 0.52271 0.62484 0.0
H442 H 0.59082 0.48344 0.76057 0.0
H443 H 0.49202 0.45302 0.62379 0.0
H444 H 0.56592 0.5123 0.67614 0.0
H445 H 0.50626 0.43594 0.71269 0.0
C446 C 0.53278 0.43757 0.75103 0.0
C447 C 0.55696 0.45041 0.76502 0.0
C448 C 0.54963 0.49939 0.66468 0.0
C449 C 0.54093 0.46846 0.70914 0.0
C450 C 0.54402 0.50532 0.63538 0.0
C451 C 0.52336 0.48859 0.61986 0.0
C452 C 0.53442 0.47664 0.6786 0.0
C453 C 0.50829 0.46638 0.63475 0.0
C454 C 0.5247 0.44652 0.72321 0.0
C455 C 0.57193 0.47305 0.75069 0.0
N456 N 0.51418 0.46102 0.66321 0.0
N457 N 0.56382 0.4812 0.72343 0.0
H458 H 0.98269 0.59949 0.25287 0.0
H459 H 0.96017 0.49302 0.11537 0.0
H460 H 0.9238 0.52541 0.25247 0.0
H461 H 0.01959 0.56676 0.11602 0.0
H462 H 0.94843 0.50306 0.16639 0.0
H463 H 0.99872 0.58605 0.20377 0.0
C464 C 0.97338 0.58018 0.24261 0.0
C465 C 0.95176 0.56363 0.2568 0.0
C466 C 0.96412 0.51698 0.15541 0.0
C467 C 0.96969 0.54837 0.20034 0.0
C468 C 0.97084 0.51127 0.12623 0.0
C469 C 0.99081 0.52915 0.11127 0.0
C470 C 0.97742 0.54078 0.16979 0.0
C471 C 0.00399 0.55243 0.12658 0.0
C472 C 0.98239 0.57264 0.21447 0.0
C473 C 0.94018 0.53908 0.24221 0.0
N474 N 0.99697 0.55762 0.15494 0.0
N475 N 0.9492 0.53227 0.21476 0.0
H476 H 0.26651 0.03576 0.11085 0.0
H477 H 0.402 0.05597 0.00192 0.0
H478 H 0.26686 0.09673 0.03939 0.0
H479 H 0.40267 -0.00134 0.07643 0.0
H480 H 0.35157 0.06922 0.01352 0.0
H481 H 0.31544 0.01989 0.09671 0.0
C482 C 0.2769 0.04583 0.09217 0.0
C483 C 0.26264 0.06777 0.07641 0.0
C484 C 0.36275 0.0537 0.02728 0.0
C485 C 0.31866 0.04954 0.05995 0.0
C486 C 0.39156 0.04611 0.02069 0.0
C487 C 0.4067 0.02623 0.03829 0.0
C488 C 0.34891 0.04131 0.05164 0.0
C489 C 0.39197 0.01415 0.06228 0.0
C490 C 0.3048 0.03667 0.08403 0.0
C491 C 0.27693 0.07961 0.05204 0.0
N492 N 0.36394 0.02192 0.06826 0.0
N493 N 0.30423 0.07046 0.04465 0.0
H494 H 0.25091 0.99339 0.58943 0.0
H495 H 0.09392 0.93975 0.53872 0.0
H496 H 0.23602 0.90693 0.55408 0.0
H497 H 0.11964 0.03062 0.53416 0.0
H498 H 0.14456 0.92683 0.54981 0.0
H499 H 0.2014 0.00731 0.5744 0.0
C500 C 0.23721 0.97744 0.57836 0.0
C501 C 0.24744 0.94903 0.57289 0.0
C502 C 0.1391 0.94957 0.54625 0.0
C503 C 0.19093 0.96455 0.55616 0.0
C504 C 0.11021 0.95699 0.5401 0.0
C505 C 0.10257 0.98632 0.53555 0.0
C506 C 0.16039 0.97167 0.54845 0.0
C507 C 0.12462 0.00773 0.53742 0.0
C508 C 0.2091 0.98539 0.56973 0.0
C509 C 0.22896 0.92913 0.55845 0.0
N510 N 0.15251 2e-05 0.54401 0.0
N511 N 0.20144 0.93716 0.55086 0.0
H512 H 0.78276 0.43858 0.89317 0.0
H513 H 0.89094 0.48037 0.0214 0.0
H514 H 0.75065 0.45937 0.97925 0.0
H515 H 0.90978 0.50158 0.93171 0.0
H516 H 0.84082 0.46731 0.00726 0.0
H517 H 0.83139 0.4562 0.9076 0.0
C518 C 0.78604 0.44693 0.91509 0.0
C519 C 0.76286 0.4476 0.9351 0.0
C520 C 0.85593 0.47504 0.99079 0.0
C521 C 0.81819 0.46733 0.95182 0.0
C522 C 0.88451 0.48237 -0.00122 0.0
C523 C 0.90454 0.49204 0.97768 0.0
C524 C 0.8476 0.47679 0.96142 0.0
C525 C 0.89503 0.49433 0.9487 0.0
C526 C 0.81365 0.45706 0.92326 0.0
C527 C 0.76805 0.45868 0.96322 0.0
N528 N 0.86733 0.48643 0.94136 0.0
N529 N 0.79531 0.46786 0.9709 0.0
H530 H 0.75612 0.59531 0.4853 0.0
H531 H 0.61794 0.49114 0.45846 0.0
H532 H 0.75541 0.52236 0.42499 0.0
H533 H 0.61942 0.55958 0.52389 0.0
H534 H 0.66905 0.50127 0.44757 0.0
H535 H 0.70717 0.58126 0.50175 0.0
C536 C 0.74585 0.57611 0.47578 0.0
C537 C 0.75983 0.56011 0.45356 0.0
C538 C 0.6583 0.51402 0.46441 0.0
C539 C 0.70363 0.54419 0.47199 0.0
C540 C 0.62901 0.50829 0.47063 0.0
C541 C 0.61423 0.52468 0.49202 0.0
C542 C 0.67302 0.53643 0.47954 0.0
C543 C 0.62989 0.54646 0.50717 0.0
C544 C 0.71782 0.56822 0.48506 0.0
C545 C 0.74527 0.53566 0.44179 0.0
N546 N 0.65841 0.55183 0.5005 0.0
N547 N 0.71794 0.52857 0.45102 0.0
H548 H 0.09904 0.26082 0.02707 0.0
H549 H 0.99307 0.3974 0.05463 0.0
H550 H 0.03374 0.26315 0.09512 0.0
H551 H 0.06435 0.39678 0.99269 0.0
H552 H 0.004 0.34644 0.06649 0.0
H553 H 0.08293 0.30887 0.01092 0.0
C554 C 0.08126 0.27144 0.03859 0.0
C555 C 0.06791 0.25807 0.06266 0.0
C556 C 0.01712 0.35746 0.05021 0.0
C557 C 0.04921 0.31311 0.04418 0.0
C558 C 0.01088 0.38654 0.04339 0.0
C559 C 0.02796 0.40151 0.02279 0.0
C560 C 0.04053 0.34325 0.03625 0.0
C561 C 0.05072 0.38626 0.00888 0.0
C562 C 0.07199 0.29884 0.0293 0.0
C563 C 0.04456 0.27259 0.07637 0.0
N564 N 0.05638 0.35807 0.01595 0.0
N565 N 0.03608 0.29944 0.06707 0.0
H566 H 0.5756 0.23147 0.90211 0.0
H567 H 0.55464 0.12139 0.03251 0.0
H568 H 0.56897 0.26266 0.99077 0.0
H569 H 0.51537 0.10538 0.94836 0.0
H570 H 0.56633 0.17148 0.01734 0.0
H571 H 0.55981 0.18277 0.91819 0.0
C572 C 0.57076 0.22796 0.92496 0.0
C573 C 0.5735 0.25088 0.94522 0.0
C574 C 0.55498 0.15699 0.00234 0.0
C575 C 0.55597 0.19552 0.96374 0.0
C576 C 0.54843 0.12844 0.01089 0.0
C577 C 0.53403 0.10924 0.99163 0.0
C578 C 0.54771 0.1661 0.97414 0.0
C579 C 0.52637 0.11951 0.96392 0.0
C580 C 0.56167 0.20033 0.93407 0.0
C581 C 0.56695 0.24544 0.97456 0.0
N582 N 0.53363 0.14717 0.95585 0.0
N583 N 0.55877 0.21814 0.98306 0.0
H584 H 0.90734 0.78332 0.40706 0.0
H585 H -0.00074 0.88622 0.5151 0.0
H586 H 0.96983 0.74993 0.46872 0.0
H587 H 0.94735 0.91859 0.44374 0.0
H588 H 0.98783 0.83616 0.49962 0.0
H589 H 0.92071 0.83312 0.42148 0.0
C590 C 0.92384 0.7865 0.42372 0.0
C591 C 0.9374 0.76248 0.43683 0.0
C592 C 0.97904 0.85424 0.48732 0.0
C593 C 0.95295 0.81945 0.45337 0.0
C594 C 0.98549 0.88284 0.49617 0.0
C595 C 0.97421 0.9067 0.48074 0.0
C596 C 0.96101 0.84944 0.46298 0.0
C597 C 0.95656 0.90093 0.45632 0.0
C598 C 0.93159 0.81493 0.43182 0.0
C599 C 0.95898 0.76786 0.45794 0.0
N600 N 0.95043 0.87292 0.4483 0.0
N601 N 0.96598 0.7958 0.46569 0.0
H602 H 0.472 0.75208 0.60987 0.0
H603 H 0.44781 0.61734 0.50033 0.0
H604 H 0.40666 0.75033 0.5421 0.0
H605 H 0.51614 0.61997 0.56521 0.0
H606 H 0.43394 0.66694 0.5141 0.0
H607 H 0.48968 0.70449 0.5929 0.0
C608 C 0.46135 0.74166 0.59144 0.0
C609 C 0.4377 0.75514 0.57748 0.0
C610 C 0.45207 0.65677 0.52525 0.0
C611 C 0.45797 0.70077 0.5578 0.0
C612 C 0.46003 0.62838 0.5174 0.0
C613 C 0.48309 0.61433 0.53176 0.0
C614 C 0.46715 0.67129 0.54775 0.0
C615 C 0.49818 0.62988 0.55359 0.0
C616 C 0.47157 0.71458 0.58165 0.0
C617 C 0.42508 0.74088 0.55337 0.0
N618 N 0.48981 0.65747 0.56104 0.0
N619 N 0.43527 0.71442 0.54441 0.0
H620 H 0.92653 0.91747 0.75096 0.0
H621 H 0.96629 0.03808 0.63362 0.0
H622 H 0.96034 0.00224 0.7767 0.0
H623 H 0.9753 0.94544 0.61692 0.0
H624 H 0.95581 0.02741 0.68497 0.0
H625 H 0.9358 0.92966 0.7002 0.0
C626 C 0.93609 0.93859 0.74606 0.0
C627 C 0.94316 0.95863 0.76838 0.0
C628 C 0.96013 0.00951 0.66999 0.0
C629 C 0.95294 0.97297 0.70999 0.0
C630 C 0.96598 0.01552 0.64073 0.0
C631 C 0.97171 0.99258 0.62103 0.0
C632 C 0.95941 0.98037 0.67935 0.0
C633 C 0.97116 0.96378 0.63141 0.0
C634 C 0.94119 0.94555 0.71701 0.0
C635 C 0.95442 0.98611 0.76035 0.0
N636 N 0.96491 0.95848 0.65983 0.0
N637 N 0.95897 0.99249 0.73176 0.0
H638 H 0.59578 0.08074 0.25854 0.0
H639 H 0.50389 0.98664 0.14296 0.0
H640 H 0.53345 0.01438 0.28368 0.0
H641 H 0.57292 0.04705 0.11985 0.0
H642 H 0.51461 0.99554 0.1945 0.0
H643 H 0.58805 0.06768 0.20753 0.0
C644 C 0.58043 0.06338 0.25326 0.0
C645 C 0.56499 0.04881 0.27531 0.0
C646 C 0.52747 0.00672 0.17812 0.0
C647 C 0.55604 0.03363 0.21687 0.0
C648 C 0.52134 0.00171 0.14868 0.0
C649 C 0.53743 0.01623 0.12698 0.0
C650 C 0.54976 0.02648 0.18592 0.0
C651 C 0.55985 0.03541 0.13574 0.0
C652 C 0.57611 0.05583 0.22413 0.0
C653 C 0.54581 0.02611 0.2673 0.0
N654 N 0.56524 0.04006 0.16449 0.0
N655 N 0.54167 0.01935 0.23866 0.0
H656 H 0.41878 0.57761 0.26889 0.0
H657 H 0.5221 0.49688 0.3835 0.0
H658 H 0.4927 0.52508 0.24277 0.0
H659 H 0.44771 0.55016 0.40686 0.0
H660 H 0.51247 0.5068 0.332 0.0
H661 H 0.42981 0.5676 0.31965 0.0
C662 C 0.43726 0.56375 0.27385 0.0
C663 C 0.45465 0.55188 0.25151 0.0
C664 C 0.49831 0.5163 0.34844 0.0
C665 C 0.46772 0.54061 0.3099 0.0
C666 C 0.50377 0.51065 0.37785 0.0
C667 C 0.48568 0.52268 0.39961 0.0
C668 C 0.4746 0.5341 0.34077 0.0
C669 C 0.46226 0.54037 0.39094 0.0
C670 C 0.44367 0.55818 0.30291 0.0
C671 C 0.47877 0.53472 0.25932 0.0
N672 N 0.45743 0.54549 0.36227 0.0
N673 N 0.48456 0.52948 0.28792 0.0
H674 H 0.02933 0.49136 0.73429 0.0
H675 H 0.07417 0.46428 0.90064 0.0
H676 H 0.09977 0.43506 0.76112 0.0
H677 H 0.00266 0.51999 0.87517 0.0
H678 H 0.08416 0.45409 0.84938 0.0
H679 H 0.01918 0.50255 0.7856 0.0
C680 C 0.04259 0.48129 0.75095 0.0
C681 C 0.06552 0.46234 0.74338 0.0
C682 C 0.06629 0.46858 0.85497 0.0
C683 C 0.05418 0.47518 0.80205 0.0
C684 C 0.06057 0.47443 0.88429 0.0
C685 C 0.03749 0.49301 0.8923 0.0
C686 C 0.04883 0.48135 0.83339 0.0
C687 C 0.02066 0.50552 0.87005 0.0
C688 C 0.03689 0.48779 0.78022 0.0
C689 C 0.0822 0.45016 0.76588 0.0
N690 N 0.02665 0.49943 0.84162 0.0
N691 N 0.07619 0.45677 0.79414 0.0
H692 H 0.77474 0.99647 0.95175 0.0
H693 H 0.62077 0.93462 0.99726 0.0
H694 H 0.76589 0.91386 0.9964 0.0
H695 H 0.63896 0.02722 0.00344 0.0
H696 H 0.673 0.92558 0.98976 0.0
H697 H 0.72412 0.00781 0.96456 0.0
C698 C 0.76245 0.98084 0.96454 0.0
C699 C 0.77479 0.95396 0.97272 0.0
C700 C 0.66551 0.94784 0.99288 0.0
C701 C 0.71651 0.96658 0.98649 0.0
C702 C 0.63577 0.95304 0.99696 0.0
C703 C 0.62561 0.98171 0.00095 0.0
C704 C 0.68511 0.97152 0.99208 0.0
C705 C 0.64598 0.00478 0.00056 0.0
C706 C 0.73347 0.98732 0.97165 0.0
C707 C 0.75729 0.93447 0.98882 0.0
N708 N 0.67481 -0.00077 0.99585 0.0
N709 N 0.72896 0.94099 0.99482 0.0
H710 H 0.73728 0.08794 0.5111 0.0
H711 H 0.88233 0.00719 0.45619 0.0
H712 H 0.73939 0.02712 0.43872 0.0
H713 H 0.87863 0.06048 0.53425 0.0
H714 H 0.82995 0.01432 0.44953 0.0
H715 H 0.78893 0.07792 0.5203 0.0
C716 C 0.7486 0.07238 0.49723 0.0
C717 C 0.73404 0.05841 0.47406 0.0
C718 C 0.84057 0.0244 0.46816 0.0
C719 C 0.79314 0.04689 0.48439 0.0
C720 C 0.87054 0.02043 0.47193 0.0
C721 C 0.88499 0.03333 0.49579 0.0
C722 C 0.82486 0.04153 0.48827 0.0
C723 C 0.86846 0.05014 0.51552 0.0
C724 C 0.77805 0.06661 0.50253 0.0
C725 C 0.74967 0.03818 0.45699 0.0
N726 N 0.8393 0.05382 0.51127 0.0
N727 N 0.77841 0.0332 0.46237 0.0
H728 H 0.26432 0.60225 0.03573 0.0
H729 H 0.13652 0.48534 0.01352 0.0
H730 H 0.27167 0.51316 0.06513 0.0
H731 H 0.11942 0.57726 0.02731 0.0
H732 H 0.18856 0.49455 0.02249 0.0
H733 H 0.21324 0.5926 0.0221 0.0
C734 C 0.25523 0.58057 0.0389 0.0
C735 C 0.27202 0.55844 0.05155 0.0
C736 C 0.17336 0.51265 0.02347 0.0
C737 C 0.21407 0.54729 0.03604 0.0
C738 C 0.14373 0.50747 0.01829 0.0
C739 C 0.12364 0.53057 0.01984 0.0
C740 C 0.18299 0.5412 0.02965 0.0
C741 C 0.13416 0.5588 0.02616 0.0
C742 C 0.22615 0.57516 0.03136 0.0
C743 C 0.25928 0.53078 0.05553 0.0
N744 N 0.16319 0.56337 0.03069 0.0
N745 N 0.23102 0.52593 0.04771 0.0
H746 H 0.23506 0.49451 0.52181 0.0
H747 H 0.40023 0.44547 0.55187 0.0
H748 H 0.25939 0.41872 0.57178 0.0
H749 H 0.37794 0.52036 0.49952 0.0
H750 H 0.34839 0.4358 0.55935 0.0
H751 H 0.28705 0.50504 0.51357 0.0
C752 C 0.25132 0.48013 0.53106 0.0
C753 C 0.24288 0.45558 0.54731 0.0
C754 C 0.35478 0.45435 0.5462 0.0
C755 C 0.30222 0.4674 0.53794 0.0
C756 C 0.38445 0.45991 0.54192 0.0
C757 C 0.39352 0.48379 0.52504 0.0
C758 C 0.3339 0.4728 0.53358 0.0
C759 C 0.37197 0.50169 0.51269 0.0
C760 C 0.28095 0.48607 0.52625 0.0
C761 C 0.26484 0.43757 0.55865 0.0
N762 N 0.34315 0.49584 0.51723 0.0
N763 N 0.29343 0.44386 0.55377 0.0
H764 H 0.95226 0.77222 0.00092 0.0
H765 H 0.99479 0.61816 0.93609 0.0
H766 H 0.99532 0.76338 0.91735 0.0
H767 H 0.00107 0.63516 0.02856 0.0
H768 H 0.9879 0.67059 0.92798 0.0
H769 H 0.96431 0.72125 0.01135 0.0
C770 C 0.96455 0.75983 0.9849 0.0
C771 C 0.97244 0.77221 0.95801 0.0
C772 C 0.99091 0.66279 0.95002 0.0
C773 C 0.98536 0.71366 0.96957 0.0
C774 C 0.99463 0.63292 0.95467 0.0
C775 C 0.9985 0.62237 0.98303 0.0
C776 C 0.99038 0.68211 0.97392 0.0
C777 C 0.99829 0.64247 0.00634 0.0
C778 C 0.97123 0.73068 0.99084 0.0
C779 C 0.98798 0.75469 0.93801 0.0
N780 N 0.99398 0.67142 0.00131 0.0
N781 N 0.99356 0.72623 0.94402 0.0
H782 H 0.41818 0.75362 0.05314 0.0
H783 H 0.53791 0.87531 0.02188 0.0
H784 H 0.50838 0.74006 0.07637 0.0
H785 H 0.45129 0.89748 0.05209 0.0
H786 H 0.52716 0.82348 0.03131 0.0
H787 H 0.42969 0.80486 0.04171 0.0
C788 C 0.44045 0.76147 0.05552 0.0
C789 C 0.46243 0.74289 0.06565 0.0
C790 C 0.51059 0.83979 0.03581 0.0
C791 C 0.47571 0.80086 0.05242 0.0
C792 C 0.51662 0.86924 0.03035 0.0
C793 C 0.49546 0.89063 0.03633 0.0
C794 C 0.48299 0.83174 0.04655 0.0
C795 C 0.46826 0.88166 0.04739 0.0
C796 C 0.44694 0.79058 0.04919 0.0
C797 C 0.49092 0.75392 0.06864 0.0
N798 N 0.46269 0.85283 0.05191 0.0
N799 N 0.49686 0.78226 0.06184 0.0
H800 H 0.06923 0.26999 0.51641 0.0
H801 H 0.97667 0.12982 0.56575 0.0
H802 H 0.01263 0.27071 0.59182 0.0
H803 H 0.04883 0.12722 0.50487 0.0
H804 H 0.98465 0.1826 0.57195 0.0
H805 H 0.05636 0.21889 0.50767 0.0
C806 C 0.05401 0.25939 0.5311 0.0
C807 C 0.04231 0.27452 0.55513 0.0
C808 C 0.99867 0.17039 0.55725 0.0
C809 C 0.02734 0.21595 0.54516 0.0
C810 C 0.99415 0.1403 0.55369 0.0
C811 C 0.0122 0.12401 0.53486 0.0
C812 C 0.02118 0.18427 0.54164 0.0
C813 C 0.03448 0.13877 0.51977 0.0
C814 C 0.04664 0.23022 0.52608 0.0
C815 C 0.02211 0.25988 0.57301 0.0
N816 N 0.03828 0.16801 0.52346 0.0
N817 N 0.01541 0.23128 0.5678 0.0
H818 H 0.51577 0.23564 0.49841 0.0
H819 H 0.54904 0.40135 0.45267 0.0
H820 H 0.5728 0.26091 0.42774 0.0
H821 H 0.49451 0.37861 0.5262 0.0
H822 H 0.55738 0.34959 0.44336 0.0
H823 H 0.5074 0.28756 0.5094 0.0
C824 C 0.52657 0.25207 0.48528 0.0
C825 C 0.54478 0.24392 0.46194 0.0
C826 C 0.54359 0.35586 0.46156 0.0
C827 C 0.53524 0.30318 0.47426 0.0
C828 C 0.53878 0.38548 0.4669 0.0
C829 C 0.52102 0.39442 0.49027 0.0
C830 C 0.53053 0.33484 0.47967 0.0
C831 C 0.50837 0.37275 0.50793 0.0
C832 C 0.52171 0.28167 0.49148 0.0
C833 C 0.5581 0.26613 0.44554 0.0
N834 N 0.51336 0.34394 0.50225 0.0
N835 N 0.55304 0.29466 0.45199 0.0
loop_
_geom_bond_atom_site_label_1
_geom_bond_atom_site_label_2
_geom_bond_distance
_geom_bond_site_symmetry_2
_ccdc_geom_bond_type
C0 C1 1.386 . S
C0 C2 1.397 . S
C0 H24 0.931 . S
C1 C0 1.386 . S
C1 C5 1.397 . S
C2 C0 1.397 . S
C2 C3 1.384 . S
C2 H25 0.930 . S
C3 C2 1.384 . S
C3 C4 1.377 . S
C3 C6 1.481 . S
C4 C3 1.377 . S
C4 C5 1.389 . S
C4 H26 0.929 . S
C5 C1 1.397 . S
C5 C4 1.389 . S
C5 H27 0.931 . S
C6 C3 1.481 . S
C6 C7 1.387 . S
C6 C11 1.390 . S
C7 C6 1.387 . S
C7 C8 1.401 . S
C7 H28 0.930 . S
C8 C7 1.401 . S
C8 C9 1.376 . S
C8 C17 1.511 . S
C9 C8 1.376 . S
C9 C10 1.392 . S
C9 H30 0.931 . S
C10 C9 1.392 . S
C10 C11 1.361 . S
C10 C12 1.500 . S
C11 C6 1.390 . S
C11 C10 1.361 . S
C11 H29 0.931 . S
C12 C10 1.500 . S
C12 C13 1.371 . S
C12 C14 1.365 . S
C13 C12 1.371 . S
C13 C23 1.386 . S
C13 H31 0.931 . S
C14 C12 1.365 . S
C14 C15 1.409 . S
C14 H32 0.929 . S
C15 C14 1.409 . S
C15 C16 1.380 . S
C15 H33 0.930 . S
C16 C15 1.380 . S
C16 C23 1.357 . S
C17 C8 1.511 . S
C17 C18 1.341 . S
C17 C19 1.371 . S
C18 C17 1.341 . S
C18 C22 1.394 . S
C18 H34 0.930 . S
C19 C17 1.371 . S
C19 C20 1.392 . S
C19 H35 0.931 . S
C20 C19 1.392 . S
C20 C21 1.331 . S
C20 H38 0.932 . S
C21 C20 1.331 . S
C21 C22 1.336 . S
C22 C18 1.394 . S
C22 C21 1.336 . S
C22 H37 0.929 . S
C23 C13 1.386 . S
C23 C16 1.357 . S
C23 H36 0.928 . S
H24 C0 0.931 . S
H25 C2 0.930 . S
H26 C4 0.929 . S
H27 C5 0.931 . S
H28 C7 0.930 . S
H29 C11 0.931 . S
H30 C9 0.931 . S
H31 C13 0.931 . S
H32 C14 0.929 . S
H33 C15 0.930 . S
H34 C18 0.930 . S
H35 C19 0.931 . S
H36 C23 0.928 . S
H37 C22 0.929 . S
H38 C20 0.932 . S
C39 C40 1.386 . S
C39 C41 1.397 . S
C39 H63 0.931 . S
C40 C39 1.386 . S
C40 C44 1.397 . S
C41 C39 1.397 . S
C41 C42 1.384 . S
C41 H64 0.930 . S
C42 C41 1.384 . S
C42 C43 1.377 . S
C42 C45 1.481 . S
C43 C42 1.377 . S
C43 C44 1.389 . S
C43 H65 0.929 . S
C44 C40 1.397 . S
C44 C43 1.389 . S
C44 H66 0.931 . S
C45 C42 1.481 . S
C45 C46 1.387 . S
C45 C50 1.390 . S
C46 C45 1.387 . S
C46 C47 1.401 . S
C46 H67 0.930 . S
C47 C46 1.401 . S
C47 C48 1.376 . S
C47 C56 1.511 . S
C48 C47 1.376 . S
C48 C49 1.392 . S
C48 H69 0.931 . S
C49 C48 1.392 . S
C49 C50 1.361 . S
C49 C51 1.500 . S
C50 C45 1.390 . S
C50 C49 1.361 . S
C50 H68 0.931 . S
C51 C49 1.500 . S
C51 C52 1.371 . S
C51 C53 1.365 . S
C52 C51 1.371 . S
C52 C62 1.386 . S
C52 H70 0.931 . S
C53 C51 1.365 . S
C53 C54 1.409 . S
C53 H71 0.929 . S
C54 C53 1.409 . S
C54 C55 1.380 . S
C54 H72 0.930 . S
C55 C54 1.380 . S
C55 C62 1.357 . S
C56 C47 1.511 . S
C56 C57 1.341 . S
C56 C58 1.371 . S
C57 C56 1.341 . S
C57 C61 1.394 . S
C57 H73 0.930 . S
C58 C56 1.371 . S
C58 C59 1.392 . S
C58 H74 0.931 . S
C59 C58 1.392 . S
C59 C60 1.331 . S
C59 H77 0.932 . S
C60 C59 1.331 . S
C60 C61 1.336 . S
C61 C57 1.394 . S
C61 C60 1.336 . S
C61 H76 0.929 . S
C62 C52 1.386 . S
C62 C55 1.357 . S
C62 H75 0.928 . S
H63 C39 0.931 . S
H64 C41 0.930 . S
H65 C43 0.929 . S
H66 C44 0.931 . S
H67 C46 0.930 . S
H68 C50 0.931 . S
H69 C48 0.931 . S
H70 C52 0.931 . S
H71 C53 0.929 . S
H72 C54 0.930 . S
H73 C57 0.930 . S
H74 C58 0.931 . S
H75 C62 0.928 . S
H76 C61 0.929 . S
H77 C59 0.932 . S
C78 C79 1.386 . S
C78 C80 1.397 . S
C78 H102 0.931 . S
C79 C78 1.386 . S
C79 C83 1.397 . S
C80 C78 1.397 . S
C80 C81 1.384 . S
C80 H103 0.930 . S
C81 C80 1.384 . S
C81 C82 1.377 . S
C81 C84 1.481 . S
C82 C81 1.377 . S
C82 C83 1.389 . S
C82 H104 0.929 . S
C83 C79 1.397 . S
C83 C82 1.389 . S
C83 H105 0.931 . S
C84 C81 1.481 . S
C84 C85 1.387 . S
C84 C89 1.390 . S
C85 C84 1.387 . S
C85 C86 1.401 . S
C85 H106 0.930 . S
C86 C85 1.401 . S
C86 C87 1.376 . S
C86 C95 1.511 . S
C87 C86 1.376 . S
C87 C88 1.392 . S
C87 H108 0.931 . S
C88 C87 1.392 . S
C88 C89 1.361 . S
C88 C90 1.500 . S
C89 C84 1.390 . S
C89 C88 1.361 . S
C89 H107 0.931 . S
C90 C88 1.500 . S
C90 C91 1.371 . S
C90 C92 1.365 . S
C91 C90 1.371 . S
C91 C101 1.386 . S
C91 H109 0.931 . S
C92 C90 1.365 . S
C92 C93 1.409 . S
C92 H110 0.929 . S
C93 C92 1.409 . S
C93 C94 1.380 . S
C93 H111 0.930 . S
C94 C93 1.380 . S
C94 C101 1.357 . S
C95 C86 1.511 . S
C95 C96 1.341 . S
C95 C97 1.371 . S
C96 C95 1.341 . S
C96 C100 1.394 . S
C96 H112 0.930 . S
C97 C95 1.371 . S
C97 C98 1.392 . S
C97 H113 0.931 . S
C98 C97 1.392 . S
C98 C99 1.331 . S
C98 H116 0.932 . S
C99 C98 1.331 . S
C99 C100 1.336 . S
C100 C96 1.394 . S
C100 C99 1.336 . S
C100 H115 0.929 . S
C101 C91 1.386 . S
C101 C94 1.357 . S
C101 H114 0.928 . S
H102 C78 0.931 . S
H103 C80 0.930 . S
H104 C82 0.929 . S
H105 C83 0.931 . S
H106 C85 0.930 . S
H107 C89 0.931 . S
H108 C87 0.931 . S
H109 C91 0.931 . S
H110 C92 0.929 . S
H111 C93 0.930 . S
H112 C96 0.930 . S
H113 C97 0.931 . S
H114 C101 0.928 . S
H115 C100 0.929 . S
H116 C98 0.932 . S
C117 C118 1.386 . S
C117 C119 1.397 . S
C117 H141 0.931 . S
C118 C117 1.386 . S
C118 C122 1.397 . S
C119 C117 1.397 . S
C119 C120 1.384 . S
C119 H142 0.930 . S
C120 C119 1.384 . S
C120 C121 1.377 . S
C120 C123 1.481 . S
C121 C120 1.377 . S
C121 C122 1.389 . S
C121 H143 0.929 . S
C122 C118 1.397 . S
C122 C121 1.389 . S
C122 H144 0.931 . S
C123 C120 1.481 . S
C123 C124 1.387 . S
C123 C128 1.390 . S
C124 C123 1.387 . S
C124 C125 1.401 . S
C124 H145 0.930 . S
C125 C124 1.401 . S
C125 C126 1.376 . S
C125 C134 1.511 . S
C126 C125 1.376 . S
C126 C127 1.392 . S
C126 H147 0.931 . S
C127 C126 1.392 . S
C127 C128 1.361 . S
C127 C129 1.500 . S
C128 C123 1.390 . S
C128 C127 1.361 . S
C128 H146 0.931 . S
C129 C127 1.500 . S
C129 C130 1.371 . S
C129 C131 1.365 . S
C130 C129 1.371 . S
C130 C140 1.386 . S
C130 H148 0.931 . S
C131 C129 1.365 . S
C131 C132 1.409 . S
C131 H149 0.929 . S
C132 C131 1.409 . S
C132 C133 1.380 . S
C132 H150 0.930 . S
C133 C132 1.380 . S
C133 C140 1.357 . S
C134 C125 1.511 . S
C134 C135 1.341 . S
C134 C136 1.371 . S
C135 C134 1.341 . S
C135 C139 1.394 . S
C135 H151 0.930 . S
C136 C134 1.371 . S
C136 C137 1.392 . S
C136 H152 0.931 . S
C137 C136 1.392 . S
C137 C138 1.331 . S
C137 H155 0.932 . S
C138 C137 1.331 . S
C138 C139 1.336 . S
C139 C135 1.394 . S
C139 C138 1.336 . S
C139 H154 0.929 . S
C140 C130 1.386 . S
C140 C133 1.357 . S
C140 H153 0.928 . S
H141 C117 0.931 . S
H142 C119 0.930 . S
H143 C121 0.929 . S
H144 C122 0.931 . S
H145 C124 0.930 . S
H146 C128 0.931 . S
H147 C126 0.931 . S
H148 C130 0.931 . S
H149 C131 0.929 . S
H150 C132 0.930 . S
H151 C135 0.930 . S
H152 C136 0.931 . S
H153 C140 0.928 . S
H154 C139 0.929 . S
H155 C137 0.932 . S
C156 C157 1.386 . S
C156 C158 1.397 . S
C156 H180 0.931 . S
C157 C156 1.386 . S
C157 C161 1.397 . S
C158 C156 1.397 . S
C158 C159 1.384 . S
C158 H181 0.930 . S
C159 C158 1.384 . S
C159 C160 1.377 . S
C159 C162 1.481 . S
C160 C159 1.377 . S
C160 C161 1.389 . S
C160 H182 0.929 . S
C161 C157 1.397 . S
C161 C160 1.389 . S
C161 H183 0.931 1_565 S
C162 C159 1.481 . S
C162 C163 1.387 . S
C162 C167 1.390 . S
C163 C162 1.387 . S
C163 C164 1.401 . S
C163 H184 0.930 . S
C164 C163 1.401 . S
C164 C165 1.376 . S
C164 C173 1.511 . S
C165 C164 1.376 . S
C165 C166 1.392 . S
C165 H186 0.931 . S
C166 C165 1.392 . S
C166 C167 1.361 . S
C166 C168 1.500 . S
C167 C162 1.390 . S
C167 C166 1.361 . S
C167 H185 0.931 . S
C168 C166 1.500 . S
C168 C169 1.371 . S
C168 C170 1.365 . S
C169 C168 1.371 . S
C169 C179 1.386 . S
C169 H187 0.931 . S
C170 C168 1.365 . S
C170 C171 1.409 . S
C170 H188 0.929 . S
C171 C170 1.409 . S
C171 C172 1.380 . S
C171 H189 0.930 1_565 S
C172 C171 1.380 . S
C172 C179 1.357 . S
C173 C164 1.511 . S
C173 C174 1.341 . S
C173 C175 1.371 . S
C174 C173 1.341 . S
C174 C178 1.394 . S
C174 H190 0.930 . S
C175 C173 1.371 . S
C175 C176 1.392 . S
C175 H191 0.931 . S
C176 C175 1.392 . S
C176 C177 1.331 . S
C176 H194 0.932 . S
C177 C176 1.331 . S
C177 C178 1.336 . S
C178 C174 1.394 . S
C178 C177 1.336 . S
C178 H193 0.929 . S
C179 C169 1.386 . S
C179 C172 1.357 . S
C179 H192 0.928 . S
H180 C156 0.931 . S
H181 C158 0.930 . S
H182 C160 0.929 . S
H183 C161 0.931 1_545 S
H184 C163 0.930 . S
H185 C167 0.931 . S
H186 C165 0.931 . S
H187 C169 0.931 . S
H188 C170 0.929 . S
H189 C171 0.930 1_545 S
H190 C174 0.930 . S
H191 C175 0.931 . S
H192 C179 0.928 . S
H193 C178 0.929 . S
H194 C176 0.932 . S
C195 C196 1.386 . S
C195 C197 1.397 . S
C195 H219 0.931 . S
C196 C195 1.386 . S
C196 C200 1.397 . S
C197 C195 1.397 . S
C197 C198 1.384 . S
C197 H220 0.930 . S
C198 C197 1.384 . S
C198 C199 1.377 . S
C198 C201 1.481 . S
C199 C198 1.377 . S
C199 C200 1.389 . S
C199 H221 0.929 . S
C200 C196 1.397 . S
C200 C199 1.389 . S
C200 H222 0.931 . S
C201 C198 1.481 . S
C201 C202 1.387 . S
C201 C206 1.390 . S
C202 C201 1.387 . S
C202 C203 1.401 . S
C202 H223 0.930 . S
C203 C202 1.401 . S
C203 C204 1.376 . S
C203 C212 1.511 . S
C204 C203 1.376 . S
C204 C205 1.392 . S
C204 H225 0.931 . S
C205 C204 1.392 . S
C205 C206 1.361 . S
C205 C207 1.500 . S
C206 C201 1.390 . S
C206 C205 1.361 . S
C206 H224 0.931 . S
C207 C205 1.500 . S
C207 C208 1.371 . S
C207 C209 1.365 . S
C208 C207 1.371 . S
C208 C218 1.386 . S
C208 H226 0.931 . S
C209 C207 1.365 . S
C209 C210 1.409 . S
C209 H227 0.929 . S
C210 C209 1.409 . S
C210 C211 1.380 . S
C210 H228 0.930 . S
C211 C210 1.380 . S
C211 C218 1.357 . S
C212 C203 1.511 . S
C212 C213 1.341 . S
C212 C214 1.371 . S
C213 C212 1.341 . S
C213 C217 1.394 . S
C213 H229 0.930 . S
C214 C212 1.371 . S
C214 C215 1.392 . S
C214 H230 0.931 . S
C215 C214 1.392 . S
C215 C216 1.331 . S
C215 H233 0.932 . S
C216 C215 1.331 . S
C216 C217 1.336 . S
C217 C213 1.394 . S
C217 C216 1.336 . S
C217 H232 0.929 . S
C218 C208 1.386 . S
C218 C211 1.357 . S
C218 H231 0.928 . S
H219 C195 0.931 . S
H220 C197 0.930 . S
H221 C199 0.929 . S
H222 C200 0.931 . S
H223 C202 0.930 . S
H224 C206 0.931 . S
H225 C204 0.931 . S
H226 C208 0.931 . S
H227 C209 0.929 . S
H228 C210 0.930 . S
H229 C213 0.930 . S
H230 C214 0.931 . S
H231 C218 0.928 . S
H232 C217 0.929 . S
H233 C215 0.932 . S
C234 C235 1.386 . S
C234 C236 1.397 . S
C234 H258 0.931 . S
C235 C234 1.386 . S
C235 C239 1.397 . S
C236 C234 1.397 . S
C236 C237 1.384 . S
C236 H259 0.930 . S
C237 C236 1.384 . S
C237 C238 1.377 . S
C237 C240 1.481 . S
C238 C237 1.377 . S
C238 C239 1.389 . S
C238 H260 0.929 . S
C239 C235 1.397 . S
C239 C238 1.389 . S
C239 H261 0.931 . S
C240 C237 1.481 . S
C240 C241 1.387 . S
C240 C245 1.390 . S
C241 C240 1.387 . S
C241 C242 1.401 . S
C241 H262 0.930 . S
C242 C241 1.401 . S
C242 C243 1.376 . S
C242 C251 1.511 . S
C243 C242 1.376 . S
C243 C244 1.392 . S
C243 H264 0.931 . S
C244 C243 1.392 . S
C244 C245 1.361 . S
C244 C246 1.500 . S
C245 C240 1.390 . S
C245 C244 1.361 . S
C245 H263 0.931 . S
C246 C244 1.500 . S
C246 C247 1.371 . S
C246 C248 1.365 . S
C247 C246 1.371 . S
C247 C257 1.386 . S
C247 H265 0.931 . S
C248 C246 1.365 . S
C248 C249 1.409 . S
C248 H266 0.929 . S
C249 C248 1.409 . S
C249 C250 1.380 . S
C249 H267 0.930 . S
C250 C249 1.380 . S
C250 C257 1.357 . S
C251 C242 1.511 . S
C251 C252 1.341 . S
C251 C253 1.371 . S
C252 C251 1.341 . S
C252 C256 1.394 . S
C252 H268 0.930 . S
C253 C251 1.371 . S
C253 C254 1.392 . S
C253 H269 0.931 . S
C254 C253 1.392 . S
C254 C255 1.331 . S
C254 H272 0.932 . S
C255 C254 1.331 . S
C255 C256 1.336 . S
C256 C252 1.394 . S
C256 C255 1.336 . S
C256 H271 0.929 . S
C257 C247 1.386 . S
C257 C250 1.357 . S
C257 H270 0.928 . S
H258 C234 0.931 . S
H259 C236 0.930 . S
H260 C238 0.929 . S
H261 C239 0.931 . S
H262 C241 0.930 . S
H263 C245 0.931 . S
H264 C243 0.931 . S
H265 C247 0.931 . S
H266 C248 0.929 . S
H267 C249 0.930 . S
H268 C252 0.930 . S
H269 C253 0.931 . S
H270 C257 0.928 . S
H271 C256 0.929 . S
H272 C254 0.932 . S
C273 C274 1.386 . S
C273 C275 1.397 . S
C273 H297 0.931 . S
C274 C273 1.386 . S
C274 C278 1.397 . S
C275 C273 1.397 . S
C275 C276 1.384 . S
C275 H298 0.930 . S
C276 C275 1.384 . S
C276 C277 1.377 . S
C276 C279 1.481 . S
C277 C276 1.377 . S
C277 C278 1.389 . S
C277 H299 0.929 . S
C278 C274 1.397 . S
C278 C277 1.389 . S
C278 H300 0.931 . S
C279 C276 1.481 . S
C279 C280 1.387 . S
C279 C284 1.390 . S
C280 C279 1.387 . S
C280 C281 1.401 . S
C280 H301 0.930 . S
C281 C280 1.401 . S
C281 C282 1.376 . S
C281 C290 1.511 . S
C282 C281 1.376 . S
C282 C283 1.392 . S
C282 H303 0.931 . S
C283 C282 1.392 . S
C283 C284 1.361 . S
C283 C285 1.500 . S
C284 C279 1.390 . S
C284 C283 1.361 . S
C284 H302 0.931 . S
C285 C283 1.500 . S
C285 C286 1.371 . S
C285 C287 1.365 . S
C286 C285 1.371 . S
C286 C296 1.386 . S
C286 H304 0.931 . S
C287 C285 1.365 . S
C287 C288 1.409 . S
C287 H305 0.929 . S
C288 C287 1.409 . S
C288 C289 1.380 . S
C288 H306 0.930 . S
C289 C288 1.380 . S
C289 C296 1.357 . S
C290 C281 1.511 . S
C290 C291 1.341 . S
C290 C292 1.371 . S
C291 C290 1.341 . S
C291 C295 1.394 . S
C291 H307 0.930 . S
C292 C290 1.371 . S
C292 C293 1.392 . S
C292 H308 0.931 . S
C293 C292 1.392 . S
C293 C294 1.331 . S
C293 H311 0.932 . S
C294 C293 1.331 . S
C294 C295 1.336 . S
C295 C291 1.394 . S
C295 C294 1.336 . S
C295 H310 0.929 . S
C296 C286 1.386 . S
C296 C289 1.357 . S
C296 H309 0.928 . S
H297 C273 0.931 . S
H298 C275 0.930 . S
H299 C277 0.929 . S
H300 C278 0.931 . S
H301 C280 0.930 . S
H302 C284 0.931 . S
H303 C282 0.931 . S
H304 C286 0.931 . S
H305 C287 0.929 . S
H306 C288 0.930 . S
H307 C291 0.930 . S
H308 C292 0.931 . S
H309 C296 0.928 . S
H310 C295 0.929 . S
H311 C293 0.932 . S
O312 Zn313 1.953 . S
O312 C328 1.225 1_655 S
Zn313 O312 1.953 . S
Zn313 O314 1.949 1_655 S
Zn313 O320 1.919 . S
Zn313 O325 1.924 . S
O314 Zn313 1.949 1_455 S
O314 Zn315 1.923 1_445 S
O314 Zn316 1.950 . S
O314 Zn317 1.945 1_545 S
Zn315 O314 1.923 1_665 S
Zn315 O318 1.933 . S
Zn315 O321 1.941 1_565 S
Zn315 O322 1.965 1_665 S
Zn316 O314 1.950 . S
Zn316 O323 1.938 . S
Zn316 O324 1.929 . S
Zn316 O334 1.953 . S
Zn317 O314 1.945 1_565 S
Zn317 O319 1.932 1_455 S
Zn317 O326 1.977 . S
Zn317 O327 1.910 1_455 S
O318 Zn315 1.933 . S
O318 C329 1.226 . S
O319 Zn317 1.932 1_655 S
O319 C329 1.307 . S
O320 Zn313 1.919 . S
O320 C331 1.253 . S
O321 Zn315 1.941 1_545 S
O321 C331 1.283 . S
O322 Zn315 1.965 1_445 S
O322 C330 1.303 . S
O323 Zn316 1.938 . S
O323 C330 1.247 . S
O324 Zn316 1.929 . S
O324 C332 1.271 1_545 S
O325 Zn313 1.924 . S
O325 C333 1.329 . S
O326 Zn317 1.977 . S
O326 C332 1.272 . S
O327 Zn317 1.910 1_655 S
O327 C333 1.212 1_565 S
C328 O312 1.225 1_455 S
C328 O334 1.298 . S
C329 O318 1.226 . S
C329 O319 1.307 . S
C330 O322 1.303 . S
C330 O323 1.247 . S
C331 O320 1.253 . S
C331 O321 1.283 . S
C332 O324 1.271 1_565 S
C332 O326 1.272 . S
C333 O325 1.329 . S
C333 O327 1.212 1_545 S
O334 Zn316 1.953 . S
O334 C328 1.298 . S
O335 Zn336 1.953 . S
O335 C351 1.225 . S
Zn336 O335 1.953 . S
Zn336 O337 1.949 1_556 S
Zn336 O343 1.919 . S
Zn336 O348 1.924 1_556 S
O337 Zn336 1.949 1_554 S
O337 Zn338 1.923 1_545 S
O337 Zn339 1.950 . S
O337 Zn340 1.937 1_545 S
Zn338 O337 1.923 1_565 S
Zn338 O341 1.933 . S
Zn338 O344 1.941 1_554 S
Zn338 O345 1.965 1_554 S
Zn339 O337 1.950 . S
Zn339 O346 1.938 . S
Zn339 O347 1.906 . S
Zn339 O357 1.953 . S
Zn340 O337 1.937 1_565 S
Zn340 O342 1.965 . S
Zn340 O349 1.968 1_565 S
Zn340 O350 1.892 1_565 S
O341 Zn338 1.933 . S
O341 C352 1.226 . S
O342 Zn340 1.965 . S
O342 C352 1.307 . S
O343 Zn336 1.919 . S
O343 C354 1.253 1_545 S
O344 Zn338 1.941 1_556 S
O344 C354 1.283 . S
O345 Zn338 1.965 1_556 S
O345 C353 1.303 . S
O346 Zn339 1.938 . S
O346 C353 1.247 1_544 S
O347 Zn339 1.906 . S
O347 C355 1.304 . S
O348 Zn336 1.924 1_554 S
O348 C356 1.311 . S
O349 Zn340 1.968 1_545 S
O349 C355 1.272 . S
O350 Zn340 1.892 1_545 S
O350 C356 1.231 . S
C351 O335 1.225 . S
C351 O357 1.298 1_556 S
C352 O341 1.226 . S
C352 O342 1.307 . S
C353 O345 1.303 . S
C353 O346 1.247 1_566 S
C354 O343 1.253 1_565 S
C354 O344 1.283 . S
C355 O347 1.304 . S
C355 O349 1.272 . S
C356 O348 1.311 . S
C356 O350 1.231 . S
O357 Zn339 1.953 . S
O357 C351 1.298 1_554 S
O358 Zn359 1.953 . S
O358 C374 1.225 . S
Zn359 O358 1.953 . S
Zn359 O360 1.949 . S
Zn359 O366 1.919 . S
Zn359 O371 1.924 . S
O360 Zn359 1.949 . S
O360 Zn361 1.923 . S
O360 Zn362 1.950 . S
O360 Zn363 1.945 . S
Zn361 O360 1.923 . S
Zn361 O364 1.933 . S
Zn361 O367 1.941 . S
Zn361 O368 1.965 . S
Zn362 O360 1.950 . S
Zn362 O369 1.938 . S
Zn362 O370 1.906 . S
Zn362 O380 1.953 . S
Zn363 O360 1.945 . S
Zn363 O365 1.932 . S
Zn363 O372 1.977 . S
Zn363 O373 1.910 . S
O364 Zn361 1.933 . S
O364 C375 1.226 . S
O365 Zn363 1.932 . S
O365 C375 1.307 . S
O366 Zn359 1.919 . S
O366 C377 1.253 . S
O367 Zn361 1.941 . S
O367 C377 1.283 . S
O368 Zn361 1.965 . S
O368 C376 1.303 . S
O369 Zn362 1.938 . S
O369 C376 1.247 . S
O370 Zn362 1.906 . S
O370 C378 1.304 . S
O371 Zn359 1.924 . S
O371 C379 1.311 . S
O372 Zn363 1.977 . S
O372 C378 1.272 . S
O373 Zn363 1.910 . S
O373 C379 1.231 . S
C374 O358 1.225 . S
C374 O380 1.298 . S
C375 O364 1.226 . S
C375 O365 1.307 . S
C376 O368 1.303 . S
C376 O369 1.247 . S
C377 O366 1.253 . S
C377 O367 1.283 . S
C378 O370 1.304 . S
C378 O372 1.272 . S
C379 O371 1.311 . S
C379 O373 1.231 . S
O380 Zn362 1.953 . S
O380 C374 1.298 . S
O381 Zn382 1.953 . S
O381 C397 1.225 . S
Zn382 O381 1.953 . S
Zn382 O383 1.949 1_655 S
Zn382 O389 1.919 . S
Zn382 O394 1.924 . S
O383 Zn382 1.949 1_455 S
O383 Zn384 1.923 1_454 S
O383 Zn385 1.950 . S
O383 Zn386 1.945 1_554 S
Zn384 O383 1.923 1_656 S
Zn384 O387 1.933 1_655 S
Zn384 O390 1.941 . S
Zn384 O391 1.965 . S
Zn385 O383 1.950 . S
Zn385 O392 1.938 . S
Zn385 O393 1.906 . S
Zn385 O403 1.953 . S
Zn386 O383 1.945 1_556 S
Zn386 O388 1.932 . S
Zn386 O395 1.977 1_556 S
Zn386 O396 1.910 1_556 S
O387 Zn384 1.933 1_455 S
O387 C398 1.226 . S
O388 Zn386 1.932 . S
O388 C398 1.307 . S
O389 Zn382 1.919 . S
O389 C400 1.253 1_554 S
O390 Zn384 1.941 . S
O390 C400 1.283 . S
O391 Zn384 1.965 . S
O391 C399 1.303 . S
O392 Zn385 1.938 . S
O392 C399 1.247 1_454 S
O393 Zn385 1.906 . S
O393 C401 1.304 . S
O394 Zn382 1.924 . S
O394 C402 1.311 1_655 S
O395 Zn386 1.977 1_554 S
O395 C401 1.272 . S
O396 Zn386 1.910 1_554 S
O396 C402 1.231 . S
C397 O381 1.225 . S
C397 O403 1.298 1_655 S
C398 O387 1.226 . S
C398 O388 1.307 . S
C399 O391 1.303 . S
C399 O392 1.247 1_656 S
C400 O389 1.253 1_556 S
C400 O390 1.283 . S
C401 O393 1.304 . S
C401 O395 1.272 . S
C402 O394 1.311 1_455 S
C402 O396 1.231 . S
O403 Zn385 1.953 . S
O403 C397 1.298 1_455 S
H404 C410 0.930 . S
H405 C414 0.930 . S
H406 C419 0.929 . S
H407 C417 0.929 . S
H408 C412 0.929 . S
H409 C418 0.929 . S
C410 H404 0.930 . S
C410 C411 1.367 . S
C410 C418 1.378 . S
C411 C410 1.367 . S
C411 C419 1.433 . S
C412 H408 0.929 . S
C412 C414 1.378 . S
C412 C416 1.350 . S
C413 C416 1.463 . S
C413 C418 1.350 . S
C413 N421 1.427 . S
C414 H405 0.930 . S
C414 C412 1.378 . S
C414 C415 1.367 . S
C415 C414 1.367 . S
C415 C417 1.433 . S
C416 C412 1.350 . S
C416 C413 1.463 . S
C416 N420 1.427 . S
C417 H407 0.929 . S
C417 C415 1.433 . S
C417 N420 1.384 . S
C418 H409 0.929 . S
C418 C410 1.378 . S
C418 C413 1.350 . S
C419 H406 0.929 . S
C419 C411 1.433 . S
C419 N421 1.384 . S
N420 C416 1.427 . S
N420 C417 1.384 . S
N421 C413 1.427 . S
N421 C419 1.384 . S
H422 C428 0.930 . S
H423 C432 0.930 . S
H424 C437 0.929 . S
H425 C435 0.929 . S
H426 C430 0.929 . S
H427 C436 0.929 . S
C428 H422 0.930 . S
C428 C429 1.367 . S
C428 C436 1.378 . S
C429 C428 1.367 . S
C429 C437 1.433 . S
C430 H426 0.929 . S
C430 C432 1.378 . S
C430 C434 1.350 . S
C431 C434 1.463 . S
C431 C436 1.350 . S
C431 N439 1.427 . S
C432 H423 0.930 . S
C432 C430 1.378 . S
C432 C433 1.367 . S
C433 C432 1.367 . S
C433 C435 1.433 . S
C434 C430 1.350 . S
C434 C431 1.463 . S
C434 N438 1.427 . S
C435 H425 0.929 . S
C435 C433 1.433 . S
C435 N438 1.384 . S
C436 H427 0.929 . S
C436 C428 1.378 . S
C436 C431 1.350 . S
C437 H424 0.929 . S
C437 C429 1.433 . S
C437 N439 1.384 . S
N438 C434 1.427 . S
N438 C435 1.384 . S
N439 C431 1.427 . S
N439 C437 1.384 . S
H440 C446 0.930 . S
H441 C450 0.930 . S
H442 C455 0.929 . S
H443 C453 0.929 . S
H444 C448 0.929 . S
H445 C454 0.929 . S
C446 H440 0.930 . S
C446 C447 1.367 . S
C446 C454 1.378 . S
C447 C446 1.367 . S
C447 C455 1.433 . S
C448 H444 0.929 . S
C448 C450 1.378 . S
C448 C452 1.350 . S
C449 C452 1.463 . S
C449 C454 1.350 . S
C449 N457 1.427 . S
C450 H441 0.930 . S
C450 C448 1.378 . S
C450 C451 1.367 . S
C451 C450 1.367 . S
C451 C453 1.433 . S
C452 C448 1.350 . S
C452 C449 1.463 . S
C452 N456 1.427 . S
C453 H443 0.929 . S
C453 C451 1.433 . S
C453 N456 1.384 . S
C454 H445 0.929 . S
C454 C446 1.378 . S
C454 C449 1.350 . S
C455 H442 0.929 . S
C455 C447 1.433 . S
C455 N457 1.384 . S
N456 C452 1.427 . S
N456 C453 1.384 . S
N457 C449 1.427 . S
N457 C455 1.384 . S
H458 C464 0.930 . S
H459 C468 0.930 . S
H460 C473 0.929 . S
H461 C471 0.929 . S
H462 C466 0.929 . S
H463 C472 0.929 . S
C464 H458 0.930 . S
C464 C465 1.367 . S
C464 C472 1.378 . S
C465 C464 1.367 . S
C465 C473 1.433 . S
C466 H462 0.929 . S
C466 C468 1.378 . S
C466 C470 1.350 . S
C467 C470 1.463 . S
C467 C472 1.350 . S
C467 N475 1.427 . S
C468 H459 0.930 . S
C468 C466 1.378 . S
C468 C469 1.367 . S
C469 C468 1.367 . S
C469 C471 1.433 . S
C470 C466 1.350 . S
C470 C467 1.463 . S
C470 N474 1.427 . S
C471 H461 0.929 . S
C471 C469 1.433 . S
C471 N474 1.384 . S
C472 H463 0.929 . S
C472 C464 1.378 . S
C472 C467 1.350 . S
C473 H460 0.929 . S
C473 C465 1.433 . S
C473 N475 1.384 . S
N474 C470 1.427 . S
N474 C471 1.384 . S
N475 C467 1.427 . S
N475 C473 1.384 . S
H476 C482 0.930 . S
H477 C486 0.930 . S
H478 C491 0.929 . S
H479 C489 0.929 . S
H480 C484 0.929 . S
H481 C490 0.929 . S
C482 H476 0.930 . S
C482 C483 1.367 . S
C482 C490 1.378 . S
C483 C482 1.367 . S
C483 C491 1.433 . S
C484 H480 0.929 . S
C484 C486 1.378 . S
C484 C488 1.350 . S
C485 C488 1.463 . S
C485 C490 1.350 . S
C485 N493 1.427 . S
C486 H477 0.930 . S
C486 C484 1.378 . S
C486 C487 1.367 . S
C487 C486 1.367 . S
C487 C489 1.433 . S
C488 C484 1.350 . S
C488 C485 1.463 . S
C488 N492 1.427 . S
C489 H479 0.929 . S
C489 C487 1.433 . S
C489 N492 1.384 . S
C490 H481 0.929 . S
C490 C482 1.378 . S
C490 C485 1.350 . S
C491 H478 0.929 . S
C491 C483 1.433 . S
C491 N493 1.384 . S
N492 C488 1.427 . S
N492 C489 1.384 . S
N493 C485 1.427 . S
N493 C491 1.384 . S
H494 C500 0.930 . S
H495 C504 0.930 . S
H496 C509 0.929 . S
H497 C507 0.949 . S
H498 C502 0.929 . S
H499 C508 0.929 . S
C500 H494 0.930 . S
C500 C501 1.367 . S
C500 C508 1.378 . S
C501 C500 1.367 . S
C501 C509 1.433 . S
C502 H498 0.929 . S
C502 C504 1.378 . S
C502 C506 1.350 . S
C503 C506 1.463 . S
C503 C508 1.350 . S
C503 N511 1.427 . S
C504 H495 0.930 . S
C504 C502 1.378 . S
C504 C505 1.367 . S
C505 C504 1.367 . S
C505 C507 1.433 . S
C506 C502 1.350 . S
C506 C503 1.463 . S
C506 N510 1.427 . S
C507 H497 0.949 . S
C507 C505 1.433 . S
C507 N510 1.384 . S
C508 H499 0.929 . S
C508 C500 1.378 . S
C508 C503 1.350 . S
C509 H496 0.929 . S
C509 C501 1.433 . S
C509 N511 1.384 . S
N510 C506 1.427 . S
N510 C507 1.384 . S
N511 C503 1.427 . S
N511 C509 1.384 . S
H512 C518 0.930 . S
H513 C522 0.930 . S
H514 C527 0.929 . S
H515 C525 0.929 . S
H516 C520 0.929 . S
H517 C526 0.929 . S
C518 H512 0.930 . S
C518 C519 1.367 . S
C518 C526 1.378 . S
C519 C518 1.367 . S
C519 C527 1.433 . S
C520 H516 0.929 . S
C520 C522 1.378 . S
C520 C524 1.350 . S
C521 C524 1.463 . S
C521 C526 1.350 . S
C521 N529 1.427 . S
C522 H513 0.930 . S
C522 C520 1.378 . S
C522 C523 1.367 . S
C523 C522 1.367 . S
C523 C525 1.433 . S
C524 C520 1.350 . S
C524 C521 1.463 . S
C524 N528 1.427 . S
C525 H515 0.929 . S
C525 C523 1.433 . S
C525 N528 1.384 . S
C526 H517 0.929 . S
C526 C518 1.378 . S
C526 C521 1.350 . S
C527 H514 0.929 . S
C527 C519 1.433 . S
C527 N529 1.384 . S
N528 C524 1.427 . S
N528 C525 1.384 . S
N529 C521 1.427 . S
N529 C527 1.384 . S
H530 C536 0.930 . S
H531 C540 0.930 . S
H532 C545 0.929 . S
H533 C543 0.929 . S
H534 C538 0.929 . S
H535 C544 0.929 . S
C536 H530 0.930 . S
C536 C537 1.367 . S
C536 C544 1.378 . S
C537 C536 1.367 . S
C537 C545 1.433 . S
C538 H534 0.929 . S
C538 C540 1.378 . S
C538 C542 1.350 . S
C539 C542 1.463 . S
C539 C544 1.350 . S
C539 N547 1.427 . S
C540 H531 0.930 . S
C540 C538 1.378 . S
C540 C541 1.367 . S
C541 C540 1.367 . S
C541 C543 1.433 . S
C542 C538 1.350 . S
C542 C539 1.463 . S
C542 N546 1.427 . S
C543 H533 0.929 . S
C543 C541 1.433 . S
C543 N546 1.384 . S
C544 H535 0.929 . S
C544 C536 1.378 . S
C544 C539 1.350 . S
C545 H532 0.929 . S
C545 C537 1.433 . S
C545 N547 1.384 . S
N546 C542 1.427 . S
N546 C543 1.384 . S
N547 C539 1.427 . S
N547 C545 1.384 . S
H548 C554 0.930 . S
H549 C558 0.930 . S
H550 C563 0.929 . S
H551 C561 0.929 . S
H552 C556 0.929 . S
H553 C562 0.929 . S
C554 H548 0.930 . S
C554 C555 1.367 . S
C554 C562 1.378 . S
C555 C554 1.367 . S
C555 C563 1.433 . S
C556 H552 0.929 . S
C556 C558 1.378 . S
C556 C560 1.350 . S
C557 C560 1.463 . S
C557 C562 1.350 . S
C557 N565 1.427 . S
C558 H549 0.930 . S
C558 C556 1.378 . S
C558 C559 1.367 . S
C559 C558 1.367 . S
C559 C561 1.433 . S
C560 C556 1.350 . S
C560 C557 1.463 . S
C560 N564 1.427 . S
C561 H551 0.929 . S
C561 C559 1.433 . S
C561 N564 1.384 . S
C562 H553 0.929 . S
C562 C554 1.378 . S
C562 C557 1.350 . S
C563 H550 0.929 . S
C563 C555 1.433 . S
C563 N565 1.384 . S
N564 C560 1.427 . S
N564 C561 1.384 . S
N565 C557 1.427 . S
N565 C563 1.384 . S
H566 C572 0.930 . S
H567 C576 0.930 . S
H568 C581 0.929 . S
H569 C579 0.929 . S
H570 C574 0.929 1_554 S
H571 C580 0.929 . S
C572 H566 0.930 . S
C572 C573 1.367 . S
C572 C580 1.378 . S
C573 C572 1.367 . S
C573 C581 1.433 . S
C574 H570 0.929 1_556 S
C574 C576 1.378 1_556 S
C574 C578 1.350 . S
C575 C578 1.463 . S
C575 C580 1.350 . S
C575 N583 1.427 . S
C576 H567 0.930 . S
C576 C574 1.378 1_554 S
C576 C577 1.367 1_554 S
C577 C576 1.367 1_556 S
C577 C579 1.433 . S
C578 C574 1.350 . S
C578 C575 1.463 . S
C578 N582 1.427 . S
C579 H569 0.929 . S
C579 C577 1.433 . S
C579 N582 1.384 . S
C580 H571 0.929 . S
C580 C572 1.378 . S
C580 C575 1.350 . S
C581 H568 0.929 . S
C581 C573 1.433 . S
C581 N583 1.384 . S
N582 C578 1.427 . S
N582 C579 1.384 . S
N583 C575 1.427 . S
N583 C581 1.384 . S
H584 C590 0.930 . S
H585 C594 0.930 . S
H586 C599 0.929 . S
H587 C597 0.929 . S
H588 C592 0.929 . S
H589 C598 0.929 . S
C590 H584 0.930 . S
C590 C591 1.367 . S
C590 C598 1.378 . S
C591 C590 1.367 . S
C591 C599 1.433 . S
C592 H588 0.929 . S
C592 C594 1.378 . S
C592 C596 1.350 . S
C593 C596 1.463 . S
C593 C598 1.350 . S
C593 N601 1.427 . S
C594 H585 0.930 . S
C594 C592 1.378 . S
C594 C595 1.367 . S
C595 C594 1.367 . S
C595 C597 1.433 . S
C596 C592 1.350 . S
C596 C593 1.463 . S
C596 N600 1.427 . S
C597 H587 0.929 . S
C597 C595 1.433 . S
C597 N600 1.384 . S
C598 H589 0.929 . S
C598 C590 1.378 . S
C598 C593 1.350 . S
C599 H586 0.929 . S
C599 C591 1.433 . S
C599 N601 1.384 . S
N600 C596 1.427 . S
N600 C597 1.384 . S
N601 C593 1.427 . S
N601 C599 1.384 . S
H602 C608 0.930 . S
H603 C612 0.930 . S
H604 C617 0.929 . S
H605 C615 0.929 . S
H606 C610 0.929 . S
H607 C616 0.929 . S
C608 H602 0.930 . S
C608 C609 1.367 . S
C608 C616 1.378 . S
C609 C608 1.367 . S
C609 C617 1.433 . S
C610 H606 0.929 . S
C610 C612 1.378 . S
C610 C614 1.350 . S
C611 C614 1.463 . S
C611 C616 1.350 . S
C611 N619 1.427 . S
C612 H603 0.930 . S
C612 C610 1.378 . S
C612 C613 1.367 . S
C613 C612 1.367 . S
C613 C615 1.433 . S
C614 C610 1.350 . S
C614 C611 1.463 . S
C614 N618 1.427 . S
C615 H605 0.929 . S
C615 C613 1.433 . S
C615 N618 1.384 . S
C616 H607 0.929 . S
C616 C608 1.378 . S
C616 C611 1.350 . S
C617 H604 0.929 . S
C617 C609 1.433 . S
C617 N619 1.384 . S
N618 C614 1.427 . S
N618 C615 1.384 . S
N619 C611 1.427 . S
N619 C617 1.384 . S
H620 C626 0.930 . S
H621 C630 0.930 1_455 S
H622 C635 0.929 . S
H623 C633 0.929 . S
H624 C628 0.929 1_455 S
H625 C634 0.929 . S
C626 H620 0.930 . S
C626 C627 1.367 . S
C626 C634 1.378 . S
C627 C626 1.367 . S
C627 C635 1.433 1_565 S
C628 H624 0.929 1_655 S
C628 C630 1.378 . S
C628 C632 1.350 1_545 S
C629 C632 1.463 . S
C629 C634 1.350 . S
C629 N637 1.427 1_565 S
C630 H621 0.930 1_655 S
C630 C628 1.378 . S
C630 C631 1.367 . S
C631 C630 1.367 . S
C631 C633 1.433 1_545 S
C632 C628 1.350 1_565 S
C632 C629 1.463 . S
C632 N636 1.427 . S
C633 H623 0.929 . S
C633 C631 1.433 1_565 S
C633 N636 1.384 . S
C634 H625 0.929 . S
C634 C626 1.378 . S
C634 C629 1.350 . S
C635 H622 0.929 . S
C635 C627 1.433 1_545 S
C635 N637 1.384 . S
N636 C632 1.427 . S
N636 C633 1.384 . S
N637 C629 1.427 1_545 S
N637 C635 1.384 . S
H638 C644 0.930 . S
H639 C648 0.939 . S
H640 C653 0.920 1_565 S
H641 C651 0.929 . S
H642 C646 0.929 1_565 S
H643 C652 0.929 . S
C644 H638 0.930 . S
C644 C645 1.367 . S
C644 C652 1.378 . S
C645 C644 1.367 . S
C645 C653 1.433 . S
C646 H642 0.929 1_545 S
C646 C648 1.377 1_545 S
C646 C650 1.350 . S
C647 C650 1.463 . S
C647 C652 1.350 . S
C647 N655 1.427 . S
C648 H639 0.939 . S
C648 C646 1.377 1_565 S
C648 C649 1.359 1_565 S
C649 C648 1.359 1_545 S
C649 C651 1.433 . S
C650 C646 1.350 . S
C650 C647 1.463 . S
C650 N654 1.427 . S
C651 H641 0.929 . S
C651 C649 1.433 . S
C651 N654 1.384 . S
C652 H643 0.929 . S
C652 C644 1.378 . S
C652 C647 1.350 . S
C653 H640 0.920 1_545 S
C653 C645 1.433 . S
C653 N655 1.384 . S
N654 C650 1.427 . S
N654 C651 1.384 . S
N655 C647 1.427 . S
N655 C653 1.384 . S
H656 C662 0.930 . S
H657 C666 0.930 . S
H658 C671 0.929 . S
H659 C669 0.929 . S
H660 C664 0.929 . S
H661 C670 0.929 . S
C662 H656 0.930 . S
C662 C663 1.367 . S
C662 C670 1.378 . S
C663 C662 1.367 . S
C663 C671 1.433 . S
C664 H660 0.929 . S
C664 C666 1.378 . S
C664 C668 1.350 . S
C665 C668 1.463 . S
C665 C670 1.350 . S
C665 N673 1.427 . S
C666 H657 0.930 . S
C666 C664 1.378 . S
C666 C667 1.367 . S
C667 C666 1.367 . S
C667 C669 1.433 . S
C668 C664 1.350 . S
C668 C665 1.463 . S
C668 N672 1.427 . S
C669 H659 0.929 . S
C669 C667 1.433 . S
C669 N672 1.384 . S
C670 H661 0.929 . S
C670 C662 1.378 . S
C670 C665 1.350 . S
C671 H658 0.929 . S
C671 C663 1.433 . S
C671 N673 1.384 . S
N672 C668 1.427 . S
N672 C669 1.384 . S
N673 C665 1.427 . S
N673 C671 1.384 . S
H674 C680 0.930 . S
H675 C684 0.930 . S
H676 C689 0.929 . S
H677 C687 0.929 . S
H678 C682 0.929 . S
H679 C688 0.929 . S
C680 H674 0.930 . S
C680 C681 1.367 . S
C680 C688 1.378 . S
C681 C680 1.367 . S
C681 C689 1.433 . S
C682 H678 0.929 . S
C682 C684 1.378 . S
C682 C686 1.350 . S
C683 C686 1.463 . S
C683 C688 1.350 . S
C683 N691 1.427 . S
C684 H675 0.930 . S
C684 C682 1.378 . S
C684 C685 1.367 . S
C685 C684 1.367 . S
C685 C687 1.433 . S
C686 C682 1.350 . S
C686 C683 1.463 . S
C686 N690 1.427 . S
C687 H677 0.929 . S
C687 C685 1.433 . S
C687 N690 1.384 . S
C688 H679 0.929 . S
C688 C680 1.378 . S
C688 C683 1.350 . S
C689 H676 0.929 . S
C689 C681 1.433 . S
C689 N691 1.384 . S
N690 C686 1.427 . S
N690 C687 1.384 . S
N691 C683 1.427 . S
N691 C689 1.384 . S
H692 C698 0.930 . S
H693 C702 0.930 1_554 S
H694 C707 0.929 . S
H695 C705 0.929 . S
H696 C700 0.929 1_554 S
H697 C706 0.929 . S
C698 H692 0.930 . S
C698 C699 1.367 1_545 S
C698 C706 1.378 . S
C699 C698 1.367 1_565 S
C699 C707 1.433 . S
C700 H696 0.929 1_556 S
C700 C702 1.378 . S
C700 C704 1.350 . S
C701 C704 1.463 . S
C701 C706 1.350 1_565 S
C701 N709 1.427 . S
C702 H693 0.930 1_556 S
C702 C700 1.378 . S
C702 C703 1.367 . S
C703 C702 1.367 . S
C703 C705 1.433 1_565 S
C704 C700 1.350 . S
C704 C701 1.463 . S
C704 N708 1.427 1_565 S
C705 H695 0.929 . S
C705 C703 1.433 1_545 S
C705 N708 1.384 . S
C706 H697 0.929 . S
C706 C698 1.378 . S
C706 C701 1.350 1_545 S
C707 H694 0.929 . S
C707 C699 1.433 . S
C707 N709 1.384 . S
N708 C704 1.427 1_545 S
N708 C705 1.384 . S
N709 C701 1.427 . S
N709 C707 1.384 . S
H710 C716 0.930 . S
H711 C720 0.930 . S
H712 C725 0.929 . S
H713 C723 0.929 . S
H714 C718 0.929 . S
H715 C724 0.929 . S
C716 H710 0.930 . S
C716 C717 1.367 . S
C716 C724 1.378 . S
C717 C716 1.367 . S
C717 C725 1.433 . S
C718 H714 0.929 . S
C718 C720 1.378 . S
C718 C722 1.350 . S
C719 C722 1.463 . S
C719 C724 1.350 . S
C719 N727 1.427 . S
C720 H711 0.930 . S
C720 C718 1.378 . S
C720 C721 1.367 . S
C721 C720 1.367 . S
C721 C723 1.433 . S
C722 C718 1.350 . S
C722 C719 1.463 . S
C722 N726 1.427 . S
C723 H713 0.929 . S
C723 C721 1.433 . S
C723 N726 1.384 . S
C724 H715 0.929 . S
C724 C716 1.378 . S
C724 C719 1.350 . S
C725 H712 0.929 . S
C725 C717 1.433 . S
C725 N727 1.384 . S
N726 C722 1.427 . S
N726 C723 1.384 . S
N727 C719 1.427 . S
N727 C725 1.384 . S
H728 C734 0.930 . S
H729 C738 0.930 . S
H730 C743 0.929 . S
H731 C741 0.929 . S
H732 C736 0.929 . S
H733 C742 0.929 . S
C734 H728 0.930 . S
C734 C735 1.367 . S
C734 C742 1.378 . S
C735 C734 1.367 . S
C735 C743 1.433 . S
C736 H732 0.929 . S
C736 C738 1.378 . S
C736 C740 1.350 . S
C737 C740 1.463 . S
C737 C742 1.350 . S
C737 N745 1.427 . S
C738 H729 0.930 . S
C738 C736 1.378 . S
C738 C739 1.367 . S
C739 C738 1.367 . S
C739 C741 1.433 1_554 S
C740 C736 1.350 . S
C740 C737 1.463 . S
C740 N744 1.427 . S
C741 H731 0.929 . S
C741 C739 1.433 1_556 S
C741 N744 1.384 1_556 S
C742 H733 0.929 . S
C742 C734 1.378 . S
C742 C737 1.350 . S
C743 H730 0.929 . S
C743 C735 1.433 . S
C743 N745 1.384 . S
N744 C740 1.427 . S
N744 C741 1.384 1_554 S
N745 C737 1.427 . S
N745 C743 1.384 . S
H746 C752 0.930 . S
H747 C756 0.930 . S
H748 C761 0.929 . S
H749 C759 0.929 . S
H750 C754 0.929 . S
H751 C760 0.929 . S
C752 H746 0.930 . S
C752 C753 1.367 . S
C752 C760 1.378 . S
C753 C752 1.367 . S
C753 C761 1.433 . S
C754 H750 0.929 . S
C754 C756 1.378 . S
C754 C758 1.350 . S
C755 C758 1.463 . S
C755 C760 1.350 . S
C755 N763 1.427 . S
C756 H747 0.930 . S
C756 C754 1.378 . S
C756 C757 1.367 . S
C757 C756 1.367 . S
C757 C759 1.433 . S
C758 C754 1.350 . S
C758 C755 1.463 . S
C758 N762 1.427 . S
C759 H749 0.929 . S
C759 C757 1.433 . S
C759 N762 1.384 . S
C760 H751 0.929 . S
C760 C752 1.378 . S
C760 C755 1.350 . S
C761 H748 0.929 . S
C761 C753 1.433 . S
C761 N763 1.384 . S
N762 C758 1.427 . S
N762 C759 1.384 . S
N763 C755 1.427 . S
N763 C761 1.384 . S
H764 C770 0.930 1_554 S
H765 C774 0.930 1_455 S
H766 C779 0.929 . S
H767 C777 0.929 . S
H768 C772 0.929 1_455 S
H769 C778 0.929 1_554 S
C770 H764 0.930 1_556 S
C770 C771 1.367 . S
C770 C778 1.378 . S
C771 C770 1.367 . S
C771 C779 1.433 . S
C772 H768 0.929 1_655 S
C772 C774 1.378 . S
C772 C776 1.350 . S
C773 C776 1.463 . S
C773 C778 1.350 . S
C773 N781 1.427 . S
C774 H765 0.930 1_655 S
C774 C772 1.378 . S
C774 C775 1.367 . S
C775 C774 1.367 . S
C775 C777 1.433 1_556 S
C776 C772 1.350 . S
C776 C773 1.463 . S
C776 N780 1.409 1_556 S
C777 H767 0.929 . S
C777 C775 1.433 1_554 S
C777 N780 1.387 . S
C778 H769 0.929 1_556 S
C778 C770 1.378 . S
C778 C773 1.350 . S
C779 H766 0.929 . S
C779 C771 1.433 . S
C779 N781 1.384 . S
N780 C776 1.409 1_554 S
N780 C777 1.387 . S
N781 C773 1.427 . S
N781 C779 1.384 . S
H782 C788 0.930 . S
H783 C792 0.930 . S
H784 C797 0.929 . S
H785 C795 0.929 . S
H786 C790 0.929 . S
H787 C796 0.929 . S
C788 H782 0.930 . S
C788 C789 1.367 . S
C788 C796 1.378 . S
C789 C788 1.367 . S
C789 C797 1.433 . S
C790 H786 0.929 . S
C790 C792 1.378 . S
C790 C794 1.350 . S
C791 C794 1.463 . S
C791 C796 1.350 . S
C791 N799 1.427 . S
C792 H783 0.930 . S
C792 C790 1.378 . S
C792 C793 1.367 . S
C793 C792 1.367 . S
C793 C795 1.433 . S
C794 C790 1.350 . S
C794 C791 1.463 . S
C794 N798 1.427 . S
C795 H785 0.929 . S
C795 C793 1.433 . S
C795 N798 1.384 . S
C796 H787 0.929 . S
C796 C788 1.378 . S
C796 C791 1.350 . S
C797 H784 0.929 . S
C797 C789 1.433 . S
C797 N799 1.384 . S
N798 C794 1.427 . S
N798 C795 1.384 . S
N799 C791 1.427 . S
N799 C797 1.384 . S
H800 C806 0.930 . S
H801 C810 0.930 . S
H802 C815 0.929 . S
H803 C813 0.929 . S
H804 C808 0.929 . S
H805 C814 0.929 . S
C806 H800 0.930 . S
C806 C807 1.367 . S
C806 C814 1.378 . S
C807 C806 1.367 . S
C807 C815 1.433 . S
C808 H804 0.929 . S
C808 C810 1.378 . S
C808 C812 1.350 . S
C809 C812 1.463 . S
C809 C814 1.350 . S
C809 N817 1.427 . S
C810 H801 0.930 . S
C810 C808 1.378 . S
C810 C811 1.367 . S
C811 C810 1.367 . S
C811 C813 1.433 . S
C812 C808 1.350 . S
C812 C809 1.463 . S
C812 N816 1.427 . S
C813 H803 0.929 . S
C813 C811 1.433 . S
C813 N816 1.384 . S
C814 H805 0.929 . S
C814 C806 1.378 . S
C814 C809 1.350 . S
C815 H802 0.929 . S
C815 C807 1.433 . S
C815 N817 1.384 . S
N816 C812 1.427 . S
N816 C813 1.384 . S
N817 C809 1.427 . S
N817 C815 1.384 . S
H818 C824 0.930 . S
H819 C828 0.930 . S
H820 C833 0.929 . S
H821 C831 0.929 . S
H822 C826 0.929 . S
H823 C832 0.929 . S
C824 H818 0.930 . S
C824 C825 1.367 . S
C824 C832 1.378 . S
C825 C824 1.367 . S
C825 C833 1.433 . S
C826 H822 0.929 . S
C826 C828 1.378 . S
C826 C830 1.350 . S
C827 C830 1.463 . S
C827 C832 1.350 . S
C827 N835 1.427 . S
C828 H819 0.930 . S
C828 C826 1.378 . S
C828 C829 1.367 . S
C829 C828 1.367 . S
C829 C831 1.433 . S
C830 C826 1.350 . S
C830 C827 1.463 . S
C830 N834 1.427 . S
C831 H821 0.929 . S
C831 C829 1.433 . S
C831 N834 1.384 . S
C832 H823 0.929 . S
C832 C824 1.378 . S
C832 C827 1.350 . S
C833 H820 0.929 . S
C833 C825 1.433 . S
C833 N835 1.384 . S
N834 C830 1.427 . S
N834 C831 1.384 . S
N835 C827 1.427 . S
N835 C833 1.384 . S
C411 C1 1.614 . S
C415 C330 1.593 . S
C429 C40 1.596 . S
C433 C354 1.566 . S
C451 C374 1.448 . S
C447 C99 1.436 . S
C465 C118 1.434 . S
C469 C397 1.453 . S
C487 C356 1.679 . S
C483 C16 1.717 . S
C505 C332 1.662 . S
C501 C60 1.696 . S
C523 C400 1.594 . S
C519 C79 1.642 . S
C541 C377 1.552 . S
C537 C138 1.589 . S
C555 C21 1.401 . S
C559 C402 1.370 . S
C577 C351 1.670 . S
C573 C94 1.649 . S
C591 C133 1.621 . S
C595 C329 1.638 . S
C609 C55 1.387 . S
C613 C379 1.347 . S
C631 C333 1.737 . S
C627 C157 1.691 . S
C645 C196 1.652 . S
C649 C355 1.667 . S
C663 C255 1.786 . S
C667 C375 1.826 . S
C681 C289 1.801 . S
C685 C398 1.828 . S
C699 C172 1.631 . S
C703 C353 1.613 . S
C721 C331 1.651 . S
C717 C216 1.622 . S
C739 C401 1.529 . S
C735 C235 1.551 . S
C757 C378 1.539 . S
C753 C294 1.553 . S
C771 C177 1.919 . S
C775 C399 1.905 . S
C793 C352 1.631 . S
C789 C250 1.604 . S
C811 C328 1.621 . S
C807 C274 1.590 . S
C825 C211 1.903 . S
C829 C376 1.884 . S
