# Generated by pormake.
# Topology pto, (3,4)-cn, num edge types: 1
# Building blocks:
#     Node 0, Type 0, BuildingBlock: CUQRIR_clean_linker_1, # of connection points: 3
#     Node 1, Type 0, BuildingBlock: CUQRIR_clean_linker_1, # of connection points: 3
#     Node 2, Type 0, BuildingBlock: CUQRIR_clean_linker_1, # of connection points: 3
#     Node 3, Type 0, BuildingBlock: CUQRIR_clean_linker_1, # of connection points: 3
#     Node 4, Type 0, BuildingBlock: CUQRIR_clean_linker_1, # of connection points: 3
#     Node 5, Type 0, BuildingBlock: CUQRIR_clean_linker_1, # of connection points: 3
#     Node 6, Type 0, BuildingBlock: CUQRIR_clean_linker_1, # of connection points: 3
#     Node 7, Type 0, BuildingBlock: CUQRIR_clean_linker_1, # of connection points: 3
#     Node 8, Type 1, BuildingBlock: KOZSID_clean_sbu_0, # of connection points: 4
#     Node 9, Type 1, BuildingBlock: KOZSID_clean_sbu_0, # of connection points: 4
#     Node 10, Type 1, BuildingBlock: KOZSID_clean_sbu_0, # of connection points: 4
#     Node 11, Type 1, BuildingBlock: KOZSID_clean_sbu_0, # of connection points: 4
#     Node 12, Type 1, BuildingBlock: KOZSID_clean_sbu_0, # of connection points: 4
#     Node 13, Type 1, BuildingBlock: KOZSID_clean_sbu_0, # of connection points: 4
#     Edge 14, Type (0, 1), BuildingBlock: EZIPEK_clean_linker_0, # of connection points: 2
#     Edge 15, Type (0, 1), BuildingBlock: EZIPEK_clean_linker_0, # of connection points: 2
#     Edge 16, Type (0, 1), BuildingBlock: EZIPEK_clean_linker_0, # of connection points: 2
#     Edge 17, Type (0, 1), BuildingBlock: EZIPEK_clean_linker_0, # of connection points: 2
#     Edge 18, Type (0, 1), BuildingBlock: EZIPEK_clean_linker_0, # of connection points: 2
#     Edge 19, Type (0, 1), BuildingBlock: EZIPEK_clean_linker_0, # of connection points: 2
#     Edge 20, Type (0, 1), BuildingBlock: EZIPEK_clean_linker_0, # of connection points: 2
#     Edge 21, Type (0, 1), BuildingBlock: EZIPEK_clean_linker_0, # of connection points: 2
#     Edge 22, Type (0, 1), BuildingBlock: EZIPEK_clean_linker_0, # of connection points: 2
#     Edge 23, Type (0, 1), BuildingBlock: EZIPEK_clean_linker_0, # of connection points: 2
#     Edge 24, Type (0, 1), BuildingBlock: EZIPEK_clean_linker_0, # of connection points: 2
#     Edge 25, Type (0, 1), BuildingBlock: EZIPEK_clean_linker_0, # of connection points: 2
#     Edge 26, Type (0, 1), BuildingBlock: EZIPEK_clean_linker_0, # of connection points: 2
#     Edge 27, Type (0, 1), BuildingBlock: EZIPEK_clean_linker_0, # of connection points: 2
#     Edge 28, Type (0, 1), BuildingBlock: EZIPEK_clean_linker_0, # of connection points: 2
#     Edge 29, Type (0, 1), BuildingBlock: EZIPEK_clean_linker_0, # of connection points: 2
#     Edge 30, Type (0, 1), BuildingBlock: EZIPEK_clean_linker_0, # of connection points: 2
#     Edge 31, Type (0, 1), BuildingBlock: EZIPEK_clean_linker_0, # of connection points: 2
#     Edge 32, Type (0, 1), BuildingBlock: EZIPEK_clean_linker_0, # of connection points: 2
#     Edge 33, Type (0, 1), BuildingBlock: EZIPEK_clean_linker_0, # of connection points: 2
#     Edge 34, Type (0, 1), BuildingBlock: EZIPEK_clean_linker_0, # of connection points: 2
#     Edge 35, Type (0, 1), BuildingBlock: EZIPEK_clean_linker_0, # of connection points: 2
#     Edge 36, Type (0, 1), BuildingBlock: EZIPEK_clean_linker_0, # of connection points: 2
#     Edge 37, Type (0, 1), BuildingBlock: EZIPEK_clean_linker_0, # of connection points: 2
# Relax obj value: 0.021
# Max RMSD: 0.186
# Mean RMSD: 0.077
data_MOF--net-pto--node1-KOZSID_clean_sbu_0--node2-CUQRIR_clean_linker_1--edge1-EZIPEK_clean_linker_0
_symmetry_space_group_name_H-M    P1
_symmetry_Int_Tables_number       1
_symmetry_cell_setting            triclinic
loop_
_symmetry_equiv_pos_as_xyz
'x, y, z'
_cell_length_a     26.685529
_cell_length_b     34.230838
_cell_length_c     30.180906
_cell_angle_alpha  76.52305
_cell_angle_beta   91.588777
_cell_angle_gamma 100.0199
loop_
_atom_site_label
_atom_site_type_symbol
_atom_site_fract_x
_atom_site_fract_y
_atom_site_fract_z
_atom_type_partial_charge
C0 C 0.30284 0.28079 0.32035 0.0
N1 N 0.32863 0.25489 0.3062 0.0
N2 N 0.29992 0.31402 0.28652 0.0
C3 C 0.28151 0.27436 0.36774 0.0
C4 C 0.3235 0.30715 0.25063 0.0
N5 N 0.3404 0.27093 0.26213 0.0
C6 C 0.33013 0.33593 0.20437 0.0
H7 H 0.2766 0.24185 0.38619 0.0
H8 H 0.2442 0.28454 0.36658 0.0
H9 H 0.3077 0.29303 0.38701 0.0
H10 H 0.33173 0.36793 0.20683 0.0
H11 H 0.29703 0.32804 0.18314 0.0
H12 H 0.3652 0.33332 0.18714 0.0
C13 C 0.29687 0.77053 0.7233 0.0
N14 N 0.33464 0.79247 0.74294 0.0
N15 N 0.28665 0.7314 0.74729 0.0
C16 C 0.27014 0.78721 0.68022 0.0
C17 C 0.31896 0.73012 0.78275 0.0
N18 N 0.34781 0.76738 0.78082 0.0
C19 C 0.32096 0.69268 0.82004 0.0
H20 H 0.23037 0.77105 0.68028 0.0
H21 H 0.29034 0.78262 0.6507 0.0
H22 H 0.27013 0.82032 0.67573 0.0
H23 H 0.31327 0.66487 0.80633 0.0
H24 H 0.291 0.69001 0.84586 0.0
H25 H 0.35849 0.69445 0.8369 0.0
C26 C 0.92599 0.80095 0.35993 0.0
N27 N 0.90493 0.77858 0.3303 0.0
N28 N 0.89958 0.83105 0.36088 0.0
C29 C 0.97257 0.79386 0.38766 0.0
C30 C 0.86195 0.82664 0.33065 0.0
N31 N 0.8656 0.79529 0.31118 0.0
C32 C 0.82204 0.8534 0.32001 0.0
H33 H 0.96058 0.77473 0.42193 0.0
H34 H 0.99474 0.82323 0.39216 0.0
H35 H 0.99703 0.77794 0.37138 0.0
H36 H 0.83802 0.88194 0.29512 0.0
H37 H 0.81113 0.86187 0.35128 0.0
H38 H 0.78775 0.83801 0.3053 0.0
C39 C 0.75116 0.23868 0.75597 0.0
N40 N 0.79044 0.25701 0.72634 0.0
N41 N 0.74539 0.26153 0.78581 0.0
C42 C 0.72014 0.19727 0.75761 0.0
C43 C 0.78218 0.29457 0.77361 0.0
N44 N 0.8094 0.29248 0.73715 0.0
C45 C 0.79085 0.32962 0.79672 0.0
H46 H 0.68045 0.19611 0.76858 0.0
H47 H 0.73681 0.17416 0.78298 0.0
H48 H 0.72008 0.18953 0.72389 0.0
H49 H 0.7757 0.32024 0.83216 0.0
H50 H 0.77114 0.3542 0.77751 0.0
H51 H 0.83208 0.34201 0.79702 0.0
C52 C 0.80338 0.74065 0.78305 0.0
N53 N 0.83167 0.76073 0.74526 0.0
N54 N 0.7936 0.76675 0.80752 0.0
C55 C 0.78858 0.69506 0.79786 0.0
C56 C 0.81752 0.80343 0.78405 0.0
N57 N 0.83954 0.80053 0.745 0.0
C58 C 0.81743 0.84256 0.7987 0.0
H59 H 0.77869 0.68183 0.76786 0.0
H60 H 0.75598 0.68627 0.82226 0.0
H61 H 0.82144 0.68217 0.81486 0.0
H62 H 0.84671 0.86753 0.77977 0.0
H63 H 0.82473 0.838 0.83577 0.0
H64 H 0.7793 0.85141 0.79269 0.0
C65 C 0.8462 0.26155 0.29805 0.0
N66 N 0.88804 0.27703 0.31901 0.0
N67 N 0.8403 0.28588 0.25674 0.0
C68 C 0.81143 0.22213 0.31793 0.0
C69 C 0.87988 0.31704 0.25312 0.0
N70 N 0.90875 0.31219 0.29111 0.0
C71 C 0.88907 0.35335 0.21336 0.0
H72 H 0.82875 0.19628 0.31279 0.0
H73 H 0.77363 0.2208 0.30155 0.0
H74 H 0.80651 0.21877 0.35506 0.0
H75 H 0.87047 0.37787 0.22043 0.0
H76 H 0.87285 0.34534 0.18174 0.0
H77 H 0.93044 0.36525 0.20835 0.0
C78 C 0.28357 0.29935 0.75902 0.0
N79 N 0.30597 0.26671 0.75895 0.0
N80 N 0.25686 0.30915 0.72061 0.0
C81 C 0.28649 0.3212 0.79719 0.0
C82 C 0.26429 0.28186 0.69649 0.0
N83 N 0.295 0.25631 0.71929 0.0
C84 C 0.24146 0.28029 0.6507 0.0
H85 H 0.25182 0.30944 0.81896 0.0
H86 H 0.28778 0.35436 0.78357 0.0
H87 H 0.32048 0.31646 0.81845 0.0
H88 H 0.26629 0.30217 0.62386 0.0
H89 H 0.2034 0.28941 0.64815 0.0
H90 H 0.23815 0.24931 0.64432 0.0
C91 C 0.35782 0.79472 0.34442 0.0
N92 N 0.36343 0.77657 0.30977 0.0
N93 N 0.38609 0.83251 0.33663 0.0
C94 C 0.32293 0.77639 0.38501 0.0
C95 C 0.4097 0.8368 0.2963 0.0
N96 N 0.3964 0.80272 0.27997 0.0
C97 C 0.44701 0.87383 0.27365 0.0
H98 H 0.28722 0.78919 0.37922 0.0
H99 H 0.34063 0.7844 0.41612 0.0
H100 H 0.31358 0.74272 0.39058 0.0
H101 H 0.43584 0.90196 0.27953 0.0
H102 H 0.44981 0.87615 0.23648 0.0
H103 H 0.48504 0.87146 0.28878 0.0
C104 C 0.19989 0.60479 0.34805 0.0
C105 C 0.21658 0.61219 0.38981 0.0
C106 C 0.18148 0.58912 0.42178 0.0
C107 C 0.14561 0.56878 0.39796 0.0
N108 N 0.15628 0.57695 0.35297 0.0
Co109 Co 0.11366 0.55394 0.3067 0.0
N110 N 0.07355 0.51084 0.35464 0.0
C111 C 0.07196 0.50994 0.3994 0.0
C112 C 0.04409 0.47454 0.4245 0.0
C113 C 0.02704 0.45176 0.3936 0.0
C114 C 0.04507 0.47487 0.35117 0.0
N115 N 0.07025 0.53155 0.26089 0.0
C116 C 0.03869 0.49531 0.26561 0.0
C117 C 0.01402 0.49224 0.22517 0.0
C118 C 0.03109 0.52794 0.194 0.0
C119 C 0.06495 0.55071 0.21717 0.0
N120 N 0.15468 0.59658 0.2585 0.0
C121 C 0.14179 0.60747 0.2144 0.0
C122 C 0.17601 0.63888 0.18925 0.0
C123 C 0.21231 0.64906 0.21949 0.0
C124 C 0.1981 0.62325 0.26162 0.0
N125 N 0.16119 0.51663 0.30455 0.0
C126 C 0.2151 0.45389 0.30223 0.0
C127 C 0.19944 0.47783 0.26189 0.0
C128 C 0.17298 0.50928 0.26375 0.0
C129 C 0.20611 0.46346 0.34356 0.0
C130 C 0.17892 0.49485 0.344 0.0
N131 N 0.06501 0.59069 0.30861 0.0
C132 C 0.04937 0.65861 0.30447 0.0
C133 C 0.99743 0.64421 0.31209 0.0
C134 C 0.97934 0.60248 0.31662 0.0
C135 C 0.01386 0.57619 0.31492 0.0
C136 C 0.08206 0.63156 0.30233 0.0
H137 H 0.99905 0.54424 0.31841 0.0
H138 H 0.12105 0.64398 0.2948 0.0
H139 H 0.1602 0.5265 0.23222 0.0
H140 H 0.17052 0.5003 0.37648 0.0
C141 C 0.1052 0.53835 0.41738 0.0
C142 C 0.22219 0.62951 0.30443 0.0
C143 C 0.03094 0.46355 0.30793 0.0
C144 C 0.09879 0.58617 0.19749 0.0
H145 H 0.24963 0.63333 0.39619 0.0
H146 H 0.18234 0.58708 0.45812 0.0
H147 H 0.03903 0.46541 0.46115 0.0
H148 H 0.0038 0.42172 0.4014 0.0
H149 H 0.98706 0.46669 0.21878 0.0
H150 H 0.02171 0.53553 0.15825 0.0
H151 H 0.17454 0.65296 0.1533 0.0
H152 H 0.24439 0.67382 0.21185 0.0
H153 H 0.20627 0.47144 0.22929 0.0
H154 H 0.21809 0.44565 0.37537 0.0
H155 H 0.06467 0.69078 0.3 0.0
H156 H 0.93913 0.59036 0.32187 0.0
C157 C 0.10416 0.57627 0.75187 0.0
C158 C 0.11886 0.57776 0.79603 0.0
C159 C 0.08414 0.54996 0.82446 0.0
C160 C 0.05052 0.53299 0.79623 0.0
N161 N 0.06176 0.54805 0.75138 0.0
Co162 Co 0.02343 0.53113 0.69887 0.0
N163 N 0.974 0.48877 0.74106 0.0
C164 C 0.97222 0.48124 0.78708 0.0
C165 C 0.9344 0.44998 0.80671 0.0
C166 C 0.91142 0.43593 0.77119 0.0
C167 C 0.93691 0.45939 0.73187 0.0
N168 N 0.98496 0.51357 0.64666 0.0
C169 C 0.94963 0.47971 0.64664 0.0
C170 C 0.93665 0.47635 0.60275 0.0
C171 C 0.96489 0.5091 0.57396 0.0
C172 C 0.99371 0.53042 0.60178 0.0
N173 N 0.07331 0.57317 0.65674 0.0
C174 C 0.0728 0.58225 0.61065 0.0
C175 C 0.11114 0.61308 0.59093 0.0
C176 C 0.13768 0.62447 0.62654 0.0
C177 C 0.11396 0.59978 0.66609 0.0
N178 N 0.0678 0.48996 0.69946 0.0
C179 C 0.13049 0.43169 0.69955 0.0
C180 C 0.11922 0.45749 0.65894 0.0
C181 C 0.088 0.48617 0.65965 0.0
C182 C 0.10983 0.43522 0.74014 0.0
C183 C 0.0789 0.4645 0.73938 0.0
N184 N 0.97927 0.57322 0.69799 0.0
C185 C 0.95029 0.63599 0.65956 0.0
C186 C 0.92914 0.63945 0.69996 0.0
C187 C 0.93122 0.60817 0.73873 0.0
C188 C 0.95646 0.57591 0.73711 0.0
C189 C 0.97392 0.60247 0.65913 0.0
H190 H 0.9581 0.55423 0.76841 0.0
H191 H 0.98855 0.60157 0.62707 0.0
H192 H 0.08056 0.50487 0.62752 0.0
H193 H 0.06411 0.46592 0.77137 0.0
C194 C 0.0087 0.50233 0.81092 0.0
C195 C 0.13078 0.60343 0.7117 0.0
C196 C 0.92817 0.44968 0.68739 0.0
C197 C 0.0349 0.56192 0.58703 0.0
H198 H 0.15115 0.5972 0.80662 0.0
H199 H 0.08353 0.5429 0.86134 0.0
H200 H 0.92583 0.43785 0.84264 0.0
H201 H 0.88075 0.41025 0.77398 0.0
H202 H 0.91037 0.45219 0.59268 0.0
H203 H 0.96642 0.51529 0.53713 0.0
H204 H 0.11858 0.62602 0.55495 0.0
H205 H 0.17052 0.64846 0.62374 0.0
H206 H 0.13436 0.4554 0.62679 0.0
H207 H 0.11761 0.41549 0.77231 0.0
H208 H 0.94941 0.65943 0.6286 0.0
H209 H 0.9152 0.60954 0.77082 0.0
C210 C 0.42133 0.98475 0.6214 0.0
C211 C 0.46877 0.98014 0.63967 0.0
C212 C 0.50305 0.01096 0.61428 0.0
C213 C 0.47463 0.03249 0.58212 0.0
N214 N 0.42415 0.01771 0.5858 0.0
Co215 Co 0.36933 0.03875 0.54484 0.0
N216 N 0.42031 0.08127 0.50438 0.0
C217 C 0.4713 0.08844 0.51003 0.0
C218 C 0.4968 0.11829 0.47585 0.0
C219 C 0.45994 0.13123 0.44669 0.0
C220 C 0.4138 0.10862 0.46502 0.0
N221 N 0.31453 0.05935 0.50351 0.0
C222 C 0.31763 0.09032 0.46565 0.0
C223 C 0.26973 0.09532 0.44843 0.0
C224 C 0.23534 0.06616 0.47574 0.0
C225 C 0.26386 0.04526 0.50823 0.0
N226 N 0.31839 0.99628 0.5854 0.0
C227 C 0.26715 0.99049 0.58138 0.0
C228 C 0.24223 0.95795 0.61302 0.0
C229 C 0.27974 0.94159 0.6385 0.0
C230 C 0.32564 0.96529 0.62093 0.0
N231 N 0.36249 0.0783 0.58286 0.0
C232 C 0.35137 0.13581 0.63409 0.0
C233 C 0.30903 0.11286 0.61878 0.0
C234 C 0.31535 0.08449 0.59372 0.0
C235 C 0.39956 0.12912 0.62419 0.0
C236 C 0.40423 0.10059 0.59847 0.0
N237 N 0.37589 0.99947 0.50696 0.0
C238 C 0.33703 0.94754 0.46828 0.0
C239 C 0.38419 0.94522 0.45127 0.0
C240 C 0.42733 0.97004 0.46297 0.0
C241 C 0.42242 0.99646 0.4911 0.0
C242 C 0.3337 0.97483 0.49556 0.0
H243 H 0.45671 0.01425 0.49945 0.0
H244 H 0.29653 0.97561 0.50682 0.0
H245 H 0.2813 0.06826 0.5833 0.0
H246 H 0.44197 0.09739 0.59137 0.0
C247 C 0.49437 0.06514 0.5465 0.0
C248 C 0.37509 0.95581 0.63758 0.0
C249 C 0.36477 0.11596 0.44495 0.0
C250 C 0.24395 0.01358 0.54483 0.0
H251 H 0.47766 0.95638 0.66778 0.0
H252 H 0.54397 0.01633 0.61799 0.0
H253 H 0.53743 0.12907 0.47231 0.0
H254 H 0.46624 0.15494 0.41566 0.0
H255 H 0.2603 0.11786 0.41933 0.0
H256 H 0.19433 0.06123 0.47271 0.0
H257 H 0.20172 0.94651 0.61604 0.0
H258 H 0.2739 0.91455 0.66605 0.0
H259 H 0.27098 0.11709 0.62582 0.0
H260 H 0.43342 0.14634 0.63556 0.0
H261 H 0.30271 0.92871 0.45997 0.0
H262 H 0.46463 0.96897 0.45049 0.0
C263 C 0.54057 0.81861 0.09977 0.0
C264 C 0.54029 0.85799 0.10439 0.0
C265 C 0.58263 0.88188 0.08196 0.0
C266 C 0.60601 0.85597 0.06455 0.0
N267 N 0.58062 0.81724 0.07374 0.0
Co268 Co 0.60084 0.77061 0.05338 0.0
N269 N 0.6526 0.80787 0.00971 0.0
C270 C 0.67082 0.84731 0.0087 0.0
C271 C 0.7058 0.86531 0.97433 0.0
C272 C 0.71018 0.8353 0.95236 0.0
C273 C 0.67756 0.80058 0.97481 0.0
N274 N 0.62176 0.72416 0.03362 0.0
C275 C 0.65058 0.72406 0.99744 0.0
C276 C 0.65678 0.68481 0.9967 0.0
C277 C 0.63098 0.6594 0.03396 0.0
C278 C 0.61063 0.68452 0.05521 0.0
N279 N 0.54839 0.73339 0.09681 0.0
C280 C 0.54418 0.69252 0.11022 0.0
C281 C 0.50643 0.67483 0.14216 0.0
C282 C 0.486 0.70652 0.15025 0.0
C283 C 0.51257 0.74192 0.12266 0.0
N284 N 0.54993 0.77544 0.00478 0.0
C285 C 0.48416 0.78172 0.93003 0.0
C286 C 0.48867 0.74366 0.95795 0.0
C287 C 0.52133 0.74119 0.99527 0.0
C288 C 0.51206 0.81669 0.94097 0.0
C289 C 0.54496 0.81288 0.97818 0.0
N290 N 0.65264 0.76567 0.10131 0.0
C291 C 0.67721 0.76355 0.17918 0.0
C292 C 0.72817 0.76594 0.16775 0.0
C293 C 0.74038 0.76549 0.12314 0.0
C294 C 0.70206 0.76531 0.09053 0.0
C295 C 0.64016 0.76287 0.14566 0.0
H296 H 0.71271 0.76553 0.05647 0.0
H297 H 0.60157 0.7603 0.15581 0.0
H298 H 0.52402 0.71143 0.0159 0.0
H299 H 0.567 0.84032 0.98478 0.0
C300 C 0.64848 0.86781 0.03554 0.0
C301 C 0.50767 0.78289 0.12724 0.0
C302 C 0.6746 0.76055 0.96451 0.0
C303 C 0.57503 0.67171 0.09089 0.0
H304 H 0.51361 0.86796 0.12391 0.0
H305 H 0.59473 0.91432 0.07851 0.0
H306 H 0.72455 0.89683 0.96529 0.0
H307 H 0.73489 0.8385 0.92343 0.0
H308 H 0.6778 0.67559 0.97186 0.0
H309 H 0.62617 0.62645 0.04349 0.0
H310 H 0.49547 0.64277 0.15811 0.0
H311 H 0.45638 0.704 0.17505 0.0
H312 H 0.46713 0.71596 0.95086 0.0
H313 H 0.50914 0.84667 0.92039 0.0
H314 H 0.66621 0.76304 0.21363 0.0
H315 H 0.77943 0.76665 0.11327 0.0
C316 C 0.91208 0.98608 0.62289 0.0
C317 C 0.94903 0.97685 0.65512 0.0
C318 C 0.99039 0.00711 0.6436 0.0
C319 C 0.97609 0.0335 0.6058 0.0
N320 N 0.92775 0.02238 0.59322 0.0
Co321 Co 0.89046 0.05386 0.54266 0.0
N322 N 0.95388 0.0938 0.51993 0.0
C323 C 1.00129 0.09244 0.53652 0.0
C324 C 0.03735 0.12381 0.51383 0.0
C325 C 0.01135 0.14663 0.4809 0.0
C326 C 0.96075 0.12788 0.48562 0.0
N327 N 0.85216 0.08658 0.49394 0.0
C328 C 0.868 0.12244 0.46377 0.0
C329 C 0.82786 0.13651 0.43838 0.0
C330 C 0.78506 0.10897 0.45352 0.0
C331 C 0.80139 0.07981 0.48721 0.0
N332 N 0.82812 0.01184 0.56333 0.0
C333 C 0.78143 0.01149 0.54454 0.0
C334 C 0.75017 0.97437 0.55582 0.0
C335 C 0.77869 0.94917 0.58279 0.0
C336 C 0.82548 0.97277 0.58797 0.0
N337 N 0.87506 0.08854 0.58374 0.0
C338 C 0.85384 0.14713 0.62956 0.0
C339 C 0.8145 0.12071 0.61482 0.0
C340 C 0.82585 0.09161 0.59246 0.0
C341 C 0.90378 0.14267 0.62289 0.0
C342 C 0.91345 0.11323 0.60048 0.0
N343 N 0.90548 0.01973 0.50152 0.0
C344 C 0.87499 0.97956 0.44714 0.0
C345 C 0.91723 0.96021 0.45431 0.0
C346 C 0.95532 0.9728 0.48314 0.0
C347 C 0.94886 1.00277 0.50614 0.0
C348 C 0.87008 0.00931 0.4706 0.0
H349 H 0.97856 0.0109 0.52858 0.0
H350 H 0.83641 0.02241 0.46431 0.0
H351 H 0.79418 0.07233 0.582 0.0
H352 H 0.95248 0.11158 0.59661 0.0
C353 C 0.0091 0.06494 0.57727 0.0
C354 C 0.86564 0.95732 0.61805 0.0
C355 C 0.92017 0.14468 0.45839 0.0
C356 C 0.77075 0.04431 0.51084 0.0
H357 H 0.94745 0.94991 0.68254 0.0
H358 H 0.0274 0.00842 0.65934 0.0
H359 H 0.07735 0.13034 0.52159 0.0
H360 H 0.02742 0.17459 0.45703 0.0
H361 H 0.82931 0.16398 0.4118 0.0
H362 H 0.74669 0.10996 0.44126 0.0
H363 H 0.71235 0.96593 0.54334 0.0
H364 H 0.76639 0.91686 0.59626 0.0
H365 H 0.77516 0.1226 0.62043 0.0
H366 H 0.93528 0.16197 0.63482 0.0
H367 H 0.84517 0.97094 0.42439 0.0
H368 H 0.98901 0.95874 0.48888 0.0
C369 C 0.47007 0.27044 0.09242 0.0
C370 C 0.46216 0.30734 0.10027 0.0
C371 C 0.49573 0.33721 0.07275 0.0
C372 C 0.52208 0.31707 0.04962 0.0
N373 N 0.50671 0.27629 0.05994 0.0
Co374 Co 0.53804 0.2362 0.03588 0.0
N375 N 0.57755 0.28024 0.98793 0.0
C376 C 0.5857 0.32043 0.98672 0.0
C377 C 0.61588 0.3436 0.95078 0.0
C378 C 0.628 0.31635 0.92791 0.0
C379 C 0.60422 0.27795 0.95124 0.0
N380 N 0.56954 0.19626 0.01196 0.0
C381 C 0.59485 0.20094 0.97212 0.0
C382 C 0.60788 0.1644 0.96803 0.0
C383 C 0.5912 0.1361 0.00705 0.0
C384 C 0.56857 0.15672 0.03253 0.0
N385 N 0.49862 0.19211 0.0842 0.0
C386 C 0.5054 0.15294 0.09612 0.0
C387 C 0.47329 0.12936 0.13054 0.0
C388 C 0.44494 0.15534 0.14184 0.0
C389 C 0.46172 0.19347 0.11379 0.0
N390 N 0.48197 0.23071 0.99313 0.0
C391 C 0.41654 0.22441 0.92015 0.0
C392 C 0.428 0.18935 0.94992 0.0
C393 C 0.46068 0.19317 0.98637 0.0
C394 C 0.43594 0.26243 0.929 0.0
C395 C 0.46823 0.26492 0.96579 0.0
N396 N 0.59497 0.24194 0.07757 0.0
C397 C 0.62699 0.24873 0.15117 0.0
C398 C 0.67695 0.25494 0.13496 0.0
C399 C 0.6853 0.25403 0.08979 0.0
C400 C 0.6438 0.24703 0.06192 0.0
C401 C 0.58668 0.24282 0.12172 0.0
H402 H 0.65133 0.24672 0.0274 0.0
H403 H 0.54901 0.24001 0.13436 0.0
H404 H 0.47018 0.16576 0.00786 0.0
H405 H 0.48371 0.29471 0.97087 0.0
C406 C 0.5597 0.33557 0.01658 0.0
C407 C 0.44673 0.23082 0.1209 0.0
C408 C 0.61152 0.24003 0.93956 0.0
C409 C 0.53921 0.13868 0.07184 0.0
H410 H 0.43624 0.31213 0.12467 0.0
H411 H 0.50065 0.36972 0.07023 0.0
H412 H 0.62697 0.37644 0.94176 0.0
H413 H 0.65221 0.32388 0.89788 0.0
H414 H 0.62795 0.15888 0.94004 0.0
H415 H 0.59364 0.10398 0.0151 0.0
H416 H 0.47073 0.09711 0.14558 0.0
H417 H 0.41669 0.14758 0.16896 0.0
H418 H 0.41299 0.15943 0.94429 0.0
H419 H 0.42714 0.29014 0.90689 0.0
H420 H 0.61925 0.24952 0.18598 0.0
H421 H 0.7236 0.25893 0.07614 0.0
C422 C 0.22608 0.34665 0.29402 0.0
C423 C 0.27924 0.34962 0.28966 0.0
C424 C 0.29127 0.42166 0.29294 0.0
C425 C 0.23824 0.41754 0.30099 0.0
N426 N 0.15795 0.37285 0.32212 0.0
N427 N 0.36356 0.38706 0.2937 0.0
C428 C 0.20637 0.37904 0.30533 0.0
C429 C 0.31226 0.38639 0.29159 0.0
N430 N 0.19443 0.31298 0.28661 0.0
N431 N 0.32139 0.45919 0.28629 0.0
H432 H 0.37975 0.36155 0.29315 0.0
H433 H 0.38958 0.41168 0.29963 0.0
H434 H 0.30757 0.48527 0.28893 0.0
H435 H 0.35923 0.46487 0.27548 0.0
H436 H 0.15499 0.31069 0.28508 0.0
H437 H 0.20814 0.28889 0.27806 0.0
H438 H 0.1348 0.34426 0.33012 0.0
H439 H 0.14286 0.39544 0.33251 0.0
C440 C 0.2618 0.66851 0.71899 0.0
C441 C 0.248 0.69918 0.73819 0.0
C442 C 0.15788 0.67106 0.73246 0.0
C443 C 0.17165 0.63777 0.71791 0.0
N444 N 0.23676 0.60176 0.70249 0.0
N445 N 0.18428 0.72656 0.77003 0.0
C446 C 0.22373 0.63564 0.7125 0.0
C447 C 0.19632 0.69951 0.74691 0.0
N448 N 0.3112 0.67152 0.70606 0.0
N449 N 0.10812 0.67596 0.73137 0.0
H450 H 0.21191 0.7477 0.78098 0.0
H451 H 0.14763 0.72579 0.78159 0.0
H452 H 0.07909 0.65589 0.72039 0.0
H453 H 0.09639 0.70181 0.7372 0.0
H454 H 0.32318 0.65248 0.68771 0.0
H455 H 0.33965 0.69522 0.71082 0.0
H456 H 0.27405 0.59651 0.70275 0.0
H457 H 0.20983 0.57741 0.69696 0.0
C458 C 0.9175 0.70715 0.3607 0.0
C459 C 0.92047 0.74179 0.32361 0.0
C460 C 0.95881 0.70547 0.27614 0.0
C461 C 0.96336 0.67378 0.31496 0.0
N462 N 0.95151 0.64623 0.39595 0.0
N463 N 0.95393 0.77689 0.24919 0.0
C464 C 0.94322 0.67471 0.35769 0.0
C465 C 0.94315 0.74158 0.28187 0.0
N466 N 0.89062 0.70558 0.3991 0.0
N467 N 0.97019 0.70122 0.23386 0.0
H468 H 0.94756 0.80454 0.25458 0.0
H469 H 0.97454 0.7796 0.2195 0.0
H470 H 0.9815 0.6749 0.22868 0.0
H471 H 0.96346 0.72189 0.20393 0.0
H472 H 0.88238 0.6795 0.42534 0.0
H473 H 0.87298 0.72944 0.40312 0.0
H474 H 0.94329 0.64825 0.42879 0.0
H475 H 0.97009 0.62198 0.39537 0.0
C476 C 0.89478 0.33366 0.71454 0.0
C477 C 0.84132 0.32815 0.7094 0.0
C478 C 0.84734 0.40206 0.67615 0.0
C479 C 0.90018 0.40783 0.68558 0.0
N480 N 0.97471 0.38013 0.7137 0.0
N481 N 0.76683 0.35524 0.67973 0.0
C482 C 0.92422 0.37368 0.70348 0.0
C483 C 0.81799 0.36186 0.6874 0.0
N484 N 0.91726 0.30045 0.73083 0.0
N485 N 0.82462 0.43546 0.66037 0.0
H486 H 0.74397 0.32676 0.69075 0.0
H487 H 0.74697 0.37695 0.6609 0.0
H488 H 0.84491 0.46516 0.65247 0.0
H489 H 0.78569 0.43452 0.6563 0.0
H490 H 0.95638 0.30103 0.7312 0.0
H491 H 0.89616 0.27143 0.7412 0.0
H492 H 0.9927 0.35833 0.7349 0.0
H493 H 0.9982 0.40838 0.70284 0.0
C494 C 0.32912 0.17996 0.33082 0.0
C495 C 0.34615 0.22018 0.33614 0.0
C496 C 0.37591 0.19228 0.41282 0.0
C497 C 0.36229 0.15217 0.40604 0.0
N498 N 0.33875 0.10892 0.35353 0.0
N499 N 0.3983 0.26413 0.37768 0.0
C500 C 0.34364 0.14645 0.36308 0.0
C501 C 0.37425 0.22604 0.37549 0.0
N502 N 0.29551 0.17338 0.29746 0.0
N503 N 0.38742 0.19834 0.4554 0.0
H504 H 0.39663 0.28988 0.35164 0.0
H505 H 0.42328 0.26948 0.40364 0.0
H506 H 0.38723 0.17454 0.48417 0.0
H507 H 0.3923 0.22697 0.4629 0.0
H508 H 0.2783 0.14437 0.29446 0.0
H509 H 0.28059 0.19699 0.27625 0.0
H510 H 0.32917 0.1039 0.32135 0.0
H511 H 0.34889 0.08379 0.37661 0.0
C512 C 0.36229 0.77603 0.86002 0.0
C513 C 0.38232 0.77763 0.81622 0.0
C514 C 0.46933 0.78944 0.84563 0.0
C515 C 0.4493 0.78446 0.89009 0.0
N516 N 0.37742 0.77341 0.94059 0.0
N517 N 0.45392 0.77727 0.77012 0.0
C518 C 0.39586 0.77823 0.89742 0.0
C519 C 0.43567 0.78272 0.80959 0.0
N520 N 0.3108 0.7716 0.86579 0.0
N521 N 0.52068 0.79999 0.83796 0.0
H522 H 0.42989 0.76926 0.74484 0.0
H523 H 0.49193 0.7763 0.76442 0.0
H524 H 0.54671 0.80345 0.86375 0.0
H525 H 0.53729 0.80841 0.80556 0.0
H526 H 0.29312 0.77393 0.89508 0.0
H527 H 0.28504 0.76738 0.84004 0.0
H528 H 0.33926 0.76438 0.9501 0.0
H529 H 0.40087 0.77734 0.968 0.0
C530 C 0.93739 0.90095 0.36573 0.0
C531 C 0.90988 0.86209 0.38661 0.0
C532 C 0.89704 0.88563 0.45551 0.0
C533 C 0.91975 0.92575 0.43271 0.0
N534 N 0.96031 0.97275 0.36615 0.0
N535 N 0.86145 0.81668 0.44939 0.0
C536 C 0.94005 0.93368 0.38789 0.0
C537 C 0.88962 0.8541 0.43124 0.0
N538 N 0.96121 0.90607 0.32478 0.0
N539 N 0.88272 0.87786 0.50032 0.0
H540 H 0.85636 0.79302 0.4324 0.0
H541 H 0.84084 0.80959 0.47982 0.0
H542 H 0.88646 0.90047 0.51872 0.0
H543 H 0.87037 0.84875 0.52032 0.0
H544 H 0.98572 0.93246 0.30899 0.0
H545 H 0.9592 0.88245 0.30797 0.0
H546 H 0.97075 0.9816 0.33184 0.0
H547 H 0.9646 0.99708 0.38208 0.0
C548 C 0.72632 0.2362 0.86793 0.0
C549 C 0.70996 0.25235 0.82361 0.0
C550 C 0.62696 0.25544 0.85443 0.0
C551 C 0.64496 0.24246 0.89935 0.0
N552 N 0.71552 0.2279 0.94891 0.0
N553 N 0.6477 0.28099 0.7736 0.0
C554 C 0.69562 0.23463 0.90615 0.0
C555 C 0.66089 0.26281 0.81654 0.0
N556 N 0.77148 0.22221 0.8733 0.0
N557 N 0.57745 0.26069 0.84819 0.0
H558 H 0.67161 0.28567 0.7454 0.0
H559 H 0.61475 0.29347 0.76607 0.0
H560 H 0.55204 0.25644 0.87522 0.0
H561 H 0.56059 0.26702 0.81643 0.0
H562 H 0.78325 0.20574 0.90415 0.0
H563 H 0.79533 0.22424 0.84586 0.0
H564 H 0.75389 0.22701 0.95534 0.0
H565 H 0.69471 0.22643 0.97799 0.0
C566 C 0.34816 0.86689 0.74019 0.0
C567 C 0.35827 0.83413 0.72241 0.0
C568 C 0.38781 0.88264 0.6503 0.0
C569 C 0.37789 0.91509 0.66866 0.0
N570 N 0.36302 0.9399 0.73452 0.0
N571 N 0.39606 0.81146 0.66343 0.0
C572 C 0.36359 0.90774 0.71506 0.0
C573 C 0.38179 0.84251 0.67866 0.0
N574 N 0.31903 0.85897 0.77862 0.0
N575 N 0.39953 0.88967 0.60498 0.0
H576 H 0.38779 0.78112 0.68135 0.0
H577 H 0.41851 0.81596 0.63441 0.0
H578 H 0.40499 0.91866 0.58328 0.0
H579 H 0.4008 0.86658 0.5881 0.0
H580 H 0.30596 0.88145 0.79092 0.0
H581 H 0.30336 0.82948 0.79523 0.0
H582 H 0.35703 0.93645 0.76928 0.0
H583 H 0.3734 0.97012 0.71646 0.0
C584 C 0.83801 0.81515 0.23119 0.0
C585 C 0.83583 0.78547 0.27308 0.0
C586 C 0.77107 0.73975 0.24138 0.0
C587 C 0.76848 0.77143 0.20202 0.0
N588 N 0.79413 0.8419 0.16254 0.0
N589 N 0.79279 0.72322 0.32116 0.0
C590 C 0.80089 0.80976 0.19746 0.0
C591 C 0.8007 0.7485 0.2789 0.0
N592 N 0.8754 0.84881 0.22382 0.0
N593 N 0.74529 0.70132 0.24284 0.0
H594 H 0.81112 0.73063 0.34971 0.0
H595 H 0.76433 0.69755 0.32862 0.0
H596 H 0.72343 0.69394 0.21579 0.0
H597 H 0.74951 0.6762 0.26893 0.0
H598 H 0.8826 0.86911 0.1922 0.0
H599 H 0.90202 0.85476 0.24835 0.0
H600 H 0.81247 0.87171 0.16059 0.0
H601 H 0.76686 0.83972 0.13743 0.0
C602 C 0.83726 0.201 0.72439 0.0
C603 C 0.81556 0.2349 0.70031 0.0
C604 C 0.82762 0.2148 0.62865 0.0
C605 C 0.84279 0.17826 0.65366 0.0
N606 N 0.85707 0.13417 0.72598 0.0
N607 N 0.78429 0.27114 0.63015 0.0
C608 C 0.84668 0.17086 0.70172 0.0
C609 C 0.80973 0.24128 0.65246 0.0
N610 N 0.84857 0.19768 0.76937 0.0
N611 N 0.83074 0.22436 0.58214 0.0
H612 H 0.77054 0.29044 0.64688 0.0
H613 H 0.77354 0.2747 0.5962 0.0
H614 H 0.84306 0.20544 0.5637 0.0
H615 H 0.82522 0.25242 0.56207 0.0
H616 H 0.8688 0.17613 0.78813 0.0
H617 H 0.84226 0.21938 0.78672 0.0
H618 H 0.85445 0.12489 0.76135 0.0
H619 H 0.86446 0.11136 0.7107 0.0
C620 C 0.41649 0.24965 0.23532 0.0
C621 C 0.36443 0.25299 0.23095 0.0
C622 C 0.36355 0.23469 0.15654 0.0
C623 C 0.41534 0.23024 0.16196 0.0
N624 N 0.48501 0.21992 0.21366 0.0
N625 N 0.28563 0.24202 0.19117 0.0
C626 C 0.43977 0.23314 0.20378 0.0
C627 C 0.33703 0.24307 0.19277 0.0
N628 N 0.44486 0.26531 0.26738 0.0
N629 N 0.34038 0.23242 0.11605 0.0
H630 H 0.26546 0.249 0.21656 0.0
H631 H 0.26244 0.23133 0.16671 0.0
H632 H 0.35803 0.22427 0.08993 0.0
H633 H 0.30484 0.24033 0.10748 0.0
H634 H 0.48425 0.26742 0.26937 0.0
H635 H 0.42967 0.28051 0.28839 0.0
H636 H 0.50255 0.21866 0.24513 0.0
H637 H 0.50134 0.20509 0.19293 0.0
C638 C 0.84443 0.72172 0.68852 0.0
C639 C 0.86403 0.74011 0.72417 0.0
C640 C 0.93374 0.70067 0.73332 0.0
C641 C 0.90918 0.67701 0.70358 0.0
N642 N 0.8389 0.66366 0.65402 0.0
N643 N 0.92429 0.74345 0.78471 0.0
C644 C 0.86431 0.68762 0.6807 0.0
C645 C 0.90828 0.7289 0.74732 0.0
N646 N 0.80549 0.73622 0.66344 0.0
N647 N 0.98184 0.69645 0.74789 0.0
H648 H 0.90812 0.76555 0.79501 0.0
H649 H 0.95179 0.73205 0.80677 0.0
H650 H 1.00193 0.6764 0.73781 0.0
H651 H 0.00354 0.71567 0.76603 0.0
H652 H 0.79142 0.72668 0.63448 0.0
H653 H 0.7903 0.76054 0.66981 0.0
H654 H 0.80345 0.66733 0.64006 0.0
H655 H 0.85159 0.63808 0.64835 0.0
C656 C 0.99352 0.35423 0.29382 0.0
C657 C 0.9409 0.34616 0.30441 0.0
C658 C 0.94754 0.41428 0.32034 0.0
C659 C 0.99974 0.42287 0.3073 0.0
N660 N 0.06929 0.40488 0.27164 0.0
N661 N 0.86595 0.36984 0.32267 0.0
C662 C 0.02197 0.39385 0.29146 0.0
C663 C 0.91759 0.37647 0.3169 0.0
N664 N 0.01627 0.32384 0.28583 0.0
N665 N 0.9263 0.4427 0.33505 0.0
H666 H 0.8433 0.3417 0.32329 0.0
H667 H 0.84512 0.39228 0.32513 0.0
H668 H 0.94519 0.47237 0.33327 0.0
H669 H 0.89074 0.43654 0.35091 0.0
H670 H 0.05545 0.32624 0.28216 0.0
H671 H 0.996 0.29487 0.28704 0.0
H672 H 0.08458 0.3872 0.25352 0.0
H673 H 0.0921 0.43312 0.27042 0.0
C674 C 0.24738 0.38153 0.69687 0.0
C675 C 0.22486 0.33991 0.71016 0.0
C676 C 0.14046 0.35896 0.70599 0.0
C677 C 0.16323 0.40055 0.69968 0.0
N678 N 0.23894 0.45186 0.69207 0.0
N679 N 0.1509 0.2885 0.73327 0.0
C680 C 0.21696 0.41208 0.69555 0.0
C681 C 0.17156 0.32845 0.71625 0.0
N682 N 0.29788 0.39153 0.68541 0.0
N683 N 0.08933 0.34882 0.70038 0.0
H684 H 0.17286 0.26545 0.74106 0.0
H685 H 0.11276 0.27879 0.74295 0.0
H686 H 0.06648 0.37092 0.68967 0.0
H687 H 0.07097 0.31924 0.70098 0.0
H688 H 0.31607 0.42118 0.67146 0.0
H689 H 0.32064 0.36942 0.68651 0.0
H690 H 0.27802 0.46147 0.69373 0.0
H691 H 0.21782 0.47506 0.69061 0.0
C692 C 0.34793 0.70361 0.3047 0.0
C693 C 0.32997 0.74073 0.3019 0.0
C694 C 0.24255 0.70411 0.30687 0.0
C695 C 0.25991 0.66781 0.304 0.0
N696 N 0.32975 0.63461 0.2933 0.0
N697 N 0.25984 0.77764 0.28899 0.0
C698 C 0.3129 0.66817 0.30026 0.0
C699 C 0.27713 0.74136 0.29851 0.0
N700 N 0.39757 0.70144 0.31477 0.0
N701 N 0.19428 0.70284 0.32151 0.0
H702 H 0.28413 0.80569 0.28408 0.0
H703 H 0.22185 0.77984 0.28184 0.0
H704 H 0.17041 0.67568 0.33541 0.0
H705 H 0.18114 0.72825 0.32712 0.0
H706 H 0.41209 0.67434 0.32128 0.0
H707 H 0.42283 0.72621 0.32115 0.0
H708 H 0.36768 0.63457 0.28603 0.0
H709 H 0.30512 0.60779 0.2915 0.0
C710 C 0.89133 0.85127 0.68106 0.0
C711 C 0.84434 0.83401 0.70442 0.0
C712 C 0.81385 0.89801 0.67449 0.0
C713 C 0.8578 0.91391 0.64647 0.0
N714 N 0.9319 0.8986 0.6139 0.0
N715 N 0.75474 0.83645 0.70469 0.0
C716 C 0.89438 0.8881 0.64641 0.0
C717 C 0.80336 0.85579 0.69408 0.0
N718 N 0.93369 0.83459 0.69356 0.0
N719 N 0.7835 0.92299 0.68474 0.0
H720 H 0.74637 0.80489 0.71649 0.0
H721 H 0.72349 0.85119 0.69639 0.0
H722 H 0.79231 0.9547 0.67434 0.0
H723 H 0.75286 0.91204 0.7076 0.0
H724 H 0.96967 0.84817 0.67979 0.0
H725 H 0.93335 0.80978 0.72092 0.0
H726 H 0.95714 0.87925 0.61091 0.0
H727 H 0.9343 0.9247 0.58748 0.0
C728 C 0.76365 0.30509 0.21522 0.0
C729 C 0.8009 0.27955 0.22419 0.0
C730 C 0.7551 0.23609 0.17711 0.0
C731 C 0.72041 0.26376 0.16486 0.0
N732 N 0.69895 0.3297 0.16381 0.0
N733 N 0.83859 0.22626 0.2061 0.0
C734 C 0.72682 0.29985 0.18141 0.0
C735 C 0.79859 0.2467 0.20273 0.0
N736 N 0.76222 0.33326 0.2403 0.0
N737 N 0.74549 0.19903 0.16599 0.0
H738 H 0.87134 0.23414 0.22389 0.0
H739 H 0.84133 0.20444 0.18773 0.0
H740 H 0.71331 0.18963 0.14822 0.0
H741 H 0.76692 0.17614 0.17807 0.0
H742 H 0.73273 0.34988 0.23854 0.0
H743 H 0.78814 0.33722 0.26591 0.0
H744 H 0.70572 0.35826 0.17157 0.0
H745 H 0.67251 0.32754 0.13801 0.0
C746 C 0.29995 0.18396 0.72083 0.0
C747 C 0.31516 0.22612 0.70146 0.0
C748 C 0.3563 0.20942 0.63783 0.0
C749 C 0.34423 0.16729 0.65927 0.0
N750 N 0.31495 0.11518 0.72632 0.0
N751 N 0.3652 0.27927 0.64529 0.0
C752 C 0.31962 0.15486 0.70261 0.0
C753 C 0.346 0.23885 0.66126 0.0
N754 N 0.2634 0.17159 0.75418 0.0
N755 N 0.37469 0.22134 0.59402 0.0
H756 H 0.35731 0.30181 0.66074 0.0
H757 H 0.3923 0.2901 0.61915 0.0
H758 H 0.38235 0.20091 0.57539 0.0
H759 H 0.37841 0.2512 0.57472 0.0
H760 H 0.24723 0.14117 0.76697 0.0
H761 H 0.2451 0.19221 0.76499 0.0
H762 H 0.30147 0.10518 0.75984 0.0
H763 H 0.32924 0.09317 0.71401 0.0
C764 C 0.39737 0.79241 0.20093 0.0
C765 C 0.42207 0.79368 0.24285 0.0
C766 C 0.50346 0.79331 0.20767 0.0
C767 C 0.47805 0.78745 0.16699 0.0
N768 N 0.39937 0.77645 0.12679 0.0
N769 N 0.49672 0.78755 0.28874 0.0
C770 C 0.4244 0.78515 0.16436 0.0
C771 C 0.47446 0.79131 0.24698 0.0
N772 N 0.34918 0.80072 0.19519 0.0
N773 N 0.55525 0.80326 0.20843 0.0
H774 H 0.47695 0.78707 0.31823 0.0
H775 H 0.53329 0.78093 0.2949 0.0
H776 H 0.5783 0.80857 0.17987 0.0
H777 H 0.57508 0.8117 0.2359 0.0
H778 H 0.33047 0.80411 0.16414 0.0
H779 H 0.32989 0.80815 0.2207 0.0
H780 H 0.35985 0.77009 0.12501 0.0
H781 H 0.41817 0.77286 0.09852 0.0
C782 C 0.90778 0.25249 0.40066 0.0
C783 C 0.91391 0.25169 0.35438 0.0
C784 C 0.94053 0.18463 0.37818 0.0
C785 C 0.93071 0.1845 0.42403 0.0
N786 N 0.91915 0.22129 0.48058 0.0
N787 N 0.94486 0.22115 0.29877 0.0
C788 C 0.91965 0.2198 0.43575 0.0
C789 C 0.93426 0.21934 0.34328 0.0
N790 N 0.8867 0.28286 0.41087 0.0
N791 N 0.9524 0.15037 0.36804 0.0
H792 H 0.93798 0.24518 0.27238 0.0
H793 H 0.96347 0.20066 0.28798 0.0
H794 H 0.95894 0.12517 0.39314 0.0
H795 H 0.95431 0.14604 0.3352 0.0
H796 H 0.87529 0.28306 0.44349 0.0
H797 H 0.87821 0.30707 0.38579 0.0
H798 H 0.91527 0.24723 0.49165 0.0
H799 H 0.9271 0.1973 0.5067 0.0
C800 C 0.30451 0.22905 0.83978 0.0
C801 C 0.3316 0.24524 0.79765 0.0
C802 C 0.41019 0.23009 0.83628 0.0
C803 C 0.38523 0.22243 0.87893 0.0
N804 N 0.30827 0.21332 0.92246 0.0
N805 N 0.41198 0.26669 0.75755 0.0
C806 C 0.33199 0.22072 0.88105 0.0
C807 C 0.38482 0.24642 0.79609 0.0
N808 N 0.25257 0.22309 0.84027 0.0
N809 N 0.45835 0.22223 0.83437 0.0
H810 H 0.39499 0.28214 0.72898 0.0
H811 H 0.45161 0.27189 0.75582 0.0
H812 H 0.47715 0.2095 0.86353 0.0
H813 H 0.47679 0.22393 0.80382 0.0
H814 H 0.23034 0.20771 0.8689 0.0
H815 H 0.23143 0.23124 0.81105 0.0
H816 H 0.27075 0.21665 0.92651 0.0
H817 H 0.32713 0.20558 0.95318 0.0
C818 C 0.36101 0.8948 0.35076 0.0
C819 C 0.38819 0.86208 0.36412 0.0
C820 C 0.41202 0.88284 0.43534 0.0
C821 C 0.38777 0.9174 0.42052 0.0
N822 N 0.34865 0.96097 0.35986 0.0
N823 N 0.44694 0.8286 0.41427 0.0
C824 C 0.36497 0.92476 0.37691 0.0
C825 C 0.4161 0.85733 0.40497 0.0
N826 N 0.3302 0.89647 0.31372 0.0
N827 N 0.42899 0.87329 0.47903 0.0
H828 H 0.45006 0.80942 0.39258 0.0
H829 H 0.47228 0.82605 0.44124 0.0
H830 H 0.42607 0.89085 0.50251 0.0
H831 H 0.4421 0.84622 0.4932 0.0
H832 H 0.30504 0.91704 0.30494 0.0
H833 H 0.32696 0.87507 0.29377 0.0
H834 H 0.33626 0.96968 0.32655 0.0
H835 H 0.352 0.98408 0.37755 0.0
C836 C 0.70921 0.7571 0.84412 0.0
C837 C 0.7625 0.75849 0.84806 0.0
C838 C 0.75747 0.75571 0.92957 0.0
C839 C 0.70442 0.75649 0.92519 0.0
N840 N 0.62768 0.75102 0.88156 0.0
N841 N 0.8364 0.75135 0.89387 0.0
C842 C 0.67958 0.75496 0.88336 0.0
C843 C 0.78626 0.75527 0.89081 0.0
N844 N 0.6875 0.75874 0.80239 0.0
N845 N 0.78029 0.75648 0.97054 0.0
H846 H 0.85778 0.75103 0.86559 0.0
H847 H 0.85609 0.74572 0.92427 0.0
H848 H 0.75988 0.75446 1.00011 0.0
H849 H 0.81941 0.76041 0.97534 0.0
H850 H 0.65017 0.76275 0.79512 0.0
H851 H 0.70764 0.75652 0.77431 0.0
H852 H 0.60631 0.74643 0.85332 0.0
H853 H 0.60511 0.75008 0.9096 0.0
loop_
_geom_bond_atom_site_label_1
_geom_bond_atom_site_label_2
_geom_bond_distance
_geom_bond_site_symmetry_2
_ccdc_geom_bond_type
C0 N1 1.317 . S
C0 N2 1.348 . S
C0 C3 1.485 . S
N1 C0 1.317 . S
N1 N5 1.370 . S
N2 C0 1.348 . S
N2 C4 1.346 . S
C3 C0 1.485 . S
C3 H7 0.960 . S
C3 H8 0.961 . S
C3 H9 0.960 . S
C4 N2 1.346 . S
C4 N5 1.307 . S
C4 C6 1.486 . S
N5 N1 1.370 . S
N5 C4 1.307 . S
C6 C4 1.486 . S
C6 H10 0.960 . S
C6 H11 0.960 . S
C6 H12 0.959 . S
H7 C3 0.960 . S
H8 C3 0.961 . S
H9 C3 0.960 . S
H10 C6 0.960 . S
H11 C6 0.960 . S
H12 C6 0.959 . S
C13 N14 1.317 . S
C13 N15 1.348 . S
C13 C16 1.485 . S
N14 C13 1.317 . S
N14 N18 1.370 . S
N15 C13 1.348 . S
N15 C17 1.346 . S
C16 C13 1.485 . S
C16 H20 0.960 . S
C16 H21 0.961 . S
C16 H22 0.960 . S
C17 N15 1.346 . S
C17 N18 1.307 . S
C17 C19 1.486 . S
N18 N14 1.370 . S
N18 C17 1.307 . S
C19 C17 1.486 . S
C19 H23 0.960 . S
C19 H24 0.960 . S
C19 H25 0.959 . S
H20 C16 0.960 . S
H21 C16 0.961 . S
H22 C16 0.960 . S
H23 C19 0.960 . S
H24 C19 0.960 . S
H25 C19 0.959 . S
C26 N27 1.317 . S
C26 N28 1.348 . S
C26 C29 1.485 . S
N27 C26 1.317 . S
N27 N31 1.370 . S
N28 C26 1.348 . S
N28 C30 1.346 . S
C29 C26 1.485 . S
C29 H33 0.960 . S
C29 H34 0.958 1_655 S
C29 H35 0.951 1_655 S
C30 N28 1.346 . S
C30 N31 1.307 . S
C30 C32 1.486 . S
N31 N27 1.370 . S
N31 C30 1.307 . S
C32 C30 1.486 . S
C32 H36 0.960 . S
C32 H37 0.960 . S
C32 H38 0.959 . S
H33 C29 0.960 . S
H34 C29 0.958 1_455 S
H35 C29 0.951 1_455 S
H36 C32 0.960 . S
H37 C32 0.960 . S
H38 C32 0.959 . S
C39 N40 1.317 . S
C39 N41 1.348 . S
C39 C42 1.485 . S
N40 C39 1.317 . S
N40 N44 1.370 . S
N41 C39 1.348 . S
N41 C43 1.346 . S
C42 C39 1.485 . S
C42 H46 0.960 . S
C42 H47 0.961 . S
C42 H48 0.960 . S
C43 N41 1.346 . S
C43 N44 1.307 . S
C43 C45 1.486 . S
N44 N40 1.370 . S
N44 C43 1.307 . S
C45 C43 1.486 . S
C45 H49 0.960 . S
C45 H50 0.960 . S
C45 H51 0.959 . S
H46 C42 0.960 . S
H47 C42 0.961 . S
H48 C42 0.960 . S
H49 C45 0.960 . S
H50 C45 0.960 . S
H51 C45 0.959 . S
C52 N53 1.317 . S
C52 N54 1.348 . S
C52 C55 1.485 . S
N53 C52 1.317 . S
N53 N57 1.370 . S
N54 C52 1.348 . S
N54 C56 1.346 . S
C55 C52 1.485 . S
C55 H59 0.960 . S
C55 H60 0.961 . S
C55 H61 0.960 . S
C56 N54 1.346 . S
C56 N57 1.307 . S
C56 C58 1.486 . S
N57 N53 1.370 . S
N57 C56 1.307 . S
C58 C56 1.486 . S
C58 H62 0.960 . S
C58 H63 0.960 . S
C58 H64 0.959 . S
H59 C55 0.960 . S
H60 C55 0.961 . S
H61 C55 0.960 . S
H62 C58 0.960 . S
H63 C58 0.960 . S
H64 C58 0.959 . S
C65 N66 1.317 . S
C65 N67 1.348 . S
C65 C68 1.485 . S
N66 C65 1.317 . S
N66 N70 1.370 . S
N67 C65 1.348 . S
N67 C69 1.346 . S
C68 C65 1.485 . S
C68 H72 0.960 . S
C68 H73 0.961 . S
C68 H74 0.960 . S
C69 N67 1.346 . S
C69 N70 1.307 . S
C69 C71 1.486 . S
N70 N66 1.370 . S
N70 C69 1.307 . S
C71 C69 1.486 . S
C71 H75 0.960 . S
C71 H76 0.960 . S
C71 H77 0.959 . S
H72 C68 0.960 . S
H73 C68 0.961 . S
H74 C68 0.960 . S
H75 C71 0.960 . S
H76 C71 0.960 . S
H77 C71 0.959 . S
C78 N79 1.317 . S
C78 N80 1.348 . S
C78 C81 1.485 . S
N79 C78 1.317 . S
N79 N83 1.370 . S
N80 C78 1.348 . S
N80 C82 1.346 . S
C81 C78 1.485 . S
C81 H85 0.960 . S
C81 H86 0.961 . S
C81 H87 0.960 . S
C82 N80 1.346 . S
C82 N83 1.307 . S
C82 C84 1.486 . S
N83 N79 1.370 . S
N83 C82 1.307 . S
C84 C82 1.486 . S
C84 H88 0.960 . S
C84 H89 0.960 . S
C84 H90 0.959 . S
H85 C81 0.960 . S
H86 C81 0.961 . S
H87 C81 0.960 . S
H88 C84 0.960 . S
H89 C84 0.960 . S
H90 C84 0.959 . S
C91 N92 1.317 . S
C91 N93 1.348 . S
C91 C94 1.485 . S
N92 C91 1.317 . S
N92 N96 1.370 . S
N93 C91 1.348 . S
N93 C95 1.346 . S
C94 C91 1.485 . S
C94 H98 0.960 . S
C94 H99 0.961 . S
C94 H100 0.960 . S
C95 N93 1.346 . S
C95 N96 1.307 . S
C95 C97 1.486 . S
N96 N92 1.370 . S
N96 C95 1.307 . S
C97 C95 1.486 . S
C97 H101 0.960 . S
C97 H102 0.960 . S
C97 H103 0.959 . S
H98 C94 0.960 . S
H99 C94 0.961 . S
H100 C94 0.960 . S
H101 C97 0.960 . S
H102 C97 0.960 . S
H103 C97 0.959 . S
C104 C105 1.443 . S
C104 N108 1.376 . S
C104 C142 1.389 . S
C105 C104 1.443 . S
C105 C106 1.340 . S
C105 H145 0.951 . S
C106 C105 1.340 . S
C106 C107 1.439 . S
C106 H146 0.950 . S
C107 C106 1.439 . S
C107 N108 1.374 . S
C107 C141 1.395 . S
N108 C104 1.376 . S
N108 C107 1.374 . S
N108 Co109 2.008 . S
Co109 N108 2.008 . S
Co109 N110 1.995 . S
Co109 N115 2.008 . S
Co109 N120 1.995 . S
Co109 N125 2.282 . S
Co109 N131 2.282 . S
N110 Co109 1.995 . S
N110 C111 1.376 . S
N110 C114 1.383 . S
C111 N110 1.376 . S
C111 C112 1.446 . S
C111 C141 1.391 . S
C112 C111 1.446 . S
C112 C113 1.339 . S
C112 H147 0.949 . S
C113 C112 1.339 . S
C113 C114 1.439 . S
C113 H148 0.950 1_455 S
C114 N110 1.383 . S
C114 C113 1.439 . S
C114 C143 1.392 . S
N115 Co109 2.008 . S
N115 C116 1.376 . S
N115 C119 1.374 . S
C116 N115 1.376 . S
C116 C117 1.443 . S
C116 C143 1.389 . S
C117 C116 1.443 . S
C117 C118 1.340 . S
C117 H149 0.951 1_455 S
C118 C117 1.340 . S
C118 C119 1.439 . S
C118 H150 0.950 . S
C119 N115 1.374 . S
C119 C118 1.439 . S
C119 C144 1.395 . S
N120 Co109 1.995 . S
N120 C121 1.376 . S
N120 C124 1.383 . S
C121 N120 1.376 . S
C121 C122 1.446 . S
C121 C144 1.391 . S
C122 C121 1.446 . S
C122 C123 1.339 . S
C122 H151 0.949 . S
C123 C122 1.339 . S
C123 C124 1.439 . S
C123 H152 0.950 . S
C124 N120 1.383 . S
C124 C123 1.439 . S
C124 C142 1.392 . S
N125 Co109 2.282 . S
N125 C128 1.332 . S
N125 C130 1.332 . S
C126 C127 1.386 . S
C126 C129 1.388 . S
C127 C126 1.386 . S
C127 C128 1.382 . S
C127 H153 0.950 . S
C128 N125 1.332 . S
C128 C127 1.382 . S
C128 H139 0.952 . S
C129 C126 1.388 . S
C129 C130 1.382 . S
C129 H154 0.950 . S
C130 N125 1.332 . S
C130 C129 1.382 . S
C130 H140 0.948 . S
N131 Co109 2.282 . S
N131 C135 1.332 . S
N131 C136 1.332 . S
C132 C133 1.388 . S
C132 C136 1.382 . S
C132 H155 0.950 . S
C133 C132 1.388 . S
C133 C134 1.386 . S
C134 C133 1.386 . S
C134 C135 1.382 . S
C134 H156 0.954 . S
C135 N131 1.332 . S
C135 C134 1.382 . S
C135 H137 0.952 . S
C136 N131 1.332 . S
C136 C132 1.382 . S
C136 H138 0.948 . S
H137 C135 0.952 . S
H138 C136 0.948 . S
H139 C128 0.952 . S
H140 C130 0.948 . S
C141 C107 1.395 . S
C141 C111 1.391 . S
C142 C104 1.389 . S
C142 C124 1.392 . S
C143 C114 1.392 . S
C143 C116 1.389 . S
C144 C119 1.395 . S
C144 C121 1.391 . S
H145 C105 0.951 . S
H146 C106 0.950 . S
H147 C112 0.949 . S
H148 C113 0.950 1_655 S
H149 C117 0.951 1_655 S
H150 C118 0.950 . S
H151 C122 0.949 . S
H152 C123 0.950 . S
H153 C127 0.950 . S
H154 C129 0.950 . S
H155 C132 0.950 . S
H156 C134 0.954 . S
C157 C158 1.443 . S
C157 N161 1.376 . S
C157 C195 1.389 . S
C158 C157 1.443 . S
C158 C159 1.340 . S
C158 H198 0.951 . S
C159 C158 1.340 . S
C159 C160 1.439 . S
C159 H199 0.950 . S
C160 C159 1.439 . S
C160 N161 1.374 . S
C160 C194 1.395 . S
N161 C157 1.376 . S
N161 C160 1.374 . S
N161 Co162 2.008 . S
Co162 N161 2.008 . S
Co162 N163 1.995 1_455 S
Co162 N168 2.008 1_455 S
Co162 N173 1.995 . S
Co162 N178 2.282 . S
Co162 N184 2.282 1_455 S
N163 Co162 1.995 1_655 S
N163 C164 1.376 . S
N163 C167 1.383 . S
C164 N163 1.376 . S
C164 C165 1.446 . S
C164 C194 1.391 1_655 S
C165 C164 1.446 . S
C165 C166 1.339 . S
C165 H200 0.949 . S
C166 C165 1.339 . S
C166 C167 1.439 . S
C166 H201 0.950 . S
C167 N163 1.383 . S
C167 C166 1.439 . S
C167 C196 1.392 . S
N168 Co162 2.008 1_655 S
N168 C169 1.376 . S
N168 C172 1.374 . S
C169 N168 1.376 . S
C169 C170 1.443 . S
C169 C196 1.389 . S
C170 C169 1.443 . S
C170 C171 1.340 . S
C170 H202 0.951 . S
C171 C170 1.340 . S
C171 C172 1.439 . S
C171 H203 0.950 . S
C172 N168 1.374 . S
C172 C171 1.439 . S
C172 C197 1.395 1_655 S
N173 Co162 1.995 . S
N173 C174 1.376 . S
N173 C177 1.383 . S
C174 N173 1.376 . S
C174 C175 1.446 . S
C174 C197 1.391 . S
C175 C174 1.446 . S
C175 C176 1.339 . S
C175 H204 0.949 . S
C176 C175 1.339 . S
C176 C177 1.439 . S
C176 H205 0.950 . S
C177 N173 1.383 . S
C177 C176 1.439 . S
C177 C195 1.392 . S
N178 Co162 2.282 . S
N178 C181 1.332 . S
N178 C183 1.332 . S
C179 C180 1.386 . S
C179 C182 1.388 . S
C180 C179 1.386 . S
C180 C181 1.382 . S
C180 H206 0.950 . S
C181 N178 1.332 . S
C181 C180 1.382 . S
C181 H192 0.952 . S
C182 C179 1.388 . S
C182 C183 1.382 . S
C182 H207 0.950 . S
C183 N178 1.332 . S
C183 C182 1.382 . S
C183 H193 0.948 . S
N184 Co162 2.282 1_655 S
N184 C188 1.332 . S
N184 C189 1.332 . S
C185 C186 1.388 . S
C185 C189 1.382 . S
C185 H208 0.950 . S
C186 C185 1.388 . S
C186 C187 1.386 . S
C187 C186 1.386 . S
C187 C188 1.382 . S
C187 H209 0.950 . S
C188 N184 1.332 . S
C188 C187 1.382 . S
C188 H190 0.952 . S
C189 N184 1.332 . S
C189 C185 1.382 . S
C189 H191 0.948 . S
H190 C188 0.952 . S
H191 C189 0.948 . S
H192 C181 0.952 . S
H193 C183 0.948 . S
C194 C160 1.395 . S
C194 C164 1.391 1_455 S
C195 C157 1.389 . S
C195 C177 1.392 . S
C196 C167 1.392 . S
C196 C169 1.389 . S
C197 C172 1.395 1_455 S
C197 C174 1.391 . S
H198 C158 0.951 . S
H199 C159 0.950 . S
H200 C165 0.949 . S
H201 C166 0.950 . S
H202 C170 0.951 . S
H203 C171 0.950 . S
H204 C175 0.949 . S
H205 C176 0.950 . S
H206 C180 0.950 . S
H207 C182 0.950 . S
H208 C185 0.950 . S
H209 C187 0.950 . S
C210 C211 1.443 . S
C210 N214 1.376 1_565 S
C210 C248 1.389 . S
C211 C210 1.443 . S
C211 C212 1.340 . S
C211 H251 0.951 . S
C212 C211 1.340 . S
C212 C213 1.439 1_565 S
C212 H252 0.950 . S
C213 C212 1.439 1_545 S
C213 N214 1.374 . S
C213 C247 1.395 . S
N214 C210 1.376 1_545 S
N214 C213 1.374 . S
N214 Co215 2.008 . S
Co215 N214 2.008 . S
Co215 N216 1.995 . S
Co215 N221 2.008 . S
Co215 N226 1.995 1_545 S
Co215 N231 2.282 . S
Co215 N237 2.282 1_545 S
N216 Co215 1.995 . S
N216 C217 1.376 . S
N216 C220 1.383 . S
C217 N216 1.376 . S
C217 C218 1.446 . S
C217 C247 1.391 . S
C218 C217 1.446 . S
C218 C219 1.339 . S
C218 H253 0.949 . S
C219 C218 1.339 . S
C219 C220 1.439 . S
C219 H254 0.950 . S
C220 N216 1.383 . S
C220 C219 1.439 . S
C220 C249 1.392 . S
N221 Co215 2.008 . S
N221 C222 1.376 . S
N221 C225 1.374 . S
C222 N221 1.376 . S
C222 C223 1.443 . S
C222 C249 1.389 . S
C223 C222 1.443 . S
C223 C224 1.340 . S
C223 H255 0.951 . S
C224 C223 1.340 . S
C224 C225 1.439 . S
C224 H256 0.950 . S
C225 N221 1.374 . S
C225 C224 1.439 . S
C225 C250 1.395 . S
N226 Co215 1.995 1_565 S
N226 C227 1.376 . S
N226 C230 1.383 . S
C227 N226 1.376 . S
C227 C228 1.446 . S
C227 C250 1.391 1_565 S
C228 C227 1.446 . S
C228 C229 1.339 . S
C228 H257 0.949 . S
C229 C228 1.339 . S
C229 C230 1.439 . S
C229 H258 0.950 . S
C230 N226 1.383 . S
C230 C229 1.439 . S
C230 C248 1.392 . S
N231 Co215 2.282 . S
N231 C234 1.332 . S
N231 C236 1.332 . S
C232 C233 1.386 . S
C232 C235 1.388 . S
C233 C232 1.386 . S
C233 C234 1.382 . S
C233 H259 0.950 . S
C234 N231 1.332 . S
C234 C233 1.382 . S
C234 H245 0.952 . S
C235 C232 1.388 . S
C235 C236 1.382 . S
C235 H260 0.950 . S
C236 N231 1.332 . S
C236 C235 1.382 . S
C236 H246 0.948 . S
N237 Co215 2.282 1_565 S
N237 C241 1.332 . S
N237 C242 1.332 . S
C238 C239 1.388 . S
C238 C242 1.382 . S
C238 H261 0.950 . S
C239 C238 1.388 . S
C239 C240 1.386 . S
C240 C239 1.386 . S
C240 C241 1.382 . S
C240 H262 0.950 . S
C241 N237 1.332 . S
C241 C240 1.382 . S
C241 H243 0.952 1_565 S
C242 N237 1.332 . S
C242 C238 1.382 . S
C242 H244 0.948 . S
H243 C241 0.952 1_545 S
H244 C242 0.948 . S
H245 C234 0.952 . S
H246 C236 0.948 . S
C247 C213 1.395 . S
C247 C217 1.391 . S
C248 C210 1.389 . S
C248 C230 1.392 . S
C249 C220 1.392 . S
C249 C222 1.389 . S
C250 C225 1.395 . S
C250 C227 1.391 1_545 S
H251 C211 0.951 . S
H252 C212 0.950 . S
H253 C218 0.949 . S
H254 C219 0.950 . S
H255 C223 0.951 . S
H256 C224 0.950 . S
H257 C228 0.949 . S
H258 C229 0.950 . S
H259 C233 0.950 . S
H260 C235 0.950 . S
H261 C238 0.950 . S
H262 C240 0.950 . S
C263 C264 1.443 . S
C263 N267 1.376 . S
C263 C301 1.389 . S
C264 C263 1.443 . S
C264 C265 1.340 . S
C264 H304 0.951 . S
C265 C264 1.340 . S
C265 C266 1.439 . S
C265 H305 0.950 . S
C266 C265 1.439 . S
C266 N267 1.374 . S
C266 C300 1.395 . S
N267 C263 1.376 . S
N267 C266 1.374 . S
N267 Co268 2.008 . S
Co268 N267 2.008 . S
Co268 N269 1.995 . S
Co268 N274 2.008 . S
Co268 N279 1.995 . S
Co268 N284 2.282 . S
Co268 N290 2.282 . S
N269 Co268 1.995 . S
N269 C270 1.376 . S
N269 C273 1.383 1_554 S
C270 N269 1.376 . S
C270 C271 1.446 1_554 S
C270 C300 1.391 . S
C271 C270 1.446 1_556 S
C271 C272 1.339 . S
C271 H306 0.949 . S
C272 C271 1.339 . S
C272 C273 1.439 . S
C272 H307 0.950 . S
C273 N269 1.383 1_556 S
C273 C272 1.439 . S
C273 C302 1.392 . S
N274 Co268 2.008 . S
N274 C275 1.376 1_554 S
N274 C278 1.374 . S
C275 N274 1.376 1_556 S
C275 C276 1.443 . S
C275 C302 1.389 . S
C276 C275 1.443 . S
C276 C277 1.340 1_556 S
C276 H308 0.951 . S
C277 C276 1.340 1_554 S
C277 C278 1.439 . S
C277 H309 0.950 . S
C278 N274 1.374 . S
C278 C277 1.439 . S
C278 C303 1.395 . S
N279 Co268 1.995 . S
N279 C280 1.376 . S
N279 C283 1.383 . S
C280 N279 1.376 . S
C280 C281 1.446 . S
C280 C303 1.391 . S
C281 C280 1.446 . S
C281 C282 1.339 . S
C281 H310 0.949 . S
C282 C281 1.339 . S
C282 C283 1.439 . S
C282 H311 0.950 . S
C283 N279 1.383 . S
C283 C282 1.439 . S
C283 C301 1.392 . S
N284 Co268 2.282 . S
N284 C287 1.332 . S
N284 C289 1.332 1_554 S
C285 C286 1.386 . S
C285 C288 1.388 . S
C286 C285 1.386 . S
C286 C287 1.382 1_556 S
C286 H312 0.950 . S
C287 N284 1.332 . S
C287 C286 1.382 1_554 S
C287 H298 0.952 . S
C288 C285 1.388 . S
C288 C289 1.382 . S
C288 H313 0.950 . S
C289 N284 1.332 1_556 S
C289 C288 1.382 . S
C289 H299 0.948 . S
N290 Co268 2.282 . S
N290 C294 1.332 . S
N290 C295 1.332 . S
C291 C292 1.388 . S
C291 C295 1.382 . S
C291 H314 0.950 . S
C292 C291 1.388 . S
C292 C293 1.386 . S
C293 C292 1.386 . S
C293 C294 1.382 . S
C293 H315 0.950 . S
C294 N290 1.332 . S
C294 C293 1.382 . S
C294 H296 0.952 . S
C295 N290 1.332 . S
C295 C291 1.382 . S
C295 H297 0.948 . S
H296 C294 0.952 . S
H297 C295 0.948 . S
H298 C287 0.952 . S
H299 C289 0.948 . S
C300 C266 1.395 . S
C300 C270 1.391 . S
C301 C263 1.389 . S
C301 C283 1.392 . S
C302 C273 1.392 . S
C302 C275 1.389 . S
C303 C278 1.395 . S
C303 C280 1.391 . S
H304 C264 0.951 . S
H305 C265 0.950 . S
H306 C271 0.949 . S
H307 C272 0.950 . S
H308 C276 0.951 . S
H309 C277 0.950 . S
H310 C281 0.949 . S
H311 C282 0.950 . S
H312 C286 0.950 . S
H313 C288 0.950 . S
H314 C291 0.950 . S
H315 C293 0.950 . S
C316 C317 1.443 1_645 S
C316 N320 1.376 1_655 S
C316 C354 1.389 1_545 S
C317 C316 1.443 1_465 S
C317 C318 1.340 1_565 S
C317 H357 0.951 . S
C318 C317 1.340 1_545 S
C318 C319 1.439 . S
C318 H358 0.950 . S
C319 C318 1.439 . S
C319 N320 1.374 . S
C319 C353 1.395 . S
N320 C316 1.376 1_455 S
N320 C319 1.374 . S
N320 Co321 2.008 1_455 S
Co321 N320 2.008 1_655 S
Co321 N322 1.995 1_655 S
Co321 N327 2.008 . S
Co321 N332 1.995 . S
Co321 N337 2.282 . S
Co321 N343 2.282 . S
N322 Co321 1.995 1_455 S
N322 C323 1.376 . S
N322 C326 1.383 . S
C323 N322 1.376 . S
C323 C324 1.446 . S
C323 C353 1.391 . S
C324 C323 1.446 . S
C324 C325 1.339 . S
C324 H359 0.949 . S
C325 C324 1.339 . S
C325 C326 1.439 . S
C325 H360 0.950 . S
C326 N322 1.383 . S
C326 C325 1.439 . S
C326 C355 1.392 1_455 S
N327 Co321 2.008 . S
N327 C328 1.376 . S
N327 C331 1.374 . S
C328 N327 1.376 . S
C328 C329 1.443 . S
C328 C355 1.389 . S
C329 C328 1.443 . S
C329 C330 1.340 . S
C329 H361 0.951 . S
C330 C329 1.340 . S
C330 C331 1.439 . S
C330 H362 0.950 . S
C331 N327 1.374 . S
C331 C330 1.439 . S
C331 C356 1.395 . S
N332 Co321 1.995 . S
N332 C333 1.376 . S
N332 C336 1.383 1_545 S
C333 N332 1.376 . S
C333 C334 1.446 1_545 S
C333 C356 1.391 . S
C334 C333 1.446 1_565 S
C334 C335 1.339 . S
C334 H363 0.949 . S
C335 C334 1.339 . S
C335 C336 1.439 . S
C335 H364 0.950 . S
C336 N332 1.383 1_565 S
C336 C335 1.439 . S
C336 C354 1.392 . S
N337 Co321 2.282 . S
N337 C340 1.332 . S
N337 C342 1.332 . S
C338 C339 1.386 . S
C338 C341 1.388 . S
C339 C338 1.386 . S
C339 C340 1.382 . S
C339 H365 0.950 . S
C340 N337 1.332 . S
C340 C339 1.382 . S
C340 H351 0.952 . S
C341 C338 1.388 . S
C341 C342 1.382 . S
C341 H366 0.947 1_655 S
C342 N337 1.332 . S
C342 C341 1.382 . S
C342 H352 0.948 1_655 S
N343 Co321 2.282 . S
N343 C347 1.332 1_655 S
N343 C348 1.332 1_545 S
C344 C345 1.388 . S
C344 C348 1.382 . S
C344 H367 0.950 . S
C345 C344 1.388 . S
C345 C346 1.386 1_655 S
C346 C345 1.386 1_455 S
C346 C347 1.382 1_565 S
C346 H368 0.950 . S
C347 N343 1.332 1_455 S
C347 C346 1.382 1_545 S
C347 H349 0.952 . S
C348 N343 1.332 1_565 S
C348 C344 1.382 . S
C348 H350 0.948 . S
H349 C347 0.952 . S
H350 C348 0.948 . S
H351 C340 0.952 . S
H352 C342 0.948 1_455 S
C353 C319 1.395 . S
C353 C323 1.391 . S
C354 C316 1.389 1_565 S
C354 C336 1.392 . S
C355 C326 1.392 1_655 S
C355 C328 1.389 . S
C356 C331 1.395 . S
C356 C333 1.391 . S
H357 C317 0.951 . S
H358 C318 0.950 . S
H359 C324 0.949 . S
H360 C325 0.950 . S
H361 C329 0.951 . S
H362 C330 0.950 . S
H363 C334 0.949 . S
H364 C335 0.950 . S
H365 C339 0.950 . S
H366 C341 0.947 1_455 S
H367 C344 0.950 . S
H368 C346 0.950 . S
C369 C370 1.443 . S
C369 N373 1.376 . S
C369 C407 1.389 . S
C370 C369 1.443 . S
C370 C371 1.340 . S
C370 H410 0.951 . S
C371 C370 1.340 . S
C371 C372 1.439 . S
C371 H411 0.950 . S
C372 C371 1.439 . S
C372 N373 1.374 . S
C372 C406 1.395 . S
N373 C369 1.376 . S
N373 C372 1.374 . S
N373 Co374 2.008 . S
Co374 N373 2.008 . S
Co374 N375 1.995 1_554 S
Co374 N380 2.008 . S
Co374 N385 1.995 . S
Co374 N390 2.282 1_554 S
Co374 N396 2.282 . S
N375 Co374 1.995 1_556 S
N375 C376 1.376 . S
N375 C379 1.383 . S
C376 N375 1.376 . S
C376 C377 1.446 . S
C376 C406 1.391 1_556 S
C377 C376 1.446 . S
C377 C378 1.339 . S
C377 H412 0.949 . S
C378 C377 1.339 . S
C378 C379 1.439 . S
C378 H413 0.950 . S
C379 N375 1.383 . S
C379 C378 1.439 . S
C379 C408 1.392 . S
N380 Co374 2.008 . S
N380 C381 1.376 1_554 S
N380 C384 1.374 . S
C381 N380 1.376 1_556 S
C381 C382 1.443 . S
C381 C408 1.389 . S
C382 C381 1.443 . S
C382 C383 1.340 . S
C382 H414 0.951 . S
C383 C382 1.340 . S
C383 C384 1.439 1_556 S
C383 H415 0.950 . S
C384 N380 1.374 . S
C384 C383 1.439 1_554 S
C384 C409 1.395 . S
N385 Co374 1.995 . S
N385 C386 1.376 . S
N385 C389 1.383 . S
C386 N385 1.376 . S
C386 C387 1.446 . S
C386 C409 1.391 . S
C387 C386 1.446 . S
C387 C388 1.339 . S
C387 H416 0.949 . S
C388 C387 1.339 . S
C388 C389 1.439 . S
C388 H417 0.950 . S
C389 N385 1.383 . S
C389 C388 1.439 . S
C389 C407 1.392 . S
N390 Co374 2.282 1_556 S
N390 C393 1.332 . S
N390 C395 1.332 . S
C391 C392 1.386 . S
C391 C394 1.388 . S
C392 C391 1.386 . S
C392 C393 1.382 . S
C392 H418 0.950 . S
C393 N390 1.332 . S
C393 C392 1.382 . S
C393 H404 0.952 1_556 S
C394 C391 1.388 . S
C394 C395 1.382 . S
C394 H419 0.950 . S
C395 N390 1.332 . S
C395 C394 1.382 . S
C395 H405 0.948 . S
N396 Co374 2.282 . S
N396 C400 1.332 . S
N396 C401 1.332 . S
C397 C398 1.388 . S
C397 C401 1.382 . S
C397 H420 0.950 . S
C398 C397 1.388 . S
C398 C399 1.386 . S
C399 C398 1.386 . S
C399 C400 1.382 . S
C399 H421 0.950 . S
C400 N396 1.332 . S
C400 C399 1.382 . S
C400 H402 0.952 . S
C401 N396 1.332 . S
C401 C397 1.382 . S
C401 H403 0.948 . S
H402 C400 0.952 . S
H403 C401 0.948 . S
H404 C393 0.952 1_554 S
H405 C395 0.948 . S
C406 C372 1.395 . S
C406 C376 1.391 1_554 S
C407 C369 1.389 . S
C407 C389 1.392 . S
C408 C379 1.392 . S
C408 C381 1.389 . S
C409 C384 1.395 . S
C409 C386 1.391 . S
H410 C370 0.951 . S
H411 C371 0.950 . S
H412 C377 0.949 . S
H413 C378 0.950 . S
H414 C382 0.951 . S
H415 C383 0.950 . S
H416 C387 0.949 . S
H417 C388 0.950 . S
H418 C392 0.950 . S
H419 C394 0.950 . S
H420 C397 0.950 . S
H421 C399 0.950 . S
C422 C423 1.363 . S
C422 C428 1.379 . S
C422 N430 1.356 . S
C423 C422 1.363 . S
C423 C429 1.363 . S
C424 C425 1.363 . S
C424 C429 1.379 . S
C424 N431 1.356 . S
C425 C424 1.363 . S
C425 C428 1.363 . S
N426 C428 1.356 . S
N426 H438 0.984 . S
N426 H439 0.985 . S
N427 C429 1.356 . S
N427 H432 0.984 . S
N427 H433 0.985 . S
C428 C422 1.379 . S
C428 C425 1.363 . S
C428 N426 1.356 . S
C429 C423 1.363 . S
C429 C424 1.379 . S
C429 N427 1.356 . S
N430 C422 1.356 . S
N430 H436 0.984 . S
N430 H437 0.984 . S
N431 C424 1.356 . S
N431 H434 0.984 . S
N431 H435 0.985 . S
H432 N427 0.984 . S
H433 N427 0.985 . S
H434 N431 0.984 . S
H435 N431 0.985 . S
H436 N430 0.984 . S
H437 N430 0.984 . S
H438 N426 0.984 . S
H439 N426 0.985 . S
C440 C441 1.363 . S
C440 C446 1.379 . S
C440 N448 1.356 . S
C441 C440 1.363 . S
C441 C447 1.363 . S
C442 C443 1.363 . S
C442 C447 1.379 . S
C442 N449 1.356 . S
C443 C442 1.363 . S
C443 C446 1.363 . S
N444 C446 1.356 . S
N444 H456 0.984 . S
N444 H457 0.985 . S
N445 C447 1.356 . S
N445 H450 0.984 . S
N445 H451 0.985 . S
C446 C440 1.379 . S
C446 C443 1.363 . S
C446 N444 1.356 . S
C447 C441 1.363 . S
C447 C442 1.379 . S
C447 N445 1.356 . S
N448 C440 1.356 . S
N448 H454 0.984 . S
N448 H455 0.984 . S
N449 C442 1.356 . S
N449 H452 0.984 . S
N449 H453 0.985 . S
H450 N445 0.984 . S
H451 N445 0.985 . S
H452 N449 0.984 . S
H453 N449 0.985 . S
H454 N448 0.984 . S
H455 N448 0.984 . S
H456 N444 0.984 . S
H457 N444 0.985 . S
C458 C459 1.363 . S
C458 C464 1.379 . S
C458 N466 1.356 . S
C459 C458 1.363 . S
C459 C465 1.363 . S
C460 C461 1.363 . S
C460 C465 1.379 . S
C460 N467 1.356 . S
C461 C460 1.363 . S
C461 C464 1.363 . S
N462 C464 1.356 1_455 S
N462 H474 0.984 . S
N462 H475 0.985 . S
N463 C465 1.356 . S
N463 H468 0.984 . S
N463 H469 0.985 . S
C464 C458 1.379 . S
C464 C461 1.363 . S
C464 N462 1.356 1_655 S
C465 C459 1.363 . S
C465 C460 1.379 . S
C465 N463 1.356 . S
N466 C458 1.356 . S
N466 H472 0.984 . S
N466 H473 0.984 . S
N467 C460 1.356 . S
N467 H470 0.984 . S
N467 H471 0.985 . S
H468 N463 0.984 . S
H469 N463 0.985 . S
H470 N467 0.984 . S
H471 N467 0.985 . S
H472 N466 0.984 . S
H473 N466 0.984 . S
H474 N462 0.984 . S
H475 N462 0.985 . S
C476 C477 1.363 . S
C476 C482 1.379 . S
C476 N484 1.356 . S
C477 C476 1.363 . S
C477 C483 1.363 . S
C478 C479 1.363 . S
C478 C483 1.379 . S
C478 N485 1.356 . S
C479 C478 1.363 . S
C479 C482 1.363 . S
N480 C482 1.356 . S
N480 H492 0.984 . S
N480 H493 0.985 . S
N481 C483 1.356 . S
N481 H486 0.984 . S
N481 H487 0.985 . S
C482 C476 1.379 . S
C482 C479 1.363 . S
C482 N480 1.356 . S
C483 C477 1.363 . S
C483 C478 1.379 . S
C483 N481 1.356 . S
N484 C476 1.356 . S
N484 H490 0.984 . S
N484 H491 0.984 . S
N485 C478 1.356 . S
N485 H488 0.984 . S
N485 H489 0.985 . S
H486 N481 0.984 . S
H487 N481 0.985 . S
H488 N485 0.984 . S
H489 N485 0.985 . S
H490 N484 0.984 . S
H491 N484 0.984 . S
H492 N480 0.984 . S
H493 N480 0.985 . S
C494 C495 1.363 . S
C494 C500 1.379 . S
C494 N502 1.356 . S
C495 C494 1.363 . S
C495 C501 1.363 . S
C496 C497 1.363 . S
C496 C501 1.379 . S
C496 N503 1.356 . S
C497 C496 1.363 . S
C497 C500 1.363 . S
N498 C500 1.356 . S
N498 H510 0.984 . S
N498 H511 0.985 . S
N499 C501 1.356 . S
N499 H504 0.984 . S
N499 H505 0.985 . S
C500 C494 1.379 . S
C500 C497 1.363 . S
C500 N498 1.356 . S
C501 C495 1.363 . S
C501 C496 1.379 . S
C501 N499 1.356 . S
N502 C494 1.356 . S
N502 H508 0.984 . S
N502 H509 0.984 . S
N503 C496 1.356 . S
N503 H506 0.984 . S
N503 H507 0.985 . S
H504 N499 0.984 . S
H505 N499 0.985 . S
H506 N503 0.984 . S
H507 N503 0.985 . S
H508 N502 0.984 . S
H509 N502 0.984 . S
H510 N498 0.984 . S
H511 N498 0.985 . S
C512 C513 1.363 . S
C512 C518 1.379 . S
C512 N520 1.356 . S
C513 C512 1.363 . S
C513 C519 1.363 . S
C514 C515 1.363 . S
C514 C519 1.379 . S
C514 N521 1.356 . S
C515 C514 1.363 . S
C515 C518 1.363 . S
N516 C518 1.356 . S
N516 H528 0.984 . S
N516 H529 0.985 . S
N517 C519 1.356 . S
N517 H522 0.984 . S
N517 H523 0.985 . S
C518 C512 1.379 . S
C518 C515 1.363 . S
C518 N516 1.356 . S
C519 C513 1.363 . S
C519 C514 1.379 . S
C519 N517 1.356 . S
N520 C512 1.356 . S
N520 H526 0.984 . S
N520 H527 0.984 . S
N521 C514 1.356 . S
N521 H524 0.984 . S
N521 H525 0.985 . S
H522 N517 0.984 . S
H523 N517 0.985 . S
H524 N521 0.984 . S
H525 N521 0.985 . S
H526 N520 0.984 . S
H527 N520 0.984 . S
H528 N516 0.984 . S
H529 N516 0.985 . S
C530 C531 1.363 . S
C530 C536 1.379 . S
C530 N538 1.356 . S
C531 C530 1.363 . S
C531 C537 1.363 . S
C532 C533 1.363 . S
C532 C537 1.379 . S
C532 N539 1.356 1_655 S
C533 C532 1.363 . S
C533 C536 1.363 . S
N534 C536 1.356 . S
N534 H546 0.984 . S
N534 H547 0.985 . S
N535 C537 1.356 . S
N535 H540 0.984 . S
N535 H541 0.985 1_655 S
C536 C530 1.379 . S
C536 C533 1.363 . S
C536 N534 1.356 . S
C537 C531 1.363 . S
C537 C532 1.379 . S
C537 N535 1.356 . S
N538 C530 1.356 . S
N538 H544 0.984 . S
N538 H545 0.984 . S
N539 C532 1.356 1_455 S
N539 H542 0.984 . S
N539 H543 0.985 . S
H540 N535 0.984 . S
H541 N535 0.985 1_455 S
H542 N539 0.984 . S
H543 N539 0.985 . S
H544 N538 0.984 . S
H545 N538 0.984 . S
H546 N534 0.984 . S
H547 N534 0.985 . S
C548 C549 1.363 . S
C548 C554 1.379 . S
C548 N556 1.356 . S
C549 C548 1.363 . S
C549 C555 1.363 . S
C550 C551 1.363 . S
C550 C555 1.379 . S
C550 N557 1.356 . S
C551 C550 1.363 . S
C551 C554 1.363 . S
N552 C554 1.356 . S
N552 H564 0.984 . S
N552 H565 0.985 . S
N553 C555 1.356 . S
N553 H558 0.984 . S
N553 H559 0.985 . S
C554 C548 1.379 . S
C554 C551 1.363 . S
C554 N552 1.356 . S
C555 C549 1.363 . S
C555 C550 1.379 . S
C555 N553 1.356 . S
N556 C548 1.356 . S
N556 H562 0.984 . S
N556 H563 0.984 . S
N557 C550 1.356 . S
N557 H560 0.984 . S
N557 H561 0.985 . S
H558 N553 0.984 . S
H559 N553 0.985 . S
H560 N557 0.984 . S
H561 N557 0.985 . S
H562 N556 0.984 . S
H563 N556 0.984 . S
H564 N552 0.984 . S
H565 N552 0.985 . S
C566 C567 1.363 . S
C566 C572 1.379 . S
C566 N574 1.356 . S
C567 C566 1.363 . S
C567 C573 1.363 . S
C568 C569 1.363 . S
C568 C573 1.379 . S
C568 N575 1.356 . S
C569 C568 1.363 . S
C569 C572 1.363 . S
N570 C572 1.356 . S
N570 H582 0.984 . S
N570 H583 0.985 . S
N571 C573 1.356 . S
N571 H576 0.984 . S
N571 H577 0.985 . S
C572 C566 1.379 . S
C572 C569 1.363 . S
C572 N570 1.356 . S
C573 C567 1.363 . S
C573 C568 1.379 . S
C573 N571 1.356 . S
N574 C566 1.356 . S
N574 H580 0.984 . S
N574 H581 0.984 . S
N575 C568 1.356 . S
N575 H578 0.984 . S
N575 H579 0.985 . S
H576 N571 0.984 . S
H577 N571 0.985 . S
H578 N575 0.984 . S
H579 N575 0.985 . S
H580 N574 0.984 . S
H581 N574 0.984 . S
H582 N570 0.984 . S
H583 N570 0.985 . S
C584 C585 1.363 . S
C584 C590 1.379 . S
C584 N592 1.356 . S
C585 C584 1.363 . S
C585 C591 1.363 . S
C586 C587 1.363 . S
C586 C591 1.379 . S
C586 N593 1.356 . S
C587 C586 1.363 . S
C587 C590 1.363 . S
N588 C590 1.356 . S
N588 H600 0.984 . S
N588 H601 0.985 . S
N589 C591 1.356 . S
N589 H594 0.984 . S
N589 H595 0.985 . S
C590 C584 1.379 . S
C590 C587 1.363 . S
C590 N588 1.356 . S
C591 C585 1.363 . S
C591 C586 1.379 . S
C591 N589 1.356 . S
N592 C584 1.356 . S
N592 H598 0.984 . S
N592 H599 0.984 . S
N593 C586 1.356 . S
N593 H596 0.984 . S
N593 H597 0.985 . S
H594 N589 0.984 . S
H595 N589 0.985 . S
H596 N593 0.984 . S
H597 N593 0.985 . S
H598 N592 0.984 . S
H599 N592 0.984 . S
H600 N588 0.984 . S
H601 N588 0.985 . S
C602 C603 1.363 . S
C602 C608 1.379 . S
C602 N610 1.356 . S
C603 C602 1.363 . S
C603 C609 1.363 . S
C604 C605 1.363 . S
C604 C609 1.379 . S
C604 N611 1.356 . S
C605 C604 1.363 . S
C605 C608 1.363 . S
N606 C608 1.356 . S
N606 H618 0.984 . S
N606 H619 0.985 . S
N607 C609 1.356 . S
N607 H612 0.984 . S
N607 H613 0.985 . S
C608 C602 1.379 . S
C608 C605 1.363 . S
C608 N606 1.356 . S
C609 C603 1.363 . S
C609 C604 1.379 . S
C609 N607 1.356 . S
N610 C602 1.356 . S
N610 H616 0.984 . S
N610 H617 0.984 . S
N611 C604 1.356 . S
N611 H614 0.984 . S
N611 H615 0.985 . S
H612 N607 0.984 . S
H613 N607 0.985 . S
H614 N611 0.984 . S
H615 N611 0.985 . S
H616 N610 0.984 . S
H617 N610 0.984 . S
H618 N606 0.984 . S
H619 N606 0.985 . S
C620 C621 1.363 . S
C620 C626 1.379 . S
C620 N628 1.356 . S
C621 C620 1.363 . S
C621 C627 1.363 . S
C622 C623 1.363 . S
C622 C627 1.379 . S
C622 N629 1.356 . S
C623 C622 1.363 . S
C623 C626 1.363 . S
N624 C626 1.356 . S
N624 H636 0.984 . S
N624 H637 0.985 . S
N625 C627 1.356 . S
N625 H630 0.984 . S
N625 H631 0.985 . S
C626 C620 1.379 . S
C626 C623 1.363 . S
C626 N624 1.356 . S
C627 C621 1.363 . S
C627 C622 1.379 . S
C627 N625 1.356 . S
N628 C620 1.356 . S
N628 H634 0.984 . S
N628 H635 0.984 . S
N629 C622 1.356 . S
N629 H632 0.984 . S
N629 H633 0.985 . S
H630 N625 0.984 . S
H631 N625 0.985 . S
H632 N629 0.984 . S
H633 N629 0.985 . S
H634 N628 0.984 . S
H635 N628 0.984 . S
H636 N624 0.984 . S
H637 N624 0.985 . S
C638 C639 1.363 . S
C638 C644 1.379 . S
C638 N646 1.356 . S
C639 C638 1.363 . S
C639 C645 1.363 . S
C640 C641 1.363 . S
C640 C645 1.379 . S
C640 N647 1.356 . S
C641 C640 1.363 . S
C641 C644 1.363 . S
N642 C644 1.356 . S
N642 H654 0.984 . S
N642 H655 0.985 . S
N643 C645 1.356 . S
N643 H648 0.984 . S
N643 H649 0.985 . S
C644 C638 1.379 . S
C644 C641 1.363 . S
C644 N642 1.356 . S
C645 C639 1.363 . S
C645 C640 1.379 . S
C645 N643 1.356 . S
N646 C638 1.356 . S
N646 H652 0.984 . S
N646 H653 0.984 . S
N647 C640 1.356 . S
N647 H650 0.984 . S
N647 H651 0.985 . S
H648 N643 0.984 . S
H649 N643 0.985 . S
H650 N647 0.984 . S
H651 N647 0.985 . S
H652 N646 0.984 . S
H653 N646 0.984 . S
H654 N642 0.984 . S
H655 N642 0.985 . S
C656 C657 1.363 . S
C656 C662 1.379 . S
C656 N664 1.356 . S
C657 C656 1.363 . S
C657 C663 1.363 . S
C658 C659 1.363 . S
C658 C663 1.379 . S
C658 N665 1.356 . S
C659 C658 1.363 . S
C659 C662 1.363 . S
N660 C662 1.356 1_455 S
N660 H672 0.984 . S
N660 H673 0.985 . S
N661 C663 1.356 . S
N661 H666 0.984 . S
N661 H667 0.985 . S
C662 C656 1.379 . S
C662 C659 1.363 . S
C662 N660 1.356 1_655 S
C663 C657 1.363 . S
C663 C658 1.379 . S
C663 N661 1.356 . S
N664 C656 1.356 . S
N664 H670 0.984 . S
N664 H671 0.984 . S
N665 C658 1.356 . S
N665 H668 0.984 . S
N665 H669 0.985 . S
H666 N661 0.984 . S
H667 N661 0.985 . S
H668 N665 0.984 . S
H669 N665 0.985 . S
H670 N664 0.984 . S
H671 N664 0.984 . S
H672 N660 0.984 . S
H673 N660 0.985 . S
C674 C675 1.363 . S
C674 C680 1.379 . S
C674 N682 1.356 . S
C675 C674 1.363 . S
C675 C681 1.363 . S
C676 C677 1.363 . S
C676 C681 1.379 . S
C676 N683 1.356 . S
C677 C676 1.363 . S
C677 C680 1.363 . S
N678 C680 1.356 . S
N678 H690 0.984 . S
N678 H691 0.985 . S
N679 C681 1.356 . S
N679 H684 0.984 . S
N679 H685 0.985 . S
C680 C674 1.379 . S
C680 C677 1.363 . S
C680 N678 1.356 . S
C681 C675 1.363 . S
C681 C676 1.379 . S
C681 N679 1.356 . S
N682 C674 1.356 . S
N682 H688 0.984 . S
N682 H689 0.984 . S
N683 C676 1.356 . S
N683 H686 0.984 . S
N683 H687 0.985 . S
H684 N679 0.984 . S
H685 N679 0.985 . S
H686 N683 0.984 . S
H687 N683 0.985 . S
H688 N682 0.984 . S
H689 N682 0.984 . S
H690 N678 0.984 . S
H691 N678 0.985 . S
C692 C693 1.363 . S
C692 C698 1.379 . S
C692 N700 1.356 . S
C693 C692 1.363 . S
C693 C699 1.363 . S
C694 C695 1.363 . S
C694 C699 1.379 . S
C694 N701 1.356 . S
C695 C694 1.363 . S
C695 C698 1.363 . S
N696 C698 1.356 . S
N696 H708 0.984 . S
N696 H709 0.985 . S
N697 C699 1.356 . S
N697 H702 0.984 . S
N697 H703 0.985 . S
C698 C692 1.379 . S
C698 C695 1.363 . S
C698 N696 1.356 . S
C699 C693 1.363 . S
C699 C694 1.379 . S
C699 N697 1.356 . S
N700 C692 1.356 . S
N700 H706 0.984 . S
N700 H707 0.984 . S
N701 C694 1.356 . S
N701 H704 0.984 . S
N701 H705 0.985 . S
H702 N697 0.984 . S
H703 N697 0.985 . S
H704 N701 0.984 . S
H705 N701 0.985 . S
H706 N700 0.984 . S
H707 N700 0.984 . S
H708 N696 0.984 . S
H709 N696 0.985 . S
C710 C711 1.363 . S
C710 C716 1.379 . S
C710 N718 1.356 . S
C711 C710 1.363 . S
C711 C717 1.363 . S
C712 C713 1.363 . S
C712 C717 1.379 . S
C712 N719 1.356 . S
C713 C712 1.363 . S
C713 C716 1.363 . S
N714 C716 1.356 . S
N714 H726 0.984 . S
N714 H727 0.985 . S
N715 C717 1.356 . S
N715 H720 0.984 . S
N715 H721 0.985 . S
C716 C710 1.379 . S
C716 C713 1.363 . S
C716 N714 1.356 . S
C717 C711 1.363 . S
C717 C712 1.379 . S
C717 N715 1.356 . S
N718 C710 1.356 . S
N718 H724 0.984 . S
N718 H725 0.984 . S
N719 C712 1.356 . S
N719 H722 0.984 . S
N719 H723 0.985 . S
H720 N715 0.984 . S
H721 N715 0.985 . S
H722 N719 0.984 . S
H723 N719 0.985 . S
H724 N718 0.984 . S
H725 N718 0.984 . S
H726 N714 0.984 . S
H727 N714 0.985 . S
C728 C729 1.363 . S
C728 C734 1.379 . S
C728 N736 1.356 . S
C729 C728 1.363 . S
C729 C735 1.363 . S
C730 C731 1.363 . S
C730 C735 1.379 . S
C730 N737 1.356 . S
C731 C730 1.363 . S
C731 C734 1.363 . S
N732 C734 1.356 . S
N732 H744 0.984 . S
N732 H745 0.985 . S
N733 C735 1.356 . S
N733 H738 0.984 . S
N733 H739 0.985 . S
C734 C728 1.379 . S
C734 C731 1.363 . S
C734 N732 1.356 . S
C735 C729 1.363 . S
C735 C730 1.379 . S
C735 N733 1.356 . S
N736 C728 1.356 . S
N736 H742 0.984 . S
N736 H743 0.984 . S
N737 C730 1.356 . S
N737 H740 0.984 . S
N737 H741 0.985 . S
H738 N733 0.984 . S
H739 N733 0.985 . S
H740 N737 0.984 . S
H741 N737 0.985 . S
H742 N736 0.984 . S
H743 N736 0.984 . S
H744 N732 0.984 . S
H745 N732 0.985 . S
C746 C747 1.363 . S
C746 C752 1.379 . S
C746 N754 1.356 . S
C747 C746 1.363 . S
C747 C753 1.363 . S
C748 C749 1.363 . S
C748 C753 1.379 . S
C748 N755 1.356 . S
C749 C748 1.363 . S
C749 C752 1.363 . S
N750 C752 1.356 . S
N750 H762 0.984 . S
N750 H763 0.985 . S
N751 C753 1.356 . S
N751 H756 0.984 . S
N751 H757 0.985 . S
C752 C746 1.379 . S
C752 C749 1.363 . S
C752 N750 1.356 . S
C753 C747 1.363 . S
C753 C748 1.379 . S
C753 N751 1.356 . S
N754 C746 1.356 . S
N754 H760 0.984 . S
N754 H761 0.984 . S
N755 C748 1.356 . S
N755 H758 0.984 . S
N755 H759 0.985 . S
H756 N751 0.984 . S
H757 N751 0.985 . S
H758 N755 0.984 . S
H759 N755 0.985 . S
H760 N754 0.984 . S
H761 N754 0.984 . S
H762 N750 0.984 . S
H763 N750 0.985 . S
C764 C765 1.363 . S
C764 C770 1.379 . S
C764 N772 1.356 . S
C765 C764 1.363 . S
C765 C771 1.363 . S
C766 C767 1.363 . S
C766 C771 1.379 . S
C766 N773 1.356 . S
C767 C766 1.363 . S
C767 C770 1.363 . S
N768 C770 1.356 . S
N768 H780 0.984 . S
N768 H781 0.985 . S
N769 C771 1.356 . S
N769 H774 0.984 . S
N769 H775 0.985 . S
C770 C764 1.379 . S
C770 C767 1.363 . S
C770 N768 1.356 . S
C771 C765 1.363 . S
C771 C766 1.379 . S
C771 N769 1.356 . S
N772 C764 1.356 . S
N772 H778 0.984 . S
N772 H779 0.984 . S
N773 C766 1.356 . S
N773 H776 0.984 . S
N773 H777 0.985 . S
H774 N769 0.984 . S
H775 N769 0.985 . S
H776 N773 0.984 . S
H777 N773 0.985 . S
H778 N772 0.984 . S
H779 N772 0.984 . S
H780 N768 0.984 . S
H781 N768 0.985 . S
C782 C783 1.363 . S
C782 C788 1.379 . S
C782 N790 1.356 . S
C783 C782 1.363 . S
C783 C789 1.363 . S
C784 C785 1.363 . S
C784 C789 1.379 . S
C784 N791 1.356 1_655 S
C785 C784 1.363 . S
C785 C788 1.363 . S
N786 C788 1.356 . S
N786 H798 0.984 . S
N786 H799 0.985 . S
N787 C789 1.356 . S
N787 H792 0.984 . S
N787 H793 0.985 . S
C788 C782 1.379 . S
C788 C785 1.363 . S
C788 N786 1.356 . S
C789 C783 1.363 . S
C789 C784 1.379 . S
C789 N787 1.356 . S
N790 C782 1.356 . S
N790 H796 0.984 . S
N790 H797 0.984 . S
N791 C784 1.356 1_455 S
N791 H794 0.984 . S
N791 H795 0.985 . S
H792 N787 0.984 . S
H793 N787 0.985 . S
H794 N791 0.984 . S
H795 N791 0.985 . S
H796 N790 0.984 . S
H797 N790 0.984 . S
H798 N786 0.984 . S
H799 N786 0.985 . S
C800 C801 1.363 . S
C800 C806 1.379 . S
C800 N808 1.356 . S
C801 C800 1.363 . S
C801 C807 1.363 . S
C802 C803 1.363 . S
C802 C807 1.379 . S
C802 N809 1.356 . S
C803 C802 1.363 . S
C803 C806 1.363 . S
N804 C806 1.356 . S
N804 H816 0.984 . S
N804 H817 0.985 . S
N805 C807 1.356 . S
N805 H810 0.984 . S
N805 H811 0.985 . S
C806 C800 1.379 . S
C806 C803 1.363 . S
C806 N804 1.356 . S
C807 C801 1.363 . S
C807 C802 1.379 . S
C807 N805 1.356 . S
N808 C800 1.356 . S
N808 H814 0.984 . S
N808 H815 0.984 . S
N809 C802 1.356 . S
N809 H812 0.984 . S
N809 H813 0.985 . S
H810 N805 0.984 . S
H811 N805 0.985 . S
H812 N809 0.984 . S
H813 N809 0.985 . S
H814 N808 0.984 . S
H815 N808 0.984 . S
H816 N804 0.984 . S
H817 N804 0.985 . S
C818 C819 1.363 . S
C818 C824 1.379 . S
C818 N826 1.356 . S
C819 C818 1.363 . S
C819 C825 1.363 . S
C820 C821 1.363 . S
C820 C825 1.379 . S
C820 N827 1.356 . S
C821 C820 1.363 . S
C821 C824 1.363 . S
N822 C824 1.356 . S
N822 H834 0.984 . S
N822 H835 0.985 . S
N823 C825 1.356 . S
N823 H828 0.984 . S
N823 H829 0.985 . S
C824 C818 1.379 . S
C824 C821 1.363 . S
C824 N822 1.356 . S
C825 C819 1.363 . S
C825 C820 1.379 . S
C825 N823 1.356 . S
N826 C818 1.356 . S
N826 H832 0.984 . S
N826 H833 0.984 . S
N827 C820 1.356 . S
N827 H830 0.984 . S
N827 H831 0.985 . S
H828 N823 0.984 . S
H829 N823 0.985 . S
H830 N827 0.984 . S
H831 N827 0.985 . S
H832 N826 0.984 . S
H833 N826 0.984 . S
H834 N822 0.984 . S
H835 N822 0.985 . S
C836 C837 1.363 . S
C836 C842 1.379 . S
C836 N844 1.356 . S
C837 C836 1.363 . S
C837 C843 1.363 . S
C838 C839 1.363 . S
C838 C843 1.379 . S
C838 N845 1.356 . S
C839 C838 1.363 . S
C839 C842 1.363 . S
N840 C842 1.356 . S
N840 H852 0.984 . S
N840 H853 0.985 . S
N841 C843 1.356 . S
N841 H846 0.984 . S
N841 H847 0.985 . S
C842 C836 1.379 . S
C842 C839 1.363 . S
C842 N840 1.356 . S
C843 C837 1.363 . S
C843 C838 1.379 . S
C843 N841 1.356 . S
N844 C836 1.356 . S
N844 H850 0.984 . S
N844 H851 0.984 . S
N845 C838 1.356 . S
N845 H848 0.984 . S
N845 H849 0.985 . S
H846 N841 0.984 . S
H847 N841 0.985 . S
H848 N845 0.984 . S
H849 N845 0.985 . S
H850 N844 0.984 . S
H851 N844 0.984 . S
H852 N840 0.984 . S
H853 N840 0.985 . S
C425 C126 1.416 . S
C423 N2 1.419 . S
C443 C195 1.626 . S
C441 N15 1.665 . S
C461 C133 1.533 1_655 S
C459 N27 1.525 . S
C479 C196 1.777 . S
C477 N44 1.824 . S
C497 C249 1.680 . S
C495 N1 1.720 . S
C515 C285 1.693 . S
C513 N18 1.675 . S
C531 N28 1.746 . S
C533 C345 1.686 . S
C551 C408 1.646 . S
C549 N41 1.654 . S
C569 C248 1.649 . S
C567 N14 1.683 . S
C585 N31 1.649 . S
C587 C292 1.642 . S
C605 C338 1.879 . S
C603 N40 1.899 . S
C623 C407 1.703 . S
C621 N5 1.743 . S
C639 N53 1.902 . S
C641 C186 1.847 . S
C659 C143 1.595 1_655 S
C657 N70 1.574 . S
C675 N80 1.701 . S
C677 C179 1.653 . S
C693 N92 1.582 . S
C695 C142 1.582 . S
C713 C354 1.876 . S
C711 N57 1.917 . S
C731 C398 1.588 . S
C729 N67 1.601 . S
C749 C232 1.736 . S
C747 N83 1.771 . S
C765 N96 1.623 . S
C767 C301 1.617 . S
C785 C355 1.713 . S
C783 N66 1.796 . S
C803 C391 1.625 . S
C801 N79 1.665 . S
C821 C239 1.654 . S
C819 N93 1.698 . S
C837 N54 1.486 . S
C839 C302 1.484 . S
