# Generated by pormake.
# Topology ctn, (3,4)-cn, num edge types: 1
# Building blocks:
#     Node 0, Type 0, BuildingBlock: QEWDON_clean_linker_0, # of connection points: 3
#     Node 1, Type 0, BuildingBlock: QEWDON_clean_linker_0, # of connection points: 3
#     Node 2, Type 0, BuildingBlock: QEWDON_clean_linker_0, # of connection points: 3
#     Node 3, Type 0, BuildingBlock: QEWDON_clean_linker_0, # of connection points: 3
#     Node 4, Type 0, BuildingBlock: QEWDON_clean_linker_0, # of connection points: 3
#     Node 5, Type 0, BuildingBlock: QEWDON_clean_linker_0, # of connection points: 3
#     Node 6, Type 0, BuildingBlock: QEWDON_clean_linker_0, # of connection points: 3
#     Node 7, Type 0, BuildingBlock: QEWDON_clean_linker_0, # of connection points: 3
#     Node 8, Type 0, BuildingBlock: QEWDON_clean_linker_0, # of connection points: 3
#     Node 9, Type 0, BuildingBlock: QEWDON_clean_linker_0, # of connection points: 3
#     Node 10, Type 0, BuildingBlock: QEWDON_clean_linker_0, # of connection points: 3
#     Node 11, Type 0, BuildingBlock: QEWDON_clean_linker_0, # of connection points: 3
#     Node 12, Type 0, BuildingBlock: QEWDON_clean_linker_0, # of connection points: 3
#     Node 13, Type 0, BuildingBlock: QEWDON_clean_linker_0, # of connection points: 3
#     Node 14, Type 0, BuildingBlock: QEWDON_clean_linker_0, # of connection points: 3
#     Node 15, Type 0, BuildingBlock: QEWDON_clean_linker_0, # of connection points: 3
#     Node 16, Type 1, BuildingBlock: KUFVIS_clean_sbu_0, # of connection points: 4
#     Node 17, Type 1, BuildingBlock: KUFVIS_clean_sbu_0, # of connection points: 4
#     Node 18, Type 1, BuildingBlock: KUFVIS_clean_sbu_0, # of connection points: 4
#     Node 19, Type 1, BuildingBlock: KUFVIS_clean_sbu_0, # of connection points: 4
#     Node 20, Type 1, BuildingBlock: KUFVIS_clean_sbu_0, # of connection points: 4
#     Node 21, Type 1, BuildingBlock: KUFVIS_clean_sbu_0, # of connection points: 4
#     Node 22, Type 1, BuildingBlock: KUFVIS_clean_sbu_0, # of connection points: 4
#     Node 23, Type 1, BuildingBlock: KUFVIS_clean_sbu_0, # of connection points: 4
#     Node 24, Type 1, BuildingBlock: KUFVIS_clean_sbu_0, # of connection points: 4
#     Node 25, Type 1, BuildingBlock: KUFVIS_clean_sbu_0, # of connection points: 4
#     Node 26, Type 1, BuildingBlock: KUFVIS_clean_sbu_0, # of connection points: 4
#     Node 27, Type 1, BuildingBlock: KUFVIS_clean_sbu_0, # of connection points: 4
#     Edge 28, Type (0, 1), BuildingBlock: ZUJKAS_clean_linker_0, # of connection points: 2
#     Edge 29, Type (0, 1), BuildingBlock: ZUJKAS_clean_linker_0, # of connection points: 2
#     Edge 30, Type (0, 1), BuildingBlock: ZUJKAS_clean_linker_0, # of connection points: 2
#     Edge 31, Type (0, 1), BuildingBlock: ZUJKAS_clean_linker_0, # of connection points: 2
#     Edge 32, Type (0, 1), BuildingBlock: ZUJKAS_clean_linker_0, # of connection points: 2
#     Edge 33, Type (0, 1), BuildingBlock: ZUJKAS_clean_linker_0, # of connection points: 2
#     Edge 34, Type (0, 1), BuildingBlock: ZUJKAS_clean_linker_0, # of connection points: 2
#     Edge 35, Type (0, 1), BuildingBlock: ZUJKAS_clean_linker_0, # of connection points: 2
#     Edge 36, Type (0, 1), BuildingBlock: ZUJKAS_clean_linker_0, # of connection points: 2
#     Edge 37, Type (0, 1), BuildingBlock: ZUJKAS_clean_linker_0, # of connection points: 2
#     Edge 38, Type (0, 1), BuildingBlock: ZUJKAS_clean_linker_0, # of connection points: 2
#     Edge 39, Type (0, 1), BuildingBlock: ZUJKAS_clean_linker_0, # of connection points: 2
#     Edge 40, Type (0, 1), BuildingBlock: ZUJKAS_clean_linker_0, # of connection points: 2
#     Edge 41, Type (0, 1), BuildingBlock: ZUJKAS_clean_linker_0, # of connection points: 2
#     Edge 42, Type (0, 1), BuildingBlock: ZUJKAS_clean_linker_0, # of connection points: 2
#     Edge 43, Type (0, 1), BuildingBlock: ZUJKAS_clean_linker_0, # of connection points: 2
#     Edge 44, Type (0, 1), BuildingBlock: ZUJKAS_clean_linker_0, # of connection points: 2
#     Edge 45, Type (0, 1), BuildingBlock: ZUJKAS_clean_linker_0, # of connection points: 2
#     Edge 46, Type (0, 1), BuildingBlock: ZUJKAS_clean_linker_0, # of connection points: 2
#     Edge 47, Type (0, 1), BuildingBlock: ZUJKAS_clean_linker_0, # of connection points: 2
#     Edge 48, Type (0, 1), BuildingBlock: ZUJKAS_clean_linker_0, # of connection points: 2
#     Edge 49, Type (0, 1), BuildingBlock: ZUJKAS_clean_linker_0, # of connection points: 2
#     Edge 50, Type (0, 1), BuildingBlock: ZUJKAS_clean_linker_0, # of connection points: 2
#     Edge 51, Type (0, 1), BuildingBlock: ZUJKAS_clean_linker_0, # of connection points: 2
#     Edge 52, Type (0, 1), BuildingBlock: ZUJKAS_clean_linker_0, # of connection points: 2
#     Edge 53, Type (0, 1), BuildingBlock: ZUJKAS_clean_linker_0, # of connection points: 2
#     Edge 54, Type (0, 1), BuildingBlock: ZUJKAS_clean_linker_0, # of connection points: 2
#     Edge 55, Type (0, 1), BuildingBlock: ZUJKAS_clean_linker_0, # of connection points: 2
#     Edge 56, Type (0, 1), BuildingBlock: ZUJKAS_clean_linker_0, # of connection points: 2
#     Edge 57, Type (0, 1), BuildingBlock: ZUJKAS_clean_linker_0, # of connection points: 2
#     Edge 58, Type (0, 1), BuildingBlock: ZUJKAS_clean_linker_0, # of connection points: 2
#     Edge 59, Type (0, 1), BuildingBlock: ZUJKAS_clean_linker_0, # of connection points: 2
#     Edge 60, Type (0, 1), BuildingBlock: ZUJKAS_clean_linker_0, # of connection points: 2
#     Edge 61, Type (0, 1), BuildingBlock: ZUJKAS_clean_linker_0, # of connection points: 2
#     Edge 62, Type (0, 1), BuildingBlock: ZUJKAS_clean_linker_0, # of connection points: 2
#     Edge 63, Type (0, 1), BuildingBlock: ZUJKAS_clean_linker_0, # of connection points: 2
#     Edge 64, Type (0, 1), BuildingBlock: ZUJKAS_clean_linker_0, # of connection points: 2
#     Edge 65, Type (0, 1), BuildingBlock: ZUJKAS_clean_linker_0, # of connection points: 2
#     Edge 66, Type (0, 1), BuildingBlock: ZUJKAS_clean_linker_0, # of connection points: 2
#     Edge 67, Type (0, 1), BuildingBlock: ZUJKAS_clean_linker_0, # of connection points: 2
#     Edge 68, Type (0, 1), BuildingBlock: ZUJKAS_clean_linker_0, # of connection points: 2
#     Edge 69, Type (0, 1), BuildingBlock: ZUJKAS_clean_linker_0, # of connection points: 2
#     Edge 70, Type (0, 1), BuildingBlock: ZUJKAS_clean_linker_0, # of connection points: 2
#     Edge 71, Type (0, 1), BuildingBlock: ZUJKAS_clean_linker_0, # of connection points: 2
#     Edge 72, Type (0, 1), BuildingBlock: ZUJKAS_clean_linker_0, # of connection points: 2
#     Edge 73, Type (0, 1), BuildingBlock: ZUJKAS_clean_linker_0, # of connection points: 2
#     Edge 74, Type (0, 1), BuildingBlock: ZUJKAS_clean_linker_0, # of connection points: 2
#     Edge 75, Type (0, 1), BuildingBlock: ZUJKAS_clean_linker_0, # of connection points: 2
# Relax obj value: 0.122
# Max RMSD: 0.270
# Mean RMSD: 0.162
data_MOF--net-ctn--node1-KUFVIS_clean_sbu_0--node2-QEWDON_clean_linker_0--edge1-ZUJKAS_clean_linker_0
_symmetry_space_group_name_H-M    P1
_symmetry_Int_Tables_number       1
_symmetry_cell_setting            triclinic
loop_
_symmetry_equiv_pos_as_xyz
'x, y, z'
_cell_length_a     67.843239
_cell_length_b     70.468355
_cell_length_c     75.273857
_cell_angle_alpha  98.695531
_cell_angle_beta   92.424631
_cell_angle_gamma 96.618716
loop_
_atom_site_label
_atom_site_type_symbol
_atom_site_fract_x
_atom_site_fract_y
_atom_site_fract_z
_atom_type_partial_charge
H0 H 0.09974 0.04294 0.05135 0.0
C1 C 0.09106 0.0387 0.06218 0.0
C2 C 0.09269 0.02077 0.06798 0.0
C3 C 0.07884 0.05158 0.07079 0.0
H4 H 0.08274 1.00221 0.08711 0.0
C5 C 0.08143 0.01577 0.08231 0.0
C6 C 0.06878 0.02836 0.09079 0.0
C7 C 0.06763 0.04618 0.08489 0.0
C8 C 0.07915 0.07154 0.06661 0.0
H9 H 0.05844 0.05627 0.09171 0.0
C10 C 0.0744 0.07523 0.0491 0.0
C11 C 0.07326 0.09439 0.04608 0.0
C12 C 0.08354 0.08718 0.08073 0.0
H13 H 0.08743 0.08472 0.09424 0.0
C14 C 0.08293 0.1061 0.07764 0.0
H15 H 0.07079 0.0633 0.03813 0.0
C16 C 0.07768 0.1097 0.0605 0.0
H17 H 0.07708 0.12452 0.05846 0.0
H18 H 0.08634 0.11801 0.08864 0.0
H19 H 0.3693 0.72534 0.21212 0.0
C20 C 0.35893 0.7122 0.20935 0.0
C21 C 0.36306 0.6957 0.21659 0.0
C22 C 0.34102 0.71225 0.19926 0.0
H23 H 0.35163 0.66651 0.21935 0.0
C24 C 0.34904 0.67908 0.2133 0.0
C25 C 0.331 0.67889 0.20333 0.0
C26 C 0.32726 0.69543 0.19599 0.0
C27 C 0.33514 0.73089 0.1954 0.0
H28 H 0.31301 0.69576 0.18904 0.0
C29 C 0.33134 0.73439 0.17768 0.0
C30 C 0.32522 0.75221 0.17474 0.0
C31 C 0.33289 0.74529 0.20999 0.0
H32 H 0.33567 0.74285 0.2237 0.0
C33 C 0.32673 0.76281 0.20709 0.0
H34 H 0.33311 0.72339 0.16634 0.0
C35 C 0.32286 0.76625 0.18962 0.0
H36 H 0.31831 0.78008 0.1877 0.0
H37 H 0.32497 0.77378 0.21844 0.0
H38 H 0.02726 0.47962 0.03804 0.0
C39 C 0.01559 0.4886 0.03632 0.0
C40 C 0.00897 0.50001 0.05139 0.0
C41 C 0.00793 0.48934 0.01891 0.0
H42 H 0.98905 0.52096 0.06016 0.0
C43 C 0.99385 0.5117 0.04875 0.0
C44 C 0.98579 0.51238 0.03129 0.0
C45 C 0.99294 0.50101 0.01653 0.0
C46 C 0.01694 0.47958 1.00297 0.0
H47 H 0.98694 0.50124 1.003 0.0
C48 C 0.01771 0.45946 1.00017 0.0
C49 C 0.02585 0.45048 0.98458 0.0
C50 C 0.02476 0.4907 0.99034 0.0
H51 H 0.02444 0.50621 0.99231 0.0
C52 C 0.0333 0.48198 0.97519 0.0
H53 H 0.01137 0.45081 0.00974 0.0
C54 C 0.03384 0.46205 0.97229 0.0
H55 H 0.04058 0.45567 0.96039 0.0
H56 H 0.03945 0.49069 0.96561 0.0
H57 H 0.75861 0.81423 0.23235 0.0
C58 C 0.75801 0.80764 0.21833 0.0
C59 C 0.76639 0.81817 0.20542 0.0
C60 C 0.74974 0.78826 0.21338 0.0
H61 H 0.77231 0.81706 0.17733 0.0
C62 C 0.7657 0.80918 0.18733 0.0
C63 C 0.75724 0.78986 0.18213 0.0
C64 C 0.74931 0.77955 0.1953 0.0
C65 C 0.7435 0.77633 0.22725 0.0
H66 H 0.74339 0.76443 0.19163 0.0
C67 C 0.72907 0.78159 0.23938 0.0
C68 C 0.72311 0.7697 0.2522 0.0
C69 C 0.7521 0.75928 0.22818 0.0
H70 H 0.76333 0.75503 0.21907 0.0
C71 C 0.74643 0.74762 0.24091 0.0
H72 H 0.72241 0.79474 0.2387 0.0
C73 C 0.73202 0.7527 0.25278 0.0
H74 H 0.72754 0.74304 0.26219 0.0
H75 H 0.75311 0.73448 0.24148 0.0
H76 H 0.10127 0.96392 0.49469 0.0
C77 C 0.09191 0.96825 0.48438 0.0
C78 C 0.09691 0.98608 0.47823 0.0
C79 C 0.07536 0.9554 0.47655 0.0
H80 H 0.08892 1.00383 0.45864 0.0
C81 C 0.08466 0.99086 0.46435 0.0
C82 C 0.06767 0.97849 0.45679 0.0
C83 C 0.06315 0.96081 0.4631 0.0
C84 C 0.07257 0.93504 0.47983 0.0
H85 H 0.05037 0.95085 0.4572 0.0
C86 C 0.06736 0.92986 0.4966 0.0
C87 C 0.06335 0.91011 0.4984 0.0
C88 C 0.07446 0.92043 0.4653 0.0
H89 H 0.07855 0.92409 0.45236 0.0
C90 C 0.07104 0.90102 0.46723 0.0
H91 H 0.06568 0.941 0.50785 0.0
C92 C 0.0654 0.89587 0.48359 0.0
H93 H 0.06261 0.88065 0.48469 0.0
H94 H 0.07255 0.8899 0.45593 0.0
H95 H 0.27317 0.67143 0.79006 0.0
C96 C 0.2693 0.67962 0.80253 0.0
C97 C 0.277 0.67559 0.81899 0.0
C98 C 0.25687 0.6942 0.80193 0.0
H99 H 0.27809 0.68359 0.84788 0.0
C100 C 0.27185 0.6862 0.8351 0.0
C101 C 0.2592 0.70067 0.8348 0.0
C102 C 0.25152 0.70439 0.81818 0.0
C103 C 0.2511 0.69973 0.78428 0.0
H104 H 0.2424 0.71602 0.81791 0.0
C105 C 0.23155 0.70332 0.77993 0.0
C106 C 0.22644 0.70762 0.76273 0.0
C107 C 0.26551 0.70129 0.77148 0.0
H108 H 0.28075 0.6991 0.77455 0.0
C109 C 0.26054 0.70585 0.75463 0.0
H110 H 0.22024 0.7021 0.78957 0.0
C111 C 0.24114 0.70886 0.75021 0.0
H112 H 0.23761 0.71234 0.73699 0.0
H113 H 0.27177 0.70699 0.74492 0.0
H114 H 0.99736 0.58038 0.46671 0.0
C115 C 0.98824 0.56862 0.4713 0.0
C116 C 0.98272 0.57064 0.48922 0.0
C117 C 0.98044 0.55224 0.45888 0.0
H118 H 0.96568 0.55734 0.50858 0.0
C119 C 0.96992 0.55579 0.49475 0.0
C120 C 0.96211 0.53926 0.48256 0.0
C121 C 0.96755 0.53759 0.46462 0.0
C122 C 0.98214 0.55232 0.43939 0.0
H123 H 0.96081 0.52546 0.4548 0.0
C124 C 0.99942 0.54799 0.43064 0.0
C125 C 1.0004 0.54858 0.41202 0.0
C126 C 0.9659 0.55698 0.42944 0.0
H127 H 0.9525 0.5603 0.43597 0.0
C128 C 0.96684 0.55754 0.41109 0.0
H129 H 0.012 0.54436 0.43825 0.0
C130 C 0.98394 0.55343 0.40242 0.0
H131 H 0.98424 0.55381 0.3881 0.0
H132 H 0.95424 0.56117 0.40353 0.0
H133 H 0.85085 0.8363 0.80859 0.0
C134 C 0.84837 0.82461 0.81639 0.0
C135 C 0.85873 0.80833 0.81284 0.0
C136 C 0.83591 0.82657 0.83084 0.0
H137 H 0.86347 0.78095 0.82095 0.0
C138 C 0.85596 0.79373 0.82376 0.0
C139 C 0.84343 0.79537 0.83819 0.0
C140 C 0.83344 0.81182 0.84153 0.0
C141 C 0.82726 0.8449 0.83624 0.0
H142 H 0.82415 0.81351 0.85289 0.0
C143 C 0.81602 0.85328 0.82392 0.0
C144 C 0.80806 0.87073 0.82964 0.0
C145 C 0.83048 0.85418 0.85419 0.0
H146 H 0.83922 0.8482 0.86387 0.0
C147 C 0.8227 0.87136 0.85985 0.0
H148 H 0.81346 0.84625 0.81005 0.0
C149 C 0.81156 0.87957 0.84773 0.0
H150 H 0.80541 0.89276 0.85263 0.0
H151 H 0.82525 0.87834 0.87372 0.0
H152 H 0.34682 0.3362 0.30732 0.0
C153 C 0.34496 0.32451 0.31518 0.0
C154 C 0.35564 0.3085 0.31132 0.0
C155 C 0.33244 0.32589 0.32961 0.0
H156 H 0.36162 0.28138 0.3193 0.0
C157 C 0.35329 0.29362 0.32197 0.0
C158 C 0.34054 0.2946 0.33626 0.0
C159 C 0.33017 0.31078 0.33988 0.0
C160 C 0.32335 0.34392 0.3353 0.0
H161 H 0.32071 0.31193 0.35115 0.0
C162 C 0.31248 0.35267 0.32301 0.0
C163 C 0.30429 0.36993 0.32895 0.0
C164 C 0.32592 0.35264 0.35346 0.0
H165 H 0.33439 0.3464 0.36313 0.0
C166 C 0.31786 0.36962 0.35933 0.0
H167 H 0.3104 0.34611 0.30898 0.0
C168 C 0.30714 0.37821 0.34722 0.0
H169 H 0.3008 0.39126 0.35225 0.0
H170 H 0.31993 0.37616 0.37335 0.0
H171 H 0.52848 0.98212 0.53967 0.0
C172 C 0.51616 0.99036 0.5381 0.0
C173 C 0.50909 1.00114 0.55331 0.0
C174 C 0.50793 0.99068 0.52077 0.0
H175 H 0.48753 0.02023 0.5625 0.0
C176 C 0.49304 0.0118 0.55093 0.0
C177 C 0.48433 0.01191 0.5336 0.0
C178 C 0.49202 1.00137 0.51866 0.0
C179 C 0.51681 0.98103 0.50466 0.0
H180 H 0.48588 1.00179 0.50521 0.0
C181 C 0.51992 0.96142 0.50289 0.0
C182 C 0.52805 0.95241 0.4873 0.0
C183 C 0.52215 0.99164 0.49086 0.0
H184 H 0.52007 0.00678 0.49199 0.0
C185 C 0.5304 0.98289 0.47556 0.0
H186 H 0.51582 0.95319 0.51351 0.0
C187 C 0.53328 0.96344 0.47372 0.0
H188 H 0.53918 0.95692 0.46143 0.0
H189 H 0.53442 0.99118 0.46498 0.0
H190 H 0.25426 0.31234 0.73111 0.0
C191 C 0.25446 0.30576 0.71716 0.0
C192 C 0.26433 0.31605 0.70476 0.0
C193 C 0.24587 0.28652 0.71191 0.0
H194 H 0.27302 0.3143 0.67729 0.0
C195 C 0.26472 0.30695 0.68678 0.0
C196 C 0.25581 0.28783 0.68123 0.0
C197 C 0.24628 0.27784 0.6939 0.0
C198 C 0.2388 0.27453 0.72552 0.0
H199 H 0.23948 0.26304 0.68985 0.0
C200 C 0.22495 0.28048 0.73801 0.0
C201 C 0.21869 0.26875 0.75086 0.0
C202 C 0.24639 0.25688 0.72609 0.0
H203 H 0.25722 0.25209 0.71678 0.0
C204 C 0.24033 0.24533 0.73879 0.0
H205 H 0.21903 0.29408 0.73767 0.0
C206 C 0.22658 0.25116 0.75106 0.0
H207 H 0.22182 0.24167 0.76053 0.0
H208 H 0.24625 0.23176 0.73908 0.0
H209 H 0.86947 0.2257 0.71274 0.0
C210 C 0.85903 0.21262 0.70985 0.0
C211 C 0.86306 0.19596 0.71683 0.0
C212 C 0.84103 0.21299 0.70001 0.0
H213 H 0.85146 0.16672 0.71926 0.0
C214 C 0.84891 0.17944 0.71342 0.0
C215 C 0.83079 0.17956 0.70369 0.0
C216 C 0.82708 0.19632 0.6967 0.0
C217 C 0.83526 0.23188 0.69688 0.0
H218 H 0.81274 0.19691 0.69001 0.0
C219 C 0.834 0.23714 0.67955 0.0
C220 C 0.82944 0.25578 0.67742 0.0
C221 C 0.83147 0.24508 0.71188 0.0
H222 H 0.83234 0.24125 0.72529 0.0
C223 C 0.82649 0.26325 0.70979 0.0
H224 H 0.83714 0.22707 0.66795 0.0
C225 C 0.82551 0.26861 0.69274 0.0
H226 H 0.82152 0.28283 0.69153 0.0
H227 H 0.82347 0.27328 0.72144 0.0
H228 H 0.60111 0.54513 0.5518 0.0
C229 C 0.59237 0.54169 0.56287 0.0
C230 C 0.59299 0.52381 0.569 0.0
C231 C 0.58138 0.55566 0.57157 0.0
H232 H 0.5825 0.50641 0.58882 0.0
C233 C 0.58167 0.51982 0.5836 0.0
C234 C 0.57037 0.53359 0.59234 0.0
C235 C 0.57035 0.55145 0.58617 0.0
C236 C 0.58354 0.57558 0.56716 0.0
H237 H 0.56193 0.5623 0.59289 0.0
C238 C 0.57913 0.57937 0.54963 0.0
C239 C 0.58201 0.5985 0.5459 0.0
C240 C 0.59066 0.59104 0.58081 0.0
H241 H 0.59424 0.58847 0.59434 0.0
C242 C 0.59361 0.60991 0.5771 0.0
H243 H 0.57353 0.56757 0.53901 0.0
C244 C 0.58939 0.61363 0.55978 0.0
H245 H 0.5916 0.62845 0.55727 0.0
H246 H 0.59919 0.62169 0.58771 0.0
H247 H 0.60199 0.46089 0.99292 0.0
C248 C 0.59125 0.4661 0.98436 0.0
C249 C 0.596 0.48385 0.97817 0.0
C250 C 0.57346 0.45424 0.97805 0.0
H251 H 0.58645 0.50338 0.9611 0.0
C252 C 0.58247 0.48994 0.96619 0.0
C253 C 0.56456 0.47839 0.95986 0.0
C254 C 0.56017 0.46056 0.96597 0.0
C255 C 0.57052 0.43373 0.98077 0.0
H256 H 0.54672 0.45116 0.96082 0.0
C257 C 0.56519 0.42807 0.99733 0.0
C258 C 0.56105 0.40821 0.99863 0.0
C259 C 0.57231 0.41949 0.96592 0.0
H260 H 0.57642 0.42356 0.95312 0.0
C261 C 0.56873 0.39995 0.96734 0.0
H262 H 0.56357 0.43896 0.00881 0.0
C263 C 0.56304 0.39433 0.98351 0.0
H264 H 0.56018 0.37902 0.98422 0.0
H265 H 0.57018 0.38911 0.9558 0.0
H266 H 0.77364 0.17704 0.28948 0.0
C267 C 0.76949 0.18463 0.30214 0.0
C268 C 0.77713 0.18014 0.31844 0.0
C269 C 0.75725 0.1994 0.30194 0.0
H270 H 0.77846 0.18768 0.34741 0.0
C271 C 0.77242 0.19076 0.33473 0.0
C272 C 0.75981 0.20529 0.33477 0.0
C273 C 0.75202 0.20932 0.31833 0.0
C274 C 0.75193 0.20579 0.28463 0.0
H275 H 0.74296 0.22103 0.3183 0.0
C276 C 0.73219 0.20816 0.27963 0.0
C277 C 0.72758 0.21394 0.26293 0.0
C278 C 0.76702 0.20972 0.273 0.0
H279 H 0.78234 0.20829 0.27664 0.0
C280 C 0.76261 0.21584 0.25671 0.0
H281 H 0.72045 0.20491 0.28843 0.0
C282 C 0.74308 0.21794 0.25168 0.0
H283 H 0.74015 0.22285 0.23898 0.0
H284 H 0.77439 0.21898 0.24793 0.0
H285 H 0.49867 0.0789 0.96751 0.0
C286 C 0.48948 0.06705 0.97187 0.0
C287 C 0.48366 0.06884 0.9897 0.0
C288 C 0.48191 0.05076 0.95925 0.0
H289 H 0.46632 0.0552 0.00868 0.0
C290 C 0.47077 0.05385 0.99492 0.0
C291 C 0.46317 0.03742 0.98251 0.0
C292 C 0.46893 0.03598 0.96467 0.0
C293 C 0.48401 0.05108 0.93984 0.0
H294 H 0.46236 0.02393 0.95469 0.0
C295 C 0.50136 0.04658 0.9313 0.0
C296 C 0.50278 0.04751 0.91279 0.0
C297 C 0.46813 0.05622 0.92978 0.0
H298 H 0.45468 0.05968 0.93614 0.0
C299 C 0.46951 0.05711 0.91151 0.0
H300 H 0.51366 0.04258 0.93901 0.0
C301 C 0.48671 0.05286 0.90306 0.0
H302 H 0.48739 0.05355 0.88881 0.0
H303 H 0.4572 0.06113 0.90386 0.0
Mn304 Mn 0.26775 0.86921 0.01041 0.0
Mn305 Mn 0.26382 0.88565 0.9707 0.0
C306 C 0.25237 0.84915 0.98497 0.0
C307 C 0.28383 0.85393 0.0314 0.0
C308 C 0.23824 0.89705 1.00162 0.0
O309 O 0.28931 0.8926 0.01381 0.0
O310 O 0.28532 0.90196 0.98661 0.0
C311 C 0.3026 0.87694 0.957 0.0
N312 N 0.28239 0.87486 0.9549 0.0
C313 C 0.28271 0.85545 0.92576 0.0
C314 C 0.30353 0.85744 0.92757 0.0
C315 C 0.31351 0.86818 0.94328 0.0
C316 C 0.27263 0.86445 0.9399 0.0
H317 H 0.31033 0.88521 0.96904 0.0
C318 C 0.29401 0.90378 1.00233 0.0
O319 O 0.27108 0.86584 0.03611 0.0
O320 O 0.28784 0.85139 0.01455 0.0
N321 N 0.24372 0.87089 0.95399 0.0
C322 C 0.2236 0.86949 0.95482 0.0
C323 C 0.21139 0.85902 0.94025 0.0
C324 C 0.21999 0.85026 0.92496 0.0
C325 C 0.24075 0.85178 0.92448 0.0
C326 C 0.25215 0.86246 0.93936 0.0
H327 H 0.21692 0.87638 0.96648 0.0
O328 O 0.24796 0.84597 1.00097 0.0
O329 O 0.26509 0.86425 0.98443 0.0
O330 O 0.24578 0.88706 0.01232 0.0
O331 O 0.24385 0.89747 0.9857 0.0
C332 C 0.25059 0.84304 0.90986 0.0
C333 C 0.27155 0.84474 0.91057 0.0
H334 H 0.312 0.8507 0.91702 0.0
H335 H 0.32958 0.86973 0.94481 0.0
H336 H 0.19538 0.85782 0.94076 0.0
H337 H 0.2105 0.84229 0.91372 0.0
H338 H 0.24219 0.83478 0.8981 0.0
H339 H 0.27892 0.83768 0.89938 0.0
Mn340 Mn 0.15667 0.51028 0.24296 0.0
Mn341 Mn 0.14323 0.55534 0.24672 0.0
C342 C 0.17492 0.53386 0.22967 0.0
C343 C 0.17439 0.48751 0.25424 0.0
C344 C 0.12195 0.5212 0.22074 0.0
O345 O 0.13791 0.51096 0.26369 0.0
O346 O 0.1321 0.54201 0.2661 0.0
C347 C 0.16554 0.57237 0.28118 0.0
N348 N 0.16124 0.57283 0.26343 0.0
C349 C 0.18264 0.60275 0.26467 0.0
C350 C 0.18725 0.60266 0.28299 0.0
C351 C 0.17872 0.58735 0.29126 0.0
C352 C 0.16953 0.58736 0.25529 0.0
H353 H 0.15894 0.56067 0.2876 0.0
C354 C 0.13025 0.52555 0.27148 0.0
O355 O 0.15898 0.48221 0.24301 0.0
O356 O 0.17914 0.50597 0.25923 0.0
N357 N 0.15302 0.57018 0.22899 0.0
C358 C 0.14763 0.56768 0.21106 0.0
C359 C 0.15471 0.5818 0.20081 0.0
C360 C 0.1671 0.59838 0.20911 0.0
C361 C 0.17268 0.60051 0.22753 0.0
C362 C 0.16498 0.58608 0.23709 0.0
H363 H 0.13781 0.55514 0.20466 0.0
O364 O 0.17586 0.51563 0.22424 0.0
O365 O 0.1636 0.53777 0.24291 0.0
O366 O 0.13315 0.50871 0.22433 0.0
O367 O 0.12408 0.53865 0.22888 0.0
C368 C 0.18551 0.61641 0.23679 0.0
C369 C 0.19064 0.61744 0.2553 0.0
H370 H 0.19737 0.61421 0.29082 0.0
H371 H 0.18225 0.58715 0.30538 0.0
H372 H 0.15043 0.58002 0.18659 0.0
H373 H 0.17214 0.60941 0.20121 0.0
H374 H 0.19163 0.62788 0.2298 0.0
H375 H 0.20074 0.62959 0.26221 0.0
Mn376 Mn 0.80054 0.64125 0.99387 0.0
Mn377 Mn 0.75673 0.65105 0.97642 0.0
C378 C 0.77121 0.6214 0.99648 0.0
C379 C 0.82998 0.62678 0.99342 0.0
C380 C 0.77615 0.67236 0.01174 0.0
O381 O 0.80972 0.65965 0.97624 0.0
O382 O 0.7795 0.66531 0.96643 0.0
C383 C 0.76049 0.6325 0.9389 0.0
N384 N 0.75001 0.63443 0.95397 0.0
C385 C 0.72257 0.61222 0.93915 0.0
C386 C 0.73302 0.61004 0.92343 0.0
C387 C 0.75212 0.62015 0.92335 0.0
C388 C 0.73177 0.62455 0.95429 0.0
H389 H 0.77509 0.64037 0.93873 0.0
C390 C 0.7985 0.66795 0.96655 0.0
O391 O 0.82798 0.64227 0.00454 0.0
O392 O 0.8152 0.62019 0.98171 0.0
N393 N 0.73309 0.63836 0.98448 0.0
C394 C 0.72529 0.64157 1.0009 0.0
C395 C 0.70631 0.63243 1.00332 0.0
C396 C 0.69539 0.62041 0.98876 0.0
C397 C 0.70368 0.61742 0.97195 0.0
C398 C 0.72269 0.62685 0.97038 0.0
H399 H 0.73346 0.65109 0.01205 0.0
O400 O 0.78646 0.62218 0.00767 0.0
O401 O 0.77344 0.63219 0.98393 0.0
O402 O 0.79159 0.66363 0.01096 0.0
O403 O 0.76193 0.66868 0.99962 0.0
C404 C 0.69385 0.60542 0.95671 0.0
C405 C 0.70338 0.60266 0.94038 0.0
H406 H 0.72656 0.60062 0.91138 0.0
H407 H 0.7603 0.61852 0.91129 0.0
H408 H 0.70002 0.63479 0.01633 0.0
H409 H 0.68068 0.61352 0.99066 0.0
H410 H 0.67903 0.5981 0.95742 0.0
H411 H 0.69579 0.59316 0.92885 0.0
Mn412 Mn 0.92784 0.01249 0.272 0.0
Mn413 Mn 0.94042 0.96702 0.26692 0.0
C414 C 0.90666 0.98698 0.25578 0.0
C415 C 0.91246 0.03781 0.28712 0.0
C416 C 0.95819 0.99749 0.24577 0.0
O417 O 0.94939 0.01424 0.29227 0.0
O418 O 0.95606 0.98327 0.28787 0.0
C419 C 0.9249 0.95544 0.3004 0.0
N420 N 0.92525 0.95231 0.28212 0.0
C421 C 0.9018 0.92356 0.27983 0.0
C422 C 0.90127 0.92642 0.29864 0.0
C423 C 0.91284 0.94245 0.30896 0.0
C424 C 0.91412 0.93696 0.27206 0.0
H425 H 0.93373 0.96776 0.30838 0.0
C426 C 0.95865 1.00059 0.29652 0.0
O427 O 0.92663 0.04095 0.27648 0.0
O428 O 0.90789 0.02007 0.28966 0.0
N429 N 0.92622 0.94969 0.2473 0.0
C430 C 0.92765 0.94955 0.22928 0.0
C431 C 0.91678 0.93459 0.21706 0.0
C432 C 0.90466 0.91989 0.22348 0.0
C433 C 0.90341 0.92034 0.24208 0.0
C434 C 0.91475 0.93549 0.25362 0.0
H435 H 0.93699 0.96076 0.22425 0.0
O436 O 0.90565 1.00455 0.25291 0.0
O437 O 0.92017 0.98485 0.26781 0.0
O438 O 0.94858 0.01097 0.25283 0.0
O439 O 0.95644 0.98067 0.25032 0.0
C440 C 0.89118 0.90648 0.24962 0.0
C441 C 0.89032 0.90813 0.26848 0.0
H442 H 0.89193 0.91648 0.3053 0.0
H443 H 0.91244 0.9448 0.32348 0.0
H444 H 0.91777 0.93437 0.20272 0.0
H445 H 0.89634 0.90836 0.214 0.0
H446 H 0.88216 0.89464 0.24103 0.0
H447 H 0.88064 0.89754 0.2741 0.0
Mn448 Mn 0.30212 0.14129 0.49312 0.0
Mn449 Mn 0.25688 0.14883 0.47676 0.0
C450 C 0.2739 0.12076 0.49729 0.0
C451 C 0.33191 0.12745 0.49169 0.0
C452 C 0.27761 0.17233 0.51077 0.0
O453 O 0.3094 0.15908 0.47452 0.0
O454 O 0.2784 0.16274 0.46478 0.0
C455 C 0.25839 0.12818 0.43963 0.0
N456 N 0.24909 0.13078 0.45533 0.0
C457 C 0.22211 0.10631 0.44341 0.0
C458 C 0.23135 0.10345 0.42707 0.0
C459 C 0.24959 0.1144 0.42519 0.0
C460 C 0.23156 0.12029 0.45731 0.0
H461 H 0.27241 0.13657 0.43813 0.0
C462 C 0.29736 0.16608 0.46442 0.0
O463 O 0.33023 0.14321 0.50257 0.0
O464 O 0.31662 0.12034 0.48073 0.0
N465 N 0.23454 0.1362 0.48689 0.0
C466 C 0.22816 0.13993 0.50385 0.0
C467 C 0.21035 0.12984 0.50811 0.0
C468 C 0.19917 0.1162 0.49485 0.0
C469 C 0.20594 0.11273 0.47746 0.0
C470 C 0.22374 0.12331 0.47397 0.0
H471 H 0.23664 0.15046 0.51408 0.0
O472 O 0.28968 0.12246 0.50804 0.0
O473 O 0.27494 0.13117 0.4844 0.0
O474 O 0.29323 0.16386 0.51008 0.0
O475 O 0.26309 0.16786 0.49897 0.0
C476 C 0.19596 0.09887 0.46356 0.0
C477 C 0.20407 0.09563 0.44656 0.0
H478 H 0.22465 0.09279 0.41592 0.0
H479 H 0.25686 0.11222 0.41264 0.0
H480 H 0.20524 0.13257 0.52158 0.0
H481 H 0.18549 0.10838 0.49821 0.0
H482 H 0.18223 0.0904 0.46589 0.0
H483 H 0.19642 0.08473 0.43607 0.0
Mn484 Mn 0.42923 0.50893 0.77303 0.0
Mn485 Mn 0.44986 0.46723 0.77033 0.0
C486 C 0.41213 0.48027 0.75747 0.0
C487 C 0.41021 0.53221 0.78665 0.0
C488 C 0.4619 0.49806 0.74756 0.0
O489 O 0.45064 0.51507 0.79381 0.0
O490 O 0.46294 0.48648 0.79055 0.0
C491 C 0.43745 0.45549 0.80475 0.0
N492 N 0.43814 0.45144 0.78653 0.0
C493 C 0.42399 0.41849 0.78619 0.0
C494 C 0.42314 0.42227 0.80496 0.0
C495 C 0.42976 0.4409 0.81426 0.0
C496 C 0.43141 0.43371 0.77742 0.0
H497 H 0.44285 0.4697 0.81198 0.0
C498 C 0.4625 0.50372 0.79868 0.0
O499 O 0.4238 0.53631 0.77576 0.0
O500 O 0.40797 0.5146 0.79012 0.0
N501 N 0.43872 0.44697 0.75162 0.0
C502 C 0.43955 0.44605 0.73346 0.0
C503 C 0.43318 0.42849 0.72213 0.0
C504 C 0.42647 0.412 0.72962 0.0
C505 C 0.42569 0.41334 0.74836 0.0
C506 C 0.43192 0.43128 0.75893 0.0
H507 H 0.44523 0.45855 0.72768 0.0
O508 O 0.40827 0.49694 0.75384 0.0
O509 O 0.426 0.48075 0.77008 0.0
O510 O 0.45017 0.50982 0.75409 0.0
O511 O 0.46303 0.48184 0.75283 0.0
C512 C 0.41909 0.39756 0.75697 0.0
C513 C 0.41792 0.40019 0.77584 0.0
H514 H 0.41744 0.41099 0.81236 0.0
H515 H 0.42915 0.44394 0.82874 0.0
H516 H 0.43376 0.42758 0.70769 0.0
H517 H 0.42183 0.39841 0.72085 0.0
H518 H 0.41453 0.38339 0.74918 0.0
H519 H 0.41238 0.38805 0.78226 0.0
Mn520 Mn 0.76734 0.37142 0.51208 0.0
Mn521 Mn 0.76341 0.38817 0.47252 0.0
C522 C 0.75228 0.35143 0.48649 0.0
C523 C 0.78336 0.3562 0.53316 0.0
C524 C 0.73746 0.39891 0.50331 0.0
O525 O 0.78867 0.39502 0.51575 0.0
O526 O 0.78468 0.40458 0.48863 0.0
C527 C 0.80241 0.38003 0.45897 0.0
N528 N 0.7822 0.37776 0.45676 0.0
C529 C 0.78288 0.35871 0.42749 0.0
C530 C 0.80371 0.3609 0.42942 0.0
C531 C 0.8135 0.37156 0.44526 0.0
C532 C 0.77262 0.36743 0.44164 0.0
H533 H 0.81 0.38825 0.4711 0.0
C534 C 0.79331 0.40634 0.50437 0.0
O535 O 0.77042 0.36795 0.53774 0.0
O536 O 0.78762 0.3538 0.51637 0.0
N537 N 0.74353 0.37337 0.45563 0.0
C538 C 0.72338 0.37178 0.45633 0.0
C539 C 0.71134 0.36143 0.4416 0.0
C540 C 0.72013 0.35296 0.42629 0.0
C541 C 0.74091 0.35465 0.42595 0.0
C542 C 0.75214 0.36522 0.44099 0.0
H543 H 0.71655 0.37846 0.46799 0.0
O544 O 0.74783 0.34806 0.50243 0.0
O545 O 0.76488 0.36665 0.48609 0.0
O546 O 0.74512 0.38893 0.51395 0.0
O547 O 0.74317 0.39961 0.48747 0.0
C548 C 0.75093 0.34619 0.41133 0.0
C549 C 0.7719 0.34808 0.41216 0.0
H550 H 0.81232 0.35439 0.41887 0.0
H551 H 0.82957 0.37326 0.44687 0.0
H552 H 0.69532 0.36009 0.44199 0.0
H553 H 0.71076 0.3451 0.41492 0.0
H554 H 0.74267 0.33801 0.39946 0.0
H555 H 0.77941 0.34125 0.40096 0.0
Mn556 Mn 0.65841 0.00936 0.74344 0.0
Mn557 Mn 0.64449 0.05426 0.74754 0.0
C558 C 0.67628 0.03317 0.73016 0.0
C559 C 0.67654 0.98675 0.75453 0.0
C560 C 0.62334 0.02009 0.72153 0.0
O561 O 0.63978 0.00973 0.76426 0.0
O562 O 0.63362 0.04069 0.76687 0.0
C563 C 0.66693 0.07123 0.78196 0.0
N564 N 0.66247 0.07179 0.76425 0.0
C565 C 0.68355 0.10191 0.76557 0.0
C566 C 0.68832 0.10172 0.78385 0.0
C567 C 0.68004 0.08626 0.79205 0.0
C568 C 0.67053 0.08646 0.75617 0.0
H569 H 0.66051 0.05942 0.78832 0.0
C570 C 0.63196 0.02417 0.77214 0.0
O571 O 0.66108 0.98132 0.74337 0.0
O572 O 0.68109 0.00522 0.75955 0.0
N573 N 0.65398 0.06932 0.72987 0.0
C574 C 0.64843 0.06692 0.71198 0.0
C575 C 0.65524 0.0812 0.7018 0.0
C576 C 0.66751 0.09785 0.71015 0.0
C577 C 0.67327 0.09987 0.72851 0.0
C578 C 0.66583 0.08527 0.73801 0.0
H579 H 0.63869 0.05434 0.70557 0.0
O580 O 0.67739 0.015 0.72464 0.0
O581 O 0.66502 0.03691 0.74349 0.0
O582 O 0.6347 0.00767 0.72495 0.0
O583 O 0.62538 0.03751 0.72974 0.0
C584 C 0.68601 0.11583 0.7378 0.0
C585 C 0.6913 0.11675 0.75627 0.0
H586 H 0.69838 0.11331 0.79169 0.0
H587 H 0.68369 0.08598 0.80614 0.0
H588 H 0.65082 0.07951 0.68762 0.0
H589 H 0.67231 0.10901 0.7023 0.0
H590 H 0.69193 0.12741 0.73086 0.0
H591 H 0.70132 0.12895 0.7632 0.0
Mn592 Mn 0.03779 0.22618 0.88001 0.0
Mn593 Mn 0.99177 0.22137 0.89533 0.0
C594 C 0.01116 0.20984 0.86129 0.0
C595 C 0.06298 0.24281 0.86604 0.0
C596 C 0.02444 0.19861 0.90623 0.0
O597 O 0.03976 0.2475 0.9019 0.0
O598 O 0.00798 0.24414 0.90998 0.0
C599 C 0.97731 0.257 0.88622 0.0
N600 N 0.97528 0.23735 0.88468 0.0
C601 C 0.94488 0.23437 0.86626 0.0
C602 C 0.94661 0.25457 0.86769 0.0
C603 C 0.96293 0.26592 0.87767 0.0
C604 C 0.95966 0.22629 0.87507 0.0
H605 H 0.98982 0.26578 0.8939 0.0
C606 C 0.02582 0.25282 0.91174 0.0
O607 O 0.06683 0.23074 0.87677 0.0
O608 O 0.04454 0.24567 0.86385 0.0
N609 N 0.97473 0.20002 0.8819 0.0
C610 C 0.97612 0.18074 0.88065 0.0
C611 C 0.96141 0.16737 0.87046 0.0
C612 C 0.94537 0.17395 0.86179 0.0
C613 C 0.94426 0.19387 0.8633 0.0
C614 C 0.95938 0.20651 0.87359 0.0
H615 H 0.98839 0.1756 0.88732 0.0
O616 O 0.02917 0.20626 0.85821 0.0
O617 O 0.00938 0.22238 0.87546 0.0
O618 O 0.03744 0.20527 0.89629 0.0
O619 O 0.00712 0.20397 0.90706 0.0
C620 C 0.92887 0.20169 0.85482 0.0
C621 C 0.92923 0.22192 0.85621 0.0
H622 H 0.93558 0.26151 0.86108 0.0
H623 H 0.96441 0.28152 0.87879 0.0
H624 H 0.96241 0.15202 0.86931 0.0
H625 H 0.93407 0.1636 0.85391 0.0
H626 H 0.91687 0.19225 0.84691 0.0
H627 H 0.91753 0.22774 0.8493 0.0
Mn628 Mn 0.53887 0.7284 0.37924 0.0
Mn629 Mn 0.49277 0.72323 0.39437 0.0
C630 C 0.51241 0.71165 0.36051 0.0
C631 C 0.56415 0.74492 0.36527 0.0
C632 C 0.52572 0.7011 0.40576 0.0
O633 O 0.54053 0.74995 0.40092 0.0
O634 O 0.50875 0.74625 0.40888 0.0
C635 C 0.47795 0.75856 0.3849 0.0
N636 N 0.47612 0.73893 0.38351 0.0
C637 C 0.44564 0.73552 0.36513 0.0
C638 C 0.44716 0.7557 0.36641 0.0
C639 C 0.46343 0.76726 0.37629 0.0
C640 C 0.46058 0.72767 0.37398 0.0
H641 H 0.49039 0.76751 0.39253 0.0
C642 C 0.52649 0.75519 0.41065 0.0
O643 O 0.56793 0.7331 0.37626 0.0
O644 O 0.54569 0.74762 0.36279 0.0
N645 N 0.47595 0.70167 0.38103 0.0
C646 C 0.47754 0.68243 0.37992 0.0
C647 C 0.46292 0.66887 0.36984 0.0
C648 C 0.44675 0.67522 0.36114 0.0
C649 C 0.44543 0.69509 0.3625 0.0
C650 C 0.46049 0.70793 0.37266 0.0
H651 H 0.48991 0.67748 0.38663 0.0
O652 O 0.53049 0.70817 0.35759 0.0
O653 O 0.51047 0.72428 0.37455 0.0
O654 O 0.53867 0.7079 0.39587 0.0
O655 O 0.50823 0.70608 0.40635 0.0
C656 C 0.42989 0.70267 0.35399 0.0
C657 C 0.43005 0.72287 0.35522 0.0
H658 H 0.43601 0.76246 0.35976 0.0
H659 H 0.46474 0.78284 0.37729 0.0
H660 H 0.46409 0.65356 0.36881 0.0
H661 H 0.43552 0.66472 0.35335 0.0
H662 H 0.41793 0.69308 0.34619 0.0
H663 H 0.41823 0.72851 0.3483 0.0
Mn664 Mn 0.02471 0.7641 0.64886 0.0
Mn665 Mn 1.00293 0.72464 0.66426 0.0
C666 C 0.02312 0.73351 0.63147 0.0
C667 C 0.02459 0.79052 0.6332 0.0
C668 C 0.04446 0.74333 0.67682 0.0
O669 O 0.0082 0.7762 0.66882 0.0
O670 O 0.99552 0.74868 0.67816 0.0
C671 C 0.9613 0.72843 0.65329 0.0
N672 N 0.97674 0.71767 0.65319 0.0
C673 C 0.95612 0.68926 0.63815 0.0
C674 C 0.93996 0.70001 0.63809 0.0
C675 C 0.94261 0.71972 0.64557 0.0
C676 C 0.97448 0.69885 0.64563 0.0
H677 H 0.96323 0.74349 0.65932 0.0
C678 C 0.99768 0.7671 0.67927 0.0
O679 O 0.03819 0.78996 0.64567 0.0
O680 O 0.01053 0.77605 0.63028 0.0
N681 N 0.00841 0.70004 0.65246 0.0
C682 C 0.02567 0.69194 0.65313 0.0
C683 C 0.02557 0.67222 0.64647 0.0
C684 C 0.00768 0.66098 0.63956 0.0
C685 C 0.99015 0.66969 0.63882 0.0
C686 C 0.99119 0.68941 0.64554 0.0
H687 H 0.03933 0.70039 0.65896 0.0
O688 O 0.03654 0.74745 0.62918 0.0
O689 O 0.01085 0.73777 0.6439 0.0
O690 O 0.04452 0.7572 0.66769 0.0
O691 O 0.02975 0.73022 0.67628 0.0
C692 C 0.97163 0.65955 0.63186 0.0
C693 C 0.9547 0.66939 0.63124 0.0
H694 H 0.92545 0.69328 0.63237 0.0
H695 H 0.93022 0.72811 0.64559 0.0
H696 H 0.03917 0.66562 0.64699 0.0
H697 H 0.00761 0.64569 0.63474 0.0
H698 H 0.9703 0.64421 0.62674 0.0
H699 H 0.94064 0.66151 0.62555 0.0
Mn700 Mn 0.52272 0.26228 0.14944 0.0
Mn701 Mn 0.50118 0.22271 0.16485 0.0
C702 C 0.52157 0.2317 0.13213 0.0
C703 C 0.52228 0.28865 0.13375 0.0
C704 C 0.5424 0.24215 0.17785 0.0
O705 O 0.50604 0.27417 0.16944 0.0
O706 O 0.49283 0.24655 0.17823 0.0
C707 C 0.45954 0.2252 0.15291 0.0
N708 N 0.47533 0.21493 0.15327 0.0
C709 C 0.45569 0.18593 0.13821 0.0
C710 C 0.43917 0.19616 0.13768 0.0
C711 C 0.44116 0.21592 0.14493 0.0
C712 C 0.47371 0.19607 0.14594 0.0
H713 H 0.46095 0.24029 0.15878 0.0
C714 C 0.49506 0.26498 0.17953 0.0
O715 O 0.5359 0.28826 0.14626 0.0
O716 O 0.50836 0.27406 0.13083 0.0
N717 N 0.50761 0.1983 0.15347 0.0
C718 C 0.52516 0.19077 0.15454 0.0
C719 C 0.52577 0.17112 0.14802 0.0
C720 C 0.50826 0.15935 0.14086 0.0
C721 C 0.4904 0.16747 0.13977 0.0
C722 C 0.49075 0.18717 0.14632 0.0
H723 H 0.53852 0.19963 0.16058 0.0
O724 O 0.53477 0.24581 0.12978 0.0
O725 O 0.50921 0.23583 0.14451 0.0
O726 O 0.54265 0.25558 0.16821 0.0
O727 O 0.52765 0.22912 0.17754 0.0
C728 C 0.47222 0.15677 0.13263 0.0
C729 C 0.45495 0.16606 0.13156 0.0
H730 H 0.42491 0.18899 0.13175 0.0
H731 H 0.42848 0.22392 0.14458 0.0
H732 H 0.53962 0.16497 0.14883 0.0
H733 H 0.50873 0.14411 0.13615 0.0
H734 H 0.4714 0.14143 0.12768 0.0
H735 H 0.44116 0.15775 0.12571 0.0
H736 H 0.28674 0.72223 0.85907 0.0
H737 H 0.28111 0.74462 0.88591 0.0
H738 H 0.21772 0.72938 0.87583 0.0
H739 H 0.22343 0.70775 0.84823 0.0
H740 H 0.22433 0.76567 0.88488 0.0
H741 H 0.26844 0.73603 0.93463 0.0
H742 H 0.28412 0.74187 0.91721 0.0
H743 H 0.26297 0.72347 0.91195 0.0
C744 C 0.27162 0.7235 0.86274 0.0
C745 C 0.25552 0.71314 0.85173 0.0
C746 C 0.26839 0.73618 0.87819 0.0
C747 C 0.24898 0.73834 0.88333 0.0
C748 C 0.23284 0.72789 0.87232 0.0
H749 H 0.21775 0.82548 0.97318 0.0
H750 H 0.21372 0.7972 0.94901 0.0
C751 C 0.23609 0.71551 0.85659 0.0
C752 C 0.24568 0.75251 0.89947 0.0
H753 H 0.26362 0.76985 0.94268 0.0
C754 C 0.23268 0.76635 0.89762 0.0
C755 C 0.2561 0.75324 0.91633 0.0
C756 C 0.26847 0.73768 0.92018 0.0
C757 C 0.23097 0.78162 0.91163 0.0
C758 C 0.24283 0.78332 0.92784 0.0
C759 C 0.25489 0.76885 0.93009 0.0
C760 C 0.24443 0.8007 0.94202 0.0
C761 C 0.21689 0.79605 0.90871 0.0
C762 C 0.26296 0.81192 0.94621 0.0
C763 C 0.26524 0.82784 0.95992 0.0
C764 C 0.24898 0.83316 0.96961 0.0
C765 C 0.2304 0.8219 0.9656 0.0
C766 C 0.2281 0.80583 0.9518 0.0
H767 H 0.20301 0.79253 0.91547 0.0
H768 H 0.22338 0.81084 0.91469 0.0
H769 H 0.21294 0.7958 0.8942 0.0
H770 H 0.2758 0.80823 0.93894 0.0
H771 H 0.27989 0.83583 0.96319 0.0
H772 H 0.02066 0.57045 0.39041 0.0
H773 H 0.04663 0.56127 0.37043 0.0
H774 H 0.04606 0.50721 0.39074 0.0
H775 H 0.01989 0.51641 0.41093 0.0
H776 H 0.086 0.5486 0.37858 0.0
H777 H 0.03305 0.4931 0.33432 0.0
H778 H 0.02443 0.51215 0.34976 0.0
H779 H 0.0346 0.49265 0.3582 0.0
C780 C 0.02627 0.55672 0.39081 0.0
C781 C 0.01822 0.5441 0.40215 0.0
C782 C 0.0411 0.5515 0.3794 0.0
C783 C 0.04809 0.53347 0.37894 0.0
C784 C 0.04072 0.52112 0.39079 0.0
H785 H 0.12154 0.49377 0.28877 0.0
H786 H 0.10366 0.49265 0.31647 0.0
C787 C 0.02593 0.52644 0.40239 0.0
C788 C 0.06235 0.5276 0.36533 0.0
H789 H 0.06431 0.50136 0.32349 0.0
C790 C 0.08142 0.53798 0.3667 0.0
C791 C 0.0564 0.51365 0.3499 0.0
C792 C 0.036 0.50221 0.34777 0.0
C793 C 0.09432 0.53548 0.35265 0.0
C794 C 0.08781 0.52259 0.33663 0.0
C795 C 0.06926 0.51127 0.33574 0.0
C796 C 0.0988 0.52276 0.31997 0.0
C797 C 0.1146 0.54714 0.35487 0.0
C798 C 0.10156 0.53987 0.31254 0.0
C799 C 0.11159 0.54055 0.29683 0.0
C800 C 0.11909 0.52406 0.28795 0.0
C801 C 0.11604 0.50675 0.29524 0.0
C802 C 0.10585 0.50609 0.31107 0.0
H803 H 0.11986 0.5509 0.3693 0.0
H804 H 0.12571 0.53917 0.34745 0.0
H805 H 0.11376 0.56087 0.3495 0.0
H806 H 0.09583 0.55279 0.31888 0.0
H807 H 0.11348 0.55417 0.29171 0.0
H808 H 0.87266 0.77682 0.85204 0.0
H809 H 0.86922 0.75318 0.87288 0.0
H810 H 0.80626 0.75695 0.87315 0.0
H811 H 0.80948 0.78017 0.85207 0.0
H812 H 0.85491 0.75776 0.90773 0.0
H813 H 0.80862 0.6986 0.86246 0.0
H814 H 0.82229 0.71872 0.85426 0.0
H815 H 0.7987 0.72128 0.86385 0.0
C816 C 0.85803 0.77237 0.8563 0.0
C817 C 0.84133 0.78036 0.85029 0.0
C818 C 0.85612 0.75897 0.86833 0.0
C819 C 0.83745 0.75309 0.87443 0.0
C820 C 0.82077 0.761 0.86841 0.0
H821 H 0.77897 0.69126 0.94813 0.0
H822 H 0.7915 0.71085 0.92626 0.0
C823 C 0.82267 0.77442 0.85647 0.0
C824 C 0.8353 0.73915 0.88748 0.0
H825 H 0.80899 0.69667 0.89398 0.0
C826 C 0.84513 0.74423 0.90466 0.0
C827 C 0.82269 0.72142 0.88342 0.0
C828 C 0.81262 0.71455 0.86493 0.0
C829 C 0.84171 0.73264 0.91819 0.0
C830 C 0.82829 0.71542 0.91437 0.0
C831 C 0.81922 0.70991 0.89694 0.0
C832 C 0.82164 0.70401 0.92862 0.0
C833 C 0.85163 0.73936 0.93674 0.0
C834 C 0.83451 0.69368 0.93751 0.0
C835 C 0.82733 0.68227 0.95024 0.0
C836 C 0.80715 0.68096 0.95421 0.0
C837 C 0.79456 0.6917 0.94546 0.0
C838 C 0.80169 0.70298 0.93286 0.0
H839 H 0.85957 0.75426 0.93815 0.0
H840 H 0.84046 0.73899 0.94709 0.0
H841 H 0.86255 0.72944 0.9395 0.0
H842 H 0.84995 0.6941 0.93431 0.0
H843 H 0.83743 0.67416 0.95663 0.0
H844 H 0.05777 0.01422 0.45184 0.0
H845 H 0.03942 0.02255 0.42594 0.0
H846 H 0.03132 0.96266 0.40136 0.0
H847 H 0.05027 0.95423 0.42674 0.0
H848 H 0.04984 0.0117 0.38635 0.0
H849 H 0.97391 0.98333 0.40269 0.0
H850 H 0.99414 0.99066 0.41966 0.0
H851 H 0.99316 0.96808 0.40481 0.0
C852 C 0.05222 1.0028 0.44089 0.0
C853 C 0.05553 0.98351 0.44149 0.0
C854 C 0.04164 0.0076 0.42615 0.0
C855 C 0.03392 0.9932 0.41183 0.0
C856 C 0.03697 0.97395 0.4124 0.0
H857 H 0.99053 0.98202 0.30318 0.0
H858 H 0.00957 0.98383 0.33179 0.0
C859 C 0.04771 0.96915 0.42702 0.0
C860 C 0.02312 0.99823 0.39597 0.0
H861 H 0.97741 0.99193 0.37359 0.0
C862 C 0.03397 0.00761 0.38364 0.0
C863 C 1.00241 0.99298 0.39256 0.0
C864 C 0.99009 0.98332 0.40564 0.0
C865 C 0.02473 0.01113 0.36758 0.0
C866 C 1.00417 0.00515 0.36382 0.0
C867 C 0.99318 0.99652 0.37652 0.0
C868 C 0.99415 0.00606 0.34611 0.0
C869 C 0.03704 0.02086 0.35454 0.0
C870 C 0.97933 0.0182 0.3446 0.0
C871 C 0.96854 0.01739 0.32812 0.0
C872 C 0.97213 1.0041 0.31304 0.0
C873 C 0.9874 0.99241 0.31454 0.0
C874 C 0.99834 0.99345 0.33087 0.0
H875 H 0.05147 0.02831 0.36101 0.0
H876 H 0.04015 0.00981 0.3432 0.0
H877 H 0.02883 0.03155 0.34887 0.0
H878 H 0.9758 0.02795 0.35627 0.0
H879 H 0.95673 0.02642 0.32745 0.0
H880 H 0.25223 0.30203 0.64932 0.0
H881 H 0.25517 0.28497 0.61878 0.0
H882 H 0.26678 0.23393 0.6406 0.0
H883 H 0.26415 0.25083 0.67102 0.0
H884 H 0.28758 0.26688 0.60387 0.0
H885 H 0.22003 0.21429 0.60311 0.0
H886 H 0.22486 0.23617 0.61937 0.0
H887 H 0.23694 0.21536 0.62235 0.0
C888 C 0.25548 0.2872 0.64761 0.0
C889 C 0.25767 0.27772 0.66262 0.0
C890 C 0.2571 0.27746 0.63016 0.0
C891 C 0.26083 0.25808 0.62742 0.0
C892 C 0.26342 0.24874 0.64238 0.0
H893 H 0.30486 0.18598 0.53913 0.0
H894 H 0.30056 0.20855 0.56625 0.0
C895 C 0.26184 0.25842 0.65977 0.0
C896 C 0.26226 0.24753 0.609 0.0
H897 H 0.2423 0.2072 0.58003 0.0
C898 C 0.27758 0.25394 0.59856 0.0
C899 C 0.24902 0.23081 0.602 0.0
C900 C 0.23166 0.22382 0.6122 0.0
C901 C 0.28048 0.24362 0.58156 0.0
C902 C 0.26786 0.22633 0.57497 0.0
C903 C 0.25209 0.22036 0.58514 0.0
C904 C 0.27104 0.21383 0.55786 0.0
C905 C 0.297 0.25132 0.57082 0.0
C906 C 0.2558 0.2091 0.54416 0.0
C907 C 0.25814 0.19607 0.52864 0.0
C908 C 0.27575 0.18737 0.52655 0.0
C909 C 0.29113 0.19243 0.54019 0.0
C910 C 0.28876 0.20545 0.5557 0.0
H911 H 0.3013 0.26711 0.57507 0.0
H912 H 0.31028 0.24394 0.57303 0.0
H913 H 0.29262 0.24858 0.55619 0.0
H914 H 0.24195 0.21529 0.5456 0.0
H915 H 0.24594 0.19251 0.51849 0.0
H916 H 0.56875 0.55843 0.62383 0.0
H917 H 0.55071 0.55259 0.6503 0.0
H918 H 0.52976 0.49451 0.62443 0.0
H919 H 0.5475 0.50036 0.59765 0.0
H920 H 0.49972 0.51521 0.64097 0.0
H921 H 0.56616 0.5186 0.68755 0.0
H922 H 0.56574 0.53896 0.67583 0.0
H923 H 0.56747 0.51542 0.66338 0.0
C924 C 0.5602 0.54444 0.62368 0.0
C925 C 0.55954 0.52987 0.60856 0.0
C926 C 0.55006 0.54107 0.63893 0.0
C927 C 0.53907 0.52305 0.63944 0.0
C928 C 0.53824 0.5085 0.62436 0.0
H929 H 0.49036 0.47789 0.73152 0.0
H930 H 0.50884 0.4844 0.70551 0.0
C931 C 0.54847 0.51183 0.60911 0.0
C932 C 0.52822 0.51953 0.65563 0.0
H933 H 0.53488 0.51757 0.70056 0.0
C934 C 0.50739 0.5157 0.654 0.0
C935 C 0.53827 0.52001 0.67259 0.0
C936 C 0.56065 0.5233 0.675 0.0
C937 C 0.49634 0.51259 0.66892 0.0
C938 C 0.50636 0.51352 0.68597 0.0
C939 C 0.5272 0.51707 0.68754 0.0
C940 C 0.49551 0.51017 0.7022 0.0
C941 C 0.47403 0.50801 0.66627 0.0
C942 C 0.48213 0.52273 0.70925 0.0
C943 C 0.47155 0.51912 0.72423 0.0
C944 C 0.47412 0.50283 0.73247 0.0
C945 C 0.48791 0.49055 0.72556 0.0
C946 C 0.49852 0.49423 0.71066 0.0
H947 H 0.46906 0.50367 0.65182 0.0
H948 H 0.46856 0.4962 0.67373 0.0
H949 H 0.46706 0.52104 0.67157 0.0
H950 H 0.47981 0.53531 0.70311 0.0
H951 H 0.46111 0.52892 0.72915 0.0
H952 H 0.84547 0.29042 0.66923 0.0
H953 H 0.83998 0.30358 0.64153 0.0
H954 H 0.80688 0.2493 0.6171 0.0
H955 H 0.81182 0.23616 0.64519 0.0
H956 H 0.84817 0.29383 0.60615 0.0
H957 H 0.76657 0.28744 0.61377 0.0
H958 H 0.78395 0.28382 0.63138 0.0
H959 H 0.7774 0.2652 0.61227 0.0
C960 C 0.83707 0.28122 0.65794 0.0
C961 C 0.82873 0.26236 0.65953 0.0
C962 C 0.83407 0.28873 0.64205 0.0
C963 C 0.82267 0.2776 0.62734 0.0
C964 C 0.81538 0.25831 0.62842 0.0
H965 H 0.80583 0.32613 0.52675 0.0
H966 H 0.81627 0.30577 0.54826 0.0
C967 C 0.81837 0.25075 0.64441 0.0
C968 C 0.81749 0.28684 0.61152 0.0
H969 H 0.77844 0.30183 0.58953 0.0
C970 C 0.83291 0.2954 0.60236 0.0
C971 C 0.79758 0.28913 0.60676 0.0
C972 C 0.78039 0.28108 0.61661 0.0
C973 C 0.82901 0.30654 0.58887 0.0
C974 C 0.80911 0.30893 0.58423 0.0
C975 C 0.79368 0.29995 0.59307 0.0
C976 C 0.8039 0.32171 0.57115 0.0
C977 C 0.84626 0.31634 0.58029 0.0
C978 C 0.79341 0.33737 0.57679 0.0
C979 C 0.78733 0.3489 0.56454 0.0
C980 C 0.79158 0.34504 0.54632 0.0
C981 C 0.80247 0.3296 0.54073 0.0
C982 C 0.8085 0.31797 0.55302 0.0
H983 H 0.86057 0.31661 0.58812 0.0
H984 H 0.84749 0.30834 0.56658 0.0
H985 H 0.84393 0.33142 0.579 0.0
H986 H 0.78971 0.34057 0.5907 0.0
H987 H 0.77896 0.36066 0.56932 0.0
H988 H 0.4922 0.9997 0.58579 0.0
H989 H 0.50932 1.00151 0.61552 0.0
H990 H 0.56588 0.00572 0.59147 0.0
H991 H 0.54904 1.00448 0.56195 0.0
H992 H 0.53656 0.97728 0.62779 0.0
H993 H 0.57129 0.05309 0.6314 0.0
H994 H 0.55097 0.04247 0.61541 0.0
H995 H 0.5759 0.03746 0.61126 0.0
C996 C 0.50828 1.00117 0.58687 0.0
C997 C 0.51922 1.00196 0.57145 0.0
C998 C 0.51803 1.00205 0.60384 0.0
C999 C 0.53889 1.00394 0.60574 0.0
C1000 C 0.5498 1.0045 0.59037 0.0
H1001 H 0.61967 0.98892 0.69417 0.0
H1002 H 0.59758 0.98372 0.66682 0.0
C1003 C 0.54011 1.0036 0.57345 0.0
C1004 C 0.54939 0.00559 0.62376 0.0
H1005 H 0.5831 0.03549 0.6533 0.0
C1006 C 0.54665 0.99004 0.63345 0.0
C1007 C 0.56238 0.02233 0.63122 0.0
C1008 C 0.56521 0.03988 0.62189 0.0
C1009 C 0.55693 0.99062 0.65022 0.0
C1010 C 0.57047 0.0071 0.65736 0.0
C1011 C 0.57285 0.02278 0.6478 0.0
C1012 C 0.58226 0.00868 0.67478 0.0
C1013 C 0.55304 0.97371 0.66023 0.0
C1014 C 0.58099 0.02435 0.68842 0.0
C1015 C 0.59366 0.02743 0.70397 0.0
C1016 C 0.60801 0.01493 0.70628 0.0
C1017 C 0.60872 0.99874 0.69294 0.0
C1018 C 0.59603 0.99572 0.67729 0.0
H1019 H 0.53867 0.96479 0.65548 0.0
H1020 H 0.56505 0.96434 0.65793 0.0
H1021 H 0.55288 0.97867 0.67494 0.0
H1022 H 0.5705 0.03455 0.68682 0.0
H1023 H 0.59259 0.04001 0.71395 0.0
H1024 H 0.88681 0.16728 0.71973 0.0
H1025 H 0.91241 0.16667 0.74352 0.0
H1026 H 0.9051 0.22518 0.76625 0.0
H1027 H 0.87892 0.22562 0.7432 0.0
H1028 H 0.94841 0.18903 0.75499 0.0
H1029 H 0.89483 0.19636 0.80835 0.0
H1030 H 0.88699 0.19099 0.78473 0.0
H1031 H 0.89535 0.2155 0.79509 0.0
C1032 C 0.89064 0.18002 0.7298 0.0
C1033 C 0.88061 0.19643 0.72959 0.0
C1034 C 0.90536 0.17967 0.74333 0.0
C1035 C 0.91033 0.19571 0.7569 0.0
C1036 C 0.90117 0.21247 0.75615 0.0
H1037 H 0.9894 0.23524 0.84889 0.0
H1038 H 0.96477 0.22938 0.82344 0.0
C1039 C 0.88639 0.21279 0.74275 0.0
C1040 C 0.92456 0.19485 0.77222 0.0
H1041 H 0.92922 0.20174 0.81808 0.0
C1042 C 0.94418 0.19151 0.76881 0.0
C1043 C 0.91896 0.19787 0.79024 0.0
C1044 C 0.89783 0.20017 0.79484 0.0
C1045 C 0.95856 0.19212 0.78299 0.0
C1046 C 0.95309 0.19602 0.80099 0.0
C1047 C 0.93337 0.19872 0.80433 0.0
C1048 C 0.96787 0.19899 0.81656 0.0
C1049 C 0.97967 0.18945 0.77871 0.0
C1050 C 0.97764 0.18376 0.82129 0.0
C1051 C 0.99158 0.18706 0.83608 0.0
C1052 C 0.99563 0.20553 0.84645 0.0
C1053 C 0.98599 0.22071 0.84152 0.0
C1054 C 0.97208 0.21742 0.82688 0.0
H1055 H 0.98209 0.18931 0.76418 0.0
H1056 H 0.9902 0.20119 0.78671 0.0
H1057 H 0.98321 0.17551 0.78239 0.0
H1058 H 0.97446 0.16937 0.81357 0.0
H1059 H 0.99913 0.17523 0.83946 0.0
H1060 H 0.5589 0.93467 0.47284 0.0
H1061 H 0.56015 0.90001 0.46412 0.0
H1062 H 0.50395 0.88778 0.48731 0.0
H1063 H 0.50215 0.92247 0.49542 0.0
H1064 H 0.55898 0.8683 0.48232 0.0
H1065 H 0.49274 0.86248 0.43491 0.0
H1066 H 0.50574 0.88545 0.44545 0.0
H1067 H 0.48869 0.87182 0.45782 0.0
C1068 C 0.54679 0.92462 0.47611 0.0
C1069 C 0.53025 0.93139 0.48455 0.0
C1070 C 0.54762 0.9048 0.47124 0.0
C1071 C 0.53195 0.89132 0.47472 0.0
C1072 C 0.51602 0.89795 0.48416 0.0
H1073 H 0.50232 0.76866 0.43658 0.0
H1074 H 0.50516 0.80091 0.45426 0.0
C1075 C 0.51512 0.9178 0.48898 0.0
C1076 C 0.53175 0.8705 0.46741 0.0
H1077 H 0.506 0.83358 0.43782 0.0
C1078 C 0.54738 0.86066 0.47263 0.0
C1079 C 0.51669 0.86062 0.45464 0.0
C1080 C 0.50011 0.87063 0.44771 0.0
C1081 C 0.5482 0.84112 0.46556 0.0
C1082 C 0.53312 0.83129 0.45281 0.0
C1083 C 0.51748 0.84111 0.44769 0.0
C1084 C 0.53326 0.81091 0.44421 0.0
C1085 C 0.56503 0.8311 0.47192 0.0
C1086 C 0.54837 0.80563 0.43296 0.0
C1087 C 0.54683 0.78709 0.42278 0.0
C1088 C 0.53003 0.77357 0.42355 0.0
C1089 C 0.51543 0.77868 0.43552 0.0
C1090 C 0.51701 0.79714 0.44568 0.0
H1091 H 0.57236 0.83893 0.48487 0.0
H1092 H 0.55966 0.81603 0.47364 0.0
H1093 H 0.57636 0.83052 0.4617 0.0
H1094 H 0.56088 0.81614 0.43136 0.0
H1095 H 0.5583 0.78372 0.41364 0.0
H1096 H 0.18339 0.2825 0.74394 0.0
H1097 H 0.15618 0.28616 0.76417 0.0
H1098 H 0.192 0.26951 0.80659 0.0
H1099 H 0.21929 0.26647 0.78673 0.0
H1100 H 0.13719 0.25667 0.77813 0.0
H1101 H 0.16791 0.3135 0.8343 0.0
H1102 H 0.17942 0.30988 0.81305 0.0
H1103 H 0.1842 0.29524 0.83005 0.0
C1104 C 0.18566 0.28023 0.75775 0.0
C1105 C 0.20344 0.27409 0.76371 0.0
C1106 C 0.17007 0.28221 0.76927 0.0
C1107 C 0.17208 0.2783 0.78699 0.0
C1108 C 0.19018 0.27303 0.79315 0.0
H1109 H 0.10286 0.24042 0.86894 0.0
H1110 H 0.12825 0.252 0.84966 0.0
C1111 C 0.20571 0.27106 0.78169 0.0
C1112 C 0.15471 0.27738 0.79837 0.0
H1113 H 0.14059 0.29084 0.84104 0.0
C1114 C 0.13774 0.26448 0.79175 0.0
C1115 C 0.15544 0.28752 0.81617 0.0
C1116 C 0.17266 0.30246 0.82373 0.0
C1117 C 0.12202 0.26062 0.80275 0.0
C1118 C 0.12321 0.27007 0.8208 0.0
C1119 C 0.13978 0.28355 0.82722 0.0
C1120 C 0.10807 0.26498 0.8335 0.0
C1121 C 0.10473 0.24571 0.79527 0.0
C1122 C 0.0884 0.2689 0.83109 0.0
C1123 C 0.07383 0.26233 0.84212 0.0
C1124 C 0.07871 0.2517 0.85573 0.0
C1125 C 0.0986 0.2485 0.85855 0.0
C1126 C 0.11314 0.25513 0.84757 0.0
H1127 H 0.1076 0.23749 0.78203 0.0
H1128 H 0.10139 0.23532 0.80478 0.0
H1129 H 0.09133 0.25305 0.79347 0.0
H1130 H 0.08424 0.27667 0.82042 0.0
H1131 H 0.05866 0.26508 0.83963 0.0
H1132 H 0.54618 0.59087 0.5266 0.0
H1133 H 0.53648 0.60467 0.49996 0.0
H1134 H 0.59685 0.63109 0.49819 0.0
H1135 H 0.60633 0.61787 0.52511 0.0
H1136 H 0.57191 0.657 0.49785 0.0
H1137 H 0.54315 0.59355 0.44686 0.0
H1138 H 0.53122 0.59382 0.4677 0.0
H1139 H 0.5573 0.59133 0.46713 0.0
C1140 C 0.55744 0.59917 0.52017 0.0
C1141 C 0.57699 0.6033 0.52785 0.0
C1142 C 0.55192 0.60702 0.50492 0.0
C1143 C 0.56596 0.61883 0.4969 0.0
C1144 C 0.58573 0.62206 0.50408 0.0
H1145 H 0.56289 0.69136 0.41314 0.0
H1146 H 0.57241 0.67041 0.43435 0.0
C1147 C 0.59117 0.61445 0.51942 0.0
C1148 C 0.55981 0.62955 0.48237 0.0
H1149 H 0.5361 0.62445 0.44056 0.0
C1150 C 0.56425 0.64981 0.48527 0.0
C1151 C 0.54967 0.62025 0.46596 0.0
C1152 C 0.54521 0.59853 0.46162 0.0
C1153 C 0.55874 0.66098 0.47238 0.0
C1154 C 0.54853 0.65171 0.45606 0.0
C1155 C 0.54394 0.6315 0.45311 0.0
C1156 C 0.5425 0.66299 0.44205 0.0
C1157 C 0.56358 0.6827 0.47639 0.0
C1158 C 0.52246 0.66543 0.43909 0.0
C1159 C 0.51695 0.67749 0.42705 0.0
C1160 C 0.53137 0.68724 0.41761 0.0
C1161 C 0.55137 0.68416 0.42017 0.0
C1162 C 0.55687 0.6722 0.4323 0.0
H1163 H 0.56847 0.68784 0.49075 0.0
H1164 H 0.57573 0.68734 0.46798 0.0
H1165 H 0.55045 0.68981 0.47298 0.0
H1166 H 0.51115 0.65843 0.44649 0.0
H1167 H 0.5014 0.67938 0.42534 0.0
H1168 H 0.85545 0.81905 0.77916 0.0
H1169 H 0.87918 0.81617 0.75545 0.0
H1170 H 0.91816 0.79143 0.78979 0.0
H1171 H 0.89499 0.79474 0.81369 0.0
H1172 H 0.92482 0.83078 0.75867 0.0
H1173 H 0.9036 0.75136 0.74074 0.0
H1174 H 0.88729 0.76722 0.75195 0.0
H1175 H 0.90792 0.76062 0.76437 0.0
C1176 C 0.86918 0.81321 0.78178 0.0
C1177 C 0.87314 0.80693 0.79834 0.0
C1178 C 0.88269 0.81155 0.76818 0.0
C1179 C 0.90034 0.80348 0.77085 0.0
C1180 C 0.90453 0.79755 0.78742 0.0
H1181 H 0.99535 0.76063 0.71352 0.0
H1182 H 0.97215 0.77228 0.73529 0.0
C1183 C 0.89114 0.79929 0.80101 0.0
C1184 C 0.91419 0.80048 0.75621 0.0
H1185 H 0.93234 0.76474 0.7282 0.0
C1186 C 0.92639 0.8164 0.75183 0.0
C1187 C 0.91611 0.78171 0.74732 0.0
C1188 C 0.90297 0.7642 0.75116 0.0
C1189 C 0.94115 0.81388 0.73932 0.0
C1190 C 0.94346 0.795 0.73082 0.0
C1191 C 0.9307 0.77921 0.73479 0.0
C1192 C 0.95963 0.79083 0.71855 0.0
C1193 C 0.95464 0.83133 0.73589 0.0
C1194 C 0.96093 0.79793 0.70207 0.0
C1195 C 0.97455 0.79148 0.68963 0.0
C1196 C 0.98679 0.77763 0.69344 0.0
C1197 C 0.9861 0.77133 0.71026 0.0
C1198 C 0.97278 0.77792 0.72268 0.0
H1199 H 0.95383 0.84412 0.74633 0.0
H1200 H 0.97031 0.82822 0.73549 0.0
H1201 H 0.95014 0.83508 0.72264 0.0
H1202 H 0.95073 0.80764 0.69841 0.0
H1203 H 0.97456 0.79629 0.67663 0.0
H1204 H 0.02938 0.88726 0.50224 0.0
H1205 H 0.02094 0.87085 0.52779 0.0
H1206 H 0.07403 0.90067 0.55772 0.0
H1207 H 0.08233 0.91744 0.53212 0.0
H1208 H 0.04445 0.84611 0.53982 0.0
H1209 H 0.03328 0.90375 0.59614 0.0
H1210 H 0.03303 0.90767 0.57297 0.0
H1211 H 0.05623 0.90765 0.5854 0.0
C1212 C 0.03895 0.89072 0.51448 0.0
C1213 C 0.05648 0.90365 0.51524 0.0
C1214 C 0.03416 0.88129 0.52905 0.0
C1215 C 0.04678 0.88451 0.54475 0.0
C1216 C 0.06384 0.89817 0.54591 0.0
H1217 H 0.05334 0.82158 0.63559 0.0
H1218 H 0.05799 0.84505 0.61478 0.0
C1219 C 0.06859 0.90776 0.53129 0.0
C1220 C 0.04309 0.87195 0.55884 0.0
H1221 H 0.03453 0.87216 0.60335 0.0
C1222 C 0.04215 0.85184 0.55368 0.0
C1223 C 0.04029 0.87939 0.57699 0.0
C1224 C 0.04058 0.90078 0.58324 0.0
C1225 C 0.03864 0.83899 0.56609 0.0
C1226 C 0.03557 0.84637 0.58418 0.0
C1227 C 0.03672 0.8665 0.58945 0.0
C1228 C 0.03157 0.8333 0.59779 0.0
C1229 C 0.03871 0.81763 0.55976 0.0
C1230 C 0.01483 0.81921 0.59552 0.0
C1231 C 0.01214 0.80572 0.60739 0.0
C1232 C 0.02609 0.80611 0.62185 0.0
C1233 C 0.04234 0.8208 0.62457 0.0
C1234 C 0.04502 0.83427 0.61269 0.0
H1235 H 0.04622 0.81483 0.54696 0.0
H1236 H 0.04628 0.81078 0.57006 0.0
H1237 H 0.02316 0.81054 0.55739 0.0
H1238 H 1.00404 0.8184 0.58433 0.0
H1239 H 0.99942 0.79468 0.60494 0.0
H1240 H 0.20306 0.73316 0.77966 0.0
H1241 H 0.17122 0.74118 0.76785 0.0
H1242 H 0.17195 0.69676 0.72173 0.0
H1243 H 0.20386 0.68916 0.73322 0.0
H1244 H 0.16545 0.73032 0.71167 0.0
H1245 H 0.11484 0.71471 0.76511 0.0
H1246 H 0.13659 0.73138 0.77298 0.0
H1247 H 0.13916 0.70673 0.76396 0.0
C1248 C 0.19614 0.72489 0.76721 0.0
C1249 C 0.20588 0.71058 0.75732 0.0
C1250 C 0.17796 0.72944 0.76047 0.0
C1251 C 0.16909 0.71951 0.74392 0.0
C1252 C 0.1785 0.70468 0.73447 0.0
H1253 H 0.05202 0.71318 0.69403 0.0
H1254 H 0.08227 0.70946 0.71106 0.0
C1255 C 0.19669 0.70031 0.74107 0.0
C1256 C 0.1508 0.72522 0.73564 0.0
H1257 H 0.10172 0.72932 0.7416 0.0
C1258 C 0.15152 0.73014 0.71825 0.0
C1259 C 0.1326 0.72491 0.74417 0.0
C1260 C 0.13061 0.71899 0.76252 0.0
C1261 C 0.13455 0.73434 0.709 0.0
C1262 C 0.11637 0.7342 0.71758 0.0
C1263 C 0.11569 0.7296 0.7351 0.0
C1264 C 0.09761 0.73735 0.70808 0.0
C1265 C 0.13611 0.73809 0.68986 0.0
C1266 C 0.09595 0.75446 0.70095 0.0
C1267 C 0.07865 0.75659 0.69096 0.0
C1268 C 0.06255 0.74175 0.68813 0.0
C1269 C 0.06407 0.72493 0.69586 0.0
C1270 C 0.08138 0.72277 0.70568 0.0
H1271 H 0.14959 0.73294 0.68386 0.0
H1272 H 0.12286 0.73087 0.68124 0.0
H1273 H 0.13704 0.75388 0.68967 0.0
H1274 H 0.1081 0.76611 0.70297 0.0
H1275 H 0.07795 0.76981 0.68538 0.0
H1276 H 0.95809 0.59273 0.50794 0.0
H1277 H 0.96696 0.62158 0.53044 0.0
H1278 H 0.02911 0.61855 0.52199 0.0
H1279 H 0.02012 0.58984 0.49888 0.0
H1280 H 0.98743 0.62218 0.56114 0.0
H1281 H 0.02696 0.67588 0.52409 0.0
H1282 H 0.01242 0.654 0.51274 0.0
H1283 H 0.03707 0.65325 0.52215 0.0
C1284 C 0.97364 0.59835 0.51074 0.0
C1285 C 0.98845 0.58898 0.50181 0.0
C1286 C 0.9787 0.61489 0.52355 0.0
C1287 C 0.9987 0.6224 0.52788 0.0
C1288 C 0.01356 0.61334 0.51864 0.0
H1289 H 0.05107 0.71281 0.6158 0.0
H1290 H 0.04584 0.68547 0.59089 0.0
C1291 C 0.00845 0.59686 0.50555 0.0
C1292 C 1.00371 0.63842 0.5433 0.0
H1293 H 0.02735 0.6844 0.55594 0.0
C1294 C 0.99609 0.63581 0.55991 0.0
C1295 C 0.0152 0.65616 0.54183 0.0
C1296 C 0.02326 0.66013 0.52421 0.0
C1297 C 0.99941 0.65036 0.57497 0.0
C1298 C 0.01065 0.66819 0.57357 0.0
C1299 C 0.0187 0.67074 0.55706 0.0
C1300 C 0.01382 0.68442 0.58902 0.0
C1301 C 0.99111 0.64636 0.59239 0.0
C1302 C 0.99759 0.69297 0.59626 0.0
C1303 C 1.00057 0.70851 0.61048 0.0
C1304 C 0.01981 0.71569 0.61791 0.0
C1305 C 0.03605 0.70725 0.61058 0.0
C1306 C 0.03308 0.69173 0.59631 0.0
H1307 H 0.98685 0.63067 0.59245 0.0
H1308 H 1.00227 0.65202 0.60363 0.0
H1309 H 0.97766 0.65379 0.59456 0.0
H1310 H 0.98262 0.68793 0.59062 0.0
H1311 H 0.98787 0.71533 0.61528 0.0
H1312 H 0.76652 0.84966 0.18785 0.0
H1313 H 0.78766 0.88077 0.19526 0.0
H1314 H 0.81219 0.86258 0.24273 0.0
H1315 H 0.79163 0.83126 0.23524 0.0
H1316 H 0.7963 0.90591 0.24192 0.0
H1317 H 0.85434 0.88097 0.19668 0.0
H1318 H 0.82833 0.87448 0.18976 0.0
H1319 H 0.83897 0.86416 0.20769 0.0
C1320 C 0.77637 0.85227 0.1999 0.0
C1321 C 0.7774 0.83789 0.21091 0.0
C1322 C 0.78834 0.87008 0.20414 0.0
C1323 C 0.80144 0.87386 0.2195 0.0
C1324 C 0.80206 0.85989 0.23086 0.0
H1325 H 0.88515 0.9653 0.27643 0.0
H1326 H 0.85813 0.93927 0.26671 0.0
C1327 C 0.79019 0.84205 0.2266 0.0
C1328 C 0.81529 0.89197 0.22326 0.0
H1329 H 0.861 0.912 0.21366 0.0
C1330 C 0.81044 0.90734 0.23573 0.0
C1331 C 0.83354 0.89378 0.21497 0.0
C1332 C 0.83929 0.87753 0.20151 0.0
C1333 C 0.82362 0.92447 0.24038 0.0
C1334 C 0.84232 0.926 0.23264 0.0
C1335 C 0.8468 0.9108 0.21971 0.0
C1336 C 0.85795 0.9426 0.23856 0.0
C1337 C 0.81727 0.94078 0.2534 0.0
C1338 C 0.8672 0.95296 0.22596 0.0
C1339 C 0.88297 0.96763 0.2315 0.0
C1340 C 0.88998 0.97179 0.24963 0.0
C1341 C 0.88032 0.96192 0.26228 0.0
C1342 C 0.86464 0.94729 0.25678 0.0
H1343 H 0.80082 0.94024 0.25294 0.0
H1344 H 0.82235 0.93937 0.26729 0.0
H1345 H 0.82374 0.9551 0.25048 0.0
H1346 H 0.86233 0.94957 0.21183 0.0
H1347 H 0.89001 0.97536 0.2216 0.0
H1348 H 0.77269 0.1442 0.29806 0.0
H1349 H 0.79617 0.12021 0.29586 0.0
H1350 H 0.83614 0.15797 0.33554 0.0
H1351 H 0.81255 0.18194 0.33797 0.0
H1352 H 0.83316 0.12433 0.28474 0.0
H1353 H 0.83602 0.10708 0.35419 0.0
H1354 H 0.8171 0.12013 0.34592 0.0
H1355 H 0.84147 0.13243 0.35323 0.0
C1356 C 0.78642 0.14733 0.30643 0.0
C1357 C 0.79075 0.16497 0.3182 0.0
C1358 C 0.79981 0.13359 0.30519 0.0
C1359 C 0.81787 0.13714 0.31567 0.0
C1360 C 0.82213 0.15465 0.32763 0.0
H1361 H 0.91951 0.07644 0.28512 0.0
H1362 H 0.89763 0.1012 0.29348 0.0
C1363 C 0.80864 0.16837 0.32898 0.0
C1364 C 0.83266 0.12305 0.31312 0.0
H1365 H 0.86015 0.09486 0.33493 0.0
C1366 C 0.83902 0.11787 0.29573 0.0
C1367 C 0.8402 0.11446 0.32741 0.0
C1368 C 0.83323 0.11864 0.34621 0.0
C1369 C 0.85269 0.10445 0.29222 0.0
C1370 C 0.86068 0.09628 0.30659 0.0
C1371 C 0.85424 0.10132 0.32397 0.0
C1372 C 0.87515 0.08192 0.30358 0.0
C1373 C 0.85801 0.09876 0.27303 0.0
C1374 C 0.87034 0.06309 0.30738 0.0
C1375 C 0.88296 0.04895 0.30283 0.0
C1376 C 0.90064 0.05337 0.29439 0.0
C1377 C 0.90593 0.0725 0.29147 0.0
C1378 C 0.89336 0.08665 0.29613 0.0
H1379 H 0.84683 0.10231 0.26322 0.0
H1380 H 0.87257 0.10681 0.27098 0.0
H1381 H 0.85924 0.08304 0.27002 0.0
H1382 H 0.85643 0.05912 0.31323 0.0
H1383 H 0.87845 0.03437 0.30529 0.0
H1384 H 0.46018 0.99785 0.97421 0.0
H1385 H 0.43354 0.97407 0.98131 0.0
H1386 H 0.40461 0.02014 0.00936 0.0
H1387 H 0.43116 0.04389 1.00246 0.0
H1388 H 0.40347 0.98855 0.0274 0.0
H1389 H 0.37885 0.96592 0.95518 0.0
H1390 H 0.40431 0.96325 0.96058 0.0
H1391 H 0.39651 0.98699 0.96294 0.0
C1392 C 0.44816 1.00288 0.98193 0.0
C1393 C 0.44778 0.02277 0.98772 0.0
C1394 C 0.43295 0.98929 0.98597 0.0
C1395 C 0.41692 0.99534 0.99566 0.0
C1396 C 0.41683 0.01512 1.00191 0.0
H1397 H 0.29834 0.93853 0.99083 0.0
H1398 H 0.32875 0.96083 0.99173 0.0
C1399 C 0.43206 0.02869 0.99798 0.0
C1400 C 0.39969 0.98129 0.99852 0.0
H1401 H 0.36179 0.94951 0.97603 0.0
C1402 C 0.39438 0.97993 0.01619 0.0
C1403 C 0.38772 0.97022 0.98387 0.0
C1404 C 0.39197 0.97173 0.96457 0.0
C1405 C 0.37733 0.96793 0.01957 0.0
C1406 C 0.36543 0.95684 0.0049 0.0
C1407 C 0.37095 0.95799 0.98728 0.0
C1408 C 0.34651 0.94477 0.00718 0.0
C1409 C 0.3718 0.96771 0.03874 0.0
C1410 C 0.34613 0.92863 0.01618 0.0
C1411 C 0.32855 0.9159 0.01589 0.0
C1412 C 0.31124 0.919 0.00636 0.0
C1413 C 0.31147 0.93571 0.99822 0.0
C1414 C 0.32886 0.94845 0.99867 0.0
H1415 H 0.37994 0.9801 0.04811 0.0
H1416 H 0.35558 0.96813 0.03985 0.0
H1417 H 0.37559 0.95415 0.0431 0.0
H1418 H 0.35963 0.92533 0.0226 0.0
H1419 H 0.32887 0.90302 0.02208 0.0
H1420 H 0.27361 0.35339 0.30444 0.0
H1421 H 0.25123 0.37024 0.28749 0.0
H1422 H 0.28527 0.42488 0.30945 0.0
H1423 H 0.30774 0.4082 0.32599 0.0
H1424 H 0.22785 0.39745 0.30255 0.0
H1425 H 0.27855 0.42993 0.25672 0.0
H1426 H 0.28469 0.41054 0.2683 0.0
H1427 H 0.28838 0.43518 0.27966 0.0
C1428 C 0.27659 0.36894 0.30524 0.0
C1429 C 0.29242 0.37947 0.31657 0.0
C1430 C 0.26372 0.37857 0.29567 0.0
C1431 C 0.26665 0.39884 0.29704 0.0
C1432 C 0.28287 0.40924 0.30787 0.0
H1433 H 0.20837 0.49507 0.27618 0.0
H1434 H 0.22951 0.47197 0.28536 0.0
C1435 C 0.29563 0.39968 0.31745 0.0
C1436 C 0.25205 0.40944 0.28845 0.0
H1437 H 0.24867 0.44471 0.26228 0.0
C1438 C 0.23229 0.40753 0.29348 0.0
C1439 C 0.25783 0.42261 0.27662 0.0
C1440 C 0.27847 0.42456 0.26986 0.0
C1441 C 0.21848 0.41915 0.28777 0.0
C1442 C 0.22453 0.43289 0.27655 0.0
C1443 C 0.24407 0.43429 0.27099 0.0
C1444 C 0.21116 0.44664 0.27116 0.0
C1445 C 0.19779 0.41728 0.29443 0.0
C1446 C 0.19377 0.44009 0.2601 0.0
C1447 C 0.1816 0.45331 0.25481 0.0
C1448 C 0.18663 0.47332 0.26046 0.0
C1449 C 0.204 0.47977 0.27163 0.0
C1450 C 0.21615 0.46659 0.27685 0.0
H1451 H 0.19664 0.40871 0.30566 0.0
H1452 H 0.19324 0.43176 0.29906 0.0
H1453 H 0.18715 0.40989 0.28323 0.0
H1454 H 0.18976 0.42479 0.25533 0.0
H1455 H 0.16839 0.44786 0.24612 0.0
H1456 H 0.1331 0.97622 0.48978 0.0
H1457 H 0.16406 0.99744 0.4983 0.0
H1458 H 0.13501 0.04645 0.48828 0.0
H1459 H 0.10362 0.02584 0.4819 0.0
H1460 H 0.18642 0.01594 0.48008 0.0
H1461 H 0.16463 0.0714 0.53252 0.0
H1462 H 0.1483 0.04955 0.52423 0.0
H1463 H 0.14874 0.07033 0.51274 0.0
C1464 C 0.13302 0.9916 0.49005 0.0
C1465 C 0.11561 0.99914 0.48503 0.0
C1466 C 0.15092 1.00376 0.49471 0.0
C1467 C 0.15203 0.02373 0.49421 0.0
C1468 C 0.13465 0.03128 0.48938 0.0
H1469 H 0.25647 0.09447 0.46938 0.0
H1470 H 0.22814 0.0699 0.46987 0.0
C1471 C 0.11665 0.01927 0.48528 0.0
C1472 C 0.17153 0.03638 0.49729 0.0
H1473 H 0.19325 0.08137 0.51643 0.0
C1474 C 0.18795 0.03012 0.48831 0.0
C1475 C 0.17397 0.05476 0.50835 0.0
C1476 C 0.15799 0.06174 0.52015 0.0
C1477 C 0.20628 0.04192 0.48946 0.0
C1478 C 0.20807 0.06103 0.49906 0.0
C1479 C 0.19194 0.06696 0.50869 0.0
C1480 C 0.2261 0.07534 0.49884 0.0
C1481 C 0.22355 0.03347 0.4806 0.0
C1482 C 0.23432 0.08714 0.51483 0.0
C1483 C 0.25 0.10182 0.51438 0.0
C1484 C 0.25762 0.10511 0.49793 0.0
C1485 C 0.25026 0.09269 0.48213 0.0
C1486 C 0.23437 0.07828 0.4825 0.0
H1487 H 0.22236 0.01762 0.48065 0.0
H1488 H 0.22331 0.03571 0.46632 0.0
H1489 H 0.23803 0.04021 0.48745 0.0
H1490 H 0.22843 0.08517 0.52767 0.0
H1491 H 0.25583 0.11092 0.52683 0.0
H1492 H 0.81805 0.16233 0.73173 0.0
H1493 H 0.79211 0.13531 0.73135 0.0
H1494 H 0.78139 0.13236 0.67403 0.0
H1495 H 0.80727 0.15998 0.67445 0.0
H1496 H 0.74739 0.1295 0.6902 0.0
H1497 H 0.79377 0.0789 0.71543 0.0
H1498 H 0.79657 0.10136 0.73057 0.0
H1499 H 0.80444 0.10076 0.70792 0.0
C1500 C 0.81037 0.15577 0.71898 0.0
C1501 C 0.81491 0.16304 0.70305 0.0
C1502 C 0.7956 0.14022 0.71876 0.0
C1503 C 0.78521 0.13134 0.70257 0.0
C1504 C 0.78942 0.1388 0.68665 0.0
H1505 H 0.68506 0.03688 0.69573 0.0
H1506 H 0.711 0.05993 0.68609 0.0
C1507 C 0.80414 0.15457 0.68689 0.0
C1508 C 0.7692 0.11506 0.70273 0.0
H1509 H 0.75852 0.07319 0.71998 0.0
C1510 C 0.74991 0.11691 0.69627 0.0
C1511 C 0.77244 0.09855 0.71057 0.0
C1512 C 0.79299 0.09468 0.71631 0.0
C1513 C 0.73363 0.10339 0.69846 0.0
C1514 C 0.73666 0.0878 0.70772 0.0
C1515 C 0.75611 0.08537 0.71324 0.0
C1516 C 0.72004 0.07461 0.71307 0.0
C1517 C 0.7133 0.10713 0.69211 0.0
C1518 C 0.71692 0.07484 0.73142 0.0
C1519 C 0.70243 0.06155 0.73689 0.0
C1520 C 0.69045 0.04805 0.72413 0.0
C1521 C 0.69374 0.04757 0.70578 0.0
C1522 C 0.70845 0.06074 0.70028 0.0
H1523 H 0.71407 0.11408 0.67982 0.0
H1524 H 0.70259 0.09382 0.68916 0.0
H1525 H 0.70763 0.11738 0.70276 0.0
H1526 H 0.72597 0.08512 0.74155 0.0
H1527 H 0.70082 0.06158 0.75115 0.0
H1528 H 0.48057 0.04911 0.54915 0.0
H1529 H 0.45471 0.06898 0.54219 0.0
H1530 H 0.42549 0.0213 0.50388 0.0
H1531 H 0.45085 1.00126 0.51111 0.0
H1532 H 0.44525 0.07937 0.50885 0.0
H1533 H 0.37963 0.03838 0.53287 0.0
H1534 H 0.40479 0.03486 0.53906 0.0
H1535 H 0.39326 0.02369 0.51747 0.0
C1536 C 0.4684 0.04273 0.53954 0.0
C1537 C 0.46779 0.02357 0.53071 0.0
C1538 C 0.45372 0.05416 0.53546 0.0
C1539 C 0.43803 0.0466 0.52263 0.0
C1540 C 0.43723 0.02738 0.51404 0.0
H1541 H 0.33729 0.09128 0.47474 0.0
H1542 H 0.364 0.07221 0.4812 0.0
C1543 C 0.45187 0.01599 0.51808 0.0
C1544 C 0.42302 0.05899 0.51756 0.0
H1545 H 0.37312 0.06219 0.51484 0.0
C1546 C 0.42949 0.07569 0.51028 0.0
C1547 C 0.40243 0.05415 0.51932 0.0
C1548 C 0.39459 0.0369 0.52776 0.0
C1549 C 0.41593 0.08745 0.5044 0.0
C1550 C 0.39534 0.08255 0.50609 0.0
C1551 C 0.38888 0.06588 0.51342 0.0
C1552 C 0.38024 0.09477 0.50087 0.0
C1553 C 0.42374 0.10478 0.49607 0.0
C1554 C 0.38059 0.11389 0.5096 0.0
C1555 C 0.36539 0.12483 0.5059 0.0
C1556 C 0.34943 0.11686 0.49345 0.0
C1557 C 0.34942 0.09792 0.4843 0.0
C1558 C 0.36463 0.08696 0.48805 0.0
H1559 H 0.43884 0.10351 0.4912 0.0
H1560 H 0.41367 0.10667 0.48462 0.0
H1561 H 0.4247 0.11798 0.50634 0.0
H1562 H 0.39225 0.12015 0.51978 0.0
H1563 H 0.3658 0.13932 0.51329 0.0
H1564 H 0.58645 0.48402 0.5619 0.0
H1565 H 0.60996 0.46163 0.55099 0.0
H1566 H 0.65385 0.50994 0.54706 0.0
H1567 H 0.63085 0.53234 0.55861 0.0
H1568 H 0.6292 0.45657 0.51937 0.0
H1569 H 0.68408 0.47871 0.57755 0.0
H1570 H 0.65928 0.48563 0.57772 0.0
H1571 H 0.67836 0.49861 0.56675 0.0
C1572 C 0.60115 0.48989 0.55883 0.0
C1573 C 0.60671 0.51003 0.56121 0.0
C1574 C 0.61454 0.47706 0.55249 0.0
C1575 C 0.63381 0.48408 0.5485 0.0
C1576 C 0.63922 0.50415 0.55039 0.0
H1577 H 0.71833 0.42346 0.48552 0.0
H1578 H 0.69262 0.44309 0.49641 0.0
C1579 C 0.6259 0.51697 0.55676 0.0
C1580 C 0.64829 0.47049 0.54234 0.0
H1581 H 0.69471 0.45898 0.55206 0.0
C1582 C 0.64348 0.45702 0.52656 0.0
C1583 C 0.66681 0.47083 0.55188 0.0
C1584 C 0.6724 0.48408 0.56951 0.0
C1585 C 0.65688 0.44426 0.51982 0.0
C1586 C 0.67577 0.44523 0.52892 0.0
C1587 C 0.68034 0.45836 0.54495 0.0
C1588 C 0.69106 0.43285 0.52207 0.0
C1589 C 0.65055 0.4297 0.50315 0.0
C1590 C 0.69915 0.42085 0.53299 0.0
C1591 C 0.71405 0.40972 0.52688 0.0
C1592 C 0.72129 0.4104 0.50969 0.0
C1593 C 0.71311 0.42244 0.49878 0.0
C1594 C 0.69826 0.43361 0.50494 0.0
H1595 H 0.63409 0.42693 0.50102 0.0
H1596 H 0.65645 0.43542 0.49123 0.0
H1597 H 0.6564 0.41575 0.50395 0.0
H1598 H 0.69393 0.42008 0.5463 0.0
H1599 H 0.71995 0.40066 0.5357 0.0
H1600 H 0.7873 0.2264 0.35938 0.0
H1601 H 0.78156 0.24822 0.38657 0.0
H1602 H 0.7182 0.23288 0.37628 0.0
H1603 H 0.72402 0.21186 0.34835 0.0
H1604 H 0.72466 0.26905 0.38578 0.0
H1605 H 0.76882 0.23879 0.43505 0.0
H1606 H 0.78453 0.245 0.41777 0.0
H1607 H 0.76346 0.22655 0.41224 0.0
C1608 C 0.77217 0.22752 0.36308 0.0
C1609 C 0.7561 0.21736 0.35191 0.0
C1610 C 0.76887 0.23987 0.37873 0.0
C1611 C 0.74943 0.24184 0.3839 0.0
C1612 C 0.73334 0.23152 0.37274 0.0
H1613 H 0.71778 0.32767 0.47457 0.0
H1614 H 0.71388 0.29961 0.45019 0.0
C1615 C 0.73664 0.21951 0.35682 0.0
C1616 C 0.74605 0.25574 0.40018 0.0
H1617 H 0.76388 0.27255 0.44352 0.0
C1618 C 0.73299 0.26957 0.3985 0.0
C1619 C 0.75645 0.25626 0.41701 0.0
C1620 C 0.76888 0.24067 0.42066 0.0
C1621 C 0.73119 0.28463 0.41266 0.0
C1622 C 0.74304 0.28615 0.42886 0.0
C1623 C 0.75516 0.27168 0.43093 0.0
C1624 C 0.74457 0.30338 0.44319 0.0
C1625 C 0.71709 0.29909 0.40993 0.0
C1626 C 0.76305 0.31467 0.44743 0.0
C1627 C 0.76526 0.33048 0.46126 0.0
C1628 C 0.74897 0.33558 0.47101 0.0
C1629 C 0.73044 0.32425 0.46694 0.0
C1630 C 0.72822 0.3083 0.45303 0.0
H1631 H 0.7033 0.29559 0.41682 0.0
H1632 H 0.72367 0.31385 0.41589 0.0
H1633 H 0.71297 0.29889 0.39545 0.0
H1634 H 0.7759 0.31114 0.44012 0.0
H1635 H 0.77987 0.33853 0.46457 0.0
H1636 H 0.52083 0.01442 0.91047 0.0
H1637 H 0.54725 0.00536 0.89052 0.0
H1638 H 0.55079 0.06113 0.87308 0.0
H1639 H 0.52455 0.07011 0.8928 0.0
H1640 H 0.54413 1.00453 0.85197 0.0
H1641 H 0.6095 0.05405 0.88378 0.0
H1642 H 0.58783 0.0479 0.89589 0.0
H1643 H 0.58784 0.06612 0.88152 0.0
C1644 C 0.52765 0.02486 0.90269 0.0
C1645 C 0.52074 0.04298 0.90318 0.0
C1646 C 0.54261 0.01964 0.89124 0.0
C1647 C 0.55112 0.03264 0.88044 0.0
C1648 C 0.54469 0.05099 0.88149 0.0
H1649 H 0.61313 0.05188 0.79142 0.0
H1650 H 0.59534 0.05014 0.81848 0.0
C1651 C 0.52966 0.05609 0.89271 0.0
C1652 C 0.56548 0.02683 0.86688 0.0
H1653 H 0.61044 0.04242 0.85203 0.0
C1654 C 0.55885 0.01242 0.85215 0.0
C1655 C 0.58469 0.0371 0.86718 0.0
C1656 C 0.59299 0.05203 0.88303 0.0
C1657 C 0.5703 0.00915 0.83706 0.0
C1658 C 0.58894 0.02041 0.83686 0.0
C1659 C 0.59611 0.03385 0.85214 0.0
C1660 C 0.59987 0.02059 0.82017 0.0
C1661 C 0.56181 0.99467 0.82095 0.0
C1662 C 0.60839 1.00444 0.81197 0.0
C1663 C 0.61869 0.00533 0.79622 0.0
C1664 C 0.62066 0.0224 0.78849 0.0
C1665 C 0.61201 0.03843 0.79685 0.0
C1666 C 0.60182 0.03752 0.81244 0.0
H1667 H 0.54618 0.98875 0.82247 0.0
H1668 H 0.56239 1.00145 0.80856 0.0
H1669 H 0.57088 0.98245 0.81912 0.0
H1670 H 0.60725 0.99127 0.81782 0.0
H1671 H 0.62523 0.99275 0.79024 0.0
H1672 H 0.37007 0.27699 0.35087 0.0
H1673 H 0.36664 0.25311 0.37152 0.0
H1674 H 0.3032 0.2542 0.3693 0.0
H1675 H 0.30645 0.27776 0.34853 0.0
H1676 H 0.34979 0.2575 0.40596 0.0
H1677 H 0.30905 0.19605 0.35897 0.0
H1678 H 0.32265 0.21657 0.35133 0.0
H1679 H 0.29823 0.21818 0.35941 0.0
C1680 C 0.35536 0.27189 0.35455 0.0
C1681 C 0.33852 0.27925 0.34798 0.0
C1682 C 0.35344 0.25835 0.36646 0.0
C1683 C 0.33464 0.2517 0.37183 0.0
C1684 C 0.31783 0.25889 0.36516 0.0
H1685 H 0.27585 0.18443 0.44232 0.0
H1686 H 0.28761 0.20429 0.42037 0.0
C1687 C 0.31973 0.27248 0.35338 0.0
C1688 C 0.33247 0.23777 0.38488 0.0
H1689 H 0.30821 0.19397 0.39034 0.0
C1690 C 0.34096 0.24347 0.40251 0.0
C1691 C 0.32104 0.21943 0.38034 0.0
C1692 C 0.31237 0.21207 0.36144 0.0
C1693 C 0.33735 0.23181 0.41597 0.0
C1694 C 0.32521 0.21381 0.41159 0.0
C1695 C 0.31746 0.20779 0.39375 0.0
C1696 C 0.31873 0.20182 0.4255 0.0
C1697 C 0.34571 0.23928 0.43495 0.0
C1698 C 0.33232 0.19368 0.43585 0.0
C1699 C 0.32559 0.18219 0.44867 0.0
C1700 C 0.30514 0.17856 0.45128 0.0
C1701 C 0.2917 0.18679 0.44081 0.0
C1702 C 0.2984 0.1982 0.42814 0.0
H1703 H 0.35157 0.25488 0.43678 0.0
H1704 H 0.33417 0.23716 0.44474 0.0
H1705 H 0.35808 0.2311 0.43815 0.0
H1706 H 0.34807 0.19598 0.43387 0.0
H1707 H 0.33637 0.17603 0.45637 0.0
H1708 H 0.54577 0.45537 0.92986 0.0
H1709 H 0.52746 0.46533 0.90489 0.0
H1710 H 0.53638 0.52444 0.93177 0.0
H1711 H 0.55449 0.51457 0.95702 0.0
H1712 H 0.49305 0.48528 0.90384 0.0
H1713 H 0.56021 0.52679 0.88218 0.0
H1714 H 0.56174 0.50963 0.89758 0.0
H1715 H 0.55445 0.53302 0.90527 0.0
C1716 C 0.54351 0.47043 0.93069 0.0
C1717 C 0.55169 0.48416 0.94549 0.0
C1718 C 0.53314 0.47613 0.91632 0.0
C1719 C 0.53081 0.49566 0.91633 0.0
C1720 C 0.53832 0.50933 0.93132 0.0
H1721 H 0.45428 0.52666 0.82968 0.0
H1722 H 0.47102 0.52862 0.85965 0.0
C1723 C 0.54866 0.50365 0.94574 0.0
C1724 C 0.52102 0.50163 0.90037 0.0
H1725 H 0.53033 0.52559 0.86477 0.0
C1726 C 0.5011 0.49431 0.89542 0.0
C1727 C 0.53162 0.5133 0.88933 0.0
C1728 C 0.55323 0.52108 0.8937 0.0
C1729 C 0.49163 0.49796 0.87952 0.0
C1730 C 0.50231 0.50939 0.86834 0.0
C1731 C 0.5221 0.51707 0.87349 0.0
C1732 C 0.49398 0.51134 0.85021 0.0
C1733 C 0.47055 0.48878 0.87433 0.0
C1734 C 0.50194 0.50187 0.83493 0.0
C1735 C 0.49248 0.50077 0.8179 0.0
C1736 C 0.47495 0.50929 0.81575 0.0
C1737 C 0.46785 0.5201 0.83089 0.0
C1738 C 0.47727 0.52104 0.84803 0.0
H1739 H 0.46536 0.47815 0.88314 0.0
H1740 H 0.46049 0.5002 0.8754 0.0
H1741 H 0.46928 0.48133 0.86015 0.0
H1742 H 0.51485 0.49436 0.83628 0.0
H1743 H 0.49833 0.49236 0.8065 0.0
H1744 H 0.7282 0.76441 0.1619 0.0
H1745 H 0.73046 0.74605 0.13188 0.0
H1746 H 0.78984 0.77447 0.12954 0.0
H1747 H 0.78792 0.79261 0.15967 0.0
H1748 H 0.76368 0.77099 0.09675 0.0
H1749 H 0.76679 0.70174 0.12318 0.0
H1750 H 0.74649 0.71492 0.13002 0.0
H1751 H 0.77152 0.72501 0.13743 0.0
C1752 C 0.74176 0.76675 0.15502 0.0
C1753 C 0.75791 0.77992 0.16327 0.0
C1754 C 0.74299 0.75629 0.13785 0.0
C1755 C 0.76039 0.75878 0.1286 0.0
C1756 C 0.77628 0.77237 0.13647 0.0
H1757 H 0.80232 0.68296 0.04126 0.0
H1758 H 0.79825 0.70488 0.06884 0.0
C1759 C 0.77509 0.78279 0.15367 0.0
C1760 C 0.76235 0.74666 0.11103 0.0
H1761 H 0.76588 0.70024 0.09162 0.0
C1762 C 0.7641 0.75551 0.09557 0.0
C1763 C 0.76313 0.72653 0.10963 0.0
C1764 C 0.76205 0.71642 0.12594 0.0
C1765 C 0.76645 0.74467 0.07868 0.0
C1766 C 0.76698 0.7245 0.07727 0.0
C1767 C 0.76535 0.7157 0.09275 0.0
C1768 C 0.76977 0.71224 0.05996 0.0
C1769 C 0.76877 0.75489 0.06253 0.0
C1770 C 0.7551 0.70915 0.04577 0.0
C1771 C 0.75733 0.69654 0.02992 0.0
C1772 C 0.77428 0.68677 0.02799 0.0
C1773 C 0.78908 0.69021 0.04218 0.0
C1774 C 0.78679 0.70274 0.05801 0.0
H1775 H 0.77197 0.77083 0.06647 0.0
H1776 H 0.78093 0.74966 0.05442 0.0
H1777 H 0.75479 0.75169 0.05385 0.0
H1778 H 0.74172 0.71614 0.04711 0.0
H1779 H 0.74559 0.6942 0.01933 0.0
H1780 H 0.08198 0.01312 0.11993 0.0
H1781 H 0.06382 0.00705 0.14641 0.0
H1782 H 0.01217 0.02727 0.12381 0.0
H1783 H 0.03009 0.03308 0.09721 0.0
H1784 H 0.04625 0.0348 0.17061 0.0
H1785 H 0.99039 0.97457 0.13769 0.0
H1786 H 0.01301 0.98198 0.12742 0.0
H1787 H 0.99234 0.99574 0.12692 0.0
C1788 C 0.06665 0.01596 0.12046 0.0
C1789 C 0.05746 0.02351 0.10641 0.0
C1790 C 0.05634 0.01263 0.13566 0.0
C1791 C 0.03658 0.01655 0.13703 0.0
C1792 C 0.02731 0.0239 0.12296 0.0
H1793 H 0.96692 0.03122 0.2318 0.0
H1794 H 0.98665 0.0361 0.20601 0.0
C1795 C 0.03763 0.02734 0.10782 0.0
C1796 C 0.02582 0.01352 0.15338 0.0
H1797 H 0.98525 0.98801 0.16775 0.0
C1798 C 0.03295 0.02453 0.17002 0.0
C1799 C 0.00857 1.0 0.1526 0.0
C1800 C 1.00067 0.98725 0.13525 0.0
C1801 C 0.02308 0.02261 0.18584 0.0
C1802 C 0.00553 0.00945 0.18498 0.0
C1803 C 0.99861 0.99821 0.16838 0.0
C1804 C 0.99426 0.00685 0.20115 0.0
C1805 C 0.03166 0.0345 0.2034 0.0
C1806 C 0.99181 0.98876 0.20693 0.0
C1807 C 0.98054 0.9859 0.22166 0.0
C1808 C 0.97127 1.00105 0.23089 0.0
C1809 C 0.97389 0.01924 0.22513 0.0
C1810 C 0.98525 0.02209 0.21041 0.0
H1811 H 0.04746 0.04035 0.20257 0.0
H1812 H 0.02307 0.04689 0.20683 0.0
H1813 H 0.03064 0.02575 0.2145 0.0
H1814 H 0.99857 0.97677 0.19997 0.0
H1815 H 0.97884 0.97166 0.22558 0.0
H1816 H 0.29185 0.76389 0.16088 0.0
H1817 H 0.2879 0.77725 0.13294 0.0
H1818 H 0.34701 0.76564 0.1197 0.0
H1819 H 0.35095 0.75203 0.14772 0.0
H1820 H 0.33841 0.80558 0.1203 0.0
H1821 H 0.28196 0.7521 0.07864 0.0
H1822 H 0.27604 0.75859 0.10165 0.0
H1823 H 0.29721 0.74599 0.09672 0.0
C1824 C 0.3038 0.76374 0.15178 0.0
C1825 C 0.32167 0.75686 0.15639 0.0
C1826 C 0.30152 0.77134 0.13581 0.0
C1827 C 0.31711 0.77233 0.12419 0.0
C1828 C 0.33475 0.76487 0.12844 0.0
H1829 H 0.30359 0.82206 0.02435 0.0
H1830 H 0.31422 0.80175 0.04586 0.0
C1831 C 0.33694 0.757 0.14435 0.0
C1832 C 0.31548 0.78288 0.10863 0.0
H1833 H 0.28704 0.78364 0.07025 0.0
C1834 C 0.32741 0.80065 0.1092 0.0
C1835 C 0.30117 0.7764 0.09414 0.0
C1836 C 0.28845 0.75714 0.09259 0.0
C1837 C 0.32472 0.81253 0.09609 0.0
C1838 C 0.30972 0.80649 0.08211 0.0
C1839 C 0.29846 0.7883 0.08105 0.0
C1840 C 0.3046 0.81939 0.06918 0.0
C1841 C 0.33767 0.83164 0.09748 0.0
C1842 C 0.29575 0.83605 0.07519 0.0
C1843 C 0.28953 0.84757 0.06295 0.0
C1844 C 0.29215 0.84271 0.04446 0.0
C1845 C 0.30149 0.82627 0.03852 0.0
C1846 C 0.30751 0.81461 0.05077 0.0
H1847 H 0.35133 0.83218 0.1063 0.0
H1848 H 0.34202 0.83444 0.08396 0.0
H1849 H 0.3292 0.84343 0.10327 0.0
H1850 H 0.29317 0.83987 0.08931 0.0
H1851 H 0.28235 0.8601 0.06797 0.0
H1852 H 0.04869 0.50096 0.06001 0.0
H1853 H 0.06528 0.50206 0.08956 0.0
H1854 H 0.00893 0.50288 0.11391 0.0
H1855 H 0.992 0.50107 0.08412 0.0
H1856 H 0.0665 0.53046 0.11862 0.0
H1857 H 0.03299 0.46042 0.13595 0.0
H1858 H 0.03127 0.46613 0.11338 0.0
H1859 H 0.01536 0.47592 0.12999 0.0
C1860 C 0.0397 0.50098 0.07156 0.0
C1861 C 0.01892 0.50068 0.0696 0.0
C1862 C 0.04927 0.50176 0.08851 0.0
C1863 C 0.03837 0.50226 0.10396 0.0
C1864 C 0.01764 0.50211 0.10215 0.0
H1865 H 0.0923 0.54193 0.2119 0.0
H1866 H 0.07084 0.53632 0.18434 0.0
C1867 C 0.008 0.5013 0.08513 0.0
C1868 C 0.049 0.50389 0.12195 0.0
H1869 H 0.05362 0.4813 0.15882 0.0
C1870 C 0.06365 0.51971 0.1274 0.0
C1871 C 0.04547 0.48973 0.13333 0.0
C1872 C 0.03055 0.47199 0.12786 0.0
C1873 C 0.07477 0.52184 0.14389 0.0
C1874 C 0.07092 0.50796 0.15548 0.0
C1875 C 0.05641 0.49202 0.15 0.0
C1876 C 0.08208 0.50984 0.17322 0.0
C1877 C 0.09085 0.53878 0.14861 0.0
C1878 C 0.09486 0.49628 0.17658 0.0
C1879 C 0.10715 0.49936 0.19247 0.0
C1880 C 0.10685 0.51608 0.20531 0.0
C1881 C 0.09314 0.529 0.20229 0.0
C1882 C 0.08087 0.52587 0.18648 0.0
H1883 H 0.09522 0.54525 0.13656 0.0
H1884 H 0.0853 0.55014 0.1583 0.0
H1885 H 0.10428 0.53435 0.15502 0.0
H1886 H 0.09595 0.48374 0.16656 0.0
H1887 H 0.11748 0.4891 0.19431 0.0
H1888 H 0.38696 0.66721 0.21975 0.0
H1889 H 0.41284 0.66704 0.24341 0.0
H1890 H 0.40547 0.72572 0.26552 0.0
H1891 H 0.37901 0.72572 0.24261 0.0
H1892 H 0.44883 0.68948 0.25431 0.0
H1893 H 0.396 0.69774 0.30822 0.0
H1894 H 0.38785 0.69203 0.28468 0.0
H1895 H 0.39632 0.71663 0.29469 0.0
C1896 C 0.39082 0.68007 0.22967 0.0
C1897 C 0.38069 0.6964 0.22933 0.0
C1898 C 0.40571 0.67998 0.24312 0.0
C1899 C 0.41076 0.6962 0.25649 0.0
C1900 C 0.40149 0.71287 0.2556 0.0
H1901 H 0.49054 0.73683 0.34789 0.0
H1902 H 0.46583 0.7307 0.3225 0.0
C1903 C 0.38653 0.71294 0.24227 0.0
C1904 C 0.42522 0.69561 0.27173 0.0
H1905 H 0.43048 0.70323 0.31757 0.0
C1906 C 0.44478 0.69219 0.26817 0.0
C1907 C 0.41986 0.69893 0.2898 0.0
C1908 C 0.39881 0.70133 0.2946 0.0
C1909 C 0.45934 0.69299 0.28225 0.0
C1910 C 0.45412 0.69717 0.3003 0.0
C1911 C 0.43445 0.69998 0.30378 0.0
C1912 C 0.46907 0.70032 0.31576 0.0
C1913 C 0.48038 0.69021 0.27779 0.0
C1914 C 0.47897 0.68519 0.32055 0.0
C1915 C 0.49298 0.68865 0.33531 0.0
C1916 C 0.49695 0.70718 0.34559 0.0
C1917 C 0.4872 0.72226 0.34058 0.0
C1918 C 0.47324 0.71882 0.32598 0.0
H1919 H 0.48262 0.68993 0.26322 0.0
H1920 H 0.49101 0.70196 0.28563 0.0
H1921 H 0.48393 0.6763 0.28154 0.0
H1922 H 0.47582 0.67076 0.31293 0.0
H1923 H 0.50059 0.67689 0.33876 0.0
H1924 H 0.01668 0.42713 0.95229 0.0
H1925 H 0.01785 0.39242 0.94502 0.0
H1926 H 0.03501 0.39032 1.00043 0.0
H1927 H 0.03447 0.42546 0.00778 0.0
H1928 H 0.05798 0.36986 0.97578 0.0
H1929 H 0.97774 0.34948 0.9573 0.0
H1930 H 0.98844 0.36802 0.94546 0.0
H1931 H 0.98761 0.37291 0.96958 0.0
C1932 C 0.0208 0.41936 0.96296 0.0
C1933 C 0.02558 0.42911 0.98061 0.0
C1934 C 0.02125 0.39945 0.9588 0.0
C1935 C 0.02625 0.38872 0.97222 0.0
C1936 C 0.03099 0.39832 0.9899 0.0
H1937 H 0.00546 0.2635 0.94136 0.0
H1938 H 0.00748 0.29557 0.95942 0.0
C1939 C 0.03054 0.41835 0.9941 0.0
C1940 C 0.02693 0.36759 0.96743 0.0
H1941 H 0.99929 0.32622 0.94634 0.0
C1942 C 0.04509 0.36021 0.96959 0.0
C1943 C 0.01004 0.35496 0.95963 0.0
C1944 C 0.98981 0.3617 0.95802 0.0
C1945 C 0.04703 0.3407 0.96333 0.0
C1946 C 0.03046 0.32839 0.95437 0.0
C1947 C 0.01209 0.33563 0.95302 0.0
C1948 C 0.03177 0.30823 0.94558 0.0
C1949 C 0.06682 0.33353 0.96634 0.0
C1950 C 0.04515 0.30443 0.9321 0.0
C1951 C 0.04421 0.28597 0.92188 0.0
C1952 C 0.02959 0.27107 0.92472 0.0
C1953 C 0.01684 0.27468 0.93877 0.0
C1954 C 0.01796 0.29303 0.94911 0.0
H1955 H 0.07542 0.34224 0.97831 0.0
H1956 H 0.06494 0.31811 0.96822 0.0
H1957 H 0.0757 0.33493 0.95446 0.0
H1958 H 0.05562 0.31598 0.92878 0.0
H1959 H 0.05409 0.28373 0.91102 0.0
H1960 H 0.72203 0.76632 0.28786 0.0
H1961 H 0.69375 0.7685 0.30671 0.0
H1962 H 0.65975 0.78619 0.26372 0.0
H1963 H 0.6878 0.78319 0.24442 0.0
H1964 H 0.67137 0.79702 0.31929 0.0
H1965 H 0.62519 0.73813 0.27281 0.0
H1966 H 0.65146 0.74397 0.27062 0.0
H1967 H 0.63414 0.75888 0.26294 0.0
C1968 C 0.70855 0.77069 0.28239 0.0
C1969 C 0.70706 0.77421 0.2645 0.0
C1970 C 0.69243 0.77208 0.29325 0.0
C1971 C 0.67446 0.77707 0.28651 0.0
C1972 C 0.67332 0.78186 0.26906 0.0
H1973 H 0.56005 0.76469 0.33695 0.0
H1974 H 0.58619 0.7759 0.31807 0.0
C1975 C 0.68945 0.78038 0.25812 0.0
C1976 C 0.65678 0.77608 0.29751 0.0
H1977 H 0.61091 0.75086 0.29917 0.0
C1978 C 0.65806 0.78707 0.31481 0.0
C1979 C 0.63941 0.76305 0.29169 0.0
C1980 C 0.63743 0.7502 0.27358 0.0
C1981 C 0.64268 0.78508 0.32658 0.0
C1982 C 0.62564 0.77163 0.32094 0.0
C1983 C 0.62398 0.7612 0.30342 0.0
C1984 C 0.61012 0.76688 0.33344 0.0
C1985 C 0.64487 0.7972 0.34502 0.0
C1986 C 0.61492 0.75818 0.34837 0.0
C1987 C 0.60004 0.75166 0.35909 0.0
C1988 C 0.58004 0.75372 0.35508 0.0
C1989 C 0.57532 0.76298 0.34044 0.0
C1990 C 0.59022 0.76937 0.32963 0.0
H1991 H 0.65568 0.81039 0.34543 0.0
H1992 H 0.63036 0.80161 0.34925 0.0
H1993 H 0.65041 0.78858 0.35492 0.0
H1994 H 0.63011 0.75578 0.35137 0.0
H1995 H 0.60417 0.74455 0.37024 0.0
H1996 H 0.0902 0.08594 0.01383 0.0
H1997 H 0.08278 0.0986 0.9858 0.0
H1998 H 0.03506 0.12614 0.01053 0.0
H1999 H 0.04251 0.11376 0.03844 0.0
H2000 H 0.02834 0.10446 0.97103 0.0
H2001 H 0.09429 0.16056 0.98657 0.0
H2002 H 0.09706 0.13571 0.9881 0.0
H2003 H 0.08278 0.14896 1.00399 0.0
C2004 C 0.07787 0.09434 0.01307 0.0
C2005 C 0.06695 0.09894 0.02825 0.0
C2006 C 0.07372 0.10163 0.99715 0.0
C2007 C 0.05846 0.11341 0.99618 0.0
C2008 C 0.04689 0.1171 0.01101 0.0
H2009 H 1.00228 0.1837 0.93163 0.0
H2010 H 0.01127 0.16125 0.95132 0.0
C2011 C 0.05116 0.11004 0.02692 0.0
C2012 C 0.05527 0.12318 0.98034 0.0
H2013 H 0.07249 0.16309 0.96228 0.0
C2014 C 0.03811 0.11712 0.96892 0.0
C2015 C 0.06809 0.13963 0.97761 0.0
C2016 C 0.0866 0.14677 0.98969 0.0
C2017 C 0.0332 0.12737 0.95503 0.0
C2018 C 0.04545 0.14448 0.9529 0.0
C2019 C 0.06304 0.15006 0.96392 0.0
C2020 C 0.03972 0.15749 0.94019 0.0
C2021 C 0.0149 0.11973 0.94282 0.0
C2022 C 0.05293 0.16341 0.92763 0.0
C2023 C 0.04796 0.17657 0.91646 0.0
C2024 C 0.02965 0.18417 0.91764 0.0
C2025 C 0.01644 0.17811 0.93019 0.0
C2026 C 0.02148 0.16507 0.94139 0.0
H2027 H 0.01146 0.1038 0.94193 0.0
H2028 H 1.00197 0.12637 0.94839 0.0
H2029 H 0.01669 0.1232 0.92903 0.0
H2030 H 0.06717 0.1579 0.92653 0.0
H2031 H 0.05852 0.18088 0.90698 0.0
H2032 H 0.36172 0.27718 0.28661 0.0
H2033 H 0.38642 0.2755 0.26383 0.0
H2034 H 0.4063 0.33628 0.27979 0.0
H2035 H 0.38203 0.33798 0.30296 0.0
H2036 H 0.39233 0.29612 0.23447 0.0
H2037 H 0.45751 0.3107 0.28409 0.0
H2038 H 0.43257 0.30415 0.29041 0.0
H2039 H 0.44019 0.32827 0.28625 0.0
C2040 C 0.37141 0.29018 0.28536 0.0
C2041 C 0.36993 0.30769 0.29673 0.0
C2042 C 0.38543 0.28923 0.27223 0.0
C2043 C 0.39838 0.30571 0.27022 0.0
C2044 C 0.39665 0.32332 0.28124 0.0
H2045 H 0.47834 0.29894 0.17923 0.0
H2046 H 0.45563 0.31266 0.20108 0.0
C2047 C 0.38261 0.3243 0.29437 0.0
C2048 C 0.41394 0.30421 0.25689 0.0
H2049 H 0.46416 0.30565 0.25344 0.0
C2050 C 0.40805 0.29845 0.23857 0.0
C2051 C 0.43445 0.30717 0.26228 0.0
C2052 C 0.44166 0.31277 0.28183 0.0
C2053 C 0.42209 0.29505 0.22557 0.0
C2054 C 0.44257 0.29764 0.23102 0.0
C2055 C 0.44847 0.30393 0.24927 0.0
C2056 C 0.45773 0.29111 0.21854 0.0
C2057 C 0.41488 0.28775 0.20624 0.0
C2058 C 0.46693 0.27495 0.22144 0.0
C2059 C 0.47974 0.26718 0.20909 0.0
C2060 C 0.48386 0.27546 0.19357 0.0
C2061 C 0.4755 0.2923 0.19109 0.0
C2062 C 0.46242 0.30003 0.20347 0.0
H2063 H 0.39845 0.28428 0.20462 0.0
H2064 H 0.41944 0.29897 0.19785 0.0
H2065 H 0.42171 0.27459 0.20104 0.0
H2066 H 0.46362 0.26788 0.23297 0.0
H2067 H 0.48605 0.25429 0.2115 0.0
H2068 H 0.5277 0.38412 1.00192 0.0
H2069 H 0.51928 0.36758 0.02737 0.0
H2070 H 0.57111 0.399 0.05816 0.0
H2071 H 0.57939 0.41591 0.03264 0.0
H2072 H 0.54306 0.34369 0.04024 0.0
H2073 H 0.52942 0.40133 0.09564 0.0
H2074 H 0.52968 0.40505 0.07242 0.0
H2075 H 0.55264 0.40564 0.08542 0.0
C2076 C 0.53703 0.38785 0.01429 0.0
C2077 C 0.5542 0.4013 0.01532 0.0
C2078 C 0.53223 0.37836 0.02882 0.0
C2079 C 0.54449 0.38202 0.04476 0.0
C2080 C 0.56119 0.39614 0.04616 0.0
H2081 H 0.55056 0.32013 0.13636 0.0
H2082 H 0.55519 0.34345 0.11541 0.0
C2083 C 0.56594 0.40581 0.03158 0.0
C2084 C 0.54078 0.36957 0.05893 0.0
H2085 H 0.53124 0.36999 0.10327 0.0
C2086 C 0.54035 0.34947 0.05399 0.0
C2087 C 0.53743 0.37707 0.07694 0.0
C2088 C 0.53713 0.39843 0.08295 0.0
C2089 C 0.53681 0.33672 0.06647 0.0
C2090 C 0.5332 0.34416 0.08442 0.0
C2091 C 0.53385 0.36428 0.08948 0.0
C2092 C 0.52916 0.33119 0.0981 0.0
C2093 C 0.53741 0.31538 0.0604 0.0
C2094 C 0.51262 0.31686 0.09569 0.0
C2095 C 0.50994 0.30346 0.10764 0.0
C2096 C 0.52368 0.30417 0.12232 0.0
C2097 C 0.53971 0.3191 0.12517 0.0
C2098 C 0.54238 0.33249 0.11321 0.0
H2099 H 0.54519 0.31262 0.04774 0.0
H2100 H 0.54496 0.30883 0.07091 0.0
H2101 H 0.52198 0.30798 0.05785 0.0
H2102 H 0.50201 0.31578 0.08431 0.0
H2103 H 0.49739 0.29222 0.10508 0.0
H2104 H 0.69845 0.22967 0.28262 0.0
H2105 H 0.66496 0.23415 0.27159 0.0
H2106 H 0.67671 0.2074 0.21832 0.0
H2107 H 0.70963 0.20223 0.2293 0.0
H2108 H 0.65456 0.25526 0.2457 0.0
H2109 H 0.62329 0.17873 0.22513 0.0
H2110 H 0.64588 0.18582 0.23928 0.0
H2111 H 0.64642 0.18415 0.21519 0.0
C2112 C 0.69372 0.22441 0.26865 0.0
C2113 C 0.70676 0.21564 0.25684 0.0
C2114 C 0.67465 0.22711 0.26233 0.0
C2115 C 0.66822 0.22091 0.24416 0.0
C2116 C 0.68114 0.21197 0.23246 0.0
H2117 H 0.58026 0.26051 0.17693 0.0
H2118 H 0.61003 0.25629 0.19467 0.0
C2119 C 0.7001 0.20924 0.23873 0.0
C2120 C 0.64842 0.2245 0.23707 0.0
H2121 H 0.60672 0.20213 0.21209 0.0
C2122 C 0.64396 0.24363 0.23856 0.0
C2123 C 0.63445 0.20931 0.22796 0.0
C2124 C 0.63765 0.18834 0.22696 0.0
C2125 C 0.62628 0.24804 0.23057 0.0
C2126 C 0.61292 0.23295 0.22046 0.0
C2127 C 0.61704 0.21376 0.2196 0.0
C2128 C 0.59467 0.23661 0.21046 0.0
C2129 C 0.62209 0.26881 0.23314 0.0
C2130 C 0.57614 0.22672 0.21314 0.0
C2131 C 0.55916 0.22885 0.20281 0.0
C2132 C 0.56028 0.241 0.18956 0.0
C2133 C 0.5788 0.2512 0.18712 0.0
C2134 C 0.59584 0.24889 0.19736 0.0
H2135 H 0.63002 0.27726 0.24557 0.0
H2136 H 0.62739 0.27561 0.22156 0.0
H2137 H 0.60593 0.26983 0.23392 0.0
H2138 H 0.57483 0.21712 0.22311 0.0
H2139 H 0.54516 0.2208 0.20511 0.0
H2140 H 0.45881 0.09033 0.00884 0.0
H2141 H 0.46743 0.11904 0.03155 0.0
H2142 H 0.52964 0.11704 0.02267 0.0
H2143 H 0.5209 0.08843 0.99939 0.0
H2144 H 0.48841 0.11972 0.06214 0.0
H2145 H 0.52627 0.17428 0.02497 0.0
H2146 H 0.51193 0.15227 0.01366 0.0
H2147 H 0.53676 0.15184 0.02281 0.0
C2148 C 0.47432 0.09613 0.01161 0.0
C2149 C 0.48921 0.08707 1.0025 0.0
C2150 C 0.47924 0.11259 0.02453 0.0
C2151 C 0.49918 0.12035 0.02878 0.0
C2152 C 0.51412 0.11162 0.01938 0.0
H2153 H 0.55003 0.21143 0.11685 0.0
H2154 H 0.54543 0.184 0.09203 0.0
C2155 C 0.50915 0.0952 0.0062 0.0
C2156 C 0.50407 0.13635 0.04423 0.0
H2157 H 0.52666 0.18274 0.0568 0.0
C2158 C 0.49672 0.13351 0.06089 0.0
C2159 C 0.5151 0.15431 0.04272 0.0
C2160 C 0.52284 0.15849 0.02505 0.0
C2161 C 0.49984 0.14807 0.07596 0.0
C2162 C 0.51058 0.16613 0.0745 0.0
C2163 C 0.51839 0.1689 0.05795 0.0
C2164 C 0.51337 0.18239 0.08991 0.0
C2165 C 0.49178 0.1439 0.09342 0.0
C2166 C 0.4969 0.19063 0.097 0.0
C2167 C 0.49953 0.20626 0.11114 0.0
C2168 C 0.51863 0.21378 0.11869 0.0
C2169 C 0.53511 0.20561 0.11155 0.0
C2170 C 0.5325 0.19003 0.09732 0.0
H2171 H 0.48794 0.12815 0.09349 0.0
H2172 H 0.50288 0.14982 0.10465 0.0
H2173 H 0.47811 0.15096 0.09558 0.0
H2174 H 0.48202 0.1853 0.09127 0.0
H2175 H 0.48666 0.21288 0.11578 0.0
H2176 H 0.28644 0.32835 0.73663 0.0
H2177 H 0.3088 0.35816 0.7453 0.0
H2178 H 0.2932 0.37671 0.69508 0.0
H2179 H 0.26973 0.34734 0.6867 0.0
H2180 H 0.34074 0.36685 0.72754 0.0
H2181 H 0.29411 0.42672 0.7295 0.0
H2182 H 0.28366 0.40191 0.72919 0.0
H2183 H 0.29112 0.41012 0.70871 0.0
C2184 C 0.28712 0.33901 0.72765 0.0
C2185 C 0.27617 0.33532 0.71092 0.0
C2186 C 0.30011 0.35604 0.73259 0.0
C2187 C 0.30263 0.36979 0.72093 0.0
C2188 C 0.29127 0.36653 0.70448 0.0
H2189 H 0.39371 0.46955 0.72397 0.0
H2190 H 0.36722 0.44261 0.71417 0.0
C2191 C 0.27806 0.34955 0.69959 0.0
C2192 C 0.31879 0.38623 0.72518 0.0
H2193 H 0.32922 0.43554 0.73134 0.0
C2194 C 0.33814 0.38186 0.72845 0.0
C2195 C 0.31549 0.40584 0.72616 0.0
C2196 C 0.29495 0.4115 0.72337 0.0
C2197 C 0.3542 0.39645 0.73279 0.0
C2198 C 0.35098 0.41603 0.734 0.0
C2199 C 0.3317 0.4205 0.73039 0.0
C2200 C 0.36737 0.432 0.73967 0.0
C2201 C 0.37455 0.39075 0.73603 0.0
C2202 C 0.37623 0.43495 0.75722 0.0
C2203 C 0.39123 0.45031 0.76281 0.0
C2204 C 0.39798 0.46278 0.75087 0.0
C2205 C 0.38909 0.45986 0.7333 0.0
C2206 C 0.37392 0.44457 0.72774 0.0
H2207 H 0.37542 0.37534 0.73055 0.0
H2208 H 0.38575 0.39995 0.72979 0.0
H2209 H 0.37815 0.39291 0.75075 0.0
H2210 H 0.37117 0.42566 0.76676 0.0
H2211 H 0.39708 0.45283 0.77668 0.0
H2212 H 0.27709 0.64652 0.83955 0.0
H2213 H 0.29994 0.62172 0.83851 0.0
H2214 H 0.3316 0.6469 0.79759 0.0
H2215 H 0.30898 0.67161 0.79858 0.0
H2216 H 0.30747 0.59502 0.80559 0.0
H2217 H 0.37533 0.64152 0.83706 0.0
H2218 H 0.3506 0.64815 0.84014 0.0
H2219 H 0.36243 0.651 0.81964 0.0
C2220 C 0.28906 0.64685 0.83048 0.0
C2221 C 0.29119 0.66097 0.8191 0.0
C2222 C 0.30203 0.63265 0.82985 0.0
C2223 C 0.31756 0.63258 0.81808 0.0
C2224 C 0.31985 0.64681 0.80691 0.0
H2225 H 0.41028 0.56883 0.77909 0.0
H2226 H 0.38746 0.59214 0.78872 0.0
C2227 C 0.30682 0.66083 0.80739 0.0
C2228 C 0.33099 0.61726 0.81679 0.0
H2229 H 0.37986 0.61048 0.82144 0.0
C2230 C 0.32326 0.59827 0.8093 0.0
C2231 C 0.35156 0.6216 0.82159 0.0
C2232 C 0.36052 0.64163 0.8302 0.0
C2233 C 0.33573 0.58369 0.80561 0.0
C2234 C 0.35645 0.58815 0.80997 0.0
C2235 C 0.36402 0.60703 0.81808 0.0
C2236 C 0.37073 0.57394 0.80497 0.0
C2237 C 0.32673 0.56396 0.79622 0.0
C2238 C 0.36926 0.556 0.81116 0.0
C2239 C 0.38229 0.54249 0.80553 0.0
C2240 C 0.39717 0.54678 0.79377 0.0
C2241 C 0.39899 0.565 0.78812 0.0
C2242 C 0.38594 0.57839 0.79364 0.0
H2243 H 0.31161 0.56424 0.79006 0.0
H2244 H 0.33622 0.55822 0.78552 0.0
H2245 H 0.32546 0.55381 0.80616 0.0
H2246 H 0.35798 0.55238 0.82025 0.0
H2247 H 0.38057 0.52864 0.81022 0.0
H2248 H 0.95885 0.49966 0.47448 0.0
H2249 H 0.93228 0.47609 0.48204 0.0
H2250 H 0.90405 0.52249 0.5104 0.0
H2251 H 0.93053 0.54604 0.50302 0.0
H2252 H 0.90312 0.49083 0.52854 0.0
H2253 H 0.87715 0.4684 0.4566 0.0
H2254 H 0.90266 0.4656 0.46162 0.0
H2255 H 0.89498 0.4894 0.46416 0.0
C2256 C 0.947 0.50481 0.48237 0.0
C2257 C 0.94679 0.52474 0.48809 0.0
C2258 C 0.93183 0.49134 0.48668 0.0
C2259 C 0.91601 0.49755 0.49658 0.0
C2260 C 0.91611 0.51736 0.50278 0.0
H2261 H 0.79731 0.44135 0.49339 0.0
H2262 H 0.82769 0.46366 0.49409 0.0
C2263 C 0.9313 0.53081 0.49858 0.0
C2264 C 0.89878 0.48362 0.49969 0.0
H2265 H 0.86038 0.45212 0.47769 0.0
C2266 C 0.8938 0.48228 0.51744 0.0
C2267 C 0.88651 0.47265 0.48519 0.0
C2268 C 0.89042 0.47415 0.46582 0.0
C2269 C 0.87678 0.47037 0.52105 0.0
C2270 C 0.86459 0.45938 0.50653 0.0
C2271 C 0.86977 0.46052 0.48882 0.0
C2272 C 0.8457 0.44738 0.50908 0.0
C2273 C 0.87163 0.47013 0.54032 0.0
C2274 C 0.84549 0.43114 0.51791 0.0
C2275 C 0.82792 0.4184 0.51774 0.0
C2276 C 0.81047 0.42162 0.50849 0.0
C2277 C 0.81054 0.43846 0.50057 0.0
C2278 C 0.82793 0.45119 0.50091 0.0
H2279 H 0.88001 0.48243 0.54962 0.0
H2280 H 0.85547 0.47069 0.5417 0.0
H2281 H 0.87538 0.45649 0.54454 0.0
H2282 H 0.85908 0.42773 0.52407 0.0
H2283 H 0.82836 0.40541 0.52374 0.0
H2284 H 0.81074 0.90885 0.82603 0.0
H2285 H 0.78746 0.92487 0.80967 0.0
H2286 H 0.75416 0.86958 0.78863 0.0
H2287 H 0.77725 0.85341 0.8055 0.0
H2288 H 0.77558 0.9221 0.77387 0.0
H2289 H 0.71186 0.89921 0.81317 0.0
H2290 H 0.73717 0.89652 0.81967 0.0
H2291 H 0.72385 0.88001 0.80142 0.0
C2292 C 0.79851 0.90005 0.81786 0.0
C2293 C 0.79569 0.87986 0.81728 0.0
C2294 C 0.78524 0.90924 0.80845 0.0
C2295 C 0.76878 0.89851 0.79822 0.0
C2296 C 0.76649 0.87822 0.79676 0.0
H2297 H 0.67049 0.94703 0.7471 0.0
H2298 H 0.69229 0.9242 0.75617 0.0
C2299 C 0.77984 0.86897 0.80622 0.0
C2300 C 0.75386 0.90888 0.78974 0.0
H2301 H 0.70589 0.91931 0.79176 0.0
C2302 C 0.7603 0.92134 0.77767 0.0
C2303 C 0.73388 0.90792 0.79468 0.0
C2304 C 0.72622 0.89533 0.80805 0.0
C2305 C 0.74749 0.93312 0.77072 0.0
C2306 C 0.72774 0.93265 0.77615 0.0
C2307 C 0.72105 0.91968 0.78766 0.0
C2308 C 0.71426 0.94634 0.77085 0.0
C2309 C 0.75525 0.94609 0.75771 0.0
C2310 C 0.71913 0.96632 0.77641 0.0
C2311 C 0.70669 0.97935 0.77136 0.0
C2312 C 0.68905 0.9727 0.76062 0.0
C2313 C 0.68398 0.95264 0.75534 0.0
C2314 C 0.69642 0.93957 0.76049 0.0
H2315 H 0.76845 0.94097 0.75113 0.0
H2316 H 0.74361 0.94691 0.74712 0.0
H2317 H 0.75977 0.9609 0.76513 0.0
H2318 H 0.73261 0.97187 0.7847 0.0
H2319 H 0.71104 0.99468 0.77572 0.0
H2320 H 0.61469 0.49867 0.01134 0.0
H2321 H 0.6458 0.52108 0.01744 0.0
H2322 H 0.65311 0.51658 0.96038 0.0
H2323 H 0.62211 0.49472 0.9543 0.0
H2324 H 0.68609 0.51951 0.00785 0.0
H2325 H 0.65122 0.57438 0.97616 0.0
H2326 H 0.63691 0.55328 0.98208 0.0
H2327 H 0.64972 0.55161 0.96154 0.0
C2328 C 0.62313 0.50235 1.00018 0.0
C2329 C 0.61588 0.49528 0.98235 0.0
C2330 C 0.64085 0.51511 1.00365 0.0
C2331 C 0.65152 0.52085 0.98934 0.0
C2332 C 0.64488 0.51276 0.97162 0.0
H2333 H 0.75338 0.5962 0.96788 0.0
H2334 H 0.72479 0.57143 0.96775 0.0
C2335 C 0.6272 0.50024 0.96816 0.0
C2336 C 0.66895 0.53605 0.99257 0.0
H2337 H 0.68646 0.57948 0.98096 0.0
C2338 C 0.68613 0.53278 1.00219 0.0
C2339 C 0.66895 0.55344 0.98531 0.0
C2340 C 0.65064 0.55851 0.97586 0.0
C2341 C 0.70357 0.5461 1.00399 0.0
C2342 C 0.70372 0.56306 0.99604 0.0
C2343 C 0.68638 0.56648 0.98691 0.0
C2344 C 0.72175 0.57733 0.9965 0.0
C2345 C 0.7219 0.54167 0.01381 0.0
C2346 C 0.72949 0.58891 0.01268 0.0
C2347 C 0.74564 0.60326 0.0127 0.0
C2348 C 0.75401 0.60648 0.9965 0.0
C2349 C 0.74668 0.59447 0.98044 0.0
C2350 C 0.73053 0.58019 0.9804 0.0
H2351 H 0.72038 0.52654 0.01659 0.0
H2352 H 0.73512 0.54409 0.00585 0.0
H2353 H 0.72459 0.55158 0.02684 0.0
H2354 H 0.72281 0.58711 0.02523 0.0
H2355 H 0.7513 0.61213 0.02531 0.0
H2356 H 0.31817 0.6618 0.23145 0.0
H2357 H 0.2921 0.63492 0.23115 0.0
H2358 H 0.28171 0.63153 0.17375 0.0
H2359 H 0.30772 0.659 0.17408 0.0
H2360 H 0.24765 0.62918 0.1897 0.0
H2361 H 0.2931 0.57836 0.21581 0.0
H2362 H 0.29599 0.60093 0.23079 0.0
H2363 H 0.30411 0.60003 0.2082 0.0
C2364 C 0.31056 0.65516 0.2187 0.0
C2365 C 0.31521 0.6623 0.20273 0.0
C2366 C 0.29571 0.63969 0.21853 0.0
C2367 C 0.28534 0.63074 0.20235 0.0
C2368 C 0.28971 0.63801 0.18637 0.0
H2369 H 0.18419 0.53728 0.1953 0.0
H2370 H 0.21053 0.55999 0.18577 0.0
C2371 C 0.3045 0.65371 0.18656 0.0
C2372 C 0.26913 0.61464 0.20255 0.0
H2373 H 0.25775 0.57305 0.22009 0.0
C2374 C 0.24996 0.61663 0.19591 0.0
C2375 C 0.27208 0.59819 0.21058 0.0
C2376 C 0.29249 0.59415 0.21655 0.0
C2377 C 0.2335 0.60329 0.19807 0.0
C2378 C 0.23623 0.58776 0.20749 0.0
C2379 C 0.25557 0.58519 0.21323 0.0
C2380 C 0.2194 0.57475 0.21276 0.0
C2381 C 0.21331 0.60718 0.19151 0.0
C2382 C 0.21605 0.57512 0.23108 0.0
C2383 C 0.20133 0.56201 0.2365 0.0
C2384 C 0.18935 0.54856 0.22369 0.0
C2385 C 0.19287 0.54793 0.20537 0.0
C2386 C 0.20781 0.56092 0.19994 0.0
H2387 H 0.21431 0.61406 0.17918 0.0
H2388 H 0.2025 0.59395 0.18851 0.0
H2389 H 0.20761 0.61753 0.20204 0.0
H2390 H 0.22509 0.58537 0.24125 0.0
H2391 H 0.19954 0.56214 0.25075 0.0
H2392 H 0.98318 0.53397 1.00405 0.0
H2393 H 0.95725 0.5535 0.99752 0.0
H2394 H 0.92832 0.54107 0.04509 0.0
H2395 H 0.95378 0.52049 0.05125 0.0
H2396 H 0.9018 0.53753 0.01687 0.0
H2397 H 0.95009 0.60701 0.02075 0.0
H2398 H 0.95817 0.58835 0.00481 0.0
H2399 H 0.95872 0.58616 0.02836 0.0
C2400 C 0.97125 0.5352 0.0131 0.0
C2401 C 0.97056 0.52545 0.02814 0.0
C2402 C 0.95654 0.54667 0.00947 0.0
C2403 C 0.94095 0.54908 0.02095 0.0
C2404 C 0.94026 0.53955 0.03607 0.0
H2405 H 0.86058 0.63602 0.01903 0.0
H2406 H 0.88709 0.6169 0.02512 0.0
C2407 C 0.95493 0.5279 0.03967 0.0
C2408 C 0.92508 0.56101 0.01676 0.0
H2409 H 0.91737 0.60559 0.00724 0.0
C2410 C 0.90519 0.55245 0.01487 0.0
C2411 C 0.92942 0.58057 0.01434 0.0
C2412 C 0.95024 0.59113 0.01735 0.0
C2413 C 0.88962 0.56278 0.0104 0.0
C2414 C 0.89406 0.58209 0.00722 0.0
C2415 C 0.91393 0.59072 0.00936 0.0
C2416 C 0.87828 0.59399 1.00269 0.0
C2417 C 0.86853 0.55303 0.0096 0.0
C2418 C 0.8647 0.58782 0.98771 0.0
C2419 C 0.84931 0.59873 0.98424 0.0
C2420 C 0.84741 0.61616 0.99554 0.0
C2421 C 0.86156 0.62268 0.01003 0.0
C2422 C 0.87677 0.61172 0.01356 0.0
H2423 H 0.86732 0.5406 0.01715 0.0
H2424 H 0.85832 0.56334 0.01519 0.0
H2425 H 0.8635 0.54742 0.99536 0.0
H2426 H 0.86585 0.57448 0.97879 0.0
H2427 H 0.83872 0.59334 0.97294 0.0
H2428 H 0.13033 0.03084 0.05766 0.0
H2429 H 0.15396 0.00947 0.04527 0.0
H2430 H 0.11159 0.95975 0.04845 0.0
H2431 H 0.08751 0.98104 0.0601 0.0
H2432 H 0.17085 0.98249 0.06063 0.0
H2433 H 0.12828 0.94735 0.99746 0.0
H2434 H 0.12143 0.9687 0.01099 0.0
H2435 H 0.11484 0.94524 0.01723 0.0
C2436 C 0.12582 0.01538 0.05537 0.0
C2437 C 0.10689 0.00772 0.0598 0.0
C2438 C 0.13946 1.00315 0.04843 0.0
C2439 C 0.13452 0.98297 0.04568 0.0
C2440 C 0.11565 0.97526 0.05008 0.0
H2441 H 0.22095 0.89964 0.03416 0.0
H2442 H 0.1957 0.92004 0.04481 0.0
C2443 C 0.10196 0.98748 0.05697 0.0
C2444 C 0.1494 0.97006 0.03889 0.0
H2445 H 0.15721 0.93361 0.00543 0.0
C2446 C 0.16788 0.97184 0.04853 0.0
C2447 C 0.14564 0.9563 0.02298 0.0
C2448 C 0.12656 0.95437 0.01145 0.0
C2449 C 0.18259 0.96013 0.04284 0.0
C2450 C 0.17859 0.94594 0.02726 0.0
C2451 C 0.1602 0.94432 0.01749 0.0
C2452 C 0.19349 0.93299 0.02061 0.0
C2453 C 0.20243 0.96341 0.05338 0.0
C2454 C 0.20021 0.93293 1.00322 0.0
C2455 C 0.21453 0.92113 0.997 0.0
C2456 C 0.22246 0.90905 0.00803 0.0
C2457 C 0.21536 0.90885 0.02533 0.0
C2458 C 0.20098 0.92061 0.0315 0.0
H2459 H 0.20499 0.97797 0.06176 0.0
H2460 H 0.20282 0.95249 0.06252 0.0
H2461 H 0.2148 0.96191 0.04427 0.0
H2462 H 0.19458 0.94226 0.99452 0.0
H2463 H 0.21951 0.92167 0.98359 0.0
loop_
_geom_bond_atom_site_label_1
_geom_bond_atom_site_label_2
_geom_bond_distance
_geom_bond_site_symmetry_2
_ccdc_geom_bond_type
H0 C1 0.949 . S
C1 H0 0.949 . S
C1 C2 1.395 . S
C1 C3 1.391 . S
C2 C1 1.395 . S
C2 C5 1.390 . S
C3 C1 1.391 . S
C3 C7 1.387 . S
C3 C8 1.491 . S
H4 C5 0.950 1_565 S
C5 C2 1.390 . S
C5 H4 0.950 1_545 S
C5 C6 1.378 . S
C6 C5 1.378 . S
C6 C7 1.409 . S
C7 C3 1.387 . S
C7 C6 1.409 . S
C7 H9 0.951 . S
C8 C3 1.491 . S
C8 C10 1.382 . S
C8 C12 1.404 . S
H9 C7 0.951 . S
C10 C8 1.382 . S
C10 C11 1.419 . S
C10 H15 0.949 . S
C11 C10 1.419 . S
C11 C16 1.419 . S
C12 C8 1.404 . S
C12 H13 0.950 . S
C12 C14 1.375 . S
H13 C12 0.950 . S
C14 C12 1.375 . S
C14 C16 1.382 . S
C14 H18 0.950 . S
H15 C10 0.949 . S
C16 C11 1.419 . S
C16 C14 1.382 . S
C16 H17 0.952 . S
H17 C16 0.952 . S
H18 C14 0.950 . S
H19 C20 0.949 . S
C20 H19 0.949 . S
C20 C21 1.395 . S
C20 C22 1.391 . S
C21 C20 1.395 . S
C21 C24 1.390 . S
C22 C20 1.391 . S
C22 C26 1.387 . S
C22 C27 1.491 . S
H23 C24 0.950 . S
C24 C21 1.390 . S
C24 H23 0.950 . S
C24 C25 1.378 . S
C25 C24 1.378 . S
C25 C26 1.409 . S
C26 C22 1.387 . S
C26 C25 1.409 . S
C26 H28 0.951 . S
C27 C22 1.491 . S
C27 C29 1.382 . S
C27 C31 1.404 . S
H28 C26 0.951 . S
C29 C27 1.382 . S
C29 C30 1.390 . S
C29 H34 0.949 . S
C30 C29 1.390 . S
C30 C35 1.399 . S
C31 C27 1.404 . S
C31 H32 0.950 . S
C31 C33 1.375 . S
H32 C31 0.950 . S
C33 C31 1.375 . S
C33 C35 1.382 . S
C33 H37 0.950 . S
H34 C29 0.949 . S
C35 C30 1.399 . S
C35 C33 1.382 . S
C35 H36 0.952 . S
H36 C35 0.952 . S
H37 C33 0.950 . S
H38 C39 0.949 . S
C39 H38 0.949 . S
C39 C40 1.395 . S
C39 C41 1.391 1_455 S
C40 C39 1.395 . S
C40 C43 1.390 1_455 S
C41 C39 1.391 1_655 S
C41 C45 1.387 . S
C41 C46 1.491 1_554 S
H42 C43 0.950 . S
C43 C40 1.390 1_655 S
C43 H42 0.950 . S
C43 C44 1.378 . S
C44 C43 1.378 . S
C44 C45 1.409 . S
C45 C41 1.387 . S
C45 C44 1.409 . S
C45 H47 0.951 1_554 S
C46 C41 1.491 1_556 S
C46 C48 1.382 1_655 S
C46 C50 1.404 . S
H47 C45 0.951 1_556 S
C48 C46 1.382 1_455 S
C48 C49 1.390 . S
C48 H53 0.949 1_556 S
C49 C48 1.390 . S
C49 C54 1.399 . S
C50 C46 1.404 . S
C50 H51 0.955 . S
C50 C52 1.370 1_655 S
H51 C50 0.955 . S
C52 C50 1.370 1_455 S
C52 C54 1.382 . S
C52 H56 0.950 . S
H53 C48 0.949 1_554 S
C54 C49 1.399 . S
C54 C52 1.382 . S
C54 H55 0.952 . S
H55 C54 0.952 . S
H56 C52 0.950 . S
H57 C58 0.949 . S
C58 H57 0.949 . S
C58 C59 1.395 . S
C58 C60 1.391 . S
C59 C58 1.395 . S
C59 C62 1.390 . S
C60 C58 1.391 . S
C60 C64 1.387 . S
C60 C65 1.491 . S
H61 C62 0.950 . S
C62 C59 1.390 . S
C62 H61 0.950 . S
C62 C63 1.378 . S
C63 C62 1.378 . S
C63 C64 1.409 . S
C64 C60 1.387 . S
C64 C63 1.409 . S
C64 H66 0.951 . S
C65 C60 1.491 . S
C65 C67 1.382 . S
C65 C69 1.404 . S
H66 C64 0.951 . S
C67 C65 1.382 . S
C67 C68 1.390 . S
C67 H72 0.949 . S
C68 C67 1.390 . S
C68 C73 1.399 . S
C69 C65 1.404 . S
C69 H70 0.950 . S
C69 C71 1.375 . S
H70 C69 0.950 . S
C71 C69 1.375 . S
C71 C73 1.382 . S
C71 H75 0.950 . S
H72 C67 0.949 . S
C73 C68 1.399 . S
C73 C71 1.382 . S
C73 H74 0.952 . S
H74 C73 0.952 . S
H75 C71 0.950 . S
H76 C77 0.949 . S
C77 H76 0.949 . S
C77 C78 1.395 . S
C77 C79 1.391 . S
C78 C77 1.395 . S
C78 C81 1.390 . S
C79 C77 1.391 . S
C79 C83 1.387 . S
C79 C84 1.491 . S
H80 C81 0.950 . S
C81 C78 1.390 . S
C81 H80 0.950 . S
C81 C82 1.378 . S
C82 C81 1.378 . S
C82 C83 1.409 . S
C83 C79 1.387 . S
C83 C82 1.409 . S
C83 H85 0.951 . S
C84 C79 1.491 . S
C84 C86 1.382 . S
C84 C88 1.404 . S
H85 C83 0.951 . S
C86 C84 1.382 . S
C86 C87 1.390 . S
C86 H91 0.949 . S
C87 C86 1.390 . S
C87 C92 1.399 . S
C88 C84 1.404 . S
C88 H89 0.950 . S
C88 C90 1.375 . S
H89 C88 0.950 . S
C90 C88 1.375 . S
C90 C92 1.382 . S
C90 H94 0.950 . S
H91 C86 0.949 . S
C92 C87 1.399 . S
C92 C90 1.382 . S
C92 H93 0.952 . S
H93 C92 0.952 . S
H94 C90 0.950 . S
H95 C96 0.949 . S
C96 H95 0.949 . S
C96 C97 1.395 . S
C96 C98 1.391 . S
C97 C96 1.395 . S
C97 C100 1.390 . S
C98 C96 1.391 . S
C98 C102 1.387 . S
C98 C103 1.491 . S
H99 C100 0.950 . S
C100 C97 1.390 . S
C100 H99 0.950 . S
C100 C101 1.378 . S
C101 C100 1.378 . S
C101 C102 1.409 . S
C102 C98 1.387 . S
C102 C101 1.409 . S
C102 H104 0.951 . S
C103 C98 1.491 . S
C103 C105 1.382 . S
C103 C107 1.404 . S
H104 C102 0.951 . S
C105 C103 1.382 . S
C105 C106 1.390 . S
C105 H110 0.949 . S
C106 C105 1.390 . S
C106 C111 1.399 . S
C107 C103 1.404 . S
C107 H108 0.950 . S
C107 C109 1.375 . S
H108 C107 0.950 . S
C109 C107 1.375 . S
C109 C111 1.382 . S
C109 H113 0.950 . S
H110 C105 0.949 . S
C111 C106 1.399 . S
C111 C109 1.382 . S
C111 H112 0.952 . S
H112 C111 0.952 . S
H113 C109 0.950 . S
H114 C115 0.949 1_455 S
C115 H114 0.949 1_655 S
C115 C116 1.395 . S
C115 C117 1.391 . S
C116 C115 1.395 . S
C116 C119 1.390 . S
C117 C115 1.391 . S
C117 C121 1.387 . S
C117 C122 1.491 . S
H118 C119 0.950 . S
C119 C116 1.390 . S
C119 H118 0.950 . S
C119 C120 1.378 . S
C120 C119 1.378 . S
C120 C121 1.409 . S
C121 C117 1.387 . S
C121 C120 1.409 . S
C121 H123 0.951 . S
C122 C117 1.491 . S
C122 C124 1.382 1_655 S
C122 C126 1.404 . S
H123 C121 0.951 . S
C124 C122 1.382 1_455 S
C124 C125 1.390 . S
C124 H129 0.949 . S
C125 C124 1.390 . S
C125 C130 1.399 . S
C126 C122 1.404 . S
C126 H127 0.950 . S
C126 C128 1.375 . S
H127 C126 0.950 . S
C128 C126 1.375 . S
C128 C130 1.382 1_655 S
C128 H132 0.950 . S
H129 C124 0.949 . S
C130 C125 1.399 . S
C130 C128 1.382 1_455 S
C130 H131 0.952 . S
H131 C130 0.952 . S
H132 C128 0.950 . S
H133 C134 0.949 . S
C134 H133 0.949 . S
C134 C135 1.395 . S
C134 C136 1.391 . S
C135 C134 1.395 . S
C135 C138 1.390 . S
C136 C134 1.391 . S
C136 C140 1.387 . S
C136 C141 1.491 . S
H137 C138 0.950 . S
C138 C135 1.390 . S
C138 H137 0.950 . S
C138 C139 1.378 . S
C139 C138 1.378 . S
C139 C140 1.409 . S
C140 C136 1.387 . S
C140 C139 1.409 . S
C140 H142 0.951 . S
C141 C136 1.491 . S
C141 C143 1.382 . S
C141 C145 1.404 . S
H142 C140 0.951 . S
C143 C141 1.382 . S
C143 C144 1.390 . S
C143 H148 0.949 . S
C144 C143 1.390 . S
C144 C149 1.399 . S
C145 C141 1.404 . S
C145 H146 0.950 . S
C145 C147 1.375 . S
H146 C145 0.950 . S
C147 C145 1.375 . S
C147 C149 1.382 . S
C147 H151 0.950 . S
H148 C143 0.949 . S
C149 C144 1.399 . S
C149 C147 1.382 . S
C149 H150 0.952 . S
H150 C149 0.952 . S
H151 C147 0.950 . S
H152 C153 0.949 . S
C153 H152 0.949 . S
C153 C154 1.395 . S
C153 C155 1.391 . S
C154 C153 1.395 . S
C154 C157 1.390 . S
C155 C153 1.391 . S
C155 C159 1.387 . S
C155 C160 1.491 . S
H156 C157 0.950 . S
C157 C154 1.390 . S
C157 H156 0.950 . S
C157 C158 1.378 . S
C158 C157 1.378 . S
C158 C159 1.409 . S
C159 C155 1.387 . S
C159 C158 1.409 . S
C159 H161 0.951 . S
C160 C155 1.491 . S
C160 C162 1.382 . S
C160 C164 1.404 . S
H161 C159 0.951 . S
C162 C160 1.382 . S
C162 C163 1.390 . S
C162 H167 0.949 . S
C163 C162 1.390 . S
C163 C168 1.399 . S
C164 C160 1.404 . S
C164 H165 0.950 . S
C164 C166 1.375 . S
H165 C164 0.950 . S
C166 C164 1.375 . S
C166 C168 1.382 . S
C166 H170 0.950 . S
H167 C162 0.949 . S
C168 C163 1.399 . S
C168 C166 1.382 . S
C168 H169 0.952 . S
H169 C168 0.952 . S
H170 C166 0.950 . S
H171 C172 0.949 . S
C172 H171 0.949 . S
C172 C173 1.395 . S
C172 C174 1.391 . S
C173 C172 1.395 . S
C173 C176 1.390 . S
C174 C172 1.391 . S
C174 C178 1.387 . S
C174 C179 1.491 . S
H175 C176 0.936 1_545 S
C176 C173 1.390 . S
C176 H175 0.936 1_565 S
C176 C177 1.378 . S
C177 C176 1.378 . S
C177 C178 1.409 . S
C178 C174 1.387 . S
C178 C177 1.409 . S
C178 H180 0.951 . S
C179 C174 1.491 . S
C179 C181 1.382 . S
C179 C183 1.404 . S
H180 C178 0.951 . S
C181 C179 1.382 . S
C181 C182 1.390 . S
C181 H186 0.949 . S
C182 C181 1.390 . S
C182 C187 1.399 . S
C183 C179 1.404 . S
C183 H184 0.950 . S
C183 C185 1.375 . S
H184 C183 0.950 . S
C185 C183 1.375 . S
C185 C187 1.382 . S
C185 H189 0.950 . S
H186 C181 0.949 . S
C187 C182 1.399 . S
C187 C185 1.382 . S
C187 H188 0.952 . S
H188 C187 0.952 . S
H189 C185 0.950 . S
H190 C191 0.949 . S
C191 H190 0.949 . S
C191 C192 1.395 . S
C191 C193 1.391 . S
C192 C191 1.395 . S
C192 C195 1.390 . S
C193 C191 1.391 . S
C193 C197 1.387 . S
C193 C198 1.491 . S
H194 C195 0.950 . S
C195 C192 1.390 . S
C195 H194 0.950 . S
C195 C196 1.378 . S
C196 C195 1.378 . S
C196 C197 1.409 . S
C197 C193 1.387 . S
C197 C196 1.409 . S
C197 H199 0.951 . S
C198 C193 1.491 . S
C198 C200 1.382 . S
C198 C202 1.404 . S
H199 C197 0.951 . S
C200 C198 1.382 . S
C200 C201 1.390 . S
C200 H205 0.949 . S
C201 C200 1.390 . S
C201 C206 1.399 . S
C202 C198 1.404 . S
C202 H203 0.950 . S
C202 C204 1.375 . S
H203 C202 0.950 . S
C204 C202 1.375 . S
C204 C206 1.382 . S
C204 H208 0.950 . S
H205 C200 0.949 . S
C206 C201 1.399 . S
C206 C204 1.382 . S
C206 H207 0.952 . S
H207 C206 0.952 . S
H208 C204 0.950 . S
H209 C210 0.949 . S
C210 H209 0.949 . S
C210 C211 1.395 . S
C210 C212 1.391 . S
C211 C210 1.395 . S
C211 C214 1.390 . S
C212 C210 1.391 . S
C212 C216 1.387 . S
C212 C217 1.491 . S
H213 C214 0.950 . S
C214 C211 1.390 . S
C214 H213 0.950 . S
C214 C215 1.378 . S
C215 C214 1.378 . S
C215 C216 1.409 . S
C216 C212 1.387 . S
C216 C215 1.409 . S
C216 H218 0.951 . S
C217 C212 1.491 . S
C217 C219 1.382 . S
C217 C221 1.404 . S
H218 C216 0.951 . S
C219 C217 1.382 . S
C219 C220 1.390 . S
C219 H224 0.949 . S
C220 C219 1.390 . S
C220 C225 1.399 . S
C221 C217 1.404 . S
C221 H222 0.950 . S
C221 C223 1.375 . S
H222 C221 0.950 . S
C223 C221 1.375 . S
C223 C225 1.382 . S
C223 H227 0.950 . S
H224 C219 0.949 . S
C225 C220 1.399 . S
C225 C223 1.382 . S
C225 H226 0.952 . S
H226 C225 0.952 . S
H227 C223 0.950 . S
H228 C229 0.949 . S
C229 H228 0.949 . S
C229 C230 1.395 . S
C229 C231 1.391 . S
C230 C229 1.395 . S
C230 C233 1.390 . S
C231 C229 1.391 . S
C231 C235 1.387 . S
C231 C236 1.491 . S
H232 C233 0.950 . S
C233 C230 1.390 . S
C233 H232 0.950 . S
C233 C234 1.378 . S
C234 C233 1.378 . S
C234 C235 1.409 . S
C235 C231 1.387 . S
C235 C234 1.409 . S
C235 H237 0.951 . S
C236 C231 1.491 . S
C236 C238 1.382 . S
C236 C240 1.404 . S
H237 C235 0.951 . S
C238 C236 1.382 . S
C238 C239 1.390 . S
C238 H243 0.949 . S
C239 C238 1.390 . S
C239 C244 1.399 . S
C240 C236 1.404 . S
C240 H241 0.950 . S
C240 C242 1.375 . S
H241 C240 0.950 . S
C242 C240 1.375 . S
C242 C244 1.382 . S
C242 H246 0.950 . S
H243 C238 0.949 . S
C244 C239 1.399 . S
C244 C242 1.382 . S
C244 H245 0.952 . S
H245 C244 0.952 . S
H246 C242 0.950 . S
H247 C248 0.932 1_554 S
C248 H247 0.932 1_556 S
C248 C249 1.395 . S
C248 C250 1.391 . S
C249 C248 1.395 . S
C249 C252 1.390 . S
C250 C248 1.391 . S
C250 C254 1.387 . S
C250 C255 1.491 . S
H251 C252 0.950 . S
C252 C249 1.390 . S
C252 H251 0.950 . S
C252 C253 1.378 . S
C253 C252 1.378 . S
C253 C254 1.409 . S
C254 C250 1.387 . S
C254 C253 1.409 . S
C254 H256 0.951 . S
C255 C250 1.491 . S
C255 C257 1.382 1_556 S
C255 C259 1.404 . S
H256 C254 0.951 . S
C257 C255 1.382 1_554 S
C257 C258 1.390 . S
C257 H262 0.949 . S
C258 C257 1.390 . S
C258 C263 1.399 . S
C259 C255 1.404 . S
C259 H260 0.950 . S
C259 C261 1.375 . S
H260 C259 0.950 . S
C261 C259 1.375 . S
C261 C263 1.382 1_556 S
C261 H265 0.950 . S
H262 C257 0.949 . S
C263 C258 1.399 . S
C263 C261 1.382 1_554 S
C263 H264 0.952 . S
H264 C263 0.952 . S
H265 C261 0.950 . S
H266 C267 0.949 . S
C267 H266 0.949 . S
C267 C268 1.395 . S
C267 C269 1.391 . S
C268 C267 1.395 . S
C268 C271 1.390 . S
C269 C267 1.391 . S
C269 C273 1.387 . S
C269 C274 1.491 . S
H270 C271 0.950 . S
C271 C268 1.390 . S
C271 H270 0.950 . S
C271 C272 1.378 . S
C272 C271 1.378 . S
C272 C273 1.409 . S
C273 C269 1.387 . S
C273 C272 1.409 . S
C273 H275 0.951 . S
C274 C269 1.491 . S
C274 C276 1.382 . S
C274 C278 1.404 . S
H275 C273 0.951 . S
C276 C274 1.382 . S
C276 C277 1.390 . S
C276 H281 0.949 . S
C277 C276 1.390 . S
C277 C282 1.399 . S
C278 C274 1.404 . S
C278 H279 0.950 . S
C278 C280 1.375 . S
H279 C278 0.950 . S
C280 C278 1.375 . S
C280 C282 1.382 . S
C280 H284 0.950 . S
H281 C276 0.949 . S
C282 C277 1.399 . S
C282 C280 1.382 . S
C282 H283 0.952 . S
H283 C282 0.952 . S
H284 C280 0.950 . S
H285 C286 0.949 . S
C286 H285 0.949 . S
C286 C287 1.395 . S
C286 C288 1.391 . S
C287 C286 1.395 . S
C287 C290 1.390 . S
C288 C286 1.391 . S
C288 C292 1.387 . S
C288 C293 1.491 . S
H289 C290 0.950 . S
C290 C287 1.390 . S
C290 H289 0.950 . S
C290 C291 1.378 . S
C291 C290 1.378 . S
C291 C292 1.409 . S
C292 C288 1.387 . S
C292 C291 1.409 . S
C292 H294 0.951 . S
C293 C288 1.491 . S
C293 C295 1.382 . S
C293 C297 1.404 . S
H294 C292 0.951 . S
C295 C293 1.382 . S
C295 C296 1.390 . S
C295 H300 0.949 . S
C296 C295 1.390 . S
C296 C301 1.399 . S
C297 C293 1.404 . S
C297 H298 0.950 . S
C297 C299 1.375 . S
H298 C297 0.950 . S
C299 C297 1.375 . S
C299 C301 1.382 . S
C299 H303 0.950 . S
H300 C295 0.949 . S
C301 C296 1.399 . S
C301 C299 1.382 . S
C301 H302 0.952 . S
H302 C301 0.952 . S
H303 C299 0.950 . S
Mn304 O309 2.095 . S
Mn304 O319 2.162 . S
Mn304 O320 2.297 . S
Mn304 O328 2.385 . S
Mn304 O329 2.209 . S
Mn304 O330 2.094 . S
Mn305 O310 2.142 . S
Mn305 N312 2.204 1_554 S
Mn305 N321 2.252 1_554 S
Mn305 O329 2.248 . S
Mn305 O331 2.160 . S
C306 O328 1.234 . S
C306 O329 1.283 . S
C307 O319 1.281 . S
C307 O320 1.236 . S
C308 O330 1.240 . S
C308 O331 1.264 . S
O309 Mn304 2.095 . S
O309 C318 1.250 . S
O310 Mn305 2.142 . S
O310 C318 1.258 . S
C311 N312 1.326 . S
C311 C315 1.460 . S
C311 H317 0.929 . S
N312 Mn305 2.204 1_556 S
N312 C311 1.326 . S
N312 C316 1.362 . S
C313 C314 1.258 . S
C313 C316 1.431 . S
C313 C333 1.449 . S
C314 C313 1.258 . S
C314 C315 1.477 . S
C314 H334 0.931 . S
C315 C311 1.460 . S
C315 C314 1.477 . S
C315 H335 0.930 . S
C316 N312 1.362 . S
C316 C313 1.431 . S
C316 C326 1.476 . S
H317 C311 0.929 . S
C318 O309 1.250 . S
C318 O310 1.258 . S
O319 Mn304 2.162 . S
O319 C307 1.281 . S
O320 Mn304 2.297 . S
O320 C307 1.236 . S
N321 Mn305 2.252 1_556 S
N321 C322 1.328 . S
N321 C326 1.318 . S
C322 N321 1.328 . S
C322 C323 1.457 . S
C322 H327 0.952 . S
C323 C322 1.457 . S
C323 C324 1.291 . S
C323 H336 0.931 . S
C324 C323 1.291 . S
C324 C325 1.373 . S
C324 H337 0.929 . S
C325 C324 1.373 . S
C325 C326 1.396 . S
C325 C332 1.403 . S
C326 C316 1.476 . S
C326 N321 1.318 . S
C326 C325 1.396 . S
H327 C322 0.952 . S
O328 Mn304 2.385 . S
O328 C306 1.234 . S
O329 Mn304 2.209 . S
O329 Mn305 2.248 . S
O329 C306 1.283 . S
O330 Mn304 2.094 . S
O330 C308 1.240 . S
O331 Mn305 2.160 . S
O331 C308 1.264 . S
C332 C325 1.403 . S
C332 C333 1.399 . S
C332 H338 0.929 . S
C333 C313 1.449 . S
C333 C332 1.399 . S
C333 H339 0.930 . S
H334 C314 0.931 . S
H335 C315 0.930 . S
H336 C323 0.931 . S
H337 C324 0.929 . S
H338 C332 0.929 . S
H339 C333 0.930 . S
Mn340 O345 2.095 . S
Mn340 O355 2.162 . S
Mn340 O356 2.297 . S
Mn340 O364 2.385 . S
Mn340 O365 2.209 . S
Mn340 O366 2.094 . S
Mn341 O346 2.121 . S
Mn341 N348 2.257 . S
Mn341 N357 2.282 . S
Mn341 O365 2.215 . S
Mn341 O367 2.117 . S
C342 O364 1.234 . S
C342 O365 1.283 . S
C343 O355 1.281 . S
C343 O356 1.236 . S
C344 O366 1.240 . S
C344 O367 1.264 . S
O345 Mn340 2.095 . S
O345 C354 1.250 . S
O346 Mn341 2.121 . S
O346 C354 1.258 . S
C347 N348 1.326 . S
C347 C351 1.460 . S
C347 H353 0.929 . S
N348 Mn341 2.257 . S
N348 C347 1.326 . S
N348 C352 1.362 . S
C349 C350 1.258 . S
C349 C352 1.431 . S
C349 C369 1.449 . S
C350 C349 1.258 . S
C350 C351 1.477 . S
C350 H370 0.931 . S
C351 C347 1.460 . S
C351 C350 1.477 . S
C351 H371 0.930 . S
C352 N348 1.362 . S
C352 C349 1.431 . S
C352 C362 1.476 . S
H353 C347 0.929 . S
C354 O345 1.250 . S
C354 O346 1.258 . S
O355 Mn340 2.162 . S
O355 C343 1.281 . S
O356 Mn340 2.297 . S
O356 C343 1.236 . S
N357 Mn341 2.282 . S
N357 C358 1.328 . S
N357 C362 1.318 . S
C358 N357 1.328 . S
C358 C359 1.457 . S
C358 H363 0.929 . S
C359 C358 1.457 . S
C359 C360 1.291 . S
C359 H372 0.931 . S
C360 C359 1.291 . S
C360 C361 1.373 . S
C360 H373 0.929 . S
C361 C360 1.373 . S
C361 C362 1.396 . S
C361 C368 1.403 . S
C362 C352 1.476 . S
C362 N357 1.318 . S
C362 C361 1.396 . S
H363 C358 0.929 . S
O364 Mn340 2.385 . S
O364 C342 1.234 . S
O365 Mn340 2.209 . S
O365 Mn341 2.215 . S
O365 C342 1.283 . S
O366 Mn340 2.094 . S
O366 C344 1.240 . S
O367 Mn341 2.117 . S
O367 C344 1.264 . S
C368 C361 1.403 . S
C368 C369 1.399 . S
C368 H374 0.929 . S
C369 C349 1.449 . S
C369 C368 1.399 . S
C369 H375 0.930 . S
H370 C350 0.931 . S
H371 C351 0.930 . S
H372 C359 0.931 . S
H373 C360 0.929 . S
H374 C368 0.929 . S
H375 C369 0.930 . S
Mn376 O381 2.095 1_554 S
Mn376 O391 2.162 . S
Mn376 O392 2.297 1_554 S
Mn376 O400 2.385 . S
Mn376 O401 2.209 1_554 S
Mn376 O402 2.094 . S
Mn377 O382 2.121 . S
Mn377 N384 2.257 . S
Mn377 N393 2.282 1_556 S
Mn377 O401 2.215 . S
Mn377 O403 2.117 1_556 S
C378 O400 1.234 . S
C378 O401 1.283 1_554 S
C379 O391 1.282 . S
C379 O392 1.234 1_554 S
C380 O402 1.240 . S
C380 O403 1.264 . S
O381 Mn376 2.095 1_556 S
O381 C390 1.250 . S
O382 Mn377 2.121 . S
O382 C390 1.258 . S
C383 N384 1.326 . S
C383 C387 1.460 . S
C383 H389 0.929 . S
N384 Mn377 2.257 . S
N384 C383 1.326 . S
N384 C388 1.362 . S
C385 C386 1.258 . S
C385 C388 1.431 . S
C385 C405 1.449 . S
C386 C385 1.258 . S
C386 C387 1.477 . S
C386 H406 0.931 . S
C387 C383 1.460 . S
C387 C386 1.477 . S
C387 H407 0.930 . S
C388 N384 1.362 . S
C388 C385 1.431 . S
C388 C398 1.476 . S
H389 C383 0.929 . S
C390 O381 1.250 . S
C390 O382 1.258 . S
O391 Mn376 2.162 . S
O391 C379 1.282 . S
O392 Mn376 2.297 1_556 S
O392 C379 1.234 1_556 S
N393 Mn377 2.282 1_554 S
N393 C394 1.328 . S
N393 C398 1.318 1_554 S
C394 N393 1.328 . S
C394 C395 1.457 . S
C394 H399 0.929 . S
C395 C394 1.457 . S
C395 C396 1.291 . S
C395 H408 0.931 . S
C396 C395 1.291 . S
C396 C397 1.373 1_554 S
C396 H409 0.929 . S
C397 C396 1.373 1_556 S
C397 C398 1.396 . S
C397 C404 1.403 . S
C398 C388 1.476 . S
C398 N393 1.318 1_556 S
C398 C397 1.396 . S
H399 C394 0.929 . S
O400 Mn376 2.385 . S
O400 C378 1.234 . S
O401 Mn376 2.209 1_556 S
O401 Mn377 2.215 . S
O401 C378 1.283 1_556 S
O402 Mn376 2.094 . S
O402 C380 1.240 . S
O403 Mn377 2.117 1_554 S
O403 C380 1.264 . S
C404 C397 1.403 . S
C404 C405 1.399 . S
C404 H410 0.929 . S
C405 C385 1.449 . S
C405 C404 1.399 . S
C405 H411 0.930 . S
H406 C386 0.931 . S
H407 C387 0.930 . S
H408 C395 0.931 . S
H409 C396 0.929 . S
H410 C404 0.929 . S
H411 C405 0.930 . S
Mn412 O417 2.095 . S
Mn412 O427 2.162 . S
Mn412 O428 2.297 . S
Mn412 O436 2.385 . S
Mn412 O437 2.209 1_545 S
Mn412 O438 2.094 . S
Mn413 O418 2.110 1_565 S
Mn413 N420 2.257 . S
Mn413 N429 2.282 . S
Mn413 O437 2.215 . S
Mn413 O439 2.117 1_565 S
C414 O436 1.234 1_565 S
C414 O437 1.283 . S
C415 O427 1.281 . S
C415 O428 1.236 . S
C416 O438 1.240 . S
C416 O439 1.264 . S
O417 Mn412 2.095 . S
O417 C426 1.250 . S
O418 Mn413 2.110 1_545 S
O418 C426 1.297 . S
C419 N420 1.326 . S
C419 C423 1.460 . S
C419 H425 0.929 . S
N420 Mn413 2.257 . S
N420 C419 1.326 . S
N420 C424 1.362 . S
C421 C422 1.258 . S
C421 C424 1.431 . S
C421 C441 1.449 . S
C422 C421 1.258 . S
C422 C423 1.477 . S
C422 H442 0.931 . S
C423 C419 1.460 . S
C423 C422 1.477 . S
C423 H443 0.930 . S
C424 N420 1.362 . S
C424 C421 1.431 . S
C424 C434 1.476 . S
H425 C419 0.929 . S
C426 O417 1.250 . S
C426 O418 1.297 . S
O427 Mn412 2.162 . S
O427 C415 1.281 . S
O428 Mn412 2.297 . S
O428 C415 1.236 . S
N429 Mn413 2.282 . S
N429 C430 1.328 . S
N429 C434 1.318 . S
C430 N429 1.328 . S
C430 C431 1.457 . S
C430 H435 0.929 . S
C431 C430 1.457 . S
C431 C432 1.291 . S
C431 H444 0.931 . S
C432 C431 1.291 . S
C432 C433 1.373 . S
C432 H445 0.929 . S
C433 C432 1.373 . S
C433 C434 1.396 . S
C433 C440 1.403 . S
C434 C424 1.476 . S
C434 N429 1.318 . S
C434 C433 1.396 . S
H435 C430 0.929 . S
O436 Mn412 2.385 . S
O436 C414 1.234 1_545 S
O437 Mn412 2.209 1_565 S
O437 Mn413 2.215 . S
O437 C414 1.283 . S
O438 Mn412 2.094 . S
O438 C416 1.240 . S
O439 Mn413 2.117 1_545 S
O439 C416 1.264 . S
C440 C433 1.403 . S
C440 C441 1.399 . S
C440 H446 0.929 . S
C441 C421 1.449 . S
C441 C440 1.399 . S
C441 H447 0.930 . S
H442 C422 0.931 . S
H443 C423 0.930 . S
H444 C431 0.931 . S
H445 C432 0.929 . S
H446 C440 0.929 . S
H447 C441 0.930 . S
Mn448 O453 2.095 . S
Mn448 O463 2.162 . S
Mn448 O464 2.297 . S
Mn448 O472 2.385 . S
Mn448 O473 2.209 . S
Mn448 O474 2.094 . S
Mn449 O454 2.121 . S
Mn449 N456 2.257 . S
Mn449 N465 2.282 . S
Mn449 O473 2.215 . S
Mn449 O475 2.117 . S
C450 O472 1.234 . S
C450 O473 1.283 . S
C451 O463 1.281 . S
C451 O464 1.236 . S
C452 O474 1.240 . S
C452 O475 1.264 . S
O453 Mn448 2.095 . S
O453 C462 1.250 . S
O454 Mn449 2.121 . S
O454 C462 1.258 . S
C455 N456 1.326 . S
C455 C459 1.460 . S
C455 H461 0.929 . S
N456 Mn449 2.257 . S
N456 C455 1.326 . S
N456 C460 1.362 . S
C457 C458 1.258 . S
C457 C460 1.431 . S
C457 C477 1.449 . S
C458 C457 1.258 . S
C458 C459 1.477 . S
C458 H478 0.931 . S
C459 C455 1.460 . S
C459 C458 1.477 . S
C459 H479 0.930 . S
C460 N456 1.362 . S
C460 C457 1.431 . S
C460 C470 1.476 . S
H461 C455 0.929 . S
C462 O453 1.250 . S
C462 O454 1.258 . S
O463 Mn448 2.162 . S
O463 C451 1.281 . S
O464 Mn448 2.297 . S
O464 C451 1.236 . S
N465 Mn449 2.282 . S
N465 C466 1.328 . S
N465 C470 1.318 . S
C466 N465 1.328 . S
C466 C467 1.457 . S
C466 H471 0.929 . S
C467 C466 1.457 . S
C467 C468 1.291 . S
C467 H480 0.931 . S
C468 C467 1.291 . S
C468 C469 1.373 . S
C468 H481 0.929 . S
C469 C468 1.373 . S
C469 C470 1.396 . S
C469 C476 1.403 . S
C470 C460 1.476 . S
C470 N465 1.318 . S
C470 C469 1.396 . S
H471 C466 0.929 . S
O472 Mn448 2.385 . S
O472 C450 1.234 . S
O473 Mn448 2.209 . S
O473 Mn449 2.215 . S
O473 C450 1.283 . S
O474 Mn448 2.094 . S
O474 C452 1.240 . S
O475 Mn449 2.117 . S
O475 C452 1.264 . S
C476 C469 1.403 . S
C476 C477 1.399 . S
C476 H482 0.929 . S
C477 C457 1.449 . S
C477 C476 1.399 . S
C477 H483 0.930 . S
H478 C458 0.931 . S
H479 C459 0.930 . S
H480 C467 0.931 . S
H481 C468 0.929 . S
H482 C476 0.929 . S
H483 C477 0.930 . S
Mn484 O489 2.095 . S
Mn484 O499 2.162 . S
Mn484 O500 2.297 . S
Mn484 O508 2.385 . S
Mn484 O509 2.209 . S
Mn484 O510 2.094 . S
Mn485 O490 2.121 . S
Mn485 N492 2.257 . S
Mn485 N501 2.282 . S
Mn485 O509 2.215 . S
Mn485 O511 2.117 . S
C486 O508 1.234 . S
C486 O509 1.283 . S
C487 O499 1.281 . S
C487 O500 1.236 . S
C488 O510 1.240 . S
C488 O511 1.264 . S
O489 Mn484 2.095 . S
O489 C498 1.250 . S
O490 Mn485 2.121 . S
O490 C498 1.258 . S
C491 N492 1.326 . S
C491 C495 1.460 . S
C491 H497 0.929 . S
N492 Mn485 2.257 . S
N492 C491 1.326 . S
N492 C496 1.362 . S
C493 C494 1.258 . S
C493 C496 1.431 . S
C493 C513 1.449 . S
C494 C493 1.258 . S
C494 C495 1.477 . S
C494 H514 0.931 . S
C495 C491 1.460 . S
C495 C494 1.477 . S
C495 H515 0.930 . S
C496 N492 1.362 . S
C496 C493 1.431 . S
C496 C506 1.476 . S
H497 C491 0.929 . S
C498 O489 1.250 . S
C498 O490 1.258 . S
O499 Mn484 2.162 . S
O499 C487 1.281 . S
O500 Mn484 2.297 . S
O500 C487 1.236 . S
N501 Mn485 2.282 . S
N501 C502 1.328 . S
N501 C506 1.318 . S
C502 N501 1.328 . S
C502 C503 1.457 . S
C502 H507 0.929 . S
C503 C502 1.457 . S
C503 C504 1.291 . S
C503 H516 0.931 . S
C504 C503 1.291 . S
C504 C505 1.373 . S
C504 H517 0.929 . S
C505 C504 1.373 . S
C505 C506 1.396 . S
C505 C512 1.403 . S
C506 C496 1.476 . S
C506 N501 1.318 . S
C506 C505 1.396 . S
H507 C502 0.929 . S
O508 Mn484 2.385 . S
O508 C486 1.234 . S
O509 Mn484 2.209 . S
O509 Mn485 2.215 . S
O509 C486 1.283 . S
O510 Mn484 2.094 . S
O510 C488 1.240 . S
O511 Mn485 2.117 . S
O511 C488 1.264 . S
C512 C505 1.403 . S
C512 C513 1.399 . S
C512 H518 0.929 . S
C513 C493 1.449 . S
C513 C512 1.399 . S
C513 H519 0.930 . S
H514 C494 0.931 . S
H515 C495 0.930 . S
H516 C503 0.931 . S
H517 C504 0.929 . S
H518 C512 0.929 . S
H519 C513 0.930 . S
Mn520 O525 2.095 . S
Mn520 O535 2.162 . S
Mn520 O536 2.297 . S
Mn520 O544 2.385 . S
Mn520 O545 2.209 . S
Mn520 O546 2.094 . S
Mn521 O526 2.121 . S
Mn521 N528 2.257 . S
Mn521 N537 2.282 . S
Mn521 O545 2.215 . S
Mn521 O547 2.117 . S
C522 O544 1.234 . S
C522 O545 1.283 . S
C523 O535 1.281 . S
C523 O536 1.236 . S
C524 O546 1.240 . S
C524 O547 1.264 . S
O525 Mn520 2.095 . S
O525 C534 1.250 . S
O526 Mn521 2.121 . S
O526 C534 1.258 . S
C527 N528 1.326 . S
C527 C531 1.460 . S
C527 H533 0.929 . S
N528 Mn521 2.257 . S
N528 C527 1.326 . S
N528 C532 1.362 . S
C529 C530 1.258 . S
C529 C532 1.431 . S
C529 C549 1.449 . S
C530 C529 1.258 . S
C530 C531 1.477 . S
C530 H550 0.931 . S
C531 C527 1.460 . S
C531 C530 1.477 . S
C531 H551 0.930 . S
C532 N528 1.362 . S
C532 C529 1.431 . S
C532 C542 1.476 . S
H533 C527 0.929 . S
C534 O525 1.250 . S
C534 O526 1.258 . S
O535 Mn520 2.162 . S
O535 C523 1.281 . S
O536 Mn520 2.297 . S
O536 C523 1.236 . S
N537 Mn521 2.282 . S
N537 C538 1.328 . S
N537 C542 1.318 . S
C538 N537 1.328 . S
C538 C539 1.457 . S
C538 H543 0.929 . S
C539 C538 1.457 . S
C539 C540 1.291 . S
C539 H552 0.931 . S
C540 C539 1.291 . S
C540 C541 1.373 . S
C540 H553 0.929 . S
C541 C540 1.373 . S
C541 C542 1.396 . S
C541 C548 1.403 . S
C542 C532 1.476 . S
C542 N537 1.318 . S
C542 C541 1.396 . S
H543 C538 0.929 . S
O544 Mn520 2.385 . S
O544 C522 1.234 . S
O545 Mn520 2.209 . S
O545 Mn521 2.215 . S
O545 C522 1.283 . S
O546 Mn520 2.094 . S
O546 C524 1.240 . S
O547 Mn521 2.117 . S
O547 C524 1.264 . S
C548 C541 1.403 . S
C548 C549 1.399 . S
C548 H554 0.929 . S
C549 C529 1.449 . S
C549 C548 1.399 . S
C549 H555 0.930 . S
H550 C530 0.931 . S
H551 C531 0.930 . S
H552 C539 0.931 . S
H553 C540 0.929 . S
H554 C548 0.929 . S
H555 C549 0.930 . S
Mn556 O561 2.095 . S
Mn556 O571 2.162 1_545 S
Mn556 O572 2.297 . S
Mn556 O580 2.385 . S
Mn556 O581 2.209 . S
Mn556 O582 2.094 . S
Mn557 O562 2.121 . S
Mn557 N564 2.257 . S
Mn557 N573 2.282 . S
Mn557 O581 2.215 . S
Mn557 O583 2.117 . S
C558 O580 1.234 . S
C558 O581 1.283 . S
C559 O571 1.281 . S
C559 O572 1.236 1_565 S
C560 O582 1.240 . S
C560 O583 1.264 . S
O561 Mn556 2.095 . S
O561 C570 1.250 . S
O562 Mn557 2.121 . S
O562 C570 1.258 . S
C563 N564 1.326 . S
C563 C567 1.460 . S
C563 H569 0.929 . S
N564 Mn557 2.257 . S
N564 C563 1.326 . S
N564 C568 1.362 . S
C565 C566 1.258 . S
C565 C568 1.431 . S
C565 C585 1.449 . S
C566 C565 1.258 . S
C566 C567 1.477 . S
C566 H586 0.931 . S
C567 C563 1.460 . S
C567 C566 1.477 . S
C567 H587 0.930 . S
C568 N564 1.362 . S
C568 C565 1.431 . S
C568 C578 1.476 . S
H569 C563 0.929 . S
C570 O561 1.250 . S
C570 O562 1.258 . S
O571 Mn556 2.162 1_565 S
O571 C559 1.281 . S
O572 Mn556 2.297 . S
O572 C559 1.236 1_545 S
N573 Mn557 2.282 . S
N573 C574 1.328 . S
N573 C578 1.318 . S
C574 N573 1.328 . S
C574 C575 1.457 . S
C574 H579 0.929 . S
C575 C574 1.457 . S
C575 C576 1.291 . S
C575 H588 0.931 . S
C576 C575 1.291 . S
C576 C577 1.373 . S
C576 H589 0.929 . S
C577 C576 1.373 . S
C577 C578 1.396 . S
C577 C584 1.403 . S
C578 C568 1.476 . S
C578 N573 1.318 . S
C578 C577 1.396 . S
H579 C574 0.929 . S
O580 Mn556 2.385 . S
O580 C558 1.234 . S
O581 Mn556 2.209 . S
O581 Mn557 2.215 . S
O581 C558 1.283 . S
O582 Mn556 2.094 . S
O582 C560 1.240 . S
O583 Mn557 2.117 . S
O583 C560 1.264 . S
C584 C577 1.403 . S
C584 C585 1.399 . S
C584 H590 0.929 . S
C585 C565 1.449 . S
C585 C584 1.399 . S
C585 H591 0.930 . S
H586 C566 0.931 . S
H587 C567 0.930 . S
H588 C575 0.931 . S
H589 C576 0.929 . S
H590 C584 0.929 . S
H591 C585 0.930 . S
Mn592 O597 2.095 . S
Mn592 O607 2.162 . S
Mn592 O608 2.297 . S
Mn592 O616 2.385 . S
Mn592 O617 2.209 1_455 S
Mn592 O618 2.094 . S
Mn593 O598 2.121 . S
Mn593 N600 2.257 . S
Mn593 N609 2.282 . S
Mn593 O617 2.215 . S
Mn593 O619 2.117 . S
C594 O616 1.234 1_655 S
C594 O617 1.283 . S
C595 O607 1.281 . S
C595 O608 1.236 . S
C596 O618 1.240 . S
C596 O619 1.264 1_455 S
O597 Mn592 2.095 . S
O597 C606 1.250 . S
O598 Mn593 2.121 . S
O598 C606 1.258 1_655 S
C599 N600 1.326 . S
C599 C603 1.460 . S
C599 H605 0.929 . S
N600 Mn593 2.257 . S
N600 C599 1.326 . S
N600 C604 1.362 . S
C601 C602 1.258 . S
C601 C604 1.431 . S
C601 C621 1.449 . S
C602 C601 1.258 . S
C602 C603 1.477 . S
C602 H622 0.931 . S
C603 C599 1.460 . S
C603 C602 1.477 . S
C603 H623 0.930 . S
C604 N600 1.362 . S
C604 C601 1.431 . S
C604 C614 1.476 . S
H605 C599 0.929 . S
C606 O597 1.250 . S
C606 O598 1.258 1_455 S
O607 Mn592 2.162 . S
O607 C595 1.281 . S
O608 Mn592 2.297 . S
O608 C595 1.236 . S
N609 Mn593 2.282 . S
N609 C610 1.328 . S
N609 C614 1.318 . S
C610 N609 1.328 . S
C610 C611 1.457 . S
C610 H615 0.929 . S
C611 C610 1.457 . S
C611 C612 1.291 . S
C611 H624 0.931 . S
C612 C611 1.291 . S
C612 C613 1.373 . S
C612 H625 0.929 . S
C613 C612 1.373 . S
C613 C614 1.396 . S
C613 C620 1.403 . S
C614 C604 1.476 . S
C614 N609 1.318 . S
C614 C613 1.396 . S
H615 C610 0.929 . S
O616 Mn592 2.385 . S
O616 C594 1.234 1_455 S
O617 Mn592 2.209 1_655 S
O617 Mn593 2.215 . S
O617 C594 1.283 . S
O618 Mn592 2.094 . S
O618 C596 1.240 . S
O619 Mn593 2.117 . S
O619 C596 1.264 1_655 S
C620 C613 1.403 . S
C620 C621 1.399 . S
C620 H626 0.929 . S
C621 C601 1.449 . S
C621 C620 1.399 . S
C621 H627 0.930 . S
H622 C602 0.931 . S
H623 C603 0.930 . S
H624 C611 0.931 . S
H625 C612 0.929 . S
H626 C620 0.929 . S
H627 C621 0.930 . S
Mn628 O633 2.095 . S
Mn628 O643 2.162 . S
Mn628 O644 2.297 . S
Mn628 O652 2.385 . S
Mn628 O653 2.209 . S
Mn628 O654 2.094 . S
Mn629 O634 2.121 . S
Mn629 N636 2.257 . S
Mn629 N645 2.282 . S
Mn629 O653 2.215 . S
Mn629 O655 2.117 . S
C630 O652 1.234 . S
C630 O653 1.283 . S
C631 O643 1.281 . S
C631 O644 1.236 . S
C632 O654 1.240 . S
C632 O655 1.264 . S
O633 Mn628 2.095 . S
O633 C642 1.250 . S
O634 Mn629 2.121 . S
O634 C642 1.258 . S
C635 N636 1.326 . S
C635 C639 1.460 . S
C635 H641 0.929 . S
N636 Mn629 2.257 . S
N636 C635 1.326 . S
N636 C640 1.362 . S
C637 C638 1.258 . S
C637 C640 1.431 . S
C637 C657 1.449 . S
C638 C637 1.258 . S
C638 C639 1.477 . S
C638 H658 0.931 . S
C639 C635 1.460 . S
C639 C638 1.477 . S
C639 H659 0.930 . S
C640 N636 1.362 . S
C640 C637 1.431 . S
C640 C650 1.476 . S
H641 C635 0.929 . S
C642 O633 1.250 . S
C642 O634 1.258 . S
O643 Mn628 2.162 . S
O643 C631 1.281 . S
O644 Mn628 2.297 . S
O644 C631 1.236 . S
N645 Mn629 2.282 . S
N645 C646 1.328 . S
N645 C650 1.318 . S
C646 N645 1.328 . S
C646 C647 1.457 . S
C646 H651 0.929 . S
C647 C646 1.457 . S
C647 C648 1.291 . S
C647 H660 0.931 . S
C648 C647 1.291 . S
C648 C649 1.373 . S
C648 H661 0.929 . S
C649 C648 1.373 . S
C649 C650 1.396 . S
C649 C656 1.403 . S
C650 C640 1.476 . S
C650 N645 1.318 . S
C650 C649 1.396 . S
H651 C646 0.929 . S
O652 Mn628 2.385 . S
O652 C630 1.234 . S
O653 Mn628 2.209 . S
O653 Mn629 2.215 . S
O653 C630 1.283 . S
O654 Mn628 2.094 . S
O654 C632 1.240 . S
O655 Mn629 2.117 . S
O655 C632 1.264 . S
C656 C649 1.403 . S
C656 C657 1.399 . S
C656 H662 0.929 . S
C657 C637 1.449 . S
C657 C656 1.399 . S
C657 H663 0.930 . S
H658 C638 0.931 . S
H659 C639 0.930 . S
H660 C647 0.931 . S
H661 C648 0.929 . S
H662 C656 0.929 . S
H663 C657 0.930 . S
Mn664 O669 2.095 1_455 S
Mn664 O679 2.162 . S
Mn664 O680 2.297 1_455 S
Mn664 O688 2.385 . S
Mn664 O689 2.209 1_455 S
Mn664 O690 2.094 . S
Mn665 O670 2.121 . S
Mn665 N672 2.257 . S
Mn665 N681 2.282 . S
Mn665 O689 2.215 . S
Mn665 O691 2.117 1_655 S
C666 O688 1.234 . S
C666 O689 1.283 1_455 S
C667 O679 1.281 . S
C667 O680 1.236 1_455 S
C668 O690 1.240 . S
C668 O691 1.264 . S
O669 Mn664 2.095 1_655 S
O669 C678 1.250 . S
O670 Mn665 2.121 . S
O670 C678 1.258 . S
C671 N672 1.326 . S
C671 C675 1.460 . S
C671 H677 0.929 . S
N672 Mn665 2.257 . S
N672 C671 1.326 . S
N672 C676 1.362 . S
C673 C674 1.258 . S
C673 C676 1.431 . S
C673 C693 1.449 . S
C674 C673 1.258 . S
C674 C675 1.477 . S
C674 H694 0.931 . S
C675 C671 1.460 . S
C675 C674 1.477 . S
C675 H695 0.930 . S
C676 N672 1.362 . S
C676 C673 1.431 . S
C676 C686 1.476 . S
H677 C671 0.929 . S
C678 O669 1.250 . S
C678 O670 1.258 . S
O679 Mn664 2.162 . S
O679 C667 1.281 . S
O680 Mn664 2.297 1_655 S
O680 C667 1.236 1_655 S
N681 Mn665 2.282 . S
N681 C682 1.328 1_655 S
N681 C686 1.318 . S
C682 N681 1.328 1_455 S
C682 C683 1.457 . S
C682 H687 0.929 . S
C683 C682 1.457 . S
C683 C684 1.291 . S
C683 H696 0.931 . S
C684 C683 1.291 . S
C684 C685 1.373 1_455 S
C684 H697 0.929 . S
C685 C684 1.373 1_655 S
C685 C686 1.396 . S
C685 C692 1.403 . S
C686 C676 1.476 . S
C686 N681 1.318 . S
C686 C685 1.396 . S
H687 C682 0.929 . S
O688 Mn664 2.385 . S
O688 C666 1.234 . S
O689 Mn664 2.209 1_655 S
O689 Mn665 2.215 . S
O689 C666 1.283 1_655 S
O690 Mn664 2.094 . S
O690 C668 1.240 . S
O691 Mn665 2.117 1_455 S
O691 C668 1.264 . S
C692 C685 1.403 . S
C692 C693 1.399 . S
C692 H698 0.929 . S
C693 C673 1.449 . S
C693 C692 1.399 . S
C693 H699 0.930 . S
H694 C674 0.931 . S
H695 C675 0.930 . S
H696 C683 0.931 . S
H697 C684 0.929 . S
H698 C692 0.929 . S
H699 C693 0.930 . S
Mn700 O705 2.095 . S
Mn700 O715 2.162 . S
Mn700 O716 2.297 . S
Mn700 O724 2.385 . S
Mn700 O725 2.209 . S
Mn700 O726 2.094 . S
Mn701 O706 2.121 . S
Mn701 N708 2.257 . S
Mn701 N717 2.282 . S
Mn701 O725 2.215 . S
Mn701 O727 2.117 . S
C702 O724 1.234 . S
C702 O725 1.283 . S
C703 O715 1.281 . S
C703 O716 1.236 . S
C704 O726 1.240 . S
C704 O727 1.264 . S
O705 Mn700 2.095 . S
O705 C714 1.250 . S
O706 Mn701 2.121 . S
O706 C714 1.258 . S
C707 N708 1.326 . S
C707 C711 1.460 . S
C707 H713 0.929 . S
N708 Mn701 2.257 . S
N708 C707 1.326 . S
N708 C712 1.362 . S
C709 C710 1.258 . S
C709 C712 1.431 . S
C709 C729 1.449 . S
C710 C709 1.258 . S
C710 C711 1.477 . S
C710 H730 0.931 . S
C711 C707 1.460 . S
C711 C710 1.477 . S
C711 H731 0.930 . S
C712 N708 1.362 . S
C712 C709 1.431 . S
C712 C722 1.476 . S
H713 C707 0.929 . S
C714 O705 1.250 . S
C714 O706 1.258 . S
O715 Mn700 2.162 . S
O715 C703 1.281 . S
O716 Mn700 2.297 . S
O716 C703 1.236 . S
N717 Mn701 2.282 . S
N717 C718 1.328 . S
N717 C722 1.318 . S
C718 N717 1.328 . S
C718 C719 1.457 . S
C718 H723 0.929 . S
C719 C718 1.457 . S
C719 C720 1.291 . S
C719 H732 0.931 . S
C720 C719 1.291 . S
C720 C721 1.373 . S
C720 H733 0.929 . S
C721 C720 1.373 . S
C721 C722 1.396 . S
C721 C728 1.403 . S
C722 C712 1.476 . S
C722 N717 1.318 . S
C722 C721 1.396 . S
H723 C718 0.929 . S
O724 Mn700 2.385 . S
O724 C702 1.234 . S
O725 Mn700 2.209 . S
O725 Mn701 2.215 . S
O725 C702 1.283 . S
O726 Mn700 2.094 . S
O726 C704 1.240 . S
O727 Mn701 2.117 . S
O727 C704 1.264 . S
C728 C721 1.403 . S
C728 C729 1.399 . S
C728 H734 0.929 . S
C729 C709 1.449 . S
C729 C728 1.399 . S
C729 H735 0.930 . S
H730 C710 0.931 . S
H731 C711 0.930 . S
H732 C719 0.931 . S
H733 C720 0.929 . S
H734 C728 0.929 . S
H735 C729 0.930 . S
H736 C744 0.929 . S
H737 C746 0.930 . S
H738 C748 0.930 . S
H739 C751 0.929 . S
H740 C754 0.930 . S
H741 C756 0.960 . S
H742 C756 0.960 . S
H743 C756 0.960 . S
C744 H736 0.929 . S
C744 C745 1.377 . S
C744 C746 1.384 . S
C745 C744 1.377 . S
C745 C751 1.390 . S
C746 H737 0.930 . S
C746 C744 1.384 . S
C746 C747 1.372 . S
C747 C746 1.372 . S
C747 C748 1.400 . S
C747 C752 1.490 . S
C748 H738 0.930 . S
C748 C747 1.400 . S
C748 C751 1.386 . S
H749 C765 0.956 . S
H750 C766 0.931 . S
C751 H739 0.929 . S
C751 C745 1.390 . S
C751 C748 1.386 . S
C752 C747 1.490 . S
C752 C754 1.395 . S
C752 C755 1.403 . S
H753 C759 0.930 . S
C754 H740 0.930 . S
C754 C752 1.395 . S
C754 C757 1.403 . S
C755 C752 1.403 . S
C755 C756 1.524 . S
C755 C759 1.400 . S
C756 H741 0.960 . S
C756 H742 0.960 . S
C756 H743 0.960 . S
C756 C755 1.524 . S
C757 C754 1.403 . S
C757 C758 1.392 . S
C757 C761 1.495 . S
C758 C757 1.392 . S
C758 C759 1.385 . S
C758 C760 1.478 . S
C759 H753 0.930 . S
C759 C755 1.400 . S
C759 C758 1.385 . S
C760 C758 1.478 . S
C760 C762 1.381 . S
C760 C766 1.383 . S
C761 C757 1.495 . S
C761 H767 0.959 . S
C761 H768 0.961 . S
C761 H769 0.960 . S
C762 C760 1.381 . S
C762 C763 1.394 . S
C762 H770 0.930 . S
C763 C762 1.394 . S
C763 C764 1.383 . S
C763 H771 0.929 . S
C764 C763 1.383 . S
C764 C765 1.377 . S
C765 H749 0.956 . S
C765 C764 1.377 . S
C765 C766 1.379 . S
C766 H750 0.931 . S
C766 C760 1.383 . S
C766 C765 1.379 . S
H767 C761 0.959 . S
H768 C761 0.961 . S
H769 C761 0.960 . S
H770 C762 0.930 . S
H771 C763 0.929 . S
H772 C780 0.929 . S
H773 C782 0.930 . S
H774 C784 0.930 . S
H775 C787 0.929 . S
H776 C790 0.930 . S
H777 C792 0.960 . S
H778 C792 0.960 . S
H779 C792 0.960 . S
C780 H772 0.929 . S
C780 C781 1.377 . S
C780 C782 1.384 . S
C781 C780 1.377 . S
C781 C787 1.390 . S
C782 H773 0.930 . S
C782 C780 1.384 . S
C782 C783 1.372 . S
C783 C782 1.372 . S
C783 C784 1.400 . S
C783 C788 1.490 . S
C784 H774 0.930 . S
C784 C783 1.400 . S
C784 C787 1.386 . S
H785 C801 0.930 . S
H786 C802 0.931 . S
C787 H775 0.929 . S
C787 C781 1.390 . S
C787 C784 1.386 . S
C788 C783 1.490 . S
C788 C790 1.395 . S
C788 C791 1.403 . S
H789 C795 0.930 . S
C790 H776 0.930 . S
C790 C788 1.395 . S
C790 C793 1.403 . S
C791 C788 1.403 . S
C791 C792 1.524 . S
C791 C795 1.400 . S
C792 H777 0.960 . S
C792 H778 0.960 . S
C792 H779 0.960 . S
C792 C791 1.524 . S
C793 C790 1.403 . S
C793 C794 1.392 . S
C793 C797 1.495 . S
C794 C793 1.392 . S
C794 C795 1.385 . S
C794 C796 1.478 . S
C795 H789 0.930 . S
C795 C791 1.400 . S
C795 C794 1.385 . S
C796 C794 1.478 . S
C796 C798 1.381 . S
C796 C802 1.383 . S
C797 C793 1.495 . S
C797 H803 0.959 . S
C797 H804 0.961 . S
C797 H805 0.960 . S
C798 C796 1.381 . S
C798 C799 1.394 . S
C798 H806 0.930 . S
C799 C798 1.394 . S
C799 C800 1.383 . S
C799 H807 0.929 . S
C800 C799 1.383 . S
C800 C801 1.377 . S
C801 H785 0.930 . S
C801 C800 1.377 . S
C801 C802 1.379 . S
C802 H786 0.931 . S
C802 C796 1.383 . S
C802 C801 1.379 . S
H803 C797 0.959 . S
H804 C797 0.961 . S
H805 C797 0.960 . S
H806 C798 0.930 . S
H807 C799 0.929 . S
H808 C816 0.929 . S
H809 C818 0.930 . S
H810 C820 0.930 . S
H811 C823 0.929 . S
H812 C826 0.930 . S
H813 C828 0.960 . S
H814 C828 0.960 . S
H815 C828 0.960 . S
C816 H808 0.929 . S
C816 C817 1.377 . S
C816 C818 1.384 . S
C817 C816 1.377 . S
C817 C823 1.390 . S
C818 H809 0.930 . S
C818 C816 1.384 . S
C818 C819 1.372 . S
C819 C818 1.372 . S
C819 C820 1.400 . S
C819 C824 1.490 . S
C820 H810 0.930 . S
C820 C819 1.400 . S
C820 C823 1.386 . S
H821 C837 0.930 . S
H822 C838 0.931 . S
C823 H811 0.929 . S
C823 C817 1.390 . S
C823 C820 1.386 . S
C824 C819 1.490 . S
C824 C826 1.395 . S
C824 C827 1.403 . S
H825 C831 0.930 . S
C826 H812 0.930 . S
C826 C824 1.395 . S
C826 C829 1.403 . S
C827 C824 1.403 . S
C827 C828 1.524 . S
C827 C831 1.400 . S
C828 H813 0.960 . S
C828 H814 0.960 . S
C828 H815 0.960 . S
C828 C827 1.524 . S
C829 C826 1.403 . S
C829 C830 1.392 . S
C829 C833 1.495 . S
C830 C829 1.392 . S
C830 C831 1.385 . S
C830 C832 1.478 . S
C831 H825 0.930 . S
C831 C827 1.400 . S
C831 C830 1.385 . S
C832 C830 1.478 . S
C832 C834 1.381 . S
C832 C838 1.383 . S
C833 C829 1.495 . S
C833 H839 0.959 . S
C833 H840 0.961 . S
C833 H841 0.960 . S
C834 C832 1.381 . S
C834 C835 1.394 . S
C834 H842 0.930 . S
C835 C834 1.394 . S
C835 C836 1.383 . S
C835 H843 0.929 . S
C836 C835 1.383 . S
C836 C837 1.377 . S
C837 H821 0.930 . S
C837 C836 1.377 . S
C837 C838 1.379 . S
C838 H822 0.931 . S
C838 C832 1.383 . S
C838 C837 1.379 . S
H839 C833 0.959 . S
H840 C833 0.961 . S
H841 C833 0.960 . S
H842 C834 0.930 . S
H843 C835 0.929 . S
H844 C852 0.929 . S
H845 C854 0.930 1_545 S
H846 C856 0.930 . S
H847 C859 0.929 . S
H848 C862 0.930 . S
H849 C864 0.960 . S
H850 C864 0.960 . S
H851 C864 0.960 . S
C852 H844 0.929 . S
C852 C853 1.377 . S
C852 C854 1.384 . S
C853 C852 1.377 . S
C853 C859 1.390 . S
C854 H845 0.930 1_565 S
C854 C852 1.384 . S
C854 C855 1.372 . S
C855 C854 1.372 . S
C855 C856 1.400 . S
C855 C860 1.490 . S
C856 H846 0.930 . S
C856 C855 1.400 . S
C856 C859 1.386 . S
H857 C873 0.919 1_455 S
H858 C874 0.931 . S
C859 H847 0.929 . S
C859 C853 1.390 . S
C859 C856 1.386 . S
C860 C855 1.490 . S
C860 C862 1.395 1_565 S
C860 C863 1.403 . S
H861 C867 0.930 . S
C862 H848 0.930 . S
C862 C860 1.395 1_545 S
C862 C865 1.403 . S
C863 C860 1.403 . S
C863 C864 1.524 . S
C863 C867 1.400 . S
C864 H849 0.960 . S
C864 H850 0.960 . S
C864 H851 0.960 . S
C864 C863 1.524 . S
C865 C862 1.403 . S
C865 C866 1.392 . S
C865 C869 1.495 . S
C866 C865 1.392 . S
C866 C867 1.385 1_545 S
C866 C868 1.475 . S
C867 H861 0.930 . S
C867 C863 1.400 . S
C867 C866 1.385 1_565 S
C868 C866 1.475 . S
C868 C870 1.386 1_455 S
C868 C874 1.381 . S
C869 C865 1.495 . S
C869 H875 0.959 . S
C869 H876 0.961 . S
C869 H877 0.960 . S
C870 C868 1.386 1_655 S
C870 C871 1.394 . S
C870 H878 0.930 . S
C871 C870 1.394 . S
C871 C872 1.383 . S
C871 H879 0.929 . S
C872 C871 1.383 . S
C872 C873 1.377 . S
C873 H857 0.919 1_655 S
C873 C872 1.377 . S
C873 C874 1.379 1_655 S
C874 H858 0.931 . S
C874 C868 1.381 . S
C874 C873 1.379 1_455 S
H875 C869 0.959 . S
H876 C869 0.961 . S
H877 C869 0.960 . S
H878 C870 0.930 . S
H879 C871 0.929 . S
H880 C888 0.929 . S
H881 C890 0.930 . S
H882 C892 0.930 . S
H883 C895 0.929 . S
H884 C898 0.930 . S
H885 C900 0.960 . S
H886 C900 0.960 . S
H887 C900 0.960 . S
C888 H880 0.929 . S
C888 C889 1.377 . S
C888 C890 1.384 . S
C889 C888 1.377 . S
C889 C895 1.390 . S
C890 H881 0.930 . S
C890 C888 1.384 . S
C890 C891 1.372 . S
C891 C890 1.372 . S
C891 C892 1.400 . S
C891 C896 1.490 . S
C892 H882 0.930 . S
C892 C891 1.400 . S
C892 C895 1.386 . S
H893 C909 0.930 . S
H894 C910 0.931 . S
C895 H883 0.929 . S
C895 C889 1.390 . S
C895 C892 1.386 . S
C896 C891 1.490 . S
C896 C898 1.395 . S
C896 C899 1.403 . S
H897 C903 0.930 . S
C898 H884 0.930 . S
C898 C896 1.395 . S
C898 C901 1.403 . S
C899 C896 1.403 . S
C899 C900 1.524 . S
C899 C903 1.400 . S
C900 H885 0.960 . S
C900 H886 0.960 . S
C900 H887 0.960 . S
C900 C899 1.524 . S
C901 C898 1.403 . S
C901 C902 1.392 . S
C901 C905 1.495 . S
C902 C901 1.392 . S
C902 C903 1.385 . S
C902 C904 1.478 . S
C903 H897 0.930 . S
C903 C899 1.400 . S
C903 C902 1.385 . S
C904 C902 1.478 . S
C904 C906 1.381 . S
C904 C910 1.383 . S
C905 C901 1.495 . S
C905 H911 0.959 . S
C905 H912 0.961 . S
C905 H913 0.960 . S
C906 C904 1.381 . S
C906 C907 1.394 . S
C906 H914 0.930 . S
C907 C906 1.394 . S
C907 C908 1.383 . S
C907 H915 0.929 . S
C908 C907 1.383 . S
C908 C909 1.377 . S
C909 H893 0.930 . S
C909 C908 1.377 . S
C909 C910 1.379 . S
C910 H894 0.931 . S
C910 C904 1.383 . S
C910 C909 1.379 . S
H911 C905 0.959 . S
H912 C905 0.961 . S
H913 C905 0.960 . S
H914 C906 0.930 . S
H915 C907 0.929 . S
H916 C924 0.929 . S
H917 C926 0.930 . S
H918 C928 0.930 . S
H919 C931 0.929 . S
H920 C934 0.930 . S
H921 C936 0.960 . S
H922 C936 0.960 . S
H923 C936 0.960 . S
C924 H916 0.929 . S
C924 C925 1.377 . S
C924 C926 1.384 . S
C925 C924 1.377 . S
C925 C931 1.390 . S
C926 H917 0.930 . S
C926 C924 1.384 . S
C926 C927 1.372 . S
C927 C926 1.372 . S
C927 C928 1.400 . S
C927 C932 1.490 . S
C928 H918 0.930 . S
C928 C927 1.400 . S
C928 C931 1.386 . S
H929 C945 0.930 . S
H930 C946 0.931 . S
C931 H919 0.929 . S
C931 C925 1.390 . S
C931 C928 1.386 . S
C932 C927 1.490 . S
C932 C934 1.395 . S
C932 C935 1.403 . S
H933 C939 0.930 . S
C934 H920 0.930 . S
C934 C932 1.395 . S
C934 C937 1.403 . S
C935 C932 1.403 . S
C935 C936 1.524 . S
C935 C939 1.400 . S
C936 H921 0.960 . S
C936 H922 0.960 . S
C936 H923 0.960 . S
C936 C935 1.524 . S
C937 C934 1.403 . S
C937 C938 1.392 . S
C937 C941 1.495 . S
C938 C937 1.392 . S
C938 C939 1.385 . S
C938 C940 1.478 . S
C939 H933 0.930 . S
C939 C935 1.400 . S
C939 C938 1.385 . S
C940 C938 1.478 . S
C940 C942 1.381 . S
C940 C946 1.383 . S
C941 C937 1.495 . S
C941 H947 0.959 . S
C941 H948 0.961 . S
C941 H949 0.960 . S
C942 C940 1.381 . S
C942 C943 1.394 . S
C942 H950 0.930 . S
C943 C942 1.394 . S
C943 C944 1.383 . S
C943 H951 0.929 . S
C944 C943 1.383 . S
C944 C945 1.377 . S
C945 H929 0.930 . S
C945 C944 1.377 . S
C945 C946 1.379 . S
C946 H930 0.931 . S
C946 C940 1.383 . S
C946 C945 1.379 . S
H947 C941 0.959 . S
H948 C941 0.961 . S
H949 C941 0.960 . S
H950 C942 0.930 . S
H951 C943 0.929 . S
H952 C960 0.929 . S
H953 C962 0.930 . S
H954 C964 0.930 . S
H955 C967 0.929 . S
H956 C970 0.930 . S
H957 C972 0.960 . S
H958 C972 0.960 . S
H959 C972 0.960 . S
C960 H952 0.929 . S
C960 C961 1.377 . S
C960 C962 1.384 . S
C961 C960 1.377 . S
C961 C967 1.390 . S
C962 H953 0.930 . S
C962 C960 1.384 . S
C962 C963 1.372 . S
C963 C962 1.372 . S
C963 C964 1.400 . S
C963 C968 1.490 . S
C964 H954 0.930 . S
C964 C963 1.400 . S
C964 C967 1.386 . S
H965 C981 0.930 . S
H966 C982 0.931 . S
C967 H955 0.929 . S
C967 C961 1.390 . S
C967 C964 1.386 . S
C968 C963 1.490 . S
C968 C970 1.395 . S
C968 C971 1.403 . S
H969 C975 0.930 . S
C970 H956 0.930 . S
C970 C968 1.395 . S
C970 C973 1.403 . S
C971 C968 1.403 . S
C971 C972 1.524 . S
C971 C975 1.400 . S
C972 H957 0.960 . S
C972 H958 0.960 . S
C972 H959 0.960 . S
C972 C971 1.524 . S
C973 C970 1.403 . S
C973 C974 1.392 . S
C973 C977 1.495 . S
C974 C973 1.392 . S
C974 C975 1.385 . S
C974 C976 1.478 . S
C975 H969 0.930 . S
C975 C971 1.400 . S
C975 C974 1.385 . S
C976 C974 1.478 . S
C976 C978 1.381 . S
C976 C982 1.383 . S
C977 C973 1.495 . S
C977 H983 0.959 . S
C977 H984 0.961 . S
C977 H985 0.960 . S
C978 C976 1.381 . S
C978 C979 1.394 . S
C978 H986 0.930 . S
C979 C978 1.394 . S
C979 C980 1.383 . S
C979 H987 0.929 . S
C980 C979 1.383 . S
C980 C981 1.377 . S
C981 H965 0.930 . S
C981 C980 1.377 . S
C981 C982 1.379 . S
C982 H966 0.931 . S
C982 C976 1.383 . S
C982 C981 1.379 . S
H983 C977 0.959 . S
H984 C977 0.961 . S
H985 C977 0.960 . S
H986 C978 0.930 . S
H987 C979 0.929 . S
H988 C996 0.929 . S
H989 C998 0.930 1_545 S
H990 C1000 0.930 . S
H991 C1003 0.929 . S
H992 C1006 0.930 . S
H993 C1008 0.960 . S
H994 C1008 0.960 . S
H995 C1008 0.960 . S
C996 H988 0.929 . S
C996 C997 1.377 . S
C996 C998 1.384 . S
C997 C996 1.377 . S
C997 C1003 1.390 . S
C998 H989 0.930 1_565 S
C998 C996 1.384 . S
C998 C999 1.372 . S
C999 C998 1.372 . S
C999 C1000 1.400 . S
C999 C1004 1.490 . S
C1000 H990 0.930 . S
C1000 C999 1.400 . S
C1000 C1003 1.386 . S
H1001 C1017 0.908 1_565 S
H1002 C1018 0.931 . S
C1003 H991 0.929 . S
C1003 C997 1.390 . S
C1003 C1000 1.386 . S
C1004 C999 1.490 . S
C1004 C1006 1.395 . S
C1004 C1007 1.403 1_565 S
H1005 C1011 0.930 . S
C1006 H992 0.930 . S
C1006 C1004 1.395 . S
C1006 C1009 1.403 . S
C1007 C1004 1.403 1_545 S
C1007 C1008 1.524 . S
C1007 C1011 1.400 . S
C1008 H993 0.960 . S
C1008 H994 0.960 . S
C1008 H995 0.960 . S
C1008 C1007 1.524 . S
C1009 C1006 1.403 . S
C1009 C1010 1.403 . S
C1009 C1013 1.495 . S
C1010 C1009 1.403 . S
C1010 C1011 1.373 1_565 S
C1010 C1012 1.478 1_565 S
C1011 H1005 0.930 . S
C1011 C1007 1.400 . S
C1011 C1010 1.373 1_545 S
C1012 C1010 1.478 1_545 S
C1012 C1014 1.381 . S
C1012 C1018 1.383 1_545 S
C1013 C1009 1.495 . S
C1013 H1019 0.959 . S
C1013 H1020 0.961 . S
C1013 H1021 0.960 . S
C1014 C1012 1.381 . S
C1014 C1015 1.394 . S
C1014 H1022 0.930 . S
C1015 C1014 1.394 . S
C1015 C1016 1.383 . S
C1015 H1023 0.929 . S
C1016 C1015 1.383 . S
C1016 C1017 1.401 . S
C1017 H1001 0.908 1_545 S
C1017 C1016 1.401 . S
C1017 C1018 1.379 1_545 S
C1018 H1002 0.931 . S
C1018 C1012 1.383 1_565 S
C1018 C1017 1.379 1_565 S
H1019 C1013 0.959 . S
H1020 C1013 0.961 . S
H1021 C1013 0.960 . S
H1022 C1014 0.930 . S
H1023 C1015 0.929 . S
H1024 C1032 0.929 . S
H1025 C1034 0.930 . S
H1026 C1036 0.930 . S
H1027 C1039 0.929 . S
H1028 C1042 0.930 . S
H1029 C1044 0.960 . S
H1030 C1044 0.960 . S
H1031 C1044 0.960 . S
C1032 H1024 0.929 . S
C1032 C1033 1.377 . S
C1032 C1034 1.384 . S
C1033 C1032 1.377 . S
C1033 C1039 1.390 . S
C1034 H1025 0.930 . S
C1034 C1032 1.384 . S
C1034 C1035 1.372 . S
C1035 C1034 1.372 . S
C1035 C1036 1.400 . S
C1035 C1040 1.490 . S
C1036 H1026 0.930 . S
C1036 C1035 1.400 . S
C1036 C1039 1.386 . S
H1037 C1053 0.930 . S
H1038 C1054 0.931 . S
C1039 H1027 0.929 . S
C1039 C1033 1.390 . S
C1039 C1036 1.386 . S
C1040 C1035 1.490 . S
C1040 C1042 1.395 . S
C1040 C1043 1.403 . S
H1041 C1047 0.930 . S
C1042 H1028 0.930 . S
C1042 C1040 1.395 . S
C1042 C1045 1.403 . S
C1043 C1040 1.403 . S
C1043 C1044 1.524 . S
C1043 C1047 1.400 . S
C1044 H1029 0.960 . S
C1044 H1030 0.960 . S
C1044 H1031 0.960 . S
C1044 C1043 1.524 . S
C1045 C1042 1.403 . S
C1045 C1046 1.392 . S
C1045 C1049 1.495 . S
C1046 C1045 1.392 . S
C1046 C1047 1.385 . S
C1046 C1048 1.478 . S
C1047 H1041 0.930 . S
C1047 C1043 1.400 . S
C1047 C1046 1.385 . S
C1048 C1046 1.478 . S
C1048 C1050 1.381 . S
C1048 C1054 1.383 . S
C1049 C1045 1.495 . S
C1049 H1055 0.959 . S
C1049 H1056 0.961 . S
C1049 H1057 0.960 . S
C1050 C1048 1.381 . S
C1050 C1051 1.394 . S
C1050 H1058 0.930 . S
C1051 C1050 1.394 . S
C1051 C1052 1.383 . S
C1051 H1059 0.929 . S
C1052 C1051 1.383 . S
C1052 C1053 1.377 . S
C1053 H1037 0.930 . S
C1053 C1052 1.377 . S
C1053 C1054 1.379 . S
C1054 H1038 0.931 . S
C1054 C1048 1.383 . S
C1054 C1053 1.379 . S
H1055 C1049 0.959 . S
H1056 C1049 0.961 . S
H1057 C1049 0.960 . S
H1058 C1050 0.930 . S
H1059 C1051 0.929 . S
H1060 C1068 0.929 . S
H1061 C1070 0.930 . S
H1062 C1072 0.930 . S
H1063 C1075 0.929 . S
H1064 C1078 0.930 . S
H1065 C1080 0.960 . S
H1066 C1080 0.960 . S
H1067 C1080 0.960 . S
C1068 H1060 0.929 . S
C1068 C1069 1.377 . S
C1068 C1070 1.384 . S
C1069 C1068 1.377 . S
C1069 C1075 1.390 . S
C1070 H1061 0.930 . S
C1070 C1068 1.384 . S
C1070 C1071 1.372 . S
C1071 C1070 1.372 . S
C1071 C1072 1.400 . S
C1071 C1076 1.490 . S
C1072 H1062 0.930 . S
C1072 C1071 1.400 . S
C1072 C1075 1.386 . S
H1073 C1089 0.930 . S
H1074 C1090 0.931 . S
C1075 H1063 0.929 . S
C1075 C1069 1.390 . S
C1075 C1072 1.386 . S
C1076 C1071 1.490 . S
C1076 C1078 1.395 . S
C1076 C1079 1.403 . S
H1077 C1083 0.930 . S
C1078 H1064 0.930 . S
C1078 C1076 1.395 . S
C1078 C1081 1.403 . S
C1079 C1076 1.403 . S
C1079 C1080 1.524 . S
C1079 C1083 1.400 . S
C1080 H1065 0.960 . S
C1080 H1066 0.960 . S
C1080 H1067 0.960 . S
C1080 C1079 1.524 . S
C1081 C1078 1.403 . S
C1081 C1082 1.392 . S
C1081 C1085 1.495 . S
C1082 C1081 1.392 . S
C1082 C1083 1.385 . S
C1082 C1084 1.478 . S
C1083 H1077 0.930 . S
C1083 C1079 1.400 . S
C1083 C1082 1.385 . S
C1084 C1082 1.478 . S
C1084 C1086 1.381 . S
C1084 C1090 1.383 . S
C1085 C1081 1.495 . S
C1085 H1091 0.959 . S
C1085 H1092 0.961 . S
C1085 H1093 0.960 . S
C1086 C1084 1.381 . S
C1086 C1087 1.394 . S
C1086 H1094 0.930 . S
C1087 C1086 1.394 . S
C1087 C1088 1.383 . S
C1087 H1095 0.929 . S
C1088 C1087 1.383 . S
C1088 C1089 1.377 . S
C1089 H1073 0.930 . S
C1089 C1088 1.377 . S
C1089 C1090 1.379 . S
C1090 H1074 0.931 . S
C1090 C1084 1.383 . S
C1090 C1089 1.379 . S
H1091 C1085 0.959 . S
H1092 C1085 0.961 . S
H1093 C1085 0.960 . S
H1094 C1086 0.930 . S
H1095 C1087 0.929 . S
H1096 C1104 0.929 . S
H1097 C1106 0.930 . S
H1098 C1108 0.930 . S
H1099 C1111 0.929 . S
H1100 C1114 0.930 . S
H1101 C1116 0.960 . S
H1102 C1116 0.960 . S
H1103 C1116 0.960 . S
C1104 H1096 0.929 . S
C1104 C1105 1.377 . S
C1104 C1106 1.384 . S
C1105 C1104 1.377 . S
C1105 C1111 1.390 . S
C1106 H1097 0.930 . S
C1106 C1104 1.384 . S
C1106 C1107 1.372 . S
C1107 C1106 1.372 . S
C1107 C1108 1.400 . S
C1107 C1112 1.490 . S
C1108 H1098 0.930 . S
C1108 C1107 1.400 . S
C1108 C1111 1.386 . S
H1109 C1125 0.930 . S
H1110 C1126 0.931 . S
C1111 H1099 0.929 . S
C1111 C1105 1.390 . S
C1111 C1108 1.386 . S
C1112 C1107 1.490 . S
C1112 C1114 1.395 . S
C1112 C1115 1.403 . S
H1113 C1119 0.930 . S
C1114 H1100 0.930 . S
C1114 C1112 1.395 . S
C1114 C1117 1.403 . S
C1115 C1112 1.403 . S
C1115 C1116 1.524 . S
C1115 C1119 1.400 . S
C1116 H1101 0.960 . S
C1116 H1102 0.960 . S
C1116 H1103 0.960 . S
C1116 C1115 1.524 . S
C1117 C1114 1.403 . S
C1117 C1118 1.392 . S
C1117 C1121 1.495 . S
C1118 C1117 1.392 . S
C1118 C1119 1.385 . S
C1118 C1120 1.478 . S
C1119 H1113 0.930 . S
C1119 C1115 1.400 . S
C1119 C1118 1.385 . S
C1120 C1118 1.478 . S
C1120 C1122 1.381 . S
C1120 C1126 1.383 . S
C1121 C1117 1.495 . S
C1121 H1127 0.959 . S
C1121 H1128 0.961 . S
C1121 H1129 0.960 . S
C1122 C1120 1.381 . S
C1122 C1123 1.394 . S
C1122 H1130 0.930 . S
C1123 C1122 1.394 . S
C1123 C1124 1.383 . S
C1123 H1131 0.929 . S
C1124 C1123 1.383 . S
C1124 C1125 1.377 . S
C1125 H1109 0.930 . S
C1125 C1124 1.377 . S
C1125 C1126 1.379 . S
C1126 H1110 0.931 . S
C1126 C1120 1.383 . S
C1126 C1125 1.379 . S
H1127 C1121 0.959 . S
H1128 C1121 0.961 . S
H1129 C1121 0.960 . S
H1130 C1122 0.930 . S
H1131 C1123 0.929 . S
H1132 C1140 0.929 . S
H1133 C1142 0.930 . S
H1134 C1144 0.930 . S
H1135 C1147 0.929 . S
H1136 C1150 0.930 . S
H1137 C1152 0.960 . S
H1138 C1152 0.960 . S
H1139 C1152 0.960 . S
C1140 H1132 0.929 . S
C1140 C1141 1.377 . S
C1140 C1142 1.384 . S
C1141 C1140 1.377 . S
C1141 C1147 1.390 . S
C1142 H1133 0.930 . S
C1142 C1140 1.384 . S
C1142 C1143 1.372 . S
C1143 C1142 1.372 . S
C1143 C1144 1.400 . S
C1143 C1148 1.490 . S
C1144 H1134 0.930 . S
C1144 C1143 1.400 . S
C1144 C1147 1.386 . S
H1145 C1161 0.930 . S
H1146 C1162 0.931 . S
C1147 H1135 0.929 . S
C1147 C1141 1.390 . S
C1147 C1144 1.386 . S
C1148 C1143 1.490 . S
C1148 C1150 1.395 . S
C1148 C1151 1.403 . S
H1149 C1155 0.930 . S
C1150 H1136 0.930 . S
C1150 C1148 1.395 . S
C1150 C1153 1.403 . S
C1151 C1148 1.403 . S
C1151 C1152 1.524 . S
C1151 C1155 1.400 . S
C1152 H1137 0.960 . S
C1152 H1138 0.960 . S
C1152 H1139 0.960 . S
C1152 C1151 1.524 . S
C1153 C1150 1.403 . S
C1153 C1154 1.392 . S
C1153 C1157 1.495 . S
C1154 C1153 1.392 . S
C1154 C1155 1.385 . S
C1154 C1156 1.478 . S
C1155 H1149 0.930 . S
C1155 C1151 1.400 . S
C1155 C1154 1.385 . S
C1156 C1154 1.478 . S
C1156 C1158 1.381 . S
C1156 C1162 1.383 . S
C1157 C1153 1.495 . S
C1157 H1163 0.959 . S
C1157 H1164 0.961 . S
C1157 H1165 0.960 . S
C1158 C1156 1.381 . S
C1158 C1159 1.394 . S
C1158 H1166 0.930 . S
C1159 C1158 1.394 . S
C1159 C1160 1.383 . S
C1159 H1167 0.929 . S
C1160 C1159 1.383 . S
C1160 C1161 1.377 . S
C1161 H1145 0.930 . S
C1161 C1160 1.377 . S
C1161 C1162 1.379 . S
C1162 H1146 0.931 . S
C1162 C1156 1.383 . S
C1162 C1161 1.379 . S
H1163 C1157 0.959 . S
H1164 C1157 0.961 . S
H1165 C1157 0.960 . S
H1166 C1158 0.930 . S
H1167 C1159 0.929 . S
H1168 C1176 0.929 . S
H1169 C1178 0.930 . S
H1170 C1180 0.930 . S
H1171 C1183 0.929 . S
H1172 C1186 0.930 . S
H1173 C1188 0.960 . S
H1174 C1188 0.960 . S
H1175 C1188 0.960 . S
C1176 H1168 0.929 . S
C1176 C1177 1.377 . S
C1176 C1178 1.384 . S
C1177 C1176 1.377 . S
C1177 C1183 1.390 . S
C1178 H1169 0.930 . S
C1178 C1176 1.384 . S
C1178 C1179 1.372 . S
C1179 C1178 1.372 . S
C1179 C1180 1.400 . S
C1179 C1184 1.490 . S
C1180 H1170 0.930 . S
C1180 C1179 1.400 . S
C1180 C1183 1.386 . S
H1181 C1197 0.930 . S
H1182 C1198 0.931 . S
C1183 H1171 0.929 . S
C1183 C1177 1.390 . S
C1183 C1180 1.386 . S
C1184 C1179 1.490 . S
C1184 C1186 1.395 . S
C1184 C1187 1.403 . S
H1185 C1191 0.930 . S
C1186 H1172 0.930 . S
C1186 C1184 1.395 . S
C1186 C1189 1.403 . S
C1187 C1184 1.403 . S
C1187 C1188 1.524 . S
C1187 C1191 1.400 . S
C1188 H1173 0.960 . S
C1188 H1174 0.960 . S
C1188 H1175 0.960 . S
C1188 C1187 1.524 . S
C1189 C1186 1.403 . S
C1189 C1190 1.392 . S
C1189 C1193 1.495 . S
C1190 C1189 1.392 . S
C1190 C1191 1.385 . S
C1190 C1192 1.478 . S
C1191 H1185 0.930 . S
C1191 C1187 1.400 . S
C1191 C1190 1.385 . S
C1192 C1190 1.478 . S
C1192 C1194 1.381 . S
C1192 C1198 1.383 . S
C1193 C1189 1.495 . S
C1193 H1199 0.959 . S
C1193 H1200 0.961 . S
C1193 H1201 0.960 . S
C1194 C1192 1.381 . S
C1194 C1195 1.394 . S
C1194 H1202 0.930 . S
C1195 C1194 1.394 . S
C1195 C1196 1.383 . S
C1195 H1203 0.929 . S
C1196 C1195 1.383 . S
C1196 C1197 1.377 . S
C1197 H1181 0.930 . S
C1197 C1196 1.377 . S
C1197 C1198 1.379 . S
C1198 H1182 0.931 . S
C1198 C1192 1.383 . S
C1198 C1197 1.379 . S
H1199 C1193 0.959 . S
H1200 C1193 0.961 . S
H1201 C1193 0.960 . S
H1202 C1194 0.930 . S
H1203 C1195 0.929 . S
H1204 C1212 0.929 . S
H1205 C1214 0.930 . S
H1206 C1216 0.930 . S
H1207 C1219 0.929 . S
H1208 C1222 0.930 . S
H1209 C1224 0.960 . S
H1210 C1224 0.960 . S
H1211 C1224 0.960 . S
C1212 H1204 0.929 . S
C1212 C1213 1.377 . S
C1212 C1214 1.384 . S
C1213 C1212 1.377 . S
C1213 C1219 1.390 . S
C1214 H1205 0.930 . S
C1214 C1212 1.384 . S
C1214 C1215 1.372 . S
C1215 C1214 1.372 . S
C1215 C1216 1.400 . S
C1215 C1220 1.490 . S
C1216 H1206 0.930 . S
C1216 C1215 1.400 . S
C1216 C1219 1.386 . S
H1217 C1233 0.930 . S
H1218 C1234 0.931 . S
C1219 H1207 0.929 . S
C1219 C1213 1.390 . S
C1219 C1216 1.386 . S
C1220 C1215 1.490 . S
C1220 C1222 1.395 . S
C1220 C1223 1.403 . S
H1221 C1227 0.930 . S
C1222 H1208 0.930 . S
C1222 C1220 1.395 . S
C1222 C1225 1.403 . S
C1223 C1220 1.403 . S
C1223 C1224 1.524 . S
C1223 C1227 1.400 . S
C1224 H1209 0.960 . S
C1224 H1210 0.960 . S
C1224 H1211 0.960 . S
C1224 C1223 1.524 . S
C1225 C1222 1.403 . S
C1225 C1226 1.392 . S
C1225 C1229 1.495 . S
C1226 C1225 1.392 . S
C1226 C1227 1.385 . S
C1226 C1228 1.478 . S
C1227 H1221 0.930 . S
C1227 C1223 1.400 . S
C1227 C1226 1.385 . S
C1228 C1226 1.478 . S
C1228 C1230 1.381 . S
C1228 C1234 1.383 . S
C1229 C1225 1.495 . S
C1229 H1235 0.959 . S
C1229 H1236 0.961 . S
C1229 H1237 0.955 . S
C1230 C1228 1.381 . S
C1230 C1231 1.394 . S
C1230 H1238 0.930 . S
C1231 C1230 1.394 . S
C1231 C1232 1.383 . S
C1231 H1239 0.929 1_455 S
C1232 C1231 1.383 . S
C1232 C1233 1.377 . S
C1233 H1217 0.930 . S
C1233 C1232 1.377 . S
C1233 C1234 1.379 . S
C1234 H1218 0.931 . S
C1234 C1228 1.383 . S
C1234 C1233 1.379 . S
H1235 C1229 0.959 . S
H1236 C1229 0.961 . S
H1237 C1229 0.955 . S
H1238 C1230 0.930 . S
H1239 C1231 0.929 1_655 S
H1240 C1248 0.929 . S
H1241 C1250 0.930 . S
H1242 C1252 0.930 . S
H1243 C1255 0.929 . S
H1244 C1258 0.930 . S
H1245 C1260 0.960 . S
H1246 C1260 0.960 . S
H1247 C1260 0.960 . S
C1248 H1240 0.929 . S
C1248 C1249 1.377 . S
C1248 C1250 1.384 . S
C1249 C1248 1.377 . S
C1249 C1255 1.390 . S
C1250 H1241 0.930 . S
C1250 C1248 1.384 . S
C1250 C1251 1.372 . S
C1251 C1250 1.372 . S
C1251 C1252 1.400 . S
C1251 C1256 1.490 . S
C1252 H1242 0.930 . S
C1252 C1251 1.400 . S
C1252 C1255 1.386 . S
H1253 C1269 0.930 . S
H1254 C1270 0.931 . S
C1255 H1243 0.929 . S
C1255 C1249 1.390 . S
C1255 C1252 1.386 . S
C1256 C1251 1.490 . S
C1256 C1258 1.395 . S
C1256 C1259 1.403 . S
H1257 C1263 0.930 . S
C1258 H1244 0.930 . S
C1258 C1256 1.395 . S
C1258 C1261 1.403 . S
C1259 C1256 1.403 . S
C1259 C1260 1.524 . S
C1259 C1263 1.400 . S
C1260 H1245 0.960 . S
C1260 H1246 0.960 . S
C1260 H1247 0.960 . S
C1260 C1259 1.524 . S
C1261 C1258 1.403 . S
C1261 C1262 1.392 . S
C1261 C1265 1.495 . S
C1262 C1261 1.392 . S
C1262 C1263 1.385 . S
C1262 C1264 1.478 . S
C1263 H1257 0.930 . S
C1263 C1259 1.400 . S
C1263 C1262 1.385 . S
C1264 C1262 1.478 . S
C1264 C1266 1.381 . S
C1264 C1270 1.383 . S
C1265 C1261 1.495 . S
C1265 H1271 0.959 . S
C1265 H1272 0.961 . S
C1265 H1273 0.960 . S
C1266 C1264 1.381 . S
C1266 C1267 1.394 . S
C1266 H1274 0.930 . S
C1267 C1266 1.394 . S
C1267 C1268 1.383 . S
C1267 H1275 0.929 . S
C1268 C1267 1.383 . S
C1268 C1269 1.377 . S
C1269 H1253 0.930 . S
C1269 C1268 1.377 . S
C1269 C1270 1.379 . S
C1270 H1254 0.931 . S
C1270 C1264 1.383 . S
C1270 C1269 1.379 . S
H1271 C1265 0.959 . S
H1272 C1265 0.961 . S
H1273 C1265 0.960 . S
H1274 C1266 0.930 . S
H1275 C1267 0.929 . S
H1276 C1284 0.929 . S
H1277 C1286 0.930 . S
H1278 C1288 0.930 . S
H1279 C1291 0.929 . S
H1280 C1294 0.930 . S
H1281 C1296 0.960 . S
H1282 C1296 0.960 . S
H1283 C1296 0.960 . S
C1284 H1276 0.929 . S
C1284 C1285 1.377 . S
C1284 C1286 1.384 . S
C1285 C1284 1.377 . S
C1285 C1291 1.390 1_655 S
C1286 H1277 0.930 . S
C1286 C1284 1.384 . S
C1286 C1287 1.372 . S
C1287 C1286 1.372 . S
C1287 C1288 1.400 1_655 S
C1287 C1292 1.490 . S
C1288 H1278 0.930 . S
C1288 C1287 1.400 1_455 S
C1288 C1291 1.386 . S
H1289 C1305 0.930 . S
H1290 C1306 0.931 . S
C1291 H1279 0.929 . S
C1291 C1285 1.390 1_455 S
C1291 C1288 1.386 . S
C1292 C1287 1.490 . S
C1292 C1294 1.395 . S
C1292 C1295 1.403 1_655 S
H1293 C1299 0.930 . S
C1294 H1280 0.930 . S
C1294 C1292 1.395 . S
C1294 C1297 1.403 . S
C1295 C1292 1.403 1_455 S
C1295 C1296 1.524 . S
C1295 C1299 1.400 . S
C1296 H1281 0.960 . S
C1296 H1282 0.960 . S
C1296 H1283 0.960 . S
C1296 C1295 1.524 . S
C1297 C1294 1.403 . S
C1297 C1298 1.392 . S
C1297 C1301 1.495 . S
C1298 C1297 1.392 . S
C1298 C1299 1.385 1_655 S
C1298 C1300 1.478 . S
C1299 H1293 0.930 . S
C1299 C1295 1.400 . S
C1299 C1298 1.385 1_455 S
C1300 C1298 1.478 . S
C1300 C1302 1.381 . S
C1300 C1306 1.383 1_655 S
C1301 C1297 1.495 . S
C1301 H1307 0.959 . S
C1301 H1308 0.961 . S
C1301 H1309 0.960 . S
C1302 C1300 1.381 . S
C1302 C1303 1.394 . S
C1302 H1310 0.930 . S
C1303 C1302 1.394 . S
C1303 C1304 1.383 . S
C1303 H1311 0.929 . S
C1304 C1303 1.383 . S
C1304 C1305 1.377 1_655 S
C1305 H1289 0.930 . S
C1305 C1304 1.377 1_455 S
C1305 C1306 1.379 . S
C1306 H1290 0.931 . S
C1306 C1300 1.383 1_455 S
C1306 C1305 1.379 . S
H1307 C1301 0.959 . S
H1308 C1301 0.961 . S
H1309 C1301 0.960 . S
H1310 C1302 0.930 . S
H1311 C1303 0.929 . S
H1312 C1320 0.929 . S
H1313 C1322 0.930 . S
H1314 C1324 0.930 . S
H1315 C1327 0.929 . S
H1316 C1330 0.930 . S
H1317 C1332 0.960 . S
H1318 C1332 0.960 . S
H1319 C1332 0.960 . S
C1320 H1312 0.929 . S
C1320 C1321 1.377 . S
C1320 C1322 1.384 . S
C1321 C1320 1.377 . S
C1321 C1327 1.390 . S
C1322 H1313 0.930 . S
C1322 C1320 1.384 . S
C1322 C1323 1.372 . S
C1323 C1322 1.372 . S
C1323 C1324 1.400 . S
C1323 C1328 1.490 . S
C1324 H1314 0.930 . S
C1324 C1323 1.400 . S
C1324 C1327 1.386 . S
H1325 C1341 0.930 . S
H1326 C1342 0.931 . S
C1327 H1315 0.929 . S
C1327 C1321 1.390 . S
C1327 C1324 1.386 . S
C1328 C1323 1.490 . S
C1328 C1330 1.395 . S
C1328 C1331 1.403 . S
H1329 C1335 0.930 . S
C1330 H1316 0.930 . S
C1330 C1328 1.395 . S
C1330 C1333 1.403 . S
C1331 C1328 1.403 . S
C1331 C1332 1.524 . S
C1331 C1335 1.400 . S
C1332 H1317 0.960 . S
C1332 H1318 0.960 . S
C1332 H1319 0.960 . S
C1332 C1331 1.524 . S
C1333 C1330 1.403 . S
C1333 C1334 1.392 . S
C1333 C1337 1.495 . S
C1334 C1333 1.392 . S
C1334 C1335 1.385 . S
C1334 C1336 1.478 . S
C1335 H1329 0.930 . S
C1335 C1331 1.400 . S
C1335 C1334 1.385 . S
C1336 C1334 1.478 . S
C1336 C1338 1.381 . S
C1336 C1342 1.383 . S
C1337 C1333 1.495 . S
C1337 H1343 0.959 . S
C1337 H1344 0.961 . S
C1337 H1345 0.960 . S
C1338 C1336 1.381 . S
C1338 C1339 1.394 . S
C1338 H1346 0.930 . S
C1339 C1338 1.394 . S
C1339 C1340 1.383 . S
C1339 H1347 0.929 . S
C1340 C1339 1.383 . S
C1340 C1341 1.377 . S
C1341 H1325 0.930 . S
C1341 C1340 1.377 . S
C1341 C1342 1.379 . S
C1342 H1326 0.931 . S
C1342 C1336 1.383 . S
C1342 C1341 1.379 . S
H1343 C1337 0.959 . S
H1344 C1337 0.961 . S
H1345 C1337 0.960 . S
H1346 C1338 0.930 . S
H1347 C1339 0.929 . S
H1348 C1356 0.929 . S
H1349 C1358 0.930 . S
H1350 C1360 0.930 . S
H1351 C1363 0.929 . S
H1352 C1366 0.930 . S
H1353 C1368 0.960 . S
H1354 C1368 0.960 . S
H1355 C1368 0.960 . S
C1356 H1348 0.929 . S
C1356 C1357 1.377 . S
C1356 C1358 1.384 . S
C1357 C1356 1.377 . S
C1357 C1363 1.390 . S
C1358 H1349 0.930 . S
C1358 C1356 1.384 . S
C1358 C1359 1.372 . S
C1359 C1358 1.372 . S
C1359 C1360 1.400 . S
C1359 C1364 1.490 . S
C1360 H1350 0.930 . S
C1360 C1359 1.400 . S
C1360 C1363 1.386 . S
H1361 C1377 0.930 . S
H1362 C1378 0.931 . S
C1363 H1351 0.929 . S
C1363 C1357 1.390 . S
C1363 C1360 1.386 . S
C1364 C1359 1.490 . S
C1364 C1366 1.395 . S
C1364 C1367 1.403 . S
H1365 C1371 0.930 . S
C1366 H1352 0.930 . S
C1366 C1364 1.395 . S
C1366 C1369 1.403 . S
C1367 C1364 1.403 . S
C1367 C1368 1.524 . S
C1367 C1371 1.400 . S
C1368 H1353 0.960 . S
C1368 H1354 0.960 . S
C1368 H1355 0.960 . S
C1368 C1367 1.524 . S
C1369 C1366 1.403 . S
C1369 C1370 1.392 . S
C1369 C1373 1.495 . S
C1370 C1369 1.392 . S
C1370 C1371 1.385 . S
C1370 C1372 1.478 . S
C1371 H1365 0.930 . S
C1371 C1367 1.400 . S
C1371 C1370 1.385 . S
C1372 C1370 1.478 . S
C1372 C1374 1.381 . S
C1372 C1378 1.383 . S
C1373 C1369 1.495 . S
C1373 H1379 0.959 . S
C1373 H1380 0.961 . S
C1373 H1381 0.960 . S
C1374 C1372 1.381 . S
C1374 C1375 1.394 . S
C1374 H1382 0.930 . S
C1375 C1374 1.394 . S
C1375 C1376 1.383 . S
C1375 H1383 0.929 . S
C1376 C1375 1.383 . S
C1376 C1377 1.377 . S
C1377 H1361 0.930 . S
C1377 C1376 1.377 . S
C1377 C1378 1.379 . S
C1378 H1362 0.931 . S
C1378 C1372 1.383 . S
C1378 C1377 1.379 . S
H1379 C1373 0.959 . S
H1380 C1373 0.961 . S
H1381 C1373 0.960 . S
H1382 C1374 0.930 . S
H1383 C1375 0.929 . S
H1384 C1392 0.929 . S
H1385 C1394 0.930 . S
H1386 C1396 0.879 1_554 S
H1387 C1399 0.934 . S
H1388 C1402 0.923 1_556 S
H1389 C1404 0.960 . S
H1390 C1404 0.960 . S
H1391 C1404 0.977 1_545 S
C1392 H1384 0.929 . S
C1392 C1393 1.377 1_565 S
C1392 C1394 1.384 . S
C1393 C1392 1.377 1_545 S
C1393 C1399 1.390 . S
C1394 H1385 0.930 . S
C1394 C1392 1.384 . S
C1394 C1395 1.372 . S
C1395 C1394 1.372 . S
C1395 C1396 1.423 1_565 S
C1395 C1400 1.490 . S
C1396 H1386 0.879 1_556 S
C1396 C1395 1.423 1_545 S
C1396 C1399 1.416 . S
H1397 C1413 0.930 . S
H1398 C1414 0.931 . S
C1399 H1387 0.934 . S
C1399 C1393 1.390 . S
C1399 C1396 1.416 . S
C1400 C1395 1.490 . S
C1400 C1402 1.373 1_556 S
C1400 C1403 1.403 . S
H1401 C1407 0.930 . S
C1402 H1388 0.923 1_554 S
C1402 C1400 1.373 1_554 S
C1402 C1405 1.434 . S
C1403 C1400 1.403 . S
C1403 C1404 1.524 . S
C1403 C1407 1.400 1_556 S
C1404 H1389 0.960 . S
C1404 H1390 0.960 . S
C1404 H1391 0.977 1_565 S
C1404 C1403 1.524 . S
C1405 C1402 1.434 . S
C1405 C1406 1.392 . S
C1405 C1409 1.495 . S
C1406 C1405 1.392 . S
C1406 C1407 1.385 . S
C1406 C1408 1.478 . S
C1407 H1401 0.930 . S
C1407 C1403 1.400 1_554 S
C1407 C1406 1.385 . S
C1408 C1406 1.478 . S
C1408 C1410 1.381 . S
C1408 C1414 1.383 . S
C1409 C1405 1.495 . S
C1409 H1415 0.959 . S
C1409 H1416 0.961 . S
C1409 H1417 0.960 . S
C1410 C1408 1.381 . S
C1410 C1411 1.394 . S
C1410 H1418 0.930 1_554 S
C1411 C1410 1.394 . S
C1411 C1412 1.383 . S
C1411 H1419 0.929 . S
C1412 C1411 1.383 . S
C1412 C1413 1.377 . S
C1413 H1397 0.930 . S
C1413 C1412 1.377 . S
C1413 C1414 1.379 . S
C1414 H1398 0.931 . S
C1414 C1408 1.383 . S
C1414 C1413 1.379 . S
H1415 C1409 0.959 . S
H1416 C1409 0.961 . S
H1417 C1409 0.960 . S
H1418 C1410 0.930 1_556 S
H1419 C1411 0.929 . S
H1420 C1428 0.929 . S
H1421 C1430 0.930 . S
H1422 C1432 0.930 . S
H1423 C1435 0.929 . S
H1424 C1438 0.930 . S
H1425 C1440 0.960 . S
H1426 C1440 0.960 . S
H1427 C1440 0.960 . S
C1428 H1420 0.929 . S
C1428 C1429 1.377 . S
C1428 C1430 1.384 . S
C1429 C1428 1.377 . S
C1429 C1435 1.390 . S
C1430 H1421 0.930 . S
C1430 C1428 1.384 . S
C1430 C1431 1.372 . S
C1431 C1430 1.372 . S
C1431 C1432 1.400 . S
C1431 C1436 1.490 . S
C1432 H1422 0.930 . S
C1432 C1431 1.400 . S
C1432 C1435 1.386 . S
H1433 C1449 0.930 . S
H1434 C1450 0.931 . S
C1435 H1423 0.929 . S
C1435 C1429 1.390 . S
C1435 C1432 1.386 . S
C1436 C1431 1.490 . S
C1436 C1438 1.395 . S
C1436 C1439 1.403 . S
H1437 C1443 0.930 . S
C1438 H1424 0.930 . S
C1438 C1436 1.395 . S
C1438 C1441 1.403 . S
C1439 C1436 1.403 . S
C1439 C1440 1.524 . S
C1439 C1443 1.400 . S
C1440 H1425 0.960 . S
C1440 H1426 0.960 . S
C1440 H1427 0.960 . S
C1440 C1439 1.524 . S
C1441 C1438 1.403 . S
C1441 C1442 1.392 . S
C1441 C1445 1.495 . S
C1442 C1441 1.392 . S
C1442 C1443 1.385 . S
C1442 C1444 1.478 . S
C1443 H1437 0.930 . S
C1443 C1439 1.400 . S
C1443 C1442 1.385 . S
C1444 C1442 1.478 . S
C1444 C1446 1.381 . S
C1444 C1450 1.383 . S
C1445 C1441 1.495 . S
C1445 H1451 0.959 . S
C1445 H1452 0.961 . S
C1445 H1453 0.960 . S
C1446 C1444 1.381 . S
C1446 C1447 1.394 . S
C1446 H1454 0.930 . S
C1447 C1446 1.394 . S
C1447 C1448 1.383 . S
C1447 H1455 0.929 . S
C1448 C1447 1.383 . S
C1448 C1449 1.377 . S
C1449 H1433 0.930 . S
C1449 C1448 1.377 . S
C1449 C1450 1.379 . S
C1450 H1434 0.931 . S
C1450 C1444 1.383 . S
C1450 C1449 1.379 . S
H1451 C1445 0.959 . S
H1452 C1445 0.961 . S
H1453 C1445 0.960 . S
H1454 C1446 0.930 . S
H1455 C1447 0.929 . S
H1456 C1464 0.947 . S
H1457 C1466 0.930 . S
H1458 C1468 0.930 . S
H1459 C1471 0.929 . S
H1460 C1474 0.930 . S
H1461 C1476 0.960 . S
H1462 C1476 0.960 . S
H1463 C1476 0.960 . S
C1464 H1456 0.947 . S
C1464 C1465 1.371 1_565 S
C1464 C1466 1.373 1_565 S
C1465 C1464 1.371 1_545 S
C1465 C1471 1.390 . S
C1466 H1457 0.930 . S
C1466 C1464 1.373 1_545 S
C1466 C1467 1.372 . S
C1467 C1466 1.372 . S
C1467 C1468 1.400 . S
C1467 C1472 1.490 . S
C1468 H1458 0.930 . S
C1468 C1467 1.400 . S
C1468 C1471 1.386 . S
H1469 C1485 0.930 . S
H1470 C1486 0.931 . S
C1471 H1459 0.929 . S
C1471 C1465 1.390 . S
C1471 C1468 1.386 . S
C1472 C1467 1.490 . S
C1472 C1474 1.395 . S
C1472 C1475 1.403 . S
H1473 C1479 0.930 . S
C1474 H1460 0.930 . S
C1474 C1472 1.395 . S
C1474 C1477 1.403 . S
C1475 C1472 1.403 . S
C1475 C1476 1.524 . S
C1475 C1479 1.400 . S
C1476 H1461 0.960 . S
C1476 H1462 0.960 . S
C1476 H1463 0.960 . S
C1476 C1475 1.524 . S
C1477 C1474 1.403 . S
C1477 C1478 1.392 . S
C1477 C1481 1.495 . S
C1478 C1477 1.392 . S
C1478 C1479 1.385 . S
C1478 C1480 1.478 . S
C1479 H1473 0.930 . S
C1479 C1475 1.400 . S
C1479 C1478 1.385 . S
C1480 C1478 1.478 . S
C1480 C1482 1.381 . S
C1480 C1486 1.383 . S
C1481 C1477 1.495 . S
C1481 H1487 0.959 . S
C1481 H1488 0.961 . S
C1481 H1489 0.960 . S
C1482 C1480 1.381 . S
C1482 C1483 1.394 . S
C1482 H1490 0.930 . S
C1483 C1482 1.394 . S
C1483 C1484 1.383 . S
C1483 H1491 0.929 . S
C1484 C1483 1.383 . S
C1484 C1485 1.377 . S
C1485 H1469 0.930 . S
C1485 C1484 1.377 . S
C1485 C1486 1.379 . S
C1486 H1470 0.931 . S
C1486 C1480 1.383 . S
C1486 C1485 1.379 . S
H1487 C1481 0.959 . S
H1488 C1481 0.961 . S
H1489 C1481 0.960 . S
H1490 C1482 0.930 . S
H1491 C1483 0.929 . S
H1492 C1500 0.929 . S
H1493 C1502 0.930 . S
H1494 C1504 0.930 . S
H1495 C1507 0.929 . S
H1496 C1510 0.930 . S
H1497 C1512 0.960 . S
H1498 C1512 0.960 . S
H1499 C1512 0.960 . S
C1500 H1492 0.929 . S
C1500 C1501 1.377 . S
C1500 C1502 1.384 . S
C1501 C1500 1.377 . S
C1501 C1507 1.390 . S
C1502 H1493 0.930 . S
C1502 C1500 1.384 . S
C1502 C1503 1.372 . S
C1503 C1502 1.372 . S
C1503 C1504 1.400 . S
C1503 C1508 1.490 . S
C1504 H1494 0.930 . S
C1504 C1503 1.400 . S
C1504 C1507 1.386 . S
H1505 C1521 0.930 . S
H1506 C1522 0.931 . S
C1507 H1495 0.929 . S
C1507 C1501 1.390 . S
C1507 C1504 1.386 . S
C1508 C1503 1.490 . S
C1508 C1510 1.395 . S
C1508 C1511 1.403 . S
H1509 C1515 0.930 . S
C1510 H1496 0.930 . S
C1510 C1508 1.395 . S
C1510 C1513 1.403 . S
C1511 C1508 1.403 . S
C1511 C1512 1.524 . S
C1511 C1515 1.400 . S
C1512 H1497 0.960 . S
C1512 H1498 0.960 . S
C1512 H1499 0.960 . S
C1512 C1511 1.524 . S
C1513 C1510 1.403 . S
C1513 C1514 1.392 . S
C1513 C1517 1.495 . S
C1514 C1513 1.392 . S
C1514 C1515 1.385 . S
C1514 C1516 1.478 . S
C1515 H1509 0.930 . S
C1515 C1511 1.400 . S
C1515 C1514 1.385 . S
C1516 C1514 1.478 . S
C1516 C1518 1.381 . S
C1516 C1522 1.383 . S
C1517 C1513 1.495 . S
C1517 H1523 0.959 . S
C1517 H1524 0.961 . S
C1517 H1525 0.960 . S
C1518 C1516 1.381 . S
C1518 C1519 1.394 . S
C1518 H1526 0.930 . S
C1519 C1518 1.394 . S
C1519 C1520 1.383 . S
C1519 H1527 0.929 . S
C1520 C1519 1.383 . S
C1520 C1521 1.377 . S
C1521 H1505 0.930 . S
C1521 C1520 1.377 . S
C1521 C1522 1.379 . S
C1522 H1506 0.931 . S
C1522 C1516 1.383 . S
C1522 C1521 1.379 . S
H1523 C1517 0.959 . S
H1524 C1517 0.961 . S
H1525 C1517 0.960 . S
H1526 C1518 0.930 . S
H1527 C1519 0.929 . S
H1528 C1536 0.929 . S
H1529 C1538 0.930 . S
H1530 C1540 0.930 . S
H1531 C1543 0.929 1_565 S
H1532 C1546 0.930 . S
H1533 C1548 0.960 . S
H1534 C1548 0.960 . S
H1535 C1548 0.960 . S
C1536 H1528 0.929 . S
C1536 C1537 1.377 . S
C1536 C1538 1.384 . S
C1537 C1536 1.377 . S
C1537 C1543 1.390 . S
C1538 H1529 0.930 . S
C1538 C1536 1.384 . S
C1538 C1539 1.372 . S
C1539 C1538 1.372 . S
C1539 C1540 1.400 . S
C1539 C1544 1.490 . S
C1540 H1530 0.930 . S
C1540 C1539 1.400 . S
C1540 C1543 1.386 . S
H1541 C1557 0.930 . S
H1542 C1558 0.931 . S
C1543 H1531 0.929 1_545 S
C1543 C1537 1.390 . S
C1543 C1540 1.386 . S
C1544 C1539 1.490 . S
C1544 C1546 1.395 . S
C1544 C1547 1.403 . S
H1545 C1551 0.930 . S
C1546 H1532 0.930 . S
C1546 C1544 1.395 . S
C1546 C1549 1.403 . S
C1547 C1544 1.403 . S
C1547 C1548 1.524 . S
C1547 C1551 1.400 . S
C1548 H1533 0.960 . S
C1548 H1534 0.960 . S
C1548 H1535 0.960 . S
C1548 C1547 1.524 . S
C1549 C1546 1.403 . S
C1549 C1550 1.392 . S
C1549 C1553 1.495 . S
C1550 C1549 1.392 . S
C1550 C1551 1.385 . S
C1550 C1552 1.478 . S
C1551 H1545 0.930 . S
C1551 C1547 1.400 . S
C1551 C1550 1.385 . S
C1552 C1550 1.478 . S
C1552 C1554 1.381 . S
C1552 C1558 1.383 . S
C1553 C1549 1.495 . S
C1553 H1559 0.959 . S
C1553 H1560 0.961 . S
C1553 H1561 0.960 . S
C1554 C1552 1.381 . S
C1554 C1555 1.394 . S
C1554 H1562 0.930 . S
C1555 C1554 1.394 . S
C1555 C1556 1.383 . S
C1555 H1563 0.929 . S
C1556 C1555 1.383 . S
C1556 C1557 1.377 . S
C1557 H1541 0.930 . S
C1557 C1556 1.377 . S
C1557 C1558 1.379 . S
C1558 H1542 0.931 . S
C1558 C1552 1.383 . S
C1558 C1557 1.379 . S
H1559 C1553 0.959 . S
H1560 C1553 0.961 . S
H1561 C1553 0.960 . S
H1562 C1554 0.930 . S
H1563 C1555 0.929 . S
H1564 C1572 0.929 . S
H1565 C1574 0.930 . S
H1566 C1576 0.930 . S
H1567 C1579 0.929 . S
H1568 C1582 0.930 . S
H1569 C1584 0.960 . S
H1570 C1584 0.960 . S
H1571 C1584 0.960 . S
C1572 H1564 0.929 . S
C1572 C1573 1.377 . S
C1572 C1574 1.384 . S
C1573 C1572 1.377 . S
C1573 C1579 1.390 . S
C1574 H1565 0.930 . S
C1574 C1572 1.384 . S
C1574 C1575 1.372 . S
C1575 C1574 1.372 . S
C1575 C1576 1.400 . S
C1575 C1580 1.490 . S
C1576 H1566 0.930 . S
C1576 C1575 1.400 . S
C1576 C1579 1.386 . S
H1577 C1593 0.930 . S
H1578 C1594 0.931 . S
C1579 H1567 0.929 . S
C1579 C1573 1.390 . S
C1579 C1576 1.386 . S
C1580 C1575 1.490 . S
C1580 C1582 1.395 . S
C1580 C1583 1.403 . S
H1581 C1587 0.930 . S
C1582 H1568 0.930 . S
C1582 C1580 1.395 . S
C1582 C1585 1.403 . S
C1583 C1580 1.403 . S
C1583 C1584 1.524 . S
C1583 C1587 1.400 . S
C1584 H1569 0.960 . S
C1584 H1570 0.960 . S
C1584 H1571 0.960 . S
C1584 C1583 1.524 . S
C1585 C1582 1.403 . S
C1585 C1586 1.392 . S
C1585 C1589 1.495 . S
C1586 C1585 1.392 . S
C1586 C1587 1.385 . S
C1586 C1588 1.478 . S
C1587 H1581 0.930 . S
C1587 C1583 1.400 . S
C1587 C1586 1.385 . S
C1588 C1586 1.478 . S
C1588 C1590 1.381 . S
C1588 C1594 1.383 . S
C1589 C1585 1.495 . S
C1589 H1595 0.959 . S
C1589 H1596 0.961 . S
C1589 H1597 0.960 . S
C1590 C1588 1.381 . S
C1590 C1591 1.394 . S
C1590 H1598 0.930 . S
C1591 C1590 1.394 . S
C1591 C1592 1.383 . S
C1591 H1599 0.929 . S
C1592 C1591 1.383 . S
C1592 C1593 1.377 . S
C1593 H1577 0.930 . S
C1593 C1592 1.377 . S
C1593 C1594 1.379 . S
C1594 H1578 0.931 . S
C1594 C1588 1.383 . S
C1594 C1593 1.379 . S
H1595 C1589 0.959 . S
H1596 C1589 0.961 . S
H1597 C1589 0.960 . S
H1598 C1590 0.930 . S
H1599 C1591 0.929 . S
H1600 C1608 0.929 . S
H1601 C1610 0.930 . S
H1602 C1612 0.930 . S
H1603 C1615 0.929 . S
H1604 C1618 0.930 . S
H1605 C1620 0.960 . S
H1606 C1620 0.960 . S
H1607 C1620 0.960 . S
C1608 H1600 0.929 . S
C1608 C1609 1.377 . S
C1608 C1610 1.384 . S
C1609 C1608 1.377 . S
C1609 C1615 1.390 . S
C1610 H1601 0.930 . S
C1610 C1608 1.384 . S
C1610 C1611 1.372 . S
C1611 C1610 1.372 . S
C1611 C1612 1.400 . S
C1611 C1616 1.490 . S
C1612 H1602 0.930 . S
C1612 C1611 1.400 . S
C1612 C1615 1.386 . S
H1613 C1629 0.930 . S
H1614 C1630 0.931 . S
C1615 H1603 0.929 . S
C1615 C1609 1.390 . S
C1615 C1612 1.386 . S
C1616 C1611 1.490 . S
C1616 C1618 1.395 . S
C1616 C1619 1.403 . S
H1617 C1623 0.930 . S
C1618 H1604 0.930 . S
C1618 C1616 1.395 . S
C1618 C1621 1.403 . S
C1619 C1616 1.403 . S
C1619 C1620 1.524 . S
C1619 C1623 1.400 . S
C1620 H1605 0.960 . S
C1620 H1606 0.960 . S
C1620 H1607 0.960 . S
C1620 C1619 1.524 . S
C1621 C1618 1.403 . S
C1621 C1622 1.392 . S
C1621 C1625 1.495 . S
C1622 C1621 1.392 . S
C1622 C1623 1.385 . S
C1622 C1624 1.478 . S
C1623 H1617 0.930 . S
C1623 C1619 1.400 . S
C1623 C1622 1.385 . S
C1624 C1622 1.478 . S
C1624 C1626 1.381 . S
C1624 C1630 1.383 . S
C1625 C1621 1.495 . S
C1625 H1631 0.959 . S
C1625 H1632 0.961 . S
C1625 H1633 0.960 . S
C1626 C1624 1.381 . S
C1626 C1627 1.394 . S
C1626 H1634 0.930 . S
C1627 C1626 1.394 . S
C1627 C1628 1.383 . S
C1627 H1635 0.929 . S
C1628 C1627 1.383 . S
C1628 C1629 1.377 . S
C1629 H1613 0.930 . S
C1629 C1628 1.377 . S
C1629 C1630 1.379 . S
C1630 H1614 0.931 . S
C1630 C1624 1.383 . S
C1630 C1629 1.379 . S
H1631 C1625 0.959 . S
H1632 C1625 0.961 . S
H1633 C1625 0.960 . S
H1634 C1626 0.930 . S
H1635 C1627 0.929 . S
H1636 C1644 0.929 . S
H1637 C1646 0.930 . S
H1638 C1648 0.930 . S
H1639 C1651 0.929 . S
H1640 C1654 0.930 . S
H1641 C1656 0.960 . S
H1642 C1656 0.960 . S
H1643 C1656 0.960 . S
C1644 H1636 0.929 . S
C1644 C1645 1.377 . S
C1644 C1646 1.384 . S
C1645 C1644 1.377 . S
C1645 C1651 1.390 . S
C1646 H1637 0.930 . S
C1646 C1644 1.384 . S
C1646 C1647 1.372 . S
C1647 C1646 1.372 . S
C1647 C1648 1.400 . S
C1647 C1652 1.490 . S
C1648 H1638 0.930 . S
C1648 C1647 1.400 . S
C1648 C1651 1.386 . S
H1649 C1665 0.930 . S
H1650 C1666 0.931 . S
C1651 H1639 0.929 . S
C1651 C1645 1.390 . S
C1651 C1648 1.386 . S
C1652 C1647 1.490 . S
C1652 C1654 1.395 . S
C1652 C1655 1.403 . S
H1653 C1659 0.930 . S
C1654 H1640 0.930 . S
C1654 C1652 1.395 . S
C1654 C1657 1.403 . S
C1655 C1652 1.403 . S
C1655 C1656 1.524 . S
C1655 C1659 1.400 . S
C1656 H1641 0.960 . S
C1656 H1642 0.960 . S
C1656 H1643 0.960 . S
C1656 C1655 1.524 . S
C1657 C1654 1.403 . S
C1657 C1658 1.392 . S
C1657 C1661 1.495 1_545 S
C1658 C1657 1.392 . S
C1658 C1659 1.385 . S
C1658 C1660 1.478 . S
C1659 H1653 0.930 . S
C1659 C1655 1.400 . S
C1659 C1658 1.385 . S
C1660 C1658 1.478 . S
C1660 C1662 1.381 . S
C1660 C1666 1.383 . S
C1661 C1657 1.495 1_565 S
C1661 H1667 0.959 . S
C1661 H1668 0.961 . S
C1661 H1669 0.960 . S
C1662 C1660 1.381 . S
C1662 C1663 1.394 . S
C1662 H1670 0.930 . S
C1663 C1662 1.394 . S
C1663 C1664 1.383 . S
C1663 H1671 0.929 . S
C1664 C1663 1.383 . S
C1664 C1665 1.377 . S
C1665 H1649 0.930 . S
C1665 C1664 1.377 . S
C1665 C1666 1.379 . S
C1666 H1650 0.931 . S
C1666 C1660 1.383 . S
C1666 C1665 1.379 . S
H1667 C1661 0.959 . S
H1668 C1661 0.961 . S
H1669 C1661 0.960 . S
H1670 C1662 0.930 . S
H1671 C1663 0.929 . S
H1672 C1680 0.929 . S
H1673 C1682 0.930 . S
H1674 C1684 0.930 . S
H1675 C1687 0.929 . S
H1676 C1690 0.930 . S
H1677 C1692 0.960 . S
H1678 C1692 0.960 . S
H1679 C1692 0.960 . S
C1680 H1672 0.929 . S
C1680 C1681 1.377 . S
C1680 C1682 1.384 . S
C1681 C1680 1.377 . S
C1681 C1687 1.390 . S
C1682 H1673 0.930 . S
C1682 C1680 1.384 . S
C1682 C1683 1.372 . S
C1683 C1682 1.372 . S
C1683 C1684 1.400 . S
C1683 C1688 1.490 . S
C1684 H1674 0.930 . S
C1684 C1683 1.400 . S
C1684 C1687 1.386 . S
H1685 C1701 0.930 . S
H1686 C1702 0.931 . S
C1687 H1675 0.929 . S
C1687 C1681 1.390 . S
C1687 C1684 1.386 . S
C1688 C1683 1.490 . S
C1688 C1690 1.395 . S
C1688 C1691 1.403 . S
H1689 C1695 0.930 . S
C1690 H1676 0.930 . S
C1690 C1688 1.395 . S
C1690 C1693 1.403 . S
C1691 C1688 1.403 . S
C1691 C1692 1.524 . S
C1691 C1695 1.400 . S
C1692 H1677 0.960 . S
C1692 H1678 0.960 . S
C1692 H1679 0.960 . S
C1692 C1691 1.524 . S
C1693 C1690 1.403 . S
C1693 C1694 1.392 . S
C1693 C1697 1.495 . S
C1694 C1693 1.392 . S
C1694 C1695 1.385 . S
C1694 C1696 1.478 . S
C1695 H1689 0.930 . S
C1695 C1691 1.400 . S
C1695 C1694 1.385 . S
C1696 C1694 1.478 . S
C1696 C1698 1.381 . S
C1696 C1702 1.383 . S
C1697 C1693 1.495 . S
C1697 H1703 0.959 . S
C1697 H1704 0.961 . S
C1697 H1705 0.960 . S
C1698 C1696 1.381 . S
C1698 C1699 1.394 . S
C1698 H1706 0.930 . S
C1699 C1698 1.394 . S
C1699 C1700 1.383 . S
C1699 H1707 0.929 . S
C1700 C1699 1.383 . S
C1700 C1701 1.377 . S
C1701 H1685 0.930 . S
C1701 C1700 1.377 . S
C1701 C1702 1.379 . S
C1702 H1686 0.931 . S
C1702 C1696 1.383 . S
C1702 C1701 1.379 . S
H1703 C1697 0.959 . S
H1704 C1697 0.961 . S
H1705 C1697 0.960 . S
H1706 C1698 0.930 . S
H1707 C1699 0.929 . S
H1708 C1716 0.929 . S
H1709 C1718 0.930 . S
H1710 C1720 0.930 . S
H1711 C1723 0.929 . S
H1712 C1726 0.930 . S
H1713 C1728 0.960 . S
H1714 C1728 0.960 . S
H1715 C1728 0.960 . S
C1716 H1708 0.929 . S
C1716 C1717 1.377 . S
C1716 C1718 1.384 . S
C1717 C1716 1.377 . S
C1717 C1723 1.390 . S
C1718 H1709 0.930 . S
C1718 C1716 1.384 . S
C1718 C1719 1.372 . S
C1719 C1718 1.372 . S
C1719 C1720 1.400 . S
C1719 C1724 1.490 . S
C1720 H1710 0.930 . S
C1720 C1719 1.400 . S
C1720 C1723 1.386 . S
H1721 C1737 0.930 . S
H1722 C1738 0.931 . S
C1723 H1711 0.929 . S
C1723 C1717 1.390 . S
C1723 C1720 1.386 . S
C1724 C1719 1.490 . S
C1724 C1726 1.395 . S
C1724 C1727 1.403 . S
H1725 C1731 0.930 . S
C1726 H1712 0.930 . S
C1726 C1724 1.395 . S
C1726 C1729 1.403 . S
C1727 C1724 1.403 . S
C1727 C1728 1.524 . S
C1727 C1731 1.400 . S
C1728 H1713 0.960 . S
C1728 H1714 0.960 . S
C1728 H1715 0.960 . S
C1728 C1727 1.524 . S
C1729 C1726 1.403 . S
C1729 C1730 1.392 . S
C1729 C1733 1.495 . S
C1730 C1729 1.392 . S
C1730 C1731 1.385 . S
C1730 C1732 1.478 . S
C1731 H1725 0.930 . S
C1731 C1727 1.400 . S
C1731 C1730 1.385 . S
C1732 C1730 1.478 . S
C1732 C1734 1.381 . S
C1732 C1738 1.383 . S
C1733 C1729 1.495 . S
C1733 H1739 0.959 . S
C1733 H1740 0.961 . S
C1733 H1741 0.960 . S
C1734 C1732 1.381 . S
C1734 C1735 1.394 . S
C1734 H1742 0.930 . S
C1735 C1734 1.394 . S
C1735 C1736 1.383 . S
C1735 H1743 0.929 . S
C1736 C1735 1.383 . S
C1736 C1737 1.377 . S
C1737 H1721 0.930 . S
C1737 C1736 1.377 . S
C1737 C1738 1.379 . S
C1738 H1722 0.931 . S
C1738 C1732 1.383 . S
C1738 C1737 1.379 . S
H1739 C1733 0.959 . S
H1740 C1733 0.961 . S
H1741 C1733 0.960 . S
H1742 C1734 0.930 . S
H1743 C1735 0.929 . S
H1744 C1752 0.929 . S
H1745 C1754 0.930 . S
H1746 C1756 0.930 . S
H1747 C1759 0.929 . S
H1748 C1762 0.930 . S
H1749 C1764 0.960 . S
H1750 C1764 0.960 . S
H1751 C1764 0.960 . S
C1752 H1744 0.929 . S
C1752 C1753 1.377 . S
C1752 C1754 1.384 . S
C1753 C1752 1.377 . S
C1753 C1759 1.390 . S
C1754 H1745 0.930 . S
C1754 C1752 1.384 . S
C1754 C1755 1.372 . S
C1755 C1754 1.372 . S
C1755 C1756 1.400 . S
C1755 C1760 1.490 . S
C1756 H1746 0.930 . S
C1756 C1755 1.400 . S
C1756 C1759 1.386 . S
H1757 C1773 0.930 . S
H1758 C1774 0.931 . S
C1759 H1747 0.929 . S
C1759 C1753 1.390 . S
C1759 C1756 1.386 . S
C1760 C1755 1.490 . S
C1760 C1762 1.395 . S
C1760 C1763 1.403 . S
H1761 C1767 0.930 . S
C1762 H1748 0.930 . S
C1762 C1760 1.395 . S
C1762 C1765 1.403 . S
C1763 C1760 1.403 . S
C1763 C1764 1.524 . S
C1763 C1767 1.400 . S
C1764 H1749 0.960 . S
C1764 H1750 0.960 . S
C1764 H1751 0.960 . S
C1764 C1763 1.524 . S
C1765 C1762 1.403 . S
C1765 C1766 1.392 . S
C1765 C1769 1.495 . S
C1766 C1765 1.392 . S
C1766 C1767 1.385 . S
C1766 C1768 1.478 . S
C1767 H1761 0.930 . S
C1767 C1763 1.400 . S
C1767 C1766 1.385 . S
C1768 C1766 1.478 . S
C1768 C1770 1.381 . S
C1768 C1774 1.383 . S
C1769 C1765 1.495 . S
C1769 H1775 0.959 . S
C1769 H1776 0.961 . S
C1769 H1777 0.960 . S
C1770 C1768 1.381 . S
C1770 C1771 1.394 . S
C1770 H1778 0.930 . S
C1771 C1770 1.394 . S
C1771 C1772 1.383 . S
C1771 H1779 0.929 . S
C1772 C1771 1.383 . S
C1772 C1773 1.377 . S
C1773 H1757 0.930 . S
C1773 C1772 1.377 . S
C1773 C1774 1.379 . S
C1774 H1758 0.931 . S
C1774 C1768 1.383 . S
C1774 C1773 1.379 . S
H1775 C1769 0.959 . S
H1776 C1769 0.961 . S
H1777 C1769 0.960 . S
H1778 C1770 0.930 . S
H1779 C1771 0.929 . S
H1780 C1788 0.929 . S
H1781 C1790 0.930 . S
H1782 C1792 0.930 1_655 S
H1783 C1795 0.929 . S
H1784 C1798 0.930 . S
H1785 C1800 0.960 . S
H1786 C1800 0.960 . S
H1787 C1800 0.960 . S
C1788 H1780 0.929 . S
C1788 C1789 1.377 . S
C1788 C1790 1.384 . S
C1789 C1788 1.377 . S
C1789 C1795 1.390 . S
C1790 H1781 0.930 . S
C1790 C1788 1.384 . S
C1790 C1791 1.372 . S
C1791 C1790 1.372 . S
C1791 C1792 1.400 . S
C1791 C1796 1.490 . S
C1792 H1782 0.930 1_455 S
C1792 C1791 1.400 . S
C1792 C1795 1.386 . S
H1793 C1809 0.930 . S
H1794 C1810 0.931 . S
C1795 H1783 0.929 . S
C1795 C1789 1.390 . S
C1795 C1792 1.386 . S
C1796 C1791 1.490 . S
C1796 C1798 1.395 . S
C1796 C1799 1.403 . S
H1797 C1803 0.930 1_665 S
C1798 H1784 0.930 . S
C1798 C1796 1.395 . S
C1798 C1801 1.403 . S
C1799 C1796 1.403 . S
C1799 C1800 1.524 1_545 S
C1799 C1803 1.400 . S
C1800 H1785 0.960 . S
C1800 H1786 0.960 . S
C1800 H1787 0.960 . S
C1800 C1799 1.524 1_565 S
C1801 C1798 1.403 . S
C1801 C1802 1.395 . S
C1801 C1805 1.495 . S
C1802 C1801 1.395 . S
C1802 C1803 1.387 . S
C1802 C1804 1.473 1_455 S
C1803 H1797 0.930 1_445 S
C1803 C1799 1.400 . S
C1803 C1802 1.387 . S
C1804 C1802 1.473 1_655 S
C1804 C1806 1.381 1_655 S
C1804 C1810 1.383 . S
C1805 C1801 1.495 . S
C1805 H1811 0.959 . S
C1805 H1812 0.961 1_455 S
C1805 H1813 0.960 . S
C1806 C1804 1.381 1_455 S
C1806 C1807 1.394 1_455 S
C1806 H1814 0.930 . S
C1807 C1806 1.394 1_655 S
C1807 C1808 1.383 . S
C1807 H1815 0.929 1_655 S
C1808 C1807 1.383 . S
C1808 C1809 1.377 . S
C1809 H1793 0.930 . S
C1809 C1808 1.377 . S
C1809 C1810 1.379 . S
C1810 H1794 0.931 . S
C1810 C1804 1.383 . S
C1810 C1809 1.379 . S
H1811 C1805 0.959 . S
H1812 C1805 0.961 1_655 S
H1813 C1805 0.960 . S
H1814 C1806 0.930 . S
H1815 C1807 0.929 1_455 S
H1816 C1824 0.929 . S
H1817 C1826 0.930 . S
H1818 C1828 0.930 . S
H1819 C1831 0.929 . S
H1820 C1834 0.930 . S
H1821 C1836 0.960 . S
H1822 C1836 0.960 . S
H1823 C1836 0.960 . S
C1824 H1816 0.929 . S
C1824 C1825 1.377 . S
C1824 C1826 1.384 . S
C1825 C1824 1.377 . S
C1825 C1831 1.390 . S
C1826 H1817 0.930 . S
C1826 C1824 1.384 . S
C1826 C1827 1.372 . S
C1827 C1826 1.372 . S
C1827 C1828 1.400 . S
C1827 C1832 1.490 . S
C1828 H1818 0.930 . S
C1828 C1827 1.400 . S
C1828 C1831 1.386 . S
H1829 C1845 0.930 . S
H1830 C1846 0.931 . S
C1831 H1819 0.929 . S
C1831 C1825 1.390 . S
C1831 C1828 1.386 . S
C1832 C1827 1.490 . S
C1832 C1834 1.395 . S
C1832 C1835 1.403 . S
H1833 C1839 0.930 . S
C1834 H1820 0.930 . S
C1834 C1832 1.395 . S
C1834 C1837 1.403 . S
C1835 C1832 1.403 . S
C1835 C1836 1.524 . S
C1835 C1839 1.400 . S
C1836 H1821 0.960 . S
C1836 H1822 0.960 . S
C1836 H1823 0.960 . S
C1836 C1835 1.524 . S
C1837 C1834 1.403 . S
C1837 C1838 1.392 . S
C1837 C1841 1.495 . S
C1838 C1837 1.392 . S
C1838 C1839 1.385 . S
C1838 C1840 1.478 . S
C1839 H1833 0.930 . S
C1839 C1835 1.400 . S
C1839 C1838 1.385 . S
C1840 C1838 1.478 . S
C1840 C1842 1.381 . S
C1840 C1846 1.383 . S
C1841 C1837 1.495 . S
C1841 H1847 0.959 . S
C1841 H1848 0.961 . S
C1841 H1849 0.960 . S
C1842 C1840 1.381 . S
C1842 C1843 1.394 . S
C1842 H1850 0.930 . S
C1843 C1842 1.394 . S
C1843 C1844 1.383 . S
C1843 H1851 0.929 . S
C1844 C1843 1.383 . S
C1844 C1845 1.377 . S
C1845 H1829 0.930 . S
C1845 C1844 1.377 . S
C1845 C1846 1.379 . S
C1846 H1830 0.931 . S
C1846 C1840 1.383 . S
C1846 C1845 1.379 . S
H1847 C1841 0.959 . S
H1848 C1841 0.961 . S
H1849 C1841 0.960 . S
H1850 C1842 0.930 . S
H1851 C1843 0.929 . S
H1852 C1860 0.929 . S
H1853 C1862 0.930 . S
H1854 C1864 0.930 . S
H1855 C1867 0.929 . S
H1856 C1870 0.930 . S
H1857 C1872 0.960 . S
H1858 C1872 0.960 . S
H1859 C1872 0.960 . S
C1860 H1852 0.929 . S
C1860 C1861 1.377 . S
C1860 C1862 1.384 . S
C1861 C1860 1.377 . S
C1861 C1867 1.390 . S
C1862 H1853 0.930 . S
C1862 C1860 1.384 . S
C1862 C1863 1.372 . S
C1863 C1862 1.372 . S
C1863 C1864 1.400 . S
C1863 C1868 1.490 . S
C1864 H1854 0.930 . S
C1864 C1863 1.400 . S
C1864 C1867 1.386 . S
H1865 C1881 0.930 . S
H1866 C1882 0.931 . S
C1867 H1855 0.929 . S
C1867 C1861 1.390 . S
C1867 C1864 1.386 . S
C1868 C1863 1.490 . S
C1868 C1870 1.395 . S
C1868 C1871 1.403 . S
H1869 C1875 0.930 . S
C1870 H1856 0.930 . S
C1870 C1868 1.395 . S
C1870 C1873 1.403 . S
C1871 C1868 1.403 . S
C1871 C1872 1.524 . S
C1871 C1875 1.400 . S
C1872 H1857 0.960 . S
C1872 H1858 0.960 . S
C1872 H1859 0.960 . S
C1872 C1871 1.524 . S
C1873 C1870 1.403 . S
C1873 C1874 1.392 . S
C1873 C1877 1.495 . S
C1874 C1873 1.392 . S
C1874 C1875 1.385 . S
C1874 C1876 1.478 . S
C1875 H1869 0.930 . S
C1875 C1871 1.400 . S
C1875 C1874 1.385 . S
C1876 C1874 1.478 . S
C1876 C1878 1.381 . S
C1876 C1882 1.383 . S
C1877 C1873 1.495 . S
C1877 H1883 0.959 . S
C1877 H1884 0.961 . S
C1877 H1885 0.960 . S
C1878 C1876 1.381 . S
C1878 C1879 1.394 . S
C1878 H1886 0.930 . S
C1879 C1878 1.394 . S
C1879 C1880 1.383 . S
C1879 H1887 0.929 . S
C1880 C1879 1.383 . S
C1880 C1881 1.377 . S
C1881 H1865 0.930 . S
C1881 C1880 1.377 . S
C1881 C1882 1.379 . S
C1882 H1866 0.931 . S
C1882 C1876 1.383 . S
C1882 C1881 1.379 . S
H1883 C1877 0.959 . S
H1884 C1877 0.961 . S
H1885 C1877 0.960 . S
H1886 C1878 0.930 . S
H1887 C1879 0.929 . S
H1888 C1896 0.929 . S
H1889 C1898 0.930 . S
H1890 C1900 0.930 . S
H1891 C1903 0.929 . S
H1892 C1906 0.930 . S
H1893 C1908 0.960 . S
H1894 C1908 0.960 . S
H1895 C1908 0.960 . S
C1896 H1888 0.929 . S
C1896 C1897 1.377 . S
C1896 C1898 1.384 . S
C1897 C1896 1.377 . S
C1897 C1903 1.390 . S
C1898 H1889 0.930 . S
C1898 C1896 1.384 . S
C1898 C1899 1.372 . S
C1899 C1898 1.372 . S
C1899 C1900 1.400 . S
C1899 C1904 1.490 . S
C1900 H1890 0.930 . S
C1900 C1899 1.400 . S
C1900 C1903 1.386 . S
H1901 C1917 0.930 . S
H1902 C1918 0.931 . S
C1903 H1891 0.929 . S
C1903 C1897 1.390 . S
C1903 C1900 1.386 . S
C1904 C1899 1.490 . S
C1904 C1906 1.395 . S
C1904 C1907 1.403 . S
H1905 C1911 0.930 . S
C1906 H1892 0.930 . S
C1906 C1904 1.395 . S
C1906 C1909 1.403 . S
C1907 C1904 1.403 . S
C1907 C1908 1.524 . S
C1907 C1911 1.400 . S
C1908 H1893 0.960 . S
C1908 H1894 0.960 . S
C1908 H1895 0.960 . S
C1908 C1907 1.524 . S
C1909 C1906 1.403 . S
C1909 C1910 1.392 . S
C1909 C1913 1.495 . S
C1910 C1909 1.392 . S
C1910 C1911 1.385 . S
C1910 C1912 1.478 . S
C1911 H1905 0.930 . S
C1911 C1907 1.400 . S
C1911 C1910 1.385 . S
C1912 C1910 1.478 . S
C1912 C1914 1.381 . S
C1912 C1918 1.383 . S
C1913 C1909 1.495 . S
C1913 H1919 0.959 . S
C1913 H1920 0.961 . S
C1913 H1921 0.960 . S
C1914 C1912 1.381 . S
C1914 C1915 1.394 . S
C1914 H1922 0.930 . S
C1915 C1914 1.394 . S
C1915 C1916 1.383 . S
C1915 H1923 0.929 . S
C1916 C1915 1.383 . S
C1916 C1917 1.377 . S
C1917 H1901 0.930 . S
C1917 C1916 1.377 . S
C1917 C1918 1.379 . S
C1918 H1902 0.931 . S
C1918 C1912 1.383 . S
C1918 C1917 1.379 . S
H1919 C1913 0.959 . S
H1920 C1913 0.961 . S
H1921 C1913 0.960 . S
H1922 C1914 0.930 . S
H1923 C1915 0.929 . S
H1924 C1932 0.927 1_655 S
H1925 C1934 0.930 . S
H1926 C1936 0.930 . S
H1927 C1939 0.929 . S
H1928 C1942 0.930 . S
H1929 C1944 0.960 . S
H1930 C1944 0.960 . S
H1931 C1944 0.960 . S
C1932 H1924 0.927 1_455 S
C1932 C1933 1.377 . S
C1932 C1934 1.384 . S
C1933 C1932 1.377 . S
C1933 C1939 1.390 . S
C1934 H1925 0.930 . S
C1934 C1932 1.384 . S
C1934 C1935 1.372 . S
C1935 C1934 1.372 . S
C1935 C1936 1.400 . S
C1935 C1940 1.490 . S
C1936 H1926 0.930 . S
C1936 C1935 1.400 . S
C1936 C1939 1.386 . S
H1937 C1953 0.930 . S
H1938 C1954 0.931 . S
C1939 H1927 0.929 . S
C1939 C1933 1.390 . S
C1939 C1936 1.386 . S
C1940 C1935 1.490 . S
C1940 C1942 1.395 . S
C1940 C1943 1.403 1_455 S
H1941 C1947 0.930 . S
C1942 H1928 0.930 . S
C1942 C1940 1.395 . S
C1942 C1945 1.403 . S
C1943 C1940 1.403 1_655 S
C1943 C1944 1.524 . S
C1943 C1947 1.400 . S
C1944 H1929 0.960 . S
C1944 H1930 0.960 . S
C1944 H1931 0.960 . S
C1944 C1943 1.524 . S
C1945 C1942 1.403 . S
C1945 C1946 1.392 . S
C1945 C1949 1.495 . S
C1946 C1945 1.392 . S
C1946 C1947 1.385 1_455 S
C1946 C1948 1.478 . S
C1947 H1941 0.930 . S
C1947 C1943 1.400 . S
C1947 C1946 1.385 1_655 S
C1948 C1946 1.478 . S
C1948 C1950 1.381 . S
C1948 C1954 1.383 . S
C1949 C1945 1.495 . S
C1949 H1955 0.959 . S
C1949 H1956 0.961 . S
C1949 H1957 0.960 . S
C1950 C1948 1.381 . S
C1950 C1951 1.394 . S
C1950 H1958 0.930 . S
C1951 C1950 1.394 . S
C1951 C1952 1.383 . S
C1951 H1959 0.929 . S
C1952 C1951 1.383 . S
C1952 C1953 1.377 . S
C1953 H1937 0.930 . S
C1953 C1952 1.377 . S
C1953 C1954 1.379 . S
C1954 H1938 0.931 . S
C1954 C1948 1.383 . S
C1954 C1953 1.379 . S
H1955 C1949 0.959 . S
H1956 C1949 0.961 . S
H1957 C1949 0.960 . S
H1958 C1950 0.930 . S
H1959 C1951 0.929 . S
H1960 C1968 0.929 . S
H1961 C1970 0.930 . S
H1962 C1972 0.930 . S
H1963 C1975 0.929 . S
H1964 C1978 0.930 . S
H1965 C1980 0.960 . S
H1966 C1980 0.960 . S
H1967 C1980 0.960 . S
C1968 H1960 0.929 . S
C1968 C1969 1.377 . S
C1968 C1970 1.384 . S
C1969 C1968 1.377 . S
C1969 C1975 1.390 . S
C1970 H1961 0.930 . S
C1970 C1968 1.384 . S
C1970 C1971 1.372 . S
C1971 C1970 1.372 . S
C1971 C1972 1.400 . S
C1971 C1976 1.490 . S
C1972 H1962 0.930 . S
C1972 C1971 1.400 . S
C1972 C1975 1.386 . S
H1973 C1989 0.930 . S
H1974 C1990 0.931 . S
C1975 H1963 0.929 . S
C1975 C1969 1.390 . S
C1975 C1972 1.386 . S
C1976 C1971 1.490 . S
C1976 C1978 1.395 . S
C1976 C1979 1.403 . S
H1977 C1983 0.930 . S
C1978 H1964 0.930 . S
C1978 C1976 1.395 . S
C1978 C1981 1.403 . S
C1979 C1976 1.403 . S
C1979 C1980 1.524 . S
C1979 C1983 1.400 . S
C1980 H1965 0.960 . S
C1980 H1966 0.960 . S
C1980 H1967 0.960 . S
C1980 C1979 1.524 . S
C1981 C1978 1.403 . S
C1981 C1982 1.392 . S
C1981 C1985 1.495 . S
C1982 C1981 1.392 . S
C1982 C1983 1.385 . S
C1982 C1984 1.478 . S
C1983 H1977 0.930 . S
C1983 C1979 1.400 . S
C1983 C1982 1.385 . S
C1984 C1982 1.478 . S
C1984 C1986 1.381 . S
C1984 C1990 1.383 . S
C1985 C1981 1.495 . S
C1985 H1991 0.959 . S
C1985 H1992 0.961 . S
C1985 H1993 0.960 . S
C1986 C1984 1.381 . S
C1986 C1987 1.394 . S
C1986 H1994 0.930 . S
C1987 C1986 1.394 . S
C1987 C1988 1.383 . S
C1987 H1995 0.929 . S
C1988 C1987 1.383 . S
C1988 C1989 1.377 . S
C1989 H1973 0.930 . S
C1989 C1988 1.377 . S
C1989 C1990 1.379 . S
C1990 H1974 0.931 . S
C1990 C1984 1.383 . S
C1990 C1989 1.379 . S
H1991 C1985 0.959 . S
H1992 C1985 0.961 . S
H1993 C1985 0.960 . S
H1994 C1986 0.930 . S
H1995 C1987 0.929 . S
H1996 C2004 0.929 . S
H1997 C2006 0.930 . S
H1998 C2008 0.930 . S
H1999 C2011 0.929 1_554 S
H2000 C2014 0.930 . S
H2001 C2016 0.960 . S
H2002 C2016 0.960 . S
H2003 C2016 0.960 . S
C2004 H1996 0.929 . S
C2004 C2005 1.377 . S
C2004 C2006 1.384 . S
C2005 C2004 1.377 . S
C2005 C2011 1.390 . S
C2006 H1997 0.930 . S
C2006 C2004 1.384 . S
C2006 C2007 1.372 . S
C2007 C2006 1.372 . S
C2007 C2008 1.400 . S
C2007 C2012 1.490 . S
C2008 H1998 0.930 . S
C2008 C2007 1.400 . S
C2008 C2011 1.386 . S
H2009 C2025 0.930 . S
H2010 C2026 0.931 . S
C2011 H1999 0.929 1_556 S
C2011 C2005 1.390 . S
C2011 C2008 1.386 . S
C2012 C2007 1.490 . S
C2012 C2014 1.395 . S
C2012 C2015 1.403 . S
H2013 C2019 0.930 . S
C2014 H2000 0.930 . S
C2014 C2012 1.395 . S
C2014 C2017 1.403 . S
C2015 C2012 1.403 . S
C2015 C2016 1.524 . S
C2015 C2019 1.400 . S
C2016 H2001 0.960 . S
C2016 H2002 0.960 . S
C2016 H2003 0.960 . S
C2016 C2015 1.524 . S
C2017 C2014 1.403 . S
C2017 C2018 1.392 . S
C2017 C2021 1.495 1_455 S
C2018 C2017 1.392 . S
C2018 C2019 1.385 . S
C2018 C2020 1.478 . S
C2019 H2013 0.930 . S
C2019 C2015 1.400 . S
C2019 C2018 1.385 . S
C2020 C2018 1.478 . S
C2020 C2022 1.381 . S
C2020 C2026 1.383 . S
C2021 C2017 1.495 1_655 S
C2021 H2027 0.959 . S
C2021 H2028 0.961 . S
C2021 H2029 0.960 . S
C2022 C2020 1.381 . S
C2022 C2023 1.394 . S
C2022 H2030 0.930 . S
C2023 C2022 1.394 . S
C2023 C2024 1.383 . S
C2023 H2031 0.929 . S
C2024 C2023 1.383 . S
C2024 C2025 1.377 . S
C2025 H2009 0.930 . S
C2025 C2024 1.377 . S
C2025 C2026 1.379 . S
C2026 H2010 0.931 . S
C2026 C2020 1.383 . S
C2026 C2025 1.379 . S
H2027 C2021 0.959 . S
H2028 C2021 0.961 . S
H2029 C2021 0.960 . S
H2030 C2022 0.930 . S
H2031 C2023 0.929 . S
H2032 C2040 0.929 . S
H2033 C2042 0.930 . S
H2034 C2044 0.930 . S
H2035 C2047 0.929 . S
H2036 C2050 0.930 . S
H2037 C2052 0.960 . S
H2038 C2052 0.960 . S
H2039 C2052 0.960 . S
C2040 H2032 0.929 . S
C2040 C2041 1.377 . S
C2040 C2042 1.384 . S
C2041 C2040 1.377 . S
C2041 C2047 1.390 . S
C2042 H2033 0.930 . S
C2042 C2040 1.384 . S
C2042 C2043 1.372 . S
C2043 C2042 1.372 . S
C2043 C2044 1.400 . S
C2043 C2048 1.490 . S
C2044 H2034 0.930 . S
C2044 C2043 1.400 . S
C2044 C2047 1.386 . S
H2045 C2061 0.930 . S
H2046 C2062 0.931 . S
C2047 H2035 0.929 . S
C2047 C2041 1.390 . S
C2047 C2044 1.386 . S
C2048 C2043 1.490 . S
C2048 C2050 1.395 . S
C2048 C2051 1.403 . S
H2049 C2055 0.930 . S
C2050 H2036 0.930 . S
C2050 C2048 1.395 . S
C2050 C2053 1.403 . S
C2051 C2048 1.403 . S
C2051 C2052 1.524 . S
C2051 C2055 1.400 . S
C2052 H2037 0.960 . S
C2052 H2038 0.960 . S
C2052 H2039 0.960 . S
C2052 C2051 1.524 . S
C2053 C2050 1.403 . S
C2053 C2054 1.392 . S
C2053 C2057 1.495 . S
C2054 C2053 1.392 . S
C2054 C2055 1.385 . S
C2054 C2056 1.478 . S
C2055 H2049 0.930 . S
C2055 C2051 1.400 . S
C2055 C2054 1.385 . S
C2056 C2054 1.478 . S
C2056 C2058 1.381 . S
C2056 C2062 1.383 . S
C2057 C2053 1.495 . S
C2057 H2063 0.959 . S
C2057 H2064 0.961 . S
C2057 H2065 0.960 . S
C2058 C2056 1.381 . S
C2058 C2059 1.394 . S
C2058 H2066 0.930 . S
C2059 C2058 1.394 . S
C2059 C2060 1.383 . S
C2059 H2067 0.929 . S
C2060 C2059 1.383 . S
C2060 C2061 1.377 . S
C2061 H2045 0.930 . S
C2061 C2060 1.377 . S
C2061 C2062 1.379 . S
C2062 H2046 0.931 . S
C2062 C2056 1.383 . S
C2062 C2061 1.379 . S
H2063 C2057 0.959 . S
H2064 C2057 0.961 . S
H2065 C2057 0.960 . S
H2066 C2058 0.930 . S
H2067 C2059 0.929 . S
H2068 C2076 0.929 . S
H2069 C2078 0.930 . S
H2070 C2080 0.930 . S
H2071 C2083 0.929 . S
H2072 C2086 0.930 . S
H2073 C2088 0.960 . S
H2074 C2088 0.960 . S
H2075 C2088 0.960 . S
C2076 H2068 0.929 . S
C2076 C2077 1.377 . S
C2076 C2078 1.384 . S
C2077 C2076 1.377 . S
C2077 C2083 1.390 . S
C2078 H2069 0.930 . S
C2078 C2076 1.384 . S
C2078 C2079 1.372 . S
C2079 C2078 1.372 . S
C2079 C2080 1.400 . S
C2079 C2084 1.490 . S
C2080 H2070 0.930 . S
C2080 C2079 1.400 . S
C2080 C2083 1.386 . S
H2081 C2097 0.930 . S
H2082 C2098 0.931 . S
C2083 H2071 0.929 . S
C2083 C2077 1.390 . S
C2083 C2080 1.386 . S
C2084 C2079 1.490 . S
C2084 C2086 1.395 . S
C2084 C2087 1.403 . S
H2085 C2091 0.930 . S
C2086 H2072 0.930 . S
C2086 C2084 1.395 . S
C2086 C2089 1.403 . S
C2087 C2084 1.403 . S
C2087 C2088 1.524 . S
C2087 C2091 1.400 . S
C2088 H2073 0.960 . S
C2088 H2074 0.960 . S
C2088 H2075 0.960 . S
C2088 C2087 1.524 . S
C2089 C2086 1.403 . S
C2089 C2090 1.392 . S
C2089 C2093 1.495 . S
C2090 C2089 1.392 . S
C2090 C2091 1.385 . S
C2090 C2092 1.478 . S
C2091 H2085 0.930 . S
C2091 C2087 1.400 . S
C2091 C2090 1.385 . S
C2092 C2090 1.478 . S
C2092 C2094 1.381 . S
C2092 C2098 1.383 . S
C2093 C2089 1.495 . S
C2093 H2099 0.959 . S
C2093 H2100 0.961 . S
C2093 H2101 0.960 . S
C2094 C2092 1.381 . S
C2094 C2095 1.394 . S
C2094 H2102 0.930 . S
C2095 C2094 1.394 . S
C2095 C2096 1.383 . S
C2095 H2103 0.929 . S
C2096 C2095 1.383 . S
C2096 C2097 1.377 . S
C2097 H2081 0.930 . S
C2097 C2096 1.377 . S
C2097 C2098 1.379 . S
C2098 H2082 0.931 . S
C2098 C2092 1.383 . S
C2098 C2097 1.379 . S
H2099 C2093 0.959 . S
H2100 C2093 0.961 . S
H2101 C2093 0.960 . S
H2102 C2094 0.930 . S
H2103 C2095 0.929 . S
H2104 C2112 0.929 . S
H2105 C2114 0.930 . S
H2106 C2116 0.930 . S
H2107 C2119 0.929 . S
H2108 C2122 0.930 . S
H2109 C2124 0.960 . S
H2110 C2124 0.960 . S
H2111 C2124 0.960 . S
C2112 H2104 0.929 . S
C2112 C2113 1.377 . S
C2112 C2114 1.384 . S
C2113 C2112 1.377 . S
C2113 C2119 1.390 . S
C2114 H2105 0.930 . S
C2114 C2112 1.384 . S
C2114 C2115 1.372 . S
C2115 C2114 1.372 . S
C2115 C2116 1.400 . S
C2115 C2120 1.490 . S
C2116 H2106 0.930 . S
C2116 C2115 1.400 . S
C2116 C2119 1.386 . S
H2117 C2133 0.930 . S
H2118 C2134 0.931 . S
C2119 H2107 0.929 . S
C2119 C2113 1.390 . S
C2119 C2116 1.386 . S
C2120 C2115 1.490 . S
C2120 C2122 1.395 . S
C2120 C2123 1.403 . S
H2121 C2127 0.930 . S
C2122 H2108 0.930 . S
C2122 C2120 1.395 . S
C2122 C2125 1.403 . S
C2123 C2120 1.403 . S
C2123 C2124 1.524 . S
C2123 C2127 1.400 . S
C2124 H2109 0.960 . S
C2124 H2110 0.960 . S
C2124 H2111 0.960 . S
C2124 C2123 1.524 . S
C2125 C2122 1.403 . S
C2125 C2126 1.392 . S
C2125 C2129 1.495 . S
C2126 C2125 1.392 . S
C2126 C2127 1.385 . S
C2126 C2128 1.478 . S
C2127 H2121 0.930 . S
C2127 C2123 1.400 . S
C2127 C2126 1.385 . S
C2128 C2126 1.478 . S
C2128 C2130 1.381 . S
C2128 C2134 1.383 . S
C2129 C2125 1.495 . S
C2129 H2135 0.959 . S
C2129 H2136 0.961 . S
C2129 H2137 0.960 . S
C2130 C2128 1.381 . S
C2130 C2131 1.394 . S
C2130 H2138 0.930 . S
C2131 C2130 1.394 . S
C2131 C2132 1.383 . S
C2131 H2139 0.929 . S
C2132 C2131 1.383 . S
C2132 C2133 1.377 . S
C2133 H2117 0.930 . S
C2133 C2132 1.377 . S
C2133 C2134 1.379 . S
C2134 H2118 0.931 . S
C2134 C2128 1.383 . S
C2134 C2133 1.379 . S
H2135 C2129 0.959 . S
H2136 C2129 0.961 . S
H2137 C2129 0.960 . S
H2138 C2130 0.930 . S
H2139 C2131 0.929 . S
H2140 C2148 0.929 . S
H2141 C2150 0.930 . S
H2142 C2152 0.930 . S
H2143 C2155 0.929 . S
H2144 C2158 0.930 . S
H2145 C2160 0.960 . S
H2146 C2160 0.960 . S
H2147 C2160 0.960 . S
C2148 H2140 0.929 . S
C2148 C2149 1.377 . S
C2148 C2150 1.384 1_556 S
C2149 C2148 1.377 . S
C2149 C2155 1.390 1_556 S
C2150 H2141 0.930 . S
C2150 C2148 1.384 1_554 S
C2150 C2151 1.372 . S
C2151 C2150 1.372 . S
C2151 C2152 1.400 . S
C2151 C2156 1.490 . S
C2152 H2142 0.930 . S
C2152 C2151 1.400 . S
C2152 C2155 1.386 . S
H2153 C2169 0.930 . S
H2154 C2170 0.931 . S
C2155 H2143 0.929 . S
C2155 C2149 1.390 1_554 S
C2155 C2152 1.386 . S
C2156 C2151 1.490 . S
C2156 C2158 1.395 . S
C2156 C2159 1.403 . S
H2157 C2163 0.930 . S
C2158 H2144 0.930 . S
C2158 C2156 1.395 . S
C2158 C2161 1.403 . S
C2159 C2156 1.403 . S
C2159 C2160 1.524 . S
C2159 C2163 1.400 . S
C2160 H2145 0.960 . S
C2160 H2146 0.960 . S
C2160 H2147 0.960 . S
C2160 C2159 1.524 . S
C2161 C2158 1.403 . S
C2161 C2162 1.392 . S
C2161 C2165 1.495 . S
C2162 C2161 1.392 . S
C2162 C2163 1.385 . S
C2162 C2164 1.478 . S
C2163 H2157 0.930 . S
C2163 C2159 1.400 . S
C2163 C2162 1.385 . S
C2164 C2162 1.478 . S
C2164 C2166 1.381 . S
C2164 C2170 1.383 . S
C2165 C2161 1.495 . S
C2165 H2171 0.959 . S
C2165 H2172 0.961 . S
C2165 H2173 0.960 . S
C2166 C2164 1.381 . S
C2166 C2167 1.394 . S
C2166 H2174 0.930 . S
C2167 C2166 1.394 . S
C2167 C2168 1.383 . S
C2167 H2175 0.929 . S
C2168 C2167 1.383 . S
C2168 C2169 1.377 . S
C2169 H2153 0.930 . S
C2169 C2168 1.377 . S
C2169 C2170 1.379 . S
C2170 H2154 0.931 . S
C2170 C2164 1.383 . S
C2170 C2169 1.379 . S
H2171 C2165 0.959 . S
H2172 C2165 0.961 . S
H2173 C2165 0.960 . S
H2174 C2166 0.930 . S
H2175 C2167 0.929 . S
H2176 C2184 0.929 . S
H2177 C2186 0.930 . S
H2178 C2188 0.930 . S
H2179 C2191 0.929 . S
H2180 C2194 0.930 . S
H2181 C2196 0.960 . S
H2182 C2196 0.960 . S
H2183 C2196 0.960 . S
C2184 H2176 0.929 . S
C2184 C2185 1.377 . S
C2184 C2186 1.384 . S
C2185 C2184 1.377 . S
C2185 C2191 1.390 . S
C2186 H2177 0.930 . S
C2186 C2184 1.384 . S
C2186 C2187 1.372 . S
C2187 C2186 1.372 . S
C2187 C2188 1.400 . S
C2187 C2192 1.490 . S
C2188 H2178 0.930 . S
C2188 C2187 1.400 . S
C2188 C2191 1.386 . S
H2189 C2205 0.930 . S
H2190 C2206 0.931 . S
C2191 H2179 0.929 . S
C2191 C2185 1.390 . S
C2191 C2188 1.386 . S
C2192 C2187 1.490 . S
C2192 C2194 1.395 . S
C2192 C2195 1.403 . S
H2193 C2199 0.930 . S
C2194 H2180 0.930 . S
C2194 C2192 1.395 . S
C2194 C2197 1.403 . S
C2195 C2192 1.403 . S
C2195 C2196 1.524 . S
C2195 C2199 1.400 . S
C2196 H2181 0.960 . S
C2196 H2182 0.960 . S
C2196 H2183 0.960 . S
C2196 C2195 1.524 . S
C2197 C2194 1.403 . S
C2197 C2198 1.392 . S
C2197 C2201 1.495 . S
C2198 C2197 1.392 . S
C2198 C2199 1.385 . S
C2198 C2200 1.478 . S
C2199 H2193 0.930 . S
C2199 C2195 1.400 . S
C2199 C2198 1.385 . S
C2200 C2198 1.478 . S
C2200 C2202 1.381 . S
C2200 C2206 1.383 . S
C2201 C2197 1.495 . S
C2201 H2207 0.959 . S
C2201 H2208 0.961 . S
C2201 H2209 0.960 . S
C2202 C2200 1.381 . S
C2202 C2203 1.394 . S
C2202 H2210 0.930 . S
C2203 C2202 1.394 . S
C2203 C2204 1.383 . S
C2203 H2211 0.929 . S
C2204 C2203 1.383 . S
C2204 C2205 1.377 . S
C2205 H2189 0.930 . S
C2205 C2204 1.377 . S
C2205 C2206 1.379 . S
C2206 H2190 0.931 . S
C2206 C2200 1.383 . S
C2206 C2205 1.379 . S
H2207 C2201 0.959 . S
H2208 C2201 0.961 . S
H2209 C2201 0.960 . S
H2210 C2202 0.930 . S
H2211 C2203 0.929 . S
H2212 C2220 0.929 . S
H2213 C2222 0.930 . S
H2214 C2224 0.930 . S
H2215 C2227 0.929 . S
H2216 C2230 0.930 . S
H2217 C2232 0.960 . S
H2218 C2232 0.960 . S
H2219 C2232 0.960 . S
C2220 H2212 0.929 . S
C2220 C2221 1.377 . S
C2220 C2222 1.384 . S
C2221 C2220 1.377 . S
C2221 C2227 1.390 . S
C2222 H2213 0.930 . S
C2222 C2220 1.384 . S
C2222 C2223 1.372 . S
C2223 C2222 1.372 . S
C2223 C2224 1.400 . S
C2223 C2228 1.490 . S
C2224 H2214 0.930 . S
C2224 C2223 1.400 . S
C2224 C2227 1.386 . S
H2225 C2241 0.930 . S
H2226 C2242 0.931 . S
C2227 H2215 0.929 . S
C2227 C2221 1.390 . S
C2227 C2224 1.386 . S
C2228 C2223 1.490 . S
C2228 C2230 1.395 . S
C2228 C2231 1.403 . S
H2229 C2235 0.930 . S
C2230 H2216 0.930 . S
C2230 C2228 1.395 . S
C2230 C2233 1.403 . S
C2231 C2228 1.403 . S
C2231 C2232 1.524 . S
C2231 C2235 1.400 . S
C2232 H2217 0.960 . S
C2232 H2218 0.960 . S
C2232 H2219 0.960 . S
C2232 C2231 1.524 . S
C2233 C2230 1.403 . S
C2233 C2234 1.392 . S
C2233 C2237 1.495 . S
C2234 C2233 1.392 . S
C2234 C2235 1.385 . S
C2234 C2236 1.478 . S
C2235 H2229 0.930 . S
C2235 C2231 1.400 . S
C2235 C2234 1.385 . S
C2236 C2234 1.478 . S
C2236 C2238 1.381 . S
C2236 C2242 1.383 . S
C2237 C2233 1.495 . S
C2237 H2243 0.959 . S
C2237 H2244 0.961 . S
C2237 H2245 0.960 . S
C2238 C2236 1.381 . S
C2238 C2239 1.394 . S
C2238 H2246 0.930 . S
C2239 C2238 1.394 . S
C2239 C2240 1.383 . S
C2239 H2247 0.929 . S
C2240 C2239 1.383 . S
C2240 C2241 1.377 . S
C2241 H2225 0.930 . S
C2241 C2240 1.377 . S
C2241 C2242 1.379 . S
C2242 H2226 0.931 . S
C2242 C2236 1.383 . S
C2242 C2241 1.379 . S
H2243 C2237 0.959 . S
H2244 C2237 0.961 . S
H2245 C2237 0.960 . S
H2246 C2238 0.930 . S
H2247 C2239 0.929 . S
H2248 C2256 0.929 . S
H2249 C2258 0.930 . S
H2250 C2260 0.930 . S
H2251 C2263 0.929 . S
H2252 C2266 0.930 . S
H2253 C2268 0.960 . S
H2254 C2268 0.960 . S
H2255 C2268 0.960 . S
C2256 H2248 0.929 . S
C2256 C2257 1.377 . S
C2256 C2258 1.384 . S
C2257 C2256 1.377 . S
C2257 C2263 1.390 . S
C2258 H2249 0.930 . S
C2258 C2256 1.384 . S
C2258 C2259 1.372 . S
C2259 C2258 1.372 . S
C2259 C2260 1.400 . S
C2259 C2264 1.490 . S
C2260 H2250 0.930 . S
C2260 C2259 1.400 . S
C2260 C2263 1.386 . S
H2261 C2277 0.930 . S
H2262 C2278 0.931 . S
C2263 H2251 0.929 . S
C2263 C2257 1.390 . S
C2263 C2260 1.386 . S
C2264 C2259 1.490 . S
C2264 C2266 1.395 . S
C2264 C2267 1.403 . S
H2265 C2271 0.930 . S
C2266 H2252 0.930 . S
C2266 C2264 1.395 . S
C2266 C2269 1.403 . S
C2267 C2264 1.403 . S
C2267 C2268 1.524 . S
C2267 C2271 1.400 . S
C2268 H2253 0.960 . S
C2268 H2254 0.960 . S
C2268 H2255 0.960 . S
C2268 C2267 1.524 . S
C2269 C2266 1.403 . S
C2269 C2270 1.392 . S
C2269 C2273 1.495 . S
C2270 C2269 1.392 . S
C2270 C2271 1.385 . S
C2270 C2272 1.478 . S
C2271 H2265 0.930 . S
C2271 C2267 1.400 . S
C2271 C2270 1.385 . S
C2272 C2270 1.478 . S
C2272 C2274 1.381 . S
C2272 C2278 1.383 . S
C2273 C2269 1.495 . S
C2273 H2279 0.959 . S
C2273 H2280 0.961 . S
C2273 H2281 0.960 . S
C2274 C2272 1.381 . S
C2274 C2275 1.394 . S
C2274 H2282 0.930 . S
C2275 C2274 1.394 . S
C2275 C2276 1.383 . S
C2275 H2283 0.929 . S
C2276 C2275 1.383 . S
C2276 C2277 1.377 . S
C2277 H2261 0.930 . S
C2277 C2276 1.377 . S
C2277 C2278 1.379 . S
C2278 H2262 0.931 . S
C2278 C2272 1.383 . S
C2278 C2277 1.379 . S
H2279 C2273 0.959 . S
H2280 C2273 0.961 . S
H2281 C2273 0.960 . S
H2282 C2274 0.930 . S
H2283 C2275 0.929 . S
H2284 C2292 0.929 . S
H2285 C2294 0.930 . S
H2286 C2296 0.930 . S
H2287 C2299 0.929 . S
H2288 C2302 0.930 . S
H2289 C2304 0.960 . S
H2290 C2304 0.960 . S
H2291 C2304 0.960 . S
C2292 H2284 0.929 . S
C2292 C2293 1.377 . S
C2292 C2294 1.384 . S
C2293 C2292 1.377 . S
C2293 C2299 1.390 . S
C2294 H2285 0.930 . S
C2294 C2292 1.384 . S
C2294 C2295 1.372 . S
C2295 C2294 1.372 . S
C2295 C2296 1.400 . S
C2295 C2300 1.490 . S
C2296 H2286 0.930 . S
C2296 C2295 1.400 . S
C2296 C2299 1.386 . S
H2297 C2313 0.930 . S
H2298 C2314 0.931 . S
C2299 H2287 0.929 . S
C2299 C2293 1.390 . S
C2299 C2296 1.386 . S
C2300 C2295 1.490 . S
C2300 C2302 1.395 . S
C2300 C2303 1.403 . S
H2301 C2307 0.930 . S
C2302 H2288 0.930 . S
C2302 C2300 1.395 . S
C2302 C2305 1.403 . S
C2303 C2300 1.403 . S
C2303 C2304 1.524 . S
C2303 C2307 1.400 . S
C2304 H2289 0.960 . S
C2304 H2290 0.960 . S
C2304 H2291 0.960 . S
C2304 C2303 1.524 . S
C2305 C2302 1.403 . S
C2305 C2306 1.392 . S
C2305 C2309 1.495 . S
C2306 C2305 1.392 . S
C2306 C2307 1.385 . S
C2306 C2308 1.478 . S
C2307 H2301 0.930 . S
C2307 C2303 1.400 . S
C2307 C2306 1.385 . S
C2308 C2306 1.478 . S
C2308 C2310 1.381 . S
C2308 C2314 1.383 . S
C2309 C2305 1.495 . S
C2309 H2315 0.959 . S
C2309 H2316 0.961 . S
C2309 H2317 0.960 . S
C2310 C2308 1.381 . S
C2310 C2311 1.394 . S
C2310 H2318 0.930 . S
C2311 C2310 1.394 . S
C2311 C2312 1.383 . S
C2311 H2319 0.929 1_565 S
C2312 C2311 1.383 . S
C2312 C2313 1.377 . S
C2313 H2297 0.930 . S
C2313 C2312 1.377 . S
C2313 C2314 1.379 . S
C2314 H2298 0.931 . S
C2314 C2308 1.383 . S
C2314 C2313 1.379 . S
H2315 C2309 0.959 . S
H2316 C2309 0.961 . S
H2317 C2309 0.960 . S
H2318 C2310 0.930 . S
H2319 C2311 0.929 1_545 S
H2320 C2328 0.960 . S
H2321 C2330 0.930 . S
H2322 C2332 0.930 . S
H2323 C2335 0.929 . S
H2324 C2338 0.930 . S
H2325 C2340 0.960 . S
H2326 C2340 0.960 . S
H2327 C2340 0.960 . S
C2328 H2320 0.960 . S
C2328 C2329 1.352 1_554 S
C2328 C2330 1.382 . S
C2329 C2328 1.352 1_556 S
C2329 C2335 1.390 . S
C2330 H2321 0.930 . S
C2330 C2328 1.382 . S
C2330 C2331 1.372 1_554 S
C2331 C2330 1.372 1_556 S
C2331 C2332 1.400 . S
C2331 C2336 1.490 . S
C2332 H2322 0.930 . S
C2332 C2331 1.400 . S
C2332 C2335 1.386 . S
H2333 C2349 0.930 . S
H2334 C2350 0.931 . S
C2335 H2323 0.929 . S
C2335 C2329 1.390 . S
C2335 C2332 1.386 . S
C2336 C2331 1.490 . S
C2336 C2338 1.395 1_556 S
C2336 C2339 1.403 . S
H2337 C2343 0.930 . S
C2338 H2324 0.930 . S
C2338 C2336 1.395 1_554 S
C2338 C2341 1.403 . S
C2339 C2336 1.403 . S
C2339 C2340 1.524 . S
C2339 C2343 1.400 . S
C2340 H2325 0.960 . S
C2340 H2326 0.960 . S
C2340 H2327 0.960 . S
C2340 C2339 1.524 . S
C2341 C2338 1.403 . S
C2341 C2342 1.392 1_554 S
C2341 C2345 1.495 . S
C2342 C2341 1.392 1_556 S
C2342 C2343 1.385 . S
C2342 C2344 1.478 . S
C2343 H2337 0.930 . S
C2343 C2339 1.400 . S
C2343 C2342 1.385 . S
C2344 C2342 1.478 . S
C2344 C2346 1.381 1_556 S
C2344 C2350 1.383 . S
C2345 C2341 1.495 . S
C2345 H2351 0.959 . S
C2345 H2352 0.961 . S
C2345 H2353 0.960 . S
C2346 C2344 1.381 1_554 S
C2346 C2347 1.394 . S
C2346 H2354 0.930 . S
C2347 C2346 1.394 . S
C2347 C2348 1.383 1_554 S
C2347 H2355 0.929 . S
C2348 C2347 1.383 1_556 S
C2348 C2349 1.377 . S
C2349 H2333 0.930 . S
C2349 C2348 1.377 . S
C2349 C2350 1.379 . S
C2350 H2334 0.931 . S
C2350 C2344 1.383 . S
C2350 C2349 1.379 . S
H2351 C2345 0.959 . S
H2352 C2345 0.961 . S
H2353 C2345 0.960 . S
H2354 C2346 0.930 . S
H2355 C2347 0.929 . S
H2356 C2364 0.929 . S
H2357 C2366 0.930 . S
H2358 C2368 0.930 . S
H2359 C2371 0.929 . S
H2360 C2374 0.930 . S
H2361 C2376 0.960 . S
H2362 C2376 0.960 . S
H2363 C2376 0.960 . S
C2364 H2356 0.929 . S
C2364 C2365 1.377 . S
C2364 C2366 1.384 . S
C2365 C2364 1.377 . S
C2365 C2371 1.390 . S
C2366 H2357 0.930 . S
C2366 C2364 1.384 . S
C2366 C2367 1.372 . S
C2367 C2366 1.372 . S
C2367 C2368 1.400 . S
C2367 C2372 1.490 . S
C2368 H2358 0.930 . S
C2368 C2367 1.400 . S
C2368 C2371 1.386 . S
H2369 C2385 0.930 . S
H2370 C2386 0.931 . S
C2371 H2359 0.929 . S
C2371 C2365 1.390 . S
C2371 C2368 1.386 . S
C2372 C2367 1.490 . S
C2372 C2374 1.395 . S
C2372 C2375 1.403 . S
H2373 C2379 0.930 . S
C2374 H2360 0.930 . S
C2374 C2372 1.395 . S
C2374 C2377 1.403 . S
C2375 C2372 1.403 . S
C2375 C2376 1.524 . S
C2375 C2379 1.400 . S
C2376 H2361 0.960 . S
C2376 H2362 0.960 . S
C2376 H2363 0.960 . S
C2376 C2375 1.524 . S
C2377 C2374 1.403 . S
C2377 C2378 1.392 . S
C2377 C2381 1.495 . S
C2378 C2377 1.392 . S
C2378 C2379 1.385 . S
C2378 C2380 1.478 . S
C2379 H2373 0.930 . S
C2379 C2375 1.400 . S
C2379 C2378 1.385 . S
C2380 C2378 1.478 . S
C2380 C2382 1.381 . S
C2380 C2386 1.383 . S
C2381 C2377 1.495 . S
C2381 H2387 0.959 . S
C2381 H2388 0.961 . S
C2381 H2389 0.960 . S
C2382 C2380 1.381 . S
C2382 C2383 1.394 . S
C2382 H2390 0.930 . S
C2383 C2382 1.394 . S
C2383 C2384 1.383 . S
C2383 H2391 0.929 . S
C2384 C2383 1.383 . S
C2384 C2385 1.377 . S
C2385 H2369 0.930 . S
C2385 C2384 1.377 . S
C2385 C2386 1.379 . S
C2386 H2370 0.931 . S
C2386 C2380 1.383 . S
C2386 C2385 1.379 . S
H2387 C2381 0.959 . S
H2388 C2381 0.961 . S
H2389 C2381 0.960 . S
H2390 C2382 0.930 . S
H2391 C2383 0.929 . S
H2392 C2400 0.929 . S
H2393 C2402 0.930 1_556 S
H2394 C2404 0.930 . S
H2395 C2407 0.929 . S
H2396 C2410 0.930 . S
H2397 C2412 0.960 . S
H2398 C2412 0.960 . S
H2399 C2412 0.960 . S
C2400 H2392 0.929 . S
C2400 C2401 1.377 . S
C2400 C2402 1.384 . S
C2401 C2400 1.377 . S
C2401 C2407 1.390 . S
C2402 H2393 0.930 1_554 S
C2402 C2400 1.384 . S
C2402 C2403 1.372 . S
C2403 C2402 1.372 . S
C2403 C2404 1.400 . S
C2403 C2408 1.490 . S
C2404 H2394 0.930 . S
C2404 C2403 1.400 . S
C2404 C2407 1.386 . S
H2405 C2421 0.930 . S
H2406 C2422 0.931 . S
C2407 H2395 0.929 . S
C2407 C2401 1.390 . S
C2407 C2404 1.386 . S
C2408 C2403 1.490 . S
C2408 C2410 1.395 1_554 S
C2408 C2411 1.403 . S
H2409 C2415 0.930 . S
C2410 H2396 0.930 . S
C2410 C2408 1.395 1_556 S
C2410 C2413 1.403 . S
C2411 C2408 1.403 . S
C2411 C2412 1.524 . S
C2411 C2415 1.400 . S
C2412 H2397 0.960 . S
C2412 H2398 0.960 . S
C2412 H2399 0.960 . S
C2412 C2411 1.524 . S
C2413 C2410 1.403 . S
C2413 C2414 1.392 1_556 S
C2413 C2417 1.495 . S
C2414 C2413 1.392 1_554 S
C2414 C2415 1.385 . S
C2414 C2416 1.478 . S
C2415 H2409 0.930 . S
C2415 C2411 1.400 . S
C2415 C2414 1.385 . S
C2416 C2414 1.478 . S
C2416 C2418 1.381 1_554 S
C2416 C2422 1.383 . S
C2417 C2413 1.495 . S
C2417 H2423 0.959 . S
C2417 H2424 0.961 . S
C2417 H2425 0.960 . S
C2418 C2416 1.381 1_556 S
C2418 C2419 1.394 . S
C2418 H2426 0.930 . S
C2419 C2418 1.394 . S
C2419 C2420 1.397 . S
C2419 H2427 0.929 . S
C2420 C2419 1.397 . S
C2420 C2421 1.359 1_556 S
C2421 H2405 0.930 . S
C2421 C2420 1.359 1_554 S
C2421 C2422 1.379 . S
C2422 H2406 0.931 . S
C2422 C2416 1.383 . S
C2422 C2421 1.379 . S
H2423 C2417 0.959 . S
H2424 C2417 0.961 . S
H2425 C2417 0.960 . S
H2426 C2418 0.930 . S
H2427 C2419 0.929 . S
H2428 C2436 0.929 1_545 S
H2429 C2438 0.930 . S
H2430 C2440 0.930 . S
H2431 C2443 0.929 . S
H2432 C2446 0.930 . S
H2433 C2448 0.960 . S
H2434 C2448 0.960 . S
H2435 C2448 0.960 . S
C2436 H2428 0.929 1_565 S
C2436 C2437 1.377 . S
C2436 C2438 1.384 . S
C2437 C2436 1.377 . S
C2437 C2443 1.390 . S
C2438 H2429 0.930 . S
C2438 C2436 1.384 . S
C2438 C2439 1.372 . S
C2439 C2438 1.372 . S
C2439 C2440 1.400 . S
C2439 C2444 1.490 . S
C2440 H2430 0.930 . S
C2440 C2439 1.400 . S
C2440 C2443 1.386 . S
H2441 C2457 0.930 . S
H2442 C2458 0.931 . S
C2443 H2431 0.929 . S
C2443 C2437 1.390 . S
C2443 C2440 1.386 . S
C2444 C2439 1.490 . S
C2444 C2446 1.395 . S
C2444 C2447 1.403 . S
H2445 C2451 0.930 . S
C2446 H2432 0.930 . S
C2446 C2444 1.395 . S
C2446 C2449 1.403 . S
C2447 C2444 1.403 . S
C2447 C2448 1.524 . S
C2447 C2451 1.400 . S
C2448 H2433 0.960 . S
C2448 H2434 0.960 . S
C2448 H2435 0.960 . S
C2448 C2447 1.524 . S
C2449 C2446 1.403 . S
C2449 C2450 1.392 . S
C2449 C2453 1.495 . S
C2450 C2449 1.392 . S
C2450 C2451 1.385 . S
C2450 C2452 1.478 . S
C2451 H2445 0.930 . S
C2451 C2447 1.400 . S
C2451 C2450 1.385 . S
C2452 C2450 1.478 . S
C2452 C2454 1.381 . S
C2452 C2458 1.383 . S
C2453 C2449 1.495 . S
C2453 H2459 0.959 . S
C2453 H2460 0.961 . S
C2453 H2461 0.960 . S
C2454 C2452 1.381 . S
C2454 C2455 1.394 . S
C2454 H2462 0.930 . S
C2455 C2454 1.394 . S
C2455 C2456 1.383 . S
C2455 H2463 0.929 . S
C2456 C2455 1.383 . S
C2456 C2457 1.377 . S
C2457 H2441 0.930 . S
C2457 C2456 1.377 . S
C2457 C2458 1.379 . S
C2458 H2442 0.931 . S
C2458 C2452 1.383 . S
C2458 C2457 1.379 . S
H2459 C2453 0.959 . S
H2460 C2453 0.961 . S
H2461 C2453 0.960 . S
H2462 C2454 0.930 . S
H2463 C2455 0.929 . S
C764 C306 1.838 1_556 S
C745 C101 1.819 . S
C800 C354 1.110 . S
C781 C125 1.040 . S
C817 C139 1.976 . S
C836 C390 1.880 . S
C872 C426 1.884 . S
C853 C82 1.951 . S
C908 C452 1.446 . S
C889 C196 1.446 . S
C944 C488 1.974 . S
C925 C234 2.011 . S
C961 C220 0.814 . S
C980 C523 0.869 . S
C1016 C560 1.803 . S
C997 C173 1.796 . S
C1033 C211 0.965 . S
C1052 C594 0.955 . S
C1088 C642 1.094 . S
C1069 C182 1.023 . S
C1105 C201 1.129 . S
C1124 C595 1.259 . S
C1160 C632 1.451 . S
C1141 C239 1.322 . S
C1177 C135 1.539 . S
C1196 C678 1.516 . S
C1213 C87 1.984 . S
C1232 C667 2.151 . S
C1249 C106 1.141 . S
C1268 C668 1.315 . S
C1285 C116 1.265 . S
C1304 C666 1.281 1_655 S
C1321 C59 1.757 . S
C1340 C414 1.754 . S
C1357 C268 2.303 . S
C1376 C415 2.314 . S
C1412 C318 1.353 . S
C1393 C291 1.418 . S
C1448 C343 1.368 . S
C1429 C163 1.303 . S
C1465 C78 2.285 1_545 S
C1484 C450 2.295 . S
C1520 C558 1.075 . S
C1501 C215 1.059 . S
C1556 C451 1.573 . S
C1537 C177 1.577 1_545 S
C1592 C524 1.952 . S
C1573 C230 1.963 . S
C1628 C522 1.838 . S
C1609 C272 1.820 . S
C1645 C296 1.060 . S
C1664 C570 1.125 . S
C1681 C158 1.975 . S
C1700 C462 1.883 . S
C1736 C498 1.858 . S
C1717 C253 1.950 . S
C1753 C63 1.443 . S
C1772 C380 1.426 . S
C1808 C416 1.995 . S
C1789 C6 2.012 . S
C1844 C307 0.890 . S
C1825 C30 0.816 . S
C1880 C344 1.786 . S
C1861 C40 1.802 . S
C1897 C21 0.964 . S
C1916 C630 0.957 . S
C1933 C49 1.026 . S
C1952 C606 1.094 . S
C1969 C68 1.109 . S
C1988 C631 1.249 . S
C2005 C11 1.286 1_556 S
C2024 C596 1.457 . S
C2060 C714 1.486 . S
C2041 C154 1.540 . S
C2096 C703 2.150 . S
C2077 C258 1.982 . S
C2132 C704 1.314 . S
C2113 C277 1.155 . S
C2149 C287 1.266 . S
C2168 C702 1.282 . S
C2185 C192 1.763 . S
C2204 C486 1.776 . S
C2240 C487 2.317 . S
C2221 C97 2.298 . S
C2276 C534 1.360 . S
C2257 C120 1.418 . S
C2312 C559 1.373 . S
C2293 C144 1.288 . S
C2329 C249 2.281 . S
C2348 C378 2.284 1_556 S
C2384 C342 1.063 . S
C2365 C25 1.056 . S
C2401 C44 1.577 . S
C2420 C379 1.568 1_556 S
C2456 C308 1.965 . S
C2437 C2 1.967 1_565 S
