# Generated by pormake.
# Topology pyr, (3,6)-cn, num edge types: 1
# Building blocks:
#     Node 0, Type 0, BuildingBlock: CUQRIR_clean_linker_1, # of connection points: 3
#     Node 1, Type 0, BuildingBlock: CUQRIR_clean_linker_1, # of connection points: 3
#     Node 2, Type 0, BuildingBlock: CUQRIR_clean_linker_1, # of connection points: 3
#     Node 3, Type 0, BuildingBlock: CUQRIR_clean_linker_1, # of connection points: 3
#     Node 4, Type 0, BuildingBlock: CUQRIR_clean_linker_1, # of connection points: 3
#     Node 5, Type 0, BuildingBlock: CUQRIR_clean_linker_1, # of connection points: 3
#     Node 6, Type 0, BuildingBlock: CUQRIR_clean_linker_1, # of connection points: 3
#     Node 7, Type 0, BuildingBlock: CUQRIR_clean_linker_1, # of connection points: 3
#     Node 8, Type 1, BuildingBlock: BETFAJ_clean_sbu_0, # of connection points: 6
#     Node 9, Type 1, BuildingBlock: BETFAJ_clean_sbu_0, # of connection points: 6
#     Node 10, Type 1, BuildingBlock: BETFAJ_clean_sbu_0, # of connection points: 6
#     Node 11, Type 1, BuildingBlock: BETFAJ_clean_sbu_0, # of connection points: 6
#     Edge 12, Type (0, 1), BuildingBlock: UVAHIK_clean_linker_0, # of connection points: 2
#     Edge 13, Type (0, 1), BuildingBlock: UVAHIK_clean_linker_0, # of connection points: 2
#     Edge 14, Type (0, 1), BuildingBlock: UVAHIK_clean_linker_0, # of connection points: 2
#     Edge 15, Type (0, 1), BuildingBlock: UVAHIK_clean_linker_0, # of connection points: 2
#     Edge 16, Type (0, 1), BuildingBlock: UVAHIK_clean_linker_0, # of connection points: 2
#     Edge 17, Type (0, 1), BuildingBlock: UVAHIK_clean_linker_0, # of connection points: 2
#     Edge 18, Type (0, 1), BuildingBlock: UVAHIK_clean_linker_0, # of connection points: 2
#     Edge 19, Type (0, 1), BuildingBlock: UVAHIK_clean_linker_0, # of connection points: 2
#     Edge 20, Type (0, 1), BuildingBlock: UVAHIK_clean_linker_0, # of connection points: 2
#     Edge 21, Type (0, 1), BuildingBlock: UVAHIK_clean_linker_0, # of connection points: 2
#     Edge 22, Type (0, 1), BuildingBlock: UVAHIK_clean_linker_0, # of connection points: 2
#     Edge 23, Type (0, 1), BuildingBlock: UVAHIK_clean_linker_0, # of connection points: 2
#     Edge 24, Type (0, 1), BuildingBlock: UVAHIK_clean_linker_0, # of connection points: 2
#     Edge 25, Type (0, 1), BuildingBlock: UVAHIK_clean_linker_0, # of connection points: 2
#     Edge 26, Type (0, 1), BuildingBlock: UVAHIK_clean_linker_0, # of connection points: 2
#     Edge 27, Type (0, 1), BuildingBlock: UVAHIK_clean_linker_0, # of connection points: 2
#     Edge 28, Type (0, 1), BuildingBlock: UVAHIK_clean_linker_0, # of connection points: 2
#     Edge 29, Type (0, 1), BuildingBlock: UVAHIK_clean_linker_0, # of connection points: 2
#     Edge 30, Type (0, 1), BuildingBlock: UVAHIK_clean_linker_0, # of connection points: 2
#     Edge 31, Type (0, 1), BuildingBlock: UVAHIK_clean_linker_0, # of connection points: 2
#     Edge 32, Type (0, 1), BuildingBlock: UVAHIK_clean_linker_0, # of connection points: 2
#     Edge 33, Type (0, 1), BuildingBlock: UVAHIK_clean_linker_0, # of connection points: 2
#     Edge 34, Type (0, 1), BuildingBlock: UVAHIK_clean_linker_0, # of connection points: 2
#     Edge 35, Type (0, 1), BuildingBlock: UVAHIK_clean_linker_0, # of connection points: 2
# Relax obj value: 0.157
# Max RMSD: 0.249
# Mean RMSD: 0.165
data_MOF--net-pyr--node1-BETFAJ_clean_sbu_0--node2-CUQRIR_clean_linker_1--edge1-UVAHIK_clean_linker_0
_symmetry_space_group_name_H-M    P1
_symmetry_Int_Tables_number       1
_symmetry_cell_setting            triclinic
loop_
_symmetry_equiv_pos_as_xyz
'x, y, z'
_cell_length_a     46.928096
_cell_length_b     48.844786
_cell_length_c     43.553403
_cell_angle_alpha  90.185024
_cell_angle_beta   89.649698
_cell_angle_gamma 103.16865
loop_
_atom_site_label
_atom_site_type_symbol
_atom_site_fract_x
_atom_site_fract_y
_atom_site_fract_z
_atom_type_partial_charge
C0 C 0.32544 0.35276 0.24935 0.0
N1 N 0.33807 0.33065 0.25263 0.0
N2 N 0.33144 0.36461 0.22128 0.0
C3 C 0.30337 0.36004 0.27141 0.0
C4 C 0.3482 0.34875 0.20762 0.0
N5 N 0.35219 0.32814 0.22665 0.0
C6 C 0.3586 0.35186 0.17489 0.0
H7 H 0.28187 0.35713 0.25985 0.0
H8 H 0.31037 0.38248 0.27809 0.0
H9 H 0.30064 0.34709 0.29253 0.0
H10 H 0.38129 0.34884 0.17321 0.0
H11 H 0.35779 0.37281 0.16566 0.0
H12 H 0.34442 0.33529 0.16078 0.0
C13 C 0.2695 0.87927 0.62886 0.0
N14 N 0.27427 0.90041 0.64957 0.0
N15 N 0.28957 0.86356 0.63184 0.0
C16 C 0.24781 0.87622 0.60315 0.0
C17 C 0.30694 0.87614 0.65486 0.0
N18 N 0.29795 0.89885 0.66521 0.0
C19 C 0.33418 0.86752 0.66525 0.0
H20 H 0.24294 0.85449 0.59382 0.0
H21 H 0.25718 0.89104 0.5845 0.0
H22 H 0.2273 0.8816 0.61127 0.0
H23 H 0.3525 0.87667 0.64946 0.0
H24 H 0.33095 0.84433 0.66451 0.0
H25 H 0.34019 0.87496 0.68894 0.0
C26 C 0.63721 0.37643 0.8494 0.0
N27 N 0.65517 0.37371 0.87306 0.0
N28 N 0.64715 0.4011 0.83416 0.0
C29 C 0.61033 0.35458 0.84074 0.0
C30 C 0.6719 0.4132 0.84968 0.0
N31 N 0.67686 0.39666 0.87316 0.0
C32 C 0.6904 0.4421 0.84324 0.0
H33 H 0.60621 0.35507 0.81572 0.0
H34 H 0.5912 0.35901 0.85324 0.0
H35 H 0.61244 0.3332 0.84719 0.0
H36 H 0.67714 0.45581 0.83298 0.0
H37 H 0.70812 0.44029 0.8269 0.0
H38 H 0.70069 0.45206 0.86461 0.0
C39 C 0.84342 0.70089 0.35298 0.0
N40 N 0.86935 0.71964 0.34828 0.0
N41 N 0.83 0.70701 0.37895 0.0
C42 C 0.83176 0.67582 0.33279 0.0
C43 C 0.84876 0.7302 0.39001 0.0
N44 N 0.87283 0.73786 0.37168 0.0
C45 C 0.84267 0.74645 0.4178 0.0
H46 H 0.81976 0.68252 0.31337 0.0
H47 H 0.81655 0.65899 0.34566 0.0
H48 H 0.84985 0.66723 0.32314 0.0
H49 H 0.85339 0.7395 0.43805 0.0
H50 H 0.81884 0.74278 0.42249 0.0
H51 H 0.85166 0.76933 0.41468 0.0
C52 C 0.66562 0.81793 0.87452 0.0
N53 N 0.6864 0.81372 0.85452 0.0
N54 N 0.65348 0.83905 0.86484 0.0
C55 C 0.65973 0.8038 0.90524 0.0
C56 C 0.66776 0.84757 0.83823 0.0
N57 N 0.6879 0.83237 0.8321 0.0
C58 C 0.66417 0.87275 0.82011 0.0
H59 H 0.65818 0.7809 0.90282 0.0
H60 H 0.63919 0.80726 0.91562 0.0
H61 H 0.67827 0.81242 0.92079 0.0
H62 H 0.67535 0.89218 0.83229 0.0
H63 H 0.64069 0.873 0.81824 0.0
H64 H 0.67356 0.87276 0.79667 0.0
C65 C 0.77668 0.25617 0.50922 0.0
N66 N 0.77548 0.23304 0.49163 0.0
N67 N 0.75032 0.26292 0.50966 0.0
C68 C 0.80303 0.27162 0.52656 0.0
C69 C 0.73315 0.2433 0.49184 0.0
N70 N 0.74832 0.22484 0.48137 0.0
C71 C 0.70236 0.24356 0.4823 0.0
H72 H 0.79675 0.28491 0.54496 0.0
H73 H 0.81815 0.28537 0.51038 0.0
H74 H 0.81479 0.25655 0.53668 0.0
H75 H 0.70027 0.24128 0.45699 0.0
H76 H 0.69583 0.26307 0.48938 0.0
H77 H 0.68698 0.22531 0.49283 0.0
C78 C 0.3361 0.72403 0.2408 0.0
N79 N 0.36157 0.74202 0.24895 0.0
N80 N 0.32123 0.73589 0.21995 0.0
C81 C 0.32511 0.69521 0.25429 0.0
C82 C 0.33856 0.76187 0.21569 0.0
N83 N 0.36298 0.7658 0.2333 0.0
C84 C 0.33209 0.78311 0.19328 0.0
H85 H 0.33478 0.67995 0.24126 0.0
H86 H 0.30092 0.68855 0.2529 0.0
H87 H 0.33182 0.69476 0.27863 0.0
H88 H 0.31864 0.79597 0.20504 0.0
H89 H 0.31963 0.7725 0.17333 0.0
H90 H 0.35235 0.79749 0.18477 0.0
C91 C 0.13129 0.39457 0.72877 0.0
N92 N 0.15052 0.38863 0.70755 0.0
N93 N 0.14258 0.4191 0.74371 0.0
C94 C 0.10207 0.37559 0.73615 0.0
C95 C 0.16949 0.42788 0.73073 0.0
N96 N 0.17454 0.40941 0.70898 0.0
C97 C 0.19004 0.45561 0.7378 0.0
H98 H 0.08556 0.38005 0.71995 0.0
H99 H 0.09502 0.37918 0.7599 0.0
H100 H 0.10292 0.35319 0.73348 0.0
H101 H 0.20616 0.45222 0.75508 0.0
H102 H 0.17804 0.47088 0.74727 0.0
H103 H 0.20217 0.46466 0.71688 0.0
Sm104 Sm 0.04185 0.07236 0.50684 0.0
Sm105 Sm 0.01912 0.04352 0.57157 0.0
C106 C 0.05416 0.09497 0.45238 0.0
C107 C 0.08002 0.11576 0.441 0.0
C108 C 0.0805 0.14464 0.44151 0.0
C109 C 0.1061 0.16443 0.4341 0.0
C110 C 0.13167 0.15571 0.42592 0.0
C111 C 0.13088 0.12682 0.42444 0.0
C112 C 0.10536 0.10707 0.43186 0.0
C113 C 0.08381 0.05964 0.5443 0.0
C114 C 0.05085 0.1118 0.56841 0.0
C115 C 0.01216 1.01426 0.62302 0.0
C116 C 0.98698 0.99476 0.63677 0.0
C117 C 0.99094 0.97785 0.66153 0.0
C118 C 0.96705 0.95854 0.67394 0.0
C119 C 0.93883 0.95589 0.66174 0.0
C120 C 0.93509 0.97286 0.63674 0.0
C121 C 0.95899 0.99204 0.6243 0.0
C122 C 0.97568 0.0636 0.54272 0.0
C123 C 1.005 1.00525 0.50814 0.0
O124 O 0.03739 0.10427 0.47222 0.0
O125 O 0.0585 0.07017 0.45956 0.0
O126 O 0.05823 0.04507 0.54103 0.0
O127 O 0.08911 0.08024 0.52488 0.0
O128 O 0.0458 0.11098 0.53844 0.0
O129 O 0.04633 0.0884 0.58522 0.0
O130 O 0.02198 1.00536 0.59758 0.0
O131 O 0.0105 0.04066 0.62174 0.0
O132 O 1.00106 0.06423 0.53367 0.0
O133 O 0.97167 0.05084 0.56899 0.0
O134 O 1.00553 1.00552 0.5386 0.0
O135 O 0.01519 1.02824 0.49159 0.0
H136 H 0.0613 0.152 0.44838 0.0
H137 H 0.10604 0.18656 0.43548 0.0
H138 H 0.15001 0.1194 0.41746 0.0
H139 H 0.10575 0.08499 0.43098 0.0
H140 H 0.01251 0.97946 0.67111 0.0
H141 H 0.97073 0.9455 0.6929 0.0
H142 H 0.91363 0.97164 0.62706 0.0
H143 H 0.95562 1.00474 0.60491 0.0
Sm144 Sm 0.53922 0.08467 0.08867 0.0
Sm145 Sm 0.48321 0.07129 0.05541 0.0
C146 C 0.58914 0.113 0.11085 0.0
C147 C 0.59834 0.12113 0.14239 0.0
C148 C 0.60202 0.1493 0.15146 0.0
C149 C 0.60821 0.15706 0.18191 0.0
C150 C 0.61115 0.1368 0.20373 0.0
C151 C 0.60754 0.10862 0.19464 0.0
C152 C 0.60112 0.10082 0.16425 0.0
C153 C 0.50556 0.03863 0.11964 0.0
C154 C 0.48389 0.1097 0.11377 0.0
C155 C 0.43628 0.04826 1.02383 0.0
C156 C 0.43301 1.03296 0.99467 0.0
C157 C 0.41356 1.00665 0.99272 0.0
C158 C 0.41019 0.99195 0.96503 0.0
C159 C 0.42596 1.00358 0.9388 0.0
C160 C 0.44658 1.0293 0.94131 0.0
C161 C 0.45023 0.04378 0.96908 0.0
C162 C 0.52027 0.12136 0.03786 0.0
C163 C 0.53619 0.04216 0.03136 0.0
O164 O 0.56927 0.1252 0.09984 0.0
O165 O 0.58446 0.0862 0.10397 0.0
O166 O 0.49744 0.05038 0.09646 0.0
O167 O 0.53152 0.0519 0.12773 0.0
O168 O 0.51256 0.11415 0.11075 0.0
O169 O 0.46659 0.08945 0.09835 0.0
O170 O 0.44561 0.03546 0.04664 0.0
O171 O 0.4486 0.07506 1.02249 0.0
O172 O 0.52773 0.09827 0.04168 0.0
O173 O 0.49271 0.11863 0.04409 0.0
O174 O 0.50858 0.04351 0.02876 0.0
O175 O 0.55365 0.05762 0.05148 0.0
H176 H 0.59965 0.16527 0.13508 0.0
H177 H 0.61064 0.17889 0.18838 0.0
H178 H 0.61023 0.09267 0.21089 0.0
H179 H 0.59817 0.07887 0.15803 0.0
H180 H 0.40072 0.99767 1.01251 0.0
H181 H 0.39454 0.9719 0.9639 0.0
H182 H 0.45886 0.039 0.92151 0.0
H183 H 0.46605 0.06373 0.97026 0.0
Sm184 Sm 0.49367 0.53301 0.51214 0.0
Sm185 Sm 0.50065 0.57822 0.55284 0.0
C186 C 0.49976 0.48922 0.47905 0.0
C187 C 0.51835 0.46939 0.48419 0.0
C188 C 0.54434 0.47808 0.50082 0.0
C189 C 0.56096 0.45891 0.50829 0.0
C190 C 0.55188 0.43065 0.49931 0.0
C191 C 0.52604 0.42201 0.48223 0.0
C192 C 0.50926 0.44131 0.47484 0.0
C193 C 0.44181 0.53167 0.54354 0.0
C194 C 0.52301 0.52722 0.58086 0.0
C195 C 0.49467 0.62197 0.58568 0.0
C196 C 0.47847 0.64328 0.57828 0.0
C197 C 0.453 0.63584 0.56057 0.0
C198 C 0.43929 0.65637 0.55018 0.0
C199 C 0.45054 0.68474 0.55762 0.0
C200 C 0.47599 0.69216 0.57558 0.0
C201 C 0.48997 0.67151 0.58571 0.0
C202 C 0.5525 0.57856 0.5221 0.0
C203 C 0.47378 0.58617 0.4839 0.0
O204 O 0.51359 0.51499 0.47291 0.0
O205 O 0.47883 0.48799 0.49916 0.0
O206 O 0.46704 0.53659 0.55548 0.0
O207 O 0.44378 0.52899 0.51401 0.0
O208 O 0.52084 0.51855 0.55192 0.0
O209 O 0.51346 0.54949 0.58873 0.0
O210 O 0.47878 0.59662 0.59027 0.0
O211 O 0.51733 0.62233 0.56809 0.0
O212 O 0.52746 0.57426 0.50984 0.0
O213 O 0.55044 0.58185 0.55151 0.0
O214 O 0.47532 0.59411 0.51299 0.0
O215 O 0.48218 0.56316 0.47606 0.0
H216 H 0.55173 0.49969 0.50833 0.0
H217 H 0.58108 0.4663 0.52091 0.0
H218 H 0.51856 0.4003 0.47512 0.0
H219 H 0.48904 0.43426 0.46229 0.0
H220 H 0.44394 0.61417 0.55419 0.0
H221 H 0.42004 0.65 0.53597 0.0
H222 H 0.4849 0.71381 0.58213 0.0
H223 H 0.50987 0.67758 0.59899 0.0
Sm224 Sm 1.0036 0.55062 0.05772 0.0
Sm225 Sm 0.9936 0.60218 1.02184 0.0
C226 C 0.02489 0.51061 0.08383 0.0
C227 C 0.05294 0.5064 0.09612 0.0
C228 C 0.07681 0.50542 0.07679 0.0
C229 C 0.10233 0.49944 0.08884 0.0
C230 C 0.10455 0.49436 0.12045 0.0
C231 C 0.08099 0.49637 0.1398 0.0
C232 C 0.05548 0.50216 0.12775 0.0
C233 C 0.97419 0.58482 0.09033 0.0
C234 C 0.05621 0.60886 0.05659 0.0
C235 C 0.97046 0.64524 1.00841 0.0
C236 C 0.94827 0.653 0.98807 0.0
C237 C 0.91817 0.64182 0.99284 0.0
C238 C 0.89728 0.65163 0.97596 0.0
C239 C 0.90588 0.67284 0.95379 0.0
C240 C 0.936 0.68328 0.94828 0.0
C241 C 0.95693 0.67355 0.96531 0.0
C242 C 0.01645 0.56875 0.98048 0.0
C243 C 0.94388 0.5413 1.01838 0.0
O244 O 0.02252 0.51294 0.05407 0.0
O245 O 0.01226 0.52761 0.09924 0.0
O246 O 0.99608 0.59311 0.07276 0.0
O247 O 0.96678 0.5575 0.09037 0.0
O248 O 0.04892 0.5813 0.06045 0.0
O249 O 0.03793 0.62275 0.04431 0.0
O250 O 0.96065 0.62713 0.03031 0.0
O251 O 0.99509 0.64198 0.99608 0.0
O252 O 0.01107 0.56401 1.00872 0.0
O253 O 0.00979 0.5923 0.97326 0.0
O254 O 0.94981 0.56903 1.01556 0.0
O255 O 0.9624 0.52834 0.03157 0.0
H256 H 0.07562 0.50866 0.05229 0.0
H257 H 0.11987 0.4978 0.07317 0.0
H258 H 0.08209 0.49313 0.16431 0.0
H259 H 0.03747 0.50288 0.14319 0.0
H260 H 0.9106 0.62603 1.01028 0.0
H261 H 0.87436 0.64331 0.98119 0.0
H262 H 0.94348 0.69929 0.93106 0.0
H263 H 0.97992 0.68262 0.96116 0.0
C264 C 0.34069 0.31346 0.30519 0.0
C265 C 0.32959 0.30913 0.2753 0.0
C266 C 0.32692 0.29645 0.32924 0.0
C267 C 0.26609 0.27421 0.36489 0.0
H268 H 0.25465 0.19325 0.37128 0.0
C269 C 0.1583 0.20012 0.40037 0.0
C270 C 0.15905 0.17649 0.41837 0.0
C271 C 0.18427 0.21827 0.39091 0.0
C272 C 0.25804 0.21592 0.37032 0.0
H273 H 0.29581 0.28426 0.24685 0.0
H274 H 0.27287 0.25331 0.28835 0.0
H275 H 0.29404 0.21979 0.33881 0.0
H276 H 0.1875 0.15441 0.44231 0.0
H277 H 0.23293 0.18584 0.42504 0.0
H278 H 0.22862 0.27017 0.39433 0.0
C279 C 0.29231 0.26951 0.29315 0.0
C280 C 0.28053 0.231 0.3518 0.0
C281 C 0.30561 0.28685 0.26939 0.0
C282 C 0.18626 0.1721 0.42786 0.0
C283 C 0.21222 0.19014 0.4182 0.0
C284 C 0.24332 0.2591 0.38305 0.0
C285 C 0.30233 0.27475 0.32331 0.0
C286 C 0.28414 0.26008 0.34838 0.0
C287 C 0.21144 0.21305 0.39916 0.0
C288 C 0.23856 0.22972 0.38511 0.0
H289 H 0.35864 0.33115 0.31012 0.0
H290 H 0.33456 0.30098 0.35253 0.0
H291 H 0.26832 0.29663 0.36203 0.0
H292 H 0.13772 0.20392 0.39244 0.0
H293 H 0.18307 0.23556 0.37583 0.0
C294 C 0.343 0.93247 0.68031 0.0
C295 C 0.31342 0.91988 0.68576 0.0
C296 C 0.35961 0.94864 0.70308 0.0
C297 C 0.35545 0.98353 0.77736 0.0
H298 H 0.41922 0.94956 0.8011 0.0
C299 C 0.3882 0.98194 0.90088 0.0
C300 C 0.41792 0.99138 0.90816 0.0
C301 C 0.37973 0.97595 0.8707 0.0
C302 C 0.40189 0.95962 0.79441 0.0
H303 H 0.27702 0.91624 0.71713 0.0
H304 H 0.30583 0.94495 0.75713 0.0
H305 H 0.39616 0.9386 0.75097 0.0
H306 H 0.46224 0.99946 0.88998 0.0
H307 H 0.44712 0.98919 0.83663 0.0
H308 H 0.36024 1.00353 0.82126 0.0
C309 C 0.31634 0.94223 0.73548 0.0
C310 C 0.3888 0.95351 0.76577 0.0
C311 C 0.29986 0.92581 0.7128 0.0
C312 C 0.43914 0.99269 0.88489 0.0
C313 C 0.43057 0.98675 0.85449 0.0
C314 C 0.36852 0.98965 0.80586 0.0
C315 C 0.34658 0.95278 0.73123 0.0
C316 C 0.3647 0.96453 0.75764 0.0
C317 C 0.40074 0.97948 0.84715 0.0
C318 C 0.39092 0.97676 0.8151 0.0
H319 H 0.35349 0.92854 0.65906 0.0
H320 H 0.38281 0.95687 0.69923 0.0
H321 H 0.33715 0.99252 0.77135 0.0
H322 H 0.37127 0.98089 0.91812 0.0
H323 H 0.35658 0.9696 0.8656 0.0
C324 C 0.65264 0.42308 0.78227 0.0
C325 C 0.63478 0.41191 0.8074 0.0
C326 C 0.64108 0.43452 0.75689 0.0
C327 C 0.57268 0.43334 0.71433 0.0
H328 H 0.6133 0.50652 0.68415 0.0
C329 C 0.53995 0.48484 0.60151 0.0
C330 C 0.53713 0.51281 0.60488 0.0
C331 C 0.55215 0.47148 0.62515 0.0
C332 C 0.6017 0.48602 0.69219 0.0
H333 H 0.5905 0.40401 0.82516 0.0
H334 H 0.57001 0.42283 0.78032 0.0
H335 H 0.6335 0.48517 0.72725 0.0
H336 H 0.54585 0.54869 0.6357 0.0
H337 H 0.56766 0.52583 0.67606 0.0
H338 H 0.54099 0.43416 0.67901 0.0
C339 C 0.5931 0.4229 0.78037 0.0
C340 C 0.61337 0.4737 0.71686 0.0
C341 C 0.60482 0.41198 0.80607 0.0
C342 C 0.54746 0.52713 0.63219 0.0
C343 C 0.56015 0.51404 0.6554 0.0
C344 C 0.56131 0.44542 0.68919 0.0
C345 C 0.61112 0.4346 0.75551 0.0
C346 C 0.59892 0.44729 0.72854 0.0
C347 C 0.56249 0.48595 0.65243 0.0
C348 C 0.57548 0.47209 0.67796 0.0
H349 H 0.67565 0.42291 0.7822 0.0
H350 H 0.65559 0.44304 0.7381 0.0
H351 H 0.56102 0.41292 0.72253 0.0
H352 H 0.53228 0.47312 0.58086 0.0
H353 H 0.55375 0.44988 0.62196 0.0
C354 C 0.91098 0.70199 0.32772 0.0
C355 C 0.88956 0.71758 0.3235 0.0
C356 C 0.92362 0.69099 0.30241 0.0
C357 C 0.93076 0.69299 0.21585 0.0
H358 H 0.93959 0.6166 0.22601 0.0
C359 C 0.97725 0.63138 0.11816 0.0
C360 C 0.96489 0.60237 0.11527 0.0
C361 C 0.96966 0.64704 0.14301 0.0
C362 C 0.93714 0.63788 0.22254 0.0
H363 H 0.86511 0.73422 0.28931 0.0
H364 H 0.8875 0.71596 0.24514 0.0
H365 H 0.92504 0.64163 0.26966 0.0
H366 H 0.93431 0.56742 0.13631 0.0
H367 H 0.92103 0.59441 0.17907 0.0
H368 H 0.94225 0.68889 0.16846 0.0
C369 C 0.89501 0.71235 0.2679 0.0
C370 C 0.92913 0.6525 0.24789 0.0
C371 C 0.88231 0.72317 0.29325 0.0
C372 C 0.9444 0.58966 0.13768 0.0
C373 C 0.93695 0.6052 0.16251 0.0
C374 C 0.93894 0.67838 0.19048 0.0
C375 C 0.91516 0.69521 0.27201 0.0
C376 C 0.92555 0.68028 0.24505 0.0
C377 C 0.9496 0.63414 0.16589 0.0
C378 C 0.94198 0.65041 0.19325 0.0
H379 H 0.91631 0.69655 0.35073 0.0
H380 H 0.9393 0.6783 0.30678 0.0
H381 H 0.92853 0.71435 0.21252 0.0
H382 H 0.99318 0.64193 0.10146 0.0
H383 H 0.98011 0.66917 0.14467 0.0
C384 C 0.34905 0.27961 0.20884 0.0
C385 C 0.36588 0.30549 0.21898 0.0
C386 C 0.36247 0.25785 0.20055 0.0
C387 C 0.43246 0.24506 0.17269 0.0
H388 H 0.39902 0.168 0.19676 0.0
C389 C 0.48911 0.1551 0.14261 0.0
C390 C 0.47106 0.13013 0.1313 0.0
C391 C 0.47693 0.17597 0.15588 0.0
C392 C 0.4085 0.18937 0.18963 0.0
H393 H 0.40963 0.3296 0.22768 0.0
H394 H 0.43354 0.2917 0.21267 0.0
H395 H 0.37659 0.20561 0.21484 0.0
H396 H 0.42598 0.1072 0.12603 0.0
H397 H 0.40477 0.14354 0.1492 0.0
H398 H 0.46407 0.22885 0.14708 0.0
C399 C 0.40992 0.28798 0.21151 0.0
C400 C 0.39566 0.21093 0.20001 0.0
C401 C 0.39638 0.30957 0.22023 0.0
C402 C 0.44055 0.12612 0.13456 0.0
C403 C 0.42838 0.14695 0.14796 0.0
C404 C 0.44526 0.22351 0.16225 0.0
C405 C 0.3931 0.26182 0.2016 0.0
C406 C 0.40739 0.23901 0.19153 0.0
C407 C 0.44639 0.17235 0.1583 0.0
C408 C 0.43337 0.19536 0.17046 0.0
H409 H 0.32558 0.27643 0.20671 0.0
H410 H 0.34892 0.23819 0.19247 0.0
H411 H 0.44177 0.2664 0.16533 0.0
H412 H 0.51269 0.15896 0.14044 0.0
H413 H 0.49146 0.19508 0.164 0.0
C414 C 0.27313 0.94641 0.62866 0.0
C415 C 0.2615 0.92426 0.6486 0.0
C416 C 0.25752 0.96685 0.62262 0.0
C417 C 0.19391 0.99521 0.64594 0.0
H418 H 0.18633 1.00396 0.55806 0.0
C419 C 0.09904 1.03189 0.58651 0.0
C420 C 0.10656 0.05045 0.56174 0.0
C421 C 0.12042 1.021 0.6011 0.0
C422 C 0.18861 1.00214 0.58266 0.0
H423 H 0.22607 0.90634 0.67939 0.0
H424 H 0.19835 0.94224 0.66904 0.0
H425 H 0.22035 0.9774 0.57732 0.0
H426 H 0.14225 0.07329 0.53349 0.0
H427 H 0.17964 0.05387 0.55862 0.0
H428 H 0.16114 1.01922 0.65097 0.0
C429 C 0.21953 0.94408 0.6582 0.0
C430 C 0.20814 0.98701 0.59371 0.0
C431 C 0.23518 0.92359 0.6641 0.0
C432 C 0.13592 0.05894 0.55254 0.0
C433 C 0.15724 0.04777 0.5668 0.0
C434 C 0.17421 1.01033 0.63482 0.0
C435 C 0.23005 0.96526 0.63647 0.0
C436 C 0.21094 0.98331 0.62542 0.0
C437 C 0.14956 1.02829 0.59078 0.0
C438 C 0.17138 1.01381 0.60307 0.0
H439 H 0.29344 0.94687 0.61651 0.0
H440 H 0.26628 0.98314 0.60606 0.0
H441 H 0.1957 0.99266 0.6705 0.0
H442 H 0.07661 1.02545 0.59422 0.0
H443 H 0.11395 1.00593 0.61948 0.0
C444 C 0.70174 0.41135 0.92263 0.0
C445 C 0.70278 0.40219 0.89212 0.0
C446 C 0.72773 0.42354 0.93836 0.0
C447 C 0.80361 0.46268 0.92127 0.0
H448 H 0.81815 0.45279 1.00758 0.0
C449 C 0.89862 0.53678 0.98598 0.0
C450 C 0.91568 0.52439 1.00579 0.0
C451 C 0.87263 0.52088 0.9733 0.0
C452 C 0.81449 0.45571 0.9834 0.0
H453 H 0.73155 0.39754 0.85461 0.0
H454 H 0.77679 0.41816 0.8819 0.0
H455 H 0.77319 0.42552 0.98398 0.0
H456 H 0.91813 0.48536 0.02806 0.0
H457 H 0.87258 0.45774 1.00624 0.0
H458 H 0.84468 0.49287 0.92058 0.0
C459 C 0.7561 0.41635 0.89378 0.0
C460 C 0.78858 0.44021 0.96992 0.0
C461 C 0.73025 0.40414 0.87824 0.0
C462 C 0.90567 0.49567 1.01289 0.0
C463 C 0.87942 0.47983 1.00049 0.0
C464 C 0.82926 0.47835 0.93479 0.0
C465 C 0.75526 0.42706 0.92374 0.0
C466 C 0.78282 0.44336 0.93858 0.0
C467 C 0.86263 0.49214 0.98028 0.0
C468 C 0.83514 0.47513 0.96605 0.0
H469 H 0.68082 0.41065 0.93357 0.0
H470 H 0.72614 0.43163 0.96133 0.0
H471 H 0.79987 0.46605 0.89721 0.0
H472 H 0.90552 0.55879 0.97988 0.0
H473 H 0.8602 0.53121 0.95811 0.0
C474 C 0.80037 0.6831 0.42257 0.0
C475 C 0.80222 0.69235 0.39197 0.0
C476 C 0.77339 0.6695 0.43549 0.0
C477 C 0.69256 0.65879 0.42448 0.0
H478 H 0.68899 0.59861 0.48315 0.0
C479 C 0.58164 0.59437 0.47368 0.0
C480 C 0.58078 0.5881 0.50522 0.0
C481 C 0.60841 0.60574 0.4588 0.0
C482 C 0.68954 0.61554 0.46702 0.0
H483 H 0.77732 0.69462 0.35089 0.0
H484 H 0.73022 0.67042 0.37302 0.0
H485 H 0.73567 0.621 0.45962 0.0
H486 H 0.60755 0.58819 0.54557 0.0
H487 H 0.65395 0.60777 0.51983 0.0
H488 H 0.64638 0.65331 0.43197 0.0
C489 C 0.74949 0.67394 0.38735 0.0
C490 C 0.71646 0.62849 0.45349 0.0
C491 C 0.77651 0.68755 0.37448 0.0
C492 C 0.60738 0.59275 0.52126 0.0
C493 C 0.63409 0.60389 0.50639 0.0
C494 C 0.66561 0.64579 0.43797 0.0
C495 C 0.74745 0.66473 0.41812 0.0
C496 C 0.71848 0.65045 0.43211 0.0
C497 C 0.63507 0.61089 0.475 0.0
C498 C 0.66368 0.62405 0.4596 0.0
H499 H 0.81989 0.68647 0.43651 0.0
H500 H 0.77287 0.66315 0.45932 0.0
H501 H 0.69312 0.67588 0.40856 0.0
H502 H 0.56157 0.5911 0.46064 0.0
H503 H 0.60821 0.6105 0.43455 0.0
C504 C 0.2955 0.3715 0.18301 0.0
C505 C 0.31491 0.38233 0.20672 0.0
C506 C 0.27528 0.38634 0.1727 0.0
C507 C 0.25469 0.45543 0.17465 0.0
H508 H 0.17689 0.40882 0.1622 0.0
C509 C 0.15883 0.49647 0.12151 0.0
C510 C 0.13045 0.48526 0.1329 0.0
C511 C 0.18266 0.4862 0.13173 0.0
C512 C 0.19839 0.42224 0.16587 0.0
H513 H 0.32944 0.41745 0.23747 0.0
H514 H 0.29373 0.44353 0.2198 0.0
H515 H 0.21649 0.3871 0.17646 0.0
H516 H 0.10519 0.45481 0.16461 0.0
H517 H 0.14663 0.43765 0.18297 0.0
H518 H 0.23616 0.49069 0.16466 0.0
C519 C 0.29433 0.42373 0.20884 0.0
C520 C 0.22126 0.40971 0.17358 0.0
C521 C 0.31468 0.40886 0.21904 0.0
C522 C 0.1267 0.46419 0.15548 0.0
C523 C 0.15046 0.45404 0.16574 0.0
C524 C 0.2317 0.46803 0.1669 0.0
C525 C 0.27383 0.41224 0.18613 0.0
C526 C 0.24975 0.42606 0.17787 0.0
C527 C 0.17864 0.46447 0.15356 0.0
C528 C 0.20325 0.45155 0.1624 0.0
H529 H 0.295 0.35086 0.17358 0.0
H530 H 0.26018 0.3771 0.1548 0.0
H531 H 0.27639 0.46863 0.17775 0.0
H532 H 0.16262 0.51299 0.10444 0.0
H533 H 0.20404 0.49465 0.12176 0.0
C534 C 0.65711 0.32502 0.88688 0.0
C535 C 0.65035 0.35073 0.89481 0.0
C536 C 0.64659 0.30076 0.90466 0.0
C537 C 0.58518 0.27083 0.95764 0.0
H538 H 0.628 0.21329 0.97334 0.0
C539 C 0.5319 0.17355 0.03035 0.0
C540 C 0.53895 0.14757 1.02454 0.0
C541 C 0.5477 0.19832 1.01649 0.0
C542 C 0.61541 0.22885 0.96889 0.0
H543 H 0.62793 0.37144 0.92776 0.0
H544 H 0.61 0.32948 0.95933 0.0
H545 H 0.65187 0.2561 0.94616 0.0
H546 H 0.56858 0.12735 0.99972 0.0
H547 H 0.59534 0.17021 0.9742 0.0
H548 H 0.54844 0.24362 0.97897 0.0
C549 C 0.62322 0.32778 0.93926 0.0
C550 C 0.62929 0.25362 0.95333 0.0
C551 C 0.63382 0.35197 0.92151 0.0
C552 C 0.56267 0.14706 1.00481 0.0
C553 C 0.57812 0.17184 0.99026 0.0
C554 C 0.57122 0.24601 0.97275 0.0
C555 C 0.62876 0.30158 0.93069 0.0
C556 C 0.61444 0.27511 0.94764 0.0
C557 C 0.57069 0.19796 0.99554 0.0
C558 C 0.58604 0.22453 0.97895 0.0
H559 H 0.66926 0.32344 0.86598 0.0
H560 H 0.65116 0.28106 0.89707 0.0
H561 H 0.57267 0.28645 0.95312 0.0
H562 H 0.51401 0.17477 0.04575 0.0
H563 H 0.54165 0.21778 1.02235 0.0
C564 C 0.91185 0.76485 0.4045 0.0
C565 C 0.89618 0.76254 0.37685 0.0
C566 C 0.92654 0.79115 0.41599 0.0
C567 C 0.92723 0.86829 0.40819 0.0
H568 H 0.99039 0.87628 0.46681 0.0
C569 C 0.98671 0.977 0.46023 0.0
C570 C 0.993 0.97786 0.49188 0.0
C571 C 0.97598 0.95124 0.44502 0.0
C572 C 0.97261 0.87445 0.45064 0.0
H573 H 0.88492 0.78613 0.33884 0.0
H574 H 0.91212 0.83201 0.35752 0.0
H575 H 0.97257 0.83147 0.44099 0.0
H576 H 0.99282 0.95173 0.53208 0.0
H577 H 0.97458 0.90708 0.50558 0.0
H578 H 0.92793 0.91166 0.41759 0.0
C579 C 0.9124 0.81358 0.37111 0.0
C580 C 0.96219 0.84852 0.43575 0.0
C581 C 0.89738 0.78714 0.35981 0.0
C582 C 0.98824 0.9521 0.50776 0.0
C583 C 0.97792 0.92636 0.49246 0.0
C584 C 0.93798 0.89435 0.42277 0.0
C585 C 0.92636 0.81623 0.40004 0.0
C586 C 0.93903 0.84474 0.41443 0.0
C587 C 0.97162 0.92546 0.46082 0.0
C588 C 0.96065 0.8978 0.44449 0.0
H589 H 0.91061 0.74635 0.41854 0.0
H590 H 0.9364 0.79173 0.43844 0.0
H591 H 0.90904 0.86656 0.3926 0.0
H592 H 0.99003 0.99627 0.44712 0.0
H593 H 0.97161 0.95152 0.42065 0.0
C594 C 0.31312 0.86024 0.58238 0.0
C595 C 0.29876 0.84692 0.60849 0.0
C596 C 0.3286 0.84593 0.56314 0.0
C597 C 0.37943 0.81113 0.56464 0.0
H598 H 0.35156 0.74842 0.50946 0.0
C599 C 0.40402 0.69986 0.5492 0.0
C600 C 0.43472 0.70616 0.54806 0.0
C601 C 0.38884 0.7205 0.54316 0.0
C602 C 0.35976 0.76623 0.52437 0.0
H603 H 0.28765 0.8085 0.63465 0.0
H604 H 0.31445 0.78289 0.60047 0.0
H605 H 0.31855 0.77826 0.52528 0.0
H606 H 0.47356 0.73856 0.53766 0.0
H607 H 0.44678 0.77518 0.5281 0.0
H608 H 0.41954 0.79765 0.56654 0.0
C609 C 0.31346 0.80424 0.59481 0.0
C610 C 0.34096 0.78319 0.53327 0.0
C611 C 0.29823 0.81867 0.61419 0.0
C612 C 0.4499 0.73327 0.5393 0.0
C613 C 0.43463 0.7541 0.53351 0.0
C614 C 0.39813 0.79404 0.55604 0.0
C615 C 0.32939 0.81813 0.56981 0.0
C616 C 0.35047 0.80497 0.55432 0.0
C617 C 0.404 0.748 0.53615 0.0
C618 C 0.38794 0.77062 0.53703 0.0
H619 H 0.31405 0.88228 0.57825 0.0
H620 H 0.34122 0.85693 0.54417 0.0
H621 H 0.38684 0.82776 0.58126 0.0
H622 H 0.39164 0.67936 0.55638 0.0
H623 H 0.36528 0.71531 0.54612 0.0
C624 C 0.73065 0.86597 0.8114 0.0
C625 C 0.71143 0.83941 0.81022 0.0
C626 C 0.75427 0.87266 0.79119 0.0
C627 C 0.78299 0.87489 0.72203 0.0
H628 H 0.85811 0.86621 0.75203 0.0
C629 C 0.89076 0.92072 0.65698 0.0
C630 C 0.91325 0.93613 0.67555 0.0
C631 C 0.86593 0.90339 0.67022 0.0
C632 C 0.83728 0.86862 0.74325 0.0
H633 H 0.70181 0.79876 0.78798 0.0
H634 H 0.74374 0.81063 0.75199 0.0
H635 H 0.81341 0.84563 0.78076 0.0
H636 H 0.92732 0.94524 0.72258 0.0
H637 H 0.88421 0.91505 0.7456 0.0
H638 H 0.80675 0.8993 0.68555 0.0
C639 C 0.74007 0.82617 0.76843 0.0
C640 C 0.81181 0.85664 0.75951 0.0
C641 C 0.71632 0.81945 0.78879 0.0
C642 C 0.91067 0.93331 0.70759 0.0
C643 C 0.88594 0.91595 0.7208 0.0
C644 C 0.80846 0.88689 0.70572 0.0
C645 C 0.75909 0.85284 0.76965 0.0
C646 C 0.78468 0.86029 0.74934 0.0
C647 C 0.86317 0.90103 0.70229 0.0
C648 C 0.83596 0.8846 0.71671 0.0
H649 H 0.7276 0.88129 0.82838 0.0
H650 H 0.76903 0.89322 0.79257 0.0
H651 H 0.76216 0.87817 0.71419 0.0
H652 H 0.89229 0.9221 0.63219 0.0
H653 H 0.84884 0.89194 0.65538 0.0
C654 C 0.75191 0.21218 0.42765 0.0
C655 C 0.73925 0.20559 0.45663 0.0
C656 C 0.73744 0.19981 0.40158 0.0
C657 C 0.68016 0.14625 0.36818 0.0
H658 H 0.66186 0.20848 0.32309 0.0
C659 C 0.60789 0.12847 0.26046 0.0
C660 C 0.62003 0.14527 0.23539 0.0
C661 C 0.61903 0.13482 0.2899 0.0
C662 C 0.66688 0.1909 0.33533 0.0
H663 H 0.70403 0.17892 0.4821 0.0
H664 H 0.67862 0.15661 0.43614 0.0
H665 H 0.69213 0.21783 0.36882 0.0
H666 H 0.65252 0.18233 0.2215 0.0
H667 H 0.67192 0.19337 0.27256 0.0
H668 H 0.65581 0.11933 0.33397 0.0
C669 C 0.69951 0.17146 0.4336 0.0
C670 C 0.68421 0.19625 0.36136 0.0
C671 C 0.71391 0.18409 0.4597 0.0
C672 C 0.64248 0.16922 0.24043 0.0
C673 C 0.65359 0.17554 0.26974 0.0
C674 C 0.66308 0.14086 0.34175 0.0
C675 C 0.7104 0.18052 0.40443 0.0
C676 C 0.69145 0.17403 0.37753 0.0
C677 C 0.64242 0.15808 0.29464 0.0
C678 C 0.65683 0.16324 0.32477 0.0
H679 H 0.77138 0.2289 0.42509 0.0
H680 H 0.74617 0.20689 0.37914 0.0
H681 H 0.68533 0.12889 0.3807 0.0
H682 H 0.5902 0.11013 0.25721 0.0
H683 H 0.60974 0.12129 0.30881 0.0
C684 C 0.3964 0.71351 0.26368 0.0
C685 C 0.38239 0.73535 0.27062 0.0
C686 C 0.40886 0.70004 0.28685 0.0
C687 C 0.40433 0.68736 0.37223 0.0
H688 H 0.46837 0.65134 0.35588 0.0
C689 C 0.45409 0.62837 0.46798 0.0
C690 C 0.46328 0.60375 0.45991 0.0
C691 C 0.44514 0.64533 0.44552 0.0
C692 C 0.45023 0.66094 0.3609 0.0
H693 H 0.37113 0.76055 0.30752 0.0
H694 H 0.39398 0.73813 0.34804 0.0
H695 H 0.45339 0.68038 0.31656 0.0
H696 H 0.47005 0.57797 0.42116 0.0
H697 H 0.45446 0.60725 0.3822 0.0
H698 H 0.40135 0.66794 0.41668 0.0
C699 C 0.39503 0.73092 0.32464 0.0
C700 C 0.44154 0.67777 0.33815 0.0
C701 C 0.38248 0.74434 0.30131 0.0
C702 C 0.46315 0.59667 0.4285 0.0
C703 C 0.45437 0.61371 0.40599 0.0
C704 C 0.41314 0.67064 0.39506 0.0
C705 C 0.40772 0.70789 0.31799 0.0
C706 C 0.41823 0.69117 0.34319 0.0
C707 C 0.44526 0.63844 0.41403 0.0
C708 C 0.43612 0.6569 0.38977 0.0
H709 H 0.39583 0.70551 0.24042 0.0
H710 H 0.41784 0.68231 0.28036 0.0
H711 H 0.38597 0.69667 0.3772 0.0
H712 H 0.45405 0.63478 0.49176 0.0
H713 H 0.4387 0.66424 0.45291 0.0
C714 C 0.10259 0.44024 0.76384 0.0
C715 C 0.12942 0.43266 0.76812 0.0
C716 C 0.09035 0.45414 0.78717 0.0
C717 C 0.10862 0.49175 0.86406 0.0
H718 H 0.02495 0.48611 0.86633 0.0
C719 C 0.04697 0.53333 0.96667 0.0
C720 C 0.02834 0.5508 0.95791 0.0
C721 C 0.05942 0.51834 0.9444 0.0
C722 C 0.04839 0.48796 0.86606 0.0
H723 H 0.16418 0.43331 0.80051 0.0
H724 H 0.14265 0.4562 0.8416 0.0
H725 H 0.04579 0.46114 0.82678 0.0
H726 H 0.00781 0.56553 0.91881 0.0
H727 H 0.02827 0.53859 0.88049 0.0
H728 H 0.11065 0.51785 0.90431 0.0
C729 C 0.13115 0.45252 0.82002 0.0
C730 C 0.06058 0.47375 0.843 0.0
C731 C 0.14355 0.43905 0.79647 0.0
C732 C 0.02201 0.55229 0.92647 0.0
C733 C 0.03372 0.53676 0.90442 0.0
C734 C 0.09629 0.50543 0.88754 0.0
C735 C 0.1043 0.46056 0.81591 0.0
C736 C 0.09105 0.47548 0.84124 0.0
C737 C 0.05288 0.51976 0.9129 0.0
C738 C 0.066 0.50396 0.88878 0.0
H739 H 0.09134 0.43587 0.74213 0.0
H740 H 0.07012 0.46025 0.78222 0.0
H741 H 0.13214 0.49451 0.86367 0.0
H742 H 0.05252 0.53183 0.99061 0.0
H743 H 0.07401 0.50543 0.95185 0.0
C744 C 0.65164 0.86983 0.90911 0.0
C745 C 0.63811 0.85556 0.88322 0.0
C746 C 0.6384 0.88837 0.92525 0.0
C747 C 0.5847 0.93243 0.91569 0.0
H748 H 0.59174 0.93934 1.00418 0.0
C749 C 0.53024 1.0066 0.98873 0.0
C750 C 0.54744 1.02176 1.01222 0.0
C751 C 0.54001 0.98578 0.97231 0.0
C752 C 0.5898 0.93782 0.97943 0.0
H753 H 0.60021 0.84885 0.85392 0.0
H754 H 0.5765 0.88115 0.88236 0.0
H755 H 0.6099 0.90272 0.97766 0.0
H756 H 0.58866 1.02727 0.03643 0.0
H757 H 0.60564 0.99111 1.00777 0.0
H758 H 0.56453 0.96762 0.91763 0.0
C759 C 0.59751 0.87827 0.89009 0.0
C760 C 0.60021 0.91682 0.96422 0.0
C761 C 0.61085 0.85968 0.87395 0.0
C762 C 0.57485 1.01603 1.01848 0.0
C763 C 0.58449 0.99512 1.00224 0.0
C764 C 0.57414 0.95338 0.93097 0.0
C765 C 0.6113 0.89307 0.91578 0.0
C766 C 0.59818 0.91409 0.93211 0.0
C767 C 0.56705 0.97953 0.97923 0.0
C768 C 0.57697 0.95655 0.96297 0.0
H769 H 0.67298 0.8673 0.91618 0.0
H770 H 0.64993 0.89975 0.94454 0.0
H771 H 0.58311 0.93118 0.89091 0.0
H772 H 0.50901 1.01048 0.98329 0.0
H773 H 0.52602 0.97405 0.95479 0.0
C774 C 0.78956 0.18828 0.4973 0.0
C775 C 0.79709 0.21667 0.48893 0.0
C776 C 0.81061 0.1724 0.49717 0.0
C777 C 0.87755 0.16052 0.46857 0.0
H778 H 0.88814 0.13585 0.55148 0.0
C779 C 0.96464 0.09903 0.50626 0.0
C780 C 0.95515 0.07828 0.52863 0.0
C781 C 0.94614 0.11605 0.49671 0.0
C782 C 0.88525 0.14232 0.52815 0.0
H783 H 0.83152 0.25054 0.47184 0.0
H784 H 0.86908 0.22241 0.47177 0.0
H785 H 0.85486 0.16648 0.54237 0.0
H786 H 0.91856 0.05735 0.55686 0.0
H787 H 0.88602 0.08649 0.53975 0.0
H788 H 0.90746 0.13552 0.45429 0.0
C789 C 0.84682 0.21269 0.47849 0.0
C790 C 0.86645 0.16 0.52305 0.0
C791 C 0.82563 0.22873 0.47886 0.0
C792 C 0.92642 0.07346 0.53982 0.0
C793 C 0.90792 0.09023 0.53016 0.0
C794 C 0.89638 0.14252 0.47366 0.0
C795 C 0.83947 0.18465 0.4884 0.0
C796 C 0.86204 0.16875 0.49323 0.0
C797 C 0.91796 0.11237 0.50944 0.0
C798 C 0.89977 0.13276 0.50347 0.0
H799 H 0.76758 0.17875 0.50507 0.0
H800 H 0.80463 0.15076 0.50488 0.0
H801 H 0.87427 0.16714 0.44539 0.0
H802 H 0.98677 0.1031 0.49742 0.0
H803 H 0.95441 0.13298 0.48072 0.0
C804 C 0.29099 0.69744 0.18904 0.0
C805 C 0.29422 0.72334 0.20428 0.0
C806 C 0.26536 0.68581 0.17277 0.0
C807 C 0.2017 0.7045 0.13481 0.0
H808 H 0.168 0.62453 0.14019 0.0
C809 C 0.08932 0.65231 0.07919 0.0
C810 C 0.08491 0.62428 0.06912 0.0
C811 C 0.11504 0.66528 0.09481 0.0
C812 C 0.17726 0.64684 0.13784 0.0
H813 H 0.27294 0.75713 0.21486 0.0
H814 H 0.22822 0.73708 0.18617 0.0
H815 H 0.21182 0.64492 0.16911 0.0
H816 H 0.10483 0.58844 0.06624 0.0
H817 H 0.14984 0.61119 0.09189 0.0
H818 H 0.16743 0.7064 0.10313 0.0
C819 C 0.24559 0.72581 0.18654 0.0
C820 C 0.20247 0.65858 0.15466 0.0
C821 C 0.27115 0.73729 0.20303 0.0
C822 C 0.10735 0.60999 0.07388 0.0
C823 C 0.13314 0.62302 0.089 0.0
C824 C 0.17659 0.6927 0.11769 0.0
C825 C 0.24233 0.6999 0.17111 0.0
C826 C 0.21513 0.68756 0.15337 0.0
C827 C 0.1372 0.65066 0.10044 0.0
C828 C 0.16399 0.66361 0.1188 0.0
H829 H 0.30859 0.68646 0.18923 0.0
H830 H 0.26385 0.66602 0.1609 0.0
H831 H 0.21097 0.72687 0.13296 0.0
H832 H 0.07236 0.66384 0.07622 0.0
H833 H 0.117 0.68644 0.10339 0.0
C834 C 0.19927 0.41886 0.65823 0.0
C835 C 0.20057 0.4134 0.68978 0.0
C836 C 0.22505 0.42959 0.6412 0.0
C837 C 0.30771 0.44327 0.64504 0.0
H838 H 0.30457 0.49972 0.58367 0.0
C839 C 0.41388 0.51397 0.59231 0.0
C840 C 0.41394 0.51997 0.56072 0.0
C841 C 0.38785 0.50066 0.60755 0.0
C842 C 0.30593 0.48381 0.6005 0.0
H843 H 0.22985 0.41391 0.72788 0.0
H844 H 0.27457 0.43245 0.69872 0.0
H845 H 0.25981 0.47557 0.60967 0.0
H846 H 0.38627 0.51706 0.52067 0.0
H847 H 0.34115 0.49411 0.54703 0.0
H848 H 0.35391 0.45183 0.63611 0.0
C849 C 0.25394 0.42827 0.68663 0.0
C850 C 0.28005 0.46976 0.61544 0.0
C851 C 0.22825 0.41756 0.7035 0.0
C852 C 0.38711 0.51288 0.54501 0.0
C853 C 0.3611 0.49974 0.56024 0.0
C854 C 0.33359 0.45742 0.63021 0.0
C855 C 0.25286 0.43518 0.6553 0.0
C856 C 0.28042 0.44928 0.63811 0.0
C857 C 0.36101 0.49309 0.59172 0.0
C858 C 0.33322 0.47802 0.60773 0.0
H859 H 0.17822 0.41629 0.64717 0.0
H860 H 0.22306 0.43407 0.61709 0.0
H861 H 0.30917 0.42738 0.66184 0.0
H862 H 0.43409 0.51906 0.60517 0.0
H863 H 0.3888 0.49634 0.63185 0.0
C864 C 0.73698 0.81139 0.86654 0.0
C865 C 0.70797 0.79764 0.86035 0.0
C866 C 0.75795 0.79595 0.87265 0.0
C867 C 0.76557 0.72688 0.90057 0.0
H868 H 0.845 0.75206 0.87002 0.0
C869 C 0.85628 0.66806 0.92934 0.0
C870 C 0.88354 0.68505 0.93787 0.0
C871 C 0.83464 0.67996 0.91644 0.0
C872 C 0.82297 0.74484 0.87891 0.0
H873 H 0.67786 0.75731 0.85541 0.0
H874 H 0.71455 0.7299 0.86631 0.0
H875 H 0.80744 0.77609 0.8538 0.0
H876 H 0.90923 0.72803 0.93919 0.0
H877 H 0.87175 0.74862 0.9166 0.0
H878 H 0.78121 0.69596 0.92614 0.0
C879 C 0.72113 0.75264 0.86657 0.0
C880 C 0.80143 0.75862 0.86959 0.0
C881 C 0.70017 0.76818 0.8603 0.0
C882 C 0.88877 0.71416 0.93245 0.0
C883 C 0.8672 0.72602 0.91949 0.0
C884 C 0.78714 0.7131 0.90992 0.0
C885 C 0.7503 0.76637 0.8729 0.0
C886 C 0.77257 0.75013 0.88072 0.0
C887 C 0.83972 0.70914 0.91162 0.0
C888 C 0.81624 0.72221 0.89962 0.0
H889 H 0.74324 0.83414 0.86707 0.0
H890 H 0.78004 0.80724 0.87794 0.0
H891 H 0.74364 0.71996 0.90983 0.0
H892 H 0.85159 0.64552 0.93269 0.0
H893 H 0.81389 0.66627 0.91024 0.0
C894 C 0.38256 0.81522 0.24731 0.0
C895 C 0.38637 0.79085 0.23218 0.0
C896 C 0.39747 0.84209 0.23739 0.0
C897 C 0.43047 0.87828 0.16623 0.0
H898 H 0.45686 0.94203 0.22029 0.0
C899 C 0.46527 0.99382 0.12011 0.0
C900 C 0.48998 1.01134 0.13373 0.0
C901 C 0.45261 0.96718 0.13267 0.0
C902 C 0.44976 0.9245 0.20474 0.0
H903 H 0.4095 0.77562 0.19528 0.0
H904 H 0.43628 0.8223 0.17834 0.0
H905 H 0.43799 0.89541 0.24203 0.0
H906 H 0.52041 1.01449 0.17148 0.0
H907 H 0.49853 0.96865 0.19324 0.0
H908 H 0.44242 0.90736 0.12892 0.0
C909 C 0.42165 0.8208 0.19789 0.0
C910 C 0.43867 0.89766 0.2173 0.0
C911 C 0.40692 0.79396 0.20808 0.0
C912 C 0.5013 1.00171 0.16044 0.0
C913 C 0.4886 0.97532 0.17306 0.0
C914 C 0.44138 0.90517 0.15365 0.0
C915 C 0.41638 0.84536 0.2117 0.0
C916 C 0.42896 0.87404 0.19829 0.0
C917 C 0.46417 0.95745 0.15934 0.0
C918 C 0.45137 0.92876 0.17269 0.0
H919 H 0.36606 0.81352 0.26513 0.0
H920 H 0.39254 0.86031 0.24857 0.0
H921 H 0.42278 0.86082 0.15072 0.0
H922 H 0.45607 1.00044 0.09943 0.0
H923 H 0.43367 0.95425 0.12152 0.0
C924 C 0.12231 0.35681 0.66849 0.0
C925 C 0.14599 0.36327 0.68889 0.0
C926 C 0.11394 0.3301 0.65476 0.0
C927 C 0.12016 0.25517 0.66445 0.0
H928 H 0.08531 0.24662 0.58362 0.0
C929 C 0.06264 0.1443 0.61495 0.0
C930 C 0.06289 0.14009 0.58293 0.0
C931 C 0.07358 0.1712 0.62789 0.0
C932 C 0.09526 0.24832 0.6061 0.0
H933 H 0.17967 0.3467 0.71064 0.0
H934 H 0.16566 0.3001 0.68628 0.0
H935 H 0.10441 0.2933 0.60425 0.0
H936 H 0.07597 0.16129 0.53971 0.0
H937 H 0.09566 0.20723 0.5619 0.0
H938 H 0.1117 0.21009 0.66589 0.0
C939 C 0.15324 0.31561 0.68095 0.0
C940 C 0.10594 0.27543 0.61824 0.0
C941 C 0.16168 0.3425 0.69457 0.0
C942 C 0.0749 0.16354 0.56442 0.0
C943 C 0.08613 0.19021 0.57728 0.0
C944 C 0.10958 0.22797 0.65221 0.0
C945 C 0.12888 0.30874 0.66111 0.0
C946 C 0.11849 0.27947 0.64771 0.0
C947 C 0.08547 0.19478 0.60927 0.0
C948 C 0.09686 0.22395 0.62275 0.0
H949 H 0.10952 0.37224 0.66412 0.0
H950 H 0.0949 0.32593 0.6401 0.0
H951 H 0.12924 0.25706 0.68735 0.0
H952 H 0.05355 0.12689 0.63006 0.0
H953 H 0.07217 0.17351 0.65253 0.0
C954 C 0.74597 0.31146 0.50628 0.0
C955 C 0.74193 0.28651 0.52318 0.0
C956 C 0.72795 0.33008 0.51179 0.0
C957 C 0.68495 0.36587 0.54081 0.0
H958 H 0.61057 0.32354 0.50916 0.0
C959 C 0.58282 0.41183 0.53653 0.0
C960 C 0.57005 0.41074 0.50731 0.0
C961 C 0.60321 0.39593 0.54287 0.0
C962 C 0.63114 0.3355 0.5182 0.0
H963 H 0.71849 0.26226 0.56048 0.0
H964 H 0.68682 0.29494 0.57038 0.0
H965 H 0.65125 0.30039 0.51549 0.0
H966 H 0.56732 0.39108 0.46238 0.0
H967 H 0.60272 0.36281 0.47371 0.0
H968 H 0.66499 0.40113 0.54316 0.0
C969 C 0.70396 0.30023 0.55319 0.0
C970 C 0.65422 0.32229 0.52199 0.0
C971 C 0.72212 0.28179 0.54779 0.0
C972 C 0.5767 0.39218 0.48514 0.0
C973 C 0.59697 0.3761 0.49159 0.0
C974 C 0.66167 0.37902 0.5375 0.0
C975 C 0.70583 0.32365 0.53416 0.0
C976 C 0.68125 0.33747 0.53307 0.0
C977 C 0.61093 0.37845 0.52023 0.0
C978 C 0.63472 0.36399 0.52581 0.0
H979 H 0.76069 0.31485 0.4867 0.0
H980 H 0.72932 0.34788 0.49662 0.0
H981 H 0.70582 0.37785 0.54908 0.0
H982 H 0.57757 0.42553 0.55426 0.0
H983 H 0.61334 0.39766 0.5653 0.0
loop_
_geom_bond_atom_site_label_1
_geom_bond_atom_site_label_2
_geom_bond_distance
_geom_bond_site_symmetry_2
_ccdc_geom_bond_type
C0 N1 1.317 . S
C0 N2 1.348 . S
C0 C3 1.485 . S
N1 C0 1.317 . S
N1 N5 1.370 . S
N2 C0 1.348 . S
N2 C4 1.346 . S
C3 C0 1.485 . S
C3 H7 0.960 . S
C3 H8 0.961 . S
C3 H9 0.960 . S
C4 N2 1.346 . S
C4 N5 1.307 . S
C4 C6 1.486 . S
N5 N1 1.370 . S
N5 C4 1.307 . S
C6 C4 1.486 . S
C6 H10 0.960 . S
C6 H11 0.960 . S
C6 H12 0.959 . S
H7 C3 0.960 . S
H8 C3 0.961 . S
H9 C3 0.960 . S
H10 C6 0.960 . S
H11 C6 0.960 . S
H12 C6 0.959 . S
C13 N14 1.317 . S
C13 N15 1.348 . S
C13 C16 1.485 . S
N14 C13 1.317 . S
N14 N18 1.370 . S
N15 C13 1.348 . S
N15 C17 1.346 . S
C16 C13 1.485 . S
C16 H20 0.960 . S
C16 H21 0.961 . S
C16 H22 0.960 . S
C17 N15 1.346 . S
C17 N18 1.307 . S
C17 C19 1.486 . S
N18 N14 1.370 . S
N18 C17 1.307 . S
C19 C17 1.486 . S
C19 H23 0.960 . S
C19 H24 0.960 . S
C19 H25 0.959 . S
H20 C16 0.960 . S
H21 C16 0.961 . S
H22 C16 0.960 . S
H23 C19 0.960 . S
H24 C19 0.960 . S
H25 C19 0.959 . S
C26 N27 1.317 . S
C26 N28 1.348 . S
C26 C29 1.485 . S
N27 C26 1.317 . S
N27 N31 1.370 . S
N28 C26 1.348 . S
N28 C30 1.346 . S
C29 C26 1.485 . S
C29 H33 0.960 . S
C29 H34 0.961 . S
C29 H35 0.960 . S
C30 N28 1.346 . S
C30 N31 1.307 . S
C30 C32 1.486 . S
N31 N27 1.370 . S
N31 C30 1.307 . S
C32 C30 1.486 . S
C32 H36 0.960 . S
C32 H37 0.960 . S
C32 H38 0.959 . S
H33 C29 0.960 . S
H34 C29 0.961 . S
H35 C29 0.960 . S
H36 C32 0.960 . S
H37 C32 0.960 . S
H38 C32 0.959 . S
C39 N40 1.317 . S
C39 N41 1.348 . S
C39 C42 1.485 . S
N40 C39 1.317 . S
N40 N44 1.370 . S
N41 C39 1.348 . S
N41 C43 1.346 . S
C42 C39 1.485 . S
C42 H46 0.960 . S
C42 H47 0.961 . S
C42 H48 0.960 . S
C43 N41 1.346 . S
C43 N44 1.307 . S
C43 C45 1.486 . S
N44 N40 1.370 . S
N44 C43 1.307 . S
C45 C43 1.486 . S
C45 H49 0.960 . S
C45 H50 0.960 . S
C45 H51 0.959 . S
H46 C42 0.960 . S
H47 C42 0.961 . S
H48 C42 0.960 . S
H49 C45 0.960 . S
H50 C45 0.960 . S
H51 C45 0.959 . S
C52 N53 1.317 . S
C52 N54 1.348 . S
C52 C55 1.485 . S
N53 C52 1.317 . S
N53 N57 1.370 . S
N54 C52 1.348 . S
N54 C56 1.346 . S
C55 C52 1.485 . S
C55 H59 0.960 . S
C55 H60 0.961 . S
C55 H61 0.960 . S
C56 N54 1.346 . S
C56 N57 1.307 . S
C56 C58 1.486 . S
N57 N53 1.370 . S
N57 C56 1.307 . S
C58 C56 1.486 . S
C58 H62 0.960 . S
C58 H63 0.960 . S
C58 H64 0.959 . S
H59 C55 0.960 . S
H60 C55 0.961 . S
H61 C55 0.960 . S
H62 C58 0.960 . S
H63 C58 0.960 . S
H64 C58 0.959 . S
C65 N66 1.317 . S
C65 N67 1.348 . S
C65 C68 1.485 . S
N66 C65 1.317 . S
N66 N70 1.370 . S
N67 C65 1.348 . S
N67 C69 1.346 . S
C68 C65 1.485 . S
C68 H72 0.960 . S
C68 H73 0.961 . S
C68 H74 0.960 . S
C69 N67 1.346 . S
C69 N70 1.307 . S
C69 C71 1.486 . S
N70 N66 1.370 . S
N70 C69 1.307 . S
C71 C69 1.486 . S
C71 H75 0.960 . S
C71 H76 0.960 . S
C71 H77 0.959 . S
H72 C68 0.960 . S
H73 C68 0.961 . S
H74 C68 0.960 . S
H75 C71 0.960 . S
H76 C71 0.960 . S
H77 C71 0.959 . S
C78 N79 1.317 . S
C78 N80 1.348 . S
C78 C81 1.485 . S
N79 C78 1.317 . S
N79 N83 1.370 . S
N80 C78 1.348 . S
N80 C82 1.346 . S
C81 C78 1.485 . S
C81 H85 0.960 . S
C81 H86 0.961 . S
C81 H87 0.960 . S
C82 N80 1.346 . S
C82 N83 1.307 . S
C82 C84 1.486 . S
N83 N79 1.370 . S
N83 C82 1.307 . S
C84 C82 1.486 . S
C84 H88 0.960 . S
C84 H89 0.960 . S
C84 H90 0.959 . S
H85 C81 0.960 . S
H86 C81 0.961 . S
H87 C81 0.960 . S
H88 C84 0.960 . S
H89 C84 0.960 . S
H90 C84 0.959 . S
C91 N92 1.317 . S
C91 N93 1.348 . S
C91 C94 1.485 . S
N92 C91 1.317 . S
N92 N96 1.370 . S
N93 C91 1.348 . S
N93 C95 1.346 . S
C94 C91 1.485 . S
C94 H98 0.960 . S
C94 H99 0.961 . S
C94 H100 0.960 . S
C95 N93 1.346 . S
C95 N96 1.307 . S
C95 C97 1.486 . S
N96 N92 1.370 . S
N96 C95 1.307 . S
C97 C95 1.486 . S
C97 H101 0.960 . S
C97 H102 0.960 . S
C97 H103 0.959 . S
H98 C94 0.960 . S
H99 C94 0.961 . S
H100 C94 0.960 . S
H101 C97 0.960 . S
H102 C97 0.960 . S
H103 C97 0.959 . S
Sm104 C106 2.846 . S
Sm104 O124 2.543 . S
Sm104 O125 2.450 . S
Sm104 O126 2.681 . S
Sm104 O127 2.464 . S
Sm104 O128 2.396 . S
Sm104 O132 2.386 . S
Sm104 O135 2.408 1_545 S
Sm105 C115 2.846 1_445 S
Sm105 O126 2.386 . S
Sm105 O129 2.408 . S
Sm105 O130 2.543 1_545 S
Sm105 O131 2.450 1_445 S
Sm105 O132 2.681 . S
Sm105 O133 2.464 1_455 S
Sm105 O134 2.396 1_445 S
C106 Sm104 2.846 . S
C106 C107 1.506 . S
C106 O124 1.261 . S
C106 O125 1.242 . S
C107 C106 1.506 . S
C107 C108 1.358 . S
C107 C112 1.382 . S
C108 C107 1.358 . S
C108 C109 1.385 . S
C108 H136 0.930 . S
C109 C108 1.385 . S
C109 C110 1.395 . S
C109 H137 0.929 . S
C110 C109 1.395 . S
C110 C111 1.335 . S
C111 C110 1.335 . S
C111 C112 1.398 . S
C111 H138 0.930 . S
C112 C107 1.382 . S
C112 C111 1.398 . S
C112 H139 0.929 . S
C113 O126 1.271 1_565 S
C113 O127 1.251 1_565 S
C114 O128 1.252 . S
C114 O129 1.272 . S
C115 Sm105 2.846 1_665 S
C115 C116 1.506 . S
C115 O130 1.261 1_655 S
C115 O131 1.242 . S
C116 C115 1.506 . S
C116 C117 1.358 . S
C116 C121 1.382 . S
C117 C116 1.358 . S
C117 C118 1.385 . S
C117 H140 0.930 . S
C118 C117 1.385 . S
C118 C119 1.395 . S
C118 H141 0.929 . S
C119 C118 1.395 . S
C119 C120 1.335 . S
C120 C119 1.335 . S
C120 C121 1.398 . S
C120 H142 0.930 . S
C121 C116 1.382 . S
C121 C120 1.398 . S
C121 H143 0.929 . S
C122 O132 1.271 1_655 S
C122 O133 1.251 . S
C123 O134 1.252 1_455 S
C123 O135 1.272 . S
O124 Sm104 2.543 . S
O124 C106 1.261 . S
O125 Sm104 2.450 . S
O125 C106 1.242 . S
O126 Sm104 2.681 . S
O126 Sm105 2.386 . S
O126 C113 1.271 1_545 S
O127 Sm104 2.464 . S
O127 C113 1.251 1_545 S
O128 Sm104 2.396 . S
O128 C114 1.252 . S
O129 Sm105 2.408 . S
O129 C114 1.272 . S
O130 Sm105 2.543 1_565 S
O130 C115 1.261 1_455 S
O131 Sm105 2.450 1_665 S
O131 C115 1.242 . S
O132 Sm104 2.386 . S
O132 Sm105 2.681 . S
O132 C122 1.271 1_455 S
O133 Sm105 2.464 1_655 S
O133 C122 1.251 . S
O134 Sm105 2.396 1_665 S
O134 C123 1.252 1_655 S
O135 Sm104 2.408 1_565 S
O135 C123 1.272 . S
H136 C108 0.930 . S
H137 C109 0.929 . S
H138 C111 0.930 . S
H139 C112 0.929 . S
H140 C117 0.930 . S
H141 C118 0.929 . S
H142 C120 0.930 . S
H143 C121 0.929 . S
Sm144 C146 2.846 . S
Sm144 O164 2.543 . S
Sm144 O165 2.450 . S
Sm144 O166 2.681 . S
Sm144 O167 2.464 1_545 S
Sm144 O168 2.396 . S
Sm144 O172 2.386 . S
Sm144 O175 2.408 . S
Sm145 C155 2.846 1_554 S
Sm145 O166 2.386 . S
Sm145 O169 2.408 . S
Sm145 O170 2.543 1_544 S
Sm145 O171 2.450 1_554 S
Sm145 O172 2.681 . S
Sm145 O173 2.464 1_554 S
Sm145 O174 2.396 1_554 S
C146 Sm144 2.846 . S
C146 C147 1.506 . S
C146 O164 1.261 . S
C146 O165 1.242 . S
C147 C146 1.506 . S
C147 C148 1.358 . S
C147 C152 1.382 . S
C148 C147 1.358 . S
C148 C149 1.385 . S
C148 H176 0.930 . S
C149 C148 1.385 . S
C149 C150 1.395 . S
C149 H177 0.929 . S
C150 C149 1.395 . S
C150 C151 1.335 . S
C151 C150 1.335 . S
C151 C152 1.398 . S
C151 H178 0.930 . S
C152 C147 1.382 . S
C152 C151 1.398 . S
C152 H179 0.929 . S
C153 O166 1.271 1_565 S
C153 O167 1.251 . S
C154 O168 1.252 . S
C154 O169 1.272 . S
C155 Sm145 2.846 1_556 S
C155 C156 1.506 1_545 S
C155 O170 1.261 1_545 S
C155 O171 1.242 . S
C156 C155 1.506 1_565 S
C156 C157 1.358 . S
C156 C161 1.382 1_565 S
C157 C156 1.358 . S
C157 C158 1.385 . S
C157 H180 0.930 . S
C158 C157 1.385 . S
C158 C159 1.395 . S
C158 H181 0.929 . S
C159 C158 1.395 . S
C159 C160 1.335 . S
C160 C159 1.335 . S
C160 C161 1.398 1_565 S
C160 H182 0.930 . S
C161 C156 1.382 1_545 S
C161 C160 1.398 1_545 S
C161 H183 0.929 . S
C162 O172 1.271 . S
C162 O173 1.251 1_554 S
C163 O174 1.252 1_554 S
C163 O175 1.272 . S
O164 Sm144 2.543 . S
O164 C146 1.261 . S
O165 Sm144 2.450 . S
O165 C146 1.242 . S
O166 Sm144 2.681 . S
O166 Sm145 2.386 . S
O166 C153 1.271 1_545 S
O167 Sm144 2.464 1_565 S
O167 C153 1.251 . S
O168 Sm144 2.396 . S
O168 C154 1.252 . S
O169 Sm145 2.408 . S
O169 C154 1.272 . S
O170 Sm145 2.543 1_566 S
O170 C155 1.261 1_565 S
O171 Sm145 2.450 1_556 S
O171 C155 1.242 . S
O172 Sm144 2.386 . S
O172 Sm145 2.681 . S
O172 C162 1.271 . S
O173 Sm145 2.464 1_556 S
O173 C162 1.251 1_556 S
O174 Sm145 2.396 1_556 S
O174 C163 1.252 1_556 S
O175 Sm144 2.408 . S
O175 C163 1.272 . S
H176 C148 0.930 . S
H177 C149 0.929 . S
H178 C151 0.930 . S
H179 C152 0.929 . S
H180 C157 0.930 . S
H181 C158 0.929 . S
H182 C160 0.930 . S
H183 C161 0.929 . S
Sm184 C186 2.846 . S
Sm184 O204 2.543 . S
Sm184 O205 2.450 . S
Sm184 O206 2.681 . S
Sm184 O207 2.464 . S
Sm184 O208 2.396 . S
Sm184 O212 2.386 . S
Sm184 O215 2.408 . S
Sm185 C195 2.846 . S
Sm185 O206 2.386 . S
Sm185 O209 2.408 . S
Sm185 O210 2.543 . S
Sm185 O211 2.450 . S
Sm185 O212 2.681 . S
Sm185 O213 2.464 . S
Sm185 O214 2.396 . S
C186 Sm184 2.846 . S
C186 C187 1.506 . S
C186 O204 1.261 . S
C186 O205 1.242 . S
C187 C186 1.506 . S
C187 C188 1.358 . S
C187 C192 1.382 . S
C188 C187 1.358 . S
C188 C189 1.385 . S
C188 H216 0.930 . S
C189 C188 1.385 . S
C189 C190 1.395 . S
C189 H217 0.929 . S
C190 C189 1.395 . S
C190 C191 1.335 . S
C191 C190 1.335 . S
C191 C192 1.398 . S
C191 H218 0.930 . S
C192 C187 1.382 . S
C192 C191 1.398 . S
C192 H219 0.929 . S
C193 O206 1.271 . S
C193 O207 1.251 . S
C194 O208 1.252 . S
C194 O209 1.272 . S
C195 Sm185 2.846 . S
C195 C196 1.506 . S
C195 O210 1.261 . S
C195 O211 1.242 . S
C196 C195 1.506 . S
C196 C197 1.358 . S
C196 C201 1.382 . S
C197 C196 1.358 . S
C197 C198 1.385 . S
C197 H220 0.930 . S
C198 C197 1.385 . S
C198 C199 1.395 . S
C198 H221 0.929 . S
C199 C198 1.395 . S
C199 C200 1.335 . S
C200 C199 1.335 . S
C200 C201 1.398 . S
C200 H222 0.930 . S
C201 C196 1.382 . S
C201 C200 1.398 . S
C201 H223 0.929 . S
C202 O212 1.271 . S
C202 O213 1.251 . S
C203 O214 1.252 . S
C203 O215 1.272 . S
O204 Sm184 2.543 . S
O204 C186 1.261 . S
O205 Sm184 2.450 . S
O205 C186 1.242 . S
O206 Sm184 2.681 . S
O206 Sm185 2.386 . S
O206 C193 1.271 . S
O207 Sm184 2.464 . S
O207 C193 1.251 . S
O208 Sm184 2.396 . S
O208 C194 1.252 . S
O209 Sm185 2.408 . S
O209 C194 1.272 . S
O210 Sm185 2.543 . S
O210 C195 1.261 . S
O211 Sm185 2.450 . S
O211 C195 1.242 . S
O212 Sm184 2.386 . S
O212 Sm185 2.681 . S
O212 C202 1.271 . S
O213 Sm185 2.464 . S
O213 C202 1.251 . S
O214 Sm185 2.396 . S
O214 C203 1.252 . S
O215 Sm184 2.408 . S
O215 C203 1.272 . S
H216 C188 0.930 . S
H217 C189 0.929 . S
H218 C191 0.930 . S
H219 C192 0.929 . S
H220 C197 0.930 . S
H221 C198 0.929 . S
H222 C200 0.930 . S
H223 C201 0.929 . S
Sm224 C226 2.846 . S
Sm224 O244 2.543 . S
Sm224 O245 2.450 . S
Sm224 O246 2.681 1_455 S
Sm224 O247 2.464 1_455 S
Sm224 O248 2.396 . S
Sm224 O252 2.386 1_554 S
Sm224 O255 2.408 1_455 S
Sm225 C235 2.846 1_455 S
Sm225 O246 2.386 1_456 S
Sm225 O249 2.408 1_556 S
Sm225 O250 2.543 1_455 S
Sm225 O251 2.450 1_455 S
Sm225 O252 2.681 . S
Sm225 O253 2.464 . S
Sm225 O254 2.396 1_455 S
C226 Sm224 2.846 . S
C226 C227 1.506 . S
C226 O244 1.261 . S
C226 O245 1.242 . S
C227 C226 1.506 . S
C227 C228 1.358 . S
C227 C232 1.382 . S
C228 C227 1.358 . S
C228 C229 1.385 . S
C228 H256 0.930 . S
C229 C228 1.385 . S
C229 C230 1.395 . S
C229 H257 0.929 . S
C230 C229 1.395 . S
C230 C231 1.335 . S
C231 C230 1.335 . S
C231 C232 1.398 . S
C231 H258 0.930 . S
C232 C227 1.382 . S
C232 C231 1.398 . S
C232 H259 0.929 . S
C233 O246 1.271 . S
C233 O247 1.251 . S
C234 O248 1.252 . S
C234 O249 1.272 . S
C235 Sm225 2.846 1_655 S
C235 C236 1.506 . S
C235 O250 1.261 . S
C235 O251 1.242 . S
C236 C235 1.506 . S
C236 C237 1.358 . S
C236 C241 1.382 . S
C237 C236 1.358 . S
C237 C238 1.385 . S
C237 H260 0.930 . S
C238 C237 1.385 . S
C238 C239 1.395 . S
C238 H261 0.929 . S
C239 C238 1.395 . S
C239 C240 1.335 . S
C240 C239 1.335 . S
C240 C241 1.398 . S
C240 H262 0.930 . S
C241 C236 1.382 . S
C241 C240 1.398 . S
C241 H263 0.929 . S
C242 O252 1.271 . S
C242 O253 1.251 . S
C243 O254 1.252 . S
C243 O255 1.272 1_556 S
O244 Sm224 2.543 . S
O244 C226 1.261 . S
O245 Sm224 2.450 . S
O245 C226 1.242 . S
O246 Sm224 2.681 1_655 S
O246 Sm225 2.386 1_654 S
O246 C233 1.271 . S
O247 Sm224 2.464 1_655 S
O247 C233 1.251 . S
O248 Sm224 2.396 . S
O248 C234 1.252 . S
O249 Sm225 2.408 1_554 S
O249 C234 1.272 . S
O250 Sm225 2.543 1_655 S
O250 C235 1.261 . S
O251 Sm225 2.450 1_655 S
O251 C235 1.242 . S
O252 Sm224 2.386 1_556 S
O252 Sm225 2.681 . S
O252 C242 1.271 . S
O253 Sm225 2.464 . S
O253 C242 1.251 . S
O254 Sm225 2.396 1_655 S
O254 C243 1.252 . S
O255 Sm224 2.408 1_655 S
O255 C243 1.272 1_554 S
H256 C228 0.930 . S
H257 C229 0.929 . S
H258 C231 0.930 . S
H259 C232 0.929 . S
H260 C237 0.930 . S
H261 C238 0.929 . S
H262 C240 0.930 . S
H263 C241 0.929 . S
C264 C265 1.349 . S
C264 C266 1.327 . S
C264 H289 0.950 . S
C265 C264 1.349 . S
C265 C281 1.349 . S
C266 C264 1.327 . S
C266 C285 1.429 . S
C266 H290 0.950 . S
C267 C284 1.574 . S
C267 C286 1.368 . S
C267 H291 0.949 . S
H268 C272 0.949 . S
C269 C270 1.349 . S
C269 C271 1.327 . S
C269 H292 0.950 . S
C270 C269 1.349 . S
C270 C282 1.349 . S
C271 C269 1.327 . S
C271 C287 1.429 . S
C271 H293 0.950 . S
C272 H268 0.949 . S
C272 C280 1.574 . S
C272 C288 1.368 . S
H273 C281 0.950 . S
H274 C279 0.950 . S
H275 C280 0.949 . S
H276 C282 0.950 . S
H277 C283 0.950 . S
H278 C284 0.949 . S
C279 H274 0.950 . S
C279 C281 1.327 . S
C279 C285 1.429 . S
C280 C272 1.574 . S
C280 H275 0.949 . S
C280 C286 1.368 . S
C281 C265 1.349 . S
C281 H273 0.950 . S
C281 C279 1.327 . S
C282 C270 1.349 . S
C282 H276 0.950 . S
C282 C283 1.327 . S
C283 H277 0.950 . S
C283 C282 1.327 . S
C283 C287 1.429 . S
C284 C267 1.574 . S
C284 H278 0.949 . S
C284 C288 1.368 . S
C285 C266 1.429 . S
C285 C279 1.429 . S
C285 C286 1.523 . S
C286 C267 1.368 . S
C286 C280 1.368 . S
C286 C285 1.523 . S
C287 C271 1.429 . S
C287 C283 1.429 . S
C287 C288 1.523 . S
C288 C272 1.368 . S
C288 C284 1.368 . S
C288 C287 1.523 . S
H289 C264 0.950 . S
H290 C266 0.950 . S
H291 C267 0.949 . S
H292 C269 0.950 . S
H293 C271 0.950 . S
C294 C295 1.349 . S
C294 C296 1.327 . S
C294 H319 0.950 . S
C295 C294 1.349 . S
C295 C311 1.349 . S
C296 C294 1.327 . S
C296 C315 1.429 . S
C296 H320 0.950 . S
C297 C314 1.574 . S
C297 C316 1.368 . S
C297 H321 0.949 . S
H298 C302 0.949 . S
C299 C300 1.349 . S
C299 C301 1.327 . S
C299 H322 0.950 . S
C300 C299 1.349 . S
C300 C312 1.349 . S
C301 C299 1.327 . S
C301 C317 1.429 . S
C301 H323 0.950 . S
C302 H298 0.949 . S
C302 C310 1.574 . S
C302 C318 1.368 . S
H303 C311 0.950 . S
H304 C309 0.950 . S
H305 C310 0.949 . S
H306 C312 0.950 . S
H307 C313 0.950 . S
H308 C314 0.949 . S
C309 H304 0.950 . S
C309 C311 1.327 . S
C309 C315 1.429 . S
C310 C302 1.574 . S
C310 H305 0.949 . S
C310 C316 1.368 . S
C311 C295 1.349 . S
C311 H303 0.950 . S
C311 C309 1.327 . S
C312 C300 1.349 . S
C312 H306 0.950 . S
C312 C313 1.327 . S
C313 H307 0.950 . S
C313 C312 1.327 . S
C313 C317 1.429 . S
C314 C297 1.574 . S
C314 H308 0.949 . S
C314 C318 1.368 . S
C315 C296 1.429 . S
C315 C309 1.429 . S
C315 C316 1.523 . S
C316 C297 1.368 . S
C316 C310 1.368 . S
C316 C315 1.523 . S
C317 C301 1.429 . S
C317 C313 1.429 . S
C317 C318 1.523 . S
C318 C302 1.368 . S
C318 C314 1.368 . S
C318 C317 1.523 . S
H319 C294 0.950 . S
H320 C296 0.950 . S
H321 C297 0.949 . S
H322 C299 0.950 . S
H323 C301 0.950 . S
C324 C325 1.349 . S
C324 C326 1.327 . S
C324 H349 0.950 . S
C325 C324 1.349 . S
C325 C341 1.349 . S
C326 C324 1.327 . S
C326 C345 1.429 . S
C326 H350 0.950 . S
C327 C344 1.574 . S
C327 C346 1.368 . S
C327 H351 0.949 . S
H328 C332 0.949 . S
C329 C330 1.349 . S
C329 C331 1.327 . S
C329 H352 0.950 . S
C330 C329 1.349 . S
C330 C342 1.349 . S
C331 C329 1.327 . S
C331 C347 1.429 . S
C331 H353 0.950 . S
C332 H328 0.949 . S
C332 C340 1.574 . S
C332 C348 1.368 . S
H333 C341 0.950 . S
H334 C339 0.950 . S
H335 C340 0.949 . S
H336 C342 0.950 . S
H337 C343 0.950 . S
H338 C344 0.949 . S
C339 H334 0.950 . S
C339 C341 1.327 . S
C339 C345 1.429 . S
C340 C332 1.574 . S
C340 H335 0.949 . S
C340 C346 1.368 . S
C341 C325 1.349 . S
C341 H333 0.950 . S
C341 C339 1.327 . S
C342 C330 1.349 . S
C342 H336 0.950 . S
C342 C343 1.327 . S
C343 H337 0.950 . S
C343 C342 1.327 . S
C343 C347 1.429 . S
C344 C327 1.574 . S
C344 H338 0.949 . S
C344 C348 1.368 . S
C345 C326 1.429 . S
C345 C339 1.429 . S
C345 C346 1.523 . S
C346 C327 1.368 . S
C346 C340 1.368 . S
C346 C345 1.523 . S
C347 C331 1.429 . S
C347 C343 1.429 . S
C347 C348 1.523 . S
C348 C332 1.368 . S
C348 C344 1.368 . S
C348 C347 1.523 . S
H349 C324 0.950 . S
H350 C326 0.950 . S
H351 C327 0.949 . S
H352 C329 0.950 . S
H353 C331 0.950 . S
C354 C355 1.349 . S
C354 C356 1.327 . S
C354 H379 0.950 . S
C355 C354 1.349 . S
C355 C371 1.349 . S
C356 C354 1.327 . S
C356 C375 1.429 . S
C356 H380 0.950 . S
C357 C374 1.574 . S
C357 C376 1.368 . S
C357 H381 0.949 . S
H358 C362 0.949 . S
C359 C360 1.349 . S
C359 C361 1.327 . S
C359 H382 0.950 . S
C360 C359 1.349 . S
C360 C372 1.349 . S
C361 C359 1.327 . S
C361 C377 1.429 . S
C361 H383 0.950 . S
C362 H358 0.949 . S
C362 C370 1.574 . S
C362 C378 1.368 . S
H363 C371 0.950 . S
H364 C369 0.950 . S
H365 C370 0.949 . S
H366 C372 0.950 . S
H367 C373 0.950 . S
H368 C374 0.949 . S
C369 H364 0.950 . S
C369 C371 1.327 . S
C369 C375 1.429 . S
C370 C362 1.574 . S
C370 H365 0.949 . S
C370 C376 1.368 . S
C371 C355 1.349 . S
C371 H363 0.950 . S
C371 C369 1.327 . S
C372 C360 1.349 . S
C372 H366 0.950 . S
C372 C373 1.327 . S
C373 H367 0.950 . S
C373 C372 1.327 . S
C373 C377 1.429 . S
C374 C357 1.574 . S
C374 H368 0.949 . S
C374 C378 1.368 . S
C375 C356 1.429 . S
C375 C369 1.429 . S
C375 C376 1.523 . S
C376 C357 1.368 . S
C376 C370 1.368 . S
C376 C375 1.523 . S
C377 C361 1.429 . S
C377 C373 1.429 . S
C377 C378 1.523 . S
C378 C362 1.368 . S
C378 C374 1.368 . S
C378 C377 1.523 . S
H379 C354 0.950 . S
H380 C356 0.950 . S
H381 C357 0.949 . S
H382 C359 0.950 . S
H383 C361 0.950 . S
C384 C385 1.349 . S
C384 C386 1.327 . S
C384 H409 0.950 . S
C385 C384 1.349 . S
C385 C401 1.349 . S
C386 C384 1.327 . S
C386 C405 1.429 . S
C386 H410 0.950 . S
C387 C404 1.574 . S
C387 C406 1.368 . S
C387 H411 0.949 . S
H388 C392 0.949 . S
C389 C390 1.349 . S
C389 C391 1.327 . S
C389 H412 0.950 . S
C390 C389 1.349 . S
C390 C402 1.349 . S
C391 C389 1.327 . S
C391 C407 1.429 . S
C391 H413 0.950 . S
C392 H388 0.949 . S
C392 C400 1.574 . S
C392 C408 1.368 . S
H393 C401 0.950 . S
H394 C399 0.950 . S
H395 C400 0.949 . S
H396 C402 0.950 . S
H397 C403 0.950 . S
H398 C404 0.949 . S
C399 H394 0.950 . S
C399 C401 1.327 . S
C399 C405 1.429 . S
C400 C392 1.574 . S
C400 H395 0.949 . S
C400 C406 1.368 . S
C401 C385 1.349 . S
C401 H393 0.950 . S
C401 C399 1.327 . S
C402 C390 1.349 . S
C402 H396 0.950 . S
C402 C403 1.327 . S
C403 H397 0.950 . S
C403 C402 1.327 . S
C403 C407 1.429 . S
C404 C387 1.574 . S
C404 H398 0.949 . S
C404 C408 1.368 . S
C405 C386 1.429 . S
C405 C399 1.429 . S
C405 C406 1.523 . S
C406 C387 1.368 . S
C406 C400 1.368 . S
C406 C405 1.523 . S
C407 C391 1.429 . S
C407 C403 1.429 . S
C407 C408 1.523 . S
C408 C392 1.368 . S
C408 C404 1.368 . S
C408 C407 1.523 . S
H409 C384 0.950 . S
H410 C386 0.950 . S
H411 C387 0.949 . S
H412 C389 0.950 . S
H413 C391 0.950 . S
C414 C415 1.349 . S
C414 C416 1.327 . S
C414 H439 0.950 . S
C415 C414 1.349 . S
C415 C431 1.349 . S
C416 C414 1.327 . S
C416 C435 1.429 . S
C416 H440 0.950 . S
C417 C434 1.574 . S
C417 C436 1.368 . S
C417 H441 0.949 . S
H418 C422 0.949 . S
C419 C420 1.349 . S
C419 C421 1.327 . S
C419 H442 0.950 1_565 S
C420 C419 1.349 . S
C420 C432 1.349 . S
C421 C419 1.327 . S
C421 C437 1.429 . S
C421 H443 0.950 . S
C422 H418 0.949 . S
C422 C430 1.574 . S
C422 C438 1.368 . S
H423 C431 0.950 . S
H424 C429 0.950 . S
H425 C430 0.949 . S
H426 C432 0.950 . S
H427 C433 0.950 . S
H428 C434 0.949 . S
C429 H424 0.950 . S
C429 C431 1.327 . S
C429 C435 1.429 . S
C430 C422 1.574 . S
C430 H425 0.949 . S
C430 C436 1.368 . S
C431 C415 1.349 . S
C431 H423 0.950 . S
C431 C429 1.327 . S
C432 C420 1.349 . S
C432 H426 0.950 . S
C432 C433 1.327 . S
C433 H427 0.950 . S
C433 C432 1.327 . S
C433 C437 1.429 . S
C434 C417 1.574 . S
C434 H428 0.949 . S
C434 C438 1.368 . S
C435 C416 1.429 . S
C435 C429 1.429 . S
C435 C436 1.523 . S
C436 C417 1.368 . S
C436 C430 1.368 . S
C436 C435 1.523 . S
C437 C421 1.429 . S
C437 C433 1.429 . S
C437 C438 1.523 . S
C438 C422 1.368 . S
C438 C434 1.368 . S
C438 C437 1.523 . S
H439 C414 0.950 . S
H440 C416 0.950 . S
H441 C417 0.949 . S
H442 C419 0.950 1_545 S
H443 C421 0.950 . S
C444 C445 1.349 . S
C444 C446 1.327 . S
C444 H469 0.950 . S
C445 C444 1.349 . S
C445 C461 1.349 . S
C446 C444 1.327 . S
C446 C465 1.429 . S
C446 H470 0.950 . S
C447 C464 1.574 . S
C447 C466 1.368 . S
C447 H471 0.949 . S
H448 C452 0.949 . S
C449 C450 1.349 . S
C449 C451 1.327 . S
C449 H472 0.950 . S
C450 C449 1.349 . S
C450 C462 1.349 . S
C451 C449 1.327 . S
C451 C467 1.429 . S
C451 H473 0.950 . S
C452 H448 0.949 . S
C452 C460 1.574 . S
C452 C468 1.368 . S
H453 C461 0.950 . S
H454 C459 0.950 . S
H455 C460 0.949 . S
H456 C462 0.950 1_554 S
H457 C463 0.950 . S
H458 C464 0.949 . S
C459 H454 0.950 . S
C459 C461 1.327 . S
C459 C465 1.429 . S
C460 C452 1.574 . S
C460 H455 0.949 . S
C460 C466 1.368 . S
C461 C445 1.349 . S
C461 H453 0.950 . S
C461 C459 1.327 . S
C462 C450 1.349 . S
C462 H456 0.950 1_556 S
C462 C463 1.327 . S
C463 H457 0.950 . S
C463 C462 1.327 . S
C463 C467 1.429 . S
C464 C447 1.574 . S
C464 H458 0.949 . S
C464 C468 1.368 . S
C465 C446 1.429 . S
C465 C459 1.429 . S
C465 C466 1.523 . S
C466 C447 1.368 . S
C466 C460 1.368 . S
C466 C465 1.523 . S
C467 C451 1.429 . S
C467 C463 1.429 . S
C467 C468 1.523 . S
C468 C452 1.368 . S
C468 C464 1.368 . S
C468 C467 1.523 . S
H469 C444 0.950 . S
H470 C446 0.950 . S
H471 C447 0.949 . S
H472 C449 0.950 . S
H473 C451 0.950 . S
C474 C475 1.349 . S
C474 C476 1.327 . S
C474 H499 0.950 . S
C475 C474 1.349 . S
C475 C491 1.349 . S
C476 C474 1.327 . S
C476 C495 1.429 . S
C476 H500 0.950 . S
C477 C494 1.574 . S
C477 C496 1.368 . S
C477 H501 0.949 . S
H478 C482 0.949 . S
C479 C480 1.349 . S
C479 C481 1.327 . S
C479 H502 0.950 . S
C480 C479 1.349 . S
C480 C492 1.349 . S
C481 C479 1.327 . S
C481 C497 1.429 . S
C481 H503 0.950 . S
C482 H478 0.949 . S
C482 C490 1.574 . S
C482 C498 1.368 . S
H483 C491 0.950 . S
H484 C489 0.950 . S
H485 C490 0.949 . S
H486 C492 0.950 . S
H487 C493 0.950 . S
H488 C494 0.949 . S
C489 H484 0.950 . S
C489 C491 1.327 . S
C489 C495 1.429 . S
C490 C482 1.574 . S
C490 H485 0.949 . S
C490 C496 1.368 . S
C491 C475 1.349 . S
C491 H483 0.950 . S
C491 C489 1.327 . S
C492 C480 1.349 . S
C492 H486 0.950 . S
C492 C493 1.327 . S
C493 H487 0.950 . S
C493 C492 1.327 . S
C493 C497 1.429 . S
C494 C477 1.574 . S
C494 H488 0.949 . S
C494 C498 1.368 . S
C495 C476 1.429 . S
C495 C489 1.429 . S
C495 C496 1.523 . S
C496 C477 1.368 . S
C496 C490 1.368 . S
C496 C495 1.523 . S
C497 C481 1.429 . S
C497 C493 1.429 . S
C497 C498 1.523 . S
C498 C482 1.368 . S
C498 C494 1.368 . S
C498 C497 1.523 . S
H499 C474 0.950 . S
H500 C476 0.950 . S
H501 C477 0.949 . S
H502 C479 0.950 . S
H503 C481 0.950 . S
C504 C505 1.349 . S
C504 C506 1.327 . S
C504 H529 0.950 . S
C505 C504 1.349 . S
C505 C521 1.349 . S
C506 C504 1.327 . S
C506 C525 1.429 . S
C506 H530 0.950 . S
C507 C524 1.574 . S
C507 C526 1.368 . S
C507 H531 0.949 . S
H508 C512 0.949 . S
C509 C510 1.349 . S
C509 C511 1.327 . S
C509 H532 0.950 . S
C510 C509 1.349 . S
C510 C522 1.349 . S
C511 C509 1.327 . S
C511 C527 1.429 . S
C511 H533 0.950 . S
C512 H508 0.949 . S
C512 C520 1.574 . S
C512 C528 1.368 . S
H513 C521 0.950 . S
H514 C519 0.950 . S
H515 C520 0.949 . S
H516 C522 0.950 . S
H517 C523 0.950 . S
H518 C524 0.949 . S
C519 H514 0.950 . S
C519 C521 1.327 . S
C519 C525 1.429 . S
C520 C512 1.574 . S
C520 H515 0.949 . S
C520 C526 1.368 . S
C521 C505 1.349 . S
C521 H513 0.950 . S
C521 C519 1.327 . S
C522 C510 1.349 . S
C522 H516 0.950 . S
C522 C523 1.327 . S
C523 H517 0.950 . S
C523 C522 1.327 . S
C523 C527 1.429 . S
C524 C507 1.574 . S
C524 H518 0.949 . S
C524 C528 1.368 . S
C525 C506 1.429 . S
C525 C519 1.429 . S
C525 C526 1.523 . S
C526 C507 1.368 . S
C526 C520 1.368 . S
C526 C525 1.523 . S
C527 C511 1.429 . S
C527 C523 1.429 . S
C527 C528 1.523 . S
C528 C512 1.368 . S
C528 C524 1.368 . S
C528 C527 1.523 . S
H529 C504 0.950 . S
H530 C506 0.950 . S
H531 C507 0.949 . S
H532 C509 0.950 . S
H533 C511 0.950 . S
C534 C535 1.349 . S
C534 C536 1.327 . S
C534 H559 0.950 . S
C535 C534 1.349 . S
C535 C551 1.349 . S
C536 C534 1.327 . S
C536 C555 1.429 . S
C536 H560 0.950 . S
C537 C554 1.574 . S
C537 C556 1.368 . S
C537 H561 0.949 . S
H538 C542 0.949 . S
C539 C540 1.349 1_554 S
C539 C541 1.327 1_554 S
C539 H562 0.950 . S
C540 C539 1.349 1_556 S
C540 C552 1.349 . S
C541 C539 1.327 1_556 S
C541 C557 1.429 . S
C541 H563 0.950 . S
C542 H538 0.949 . S
C542 C550 1.574 . S
C542 C558 1.368 . S
H543 C551 0.950 . S
H544 C549 0.950 . S
H545 C550 0.949 . S
H546 C552 0.950 . S
H547 C553 0.950 . S
H548 C554 0.949 . S
C549 H544 0.950 . S
C549 C551 1.327 . S
C549 C555 1.429 . S
C550 C542 1.574 . S
C550 H545 0.949 . S
C550 C556 1.368 . S
C551 C535 1.349 . S
C551 H543 0.950 . S
C551 C549 1.327 . S
C552 C540 1.349 . S
C552 H546 0.950 . S
C552 C553 1.327 . S
C553 H547 0.950 . S
C553 C552 1.327 . S
C553 C557 1.429 . S
C554 C537 1.574 . S
C554 H548 0.949 . S
C554 C558 1.368 . S
C555 C536 1.429 . S
C555 C549 1.429 . S
C555 C556 1.523 . S
C556 C537 1.368 . S
C556 C550 1.368 . S
C556 C555 1.523 . S
C557 C541 1.429 . S
C557 C553 1.429 . S
C557 C558 1.523 . S
C558 C542 1.368 . S
C558 C554 1.368 . S
C558 C557 1.523 . S
H559 C534 0.950 . S
H560 C536 0.950 . S
H561 C537 0.949 . S
H562 C539 0.950 . S
H563 C541 0.950 . S
C564 C565 1.349 . S
C564 C566 1.327 . S
C564 H589 0.950 . S
C565 C564 1.349 . S
C565 C581 1.349 . S
C566 C564 1.327 . S
C566 C585 1.429 . S
C566 H590 0.950 . S
C567 C584 1.574 . S
C567 C586 1.368 . S
C567 H591 0.949 . S
H568 C572 0.949 . S
C569 C570 1.349 . S
C569 C571 1.327 . S
C569 H592 0.950 . S
C570 C569 1.349 . S
C570 C582 1.349 . S
C571 C569 1.327 . S
C571 C587 1.429 . S
C571 H593 0.950 . S
C572 H568 0.949 . S
C572 C580 1.574 . S
C572 C588 1.368 . S
H573 C581 0.950 . S
H574 C579 0.950 . S
H575 C580 0.949 . S
H576 C582 0.950 . S
H577 C583 0.950 . S
H578 C584 0.949 . S
C579 H574 0.950 . S
C579 C581 1.327 . S
C579 C585 1.429 . S
C580 C572 1.574 . S
C580 H575 0.949 . S
C580 C586 1.368 . S
C581 C565 1.349 . S
C581 H573 0.950 . S
C581 C579 1.327 . S
C582 C570 1.349 . S
C582 H576 0.950 . S
C582 C583 1.327 . S
C583 H577 0.950 . S
C583 C582 1.327 . S
C583 C587 1.429 . S
C584 C567 1.574 . S
C584 H578 0.949 . S
C584 C588 1.368 . S
C585 C566 1.429 . S
C585 C579 1.429 . S
C585 C586 1.523 . S
C586 C567 1.368 . S
C586 C580 1.368 . S
C586 C585 1.523 . S
C587 C571 1.429 . S
C587 C583 1.429 . S
C587 C588 1.523 . S
C588 C572 1.368 . S
C588 C584 1.368 . S
C588 C587 1.523 . S
H589 C564 0.950 . S
H590 C566 0.950 . S
H591 C567 0.949 . S
H592 C569 0.950 . S
H593 C571 0.950 . S
C594 C595 1.349 . S
C594 C596 1.327 . S
C594 H619 0.950 . S
C595 C594 1.349 . S
C595 C611 1.349 . S
C596 C594 1.327 . S
C596 C615 1.429 . S
C596 H620 0.950 . S
C597 C614 1.574 . S
C597 C616 1.368 . S
C597 H621 0.949 . S
H598 C602 0.949 . S
C599 C600 1.349 . S
C599 C601 1.327 . S
C599 H622 0.950 . S
C600 C599 1.349 . S
C600 C612 1.349 . S
C601 C599 1.327 . S
C601 C617 1.429 . S
C601 H623 0.950 . S
C602 H598 0.949 . S
C602 C610 1.574 . S
C602 C618 1.368 . S
H603 C611 0.950 . S
H604 C609 0.950 . S
H605 C610 0.949 . S
H606 C612 0.950 . S
H607 C613 0.950 . S
H608 C614 0.949 . S
C609 H604 0.950 . S
C609 C611 1.327 . S
C609 C615 1.429 . S
C610 C602 1.574 . S
C610 H605 0.949 . S
C610 C616 1.368 . S
C611 C595 1.349 . S
C611 H603 0.950 . S
C611 C609 1.327 . S
C612 C600 1.349 . S
C612 H606 0.950 . S
C612 C613 1.327 . S
C613 H607 0.950 . S
C613 C612 1.327 . S
C613 C617 1.429 . S
C614 C597 1.574 . S
C614 H608 0.949 . S
C614 C618 1.368 . S
C615 C596 1.429 . S
C615 C609 1.429 . S
C615 C616 1.523 . S
C616 C597 1.368 . S
C616 C610 1.368 . S
C616 C615 1.523 . S
C617 C601 1.429 . S
C617 C613 1.429 . S
C617 C618 1.523 . S
C618 C602 1.368 . S
C618 C614 1.368 . S
C618 C617 1.523 . S
H619 C594 0.950 . S
H620 C596 0.950 . S
H621 C597 0.949 . S
H622 C599 0.950 . S
H623 C601 0.950 . S
C624 C625 1.349 . S
C624 C626 1.327 . S
C624 H649 0.950 . S
C625 C624 1.349 . S
C625 C641 1.349 . S
C626 C624 1.327 . S
C626 C645 1.429 . S
C626 H650 0.950 . S
C627 C644 1.574 . S
C627 C646 1.368 . S
C627 H651 0.949 . S
H628 C632 0.949 . S
C629 C630 1.349 . S
C629 C631 1.327 . S
C629 H652 0.950 . S
C630 C629 1.349 . S
C630 C642 1.349 . S
C631 C629 1.327 . S
C631 C647 1.429 . S
C631 H653 0.950 . S
C632 H628 0.949 . S
C632 C640 1.574 . S
C632 C648 1.368 . S
H633 C641 0.950 . S
H634 C639 0.950 . S
H635 C640 0.949 . S
H636 C642 0.950 . S
H637 C643 0.950 . S
H638 C644 0.949 . S
C639 H634 0.950 . S
C639 C641 1.327 . S
C639 C645 1.429 . S
C640 C632 1.574 . S
C640 H635 0.949 . S
C640 C646 1.368 . S
C641 C625 1.349 . S
C641 H633 0.950 . S
C641 C639 1.327 . S
C642 C630 1.349 . S
C642 H636 0.950 . S
C642 C643 1.327 . S
C643 H637 0.950 . S
C643 C642 1.327 . S
C643 C647 1.429 . S
C644 C627 1.574 . S
C644 H638 0.949 . S
C644 C648 1.368 . S
C645 C626 1.429 . S
C645 C639 1.429 . S
C645 C646 1.523 . S
C646 C627 1.368 . S
C646 C640 1.368 . S
C646 C645 1.523 . S
C647 C631 1.429 . S
C647 C643 1.429 . S
C647 C648 1.523 . S
C648 C632 1.368 . S
C648 C644 1.368 . S
C648 C647 1.523 . S
H649 C624 0.950 . S
H650 C626 0.950 . S
H651 C627 0.949 . S
H652 C629 0.950 . S
H653 C631 0.950 . S
C654 C655 1.349 . S
C654 C656 1.327 . S
C654 H679 0.950 . S
C655 C654 1.349 . S
C655 C671 1.349 . S
C656 C654 1.327 . S
C656 C675 1.429 . S
C656 H680 0.950 . S
C657 C674 1.574 . S
C657 C676 1.368 . S
C657 H681 0.949 . S
H658 C662 0.949 . S
C659 C660 1.349 . S
C659 C661 1.327 . S
C659 H682 0.950 . S
C660 C659 1.349 . S
C660 C672 1.349 . S
C661 C659 1.327 . S
C661 C677 1.429 . S
C661 H683 0.950 . S
C662 H658 0.949 . S
C662 C670 1.574 . S
C662 C678 1.368 . S
H663 C671 0.950 . S
H664 C669 0.950 . S
H665 C670 0.949 . S
H666 C672 0.950 . S
H667 C673 0.950 . S
H668 C674 0.949 . S
C669 H664 0.950 . S
C669 C671 1.327 . S
C669 C675 1.429 . S
C670 C662 1.574 . S
C670 H665 0.949 . S
C670 C676 1.368 . S
C671 C655 1.349 . S
C671 H663 0.950 . S
C671 C669 1.327 . S
C672 C660 1.349 . S
C672 H666 0.950 . S
C672 C673 1.327 . S
C673 H667 0.950 . S
C673 C672 1.327 . S
C673 C677 1.429 . S
C674 C657 1.574 . S
C674 H668 0.949 . S
C674 C678 1.368 . S
C675 C656 1.429 . S
C675 C669 1.429 . S
C675 C676 1.523 . S
C676 C657 1.368 . S
C676 C670 1.368 . S
C676 C675 1.523 . S
C677 C661 1.429 . S
C677 C673 1.429 . S
C677 C678 1.523 . S
C678 C662 1.368 . S
C678 C674 1.368 . S
C678 C677 1.523 . S
H679 C654 0.950 . S
H680 C656 0.950 . S
H681 C657 0.949 . S
H682 C659 0.950 . S
H683 C661 0.950 . S
C684 C685 1.349 . S
C684 C686 1.327 . S
C684 H709 0.950 . S
C685 C684 1.349 . S
C685 C701 1.349 . S
C686 C684 1.327 . S
C686 C705 1.429 . S
C686 H710 0.950 . S
C687 C704 1.574 . S
C687 C706 1.368 . S
C687 H711 0.949 . S
H688 C692 0.949 . S
C689 C690 1.349 . S
C689 C691 1.327 . S
C689 H712 0.950 . S
C690 C689 1.349 . S
C690 C702 1.349 . S
C691 C689 1.327 . S
C691 C707 1.429 . S
C691 H713 0.950 . S
C692 H688 0.949 . S
C692 C700 1.574 . S
C692 C708 1.368 . S
H693 C701 0.950 . S
H694 C699 0.950 . S
H695 C700 0.949 . S
H696 C702 0.950 . S
H697 C703 0.950 . S
H698 C704 0.949 . S
C699 H694 0.950 . S
C699 C701 1.327 . S
C699 C705 1.429 . S
C700 C692 1.574 . S
C700 H695 0.949 . S
C700 C706 1.368 . S
C701 C685 1.349 . S
C701 H693 0.950 . S
C701 C699 1.327 . S
C702 C690 1.349 . S
C702 H696 0.950 . S
C702 C703 1.327 . S
C703 H697 0.950 . S
C703 C702 1.327 . S
C703 C707 1.429 . S
C704 C687 1.574 . S
C704 H698 0.949 . S
C704 C708 1.368 . S
C705 C686 1.429 . S
C705 C699 1.429 . S
C705 C706 1.523 . S
C706 C687 1.368 . S
C706 C700 1.368 . S
C706 C705 1.523 . S
C707 C691 1.429 . S
C707 C703 1.429 . S
C707 C708 1.523 . S
C708 C692 1.368 . S
C708 C704 1.368 . S
C708 C707 1.523 . S
H709 C684 0.950 . S
H710 C686 0.950 . S
H711 C687 0.949 . S
H712 C689 0.950 . S
H713 C691 0.950 . S
C714 C715 1.349 . S
C714 C716 1.327 . S
C714 H739 0.950 . S
C715 C714 1.349 . S
C715 C731 1.349 . S
C716 C714 1.327 . S
C716 C735 1.429 . S
C716 H740 0.950 . S
C717 C734 1.574 . S
C717 C736 1.368 . S
C717 H741 0.949 . S
H718 C722 0.949 . S
C719 C720 1.349 . S
C719 C721 1.327 . S
C719 H742 0.950 . S
C720 C719 1.349 . S
C720 C732 1.349 . S
C721 C719 1.327 . S
C721 C737 1.429 . S
C721 H743 0.950 . S
C722 H718 0.949 . S
C722 C730 1.574 . S
C722 C738 1.368 . S
H723 C731 0.950 . S
H724 C729 0.950 . S
H725 C730 0.949 . S
H726 C732 0.950 . S
H727 C733 0.950 . S
H728 C734 0.949 . S
C729 H724 0.950 . S
C729 C731 1.327 . S
C729 C735 1.429 . S
C730 C722 1.574 . S
C730 H725 0.949 . S
C730 C736 1.368 . S
C731 C715 1.349 . S
C731 H723 0.950 . S
C731 C729 1.327 . S
C732 C720 1.349 . S
C732 H726 0.950 . S
C732 C733 1.327 . S
C733 H727 0.950 . S
C733 C732 1.327 . S
C733 C737 1.429 . S
C734 C717 1.574 . S
C734 H728 0.949 . S
C734 C738 1.368 . S
C735 C716 1.429 . S
C735 C729 1.429 . S
C735 C736 1.523 . S
C736 C717 1.368 . S
C736 C730 1.368 . S
C736 C735 1.523 . S
C737 C721 1.429 . S
C737 C733 1.429 . S
C737 C738 1.523 . S
C738 C722 1.368 . S
C738 C734 1.368 . S
C738 C737 1.523 . S
H739 C714 0.950 . S
H740 C716 0.950 . S
H741 C717 0.949 . S
H742 C719 0.950 . S
H743 C721 0.950 . S
C744 C745 1.349 . S
C744 C746 1.327 . S
C744 H769 0.950 . S
C745 C744 1.349 . S
C745 C761 1.349 . S
C746 C744 1.327 . S
C746 C765 1.429 . S
C746 H770 0.950 . S
C747 C764 1.574 . S
C747 C766 1.368 . S
C747 H771 0.949 . S
H748 C752 0.949 . S
C749 C750 1.349 . S
C749 C751 1.327 . S
C749 H772 0.950 . S
C750 C749 1.349 . S
C750 C762 1.349 . S
C751 C749 1.327 . S
C751 C767 1.429 . S
C751 H773 0.950 . S
C752 H748 0.949 . S
C752 C760 1.574 . S
C752 C768 1.368 . S
H753 C761 0.950 . S
H754 C759 0.950 . S
H755 C760 0.949 . S
H756 C762 0.950 1_554 S
H757 C763 0.950 . S
H758 C764 0.949 . S
C759 H754 0.950 . S
C759 C761 1.327 . S
C759 C765 1.429 . S
C760 C752 1.574 . S
C760 H755 0.949 . S
C760 C766 1.368 . S
C761 C745 1.349 . S
C761 H753 0.950 . S
C761 C759 1.327 . S
C762 C750 1.349 . S
C762 H756 0.950 1_556 S
C762 C763 1.327 . S
C763 H757 0.950 . S
C763 C762 1.327 . S
C763 C767 1.429 . S
C764 C747 1.574 . S
C764 H758 0.949 . S
C764 C768 1.368 . S
C765 C746 1.429 . S
C765 C759 1.429 . S
C765 C766 1.523 . S
C766 C747 1.368 . S
C766 C760 1.368 . S
C766 C765 1.523 . S
C767 C751 1.429 . S
C767 C763 1.429 . S
C767 C768 1.523 . S
C768 C752 1.368 . S
C768 C764 1.368 . S
C768 C767 1.523 . S
H769 C744 0.950 . S
H770 C746 0.950 . S
H771 C747 0.949 . S
H772 C749 0.950 . S
H773 C751 0.950 . S
C774 C775 1.349 . S
C774 C776 1.327 . S
C774 H799 0.950 . S
C775 C774 1.349 . S
C775 C791 1.349 . S
C776 C774 1.327 . S
C776 C795 1.429 . S
C776 H800 0.950 . S
C777 C794 1.574 . S
C777 C796 1.368 . S
C777 H801 0.949 . S
H778 C782 0.949 . S
C779 C780 1.349 . S
C779 C781 1.327 . S
C779 H802 0.950 . S
C780 C779 1.349 . S
C780 C792 1.349 . S
C781 C779 1.327 . S
C781 C797 1.429 . S
C781 H803 0.950 . S
C782 H778 0.949 . S
C782 C790 1.574 . S
C782 C798 1.368 . S
H783 C791 0.950 . S
H784 C789 0.950 . S
H785 C790 0.949 . S
H786 C792 0.950 . S
H787 C793 0.950 . S
H788 C794 0.949 . S
C789 H784 0.950 . S
C789 C791 1.327 . S
C789 C795 1.429 . S
C790 C782 1.574 . S
C790 H785 0.949 . S
C790 C796 1.368 . S
C791 C775 1.349 . S
C791 H783 0.950 . S
C791 C789 1.327 . S
C792 C780 1.349 . S
C792 H786 0.950 . S
C792 C793 1.327 . S
C793 H787 0.950 . S
C793 C792 1.327 . S
C793 C797 1.429 . S
C794 C777 1.574 . S
C794 H788 0.949 . S
C794 C798 1.368 . S
C795 C776 1.429 . S
C795 C789 1.429 . S
C795 C796 1.523 . S
C796 C777 1.368 . S
C796 C790 1.368 . S
C796 C795 1.523 . S
C797 C781 1.429 . S
C797 C793 1.429 . S
C797 C798 1.523 . S
C798 C782 1.368 . S
C798 C794 1.368 . S
C798 C797 1.523 . S
H799 C774 0.950 . S
H800 C776 0.950 . S
H801 C777 0.949 . S
H802 C779 0.950 . S
H803 C781 0.950 . S
C804 C805 1.349 . S
C804 C806 1.327 . S
C804 H829 0.950 . S
C805 C804 1.349 . S
C805 C821 1.349 . S
C806 C804 1.327 . S
C806 C825 1.429 . S
C806 H830 0.950 . S
C807 C824 1.574 . S
C807 C826 1.368 . S
C807 H831 0.949 . S
H808 C812 0.949 . S
C809 C810 1.349 . S
C809 C811 1.327 . S
C809 H832 0.950 . S
C810 C809 1.349 . S
C810 C822 1.349 . S
C811 C809 1.327 . S
C811 C827 1.429 . S
C811 H833 0.950 . S
C812 H808 0.949 . S
C812 C820 1.574 . S
C812 C828 1.368 . S
H813 C821 0.950 . S
H814 C819 0.950 . S
H815 C820 0.949 . S
H816 C822 0.950 . S
H817 C823 0.950 . S
H818 C824 0.949 . S
C819 H814 0.950 . S
C819 C821 1.327 . S
C819 C825 1.429 . S
C820 C812 1.574 . S
C820 H815 0.949 . S
C820 C826 1.368 . S
C821 C805 1.349 . S
C821 H813 0.950 . S
C821 C819 1.327 . S
C822 C810 1.349 . S
C822 H816 0.950 . S
C822 C823 1.327 . S
C823 H817 0.950 . S
C823 C822 1.327 . S
C823 C827 1.429 . S
C824 C807 1.574 . S
C824 H818 0.949 . S
C824 C828 1.368 . S
C825 C806 1.429 . S
C825 C819 1.429 . S
C825 C826 1.523 . S
C826 C807 1.368 . S
C826 C820 1.368 . S
C826 C825 1.523 . S
C827 C811 1.429 . S
C827 C823 1.429 . S
C827 C828 1.523 . S
C828 C812 1.368 . S
C828 C824 1.368 . S
C828 C827 1.523 . S
H829 C804 0.950 . S
H830 C806 0.950 . S
H831 C807 0.949 . S
H832 C809 0.950 . S
H833 C811 0.950 . S
C834 C835 1.349 . S
C834 C836 1.327 . S
C834 H859 0.950 . S
C835 C834 1.349 . S
C835 C851 1.349 . S
C836 C834 1.327 . S
C836 C855 1.429 . S
C836 H860 0.950 . S
C837 C854 1.574 . S
C837 C856 1.368 . S
C837 H861 0.949 . S
H838 C842 0.949 . S
C839 C840 1.349 . S
C839 C841 1.327 . S
C839 H862 0.950 . S
C840 C839 1.349 . S
C840 C852 1.349 . S
C841 C839 1.327 . S
C841 C857 1.429 . S
C841 H863 0.950 . S
C842 H838 0.949 . S
C842 C850 1.574 . S
C842 C858 1.368 . S
H843 C851 0.950 . S
H844 C849 0.950 . S
H845 C850 0.949 . S
H846 C852 0.950 . S
H847 C853 0.950 . S
H848 C854 0.949 . S
C849 H844 0.950 . S
C849 C851 1.327 . S
C849 C855 1.429 . S
C850 C842 1.574 . S
C850 H845 0.949 . S
C850 C856 1.368 . S
C851 C835 1.349 . S
C851 H843 0.950 . S
C851 C849 1.327 . S
C852 C840 1.349 . S
C852 H846 0.950 . S
C852 C853 1.327 . S
C853 H847 0.950 . S
C853 C852 1.327 . S
C853 C857 1.429 . S
C854 C837 1.574 . S
C854 H848 0.949 . S
C854 C858 1.368 . S
C855 C836 1.429 . S
C855 C849 1.429 . S
C855 C856 1.523 . S
C856 C837 1.368 . S
C856 C850 1.368 . S
C856 C855 1.523 . S
C857 C841 1.429 . S
C857 C853 1.429 . S
C857 C858 1.523 . S
C858 C842 1.368 . S
C858 C854 1.368 . S
C858 C857 1.523 . S
H859 C834 0.950 . S
H860 C836 0.950 . S
H861 C837 0.949 . S
H862 C839 0.950 . S
H863 C841 0.950 . S
C864 C865 1.349 . S
C864 C866 1.327 . S
C864 H889 0.950 . S
C865 C864 1.349 . S
C865 C881 1.349 . S
C866 C864 1.327 . S
C866 C885 1.429 . S
C866 H890 0.950 . S
C867 C884 1.574 . S
C867 C886 1.368 . S
C867 H891 0.949 . S
H868 C872 0.949 . S
C869 C870 1.349 . S
C869 C871 1.327 . S
C869 H892 0.950 . S
C870 C869 1.349 . S
C870 C882 1.349 . S
C871 C869 1.327 . S
C871 C887 1.429 . S
C871 H893 0.950 . S
C872 H868 0.949 . S
C872 C880 1.574 . S
C872 C888 1.368 . S
H873 C881 0.950 . S
H874 C879 0.950 . S
H875 C880 0.949 . S
H876 C882 0.950 . S
H877 C883 0.950 . S
H878 C884 0.949 . S
C879 H874 0.950 . S
C879 C881 1.327 . S
C879 C885 1.429 . S
C880 C872 1.574 . S
C880 H875 0.949 . S
C880 C886 1.368 . S
C881 C865 1.349 . S
C881 H873 0.950 . S
C881 C879 1.327 . S
C882 C870 1.349 . S
C882 H876 0.950 . S
C882 C883 1.327 . S
C883 H877 0.950 . S
C883 C882 1.327 . S
C883 C887 1.429 . S
C884 C867 1.574 . S
C884 H878 0.949 . S
C884 C888 1.368 . S
C885 C866 1.429 . S
C885 C879 1.429 . S
C885 C886 1.523 . S
C886 C867 1.368 . S
C886 C880 1.368 . S
C886 C885 1.523 . S
C887 C871 1.429 . S
C887 C883 1.429 . S
C887 C888 1.523 . S
C888 C872 1.368 . S
C888 C884 1.368 . S
C888 C887 1.523 . S
H889 C864 0.950 . S
H890 C866 0.950 . S
H891 C867 0.949 . S
H892 C869 0.950 . S
H893 C871 0.950 . S
C894 C895 1.349 . S
C894 C896 1.327 . S
C894 H919 0.950 . S
C895 C894 1.349 . S
C895 C911 1.349 . S
C896 C894 1.327 . S
C896 C915 1.429 . S
C896 H920 0.950 . S
C897 C914 1.574 . S
C897 C916 1.368 . S
C897 H921 0.949 . S
H898 C902 0.949 . S
C899 C900 1.349 . S
C899 C901 1.327 . S
C899 H922 0.950 . S
C900 C899 1.349 . S
C900 C912 1.349 . S
C901 C899 1.327 . S
C901 C917 1.429 . S
C901 H923 0.950 . S
C902 H898 0.949 . S
C902 C910 1.574 . S
C902 C918 1.368 . S
H903 C911 0.950 . S
H904 C909 0.950 . S
H905 C910 0.949 . S
H906 C912 0.950 . S
H907 C913 0.950 . S
H908 C914 0.949 . S
C909 H904 0.950 . S
C909 C911 1.327 . S
C909 C915 1.429 . S
C910 C902 1.574 . S
C910 H905 0.949 . S
C910 C916 1.368 . S
C911 C895 1.349 . S
C911 H903 0.950 . S
C911 C909 1.327 . S
C912 C900 1.349 . S
C912 H906 0.950 . S
C912 C913 1.327 . S
C913 H907 0.950 . S
C913 C912 1.327 . S
C913 C917 1.429 . S
C914 C897 1.574 . S
C914 H908 0.949 . S
C914 C918 1.368 . S
C915 C896 1.429 . S
C915 C909 1.429 . S
C915 C916 1.523 . S
C916 C897 1.368 . S
C916 C910 1.368 . S
C916 C915 1.523 . S
C917 C901 1.429 . S
C917 C913 1.429 . S
C917 C918 1.523 . S
C918 C902 1.368 . S
C918 C914 1.368 . S
C918 C917 1.523 . S
H919 C894 0.950 . S
H920 C896 0.950 . S
H921 C897 0.949 . S
H922 C899 0.950 . S
H923 C901 0.950 . S
C924 C925 1.349 . S
C924 C926 1.327 . S
C924 H949 0.950 . S
C925 C924 1.349 . S
C925 C941 1.349 . S
C926 C924 1.327 . S
C926 C945 1.429 . S
C926 H950 0.950 . S
C927 C944 1.574 . S
C927 C946 1.368 . S
C927 H951 0.949 . S
H928 C932 0.949 . S
C929 C930 1.349 . S
C929 C931 1.327 . S
C929 H952 0.950 . S
C930 C929 1.349 . S
C930 C942 1.349 . S
C931 C929 1.327 . S
C931 C947 1.429 . S
C931 H953 0.950 . S
C932 H928 0.949 . S
C932 C940 1.574 . S
C932 C948 1.368 . S
H933 C941 0.950 . S
H934 C939 0.950 . S
H935 C940 0.949 . S
H936 C942 0.950 . S
H937 C943 0.950 . S
H938 C944 0.949 . S
C939 H934 0.950 . S
C939 C941 1.327 . S
C939 C945 1.429 . S
C940 C932 1.574 . S
C940 H935 0.949 . S
C940 C946 1.368 . S
C941 C925 1.349 . S
C941 H933 0.950 . S
C941 C939 1.327 . S
C942 C930 1.349 . S
C942 H936 0.950 . S
C942 C943 1.327 . S
C943 H937 0.950 . S
C943 C942 1.327 . S
C943 C947 1.429 . S
C944 C927 1.574 . S
C944 H938 0.949 . S
C944 C948 1.368 . S
C945 C926 1.429 . S
C945 C939 1.429 . S
C945 C946 1.523 . S
C946 C927 1.368 . S
C946 C940 1.368 . S
C946 C945 1.523 . S
C947 C931 1.429 . S
C947 C943 1.429 . S
C947 C948 1.523 . S
C948 C932 1.368 . S
C948 C944 1.368 . S
C948 C947 1.523 . S
H949 C924 0.950 . S
H950 C926 0.950 . S
H951 C927 0.949 . S
H952 C929 0.950 . S
H953 C931 0.950 . S
C954 C955 1.349 . S
C954 C956 1.327 . S
C954 H979 0.950 . S
C955 C954 1.349 . S
C955 C971 1.349 . S
C956 C954 1.327 . S
C956 C975 1.429 . S
C956 H980 0.950 . S
C957 C974 1.574 . S
C957 C976 1.368 . S
C957 H981 0.949 . S
H958 C962 0.949 . S
C959 C960 1.349 . S
C959 C961 1.327 . S
C959 H982 0.950 . S
C960 C959 1.349 . S
C960 C972 1.349 . S
C961 C959 1.327 . S
C961 C977 1.429 . S
C961 H983 0.950 . S
C962 H958 0.949 . S
C962 C970 1.574 . S
C962 C978 1.368 . S
H963 C971 0.950 . S
H964 C969 0.950 . S
H965 C970 0.949 . S
H966 C972 0.950 . S
H967 C973 0.950 . S
H968 C974 0.949 . S
C969 H964 0.950 . S
C969 C971 1.327 . S
C969 C975 1.429 . S
C970 C962 1.574 . S
C970 H965 0.949 . S
C970 C976 1.368 . S
C971 C955 1.349 . S
C971 H963 0.950 . S
C971 C969 1.327 . S
C972 C960 1.349 . S
C972 H966 0.950 . S
C972 C973 1.327 . S
C973 H967 0.950 . S
C973 C972 1.327 . S
C973 C977 1.429 . S
C974 C957 1.574 . S
C974 H968 0.949 . S
C974 C978 1.368 . S
C975 C956 1.429 . S
C975 C969 1.429 . S
C975 C976 1.523 . S
C976 C957 1.368 . S
C976 C970 1.368 . S
C976 C975 1.523 . S
C977 C961 1.429 . S
C977 C973 1.429 . S
C977 C978 1.523 . S
C978 C962 1.368 . S
C978 C974 1.368 . S
C978 C977 1.523 . S
H979 C954 0.950 . S
H980 C956 0.950 . S
H981 C957 0.949 . S
H982 C959 0.950 . S
H983 C961 0.950 . S
C265 N1 0.949 . S
C270 C110 0.969 . S
C295 N18 1.117 . S
C300 C159 1.149 . S
C330 C194 1.971 . S
C325 N28 2.008 . S
C355 N40 2.557 . S
C360 C233 2.542 . S
C390 C154 2.603 . S
C385 N5 2.564 . S
C420 C113 0.825 . S
C415 N14 0.835 . S
C450 C243 2.002 . S
C445 N31 2.004 . S
C480 C202 1.228 . S
C475 N41 1.255 . S
C505 N2 1.378 . S
C510 C230 1.401 . S
C540 C162 2.452 1_556 S
C535 N27 2.521 . S
C565 N44 2.403 . S
C570 C123 2.435 1_655 S
C595 N15 0.525 . S
C600 C199 0.529 . S
C630 C119 1.499 . S
C625 N57 1.510 . S
C655 N70 0.853 . S
C660 C150 0.869 . S
C685 N79 2.234 . S
C690 C203 2.257 . S
C715 N93 2.309 . S
C720 C242 2.280 . S
C745 N54 1.989 . S
C750 C163 2.063 1_566 S
C780 C122 1.612 . S
C775 N66 1.699 . S
C810 C234 1.255 . S
C805 N80 1.288 . S
C840 C193 1.614 . S
C835 N96 1.621 . S
C865 N53 1.477 . S
C870 C239 1.510 . S
C900 C153 2.101 . S
C895 N83 2.104 . S
C930 C114 2.654 . S
C925 N92 2.637 . S
C955 N67 0.702 . S
C960 C190 0.698 . S
