# Generated by pormake.
# Topology zzz, (3,6)-cn, num edge types: 1
# Building blocks:
#     Node 0, Type 0, BuildingBlock: KAKCAD_clean_linker_0, # of connection points: 3
#     Node 1, Type 0, BuildingBlock: KAKCAD_clean_linker_0, # of connection points: 3
#     Node 2, Type 0, BuildingBlock: KAKCAD_clean_linker_0, # of connection points: 3
#     Node 3, Type 0, BuildingBlock: KAKCAD_clean_linker_0, # of connection points: 3
#     Node 4, Type 0, BuildingBlock: KAKCAD_clean_linker_0, # of connection points: 3
#     Node 5, Type 0, BuildingBlock: KAKCAD_clean_linker_0, # of connection points: 3
#     Node 6, Type 0, BuildingBlock: KAKCAD_clean_linker_0, # of connection points: 3
#     Node 7, Type 0, BuildingBlock: KAKCAD_clean_linker_0, # of connection points: 3
#     Node 8, Type 1, BuildingBlock: CUKXOW_clean_sbu_0, # of connection points: 6
#     Node 9, Type 1, BuildingBlock: CUKXOW_clean_sbu_0, # of connection points: 6
#     Node 10, Type 1, BuildingBlock: CUKXOW_clean_sbu_0, # of connection points: 6
#     Node 11, Type 1, BuildingBlock: CUKXOW_clean_sbu_0, # of connection points: 6
#     Edge 12, Type (0, 1), BuildingBlock: CIFDUS_clean_linker_0, # of connection points: 2
#     Edge 13, Type (0, 1), BuildingBlock: CIFDUS_clean_linker_0, # of connection points: 2
#     Edge 14, Type (0, 1), BuildingBlock: CIFDUS_clean_linker_0, # of connection points: 2
#     Edge 15, Type (0, 1), BuildingBlock: CIFDUS_clean_linker_0, # of connection points: 2
#     Edge 16, Type (0, 1), BuildingBlock: CIFDUS_clean_linker_0, # of connection points: 2
#     Edge 17, Type (0, 1), BuildingBlock: CIFDUS_clean_linker_0, # of connection points: 2
#     Edge 18, Type (0, 1), BuildingBlock: CIFDUS_clean_linker_0, # of connection points: 2
#     Edge 19, Type (0, 1), BuildingBlock: CIFDUS_clean_linker_0, # of connection points: 2
#     Edge 20, Type (0, 1), BuildingBlock: CIFDUS_clean_linker_0, # of connection points: 2
#     Edge 21, Type (0, 1), BuildingBlock: CIFDUS_clean_linker_0, # of connection points: 2
#     Edge 22, Type (0, 1), BuildingBlock: CIFDUS_clean_linker_0, # of connection points: 2
#     Edge 23, Type (0, 1), BuildingBlock: CIFDUS_clean_linker_0, # of connection points: 2
#     Edge 24, Type (0, 1), BuildingBlock: CIFDUS_clean_linker_0, # of connection points: 2
#     Edge 25, Type (0, 1), BuildingBlock: CIFDUS_clean_linker_0, # of connection points: 2
#     Edge 26, Type (0, 1), BuildingBlock: CIFDUS_clean_linker_0, # of connection points: 2
#     Edge 27, Type (0, 1), BuildingBlock: CIFDUS_clean_linker_0, # of connection points: 2
#     Edge 28, Type (0, 1), BuildingBlock: CIFDUS_clean_linker_0, # of connection points: 2
#     Edge 29, Type (0, 1), BuildingBlock: CIFDUS_clean_linker_0, # of connection points: 2
#     Edge 30, Type (0, 1), BuildingBlock: CIFDUS_clean_linker_0, # of connection points: 2
#     Edge 31, Type (0, 1), BuildingBlock: CIFDUS_clean_linker_0, # of connection points: 2
#     Edge 32, Type (0, 1), BuildingBlock: CIFDUS_clean_linker_0, # of connection points: 2
#     Edge 33, Type (0, 1), BuildingBlock: CIFDUS_clean_linker_0, # of connection points: 2
#     Edge 34, Type (0, 1), BuildingBlock: CIFDUS_clean_linker_0, # of connection points: 2
#     Edge 35, Type (0, 1), BuildingBlock: CIFDUS_clean_linker_0, # of connection points: 2
# Relax obj value: 0.211
# Max RMSD: 0.229
# Mean RMSD: 0.185
data_MOF--net-zzz--node1-CUKXOW_clean_sbu_0--node2-KAKCAD_clean_linker_0--edge1-CIFDUS_clean_linker_0
_symmetry_space_group_name_H-M    P1
_symmetry_Int_Tables_number       1
_symmetry_cell_setting            triclinic
loop_
_symmetry_equiv_pos_as_xyz
'x, y, z'
_cell_length_a     52.681388
_cell_length_b     51.825871
_cell_length_c     18.559757
_cell_angle_alpha  92.681627
_cell_angle_beta   88.044509
_cell_angle_gamma 95.546832
loop_
_atom_site_label
_atom_site_type_symbol
_atom_site_fract_x
_atom_site_fract_y
_atom_site_fract_z
_atom_type_partial_charge
C0 C 0.83231 0.47102 0.94088 0.0
C1 C 0.8468 0.44965 0.93363 0.0
C2 C 0.80986 0.46967 0.98338 0.0
C3 C 0.80197 0.44714 0.02033 0.0
C4 C 0.81596 0.42546 0.01099 0.0
C5 C 0.83811 0.42661 0.96718 0.0
C6 C 0.78127 0.44756 0.07566 0.0
C7 C 0.75641 0.45126 0.05732 0.0
C8 C 0.73726 0.45366 0.11126 0.0
C9 C 0.74353 0.4533 0.18449 0.0
C10 C 0.76846 0.44912 0.20299 0.0
C11 C 0.78704 0.44603 0.14814 0.0
C12 C 0.77642 0.44919 0.27875 0.0
C13 C 0.77597 0.47174 0.32349 0.0
C14 C 0.78925 0.42859 0.30125 0.0
C15 C 0.80322 0.43128 0.36419 0.0
C16 C 0.8048 0.45473 0.40581 0.0
C17 C 0.71086 0.45616 0.08937 0.0
C18 C 0.69766 0.47724 0.11454 0.0
C19 C 0.6995 0.43824 0.03819 0.0
C20 C 0.67574 0.44166 0.01107 0.0
C21 C 0.66286 0.46324 0.03394 0.0
C22 C 0.67393 0.48089 0.08655 0.0
C23 C 0.79011 0.47452 0.38648 0.0
H24 H 0.83883 0.48899 0.9156 0.0
H25 H 0.79944 0.48668 0.99067 0.0
H26 H 0.81023 0.40799 0.03961 0.0
H27 H 0.8492 0.41002 0.96271 0.0
H28 H 0.752 0.45241 0.00097 0.0
H29 H 0.80649 0.44361 0.16211 0.0
H30 H 0.72903 0.4556 0.22654 0.0
H31 H 0.76637 0.48795 0.30694 0.0
H32 H 0.78993 0.41105 0.26738 0.0
H33 H 0.81439 0.41571 0.37692 0.0
H34 H 0.70612 0.49139 0.15371 0.0
H35 H 0.70928 0.42179 0.01806 0.0
H36 H 0.79066 0.49269 0.41793 0.0
H37 H 0.66435 0.49762 0.10541 0.0
H38 H 0.66786 0.42787 0.97012 0.0
C39 C 0.92027 0.84037 0.92754 0.0
C40 C 0.94316 0.84002 0.88638 0.0
C41 C 0.91124 0.8192 0.96816 0.0
C42 C 0.92484 0.79718 0.96811 0.0
C43 C 0.94675 0.79611 0.92309 0.0
C44 C 0.95583 0.81733 0.88268 0.0
C45 C 0.91822 0.77691 0.02122 0.0
C46 C 0.91948 0.75058 0.00182 0.0
C47 C 0.91741 0.73182 0.0546 0.0
C48 C 0.9141 0.73965 0.12764 0.0
C49 C 0.91206 0.76584 0.14727 0.0
C50 C 0.91382 0.78425 0.09389 0.0
C51 C 0.91147 0.77515 0.22355 0.0
C52 C 0.89184 0.78976 0.24995 0.0
C53 C 0.93291 0.77381 0.26542 0.0
C54 C 0.93584 0.78891 0.32953 0.0
C55 C 0.9172 0.8054 0.35312 0.0
C56 C 0.92072 0.70447 0.03294 0.0
C57 C 0.90812 0.69257 0.97286 0.0
C58 C 0.93807 0.69085 0.0683 0.0
C59 C 0.9436 0.66625 0.0419 0.0
C60 C 0.9317 0.65476 0.9801 0.0
C61 C 0.91348 0.66793 0.94683 0.0
C62 C 0.89451 0.80447 0.31469 0.0
H63 H 0.90977 0.85738 0.93029 0.0
H64 H 0.89411 0.8204 0.00166 0.0
H65 H 0.95781 0.77954 0.92254 0.0
H66 H 0.97363 0.81649 0.85205 0.0
H67 H 0.92314 0.74482 0.9458 0.0
H68 H 0.91369 0.80464 0.10989 0.0
H69 H 0.91327 0.7255 0.16908 0.0
H70 H 0.87512 0.79099 0.21833 0.0
H71 H 0.94839 0.76284 0.24549 0.0
H72 H 0.95363 0.78919 0.35717 0.0
H73 H 0.89454 0.70262 0.94493 0.0
H74 H 0.94819 0.69966 0.11444 0.0
H75 H 0.87945 0.81634 0.33227 0.0
H76 H 0.90415 0.65967 0.89879 0.0
H77 H 0.95755 0.65641 0.06894 0.0
C78 C 0.65877 0.99054 0.0043 0.0
C79 C 0.65454 0.01497 0.97922 0.0
C80 C 0.68093 0.98735 0.04098 0.0
C81 C 0.6995 0.00832 0.05145 0.0
C82 C 0.69621 0.03218 0.02249 0.0
C83 C 0.67391 0.03556 0.98714 0.0
C84 C 0.71926 0.0073 0.10494 0.0
C85 C 0.74491 0.00624 0.08454 0.0
C86 C 0.76381 0.00884 0.13696 0.0
C87 C 0.75673 0.01307 0.21036 0.0
C88 C 0.73085 0.0143 0.2306 0.0
C89 C 0.71237 0.01084 0.17758 0.0
C90 C 0.72197 0.02027 0.30554 0.0
C91 C 0.72459 0.00321 0.36071 0.0
C92 C 0.70589 0.04017 0.31766 0.0
C93 C 0.69042 0.04121 0.3798 0.0
C94 C 0.69099 0.02269 0.43279 0.0
C95 C 0.79082 0.00839 0.11261 0.0
C96 C 0.79822 0.98727 0.06958 0.0
C97 C 0.80839 0.03023 0.12385 0.0
C98 C 0.83248 0.03153 0.08887 0.0
C99 C 0.83944 0.01091 0.04251 0.0
C100 C 0.82231 0.9884 0.03553 0.0
C101 C 0.70937 0.00455 0.42416 0.0
H102 H 0.64459 0.97409 0.99787 0.0
H103 H 0.68306 0.96888 0.06401 0.0
H104 H 0.71011 0.04874 0.03167 0.0
H105 H 0.67132 0.05478 0.96999 0.0
H106 H 0.75024 0.00413 0.02775 0.0
H107 H 0.69239 0.01192 0.19266 0.0
H108 H 0.77119 0.01579 0.25089 0.0
H109 H 0.7369 0.98769 0.35257 0.0
H110 H 0.70362 0.05363 0.27587 0.0
H111 H 0.67659 0.05536 0.38266 0.0
H112 H 0.78499 0.97016 0.06046 0.0
H113 H 0.80298 0.04685 0.15628 0.0
H114 H 0.71109 0.99045 0.46447 0.0
H115 H 0.82723 0.97183 0.00207 0.0
H116 H 0.84508 0.04921 0.09534 0.0
C117 C 0.57849 0.73168 0.43004 0.0
C118 C 0.58929 0.70796 0.43496 0.0
C119 C 0.58101 0.74517 0.36607 0.0
C120 C 0.59473 0.73544 0.30628 0.0
C121 C 0.60816 0.71368 0.31445 0.0
C122 C 0.60525 0.69994 0.37746 0.0
C123 C 0.59129 0.74453 0.23275 0.0
C124 C 0.59153 0.77101 0.2185 0.0
C125 C 0.58625 0.77859 0.1489 0.0
C126 C 0.58024 0.75932 0.09441 0.0
C127 C 0.57992 0.73298 0.10807 0.0
C128 C 0.58555 0.72583 0.17703 0.0
C129 C 0.57205 0.71257 0.05248 0.0
C130 C 0.54987 0.71393 0.01339 0.0
C131 C 0.58539 0.69041 0.04312 0.0
C132 C 0.57595 0.6694 0.99895 0.0
C133 C 0.55294 0.67008 0.96327 0.0
C134 C 0.58569 0.80636 0.1324 0.0
C135 C 0.57421 0.82375 0.18079 0.0
C136 C 0.59454 0.81502 0.06461 0.0
C137 C 0.59018 0.8396 0.0433 0.0
C138 C 0.57732 0.85657 0.0898 0.0
C139 C 0.57018 0.84863 0.15983 0.0
C140 C 0.54039 0.69285 0.96912 0.0
H141 H 0.56681 0.73906 0.47393 0.0
H142 H 0.5706 0.76204 0.3617 0.0
H143 H 0.61936 0.70603 0.26976 0.0
H144 H 0.61396 0.68189 0.37802 0.0
H145 H 0.59592 0.78556 0.26119 0.0
H146 H 0.58406 0.70539 0.18837 0.0
H147 H 0.5753 0.76475 0.04135 0.0
H148 H 0.5391 0.7307 0.02 0.0
H149 H 0.60277 0.68903 0.07169 0.0
H150 H 0.58632 0.65231 0.99423 0.0
H151 H 0.56719 0.81774 0.23351 0.0
H152 H 0.604 0.80236 0.02656 0.0
H153 H 0.52255 0.69388 0.94255 0.0
H154 H 0.56075 0.8613 0.19783 0.0
H155 H 0.59578 0.84462 0.9887 0.0
C156 C 0.18964 0.53512 0.45497 0.0
C157 C 0.16611 0.5241 0.42836 0.0
C158 C 0.21188 0.53576 0.41099 0.0
C159 C 0.21111 0.52504 0.33989 0.0
C160 C 0.18769 0.51345 0.3145 0.0
C161 C 0.16555 0.51355 0.35717 0.0
C162 C 0.23423 0.52567 0.29115 0.0
C163 C 0.25841 0.52256 0.31699 0.0
C164 C 0.27951 0.52031 0.26907 0.0
C165 C 0.27593 0.52 0.19394 0.0
C166 C 0.25193 0.52395 0.1678 0.0
C167 C 0.23168 0.52764 0.21678 0.0
C168 C 0.24584 0.52137 0.09032 0.0
C169 C 0.23343 0.54093 0.06019 0.0
C170 C 0.24486 0.49679 0.05492 0.0
C171 C 0.22901 0.49096 0.99607 0.0
C172 C 0.21381 0.50959 0.972 0.0
C173 C 0.30496 0.51805 0.29911 0.0
C174 C 0.31326 0.53451 0.35767 0.0
C175 C 0.3204 0.49881 0.27296 0.0
C176 C 0.3433 0.4956 0.30648 0.0
C177 C 0.35127 0.51176 0.36618 0.0
C178 C 0.33608 0.53142 0.39073 0.0
C179 C 0.21752 0.5351 0.00176 0.0
H180 H 0.19097 0.54322 0.50967 0.0
H181 H 0.22954 0.54493 0.43247 0.0
H182 H 0.18624 0.50419 0.26111 0.0
H183 H 0.1479 0.50556 0.33319 0.0
H184 H 0.26073 0.52091 0.37432 0.0
H185 H 0.21331 0.53085 0.19601 0.0
H186 H 0.2917 0.51721 0.15626 0.0
H187 H 0.23378 0.56 0.08691 0.0
H188 H 0.2541 0.48133 0.07739 0.0
H189 H 0.22715 0.47128 0.9732 0.0
H190 H 0.30187 0.54965 0.37865 0.0
H191 H 0.31441 0.48576 0.22815 0.0
H192 H 0.20621 0.55002 0.9851 0.0
H193 H 0.34144 0.54401 0.43705 0.0
H194 H 0.35468 0.4804 0.28597 0.0
C195 C 0.07871 0.17011 0.45997 0.0
C196 C 0.08476 0.14595 0.42951 0.0
C197 C 0.08562 0.19298 0.42427 0.0
C198 C 0.09986 0.19257 0.35875 0.0
C199 C 0.10897 0.16899 0.334 0.0
C200 C 0.10102 0.14596 0.36764 0.0
C201 C 0.10212 0.2154 0.31172 0.0
C202 C 0.10104 0.24077 0.34074 0.0
C203 C 0.09778 0.26137 0.29615 0.0
C204 C 0.0979 0.25692 0.2207 0.0
C205 C 0.1002 0.23186 0.19042 0.0
C206 C 0.10177 0.21136 0.23646 0.0
C207 C 0.09763 0.2254 0.11197 0.0
C208 C 0.07756 0.23372 0.07389 0.0
C209 C 0.11221 0.20662 0.0789 0.0
C210 C 0.10459 0.1936 0.01477 0.0
C211 C 0.0826 0.19962 0.98033 0.0
C212 C 0.09118 0.28648 0.32971 0.0
C213 C 0.1025 0.31031 0.30546 0.0
C214 C 0.07292 0.2865 0.38672 0.0
C215 C 0.06632 0.30972 0.41946 0.0
C216 C 0.07773 0.33359 0.39598 0.0
C217 C 0.09595 0.3337 0.33871 0.0
C218 C 0.07033 0.22117 0.00817 0.0
H219 H 0.06752 0.17144 0.50972 0.0
H220 H 0.0783 0.21058 0.44627 0.0
H221 H 0.12108 0.16792 0.28585 0.0
H222 H 0.10655 0.12815 0.34185 0.0
H223 H 0.10163 0.2445 0.39858 0.0
H224 H 0.10083 0.19178 0.21311 0.0
H225 H 0.09512 0.27259 0.18601 0.0
H226 H 0.06611 0.24839 0.09748 0.0
H227 H 0.12821 0.20026 0.1062 0.0
H228 H 0.11488 0.17735 0.99648 0.0
H229 H 0.1166 0.31083 0.26158 0.0
H230 H 0.06353 0.26847 0.40585 0.0
H231 H 0.05407 0.22737 0.98193 0.0
H232 H 0.10494 0.35185 0.31928 0.0
H233 H 0.05247 0.30895 0.46399 0.0
C234 C 0.33492 0.97248 0.4646 0.0
C235 C 0.36011 0.97971 0.43991 0.0
C236 C 0.31428 0.97347 0.41948 0.0
C237 C 0.31816 0.98257 0.34931 0.0
C238 C 0.34322 0.99081 0.32615 0.0
C239 C 0.3638 0.98865 0.36957 0.0
C240 C 0.29661 0.98329 0.29933 0.0
C241 C 0.27178 0.9872 0.32469 0.0
C242 C 0.25205 0.98916 0.27637 0.0
C243 C 0.25766 0.9887 0.20139 0.0
C244 C 0.28236 0.98435 0.17575 0.0
C245 C 0.30115 0.98073 0.22465 0.0
C246 C 0.29065 0.98503 0.09901 0.0
C247 C 0.29684 0.96187 0.06346 0.0
C248 C 0.30151 0.00876 0.07315 0.0
C249 C 0.32061 0.00925 0.01876 0.0
C250 C 0.32914 0.98597 0.98934 0.0
C251 C 0.22576 0.99133 0.30604 0.0
C252 C 0.21561 0.97419 0.35845 0.0
C253 C 0.21135 0.0112 0.28641 0.0
C254 C 0.18762 0.01439 0.3207 0.0
C255 C 0.17776 0.99752 0.37434 0.0
C256 C 0.1919 0.97719 0.39199 0.0
C257 C 0.31585 0.96232 0.00889 0.0
H258 H 0.33093 0.96602 0.51873 0.0
H259 H 0.29539 0.96676 0.43964 0.0
H260 H 0.34726 0.99895 0.2739 0.0
H261 H 0.38264 0.99377 0.34658 0.0
H262 H 0.26771 0.9893 0.38213 0.0
H263 H 0.31976 0.97644 0.20333 0.0
H264 H 0.24294 0.99109 0.16356 0.0
H265 H 0.28906 0.94333 0.08335 0.0
H266 H 0.29748 0.02684 0.10087 0.0
H267 H 0.33039 0.02782 0.00527 0.0
H268 H 0.22625 0.95862 0.37434 0.0
H269 H 0.21879 0.02474 0.24642 0.0
H270 H 0.32155 0.94406 0.98617 0.0
H271 H 0.18501 0.96401 0.43348 0.0
H272 H 0.17706 0.03012 0.30558 0.0
C273 C 0.38441 0.31284 0.0057 0.0
C274 C 0.40823 0.31892 0.97058 0.0
C275 C 0.38253 0.29766 0.06634 0.0
C276 C 0.40424 0.28771 0.09149 0.0
C277 C 0.42718 0.2908 0.05103 0.0
C278 C 0.42923 0.30636 0.99125 0.0
C279 C 0.40538 0.28233 0.16842 0.0
C280 C 0.40646 0.25717 0.1926 0.0
C281 C 0.41059 0.25372 0.26593 0.0
C282 C 0.41484 0.27548 0.3135 0.0
C283 C 0.41467 0.30058 0.28891 0.0
C284 C 0.40909 0.30379 0.21699 0.0
C285 C 0.42425 0.32346 0.33403 0.0
C286 C 0.44851 0.32426 0.36334 0.0
C287 C 0.41093 0.34567 0.34032 0.0
C288 C 0.42203 0.36856 0.37375 0.0
C289 C 0.44689 0.36981 0.40016 0.0
C290 C 0.41288 0.22787 0.29368 0.0
C291 C 0.39615 0.21866 0.3491 0.0
C292 C 0.43423 0.21461 0.27428 0.0
C293 C 0.43972 0.19344 0.31321 0.0
C294 C 0.42383 0.1851 0.37187 0.0
C295 C 0.40142 0.19732 0.38733 0.0
C296 C 0.45979 0.34721 0.39547 0.0
H297 H 0.36765 0.32152 0.99009 0.0
H298 H 0.3647 0.2957 0.09736 0.0
H299 H 0.44426 0.28367 0.0704 0.0
H300 H 0.44794 0.31055 0.96626 0.0
H301 H 0.40444 0.24057 0.15481 0.0
H302 H 0.40969 0.32322 0.19713 0.0
H303 H 0.41942 0.2729 0.3691 0.0
H304 H 0.45937 0.30752 0.35782 0.0
H305 H 0.39218 0.34546 0.31796 0.0
H306 H 0.41126 0.38536 0.37774 0.0
H307 H 0.37961 0.22873 0.36495 0.0
H308 H 0.44757 0.22171 0.23237 0.0
H309 H 0.47911 0.34742 0.41369 0.0
H310 H 0.38842 0.19105 0.43093 0.0
H311 H 0.45726 0.18471 0.30011 0.0
Tb312 Tb 0.9869 0.97916 0.62646 0.0
C313 C 0.04507 0.99314 0.59952 0.0
Tb314 Tb 0.01348 0.02414 0.72038 0.0
O315 O 0.9949 0.00275 0.53177 0.0
O316 O 0.98872 0.02008 0.63314 0.0
O317 O 0.02626 0.97416 0.59582 0.0
C318 C 0.03685 0.07016 0.76102 0.0
O319 O 0.04287 0.01528 0.63779 0.0
C320 C 0.00717 0.97947 0.78138 0.0
C321 C 0.95583 0.00647 0.75481 0.0
O322 O 0.04638 0.04806 0.7644 0.0
O323 O 0.01404 0.06632 0.73594 0.0
O324 O 0.01002 0.00163 0.81763 0.0
O325 O 0.01125 0.98333 0.71529 0.0
O326 O 0.97453 0.02541 0.76347 0.0
O327 O 0.95759 0.98609 0.70931 0.0
C328 C 0.96036 0.9374 0.56791 0.0
O329 O 0.95659 0.96131 0.55785 0.0
O330 O 0.97921 0.93693 0.61094 0.0
C331 C 0.99453 0.02463 0.56855 0.0
Tb332 Tb 0.50445 0.0459 0.6753 0.0
C333 C 0.55946 0.0283 0.6522 0.0
Tb334 Tb 0.5187 0.99856 0.75847 0.0
O335 O 0.53126 0.07275 0.73623 0.0
O336 O 0.51587 0.03859 0.78 0.0
O337 O 0.54153 0.0409 0.62462 0.0
C338 C 0.54042 0.96769 0.8445 0.0
O339 O 0.55524 0.01302 0.70779 0.0
C340 C 0.49176 0.98674 0.64355 0.0
C341 C 0.46337 0.01622 0.77941 0.0
O342 O 0.54593 0.97037 0.77651 0.0
O343 O 0.52233 0.98206 0.86408 0.0
O344 O 0.49266 0.97119 0.69616 0.0
O345 O 0.508 0.00588 0.65393 0.0
O346 O 0.48148 0.00432 0.80898 0.0
O347 O 0.46779 0.03087 0.72261 0.0
C348 C 0.48472 0.07728 0.58663 0.0
O349 O 0.48299 0.0791 0.65667 0.0
O350 O 0.49773 0.05804 0.56689 0.0
C351 C 0.53274 0.05731 0.78883 0.0
Tb352 Tb 0.52735 0.53372 0.67152 0.0
C353 C 0.47265 0.51646 0.61519 0.0
Tb354 Tb 0.49628 0.48628 0.73923 0.0
O355 O 0.52948 0.51162 0.56781 0.0
O356 O 0.52704 0.49303 0.66472 0.0
O357 O 0.49065 0.53607 0.62367 0.0
C358 C 0.47161 0.43999 0.76471 0.0
O359 O 0.47261 0.49441 0.64927 0.0
C360 C 0.49666 0.53032 0.8148 0.0
C361 C 0.55068 0.50409 0.79711 0.0
O362 O 0.46352 0.46225 0.7841 0.0
O363 O 0.49361 0.44386 0.73153 0.0
O364 O 0.49357 0.50774 0.84329 0.0
O365 O 0.49686 0.52707 0.7472 0.0
O366 O 0.53294 0.48422 0.78813 0.0
O367 O 0.55036 0.52619 0.76338 0.0
C368 C 0.55237 0.57956 0.64223 0.0
O369 O 0.5618 0.5573 0.63465 0.0
O370 O 0.52894 0.57591 0.66602 0.0
C371 C 0.52706 0.48926 0.59747 0.0
Tb372 Tb 0.98179 0.49277 0.65483 0.0
C373 C 0.01816 0.44941 0.62052 0.0
Tb374 Tb 0.03301 0.49589 0.73546 0.0
O375 O 0.00266 0.49926 0.55257 0.0
O376 O 0.01811 0.51404 0.64892 0.0
O377 O 0.99405 0.45507 0.62168 0.0
C378 C 0.08216 0.5008 0.77031 0.0
O379 O 0.03655 0.46401 0.6549 0.0
C380 C 0.99217 0.47691 0.80706 0.0
C381 C 0.99547 0.53785 0.77396 0.0
O382 O 0.06535 0.48208 0.78888 0.0
O383 O 0.07123 0.51679 0.73254 0.0
O384 O 0.01215 0.48863 0.83803 0.0
O385 O 0.99695 0.47439 0.74047 0.0
O386 O 0.01976 0.53286 0.772 0.0
O387 O 0.97739 0.52307 0.73902 0.0
C388 C 0.93382 0.49148 0.61122 0.0
O389 O 0.95172 0.5101 0.60126 0.0
O390 O 0.94292 0.4734 0.64608 0.0
C391 C 0.02281 0.51096 0.58234 0.0
H392 H 0.13923 0.96083 0.40762 0.0
H393 H 0.16152 0.043 0.43111 0.0
H394 H 0.12283 0.04892 0.50432 0.0
H395 H 0.08314 0.03047 0.56438 0.0
H396 H 0.06064 0.94831 0.53774 0.0
H397 H 0.09914 0.94265 0.46441 0.0
C398 C 0.13563 0.98003 0.42885 0.0
C399 C 0.1533 0.00141 0.41411 0.0
C400 C 0.11341 0.98327 0.47099 0.0
C401 C 0.14814 0.02624 0.44105 0.0
C402 C 0.12611 0.02961 0.48343 0.0
C403 C 0.08668 0.01131 0.5427 0.0
C404 C 0.06898 0.98985 0.55686 0.0
C405 C 0.1087 0.00822 0.49927 0.0
C406 C 0.07385 0.9652 0.52779 0.0
C407 C 0.09588 0.96192 0.48568 0.0
H408 H 0.44737 0.14118 0.33608 0.0
H409 H 0.41877 0.18552 0.51891 0.0
H410 H 0.43402 0.15557 0.60088 0.0
H411 H 0.45739 0.11798 0.62173 0.0
H412 H 0.48736 0.07437 0.44001 0.0
H413 H 0.47011 0.10303 0.35687 0.0
C414 C 0.44452 0.14434 0.39383 0.0
C415 C 0.43179 0.16559 0.42091 0.0
C416 C 0.45383 0.1273 0.44111 0.0
C417 C 0.42802 0.16911 0.49609 0.0
C418 C 0.43698 0.15212 0.54329 0.0
C419 C 0.46007 0.11476 0.56391 0.0
C420 C 0.47372 0.09427 0.53693 0.0
C421 C 0.45016 0.13133 0.51651 0.0
C422 C 0.477 0.09016 0.46197 0.0
C423 C 0.46712 0.10651 0.41444 0.0
H424 H 0.38726 0.54872 0.41649 0.0
H425 H 0.368 0.46586 0.40361 0.0
H426 H 0.40432 0.45979 0.47775 0.0
H427 H 0.44003 0.47837 0.55258 0.0
H428 H 0.45864 0.56143 0.56533 0.0
H429 H 0.42388 0.56703 0.48596 0.0
C430 C 0.39096 0.52932 0.43001 0.0
C431 C 0.37476 0.50781 0.40506 0.0
C432 C 0.4116 0.52602 0.47344 0.0
C433 C 0.38022 0.48276 0.42169 0.0
C434 C 0.40086 0.47929 0.46466 0.0
C435 C 0.43642 0.49769 0.53815 0.0
C436 C 0.45177 0.51946 0.56565 0.0
C437 C 0.41641 0.50083 0.49194 0.0
C438 C 0.44712 0.54433 0.54524 0.0
C439 C 0.42721 0.54758 0.49981 0.0
H440 H 0.03019 0.34614 0.43436 0.0
H441 H 0.1095 0.37585 0.44001 0.0
H442 H 0.09801 0.41447 0.50984 0.0
H443 H 0.06562 0.43865 0.57388 0.0
H444 H 0.98625 0.40881 0.56755 0.0
H445 H 0.99768 0.37106 0.49441 0.0
C446 C 0.04497 0.36105 0.45104 0.0
C447 C 0.07067 0.35805 0.4326 0.0
C448 C 0.03826 0.38298 0.49171 0.0
C449 C 0.08957 0.37778 0.45317 0.0
C450 C 0.08303 0.39974 0.49359 0.0
C451 C 0.05081 0.42384 0.5568 0.0
C452 C 0.02513 0.42643 0.5768 0.0
C453 C 0.05747 0.40234 0.51404 0.0
C454 C 0.00616 0.40727 0.55315 0.0
C455 C 0.01267 0.38569 0.51125 0.0
H456 H 0.84646 0.99379 0.90333 0.0
H457 H 0.8868 0.03391 0.08042 0.0
H458 H 0.92604 0.03782 0.0056 0.0
H459 H 0.94931 0.02833 0.89041 0.0
H460 H 0.90868 0.98579 0.71759 0.0
H461 H 0.86929 0.98405 0.79059 0.0
C462 C 0.86387 0.00306 0.92626 0.0
C463 C 0.8636 0.0133 0.99787 0.0
C464 C 0.88639 0.00483 0.8835 0.0
C465 C 0.88631 0.02596 0.02544 0.0
C466 C 0.90882 0.0281 0.98274 0.0
C467 C 0.93174 0.01896 0.86864 0.0
C468 C 0.9319 0.0073 0.79857 0.0
C469 C 0.90912 0.01751 0.91169 0.0
C470 C 0.9091 0.99486 0.7714 0.0
C471 C 0.88654 0.99383 0.8131 0.0
H472 H 0.60289 0.88883 0.99308 0.0
H473 H 0.53332 0.87963 0.12343 0.0
H474 H 0.51727 0.9156 0.06517 0.0
H475 H 0.52053 0.94614 0.96666 0.0
H476 H 0.58755 0.95122 0.82637 0.0
H477 H 0.6068 0.92015 0.89781 0.0
C478 C 0.58415 0.89453 0.00875 0.0
C479 C 0.56933 0.88109 0.06225 0.0
C480 C 0.57437 0.91434 0.97227 0.0
C481 C 0.54544 0.88958 0.08319 0.0
C482 C 0.53602 0.91002 0.04915 0.0
C483 C 0.53944 0.94056 0.95237 0.0
C484 C 0.55256 0.9506 0.89119 0.0
C485 C 0.54996 0.92199 0.99212 0.0
C486 C 0.57701 0.94336 0.87284 0.0
C487 C 0.58802 0.92568 0.91372 0.0
H488 H 0.64993 0.50819 0.98133 0.0
H489 H 0.62181 0.42815 0.00817 0.0
H490 H 0.58413 0.43401 0.93976 0.0
H491 H 0.56044 0.4611 0.86665 0.0
H492 H 0.58883 0.54106 0.8377 0.0
H493 H 0.62496 0.53602 0.91299 0.0
C494 C 0.63531 0.49218 0.97327 0.0
C495 C 0.63869 0.46775 -0.00038 0.0
C496 C 0.61385 0.49559 0.93295 0.0
C497 C 0.61976 0.44708 0.98787 0.0
C498 C 0.59821 0.45042 0.94879 0.0
C499 C 0.57441 0.47751 0.87702 0.0
C500 C 0.57195 0.50136 0.84582 0.0
C501 C 0.59527 0.47446 0.92 0.0
C502 C 0.59029 0.52239 0.86032 0.0
C503 C 0.61098 0.51955 0.90355 0.0
H504 H 0.97985 0.64126 0.95636 0.0
H505 H 0.90086 0.61307 0.92855 0.0
H506 H 0.91375 0.57406 0.86374 0.0
H507 H 0.94732 0.54904 0.81085 0.0
H508 H 0.02644 0.57731 0.83758 0.0
H509 H 0.01357 0.61515 0.90788 0.0
C510 C 0.96547 0.62636 0.93719 0.0
C511 C 0.93945 0.63003 0.9471 0.0
C512 C 0.97301 0.60414 0.89942 0.0
C513 C 0.92101 0.61076 0.92097 0.0
C514 C 0.92836 0.58848 0.88402 0.0
C515 C 0.96181 0.56347 0.83185 0.0
C516 C 0.98783 0.56046 0.8182 0.0
C517 C 0.9543 0.58518 0.87199 0.0
C518 C 0.00628 0.57918 0.84693 0.0
C519 C 0.99894 0.60084 0.88714 0.0
H520 H 0.03868 0.13793 0.50322 0.0
H521 H 0.10185 0.09683 0.41868 0.0
H522 H 0.07785 0.05588 0.44488 0.0
H523 H 0.03879 0.03142 0.49121 0.0
H524 H 0.98005 0.07273 0.59799 0.0
H525 H 0.00288 0.11418 0.56499 0.0
C526 C 0.0479 0.12033 0.49239 0.0
C527 C 0.07212 0.12101 0.45707 0.0
C528 C 0.03467 0.09674 0.51146 0.0
C529 C 0.08295 0.09736 0.443 0.0
C530 C 0.06933 0.07373 0.45878 0.0
C531 C 0.03109 0.04955 0.50725 0.0
C532 C 0.00772 0.04927 0.54586 0.0
C533 C 0.04506 0.07319 0.49213 0.0
C534 C 0.99794 0.0727 0.5674 0.0
C535 C 0.01104 0.0963 0.54896 0.0
H536 H 0.40663 0.00862 0.43513 0.0
H537 H 0.36481 0.94648 0.5504 0.0
H538 H 0.4016 0.94348 0.62402 0.0
H539 H 0.44605 0.95804 0.65464 0.0
H540 H 0.48979 0.01312 0.52184 0.0
H541 H 0.45196 0.01854 0.45335 0.0
C542 C 0.40544 0.99374 0.47445 0.0
C543 C 0.38254 0.9778 0.48613 0.0
C544 C 0.42717 0.99078 0.51336 0.0
C545 C 0.38169 0.95957 0.54046 0.0
C546 C 0.40294 0.9575 0.58218 0.0
C547 C 0.44733 0.97095 0.61004 0.0
C548 C 0.47023 0.98625 0.59512 0.0
C549 C 0.42581 0.97291 0.56879 0.0
C550 C 0.47186 0.00248 0.53664 0.0
C551 C 0.45037 0.00524 0.49702 0.0
H552 H 0.48015 0.37696 0.51048 0.0
H553 H 0.44308 0.41904 0.35516 0.0
H554 H 0.4655 0.45961 0.40015 0.0
H555 H 0.49602 0.48324 0.48319 0.0
H556 H 0.53421 0.44082 0.63437 0.0
H557 H 0.5119 0.40004 0.58879 0.0
C558 C 0.47722 0.39488 0.48542 0.0
C559 C 0.45988 0.39474 0.42933 0.0
C560 C 0.49077 0.41805 0.50988 0.0
C561 C 0.45592 0.41843 0.39923 0.0
C562 C 0.46901 0.44168 0.42423 0.0
C563 C 0.49976 0.46497 0.50502 0.0
C564 C 0.51659 0.46482 0.56199 0.0
C565 C 0.48661 0.4417 0.47919 0.0
C566 C 0.52119 0.44121 0.59057 0.0
C567 C 0.50837 0.41798 0.56484 0.0
H568 H 0.12545 0.48743 0.42474 0.0
H569 H 0.15198 0.56016 0.5332 0.0
H570 H 0.1104 0.56158 0.59483 0.0
H571 H 0.06503 0.54403 0.60923 0.0
H572 H 0.03795 0.47545 0.48326 0.0
H573 H 0.08086 0.47129 0.4341 0.0
C574 C 0.1222 0.504 0.46049 0.0
C575 C 0.1419 0.52393 0.4726 0.0
C576 C 0.09786 0.50569 0.49159 0.0
C577 C 0.13738 0.5444 0.52261 0.0
C578 C 0.11344 0.54544 0.55726 0.0
C579 C 0.06869 0.52827 0.57092 0.0
C580 C 0.04856 0.50998 0.55013 0.0
C581 C 0.09334 0.52653 0.5407 0.0
C582 C 0.05321 0.48979 0.49984 0.0
C583 C 0.07775 0.48732 0.47202 0.0
H584 H 0.94629 0.88883 0.94623 0.0
H585 H 0.96765 0.84498 0.75396 0.0
H586 H 0.99046 0.88414 0.70571 0.0
H587 H 0.00521 0.93078 0.72011 0.0
H588 H 0.98179 0.97449 0.91004 0.0
H589 H 0.95922 0.93532 0.95802 0.0
C590 C 0.95548 0.88788 0.89311 0.0
C591 C 0.95515 0.86402 0.85366 0.0
C592 C 0.96846 0.91038 0.86579 0.0
C593 C 0.96775 0.86307 0.78567 0.0
C594 C 0.98076 0.88544 0.75802 0.0
C595 C 0.99475 0.9317 0.7713 0.0
C596 C 0.99482 0.95541 0.81105 0.0
C597 C 0.98139 0.90917 0.79788 0.0
C598 C 0.98205 0.95636 0.87861 0.0
C599 C 0.969 0.93403 0.90584 0.0
H600 H 0.64539 0.04726 0.87283 0.0
H601 H 0.60684 0.99359 0.02114 0.0
H602 H 0.56571 0.00332 0.97901 0.0
H603 H 0.54046 0.02767 0.90097 0.0
H604 H 0.57921 0.08225 0.75661 0.0
H605 H 0.62038 0.07282 0.79972 0.0
C606 C 0.62806 0.03787 0.8968 0.0
C607 C 0.62945 0.01968 0.95017 0.0
C608 C 0.60439 0.04415 0.87411 0.0
C609 C 0.60659 0.00731 0.97901 0.0
C610 C 0.58295 0.01312 0.95568 0.0
C611 C 0.55797 0.0374 0.87919 0.0
C612 C 0.55687 0.05521 0.82505 0.0
C613 C 0.58162 0.03158 0.90349 0.0
C614 C 0.57956 0.06845 0.79855 0.0
C615 C 0.60313 0.06286 0.82256 0.0
H616 H 0.54853 0.62127 0.01032 0.0
H617 H 0.5303 0.66587 0.83175 0.0
H618 H 0.50982 0.62657 0.77159 0.0
H619 H 0.49703 0.5794 0.77064 0.0
H620 H 0.51726 0.53504 0.94719 0.0
H621 H 0.53649 0.57451 0.00847 0.0
C622 C 0.54036 0.62236 0.9578 0.0
C623 C 0.5411 0.64638 0.92522 0.0
C624 C 0.5287 0.5998 0.92381 0.0
C625 C 0.52987 0.64759 0.858 0.0
C626 C 0.5182 0.62516 0.82363 0.0
C627 C 0.50601 0.57846 0.82199 0.0
C628 C 0.50619 0.55446 0.85388 0.0
C629 C 0.5175 0.60116 0.85611 0.0
C630 C 0.5169 0.55339 0.92174 0.0
C631 C 0.52805 0.57589 0.95651 0.0
H632 H 0.88688 0.48218 0.97513 0.0
H633 H 0.86369 0.42247 0.81508 0.0
H634 H 0.907 0.42575 0.76079 0.0
H635 H 0.95172 0.44502 0.76159 0.0
H636 H 0.97504 0.50321 0.92594 0.0
H637 H 0.93151 0.50093 0.97696 0.0
C638 C 0.89138 0.47009 0.92799 0.0
C639 C 0.87234 0.45232 0.89834 0.0
C640 C 0.91632 0.47159 0.89876 0.0
C641 C 0.87821 0.43634 0.83821 0.0
C642 C 0.9029 0.43817 0.80751 0.0
C643 C 0.94714 0.45717 0.80852 0.0
C644 C 0.96636 0.47425 0.84012 0.0
C645 C 0.92215 0.45559 0.83775 0.0
C646 C 0.9605 0.48973 0.90132 0.0
C647 C 0.93563 0.48857 0.93014 0.0
H648 H 0.10587 0.1666 0.88351 0.0
H649 H 0.03154 0.18991 0.94946 0.0
H650 H 0.01131 0.15407 0.87751 0.0
H651 H 0.01405 0.11207 0.81188 0.0
H652 H 0.08772 0.0845 0.76589 0.0
H653 H 0.10872 0.12525 0.81646 0.0
C654 C 0.08523 0.16389 0.88324 0.0
C655 C 0.07055 0.18107 0.92402 0.0
C656 C 0.07345 0.1419 0.84635 0.0
C657 C 0.04376 0.17755 0.91883 0.0
C658 C 0.03197 0.15663 0.87837 0.0
C659 C 0.03471 0.1152 0.81226 0.0
C660 C 0.0494 0.09544 0.7858 0.0
C661 C 0.04656 0.13812 0.84443 0.0
C662 C 0.0761 0.09948 0.78674 0.0
C663 C 0.08807 0.12276 0.81544 0.0
H664 H 0.34808 0.01898 0.88492 0.0
H665 H 0.36682 0.95418 0.0041 0.0
H666 H 0.40958 0.95741 0.94928 0.0
H667 H 0.44271 0.98008 0.87261 0.0
H668 H 0.42414 0.045 0.75358 0.0
H669 H 0.38066 0.04042 0.80375 0.0
C670 C 0.36147 0.00547 0.89858 0.0
C671 C 0.35405 0.9863 0.94842 0.0
C672 C 0.38631 0.00764 0.86755 0.0
C673 C 0.37169 0.96884 0.96494 0.0
C674 C 0.39634 0.97084 0.93422 0.0
C675 C 0.42918 0.99326 0.85774 0.0
C676 C 0.43688 0.01302 0.80996 0.0
C677 C 0.40402 0.99041 0.88633 0.0
C678 C 0.41889 0.02966 0.79047 0.0
C679 C 0.39393 0.02706 0.81912 0.0
H680 H 0.4409 0.32531 0.85276 0.0
H681 H 0.38552 0.36431 0.9835 0.0
H682 H 0.39814 0.40442 0.92409 0.0
H683 H 0.42896 0.4302 0.84813 0.0
H684 H 0.48671 0.39254 0.72445 0.0
H685 H 0.46945 0.35046 0.76867 0.0
C686 C 0.43144 0.34251 0.86798 0.0
C687 C 0.41239 0.34156 0.92324 0.0
C688 C 0.43958 0.36603 0.83576 0.0
C689 C 0.39998 0.36404 0.94069 0.0
C690 C 0.40745 0.38726 0.90739 0.0
C691 C 0.43752 0.41271 0.83014 0.0
C692 C 0.45922 0.41441 0.78401 0.0
C693 C 0.42782 0.38871 0.85687 0.0
C694 C 0.4701 0.39166 0.76065 0.0
C695 C 0.46025 0.36762 0.78591 0.0
H696 H 0.1943 0.53661 0.86599 0.0
H697 H 0.18174 0.46501 0.9777 0.0
H698 H 0.14094 0.45503 0.92055 0.0
H699 H 0.10653 0.46868 0.8494 0.0
H700 H 0.1179 0.5408 0.74081 0.0
H701 H 0.16111 0.54865 0.78678 0.0
C702 C 0.18276 0.51871 0.8774 0.0
C703 C 0.19128 0.50169 0.92646 0.0
C704 C 0.15879 0.51335 0.84579 0.0
C705 C 0.1761 0.47838 0.93948 0.0
C706 C 0.15248 0.47276 0.90749 0.0
C707 C 0.11857 0.48599 0.83531 0.0
C708 C 0.10898 0.5043 0.79265 0.0
C709 C 0.14332 0.49042 0.8622 0.0
C710 C 0.12482 0.52654 0.77419 0.0
C711 C 0.14952 0.53102 0.80044 0.0
H712 H 0.90498 0.85509 0.35501 0.0
H713 H 0.94355 0.80282 0.47811 0.0
H714 H 0.95934 0.8391 0.55872 0.0
H715 H 0.9652 0.88639 0.58717 0.0
H716 H 0.92558 0.93772 0.46417 0.0
H717 H 0.90665 0.90085 0.39151 0.0
C718 C 0.91617 0.85131 0.40066 0.0
C719 C 0.92314 0.82616 0.40997 0.0
C720 C 0.92518 0.87218 0.4465 0.0
C721 C 0.93819 0.82201 0.46882 0.0
C722 C 0.9472 0.84274 0.51504 0.0
C723 C 0.95219 0.88937 0.54497 0.0
C724 C 0.947 0.91468 0.53029 0.0
C725 C 0.94138 0.86803 0.50318 0.0
C726 C 0.92996 0.9184 0.47605 0.0
C727 C 0.91917 0.89734 0.43443 0.0
H728 H 0.66477 0.06139 0.49771 0.0
H729 H 0.66967 0.97857 0.49804 0.0
H730 H 0.63119 0.97371 0.57391 0.0
H731 H 0.59277 0.9919 0.62676 0.0
H732 H 0.58443 0.07318 0.60762 0.0
H733 H 0.62692 0.0795 0.55018 0.0
C734 C 0.65744 0.04214 0.51338 0.0
C735 C 0.67027 0.0204 0.49029 0.0
C736 C 0.63418 0.0391 0.55266 0.0
C737 C 0.66074 0.99588 0.51486 0.0
C738 C 0.63834 0.99294 0.55761 0.0
C739 C 0.60042 0.01099 0.61039 0.0
C740 C 0.58554 0.03203 0.62068 0.0
C741 C 0.62443 0.01425 0.57469 0.0
C742 C 0.59549 0.05667 0.5992 0.0
C743 C 0.6198 0.06029 0.56673 0.0
H744 H 0.61665 0.67202 0.49454 0.0
H745 H 0.54274 0.70202 0.50689 0.0
H746 H 0.52623 0.66689 0.58224 0.0
H747 H 0.53045 0.62398 0.62825 0.0
H748 H 0.60231 0.59078 0.60192 0.0
H749 H 0.62164 0.63033 0.54702 0.0
C750 C 0.5969 0.67098 0.51341 0.0
C751 C 0.58103 0.68971 0.49334 0.0
C752 C 0.58692 0.64971 0.55326 0.0
C753 C 0.55574 0.6883 0.52133 0.0
C754 C 0.54604 0.66788 0.56384 0.0
C755 C 0.55045 0.62559 0.61141 0.0
C756 C 0.56492 0.6045 0.61831 0.0
C757 C 0.56113 0.64795 0.57762 0.0
C758 C 0.59078 0.60676 0.59652 0.0
C759 C 0.60181 0.62934 0.56512 0.0
H760 H 0.83689 0.49831 0.42824 0.0
H761 H 0.81765 0.42174 0.50758 0.0
H762 H 0.85509 0.42708 0.5833 0.0
H763 H 0.89572 0.45195 0.61742 0.0
H764 H 0.91472 0.52814 0.53529 0.0
H765 H 0.87476 0.52468 0.47137 0.0
C766 C 0.84041 0.48304 0.46358 0.0
C767 C 0.82449 0.45961 0.46187 0.0
C768 C 0.86216 0.48608 0.50599 0.0
C769 C 0.82973 0.43988 0.5072 0.0
C770 C 0.85116 0.4429 0.55048 0.0
C771 C 0.89089 0.46788 0.58623 0.0
C772 C 0.90823 0.49014 0.58036 0.0
C773 C 0.86793 0.46564 0.54872 0.0
C774 C 0.90175 0.51072 0.54018 0.0
C775 C 0.87891 0.50876 0.50352 0.0
loop_
_geom_bond_atom_site_label_1
_geom_bond_atom_site_label_2
_geom_bond_distance
_geom_bond_site_symmetry_2
_ccdc_geom_bond_type
C0 C1 1.386 . S
C0 C2 1.397 . S
C0 H24 0.931 . S
C1 C0 1.386 . S
C1 C5 1.397 . S
C2 C0 1.397 . S
C2 C3 1.384 . S
C2 H25 0.930 . S
C3 C2 1.384 . S
C3 C4 1.377 . S
C3 C6 1.481 1_556 S
C4 C3 1.377 . S
C4 C5 1.389 . S
C4 H26 0.929 . S
C5 C1 1.397 . S
C5 C4 1.389 . S
C5 H27 0.931 . S
C6 C3 1.481 1_554 S
C6 C7 1.387 1_554 S
C6 C11 1.390 . S
C7 C6 1.387 1_556 S
C7 C8 1.401 1_556 S
C7 H28 0.930 . S
C8 C7 1.401 1_554 S
C8 C9 1.376 . S
C8 C17 1.511 . S
C9 C8 1.376 . S
C9 C10 1.392 . S
C9 H30 0.931 . S
C10 C9 1.392 . S
C10 C11 1.361 . S
C10 C12 1.500 . S
C11 C6 1.390 . S
C11 C10 1.361 . S
C11 H29 0.931 . S
C12 C10 1.500 . S
C12 C13 1.371 . S
C12 C14 1.365 . S
C13 C12 1.371 . S
C13 C23 1.386 . S
C13 H31 0.931 . S
C14 C12 1.365 . S
C14 C15 1.409 . S
C14 H32 0.929 . S
C15 C14 1.409 . S
C15 C16 1.380 . S
C15 H33 0.930 . S
C16 C15 1.380 . S
C16 C23 1.357 . S
C17 C8 1.511 . S
C17 C18 1.341 1_554 S
C17 C19 1.371 . S
C18 C17 1.341 1_556 S
C18 C22 1.394 . S
C18 H34 0.930 . S
C19 C17 1.371 . S
C19 C20 1.392 . S
C19 H35 0.931 . S
C20 C19 1.392 . S
C20 C21 1.331 1_554 S
C20 H38 0.932 . S
C21 C20 1.331 1_556 S
C21 C22 1.336 . S
C22 C18 1.394 . S
C22 C21 1.336 . S
C22 H37 0.929 . S
C23 C13 1.386 . S
C23 C16 1.357 . S
C23 H36 0.928 . S
H24 C0 0.931 . S
H25 C2 0.930 . S
H26 C4 0.929 . S
H27 C5 0.931 . S
H28 C7 0.930 . S
H29 C11 0.931 . S
H30 C9 0.931 . S
H31 C13 0.931 . S
H32 C14 0.929 . S
H33 C15 0.930 . S
H34 C18 0.930 . S
H35 C19 0.931 . S
H36 C23 0.928 . S
H37 C22 0.929 . S
H38 C20 0.932 . S
C39 C40 1.386 . S
C39 C41 1.397 . S
C39 H63 0.931 . S
C40 C39 1.386 . S
C40 C44 1.397 . S
C41 C39 1.397 . S
C41 C42 1.384 . S
C41 H64 0.930 . S
C42 C41 1.384 . S
C42 C43 1.377 . S
C42 C45 1.481 . S
C43 C42 1.377 . S
C43 C44 1.389 . S
C43 H65 0.929 . S
C44 C40 1.397 . S
C44 C43 1.389 . S
C44 H66 0.931 . S
C45 C42 1.481 . S
C45 C46 1.387 . S
C45 C50 1.390 1_556 S
C46 C45 1.387 . S
C46 C47 1.401 1_556 S
C46 H67 0.930 . S
C47 C46 1.401 1_554 S
C47 C48 1.376 . S
C47 C56 1.511 1_554 S
C48 C47 1.376 . S
C48 C49 1.392 . S
C48 H69 0.931 . S
C49 C48 1.392 . S
C49 C50 1.361 . S
C49 C51 1.500 . S
C50 C45 1.390 1_554 S
C50 C49 1.361 . S
C50 H68 0.931 . S
C51 C49 1.500 . S
C51 C52 1.371 . S
C51 C53 1.365 . S
C52 C51 1.371 . S
C52 C62 1.386 . S
C52 H70 0.931 . S
C53 C51 1.365 . S
C53 C54 1.409 . S
C53 H71 0.929 . S
C54 C53 1.409 . S
C54 C55 1.380 . S
C54 H72 0.930 . S
C55 C54 1.380 . S
C55 C62 1.357 . S
C56 C47 1.511 1_556 S
C56 C57 1.341 . S
C56 C58 1.371 1_556 S
C57 C56 1.341 . S
C57 C61 1.394 . S
C57 H73 0.930 . S
C58 C56 1.371 1_554 S
C58 C59 1.392 . S
C58 H74 0.931 . S
C59 C58 1.392 . S
C59 C60 1.331 1_554 S
C59 H77 0.932 . S
C60 C59 1.331 1_556 S
C60 C61 1.336 . S
C61 C57 1.394 . S
C61 C60 1.336 . S
C61 H76 0.929 . S
C62 C52 1.386 . S
C62 C55 1.357 . S
C62 H75 0.928 . S
H63 C39 0.931 . S
H64 C41 0.930 . S
H65 C43 0.929 . S
H66 C44 0.931 . S
H67 C46 0.930 . S
H68 C50 0.931 . S
H69 C48 0.931 . S
H70 C52 0.931 . S
H71 C53 0.929 . S
H72 C54 0.930 . S
H73 C57 0.930 . S
H74 C58 0.931 . S
H75 C62 0.928 . S
H76 C61 0.929 . S
H77 C59 0.932 . S
C78 C79 1.395 . S
C78 C80 1.397 . S
C78 H102 0.931 . S
C79 C78 1.395 . S
C79 C83 1.389 1_565 S
C80 C78 1.397 . S
C80 C81 1.388 . S
C80 H103 0.930 . S
C81 C80 1.388 . S
C81 C82 1.372 1_565 S
C81 C84 1.478 1_556 S
C82 C81 1.372 1_545 S
C82 C83 1.389 . S
C82 H104 0.929 1_556 S
C83 C79 1.389 1_545 S
C83 C82 1.389 . S
C83 H105 0.931 . S
C84 C81 1.478 1_554 S
C84 C85 1.391 . S
C84 C89 1.391 . S
C85 C84 1.391 . S
C85 C86 1.399 . S
C85 H106 0.930 1_554 S
C86 C85 1.399 . S
C86 C87 1.377 . S
C86 C95 1.515 . S
C87 C86 1.377 . S
C87 C88 1.393 . S
C87 H108 0.931 . S
C88 C87 1.393 . S
C88 C89 1.362 . S
C88 C90 1.499 1_565 S
C89 C84 1.391 . S
C89 C88 1.362 . S
C89 H107 0.930 . S
C90 C88 1.499 1_545 S
C90 C91 1.360 1_545 S
C90 C92 1.377 . S
C91 C90 1.360 1_565 S
C91 C101 1.386 . S
C91 H109 0.931 . S
C92 C90 1.377 . S
C92 C93 1.409 . S
C92 H110 0.929 . S
C93 C92 1.409 . S
C93 C94 1.380 . S
C93 H111 0.930 . S
C94 C93 1.380 . S
C94 C101 1.358 1_545 S
C95 C86 1.515 . S
C95 C96 1.342 1_554 S
C95 C97 1.371 1_565 S
C96 C95 1.342 1_556 S
C96 C100 1.393 . S
C96 H112 0.929 . S
C97 C95 1.371 1_545 S
C97 C98 1.392 . S
C97 H113 0.931 . S
C98 C97 1.392 . S
C98 C99 1.323 1_545 S
C98 H116 0.932 . S
C99 C98 1.323 1_565 S
C99 C100 1.342 1_554 S
C100 C96 1.393 . S
C100 C99 1.342 1_556 S
C100 H115 0.929 . S
C101 C91 1.386 . S
C101 C94 1.358 1_565 S
C101 H114 0.928 . S
H102 C78 0.931 . S
H103 C80 0.930 . S
H104 C82 0.929 1_554 S
H105 C83 0.931 . S
H106 C85 0.930 1_556 S
H107 C89 0.930 . S
H108 C87 0.931 . S
H109 C91 0.931 . S
H110 C92 0.929 . S
H111 C93 0.930 . S
H112 C96 0.929 . S
H113 C97 0.931 . S
H114 C101 0.928 . S
H115 C100 0.929 . S
H116 C98 0.932 . S
C117 C118 1.386 . S
C117 C119 1.397 . S
C117 H141 0.931 . S
C118 C117 1.386 . S
C118 C122 1.397 . S
C119 C117 1.397 . S
C119 C120 1.384 . S
C119 H142 0.930 . S
C120 C119 1.384 . S
C120 C121 1.377 . S
C120 C123 1.481 . S
C121 C120 1.377 . S
C121 C122 1.389 . S
C121 H143 0.929 . S
C122 C118 1.397 . S
C122 C121 1.389 . S
C122 H144 0.931 . S
C123 C120 1.481 . S
C123 C124 1.387 . S
C123 C128 1.390 . S
C124 C123 1.387 . S
C124 C125 1.401 . S
C124 H145 0.930 . S
C125 C124 1.401 . S
C125 C126 1.376 . S
C125 C134 1.511 . S
C126 C125 1.376 . S
C126 C127 1.392 . S
C126 H147 0.931 1_554 S
C127 C126 1.392 . S
C127 C128 1.361 . S
C127 C129 1.500 1_554 S
C128 C123 1.390 . S
C128 C127 1.361 . S
C128 H146 0.931 . S
C129 C127 1.500 1_556 S
C129 C130 1.371 . S
C129 C131 1.365 . S
C130 C129 1.371 . S
C130 C140 1.386 . S
C130 H148 0.931 . S
C131 C129 1.365 . S
C131 C132 1.409 . S
C131 H149 0.929 1_556 S
C132 C131 1.409 . S
C132 C133 1.380 . S
C132 H150 0.930 . S
C133 C132 1.380 . S
C133 C140 1.357 . S
C134 C125 1.511 . S
C134 C135 1.341 . S
C134 C136 1.371 1_554 S
C135 C134 1.341 . S
C135 C139 1.394 . S
C135 H151 0.930 . S
C136 C134 1.371 1_556 S
C136 C137 1.392 . S
C136 H152 0.931 . S
C137 C136 1.392 . S
C137 C138 1.331 1_556 S
C137 H155 0.932 . S
C138 C137 1.331 1_554 S
C138 C139 1.336 . S
C139 C135 1.394 . S
C139 C138 1.336 . S
C139 H154 0.929 . S
C140 C130 1.386 . S
C140 C133 1.357 . S
C140 H153 0.928 . S
H141 C117 0.931 . S
H142 C119 0.930 . S
H143 C121 0.929 . S
H144 C122 0.931 . S
H145 C124 0.930 . S
H146 C128 0.931 . S
H147 C126 0.931 1_556 S
H148 C130 0.931 . S
H149 C131 0.929 1_554 S
H150 C132 0.930 . S
H151 C135 0.930 . S
H152 C136 0.931 . S
H153 C140 0.928 . S
H154 C139 0.929 . S
H155 C137 0.932 . S
C156 C157 1.386 . S
C156 C158 1.397 . S
C156 H180 0.931 . S
C157 C156 1.386 . S
C157 C161 1.397 . S
C158 C156 1.397 . S
C158 C159 1.384 . S
C158 H181 0.930 . S
C159 C158 1.384 . S
C159 C160 1.377 . S
C159 C162 1.481 . S
C160 C159 1.377 . S
C160 C161 1.389 . S
C160 H182 0.929 . S
C161 C157 1.397 . S
C161 C160 1.389 . S
C161 H183 0.931 . S
C162 C159 1.481 . S
C162 C163 1.387 . S
C162 C167 1.390 . S
C163 C162 1.387 . S
C163 C164 1.401 . S
C163 H184 0.930 . S
C164 C163 1.401 . S
C164 C165 1.376 . S
C164 C173 1.511 . S
C165 C164 1.376 . S
C165 C166 1.392 . S
C165 H186 0.931 . S
C166 C165 1.392 . S
C166 C167 1.361 . S
C166 C168 1.500 . S
C167 C162 1.390 . S
C167 C166 1.361 . S
C167 H185 0.931 . S
C168 C166 1.500 . S
C168 C169 1.371 . S
C168 C170 1.365 . S
C169 C168 1.371 . S
C169 C179 1.386 . S
C169 H187 0.931 . S
C170 C168 1.365 . S
C170 C171 1.409 . S
C170 H188 0.929 . S
C171 C170 1.409 . S
C171 C172 1.380 . S
C171 H189 0.930 . S
C172 C171 1.380 . S
C172 C179 1.357 . S
C173 C164 1.511 . S
C173 C174 1.341 . S
C173 C175 1.371 . S
C174 C173 1.341 . S
C174 C178 1.394 . S
C174 H190 0.930 . S
C175 C173 1.371 . S
C175 C176 1.392 . S
C175 H191 0.931 . S
C176 C175 1.392 . S
C176 C177 1.331 . S
C176 H194 0.932 . S
C177 C176 1.331 . S
C177 C178 1.336 . S
C178 C174 1.394 . S
C178 C177 1.336 . S
C178 H193 0.929 . S
C179 C169 1.386 . S
C179 C172 1.357 . S
C179 H192 0.928 . S
H180 C156 0.931 . S
H181 C158 0.930 . S
H182 C160 0.929 . S
H183 C161 0.931 . S
H184 C163 0.930 . S
H185 C167 0.931 . S
H186 C165 0.931 . S
H187 C169 0.931 . S
H188 C170 0.929 . S
H189 C171 0.930 . S
H190 C174 0.930 . S
H191 C175 0.931 . S
H192 C179 0.928 . S
H193 C178 0.929 . S
H194 C176 0.932 . S
C195 C196 1.386 . S
C195 C197 1.397 . S
C195 H219 0.931 . S
C196 C195 1.386 . S
C196 C200 1.397 . S
C197 C195 1.397 . S
C197 C198 1.384 . S
C197 H220 0.930 . S
C198 C197 1.384 . S
C198 C199 1.377 . S
C198 C201 1.481 . S
C199 C198 1.377 . S
C199 C200 1.389 . S
C199 H221 0.929 . S
C200 C196 1.397 . S
C200 C199 1.389 . S
C200 H222 0.931 . S
C201 C198 1.481 . S
C201 C202 1.387 . S
C201 C206 1.390 . S
C202 C201 1.387 . S
C202 C203 1.401 . S
C202 H223 0.930 . S
C203 C202 1.401 . S
C203 C204 1.376 . S
C203 C212 1.511 . S
C204 C203 1.376 . S
C204 C205 1.392 . S
C204 H225 0.931 . S
C205 C204 1.392 . S
C205 C206 1.361 . S
C205 C207 1.500 . S
C206 C201 1.390 . S
C206 C205 1.361 . S
C206 H224 0.931 . S
C207 C205 1.500 . S
C207 C208 1.371 . S
C207 C209 1.365 . S
C208 C207 1.371 . S
C208 C218 1.386 . S
C208 H226 0.931 . S
C209 C207 1.365 . S
C209 C210 1.409 . S
C209 H227 0.929 . S
C210 C209 1.409 . S
C210 C211 1.380 . S
C210 H228 0.930 . S
C211 C210 1.380 . S
C211 C218 1.357 . S
C212 C203 1.511 . S
C212 C213 1.341 . S
C212 C214 1.371 . S
C213 C212 1.341 . S
C213 C217 1.394 . S
C213 H229 0.930 . S
C214 C212 1.371 . S
C214 C215 1.392 . S
C214 H230 0.931 . S
C215 C214 1.392 . S
C215 C216 1.331 . S
C215 H233 0.932 . S
C216 C215 1.331 . S
C216 C217 1.336 . S
C217 C213 1.394 . S
C217 C216 1.336 . S
C217 H232 0.929 . S
C218 C208 1.386 . S
C218 C211 1.357 . S
C218 H231 0.928 . S
H219 C195 0.931 . S
H220 C197 0.930 . S
H221 C199 0.929 . S
H222 C200 0.931 . S
H223 C202 0.930 . S
H224 C206 0.931 . S
H225 C204 0.931 . S
H226 C208 0.931 . S
H227 C209 0.929 . S
H228 C210 0.930 . S
H229 C213 0.930 . S
H230 C214 0.931 . S
H231 C218 0.928 . S
H232 C217 0.929 . S
H233 C215 0.932 . S
C234 C235 1.386 1_565 S
C234 C236 1.397 . S
C234 H258 0.931 . S
C235 C234 1.386 1_545 S
C235 C239 1.397 . S
C236 C234 1.397 . S
C236 C237 1.384 1_565 S
C236 H259 0.930 . S
C237 C236 1.384 1_545 S
C237 C238 1.377 . S
C237 C240 1.481 . S
C238 C237 1.377 . S
C238 C239 1.389 . S
C238 H260 0.929 . S
C239 C235 1.397 . S
C239 C238 1.389 . S
C239 H261 0.931 . S
C240 C237 1.481 . S
C240 C241 1.387 . S
C240 C245 1.390 . S
C241 C240 1.387 . S
C241 C242 1.401 . S
C241 H262 0.930 . S
C242 C241 1.401 . S
C242 C243 1.376 . S
C242 C251 1.511 . S
C243 C242 1.376 . S
C243 C244 1.392 . S
C243 H264 0.931 . S
C244 C243 1.392 . S
C244 C245 1.361 . S
C244 C246 1.500 . S
C245 C240 1.390 . S
C245 C244 1.361 . S
C245 H263 0.931 . S
C246 C244 1.500 . S
C246 C247 1.371 1_545 S
C246 C248 1.365 . S
C247 C246 1.371 1_565 S
C247 C257 1.386 . S
C247 H265 0.931 . S
C248 C246 1.365 . S
C248 C249 1.409 . S
C248 H266 0.929 . S
C249 C248 1.409 . S
C249 C250 1.380 1_554 S
C249 H267 0.930 . S
C250 C249 1.380 1_556 S
C250 C257 1.357 1_546 S
C251 C242 1.511 . S
C251 C252 1.341 1_545 S
C251 C253 1.371 . S
C252 C251 1.341 1_565 S
C252 C256 1.394 . S
C252 H268 0.930 . S
C253 C251 1.371 . S
C253 C254 1.392 . S
C253 H269 0.931 . S
C254 C253 1.392 . S
C254 C255 1.331 . S
C254 H272 0.932 . S
C255 C254 1.331 . S
C255 C256 1.336 1_545 S
C256 C252 1.394 . S
C256 C255 1.336 1_565 S
C256 H271 0.929 . S
C257 C247 1.386 . S
C257 C250 1.357 1_564 S
C257 H270 0.928 1_554 S
H258 C234 0.931 . S
H259 C236 0.930 . S
H260 C238 0.929 . S
H261 C239 0.931 . S
H262 C241 0.930 . S
H263 C245 0.931 . S
H264 C243 0.931 . S
H265 C247 0.931 . S
H266 C248 0.929 . S
H267 C249 0.930 . S
H268 C252 0.930 . S
H269 C253 0.931 . S
H270 C257 0.928 1_556 S
H271 C256 0.929 . S
H272 C254 0.932 . S
C273 C274 1.386 . S
C273 C275 1.397 . S
C273 H297 0.931 . S
C274 C273 1.386 . S
C274 C278 1.397 . S
C275 C273 1.397 . S
C275 C276 1.384 . S
C275 H298 0.930 . S
C276 C275 1.384 . S
C276 C277 1.377 . S
C276 C279 1.481 . S
C277 C276 1.377 . S
C277 C278 1.389 . S
C277 H299 0.929 . S
C278 C274 1.397 . S
C278 C277 1.389 . S
C278 H300 0.931 . S
C279 C276 1.481 . S
C279 C280 1.387 . S
C279 C284 1.390 . S
C280 C279 1.387 . S
C280 C281 1.401 . S
C280 H301 0.930 . S
C281 C280 1.401 . S
C281 C282 1.376 . S
C281 C290 1.511 . S
C282 C281 1.376 . S
C282 C283 1.392 . S
C282 H303 0.931 . S
C283 C282 1.392 . S
C283 C284 1.361 . S
C283 C285 1.500 . S
C284 C279 1.390 . S
C284 C283 1.361 . S
C284 H302 0.931 . S
C285 C283 1.500 . S
C285 C286 1.371 . S
C285 C287 1.365 . S
C286 C285 1.371 . S
C286 C296 1.386 . S
C286 H304 0.931 . S
C287 C285 1.365 . S
C287 C288 1.409 . S
C287 H305 0.929 . S
C288 C287 1.409 . S
C288 C289 1.380 . S
C288 H306 0.930 . S
C289 C288 1.380 . S
C289 C296 1.357 . S
C290 C281 1.511 . S
C290 C291 1.341 . S
C290 C292 1.371 . S
C291 C290 1.341 . S
C291 C295 1.394 . S
C291 H307 0.930 . S
C292 C290 1.371 . S
C292 C293 1.392 . S
C292 H308 0.931 . S
C293 C292 1.392 . S
C293 C294 1.331 . S
C293 H311 0.932 . S
C294 C293 1.331 . S
C294 C295 1.336 . S
C295 C291 1.394 . S
C295 C294 1.336 . S
C295 H310 0.929 . S
C296 C286 1.386 . S
C296 C289 1.357 . S
C296 H309 0.928 . S
H297 C273 0.931 . S
H298 C275 0.930 . S
H299 C277 0.929 . S
H300 C278 0.931 . S
H301 C280 0.930 . S
H302 C284 0.931 . S
H303 C282 0.931 . S
H304 C286 0.931 . S
H305 C287 0.929 . S
H306 C288 0.930 . S
H307 C291 0.930 . S
H308 C292 0.931 . S
H309 C296 0.928 . S
H310 C295 0.929 . S
H311 C293 0.932 . S
Tb312 O315 2.453 1_665 S
Tb312 O316 2.596 1_665 S
Tb312 O317 2.374 1_655 S
Tb312 O325 2.343 . S
Tb312 O327 2.353 1_565 S
Tb312 O329 2.427 . S
Tb312 O330 2.513 . S
C313 O317 1.251 . S
C313 O319 1.263 . S
Tb314 O316 2.343 . S
Tb314 O319 2.353 1_545 S
Tb314 O322 2.427 . S
Tb314 O323 2.513 . S
Tb314 O324 2.453 1_545 S
Tb314 O325 2.596 1_445 S
Tb314 O326 2.374 1_455 S
O315 Tb312 2.453 1_445 S
O315 C331 1.245 . S
O316 Tb312 2.596 1_445 S
O316 Tb314 2.343 . S
O316 C331 1.259 . S
O317 Tb312 2.374 1_455 S
O317 C313 1.251 . S
C318 O322 1.275 . S
C318 O323 1.246 . S
O319 C313 1.263 . S
O319 Tb314 2.353 1_565 S
C320 O324 1.245 1_655 S
C320 O325 1.259 . S
C321 O326 1.250 . S
C321 O327 1.263 . S
O322 Tb314 2.427 . S
O322 C318 1.275 . S
O323 Tb314 2.513 . S
O323 C318 1.246 . S
O324 Tb314 2.453 1_565 S
O324 C320 1.245 1_455 S
O325 Tb312 2.343 . S
O325 Tb314 2.596 1_665 S
O325 C320 1.259 . S
O326 Tb314 2.374 1_655 S
O326 C321 1.250 . S
O327 Tb312 2.353 1_545 S
O327 C321 1.263 . S
C328 O329 1.275 . S
C328 O330 1.246 . S
O329 Tb312 2.427 . S
O329 C328 1.275 . S
O330 Tb312 2.513 . S
O330 C328 1.246 . S
C331 O315 1.245 . S
C331 O316 1.259 . S
Tb332 O335 2.453 . S
Tb332 O336 2.555 1_545 S
Tb332 O337 2.374 . S
Tb332 O345 2.343 . S
Tb332 O347 2.353 . S
Tb332 O349 2.427 . S
Tb332 O350 2.513 . S
C333 O337 1.251 . S
C333 O339 1.263 1_545 S
Tb334 O336 2.374 . S
Tb334 O339 2.353 . S
Tb334 O342 2.427 . S
Tb334 O343 2.513 . S
Tb334 O344 2.453 . S
Tb334 O345 2.596 1_565 S
Tb334 O346 2.374 . S
O335 Tb332 2.453 . S
O335 C351 1.245 . S
O336 Tb332 2.555 1_565 S
O336 Tb334 2.374 . S
O336 C351 1.240 1_565 S
O337 Tb332 2.374 . S
O337 C333 1.251 . S
C338 O342 1.275 . S
C338 O343 1.246 . S
O339 C333 1.263 1_565 S
O339 Tb334 2.353 . S
C340 O344 1.245 . S
C340 O345 1.259 1_565 S
C341 O346 1.250 1_545 S
C341 O347 1.263 . S
O342 Tb334 2.427 . S
O342 C338 1.275 . S
O343 Tb334 2.513 . S
O343 C338 1.246 . S
O344 Tb334 2.453 . S
O344 C340 1.245 . S
O345 Tb332 2.343 . S
O345 Tb334 2.596 1_545 S
O345 C340 1.259 1_545 S
O346 Tb334 2.374 . S
O346 C341 1.250 1_565 S
O347 Tb332 2.353 . S
O347 C341 1.263 . S
C348 O349 1.275 . S
C348 O350 1.246 . S
O349 Tb332 2.427 . S
O349 C348 1.275 . S
O350 Tb332 2.513 . S
O350 C348 1.246 . S
C351 O335 1.245 . S
C351 O336 1.240 1_545 S
Tb352 O355 2.453 . S
Tb352 O356 2.596 . S
Tb352 O357 2.374 . S
Tb352 O365 2.343 . S
Tb352 O367 2.353 . S
Tb352 O369 2.427 . S
Tb352 O370 2.513 . S
C353 O357 1.251 . S
C353 O359 1.263 . S
Tb354 O356 2.343 . S
Tb354 O359 2.353 . S
Tb354 O362 2.427 . S
Tb354 O363 2.513 . S
Tb354 O364 2.453 . S
Tb354 O365 2.596 . S
Tb354 O366 2.374 . S
O355 Tb352 2.453 . S
O355 C371 1.245 . S
O356 Tb352 2.596 . S
O356 Tb354 2.343 . S
O356 C371 1.259 . S
O357 Tb352 2.374 . S
O357 C353 1.251 . S
C358 O362 1.275 . S
C358 O363 1.246 . S
O359 C353 1.263 . S
O359 Tb354 2.353 . S
C360 O364 1.245 . S
C360 O365 1.259 . S
C361 O366 1.250 . S
C361 O367 1.263 . S
O362 Tb354 2.427 . S
O362 C358 1.275 . S
O363 Tb354 2.513 . S
O363 C358 1.246 . S
O364 Tb354 2.453 . S
O364 C360 1.245 . S
O365 Tb352 2.343 . S
O365 Tb354 2.596 . S
O365 C360 1.259 . S
O366 Tb354 2.374 . S
O366 C361 1.250 . S
O367 Tb352 2.353 . S
O367 C361 1.263 . S
C368 O369 1.275 . S
C368 O370 1.246 . S
O369 Tb352 2.427 . S
O369 C368 1.275 . S
O370 Tb352 2.513 . S
O370 C368 1.246 . S
C371 O355 1.245 . S
C371 O356 1.259 . S
Tb372 O375 2.453 1_655 S
Tb372 O376 2.596 1_655 S
Tb372 O377 2.374 1_655 S
Tb372 O385 2.343 . S
Tb372 O387 2.353 . S
Tb372 O389 2.427 . S
Tb372 O390 2.513 . S
C373 O377 1.251 . S
C373 O379 1.263 . S
Tb374 O376 2.343 . S
Tb374 O379 2.353 . S
Tb374 O382 2.427 . S
Tb374 O383 2.513 . S
Tb374 O384 2.453 1_455 S
Tb374 O385 2.596 1_455 S
Tb374 O386 2.374 . S
O375 Tb372 2.453 1_455 S
O375 C391 1.245 . S
O376 Tb372 2.596 1_455 S
O376 Tb374 2.343 . S
O376 C391 1.259 . S
O377 Tb372 2.374 1_455 S
O377 C373 1.251 . S
C378 O382 1.275 . S
C378 O383 1.246 . S
O379 C373 1.263 . S
O379 Tb374 2.353 . S
C380 O384 1.245 . S
C380 O385 1.259 . S
C381 O386 1.250 1_655 S
C381 O387 1.263 . S
O382 Tb374 2.427 . S
O382 C378 1.275 . S
O383 Tb374 2.513 . S
O383 C378 1.246 . S
O384 Tb374 2.453 1_655 S
O384 C380 1.245 . S
O385 Tb372 2.343 . S
O385 Tb374 2.596 1_655 S
O385 C380 1.259 . S
O386 Tb374 2.374 . S
O386 C381 1.250 1_455 S
O387 Tb372 2.353 . S
O387 C381 1.263 . S
C388 O389 1.275 . S
C388 O390 1.246 . S
O389 Tb372 2.427 . S
O389 C388 1.275 . S
O390 Tb372 2.513 . S
O390 C388 1.246 . S
C391 O375 1.245 . S
C391 O376 1.259 . S
H392 C398 0.930 . S
H393 C401 0.930 . S
H394 C402 0.930 . S
H395 C403 0.930 . S
H396 C406 0.930 . S
H397 C407 0.930 . S
C398 H392 0.930 . S
C398 C399 1.355 1_565 S
C398 C400 1.415 . S
C399 C398 1.355 1_545 S
C399 C401 1.419 . S
C400 C398 1.415 . S
C400 C405 1.425 1_565 S
C400 C407 1.409 . S
C401 H393 0.930 . S
C401 C399 1.419 . S
C401 C402 1.362 . S
C402 H394 0.930 . S
C402 C401 1.362 . S
C402 C405 1.409 . S
C403 H395 0.930 . S
C403 C404 1.355 1_545 S
C403 C405 1.415 . S
C404 C403 1.355 1_565 S
C404 C406 1.419 . S
C405 C400 1.425 1_545 S
C405 C402 1.409 . S
C405 C403 1.415 . S
C406 H396 0.930 . S
C406 C404 1.419 . S
C406 C407 1.362 . S
C407 H397 0.930 . S
C407 C400 1.409 . S
C407 C406 1.362 . S
H408 C414 0.930 . S
H409 C417 0.930 . S
H410 C418 0.930 . S
H411 C419 0.930 . S
H412 C422 0.930 . S
H413 C423 0.930 . S
C414 H408 0.930 . S
C414 C415 1.355 . S
C414 C416 1.415 . S
C415 C414 1.355 . S
C415 C417 1.419 . S
C416 C414 1.415 . S
C416 C421 1.425 . S
C416 C423 1.409 . S
C417 H409 0.930 . S
C417 C415 1.419 . S
C417 C418 1.362 . S
C418 H410 0.930 . S
C418 C417 1.362 . S
C418 C421 1.409 . S
C419 H411 0.930 . S
C419 C420 1.355 . S
C419 C421 1.415 . S
C420 C419 1.355 . S
C420 C422 1.419 . S
C421 C416 1.425 . S
C421 C418 1.409 . S
C421 C419 1.415 . S
C422 H412 0.930 . S
C422 C420 1.419 . S
C422 C423 1.362 . S
C423 H413 0.930 . S
C423 C416 1.409 . S
C423 C422 1.362 . S
H424 C430 0.930 . S
H425 C433 0.930 . S
H426 C434 0.930 . S
H427 C435 0.930 . S
H428 C438 0.930 . S
H429 C439 0.930 . S
C430 H424 0.930 . S
C430 C431 1.355 . S
C430 C432 1.415 . S
C431 C430 1.355 . S
C431 C433 1.419 . S
C432 C430 1.415 . S
C432 C437 1.425 . S
C432 C439 1.409 . S
C433 H425 0.930 . S
C433 C431 1.419 . S
C433 C434 1.362 . S
C434 H426 0.930 . S
C434 C433 1.362 . S
C434 C437 1.409 . S
C435 H427 0.930 . S
C435 C436 1.355 . S
C435 C437 1.415 . S
C436 C435 1.355 . S
C436 C438 1.419 . S
C437 C432 1.425 . S
C437 C434 1.409 . S
C437 C435 1.415 . S
C438 H428 0.930 . S
C438 C436 1.419 . S
C438 C439 1.362 . S
C439 H429 0.930 . S
C439 C432 1.409 . S
C439 C438 1.362 . S
H440 C446 0.930 . S
H441 C449 0.930 . S
H442 C450 0.930 . S
H443 C451 0.930 . S
H444 C454 0.930 . S
H445 C455 0.930 . S
C446 H440 0.930 . S
C446 C447 1.355 . S
C446 C448 1.415 . S
C447 C446 1.355 . S
C447 C449 1.419 . S
C448 C446 1.415 . S
C448 C453 1.425 . S
C448 C455 1.409 . S
C449 H441 0.930 . S
C449 C447 1.419 . S
C449 C450 1.362 . S
C450 H442 0.930 . S
C450 C449 1.362 . S
C450 C453 1.409 . S
C451 H443 0.930 . S
C451 C452 1.355 . S
C451 C453 1.415 . S
C452 C451 1.355 . S
C452 C454 1.419 . S
C453 C448 1.425 . S
C453 C450 1.409 . S
C453 C451 1.415 . S
C454 H444 0.930 . S
C454 C452 1.419 . S
C454 C455 1.362 . S
C455 H445 0.930 . S
C455 C448 1.409 . S
C455 C454 1.362 . S
H456 C462 0.930 . S
H457 C465 0.930 . S
H458 C466 0.930 1_554 S
H459 C467 0.930 . S
H460 C470 0.930 . S
H461 C471 0.930 1_565 S
C462 H456 0.930 . S
C462 C463 1.354 1_565 S
C462 C464 1.415 1_565 S
C463 C462 1.354 1_545 S
C463 C465 1.420 1_556 S
C464 C462 1.415 1_545 S
C464 C469 1.425 . S
C464 C471 1.409 . S
C465 H457 0.930 . S
C465 C463 1.420 1_554 S
C465 C466 1.362 1_554 S
C466 H458 0.930 1_556 S
C466 C465 1.362 1_556 S
C466 C469 1.409 . S
C467 H459 0.930 . S
C467 C468 1.355 . S
C467 C469 1.415 . S
C468 C467 1.355 . S
C468 C470 1.419 . S
C469 C464 1.425 . S
C469 C466 1.409 . S
C469 C467 1.415 . S
C470 H460 0.930 . S
C470 C468 1.419 . S
C470 C471 1.363 . S
C471 H461 0.930 1_545 S
C471 C464 1.409 . S
C471 C470 1.363 . S
H472 C478 0.930 . S
H473 C481 0.919 1_554 S
H474 C482 0.930 . S
H475 C483 0.930 . S
H476 C486 0.930 . S
H477 C487 0.930 . S
C478 H472 0.930 . S
C478 C479 1.355 . S
C478 C480 1.415 . S
C479 C478 1.355 . S
C479 C481 1.424 . S
C480 C478 1.415 . S
C480 C485 1.425 . S
C480 C487 1.409 . S
C481 H473 0.919 1_556 S
C481 C479 1.424 . S
C481 C482 1.369 . S
C482 H474 0.930 . S
C482 C481 1.369 . S
C482 C485 1.409 . S
C483 H475 0.930 . S
C483 C484 1.355 . S
C483 C485 1.415 . S
C484 C483 1.355 . S
C484 C486 1.419 . S
C485 C480 1.425 . S
C485 C482 1.409 . S
C485 C483 1.415 . S
C486 H476 0.930 . S
C486 C484 1.419 . S
C486 C487 1.362 . S
C487 H477 0.930 . S
C487 C480 1.409 . S
C487 C486 1.362 . S
H488 C494 0.930 . S
H489 C497 0.930 1_554 S
H490 C498 0.930 . S
H491 C499 0.930 . S
H492 C502 0.930 . S
H493 C503 0.930 . S
C494 H488 0.930 . S
C494 C495 1.355 . S
C494 C496 1.415 . S
C495 C494 1.355 . S
C495 C497 1.419 . S
C496 C494 1.415 . S
C496 C501 1.425 . S
C496 C503 1.409 . S
C497 H489 0.930 1_556 S
C497 C495 1.419 . S
C497 C498 1.362 . S
C498 H490 0.930 . S
C498 C497 1.362 . S
C498 C501 1.409 . S
C499 H491 0.930 . S
C499 C500 1.355 . S
C499 C501 1.415 . S
C500 C499 1.355 . S
C500 C502 1.419 . S
C501 C496 1.425 . S
C501 C498 1.409 . S
C501 C499 1.415 . S
C502 H492 0.930 . S
C502 C500 1.419 . S
C502 C503 1.362 . S
C503 H493 0.930 . S
C503 C496 1.409 . S
C503 C502 1.362 . S
H504 C510 0.930 . S
H505 C513 0.930 . S
H506 C514 0.930 . S
H507 C515 0.930 . S
H508 C518 0.930 . S
H509 C519 0.930 . S
C510 H504 0.930 . S
C510 C511 1.355 . S
C510 C512 1.415 . S
C511 C510 1.355 . S
C511 C513 1.419 . S
C512 C510 1.415 . S
C512 C517 1.425 . S
C512 C519 1.409 . S
C513 H505 0.930 . S
C513 C511 1.419 . S
C513 C514 1.362 . S
C514 H506 0.930 . S
C514 C513 1.362 . S
C514 C517 1.409 . S
C515 H507 0.930 . S
C515 C516 1.355 . S
C515 C517 1.415 . S
C516 C515 1.355 . S
C516 C518 1.419 . S
C517 C512 1.425 . S
C517 C514 1.409 . S
C517 C515 1.415 . S
C518 H508 0.930 . S
C518 C516 1.419 . S
C518 C519 1.362 . S
C519 H509 0.930 . S
C519 C512 1.409 . S
C519 C518 1.362 . S
H520 C526 0.930 . S
H521 C529 0.930 . S
H522 C530 0.930 . S
H523 C531 0.930 . S
H524 C534 0.930 . S
H525 C535 0.930 . S
C526 H520 0.930 . S
C526 C527 1.355 . S
C526 C528 1.415 . S
C527 C526 1.355 . S
C527 C529 1.419 . S
C528 C526 1.415 . S
C528 C533 1.425 . S
C528 C535 1.409 . S
C529 H521 0.930 . S
C529 C527 1.419 . S
C529 C530 1.362 . S
C530 H522 0.930 . S
C530 C529 1.362 . S
C530 C533 1.409 . S
C531 H523 0.930 . S
C531 C532 1.355 . S
C531 C533 1.415 . S
C532 C531 1.355 . S
C532 C534 1.419 . S
C533 C528 1.425 . S
C533 C530 1.409 . S
C533 C531 1.415 . S
C534 H524 0.930 . S
C534 C532 1.419 . S
C534 C535 1.362 . S
C535 H525 0.930 . S
C535 C528 1.409 . S
C535 C534 1.362 . S
H536 C542 0.930 . S
H537 C545 0.930 . S
H538 C546 0.930 . S
H539 C547 0.930 . S
H540 C550 0.930 . S
H541 C551 0.930 . S
C542 H536 0.930 . S
C542 C543 1.355 . S
C542 C544 1.415 . S
C543 C542 1.355 . S
C543 C545 1.419 1_545 S
C544 C542 1.415 . S
C544 C549 1.425 1_545 S
C544 C551 1.409 . S
C545 H537 0.930 . S
C545 C543 1.419 1_565 S
C545 C546 1.362 . S
C546 H538 0.930 . S
C546 C545 1.362 . S
C546 C549 1.409 . S
C547 H539 0.930 . S
C547 C548 1.355 1_565 S
C547 C549 1.415 . S
C548 C547 1.355 1_545 S
C548 C550 1.419 . S
C549 C544 1.425 1_565 S
C549 C546 1.409 . S
C549 C547 1.415 . S
C550 H540 0.930 . S
C550 C548 1.419 . S
C550 C551 1.362 . S
C551 H541 0.930 . S
C551 C544 1.409 . S
C551 C550 1.362 . S
H552 C558 0.930 . S
H553 C561 0.930 . S
H554 C562 0.930 . S
H555 C563 0.930 . S
H556 C566 0.930 . S
H557 C567 0.930 . S
C558 H552 0.930 . S
C558 C559 1.355 . S
C558 C560 1.415 . S
C559 C558 1.355 . S
C559 C561 1.419 . S
C560 C558 1.415 . S
C560 C565 1.425 . S
C560 C567 1.409 . S
C561 H553 0.930 . S
C561 C559 1.419 . S
C561 C562 1.362 . S
C562 H554 0.930 . S
C562 C561 1.362 . S
C562 C565 1.409 . S
C563 H555 0.930 . S
C563 C564 1.355 . S
C563 C565 1.415 . S
C564 C563 1.355 . S
C564 C566 1.419 . S
C565 C560 1.425 . S
C565 C562 1.409 . S
C565 C563 1.415 . S
C566 H556 0.930 . S
C566 C564 1.419 . S
C566 C567 1.362 . S
C567 H557 0.930 . S
C567 C560 1.409 . S
C567 C566 1.362 . S
H568 C574 0.930 . S
H569 C577 0.930 . S
H570 C578 0.930 . S
H571 C579 0.930 . S
H572 C582 0.930 . S
H573 C583 0.930 . S
C574 H568 0.930 . S
C574 C575 1.355 . S
C574 C576 1.415 . S
C575 C574 1.355 . S
C575 C577 1.419 . S
C576 C574 1.415 . S
C576 C581 1.425 . S
C576 C583 1.409 . S
C577 H569 0.930 . S
C577 C575 1.419 . S
C577 C578 1.362 . S
C578 H570 0.930 . S
C578 C577 1.362 . S
C578 C581 1.409 . S
C579 H571 0.930 . S
C579 C580 1.355 . S
C579 C581 1.415 . S
C580 C579 1.355 . S
C580 C582 1.419 . S
C581 C576 1.425 . S
C581 C578 1.409 . S
C581 C579 1.415 . S
C582 H572 0.930 . S
C582 C580 1.419 . S
C582 C583 1.362 . S
C583 H573 0.930 . S
C583 C576 1.409 . S
C583 C582 1.362 . S
H584 C590 0.930 . S
H585 C593 0.930 . S
H586 C594 0.930 . S
H587 C595 0.930 . S
H588 C598 0.930 . S
H589 C599 0.930 . S
C590 H584 0.930 . S
C590 C591 1.355 . S
C590 C592 1.415 . S
C591 C590 1.355 . S
C591 C593 1.419 . S
C592 C590 1.415 . S
C592 C597 1.425 . S
C592 C599 1.409 . S
C593 H585 0.930 . S
C593 C591 1.419 . S
C593 C594 1.362 . S
C594 H586 0.930 . S
C594 C593 1.362 . S
C594 C597 1.409 . S
C595 H587 0.930 . S
C595 C596 1.355 . S
C595 C597 1.415 . S
C596 C595 1.355 . S
C596 C598 1.419 . S
C597 C592 1.425 . S
C597 C594 1.409 . S
C597 C595 1.415 . S
C598 H588 0.930 . S
C598 C596 1.419 . S
C598 C599 1.362 . S
C599 H589 0.930 . S
C599 C592 1.409 . S
C599 C598 1.362 . S
H600 C606 0.930 . S
H601 C609 0.930 . S
H602 C610 0.930 . S
H603 C611 0.930 . S
H604 C614 0.930 . S
H605 C615 0.930 . S
C606 H600 0.930 . S
C606 C607 1.355 1_545 S
C606 C608 1.415 . S
C607 C606 1.355 1_565 S
C607 C609 1.419 . S
C608 C606 1.415 . S
C608 C613 1.425 1_545 S
C608 C615 1.409 . S
C609 H601 0.930 . S
C609 C607 1.419 . S
C609 C610 1.362 . S
C610 H602 0.930 . S
C610 C609 1.362 . S
C610 C613 1.409 . S
C611 H603 0.930 . S
C611 C612 1.355 1_565 S
C611 C613 1.415 . S
C612 C611 1.355 1_545 S
C612 C614 1.419 . S
C613 C608 1.425 1_565 S
C613 C610 1.409 . S
C613 C611 1.415 . S
C614 H604 0.930 . S
C614 C612 1.419 . S
C614 C615 1.362 . S
C615 H605 0.930 . S
C615 C608 1.409 . S
C615 C614 1.362 . S
H616 C622 0.930 . S
H617 C625 0.930 . S
H618 C626 0.930 . S
H619 C627 0.930 . S
H620 C630 0.930 . S
H621 C631 0.930 . S
C622 H616 0.930 . S
C622 C623 1.355 . S
C622 C624 1.415 . S
C623 C622 1.355 . S
C623 C625 1.419 . S
C624 C622 1.415 . S
C624 C629 1.425 . S
C624 C631 1.409 . S
C625 H617 0.930 . S
C625 C623 1.419 . S
C625 C626 1.362 . S
C626 H618 0.930 . S
C626 C625 1.362 . S
C626 C629 1.409 . S
C627 H619 0.930 . S
C627 C628 1.355 . S
C627 C629 1.415 . S
C628 C627 1.355 . S
C628 C630 1.419 . S
C629 C624 1.425 . S
C629 C626 1.409 . S
C629 C627 1.415 . S
C630 H620 0.930 . S
C630 C628 1.419 . S
C630 C631 1.362 . S
C631 H621 0.930 . S
C631 C624 1.409 . S
C631 C630 1.362 . S
H632 C638 0.930 . S
H633 C641 0.930 . S
H634 C642 0.930 . S
H635 C643 0.930 . S
H636 C646 0.930 . S
H637 C647 0.930 . S
C638 H632 0.930 . S
C638 C639 1.355 . S
C638 C640 1.415 . S
C639 C638 1.355 . S
C639 C641 1.419 . S
C640 C638 1.415 . S
C640 C645 1.425 . S
C640 C647 1.409 . S
C641 H633 0.930 . S
C641 C639 1.419 . S
C641 C642 1.362 . S
C642 H634 0.930 . S
C642 C641 1.362 . S
C642 C645 1.409 . S
C643 H635 0.930 . S
C643 C644 1.355 . S
C643 C645 1.415 . S
C644 C643 1.355 . S
C644 C646 1.419 . S
C645 C640 1.425 . S
C645 C642 1.409 . S
C645 C643 1.415 . S
C646 H636 0.930 . S
C646 C644 1.419 . S
C646 C647 1.362 . S
C647 H637 0.930 . S
C647 C640 1.409 . S
C647 C646 1.362 . S
H648 C654 0.930 . S
H649 C657 0.930 1_554 S
H650 C658 0.930 . S
H651 C659 0.930 . S
H652 C662 0.930 . S
H653 C663 0.930 . S
C654 H648 0.930 . S
C654 C655 1.355 . S
C654 C656 1.415 . S
C655 C654 1.355 . S
C655 C657 1.419 . S
C656 C654 1.415 . S
C656 C661 1.425 . S
C656 C663 1.409 . S
C657 H649 0.930 1_556 S
C657 C655 1.419 . S
C657 C658 1.362 . S
C658 H650 0.930 . S
C658 C657 1.362 . S
C658 C661 1.409 . S
C659 H651 0.930 . S
C659 C660 1.355 . S
C659 C661 1.415 . S
C660 C659 1.355 . S
C660 C662 1.419 . S
C661 C656 1.425 . S
C661 C658 1.409 . S
C661 C659 1.415 . S
C662 H652 0.930 . S
C662 C660 1.419 . S
C662 C663 1.362 . S
C663 H653 0.930 . S
C663 C656 1.409 . S
C663 C662 1.362 . S
H664 C670 0.930 . S
H665 C673 0.930 1_554 S
H666 C674 0.930 1_554 S
H667 C675 0.930 . S
H668 C678 0.930 . S
H669 C679 0.930 . S
C670 H664 0.930 . S
C670 C671 1.355 . S
C670 C672 1.415 . S
C671 C670 1.355 . S
C671 C673 1.419 . S
C672 C670 1.415 . S
C672 C677 1.425 . S
C672 C679 1.409 . S
C673 H665 0.930 1_556 S
C673 C671 1.419 . S
C673 C674 1.362 . S
C674 H666 0.930 1_556 S
C674 C673 1.362 . S
C674 C677 1.409 . S
C675 H667 0.930 . S
C675 C676 1.355 . S
C675 C677 1.415 . S
C676 C675 1.355 . S
C676 C678 1.419 . S
C677 C672 1.425 . S
C677 C674 1.409 . S
C677 C675 1.415 . S
C678 H668 0.930 . S
C678 C676 1.419 . S
C678 C679 1.362 . S
C679 H669 0.930 . S
C679 C672 1.409 . S
C679 C678 1.362 . S
H680 C686 0.930 . S
H681 C689 0.930 . S
H682 C690 0.930 . S
H683 C691 0.930 . S
H684 C694 0.930 . S
H685 C695 0.930 . S
C686 H680 0.930 . S
C686 C687 1.355 . S
C686 C688 1.415 . S
C687 C686 1.355 . S
C687 C689 1.419 . S
C688 C686 1.415 . S
C688 C693 1.425 . S
C688 C695 1.409 . S
C689 H681 0.930 . S
C689 C687 1.419 . S
C689 C690 1.362 . S
C690 H682 0.930 . S
C690 C689 1.362 . S
C690 C693 1.409 . S
C691 H683 0.930 . S
C691 C692 1.355 . S
C691 C693 1.415 . S
C692 C691 1.355 . S
C692 C694 1.419 . S
C693 C688 1.425 . S
C693 C690 1.409 . S
C693 C691 1.415 . S
C694 H684 0.930 . S
C694 C692 1.419 . S
C694 C695 1.362 . S
C695 H685 0.930 . S
C695 C688 1.409 . S
C695 C694 1.362 . S
H696 C702 0.930 . S
H697 C705 0.930 . S
H698 C706 0.930 . S
H699 C707 0.930 . S
H700 C710 0.930 . S
H701 C711 0.930 . S
C702 H696 0.930 . S
C702 C703 1.355 . S
C702 C704 1.415 . S
C703 C702 1.355 . S
C703 C705 1.419 1_556 S
C704 C702 1.415 . S
C704 C709 1.425 . S
C704 C711 1.409 . S
C705 H697 0.930 . S
C705 C703 1.419 1_554 S
C705 C706 1.362 . S
C706 H698 0.930 . S
C706 C705 1.362 . S
C706 C709 1.409 1_554 S
C707 H699 0.930 . S
C707 C708 1.355 . S
C707 C709 1.415 . S
C708 C707 1.355 . S
C708 C710 1.419 . S
C709 C704 1.425 . S
C709 C706 1.409 1_556 S
C709 C707 1.415 . S
C710 H700 0.930 . S
C710 C708 1.419 . S
C710 C711 1.362 . S
C711 H701 0.930 . S
C711 C704 1.409 . S
C711 C710 1.362 . S
H712 C718 0.930 . S
H713 C721 0.930 . S
H714 C722 0.930 . S
H715 C723 0.930 . S
H716 C726 0.930 . S
H717 C727 0.930 . S
C718 H712 0.930 . S
C718 C719 1.355 . S
C718 C720 1.415 . S
C719 C718 1.355 . S
C719 C721 1.419 . S
C720 C718 1.415 . S
C720 C725 1.425 . S
C720 C727 1.409 . S
C721 H713 0.930 . S
C721 C719 1.419 . S
C721 C722 1.362 . S
C722 H714 0.930 . S
C722 C721 1.362 . S
C722 C725 1.409 . S
C723 H715 0.930 . S
C723 C724 1.355 . S
C723 C725 1.415 . S
C724 C723 1.355 . S
C724 C726 1.419 . S
C725 C720 1.425 . S
C725 C722 1.409 . S
C725 C723 1.415 . S
C726 H716 0.930 . S
C726 C724 1.419 . S
C726 C727 1.362 . S
C727 H717 0.930 . S
C727 C720 1.409 . S
C727 C726 1.362 . S
H728 C734 0.930 . S
H729 C737 0.930 . S
H730 C738 0.930 . S
H731 C739 0.930 . S
H732 C742 0.930 . S
H733 C743 0.930 . S
C734 H728 0.930 . S
C734 C735 1.355 1_545 S
C734 C736 1.415 . S
C735 C734 1.355 1_565 S
C735 C737 1.419 . S
C736 C734 1.415 . S
C736 C741 1.425 1_545 S
C736 C743 1.409 . S
C737 H729 0.930 . S
C737 C735 1.419 . S
C737 C738 1.362 . S
C738 H730 0.930 . S
C738 C737 1.362 . S
C738 C741 1.409 . S
C739 H731 0.930 . S
C739 C740 1.355 1_565 S
C739 C741 1.415 . S
C740 C739 1.355 1_545 S
C740 C742 1.419 . S
C741 C736 1.425 1_565 S
C741 C738 1.409 . S
C741 C739 1.415 . S
C742 H732 0.930 . S
C742 C740 1.419 . S
C742 C743 1.362 . S
C743 H733 0.930 . S
C743 C736 1.409 . S
C743 C742 1.362 . S
H744 C750 0.930 . S
H745 C753 0.930 . S
H746 C754 0.930 . S
H747 C755 0.930 . S
H748 C758 0.930 . S
H749 C759 0.930 . S
C750 H744 0.930 . S
C750 C751 1.355 . S
C750 C752 1.415 . S
C751 C750 1.355 . S
C751 C753 1.419 . S
C752 C750 1.415 . S
C752 C757 1.425 . S
C752 C759 1.409 . S
C753 H745 0.930 . S
C753 C751 1.419 . S
C753 C754 1.362 . S
C754 H746 0.930 . S
C754 C753 1.362 . S
C754 C757 1.409 . S
C755 H747 0.930 . S
C755 C756 1.355 . S
C755 C757 1.415 . S
C756 C755 1.355 . S
C756 C758 1.419 . S
C757 C752 1.425 . S
C757 C754 1.409 . S
C757 C755 1.415 . S
C758 H748 0.930 . S
C758 C756 1.419 . S
C758 C759 1.362 . S
C759 H749 0.930 . S
C759 C752 1.409 . S
C759 C758 1.362 . S
H760 C766 0.930 . S
H761 C769 0.930 . S
H762 C770 0.930 . S
H763 C771 0.930 . S
H764 C774 0.930 . S
H765 C775 0.930 . S
C766 H760 0.930 . S
C766 C767 1.355 . S
C766 C768 1.415 . S
C767 C766 1.355 . S
C767 C769 1.419 . S
C768 C766 1.415 . S
C768 C773 1.425 . S
C768 C775 1.409 . S
C769 H761 0.930 . S
C769 C767 1.419 . S
C769 C770 1.362 . S
C770 H762 0.930 . S
C770 C769 1.362 . S
C770 C773 1.409 . S
C771 H763 0.930 . S
C771 C772 1.355 . S
C771 C773 1.415 . S
C772 C771 1.355 . S
C772 C774 1.419 . S
C773 C768 1.425 . S
C773 C770 1.409 . S
C773 C771 1.415 . S
C774 H764 0.930 . S
C774 C772 1.419 . S
C774 C775 1.362 . S
C775 H765 0.930 . S
C775 C768 1.409 . S
C775 C774 1.362 . S
C399 C255 1.547 . S
C404 C313 1.562 . S
C420 C348 2.285 . S
C415 C294 2.139 . S
C436 C353 1.425 . S
C431 C177 1.422 . S
C452 C373 1.992 . S
C447 C216 1.836 . S
C468 C321 1.601 . S
C463 C99 1.593 1_546 S
C479 C138 2.061 1_556 S
C484 C338 2.281 . S
C495 C21 1.432 . S
C500 C361 1.442 . S
C511 C60 1.884 . S
C516 C381 1.997 . S
C532 C331 1.697 . S
C527 C196 1.544 . S
C548 C340 0.832 1_545 S
C543 C235 0.750 . S
C564 C371 1.818 . S
C559 C289 1.551 . S
C575 C157 0.947 . S
C580 C391 1.056 . S
C591 C40 1.540 . S
C596 C320 1.679 . S
C612 C351 0.747 . S
C607 C79 0.770 . S
C628 C360 1.804 . S
C623 C133 1.664 . S
C639 C1 1.050 . S
C644 C380 0.992 . S
C655 C211 2.060 1_556 S
C660 C318 2.238 . S
C671 C250 1.751 . S
C676 C341 1.978 . S
C692 C358 2.424 . S
C687 C274 2.173 1_556 S
C708 C378 2.142 . S
C703 C172 1.917 1_556 S
C719 C55 2.019 . S
C724 C328 2.246 . S
C740 C333 1.987 . S
C735 C94 1.826 1_565 S
C756 C368 2.422 . S
C751 C118 2.151 . S
C767 C16 1.925 . S
C772 C388 2.143 . S
