# Generated by pormake.
# Topology rtl, (3,6)-cn, num edge types: 1
# Building blocks:
#     Node 0, Type 0, BuildingBlock: BETDIP_clean_linker_0, # of connection points: 3
#     Node 1, Type 0, BuildingBlock: BETDIP_clean_linker_0, # of connection points: 3
#     Node 2, Type 0, BuildingBlock: BETDIP_clean_linker_0, # of connection points: 3
#     Node 3, Type 0, BuildingBlock: BETDIP_clean_linker_0, # of connection points: 3
#     Node 4, Type 1, BuildingBlock: KUMBUR_clean_sbu_1, # of connection points: 6
#     Node 5, Type 1, BuildingBlock: KUMBUR_clean_sbu_1, # of connection points: 6
#     Edge 6, Type (0, 1), BuildingBlock: MIFKUJ_clean_linker_0, # of connection points: 2
#     Edge 7, Type (0, 1), BuildingBlock: MIFKUJ_clean_linker_0, # of connection points: 2
#     Edge 8, Type (0, 1), BuildingBlock: MIFKUJ_clean_linker_0, # of connection points: 2
#     Edge 9, Type (0, 1), BuildingBlock: MIFKUJ_clean_linker_0, # of connection points: 2
#     Edge 10, Type (0, 1), BuildingBlock: MIFKUJ_clean_linker_0, # of connection points: 2
#     Edge 11, Type (0, 1), BuildingBlock: MIFKUJ_clean_linker_0, # of connection points: 2
#     Edge 12, Type (0, 1), BuildingBlock: MIFKUJ_clean_linker_0, # of connection points: 2
#     Edge 13, Type (0, 1), BuildingBlock: MIFKUJ_clean_linker_0, # of connection points: 2
#     Edge 14, Type (0, 1), BuildingBlock: MIFKUJ_clean_linker_0, # of connection points: 2
#     Edge 15, Type (0, 1), BuildingBlock: MIFKUJ_clean_linker_0, # of connection points: 2
#     Edge 16, Type (0, 1), BuildingBlock: MIFKUJ_clean_linker_0, # of connection points: 2
#     Edge 17, Type (0, 1), BuildingBlock: MIFKUJ_clean_linker_0, # of connection points: 2
# Relax obj value: 0.051
# Max RMSD: 0.207
# Mean RMSD: 0.154
data_MOF--net-rtl--node1-KUMBUR_clean_sbu_1--node2-BETDIP_clean_linker_0--edge1-MIFKUJ_clean_linker_0
_symmetry_space_group_name_H-M    P1
_symmetry_Int_Tables_number       1
_symmetry_cell_setting            triclinic
loop_
_symmetry_equiv_pos_as_xyz
'x, y, z'
_cell_length_a     45.690151
_cell_length_b     45.747796
_cell_length_c     34.217252
_cell_angle_alpha  80.783713
_cell_angle_beta   99.885937
_cell_angle_gamma 90.736799
loop_
_atom_site_label
_atom_site_type_symbol
_atom_site_fract_x
_atom_site_fract_y
_atom_site_fract_z
_atom_type_partial_charge
H0 H 0.21628 0.82164 0.95733 0.0
H1 H 0.22831 0.81005 0.08637 0.0
H2 H 0.1661 0.87536 0.0154 0.0
H3 H 0.26985 0.78629 0.08442 0.0
C4 C 0.26822 0.77864 0.05572 0.0
C5 C 0.21089 0.82814 0.98438 0.0
C6 C 0.18938 0.8504 0.9816 0.0
C7 C 0.22546 0.81377 0.02177 0.0
C8 C 0.21787 0.82131 0.05719 0.0
C9 C 0.1965 0.84366 0.05502 0.0
C10 C 0.18254 0.85812 0.01715 0.0
N11 N 0.24712 0.7916 0.02205 0.0
H12 H 0.7098 0.71445 0.68663 0.0
H13 H 0.70961 0.71043 0.56165 0.0
H14 H 0.64697 0.65988 0.6237 0.0
H15 H 0.75845 0.72014 0.57934 0.0
C16 C 0.75781 0.73701 0.59821 0.0
C17 C 0.70071 0.70581 0.65946 0.0
C18 C 0.6765 0.68642 0.65925 0.0
C19 C 0.71325 0.71421 0.62464 0.0
C20 C 0.70105 0.70329 0.58916 0.0
C21 C 0.67696 0.68387 0.58851 0.0
C22 C 0.66497 0.67556 0.62369 0.0
N23 N 0.73739 0.73435 0.62569 0.0
H24 H 0.80233 0.21466 0.97218 0.0
H25 H 0.80968 0.20241 0.1009 0.0
H26 H 0.86518 0.15141 0.04756 0.0
H27 H 0.7644 0.22042 0.08844 0.0
C28 C 0.76187 0.23577 0.06037 0.0
C29 C 0.81233 0.20336 1.00165 0.0
C30 C 0.83557 0.18258 0.00557 0.0
C31 C 0.80208 0.21009 0.03567 0.0
C32 C 0.81593 0.19635 0.07418 0.0
C33 C 0.83892 0.17537 0.07865 0.0
C34 C 0.84819 0.16836 0.04421 0.0
N35 N 0.77859 0.23141 0.03018 0.0
H36 H 0.32053 0.29709 0.38038 0.0
H37 H 0.31386 0.30177 0.50331 0.0
H38 H 0.37535 0.3569 0.4457 0.0
H39 H 0.30099 0.25526 0.5045 0.0
C40 C 0.28659 0.25498 0.47581 0.0
C41 C 0.32748 0.30652 0.40753 0.0
C42 C 0.34958 0.32841 0.40864 0.0
C43 C 0.31501 0.29595 0.44193 0.0
C44 C 0.32415 0.30835 0.47712 0.0
C45 C 0.34615 0.32998 0.47878 0.0
C46 C 0.35851 0.34002 0.44443 0.0
N47 N 0.29333 0.27312 0.44058 0.0
Tb48 Tb 0.03447 0.97764 0.50728 0.0
C49 C 0.9694 0.09372 0.48557 0.0
N50 N 0.99302 0.08396 0.51448 0.0
C51 C 0.01718 0.13037 0.49961 0.0
C52 C 0.96951 0.1215 0.46085 0.0
C53 C 0.01559 0.10291 0.52388 0.0
C54 C 0.99437 0.13941 0.46726 0.0
C55 C 0.91789 0.08736 0.45656 0.0
C56 C 0.94394 0.077 0.48339 0.0
C57 C 0.91845 0.11411 0.43004 0.0
C58 C 0.94427 0.13111 0.43207 0.0
Tb59 Tb 0.98865 0.03732 0.5495 0.0
N60 N 0.94444 0.05099 0.50892 0.0
C61 C 0.89201 0.07074 0.45782 0.0
C62 C 0.91895 0.03551 0.51197 0.0
C63 C 0.89243 0.04495 0.4861 0.0
H64 H 0.0323 0.09715 0.55036 0.0
H65 H 0.87239 0.03232 0.48792 0.0
H66 H 0.01 0.91268 0.54367 0.0
H67 H 0.14724 0.01759 0.51731 0.0
H68 H 0.91925 0.01565 0.53389 0.0
H69 H 0.8715 0.07794 0.43772 0.0
H70 H 0.09532 0.01386 0.48494 0.0
H71 H 0.03568 0.1448 0.50639 0.0
H72 H 0.89881 0.12223 0.40866 0.0
H73 H 0.94409 0.15219 0.41238 0.0
H74 H 0.02787 0.87066 0.59735 0.0
H75 H 0.9954 0.1609 0.44892 0.0
H76 H 0.16696 0.98382 0.58042 0.0
N77 N 0.04934 0.93742 0.55504 0.0
C78 C 0.07754 0.93757 0.57541 0.0
C79 C 0.04192 0.88952 0.59182 0.0
C80 C 0.08862 0.91434 0.60649 0.0
C81 C 0.03185 0.9133 0.5615 0.0
C82 C 0.07023 0.89027 0.61494 0.0
N83 N 0.08422 0.98131 0.53177 0.0
C84 C 0.10301 1.0003 0.51362 0.0
C85 C 0.12534 0.96116 0.5828 0.0
C86 C 0.09544 0.96072 0.56388 0.0
C87 C 0.14381 0.98284 0.56689 0.0
C88 C 0.13277 1.00198 0.53147 0.0
H89 H 0.07789 0.8719 0.63853 0.0
H90 H 0.12661 0.89831 0.65183 0.0
H91 H 0.15892 0.93931 0.63087 0.0
O92 O 0.0611 0.95844 0.47329 0.0
O93 O 0.02749 0.97245 0.56992 0.0
O94 O 0.03062 0.0192 0.58534 0.0
O95 O 0.01401 0.95293 0.46348 0.0
O96 O 0.04581 0.02486 0.49386 0.0
O97 O 0.03633 0.04536 0.54809 0.0
O98 O 0.97369 0.02486 0.60476 0.0
O99 O 0.97273 0.02198 0.492 0.0
O100 O 0.01478 0.01666 0.46613 0.0
O101 O 0.97459 0.07043 0.57837 0.0
O102 O 0.97167 0.99175 0.55803 0.0
O103 O 0.98825 0.96512 0.51244 0.0
C104 C 0.03632 0.99072 0.59525 0.0
C105 C 0.03789 0.95841 0.40666 0.0
C106 C 0.05774 0.95448 0.34562 0.0
C107 C 0.03974 0.97887 0.32534 0.0
C108 C 0.01988 0.98237 0.38546 0.0
C109 C 0.02107 0.9927 0.34524 0.0
C110 C 0.0567 0.94439 0.38656 0.0
C111 C 0.0512 0.04455 0.51841 0.0
C112 C 0.03852 0.94932 0.45018 0.0
C113 C 0.11778 0.91568 0.62735 0.0
C114 C 0.13613 0.93909 0.61552 0.0
C115 C 0.98692 0.02509 0.46146 0.0
C116 C 0.98368 0.06021 0.64842 0.0
C117 C 0.97825 0.07972 0.70937 0.0
C118 C 0.00943 0.08161 0.71843 0.0
C119 C 0.01466 0.06168 0.6586 0.0
C120 C 0.96558 0.06883 0.67402 0.0
C121 C 0.02742 0.07223 0.69356 0.0
C122 C 0.97028 0.96908 0.53792 0.0
C123 C 0.97001 0.05208 0.60964 0.0
H124 H 0.03977 0.98707 0.29385 0.0
H125 H 1.00503 0.99323 0.40006 0.0
H126 H 0.00744 0.01154 0.32949 0.0
H127 H 0.07093 0.92613 0.40301 0.0
H128 H 0.02003 0.09088 0.74439 0.0
H129 H 0.0289 0.05538 0.63902 0.0
H130 H 0.94168 0.06726 0.66608 0.0
H131 H 0.05134 0.07372 0.70102 0.0
Tb132 Tb 0.48221 0.49413 0.99267 0.0
C133 C 0.60602 0.54422 0.06667 0.0
N134 N 0.59213 0.51935 0.08102 0.0
C135 C 0.63877 0.49298 0.09889 0.0
C136 C 0.63694 0.54432 0.06738 0.0
C137 C 0.60801 0.49395 0.09742 0.0
C138 C 0.65331 0.51828 0.08385 0.0
C139 C 0.60236 0.59555 0.03411 0.0
C140 C 0.58897 0.56952 0.05031 0.0
C141 C 0.63319 0.59578 0.03481 0.0
C142 C 0.65044 0.57024 0.05143 0.0
Tb143 Tb 0.54207 0.52394 0.07753 0.0
N144 N 0.55899 0.56806 0.04859 0.0
C145 C 0.58431 0.62043 0.01738 0.0
C146 C 0.54148 0.59265 0.03386 0.0
C147 C 0.55378 0.61903 0.01758 0.0
H148 H 0.59711 0.47468 0.11046 0.0
H149 H 0.5397 0.63833 0.00549 0.0
H150 H 0.42066 0.52961 0.99665 0.0
H151 H 0.50933 0.37676 0.01428 0.0
H152 H 0.51813 0.59229 0.03481 0.0
H153 H 0.59374 0.64086 1.00461 0.0
H154 H 0.51681 0.4294 0.99232 0.0
H155 H 0.65128 0.47281 0.11192 0.0
H156 H 0.64389 0.61555 0.02241 0.0
H157 H 0.67418 0.57073 0.05163 0.0
H158 H 0.37112 0.51691 0.01295 0.0
H159 H 0.67715 0.5175 0.08516 0.0
H160 H 0.46328 0.36023 0.03935 0.0
N161 N 0.43694 0.48526 0.01111 0.0
C162 C 0.43047 0.45632 0.02207 0.0
C163 C 0.38773 0.49975 0.01633 0.0
C164 C 0.40232 0.44805 0.03134 0.0
C165 C 0.41593 0.50693 0.00743 0.0
C166 C 0.38092 0.47024 0.02863 0.0
N167 N 0.47862 0.44394 0.01256 0.0
C168 C 0.49815 0.42317 0.00701 0.0
C169 C 0.44582 0.40478 0.0334 0.0
C170 C 0.45216 0.43506 0.02344 0.0
C171 C 0.46726 0.38369 0.0318 0.0
C172 C 0.49336 0.39294 0.01795 0.0
H173 H 0.35896 0.46478 0.03525 0.0
H174 H 0.37468 0.41115 0.04909 0.0
H175 H 0.4123 0.37335 0.04912 0.0
O176 O 0.48285 0.4754 0.94019 0.0
O177 O 0.473 0.49095 0.05458 0.0
O178 O 0.51835 0.48358 0.09623 0.0
O179 O 0.44956 0.50739 0.9417 0.0
O180 O 0.52883 0.47837 1.00326 0.0
O181 O 0.54518 0.47736 0.07123 0.0
O182 O 0.53195 0.55127 0.11728 0.0
O183 O 0.55198 0.53063 0.01609 0.0
O184 O 0.50728 0.53309 0.97199 0.0
O185 O 0.5671 0.51868 0.13607 0.0
O186 O 0.4968 0.54286 0.06424 0.0
O187 O 0.47667 0.54071 0.99775 0.0
C188 C 0.48954 0.47928 0.08873 0.0
C189 C 0.43506 0.46938 0.9032 0.0
C190 C 0.41733 0.43855 0.85221 0.0
C191 C 0.39225 0.43144 0.87029 0.0
C192 C 0.40909 0.46293 0.91961 0.0
C193 C 0.3881 0.44376 0.90363 0.0
C194 C 0.43884 0.45746 0.86888 0.0
C195 C 0.54666 0.468 0.03719 0.0
C196 C 0.45816 0.48845 0.92142 0.0
C197 C 0.39624 0.418 0.04212 0.0
C198 C 0.41784 0.39645 0.04276 0.0
C199 C 0.53583 0.53845 0.98028 0.0
C200 C 0.54256 0.53187 0.18612 0.0
C201 C 0.54697 0.54063 0.25541 0.0
C202 C 0.52354 0.52091 0.26067 0.0
C203 C 0.51915 0.51245 0.19181 0.0
C204 C 0.55646 0.54581 0.21792 0.0
C205 C 0.50983 0.50687 0.22905 0.0
C206 C 0.47796 0.55222 0.03092 0.0
C207 C 0.55203 0.53897 0.14685 0.0
H208 H 0.37537 0.41705 0.85781 0.0
H209 H 0.40467 0.47287 0.94447 0.0
H210 H 0.36835 0.43876 0.91682 0.0
H211 H 0.45839 0.46282 0.85526 0.0
H212 H 0.51594 0.51623 0.28929 0.0
H213 H 0.50796 0.50196 0.16738 0.0
H214 H 0.57415 0.56129 0.21309 0.0
H215 H 0.49177 0.49179 0.23333 0.0
H216 H 0.25137 0.23414 0.41196 0.0
H217 H 0.2103 0.19909 0.41577 0.0
H218 H 0.22125 0.19825 0.54383 0.0
H219 H 0.26288 0.23182 0.54024 0.0
H220 H 0.21624 0.14541 0.53207 0.0
H221 H 0.1608 0.23463 0.47065 0.0
H222 H 0.14667 0.2788 0.41941 0.0
H223 H 0.12482 0.22357 0.32851 0.0
H224 H 0.13918 0.17908 0.37915 0.0
H225 H 0.08459 0.07332 0.57443 0.0
H226 H 0.12336 0.1097 0.5642 0.0
H227 H 0.11096 0.10113 0.4387 0.0
H228 H 0.07127 0.06562 0.44852 0.0
H229 H 0.11677 0.15752 0.44605 0.0
H230 H 0.17931 0.06977 0.50701 0.0
H231 H 0.19662 0.02641 0.5584 0.0
H232 H 0.20314 0.08043 0.6511 0.0
H233 H 0.18712 0.12436 0.60003 0.0
C234 C 0.24479 0.22655 0.44077 0.0
C235 C 0.26032 0.23559 0.47586 0.0
C236 C 0.22119 0.20664 0.44296 0.0
C237 C 0.21236 0.19603 0.48012 0.0
C238 C 0.22759 0.2058 0.51483 0.0
C239 C 0.25136 0.22511 0.51275 0.0
C240 C 0.18839 0.17368 0.48384 0.0
C241 C 0.19439 0.14843 0.51348 0.0
C242 C 0.15999 0.17685 0.45906 0.0
C243 C 0.15138 0.20356 0.42861 0.0
C244 C 0.15321 0.23193 0.43968 0.0
C245 C 0.14511 0.25701 0.41075 0.0
C246 C 0.13494 0.254 0.37071 0.0
C247 C 0.13276 0.22588 0.35953 0.0
C248 C 0.14085 0.20072 0.38833 0.0
C249 C 0.09003 0.07931 0.54461 0.0
C250 C 0.07489 0.06655 0.5123 0.0
C251 C 0.11248 0.09987 0.53886 0.0
C252 C 0.12062 0.10785 0.50078 0.0
C253 C 0.10529 0.0953 0.4684 0.0
C254 C 0.08269 0.07488 0.47409 0.0
C255 C 0.14464 0.12969 0.49462 0.0
C256 C 0.13867 0.15469 0.4645 0.0
C257 C 0.17305 0.12655 0.51912 0.0
C258 C 0.18171 0.10014 0.54987 0.0
C259 C 0.18427 0.0723 0.5384 0.0
C260 C 0.19396 0.04768 0.56743 0.0
C261 C 0.20052 0.05055 0.60804 0.0
C262 C 0.19789 0.07819 0.61967 0.0
C263 C 0.18879 0.103 0.59068 0.0
H264 H 0.20785 0.0314 0.63045 0.0
H265 H 0.12868 0.27344 0.34837 0.0
H266 H 0.3125 0.75201 0.11307 0.0
H267 H 0.3487 0.71474 0.1067 0.0
H268 H 0.30923 0.71727 0.98224 0.0
H269 H 0.27282 0.75416 0.98859 0.0
H270 H 0.31936 0.66136 0.01964 0.0
H271 H 0.37575 0.75052 0.00861 0.0
H272 H 0.39674 0.7967 0.02933 0.0
H273 H 0.44423 0.74729 0.13864 0.0
H274 H 0.42318 0.70083 0.11882 0.0
H275 H 0.43689 0.58091 0.96858 0.0
H276 H 0.40096 0.61948 0.97125 0.0
H277 H 0.43518 0.61734 0.09722 0.0
H278 H 0.47076 0.5786 0.09512 0.0
H279 H 0.42809 0.67402 0.05644 0.0
H280 H 0.36733 0.58749 0.07375 0.0
H281 H 0.34316 0.54114 0.05853 0.0
H282 H 0.30431 0.58506 0.94085 0.0
H283 H 0.32786 0.63185 0.95576 0.0
C284 C 0.31162 0.74461 0.08436 0.0
C285 C 0.28991 0.75606 0.05138 0.0
C286 C 0.33239 0.72346 0.08068 0.0
C287 C 0.33196 0.71348 0.04382 0.0
C288 C 0.31008 0.7247 0.01092 0.0
C289 C 0.2893 0.74585 0.0146 0.0
C290 C 0.35383 0.69079 0.03985 0.0
C291 C 0.34315 0.66441 0.02698 0.0
C292 C 0.38488 0.69434 0.05047 0.0
C293 C 0.39767 0.72223 0.06238 0.0
C294 C 0.39049 0.74952 0.03721 0.0
C295 C 0.40243 0.77575 0.04877 0.0
C296 C 0.42175 0.77494 0.08532 0.0
C297 C 0.42923 0.74789 0.11035 0.0
C298 C 0.41733 0.7216 0.09895 0.0
C299 C 0.43671 0.58851 0.99693 0.0
C300 C 0.45663 0.57636 0.03169 0.0
C301 C 0.41609 0.61053 0.99841 0.0
C302 C 0.41519 0.6211 0.03454 0.0
C303 C 0.43542 0.60948 0.06904 0.0
C304 C 0.45579 0.58728 0.06771 0.0
C305 C 0.39356 0.64465 0.03634 0.0
C306 C 0.4043 0.67117 0.04876 0.0
C307 C 0.36257 0.64123 0.02555 0.0
C308 C 0.3496 0.61298 0.01567 0.0
C309 C 0.35384 0.58716 0.04452 0.0
C310 C 0.34006 0.5609 0.03607 0.0
C311 C 0.3223 0.56012 0.99868 0.0
C312 C 0.31812 0.58568 0.96976 0.0
C313 C 0.33154 0.61211 0.97827 0.0
H314 H 0.31178 0.53971 0.99214 0.0
H315 H 0.43097 0.79526 0.09422 0.0
H316 H 0.76515 0.7844 0.6399 0.0
H317 H 0.8008 0.82471 0.63281 0.0
H318 H 0.83403 0.78546 0.54219 0.0
H319 H 0.79883 0.74508 0.54959 0.0
H320 H 0.87888 0.80252 0.59378 0.0
H321 H 0.78647 0.84643 0.51822 0.0
H322 H 0.73381 0.8617 0.5087 0.0
H323 H 0.75477 0.91613 0.60069 0.0
H324 H 0.80751 0.90087 0.61112 0.0
H325 H 0.95738 0.92015 0.50119 0.0
H326 H 0.92119 0.88186 0.51495 0.0
H327 H 0.89493 0.92763 0.60447 0.0
H328 H 0.93105 0.96616 0.59093 0.0
H329 H 0.84693 0.90807 0.55869 0.0
H330 H 0.93857 0.86592 0.63381 0.0
H331 H 0.99124 0.85037 0.64593 0.0
H332 H 0.972 0.7929 0.55739 0.0
H333 H 0.91918 0.80824 0.5446 0.0
C334 C 0.7801 0.78438 0.61854 0.0
C335 C 0.77924 0.76159 0.59525 0.0
C336 C 0.80038 0.8075 0.61436 0.0
C337 C 0.81999 0.80832 0.58667 0.0
C338 C 0.81922 0.78537 0.56376 0.0
C339 C 0.79904 0.76233 0.56795 0.0
C340 C 0.84152 0.83282 0.58142 0.0
C341 C 0.8718 0.82556 0.58567 0.0
C342 C 0.83253 0.86302 0.57208 0.0
C343 C 0.80086 0.87225 0.56575 0.0
C344 C 0.7798 0.86147 0.53664 0.0
C345 C 0.74995 0.87016 0.53104 0.0
C346 C 0.74093 0.8898 0.55416 0.0
C347 C 0.76177 0.90087 0.58285 0.0
C348 C 0.79165 0.89223 0.5886 0.0
C349 C 0.94399 0.92217 0.52386 0.0
C350 C 0.94742 0.94627 0.54511 0.0
C351 C 0.9233 0.90014 0.53178 0.0
C352 C 0.90557 0.9016 0.56116 0.0
C353 C 0.9084 0.92595 0.58176 0.0
C354 C 0.92916 0.94797 0.57396 0.0
C355 C 0.88417 0.87766 0.57035 0.0
C356 C 0.85398 0.88502 0.56694 0.0
C357 C 0.89322 0.84753 0.5807 0.0
C358 C 0.92498 0.83842 0.58801 0.0
C359 C 0.94561 0.85013 0.61671 0.0
C360 C 0.97547 0.84129 0.62379 0.0
C361 C 0.98497 0.8207 0.60238 0.0
C362 C 0.96461 0.80885 0.57393 0.0
C363 C 0.93469 0.81756 0.56683 0.0
H364 H 0.00812 0.81391 0.60788 0.0
H365 H 0.71782 0.89651 0.54978 0.0
H366 H 0.73252 0.25139 0.11598 0.0
H367 H 0.69596 0.29129 0.10807 0.0
H368 H 0.70446 0.31521 0.98334 0.0
H369 H 0.74193 0.2757 0.99157 0.0
H370 H 0.70162 0.36356 0.01557 0.0
H371 H 0.64364 0.27635 0.01215 0.0
H372 H 0.62863 0.22539 0.03509 0.0
H373 H 0.6116 0.25069 0.14473 0.0
H374 H 0.6269 0.30174 0.12269 0.0
H375 H 0.57112 0.45629 0.9737 0.0
H376 H 0.60726 0.41724 0.97352 0.0
H377 H 0.60876 0.38843 0.10026 0.0
H378 H 0.57198 0.42676 0.10028 0.0
H379 H 0.60498 0.34228 0.06097 0.0
H380 H 0.66604 0.42969 0.06384 0.0
H381 H 0.68043 0.48044 0.03852 0.0
H382 H 0.68959 0.45441 0.92614 0.0
H383 H 0.6752 0.40347 0.95069 0.0
C384 C 0.72659 0.26517 0.08686 0.0
C385 C 0.73993 0.26034 0.05438 0.0
C386 C 0.70556 0.28789 0.08229 0.0
C387 C 0.69693 0.30596 0.04488 0.0
C388 C 0.71062 0.30148 0.01245 0.0
C389 C 0.73197 0.27886 0.01714 0.0
C390 C 0.67376 0.32951 0.04003 0.0
C391 C 0.6803 0.3588 0.02491 0.0
C392 C 0.64601 0.32349 0.05258 0.0
C393 C 0.63665 0.29283 0.06588 0.0
C394 C 0.63689 0.271 0.04127 0.0
C395 C 0.6283 0.24211 0.0541 0.0
C396 C 0.61923 0.23479 0.09138 0.0
C397 C 0.61866 0.25639 0.11587 0.0
C398 C 0.62725 0.28531 0.10321 0.0
C399 C 0.57918 0.4416 1.00151 0.0
C400 C 0.56894 0.44477 0.0371 0.0
C401 C 0.59997 0.41942 1.00143 0.0
C402 C 0.61107 0.40011 0.03701 0.0
C403 C 0.60065 0.40313 0.07247 0.0
C404 C 0.5798 0.4252 0.07253 0.0
C405 C 0.6331 0.37635 0.03735 0.0
C406 C 0.62626 0.34698 0.05149 0.0
C407 C 0.66041 0.3823 0.02356 0.0
C408 C 0.66928 0.41285 0.00897 0.0
C409 C 0.67095 0.43483 0.03364 0.0
C410 C 0.67912 0.46362 0.01945 0.0
C411 C 0.68574 0.47069 0.98071 0.0
C412 C 0.68439 0.44892 0.95612 0.0
C413 C 0.67631 0.42007 0.97019 0.0
H414 H 0.69202 0.49301 0.96979 0.0
H415 H 0.61259 0.2124 0.10125 0.0
H416 H 0.18301 0.8068 0.12076 0.0
H417 H 0.16494 0.82096 0.17876 0.0
H418 H 0.17256 0.9132 0.13017 0.0
H419 H 0.19092 0.8992 0.0726 0.0
H420 H 0.1918 0.90202 0.21184 0.0
H421 H 0.10675 0.87966 0.11604 0.0
H422 H 0.07656 0.84779 0.07354 0.0
H423 H 0.06999 0.78372 0.17797 0.0
H424 H 0.10053 0.81506 0.22104 0.0
H425 H 0.0916 0.98101 0.29172 0.0
H426 H 0.12013 0.95738 0.25114 0.0
H427 H 0.09788 0.87136 0.30974 0.0
H428 H 0.0682 0.89499 0.34958 0.0
H429 H 0.08958 0.87298 0.23097 0.0
H430 H 0.16907 0.8984 0.32809 0.0
H431 H 0.19901 0.93031 0.37073 0.0
H432 H 0.21658 0.98796 0.26562 0.0
H433 H 0.18638 0.95664 0.2223 0.0
C434 C 0.18127 0.83007 0.12284 0.0
C435 C 0.18816 0.85191 0.09201 0.0
C436 C 0.17078 0.83813 0.15582 0.0
C437 C 0.16711 0.86815 0.15857 0.0
C438 C 0.17516 0.88992 0.12865 0.0
C439 C 0.18545 0.8819 0.09564 0.0
C440 C 0.15351 0.87714 0.19137 0.0
C441 C 0.16941 0.8958 0.21598 0.0
C442 C 0.12463 0.8683 0.19753 0.0
C443 C 0.10622 0.84951 0.17168 0.0
C444 C 0.09908 0.85865 0.12989 0.0
C445 C 0.08187 0.84071 0.10571 0.0
C446 C 0.07145 0.8137 0.12303 0.0
C447 C 0.07814 0.80461 0.16458 0.0
C448 C 0.09539 0.82246 0.18889 0.0
C449 C 0.09273 0.95705 0.29604 0.0
C450 C 0.07741 0.9399 0.32375 0.0
C451 C 0.10939 0.94354 0.27311 0.0
C452 C 0.11149 0.91254 0.27763 0.0
C453 C 0.09671 0.89531 0.30582 0.0
C454 C 0.07993 0.90884 0.3288 0.0
C455 C 0.12764 0.89842 0.25109 0.0
C456 C 0.11219 0.87882 0.22751 0.0
C457 C 0.15699 0.90634 0.246 0.0
C458 C 0.17528 0.92524 0.27193 0.0
C459 C 0.17914 0.91799 0.31405 0.0
C460 C 0.19619 0.93597 0.33835 0.0
C461 C 0.20964 0.96117 0.3209 0.0
C462 C 0.20613 0.96843 0.2791 0.0
C463 C 0.18908 0.95055 0.25465 0.0
H464 H 0.22283 0.97506 0.33977 0.0
H465 H 0.05811 0.79984 0.10426 0.0
H466 H 0.70535 0.66636 0.73591 0.0
H467 H 0.68299 0.64439 0.79395 0.0
H468 H 0.59557 0.6615 0.72299 0.0
H469 H 0.61772 0.68382 0.66531 0.0
H470 H 0.59722 0.67251 0.7992 0.0
H471 H 0.62829 0.59413 0.7354 0.0
H472 H 0.66428 0.56574 0.7097 0.0
H473 H 0.71685 0.54723 0.8278 0.0
H474 H 0.68137 0.5759 0.85409 0.0
H475 H 0.51018 0.57074 0.90801 0.0
H476 H 0.53537 0.59849 0.85646 0.0
H477 H 0.62041 0.57195 0.92937 0.0
H478 H 0.59549 0.54309 0.97985 0.0
H479 H 0.62208 0.56717 0.85503 0.0
H480 H 0.59102 0.64378 0.92009 0.0
H481 H 0.55576 0.6726 0.94649 0.0
H482 H 0.504 0.69428 0.8283 0.0
H483 H 0.53895 0.66562 0.80112 0.0
C484 C 0.68137 0.66595 0.73299 0.0
C485 C 0.6633 0.67658 0.69596 0.0
C486 C 0.66862 0.65318 0.76604 0.0
C487 C 0.63758 0.65089 0.76265 0.0
C488 C 0.61953 0.66289 0.72631 0.0
C489 C 0.63224 0.67549 0.6933 0.0
C490 C 0.62378 0.6347 0.79604 0.0
C491 C 0.60249 0.64942 0.81123 0.0
C492 C 0.63107 0.60473 0.81237 0.0
C493 C 0.65237 0.58745 0.7966 0.0
C494 C 0.64766 0.58422 0.75581 0.0
C495 C 0.66794 0.56804 0.74115 0.0
C496 C 0.69289 0.55477 0.76707 0.0
C497 C 0.69756 0.55758 0.80774 0.0
C498 C 0.67737 0.57378 0.82254 0.0
C499 C 0.53423 0.57073 0.913 0.0
C500 C 0.55076 0.55502 0.94842 0.0
C501 C 0.54864 0.58685 0.88365 0.0
C502 C 0.57985 0.58783 0.88927 0.0
C503 C 0.59634 0.57177 0.92435 0.0
C504 C 0.58199 0.55546 0.95344 0.0
C505 C 0.59539 0.60493 0.85823 0.0
C506 C 0.61696 0.59035 0.84336 0.0
C507 C 0.58847 0.63506 0.84239 0.0
C508 C 0.56747 0.65236 0.85863 0.0
C509 C 0.57202 0.65455 0.89977 0.0
C510 C 0.55211 0.67087 0.91487 0.0
C511 C 0.52758 0.68511 0.88915 0.0
C512 C 0.52299 0.6832 0.8482 0.0
C513 C 0.54288 0.667 0.8329 0.0
H514 H 0.51217 0.69769 0.90092 0.0
H515 H 0.70856 0.54224 0.75567 0.0
H516 H 0.8129 0.15338 0.14367 0.0
H517 H 0.83726 0.12761 0.2093 0.0
H518 H 0.92236 0.13848 0.17073 0.0
H519 H 0.89825 0.16439 0.10533 0.0
H520 H 0.91532 0.08251 0.20549 0.0
H521 H 0.90177 0.17992 0.23599 0.0
H522 H 0.87352 0.22462 0.23983 0.0
H523 H 0.82063 0.17249 0.31653 0.0
H524 H 0.84828 0.12738 0.31266 0.0
H525 H 0.01093 0.05539 0.39944 0.0
H526 H 0.98443 0.07861 0.3334 0.0
H527 H 0.9012 0.04809 0.36703 0.0
H528 H 0.92774 0.02333 0.43206 0.0
H529 H 0.90587 0.11268 0.33575 0.0
H530 H 0.91801 0.01583 0.30541 0.0
H531 H 0.943 0.96995 0.29862 0.0
H532 H 0.99675 0.02009 0.22131 0.0
H533 H 0.97238 0.06639 0.22814 0.0
C534 C 0.83684 0.15062 0.14937 0.0
C535 C 0.85361 0.16083 0.1192 0.0
C536 C 0.85073 0.13586 0.18687 0.0
C537 C 0.88166 0.13122 0.19498 0.0
C538 C 0.89846 0.14167 0.16507 0.0
C539 C 0.88462 0.1564 0.12766 0.0
C540 C 0.89656 0.11467 0.23411 0.0
C541 C 0.91361 0.08938 0.23394 0.0
C542 C 0.89353 0.12309 0.2713 0.0
C543 C 0.87686 0.1502 0.2736 0.0
C544 C 0.88392 0.17793 0.25335 0.0
C545 C 0.86805 0.20336 0.2556 0.0
C546 C 0.84523 0.20139 0.27829 0.0
C547 C 0.83828 0.17398 0.29889 0.0
C548 C 0.85405 0.14848 0.29668 0.0
C549 C 0.98702 0.05334 0.39251 0.0
C550 C 0.97125 0.03807 0.42111 0.0
C551 C 0.97196 0.06662 0.3549 0.0
C552 C 0.94091 0.06513 0.34558 0.0
C553 C 0.92517 0.04957 0.37383 0.0
C554 C 0.9403 0.0357 0.41103 0.0
C555 C 0.92479 0.08084 0.30689 0.0
C556 C 0.90757 0.10592 0.30723 0.0
C557 C 0.92757 0.0722 0.26986 0.0
C558 C 0.9436 0.04464 0.26769 0.0
C559 C 0.93549 0.01716 0.2875 0.0
C560 C 0.94938 0.99104 0.28338 0.0
C561 C 0.97131 0.99209 0.25933 0.0
C562 C 0.97964 0.0193 0.23973 0.0
C563 C 0.96582 0.04549 0.24377 0.0
H564 H 0.98201 0.97184 0.25614 0.0
H565 H 0.83298 0.2211 0.28001 0.0
H566 H 0.36075 0.2982 0.55407 0.0
H567 H 0.37801 0.31685 0.61697 0.0
H568 H 0.37306 0.4063 0.55257 0.0
H569 H 0.35605 0.38767 0.48933 0.0
H570 H 0.42285 0.39753 0.60863 0.0
H571 H 0.31859 0.37933 0.60496 0.0
H572 H 0.27315 0.34956 0.59813 0.0
H573 H 0.31197 0.28638 0.70004 0.0
H574 H 0.35781 0.31559 0.70713 0.0
H575 H 0.42106 0.47042 0.77896 0.0
H576 H 0.41457 0.45193 0.71469 0.0
H577 H 0.41216 0.36238 0.77733 0.0
H578 H 0.41739 0.38105 0.84127 0.0
H579 H 0.36686 0.37168 0.72108 0.0
H580 H 0.47103 0.39068 0.72618 0.0
H581 H 0.51651 0.4204 0.7325 0.0
H582 H 0.47839 0.48205 0.62848 0.0
H583 H 0.43251 0.45291 0.62184 0.0
C584 C 0.36316 0.32186 0.55335 0.0
C585 C 0.35676 0.3415 0.51684 0.0
C586 C 0.3731 0.33249 0.58928 0.0
C587 C 0.37644 0.36302 0.58956 0.0
C588 C 0.37065 0.38266 0.55306 0.0
C589 C 0.3609 0.37201 0.51699 0.0
C590 C 0.38525 0.37439 0.62812 0.0
C591 C 0.41047 0.39218 0.63314 0.0
C592 C 0.36941 0.36693 0.66031 0.0
C593 C 0.34172 0.34952 0.65635 0.0
C594 C 0.3175 0.359 0.62575 0.0
C595 C 0.29167 0.34223 0.62185 0.0
C596 C 0.2897 0.31606 0.64857 0.0
C597 C 0.31353 0.30664 0.67933 0.0
C598 C 0.33944 0.32331 0.68333 0.0
C599 C 0.41992 0.44675 0.77891 0.0
C600 C 0.41971 0.4271 0.81485 0.0
C601 C 0.41626 0.43617 0.74222 0.0
C602 C 0.41295 0.40569 0.74105 0.0
C603 C 0.4145 0.38597 0.77736 0.0
C604 C 0.41764 0.39659 0.81388 0.0
C605 C 0.40485 0.39454 0.70212 0.0
C606 C 0.37951 0.37693 0.69683 0.0
C607 C 0.42063 0.4022 0.6698 0.0
C608 C 0.44822 0.41974 0.67375 0.0
C609 C 0.47225 0.4107 0.70484 0.0
C610 C 0.49812 0.42742 0.70844 0.0
C611 C 0.50031 0.45314 0.68097 0.0
C612 C 0.47665 0.46214 0.64977 0.0
C613 C 0.45072 0.44551 0.64605 0.0
H614 H 0.52036 0.46605 0.68381 0.0
H615 H 0.26969 0.3031 0.64549 0.0
H616 H 0.70693 0.66192 0.53637 0.0
H617 H 0.68586 0.63912 0.4779 0.0
H618 H 0.59747 0.65568 0.49856 0.0
H619 H 0.61838 0.67834 0.55702 0.0
H620 H 0.60298 0.6003 0.48642 0.0
H621 H 0.62676 0.69653 0.42074 0.0
H622 H 0.65948 0.73854 0.40522 0.0
H623 H 0.71621 0.68189 0.3614 0.0
H624 H 0.68404 0.63942 0.37717 0.0
H625 H 0.51957 0.56733 0.30569 0.0
H626 H 0.54269 0.59292 0.36031 0.0
H627 H 0.62936 0.57496 0.33485 0.0
H628 H 0.60628 0.54956 0.27979 0.0
H629 H 0.6262 0.63033 0.34936 0.0
H630 H 0.60271 0.53432 0.41454 0.0
H631 H 0.57035 0.49202 0.43009 0.0
H632 H 0.51377 0.54786 0.47546 0.0
H633 H 0.54558 0.59062 0.45965 0.0
C634 C 0.68301 0.66107 0.52807 0.0
C635 C 0.66433 0.67185 0.55139 0.0
C636 C 0.67098 0.64802 0.49467 0.0
C637 C 0.64005 0.6458 0.48368 0.0
C638 C 0.62139 0.657 0.50655 0.0
C639 C 0.63338 0.66991 0.53998 0.0
C640 C 0.62701 0.63085 0.44932 0.0
C641 C 0.60776 0.60716 0.45634 0.0
C642 C 0.63391 0.63917 0.41029 0.0
C643 C 0.65314 0.66473 0.4005 0.0
C644 C 0.64633 0.69298 0.40806 0.0
C645 C 0.66476 0.71688 0.39918 0.0
C646 C 0.68995 0.71287 0.38244 0.0
C647 C 0.69671 0.68495 0.37442 0.0
C648 C 0.67838 0.66097 0.38329 0.0
C649 C 0.54356 0.56862 0.31192 0.0
C650 C 0.5611 0.5562 0.28863 0.0
C651 C 0.55677 0.58331 0.34312 0.0
C652 C 0.58782 0.58551 0.35212 0.0
C653 C 0.60537 0.57354 0.3285 0.0
C654 C 0.59215 0.55903 0.29706 0.0
C655 C 0.60192 0.60002 0.38643 0.0
C656 C 0.62144 0.62351 0.37945 0.0
C657 C 0.59536 0.59148 0.42559 0.0
C658 C 0.57639 0.56572 0.43559 0.0
C659 C 0.58327 0.53762 0.42761 0.0
C660 C 0.56503 0.51356 0.43649 0.0
C661 C 0.53998 0.51726 0.45366 0.0
C662 C 0.53317 0.54503 0.46212 0.0
C663 C 0.55131 0.56918 0.45324 0.0
H664 H 0.52588 0.49861 0.46049 0.0
H665 H 0.70419 0.73139 0.37559 0.0
H666 H 0.80436 0.17656 0.93078 0.0
H667 H 0.82402 0.16234 0.87414 0.0
H668 H 0.91247 0.15706 0.94397 0.0
H669 H 0.89338 0.17302 0.99928 0.0
H670 H 0.91615 0.18025 0.87248 0.0
H671 H 0.86681 0.09444 0.93016 0.0
H672 H 0.82468 0.06618 0.95244 0.0
H673 H 0.77553 0.08295 0.83212 0.0
H674 H 0.81727 0.11164 0.80923 0.0
H675 H 0.98975 0.07462 0.79168 0.0
H676 H 0.96098 0.09499 0.83503 0.0
H677 H 0.89402 0.12681 0.73265 0.0
H678 H 0.92345 0.108 0.68834 0.0
H679 H 0.87515 0.09351 0.81212 0.0
H680 H 0.92997 0.17661 0.75593 0.0
H681 H 0.97546 0.20061 0.73773 0.0
H682 H 0.01769 0.18414 0.86151 0.0
H683 H 0.97258 0.15959 0.88035 0.0
C684 C 0.82805 0.17286 0.93379 0.0
C685 C 0.8472 0.17557 0.9699 0.0
C686 C 0.83924 0.16435 0.90153 0.0
C687 C 0.86971 0.15801 0.90494 0.0
C688 C 0.88888 0.16163 0.9405 0.0
C689 C 0.87782 0.17045 0.97241 0.0
C690 C 0.88199 0.14725 0.87207 0.0
C691 C 0.90712 0.16122 0.85949 0.0
C692 C 0.87011 0.12267 0.85439 0.0
C693 C 0.84499 0.10549 0.8681 0.0
C694 C 0.84692 0.0923 0.90853 0.0
C695 C 0.82313 0.07617 0.92126 0.0
C696 C 0.7974 0.07286 0.89374 0.0
C697 C 0.79544 0.0856 0.85342 0.0
C698 C 0.81916 0.10179 0.84054 0.0
C699 C 0.9691 0.08618 0.77807 0.0
C700 C 0.95926 0.08991 0.73622 0.0
C701 C 0.95253 0.09754 0.80306 0.0
C702 C 0.92548 0.11244 0.78696 0.0
C703 C 0.91483 0.11523 0.74559 0.0
C704 C 0.93167 0.10431 0.72036 0.0
C705 C 0.90933 0.12627 0.81347 0.0
C706 C 0.88366 0.11284 0.8248 0.0
C707 C 0.92099 0.15096 0.83065 0.0
C708 C 0.948 0.16604 0.81947 0.0
C709 C 0.94905 0.17788 0.77921 0.0
C710 C 0.97474 0.19162 0.76879 0.0
C711 C 0.99948 0.19384 0.79843 0.0
C712 C 0.99853 0.18238 0.83858 0.0
C713 C 0.97289 0.16858 0.84914 0.0
H714 H 0.01936 0.20449 0.79031 0.0
H715 H 0.77901 0.06035 0.90365 0.0
H716 H 0.40848 0.3391 0.40776 0.0
H717 H 0.43146 0.36275 0.35171 0.0
H718 H 0.34686 0.3657 0.27266 0.0
H719 H 0.32337 0.34251 0.32914 0.0
H720 H 0.39515 0.34852 0.23869 0.0
H721 H 0.37007 0.42608 0.30736 0.0
H722 H 0.3695 0.45078 0.3662 0.0
H723 H 0.46474 0.45478 0.38576 0.0
H724 H 0.46592 0.42962 0.32743 0.0
H725 H 0.43066 0.47793 0.09576 0.0
H726 H 0.40721 0.44734 0.14685 0.0
H727 H 0.49309 0.41265 0.20784 0.0
H728 H 0.5165 0.44127 0.15489 0.0
H729 H 0.44371 0.44527 0.24943 0.0
H730 H 0.47028 0.36476 0.18675 0.0
H731 H 0.47296 0.33512 0.13337 0.0
H732 H 0.3777 0.33372 0.10623 0.0
H733 H 0.37447 0.36425 0.15865 0.0
C734 C 0.39465 0.34483 0.3785 0.0
C735 C 0.36392 0.33936 0.37314 0.0
C736 C 0.40789 0.35828 0.34646 0.0
C737 C 0.3908 0.36648 0.30818 0.0
C738 C 0.36043 0.35969 0.30206 0.0
C739 C 0.34706 0.34632 0.3343 0.0
C740 C 0.40468 0.38287 0.27505 0.0
C741 C 0.40537 0.36988 0.24075 0.0
C742 C 0.41877 0.41037 0.2783 0.0
C743 C 0.41809 0.42567 0.31325 0.0
C744 C 0.39091 0.43198 0.32442 0.0
C745 C 0.39047 0.4461 0.35765 0.0
C746 C 0.41707 0.45427 0.37978 0.0
C747 C 0.44416 0.44839 0.36864 0.0
C748 C 0.44472 0.43421 0.33548 0.0
C749 C 0.44446 0.46293 0.11907 0.0
C750 C 0.47533 0.46134 0.12035 0.0
C751 C 0.43105 0.44572 0.14854 0.0
C752 C 0.44837 0.42728 0.1806 0.0
C753 C 0.47929 0.4263 0.18283 0.0
C754 C 0.49262 0.44282 0.15267 0.0
C755 C 0.43427 0.41082 0.21325 0.0
C756 C 0.43337 0.42395 0.24734 0.0
C757 C 0.42033 0.38332 0.21003 0.0
C758 C 0.42215 0.36731 0.17612 0.0
C759 C 0.4499 0.35885 0.16871 0.0
C760 C 0.45153 0.34163 0.13887 0.0
C761 C 0.42553 0.33234 0.11666 0.0
C762 C 0.39783 0.34077 0.12366 0.0
C763 C 0.3961 0.35818 0.15326 0.0
H764 H 0.42683 0.31884 0.09375 0.0
H765 H 0.41668 0.46521 0.40549 0.0
H766 H 0.13044 0.86581 0.95922 0.0
H767 H 0.10505 0.89084 0.894 0.0
H768 H 0.18738 0.89356 0.84803 0.0
H769 H 0.21313 0.86895 0.91349 0.0
H770 H 0.11345 0.94474 0.85207 0.0
H771 H 0.16973 0.88564 0.74672 0.0
H772 H 0.19384 0.83768 0.74677 0.0
H773 H 0.14325 0.79535 0.83417 0.0
H774 H 0.11853 0.84295 0.83419 0.0
H775 H 0.077 0.01729 0.64622 0.0
H776 H 0.10338 0.99496 0.71289 0.0
H777 H 0.05416 0.91452 0.70339 0.0
H778 H 0.02768 0.9368 0.63741 0.0
H779 H 0.11231 0.90265 0.72696 0.0
H780 H 0.03824 0.96276 0.76255 0.0
H781 H 0.01098 0.0081 0.76657 0.0
H782 H 0.09177 0.04501 0.82099 0.0
H783 H 0.11963 1.00019 0.81657 0.0
C784 C 0.14326 0.87199 0.93541 0.0
C785 C 0.17387 0.86539 0.94167 0.0
C786 C 0.12867 0.88621 0.89808 0.0
C787 C 0.14427 0.89393 0.86609 0.0
C788 C 0.17482 0.88747 0.87216 0.0
C789 C 0.18948 0.8733 0.90956 0.0
C790 C 0.12844 0.90882 0.82648 0.0
C791 C 0.11331 0.93563 0.82465 0.0
C792 C 0.12806 0.89677 0.7908 0.0
C793 C 0.14261 0.86796 0.79086 0.0
C794 C 0.16373 0.86609 0.7659 0.0
C795 C 0.17748 0.83896 0.7659 0.0
C796 C 0.17018 0.81351 0.7906 0.0
C797 C 0.149 0.81511 0.81521 0.0
C798 C 0.13514 0.84217 0.81527 0.0
C799 C 0.07164 0.99498 0.65871 0.0
C800 C 0.05066 0.97856 0.63654 0.0
C801 C 0.08673 0.98223 0.69666 0.0
C802 C 0.08081 0.95302 0.71305 0.0
C803 C 0.05929 0.93698 0.69122 0.0
C804 C 0.04423 0.9497 0.6535 0.0
C805 C 0.09732 0.93867 0.7525 0.0
C806 C 0.11269 0.91196 0.75428 0.0
C807 C 0.09763 0.95067 0.7882 0.0
C808 C 0.08107 0.9782 0.78892 0.0
C809 C 0.05027 0.98071 0.77483 0.0
C810 C 0.0347 0.00628 0.77732 0.0
C811 C 0.04965 0.02932 0.7942 0.0
C812 C 0.08024 0.02709 0.80803 0.0
C813 C 0.09592 1.00164 0.80549 0.0
H814 H 0.03755 0.04884 0.79684 0.0
H815 H 0.18086 0.79254 0.79057 0.0
loop_
_geom_bond_atom_site_label_1
_geom_bond_atom_site_label_2
_geom_bond_distance
_geom_bond_site_symmetry_2
_ccdc_geom_bond_type
H0 C5 0.930 . S
H1 C8 0.930 . S
H2 C10 0.930 . S
H3 C4 1.016 . S
C4 H3 1.016 . S
C4 N11 1.286 . S
C5 H0 0.930 . S
C5 C6 1.397 . S
C5 C7 1.361 1_556 S
C6 C5 1.397 . S
C6 C10 1.390 1_556 S
C7 C5 1.361 1_554 S
C7 C8 1.393 . S
C7 N11 1.413 . S
C8 H1 0.930 . S
C8 C7 1.393 . S
C8 C9 1.399 . S
C9 C8 1.399 . S
C9 C10 1.381 . S
C10 H2 0.930 . S
C10 C6 1.390 1_554 S
C10 C9 1.381 . S
N11 C4 1.286 . S
N11 C7 1.413 . S
H12 C17 0.930 . S
H13 C20 0.930 . S
H14 C22 0.930 . S
H15 C16 1.016 . S
C16 H15 1.016 . S
C16 N23 1.286 . S
C17 H12 0.930 . S
C17 C18 1.397 . S
C17 C19 1.361 . S
C18 C17 1.397 . S
C18 C22 1.390 . S
C19 C17 1.361 . S
C19 C20 1.393 . S
C19 N23 1.413 . S
C20 H13 0.930 . S
C20 C19 1.393 . S
C20 C21 1.399 . S
C21 C20 1.399 . S
C21 C22 1.381 . S
C22 H14 0.930 . S
C22 C18 1.390 . S
C22 C21 1.381 . S
N23 C16 1.286 . S
N23 C19 1.413 . S
H24 C29 0.930 . S
H25 C32 0.930 . S
H26 C34 0.930 . S
H27 C28 1.016 . S
C28 H27 1.016 . S
C28 N35 1.286 . S
C29 H24 0.930 . S
C29 C30 1.397 . S
C29 C31 1.361 1_556 S
C30 C29 1.397 . S
C30 C34 1.390 1_556 S
C31 C29 1.361 1_554 S
C31 C32 1.393 . S
C31 N35 1.413 . S
C32 H25 0.930 . S
C32 C31 1.393 . S
C32 C33 1.399 . S
C33 C32 1.399 . S
C33 C34 1.381 . S
C34 H26 0.930 . S
C34 C30 1.390 1_554 S
C34 C33 1.381 . S
N35 C28 1.286 . S
N35 C31 1.413 . S
H36 C41 0.930 . S
H37 C44 0.930 . S
H38 C46 0.930 . S
H39 C40 1.016 . S
C40 H39 1.016 . S
C40 N47 1.286 . S
C41 H36 0.930 . S
C41 C42 1.397 . S
C41 C43 1.361 . S
C42 C41 1.397 . S
C42 C46 1.390 . S
C43 C41 1.361 . S
C43 C44 1.393 . S
C43 N47 1.413 . S
C44 H37 0.930 . S
C44 C43 1.393 . S
C44 C45 1.399 . S
C45 C44 1.399 . S
C45 C46 1.381 . S
C46 H38 0.930 . S
C46 C42 1.390 . S
C46 C45 1.381 . S
N47 C40 1.286 . S
N47 C43 1.413 . S
Tb48 N77 2.617 . S
Tb48 N83 2.572 . S
Tb48 O92 2.465 . S
Tb48 O93 2.387 . S
Tb48 O95 2.428 . S
Tb48 O96 2.308 1_565 S
Tb48 O100 2.349 1_465 S
Tb48 O103 2.393 1_455 S
Tb48 C112 2.802 . S
C49 N50 1.379 . S
C49 C52 1.416 . S
C49 C56 1.424 . S
N50 C49 1.379 . S
N50 C53 1.334 1_655 S
N50 Tb59 2.617 . S
C51 C53 1.390 . S
C51 C54 1.339 1_455 S
C51 H71 0.930 . S
C52 C49 1.416 . S
C52 C54 1.416 . S
C52 C58 1.448 . S
C53 N50 1.334 1_455 S
C53 C51 1.390 . S
C53 H64 0.930 . S
C54 C51 1.339 1_655 S
C54 C52 1.416 . S
C54 H75 0.930 . S
C55 C56 1.413 . S
C55 C57 1.427 . S
C55 C61 1.416 . S
C56 C49 1.424 . S
C56 C55 1.413 . S
C56 N60 1.361 . S
C57 C55 1.427 . S
C57 C58 1.328 . S
C57 H72 0.929 . S
C58 C52 1.448 . S
C58 C57 1.328 . S
C58 H73 0.930 . S
Tb59 N50 2.617 . S
Tb59 N60 2.572 . S
Tb59 O94 2.349 1_655 S
Tb59 O97 2.393 1_655 S
Tb59 O98 2.465 . S
Tb59 O99 2.387 . S
Tb59 O101 2.428 . S
Tb59 O102 2.308 1_545 S
Tb59 C123 2.802 . S
N60 C56 1.361 . S
N60 Tb59 2.572 . S
N60 C62 1.340 . S
C61 C55 1.416 . S
C61 C63 1.332 . S
C61 H69 0.931 . S
C62 N60 1.340 . S
C62 C63 1.407 . S
C62 H68 0.930 . S
C63 C61 1.332 . S
C63 C62 1.407 . S
C63 H65 0.929 . S
H64 C53 0.930 . S
H65 C63 0.929 . S
H66 C81 0.930 1_655 S
H67 C88 0.929 . S
H68 C62 0.930 . S
H69 C61 0.931 . S
H70 C84 0.930 . S
H71 C51 0.930 . S
H72 C57 0.929 . S
H73 C58 0.930 . S
H74 C79 0.930 1_655 S
H75 C54 0.930 . S
H76 C87 0.931 . S
N77 Tb48 2.617 . S
N77 C78 1.379 . S
N77 C81 1.334 . S
C78 N77 1.379 . S
C78 C80 1.416 . S
C78 C86 1.424 . S
C79 H74 0.930 1_455 S
C79 C81 1.390 . S
C79 C82 1.339 . S
C80 C78 1.416 . S
C80 C82 1.416 . S
C80 C113 1.448 . S
C81 H66 0.930 1_455 S
C81 N77 1.334 . S
C81 C79 1.390 . S
C82 C79 1.339 . S
C82 C80 1.416 . S
C82 H89 0.930 . S
N83 Tb48 2.572 . S
N83 C84 1.340 . S
N83 C86 1.361 . S
C84 H70 0.930 . S
C84 N83 1.340 . S
C84 C88 1.407 . S
C85 C86 1.413 . S
C85 C87 1.416 . S
C85 C114 1.427 . S
C86 C78 1.424 . S
C86 N83 1.361 . S
C86 C85 1.413 . S
C87 H76 0.931 . S
C87 C85 1.416 . S
C87 C88 1.332 . S
C88 H67 0.929 . S
C88 C84 1.407 . S
C88 C87 1.332 . S
H89 C82 0.930 . S
H90 C113 0.930 . S
H91 C114 0.929 . S
O92 Tb48 2.465 . S
O92 C112 1.264 . S
O93 Tb48 2.387 . S
O93 C104 1.264 . S
O94 Tb59 2.349 1_455 S
O94 C104 1.243 1_545 S
O95 Tb48 2.428 . S
O95 C112 1.256 . S
O96 Tb48 2.308 1_545 S
O96 C111 1.266 . S
O97 Tb59 2.393 1_455 S
O97 C111 1.248 . S
O98 Tb59 2.465 . S
O98 C123 1.264 . S
O99 Tb59 2.387 . S
O99 C115 1.264 . S
O100 Tb48 2.349 1_645 S
O100 C115 1.243 . S
O101 Tb59 2.428 . S
O101 C123 1.256 . S
O102 Tb59 2.308 1_565 S
O102 C122 1.266 . S
O103 Tb48 2.393 1_655 S
O103 C122 1.248 . S
C104 O93 1.264 . S
C104 O94 1.243 1_565 S
C105 C108 1.399 . S
C105 C110 1.383 . S
C105 C112 1.496 . S
C106 C107 1.399 . S
C106 C110 1.389 . S
C107 C106 1.399 . S
C107 C109 1.380 . S
C107 H124 0.929 . S
C108 C105 1.399 . S
C108 C109 1.392 . S
C108 H125 0.929 . S
C109 C107 1.380 . S
C109 C108 1.392 . S
C109 H126 0.929 . S
C110 C105 1.383 . S
C110 C106 1.389 . S
C110 H127 0.931 . S
C111 O96 1.266 . S
C111 O97 1.248 . S
C112 Tb48 2.802 . S
C112 O92 1.264 . S
C112 O95 1.256 . S
C112 C105 1.496 . S
C113 C80 1.448 . S
C113 H90 0.930 . S
C113 C114 1.328 . S
C114 C85 1.427 . S
C114 H91 0.929 . S
C114 C113 1.328 . S
C115 O99 1.264 . S
C115 O100 1.243 . S
C116 C119 1.399 . S
C116 C120 1.383 . S
C116 C123 1.496 . S
C117 C118 1.399 . S
C117 C120 1.389 . S
C118 C117 1.399 . S
C118 C121 1.380 . S
C118 H128 0.929 . S
C119 C116 1.399 . S
C119 C121 1.392 . S
C119 H129 0.929 . S
C120 C116 1.383 . S
C120 C117 1.389 . S
C120 H130 0.931 . S
C121 C118 1.380 . S
C121 C119 1.392 . S
C121 H131 0.929 . S
C122 O102 1.266 . S
C122 O103 1.248 . S
C123 Tb59 2.802 . S
C123 O98 1.264 . S
C123 O101 1.256 . S
C123 C116 1.496 . S
H124 C107 0.929 . S
H125 C108 0.929 . S
H126 C109 0.929 . S
H127 C110 0.931 . S
H128 C118 0.929 . S
H129 C119 0.929 . S
H130 C120 0.931 . S
H131 C121 0.929 . S
Tb132 N161 2.619 . S
Tb132 N167 2.572 1_556 S
Tb132 O176 2.465 . S
Tb132 O177 2.387 1_556 S
Tb132 O179 2.428 . S
Tb132 O180 2.308 1_556 S
Tb132 O184 2.349 . S
Tb132 O187 2.393 1_556 S
Tb132 C196 2.802 . S
C133 N134 1.379 . S
C133 C136 1.416 . S
C133 C140 1.424 . S
N134 C133 1.379 . S
N134 C137 1.334 . S
N134 Tb143 2.617 . S
C135 C137 1.390 . S
C135 C138 1.339 . S
C135 H155 0.930 . S
C136 C133 1.416 . S
C136 C138 1.416 . S
C136 C142 1.448 . S
C137 N134 1.334 . S
C137 C135 1.390 . S
C137 H148 0.930 . S
C138 C135 1.339 . S
C138 C136 1.416 . S
C138 H159 0.930 . S
C139 C140 1.413 . S
C139 C141 1.427 . S
C139 C145 1.416 . S
C140 C133 1.424 . S
C140 C139 1.413 . S
C140 N144 1.361 . S
C141 C139 1.427 . S
C141 C142 1.328 . S
C141 H156 0.929 . S
C142 C136 1.448 . S
C142 C141 1.328 . S
C142 H157 0.930 . S
Tb143 N134 2.617 . S
Tb143 N144 2.572 . S
Tb143 O178 2.349 . S
Tb143 O181 2.393 . S
Tb143 O182 2.465 . S
Tb143 O183 2.387 . S
Tb143 O185 2.428 . S
Tb143 O186 2.308 . S
Tb143 C207 2.802 . S
N144 C140 1.361 . S
N144 Tb143 2.572 . S
N144 C146 1.340 . S
C145 C139 1.416 . S
C145 C147 1.332 . S
C145 H153 0.931 . S
C146 N144 1.340 . S
C146 C147 1.407 . S
C146 H152 0.930 . S
C147 C145 1.332 . S
C147 C146 1.407 . S
C147 H149 0.929 . S
H148 C137 0.930 . S
H149 C147 0.929 . S
H150 C165 0.930 . S
H151 C172 0.929 . S
H152 C146 0.930 . S
H153 C145 0.931 . S
H154 C168 0.930 . S
H155 C135 0.930 . S
H156 C141 0.929 . S
H157 C142 0.930 . S
H158 C163 0.930 . S
H159 C138 0.930 . S
H160 C171 0.931 . S
N161 Tb132 2.619 . S
N161 C162 1.377 1_556 S
N161 C165 1.334 . S
C162 N161 1.377 1_554 S
C162 C164 1.416 . S
C162 C170 1.424 . S
C163 H158 0.930 . S
C163 C165 1.398 . S
C163 C166 1.332 1_556 S
C164 C162 1.416 . S
C164 C166 1.416 . S
C164 C197 1.448 . S
C165 H150 0.930 . S
C165 N161 1.334 . S
C165 C163 1.398 . S
C166 C163 1.332 1_554 S
C166 C164 1.416 . S
C166 H173 0.930 . S
N167 Tb132 2.572 1_554 S
N167 C168 1.340 . S
N167 C170 1.361 . S
C168 H154 0.930 . S
C168 N167 1.340 . S
C168 C172 1.407 . S
C169 C170 1.413 . S
C169 C171 1.416 . S
C169 C198 1.427 . S
C170 C162 1.424 . S
C170 N167 1.361 . S
C170 C169 1.413 . S
C171 H160 0.931 . S
C171 C169 1.416 . S
C171 C172 1.332 . S
C172 H151 0.929 . S
C172 C168 1.407 . S
C172 C171 1.332 . S
H173 C166 0.930 . S
H174 C197 0.930 . S
H175 C198 0.929 . S
O176 Tb132 2.465 . S
O176 C196 1.264 . S
O177 Tb132 2.387 1_554 S
O177 C188 1.264 . S
O178 Tb143 2.349 . S
O178 C188 1.243 . S
O179 Tb132 2.428 . S
O179 C196 1.256 . S
O180 Tb132 2.308 1_554 S
O180 C195 1.266 . S
O181 Tb143 2.393 . S
O181 C195 1.248 . S
O182 Tb143 2.465 . S
O182 C207 1.264 . S
O183 Tb143 2.387 . S
O183 C199 1.264 1_554 S
O184 Tb132 2.349 . S
O184 C199 1.243 . S
O185 Tb143 2.428 . S
O185 C207 1.256 . S
O186 Tb143 2.308 . S
O186 C206 1.266 . S
O187 Tb132 2.393 1_554 S
O187 C206 1.248 . S
C188 O177 1.264 . S
C188 O178 1.243 . S
C189 C192 1.399 . S
C189 C194 1.383 . S
C189 C196 1.496 . S
C190 C191 1.399 . S
C190 C194 1.389 . S
C191 C190 1.399 . S
C191 C193 1.380 . S
C191 H208 0.929 . S
C192 C189 1.399 . S
C192 C193 1.392 . S
C192 H209 0.929 . S
C193 C191 1.380 . S
C193 C192 1.392 . S
C193 H210 0.929 . S
C194 C189 1.383 . S
C194 C190 1.389 . S
C194 H211 0.931 . S
C195 O180 1.266 . S
C195 O181 1.248 . S
C196 Tb132 2.802 . S
C196 O176 1.264 . S
C196 O179 1.256 . S
C196 C189 1.496 . S
C197 C164 1.448 . S
C197 H174 0.930 . S
C197 C198 1.328 . S
C198 C169 1.427 . S
C198 H175 0.929 . S
C198 C197 1.328 . S
C199 O183 1.264 1_556 S
C199 O184 1.243 . S
C200 C203 1.399 . S
C200 C204 1.383 . S
C200 C207 1.496 . S
C201 C202 1.399 . S
C201 C204 1.389 . S
C202 C201 1.399 . S
C202 C205 1.380 . S
C202 H212 0.929 . S
C203 C200 1.399 . S
C203 C205 1.392 . S
C203 H213 0.929 . S
C204 C200 1.383 . S
C204 C201 1.389 . S
C204 H214 0.931 . S
C205 C202 1.380 . S
C205 C203 1.392 . S
C205 H215 0.929 . S
C206 O186 1.266 . S
C206 O187 1.248 . S
C207 Tb143 2.802 . S
C207 O182 1.264 . S
C207 O185 1.256 . S
C207 C200 1.496 . S
H208 C191 0.929 . S
H209 C192 0.929 . S
H210 C193 0.929 . S
H211 C194 0.931 . S
H212 C202 0.929 . S
H213 C203 0.929 . S
H214 C204 0.931 . S
H215 C205 0.929 . S
H216 C234 0.951 . S
H217 C236 0.951 . S
H218 C238 0.950 . S
H219 C239 0.950 . S
H220 C241 0.950 . S
H221 C244 0.950 . S
H222 C245 0.950 . S
H223 C247 0.950 . S
H224 C248 0.950 . S
H225 C249 0.951 . S
H226 C251 0.951 . S
H227 C253 0.950 . S
H228 C254 0.950 . S
H229 C256 0.950 . S
H230 C259 0.950 . S
H231 C260 0.950 . S
H232 C262 0.950 . S
H233 C263 0.950 . S
C234 H216 0.951 . S
C234 C235 1.366 . S
C234 C236 1.388 . S
C235 C234 1.366 . S
C235 C239 1.385 . S
C236 H217 0.951 . S
C236 C234 1.388 . S
C236 C237 1.366 . S
C237 C236 1.366 . S
C237 C238 1.414 . S
C237 C240 1.499 . S
C238 H218 0.950 . S
C238 C237 1.414 . S
C238 C239 1.374 . S
C239 H219 0.950 . S
C239 C235 1.385 . S
C239 C238 1.374 . S
C240 C237 1.499 . S
C240 C241 1.373 . S
C240 C242 1.389 . S
C241 H220 0.950 . S
C241 C240 1.373 . S
C241 C257 1.377 . S
C242 C240 1.389 . S
C242 C243 1.524 . S
C242 C256 1.377 . S
C243 C242 1.524 . S
C243 C244 1.397 . S
C243 C248 1.363 . S
C244 H221 0.950 . S
C244 C243 1.397 . S
C244 C245 1.334 . S
C245 H222 0.950 . S
C245 C244 1.334 . S
C245 C246 1.287 . S
C246 C245 1.287 . S
C246 C247 1.524 . S
C246 H265 0.913 . S
C247 H223 0.950 . S
C247 C246 1.524 . S
C247 C248 1.415 . S
C248 H224 0.950 . S
C248 C243 1.363 . S
C248 C247 1.415 . S
C249 H225 0.951 . S
C249 C250 1.366 . S
C249 C251 1.388 . S
C250 C249 1.366 . S
C250 C254 1.385 . S
C251 H226 0.951 . S
C251 C249 1.388 . S
C251 C252 1.366 . S
C252 C251 1.366 . S
C252 C253 1.414 . S
C252 C255 1.499 . S
C253 H227 0.950 . S
C253 C252 1.414 . S
C253 C254 1.374 . S
C254 H228 0.950 . S
C254 C250 1.385 . S
C254 C253 1.374 . S
C255 C252 1.499 . S
C255 C256 1.373 . S
C255 C257 1.389 . S
C256 H229 0.950 . S
C256 C242 1.377 . S
C256 C255 1.373 . S
C257 C241 1.377 . S
C257 C255 1.389 . S
C257 C258 1.524 . S
C258 C257 1.524 . S
C258 C259 1.397 . S
C258 C263 1.363 . S
C259 H230 0.950 . S
C259 C258 1.397 . S
C259 C260 1.334 . S
C260 H231 0.950 . S
C260 C259 1.334 . S
C260 C261 1.287 . S
C261 C260 1.287 . S
C261 C262 1.524 . S
C261 H264 0.999 . S
C262 H232 0.950 . S
C262 C261 1.524 . S
C262 C263 1.415 . S
C263 H233 0.950 . S
C263 C258 1.363 . S
C263 C262 1.415 . S
H264 C261 0.999 . S
H265 C246 0.913 . S
H266 C284 0.951 . S
H267 C286 0.951 . S
H268 C288 0.950 1_556 S
H269 C289 0.950 1_556 S
H270 C291 0.950 . S
H271 C294 0.950 . S
H272 C295 0.950 . S
H273 C297 0.950 . S
H274 C298 0.950 . S
H275 C299 0.951 1_556 S
H276 C301 0.951 1_556 S
H277 C303 0.950 . S
H278 C304 0.950 . S
H279 C306 0.950 . S
H280 C309 0.950 . S
H281 C310 0.950 . S
H282 C312 0.950 . S
H283 C313 0.950 . S
C284 H266 0.951 . S
C284 C285 1.366 . S
C284 C286 1.388 . S
C285 C284 1.366 . S
C285 C289 1.385 . S
C286 H267 0.951 . S
C286 C284 1.388 . S
C286 C287 1.366 . S
C287 C286 1.366 . S
C287 C288 1.414 . S
C287 C290 1.499 . S
C288 H268 0.950 1_554 S
C288 C287 1.414 . S
C288 C289 1.374 . S
C289 H269 0.950 1_554 S
C289 C285 1.385 . S
C289 C288 1.374 . S
C290 C287 1.499 . S
C290 C291 1.373 . S
C290 C292 1.389 . S
C291 H270 0.950 . S
C291 C290 1.373 . S
C291 C307 1.377 . S
C292 C290 1.389 . S
C292 C293 1.524 . S
C292 C306 1.377 . S
C293 C292 1.524 . S
C293 C294 1.397 . S
C293 C298 1.363 . S
C294 H271 0.950 . S
C294 C293 1.397 . S
C294 C295 1.334 . S
C295 H272 0.950 . S
C295 C294 1.334 . S
C295 C296 1.287 . S
C296 C295 1.287 . S
C296 C297 1.524 . S
C296 H315 0.913 . S
C297 H273 0.950 . S
C297 C296 1.524 . S
C297 C298 1.415 . S
C298 H274 0.950 . S
C298 C293 1.363 . S
C298 C297 1.415 . S
C299 H275 0.951 1_554 S
C299 C300 1.366 . S
C299 C301 1.388 . S
C300 C299 1.366 . S
C300 C304 1.385 . S
C301 H276 0.951 1_554 S
C301 C299 1.388 . S
C301 C302 1.366 . S
C302 C301 1.366 . S
C302 C303 1.414 . S
C302 C305 1.499 . S
C303 H277 0.950 . S
C303 C302 1.414 . S
C303 C304 1.374 . S
C304 H278 0.950 . S
C304 C300 1.385 . S
C304 C303 1.374 . S
C305 C302 1.499 . S
C305 C306 1.373 . S
C305 C307 1.389 . S
C306 H279 0.950 . S
C306 C292 1.377 . S
C306 C305 1.373 . S
C307 C291 1.377 . S
C307 C305 1.389 . S
C307 C308 1.524 . S
C308 C307 1.524 . S
C308 C309 1.397 . S
C308 C313 1.363 1_554 S
C309 H280 0.950 . S
C309 C308 1.397 . S
C309 C310 1.334 . S
C310 H281 0.950 . S
C310 C309 1.334 . S
C310 C311 1.287 . S
C311 C310 1.287 . S
C311 C312 1.524 1_554 S
C311 H314 0.999 . S
C312 H282 0.950 . S
C312 C311 1.524 1_556 S
C312 C313 1.415 . S
C313 H283 0.950 . S
C313 C308 1.363 1_556 S
C313 C312 1.415 . S
H314 C311 0.999 . S
H315 C296 0.913 . S
H316 C334 0.951 . S
H317 C336 0.951 . S
H318 C338 0.950 . S
H319 C339 0.950 . S
H320 C341 0.950 . S
H321 C344 0.950 . S
H322 C345 0.950 . S
H323 C347 0.950 . S
H324 C348 0.950 . S
H325 C349 0.951 . S
H326 C351 0.951 . S
H327 C353 0.950 . S
H328 C354 0.950 . S
H329 C356 0.950 . S
H330 C359 0.950 . S
H331 C360 0.950 . S
H332 C362 0.950 . S
H333 C363 0.950 . S
C334 H316 0.951 . S
C334 C335 1.366 . S
C334 C336 1.388 . S
C335 C334 1.366 . S
C335 C339 1.385 . S
C336 H317 0.951 . S
C336 C334 1.388 . S
C336 C337 1.366 . S
C337 C336 1.366 . S
C337 C338 1.414 . S
C337 C340 1.499 . S
C338 H318 0.950 . S
C338 C337 1.414 . S
C338 C339 1.374 . S
C339 H319 0.950 . S
C339 C335 1.385 . S
C339 C338 1.374 . S
C340 C337 1.499 . S
C340 C341 1.373 . S
C340 C342 1.389 . S
C341 H320 0.950 . S
C341 C340 1.373 . S
C341 C357 1.377 . S
C342 C340 1.389 . S
C342 C343 1.524 . S
C342 C356 1.377 . S
C343 C342 1.524 . S
C343 C344 1.397 . S
C343 C348 1.363 . S
C344 H321 0.950 . S
C344 C343 1.397 . S
C344 C345 1.334 . S
C345 H322 0.950 . S
C345 C344 1.334 . S
C345 C346 1.287 . S
C346 C345 1.287 . S
C346 C347 1.524 . S
C346 H365 0.913 . S
C347 H323 0.950 . S
C347 C346 1.524 . S
C347 C348 1.415 . S
C348 H324 0.950 . S
C348 C343 1.363 . S
C348 C347 1.415 . S
C349 H325 0.951 . S
C349 C350 1.366 . S
C349 C351 1.388 . S
C350 C349 1.366 . S
C350 C354 1.385 . S
C351 H326 0.951 . S
C351 C349 1.388 . S
C351 C352 1.366 . S
C352 C351 1.366 . S
C352 C353 1.414 . S
C352 C355 1.499 . S
C353 H327 0.950 . S
C353 C352 1.414 . S
C353 C354 1.374 . S
C354 H328 0.950 . S
C354 C350 1.385 . S
C354 C353 1.374 . S
C355 C352 1.499 . S
C355 C356 1.373 . S
C355 C357 1.389 . S
C356 H329 0.950 . S
C356 C342 1.377 . S
C356 C355 1.373 . S
C357 C341 1.377 . S
C357 C355 1.389 . S
C357 C358 1.524 . S
C358 C357 1.524 . S
C358 C359 1.397 . S
C358 C363 1.363 . S
C359 H330 0.950 . S
C359 C358 1.397 . S
C359 C360 1.334 . S
C360 H331 0.950 . S
C360 C359 1.334 . S
C360 C361 1.287 . S
C361 C360 1.287 . S
C361 C362 1.524 . S
C361 H364 0.999 . S
C362 H332 0.950 . S
C362 C361 1.524 . S
C362 C363 1.415 . S
C363 H333 0.950 . S
C363 C358 1.363 . S
C363 C362 1.415 . S
H364 C361 0.999 . S
H365 C346 0.913 . S
H366 C384 0.951 . S
H367 C386 0.951 . S
H368 C388 0.950 . S
H369 C389 0.950 . S
H370 C391 0.950 1_556 S
H371 C394 0.950 . S
H372 C395 0.950 . S
H373 C397 0.950 . S
H374 C398 0.950 . S
H375 C399 0.951 . S
H376 C401 0.951 . S
H377 C403 0.950 . S
H378 C404 0.950 . S
H379 C406 0.950 . S
H380 C409 0.950 . S
H381 C410 0.950 1_554 S
H382 C412 0.950 . S
H383 C413 0.950 . S
C384 H366 0.951 . S
C384 C385 1.366 . S
C384 C386 1.388 . S
C385 C384 1.366 . S
C385 C389 1.385 1_554 S
C386 H367 0.951 . S
C386 C384 1.388 . S
C386 C387 1.366 . S
C387 C386 1.366 . S
C387 C388 1.414 1_554 S
C387 C390 1.499 . S
C388 H368 0.950 . S
C388 C387 1.414 1_556 S
C388 C389 1.374 . S
C389 H369 0.950 . S
C389 C385 1.385 1_556 S
C389 C388 1.374 . S
C390 C387 1.499 . S
C390 C391 1.373 . S
C390 C392 1.389 . S
C391 H370 0.950 1_554 S
C391 C390 1.373 . S
C391 C407 1.377 . S
C392 C390 1.389 . S
C392 C393 1.524 . S
C392 C406 1.377 . S
C393 C392 1.524 . S
C393 C394 1.397 . S
C393 C398 1.363 . S
C394 H371 0.950 . S
C394 C393 1.397 . S
C394 C395 1.334 . S
C395 H372 0.950 . S
C395 C394 1.334 . S
C395 C396 1.287 . S
C396 C395 1.287 . S
C396 C397 1.524 . S
C396 H415 0.913 . S
C397 H373 0.950 . S
C397 C396 1.524 . S
C397 C398 1.415 . S
C398 H374 0.950 . S
C398 C393 1.363 . S
C398 C397 1.415 . S
C399 H375 0.951 . S
C399 C400 1.366 1_556 S
C399 C401 1.388 . S
C400 C399 1.366 1_554 S
C400 C404 1.385 . S
C401 H376 0.951 . S
C401 C399 1.388 . S
C401 C402 1.366 1_556 S
C402 C401 1.366 1_554 S
C402 C403 1.414 . S
C402 C405 1.499 . S
C403 H377 0.950 . S
C403 C402 1.414 . S
C403 C404 1.374 . S
C404 H378 0.950 . S
C404 C400 1.385 . S
C404 C403 1.374 . S
C405 C402 1.499 . S
C405 C406 1.373 . S
C405 C407 1.389 . S
C406 H379 0.950 . S
C406 C392 1.377 . S
C406 C405 1.373 . S
C407 C391 1.377 . S
C407 C405 1.389 . S
C407 C408 1.524 1_554 S
C408 C407 1.524 1_556 S
C408 C409 1.397 1_556 S
C408 C413 1.363 . S
C409 H380 0.950 . S
C409 C408 1.397 1_554 S
C409 C410 1.334 1_554 S
C410 H381 0.950 1_556 S
C410 C409 1.334 1_556 S
C410 C411 1.287 . S
C411 C410 1.287 . S
C411 C412 1.524 . S
C411 H414 0.999 . S
C412 H382 0.950 . S
C412 C411 1.524 . S
C412 C413 1.415 . S
C413 H383 0.950 . S
C413 C408 1.363 . S
C413 C412 1.415 . S
H414 C411 0.999 . S
H415 C396 0.913 . S
H416 C434 0.951 . S
H417 C436 0.951 . S
H418 C438 0.950 . S
H419 C439 0.950 . S
H420 C441 0.950 . S
H421 C444 0.950 . S
H422 C445 0.950 . S
H423 C447 0.950 . S
H424 C448 0.950 . S
H425 C449 0.966 . S
H426 C451 0.951 . S
H427 C453 0.950 . S
H428 C454 0.950 . S
H429 C456 0.950 . S
H430 C459 0.950 . S
H431 C460 0.950 . S
H432 C462 0.950 . S
H433 C463 0.950 . S
C434 H416 0.951 . S
C434 C435 1.366 . S
C434 C436 1.388 . S
C435 C434 1.366 . S
C435 C439 1.385 . S
C436 H417 0.951 . S
C436 C434 1.388 . S
C436 C437 1.366 . S
C437 C436 1.366 . S
C437 C438 1.414 . S
C437 C440 1.499 . S
C438 H418 0.950 . S
C438 C437 1.414 . S
C438 C439 1.374 . S
C439 H419 0.950 . S
C439 C435 1.385 . S
C439 C438 1.374 . S
C440 C437 1.499 . S
C440 C441 1.373 . S
C440 C442 1.389 . S
C441 H420 0.950 . S
C441 C440 1.373 . S
C441 C457 1.377 . S
C442 C440 1.389 . S
C442 C443 1.524 . S
C442 C456 1.377 . S
C443 C442 1.524 . S
C443 C444 1.397 . S
C443 C448 1.363 . S
C444 H421 0.950 . S
C444 C443 1.397 . S
C444 C445 1.334 . S
C445 H422 0.950 . S
C445 C444 1.334 . S
C445 C446 1.287 . S
C446 C445 1.287 . S
C446 C447 1.524 . S
C446 H465 0.913 . S
C447 H423 0.950 . S
C447 C446 1.524 . S
C447 C448 1.415 . S
C448 H424 0.950 . S
C448 C443 1.363 . S
C448 C447 1.415 . S
C449 H425 0.966 . S
C449 C450 1.366 . S
C449 C451 1.388 . S
C450 C449 1.366 . S
C450 C454 1.385 . S
C451 H426 0.951 . S
C451 C449 1.388 . S
C451 C452 1.366 . S
C452 C451 1.366 . S
C452 C453 1.414 . S
C452 C455 1.499 . S
C453 H427 0.950 . S
C453 C452 1.414 . S
C453 C454 1.374 . S
C454 H428 0.950 . S
C454 C450 1.385 . S
C454 C453 1.374 . S
C455 C452 1.499 . S
C455 C456 1.373 . S
C455 C457 1.389 . S
C456 H429 0.950 . S
C456 C442 1.377 . S
C456 C455 1.373 . S
C457 C441 1.377 . S
C457 C455 1.389 . S
C457 C458 1.524 . S
C458 C457 1.524 . S
C458 C459 1.397 . S
C458 C463 1.363 . S
C459 H430 0.950 . S
C459 C458 1.397 . S
C459 C460 1.334 . S
C460 H431 0.950 . S
C460 C459 1.334 . S
C460 C461 1.287 . S
C461 C460 1.287 . S
C461 C462 1.524 1_565 S
C461 H464 0.999 1_565 S
C462 H432 0.950 . S
C462 C461 1.524 1_545 S
C462 C463 1.415 1_545 S
C463 H433 0.950 . S
C463 C458 1.363 . S
C463 C462 1.415 1_565 S
H464 C461 0.999 1_545 S
H465 C446 0.913 . S
H466 C484 0.951 . S
H467 C486 0.951 . S
H468 C488 0.950 . S
H469 C489 0.950 . S
H470 C491 0.950 . S
H471 C494 0.950 . S
H472 C495 0.950 . S
H473 C497 0.950 . S
H474 C498 0.950 . S
H475 C499 0.951 . S
H476 C501 0.951 . S
H477 C503 0.950 . S
H478 C504 0.950 . S
H479 C506 0.950 . S
H480 C509 0.950 . S
H481 C510 0.950 . S
H482 C512 0.950 . S
H483 C513 0.950 . S
C484 H466 0.951 . S
C484 C485 1.366 . S
C484 C486 1.388 . S
C485 C484 1.366 . S
C485 C489 1.385 . S
C486 H467 0.951 . S
C486 C484 1.388 . S
C486 C487 1.366 . S
C487 C486 1.366 . S
C487 C488 1.414 . S
C487 C490 1.499 . S
C488 H468 0.950 . S
C488 C487 1.414 . S
C488 C489 1.374 . S
C489 H469 0.950 . S
C489 C485 1.385 . S
C489 C488 1.374 . S
C490 C487 1.499 . S
C490 C491 1.373 . S
C490 C492 1.389 . S
C491 H470 0.950 . S
C491 C490 1.373 . S
C491 C507 1.377 . S
C492 C490 1.389 . S
C492 C493 1.524 . S
C492 C506 1.377 . S
C493 C492 1.524 . S
C493 C494 1.397 . S
C493 C498 1.363 . S
C494 H471 0.950 . S
C494 C493 1.397 . S
C494 C495 1.334 . S
C495 H472 0.950 . S
C495 C494 1.334 . S
C495 C496 1.287 . S
C496 C495 1.287 . S
C496 C497 1.524 . S
C496 H515 0.913 . S
C497 H473 0.950 . S
C497 C496 1.524 . S
C497 C498 1.415 . S
C498 H474 0.950 . S
C498 C493 1.363 . S
C498 C497 1.415 . S
C499 H475 0.951 . S
C499 C500 1.366 . S
C499 C501 1.388 . S
C500 C499 1.366 . S
C500 C504 1.385 . S
C501 H476 0.951 . S
C501 C499 1.388 . S
C501 C502 1.366 . S
C502 C501 1.366 . S
C502 C503 1.414 . S
C502 C505 1.499 . S
C503 H477 0.950 . S
C503 C502 1.414 . S
C503 C504 1.374 . S
C504 H478 0.950 . S
C504 C500 1.385 . S
C504 C503 1.374 . S
C505 C502 1.499 . S
C505 C506 1.373 . S
C505 C507 1.389 . S
C506 H479 0.950 . S
C506 C492 1.377 . S
C506 C505 1.373 . S
C507 C491 1.377 . S
C507 C505 1.389 . S
C507 C508 1.524 . S
C508 C507 1.524 . S
C508 C509 1.397 . S
C508 C513 1.363 . S
C509 H480 0.950 . S
C509 C508 1.397 . S
C509 C510 1.334 . S
C510 H481 0.950 . S
C510 C509 1.334 . S
C510 C511 1.287 . S
C511 C510 1.287 . S
C511 C512 1.524 . S
C511 H514 0.999 . S
C512 H482 0.950 . S
C512 C511 1.524 . S
C512 C513 1.415 . S
C513 H483 0.950 . S
C513 C508 1.363 . S
C513 C512 1.415 . S
H514 C511 0.999 . S
H515 C496 0.913 . S
H516 C534 0.951 . S
H517 C536 0.951 . S
H518 C538 0.950 . S
H519 C539 0.950 . S
H520 C541 0.950 . S
H521 C544 0.950 . S
H522 C545 0.950 . S
H523 C547 0.950 . S
H524 C548 0.950 . S
H525 C549 0.951 . S
H526 C551 0.951 . S
H527 C553 0.950 . S
H528 C554 0.950 . S
H529 C556 0.950 . S
H530 C559 0.950 . S
H531 C560 0.950 . S
H532 C562 0.950 . S
H533 C563 0.950 . S
C534 H516 0.951 . S
C534 C535 1.366 . S
C534 C536 1.388 . S
C535 C534 1.366 . S
C535 C539 1.385 . S
C536 H517 0.951 . S
C536 C534 1.388 . S
C536 C537 1.366 . S
C537 C536 1.366 . S
C537 C538 1.414 . S
C537 C540 1.499 . S
C538 H518 0.950 . S
C538 C537 1.414 . S
C538 C539 1.374 . S
C539 H519 0.950 . S
C539 C535 1.385 . S
C539 C538 1.374 . S
C540 C537 1.499 . S
C540 C541 1.373 . S
C540 C542 1.389 . S
C541 H520 0.950 . S
C541 C540 1.373 . S
C541 C557 1.377 . S
C542 C540 1.389 . S
C542 C543 1.524 . S
C542 C556 1.377 . S
C543 C542 1.524 . S
C543 C544 1.397 . S
C543 C548 1.363 . S
C544 H521 0.950 . S
C544 C543 1.397 . S
C544 C545 1.334 . S
C545 H522 0.950 . S
C545 C544 1.334 . S
C545 C546 1.287 . S
C546 C545 1.287 . S
C546 C547 1.524 . S
C546 H565 0.913 . S
C547 H523 0.950 . S
C547 C546 1.524 . S
C547 C548 1.415 . S
C548 H524 0.950 . S
C548 C543 1.363 . S
C548 C547 1.415 . S
C549 H525 0.951 . S
C549 C550 1.366 . S
C549 C551 1.388 . S
C550 C549 1.366 . S
C550 C554 1.385 . S
C551 H526 0.951 . S
C551 C549 1.388 . S
C551 C552 1.366 . S
C552 C551 1.366 . S
C552 C553 1.414 . S
C552 C555 1.499 . S
C553 H527 0.950 . S
C553 C552 1.414 . S
C553 C554 1.374 . S
C554 H528 0.950 . S
C554 C550 1.385 . S
C554 C553 1.374 . S
C555 C552 1.499 . S
C555 C556 1.373 . S
C555 C557 1.389 . S
C556 H529 0.950 . S
C556 C542 1.377 . S
C556 C555 1.373 . S
C557 C541 1.377 . S
C557 C555 1.389 . S
C557 C558 1.524 . S
C558 C557 1.524 . S
C558 C559 1.397 . S
C558 C563 1.363 . S
C559 H530 0.950 . S
C559 C558 1.397 . S
C559 C560 1.334 1_545 S
C560 H531 0.950 . S
C560 C559 1.334 1_565 S
C560 C561 1.287 . S
C561 C560 1.287 . S
C561 C562 1.524 1_565 S
C561 H564 0.999 . S
C562 H532 0.950 . S
C562 C561 1.524 1_545 S
C562 C563 1.415 . S
C563 H533 0.950 . S
C563 C558 1.363 . S
C563 C562 1.415 . S
H564 C561 0.999 . S
H565 C546 0.913 . S
H566 C584 0.951 . S
H567 C586 0.951 . S
H568 C588 0.950 . S
H569 C589 0.950 . S
H570 C591 0.950 . S
H571 C594 0.950 . S
H572 C595 0.950 . S
H573 C597 0.950 . S
H574 C598 0.950 . S
H575 C599 0.951 . S
H576 C601 0.951 . S
H577 C603 0.950 . S
H578 C604 0.950 . S
H579 C606 0.950 . S
H580 C609 0.950 . S
H581 C610 0.950 . S
H582 C612 0.950 . S
H583 C613 0.950 . S
C584 H566 0.951 . S
C584 C585 1.366 . S
C584 C586 1.388 . S
C585 C584 1.366 . S
C585 C589 1.385 . S
C586 H567 0.951 . S
C586 C584 1.388 . S
C586 C587 1.366 . S
C587 C586 1.366 . S
C587 C588 1.414 . S
C587 C590 1.499 . S
C588 H568 0.950 . S
C588 C587 1.414 . S
C588 C589 1.374 . S
C589 H569 0.950 . S
C589 C585 1.385 . S
C589 C588 1.374 . S
C590 C587 1.499 . S
C590 C591 1.373 . S
C590 C592 1.389 . S
C591 H570 0.950 . S
C591 C590 1.373 . S
C591 C607 1.377 . S
C592 C590 1.389 . S
C592 C593 1.524 . S
C592 C606 1.377 . S
C593 C592 1.524 . S
C593 C594 1.397 . S
C593 C598 1.363 . S
C594 H571 0.950 . S
C594 C593 1.397 . S
C594 C595 1.334 . S
C595 H572 0.950 . S
C595 C594 1.334 . S
C595 C596 1.287 . S
C596 C595 1.287 . S
C596 C597 1.524 . S
C596 H615 0.913 . S
C597 H573 0.950 . S
C597 C596 1.524 . S
C597 C598 1.415 . S
C598 H574 0.950 . S
C598 C593 1.363 . S
C598 C597 1.415 . S
C599 H575 0.951 . S
C599 C600 1.366 . S
C599 C601 1.388 . S
C600 C599 1.366 . S
C600 C604 1.385 . S
C601 H576 0.951 . S
C601 C599 1.388 . S
C601 C602 1.366 . S
C602 C601 1.366 . S
C602 C603 1.414 . S
C602 C605 1.499 . S
C603 H577 0.950 . S
C603 C602 1.414 . S
C603 C604 1.374 . S
C604 H578 0.950 . S
C604 C600 1.385 . S
C604 C603 1.374 . S
C605 C602 1.499 . S
C605 C606 1.373 . S
C605 C607 1.389 . S
C606 H579 0.950 . S
C606 C592 1.377 . S
C606 C605 1.373 . S
C607 C591 1.377 . S
C607 C605 1.389 . S
C607 C608 1.524 . S
C608 C607 1.524 . S
C608 C609 1.397 . S
C608 C613 1.363 . S
C609 H580 0.950 . S
C609 C608 1.397 . S
C609 C610 1.334 . S
C610 H581 0.950 . S
C610 C609 1.334 . S
C610 C611 1.287 . S
C611 C610 1.287 . S
C611 C612 1.524 . S
C611 H614 0.999 . S
C612 H582 0.950 . S
C612 C611 1.524 . S
C612 C613 1.415 . S
C613 H583 0.950 . S
C613 C608 1.363 . S
C613 C612 1.415 . S
H614 C611 0.999 . S
H615 C596 0.913 . S
H616 C634 0.951 . S
H617 C636 0.951 . S
H618 C638 0.950 . S
H619 C639 0.950 . S
H620 C641 0.950 . S
H621 C644 0.950 . S
H622 C645 0.950 . S
H623 C647 0.950 . S
H624 C648 0.950 . S
H625 C649 0.951 . S
H626 C651 0.951 . S
H627 C653 0.950 . S
H628 C654 0.950 . S
H629 C656 0.950 . S
H630 C659 0.950 . S
H631 C660 0.950 . S
H632 C662 0.950 . S
H633 C663 0.950 . S
C634 H616 0.951 . S
C634 C635 1.366 . S
C634 C636 1.388 . S
C635 C634 1.366 . S
C635 C639 1.385 . S
C636 H617 0.951 . S
C636 C634 1.388 . S
C636 C637 1.366 . S
C637 C636 1.366 . S
C637 C638 1.414 . S
C637 C640 1.499 . S
C638 H618 0.950 . S
C638 C637 1.414 . S
C638 C639 1.374 . S
C639 H619 0.950 . S
C639 C635 1.385 . S
C639 C638 1.374 . S
C640 C637 1.499 . S
C640 C641 1.373 . S
C640 C642 1.389 . S
C641 H620 0.950 . S
C641 C640 1.373 . S
C641 C657 1.377 . S
C642 C640 1.389 . S
C642 C643 1.524 . S
C642 C656 1.377 . S
C643 C642 1.524 . S
C643 C644 1.397 . S
C643 C648 1.363 . S
C644 H621 0.950 . S
C644 C643 1.397 . S
C644 C645 1.334 . S
C645 H622 0.950 . S
C645 C644 1.334 . S
C645 C646 1.287 . S
C646 C645 1.287 . S
C646 C647 1.524 . S
C646 H665 0.913 . S
C647 H623 0.950 . S
C647 C646 1.524 . S
C647 C648 1.415 . S
C648 H624 0.950 . S
C648 C643 1.363 . S
C648 C647 1.415 . S
C649 H625 0.951 . S
C649 C650 1.366 . S
C649 C651 1.388 . S
C650 C649 1.366 . S
C650 C654 1.385 . S
C651 H626 0.951 . S
C651 C649 1.388 . S
C651 C652 1.366 . S
C652 C651 1.366 . S
C652 C653 1.414 . S
C652 C655 1.499 . S
C653 H627 0.950 . S
C653 C652 1.414 . S
C653 C654 1.374 . S
C654 H628 0.950 . S
C654 C650 1.385 . S
C654 C653 1.374 . S
C655 C652 1.499 . S
C655 C656 1.373 . S
C655 C657 1.389 . S
C656 H629 0.950 . S
C656 C642 1.377 . S
C656 C655 1.373 . S
C657 C641 1.377 . S
C657 C655 1.389 . S
C657 C658 1.524 . S
C658 C657 1.524 . S
C658 C659 1.397 . S
C658 C663 1.363 . S
C659 H630 0.950 . S
C659 C658 1.397 . S
C659 C660 1.334 . S
C660 H631 0.950 . S
C660 C659 1.334 . S
C660 C661 1.287 . S
C661 C660 1.287 . S
C661 C662 1.524 . S
C661 H664 0.999 . S
C662 H632 0.950 . S
C662 C661 1.524 . S
C662 C663 1.415 . S
C663 H633 0.950 . S
C663 C658 1.363 . S
C663 C662 1.415 . S
H664 C661 0.999 . S
H665 C646 0.913 . S
H666 C684 0.951 . S
H667 C686 0.951 . S
H668 C688 0.950 . S
H669 C689 0.950 . S
H670 C691 0.950 . S
H671 C694 0.950 . S
H672 C695 0.950 . S
H673 C697 0.950 1_565 S
H674 C698 0.950 . S
H675 C699 0.951 . S
H676 C701 0.951 . S
H677 C703 0.950 . S
H678 C704 0.950 . S
H679 C706 0.950 . S
H680 C709 0.950 . S
H681 C710 0.950 . S
H682 C712 0.950 . S
H683 C713 0.950 . S
C684 H666 0.951 . S
C684 C685 1.366 . S
C684 C686 1.388 . S
C685 C684 1.366 . S
C685 C689 1.385 . S
C686 H667 0.951 . S
C686 C684 1.388 . S
C686 C687 1.366 . S
C687 C686 1.366 . S
C687 C688 1.414 . S
C687 C690 1.499 . S
C688 H668 0.950 . S
C688 C687 1.414 . S
C688 C689 1.374 . S
C689 H669 0.950 . S
C689 C685 1.385 . S
C689 C688 1.374 . S
C690 C687 1.499 . S
C690 C691 1.373 . S
C690 C692 1.389 . S
C691 H670 0.950 . S
C691 C690 1.373 . S
C691 C707 1.377 . S
C692 C690 1.389 . S
C692 C693 1.524 . S
C692 C706 1.377 . S
C693 C692 1.524 . S
C693 C694 1.397 . S
C693 C698 1.363 . S
C694 H671 0.950 . S
C694 C693 1.397 . S
C694 C695 1.334 . S
C695 H672 0.950 . S
C695 C694 1.334 . S
C695 C696 1.287 . S
C696 C695 1.287 . S
C696 C697 1.524 . S
C696 H715 0.913 1_545 S
C697 H673 0.950 1_545 S
C697 C696 1.524 . S
C697 C698 1.415 . S
C698 H674 0.950 . S
C698 C693 1.363 . S
C698 C697 1.415 . S
C699 H675 0.951 . S
C699 C700 1.366 . S
C699 C701 1.388 . S
C700 C699 1.366 . S
C700 C704 1.385 . S
C701 H676 0.951 . S
C701 C699 1.388 . S
C701 C702 1.366 . S
C702 C701 1.366 . S
C702 C703 1.414 . S
C702 C705 1.499 . S
C703 H677 0.950 . S
C703 C702 1.414 . S
C703 C704 1.374 . S
C704 H678 0.950 . S
C704 C700 1.385 . S
C704 C703 1.374 . S
C705 C702 1.499 . S
C705 C706 1.373 . S
C705 C707 1.389 . S
C706 H679 0.950 . S
C706 C692 1.377 . S
C706 C705 1.373 . S
C707 C691 1.377 . S
C707 C705 1.389 . S
C707 C708 1.524 . S
C708 C707 1.524 . S
C708 C709 1.397 . S
C708 C713 1.363 . S
C709 H680 0.950 . S
C709 C708 1.397 . S
C709 C710 1.334 . S
C710 H681 0.950 . S
C710 C709 1.334 . S
C710 C711 1.287 . S
C711 C710 1.287 . S
C711 C712 1.524 . S
C711 H714 0.999 . S
C712 H682 0.950 . S
C712 C711 1.524 . S
C712 C713 1.415 . S
C713 H683 0.950 . S
C713 C708 1.363 . S
C713 C712 1.415 . S
H714 C711 0.999 . S
H715 C696 0.913 1_565 S
H716 C734 0.951 . S
H717 C736 0.951 . S
H718 C738 0.950 . S
H719 C739 0.950 . S
H720 C741 0.950 . S
H721 C744 0.950 . S
H722 C745 0.950 . S
H723 C747 0.950 . S
H724 C748 0.950 . S
H725 C749 0.951 . S
H726 C751 0.951 . S
H727 C753 0.950 . S
H728 C754 0.950 . S
H729 C756 0.950 . S
H730 C759 0.950 . S
H731 C760 0.950 . S
H732 C762 0.950 . S
H733 C763 0.950 . S
C734 H716 0.951 . S
C734 C735 1.366 . S
C734 C736 1.388 . S
C735 C734 1.366 . S
C735 C739 1.385 . S
C736 H717 0.951 . S
C736 C734 1.388 . S
C736 C737 1.366 . S
C737 C736 1.366 . S
C737 C738 1.414 . S
C737 C740 1.499 . S
C738 H718 0.950 . S
C738 C737 1.414 . S
C738 C739 1.374 . S
C739 H719 0.950 . S
C739 C735 1.385 . S
C739 C738 1.374 . S
C740 C737 1.499 . S
C740 C741 1.373 . S
C740 C742 1.389 . S
C741 H720 0.950 . S
C741 C740 1.373 . S
C741 C757 1.377 . S
C742 C740 1.389 . S
C742 C743 1.524 . S
C742 C756 1.377 . S
C743 C742 1.524 . S
C743 C744 1.397 . S
C743 C748 1.363 . S
C744 H721 0.950 . S
C744 C743 1.397 . S
C744 C745 1.334 . S
C745 H722 0.950 . S
C745 C744 1.334 . S
C745 C746 1.287 . S
C746 C745 1.287 . S
C746 C747 1.524 . S
C746 H765 0.913 . S
C747 H723 0.950 . S
C747 C746 1.524 . S
C747 C748 1.415 . S
C748 H724 0.950 . S
C748 C743 1.363 . S
C748 C747 1.415 . S
C749 H725 0.951 . S
C749 C750 1.366 . S
C749 C751 1.388 . S
C750 C749 1.366 . S
C750 C754 1.385 . S
C751 H726 0.951 . S
C751 C749 1.388 . S
C751 C752 1.366 . S
C752 C751 1.366 . S
C752 C753 1.414 . S
C752 C755 1.499 . S
C753 H727 0.950 . S
C753 C752 1.414 . S
C753 C754 1.374 . S
C754 H728 0.950 . S
C754 C750 1.385 . S
C754 C753 1.374 . S
C755 C752 1.499 . S
C755 C756 1.373 . S
C755 C757 1.389 . S
C756 H729 0.950 . S
C756 C742 1.377 . S
C756 C755 1.373 . S
C757 C741 1.377 . S
C757 C755 1.389 . S
C757 C758 1.524 . S
C758 C757 1.524 . S
C758 C759 1.397 . S
C758 C763 1.363 . S
C759 H730 0.950 . S
C759 C758 1.397 . S
C759 C760 1.334 . S
C760 H731 0.950 . S
C760 C759 1.334 . S
C760 C761 1.287 . S
C761 C760 1.287 . S
C761 C762 1.524 . S
C761 H764 0.999 . S
C762 H732 0.950 . S
C762 C761 1.524 . S
C762 C763 1.415 . S
C763 H733 0.950 . S
C763 C758 1.363 . S
C763 C762 1.415 . S
H764 C761 0.999 . S
H765 C746 0.913 . S
H766 C784 0.951 . S
H767 C786 0.951 . S
H768 C788 0.950 . S
H769 C789 0.950 . S
H770 C791 0.950 . S
H771 C794 0.950 . S
H772 C795 0.950 . S
H773 C797 0.950 . S
H774 C798 0.950 . S
H775 C799 0.951 . S
H776 C801 0.951 . S
H777 C803 0.950 . S
H778 C804 0.950 . S
H779 C806 0.950 . S
H780 C809 0.950 1_565 S
H781 C810 0.950 . S
H782 C812 0.950 . S
H783 C813 0.950 . S
C784 H766 0.951 . S
C784 C785 1.366 . S
C784 C786 1.388 . S
C785 C784 1.366 . S
C785 C789 1.385 . S
C786 H767 0.951 . S
C786 C784 1.388 . S
C786 C787 1.366 . S
C787 C786 1.366 . S
C787 C788 1.414 . S
C787 C790 1.499 . S
C788 H768 0.950 . S
C788 C787 1.414 . S
C788 C789 1.374 . S
C789 H769 0.950 . S
C789 C785 1.385 . S
C789 C788 1.374 . S
C790 C787 1.499 . S
C790 C791 1.373 . S
C790 C792 1.389 . S
C791 H770 0.950 . S
C791 C790 1.373 . S
C791 C807 1.377 . S
C792 C790 1.389 . S
C792 C793 1.524 . S
C792 C806 1.377 . S
C793 C792 1.524 . S
C793 C794 1.397 . S
C793 C798 1.363 . S
C794 H771 0.950 . S
C794 C793 1.397 . S
C794 C795 1.334 . S
C795 H772 0.950 . S
C795 C794 1.334 . S
C795 C796 1.287 . S
C796 C795 1.287 . S
C796 C797 1.524 . S
C796 H815 0.913 . S
C797 H773 0.950 . S
C797 C796 1.524 . S
C797 C798 1.415 . S
C798 H774 0.950 . S
C798 C793 1.363 . S
C798 C797 1.415 . S
C799 H775 0.951 . S
C799 C800 1.366 . S
C799 C801 1.388 . S
C800 C799 1.366 . S
C800 C804 1.385 . S
C801 H776 0.951 . S
C801 C799 1.388 . S
C801 C802 1.366 . S
C802 C801 1.366 . S
C802 C803 1.414 . S
C802 C805 1.499 . S
C803 H777 0.950 . S
C803 C802 1.414 . S
C803 C804 1.374 . S
C804 H778 0.950 . S
C804 C800 1.385 . S
C804 C803 1.374 . S
C805 C802 1.499 . S
C805 C806 1.373 . S
C805 C807 1.389 . S
C806 H779 0.950 . S
C806 C792 1.377 . S
C806 C805 1.373 . S
C807 C791 1.377 . S
C807 C805 1.389 . S
C807 C808 1.524 . S
C808 C807 1.524 . S
C808 C809 1.397 1_565 S
C808 C813 1.363 1_565 S
C809 H780 0.950 1_545 S
C809 C808 1.397 1_545 S
C809 C810 1.334 . S
C810 H781 0.950 . S
C810 C809 1.334 . S
C810 C811 1.287 . S
C811 C810 1.287 . S
C811 C812 1.524 . S
C811 H814 0.999 . S
C812 H782 0.950 . S
C812 C811 1.524 . S
C812 C813 1.415 . S
C813 H783 0.950 . S
C813 C808 1.363 1_545 S
C813 C812 1.415 . S
H814 C811 0.999 . S
H815 C796 0.913 . S
C250 C111 1.680 . S
C235 C40 1.689 . S
C285 C4 1.691 . S
C300 C206 1.669 . S
C335 C16 1.690 . S
C350 C122 1.695 . S
C385 C28 1.660 . S
C400 C195 1.657 . S
C450 C106 1.465 . S
C435 C9 1.634 . S
C500 C199 1.735 . S
C485 C18 1.735 . S
C535 C33 1.655 . S
C550 C115 1.667 . S
C585 C45 1.625 . S
C600 C190 1.457 . S
C650 C201 1.412 . S
C635 C21 1.579 . S
C700 C117 1.412 . S
C685 C30 1.584 . S
C750 C188 1.658 . S
C735 C42 1.650 . S
C785 C6 1.587 . S
C800 C104 1.598 . S
