# Generated by pormake.
# Topology pyr, (3,6)-cn, num edge types: 1
# Building blocks:
#     Node 0, Type 0, BuildingBlock: BETDIP_clean_linker_0, # of connection points: 3
#     Node 1, Type 0, BuildingBlock: BETDIP_clean_linker_0, # of connection points: 3
#     Node 2, Type 0, BuildingBlock: BETDIP_clean_linker_0, # of connection points: 3
#     Node 3, Type 0, BuildingBlock: BETDIP_clean_linker_0, # of connection points: 3
#     Node 4, Type 0, BuildingBlock: BETDIP_clean_linker_0, # of connection points: 3
#     Node 5, Type 0, BuildingBlock: BETDIP_clean_linker_0, # of connection points: 3
#     Node 6, Type 0, BuildingBlock: BETDIP_clean_linker_0, # of connection points: 3
#     Node 7, Type 0, BuildingBlock: BETDIP_clean_linker_0, # of connection points: 3
#     Node 8, Type 1, BuildingBlock: JUFBIX_clean_sbu_0, # of connection points: 6
#     Node 9, Type 1, BuildingBlock: JUFBIX_clean_sbu_0, # of connection points: 6
#     Node 10, Type 1, BuildingBlock: JUFBIX_clean_sbu_0, # of connection points: 6
#     Node 11, Type 1, BuildingBlock: JUFBIX_clean_sbu_0, # of connection points: 6
#     Edge 12, Type (0, 1), BuildingBlock: UVAHIK_clean_linker_0, # of connection points: 2
#     Edge 13, Type (0, 1), BuildingBlock: UVAHIK_clean_linker_0, # of connection points: 2
#     Edge 14, Type (0, 1), BuildingBlock: UVAHIK_clean_linker_0, # of connection points: 2
#     Edge 15, Type (0, 1), BuildingBlock: UVAHIK_clean_linker_0, # of connection points: 2
#     Edge 16, Type (0, 1), BuildingBlock: UVAHIK_clean_linker_0, # of connection points: 2
#     Edge 17, Type (0, 1), BuildingBlock: UVAHIK_clean_linker_0, # of connection points: 2
#     Edge 18, Type (0, 1), BuildingBlock: UVAHIK_clean_linker_0, # of connection points: 2
#     Edge 19, Type (0, 1), BuildingBlock: UVAHIK_clean_linker_0, # of connection points: 2
#     Edge 20, Type (0, 1), BuildingBlock: UVAHIK_clean_linker_0, # of connection points: 2
#     Edge 21, Type (0, 1), BuildingBlock: UVAHIK_clean_linker_0, # of connection points: 2
#     Edge 22, Type (0, 1), BuildingBlock: UVAHIK_clean_linker_0, # of connection points: 2
#     Edge 23, Type (0, 1), BuildingBlock: UVAHIK_clean_linker_0, # of connection points: 2
#     Edge 24, Type (0, 1), BuildingBlock: UVAHIK_clean_linker_0, # of connection points: 2
#     Edge 25, Type (0, 1), BuildingBlock: UVAHIK_clean_linker_0, # of connection points: 2
#     Edge 26, Type (0, 1), BuildingBlock: UVAHIK_clean_linker_0, # of connection points: 2
#     Edge 27, Type (0, 1), BuildingBlock: UVAHIK_clean_linker_0, # of connection points: 2
#     Edge 28, Type (0, 1), BuildingBlock: UVAHIK_clean_linker_0, # of connection points: 2
#     Edge 29, Type (0, 1), BuildingBlock: UVAHIK_clean_linker_0, # of connection points: 2
#     Edge 30, Type (0, 1), BuildingBlock: UVAHIK_clean_linker_0, # of connection points: 2
#     Edge 31, Type (0, 1), BuildingBlock: UVAHIK_clean_linker_0, # of connection points: 2
#     Edge 32, Type (0, 1), BuildingBlock: UVAHIK_clean_linker_0, # of connection points: 2
#     Edge 33, Type (0, 1), BuildingBlock: UVAHIK_clean_linker_0, # of connection points: 2
#     Edge 34, Type (0, 1), BuildingBlock: UVAHIK_clean_linker_0, # of connection points: 2
#     Edge 35, Type (0, 1), BuildingBlock: UVAHIK_clean_linker_0, # of connection points: 2
# Relax obj value: 0.133
# Max RMSD: 0.195
# Mean RMSD: 0.130
data_MOF--net-pyr--node1-JUFBIX_clean_sbu_0--node2-BETDIP_clean_linker_0--edge1-UVAHIK_clean_linker_0
_symmetry_space_group_name_H-M    P1
_symmetry_Int_Tables_number       1
_symmetry_cell_setting            triclinic
loop_
_symmetry_equiv_pos_as_xyz
'x, y, z'
_cell_length_a     47.525895
_cell_length_b     44.630251
_cell_length_c     49.224441
_cell_angle_alpha  87.820421
_cell_angle_beta   85.152192
_cell_angle_gamma 97.313999
loop_
_atom_site_label
_atom_site_type_symbol
_atom_site_fract_x
_atom_site_fract_y
_atom_site_fract_z
_atom_type_partial_charge
H0 H 0.15308 0.18108 0.21848 0.0
H1 H 0.21713 0.18346 0.15126 0.0
H2 H 0.21995 0.12479 0.22209 0.0
H3 H 0.19552 0.21768 0.13203 0.0
C4 C 0.17748 0.22325 0.14492 0.0
C5 C 0.17231 0.17332 0.2095 0.0
C6 C 0.18492 0.15121 0.22361 0.0
C7 C 0.18373 0.18543 0.18364 0.0
C8 C 0.20835 0.17493 0.17141 0.0
C9 C 0.22161 0.15277 0.18496 0.0
C10 C 0.20962 0.14114 0.2111 0.0
N11 N 0.16964 0.20803 0.17099 0.0
H12 H 0.41989 0.92822 0.6615 0.0
H13 H 0.41881 0.85938 0.6027 0.0
H14 H 0.46244 0.84996 0.67462 0.0
H15 H 0.38446 0.87989 0.58643 0.0
C16 C 0.38057 0.9003 0.59656 0.0
C17 C 0.42669 0.9073 0.65457 0.0
C18 C 0.44278 0.89081 0.67087 0.0
C19 C 0.41737 0.89604 0.63029 0.0
C20 C 0.42546 0.86852 0.62149 0.0
C21 C 0.44162 0.85185 0.63751 0.0
C22 C 0.45009 0.86297 0.66221 0.0
N23 N 0.39813 0.91195 0.61671 0.0
H24 H 0.72701 0.41904 0.83973 0.0
H25 H 0.65172 0.35393 0.84484 0.0
H26 H 0.71787 0.3422 0.89695 0.0
H27 H 0.63219 0.39611 0.83273 0.0
C28 C 0.64785 0.40579 0.81636 0.0
C29 C 0.71482 0.39844 0.84893 0.0
C30 C 0.72581 0.38182 0.86952 0.0
C31 C 0.68796 0.38884 0.84024 0.0
C32 C 0.67227 0.36181 0.85173 0.0
C33 C 0.68288 0.34484 0.87222 0.0
C34 C 0.70965 0.35505 0.88098 0.0
N35 N 0.67737 0.40636 0.81958 0.0
H36 H 0.91397 0.5806 0.45196 0.0
H37 H 0.98904 0.64569 0.43809 0.0
H38 H 0.92725 0.65467 0.50498 0.0
H39 H 1.00274 0.61651 0.40567 0.0
C40 C 0.9838 0.60293 0.39987 0.0
C41 C 0.92731 0.60002 0.45856 0.0
C42 C 0.91757 0.61597 0.48076 0.0
C43 C 0.95301 0.61026 0.4431 0.0
C44 C 0.96959 0.63669 0.45025 0.0
C45 C 0.96054 0.65253 0.4728 0.0
C46 C 0.93471 0.64187 0.48816 0.0
N47 N 0.95957 0.59514 0.41894 0.0
H48 H 0.80622 0.84957 0.91138 0.0
H49 H 0.8748 0.85274 0.84834 0.0
H50 H 0.8109 0.91225 0.84178 0.0
H51 H 0.8982 0.84012 0.88647 0.0
C52 C 0.88249 0.82223 0.89615 0.0
C53 C 0.81685 0.85942 0.89216 0.0
C54 C 0.80529 0.88234 0.87796 0.0
C55 C 0.84218 0.84911 0.88199 0.0
C56 C 0.85586 0.86142 0.8568 0.0
C57 C 0.84467 0.88406 0.8419 0.0
C58 C 0.81929 0.89429 0.85267 0.0
N59 N 0.85305 0.82585 0.89713 0.0
H60 H 0.62026 0.1032 0.39455 0.0
H61 H 0.6247 0.17556 0.44969 0.0
H62 H 0.57541 0.1796 0.38085 0.0
H63 H 0.65339 0.15042 0.47152 0.0
C64 C 0.66018 0.13284 0.45886 0.0
C65 C 0.61382 0.12455 0.40076 0.0
C66 C 0.59641 0.13971 0.38482 0.0
C67 C 0.62436 0.13723 0.42397 0.0
C68 C 0.61663 0.16515 0.43196 0.0
C69 C 0.59848 0.18019 0.41675 0.0
C70 C 0.58827 0.16728 0.39331 0.0
N71 N 0.64448 0.1222 0.43707 0.0
H72 H 0.30424 0.61605 0.21126 0.0
H73 H 0.3795 0.68113 0.20666 0.0
H74 H 0.31386 0.69295 0.15403 0.0
H75 H 0.39908 0.63929 0.21904 0.0
C76 C 0.38324 0.62907 0.23504 0.0
C77 C 0.3165 0.63661 0.20207 0.0
C78 C 0.30564 0.65328 0.18141 0.0
C79 C 0.34331 0.64615 0.2109 0.0
C80 C 0.35904 0.67323 0.19959 0.0
C81 C 0.34855 0.69028 0.17908 0.0
C82 C 0.3219 0.68004 0.17006 0.0
N83 N 0.35377 0.62847 0.23152 0.0
H84 H 0.03495 0.38793 0.61552 0.0
H85 H 0.10498 0.45954 0.60474 0.0
H86 H 0.10746 0.3787 0.55993 0.0
H87 H 0.01814 0.41363 0.64936 0.0
C88 C 0.03461 0.43147 0.65375 0.0
C89 C 0.05539 0.39758 0.60552 0.0
C90 C 0.06912 0.38085 0.58606 0.0
C91 C 0.06835 0.42614 0.61212 0.0
C92 C 0.09498 0.43773 0.59911 0.0
C93 C 0.1097 0.42067 0.58068 0.0
C94 C 0.09619 0.39252 0.57361 0.0
N95 N 0.0571 0.44263 0.63367 0.0
Co96 Co 0.99823 0.01143 0.52391 0.0
C97 C 0.02728 0.96063 0.52205 0.0
Co98 Co 0.03919 0.01659 0.54265 0.0
C99 C 0.94462 0.02401 0.50417 0.0
C100 C 0.9479 0.97669 0.50748 0.0
N101 N 0.96277 0.00417 0.51007 0.0
N102 N 0.91909 0.00993 0.49846 0.0
C103 C 0.92122 0.98016 0.50029 0.0
H104 H 0.94934 0.04823 0.50559 0.0
H105 H 0.95524 0.95523 0.51183 0.0
C106 C 1.01038 0.06747 0.54439 0.0
N107 N 0.0744 0.02353 0.55662 0.0
C108 C 0.09049 1.00309 0.56576 0.0
C109 C 0.09087 0.05046 0.557 0.0
N110 N 0.11636 0.01617 0.57155 0.0
C111 C 0.11656 0.04602 0.56625 0.0
C112 C 0.04285 0.03367 0.48624 0.0
O113 O 0.9919 0.05147 0.53211 0.0
O114 O 0.03226 0.05634 0.55094 0.0
O115 O 0.05682 0.03123 0.50705 0.0
O116 O 0.01596 0.02609 0.48888 0.0
O117 O 0.04563 0.97655 0.5345 0.0
H118 H 0.0852 0.07188 0.54976 0.0
H119 H 0.08372 0.97896 0.56736 0.0
O120 O 1.00542 0.97178 0.51555 0.0
O121 O 0.98063 0.99676 0.55936 0.0
O122 O 0.0213 1.00199 0.57777 0.0
C123 C 0.99441 0.99442 0.58028 0.0
H124 H 0.90437 0.9621 0.49753 0.0
H125 H 0.1346 0.06323 0.56736 0.0
Co126 Co 0.50026 0.01417 1.00995 0.0
C127 C 0.494 0.96926 0.05207 0.0
Co128 Co 0.52501 0.02546 0.04482 0.0
C129 C 0.48554 1.00278 0.95525 0.0
C130 C 0.44975 0.99311 0.98511 0.0
N131 N 0.47779 1.00349 0.98219 0.0
N132 N 0.46342 0.99224 0.94122 0.0
C133 C 0.44085 0.98622 0.96 0.0
H134 H 0.50707 0.00959 0.9462 0.0
H135 H 0.43675 0.98999 1.00438 0.0
C136 C 0.53137 0.07034 1.00267 0.0
N137 N 0.54754 0.03616 0.07253 0.0
C138 C 0.54002 0.03709 0.09951 0.0
C139 C 0.57567 0.04614 0.0694 0.0
N140 N 0.56242 0.04724 0.11332 0.0
C141 C 0.58488 0.05289 0.0944 0.0
C142 C 0.55424 0.99631 1.00345 0.0
O143 O 0.51403 0.05183 0.9913 0.0
O144 O 0.53865 0.06316 0.02605 0.0
O145 O 0.55574 0.00757 0.02671 0.0
O146 O 0.53129 0.99653 0.99193 0.0
O147 O 0.51123 0.98784 0.06349 0.0
H148 H 0.58855 0.04897 0.05006 0.0
H149 H 0.51853 0.0306 0.10877 0.0
O150 O 0.48669 0.97643 0.02869 0.0
O151 O 0.46942 0.03199 0.02815 0.0
O152 O 0.4941 0.04309 0.0628 0.0
C153 C 0.47106 0.04325 0.05142 0.0
H154 H 0.41965 0.97642 0.95608 0.0
H155 H 0.60626 0.06225 0.09819 0.0
Co156 Co 0.53582 0.52696 0.51694 0.0
C157 C 0.49463 0.5279 0.48044 0.0
Co158 Co 0.49384 0.50327 0.53327 0.0
C159 C 0.59686 0.54235 0.50963 0.0
C160 C 0.57522 0.57461 0.48922 0.0
N161 N 0.5707 0.54819 0.50412 0.0
N162 N 0.61753 0.56428 0.49907 0.0
C163 C 0.60396 0.58456 0.48609 0.0
H164 H 0.60055 0.52303 0.52216 0.0
H165 H 0.5586 0.58635 0.48181 0.0
C166 C 0.53503 0.50232 0.56977 0.0
N167 N 0.45894 0.48204 0.54608 0.0
C168 C 0.43275 0.48797 0.54077 0.0
C169 C 0.45441 0.45583 0.56129 0.0
N170 N 0.41201 0.46636 0.55184 0.0
C171 C 0.42564 0.44618 0.5649 0.0
C172 C 0.52933 0.46697 0.50575 0.0
O173 O 0.55054 0.51782 0.55063 0.0
O174 O 0.50914 0.49342 0.56644 0.0
O175 O 0.50487 0.46762 0.51815 0.0
O176 O 0.54703 0.49097 0.50298 0.0
O177 O 0.47889 0.51338 0.49998 0.0
H178 H 0.47101 0.44414 0.56878 0.0
H179 H 0.4291 0.50729 0.52822 0.0
O180 O 0.5208 0.53587 0.48335 0.0
O181 O 0.52434 0.56283 0.53094 0.0
O182 O 0.48305 0.53911 0.54825 0.0
C183 C 0.50032 0.56336 0.54423 0.0
H184 H 0.61401 0.60531 0.47538 0.0
H185 H 0.41563 0.42579 0.57621 0.0
Co186 Co 0.02961 0.51623 1.00738 0.0
C187 C 0.97453 0.48666 1.00451 0.0
Co188 Co 1.00193 0.51437 0.04586 0.0
C189 C 0.0486 0.49983 0.95356 0.0
C190 C 0.07032 0.54232 0.96372 0.0
N191 N 0.05148 0.51872 0.97419 0.0
N192 N 0.06427 0.51099 0.93037 0.0
C193 C 0.07823 0.53763 0.93685 0.0
H194 H 0.03423 0.47889 0.95523 0.0
H195 H 0.07647 0.56255 0.97436 0.0
C196 C 0.05693 0.54398 0.04878 0.0
N197 N 0.98 0.51195 0.07901 0.0
C198 C 0.98271 0.53102 0.09953 0.0
C199 C 0.96069 0.48868 0.08935 0.0
N200 N 0.96635 0.52035 0.12246 0.0
C201 C 0.95223 0.4938 0.11601 0.0
C202 C 0.03422 0.46588 0.04047 0.0
O203 O 0.06029 0.53813 0.02376 0.0
O204 O 0.03293 0.53576 0.06201 0.0
O205 O 0.01558 0.47706 0.05566 0.0
O206 O 0.04334 0.47931 0.01753 0.0
O207 O 0.97114 0.49296 0.02941 0.0
H208 H 0.95437 0.46849 0.07871 0.0
H209 H 0.99725 0.55185 0.09796 0.0
O210 O 0.99866 0.49439 0.99133 0.0
O211 O 0.01571 0.55305 0.99741 0.0
O212 O 0.98851 0.5518 0.03578 0.0
C213 C 0.99744 0.56474 0.01258 0.0
H214 H 0.0916 0.55367 0.92273 0.0
H215 H 0.93819 0.47822 0.13002 0.0
C216 C 0.17081 0.1079 0.25897 0.0
C217 C 0.17207 0.13881 0.25131 0.0
C218 C 0.15755 0.09622 0.28444 0.0
C219 C 0.10445 0.11271 0.33989 0.0
H220 H 0.13607 0.05225 0.38228 0.0
C221 C 0.0424 0.04998 0.43665 0.0
C222 C 0.05781 0.04519 0.45927 0.0
C223 C 0.05649 0.06098 0.41135 0.0
C224 C 0.127 0.06925 0.3708 0.0
H225 H 0.16119 0.18176 0.26534 0.0
H226 H 0.13803 0.16143 0.30937 0.0
H227 H 0.16077 0.07243 0.33859 0.0
H228 H 0.10033 0.04822 0.47274 0.0
H229 H 0.12481 0.06739 0.42872 0.0
H230 H 0.07087 0.10982 0.37217 0.0
C231 C 0.14682 0.14606 0.29549 0.0
C232 C 0.14104 0.08061 0.34556 0.0
C233 C 0.16014 0.15773 0.27013 0.0
C234 C 0.08772 0.05157 0.45582 0.0
C235 C 0.10181 0.06242 0.43047 0.0
C236 C 0.09033 0.10123 0.36502 0.0
C237 C 0.14509 0.11509 0.30296 0.0
C238 C 0.13004 0.10261 0.32978 0.0
C239 C 0.0864 0.06737 0.40787 0.0
C240 C 0.10142 0.07938 0.3809 0.0
H241 H 0.17941 0.0925 0.245 0.0
H242 H 0.15643 0.07221 0.28933 0.0
H243 H 0.09511 0.12935 0.32823 0.0
H244 H 0.01938 0.04528 0.43847 0.0
H245 H 0.04389 0.06415 0.39439 0.0
C246 C 0.45931 0.93238 0.70104 0.0
C247 C 0.44993 0.90165 0.69786 0.0
C248 C 0.46357 0.94297 0.72692 0.0
C249 C 0.43868 0.92465 0.79864 0.0
H250 H 0.50203 0.98372 0.81349 0.0
C251 C 0.43901 0.98511 0.8992 0.0
C252 C 0.464 0.98608 0.91268 0.0
C253 C 0.4388 0.97655 0.87226 0.0
C254 C 0.4843 0.96714 0.80963 0.0
H255 H 0.43828 0.85783 0.71921 0.0
H256 H 0.44608 0.87625 0.76429 0.0
H257 H 0.50006 0.96399 0.76785 0.0
H258 H 0.50862 0.97965 0.90806 0.0
H259 H 0.50825 0.96486 0.86088 0.0
H260 H 0.42296 0.92754 0.8403 0.0
C261 C 0.44991 0.89218 0.7468 0.0
C262 C 0.48307 0.95602 0.78351 0.0
C263 C 0.44575 0.88158 0.72096 0.0
C264 C 0.48908 0.97942 0.89823 0.0
C265 C 0.48888 0.97091 0.8712 0.0
C266 C 0.43982 0.93586 0.82462 0.0
C267 C 0.45839 0.92305 0.75011 0.0
C268 C 0.46025 0.93462 0.7778 0.0
C269 C 0.46358 0.96882 0.85815 0.0
C270 C 0.46259 0.95726 0.83039 0.0
H271 H 0.46293 0.94831 0.68355 0.0
H272 H 0.46997 0.96691 0.72887 0.0
H273 H 0.42065 0.90846 0.79476 0.0
H274 H 0.41951 0.99073 0.90955 0.0
H275 H 0.41913 0.97572 0.86253 0.0
C276 C 0.60826 0.41438 0.78839 0.0
C277 C 0.63763 0.41766 0.79106 0.0
C278 C 0.59791 0.4243 0.76439 0.0
C279 C 0.61604 0.47575 0.70352 0.0
H280 H 0.55638 0.42301 0.67348 0.0
C281 C 0.57649 0.50094 0.59791 0.0
C282 C 0.54716 0.49408 0.59533 0.0
C283 C 0.58807 0.49221 0.62171 0.0
C284 C 0.57277 0.43821 0.68176 0.0
H285 H 0.67933 0.43432 0.77088 0.0
H286 H 0.6612 0.45182 0.72879 0.0
H287 H 0.57571 0.40689 0.71506 0.0
H288 H 0.50691 0.47319 0.61596 0.0
H289 H 0.52697 0.45852 0.65761 0.0
H290 H 0.61287 0.50724 0.67035 0.0
C291 C 0.64617 0.44163 0.74536 0.0
C292 C 0.58389 0.42892 0.70557 0.0
C293 C 0.65655 0.4315 0.76939 0.0
C294 C 0.52962 0.47868 0.61722 0.0
C295 C 0.54117 0.47009 0.64104 0.0
C296 C 0.60479 0.48514 0.67973 0.0
C297 C 0.61674 0.43787 0.74253 0.0
C298 C 0.60554 0.44763 0.71681 0.0
C299 C 0.57057 0.47652 0.64352 0.0
C300 C 0.5829 0.46654 0.66863 0.0
H301 H 0.59324 0.40383 0.80484 0.0
H302 H 0.57511 0.42147 0.76299 0.0
H303 H 0.63252 0.49079 0.71185 0.0
H304 H 0.59063 0.51268 0.58137 0.0
H305 H 0.61084 0.49723 0.62276 0.0
C306 C 1.00587 0.60357 0.352 0.0
C307 C 0.98271 0.5941 0.37131 0.0
C308 C 1.00443 0.59675 0.32461 0.0
C309 C 0.9525 0.57623 0.27456 0.0
H310 H 0.01679 0.54949 0.23286 0.0
C311 C 0.94414 0.52475 0.16917 0.0
C312 C 0.96726 0.53216 0.14928 0.0
C313 C 0.94591 0.53415 0.1958 0.0
C314 C 0.99878 0.55734 0.2441 0.0
H315 H 0.94 0.56952 0.37726 0.0
H316 H 0.93763 0.55738 0.32968 0.0
H317 H 0.02056 0.56177 0.28036 0.0
H318 H 1.01028 0.55572 0.14187 0.0
H319 H 0.01306 0.57265 0.18802 0.0
H320 H 0.93066 0.57166 0.23835 0.0
C321 C 0.95675 0.57049 0.33554 0.0
C322 C 1.00094 0.56433 0.27133 0.0
C323 C 0.95822 0.57727 0.36286 0.0
C324 C 0.99192 0.54986 0.1565 0.0
C325 C 0.99368 0.55924 0.1831 0.0
C326 C 0.95034 0.56926 0.24732 0.0
C327 C 0.97973 0.58036 0.31605 0.0
C328 C 0.97776 0.57366 0.28691 0.0
C329 C 0.97086 0.55116 0.20315 0.0
C330 C 0.9734 0.55958 0.23183 0.0
H331 H 0.02494 0.61667 0.35801 0.0
H332 H 0.02241 0.60486 0.31005 0.0
H333 H 0.93442 0.58386 0.28589 0.0
H334 H 0.92477 0.5114 0.16422 0.0
H335 H 0.92801 0.52735 0.21081 0.0
C336 C 0.26878 0.16182 0.15575 0.0
C337 C 0.24795 0.14187 0.17182 0.0
C338 C 0.2931 0.15158 0.14308 0.0
C339 C 0.33837 0.08976 0.1461 0.0
H340 H 0.36447 0.11761 0.07157 0.0
C341 C 0.44618 0.06416 0.09252 0.0
C342 C 0.44616 0.05564 0.06527 0.0
C343 C 0.42237 0.07495 0.10571 0.0
C344 C 0.35744 0.10949 0.09235 0.0
H345 H 0.23687 0.09513 0.1868 0.0
H346 H 0.27942 0.0775 0.16513 0.0
H347 H 0.32236 0.1354 0.09411 0.0
H348 H 0.42088 0.05209 0.03058 0.0
H349 H 0.37959 0.07105 0.05346 0.0
H350 H 0.37338 0.06369 0.14425 0.0
C351 C 0.27695 0.1012 0.1625 0.0
C352 C 0.3334 0.11994 0.1054 0.0
C353 C 0.25249 0.11138 0.17502 0.0
C354 C 0.42176 0.05849 0.05153 0.0
C355 C 0.39807 0.06952 0.06464 0.0
C356 C 0.36259 0.07953 0.13313 0.0
C357 C 0.29755 0.12111 0.14622 0.0
C358 C 0.32343 0.11015 0.13244 0.0
C359 C 0.39795 0.07779 0.09196 0.0
C360 C 0.37242 0.08914 0.10602 0.0
H361 H 0.26652 0.18557 0.15318 0.0
H362 H 0.30868 0.16771 0.13108 0.0
H363 H 0.33152 0.08191 0.16699 0.0
H364 H 0.46455 0.06226 0.10379 0.0
H365 H 0.4232 0.08136 0.12666 0.0
C366 C 0.34747 0.939 0.60533 0.0
C367 C 0.35367 0.91257 0.5928 0.0
C368 C 0.32102 0.94902 0.60348 0.0
C369 C 0.25787 0.94148 0.56406 0.0
H370 H 0.22162 0.9726 0.62874 0.0
C371 C 0.14382 0.97286 0.56764 0.0
C372 C 0.1404 1.00136 0.57771 0.0
C373 C 0.1687 0.96006 0.571 0.0
C374 C 0.23156 0.9641 0.6105 0.0
H375 H 0.33754 0.87626 0.56809 0.0
H376 H 0.29108 0.89353 0.56508 0.0
H377 H 0.26785 0.95471 0.6306 0.0
H378 H 0.15969 0.03801 0.60038 0.0
H379 H 0.20324 0.01575 0.60617 0.0
H380 H 0.22153 0.95091 0.54398 0.0
C381 C 0.30672 0.90672 0.57607 0.0
C382 C 0.25807 0.95396 0.6115 0.0
C383 C 0.33326 0.89677 0.57783 0.0
C384 C 0.16188 0.01618 0.59218 0.0
C385 C 0.18668 1.00331 0.59568 0.0
C386 C 0.23129 0.9515 0.56309 0.0
C387 C 0.30019 0.93277 0.58916 0.0
C388 C 0.27166 0.9428 0.58822 0.0
C389 C 0.19058 0.9754 0.58466 0.0
C390 C 0.21798 0.96314 0.58624 0.0
H391 H 0.36287 0.95182 0.61684 0.0
H392 H 0.31689 0.96953 0.6133 0.0
H393 H 0.2679 0.93337 0.54568 0.0
H394 H 0.1278 0.96098 0.55619 0.0
H395 H 0.17101 0.93835 0.56256 0.0
C396 C 0.7726 0.37233 0.88615 0.0
C397 C 0.75356 0.39276 0.87996 0.0
C398 C 0.79754 0.38212 0.89818 0.0
C399 C 0.82799 0.44299 0.93978 0.0
H400 H 0.89888 0.41097 0.92112 0.0
C401 C 0.92321 0.46493 1.00462 0.0
C402 C 0.95026 0.4725 0.99043 0.0
C403 C 0.89979 0.454 0.9908 0.0
C404 C 0.8793 0.42026 0.92647 0.0
H405 H 0.74624 0.43969 0.88094 0.0
H406 H 0.79008 0.45692 0.90138 0.0
H407 H 0.85761 0.39579 0.89611 0.0
H408 H 0.97407 0.47374 0.95069 0.0
H409 H 0.9332 0.45494 0.9266 0.0
H410 H 0.84975 0.46789 0.96976 0.0
C411 C 0.78548 0.4332 0.89732 0.0
C412 C 0.85556 0.41135 0.9123 0.0
C413 C 0.76052 0.4234 0.88528 0.0
C414 C 0.95353 0.46807 0.96226 0.0
C415 C 0.9301 0.45717 0.94845 0.0
C416 C 0.85169 0.45188 0.95394 0.0
C417 C 0.80407 0.41259 0.9043 0.0
C418 C 0.82961 0.42259 0.9188 0.0
C419 C 0.90286 0.45041 0.96248 0.0
C420 C 0.87762 0.44059 0.94751 0.0
H421 H 0.76805 0.34863 0.88199 0.0
H422 H 0.81127 0.36559 0.90344 0.0
H423 H 0.80826 0.45179 0.94558 0.0
H424 H 0.91998 0.46794 0.02634 0.0
H425 H 0.87921 0.44849 1.00232 0.0
C426 C 0.87019 0.63055 0.49736 0.0
C427 C 0.88791 0.60789 0.49336 0.0
C428 C 0.84104 0.62293 0.50459 0.0
C429 C 0.78407 0.56133 0.4966 0.0
H430 H 0.73816 0.61095 0.54 0.0
C431 C 0.66081 0.54066 0.50647 0.0
C432 C 0.64749 0.56671 0.5027 0.0
C433 C 0.68994 0.54313 0.50983 0.0
C434 C 0.75071 0.59691 0.52778 0.0
H435 H 0.88929 0.55951 0.49573 0.0
H436 H 0.83829 0.54615 0.50856 0.0
H437 H 0.78996 0.61951 0.53959 0.0
H438 H 0.65419 0.61575 0.50027 0.0
H439 H 0.70494 0.62005 0.5057 0.0
H440 H 0.74488 0.53924 0.48426 0.0
C441 C 0.8469 0.56982 0.50559 0.0
C442 C 0.78036 0.60179 0.52757 0.0
C443 C 0.8761 0.57746 0.49833 0.0
C444 C 0.66385 0.59524 0.50274 0.0
C445 C 0.69287 0.59772 0.50625 0.0
C446 C 0.75442 0.55639 0.49688 0.0
C447 C 0.82891 0.59245 0.50801 0.0
C448 C 0.79743 0.58454 0.51145 0.0
C449 C 0.70629 0.57171 0.50971 0.0
C450 C 0.73746 0.57461 0.51195 0.0
H451 H 0.87848 0.65419 0.49328 0.0
H452 H 0.8278 0.64095 0.50592 0.0
H453 H 0.79655 0.5479 0.48364 0.0
H454 H 0.64882 0.51837 0.50639 0.0
H455 H 0.69966 0.52269 0.51258 0.0
C456 C 0.13784 0.25609 0.15015 0.0
C457 C 0.16123 0.24709 0.13456 0.0
C458 C 0.12303 0.27875 0.13995 0.0
C459 C 0.11047 0.31911 0.07521 0.0
H460 H 0.08539 0.37904 0.1234 0.0
C461 C 0.06872 0.4276 0.03461 0.0
C462 C 0.04646 0.43868 0.05024 0.0
C463 C 0.08156 0.40334 0.04468 0.0
C464 C 0.09186 0.36228 0.10967 0.0
H465 H 0.18738 0.25484 0.09615 0.0
H466 H 0.16181 0.2944 0.07844 0.0
H467 H 0.10977 0.33878 0.14143 0.0
H468 H 0.01993 0.43228 0.08861 0.0
H469 H 0.04194 0.38982 0.10593 0.0
H470 H 0.09265 0.34263 0.04343 0.0
C471 C 0.15458 0.28378 0.09838 0.0
C472 C 0.10591 0.33912 0.12006 0.0
C473 C 0.16939 0.26121 0.1086 0.0
C474 C 0.03704 0.42445 0.07599 0.0
C475 C 0.04986 0.40019 0.08605 0.0
C476 C 0.0964 0.34224 0.06483 0.0
C477 C 0.13117 0.29293 0.11389 0.0
C478 C 0.11555 0.31725 0.10296 0.0
C479 C 0.07251 0.38943 0.07067 0.0
C480 C 0.08697 0.36427 0.08187 0.0
H481 H 0.13092 0.24567 0.17022 0.0
H482 H 0.10495 0.28489 0.15239 0.0
H483 H 0.11711 0.30243 0.06146 0.0
H484 H 0.07667 0.43805 0.01476 0.0
H485 H 0.09912 0.39602 0.03232 0.0
C486 C 0.66419 0.31061 0.91319 0.0
C487 C 0.66575 0.31679 0.88485 0.0
C488 C 0.6479 0.28445 0.92514 0.0
C489 C 0.61484 0.2083 0.90915 0.0
H490 H 0.57275 0.21168 0.97974 0.0
C491 C 0.54011 0.10571 0.9611 0.0
C492 C 0.54373 0.09955 0.98871 0.0
C493 C 0.55311 0.13279 0.94771 0.0
C494 C 0.5845 0.21038 0.96008 0.0
H495 H 0.65155 0.30007 0.84682 0.0
H496 H 0.62249 0.25482 0.86779 0.0
H497 H 0.59913 0.25781 0.95757 0.0
H498 H 0.56335 0.11722 0.02407 0.0
H499 H 0.58584 0.16439 1.00076 0.0
H500 H 0.6001 0.16079 0.91176 0.0
C501 C 0.63419 0.27003 0.88074 0.0
C502 C 0.5997 0.23677 0.9474 0.0
C503 C 0.65058 0.29616 0.86875 0.0
C504 C 0.56013 0.12126 1.00278 0.0
C505 C 0.57289 0.14838 0.98948 0.0
C506 C 0.59948 0.18192 0.92177 0.0
C507 C 0.63263 0.26387 0.90909 0.0
C508 C 0.61536 0.23601 0.92193 0.0
C509 C 0.56973 0.15434 0.96176 0.0
C510 C 0.58444 0.18263 0.94752 0.0
H511 H 0.67531 0.32619 0.92623 0.0
H512 H 0.64753 0.28023 0.94699 0.0
H513 H 0.62695 0.2068 0.88971 0.0
H514 H 0.52762 0.08942 0.94969 0.0
H515 H 0.55013 0.13691 0.92638 0.0
C516 C 0.98378 0.68842 0.50475 0.0
C517 C 0.9763 0.6821 0.4784 0.0
C518 C 0.9968 0.71721 0.51019 0.0
C519 C 0.02996 0.79145 0.47571 0.0
H520 H 1.00436 0.82336 0.54435 0.0
C521 C 0.01768 0.91598 0.49387 0.0
C522 C 0.03033 0.92904 0.51611 0.0
C523 C 0.01803 0.88533 0.48948 0.0
C524 C 1.01206 0.81456 0.5253 0.0
H525 H 0.97643 0.70063 0.43711 0.0
H526 H 0.99787 0.751 0.44664 0.0
H527 H 0.99142 0.77 0.53658 0.0
H528 H 0.0537 0.92062 0.55097 0.0
H529 H 0.05324 0.86633 0.54385 0.0
H530 H 0.04862 0.83689 0.46385 0.0
C531 C 0.9949 0.73371 0.46302 0.0
C532 C 1.00477 0.78392 0.52081 0.0
C533 C 0.9824 0.70484 0.45752 0.0
C534 C 0.04395 0.91107 0.53358 0.0
C535 C 0.04363 0.88014 0.52959 0.0
C536 C 0.03668 0.8222 0.48001 0.0
C537 C 1.00205 0.74046 0.4895 0.0
C538 C 0.01303 0.77207 0.49567 0.0
C539 C 0.03045 0.86705 0.50762 0.0
C540 C 0.02732 0.83405 0.50463 0.0
H541 H 0.97938 0.67112 0.52114 0.0
H542 H 1.00244 0.72129 0.53071 0.0
H543 H 0.03742 0.7831 0.4564 0.0
H544 H 1.00708 0.92937 0.48009 0.0
H545 H 1.00753 0.87562 0.47255 0.0
C546 C 0.46144 0.8188 0.60294 0.0
C547 C 0.44822 0.82196 0.62904 0.0
C548 C 0.46653 0.79033 0.5945 0.0
C549 C 0.46925 0.71133 0.62057 0.0
H550 H 0.46361 0.69443 0.54437 0.0
C551 C 0.47155 0.59254 0.57612 0.0
C552 C 0.49269 0.59215 0.55443 0.0
C553 C 0.46498 0.62005 0.58595 0.0
C554 C 0.46523 0.69892 0.56569 0.0
H555 H 0.42973 0.7982 0.66677 0.0
H556 H 0.43759 0.74821 0.65178 0.0
H557 H 0.45422 0.74351 0.56033 0.0
H558 H 0.52314 0.62005 0.52568 0.0
H559 H 0.51106 0.66802 0.5424 0.0
H560 H 0.47952 0.66614 0.62579 0.0
C561 C 0.44489 0.76769 0.63804 0.0
C562 C 0.46012 0.7271 0.57485 0.0
C563 C 0.44027 0.79626 0.64664 0.0
C564 C 0.50683 0.61967 0.5425 0.0
C565 C 0.49986 0.64709 0.55194 0.0
C566 C 0.47386 0.68293 0.61147 0.0
C567 C 0.45798 0.76432 0.61179 0.0
C568 C 0.46245 0.73386 0.60233 0.0
C569 C 0.47901 0.6475 0.57381 0.0
C570 C 0.47224 0.67669 0.5839 0.0
H571 H 0.46793 0.83841 0.58913 0.0
H572 H 0.47728 0.78879 0.57441 0.0
H573 H 0.47166 0.71579 0.64177 0.0
H574 H 0.4604 0.57162 0.58572 0.0
H575 H 0.44876 0.61993 0.60281 0.0
C576 C 0.84443 0.90273 0.79269 0.0
C577 C 0.85971 0.89693 0.81519 0.0
C578 C 0.85871 0.91376 0.76745 0.0
C579 C 0.92835 0.95263 0.73543 0.0
H580 H 0.90197 0.91994 0.66889 0.0
C581 C 0.99401 0.97933 0.63031 0.0
C582 C 0.97909 0.98326 0.6072 0.0
C583 C 0.97944 0.96903 0.65561 0.0
C584 C 0.90949 0.92967 0.68719 0.0
H585 H 0.90217 0.8991 0.82868 0.0
H586 H 0.92695 0.91794 0.7848 0.0
H587 H 0.87649 0.90234 0.71279 0.0
H588 H 0.93693 0.97944 0.59284 0.0
H589 H 0.91161 0.96201 0.6368 0.0
H590 H 0.96128 0.98005 0.70988 0.0
C591 C 0.9039 0.91408 0.78663 0.0
C592 C 0.8948 0.91952 0.71246 0.0
C593 C 0.88965 0.90293 0.81179 0.0
C594 C 0.94921 0.97658 0.61011 0.0
C595 C 0.93464 0.96636 0.63539 0.0
C596 C 0.94299 0.96285 0.71016 0.0
C597 C 0.88868 0.91951 0.76402 0.0
C598 C 0.90405 0.93079 0.73698 0.0
C599 C 0.9495 0.96241 0.65856 0.0
C600 C 0.93383 0.9515 0.68562 0.0
H601 H 0.8214 0.89821 0.79443 0.0
H602 H 0.84621 0.91796 0.75064 0.0
H603 H 0.9359 0.96221 0.75378 0.0
H604 H 0.01703 0.98413 0.62886 0.0
H605 H 0.99174 0.96589 0.67279 0.0
C606 C 0.56239 0.12916 0.34869 0.0
C607 C 0.58951 0.12834 0.35792 0.0
C608 C 0.55682 0.11972 0.32264 0.0
C609 C 0.59438 0.11049 0.2557 0.0
H610 H 0.52636 0.05766 0.2417 0.0
C611 C 0.58734 0.05218 0.1551 0.0
C612 C 0.5624 0.05307 0.14188 0.0
C613 C 0.58839 0.06053 0.18201 0.0
C614 C 0.5453 0.07267 0.24531 0.0
H615 H 0.63202 0.11718 0.347 0.0
H616 H 0.62216 0.10023 0.30214 0.0
H617 H 0.53216 0.07462 0.28794 0.0
H618 H 0.51862 0.06239 0.14685 0.0
H619 H 0.52046 0.077 0.19414 0.0
H620 H 0.60772 0.10853 0.21337 0.0
C621 C 0.60525 0.10832 0.31484 0.0
C622 C 0.54859 0.08239 0.2717 0.0
C623 C 0.61078 0.11766 0.34073 0.0
C624 C 0.53809 0.06129 0.15656 0.0
C625 C 0.53915 0.06968 0.18359 0.0
C626 C 0.59112 0.10081 0.22947 0.0
C627 C 0.57836 0.10958 0.30536 0.0
C628 C 0.57344 0.10095 0.27721 0.0
C629 C 0.56453 0.07001 0.19635 0.0
C630 C 0.56681 0.08137 0.22407 0.0
H631 H 0.54557 0.13718 0.36156 0.0
H632 H 0.53592 0.12102 0.3158 0.0
H633 H 0.61344 0.12539 0.25919 0.0
H634 H 0.60619 0.04528 0.14454 0.0
H635 H 0.60805 0.05986 0.19154 0.0
C636 C 0.37395 0.60151 0.28116 0.0
C637 C 0.39315 0.61587 0.25995 0.0
C638 C 0.38402 0.58991 0.30479 0.0
C639 C 0.44925 0.56689 0.33156 0.0
H640 H 0.41062 0.57884 0.40212 0.0
C641 C 0.50005 0.55057 0.43261 0.0
C642 C 0.48247 0.5359 0.45484 0.0
C643 C 0.48845 0.55863 0.40864 0.0
C644 C 0.42145 0.57501 0.38256 0.0
H645 H 0.43769 0.62941 0.24666 0.0
H646 H 0.45528 0.60968 0.28792 0.0
H647 H 0.39144 0.59577 0.36061 0.0
H648 H 0.43891 0.51808 0.46927 0.0
H649 H 0.41873 0.53216 0.4274 0.0
H650 H 0.47952 0.54659 0.35355 0.0
C651 C 0.43252 0.60681 0.28626 0.0
C652 C 0.41044 0.58466 0.35875 0.0
C653 C 0.42247 0.61829 0.26268 0.0
C654 C 0.45306 0.52937 0.45252 0.0
C655 C 0.44144 0.53758 0.4286 0.0
C656 C 0.46032 0.55737 0.35534 0.0
C657 C 0.41344 0.59252 0.30765 0.0
C658 C 0.42434 0.58095 0.33296 0.0
C659 C 0.459 0.55234 0.4064 0.0
C660 C 0.44667 0.56152 0.38112 0.0
H661 H 0.3512 0.59927 0.27959 0.0
H662 H 0.36875 0.57874 0.32073 0.0
H663 H 0.46021 0.56315 0.31203 0.0
H664 H 0.52278 0.556 0.43375 0.0
H665 H 0.50249 0.5703 0.39201 0.0
C666 C 0.01489 0.42864 0.70258 0.0
C667 C 0.03571 0.44132 0.68203 0.0
C668 C 0.01709 0.43606 0.72975 0.0
C669 C 0.05394 0.49258 0.77269 0.0
H670 H 0.03656 0.42852 0.82937 0.0
C671 C 0.08408 0.50931 0.8824 0.0
C672 C 0.06243 0.49983 0.90335 0.0
C673 C 0.08098 0.50106 0.85562 0.0
C674 C 0.04132 0.44666 0.81376 0.0
H675 H 0.07499 0.47215 0.67368 0.0
H676 H 0.07906 0.48462 0.72084 0.0
H677 H 0.02959 0.41731 0.78206 0.0
H678 H 0.02072 0.47347 0.91235 0.0
H679 H 0.01568 0.45875 0.86585 0.0
H680 H 0.06602 0.52181 0.80438 0.0
C681 C 0.06074 0.46934 0.7161 0.0
C682 C 0.03719 0.4403 0.78668 0.0
C683 C 0.05847 0.46204 0.689 0.0
C684 C 0.03808 0.48091 0.89698 0.0
C685 C 0.03509 0.4725 0.87024 0.0
C686 C 0.05824 0.49887 0.79971 0.0
C687 C 0.04024 0.45626 0.73686 0.0
C688 C 0.04355 0.46318 0.76581 0.0
C689 C 0.05626 0.48294 0.8492 0.0
C690 C 0.05205 0.47597 0.82051 0.0
H691 H 0.99715 0.41262 0.6977 0.0
H692 H 1.00071 0.42592 0.74519 0.0
H693 H 0.05858 0.51087 0.75723 0.0
H694 H 0.10331 0.52343 0.88662 0.0
H695 H 0.09788 0.50901 0.83986 0.0
C696 C 0.77574 0.89975 0.91794 0.0
C697 C 0.77907 0.8942 0.88996 0.0
C698 C 0.75134 0.91092 0.92934 0.0
C699 C 0.67597 0.91739 0.91866 0.0
H700 H 0.68434 0.97975 0.97115 0.0
C701 C 0.57969 0.97525 0.96267 0.0
C702 C 0.57923 0.98376 0.98993 0.0
C703 C 0.60372 0.96441 0.94987 0.0
C704 C 0.68142 0.96201 0.95686 0.0
H705 H 0.75891 0.89592 0.85215 0.0
H706 H 0.71627 0.91538 0.87207 0.0
H707 H 0.72642 0.96082 0.95023 0.0
H708 H 0.6037 0.98687 0.02518 0.0
H709 H 0.64496 0.96735 1.00332 0.0
H710 H 0.63094 0.9182 0.92559 0.0
C711 C 0.73261 0.91101 0.8852 0.0
C712 C 0.7057 0.95119 0.94475 0.0
C713 C 0.75719 0.90009 0.87372 0.0
C714 C 0.60328 0.98074 1.00412 0.0
C715 C 0.62716 0.96973 0.99143 0.0
C716 C 0.65162 0.92805 0.93095 0.0
C717 C 0.72938 0.91669 0.91318 0.0
C718 C 0.70336 0.92863 0.92556 0.0
C719 C 0.62793 0.96159 0.96401 0.0
C720 C 0.65392 0.95046 0.95037 0.0
H721 H 0.79221 0.8958 0.93105 0.0
H722 H 0.74955 0.91471 0.95098 0.0
H723 H 0.67328 0.89979 0.9042 0.0
H724 H 0.56163 0.97739 0.95103 0.0
H725 H 0.60345 0.95881 0.92868 0.0
C726 C 0.70233 0.13028 0.48552 0.0
C727 C 0.68687 0.12061 0.46369 0.0
C728 C 0.72795 0.11922 0.48975 0.0
C729 C 0.76757 0.05537 0.47275 0.0
H730 H 0.83258 0.1079 0.49411 0.0
C731 C 0.86687 0.00767 0.50425 0.0
C732 C 0.89364 0.02343 0.49494 0.0
C733 C 0.84208 0.02052 0.50103 0.0
C734 C 0.81467 0.09302 0.48792 0.0
H735 H 0.68628 0.09216 0.42884 0.0
H736 H 0.73089 0.07335 0.43594 0.0
H737 H 0.7884 0.1286 0.48711 0.0
H738 H 0.91547 0.06512 0.47513 0.0
H739 H 0.8719 0.08759 0.469 0.0
H740 H 0.79386 0.02001 0.47276 0.0
C741 C 0.72307 0.08894 0.45019 0.0
C742 C 0.78927 0.10478 0.48426 0.0
C743 C 0.6975 0.09986 0.44606 0.0
C744 C 0.89511 0.05255 0.48259 0.0
C745 C 0.8702 0.0654 0.47918 0.0
C746 C 0.79291 0.04368 0.47629 0.0
C747 C 0.73855 0.09836 0.47213 0.0
C748 C 0.76546 0.08606 0.47659 0.0
C749 C 0.84339 0.0494 0.48822 0.0
C750 C 0.81673 0.06231 0.48401 0.0
H751 H 0.69458 0.14635 0.49933 0.0
H752 H 0.73925 0.12669 0.50699 0.0
H753 H 0.74954 0.04023 0.46716 0.0
H754 H 0.86506 0.98553 0.51448 0.0
H755 H 0.82185 0.00787 0.50881 0.0
C756 C 0.25933 0.66317 0.16383 0.0
C757 C 0.27782 0.64249 0.17093 0.0
C758 C 0.23433 0.65344 0.15189 0.0
C759 C 0.18292 0.58652 0.14256 0.0
H760 H 0.1672 0.63189 0.07799 0.0
C761 C 0.07821 0.56053 0.09144 0.0
C762 C 0.08102 0.55843 0.06292 0.0
C763 C 0.10147 0.57202 0.10518 0.0
C764 C 0.17135 0.61898 0.09596 0.0
H765 H 0.28405 0.59515 0.17152 0.0
H766 H 0.24009 0.57811 0.15114 0.0
H767 H 0.20907 0.64896 0.10167 0.0
H768 H 0.11025 0.56755 0.02641 0.0
H769 H 0.15085 0.58789 0.05046 0.0
H770 H 0.14535 0.55637 0.13669 0.0
C771 C 0.24502 0.60188 0.15488 0.0
C772 C 0.19516 0.62889 0.10966 0.0
C773 C 0.27016 0.61165 0.16664 0.0
C774 C 0.1074 0.56887 0.04838 0.0
C775 C 0.13062 0.58061 0.06213 0.0
C776 C 0.15896 0.57678 0.12902 0.0
C777 C 0.22707 0.62275 0.14701 0.0
C778 C 0.20128 0.61267 0.13301 0.0
C779 C 0.12799 0.58192 0.09072 0.0
C780 C 0.15301 0.59281 0.10548 0.0
H781 H 0.26424 0.687 0.16737 0.0
H782 H 0.22066 0.66996 0.14647 0.0
H783 H 0.18701 0.57368 0.1606 0.0
H784 H 0.05818 0.55272 0.10328 0.0
H785 H 0.09872 0.57311 0.12718 0.0
C786 C 0.15849 0.44275 0.59088 0.0
C787 C 0.14031 0.43048 0.57187 0.0
C788 C 0.18758 0.45026 0.58369 0.0
C789 C 0.24542 0.43075 0.53663 0.0
H790 H 0.28766 0.49965 0.56722 0.0
C791 C 0.36439 0.43644 0.5524 0.0
C792 C 0.38181 0.4645 0.54924 0.0
C793 C 0.3351 0.43461 0.55048 0.0
C794 C 0.27626 0.48057 0.55811 0.0
H795 H 0.13853 0.41687 0.53017 0.0
H796 H 0.18975 0.42997 0.51756 0.0
H797 H 0.23586 0.49378 0.57149 0.0
H798 H 0.38189 0.51265 0.54117 0.0
H799 H 0.33084 0.50937 0.53729 0.0
H800 H 0.28588 0.41747 0.52334 0.0
C801 C 0.18128 0.43365 0.53811 0.0
C802 C 0.24653 0.47703 0.56083 0.0
C803 C 0.15199 0.42616 0.54532 0.0
C804 C 0.36922 0.49064 0.54357 0.0
C805 C 0.33987 0.48879 0.54158 0.0
C806 C 0.2752 0.43433 0.53384 0.0
C807 C 0.1994 0.44562 0.55732 0.0
C808 C 0.23076 0.45165 0.55079 0.0
C809 C 0.32242 0.46077 0.54525 0.0
C810 C 0.29096 0.45887 0.54518 0.0
H811 H 0.15045 0.4456 0.61174 0.0
H812 H 0.20097 0.45871 0.59921 0.0
H813 H 0.23394 0.41088 0.52876 0.0
H814 H 0.37333 0.41576 0.55635 0.0
H815 H 0.32229 0.4127 0.55379 0.0
C816 C 0.92201 0.79743 0.91361 0.0
C817 C 0.89287 0.7962 0.91025 0.0
C818 C 0.93274 0.77309 0.92606 0.0
C819 C 0.91117 0.70075 0.96831 0.0
H820 H 0.9868 0.68543 0.9416 0.0
C821 C 0.96801 0.60774 0.01938 0.0
C822 C 0.98575 0.59206 1.00234 0.0
C823 C 0.9565 0.6329 1.00908 0.0
C824 C 0.96551 0.68901 0.94921 0.0
H825 H 0.85195 0.76829 0.91738 0.0
H826 H 0.87069 0.72524 0.93836 0.0
H827 H 0.96657 0.7272 0.92151 0.0
H828 H 1.00483 0.59044 0.96089 0.0
H829 H 0.98433 0.63325 0.9429 0.0
H830 H 0.90974 0.66154 0.99519 0.0
C831 C 0.88532 0.74537 0.932 0.0
C832 C 0.95399 0.7135 0.93792 0.0
C833 C 0.87453 0.77001 0.9198 0.0
C834 C 0.99156 0.60211 0.97476 0.0
C835 C 0.97985 0.62694 0.96443 0.0
C836 C 0.9226 0.67598 0.97945 0.0
C837 C 0.91468 0.74644 0.93516 0.0
C838 C 0.92667 0.7199 0.94731 0.0
C839 C 0.9622 0.64288 0.98138 0.0
C840 C 0.94997 0.66967 0.97003 0.0
H841 H 0.93664 0.8174 0.90662 0.0
H842 H 0.95529 0.77534 0.92863 0.0
H843 H 0.89022 0.70497 0.9764 0.0
H844 H 0.96308 0.60065 0.04072 0.0
H845 H 0.94337 0.64469 0.02295 0.0
C846 C 0.38024 0.73919 0.18326 0.0
C847 C 0.36556 0.71856 0.16682 0.0
C848 C 0.39622 0.76575 0.17167 0.0
C849 C 0.43018 0.80098 0.10548 0.0
H850 H 0.42724 0.876 0.14224 0.0
C851 C 0.46605 0.91796 0.05159 0.0
C852 C 0.48205 0.93982 0.06583 0.0
C853 C 0.454 0.89043 0.0646 0.0
C854 C 0.42857 0.85516 0.13191 0.0
H855 H 0.35653 0.70955 0.12523 0.0
H856 H 0.38355 0.75624 0.10516 0.0
H857 H 0.40177 0.82898 0.16367 0.0
H858 H 0.4981 0.94988 0.10489 0.0
H859 H 0.47679 0.90168 0.12773 0.0
H860 H 0.45642 0.82737 0.07342 0.0
C861 C 0.38313 0.75171 0.12697 0.0
C862 C 0.414 0.82819 0.14419 0.0
C863 C 0.36727 0.72511 0.13853 0.0
C864 C 0.4859 0.93347 0.09336 0.0
C865 C 0.4736 0.90597 0.10647 0.0
C866 C 0.44457 0.82795 0.09314 0.0
C867 C 0.39782 0.77236 0.14338 0.0
C868 C 0.4144 0.80082 0.13098 0.0
C869 C 0.45748 0.88421 0.09221 0.0
C870 C 0.44368 0.85536 0.1061 0.0
H871 H 0.37914 0.73498 0.20516 0.0
H872 H 0.40749 0.781 0.18488 0.0
H873 H 0.43145 0.78023 0.09499 0.0
H874 H 0.46267 0.92214 0.03036 0.0
H875 H 0.44141 0.87424 0.05318 0.0
C876 C 0.05204 0.34139 0.55427 0.0
C877 C 0.05652 0.34983 0.58087 0.0
C878 C 0.04105 0.31165 0.54948 0.0
C879 C 1.00743 0.23857 0.5858 0.0
H880 H 0.03747 0.20387 0.52017 0.0
C881 C 0.02043 0.11281 0.57171 0.0
C882 C 1.00765 0.09928 0.54972 0.0
C883 C 0.02055 0.14368 0.57532 0.0
C884 C 0.02862 0.21344 0.53838 0.0
H885 H 0.05345 0.33416 0.62328 0.0
H886 H 0.03575 0.28209 0.61501 0.0
H887 H 0.04968 0.25768 0.52651 0.0
H888 H 0.98459 0.10712 0.51452 0.0
H889 H 0.98588 0.16173 0.5203 0.0
H890 H 0.98823 0.19346 0.59835 0.0
C891 C 0.03943 0.29837 0.59781 0.0
C892 C 0.03546 0.24433 0.54203 0.0
C893 C 0.04981 0.32819 0.60261 0.0
C894 C 0.99439 0.11702 0.53174 0.0
C895 C 0.9952 0.14814 0.53496 0.0
C896 C 1.00118 0.20756 0.58239 0.0
C897 C 0.03495 0.28958 0.57116 0.0
C898 C 0.02537 0.25728 0.56603 0.0
C899 C 1.00851 0.16166 0.55664 0.0
C900 C 1.01202 0.19477 0.55882 0.0
H901 H 0.05696 0.35783 0.53723 0.0
H902 H 0.03744 0.30602 0.52876 0.0
H903 H 0.99858 0.2477 0.60421 0.0
H904 H 0.03077 0.0996 0.58585 0.0
H905 H 0.0311 0.15377 0.59207 0.0
C906 C 0.5634 0.21662 0.4264 0.0
C907 C 0.59166 0.21032 0.42442 0.0
C908 C 0.55705 0.24501 0.43404 0.0
C909 C 0.58744 0.31315 0.46783 0.0
H910 H 0.52677 0.3492 0.43642 0.0
C911 C 0.56547 0.43542 0.4866 0.0
C912 C 0.53697 0.43849 0.49478 0.0
C913 C 0.57264 0.40813 0.47687 0.0
C914 C 0.54369 0.33929 0.4454 0.0
H915 H 0.63554 0.22883 0.42787 0.0
H916 H 0.62465 0.27861 0.44049 0.0
H917 H 0.53852 0.30051 0.42123 0.0
H918 H 0.49359 0.41563 0.49873 0.0
H919 H 0.50614 0.36812 0.48141 0.0
H920 H 0.59281 0.35229 0.49166 0.0
C921 C 0.60723 0.26147 0.43703 0.0
C922 C 0.55035 0.31136 0.43683 0.0
C923 C 0.61351 0.233 0.42972 0.0
C924 C 0.51575 0.41392 0.49265 0.0
C925 C 0.52288 0.3868 0.48259 0.0
C926 C 0.581 0.34123 0.47613 0.0
C927 C 0.5789 0.26777 0.4395 0.0
C928 C 0.57219 0.29784 0.44808 0.0
C929 C 0.55139 0.38359 0.4748 0.0
C930 C 0.55894 0.35444 0.46514 0.0
H931 H 0.54619 0.1994 0.42254 0.0
H932 H 0.53496 0.24889 0.43614 0.0
H933 H 0.60403 0.3032 0.47732 0.0
H934 H 0.58228 0.45396 0.48804 0.0
H935 H 0.59477 0.40623 0.47083 0.0
loop_
_geom_bond_atom_site_label_1
_geom_bond_atom_site_label_2
_geom_bond_distance
_geom_bond_site_symmetry_2
_ccdc_geom_bond_type
H0 C5 0.930 . S
H1 C8 0.930 . S
H2 C10 0.930 . S
H3 C4 1.016 . S
C4 H3 1.016 . S
C4 N11 1.286 . S
C5 H0 0.930 . S
C5 C6 1.397 . S
C5 C7 1.361 . S
C6 C5 1.397 . S
C6 C10 1.390 . S
C7 C5 1.361 . S
C7 C8 1.393 . S
C7 N11 1.413 . S
C8 H1 0.930 . S
C8 C7 1.393 . S
C8 C9 1.399 . S
C9 C8 1.399 . S
C9 C10 1.381 . S
C10 H2 0.930 . S
C10 C6 1.390 . S
C10 C9 1.381 . S
N11 C4 1.286 . S
N11 C7 1.413 . S
H12 C17 0.930 . S
H13 C20 0.930 . S
H14 C22 0.930 . S
H15 C16 1.016 . S
C16 H15 1.016 . S
C16 N23 1.286 . S
C17 H12 0.930 . S
C17 C18 1.397 . S
C17 C19 1.361 . S
C18 C17 1.397 . S
C18 C22 1.390 . S
C19 C17 1.361 . S
C19 C20 1.393 . S
C19 N23 1.413 . S
C20 H13 0.930 . S
C20 C19 1.393 . S
C20 C21 1.399 . S
C21 C20 1.399 . S
C21 C22 1.381 . S
C22 H14 0.930 . S
C22 C18 1.390 . S
C22 C21 1.381 . S
N23 C16 1.286 . S
N23 C19 1.413 . S
H24 C29 0.930 . S
H25 C32 0.930 . S
H26 C34 0.930 . S
H27 C28 1.016 . S
C28 H27 1.016 . S
C28 N35 1.286 . S
C29 H24 0.930 . S
C29 C30 1.397 . S
C29 C31 1.361 . S
C30 C29 1.397 . S
C30 C34 1.390 . S
C31 C29 1.361 . S
C31 C32 1.393 . S
C31 N35 1.413 . S
C32 H25 0.930 . S
C32 C31 1.393 . S
C32 C33 1.399 . S
C33 C32 1.399 . S
C33 C34 1.381 . S
C34 H26 0.930 . S
C34 C30 1.390 . S
C34 C33 1.381 . S
N35 C28 1.286 . S
N35 C31 1.413 . S
H36 C41 0.930 . S
H37 C44 0.930 . S
H38 C46 0.930 . S
H39 C40 1.016 . S
C40 H39 1.016 . S
C40 N47 1.286 . S
C41 H36 0.930 . S
C41 C42 1.397 . S
C41 C43 1.361 . S
C42 C41 1.397 . S
C42 C46 1.390 . S
C43 C41 1.361 . S
C43 C44 1.393 . S
C43 N47 1.413 . S
C44 H37 0.930 . S
C44 C43 1.393 . S
C44 C45 1.399 . S
C45 C44 1.399 . S
C45 C46 1.381 . S
C46 H38 0.930 . S
C46 C42 1.390 . S
C46 C45 1.381 . S
N47 C40 1.286 . S
N47 C43 1.413 . S
H48 C53 0.930 . S
H49 C56 0.930 . S
H50 C58 0.930 . S
H51 C52 1.016 . S
C52 H51 1.016 . S
C52 N59 1.286 . S
C53 H48 0.930 . S
C53 C54 1.397 . S
C53 C55 1.361 . S
C54 C53 1.397 . S
C54 C58 1.390 . S
C55 C53 1.361 . S
C55 C56 1.393 . S
C55 N59 1.413 . S
C56 H49 0.930 . S
C56 C55 1.393 . S
C56 C57 1.399 . S
C57 C56 1.399 . S
C57 C58 1.381 . S
C58 H50 0.930 . S
C58 C54 1.390 . S
C58 C57 1.381 . S
N59 C52 1.286 . S
N59 C55 1.413 . S
H60 C65 0.930 . S
H61 C68 0.930 . S
H62 C70 0.930 . S
H63 C64 1.016 . S
C64 H63 1.016 . S
C64 N71 1.286 . S
C65 H60 0.930 . S
C65 C66 1.397 . S
C65 C67 1.361 . S
C66 C65 1.397 . S
C66 C70 1.390 . S
C67 C65 1.361 . S
C67 C68 1.393 . S
C67 N71 1.413 . S
C68 H61 0.930 . S
C68 C67 1.393 . S
C68 C69 1.399 . S
C69 C68 1.399 . S
C69 C70 1.381 . S
C70 H62 0.930 . S
C70 C66 1.390 . S
C70 C69 1.381 . S
N71 C64 1.286 . S
N71 C67 1.413 . S
H72 C77 0.930 . S
H73 C80 0.930 . S
H74 C82 0.930 . S
H75 C76 1.016 . S
C76 H75 1.016 . S
C76 N83 1.286 . S
C77 H72 0.930 . S
C77 C78 1.397 . S
C77 C79 1.361 . S
C78 C77 1.397 . S
C78 C82 1.390 . S
C79 C77 1.361 . S
C79 C80 1.393 . S
C79 N83 1.413 . S
C80 H73 0.930 . S
C80 C79 1.393 . S
C80 C81 1.399 . S
C81 C80 1.399 . S
C81 C82 1.381 . S
C82 H74 0.930 . S
C82 C78 1.390 . S
C82 C81 1.381 . S
N83 C76 1.286 . S
N83 C79 1.413 . S
H84 C89 0.930 . S
H85 C92 0.930 . S
H86 C94 0.930 . S
H87 C88 1.016 . S
C88 H87 1.016 . S
C88 N95 1.286 . S
C89 H84 0.930 . S
C89 C90 1.397 . S
C89 C91 1.361 . S
C90 C89 1.397 . S
C90 C94 1.390 . S
C91 C89 1.361 . S
C91 C92 1.393 . S
C91 N95 1.413 . S
C92 H85 0.930 . S
C92 C91 1.393 . S
C92 C93 1.399 . S
C93 C92 1.399 . S
C93 C94 1.381 . S
C94 H86 0.930 . S
C94 C90 1.390 . S
C94 C93 1.381 . S
N95 C88 1.286 . S
N95 C91 1.413 . S
Co96 N101 2.057 . S
Co96 O113 2.021 . S
Co96 O116 2.062 . S
Co96 O120 2.117 1_545 S
Co96 O121 2.029 . S
C97 O117 1.259 1_655 S
C97 O120 1.258 . S
Co98 N107 2.057 . S
Co98 O114 2.117 1_565 S
Co98 O115 2.020 1_565 S
Co98 O117 2.021 . S
Co98 O122 2.062 . S
C99 N101 1.316 . S
C99 N102 1.347 . S
C99 H104 0.931 . S
C100 N101 1.375 1_565 S
C100 C103 1.350 1_565 S
C100 H105 0.930 . S
N101 Co96 2.057 . S
N101 C99 1.316 . S
N101 C100 1.375 1_545 S
N102 C99 1.347 . S
N102 C103 1.373 . S
C103 C100 1.350 1_545 S
C103 N102 1.373 . S
C103 H124 0.931 1_545 S
H104 C99 0.931 . S
H105 C100 0.930 . S
C106 O113 1.259 1_455 S
C106 O114 1.258 . S
N107 Co98 2.057 . S
N107 C108 1.316 . S
N107 C109 1.375 1_565 S
C108 N107 1.316 . S
C108 N110 1.347 . S
C108 H119 0.931 . S
C109 N107 1.375 1_545 S
C109 C111 1.350 . S
C109 H118 0.930 . S
N110 C108 1.347 . S
N110 C111 1.373 1_565 S
C111 C109 1.350 . S
C111 N110 1.373 1_545 S
C111 H125 0.931 . S
C112 O115 1.256 . S
C112 O116 1.255 1_455 S
O113 Co96 2.021 . S
O113 C106 1.259 1_655 S
O114 Co98 2.117 1_545 S
O114 C106 1.258 . S
O115 Co98 2.020 1_545 S
O115 C112 1.256 . S
O116 Co96 2.062 . S
O116 C112 1.255 1_655 S
O117 C97 1.259 1_455 S
O117 Co98 2.021 . S
H118 C109 0.930 . S
H119 C108 0.931 . S
O120 Co96 2.117 1_565 S
O120 C97 1.258 . S
O121 Co96 2.029 . S
O121 C123 1.242 1_545 S
O122 Co98 2.062 . S
O122 C123 1.255 1_455 S
C123 O121 1.242 1_565 S
C123 O122 1.255 1_655 S
H124 C103 0.931 1_565 S
H125 C111 0.931 . S
Co126 N131 2.057 1_545 S
Co126 O143 2.021 . S
Co126 O146 2.062 . S
Co126 O150 2.117 1_546 S
Co126 O151 2.020 1_556 S
C127 O147 1.259 . S
C127 O150 1.258 . S
Co128 N137 2.057 . S
Co128 O144 2.117 . S
Co128 O145 2.020 . S
Co128 O147 2.021 1_545 S
Co128 O152 2.062 . S
C129 N131 1.316 . S
C129 N132 1.347 . S
C129 H134 0.931 1_565 S
C130 N131 1.375 . S
C130 C133 1.350 . S
C130 H135 0.930 . S
N131 Co126 2.057 1_565 S
N131 C129 1.316 . S
N131 C130 1.375 . S
N132 C129 1.347 . S
N132 C133 1.373 . S
C133 C130 1.350 . S
C133 N132 1.373 . S
C133 H154 0.931 . S
H134 C129 0.931 1_545 S
H135 C130 0.930 . S
C136 O143 1.259 . S
C136 O144 1.258 1_556 S
N137 Co128 2.057 . S
N137 C138 1.316 . S
N137 C139 1.375 . S
C138 N137 1.316 . S
C138 N140 1.347 . S
C138 H149 0.931 . S
C139 N137 1.375 . S
C139 C141 1.350 . S
C139 H148 0.930 . S
N140 C138 1.347 . S
N140 C141 1.373 . S
C141 C139 1.350 . S
C141 N140 1.373 . S
C141 H155 0.931 . S
C142 O145 1.270 . S
C142 O146 1.244 1_554 S
O143 Co126 2.021 . S
O143 C136 1.259 . S
O144 Co128 2.117 . S
O144 C136 1.258 1_554 S
O145 Co128 2.020 . S
O145 C142 1.270 . S
O146 Co126 2.062 . S
O146 C142 1.244 1_556 S
O147 C127 1.259 . S
O147 Co128 2.021 1_565 S
H148 C139 0.930 . S
H149 C138 0.931 . S
O150 Co126 2.117 1_564 S
O150 C127 1.258 . S
O151 Co126 2.020 1_554 S
O151 C153 1.256 . S
O152 Co128 2.062 . S
O152 C153 1.255 . S
C153 O151 1.256 . S
C153 O152 1.255 . S
H154 C133 0.931 . S
H155 C141 0.931 . S
Co156 N161 2.057 . S
Co156 O173 2.021 . S
Co156 O176 2.062 . S
Co156 O180 2.117 . S
Co156 O181 2.020 . S
C157 O177 1.259 . S
C157 O180 1.258 . S
Co158 N167 2.057 . S
Co158 O174 2.117 . S
Co158 O175 2.020 . S
Co158 O177 2.021 . S
Co158 O182 2.062 . S
C159 N161 1.316 . S
C159 N162 1.347 . S
C159 H164 0.931 . S
C160 N161 1.375 . S
C160 C163 1.350 . S
C160 H165 0.930 . S
N161 Co156 2.057 . S
N161 C159 1.316 . S
N161 C160 1.375 . S
N162 C159 1.347 . S
N162 C163 1.373 . S
C163 C160 1.350 . S
C163 N162 1.373 . S
C163 H184 0.931 . S
H164 C159 0.931 . S
H165 C160 0.930 . S
C166 O173 1.259 . S
C166 O174 1.258 . S
N167 Co158 2.057 . S
N167 C168 1.316 . S
N167 C169 1.375 . S
C168 N167 1.316 . S
C168 N170 1.347 . S
C168 H179 0.931 . S
C169 N167 1.375 . S
C169 C171 1.350 . S
C169 H178 0.930 . S
N170 C168 1.347 . S
N170 C171 1.373 . S
C171 C169 1.350 . S
C171 N170 1.373 . S
C171 H185 0.931 . S
C172 O175 1.256 . S
C172 O176 1.255 . S
O173 Co156 2.021 . S
O173 C166 1.259 . S
O174 Co158 2.117 . S
O174 C166 1.258 . S
O175 Co158 2.020 . S
O175 C172 1.256 . S
O176 Co156 2.062 . S
O176 C172 1.255 . S
O177 C157 1.259 . S
O177 Co158 2.021 . S
H178 C169 0.930 . S
H179 C168 0.931 . S
O180 Co156 2.117 . S
O180 C157 1.258 . S
O181 Co156 2.020 . S
O181 C183 1.256 . S
O182 Co158 2.062 . S
O182 C183 1.255 . S
C183 O181 1.256 . S
C183 O182 1.255 . S
H184 C163 0.931 . S
H185 C171 0.931 . S
Co186 N191 2.057 . S
Co186 O203 2.021 . S
Co186 O206 2.062 1_556 S
Co186 O210 2.117 1_455 S
Co186 O211 2.020 . S
C187 O207 1.259 . S
C187 O210 1.258 1_554 S
Co188 N197 2.057 . S
Co188 O204 2.117 1_655 S
Co188 O205 2.020 1_655 S
Co188 O207 2.021 . S
Co188 O212 2.062 . S
C189 N191 1.316 . S
C189 N192 1.347 . S
C189 H194 0.931 . S
C190 N191 1.375 . S
C190 C193 1.350 . S
C190 H195 0.930 1_455 S
N191 Co186 2.057 . S
N191 C189 1.316 . S
N191 C190 1.375 . S
N192 C189 1.347 . S
N192 C193 1.373 . S
C193 C190 1.350 . S
C193 N192 1.373 . S
C193 H214 0.931 . S
H194 C189 0.931 . S
H195 C190 0.930 1_655 S
C196 O203 1.259 1_554 S
C196 O204 1.258 . S
N197 Co188 2.057 . S
N197 C198 1.316 . S
N197 C199 1.375 1_655 S
C198 N197 1.316 . S
C198 N200 1.347 . S
C198 H209 0.931 . S
C199 N197 1.375 1_455 S
C199 C201 1.350 . S
C199 H208 0.930 . S
N200 C198 1.347 . S
N200 C201 1.373 1_655 S
C201 C199 1.350 . S
C201 N200 1.373 1_455 S
C201 H215 0.931 . S
C202 O205 1.256 . S
C202 O206 1.255 . S
O203 Co186 2.021 . S
O203 C196 1.259 1_556 S
O204 Co188 2.117 1_455 S
O204 C196 1.258 . S
O205 Co188 2.020 1_455 S
O205 C202 1.256 . S
O206 Co186 2.062 1_554 S
O206 C202 1.255 . S
O207 C187 1.259 . S
O207 Co188 2.021 . S
H208 C199 0.930 . S
H209 C198 0.931 . S
O210 Co186 2.117 1_655 S
O210 C187 1.258 1_556 S
O211 Co186 2.020 . S
O211 C213 1.240 1_456 S
O212 Co188 2.062 . S
O212 C213 1.271 . S
C213 O211 1.240 1_654 S
C213 O212 1.271 . S
H214 C193 0.931 . S
H215 C201 0.931 . S
C216 C217 1.349 . S
C216 C218 1.327 . S
C216 H241 0.950 . S
C217 C216 1.349 . S
C217 C233 1.349 . S
C218 C216 1.327 . S
C218 C237 1.429 . S
C218 H242 0.950 . S
C219 C236 1.574 . S
C219 C238 1.368 . S
C219 H243 0.949 . S
H220 C224 0.949 . S
C221 C222 1.349 . S
C221 C223 1.327 . S
C221 H244 0.950 . S
C222 C221 1.349 . S
C222 C234 1.349 . S
C223 C221 1.327 . S
C223 C239 1.429 . S
C223 H245 0.950 . S
C224 H220 0.949 . S
C224 C232 1.574 . S
C224 C240 1.368 . S
H225 C233 0.950 . S
H226 C231 0.950 . S
H227 C232 0.949 . S
H228 C234 0.950 . S
H229 C235 0.950 . S
H230 C236 0.949 . S
C231 H226 0.950 . S
C231 C233 1.327 . S
C231 C237 1.429 . S
C232 C224 1.574 . S
C232 H227 0.949 . S
C232 C238 1.368 . S
C233 C217 1.349 . S
C233 H225 0.950 . S
C233 C231 1.327 . S
C234 C222 1.349 . S
C234 H228 0.950 . S
C234 C235 1.327 . S
C235 H229 0.950 . S
C235 C234 1.327 . S
C235 C239 1.429 . S
C236 C219 1.574 . S
C236 H230 0.949 . S
C236 C240 1.368 . S
C237 C218 1.429 . S
C237 C231 1.429 . S
C237 C238 1.523 . S
C238 C219 1.368 . S
C238 C232 1.368 . S
C238 C237 1.523 . S
C239 C223 1.429 . S
C239 C235 1.429 . S
C239 C240 1.523 . S
C240 C224 1.368 . S
C240 C236 1.368 . S
C240 C239 1.523 . S
H241 C216 0.950 . S
H242 C218 0.950 . S
H243 C219 0.949 . S
H244 C221 0.950 . S
H245 C223 0.950 . S
C246 C247 1.349 . S
C246 C248 1.327 . S
C246 H271 0.950 . S
C247 C246 1.349 . S
C247 C263 1.349 . S
C248 C246 1.327 . S
C248 C267 1.429 . S
C248 H272 0.950 . S
C249 C266 1.574 . S
C249 C268 1.368 . S
C249 H273 0.949 . S
H250 C254 0.949 . S
C251 C252 1.349 . S
C251 C253 1.327 . S
C251 H274 0.950 . S
C252 C251 1.349 . S
C252 C264 1.349 . S
C253 C251 1.327 . S
C253 C269 1.429 . S
C253 H275 0.950 . S
C254 H250 0.949 . S
C254 C262 1.574 . S
C254 C270 1.368 . S
H255 C263 0.950 . S
H256 C261 0.950 . S
H257 C262 0.949 . S
H258 C264 0.950 . S
H259 C265 0.950 . S
H260 C266 0.949 . S
C261 H256 0.950 . S
C261 C263 1.327 . S
C261 C267 1.429 . S
C262 C254 1.574 . S
C262 H257 0.949 . S
C262 C268 1.368 . S
C263 C247 1.349 . S
C263 H255 0.950 . S
C263 C261 1.327 . S
C264 C252 1.349 . S
C264 H258 0.950 . S
C264 C265 1.327 . S
C265 H259 0.950 . S
C265 C264 1.327 . S
C265 C269 1.429 . S
C266 C249 1.574 . S
C266 H260 0.949 . S
C266 C270 1.368 . S
C267 C248 1.429 . S
C267 C261 1.429 . S
C267 C268 1.523 . S
C268 C249 1.368 . S
C268 C262 1.368 . S
C268 C267 1.523 . S
C269 C253 1.429 . S
C269 C265 1.429 . S
C269 C270 1.523 . S
C270 C254 1.368 . S
C270 C266 1.368 . S
C270 C269 1.523 . S
H271 C246 0.950 . S
H272 C248 0.950 . S
H273 C249 0.949 . S
H274 C251 0.950 . S
H275 C253 0.950 . S
C276 C277 1.349 . S
C276 C278 1.327 . S
C276 H301 0.950 . S
C277 C276 1.349 . S
C277 C293 1.349 . S
C278 C276 1.327 . S
C278 C297 1.429 . S
C278 H302 0.950 . S
C279 C296 1.574 . S
C279 C298 1.368 . S
C279 H303 0.949 . S
H280 C284 0.949 . S
C281 C282 1.349 . S
C281 C283 1.327 . S
C281 H304 0.950 . S
C282 C281 1.349 . S
C282 C294 1.349 . S
C283 C281 1.327 . S
C283 C299 1.429 . S
C283 H305 0.950 . S
C284 H280 0.949 . S
C284 C292 1.574 . S
C284 C300 1.368 . S
H285 C293 0.950 . S
H286 C291 0.950 . S
H287 C292 0.949 . S
H288 C294 0.950 . S
H289 C295 0.950 . S
H290 C296 0.949 . S
C291 H286 0.950 . S
C291 C293 1.327 . S
C291 C297 1.429 . S
C292 C284 1.574 . S
C292 H287 0.949 . S
C292 C298 1.368 . S
C293 C277 1.349 . S
C293 H285 0.950 . S
C293 C291 1.327 . S
C294 C282 1.349 . S
C294 H288 0.950 . S
C294 C295 1.327 . S
C295 H289 0.950 . S
C295 C294 1.327 . S
C295 C299 1.429 . S
C296 C279 1.574 . S
C296 H290 0.949 . S
C296 C300 1.368 . S
C297 C278 1.429 . S
C297 C291 1.429 . S
C297 C298 1.523 . S
C298 C279 1.368 . S
C298 C292 1.368 . S
C298 C297 1.523 . S
C299 C283 1.429 . S
C299 C295 1.429 . S
C299 C300 1.523 . S
C300 C284 1.368 . S
C300 C296 1.368 . S
C300 C299 1.523 . S
H301 C276 0.950 . S
H302 C278 0.950 . S
H303 C279 0.949 . S
H304 C281 0.950 . S
H305 C283 0.950 . S
C306 C307 1.349 . S
C306 C308 1.327 . S
C306 H331 0.950 . S
C307 C306 1.349 . S
C307 C323 1.349 . S
C308 C306 1.327 . S
C308 C327 1.429 . S
C308 H332 0.950 . S
C309 C326 1.574 . S
C309 C328 1.368 . S
C309 H333 0.949 . S
H310 C314 0.949 . S
C311 C312 1.349 . S
C311 C313 1.327 . S
C311 H334 0.950 . S
C312 C311 1.349 . S
C312 C324 1.349 . S
C313 C311 1.327 . S
C313 C329 1.429 . S
C313 H335 0.950 . S
C314 H310 0.949 . S
C314 C322 1.574 . S
C314 C330 1.368 . S
H315 C323 0.950 . S
H316 C321 0.950 . S
H317 C322 0.949 . S
H318 C324 0.950 . S
H319 C325 0.950 . S
H320 C326 0.949 . S
C321 H316 0.950 . S
C321 C323 1.327 . S
C321 C327 1.429 . S
C322 C314 1.574 . S
C322 H317 0.949 . S
C322 C328 1.368 . S
C323 C307 1.349 . S
C323 H315 0.950 . S
C323 C321 1.327 . S
C324 C312 1.349 . S
C324 H318 0.950 . S
C324 C325 1.327 . S
C325 H319 0.950 . S
C325 C324 1.327 . S
C325 C329 1.429 . S
C326 C309 1.574 . S
C326 H320 0.949 . S
C326 C330 1.368 . S
C327 C308 1.429 . S
C327 C321 1.429 . S
C327 C328 1.523 . S
C328 C309 1.368 . S
C328 C322 1.368 . S
C328 C327 1.523 . S
C329 C313 1.429 . S
C329 C325 1.429 . S
C329 C330 1.523 . S
C330 C314 1.368 . S
C330 C326 1.368 . S
C330 C329 1.523 . S
H331 C306 0.950 . S
H332 C308 0.950 . S
H333 C309 0.949 . S
H334 C311 0.950 . S
H335 C313 0.950 . S
C336 C337 1.349 . S
C336 C338 1.327 . S
C336 H361 0.950 . S
C337 C336 1.349 . S
C337 C353 1.349 . S
C338 C336 1.327 . S
C338 C357 1.429 . S
C338 H362 0.950 . S
C339 C356 1.574 . S
C339 C358 1.368 . S
C339 H363 0.949 . S
H340 C344 0.949 . S
C341 C342 1.349 . S
C341 C343 1.327 . S
C341 H364 0.950 . S
C342 C341 1.349 . S
C342 C354 1.349 . S
C343 C341 1.327 . S
C343 C359 1.429 . S
C343 H365 0.950 . S
C344 H340 0.949 . S
C344 C352 1.574 . S
C344 C360 1.368 . S
H345 C353 0.950 . S
H346 C351 0.950 . S
H347 C352 0.949 . S
H348 C354 0.950 . S
H349 C355 0.950 . S
H350 C356 0.949 . S
C351 H346 0.950 . S
C351 C353 1.327 . S
C351 C357 1.429 . S
C352 C344 1.574 . S
C352 H347 0.949 . S
C352 C358 1.368 . S
C353 C337 1.349 . S
C353 H345 0.950 . S
C353 C351 1.327 . S
C354 C342 1.349 . S
C354 H348 0.950 . S
C354 C355 1.327 . S
C355 H349 0.950 . S
C355 C354 1.327 . S
C355 C359 1.429 . S
C356 C339 1.574 . S
C356 H350 0.949 . S
C356 C360 1.368 . S
C357 C338 1.429 . S
C357 C351 1.429 . S
C357 C358 1.523 . S
C358 C339 1.368 . S
C358 C352 1.368 . S
C358 C357 1.523 . S
C359 C343 1.429 . S
C359 C355 1.429 . S
C359 C360 1.523 . S
C360 C344 1.368 . S
C360 C356 1.368 . S
C360 C359 1.523 . S
H361 C336 0.950 . S
H362 C338 0.950 . S
H363 C339 0.949 . S
H364 C341 0.950 . S
H365 C343 0.950 . S
C366 C367 1.349 . S
C366 C368 1.327 . S
C366 H391 0.950 . S
C367 C366 1.349 . S
C367 C383 1.349 . S
C368 C366 1.327 . S
C368 C387 1.429 . S
C368 H392 0.950 . S
C369 C386 1.574 . S
C369 C388 1.368 . S
C369 H393 0.949 . S
H370 C374 0.949 . S
C371 C372 1.349 . S
C371 C373 1.327 . S
C371 H394 0.950 . S
C372 C371 1.349 . S
C372 C384 1.349 . S
C373 C371 1.327 . S
C373 C389 1.429 . S
C373 H395 0.950 . S
C374 H370 0.949 . S
C374 C382 1.574 . S
C374 C390 1.368 . S
H375 C383 0.950 . S
H376 C381 0.950 . S
H377 C382 0.949 . S
H378 C384 0.950 . S
H379 C385 0.950 . S
H380 C386 0.949 . S
C381 H376 0.950 . S
C381 C383 1.327 . S
C381 C387 1.429 . S
C382 C374 1.574 . S
C382 H377 0.949 . S
C382 C388 1.368 . S
C383 C367 1.349 . S
C383 H375 0.950 . S
C383 C381 1.327 . S
C384 C372 1.349 . S
C384 H378 0.950 . S
C384 C385 1.327 . S
C385 H379 0.950 . S
C385 C384 1.327 . S
C385 C389 1.429 . S
C386 C369 1.574 . S
C386 H380 0.949 . S
C386 C390 1.368 . S
C387 C368 1.429 . S
C387 C381 1.429 . S
C387 C388 1.523 . S
C388 C369 1.368 . S
C388 C382 1.368 . S
C388 C387 1.523 . S
C389 C373 1.429 . S
C389 C385 1.429 . S
C389 C390 1.523 . S
C390 C374 1.368 . S
C390 C386 1.368 . S
C390 C389 1.523 . S
H391 C366 0.950 . S
H392 C368 0.950 . S
H393 C369 0.949 . S
H394 C371 0.950 . S
H395 C373 0.950 . S
C396 C397 1.349 . S
C396 C398 1.327 . S
C396 H421 0.950 . S
C397 C396 1.349 . S
C397 C413 1.349 . S
C398 C396 1.327 . S
C398 C417 1.429 . S
C398 H422 0.950 . S
C399 C416 1.574 . S
C399 C418 1.368 . S
C399 H423 0.949 . S
H400 C404 0.949 . S
C401 C402 1.349 . S
C401 C403 1.327 . S
C401 H424 0.950 1_556 S
C402 C401 1.349 . S
C402 C414 1.349 . S
C403 C401 1.327 . S
C403 C419 1.429 . S
C403 H425 0.950 . S
C404 H400 0.949 . S
C404 C412 1.574 . S
C404 C420 1.368 . S
H405 C413 0.950 . S
H406 C411 0.950 . S
H407 C412 0.949 . S
H408 C414 0.950 . S
H409 C415 0.950 . S
H410 C416 0.949 . S
C411 H406 0.950 . S
C411 C413 1.327 . S
C411 C417 1.429 . S
C412 C404 1.574 . S
C412 H407 0.949 . S
C412 C418 1.368 . S
C413 C397 1.349 . S
C413 H405 0.950 . S
C413 C411 1.327 . S
C414 C402 1.349 . S
C414 H408 0.950 . S
C414 C415 1.327 . S
C415 H409 0.950 . S
C415 C414 1.327 . S
C415 C419 1.429 . S
C416 C399 1.574 . S
C416 H410 0.949 . S
C416 C420 1.368 . S
C417 C398 1.429 . S
C417 C411 1.429 . S
C417 C418 1.523 . S
C418 C399 1.368 . S
C418 C412 1.368 . S
C418 C417 1.523 . S
C419 C403 1.429 . S
C419 C415 1.429 . S
C419 C420 1.523 . S
C420 C404 1.368 . S
C420 C416 1.368 . S
C420 C419 1.523 . S
H421 C396 0.950 . S
H422 C398 0.950 . S
H423 C399 0.949 . S
H424 C401 0.950 1_554 S
H425 C403 0.950 . S
C426 C427 1.349 . S
C426 C428 1.327 . S
C426 H451 0.950 . S
C427 C426 1.349 . S
C427 C443 1.349 . S
C428 C426 1.327 . S
C428 C447 1.429 . S
C428 H452 0.950 . S
C429 C446 1.574 . S
C429 C448 1.368 . S
C429 H453 0.949 . S
H430 C434 0.949 . S
C431 C432 1.349 . S
C431 C433 1.327 . S
C431 H454 0.950 . S
C432 C431 1.349 . S
C432 C444 1.349 . S
C433 C431 1.327 . S
C433 C449 1.429 . S
C433 H455 0.950 . S
C434 H430 0.949 . S
C434 C442 1.574 . S
C434 C450 1.368 . S
H435 C443 0.950 . S
H436 C441 0.950 . S
H437 C442 0.949 . S
H438 C444 0.950 . S
H439 C445 0.950 . S
H440 C446 0.949 . S
C441 H436 0.950 . S
C441 C443 1.327 . S
C441 C447 1.429 . S
C442 C434 1.574 . S
C442 H437 0.949 . S
C442 C448 1.368 . S
C443 C427 1.349 . S
C443 H435 0.950 . S
C443 C441 1.327 . S
C444 C432 1.349 . S
C444 H438 0.950 . S
C444 C445 1.327 . S
C445 H439 0.950 . S
C445 C444 1.327 . S
C445 C449 1.429 . S
C446 C429 1.574 . S
C446 H440 0.949 . S
C446 C450 1.368 . S
C447 C428 1.429 . S
C447 C441 1.429 . S
C447 C448 1.523 . S
C448 C429 1.368 . S
C448 C442 1.368 . S
C448 C447 1.523 . S
C449 C433 1.429 . S
C449 C445 1.429 . S
C449 C450 1.523 . S
C450 C434 1.368 . S
C450 C446 1.368 . S
C450 C449 1.523 . S
H451 C426 0.950 . S
H452 C428 0.950 . S
H453 C429 0.949 . S
H454 C431 0.950 . S
H455 C433 0.950 . S
C456 C457 1.349 . S
C456 C458 1.327 . S
C456 H481 0.950 . S
C457 C456 1.349 . S
C457 C473 1.349 . S
C458 C456 1.327 . S
C458 C477 1.429 . S
C458 H482 0.950 . S
C459 C476 1.574 . S
C459 C478 1.368 . S
C459 H483 0.949 . S
H460 C464 0.949 . S
C461 C462 1.349 . S
C461 C463 1.327 . S
C461 H484 0.950 . S
C462 C461 1.349 . S
C462 C474 1.349 . S
C463 C461 1.327 . S
C463 C479 1.429 . S
C463 H485 0.950 . S
C464 H460 0.949 . S
C464 C472 1.574 . S
C464 C480 1.368 . S
H465 C473 0.950 . S
H466 C471 0.950 . S
H467 C472 0.949 . S
H468 C474 0.950 . S
H469 C475 0.950 . S
H470 C476 0.949 . S
C471 H466 0.950 . S
C471 C473 1.327 . S
C471 C477 1.429 . S
C472 C464 1.574 . S
C472 H467 0.949 . S
C472 C478 1.368 . S
C473 C457 1.349 . S
C473 H465 0.950 . S
C473 C471 1.327 . S
C474 C462 1.349 . S
C474 H468 0.950 . S
C474 C475 1.327 . S
C475 H469 0.950 . S
C475 C474 1.327 . S
C475 C479 1.429 . S
C476 C459 1.574 . S
C476 H470 0.949 . S
C476 C480 1.368 . S
C477 C458 1.429 . S
C477 C471 1.429 . S
C477 C478 1.523 . S
C478 C459 1.368 . S
C478 C472 1.368 . S
C478 C477 1.523 . S
C479 C463 1.429 . S
C479 C475 1.429 . S
C479 C480 1.523 . S
C480 C464 1.368 . S
C480 C476 1.368 . S
C480 C479 1.523 . S
H481 C456 0.950 . S
H482 C458 0.950 . S
H483 C459 0.949 . S
H484 C461 0.950 . S
H485 C463 0.950 . S
C486 C487 1.349 . S
C486 C488 1.327 . S
C486 H511 0.950 . S
C487 C486 1.349 . S
C487 C503 1.349 . S
C488 C486 1.327 . S
C488 C507 1.429 . S
C488 H512 0.950 . S
C489 C506 1.574 . S
C489 C508 1.368 . S
C489 H513 0.949 . S
H490 C494 0.949 . S
C491 C492 1.349 . S
C491 C493 1.327 . S
C491 H514 0.950 . S
C492 C491 1.349 . S
C492 C504 1.349 1_556 S
C493 C491 1.327 . S
C493 C509 1.429 . S
C493 H515 0.950 . S
C494 H490 0.949 . S
C494 C502 1.574 . S
C494 C510 1.368 . S
H495 C503 0.950 . S
H496 C501 0.950 . S
H497 C502 0.949 . S
H498 C504 0.950 . S
H499 C505 0.950 1_554 S
H500 C506 0.949 . S
C501 H496 0.950 . S
C501 C503 1.327 . S
C501 C507 1.429 . S
C502 C494 1.574 . S
C502 H497 0.949 . S
C502 C508 1.368 . S
C503 C487 1.349 . S
C503 H495 0.950 . S
C503 C501 1.327 . S
C504 C492 1.349 1_554 S
C504 H498 0.950 . S
C504 C505 1.327 1_554 S
C505 H499 0.950 1_556 S
C505 C504 1.327 1_556 S
C505 C509 1.429 . S
C506 C489 1.574 . S
C506 H500 0.949 . S
C506 C510 1.368 . S
C507 C488 1.429 . S
C507 C501 1.429 . S
C507 C508 1.523 . S
C508 C489 1.368 . S
C508 C502 1.368 . S
C508 C507 1.523 . S
C509 C493 1.429 . S
C509 C505 1.429 . S
C509 C510 1.523 . S
C510 C494 1.368 . S
C510 C506 1.368 . S
C510 C509 1.523 . S
H511 C486 0.950 . S
H512 C488 0.950 . S
H513 C489 0.949 . S
H514 C491 0.950 . S
H515 C493 0.950 . S
C516 C517 1.349 . S
C516 C518 1.327 . S
C516 H541 0.950 . S
C517 C516 1.349 . S
C517 C533 1.349 . S
C518 C516 1.327 . S
C518 C537 1.429 . S
C518 H542 0.950 . S
C519 C536 1.574 . S
C519 C538 1.368 . S
C519 H543 0.949 . S
H520 C524 0.949 . S
C521 C522 1.349 . S
C521 C523 1.327 . S
C521 H544 0.950 . S
C522 C521 1.349 . S
C522 C534 1.349 . S
C523 C521 1.327 . S
C523 C539 1.429 . S
C523 H545 0.950 . S
C524 H520 0.949 . S
C524 C532 1.574 . S
C524 C540 1.368 . S
H525 C533 0.950 . S
H526 C531 0.950 . S
H527 C532 0.949 . S
H528 C534 0.950 . S
H529 C535 0.950 . S
H530 C536 0.949 . S
C531 H526 0.950 . S
C531 C533 1.327 . S
C531 C537 1.429 . S
C532 C524 1.574 . S
C532 H527 0.949 . S
C532 C538 1.368 . S
C533 C517 1.349 . S
C533 H525 0.950 . S
C533 C531 1.327 . S
C534 C522 1.349 . S
C534 H528 0.950 . S
C534 C535 1.327 . S
C535 H529 0.950 . S
C535 C534 1.327 . S
C535 C539 1.429 . S
C536 C519 1.574 . S
C536 H530 0.949 . S
C536 C540 1.368 . S
C537 C518 1.429 . S
C537 C531 1.429 . S
C537 C538 1.523 . S
C538 C519 1.368 . S
C538 C532 1.368 . S
C538 C537 1.523 . S
C539 C523 1.429 . S
C539 C535 1.429 . S
C539 C540 1.523 . S
C540 C524 1.368 . S
C540 C536 1.368 . S
C540 C539 1.523 . S
H541 C516 0.950 . S
H542 C518 0.950 . S
H543 C519 0.949 . S
H544 C521 0.950 . S
H545 C523 0.950 . S
C546 C547 1.349 . S
C546 C548 1.327 . S
C546 H571 0.950 . S
C547 C546 1.349 . S
C547 C563 1.349 . S
C548 C546 1.327 . S
C548 C567 1.429 . S
C548 H572 0.950 . S
C549 C566 1.574 . S
C549 C568 1.368 . S
C549 H573 0.949 . S
H550 C554 0.949 . S
C551 C552 1.349 . S
C551 C553 1.327 . S
C551 H574 0.950 . S
C552 C551 1.349 . S
C552 C564 1.349 . S
C553 C551 1.327 . S
C553 C569 1.429 . S
C553 H575 0.950 . S
C554 H550 0.949 . S
C554 C562 1.574 . S
C554 C570 1.368 . S
H555 C563 0.950 . S
H556 C561 0.950 . S
H557 C562 0.949 . S
H558 C564 0.950 . S
H559 C565 0.950 . S
H560 C566 0.949 . S
C561 H556 0.950 . S
C561 C563 1.327 . S
C561 C567 1.429 . S
C562 C554 1.574 . S
C562 H557 0.949 . S
C562 C568 1.368 . S
C563 C547 1.349 . S
C563 H555 0.950 . S
C563 C561 1.327 . S
C564 C552 1.349 . S
C564 H558 0.950 . S
C564 C565 1.327 . S
C565 H559 0.950 . S
C565 C564 1.327 . S
C565 C569 1.429 . S
C566 C549 1.574 . S
C566 H560 0.949 . S
C566 C570 1.368 . S
C567 C548 1.429 . S
C567 C561 1.429 . S
C567 C568 1.523 . S
C568 C549 1.368 . S
C568 C562 1.368 . S
C568 C567 1.523 . S
C569 C553 1.429 . S
C569 C565 1.429 . S
C569 C570 1.523 . S
C570 C554 1.368 . S
C570 C566 1.368 . S
C570 C569 1.523 . S
H571 C546 0.950 . S
H572 C548 0.950 . S
H573 C549 0.949 . S
H574 C551 0.950 . S
H575 C553 0.950 . S
C576 C577 1.349 . S
C576 C578 1.327 . S
C576 H601 0.950 . S
C577 C576 1.349 . S
C577 C593 1.349 . S
C578 C576 1.327 . S
C578 C597 1.429 . S
C578 H602 0.950 . S
C579 C596 1.574 . S
C579 C598 1.368 . S
C579 H603 0.949 . S
H580 C584 0.949 . S
C581 C582 1.349 . S
C581 C583 1.327 . S
C581 H604 0.950 1_565 S
C582 C581 1.349 . S
C582 C594 1.349 . S
C583 C581 1.327 . S
C583 C599 1.429 . S
C583 H605 0.950 1_565 S
C584 H580 0.949 . S
C584 C592 1.574 . S
C584 C600 1.368 . S
H585 C593 0.950 . S
H586 C591 0.950 . S
H587 C592 0.949 . S
H588 C594 0.950 . S
H589 C595 0.950 . S
H590 C596 0.949 . S
C591 H586 0.950 . S
C591 C593 1.327 . S
C591 C597 1.429 . S
C592 C584 1.574 . S
C592 H587 0.949 . S
C592 C598 1.368 . S
C593 C577 1.349 . S
C593 H585 0.950 . S
C593 C591 1.327 . S
C594 C582 1.349 . S
C594 H588 0.950 . S
C594 C595 1.327 . S
C595 H589 0.950 . S
C595 C594 1.327 . S
C595 C599 1.429 . S
C596 C579 1.574 . S
C596 H590 0.949 . S
C596 C600 1.368 . S
C597 C578 1.429 . S
C597 C591 1.429 . S
C597 C598 1.523 . S
C598 C579 1.368 . S
C598 C592 1.368 . S
C598 C597 1.523 . S
C599 C583 1.429 . S
C599 C595 1.429 . S
C599 C600 1.523 . S
C600 C584 1.368 . S
C600 C596 1.368 . S
C600 C599 1.523 . S
H601 C576 0.950 . S
H602 C578 0.950 . S
H603 C579 0.949 . S
H604 C581 0.950 1_545 S
H605 C583 0.950 1_545 S
C606 C607 1.349 . S
C606 C608 1.327 . S
C606 H631 0.950 . S
C607 C606 1.349 . S
C607 C623 1.349 . S
C608 C606 1.327 . S
C608 C627 1.429 . S
C608 H632 0.950 . S
C609 C626 1.574 . S
C609 C628 1.368 . S
C609 H633 0.949 . S
H610 C614 0.949 . S
C611 C612 1.349 . S
C611 C613 1.327 . S
C611 H634 0.950 . S
C612 C611 1.349 . S
C612 C624 1.349 . S
C613 C611 1.327 . S
C613 C629 1.429 . S
C613 H635 0.950 . S
C614 H610 0.949 . S
C614 C622 1.574 . S
C614 C630 1.368 . S
H615 C623 0.950 . S
H616 C621 0.950 . S
H617 C622 0.949 . S
H618 C624 0.950 . S
H619 C625 0.950 . S
H620 C626 0.949 . S
C621 H616 0.950 . S
C621 C623 1.327 . S
C621 C627 1.429 . S
C622 C614 1.574 . S
C622 H617 0.949 . S
C622 C628 1.368 . S
C623 C607 1.349 . S
C623 H615 0.950 . S
C623 C621 1.327 . S
C624 C612 1.349 . S
C624 H618 0.950 . S
C624 C625 1.327 . S
C625 H619 0.950 . S
C625 C624 1.327 . S
C625 C629 1.429 . S
C626 C609 1.574 . S
C626 H620 0.949 . S
C626 C630 1.368 . S
C627 C608 1.429 . S
C627 C621 1.429 . S
C627 C628 1.523 . S
C628 C609 1.368 . S
C628 C622 1.368 . S
C628 C627 1.523 . S
C629 C613 1.429 . S
C629 C625 1.429 . S
C629 C630 1.523 . S
C630 C614 1.368 . S
C630 C626 1.368 . S
C630 C629 1.523 . S
H631 C606 0.950 . S
H632 C608 0.950 . S
H633 C609 0.949 . S
H634 C611 0.950 . S
H635 C613 0.950 . S
C636 C637 1.349 . S
C636 C638 1.327 . S
C636 H661 0.950 . S
C637 C636 1.349 . S
C637 C653 1.349 . S
C638 C636 1.327 . S
C638 C657 1.429 . S
C638 H662 0.950 . S
C639 C656 1.574 . S
C639 C658 1.368 . S
C639 H663 0.949 . S
H640 C644 0.949 . S
C641 C642 1.349 . S
C641 C643 1.327 . S
C641 H664 0.950 . S
C642 C641 1.349 . S
C642 C654 1.349 . S
C643 C641 1.327 . S
C643 C659 1.429 . S
C643 H665 0.950 . S
C644 H640 0.949 . S
C644 C652 1.574 . S
C644 C660 1.368 . S
H645 C653 0.950 . S
H646 C651 0.950 . S
H647 C652 0.949 . S
H648 C654 0.950 . S
H649 C655 0.950 . S
H650 C656 0.949 . S
C651 H646 0.950 . S
C651 C653 1.327 . S
C651 C657 1.429 . S
C652 C644 1.574 . S
C652 H647 0.949 . S
C652 C658 1.368 . S
C653 C637 1.349 . S
C653 H645 0.950 . S
C653 C651 1.327 . S
C654 C642 1.349 . S
C654 H648 0.950 . S
C654 C655 1.327 . S
C655 H649 0.950 . S
C655 C654 1.327 . S
C655 C659 1.429 . S
C656 C639 1.574 . S
C656 H650 0.949 . S
C656 C660 1.368 . S
C657 C638 1.429 . S
C657 C651 1.429 . S
C657 C658 1.523 . S
C658 C639 1.368 . S
C658 C652 1.368 . S
C658 C657 1.523 . S
C659 C643 1.429 . S
C659 C655 1.429 . S
C659 C660 1.523 . S
C660 C644 1.368 . S
C660 C656 1.368 . S
C660 C659 1.523 . S
H661 C636 0.950 . S
H662 C638 0.950 . S
H663 C639 0.949 . S
H664 C641 0.950 . S
H665 C643 0.950 . S
C666 C667 1.349 . S
C666 C668 1.327 . S
C666 H691 0.950 . S
C667 C666 1.349 . S
C667 C683 1.349 . S
C668 C666 1.327 . S
C668 C687 1.429 . S
C668 H692 0.950 . S
C669 C686 1.574 . S
C669 C688 1.368 . S
C669 H693 0.949 . S
H670 C674 0.949 . S
C671 C672 1.349 . S
C671 C673 1.327 . S
C671 H694 0.950 . S
C672 C671 1.349 . S
C672 C684 1.349 . S
C673 C671 1.327 . S
C673 C689 1.429 . S
C673 H695 0.950 . S
C674 H670 0.949 . S
C674 C682 1.574 . S
C674 C690 1.368 . S
H675 C683 0.950 . S
H676 C681 0.950 . S
H677 C682 0.949 . S
H678 C684 0.950 . S
H679 C685 0.950 . S
H680 C686 0.949 . S
C681 H676 0.950 . S
C681 C683 1.327 . S
C681 C687 1.429 . S
C682 C674 1.574 . S
C682 H677 0.949 . S
C682 C688 1.368 . S
C683 C667 1.349 . S
C683 H675 0.950 . S
C683 C681 1.327 . S
C684 C672 1.349 . S
C684 H678 0.950 . S
C684 C685 1.327 . S
C685 H679 0.950 . S
C685 C684 1.327 . S
C685 C689 1.429 . S
C686 C669 1.574 . S
C686 H680 0.949 . S
C686 C690 1.368 . S
C687 C668 1.429 . S
C687 C681 1.429 . S
C687 C688 1.523 . S
C688 C669 1.368 . S
C688 C682 1.368 . S
C688 C687 1.523 . S
C689 C673 1.429 . S
C689 C685 1.429 . S
C689 C690 1.523 . S
C690 C674 1.368 . S
C690 C686 1.368 . S
C690 C689 1.523 . S
H691 C666 0.950 . S
H692 C668 0.950 . S
H693 C669 0.949 . S
H694 C671 0.950 . S
H695 C673 0.950 . S
C696 C697 1.349 . S
C696 C698 1.327 . S
C696 H721 0.950 . S
C697 C696 1.349 . S
C697 C713 1.349 . S
C698 C696 1.327 . S
C698 C717 1.429 . S
C698 H722 0.950 . S
C699 C716 1.574 . S
C699 C718 1.368 . S
C699 H723 0.949 . S
H700 C704 0.949 . S
C701 C702 1.349 . S
C701 C703 1.327 . S
C701 H724 0.950 . S
C702 C701 1.349 . S
C702 C714 1.372 . S
C703 C701 1.327 . S
C703 C719 1.429 . S
C703 H725 0.950 . S
C704 H700 0.949 . S
C704 C712 1.574 . S
C704 C720 1.368 . S
H705 C713 0.950 . S
H706 C711 0.950 . S
H707 C712 0.949 . S
H708 C714 0.918 1_544 S
H709 C715 0.947 1_544 S
H710 C716 0.949 . S
C711 H706 0.950 . S
C711 C713 1.327 . S
C711 C717 1.429 . S
C712 C704 1.574 . S
C712 H707 0.949 . S
C712 C718 1.368 . S
C713 C697 1.349 . S
C713 H705 0.950 . S
C713 C711 1.327 . S
C714 C702 1.372 . S
C714 H708 0.918 1_566 S
C714 C715 1.337 . S
C715 H709 0.947 1_566 S
C715 C714 1.337 . S
C715 C719 1.429 . S
C716 C699 1.574 . S
C716 H710 0.949 . S
C716 C720 1.368 . S
C717 C698 1.429 . S
C717 C711 1.429 . S
C717 C718 1.523 . S
C718 C699 1.368 . S
C718 C712 1.368 . S
C718 C717 1.523 . S
C719 C703 1.429 . S
C719 C715 1.429 . S
C719 C720 1.523 . S
C720 C704 1.368 . S
C720 C716 1.368 . S
C720 C719 1.523 . S
H721 C696 0.950 . S
H722 C698 0.950 . S
H723 C699 0.949 . S
H724 C701 0.950 . S
H725 C703 0.950 . S
C726 C727 1.349 . S
C726 C728 1.327 . S
C726 H751 0.950 . S
C727 C726 1.349 . S
C727 C743 1.349 . S
C728 C726 1.327 . S
C728 C747 1.429 . S
C728 H752 0.950 . S
C729 C746 1.574 . S
C729 C748 1.368 . S
C729 H753 0.949 . S
H730 C734 0.949 . S
C731 C732 1.349 . S
C731 C733 1.327 . S
C731 H754 0.950 . S
C732 C731 1.349 . S
C732 C744 1.349 . S
C733 C731 1.327 . S
C733 C749 1.429 . S
C733 H755 0.950 . S
C734 H730 0.949 . S
C734 C742 1.574 . S
C734 C750 1.368 . S
H735 C743 0.950 . S
H736 C741 0.950 . S
H737 C742 0.949 . S
H738 C744 0.950 . S
H739 C745 0.950 . S
H740 C746 0.949 . S
C741 H736 0.950 . S
C741 C743 1.327 . S
C741 C747 1.429 . S
C742 C734 1.574 . S
C742 H737 0.949 . S
C742 C748 1.368 . S
C743 C727 1.349 . S
C743 H735 0.950 . S
C743 C741 1.327 . S
C744 C732 1.349 . S
C744 H738 0.950 . S
C744 C745 1.327 . S
C745 H739 0.950 . S
C745 C744 1.327 . S
C745 C749 1.429 . S
C746 C729 1.574 . S
C746 H740 0.949 . S
C746 C750 1.368 . S
C747 C728 1.429 . S
C747 C741 1.429 . S
C747 C748 1.523 . S
C748 C729 1.368 . S
C748 C742 1.368 . S
C748 C747 1.523 . S
C749 C733 1.429 . S
C749 C745 1.429 . S
C749 C750 1.523 . S
C750 C734 1.368 . S
C750 C746 1.368 . S
C750 C749 1.523 . S
H751 C726 0.950 . S
H752 C728 0.950 . S
H753 C729 0.949 . S
H754 C731 0.950 . S
H755 C733 0.950 . S
C756 C757 1.349 . S
C756 C758 1.327 . S
C756 H781 0.950 . S
C757 C756 1.349 . S
C757 C773 1.349 . S
C758 C756 1.327 . S
C758 C777 1.429 . S
C758 H782 0.950 . S
C759 C776 1.574 . S
C759 C778 1.368 . S
C759 H783 0.949 . S
H760 C764 0.949 . S
C761 C762 1.349 . S
C761 C763 1.327 . S
C761 H784 0.950 . S
C762 C761 1.349 . S
C762 C774 1.349 . S
C763 C761 1.327 . S
C763 C779 1.429 . S
C763 H785 0.950 . S
C764 H760 0.949 . S
C764 C772 1.574 . S
C764 C780 1.368 . S
H765 C773 0.950 . S
H766 C771 0.950 . S
H767 C772 0.949 . S
H768 C774 0.950 . S
H769 C775 0.950 . S
H770 C776 0.949 . S
C771 H766 0.950 . S
C771 C773 1.327 . S
C771 C777 1.429 . S
C772 C764 1.574 . S
C772 H767 0.949 . S
C772 C778 1.368 . S
C773 C757 1.349 . S
C773 H765 0.950 . S
C773 C771 1.327 . S
C774 C762 1.349 . S
C774 H768 0.950 . S
C774 C775 1.327 . S
C775 H769 0.950 . S
C775 C774 1.327 . S
C775 C779 1.429 . S
C776 C759 1.574 . S
C776 H770 0.949 . S
C776 C780 1.368 . S
C777 C758 1.429 . S
C777 C771 1.429 . S
C777 C778 1.523 . S
C778 C759 1.368 . S
C778 C772 1.368 . S
C778 C777 1.523 . S
C779 C763 1.429 . S
C779 C775 1.429 . S
C779 C780 1.523 . S
C780 C764 1.368 . S
C780 C776 1.368 . S
C780 C779 1.523 . S
H781 C756 0.950 . S
H782 C758 0.950 . S
H783 C759 0.949 . S
H784 C761 0.950 . S
H785 C763 0.950 . S
C786 C787 1.349 . S
C786 C788 1.327 . S
C786 H811 0.950 . S
C787 C786 1.349 . S
C787 C803 1.349 . S
C788 C786 1.327 . S
C788 C807 1.429 . S
C788 H812 0.950 . S
C789 C806 1.574 . S
C789 C808 1.368 . S
C789 H813 0.949 . S
H790 C794 0.949 . S
C791 C792 1.349 . S
C791 C793 1.327 . S
C791 H814 0.950 . S
C792 C791 1.349 . S
C792 C804 1.349 . S
C793 C791 1.327 . S
C793 C809 1.429 . S
C793 H815 0.950 . S
C794 H790 0.949 . S
C794 C802 1.574 . S
C794 C810 1.368 . S
H795 C803 0.950 . S
H796 C801 0.950 . S
H797 C802 0.949 . S
H798 C804 0.950 . S
H799 C805 0.950 . S
H800 C806 0.949 . S
C801 H796 0.950 . S
C801 C803 1.327 . S
C801 C807 1.429 . S
C802 C794 1.574 . S
C802 H797 0.949 . S
C802 C808 1.368 . S
C803 C787 1.349 . S
C803 H795 0.950 . S
C803 C801 1.327 . S
C804 C792 1.349 . S
C804 H798 0.950 . S
C804 C805 1.327 . S
C805 H799 0.950 . S
C805 C804 1.327 . S
C805 C809 1.429 . S
C806 C789 1.574 . S
C806 H800 0.949 . S
C806 C810 1.368 . S
C807 C788 1.429 . S
C807 C801 1.429 . S
C807 C808 1.523 . S
C808 C789 1.368 . S
C808 C802 1.368 . S
C808 C807 1.523 . S
C809 C793 1.429 . S
C809 C805 1.429 . S
C809 C810 1.523 . S
C810 C794 1.368 . S
C810 C806 1.368 . S
C810 C809 1.523 . S
H811 C786 0.950 . S
H812 C788 0.950 . S
H813 C789 0.949 . S
H814 C791 0.950 . S
H815 C793 0.950 . S
C816 C817 1.349 . S
C816 C818 1.327 . S
C816 H841 0.950 . S
C817 C816 1.349 . S
C817 C833 1.349 . S
C818 C816 1.327 . S
C818 C837 1.429 . S
C818 H842 0.950 . S
C819 C836 1.574 . S
C819 C838 1.368 . S
C819 H843 0.949 . S
H820 C824 0.949 . S
C821 C822 1.349 1_554 S
C821 C823 1.327 . S
C821 H844 0.950 . S
C822 C821 1.349 1_556 S
C822 C834 1.340 1_655 S
C823 C821 1.327 . S
C823 C839 1.429 1_554 S
C823 H845 0.950 . S
C824 H820 0.949 . S
C824 C832 1.574 . S
C824 C840 1.368 . S
H825 C833 0.950 . S
H826 C831 0.950 . S
H827 C832 0.949 . S
H828 C834 0.978 . S
H829 C835 0.946 1_455 S
H830 C836 0.949 1_554 S
C831 H826 0.950 . S
C831 C833 1.327 . S
C831 C837 1.429 . S
C832 C824 1.574 . S
C832 H827 0.949 . S
C832 C838 1.368 . S
C833 C817 1.349 . S
C833 H825 0.950 . S
C833 C831 1.327 . S
C834 C822 1.340 1_455 S
C834 H828 0.978 . S
C834 C835 1.310 1_455 S
C835 H829 0.946 1_655 S
C835 C834 1.310 1_655 S
C835 C839 1.429 . S
C836 C819 1.574 . S
C836 H830 0.949 1_556 S
C836 C840 1.368 . S
C837 C818 1.429 . S
C837 C831 1.429 . S
C837 C838 1.523 . S
C838 C819 1.368 . S
C838 C832 1.368 . S
C838 C837 1.523 . S
C839 C823 1.429 1_556 S
C839 C835 1.429 . S
C839 C840 1.523 . S
C840 C824 1.368 . S
C840 C836 1.368 . S
C840 C839 1.523 . S
H841 C816 0.950 . S
H842 C818 0.950 . S
H843 C819 0.949 . S
H844 C821 0.950 . S
H845 C823 0.950 . S
C846 C847 1.349 . S
C846 C848 1.327 . S
C846 H871 0.950 . S
C847 C846 1.349 . S
C847 C863 1.349 . S
C848 C846 1.327 . S
C848 C867 1.429 . S
C848 H872 0.950 . S
C849 C866 1.574 . S
C849 C868 1.368 . S
C849 H873 0.949 . S
H850 C854 0.949 . S
C851 C852 1.349 . S
C851 C853 1.327 . S
C851 H874 0.950 . S
C852 C851 1.349 . S
C852 C864 1.349 . S
C853 C851 1.327 . S
C853 C869 1.429 . S
C853 H875 0.950 . S
C854 H850 0.949 . S
C854 C862 1.574 . S
C854 C870 1.368 . S
H855 C863 0.950 . S
H856 C861 0.950 . S
H857 C862 0.949 . S
H858 C864 0.950 . S
H859 C865 0.950 . S
H860 C866 0.949 . S
C861 H856 0.950 . S
C861 C863 1.327 . S
C861 C867 1.429 . S
C862 C854 1.574 . S
C862 H857 0.949 . S
C862 C868 1.368 . S
C863 C847 1.349 . S
C863 H855 0.950 . S
C863 C861 1.327 . S
C864 C852 1.349 . S
C864 H858 0.950 . S
C864 C865 1.327 . S
C865 H859 0.950 . S
C865 C864 1.327 . S
C865 C869 1.429 . S
C866 C849 1.574 . S
C866 H860 0.949 . S
C866 C870 1.368 . S
C867 C848 1.429 . S
C867 C861 1.429 . S
C867 C868 1.523 . S
C868 C849 1.368 . S
C868 C862 1.368 . S
C868 C867 1.523 . S
C869 C853 1.429 . S
C869 C865 1.429 . S
C869 C870 1.523 . S
C870 C854 1.368 . S
C870 C866 1.368 . S
C870 C869 1.523 . S
H871 C846 0.950 . S
H872 C848 0.950 . S
H873 C849 0.949 . S
H874 C851 0.950 . S
H875 C853 0.950 . S
C876 C877 1.349 . S
C876 C878 1.327 . S
C876 H901 0.950 . S
C877 C876 1.349 . S
C877 C893 1.349 . S
C878 C876 1.327 . S
C878 C897 1.429 . S
C878 H902 0.950 . S
C879 C896 1.574 . S
C879 C898 1.368 . S
C879 H903 0.949 . S
H880 C884 0.949 . S
C881 C882 1.349 . S
C881 C883 1.327 . S
C881 H904 0.960 . S
C882 C881 1.349 . S
C882 C894 1.349 . S
C883 C881 1.327 . S
C883 C899 1.429 . S
C883 H905 0.950 . S
C884 H880 0.949 . S
C884 C892 1.574 . S
C884 C900 1.368 . S
H885 C893 0.950 . S
H886 C891 0.950 . S
H887 C892 0.949 . S
H888 C894 0.950 . S
H889 C895 0.950 . S
H890 C896 0.949 . S
C891 H886 0.950 . S
C891 C893 1.327 . S
C891 C897 1.429 . S
C892 C884 1.574 . S
C892 H887 0.949 . S
C892 C898 1.368 . S
C893 C877 1.349 . S
C893 H885 0.950 . S
C893 C891 1.327 . S
C894 C882 1.349 . S
C894 H888 0.950 . S
C894 C895 1.327 . S
C895 H889 0.950 . S
C895 C894 1.327 . S
C895 C899 1.429 . S
C896 C879 1.574 . S
C896 H890 0.949 . S
C896 C900 1.368 . S
C897 C878 1.429 . S
C897 C891 1.429 . S
C897 C898 1.523 . S
C898 C879 1.368 . S
C898 C892 1.368 . S
C898 C897 1.523 . S
C899 C883 1.429 . S
C899 C895 1.429 . S
C899 C900 1.523 . S
C900 C884 1.368 . S
C900 C896 1.368 . S
C900 C899 1.523 . S
H901 C876 0.950 . S
H902 C878 0.950 . S
H903 C879 0.949 . S
H904 C881 0.960 . S
H905 C883 0.950 . S
C906 C907 1.349 . S
C906 C908 1.327 . S
C906 H931 0.950 . S
C907 C906 1.349 . S
C907 C923 1.349 . S
C908 C906 1.327 . S
C908 C927 1.429 . S
C908 H932 0.950 . S
C909 C926 1.574 . S
C909 C928 1.368 . S
C909 H933 0.949 . S
H910 C914 0.949 . S
C911 C912 1.349 . S
C911 C913 1.327 . S
C911 H934 0.950 . S
C912 C911 1.349 . S
C912 C924 1.349 . S
C913 C911 1.327 . S
C913 C929 1.429 . S
C913 H935 0.950 . S
C914 H910 0.949 . S
C914 C922 1.574 . S
C914 C930 1.368 . S
H915 C923 0.950 . S
H916 C921 0.950 . S
H917 C922 0.949 . S
H918 C924 0.950 . S
H919 C925 0.950 . S
H920 C926 0.949 . S
C921 H916 0.950 . S
C921 C923 1.327 . S
C921 C927 1.429 . S
C922 C914 1.574 . S
C922 H917 0.949 . S
C922 C928 1.368 . S
C923 C907 1.349 . S
C923 H915 0.950 . S
C923 C921 1.327 . S
C924 C912 1.349 . S
C924 H918 0.950 . S
C924 C925 1.327 . S
C925 H919 0.950 . S
C925 C924 1.327 . S
C925 C929 1.429 . S
C926 C909 1.574 . S
C926 H920 0.949 . S
C926 C930 1.368 . S
C927 C908 1.429 . S
C927 C921 1.429 . S
C927 C928 1.523 . S
C928 C909 1.368 . S
C928 C922 1.368 . S
C928 C927 1.523 . S
C929 C913 1.429 . S
C929 C925 1.429 . S
C929 C930 1.523 . S
C930 C914 1.368 . S
C930 C926 1.368 . S
C930 C929 1.523 . S
H931 C906 0.950 . S
H932 C908 0.950 . S
H933 C909 0.949 . S
H934 C911 0.950 . S
H935 C913 0.950 . S
C217 C6 2.352 . S
C222 C112 2.360 . S
C247 C18 1.392 . S
C252 N132 1.380 . S
C282 C166 2.009 . S
C277 C28 1.985 . S
C307 C40 0.732 . S
C312 N200 0.735 . S
C342 C153 2.655 . S
C337 C9 2.644 . S
C372 N110 1.112 . S
C367 C16 1.138 . S
C402 C187 1.957 1_556 S
C397 C30 1.955 . S
C432 N162 0.710 . S
C427 C42 0.707 . S
C457 C4 1.783 . S
C462 C202 1.797 . S
C492 C136 1.725 . S
C487 C33 1.717 . S
C517 C45 1.087 . S
C522 C97 1.094 . S
C547 C21 1.734 . S
C552 C183 1.754 . S
C582 C123 2.411 . S
C577 C57 2.404 . S
C607 C66 1.381 . S
C612 N140 1.360 . S
C637 C76 2.044 . S
C642 C157 2.057 . S
C667 C88 0.681 . S
C672 N192 0.691 . S
C697 C54 2.612 . S
C702 C142 2.613 1_566 S
C732 N102 1.157 . S
C727 C64 1.176 . S
C762 C196 1.836 . S
C757 C78 1.818 . S
C792 N170 0.738 . S
C787 C93 0.737 . S
C817 C52 1.719 . S
C822 C213 1.740 1_556 S
C852 C127 1.734 . S
C847 C81 1.718 . S
C882 C106 1.084 . S
C877 C90 1.082 . S
C907 C69 1.788 . S
C912 C172 1.800 . S
