# Generated by pormake.
# Topology bwt, (3,3)-cn, num edge types: 1
# Building blocks:
#     Node 0, Type 0, BuildingBlock: WUSLED_clean_sbu_0, # of connection points: 3
#     Node 1, Type 0, BuildingBlock: WUSLED_clean_sbu_0, # of connection points: 3
#     Node 2, Type 0, BuildingBlock: WUSLED_clean_sbu_0, # of connection points: 3
#     Node 3, Type 0, BuildingBlock: WUSLED_clean_sbu_0, # of connection points: 3
#     Node 4, Type 0, BuildingBlock: WUSLED_clean_sbu_0, # of connection points: 3
#     Node 5, Type 0, BuildingBlock: WUSLED_clean_sbu_0, # of connection points: 3
#     Node 6, Type 0, BuildingBlock: WUSLED_clean_sbu_0, # of connection points: 3
#     Node 7, Type 0, BuildingBlock: WUSLED_clean_sbu_0, # of connection points: 3
#     Node 8, Type 0, BuildingBlock: WUSLED_clean_sbu_0, # of connection points: 3
#     Node 9, Type 0, BuildingBlock: WUSLED_clean_sbu_0, # of connection points: 3
#     Node 10, Type 0, BuildingBlock: WUSLED_clean_sbu_0, # of connection points: 3
#     Node 11, Type 0, BuildingBlock: WUSLED_clean_sbu_0, # of connection points: 3
#     Node 12, Type 0, BuildingBlock: WUSLED_clean_sbu_0, # of connection points: 3
#     Node 13, Type 0, BuildingBlock: WUSLED_clean_sbu_0, # of connection points: 3
#     Node 14, Type 0, BuildingBlock: WUSLED_clean_sbu_0, # of connection points: 3
#     Node 15, Type 0, BuildingBlock: WUSLED_clean_sbu_0, # of connection points: 3
#     Node 16, Type 0, BuildingBlock: WUSLED_clean_sbu_0, # of connection points: 3
#     Node 17, Type 0, BuildingBlock: WUSLED_clean_sbu_0, # of connection points: 3
#     Node 18, Type 0, BuildingBlock: WUSLED_clean_sbu_0, # of connection points: 3
#     Node 19, Type 0, BuildingBlock: WUSLED_clean_sbu_0, # of connection points: 3
#     Node 20, Type 0, BuildingBlock: WUSLED_clean_sbu_0, # of connection points: 3
#     Node 21, Type 0, BuildingBlock: WUSLED_clean_sbu_0, # of connection points: 3
#     Node 22, Type 0, BuildingBlock: WUSLED_clean_sbu_0, # of connection points: 3
#     Node 23, Type 0, BuildingBlock: WUSLED_clean_sbu_0, # of connection points: 3
#     Node 24, Type 1, BuildingBlock: MIDCAF_clean_linker_0, # of connection points: 3
#     Node 25, Type 1, BuildingBlock: MIDCAF_clean_linker_0, # of connection points: 3
#     Node 26, Type 1, BuildingBlock: MIDCAF_clean_linker_0, # of connection points: 3
#     Node 27, Type 1, BuildingBlock: MIDCAF_clean_linker_0, # of connection points: 3
#     Node 28, Type 1, BuildingBlock: MIDCAF_clean_linker_0, # of connection points: 3
#     Node 29, Type 1, BuildingBlock: MIDCAF_clean_linker_0, # of connection points: 3
#     Node 30, Type 1, BuildingBlock: MIDCAF_clean_linker_0, # of connection points: 3
#     Node 31, Type 1, BuildingBlock: MIDCAF_clean_linker_0, # of connection points: 3
#     Node 32, Type 1, BuildingBlock: MIDCAF_clean_linker_0, # of connection points: 3
#     Node 33, Type 1, BuildingBlock: MIDCAF_clean_linker_0, # of connection points: 3
#     Node 34, Type 1, BuildingBlock: MIDCAF_clean_linker_0, # of connection points: 3
#     Node 35, Type 1, BuildingBlock: MIDCAF_clean_linker_0, # of connection points: 3
#     Node 36, Type 1, BuildingBlock: MIDCAF_clean_linker_0, # of connection points: 3
#     Node 37, Type 1, BuildingBlock: MIDCAF_clean_linker_0, # of connection points: 3
#     Node 38, Type 1, BuildingBlock: MIDCAF_clean_linker_0, # of connection points: 3
#     Node 39, Type 1, BuildingBlock: MIDCAF_clean_linker_0, # of connection points: 3
#     Node 40, Type 1, BuildingBlock: MIDCAF_clean_linker_0, # of connection points: 3
#     Node 41, Type 1, BuildingBlock: MIDCAF_clean_linker_0, # of connection points: 3
#     Node 42, Type 1, BuildingBlock: MIDCAF_clean_linker_0, # of connection points: 3
#     Node 43, Type 1, BuildingBlock: MIDCAF_clean_linker_0, # of connection points: 3
#     Node 44, Type 1, BuildingBlock: MIDCAF_clean_linker_0, # of connection points: 3
#     Node 45, Type 1, BuildingBlock: MIDCAF_clean_linker_0, # of connection points: 3
#     Node 46, Type 1, BuildingBlock: MIDCAF_clean_linker_0, # of connection points: 3
#     Node 47, Type 1, BuildingBlock: MIDCAF_clean_linker_0, # of connection points: 3
#     Edge 48, Type (0, 1), BuildingBlock: AJUNOK_clean_linker_0, # of connection points: 2
#     Edge 49, Type (0, 1), BuildingBlock: AJUNOK_clean_linker_0, # of connection points: 2
#     Edge 50, Type (0, 1), BuildingBlock: AJUNOK_clean_linker_0, # of connection points: 2
#     Edge 51, Type (0, 1), BuildingBlock: AJUNOK_clean_linker_0, # of connection points: 2
#     Edge 52, Type (0, 1), BuildingBlock: AJUNOK_clean_linker_0, # of connection points: 2
#     Edge 53, Type (0, 1), BuildingBlock: AJUNOK_clean_linker_0, # of connection points: 2
#     Edge 54, Type (0, 1), BuildingBlock: AJUNOK_clean_linker_0, # of connection points: 2
#     Edge 55, Type (0, 1), BuildingBlock: AJUNOK_clean_linker_0, # of connection points: 2
#     Edge 56, Type (0, 1), BuildingBlock: AJUNOK_clean_linker_0, # of connection points: 2
#     Edge 57, Type (0, 1), BuildingBlock: AJUNOK_clean_linker_0, # of connection points: 2
#     Edge 58, Type (0, 1), BuildingBlock: AJUNOK_clean_linker_0, # of connection points: 2
#     Edge 59, Type (0, 1), BuildingBlock: AJUNOK_clean_linker_0, # of connection points: 2
#     Edge 60, Type (0, 1), BuildingBlock: AJUNOK_clean_linker_0, # of connection points: 2
#     Edge 61, Type (0, 1), BuildingBlock: AJUNOK_clean_linker_0, # of connection points: 2
#     Edge 62, Type (0, 1), BuildingBlock: AJUNOK_clean_linker_0, # of connection points: 2
#     Edge 63, Type (0, 1), BuildingBlock: AJUNOK_clean_linker_0, # of connection points: 2
#     Edge 64, Type (0, 1), BuildingBlock: AJUNOK_clean_linker_0, # of connection points: 2
#     Edge 65, Type (0, 1), BuildingBlock: AJUNOK_clean_linker_0, # of connection points: 2
#     Edge 66, Type (0, 1), BuildingBlock: AJUNOK_clean_linker_0, # of connection points: 2
#     Edge 67, Type (0, 1), BuildingBlock: AJUNOK_clean_linker_0, # of connection points: 2
#     Edge 68, Type (0, 1), BuildingBlock: AJUNOK_clean_linker_0, # of connection points: 2
#     Edge 69, Type (0, 1), BuildingBlock: AJUNOK_clean_linker_0, # of connection points: 2
#     Edge 70, Type (0, 1), BuildingBlock: AJUNOK_clean_linker_0, # of connection points: 2
#     Edge 71, Type (0, 1), BuildingBlock: AJUNOK_clean_linker_0, # of connection points: 2
#     Edge 72, Type (0, 1), BuildingBlock: AJUNOK_clean_linker_0, # of connection points: 2
#     Edge 73, Type (0, 1), BuildingBlock: AJUNOK_clean_linker_0, # of connection points: 2
#     Edge 74, Type (0, 1), BuildingBlock: AJUNOK_clean_linker_0, # of connection points: 2
#     Edge 75, Type (0, 1), BuildingBlock: AJUNOK_clean_linker_0, # of connection points: 2
#     Edge 76, Type (0, 1), BuildingBlock: AJUNOK_clean_linker_0, # of connection points: 2
#     Edge 77, Type (0, 1), BuildingBlock: AJUNOK_clean_linker_0, # of connection points: 2
#     Edge 78, Type (0, 1), BuildingBlock: AJUNOK_clean_linker_0, # of connection points: 2
#     Edge 79, Type (0, 1), BuildingBlock: AJUNOK_clean_linker_0, # of connection points: 2
#     Edge 80, Type (0, 1), BuildingBlock: AJUNOK_clean_linker_0, # of connection points: 2
#     Edge 81, Type (0, 1), BuildingBlock: AJUNOK_clean_linker_0, # of connection points: 2
#     Edge 82, Type (0, 1), BuildingBlock: AJUNOK_clean_linker_0, # of connection points: 2
#     Edge 83, Type (0, 1), BuildingBlock: AJUNOK_clean_linker_0, # of connection points: 2
#     Edge 84, Type (0, 1), BuildingBlock: AJUNOK_clean_linker_0, # of connection points: 2
#     Edge 85, Type (0, 1), BuildingBlock: AJUNOK_clean_linker_0, # of connection points: 2
#     Edge 86, Type (0, 1), BuildingBlock: AJUNOK_clean_linker_0, # of connection points: 2
#     Edge 87, Type (0, 1), BuildingBlock: AJUNOK_clean_linker_0, # of connection points: 2
#     Edge 88, Type (0, 1), BuildingBlock: AJUNOK_clean_linker_0, # of connection points: 2
#     Edge 89, Type (0, 1), BuildingBlock: AJUNOK_clean_linker_0, # of connection points: 2
#     Edge 90, Type (0, 1), BuildingBlock: AJUNOK_clean_linker_0, # of connection points: 2
#     Edge 91, Type (0, 1), BuildingBlock: AJUNOK_clean_linker_0, # of connection points: 2
#     Edge 92, Type (0, 1), BuildingBlock: AJUNOK_clean_linker_0, # of connection points: 2
#     Edge 93, Type (0, 1), BuildingBlock: AJUNOK_clean_linker_0, # of connection points: 2
#     Edge 94, Type (0, 1), BuildingBlock: AJUNOK_clean_linker_0, # of connection points: 2
#     Edge 95, Type (0, 1), BuildingBlock: AJUNOK_clean_linker_0, # of connection points: 2
#     Edge 96, Type (0, 1), BuildingBlock: AJUNOK_clean_linker_0, # of connection points: 2
#     Edge 97, Type (0, 1), BuildingBlock: AJUNOK_clean_linker_0, # of connection points: 2
#     Edge 98, Type (0, 1), BuildingBlock: AJUNOK_clean_linker_0, # of connection points: 2
#     Edge 99, Type (0, 1), BuildingBlock: AJUNOK_clean_linker_0, # of connection points: 2
#     Edge 100, Type (0, 1), BuildingBlock: AJUNOK_clean_linker_0, # of connection points: 2
#     Edge 101, Type (0, 1), BuildingBlock: AJUNOK_clean_linker_0, # of connection points: 2
#     Edge 102, Type (0, 1), BuildingBlock: AJUNOK_clean_linker_0, # of connection points: 2
#     Edge 103, Type (0, 1), BuildingBlock: AJUNOK_clean_linker_0, # of connection points: 2
#     Edge 104, Type (0, 1), BuildingBlock: AJUNOK_clean_linker_0, # of connection points: 2
#     Edge 105, Type (0, 1), BuildingBlock: AJUNOK_clean_linker_0, # of connection points: 2
#     Edge 106, Type (0, 1), BuildingBlock: AJUNOK_clean_linker_0, # of connection points: 2
#     Edge 107, Type (0, 1), BuildingBlock: AJUNOK_clean_linker_0, # of connection points: 2
#     Edge 108, Type (0, 1), BuildingBlock: AJUNOK_clean_linker_0, # of connection points: 2
#     Edge 109, Type (0, 1), BuildingBlock: AJUNOK_clean_linker_0, # of connection points: 2
#     Edge 110, Type (0, 1), BuildingBlock: AJUNOK_clean_linker_0, # of connection points: 2
#     Edge 111, Type (0, 1), BuildingBlock: AJUNOK_clean_linker_0, # of connection points: 2
#     Edge 112, Type (0, 1), BuildingBlock: AJUNOK_clean_linker_0, # of connection points: 2
#     Edge 113, Type (0, 1), BuildingBlock: AJUNOK_clean_linker_0, # of connection points: 2
#     Edge 114, Type (0, 1), BuildingBlock: AJUNOK_clean_linker_0, # of connection points: 2
#     Edge 115, Type (0, 1), BuildingBlock: AJUNOK_clean_linker_0, # of connection points: 2
#     Edge 116, Type (0, 1), BuildingBlock: AJUNOK_clean_linker_0, # of connection points: 2
#     Edge 117, Type (0, 1), BuildingBlock: AJUNOK_clean_linker_0, # of connection points: 2
#     Edge 118, Type (0, 1), BuildingBlock: AJUNOK_clean_linker_0, # of connection points: 2
#     Edge 119, Type (0, 1), BuildingBlock: AJUNOK_clean_linker_0, # of connection points: 2
# Relax obj value: 0.158
# Max RMSD: 0.437
# Mean RMSD: 0.102
data_MOF--net-bwt--node1-WUSLED_clean_sbu_0--node2-MIDCAF_clean_linker_0--edge1-AJUNOK_clean_linker_0
_symmetry_space_group_name_H-M    P1
_symmetry_Int_Tables_number       1
_symmetry_cell_setting            triclinic
loop_
_symmetry_equiv_pos_as_xyz
'x, y, z'
_cell_length_a     60.329477
_cell_length_b     54.246334
_cell_length_c     49.551288
_cell_angle_alpha  109.70833
_cell_angle_beta   90.652711
_cell_angle_gamma 97.977407
loop_
_atom_site_label
_atom_site_type_symbol
_atom_site_fract_x
_atom_site_fract_y
_atom_site_fract_z
_atom_type_partial_charge
C0 C 0.06455 0.92079 0.91673 0.0
C1 C 0.08518 0.91081 0.91324 0.0
C2 C 0.09502 0.93014 0.87613 0.0
C3 C 0.10023 0.9153 0.89311 0.0
C4 C 0.07464 0.94102 0.88104 0.0
C5 C 0.05966 0.93625 0.90066 0.0
U6 U 1.00923 0.90892 0.95959 0.0
O7 O 0.98845 0.94157 0.96901 0.0
O8 O 0.97787 0.90423 0.93298 0.0
C9 C 0.97347 0.92794 0.94786 0.0
C10 C 0.04811 0.91332 0.93592 0.0
C11 C 0.95206 0.93769 0.94252 0.0
C12 C 0.93169 0.95928 0.91578 0.0
C13 C 0.9518 0.95237 0.92395 0.0
C14 C 0.91134 0.93855 0.946 0.0
C15 C 0.91099 0.95213 0.92618 0.0
C16 C 0.93154 0.93126 0.95388 0.0
C17 C 1.01058 0.86411 1.01153 0.0
C18 C 0.99556 0.842 0.04437 0.0
C19 C 0.02954 0.8305 0.0214 0.0
C20 C 0.02869 0.8496 1.0078 0.0
C21 C 1.01225 0.8254 0.03875 0.0
C22 C 0.99454 0.86055 0.0306 0.0
C23 C 1.00605 0.88114 0.99443 0.0
O24 O 0.03135 0.89417 0.92427 0.0
O25 O 0.04291 0.9315 0.95925 0.0
O26 O 0.01281 0.90687 1.00361 0.0
O27 O 1.00161 0.87059 0.96655 0.0
H28 H 0.08945 0.89898 0.92574 0.0
H29 H 0.11576 0.90715 0.89093 0.0
H30 H 0.06908 0.95182 0.86812 0.0
H31 H 0.04393 0.94403 0.9026 0.0
H32 H 0.93225 0.96972 0.90057 0.0
H33 H 0.96718 0.95777 0.91486 0.0
H34 H 0.89581 0.93245 0.95433 0.0
H35 H 0.93098 0.91997 0.96826 0.0
H36 H 0.98265 0.84016 0.05884 0.0
H37 H 0.04305 0.81875 0.01703 0.0
H38 H 0.04161 0.85221 0.99359 0.0
H39 H 0.98055 0.87159 0.03417 0.0
C40 C 0.49531 0.20356 0.31376 0.0
C41 C 0.47568 0.21303 0.32485 0.0
C42 C 0.45237 0.17471 0.28957 0.0
C43 C 0.45453 0.19904 0.31267 0.0
C44 C 0.47219 0.16608 0.27751 0.0
C45 C 0.49339 0.18034 0.28951 0.0
U46 U 0.55578 0.24044 0.35759 0.0
O47 O 0.57945 0.21271 0.35628 0.0
O48 O 0.58557 0.24044 0.33172 0.0
C49 C 0.59216 0.2213 0.33899 0.0
C50 C 0.51755 0.21627 0.32885 0.0
C51 C 0.61194 0.20921 0.32785 0.0
C52 C 0.62913 0.16939 0.30898 0.0
C53 C 0.61002 0.18187 0.31307 0.0
C54 C 0.65228 0.21199 0.33165 0.0
C55 C 0.65039 0.18419 0.31967 0.0
C56 C 0.63319 0.22435 0.33593 0.0
C57 C 0.56946 0.30105 0.43232 0.0
C58 C 0.60223 0.32178 0.46605 0.0
C59 C 0.56623 0.33595 0.47792 0.0
C60 C 0.55667 0.31783 0.45165 0.0
C61 C 0.58903 0.33796 0.4859 0.0
C62 C 0.59252 0.3034 0.43949 0.0
C63 C 0.55723 0.28073 0.40622 0.0
O64 O 0.52947 0.23645 0.32406 0.0
O65 O 0.52572 0.20979 0.34977 0.0
O66 O 0.55437 0.25585 0.40472 0.0
O67 O 0.55955 0.2837 0.38108 0.0
H68 H 0.47667 0.23095 0.34341 0.0
H69 H 0.43979 0.20709 0.32185 0.0
H70 H 0.47136 0.1477 0.2596 0.0
H71 H 0.50834 0.17268 0.28047 0.0
H72 H 0.6269 0.148 0.29979 0.0
H73 H 0.59364 0.16994 0.30646 0.0
H74 H 0.66843 0.22408 0.33958 0.0
H75 H 0.63495 0.24549 0.34741 0.0
H76 H 0.61979 0.32251 0.47154 0.0
H77 H 0.55554 0.34811 0.49236 0.0
H78 H 0.5389 0.31646 0.4467 0.0
H79 H 0.60282 0.29066 0.42502 0.0
C80 C 0.72721 0.05671 0.59756 0.0
C81 C 0.74929 0.05202 0.59271 0.0
C82 C 0.75962 0.06933 0.64399 0.0
C83 C 0.76525 0.05801 0.61554 0.0
C84 C 0.73733 0.07367 0.64922 0.0
C85 C 0.72117 0.06735 0.62612 0.0
U86 U 0.6815 0.04679 0.53133 0.0
O87 O 0.64672 0.03295 0.53893 0.0
O88 O 0.65747 0.07492 0.54488 0.0
C89 C 0.64094 0.05666 0.54549 0.0
C90 C 0.71185 0.0524 0.57219 0.0
C91 C 0.61858 0.05881 0.53496 0.0
C92 C 0.58269 0.07348 0.5478 0.0
C93 C 0.60336 0.06836 0.55567 0.0
C94 C 0.59155 0.05844 0.49782 0.0
C95 C 0.57673 0.06896 0.51894 0.0
C96 C 0.61251 0.05346 0.5058 0.0
C97 C 0.7019 0.02584 0.45009 0.0
C98 C 0.7022 0.01654 0.39815 0.0
C99 C 0.7355 0.01619 0.4249 0.0
C100 C 0.72439 0.02256 0.45051 0.0
C101 C 0.72502 1.01329 0.39812 0.0
C102 C 0.69085 0.02235 0.42367 0.0
C103 C 0.68934 0.03362 0.47642 0.0
O104 O 0.70852 0.07194 0.56336 0.0
O105 O 0.69908 0.02961 0.55883 0.0
O106 O 0.68284 0.01616 0.48879 0.0
O107 O 0.69329 0.05813 0.49442 0.0
H108 H 0.75449 0.04498 0.57102 0.0
H109 H 0.78237 0.05499 0.61088 0.0
H110 H 0.73271 0.08289 0.67099 0.0
H111 H 0.70429 0.07157 0.63051 0.0
H112 H 0.57156 0.0817 0.56439 0.0
H113 H 0.60777 0.07267 0.57823 0.0
H114 H 0.58723 0.05503 0.47544 0.0
H115 H 0.62408 0.04616 0.48946 0.0
H116 H 0.69297 0.01567 0.37904 0.0
H117 H 0.75249 1.01339 0.42617 0.0
H118 H 0.73339 0.02498 0.47051 0.0
H119 H 0.67336 0.02482 0.42285 0.0
C120 C 0.81629 1.0081 0.40881 0.0
C121 C 0.8073 0.02611 0.4323 0.0
C122 C 0.78301 0.98946 0.44119 0.0
C123 C 0.79109 0.01686 0.4486 0.0
C124 C 0.79299 0.97178 0.41885 0.0
C125 C 0.80934 0.98087 0.40319 0.0
U126 U 0.84643 0.03264 0.34827 0.0
O127 O 0.88301 0.04497 0.34522 0.0
O128 O 0.86627 1.00588 0.3178 0.0
C129 C 0.88499 0.02262 0.3246 0.0
C130 C 0.83455 0.01598 0.39146 0.0
C131 C 0.90692 1.01191 0.32016 0.0
C132 C 0.93224 0.98055 0.32202 0.0
C133 C 0.91242 0.99186 0.33011 0.0
C134 C 0.94136 1.00899 0.29411 0.0
C135 C 0.94696 0.98891 0.30375 0.0
C136 C 0.92182 0.02029 0.30229 0.0
C137 C 0.80614 0.05614 0.29747 0.0
C138 C 0.80435 0.05012 0.24581 0.0
C139 C 0.77128 0.05718 0.27211 0.0
C140 C 0.78345 0.05924 0.29742 0.0
C141 C 0.78098 0.05081 0.24514 0.0
C142 C 0.81658 0.05315 0.27156 0.0
C143 C 0.81594 0.05049 0.3227 0.0
O144 O 0.83396 1.00077 0.36447 0.0
O145 O 0.84227 0.04096 0.39529 0.0
O146 O 0.83197 0.06634 0.34095 0.0
O147 O 0.81737 0.02603 0.319 0.0
H148 H 0.81252 0.04722 0.43781 0.0
H149 H 0.78374 0.03117 0.46563 0.0
H150 H 0.78775 0.95063 0.41299 0.0
H151 H 0.81651 0.96628 0.38627 0.0
H152 H 0.93606 0.96525 0.33003 0.0
H153 H 0.90131 0.98469 0.34375 0.0
H154 H 0.95187 0.01561 0.27956 0.0
H155 H 0.91801 0.0353 0.29385 0.0
H156 H 0.81332 0.04527 0.22644 0.0
H157 H 0.75388 0.05983 0.27394 0.0
H158 H 0.77462 0.06188 0.31686 0.0
H159 H 0.83386 0.05141 0.27053 0.0
C160 C 1.00282 0.35105 0.8392 0.0
C161 C 0.98683 0.36587 0.82256 0.0
C162 C 0.99012 0.41054 0.89588 0.0
C163 C 0.97685 0.39442 0.84095 0.0
C164 C 1.00558 0.38844 0.90182 0.0
C165 C 1.01089 0.36126 0.87491 0.0
U166 U 0.0194 0.29502 0.77048 0.0
O167 O 0.04652 0.27141 0.76942 0.0
O168 O 1.01132 0.25193 0.76198 0.0
C169 C 0.03254 0.24913 0.76341 0.0
C170 C 1.01052 0.32589 0.82194 0.0
C171 C 0.03884 0.22803 0.77328 0.0
C172 C 0.05537 0.21196 0.80815 0.0
C173 C 0.04617 0.23201 0.80169 0.0
C174 C 0.04817 0.18343 0.75853 0.0
C175 C 0.05712 0.18763 0.78634 0.0
C176 C 0.03947 0.20342 0.7521 0.0
C177 C 0.01464 0.30882 0.6953 0.0
C178 C 0.02516 0.29168 0.64549 0.0
C179 C 1.00969 0.33257 0.66227 0.0
C180 C 1.00741 0.3299 0.68923 0.0
C181 C 0.01929 0.31412 0.64005 0.0
C182 C 0.02305 0.28917 0.67297 0.0
C183 C 0.01431 0.31007 0.72578 0.0
O184 O 0.99572 0.30741 0.80403 0.0
O185 O 0.03051 0.32722 0.81179 0.0
O186 O 0.03332 0.3155 0.74133 0.0
O187 O 0.99819 0.29576 0.73401 0.0
H188 H 0.98304 0.35716 0.79961 0.0
H189 H 0.96742 0.40303 0.82829 0.0
H190 H 0.01303 0.39246 0.92309 0.0
H191 H 0.02104 0.34896 0.88127 0.0
H192 H 0.06224 0.21624 0.82978 0.0
H193 H 0.04575 0.25086 0.81848 0.0
H194 H 0.04858 0.1649 0.74123 0.0
H195 H 0.03393 0.1999 0.73005 0.0
H196 H 0.0318 0.27635 0.62882 0.0
H197 H 1.005 0.35014 0.6595 0.0
H198 H 1.00077 0.34523 0.70597 0.0
H199 H 0.02846 0.27238 0.67691 0.0
C200 C 0.51454 0.66366 0.82782 0.0
C201 C 0.50891 0.63614 0.81909 0.0
C202 C 0.54677 0.63143 0.80349 0.0
C203 C 0.52488 0.62012 0.80673 0.0
C204 C 0.55219 0.65911 0.81244 0.0
C205 C 0.5361 0.67504 0.82424 0.0
U206 U 0.46011 0.68922 0.86315 0.0
O207 O 0.46186 0.72944 0.89458 0.0
O208 O 0.44414 0.71891 0.85153 0.0
C209 C 0.4506 0.73699 0.87667 0.0
C210 C 0.49843 0.6814 0.84007 0.0
C211 C 0.44669 0.7644 0.88414 0.0
C212 C 0.46033 0.81127 0.89605 0.0
C213 C 0.46448 0.78506 0.8876 0.0
C214 C 0.42066 0.79603 0.89699 0.0
C215 C 0.43839 0.81682 0.90098 0.0
C216 C 0.42481 0.76996 0.88859 0.0
C217 C 0.42313 0.62611 0.87371 0.0
C218 C 0.39413 0.5978 0.88777 0.0
C219 C 0.42466 0.57887 0.86111 0.0
C220 C 0.43385 0.60404 0.86051 0.0
C221 C 0.40464 0.57557 0.8747 0.0
C222 C 0.40332 0.62273 0.8874 0.0
C223 C 0.43125 0.65298 0.87348 0.0
O224 O 0.47951 0.67781 0.82484 0.0
O225 O 0.49619 0.688 0.86786 0.0
O226 O 0.43126 0.6571 0.8488 0.0
O227 O 0.44767 0.66774 0.89202 0.0
H228 H 0.49226 0.62714 0.8217 0.0
H229 H 0.52011 0.59882 0.79983 0.0
H230 H 0.56897 0.66856 0.81116 0.0
H231 H 0.54057 0.69638 0.83091 0.0
H232 H 0.47415 0.82716 0.89888 0.0
H233 H 0.48148 0.78096 0.88399 0.0
H234 H 0.40367 0.80004 0.90091 0.0
H235 H 0.41098 0.75415 0.88608 0.0
H236 H 0.37864 0.59597 0.89812 0.0
H237 H 0.43285 0.56193 0.85046 0.0
H238 H 0.44907 0.60621 0.84962 0.0
H239 H 0.39471 0.63946 0.89757 0.0
C240 C 0.99799 0.25006 0.28462 0.0
C241 C 0.99614 0.23259 0.29999 0.0
C242 C 0.97075 0.20122 0.26226 0.0
C243 C 0.98257 0.20815 0.28881 0.0
C244 C 0.97374 0.21831 0.24612 0.0
C245 C 0.9879 0.24229 0.25686 0.0
U246 U 0.02219 0.32035 0.29028 0.0
O247 O 0.04621 0.31372 0.25644 0.0
O248 O 1.01206 0.31973 0.24697 0.0
C249 C 0.03164 0.31447 0.23699 0.0
C250 C 1.00582 0.27773 0.30043 0.0
C251 C 0.04027 0.32608 0.21582 0.0
C252 C 0.04351 0.32034 0.1655 0.0
C253 C 0.03908 0.30951 0.18698 0.0
C254 C 0.05306 0.36389 0.20171 0.0
C255 C 0.04818 0.3479 0.17287 0.0
C256 C 0.04853 0.3531 0.2233 0.0
C257 C 0.0266 0.3824 0.36408 0.0
C258 C 0.02754 0.42897 0.39253 0.0
C259 C 0.02822 0.39806 0.41686 0.0
C260 C 0.02819 0.3771 0.38978 0.0
C261 C 0.02681 0.42452 0.41842 0.0
C262 C 0.02796 0.4084 0.36674 0.0
C263 C 0.02807 0.36474 0.33376 0.0
O264 O 0.02749 0.28563 0.30139 0.0
O265 O 0.99329 0.29413 0.29593 0.0
O266 O 0.04371 0.34949 0.32655 0.0
O267 O 1.00995 0.35696 0.31616 0.0
H268 H 1.00389 0.23864 0.32151 0.0
H269 H 0.98047 0.19522 0.30144 0.0
H270 H 0.96418 0.21401 0.22601 0.0
H271 H 0.98921 0.25572 0.24477 0.0
H272 H 0.03955 0.30778 0.14326 0.0
H273 H 0.03304 0.28849 0.18093 0.0
H274 H 0.05662 0.38525 0.20754 0.0
H275 H 0.04987 0.36606 0.24551 0.0
H276 H 0.03089 0.44896 0.3923 0.0
H277 H 0.02973 0.39367 0.4364 0.0
H278 H 0.03088 0.35761 0.38896 0.0
H279 H 0.03222 0.41278 0.34805 0.0
C280 C 0.50162 0.76283 0.01402 0.0
C281 C 0.52153 0.76308 0.99953 0.0
C282 C 0.52359 0.81076 1.00867 0.0
C283 C 0.53235 0.78686 0.99677 0.0
C284 C 0.5033 0.81013 0.02217 0.0
C285 C 0.49242 0.78647 0.02463 0.0
U286 U 0.48677 0.69169 0.02503 0.0
O287 O 0.4757 0.6922 0.06757 0.0
O288 O 0.45202 0.6742 0.0294 0.0
C289 C 0.45509 0.68143 0.0575 0.0
C290 C 0.49105 0.73975 0.02165 0.0
C291 C 0.43984 0.66947 0.07459 0.0
C292 C 0.41916 0.67689 0.11801 0.0
C293 C 0.43126 0.68661 0.09883 0.0
C294 C 0.42189 0.63221 0.08748 0.0
C295 C 0.4146 0.64947 0.11317 0.0
C296 C 0.43462 0.64209 0.06865 0.0
C297 C 0.52715 0.63567 0.99314 0.0
C298 C 0.53518 0.59433 0.99812 0.0
C299 C 0.55927 0.61539 0.97109 0.0
C300 C 0.54582 0.63546 0.97644 0.0
C301 C 0.5546 0.59473 0.98237 0.0
C302 C 0.52161 0.61457 1.00346 0.0
C303 C 0.51559 0.65952 1.00096 0.0
O304 O 0.47936 0.71894 1.0022 0.0
O305 O 0.50122 0.73398 0.04179 0.0
O306 O 0.51868 0.67668 0.02726 0.0
O307 O 0.49615 0.6588 0.98816 0.0
H308 H 0.52911 0.74524 0.99138 0.0
H309 H 0.54818 0.7869 0.98668 0.0
H310 H 0.49634 0.82824 0.03194 0.0
H311 H 0.47722 0.78692 0.03611 0.0
H312 H 0.41476 0.69128 0.13748 0.0
H313 H 0.43488 0.70785 0.10375 0.0
H314 H 0.41836 0.61095 0.08218 0.0
H315 H 0.44084 0.6284 0.04993 0.0
H316 H 0.53101 0.57914 1.00762 0.0
H317 H 0.57371 0.61645 0.95853 0.0
H318 H 0.55048 0.65146 0.96817 0.0
H319 H 0.50732 0.61418 0.01643 0.0
C320 C 0.08879 0.5696 0.32662 0.0
C321 C 0.07816 0.57552 0.3529 0.0
C322 C 0.06163 0.5283 0.343 0.0
C323 C 0.06489 0.55534 0.36088 0.0
C324 C 0.0733 0.52288 0.31723 0.0
C325 C 0.08563 0.54289 0.30878 0.0
U326 U 0.13142 0.63031 0.31074 0.0
O327 O 0.16164 0.6192 0.28644 0.0
O328 O 0.13412 0.63049 0.26578 0.0
C329 C 0.15414 0.62324 0.26355 0.0
C330 C 0.10461 0.58984 0.31803 0.0
C331 C 0.16709 0.61917 0.23661 0.0
C332 C 0.18069 0.58955 0.19245 0.0
C333 C 0.16697 0.59381 0.21616 0.0
C334 C 0.19546 0.63592 0.20891 0.0
C335 C 0.19605 0.61029 0.18841 0.0
C336 C 0.18115 0.64023 0.23209 0.0
C337 C 0.14015 0.70249 0.37762 0.0
C338 C 0.15811 0.74807 0.4053 0.0
C339 C 0.13112 0.72507 0.42733 0.0
C340 C 0.12801 0.70268 0.40173 0.0
C341 C 0.14695 0.74792 0.43018 0.0
C342 C 0.15475 0.72582 0.37961 0.0
C343 C 0.13909 0.67822 0.35087 0.0
O344 O 0.09749 0.60612 0.30648 0.0
O345 O 0.12608 0.59582 0.32616 0.0
O346 O 0.1506 0.65911 0.34988 0.0
O347 O 0.12235 0.67082 0.3312 0.0
H348 H 0.08075 0.59568 0.36783 0.0
H349 H 0.0584 0.5607 0.38203 0.0
H350 H 0.07433 0.50267 0.30419 0.0
H351 H 0.09395 0.53713 0.28881 0.0
H352 H 0.17909 0.56953 0.17751 0.0
H353 H 0.15634 0.577 0.21864 0.0
H354 H 0.20663 0.65304 0.20847 0.0
H355 H 0.18178 0.66013 0.24727 0.0
H356 H 0.17021 0.76501 0.40593 0.0
H357 H 0.12114 0.72422 0.44507 0.0
H358 H 0.11634 0.68535 0.40099 0.0
H359 H 0.16422 0.7266 0.36139 0.0
C360 C 0.99018 0.55332 0.84611 0.0
C361 C 1.00465 0.53659 0.82971 0.0
C362 C 1.00877 0.56264 0.79788 0.0
C363 C 0.01394 0.54128 0.80564 0.0
C364 C 0.99368 0.57849 0.81398 0.0
C365 C 0.98484 0.57416 0.83802 0.0
U366 U 0.96935 0.51348 0.89476 0.0
O367 O 0.93836 0.51323 0.91721 0.0
O368 O 0.97077 0.52791 0.94229 0.0
C369 C 0.9488 0.52335 0.9428 0.0
C370 C 0.97997 0.55001 0.87168 0.0
C371 C 0.9374 0.54209 0.96491 0.0
C372 C 0.91534 0.57825 0.97997 0.0
C373 C 0.9314 0.56537 0.9623 0.0
C374 C 0.91418 0.54709 1.00537 0.0
C375 C 0.90579 0.56838 1.00091 0.0
C376 C 0.92875 0.53339 0.98668 0.0
C377 C 0.98102 0.44011 0.87081 0.0
C378 C 0.9531 0.39109 0.87754 0.0
C379 C 1.01042 0.39851 0.8593 0.0
C380 C 1.00612 0.42962 0.86238 0.0
C381 C 0.97368 0.37139 0.8692 0.0
C382 C 0.95733 0.42277 0.87803 0.0
C383 C 0.97997 0.46625 0.8686 0.0
O384 O 0.96015 0.53526 0.86718 0.0
O385 O 0.99328 0.54617 0.8906 0.0
O386 O 0.96025 0.47254 0.86448 0.0
O387 O 0.99386 0.48602 0.88613 0.0
H388 H 1.00886 0.52022 0.8356 0.0
H389 H 0.02544 0.52866 0.79353 0.0
H390 H 0.98876 0.59456 0.8081 0.0
H391 H 0.97368 0.58716 0.85036 0.0
H392 H 0.9093 0.59448 0.97562 0.0
H393 H 0.93764 0.57226 0.94529 0.0
H394 H 0.90788 0.53934 0.02175 0.0
H395 H 0.93179 0.51466 0.98798 0.0
H396 H 0.93672 0.38292 0.882 0.0
H397 H 0.02692 0.3933 0.85283 0.0
H398 H 0.01952 0.44265 0.85759 0.0
H399 H 0.94295 0.43302 0.88302 0.0
C400 C 0.67603 0.51329 0.30143 0.0
C401 C 0.66457 0.51675 0.27869 0.0
C402 C 0.68828 0.49097 0.24414 0.0
C403 C 0.67096 0.50646 0.25075 0.0
C404 C 0.69939 0.48638 0.26684 0.0
C405 C 0.69352 0.49784 0.29552 0.0
U406 U 0.67734 0.55375 0.38596 0.0
O407 O 0.68936 0.53155 0.41184 0.0
O408 O 0.71287 0.56045 0.39969 0.0
C409 C 0.71028 0.54246 0.41216 0.0
C410 C 0.67092 0.53002 0.33028 0.0
C411 C 0.72513 0.54773 0.43741 0.0
C412 C 0.76233 0.54481 0.45354 0.0
C413 C 0.74442 0.5355 0.43311 0.0
C414 C 0.74069 0.57671 0.48419 0.0
C415 C 0.76084 0.5663 0.4784 0.0
C416 C 0.72282 0.5676 0.46351 0.0
C417 C 0.64411 0.61384 0.42954 0.0
C418 C 0.6478 0.65216 0.47338 0.0
C419 C 0.62247 0.64955 0.43397 0.0
C420 C 0.62788 0.62463 0.41842 0.0
C421 C 0.63316 0.66422 0.4611 0.0
C422 C 0.65353 0.62731 0.45753 0.0
C423 C 0.65314 0.59114 0.40948 0.0
O424 O 0.68418 0.55256 0.34233 0.0
O425 O 0.66136 0.51967 0.34856 0.0
O426 O 0.64751 0.56684 0.40959 0.0
O427 O 0.6726 0.59548 0.399 0.0
H428 H 0.65149 0.52916 0.28279 0.0
H429 H 0.66306 0.51233 0.23483 0.0
H430 H 0.71322 0.47511 0.26256 0.0
H431 H 0.70301 0.49541 0.3129 0.0
H432 H 0.77801 0.53709 0.44864 0.0
H433 H 0.7464 0.52031 0.41283 0.0
H434 H 0.7397 0.59365 0.50331 0.0
H435 H 0.70808 0.57737 0.46694 0.0
H436 H 0.65578 0.66256 0.49465 0.0
H437 H 0.61113 0.65811 0.42383 0.0
H438 H 0.62047 0.61455 0.39677 0.0
H439 H 0.66605 0.6193 0.46654 0.0
C440 C 0.15326 0.22681 0.63058 0.0
C441 C 0.17254 0.21625 0.63475 0.0
C442 C 0.17867 0.24814 0.68386 0.0
C443 C 0.18512 0.22679 0.6614 0.0
C444 C 0.15924 0.25811 0.67917 0.0
C445 C 0.1466 0.24733 0.65317 0.0
U446 U 0.12995 0.19864 0.54751 0.0
O447 O 0.09466 0.20017 0.53464 0.0
O448 O 0.12308 0.22733 0.5273 0.0
C449 C 0.10127 0.22025 0.52591 0.0
C450 C 0.14113 0.22057 0.60255 0.0
C451 C 0.08645 0.2306 0.50954 0.0
C452 C 0.05734 0.25766 0.50915 0.0
C453 C 0.06965 0.24497 0.52334 0.0
C454 C 0.078 0.24127 0.46684 0.0
C455 C 0.06155 0.25626 0.4808 0.0
C456 C 0.09034 0.22864 0.48107 0.0
C457 C 0.15876 0.14104 0.49207 0.0
C458 C 0.1606 0.12048 0.44056 0.0
C459 C 0.18845 0.11527 0.47311 0.0
C460 C 0.17762 0.13005 0.49639 0.0
C461 C 0.18032 0.1109 0.44508 0.0
C462 C 0.14989 0.13574 0.46404 0.0
C463 C 0.15118 0.16045 0.51743 0.0
O464 O 0.15121 0.2285 0.58297 0.0
O465 O 0.12539 0.19985 0.59235 0.0
O466 O 0.13129 0.15573 0.52689 0.0
O467 O 0.15853 0.18562 0.52246 0.0
H468 H 0.17817 0.20058 0.61736 0.0
H469 H 0.20009 0.21875 0.66424 0.0
H470 H 0.1542 0.27524 0.69518 0.0
H471 H 0.13211 0.25614 0.65018 0.0
H472 H 0.04496 0.26924 0.52063 0.0
H473 H 0.06654 0.24709 0.54545 0.0
H474 H 0.08147 0.2395 0.44493 0.0
H475 H 0.10323 0.21774 0.47002 0.0
H476 H 0.15429 0.11745 0.41894 0.0
H477 H 0.20372 0.10823 0.47696 0.0
H478 H 0.18475 0.13411 0.51791 0.0
H479 H 0.13545 0.14426 0.46032 0.0
C480 C 0.96201 0.09967 0.11374 0.0
C481 C 0.93891 0.10084 0.11085 0.0
C482 C 0.93039 0.08494 0.15141 0.0
C483 C 0.92333 0.09301 0.12873 0.0
C484 C 0.95372 0.08292 0.15308 0.0
C485 C 0.96899 0.0896 0.13438 0.0
U486 U 0.01661 0.12414 0.07534 0.0
O487 O 0.04847 0.12904 0.10094 0.0
O488 O 0.0398 0.09412 0.0615 0.0
C489 C 0.05458 0.1074 0.08299 0.0
C490 C 0.97833 0.11157 0.09708 0.0
C491 C 0.07517 0.09686 0.08902 0.0
C492 C 0.09514 0.0745 0.11511 0.0
C493 C 0.07525 0.08261 0.10802 0.0
C494 C 0.11527 0.094 0.08369 0.0
C495 C 0.11567 0.08022 0.1033 0.0
C496 C 0.0954 0.10217 0.07672 0.0
C497 C 0.01589 0.17417 0.02803 0.0
C498 C 0.03419 0.19661 0.99685 0.0
C499 C 0.9973 0.20472 1.01205 0.0
C500 C 0.99725 0.1868 0.02711 0.0
C501 C 0.01588 0.21048 0.99673 0.0
C502 C 0.03432 0.17923 0.0126 0.0
C503 C 0.01612 0.15605 0.04518 0.0
O504 O 0.98455 0.097 0.07211 0.0
O505 O 0.99373 0.13175 0.11094 0.0
O506 O 0.02079 0.16483 0.07307 0.0
O507 O 1.01204 0.13012 0.03344 0.0
H508 H 0.93292 0.10879 0.09527 0.0
H509 H 0.90602 0.09467 0.12536 0.0
H510 H 0.96124 0.07836 0.17029 0.0
H511 H 0.98659 0.08841 0.13733 0.0
H512 H 0.09449 0.06465 0.13083 0.0
H513 H 0.06001 0.07825 0.11796 0.0
H514 H 0.13044 0.09872 0.0738 0.0
H515 H 0.09597 0.11312 0.062 0.0
H516 H 0.04847 0.19841 0.98441 0.0
H517 H 0.98274 0.21453 0.01323 0.0
H518 H 0.98265 0.18313 0.03851 0.0
H519 H 0.0489 0.1696 0.01258 0.0
C520 C 0.52926 0.8158 0.71548 0.0
C521 C 0.5501 0.80698 0.70957 0.0
C522 C 0.57021 0.84888 0.74237 0.0
C523 C 0.57024 0.8232 0.72276 0.0
C524 C 0.54928 0.85756 0.74918 0.0
C525 C 0.52898 0.84118 0.73589 0.0
U526 U 0.46733 0.78238 0.67513 0.0
O527 O 0.4396 0.78858 0.70482 0.0
O528 O 0.44788 0.81475 0.67955 0.0
C529 C 0.43559 0.80971 0.6993 0.0
C530 C 0.50912 0.79906 0.69708 0.0
C531 C 0.41292 0.81752 0.70189 0.0
C532 C 0.39048 0.85178 0.72628 0.0
C533 C 0.40984 0.84 0.72524 0.0
C534 C 0.37611 0.81771 0.68138 0.0
C535 C 0.37369 0.84126 0.7039 0.0
C536 C 0.3956 0.80595 0.6803 0.0
C537 C 0.45088 0.72069 0.59962 0.0
C538 C 0.42057 0.70049 0.56219 0.0
C539 C 0.45688 0.68637 0.55459 0.0
C540 C 0.46481 0.7043 0.58185 0.0
C541 C 0.4349 0.68499 0.54342 0.0
C542 C 0.42843 0.71801 0.58993 0.0
C543 C 0.46116 0.74155 0.62667 0.0
O544 O 0.50005 0.80723 0.67808 0.0
O545 O 0.49511 0.78259 0.70545 0.0
O546 O 0.45851 0.73891 0.65194 0.0
O547 O 0.46551 0.76626 0.62774 0.0
H548 H 0.55091 0.78772 0.69367 0.0
H549 H 0.58598 0.81604 0.71671 0.0
H550 H 0.5487 0.87729 0.76416 0.0
H551 H 0.51323 0.84866 0.74084 0.0
H552 H 0.38928 0.86998 0.74374 0.0
H553 H 0.42307 0.84938 0.74203 0.0
H554 H 0.36327 0.809 0.66401 0.0
H555 H 0.39755 0.78863 0.66207 0.0
H556 H 0.40345 0.70005 0.55514 0.0
H557 H 0.46827 0.67371 0.54249 0.0
H558 H 0.48216 0.70567 0.5889 0.0
H559 H 0.41719 0.73014 0.60332 0.0
C560 C 0.29693 0.95769 0.42109 0.0
C561 C 0.27451 0.95872 0.42782 0.0
C562 C 0.26352 0.94965 0.3776 0.0
C563 C 0.2579 0.95465 0.40619 0.0
C564 C 0.28605 0.94916 0.37096 0.0
C565 C 0.30266 0.95309 0.39262 0.0
U566 U 0.34447 0.96452 0.48328 0.0
O567 O 0.36984 0.9381 0.46965 0.0
O568 O 0.37871 0.98061 0.47678 0.0
C569 C 0.38575 0.95758 0.47049 0.0
C570 C 0.31408 0.96015 0.44349 0.0
C571 C 0.40797 0.95729 0.48302 0.0
C572 C 0.4451 0.94523 0.47365 0.0
C573 C 0.42401 0.94741 0.46376 0.0
C574 C 0.43491 0.96353 0.5228 0.0
C575 C 0.45072 0.95293 0.50314 0.0
C576 C 0.41354 0.96574 0.51278 0.0
C577 C 0.32226 0.98401 0.56139 0.0
C578 C 0.32223 1.00584 0.61248 0.0
C579 C 0.28774 0.98106 0.58507 0.0
C580 C 0.29927 0.97454 0.55995 0.0
C581 C 0.29939 0.99642 0.61142 0.0
C582 C 0.3335 0.99991 0.58757 0.0
C583 C 0.33624 0.97645 0.53723 0.0
O584 O 0.31745 0.9399 0.45107 0.0
O585 O 0.32661 0.98288 0.45765 0.0
O586 O 0.34321 0.99446 0.52572 0.0
O587 O 0.3327 0.95194 0.51914 0.0
H588 H 0.2698 0.9622 0.44968 0.0
H589 H 0.24059 0.95503 0.41169 0.0
H590 H 0.29066 0.94499 0.34898 0.0
H591 H 0.31991 0.95201 0.38707 0.0
H592 H 0.4569 0.93674 0.45815 0.0
H593 H 0.42003 0.9408 0.44081 0.0
H594 H 0.43886 0.9693 0.54568 0.0
H595 H 0.40136 0.97347 0.52807 0.0
H596 H 0.33158 0.01705 0.63272 0.0
H597 H 0.26999 0.97371 0.58412 0.0
H598 H 0.29046 0.96198 0.5398 0.0
H599 H 0.35133 1.00694 0.58892 0.0
C600 C 0.21089 0.04554 0.61655 0.0
C601 C 0.23198 0.04662 0.62964 0.0
C602 C 0.25016 0.05138 0.58777 0.0
C603 C 0.25144 0.04979 0.61535 0.0
C604 C 0.22908 0.04894 0.57413 0.0
C605 C 0.20956 0.04607 0.58849 0.0
U606 U 0.18228 0.0373 0.68082 0.0
O607 O 0.14917 0.01614 0.68534 0.0
O608 O 0.15866 0.05884 0.7098 0.0
C609 C 0.14381 0.03739 0.70489 0.0
C610 C 0.1904 0.04526 0.63243 0.0
C611 C 0.12007 0.04031 0.70921 0.0
C612 C 0.08666 0.05885 0.70345 0.0
C613 C 0.10823 0.05361 0.69541 0.0
C614 C 0.08824 0.03634 0.73795 0.0
C615 C 0.07661 0.05095 0.72544 0.0
C616 C 0.10975 0.03131 0.73006 0.0
C617 C 0.2343 1.01045 0.75352 0.0
C618 C 0.23843 1.01095 0.80605 0.0
C619 C 0.26023 0.98438 0.77226 0.0
C620 C 0.25092 0.99146 0.75068 0.0
C621 C 0.2542 0.99428 0.8 0.0
C622 C 0.22976 0.01914 0.78496 0.0
C623 C 0.21525 0.02548 0.70877 0.0
O624 O 0.18174 0.02205 0.63359 0.0
O625 O 0.19107 0.06467 0.65722 0.0
O626 O 0.20238 1.00904 0.68588 0.0
O627 O 0.21194 0.04982 0.71041 0.0
H628 H 0.23344 0.04607 0.65125 0.0
H629 H 0.26757 0.05213 0.62616 0.0
H630 H 0.22779 0.05054 0.55298 0.0
H631 H 0.19344 0.04518 0.57806 0.0
H632 H 0.07821 0.07004 0.69321 0.0
H633 H 0.11589 0.06064 0.67916 0.0
H634 H 0.08088 0.02887 0.754 0.0
H635 H 0.11861 0.02087 0.74085 0.0
H636 H 0.23402 0.01967 0.82809 0.0
H637 H 0.27308 0.97161 0.76724 0.0
H638 H 0.25817 0.98097 0.73096 0.0
H639 H 0.21931 0.03375 0.79564 0.0
C640 C 0.03195 0.6809 0.19195 0.0
C641 C 0.05506 0.67011 0.20112 0.0
C642 C 0.03678 0.62017 0.13263 0.0
C643 C 0.06358 0.64173 0.17942 0.0
C644 C 0.01624 0.63887 0.13356 0.0
C645 C 0.01439 0.66628 0.16178 0.0
U646 U 0.02134 0.74054 0.26028 0.0
O647 O 0.02728 0.78261 0.26363 0.0
O648 O 0.99275 0.76199 0.2623 0.0
C649 C 1.00575 0.78425 0.26476 0.0
C650 C 0.02653 0.7067 0.20966 0.0
C651 C 0.9966 0.8035 0.25475 0.0
C652 C 0.98146 0.81874 0.21848 0.0
C653 C 0.99319 0.8009 0.22571 0.0
C654 C 0.9782 0.84233 0.26907 0.0
C655 C 0.97304 0.83886 0.24024 0.0
C656 C 0.98951 0.82461 0.27616 0.0
C657 C 0.03272 0.72638 0.33448 0.0
C658 C 0.03732 0.74433 0.38642 0.0
C659 C 0.02888 0.69686 0.36235 0.0
C660 C 0.02948 0.70072 0.33581 0.0
C661 C 0.03149 0.71869 0.3879 0.0
C662 C 0.03743 0.74821 0.3599 0.0
C663 C 0.02869 0.72986 0.30677 0.0
O664 O 1.00741 0.70692 0.22206 0.0
O665 O 0.04287 0.72499 0.22483 0.0
O666 O 0.044 0.74367 0.29675 0.0
O667 O 1.0092 0.72197 0.29207 0.0
H668 H 0.06477 0.68152 0.22098 0.0
H669 H 0.07829 0.63575 0.18722 0.0
H670 H 1.00336 0.63238 0.11623 0.0
H671 H 0.99942 0.67505 0.16109 0.0
H672 H 0.97802 0.81606 0.19608 0.0
H673 H 0.99881 0.78478 0.20886 0.0
H674 H 0.97268 0.85823 0.2863 0.0
H675 H 0.99211 0.82696 0.29863 0.0
H676 H 0.03959 0.76156 0.40587 0.0
H677 H 0.02442 0.67698 0.36281 0.0
H678 H 0.02603 0.68368 0.31628 0.0
H679 H 0.03986 0.76821 0.35936 0.0
C680 C 0.51392 0.36989 0.2086 0.0
C681 C 0.51693 0.39663 0.21136 0.0
C682 C 0.4799 0.39966 0.22973 0.0
C683 C 0.49987 0.4115 0.22188 0.0
C684 C 0.47687 0.37274 0.22637 0.0
C685 C 0.4939 0.35795 0.21592 0.0
U686 U 0.56878 0.34202 0.17583 0.0
O687 O 0.56336 0.3015 0.14527 0.0
O688 O 0.5806 0.30984 0.18772 0.0
C689 C 0.57168 0.29186 0.1635 0.0
C690 C 0.53082 0.35326 0.19743 0.0
C691 C 0.57985 0.26644 0.15181 0.0
C692 C 0.57561 0.22009 0.1477 0.0
C693 C 0.57029 0.24554 0.16061 0.0
C694 C 0.59946 0.23607 0.11623 0.0
C695 C 0.59043 0.21502 0.12545 0.0
C696 C 0.59446 0.26163 0.12957 0.0
C697 C 0.6063 0.40276 0.16279 0.0
C698 C 0.63172 0.43027 0.14316 0.0
C699 C 0.60341 0.44966 0.17402 0.0
C700 C 0.59567 0.42481 0.1767 0.0
C701 C 0.62144 0.4525 0.15694 0.0
C702 C 0.62441 0.40589 0.14624 0.0
C703 C 0.5993 0.37586 0.1639 0.0
O704 O 0.5337 0.34639 0.16979 0.0
O705 O 0.54919 0.35663 0.21363 0.0
O706 O 0.58305 0.3606 0.14544 0.0
O707 O 0.59897 0.37256 0.18904 0.0
H708 H 0.53229 0.40587 0.20541 0.0
H709 H 0.50224 0.43224 0.22396 0.0
H710 H 0.46156 0.36336 0.2323 0.0
H711 H 0.49146 0.33713 0.21357 0.0
H712 H 0.56821 0.20448 0.1553 0.0
H713 H 0.55838 0.24882 0.17722 0.0
H714 H 0.61003 0.23281 0.09826 0.0
H715 H 0.60144 0.27741 0.12197 0.0
H716 H 0.64566 0.4316 0.13009 0.0
H717 H 0.59549 0.46664 0.18542 0.0
H718 H 0.58164 0.42289 0.18965 0.0
H719 H 0.63295 0.38926 0.13543 0.0
C720 C 0.03889 0.77668 0.76963 0.0
C721 C 0.05701 0.78018 0.75316 0.0
C722 C 0.05323 0.82676 0.76736 0.0
C723 C 0.0644 0.80547 0.75233 0.0
C724 C 0.03357 0.82201 0.78062 0.0
C725 C 0.02693 0.79742 0.78254 0.0
U726 U 0.01741 0.70201 0.75082 0.0
O727 O 0.01472 0.67928 0.77979 0.0
O728 O 0.9843 0.68882 0.76279 0.0
C729 C 0.99286 0.67888 0.78049 0.0
C730 C 0.03138 0.75236 0.77502 0.0
C731 C 0.98421 0.68667 0.80873 0.0
C732 C 0.99047 0.71063 0.85952 0.0
C733 C 0.99436 0.70913 0.83136 0.0
C734 C 0.96379 0.67031 0.84193 0.0
C735 C 0.97864 0.68825 0.86403 0.0
C736 C 0.96727 0.66892 0.81393 0.0
C737 C 1.01087 0.6497 0.67688 0.0
C738 C 0.99907 0.60209 0.66339 0.0
C739 C 1.00018 0.62324 0.62787 0.0
C740 C 1.00689 0.64771 0.64871 0.0
C741 C 0.99725 0.59939 0.63384 0.0
C742 C 1.00571 0.62707 0.68471 0.0
C743 C 0.02039 0.67586 0.69683 0.0
O744 O 1.01066 0.7423 0.76526 0.0
O745 O 0.04498 0.73474 0.77223 0.0
O746 O 0.03546 0.67675 0.71671 0.0
O747 O 1.00579 0.69222 0.70599 0.0
H748 H 0.06601 0.764 0.74238 0.0
H749 H 0.07966 0.80859 0.74185 0.0
H750 H 0.02421 0.83782 0.79146 0.0
H751 H 0.01268 0.79479 0.79497 0.0
H752 H 1.00108 0.72555 0.87684 0.0
H753 H 1.00697 0.72363 0.82746 0.0
H754 H 0.95345 0.65361 0.84501 0.0
H755 H 0.95874 0.65211 0.79642 0.0
H756 H 0.9952 0.58564 0.67085 0.0
H757 H 0.99735 0.62392 0.60713 0.0
H758 H 1.00958 0.66518 0.64246 0.0
H759 H 1.00738 0.62855 0.70702 0.0
C760 C 0.5314 0.2706 0.02024 0.0
C761 C 0.51199 0.27106 0.03574 0.0
C762 C 0.50759 0.22276 0.02393 0.0
C763 C 0.50019 0.24732 0.0375 0.0
C764 C 0.52761 0.22268 1.00976 0.0
C765 C 0.53928 0.24626 1.00789 0.0
U766 U 0.54549 0.34223 1.01076 0.0
O767 O 0.57971 0.36016 1.00449 0.0
O768 O 0.55439 0.34303 0.96793 0.0
C769 C 0.57525 0.35367 0.97668 0.0
C770 C 0.54236 0.29371 0.01287 0.0
C771 C 0.58976 0.36511 0.95847 0.0
C772 C 0.61472 0.35728 0.91891 0.0
C773 C 0.60334 0.34897 0.93962 0.0
C774 C 0.6001 0.39873 0.93638 0.0
C775 C 0.61255 0.38185 0.91612 0.0
C776 C 0.58874 0.3904 0.95724 0.0
C777 C 0.50358 0.3962 0.04333 0.0
C778 C 0.4986 0.44156 0.0484 0.0
C779 C 0.46697 0.41079 0.05238 0.0
C780 C 0.48093 0.39148 0.04879 0.0
C781 C 0.47514 0.43607 0.05124 0.0
C782 C 0.51255 0.42173 0.04394 0.0
C783 C 0.51618 0.37319 0.03618 0.0
O784 O 0.53197 0.29978 0.99314 0.0
O785 O 0.5539 0.3145 0.03257 0.0
O786 O 0.53641 0.37532 0.04783 0.0
O787 O 0.51251 0.35519 1.01044 0.0
H788 H 0.50545 0.28946 0.04539 0.0
H789 H 0.48479 0.24799 0.04857 0.0
H790 H 0.53358 0.20414 0.9987 0.0
H791 H 0.55402 0.24525 0.9955 0.0
H792 H 0.62479 0.34408 0.90461 0.0
H793 H 0.60454 0.32941 0.94023 0.0
H794 H 0.59816 0.41789 0.93518 0.0
H795 H 0.57848 0.40327 0.97161 0.0
H796 H 0.50642 0.46103 0.04942 0.0
H797 H 0.44939 0.40509 0.05464 0.0
H798 H 0.47365 0.37217 0.04913 0.0
H799 H 0.53014 0.42627 0.04059 0.0
C800 C 0.92883 0.45942 0.71217 0.0
C801 C 0.94147 0.45589 0.68793 0.0
C802 C 0.94356 0.50309 0.69387 0.0
C803 C 0.94938 0.47767 0.67943 0.0
C804 C 0.93275 0.50671 0.71964 0.0
C805 C 0.92568 0.48522 0.72872 0.0
U806 U 0.89532 0.39193 0.7216 0.0
O807 O 0.89266 0.39007 0.76588 0.0
O808 O 0.86352 0.39649 0.74333 0.0
C809 C 0.8714 0.39321 0.76647 0.0
C810 C 0.91634 0.43697 0.71921 0.0
C811 C 0.85933 0.40119 0.79385 0.0
C812 C 0.84681 0.43373 0.83673 0.0
C813 C 0.86105 0.42736 0.81342 0.0
C814 C 0.82972 0.38796 0.82194 0.0
C815 C 0.83028 0.41421 0.84074 0.0
C816 C 0.84386 0.38166 0.799 0.0
C817 C 0.89187 0.3217 0.65238 0.0
C818 C 0.87409 0.27582 0.62707 0.0
C819 C 0.89792 0.29873 0.60155 0.0
C820 C 0.90201 0.32137 0.62679 0.0
C821 C 0.88331 0.27586 0.60103 0.0
C822 C 0.87837 0.29832 0.65233 0.0
C823 C 0.89295 0.347 0.67769 0.0
O824 O 0.89543 0.42768 0.7096 0.0
O825 O 0.92652 0.42116 0.72852 0.0
O826 O 0.90855 0.35439 0.69886 0.0
O827 O 0.87886 0.36389 0.68005 0.0
H828 H 0.94459 0.4363 0.67505 0.0
H829 H 0.95933 0.47418 0.66086 0.0
H830 H 0.92825 0.52578 0.73193 0.0
H831 H 0.91634 0.48853 0.74785 0.0
H832 H 0.84806 0.45413 0.85083 0.0
H833 H 0.87285 0.44297 0.81028 0.0
H834 H 0.81789 0.37211 0.82456 0.0
H835 H 0.84216 0.36134 0.78454 0.0
H836 H 0.86279 0.25866 0.62759 0.0
H837 H 0.90519 0.29967 0.58197 0.0
H838 H 0.91238 0.33904 0.62596 0.0
H839 H 0.87024 0.29782 0.67156 0.0
C840 C 0.04926 0.47506 0.16123 0.0
C841 C 0.04598 0.49618 0.18541 0.0
C842 C 0.03772 0.46536 0.21119 0.0
C843 C 0.04124 0.4915 0.21052 0.0
C844 C 0.03946 0.44409 0.18625 0.0
C845 C 0.04581 0.4492 0.16155 0.0
U846 U 0.06997 0.52143 0.12138 0.0
O847 O 0.09991 0.52301 0.09711 0.0
O848 O 0.06644 0.51117 0.07503 0.0
C849 C 0.08812 0.51347 0.07239 0.0
C850 C 0.05938 0.4802 0.13706 0.0
C851 C 0.0962 0.49119 0.05113 0.0
C852 C 0.11417 0.45195 0.0407 0.0
C853 C 0.10012 0.46872 0.05752 0.0
C854 C 0.11784 0.47825 1.00946 0.0
C855 C 0.12405 0.45771 0.01761 0.0
C856 C 0.10394 0.49491 0.02616 0.0
C857 C 0.05771 0.59471 0.15328 0.0
C858 C 0.07342 0.64218 0.13391 0.0
C859 C 0.02741 0.63358 0.1768 0.0
C860 C 0.03564 0.60429 0.17207 0.0
C861 C 0.05312 0.66107 0.15067 0.0
C862 C 0.07493 0.61164 0.13611 0.0
C863 C 0.05998 0.56775 0.15197 0.0
O864 O 0.04588 0.4869 0.12065 0.0
O865 O 0.07917 0.49515 0.14333 0.0
O866 O 0.07996 0.56126 0.15401 0.0
O867 O 0.04553 0.54875 0.13417 0.0
H868 H 0.04899 0.51639 0.18553 0.0
H869 H 0.0417 0.50874 0.22971 0.0
H870 H 0.0372 0.42396 0.18635 0.0
H871 H 0.04926 0.43336 0.14309 0.0
H872 H 0.1189 0.43611 0.04718 0.0
H873 H 0.09401 0.46552 0.07674 0.0
H874 H 0.12545 0.48293 0.99173 0.0
H875 H 0.10093 0.51211 0.02102 0.0
H876 H 0.08592 0.64997 0.12219 0.0
H877 H 0.01378 0.63832 0.1912 0.0
H878 H 0.02636 0.59128 0.1818 0.0
H879 H 0.08827 0.60173 0.12499 0.0
C880 C 0.34137 0.50521 0.72634 0.0
C881 C 0.35131 0.50045 0.74938 0.0
C882 C 0.32956 0.52991 0.78317 0.0
C883 C 0.34546 0.51252 0.77734 0.0
C884 C 0.32042 0.53608 0.76032 0.0
C885 C 0.32617 0.52357 0.73186 0.0
U886 U 0.33937 0.46558 0.64162 0.0
O887 O 0.30415 0.46049 0.62677 0.0
O888 O 0.32911 0.48933 0.61653 0.0
C889 C 0.30791 0.47893 0.61498 0.0
C890 C 0.34616 0.48818 0.69747 0.0
C891 C 0.29389 0.47503 0.58926 0.0
C892 C 0.25785 0.48008 0.57165 0.0
C893 C 0.27471 0.48741 0.5934 0.0
C894 C 0.28031 0.44986 0.54022 0.0
C895 C 0.26017 0.46038 0.54548 0.0
C896 C 0.29718 0.45701 0.56223 0.0
C897 C 0.37288 0.40618 0.59734 0.0
C898 C 0.37039 0.36757 0.55395 0.0
C899 C 0.39851 0.37435 0.59213 0.0
C900 C 0.39112 0.39798 0.60793 0.0
C901 C 0.38786 0.35868 0.56538 0.0
C902 C 0.36284 0.39125 0.56995 0.0
C903 C 0.36314 0.42821 0.61717 0.0
O904 O 0.35603 0.49853 0.67939 0.0
O905 O 0.33213 0.46628 0.68511 0.0
O906 O 0.34331 0.42349 0.62664 0.0
O907 O 0.36948 0.45288 0.61875 0.0
H908 H 0.36302 0.48635 0.74559 0.0
H909 H 0.35285 0.50745 0.7944 0.0
H910 H 0.30816 0.54951 0.76431 0.0
H911 H 0.31825 0.52751 0.71432 0.0
H912 H 0.24215 0.48782 0.57624 0.0
H913 H 0.27195 0.50122 0.61428 0.0
H914 H 0.28197 0.43417 0.52019 0.0
H915 H 0.31188 0.44717 0.5588 0.0
H916 H 0.3617 0.35538 0.53357 0.0
H917 H 0.41163 0.36748 0.60156 0.0
H918 H 0.39884 0.40907 0.62922 0.0
H919 H 0.34857 0.39718 0.56163 0.0
C920 C 0.86376 0.78866 0.39828 0.0
C921 C 0.8456 0.8007 0.39335 0.0
C922 C 0.84148 0.77123 0.34297 0.0
C923 C 0.83463 0.79213 0.36568 0.0
C924 C 0.85946 0.75945 0.3488 0.0
C925 C 0.87068 0.76847 0.37568 0.0
U926 U 0.88405 0.81992 0.48152 0.0
O927 O 0.9192 0.82344 0.49661 0.0
O928 O 0.89308 0.79589 0.50753 0.0
C929 C 0.9145 0.80558 0.50905 0.0
C930 C 0.87559 0.79434 0.42637 0.0
C931 C 0.93252 0.7976 0.52381 0.0
C932 C 0.97086 0.78811 0.5259 0.0
C933 C 0.95444 0.79846 0.51442 0.0
C934 C 0.94412 0.77664 0.55724 0.0
C935 C 0.96573 0.77608 0.54669 0.0
C936 C 0.92772 0.78719 0.54589 0.0
C937 C 0.85575 0.87897 0.53188 0.0
C938 C 0.85428 0.89819 0.58349 0.0
C939 C 0.83082 0.91102 0.55192 0.0
C940 C 0.84002 0.89448 0.52823 0.0
C941 C 0.83744 0.9124 0.57958 0.0
C942 C 0.86336 0.88132 0.55962 0.0
C943 C 0.86139 0.85856 0.5061 0.0
O944 O 0.89073 0.8156 0.43659 0.0
O945 O 0.86489 0.78718 0.44611 0.0
O946 O 0.85456 0.83381 0.50382 0.0
O947 O 0.88107 0.86243 0.49586 0.0
H948 H 0.8398 0.81624 0.41071 0.0
H949 H 0.82065 0.8015 0.36221 0.0
H950 H 0.86447 0.74219 0.33305 0.0
H951 H 0.88439 0.75868 0.37913 0.0
H952 H 0.98713 0.7876 0.51692 0.0
H953 H 0.95865 0.80598 0.49716 0.0
H954 H 0.93932 0.76698 0.57264 0.0
H955 H 0.911 0.78619 0.55358 0.0
H956 H 0.8593 0.89887 0.60483 0.0
H957 H 0.81768 0.92164 0.54861 0.0
H958 H 0.83391 0.8927 0.5069 0.0
H959 H 0.8754 0.86929 0.56273 0.0
C960 C 0.03768 0.65516 0.9428 0.0
C961 C 0.0274 0.63459 0.91853 0.0
C962 C 0.02303 0.60872 0.91857 0.0
C963 C 0.02448 0.60441 0.94448 0.0
H964 H 0.03639 0.56972 1.00727 0.0
H965 H 0.03379 0.52391 0.98332 0.0
H966 H 0.9648 0.51269 1.00338 0.0
H967 H 0.96724 0.56126 0.02759 0.0
H968 H 0.03231 0.68508 0.08741 0.0
H969 H 0.0322 0.73204 0.09391 0.0
H970 H 0.97649 0.70801 0.03051 0.0
H971 H 0.97399 0.6635 0.02925 0.0
H972 H 0.04384 0.66797 0.98808 0.0
H973 H 0.04128 0.6753 0.94279 0.0
H974 H 0.01549 0.59285 0.89961 0.0
H975 H 0.0183 0.58477 0.94479 0.0
N976 N 0.0132 0.60089 0.99759 0.0
N977 N 1.00091 0.62001 0.04381 0.0
N978 N 0.01996 0.64624 0.01904 0.0
C979 C 1.00385 0.59777 0.02091 0.0
C980 C 1.00903 0.64469 0.04219 0.0
C981 C 0.02207 0.62443 0.9968 0.0
C982 C 1.00217 0.56976 0.01988 0.0
C983 C 0.02058 0.55769 1.00764 0.0
C984 C 0.01863 0.531 0.9919 0.0
C985 C 0.99807 0.51425 0.98769 0.0
C986 C 0.98025 0.52525 1.00358 0.0
C987 C 0.98195 0.55296 0.0187 0.0
C988 C 1.0022 0.67039 0.05935 0.0
C989 C 0.01854 0.69051 0.07752 0.0
C990 C 0.019 0.71745 0.08023 0.0
C991 C 1.00371 0.725 0.06373 0.0
C992 C 0.98731 0.7046 0.04596 0.0
C993 C 0.98581 0.67837 0.04511 0.0
C994 C 0.03014 0.62624 0.97 0.0
C995 C 0.03884 0.65105 0.96875 0.0
C996 C 0.61024 0.54454 0.73196 0.0
C997 C 0.61055 0.55872 0.76149 0.0
C998 C 0.6215 0.55012 0.78101 0.0
C999 C 0.63 0.52632 0.77155 0.0
H1000 H 0.62727 0.46977 0.80167 0.0
H1001 H 0.626 0.45337 0.8409 0.0
H1002 H 0.6473 0.38093 0.78649 0.0
H1003 H 0.6467 0.39686 0.74575 0.0
H1004 H 0.62767 0.38781 0.66829 0.0
H1005 H 0.61932 0.36428 0.6166 0.0
H1006 H 0.62596 0.43874 0.60178 0.0
H1007 H 0.63432 0.46229 0.6529 0.0
H1008 H 0.61722 0.50926 0.69964 0.0
H1009 H 0.60169 0.5507 0.71653 0.0
H1010 H 0.62203 0.56091 0.80389 0.0
H1011 H 0.63707 0.51948 0.78743 0.0
N1012 N 0.63452 0.47163 0.75327 0.0
N1013 N 0.63552 0.43048 0.7173 0.0
N1014 N 0.63187 0.4683 0.70526 0.0
C1015 C 0.63611 0.44553 0.74594 0.0
C1016 C 0.63358 0.44212 0.69677 0.0
C1017 C 0.63243 0.48318 0.73333 0.0
C1018 C 0.63672 0.43451 0.76995 0.0
C1019 C 0.63159 0.45017 0.79763 0.0
C1020 C 0.6311 0.44079 0.82064 0.0
C1021 C 0.6361 0.41544 0.81738 0.0
C1022 C 0.6423 0.40009 0.78997 0.0
C1023 C 0.64225 0.40933 0.76648 0.0
C1024 C 0.63145 0.42699 0.66512 0.0
C1025 C 0.6277 0.39917 0.65404 0.0
C1026 C 0.62286 0.38571 0.62442 0.0
C1027 C 0.62191 0.39966 0.60513 0.0
C1028 C 0.62672 0.42738 0.61596 0.0
C1029 C 0.63139 0.44083 0.64547 0.0
C1030 C 0.6279 0.51076 0.74228 0.0
C1031 C 0.61896 0.5207 0.72238 0.0
C1032 C 0.89356 0.90797 0.22598 0.0
C1033 C 0.91701 0.91268 0.22612 0.0
C1034 C 0.9277 0.93798 0.22793 0.0
C1035 C 0.91534 0.95885 0.2329 0.0
H1036 H 0.86473 0.02208 0.20093 0.0
H1037 H 0.8786 0.05478 0.17353 0.0
H1038 H 0.92872 0.11747 0.27868 0.0
H1039 H 0.91027 0.08668 0.26818 0.0
H1040 H 0.8031 0.99971 0.24303 0.0
H1041 H 0.76924 1.00063 0.27076 0.0
H1042 H 0.8005 0.96371 0.32271 0.0
H1043 H 0.83418 0.96404 0.29608 0.0
H1044 H 0.8634 0.92453 0.23306 0.0
H1045 H 0.88464 0.88835 0.22276 0.0
H1046 H 0.94572 0.94203 0.22715 0.0
H1047 H 0.92402 0.97839 0.23529 0.0
N1048 N 0.88807 1.00129 0.24641 0.0
N1049 N 0.85362 0.01566 0.25994 0.0
N1050 N 0.85786 0.9718 0.25251 0.0
C1051 C 0.8756 0.02122 0.25423 0.0
C1052 C 0.84474 0.99087 0.25948 0.0
C1053 C 0.87925 0.9766 0.24551 0.0
C1054 C 0.88383 0.04512 0.24695 0.0
C1055 C 0.87602 0.03991 0.21284 0.0
C1056 C 0.88553 0.06054 0.1957 0.0
C1057 C 0.91248 0.10195 0.22854 0.0
C1058 C 0.91605 0.09924 0.2629 0.0
C1059 C 0.90235 0.07088 0.2701 0.0
C1060 C 0.82205 0.98452 0.26944 0.0
C1061 C 0.80266 0.99219 0.26063 0.0
C1062 C 0.78305 0.99191 0.27595 0.0
C1063 C 0.78261 0.98347 0.29997 0.0
C1064 C 0.80056 0.97119 0.30501 0.0
C1065 C 0.81999 0.97158 0.28981 0.0
C1066 C 0.89224 0.9546 0.23638 0.0
C1067 C 0.88136 0.92877 0.23169 0.0
C1068 C 0.60353 0.9133 0.03888 0.0
C1069 C 0.58259 0.91102 0.02473 0.0
C1070 C 0.5776 0.93305 0.01811 0.0
C1071 C 0.59272 0.95705 0.02689 0.0
H1072 H 0.59605 0.04298 0.04478 0.0
H1073 H 0.58493 0.08696 0.05408 0.0
H1074 H 0.64684 0.1228 0.10574 0.0
H1075 H 0.65884 0.08085 0.09375 0.0
H1076 H 0.68994 0.05705 0.11049 0.0
H1077 H 0.72083 0.06459 0.1456 0.0
H1078 H 0.7126 0.98109 0.13216 0.0
H1079 H 0.68133 0.97308 0.09639 0.0
H1080 H 0.63412 0.93788 0.05908 0.0
H1081 H 0.60817 0.89671 0.04395 0.0
H1082 H 0.56165 0.93215 1.00731 0.0
H1083 H 0.58803 0.97381 0.02218 0.0
N1084 N 0.62201 1.00844 0.05339 0.0
N1085 N 0.65507 0.03282 0.07977 0.0
N1086 N 0.64843 0.98712 0.06935 0.0
C1087 C 0.63542 0.0322 0.06596 0.0
C1088 C 0.66189 1.01087 0.0819 0.0
C1089 C 0.62852 0.98563 0.05469 0.0
C1090 C 0.62841 0.0581 0.0683 0.0
C1091 C 0.60752 0.06047 0.05724 0.0
C1092 C 0.60108 0.08566 0.06282 0.0
C1093 C 0.61527 0.10883 0.07994 0.0
C1094 C 0.63592 0.10604 0.09099 0.0
C1095 C 0.64264 0.08141 0.08455 0.0
C1096 C 0.6827 0.01431 0.10056 0.0
C1097 C 0.69475 0.04 0.11441 0.0
C1098 C 0.71267 0.04447 0.13458 0.0
C1099 C 0.71918 0.02348 0.14164 0.0
C1100 C 0.7079 0.99766 0.1271 0.0
C1101 C 0.68996 0.99308 0.10664 0.0
C1102 C 0.61322 0.9596 0.04243 0.0
C1103 C 0.61855 0.93706 0.04753 0.0
C1104 C 0.16319 0.38627 0.50102 0.0
C1105 C 0.17876 0.39524 0.48401 0.0
C1106 C 0.17163 0.39148 0.45552 0.0
C1107 C 0.1489 0.38563 0.44711 0.0
H1108 H 0.08696 0.45098 0.44474 0.0
H1109 H 0.07741 0.47179 0.41085 0.0
H1110 H 0.0738 0.39684 0.34218 0.0
H1111 H 0.07803 0.37543 0.37881 0.0
H1112 H 0.0457 0.34634 0.47719 0.0
H1113 H 0.03266 0.3249 0.51199 0.0
H1114 H 0.0635 0.39482 0.57976 0.0
H1115 H 0.07735 0.41452 0.54349 0.0
H1116 H 0.12923 0.37377 0.5065 0.0
H1117 H 0.16724 0.38733 0.52266 0.0
H1118 H 0.18311 0.39431 0.43994 0.0
H1119 H 0.14354 0.38619 0.42641 0.0
N1120 N 0.10333 0.39242 0.44125 0.0
N1121 N 0.06796 0.3959 0.46054 0.0
N1122 N 0.09613 0.38317 0.48358 0.0
C1123 C 0.08257 0.39849 0.43945 0.0
C1124 C 0.07515 0.38859 0.48328 0.0
C1125 C 0.11002 0.38446 0.46277 0.0
C1126 C 0.07854 0.41084 0.41611 0.0
C1127 C 0.08139 0.43845 0.42306 0.0
C1128 C 0.07711 0.45055 0.40261 0.0
C1129 C 0.07227 0.43609 0.37254 0.0
C1130 C 0.07508 0.40893 0.36467 0.0
C1131 C 0.0775 0.39652 0.38599 0.0
C1132 C 0.06111 0.3823 0.50642 0.0
C1133 C 0.0488 0.35702 0.49924 0.0
C1134 C 0.04169 0.34492 0.5195 0.0
C1135 C 0.04661 0.35813 0.54896 0.0
C1136 C 0.05898 0.38396 0.55721 0.0
C1137 C 0.06651 0.39558 0.5363 0.0
C1138 C 0.13332 0.38131 0.46633 0.0
C1139 C 0.14082 0.37862 0.49184 0.0
C1140 C 0.21999 0.45057 0.96031 0.0
C1141 C 0.20525 0.42901 0.96309 0.0
C1142 C 0.21047 0.40337 0.95011 0.0
C1143 C 0.22855 0.39921 0.93274 0.0
H1144 H 0.23271 0.34634 0.85937 0.0
H1145 H 0.21495 0.30893 0.82001 0.0
H1146 H 0.25359 0.33751 0.76065 0.0
H1147 H 0.27336 0.37402 0.80116 0.0
H1148 H 0.31613 0.42502 0.83699 0.0
H1149 H 0.34871 0.45639 0.83543 0.0
H1150 H 0.34533 0.49979 0.92546 0.0
H1151 H 0.3123 0.46846 0.92726 0.0
H1152 H 0.2489 0.46326 0.94074 0.0
H1153 H 0.21667 0.4707 0.96987 0.0
H1154 H 0.20051 0.38633 0.95292 0.0
H1155 H 0.23127 0.37901 0.9217 0.0
N1156 N 0.25152 0.39347 0.88193 0.0
N1157 N 0.28285 0.40401 0.85843 0.0
N1158 N 0.27708 0.43171 0.90535 0.0
C1159 C 0.26356 0.38754 0.85847 0.0
C1160 C 0.28994 0.42606 0.88207 0.0
C1161 C 0.25788 0.41515 0.90525 0.0
C1162 C 0.2544 0.3636 0.83353 0.0
C1163 C 0.23769 0.34468 0.83796 0.0
C1164 C 0.22695 0.32328 0.81503 0.0
C1165 C 0.23171 0.3205 0.78653 0.0
C1166 C 0.24915 0.33884 0.78213 0.0
C1167 C 0.26051 0.35997 0.80537 0.0
C1168 C 0.31119 0.44418 0.88212 0.0
C1169 C 0.32239 0.44092 0.85667 0.0
C1170 C 0.34126 0.45883 0.85578 0.0
C1171 C 0.34981 0.48042 0.88032 0.0
C1172 C 0.3394 0.48312 0.90625 0.0
C1173 C 0.32027 0.46528 0.90713 0.0
C1174 C 0.24243 0.42063 0.9287 0.0
C1175 C 0.23858 0.44643 0.94361 0.0
C1176 C 1.00093 0.66571 0.57054 0.0
C1177 C 1.00844 0.69071 0.56972 0.0
C1178 C 0.03018 0.70149 0.58399 0.0
C1179 C 0.04327 0.68594 0.5944 0.0
H1180 H 0.06364 0.64532 0.6796 0.0
H1181 H 0.05962 0.63359 0.72156 0.0
H1182 H 0.03664 0.55183 0.66841 0.0
H1183 H 0.04321 0.56377 0.62731 0.0
H1184 H 0.04743 0.54469 0.57303 0.0
H1185 H 0.04987 0.50481 0.53427 0.0
H1186 H 0.06821 0.54979 0.47842 0.0
H1187 H 0.06517 0.59091 0.51813 0.0
H1188 H 1.008 0.62788 0.56818 0.0
H1189 H 0.98429 0.6592 0.56873 0.0
H1190 H 0.03687 0.72199 0.58769 0.0
H1191 H 0.05944 0.69481 0.60564 0.0
N1192 N 0.04935 0.63614 0.62085 0.0
N1193 N 0.05697 0.59291 0.5995 0.0
N1194 N 0.05096 0.61771 0.57058 0.0
C1195 C 0.05404 0.61286 0.62334 0.0
C1196 C 0.05553 0.59491 0.57334 0.0
C1197 C 0.04812 0.63877 0.59416 0.0
C1198 C 0.05238 0.60611 0.65006 0.0
C1199 C 0.05736 0.62498 0.67727 0.0
C1200 C 0.05417 0.61786 0.70186 0.0
C1201 C 0.04452 0.59179 0.70019 0.0
C1202 C 0.04215 0.57252 0.67238 0.0
C1203 C 0.04615 0.57947 0.64801 0.0
C1204 C 0.05661 0.57103 0.54869 0.0
C1205 C 0.05258 0.54643 0.55279 0.0
C1206 C 0.05444 0.52343 0.53065 0.0
C1207 C 0.06014 0.52425 0.50367 0.0
C1208 C 0.06452 0.54885 0.49943 0.0
C1209 C 0.06234 0.57216 0.5218 0.0
C1210 C 0.03558 0.65869 0.58859 0.0
C1211 C 0.01462 0.64875 0.57455 0.0
C1212 C 0.74137 0.45128 0.91915 0.0
C1213 C 0.76058 0.4419 0.92617 0.0
C1214 C 0.7625 0.4404 0.95397 0.0
C1215 C 0.74589 0.44794 0.97387 0.0
H1216 H 0.73382 0.47872 0.06942 0.0
H1217 H 0.73631 0.47951 0.11934 0.0
H1218 H 0.66446 0.46273 0.11707 0.0
H1219 H 0.66171 0.46222 0.06786 0.0
H1220 H 0.64543 0.51005 0.03853 0.0
H1221 H 0.61554 0.5329 0.02954 0.0
H1222 H 0.63154 0.51334 0.94107 0.0
H1223 H 0.66168 0.49006 0.94974 0.0
H1224 H 0.71059 0.46621 0.93254 0.0
H1225 H 0.73923 0.4532 0.89827 0.0
H1226 H 0.77683 0.43314 0.96032 0.0
H1227 H 0.74818 0.44632 0.99488 0.0
N1228 N 0.71124 0.46458 0.01533 0.0
N1229 N 0.67793 0.48258 0.02762 0.0
N1230 N 0.69133 0.47695 0.98188 0.0
C1231 C 0.69556 0.47238 0.03493 0.0
C1232 C 0.6756 0.48522 1.00136 0.0
C1233 C 0.70925 0.46649 0.98854 0.0
C1234 C 0.69756 0.47038 0.06439 0.0
C1235 C 0.71852 0.47477 0.07946 0.0
C1236 C 0.71996 0.47533 0.10816 0.0
C1237 C 0.70052 0.4709 0.12241 0.0
C1238 C 0.67972 0.46559 0.10687 0.0
C1239 C 0.67819 0.46554 0.07852 0.0
C1240 C 0.65638 0.4981 0.99495 0.0
C1241 C 0.64263 0.51022 0.01697 0.0
C1242 C 0.62534 0.52337 1.01188 0.0
C1243 C 0.62106 0.52491 0.98461 0.0
C1244 C 0.63438 0.51249 0.96234 0.0
C1245 C 0.65174 0.49921 0.96739 0.0
C1246 C 0.72679 0.45762 0.96693 0.0
C1247 C 0.72486 0.45898 0.93906 0.0
C1248 C 0.28547 0.87729 0.65947 0.0
C1249 C 0.29528 0.8886 0.68774 0.0
C1250 C 0.28335 0.9057 0.70849 0.0
C1251 C 0.26159 0.90927 0.70171 0.0
H1252 H 0.20489 0.91984 0.74084 0.0
H1253 H 0.18356 0.93398 0.78322 0.0
H1254 H 0.12528 0.92829 0.72896 0.0
H1255 H 0.14633 0.91294 0.68657 0.0
H1256 H 0.15227 0.87169 0.60626 0.0
H1257 H 0.13987 0.84339 0.55632 0.0
H1258 H 0.20765 0.82974 0.53911 0.0
H1259 H 0.22013 0.85756 0.58805 0.0
H1260 H 0.25713 0.87152 0.63071 0.0
H1261 H 0.29374 0.86398 0.64262 0.0
H1262 H 0.29054 0.91614 0.73012 0.0
H1263 H 0.25258 0.92161 0.71853 0.0
N1264 N 0.21369 0.90636 0.68857 0.0
N1265 N 0.18207 0.89224 0.65553 0.0
N1266 N 0.21809 0.88484 0.6399 0.0
C1267 C 0.19118 0.90448 0.68351 0.0
C1268 C 0.19573 0.88233 0.63335 0.0
C1269 C 0.22727 0.89675 0.66714 0.0
C1270 C 0.17745 0.91468 0.70955 0.0
C1271 C 0.18747 0.92165 0.73769 0.0
C1272 C 0.17522 0.93016 0.76242 0.0
C1273 C 0.15245 0.93294 0.7606 0.0
C1274 C 0.14262 0.92677 0.73239 0.0
C1275 C 0.1548 0.91773 0.70748 0.0
C1276 C 0.18726 0.86704 0.60208 0.0
C1277 C 0.16462 0.86297 0.59184 0.0
C1278 C 0.15751 0.84684 0.563 0.0
C1279 C 0.17277 0.83433 0.54335 0.0
C1280 C 0.19541 0.8392 0.55325 0.0
C1281 C 0.2025 0.85521 0.58178 0.0
C1282 C 0.25143 0.89646 0.67379 0.0
C1283 C 0.26411 0.88142 0.65256 0.0
C1284 C 0.99707 0.11866 0.78454 0.0
C1285 C 0.99425 0.09295 0.76419 0.0
C1286 C 0.97266 0.08077 0.75204 0.0
C1287 C 0.95426 0.09426 0.75966 0.0
H1288 H 0.88498 0.08821 0.74267 0.0
H1289 H 0.84943 0.07114 0.71375 0.0
H1290 H 0.82954 0.14868 0.74679 0.0
H1291 H 0.865 0.16592 0.77516 0.0
H1292 H 0.89651 0.21326 0.8196 0.0
H1293 H 0.90629 0.26122 0.8421 0.0
H1294 H 0.97416 0.25231 0.8601 0.0
H1295 H 0.96472 0.20428 0.83761 0.0
H1296 H 0.98169 0.15211 0.80755 0.0
H1297 H 0.01359 0.12874 0.79392 0.0
H1298 H 0.97006 0.0609 0.73642 0.0
H1299 H 0.9379 0.08445 0.74953 0.0
N1300 N 0.91742 0.125 0.77242 0.0
N1301 N 0.90446 0.16543 0.79485 0.0
N1302 N 0.9417 0.1612 0.80371 0.0
C1303 C 0.90043 0.13976 0.77691 0.0
C1304 C 0.92502 0.17626 0.80849 0.0
C1305 C 0.93811 0.1356 0.78582 0.0
C1306 C 0.87811 0.1286 0.76104 0.0
C1307 C 0.87301 0.10164 0.74388 0.0
C1308 C 0.85256 0.09176 0.72742 0.0
C1309 C 0.8368 0.10863 0.72756 0.0
C1310 C 0.8415 0.13526 0.74569 0.0
C1311 C 0.86186 0.14512 0.76211 0.0
C1312 C 0.92987 0.20481 0.82635 0.0
C1313 C 0.91338 0.22132 0.82899 0.0
C1314 C 0.91885 0.24876 0.84213 0.0
C1315 C 0.9408 0.2602 0.85315 0.0
C1316 C 0.95698 0.24378 0.85227 0.0
C1317 C 0.95157 0.2163 0.83906 0.0
C1318 C 0.95713 0.12026 0.7795 0.0
C1319 C 0.97873 0.13212 0.79219 0.0
C1320 C 0.54196 0.90224 0.52851 0.0
C1321 C 0.53821 0.92319 0.51903 0.0
C1322 C 0.55674 0.93612 0.50932 0.0
C1323 C 0.57785 0.92777 0.50807 0.0
H1324 H 0.65184 0.95331 0.51132 0.0
H1325 H 0.68666 0.97687 0.50087 0.0
H1326 H 0.71276 0.90343 0.46658 0.0
H1327 H 0.67893 0.87992 0.47848 0.0
H1328 H 0.65762 0.83193 0.48866 0.0
H1329 H 0.65904 0.78618 0.47983 0.0
H1330 H 0.59404 0.77764 0.51447 0.0
H1331 H 0.59138 0.82364 0.51974 0.0
H1332 H 0.56468 0.87665 0.53308 0.0
H1333 H 0.52886 0.89258 0.53781 0.0
H1334 H 0.55489 0.9523 0.50177 0.0
H1335 H 0.59145 0.93804 0.50003 0.0
N1336 N 0.62182 0.9098 0.50694 0.0
N1337 N 0.64178 0.8746 0.5021 0.0
N1338 N 0.60385 0.8702 0.51198 0.0
C1339 C 0.64144 0.89956 0.50209 0.0
C1340 C 0.62328 0.85973 0.50702 0.0
C1341 C 0.60292 0.89523 0.51197 0.0
C1342 C 0.66232 0.91458 0.49565 0.0
C1343 C 0.665 0.94215 0.50167 0.0
C1344 C 0.68492 0.95571 0.49558 0.0
C1345 C 0.70229 0.94201 0.48244 0.0
C1346 C 0.69967 0.91455 0.47657 0.0
C1347 C 0.68015 0.9011 0.48339 0.0
C1348 C 0.62439 0.83181 0.50498 0.0
C1349 C 0.64355 0.82054 0.49462 0.0
C1350 C 0.64464 0.79399 0.49024 0.0
C1351 C 0.62718 0.77778 0.49763 0.0
C1352 C 0.608 0.78919 0.50855 0.0
C1353 C 0.60652 0.81575 0.51185 0.0
C1354 C 0.58106 0.90578 0.51582 0.0
C1355 C 0.56284 0.89333 0.52635 0.0
C1356 C 0.19497 0.06043 0.18156 0.0
C1357 C 0.19868 0.06412 0.15526 0.0
C1358 C 0.2212 0.06862 0.14811 0.0
C1359 C 0.23942 0.06982 0.1672 0.0
H1360 H 0.31716 0.10359 0.20445 0.0
H1361 H 0.35693 0.1237 0.21458 0.0
H1362 H 0.36158 0.09164 0.28281 0.0
H1363 H 0.3224 0.07317 0.27394 0.0
H1364 H 0.28218 0.08443 0.31779 0.0
H1365 H 0.26495 0.08876 0.36334 0.0
H1366 H 0.19946 0.06454 0.31843 0.0
H1367 H 0.21639 0.05879 0.27342 0.0
H1368 H 0.20845 0.05912 0.22047 0.0
H1369 H 0.17807 0.0575 0.18826 0.0
H1370 H 0.22471 0.07148 0.12791 0.0
H1371 H 0.25644 0.07357 0.16123 0.0
N1372 N 0.27639 0.07644 0.21493 0.0
N1373 N 0.28251 0.07744 0.26259 0.0
N1374 N 0.24631 0.06774 0.24172 0.0
C1375 C 0.29101 0.07978 0.23807 0.0
C1376 C 0.26026 0.07145 0.26457 0.0
C1377 C 0.25363 0.07004 0.21685 0.0
C1378 C 0.31608 0.08751 0.23894 0.0
C1379 C 0.32674 0.1008 0.22152 0.0
C1380 C 0.34962 0.11235 0.22739 0.0
C1381 C 0.3624 0.1108 0.25075 0.0
C1382 C 0.35221 0.09501 0.26595 0.0
C1383 C 0.32954 0.08396 0.26046 0.0
C1384 C 0.2507 0.0713 0.2919 0.0
C1385 C 0.26416 0.07936 0.31763 0.0
C1386 C 0.2543 0.08195 0.34371 0.0
C1387 C 0.23086 0.07658 0.34447 0.0
C1388 C 0.21759 0.06793 0.31863 0.0
C1389 C 0.22737 0.06502 0.29271 0.0
C1390 C 0.2355 0.06688 0.19402 0.0
C1391 C 0.21283 0.06167 0.20035 0.0
C1392 C 0.98707 0.36931 0.08343 0.0
C1393 C 0.99435 0.38954 0.10932 0.0
C1394 C 0.99885 0.41584 0.11034 0.0
C1395 C 1.00325 0.42064 0.08506 0.0
H1396 H 0.98679 0.45666 0.02486 0.0
H1397 H 0.99062 0.50261 0.05181 0.0
H1398 H 0.05826 0.51248 0.02401 0.0
H1399 H 0.05389 0.4658 0.99762 0.0
H1400 H 0.0462 0.35476 0.9473 0.0
H1401 H 0.04467 0.30729 0.93664 0.0
H1402 H 0.97877 0.30417 0.97013 0.0
H1403 H 0.97951 0.3496 0.97601 0.0
H1404 H 0.98926 0.35709 0.03826 0.0
H1405 H 0.98264 0.34899 0.08265 0.0
H1406 H 1.00333 0.43178 0.13059 0.0
H1407 H 1.0099 0.44058 0.08614 0.0
N1408 N 0.01648 0.42632 0.03227 0.0
N1409 N 0.01999 0.40752 0.98234 0.0
N1410 N 0.01339 0.38103 1.01134 0.0
C1411 C 0.02044 0.42959 1.00692 0.0
C1412 C 0.01717 0.38281 0.98533 0.0
C1413 C 1.01209 0.40231 0.0343 0.0
C1414 C 0.01991 0.45729 1.00854 0.0
C1415 C 1.00227 0.469 0.02369 0.0
C1416 C 1.00502 0.49574 0.04062 0.0
C1417 C 0.02547 0.51268 0.04281 0.0
C1418 C 0.04223 0.50132 0.02457 0.0
C1419 C 0.03967 0.47406 1.00828 0.0
C1420 C 0.01283 0.35631 0.96224 0.0
C1421 C 0.03083 0.34335 0.95032 0.0
C1422 C 0.03031 0.31605 0.94584 0.0
C1423 C 1.01241 0.30132 0.95503 0.0
C1424 C 0.99326 0.31371 0.96288 0.0
C1425 C 0.99331 0.34022 0.96544 0.0
C1426 C 1.00208 0.39903 0.0594 0.0
C1427 C 0.99174 0.37382 0.05818 0.0
C1428 C 0.3895 0.63088 0.23801 0.0
C1429 C 0.38839 0.61294 0.20947 0.0
C1430 C 0.38502 0.58576 0.20527 0.0
C1431 C 0.3842 0.57675 0.22852 0.0
H1432 H 0.40012 0.5139 0.23814 0.0
H1433 H 0.41568 0.47265 0.22489 0.0
H1434 H 0.4134 0.47404 0.31236 0.0
H1435 H 0.39796 0.51544 0.32604 0.0
H1436 H 0.40314 0.56629 0.37134 0.0
H1437 H 0.41046 0.58866 0.42251 0.0
H1438 H 0.3953 0.66105 0.41407 0.0
H1439 H 0.38791 0.63865 0.36172 0.0
H1440 H 0.39021 0.63603 0.28321 0.0
H1441 H 0.39226 0.65202 0.24227 0.0
H1442 H 0.38354 0.57121 0.18381 0.0
H1443 H 0.38226 0.55553 0.22368 0.0
N1444 N 0.39058 0.55747 0.27307 0.0
N1445 N 0.39423 0.56017 0.3207 0.0
N1446 N 0.38963 0.5983 0.30986 0.0
C1447 C 0.39336 0.54566 0.29254 0.0
C1448 C 0.39238 0.5863 0.32993 0.0
C1449 C 0.3885 0.58349 0.28102 0.0
C1450 C 0.39822 0.51824 0.28329 0.0
C1451 C 0.40231 0.50512 0.25446 0.0
C1452 C 0.41105 0.48141 0.24676 0.0
C1453 C 0.41576 0.47054 0.26774 0.0
C1454 C 0.4099 0.48231 0.29597 0.0
C1455 C 0.40119 0.50603 0.30373 0.0
C1456 C 0.39505 0.60066 0.36183 0.0
C1457 C 0.40098 0.58693 0.37997 0.0
C1458 C 0.4051 0.59964 0.4096 0.0
C1459 C 0.40323 0.62645 0.42231 0.0
C1460 C 0.39662 0.6402 0.40472 0.0
C1461 C 0.39255 0.62744 0.37475 0.0
C1462 C 0.38656 0.5945 0.25718 0.0
C1463 C 0.38852 0.62175 0.26161 0.0
C1464 C 0.13404 0.11171 0.78518 0.0
C1465 C 0.11464 0.11339 0.80085 0.0
C1466 C 0.11006 0.09603 0.81651 0.0
C1467 C 0.12285 0.07585 0.81386 0.0
H1468 H 0.11861 0.97842 0.75827 0.0
H1469 H 0.08832 0.94028 0.76251 0.0
H1470 H 0.14965 0.94577 0.8541 0.0
H1471 H 0.15244 0.96505 0.83148 0.0
H1472 H 0.18781 0.97553 0.72246 0.0
H1473 H 0.22579 0.96631 0.68933 0.0
H1474 H 0.26136 0.06099 0.74348 0.0
H1475 H 0.22215 0.06969 0.77298 0.0
H1476 H 0.1611 0.09069 0.76943 0.0
H1477 H 0.13919 0.12548 0.77412 0.0
H1478 H 0.09613 0.09689 0.82992 0.0
H1479 H 0.11816 0.06208 0.8251 0.0
N1480 N 0.14523 0.02924 0.79847 0.0
N1481 N 0.17366 1.00666 0.77529 0.0
N1482 N 0.17156 0.04924 0.77492 0.0
C1483 C 0.15612 1.00783 0.79122 0.0
C1484 C 0.18125 0.02711 0.76715 0.0
C1485 C 0.15325 0.05038 0.79066 0.0
C1486 C 0.14662 0.98396 0.79473 0.0
C1487 C 0.12247 0.97018 0.77454 0.0
C1488 C 0.1029 0.94651 0.77747 0.0
C1489 C 0.10528 0.93186 0.80262 0.0
C1490 C 0.14299 0.95267 0.83471 0.0
C1491 C 0.15781 0.97735 0.82238 0.0
C1492 C 0.19975 0.02403 0.75003 0.0
C1493 C 0.20157 0.9915 0.72557 0.0
C1494 C 0.22598 0.9856 0.70545 0.0
C1495 C 0.24934 1.01279 0.71112 0.0
C1496 C 0.24769 0.0448 0.73779 0.0
C1497 C 0.22299 0.05055 0.75693 0.0
C1498 C 0.14102 0.07312 0.79627 0.0
C1499 C 0.1469 0.09179 0.78273 0.0
C1500 C 0.39235 0.92517 0.94245 0.0
C1501 C 0.41483 0.92237 0.94582 0.0
C1502 C 0.43053 0.94503 0.96001 0.0
C1503 C 0.42417 0.97031 0.96842 0.0
H1504 H 0.44831 0.05439 0.9911 0.0
H1505 H 0.47398 0.09541 1.00317 0.0
H1506 H 0.41792 0.13715 1.0018 0.0
H1507 H 0.39307 0.0956 0.98599 0.0
H1508 H 0.34948 0.05934 0.94081 0.0
H1509 H 0.31772 0.05109 0.90637 0.0
H1510 H 0.30509 0.96923 0.90105 0.0
H1511 H 0.33577 0.9775 0.93634 0.0
H1512 H 0.36858 0.95128 0.9466 0.0
H1513 H 0.37968 0.90802 0.93269 0.0
H1514 H 0.44793 0.94329 0.96337 0.0
H1515 H 0.43676 0.98753 0.97809 0.0
N1516 N 0.40971 0.02261 0.97664 0.0
N1517 N 0.38172 0.04497 0.9661 0.0
N1518 N 0.37441 0.99945 0.95673 0.0
C1519 C 0.40288 0.04572 0.97682 0.0
C1520 C 0.36738 0.02172 0.95617 0.0
C1521 C 0.39525 0.99934 0.96667 0.0
C1522 C 0.41855 0.0714 0.98713 0.0
C1523 C 0.44154 0.07238 0.99324 0.0
C1524 C 0.45637 0.09644 1.0009 0.0
C1525 C 0.4486 0.12065 1.00395 0.0
C1526 C 0.42526 0.11944 0.999 0.0
C1527 C 0.41067 0.09533 0.99023 0.0
C1528 C 0.34551 0.01905 0.94092 0.0
C1529 C 0.33946 0.03987 0.93313 0.0
C1530 C 0.32135 0.03511 0.91338 0.0
C1531 C 0.30923 1.00945 0.90092 0.0
C1532 C 0.31399 0.98922 0.91054 0.0
C1533 C 0.33184 0.99403 0.93055 0.0
C1534 C 0.40198 0.97318 0.96287 0.0
C1535 C 0.38602 0.95017 0.95076 0.0
C1536 C 0.85707 0.6407 0.52156 0.0
C1537 C 0.84098 0.63238 0.53817 0.0
C1538 C 0.84703 0.63426 0.56631 0.0
C1539 C 0.8695 0.63947 0.57554 0.0
H1540 H 0.91592 0.58434 0.57959 0.0
H1541 H 0.91345 0.5596 0.6117 0.0
H1542 H 0.9596 0.62088 0.67319 0.0
H1543 H 0.959 0.6483 0.64213 0.0
H1544 H 0.98947 0.63732 0.51561 0.0
H1545 H 0.01315 0.66405 0.4876 0.0
H1546 H 0.93488 0.72 0.52123 0.0
H1547 H 0.92806 0.68618 0.54904 0.0
H1548 H 0.89143 0.6518 0.51719 0.0
H1549 H 0.85334 0.63918 0.49963 0.0
H1550 H 0.83471 0.62884 0.57986 0.0
H1551 H 0.87416 0.63779 0.59596 0.0
N1552 N 0.91548 0.63585 0.58473 0.0
N1553 N 0.95187 0.63534 0.56861 0.0
N1554 N 0.92285 0.6399 0.54037 0.0
C1555 C 0.93675 0.632 0.588 0.0
C1556 C 0.94505 0.64126 0.5452 0.0
C1557 C 0.90856 0.63988 0.56097 0.0
C1558 C 0.93994 0.61687 0.60688 0.0
C1559 C 0.92637 0.59222 0.59946 0.0
C1560 C 0.92521 0.5778 0.61779 0.0
C1561 C 0.93964 0.58592 0.64262 0.0
C1562 C 0.95053 0.61245 0.65244 0.0
C1563 C 0.95057 0.62801 0.63457 0.0
C1564 C 0.95856 0.66065 0.53335 0.0
C1565 C 0.98326 0.65519 0.51594 0.0
C1566 C 0.99849 0.67214 0.49655 0.0
C1567 C 0.98977 0.69898 0.48926 0.0
C1568 C 0.94672 0.70616 0.52003 0.0
C1569 C 0.94249 0.68441 0.53616 0.0
C1570 C 0.88565 0.64354 0.55678 0.0
C1571 C 0.87924 0.64723 0.53138 0.0
C1572 C 0.80387 0.57698 0.05328 0.0
C1573 C 0.82429 0.59478 0.05982 0.0
C1574 C 0.82643 0.61679 0.08509 0.0
C1575 C 0.80896 0.62098 0.10327 0.0
H1576 H 0.79347 0.67802 0.16464 0.0
H1577 H 0.81024 0.71551 0.20518 0.0
H1578 H 0.76852 0.68684 0.26189 0.0
H1579 H 0.75059 0.64954 0.22053 0.0
H1580 H 0.70931 0.60234 0.18358 0.0
H1581 H 0.67654 0.57234 0.18682 0.0
H1582 H 0.68472 0.51992 0.10151 0.0
H1583 H 0.71851 0.54957 0.09833 0.0
H1584 H 0.77111 0.56658 0.06685 0.0
H1585 H 0.8016 0.55975 0.03389 0.0
H1586 H 0.84201 0.63035 0.09179 0.0
H1587 H 0.81191 0.63829 0.12257 0.0
N1588 N 0.77639 0.62995 0.14245 0.0
N1589 N 0.74413 0.61918 0.16378 0.0
N1590 N 0.75231 0.5906 0.11828 0.0
C1591 C 0.76315 0.63607 0.16458 0.0
C1592 C 0.7383 0.59648 0.1406 0.0
C1593 C 0.7716 0.60767 0.1194 0.0
C1594 C 0.77083 0.66046 0.18938 0.0
C1595 C 0.78758 0.67971 0.18567 0.0
C1596 C 0.79747 0.70118 0.20905 0.0
C1597 C 0.79139 0.70372 0.237 0.0
C1598 C 0.77373 0.68536 0.24063 0.0
C1599 C 0.76346 0.66395 0.21699 0.0
C1600 C 0.71708 0.57839 0.14083 0.0
C1601 C 0.7043 0.58451 0.16526 0.0
C1602 C 0.68527 0.56734 0.16716 0.0
C1603 C 0.67797 0.54357 0.14456 0.0
C1604 C 0.6899 0.53797 0.11939 0.0
C1605 C 0.70936 0.55499 0.11763 0.0
C1606 C 0.78878 0.60286 0.09752 0.0
C1607 C 0.78633 0.58087 0.07206 0.0
C1608 C 1.00385 0.34022 0.46094 0.0
C1609 C 1.01158 0.32165 0.43698 0.0
C1610 C 1.00529 0.32213 0.40971 0.0
C1611 C 0.99295 0.34178 0.40696 0.0
H1612 H 0.97628 0.38927 0.34726 0.0
H1613 H 0.99782 0.40492 0.3164 0.0
H1614 H 0.99827 0.48663 0.37313 0.0
H1615 H 0.99839 0.46189 0.39447 0.0
H1616 H 0.95387 0.47536 0.4694 0.0
H1617 H 0.96045 0.51465 0.51194 0.0
H1618 H 1.01188 0.48165 0.54405 0.0
H1619 H 1.00386 0.4413 0.5022 0.0
H1620 H 0.99011 0.37603 0.47808 0.0
H1621 H 1.00608 0.33903 0.48208 0.0
H1622 H 1.0098 0.30733 0.39056 0.0
H1623 H 0.9884 0.34155 0.38568 0.0
N1624 N 0.97787 0.39277 0.40463 0.0
N1625 N 0.97013 0.43531 0.4308 0.0
N1626 N 0.97945 0.40774 0.45522 0.0
C1627 C 0.97288 0.417 0.40507 0.0
C1628 C 0.97421 0.43142 0.45591 0.0
C1629 C 0.98038 0.38769 0.42992 0.0
C1630 C 0.97647 0.42686 0.37993 0.0
C1631 C 0.98134 0.41049 0.35349 0.0
C1632 C 0.9956 0.42065 0.33616 0.0
C1633 C 1.00806 0.44865 0.34355 0.0
C1634 C 0.99678 0.46493 0.36771 0.0
C1635 C 0.98232 0.45394 0.38456 0.0
C1636 C 0.97747 0.45462 0.48302 0.0
C1637 C 0.96609 0.47616 0.48597 0.0
C1638 C 0.97027 0.49901 0.51025 0.0
C1639 C 0.98633 0.50132 0.53217 0.0
C1640 C 0.99857 0.48023 0.52853 0.0
C1641 C 0.99397 0.45701 0.50446 0.0
C1642 C 0.98846 0.3628 0.43136 0.0
C1643 C 0.99373 0.36111 0.45843 0.0
C1644 C 0.28304 0.57299 0.1066 0.0
C1645 C 0.26453 0.58356 0.09978 0.0
C1646 C 0.26302 0.5857 0.07227 0.0
C1647 C 0.27922 0.57706 0.05214 0.0
H1648 H 0.28864 0.54174 0.95738 0.0
H1649 H 0.28409 0.54221 0.90823 0.0
H1650 H 0.35538 0.56429 0.90826 0.0
H1651 H 0.36021 0.56273 0.95667 0.0
H1652 H 0.38096 0.51738 0.98746 0.0
H1653 H 0.41121 0.4953 0.99578 0.0
H1654 H 0.39103 0.50629 0.08187 0.0
H1655 H 0.35963 0.52716 0.0728 0.0
H1656 H 0.31329 0.55674 0.093 0.0
H1657 H 0.28488 0.57114 0.12756 0.0
H1658 H 0.24901 0.59355 0.06606 0.0
H1659 H 0.27708 0.57875 0.03113 0.0
N1660 N 0.31249 0.5583 1.01027 0.0
N1661 N 0.34542 0.53978 0.99701 0.0
N1662 N 0.33269 0.54573 0.04321 0.0
C1663 C 0.32771 0.55018 0.99025 0.0
C1664 C 0.3481 0.53716 0.02328 0.0
C1665 C 0.31481 0.55651 0.03697 0.0
C1666 C 0.3248 0.55218 0.96105 0.0
C1667 C 0.30335 0.54702 0.94701 0.0
C1668 C 0.3007 0.54739 0.9189 0.0
C1669 C 0.31933 0.55385 0.90445 0.0
C1670 C 0.34067 0.55986 0.91889 0.0
C1671 C 0.34344 0.55868 0.9466 0.0
C1672 C 0.36755 0.52445 0.02945 0.0
C1673 C 0.38286 0.5153 1.00831 0.0
C1674 C 0.4007 0.50284 0.01332 0.0
C1675 C 0.40445 0.4994 0.03994 0.0
C1676 C 0.38905 0.50844 0.06108 0.0
C1677 C 0.37096 0.52067 0.05593 0.0
C1678 C 0.2977 0.5662 0.05885 0.0
C1679 C 0.29939 0.56467 0.08664 0.0
C1680 C 0.73323 0.13925 0.36964 0.0
C1681 C 0.72644 0.13567 0.34102 0.0
C1682 C 0.74134 0.12653 0.31956 0.0
C1683 C 0.76298 0.1236 0.32681 0.0
H1684 H 0.83113 0.14373 0.29747 0.0
H1685 H 0.85189 0.12815 0.25702 0.0
H1686 H 0.86955 0.07039 0.29367 0.0
H1687 H 0.86213 0.09826 0.33818 0.0
H1688 H 0.87041 0.17042 0.41893 0.0
H1689 H 0.88365 0.19775 0.46805 0.0
H1690 H 0.81681 0.18369 0.49559 0.0
H1691 H 0.80342 0.15918 0.44646 0.0
H1692 H 0.76035 0.14222 0.39947 0.0
H1693 H 0.72197 0.14524 0.38673 0.0
H1694 H 0.73724 0.12375 0.29734 0.0
H1695 H 0.77418 0.11773 0.30963 0.0
N1696 N 0.80915 0.12757 0.34169 0.0
N1697 N 0.84042 0.14237 0.37484 0.0
N1698 N 0.80385 0.1446 0.39091 0.0
C1699 C 0.83161 0.13171 0.34695 0.0
C1700 C 0.82652 0.14918 0.39715 0.0
C1701 C 0.79508 0.13363 0.36324 0.0
C1702 C 0.84551 0.12295 0.32173 0.0
C1703 C 0.84192 0.12922 0.29701 0.0
C1704 C 0.85324 0.1182 0.27193 0.0
C1705 C 0.86589 0.09681 0.26776 0.0
C1706 C 0.86576 0.08888 0.29293 0.0
C1707 C 0.85891 0.1038 0.31965 0.0
C1708 C 0.8356 0.1631 0.42806 0.0
C1709 C 0.85847 0.17351 0.43545 0.0
C1710 C 0.86613 0.18922 0.46405 0.0
C1711 C 0.85132 0.19484 0.48662 0.0
C1712 C 0.82881 0.18226 0.47933 0.0
C1713 C 0.82106 0.16733 0.45073 0.0
C1714 C 0.77068 0.13069 0.35577 0.0
C1715 C 0.75523 0.13731 0.37703 0.0
C1716 C 0.02601 0.91392 0.24144 0.0
C1717 C 0.02841 0.94002 0.26166 0.0
C1718 C 0.05067 0.95231 0.27187 0.0
C1719 C 0.06925 0.93943 0.26248 0.0
H1720 H 0.13931 0.94582 0.28489 0.0
H1721 H 0.17508 0.96035 0.31392 0.0
H1722 H 0.19608 0.88505 0.26925 0.0
H1723 H 0.16105 0.87055 0.24029 0.0
H1724 H 0.12496 0.82262 0.21994 0.0
H1725 H 0.11543 0.7749 0.19996 0.0
H1726 H 0.06434 0.78339 0.14312 0.0
H1727 H 0.07174 0.83134 0.16643 0.0
H1728 H 0.04167 0.88039 0.21821 0.0
H1729 H 1.00973 0.90331 0.23202 0.0
H1730 H 0.05434 0.97148 0.28832 0.0
H1731 H 0.08581 0.94992 0.27114 0.0
N1732 N 0.10705 0.91006 0.24975 0.0
N1733 N 0.12145 0.87101 0.22613 0.0
N1734 N 0.08362 0.87309 0.2177 0.0
C1735 C 0.12473 0.89625 0.24456 0.0
C1736 C 0.10125 0.85927 0.21258 0.0
C1737 C 0.08636 0.89865 0.23624 0.0
C1738 C 0.14704 0.90693 0.2604 0.0
C1739 C 0.15169 0.93255 0.28096 0.0
C1740 C 0.17219 0.94092 0.29744 0.0
C1741 C 0.18824 0.92374 0.29377 0.0
C1742 C 0.18396 0.89863 0.27254 0.0
C1743 C 0.16375 0.89038 0.25598 0.0
C1744 C 0.09823 0.83066 0.1958 0.0
C1745 C 0.1115 0.81428 0.20333 0.0
C1746 C 0.10618 0.78676 0.1916 0.0
C1747 C 0.08792 0.77503 0.17138 0.0
C1748 C 0.07713 0.79161 0.16058 0.0
C1749 C 0.08158 0.81914 0.17349 0.0
C1750 C 0.06656 0.91317 0.2435 0.0
C1751 C 0.04461 0.90065 0.23292 0.0
C1752 C 0.3296 0.11111 0.53301 0.0
C1753 C 0.33021 0.08859 0.54063 0.0
C1754 C 0.35025 0.07778 0.53873 0.0
C1755 C 0.36964 0.09003 0.53031 0.0
H1756 H 0.43727 0.08735 0.51527 0.0
H1757 H 0.4732 0.07225 0.51475 0.0
H1758 H 0.50398 0.13863 0.49153 0.0
H1759 H 0.46844 0.15518 0.49512 0.0
H1760 H 0.44058 0.20711 0.50869 0.0
H1761 H 0.43698 0.25363 0.51795 0.0
H1762 H 0.36563 0.23543 0.5245 0.0
H1763 H 0.36925 0.19003 0.51684 0.0
H1764 H 0.3476 0.14086 0.51934 0.0
H1765 H 0.31429 0.11967 0.53407 0.0
H1766 H 0.35111 0.06049 0.54475 0.0
H1767 H 0.38507 0.08183 0.52985 0.0
N1768 N 0.40951 0.11852 0.51372 0.0
N1769 N 0.42707 0.15792 0.50799 0.0
N1770 N 0.38891 0.15248 0.51609 0.0
C1771 C 0.42827 0.13324 0.50888 0.0
C1772 C 0.40727 0.16758 0.51152 0.0
C1773 C 0.38971 0.12809 0.5172 0.0
C1774 C 0.44997 0.12286 0.50591 0.0
C1775 C 0.45176 0.09895 0.5104 0.0
C1776 C 0.47247 0.09009 0.50979 0.0
C1777 C 0.49198 0.10452 0.50401 0.0
C1778 C 0.48983 0.12761 0.49773 0.0
C1779 C 0.46922 0.13693 0.49923 0.0
C1780 C 0.40535 0.19486 0.51261 0.0
C1781 C 0.42414 0.21309 0.51187 0.0
C1782 C 0.42202 0.2397 0.51687 0.0
C1783 C 0.40103 0.24837 0.52236 0.0
C1784 C 0.38213 0.22963 0.52102 0.0
C1785 C 0.38426 0.2034 0.51646 0.0
C1786 C 0.36917 0.11321 0.52364 0.0
C1787 C 0.34878 0.12323 0.52457 0.0
C1788 C 0.67324 0.91669 0.75357 0.0
C1789 C 0.66058 0.91269 0.77575 0.0
C1790 C 0.67187 0.92062 0.80334 0.0
C1791 C 0.69499 0.93168 0.80823 0.0
H1792 H 0.76901 0.95181 0.86567 0.0
H1793 H 0.80187 0.95365 0.89724 0.0
H1794 H 0.84606 0.97444 0.83803 0.0
H1795 H 0.81467 0.97298 0.80762 0.0
H1796 H 0.80708 0.96071 0.75116 0.0
H1797 H 0.82255 0.95473 0.70518 0.0
H1798 H 0.75649 0.94914 0.66681 0.0
H1799 H 0.74054 0.95352 0.71303 0.0
H1800 H 0.70435 0.93011 0.74004 0.0
H1801 H 0.66604 0.91011 0.73176 0.0
H1802 H 0.66285 0.91809 0.82121 0.0
H1803 H 0.703 0.93717 0.82951 0.0
N1804 N 0.74717 0.94974 0.81187 0.0
N1805 N 0.77703 0.96103 0.78601 0.0
N1806 N 0.74106 0.94949 0.76451 0.0
C1807 C 0.7699 0.9578 0.81057 0.0
C1808 C 0.7631 0.95696 0.76307 0.0
C1809 C 0.73252 0.94577 0.78836 0.0
C1810 C 0.78856 0.96142 0.83325 0.0
C1811 C 0.78572 0.95695 0.85955 0.0
C1812 C 0.80467 0.95815 0.87776 0.0
C1813 C 0.82694 0.96358 0.86999 0.0
C1814 C 0.82947 0.96953 0.84469 0.0
C1815 C 0.81095 0.96861 0.82699 0.0
C1816 C 0.77249 0.9573 0.73578 0.0
C1817 C 0.79574 0.9585 0.73312 0.0
C1818 C 0.80471 0.95525 0.70667 0.0
C1819 C 0.79074 0.95116 0.68225 0.0
C1820 C 0.76761 0.95156 0.68513 0.0
C1821 C 0.75851 0.95431 0.71163 0.0
C1822 C 0.70755 0.9353 0.78568 0.0
C1823 C 0.69588 0.92799 0.75846 0.0
C1824 C 0.88462 0.94536 0.88339 0.0
C1825 C 0.88918 0.95591 0.91338 0.0
C1826 C 0.86457 0.94772 0.87013 0.0
C1827 C 0.8478 0.96106 0.88594 0.0
H1828 H 0.89663 0.93472 0.86988 0.0
H1829 H 0.86216 0.93869 0.847 0.0
S1830 S 0.85235 0.9955 0.96497 0.0
N1831 N 0.87561 0.98209 0.95855 0.0
N1832 N 0.83826 0.98704 0.93358 0.0
C1833 C 0.8523 0.9724 0.916 0.0
C1834 C 0.8728 0.96975 0.92966 0.0
C1835 C 0.68255 0.18104 0.34958 0.0
C1836 C 0.66969 0.17092 0.3233 0.0
C1837 C 0.70032 0.16913 0.35494 0.0
C1838 C 0.70586 0.14586 0.3347 0.0
H1839 H 0.67884 0.1984 0.36655 0.0
H1840 H 0.71008 0.17887 0.37513 0.0
S1841 S 0.67682 0.11048 0.26244 0.0
N1842 N 0.66382 0.13637 0.27629 0.0
N1843 N 0.6961 0.11235 0.28728 0.0
C1844 C 0.69277 0.13497 0.30837 0.0
C1845 C 0.67493 0.14776 0.30254 0.0
C1846 C 0.53645 0.05968 0.50045 0.0
C1847 C 0.55599 0.07784 0.5119 0.0
C1848 C 0.51607 0.06845 0.49707 0.0
C1849 C 0.51437 0.09574 0.50547 0.0
H1850 H 0.53681 0.03863 0.49471 0.0
H1851 H 0.50151 0.05361 0.48803 0.0
S1852 S 0.56159 0.15095 0.53627 0.0
N1853 N 0.57302 0.12386 0.53059 0.0
N1854 N 0.53482 0.14069 0.52584 0.0
C1855 C 0.53415 0.11398 0.51659 0.0
C1856 C 0.55488 0.10493 0.51951 0.0
C1857 C 0.96728 0.94928 0.28187 0.0
C1858 C 0.96798 0.97685 0.2943 0.0
C1859 C 0.98656 0.9379 0.27142 0.0
C1860 C 1.00783 0.95337 0.27269 0.0
H1861 H 0.95158 0.93628 0.27999 0.0
H1862 H 0.98456 0.91654 0.26294 0.0
S1863 S 0.01876 0.02721 0.30599 0.0
N1864 N 0.99184 0.01942 0.30963 0.0
N1865 N 0.02757 0.99893 0.28875 0.0
C1866 C 1.0086 0.98126 0.28558 0.0
C1867 C 0.98894 0.99267 0.29658 0.0
C1868 C 0.08384 0.15491 0.76919 0.0
C1869 C 0.07039 0.16779 0.791 0.0
C1870 C 0.09711 0.13689 0.77247 0.0
C1871 C 0.09887 0.13178 0.79841 0.0
H1872 H 0.08452 0.15893 0.74923 0.0
H1873 H 0.10615 0.12701 0.75418 0.0
S1874 S 0.06576 0.15862 0.86179 0.0
N1875 N 0.05762 0.17173 0.83843 0.0
N1876 N 0.08498 0.14058 0.84627 0.0
C1877 C 0.08529 0.14421 0.82047 0.0
C1878 C 0.07072 0.16169 0.81648 0.0
C1879 C 0.44163 0.86135 0.93885 0.0
C1880 C 0.4338 0.84428 0.91115 0.0
C1881 C 0.43566 0.88678 0.9499 0.0
C1882 C 0.4218 0.89589 0.93346 0.0
H1883 H 0.45189 0.8547 0.95233 0.0
H1884 H 0.44148 0.89912 0.97165 0.0
S1885 S 0.3989 0.85927 0.85846 0.0
N1886 N 0.41264 0.83835 0.86694 0.0
N1887 N 0.40192 0.88641 0.88712 0.0
C1888 C 0.41452 0.87916 0.90528 0.0
C1889 C 0.42041 0.85326 0.89425 0.0
C1890 C 1.0126 0.3583 0.15994 0.0
C1891 C 0.03571 0.35908 0.15588 0.0
C1892 C 0.99932 0.36965 0.14594 0.0
C1893 C 1.00884 0.38178 0.12736 0.0
H1894 H 1.00478 0.34882 0.17424 0.0
H1895 H 0.9815 0.36835 0.14903 0.0
S1896 S 0.06796 0.38646 0.10677 0.0
N1897 N 0.06753 0.37207 0.13139 0.0
N1898 N 0.04194 0.39146 0.10249 0.0
C1899 C 0.03179 0.38176 0.122 0.0
C1900 C 0.0455 0.37093 0.13705 0.0
C1901 C 0.4123 0.61672 0.13958 0.0
C1902 C 0.405 0.63917 0.13618 0.0
C1903 C 0.40635 0.6083 0.1627 0.0
C1904 C 0.39287 0.62187 0.18409 0.0
H1905 H 0.42372 0.60602 0.12507 0.0
H1906 H 0.41333 0.59149 0.16437 0.0
S1907 S 0.36604 0.67935 0.18378 0.0
N1908 N 0.38077 0.67287 0.15497 0.0
N1909 N 0.37036 0.6574 0.19885 0.0
C1910 C 0.38448 0.64362 0.18053 0.0
C1911 C 0.3903 0.65211 0.15659 0.0
C1912 C 0.21768 0.57823 0.15072 0.0
C1913 C 0.21296 0.60447 0.16427 0.0
C1914 C 0.23378 0.57184 0.12987 0.0
C1915 C 0.24653 0.5911 0.12097 0.0
H1916 H 0.20952 0.56199 0.15663 0.0
H1917 H 0.23648 0.5514 0.1208 0.0
S1918 S 0.2419 0.66267 0.14706 0.0
N1919 N 0.22305 0.64996 0.16455 0.0
N1920 N 0.25353 0.63759 0.12661 0.0
C1921 C 0.24214 0.61726 0.1334 0.0
C1922 C 0.22551 0.62399 0.15462 0.0
C1923 C 0.86832 0.55676 0.01818 0.0
C1924 C 0.88487 0.57651 0.01493 0.0
C1925 C 0.84875 0.56287 0.03196 0.0
C1926 C 0.84422 0.58899 0.04243 0.0
H1927 H 0.8704 0.53608 1.01007 0.0
H1928 H 0.83738 0.54689 0.03504 0.0
S1929 S 0.88069 0.64814 0.03689 0.0
N1930 N 0.89495 0.62347 0.0226 0.0
N1931 N 0.85707 0.63481 0.0463 0.0
C1932 C 0.86002 0.60898 0.03812 0.0
C1933 C 0.88047 0.60278 0.02478 0.0
C1934 C 0.79311 0.57591 0.51371 0.0
C1935 C 0.78143 0.58259 0.49334 0.0
C1936 C 0.81219 0.59268 0.52879 0.0
C1937 C 0.81967 0.61669 0.52414 0.0
H1938 H 0.78749 0.55778 0.51795 0.0
H1939 H 0.82135 0.58648 0.5437 0.0
S1940 S 0.79558 0.64073 0.47024 0.0
N1941 N 0.77959 0.61238 0.4665 0.0
N1942 N 0.81425 0.64539 0.49672 0.0
C1943 C 0.80815 0.62309 0.50328 0.0
C1944 C 0.78931 0.60558 0.48734 0.0
C1945 C 0.02559 0.26785 0.46494 0.0
C1946 C 0.04916 0.27088 0.46614 0.0
C1947 C 0.01367 0.28284 0.4532 0.0
C1948 C 0.02462 0.30122 0.44148 0.0
H1949 H 0.01623 0.25426 0.47394 0.0
H1950 H 0.99564 0.28085 0.4544 0.0
S1951 S 0.08666 0.31767 0.44094 0.0
N1952 N 0.08325 0.29484 0.45629 0.0
N1953 N 0.06115 0.32114 0.43162 0.0
C1954 C 0.04837 0.30327 0.44096 0.0
C1955 C 0.06052 0.28884 0.45423 0.0
C1956 C 0.15773 0.09168 0.11716 0.0
C1957 C 0.13755 0.07364 0.11281 0.0
C1958 C 0.1778 0.08758 0.12895 0.0
C1959 C 0.17877 0.06532 0.13721 0.0
H1960 H 0.15787 0.1099 0.11269 0.0
H1961 H 0.19235 0.10277 0.1331 0.0
S1962 S 0.13242 1.00928 0.12546 0.0
N1963 N 0.12128 0.03035 0.11394 0.0
N1964 N 0.15852 0.0232 0.13672 0.0
C1965 C 0.15924 0.04625 0.13131 0.0
C1966 C 0.13885 0.05026 0.11905 0.0
C1967 C 0.35105 0.8619 0.67723 0.0
C1968 C 0.35491 0.85609 0.70227 0.0
C1969 C 0.33285 0.87432 0.67386 0.0
C1970 C 0.31706 0.8808 0.69498 0.0
H1971 H 0.36218 0.85659 0.65986 0.0
H1972 H 0.3309 0.87821 0.65399 0.0
S1973 S 0.32164 0.87328 0.76676 0.0
N1974 N 0.3434 0.86101 0.75039 0.0
N1975 N 0.30831 0.88285 0.74362 0.0
C1976 C 0.32162 0.87667 0.72109 0.0
C1977 C 0.34066 0.8646 0.72478 0.0
C1978 C 0.49174 0.96528 0.51925 0.0
C1979 C 0.47212 0.94657 0.51226 0.0
C1980 C 0.51279 0.95779 0.52255 0.0
C1981 C 0.51519 0.93114 0.51832 0.0
H1982 H 0.4909 0.98564 0.52128 0.0
H1983 H 0.52734 0.97306 0.52799 0.0
S1984 S 0.46796 0.87492 0.49991 0.0
N1985 N 0.4558 0.90093 0.50235 0.0
N1986 N 0.49502 0.88618 0.50669 0.0
C1987 C 0.49528 0.91246 0.51185 0.0
C1988 C 0.47391 0.92033 0.50918 0.0
C1989 C 0.03749 0.05872 0.71607 0.0
C1990 C 0.05457 0.05891 0.73583 0.0
C1991 C 0.01762 0.06878 0.72532 0.0
C1992 C 0.01406 0.07954 0.7547 0.0
H1993 H 0.0396 0.05109 0.69321 0.0
H1994 H 1.00531 0.069 0.70935 0.0
S1995 S 0.05103 0.08055 0.81514 0.0
N1996 N 0.06494 0.06811 0.78638 0.0
N1997 N 0.02756 0.08679 0.80334 0.0
C1998 C 0.03022 0.07847 0.77462 0.0
C1999 C 0.05042 0.06814 0.7653 0.0
C2000 C 0.963 0.86948 0.21515 0.0
C2001 C 0.95748 0.85526 0.23379 0.0
C2002 C 0.94956 0.88766 0.21213 0.0
C2003 C 0.93022 0.8921 0.22764 0.0
H2004 H 0.97816 0.86723 0.20366 0.0
H2005 H 0.95452 0.89858 0.19792 0.0
S2006 S 0.90803 0.85854 0.27808 0.0
N2007 N 0.93046 0.8451 0.26602 0.0
N2008 N 0.90637 0.88066 0.26238 0.0
C2009 C 0.92436 0.87751 0.24588 0.0
C2010 C 0.93766 0.85868 0.24837 0.0
C2011 C 0.58053 0.16512 0.1069 0.0
C2012 C 0.59664 0.18798 0.11223 0.0
C2013 C 0.58638 0.13957 0.09539 0.0
C2014 C 0.60848 0.13581 0.08813 0.0
H2015 H 0.56327 0.1669 0.1119 0.0
H2016 H 0.57361 0.12274 0.09304 0.0
S2017 S 0.65666 0.18916 0.09623 0.0
N2018 N 0.63576 0.20499 0.10992 0.0
N2019 N 0.64599 0.15748 0.08455 0.0
C2020 C 0.62442 0.15858 0.09196 0.0
C2021 C 0.61872 0.18446 0.10494 0.0
C2022 C 0.01359 0.67374 0.87481 0.0
C2023 C 0.99081 0.67561 0.88018 0.0
C2024 C 0.02496 0.6575 0.8844 0.0
C2025 C 0.01395 0.6425 0.89949 0.0
H2026 H 0.02277 0.68447 0.86253 0.0
H2027 H 0.04274 0.65769 0.88135 0.0
S2028 S 0.95424 0.63825 0.9172 0.0
N2029 N 0.95744 0.65985 0.90018 0.0
N2030 N 0.97897 0.62869 0.91819 0.0
C2031 C 0.99099 0.64297 0.90393 0.0
C2032 C 0.97943 0.65988 0.8945 0.0
C2033 C 0.63163 0.41507 0.89467 0.0
C2034 C 0.62155 0.38903 0.89101 0.0
C2035 C 0.6376 0.4229 0.871 0.0
C2036 C 0.63341 0.40526 0.84231 0.0
H2037 H 0.63464 0.42972 0.91604 0.0
H2038 H 0.64513 0.44328 0.87536 0.0
S2039 S 0.60892 0.3341 0.82102 0.0
N2040 N 0.60919 0.34503 0.85639 0.0
N2041 N 0.61965 0.3598 0.81222 0.0
C2042 C 0.62439 0.37879 0.83852 0.0
C2043 C 0.61861 0.37072 0.86267 0.0
C2044 C 0.8182 0.43706 0.89182 0.0
C2045 C 0.81262 0.42098 0.86281 0.0
C2046 C 0.80157 0.44313 0.91224 0.0
C2047 C 0.77843 0.43396 0.90461 0.0
H2048 H 0.8356 0.44486 0.89892 0.0
H2049 H 0.80688 0.45564 0.9341 0.0
S2050 S 0.75478 0.39058 0.83181 0.0
N2051 N 0.78199 0.39572 0.82803 0.0
N2052 N 0.75127 0.40693 0.86582 0.0
C2053 C 0.77276 0.41766 0.87578 0.0
C2054 C 0.78962 0.41127 0.85518 0.0
C2055 C 0.16506 0.46375 0.01592 0.0
C2056 C 0.14446 0.44725 1.00637 0.0
C2057 C 0.18468 0.45688 1.00273 0.0
C2058 C 0.1844 0.43355 0.97887 0.0
H2059 H 0.16587 0.48256 0.03325 0.0
H2060 H 0.20011 0.4704 1.01103 0.0
S2061 S 0.13407 0.38265 0.94761 0.0
N2062 N 0.12458 0.40579 0.97402 0.0
N2063 N 0.16114 0.39302 0.9475 0.0
C2064 C 0.16373 0.41624 0.96996 0.0
C2065 C 0.14381 0.42313 0.98407 0.0
C2066 C 0.22782 0.42623 0.53897 0.0
C2067 C 0.23983 0.44481 0.52877 0.0
C2068 C 0.2093 0.40917 0.52324 0.0
C2069 C 0.20087 0.41112 0.49744 0.0
H2070 H 0.23328 0.42431 0.559 0.0
H2071 H 0.20193 0.39428 0.53178 0.0
S2072 S 0.22734 0.45806 0.46233 0.0
N2073 N 0.24374 0.46419 0.49144 0.0
N2074 N 0.20691 0.43467 0.46295 0.0
C2075 C 0.21293 0.43035 0.48728 0.0
C2076 C 0.23275 0.44675 0.50281 0.0
C2077 C 0.98503 0.7549 0.57734 0.0
C2078 C 0.97968 0.75637 0.55038 0.0
C2079 C 0.99274 0.7328 0.58147 0.0
C2080 C 0.99263 0.70733 0.56028 0.0
H2081 H 0.98375 0.77193 0.59621 0.0
H2082 H 0.99879 0.73588 0.60322 0.0
S2083 S 0.95253 0.69586 0.47025 0.0
N2084 N 0.9667 0.731 0.49785 0.0
N2085 N 0.96178 0.67539 0.49502 0.0
C2086 C 0.98049 0.70365 0.53229 0.0
C2087 C 0.97994 0.73382 0.52678 0.0
C2088 C 0.02876 0.79306 0.05843 0.0
C2089 C 1.01006 0.80147 0.04852 0.0
C2090 C 0.02665 0.76933 0.06507 0.0
C2091 C 1.00566 0.75298 0.06248 0.0
H2092 H 0.04526 0.80455 0.06044 0.0
H2093 H 0.04179 0.76329 0.07104 0.0
S2094 S 0.95104 0.76804 0.04163 0.0
N2095 N 0.96974 0.79151 0.03761 0.0
N2096 N 0.96543 0.75026 0.05434 0.0
C2097 C 0.98674 0.76272 0.05527 0.0
C2098 C 0.989 0.78591 0.04715 0.0
C2099 C 0.5853 0.35405 0.53937 0.0
C2100 C 0.59796 0.35502 0.51588 0.0
C2101 C 0.59316 0.36869 0.56785 0.0
C2102 C 0.61399 0.38528 0.57436 0.0
H2103 H 0.56927 0.34129 0.5358 0.0
H2104 H 0.58281 0.36694 0.58503 0.0
S2105 S 0.65292 0.39741 0.5212 0.0
N2106 N 0.63198 0.37564 0.50133 0.0
N2107 N 0.64661 0.40336 0.55496 0.0
C2108 C 0.62653 0.38744 0.55123 0.0
C2109 C 0.61863 0.3722 0.52205 0.0
C2110 C 0.76209 0.01432 0.37453 0.0
C2111 C 0.73848 1.00743 0.37133 0.0
C2112 C 0.77575 1.00645 0.35148 0.0
C2113 C 0.76681 0.99241 0.3233 0.0
H2114 H 0.77052 0.02616 0.39508 0.0
H2115 H 0.79367 1.01178 0.35589 0.0
S2116 S 0.70641 0.97538 0.30024 0.0
N2117 N 0.70681 0.98848 0.33558 0.0
N2118 N 0.7329 0.97626 0.29217 0.0
C2119 C 0.74337 0.98784 0.31876 0.0
C2120 C 0.72917 0.99479 0.34262 0.0
C2121 C 0.74303 0.03373 0.21687 0.0
C2122 C 0.76618 0.04344 0.21726 0.0
C2123 C 0.72831 0.02709 0.19239 0.0
C2124 C 0.7358 0.02912 0.16647 0.0
H2125 H 0.73583 0.03067 0.23555 0.0
H2126 H 0.71073 0.02043 0.19387 0.0
S2127 S 0.79432 0.05055 0.15281 0.0
N2128 N 0.7956 0.0533 0.18705 0.0
N2129 N 0.76779 0.03976 0.14126 0.0
C2130 C 0.75873 0.03783 0.16558 0.0
C2131 C 0.77392 0.04501 0.19071 0.0
C2132 C 1.01068 0.33404 0.60192 0.0
C2133 C 0.02489 0.32061 0.61312 0.0
C2134 C 0.01764 0.34572 0.58118 0.0
C2135 C 0.03916 0.34459 0.57041 0.0
H2136 H 0.99417 0.33628 0.60988 0.0
H2137 H 1.00619 0.35623 0.57394 0.0
S2138 S 0.08135 0.3077 0.58817 0.0
N2139 N 0.0606 0.30415 0.60861 0.0
N2140 N 0.07337 0.3256 0.5697 0.0
C2141 C 0.05281 0.32944 0.57965 0.0
C2142 C 0.04574 0.31752 0.60078 0.0
C2143 C 0.3734 0.53781 0.85653 0.0
C2144 C 0.39338 0.54899 0.87358 0.0
C2145 C 0.36063 0.51459 0.8577 0.0
C2146 C 0.36633 0.50247 0.87718 0.0
H2147 H 0.36756 0.54727 0.84233 0.0
H2148 H 0.3459 0.50606 0.84349 0.0
S2149 S 0.42079 0.51896 0.91947 0.0
N2150 N 0.42135 0.54244 0.90506 0.0
N2151 N 0.39619 0.49984 0.90901 0.0
C2152 C 0.38729 0.5121 0.89264 0.0
C2153 C 0.401 0.53518 0.89043 0.0
C2154 C 0.04726 0.45115 0.46608 0.0
C2155 C 0.03045 0.44888 0.44551 0.0
C2156 C 0.05947 0.47577 0.4823 0.0
C2157 C 0.05453 0.4994 0.47942 0.0
H2158 H 0.05178 0.43394 0.46894 0.0
H2159 H 0.07228 0.47644 0.49813 0.0
S2160 S 1.00249 0.5067 0.44667 0.0
N2161 N 1.00195 0.47488 0.44048 0.0
N2162 N 0.02784 0.51983 0.46091 0.0
C2163 C 0.03653 0.49789 0.46089 0.0
C2164 C 0.0231 0.47307 0.44722 0.0
C2165 C 0.59446 0.5845 0.98277 0.0
C2166 C 0.5711 0.57543 0.97979 0.0
C2167 C 0.61037 0.56778 0.98305 0.0
C2168 C 0.60382 0.54112 0.98043 0.0
H2169 H 0.60064 0.60508 0.98605 0.0
H2170 H 0.628 0.57607 0.98632 0.0
S2171 S 0.54532 0.50594 0.96777 0.0
N2172 N 0.54265 0.53661 0.97063 0.0
N2173 N 0.57248 0.50567 0.97216 0.0
C2174 C 0.5807 0.53133 0.97612 0.0
C2175 C 0.56443 0.5483 0.97556 0.0
C2176 C 0.15801 0.79756 0.46142 0.0
C2177 C 0.15272 0.77051 0.45914 0.0
C2178 C 0.16402 0.81829 0.48838 0.0
C2179 C 0.16501 0.81308 0.51447 0.0
H2180 H 0.15746 0.80285 0.44224 0.0
H2181 H 0.16809 0.83849 0.48873 0.0
S2182 S 0.15486 0.7465 0.52103 0.0
N2183 N 0.15067 0.7405 0.4863 0.0
N2184 N 0.16119 0.77896 0.53589 0.0
C2185 C 0.16005 0.78642 0.51243 0.0
C2186 C 0.1541 0.76542 0.48525 0.0
C2187 C 0.958 0.3235 0.83869 0.0
C2188 C 0.96476 0.34263 0.86604 0.0
C2189 C 0.95132 0.29688 0.83503 0.0
C2190 C 0.94801 0.28866 0.85866 0.0
H2191 H 0.9578 0.32855 0.81949 0.0
H2192 H 0.94807 0.28269 0.81341 0.0
S2193 S 0.9459 0.33329 0.93317 0.0
N2194 N 0.95778 0.35302 0.91653 0.0
N2195 N 0.94207 0.30297 0.90945 0.0
C2196 C 0.94993 0.30807 0.88605 0.0
C2197 C 0.95845 0.33517 0.88981 0.0
C2198 C 0.61062 0.70224 0.47469 0.0
C2199 C 0.63138 0.69304 0.47427 0.0
C2200 C 0.60926 0.72952 0.48335 0.0
C2201 C 0.62862 0.74892 0.49223 0.0
H2202 H 0.59531 0.6882 0.46745 0.0
H2203 H 0.59294 0.73523 0.4818 0.0
S2204 S 0.68702 0.7349 0.49686 0.0
N2205 N 0.67166 0.70542 0.48358 0.0
N2206 N 0.66912 0.75625 0.50278 0.0
C2207 C 0.64935 0.73978 0.49345 0.0
C2208 C 0.65073 0.71206 0.48378 0.0
C2209 C 0.21434 0.11529 0.41845 0.0
C2210 C 0.19425 0.09992 0.42099 0.0
C2211 C 0.22687 0.10687 0.39432 0.0
C2212 C 0.21985 0.08261 0.3721 0.0
H2213 H 0.21985 0.1345 0.43465 0.0
H2214 H 0.24147 0.12012 0.39243 0.0
S2215 S 0.17066 0.03302 0.37157 0.0
N2216 N 0.1692 0.05823 0.40136 0.0
N2217 N 0.19327 0.04165 0.35641 0.0
C2218 C 0.20068 0.06618 0.37561 0.0
C2219 C 0.18772 0.07503 0.39995 0.0
C2220 C 0.99553 0.23717 0.97292 0.0
C2221 C 0.01592 0.2312 0.98179 0.0
C2222 C 0.99467 0.25831 0.96249 0.0
C2223 C 0.01414 0.27525 0.96024 0.0
H2224 H 0.97974 0.22551 0.97407 0.0
H2225 H 0.97825 0.26134 0.95645 0.0
S2226 S 0.07249 0.26507 0.97399 0.0
N2227 N 0.05659 0.24214 0.98288 0.0
N2228 N 0.05493 0.28124 0.9636 0.0
C2229 C 0.03478 0.26803 0.96647 0.0
C2230 C 0.03568 0.24638 0.97711 0.0
C2231 C 0.40432 0.65777 0.50435 0.0
C2232 C 0.42721 0.66858 0.51233 0.0
C2233 C 0.39648 0.64424 0.47538 0.0
C2234 C 0.41119 0.64056 0.45304 0.0
H2235 H 0.3922 0.65966 0.52057 0.0
H2236 H 0.37879 0.6366 0.47043 0.0
S2237 S 0.47251 0.66215 0.46071 0.0
N2238 N 0.46439 0.67335 0.49377 0.0
N2239 N 0.44957 0.64654 0.44035 0.0
C2240 C 0.43402 0.64995 0.46041 0.0
C2241 C 0.44205 0.66421 0.48968 0.0
C2242 C 0.27736 0.97969 0.64479 0.0
C2243 C 0.28837 1.00121 0.63828 0.0
C2244 C 0.26702 0.98369 0.67047 0.0
C2245 C 0.26614 1.00941 0.68957 0.0
H2246 H 0.27696 0.95962 0.63008 0.0
H2247 H 0.25931 0.96629 0.67469 0.0
S2248 S 0.29592 0.0721 0.68363 0.0
N2249 N 0.30143 0.04856 0.65446 0.0
N2250 N 0.27972 0.05666 0.70129 0.0
C2251 C 0.27833 0.03105 0.68392 0.0
C2252 C 0.28988 0.02678 0.65843 0.0
C2253 C 0.2904 1.00664 0.82736 0.0
C2254 C 0.26836 0.99337 0.82363 0.0
C2255 C 0.30337 1.01139 0.85242 0.0
C2256 C 0.29474 1.00303 0.87464 0.0
H2257 H 0.29732 0.01453 0.81133 0.0
H2258 H 0.32024 0.02202 0.85455 0.0
S2259 S 0.23859 0.96466 0.87349 0.0
N2260 N 0.23872 0.97007 0.8426 0.0
N2261 N 0.2634 0.97866 0.89021 0.0
C2262 C 0.27305 0.98836 0.8705 0.0
C2263 C 0.25972 0.98372 0.84486 0.0
C2264 C 0.03039 0.69965 0.42839 0.0
C2265 C 0.02239 0.7156 0.4146 0.0
C2266 C 0.0208 0.69692 0.45334 0.0
C2267 C 1.00259 0.70987 0.46638 0.0
H2268 H 0.04408 0.689 0.41972 0.0
H2269 H 0.02822 0.68408 0.46195 0.0
S2270 S 0.98167 0.76171 0.44004 0.0
N2271 N 0.99716 0.74612 0.41498 0.0
N2272 N 0.98427 0.74839 0.46482 0.0
C2273 C 0.99704 0.72912 0.45362 0.0
C2274 C 1.00541 0.72969 0.4269 0.0
C2275 C 0.64957 0.49316 0.17599 0.0
C2276 C 0.63185 0.47886 0.15615 0.0
C2277 C 0.66307 0.51539 0.17329 0.0
C2278 C 0.66034 0.52321 0.14928 0.0
H2279 H 0.65339 0.48593 0.19288 0.0
H2280 H 0.67646 0.52579 0.18942 0.0
S2281 S 0.61215 0.49676 0.09522 0.0
N2282 N 0.60894 0.47755 0.1151 0.0
N2283 N 0.63529 0.51814 0.10836 0.0
C2284 C 0.64138 0.51039 0.13033 0.0
C2285 C 0.62699 0.48838 0.13402 0.0
C2286 C 0.98807 0.57278 0.58068 0.0
C2287 C 0.99291 0.57307 0.60892 0.0
C2288 C 0.98743 0.55018 0.55644 0.0
C2289 C 0.98969 0.52557 0.55862 0.0
H2290 H 0.98424 0.58977 0.57609 0.0
H2291 H 0.98476 0.55215 0.53567 0.0
S2292 S 0.99801 0.5122 0.62644 0.0
N2293 N 0.9978 0.54438 0.63678 0.0
N2294 N 0.99444 0.50159 0.59117 0.0
C2295 C 0.99315 0.52459 0.58635 0.0
C2296 C 0.99484 0.54811 0.61135 0.0
C2297 C 0.43808 0.45407 0.06453 0.0
C2298 C 0.4587 0.45518 0.05118 0.0
C2299 C 0.42107 0.46858 0.06132 0.0
C2300 C 0.42372 0.48568 0.04512 0.0
H2301 H 0.43467 0.44152 0.07741 0.0
H2302 H 0.40541 0.46568 0.07108 0.0
S2303 S 0.47569 0.49998 1.00981 0.0
N2304 N 0.48106 0.47704 0.02281 0.0
N2305 N 0.45024 0.50573 0.01912 0.0
C2306 C 0.44484 0.48857 0.03348 0.0
C2307 C 0.46197 0.47322 0.03605 0.0
C2308 C 0.88958 0.2381 0.55499 0.0
C2309 C 0.87515 0.25391 0.5729 0.0
C2310 C 0.88173 0.21863 0.52796 0.0
C2311 C 0.85913 0.21438 0.51692 0.0
H2312 H 0.9071 0.24073 0.56194 0.0
H2313 H 0.89366 0.20692 0.51564 0.0
S2314 S 0.81485 0.25179 0.55574 0.0
N2315 N 0.8373 0.26381 0.57804 0.0
N2316 N 0.82282 0.22935 0.52731 0.0
C2317 C 0.84467 0.23032 0.53505 0.0
C2318 C 0.85259 0.24946 0.56279 0.0
C2319 C 0.08347 0.70086 0.15869 0.0
C2320 C 0.06017 0.69091 0.15297 0.0
C2321 C 0.09248 0.72726 0.16275 0.0
C2322 C 0.0786 0.74635 0.16431 0.0
H2323 H 0.09534 0.68833 0.16082 0.0
H2324 H 0.11052 0.73281 0.16566 0.0
S2325 S 0.01681 0.7345 0.15285 0.0
N2326 N 0.02426 0.70485 0.14369 0.0
N2327 N 0.04035 0.75496 0.16415 0.0
C2328 C 0.05543 0.73777 0.16039 0.0
C2329 C 0.04646 0.71016 0.15149 0.0
C2330 C 0.38146 0.31285 0.56539 0.0
C2331 C 0.39165 0.33093 0.55304 0.0
C2332 C 0.38494 0.28648 0.55544 0.0
C2333 C 0.3986 0.27694 0.53244 0.0
H2334 H 0.3708 0.31926 0.58312 0.0
H2335 H 0.37696 0.2735 0.56615 0.0
S2336 S 0.42981 0.31709 0.49354 0.0
N2337 N 0.41663 0.33835 0.51761 0.0
N2338 N 0.42279 0.28821 0.49796 0.0
C2339 C 0.40916 0.29503 0.52006 0.0
C2340 C 0.40569 0.32215 0.5305 0.0
C2341 C 0.83357 0.94743 0.62639 0.0
C2342 C 0.82413 0.92478 0.60366 0.0
C2343 C 0.82178 0.95718 0.65097 0.0
C2344 C 0.80048 0.94415 0.65381 0.0
H2345 H 0.85033 0.95717 0.62546 0.0
H2346 H 0.82982 0.97439 0.66841 0.0
S2347 S 0.76852 0.88447 0.59899 0.0
N2348 N 0.79207 0.89051 0.58415 0.0
N2349 N 0.77026 0.90782 0.63091 0.0
C2350 C 0.79056 0.92208 0.63047 0.0
C2351 C 0.80238 0.91258 0.60527 0.0
C2352 C 0.10749 0.96408 0.84982 0.0
C2353 C 0.10946 0.9345 0.85272 0.0
C2354 C 0.11814 0.9735 0.82347 0.0
C2355 C 0.13879 0.93694 0.78798 0.0
H2356 H 0.09957 0.97847 0.86595 0.0
H2357 H 0.11556 0.99334 0.8243 0.0
S2358 S 0.13837 0.87033 0.80847 0.0
N2359 N 0.12376 0.88706 0.83527 0.0
N2360 N 0.14581 0.88801 0.7873 0.0
C2361 C 0.1369 0.91022 0.80019 0.0
C2362 C 0.12306 0.90999 0.83044 0.0
C2363 C 0.42316 0.14474 0.25007 0.0
C2364 C 0.42969 0.15784 0.27952 0.0
C2365 C 0.4016 0.1296 0.24083 0.0
C2366 C 0.38559 0.12668 0.26058 0.0
H2367 H 0.43465 0.14651 0.23397 0.0
H2368 H 0.39752 0.11998 0.218 0.0
S2369 S 0.39472 0.15596 0.3402 0.0
N2370 N 0.41871 0.1652 0.32825 0.0
N2371 N 0.37827 0.13873 0.31128 0.0
C2372 C 0.39213 0.13953 0.29007 0.0
C2373 C 0.41406 0.15453 0.29938 0.0
C2374 C 0.7832 0.06601 0.68491 0.0
C2375 C 0.77795 0.08017 0.66712 0.0
C2376 C 0.80213 0.07531 0.70466 0.0
C2377 C 0.81633 0.09913 0.70737 0.0
H2378 H 0.77292 0.04744 0.68312 0.0
H2379 H 0.80571 0.06377 0.71782 0.0
S2380 S 0.81004 0.14268 0.66478 0.0
N2381 N 0.78854 0.11862 0.65308 0.0
N2382 N 0.8239 0.13599 0.68973 0.0
C2383 C 0.81105 0.11331 0.68966 0.0
C2384 C 0.79195 0.10384 0.66967 0.0
C2385 C 0.7449 0.96145 0.43402 0.0
C2386 C 0.76234 0.97886 0.45322 0.0
C2387 C 0.72552 0.95023 0.44372 0.0
C2388 C 0.72255 0.95571 0.47314 0.0
H2389 H 0.74617 0.95657 0.41108 0.0
H2390 H 0.71275 0.93696 0.42798 0.0
S2391 S 0.76365 0.99746 0.53247 0.0
N2392 N 0.77552 0.9998 0.50336 0.0
N2393 N 0.73913 0.97843 0.52149 0.0
C2394 C 0.73972 0.9729 0.4927 0.0
C2395 C 0.75954 0.98453 0.48281 0.0
C2396 C 0.97591 0.44207 0.94171 0.0
C2397 C 0.99243 0.43668 0.92136 0.0
C2398 C 0.97815 0.46611 0.96483 0.0
C2399 C 0.996 0.48613 0.96644 0.0
H2400 H 0.96127 0.4274 0.93965 0.0
H2401 H 0.96541 0.46919 0.98028 0.0
S2402 S 0.0433 0.48593 0.90936 0.0
N2403 N 0.0216 0.48002 0.92976 0.0
N2404 N 0.02528 0.49563 0.93498 0.0
C2405 C 1.01242 0.47866 0.94309 0.0
C2406 C 0.0136 0.45297 0.92543 0.0
C2407 C 0.56466 0.59253 0.80203 0.0
C2408 C 0.56409 0.6142 0.79271 0.0
C2409 C 0.57998 0.57511 0.79193 0.0
C2410 C 0.59571 0.57883 0.77247 0.0
H2411 H 0.55314 0.58888 0.81734 0.0
H2412 H 0.57923 0.55826 0.79913 0.0
S2413 S 0.60266 0.63337 0.74274 0.0
N2414 N 0.58127 0.63896 0.76335 0.0
N2415 N 0.61079 0.60628 0.74512 0.0
C2416 C 0.5959 0.60071 0.7634 0.0
C2417 C 0.58004 0.6185 0.77352 0.0
C2418 C 0.93625 0.17312 0.26836 0.0
C2419 C 0.95445 0.17682 0.25198 0.0
C2420 C 0.91943 0.15103 0.25754 0.0
C2421 C 0.92069 0.13133 0.23049 0.0
H2422 H 0.93509 0.18724 0.28963 0.0
H2423 H 0.90656 0.14808 0.2717 0.0
S2424 S 0.95252 0.15082 0.17454 0.0
N2425 N 0.96768 0.16662 0.20457 0.0
N2426 N 0.93047 0.13486 0.184 0.0
C2427 C 0.93539 0.13994 0.21213 0.0
C2428 C 0.95401 0.16016 0.2236 0.0
C2429 C 0.54876 0.85184 0.0382 0.0
C2430 C 0.53728 0.83685 1.01168 0.0
C2431 C 0.56268 0.87592 0.04209 0.0
C2432 C 0.56579 0.88637 0.01968 0.0
H2433 H 0.54726 0.84462 0.0561 0.0
H2434 H 0.57128 0.8864 0.06298 0.0
S2435 S 0.53728 0.85612 0.94663 0.0
N2436 N 0.52832 0.83501 0.96308 0.0
N2437 N 0.55452 0.8804 0.97023 0.0
C2438 C 0.55349 0.87215 0.99325 0.0
C2439 C 0.53932 0.84735 0.98927 0.0
C2440 C 0.07606 0.50028 0.36391 0.0
C2441 C 0.05541 0.50569 0.35532 0.0
C2442 C 0.08175 0.47533 0.36026 0.0
C2443 C 0.06693 0.45143 0.35156 0.0
H2444 H 0.09011 0.51632 0.37119 0.0
H2445 H 0.09867 0.4754 0.36809 0.0
S2446 S 1.00103 0.44497 0.29617 0.0
N2447 N 1.01232 0.48272 0.32946 0.0
N2448 N 0.02966 0.43045 0.30991 0.0
C2449 C 0.04563 0.45295 0.3372 0.0
C2450 C 0.03623 0.48386 0.34753 0.0
C2451 C 0.01988 0.55056 0.74666 0.0
C2452 C 0.01945 0.56956 0.77391 0.0
C2453 C 0.02825 0.55774 0.72353 0.0
C2454 C 0.03641 0.58453 0.72621 0.0
H2455 H 0.01327 0.52999 0.74296 0.0
H2456 H 0.02786 0.54151 0.70363 0.0
S2457 S 0.03941 0.64145 0.79545 0.0
N2458 N 0.02934 0.61542 0.80376 0.0
N2459 N 0.04245 0.62995 0.76067 0.0
C2460 C 0.03576 0.60359 0.75406 0.0
C2461 C 0.02805 0.59589 0.77767 0.0
C2462 C 0.68736 0.45862 0.19314 0.0
C2463 C 0.69607 0.48311 0.21421 0.0
C2464 C 0.69004 0.45408 0.16356 0.0
C2465 C 0.70151 0.47379 0.15385 0.0
H2466 H 0.67718 0.44358 0.19937 0.0
H2467 H 0.68243 0.43533 0.14808 0.0
S2468 S 0.7287 0.54042 0.20087 0.0
N2469 N 0.71772 0.52643 0.2235 0.0
N2470 N 0.72291 0.51801 0.16848 0.0
C2471 C 0.71167 0.49748 0.17502 0.0
C2472 C 0.70884 0.50211 0.20499 0.0
C2473 C 0.21593 0.26952 0.7111 0.0
C2474 C 0.19268 0.26199 0.71134 0.0
C2475 C 0.22847 0.28746 0.73573 0.0
C2476 C 0.21829 0.29914 0.76157 0.0
H2477 H 0.22437 0.26253 0.69139 0.0
H2478 H 0.24627 0.29265 0.73417 0.0
S2479 S 0.15799 0.28291 0.77408 0.0
N2480 N 0.16055 0.26422 0.74062 0.0
N2481 N 0.18313 0.3 0.78572 0.0
C2482 C 0.1951 0.29056 0.76234 0.0
C2483 C 0.18262 0.27153 0.73759 0.0
C2484 C 0.92511 0.06482 0.19366 0.0
C2485 C 0.91543 0.08321 0.17623 0.0
C2486 C 0.91398 0.06059 0.2226 0.0
C2487 C 0.8797 0.08637 0.23878 0.0
H2488 H 0.93865 0.05382 0.18579 0.0
H2489 H 0.92273 0.04844 0.23163 0.0
S2490 S 0.85977 0.11876 0.18003 0.0
N2491 N 0.8839 0.11041 0.16657 0.0
N2492 N 0.85633 0.1116 0.20994 0.0
C2493 C 0.87534 0.10226 0.21348 0.0
C2494 C 0.89249 0.10012 0.18495 0.0
C2495 C 0.60665 0.86409 0.77381 0.0
C2496 C 0.5921 0.86711 0.75305 0.0
C2497 C 0.62816 0.87962 0.78187 0.0
C2498 C 0.63637 0.89867 0.76928 0.0
H2499 H 0.60152 0.84924 0.78353 0.0
H2500 H 0.63878 0.87583 0.79734 0.0
S2501 S 0.60404 0.91459 0.71424 0.0
N2502 N 0.58708 0.89073 0.72042 0.0
N2503 N 0.62679 0.92021 0.73558 0.0
C2504 C 0.6215 0.90219 0.7489 0.0
C2505 C 0.59966 0.88637 0.74081 0.0
C2506 C 0.22999 0.91978 0.34928 0.0
C2507 C 0.2455 0.94298 0.35469 0.0
C2508 C 0.21185 0.91356 0.32908 0.0
C2509 C 0.20833 0.93055 0.31388 0.0
H2510 H 0.23182 0.90646 0.36099 0.0
H2511 H 0.20014 0.89561 0.32583 0.0
S2512 S 0.24485 0.99306 0.31915 0.0
N2513 N 0.25692 0.98241 0.34238 0.0
N2514 N 0.22241 0.97095 0.30464 0.0
C2515 C 0.22396 0.95358 0.31867 0.0
C2516 C 0.2427 0.95971 0.33898 0.0
C2517 C 0.28097 0.08622 0.58668 0.0
C2518 C 0.27075 0.05969 0.57532 0.0
C2519 C 0.30029 0.09523 0.57537 0.0
C2520 C 0.31023 0.07794 0.5525 0.0
H2521 H 0.2738 0.10018 0.60427 0.0
H2522 H 0.30756 0.11592 0.58465 0.0
S2523 S 0.28918 1.00693 0.51422 0.0
N2524 N 0.27131 0.01635 0.53941 0.0
N2525 N 0.30803 0.03329 0.51825 0.0
C2526 C 0.30019 0.05131 0.54095 0.0
C2527 C 0.28029 0.04219 0.5523 0.0
C2528 C 0.01574 0.57451 0.10655 0.0
C2529 C 0.0333 0.59429 0.1066 0.0
C2530 C 0.01357 0.54887 0.08623 0.0
C2531 C 0.0286 0.54132 0.06402 0.0
H2532 H 1.00416 0.57847 0.12351 0.0
H2533 H 1.0004 0.53481 0.08958 0.0
S2534 S 0.07405 0.58906 0.04999 0.0
N2535 N 0.06203 0.60723 0.07789 0.0
N2536 N 0.0609 0.55859 0.04262 0.0
C2537 C 0.04558 0.56194 0.06292 0.0
C2538 C 0.04679 0.58856 0.08284 0.0
C2539 C 0.44067 0.40902 0.22903 0.0
C2540 C 0.46251 0.41572 0.24209 0.0
C2541 C 0.42492 0.42629 0.23836 0.0
C2542 C 0.43058 0.4503 0.26127 0.0
H2543 H 0.43614 0.39105 0.21067 0.0
H2544 H 0.40855 0.42134 0.22704 0.0
S2545 S 0.48495 0.47529 0.30395 0.0
N2546 N 0.48844 0.44652 0.2802 0.0
N2547 N 0.45899 0.47921 0.2976 0.0
C2548 C 0.45197 0.45637 0.27541 0.0
C2549 C 0.46792 0.43895 0.26585 0.0
C2550 C 0.06331 0.87219 0.80223 0.0
C2551 C 0.06394 0.85425 0.77422 0.0
C2552 C 0.07435 0.8979 0.80999 0.0
C2553 C 0.08974 0.90543 0.7924 0.0
H2554 H 0.05406 0.86663 0.81841 0.0
H2555 H 0.07046 0.91163 0.82965 0.0
S2556 S 0.09227 0.86831 0.71422 0.0
N2557 N 0.07476 0.8485 0.72581 0.0
N2558 N 0.10115 0.89419 0.74297 0.0
C2559 C 0.08948 0.88802 0.76361 0.0
C2560 C 0.07569 0.86295 0.75429 0.0
C2561 C 0.47173 0.19138 1.00653 0.0
C2562 C 0.49297 0.19712 0.02092 0.0
C2563 C 0.45801 0.16686 1.00107 0.0
C2564 C 0.4643 0.14684 1.01066 0.0
H2565 H 0.46591 0.20574 0.99844 0.0
H2566 H 0.4425 0.16365 0.98842 0.0
S2567 S 0.51853 0.15292 0.05114 0.0
N2568 N 0.52016 0.18102 0.04464 0.0
N2569 N 0.49375 0.13597 0.03713 0.0
C2570 C 0.48558 0.15274 0.02586 0.0
C2571 C 0.49997 0.17752 0.03035 0.0
C2572 C 0.94927 0.55191 0.69777 0.0
C2573 C 0.94592 0.52465 0.68064 0.0
C2574 C 0.94796 0.57195 0.68575 0.0
C2575 C 0.94379 0.56564 0.65595 0.0
H2576 H 0.95234 0.55787 0.72082 0.0
H2577 H 0.94955 0.59232 0.70002 0.0
S2578 S 0.93746 0.49809 0.6009 0.0
N2579 N 0.93896 0.49321 0.63185 0.0
N2580 N 0.94076 0.53044 0.60929 0.0
C2581 C 0.94271 0.53878 0.6385 0.0
C2582 C 0.94266 0.51846 0.65075 0.0
C2583 C 0.04951 0.44812 0.24903 0.0
C2584 C 0.03483 0.46151 0.2389 0.0
C2585 C 0.05102 0.4507 0.27831 0.0
C2586 C 0.03729 0.46678 0.29941 0.0
H2587 H 0.06006 0.43589 0.23443 0.0
H2588 H 0.06134 0.43803 0.2838 0.0
S2589 S 1.00848 0.5176 0.28107 0.0
N2590 N 1.00881 0.49289 0.25091 0.0
N2591 N 0.02502 0.51119 0.30356 0.0
C2592 C 0.03096 0.48725 0.28763 0.0
C2593 C 0.02344 0.47898 0.25862 0.0
C2594 C 0.31096 0.51969 0.82365 0.0
C2595 C 0.32149 0.53887 0.81276 0.0
C2596 C 0.30851 0.52551 0.85325 0.0
C2597 C 0.31702 0.55059 0.87322 0.0
H2598 H 0.30616 0.49942 0.80942 0.0
H2599 H 0.3019 0.5095 0.86071 0.0
S2600 S 0.33973 0.60976 0.85486 0.0
N2601 N 0.33586 0.58543 0.8235 0.0
N2602 N 0.33181 0.59633 0.87929 0.0
C2603 C 0.32527 0.57075 0.86229 0.0
C2604 C 0.32734 0.5649 0.83199 0.0
C2605 C 0.80538 0.75545 0.31171 0.0
C2606 C 0.82902 0.75936 0.31406 0.0
C2607 C 0.79332 0.73845 0.28627 0.0
C2608 C 0.80436 0.72435 0.26234 0.0
H2609 H 0.79602 0.76424 0.33012 0.0
H2610 H 0.77517 0.73556 0.28573 0.0
S2611 S 0.86606 0.73076 0.25579 0.0
N2612 N 0.86288 0.7515 0.2881 0.0
N2613 N 0.84047 0.71695 0.24207 0.0
C2614 C 0.82797 0.72939 0.26378 0.0
C2615 C 0.84018 0.7476 0.28912 0.0
loop_
_geom_bond_atom_site_label_1
_geom_bond_atom_site_label_2
_geom_bond_distance
_geom_bond_site_symmetry_2
_ccdc_geom_bond_type
C0 C1 1.264 . S
C0 C5 1.479 . S
C0 C10 1.465 . S
C1 C0 1.264 . S
C1 C3 1.339 . S
C1 H28 0.931 . S
C2 C3 1.395 . S
C2 C4 1.320 . S
C3 C1 1.339 . S
C3 C2 1.395 . S
C3 H29 0.929 . S
C4 C2 1.320 . S
C4 C5 1.405 . S
C4 H30 0.930 . S
C5 C0 1.479 . S
C5 C4 1.405 . S
C5 H31 0.931 . S
U6 O7 2.454 1_455 S
U6 O8 2.458 1_455 S
U6 C9 2.984 1_455 S
U6 C10 2.847 . S
U6 C23 2.882 . S
U6 O24 2.441 . S
U6 O25 2.420 . S
U6 O26 2.455 1_455 S
U6 O27 2.449 . S
O7 U6 2.454 1_655 S
O7 C9 1.353 . S
O8 U6 2.458 1_655 S
O8 C9 1.286 . S
C9 U6 2.984 1_655 S
C9 O7 1.353 . S
C9 O8 1.286 . S
C9 C11 1.363 . S
C10 C0 1.465 . S
C10 U6 2.847 . S
C10 O24 1.249 . S
C10 O25 1.202 . S
C11 C9 1.363 . S
C11 C13 1.408 . S
C11 C16 1.342 . S
C12 C13 1.310 . S
C12 C15 1.461 . S
C12 H32 0.932 . S
C13 C11 1.408 . S
C13 C12 1.310 . S
C13 H33 0.930 . S
C14 C15 1.474 . S
C14 C16 1.285 . S
C14 H34 0.929 . S
C15 C12 1.461 . S
C15 C14 1.474 . S
C16 C11 1.342 . S
C16 C14 1.285 . S
C16 H35 0.930 . S
C17 C20 1.425 1_554 S
C17 C22 1.245 1_455 S
C17 C23 1.428 1_554 S
C18 C21 1.260 1_655 S
C18 C22 1.477 . S
C18 H36 0.932 . S
C19 C20 1.364 1_554 S
C19 C21 1.479 . S
C19 H37 0.929 . S
C20 C17 1.425 1_556 S
C20 C19 1.364 1_556 S
C20 H38 0.948 . S
C21 C18 1.260 1_455 S
C21 C19 1.479 . S
C22 C17 1.245 1_655 S
C22 C18 1.477 . S
C22 H39 0.932 . S
C23 U6 2.882 . S
C23 C17 1.428 1_556 S
C23 O26 1.301 1_455 S
C23 O27 1.282 . S
O24 U6 2.441 . S
O24 C10 1.249 . S
O25 U6 2.420 . S
O25 C10 1.202 . S
O26 U6 2.455 1_655 S
O26 C23 1.301 1_655 S
O27 U6 2.449 . S
O27 C23 1.282 . S
H28 C1 0.931 . S
H29 C3 0.929 . S
H30 C4 0.930 . S
H31 C5 0.931 . S
H32 C12 0.932 . S
H33 C13 0.930 . S
H34 C14 0.929 . S
H35 C16 0.930 . S
H36 C18 0.932 . S
H37 C19 0.929 . S
H38 C20 0.948 . S
H39 C22 0.932 . S
C40 C41 1.264 . S
C40 C45 1.479 . S
C40 C50 1.465 . S
C41 C40 1.264 . S
C41 C43 1.339 . S
C41 H68 0.931 . S
C42 C43 1.395 . S
C42 C44 1.320 . S
C43 C41 1.339 . S
C43 C42 1.395 . S
C43 H69 0.929 . S
C44 C42 1.320 . S
C44 C45 1.405 . S
C44 H70 0.930 . S
C45 C40 1.479 . S
C45 C44 1.405 . S
C45 H71 0.931 . S
U46 O47 2.454 . S
U46 O48 2.458 . S
U46 C49 2.984 . S
U46 C50 2.847 . S
U46 C63 2.882 . S
U46 O64 2.441 . S
U46 O65 2.420 . S
U46 O66 2.455 . S
U46 O67 2.449 . S
O47 U46 2.454 . S
O47 C49 1.353 . S
O48 U46 2.458 . S
O48 C49 1.286 . S
C49 U46 2.984 . S
C49 O47 1.353 . S
C49 O48 1.286 . S
C49 C51 1.363 . S
C50 C40 1.465 . S
C50 U46 2.847 . S
C50 O64 1.249 . S
C50 O65 1.202 . S
C51 C49 1.363 . S
C51 C53 1.408 . S
C51 C56 1.342 . S
C52 C53 1.310 . S
C52 C55 1.461 . S
C52 H72 0.932 . S
C53 C51 1.408 . S
C53 C52 1.310 . S
C53 H73 0.930 . S
C54 C55 1.474 . S
C54 C56 1.285 . S
C54 H74 0.929 . S
C55 C52 1.461 . S
C55 C54 1.474 . S
C56 C51 1.342 . S
C56 C54 1.285 . S
C56 H75 0.930 . S
C57 C60 1.424 . S
C57 C62 1.245 . S
C57 C63 1.428 . S
C58 C61 1.260 . S
C58 C62 1.477 . S
C58 H76 0.932 . S
C59 C60 1.384 . S
C59 C61 1.479 . S
C59 H77 0.929 . S
C60 C57 1.424 . S
C60 C59 1.384 . S
C60 H78 0.928 . S
C61 C58 1.260 . S
C61 C59 1.479 . S
C62 C57 1.245 . S
C62 C58 1.477 . S
C62 H79 0.932 . S
C63 U46 2.882 . S
C63 C57 1.428 . S
C63 O66 1.301 . S
C63 O67 1.282 . S
O64 U46 2.441 . S
O64 C50 1.249 . S
O65 U46 2.420 . S
O65 C50 1.202 . S
O66 U46 2.455 . S
O66 C63 1.301 . S
O67 U46 2.449 . S
O67 C63 1.282 . S
H68 C41 0.931 . S
H69 C43 0.929 . S
H70 C44 0.930 . S
H71 C45 0.931 . S
H72 C52 0.932 . S
H73 C53 0.930 . S
H74 C54 0.929 . S
H75 C56 0.930 . S
H76 C58 0.932 . S
H77 C59 0.929 . S
H78 C60 0.928 . S
H79 C62 0.932 . S
C80 C81 1.264 . S
C80 C85 1.479 . S
C80 C90 1.465 . S
C81 C80 1.264 . S
C81 C83 1.339 . S
C81 H108 0.931 . S
C82 C83 1.395 . S
C82 C84 1.320 . S
C83 C81 1.339 . S
C83 C82 1.395 . S
C83 H109 0.929 . S
C84 C82 1.320 . S
C84 C85 1.405 . S
C84 H110 0.930 . S
C85 C80 1.479 . S
C85 C84 1.405 . S
C85 H111 0.931 . S
U86 O87 2.454 . S
U86 O88 2.458 . S
U86 C89 2.984 . S
U86 C90 2.847 . S
U86 C103 2.882 . S
U86 O104 2.441 . S
U86 O105 2.420 . S
U86 O106 2.455 . S
U86 O107 2.449 . S
O87 U86 2.454 . S
O87 C89 1.353 . S
O88 U86 2.458 . S
O88 C89 1.286 . S
C89 U86 2.984 . S
C89 O87 1.353 . S
C89 O88 1.286 . S
C89 C91 1.363 . S
C90 C80 1.465 . S
C90 U86 2.847 . S
C90 O104 1.249 . S
C90 O105 1.202 . S
C91 C89 1.363 . S
C91 C93 1.408 . S
C91 C96 1.342 . S
C92 C93 1.310 . S
C92 C95 1.461 . S
C92 H112 0.932 . S
C93 C91 1.408 . S
C93 C92 1.310 . S
C93 H113 0.930 . S
C94 C95 1.474 . S
C94 C96 1.285 . S
C94 H114 0.929 . S
C95 C92 1.461 . S
C95 C94 1.474 . S
C96 C91 1.342 . S
C96 C94 1.285 . S
C96 H115 0.930 . S
C97 C100 1.424 . S
C97 C102 1.245 . S
C97 C103 1.428 1_565 S
C98 C101 1.260 . S
C98 C102 1.477 . S
C98 H116 0.932 . S
C99 C100 1.384 . S
C99 C101 1.479 . S
C99 H117 0.929 . S
C100 C97 1.424 . S
C100 C99 1.384 . S
C100 H118 0.928 1_565 S
C101 C98 1.260 . S
C101 C99 1.479 . S
C102 C97 1.245 . S
C102 C98 1.477 . S
C102 H119 0.932 . S
C103 U86 2.882 . S
C103 C97 1.428 1_545 S
C103 O106 1.301 . S
C103 O107 1.282 . S
O104 U86 2.441 . S
O104 C90 1.249 . S
O105 U86 2.420 . S
O105 C90 1.202 . S
O106 U86 2.455 . S
O106 C103 1.301 . S
O107 U86 2.449 . S
O107 C103 1.282 . S
H108 C81 0.931 . S
H109 C83 0.929 . S
H110 C84 0.930 . S
H111 C85 0.931 . S
H112 C92 0.932 . S
H113 C93 0.930 . S
H114 C94 0.929 . S
H115 C96 0.930 . S
H116 C98 0.932 . S
H117 C99 0.929 . S
H118 C100 0.928 1_545 S
H119 C102 0.932 . S
C120 C121 1.264 1_565 S
C120 C125 1.479 . S
C120 C130 1.465 1_565 S
C121 C120 1.264 1_545 S
C121 C123 1.339 1_545 S
C121 H148 0.931 . S
C122 C123 1.395 . S
C122 C124 1.320 . S
C123 C121 1.339 1_565 S
C123 C122 1.395 . S
C123 H149 0.940 . S
C124 C122 1.320 . S
C124 C125 1.405 . S
C124 H150 0.930 . S
C125 C120 1.479 . S
C125 C124 1.405 . S
C125 H151 0.931 . S
U126 O127 2.454 1_545 S
U126 O128 2.458 . S
U126 C129 2.984 1_545 S
U126 C130 2.847 . S
U126 C143 2.882 . S
U126 O144 2.442 1_545 S
U126 O145 2.420 . S
U126 O146 2.455 . S
U126 O147 2.449 . S
O127 U126 2.454 1_565 S
O127 C129 1.353 . S
O128 U126 2.458 . S
O128 C129 1.286 1_545 S
C129 U126 2.984 1_565 S
C129 O127 1.353 . S
C129 O128 1.286 1_565 S
C129 C131 1.363 . S
C130 C120 1.465 1_545 S
C130 U126 2.847 . S
C130 O144 1.250 1_545 S
C130 O145 1.202 . S
C131 C129 1.363 . S
C131 C133 1.408 . S
C131 C136 1.342 . S
C132 C133 1.310 . S
C132 C135 1.461 . S
C132 H152 0.932 . S
C133 C131 1.408 . S
C133 C132 1.310 . S
C133 H153 0.930 . S
C134 C135 1.474 . S
C134 C136 1.285 . S
C134 H154 0.929 . S
C135 C132 1.461 . S
C135 C134 1.474 . S
C136 C131 1.342 . S
C136 C134 1.285 . S
C136 H155 0.930 . S
C137 C140 1.424 . S
C137 C142 1.245 . S
C137 C143 1.428 . S
C138 C141 1.260 . S
C138 C142 1.477 . S
C138 H156 0.932 . S
C139 C140 1.384 . S
C139 C141 1.479 . S
C139 H157 0.929 . S
C140 C137 1.424 . S
C140 C139 1.384 . S
C140 H158 0.928 . S
C141 C138 1.260 . S
C141 C139 1.479 . S
C142 C137 1.245 . S
C142 C138 1.477 . S
C142 H159 0.932 . S
C143 U126 2.882 . S
C143 C137 1.428 . S
C143 O146 1.301 . S
C143 O147 1.282 . S
O144 U126 2.442 1_565 S
O144 C130 1.250 1_565 S
O145 U126 2.420 . S
O145 C130 1.202 . S
O146 U126 2.455 . S
O146 C143 1.301 . S
O147 U126 2.449 . S
O147 C143 1.282 . S
H148 C121 0.931 . S
H149 C123 0.940 . S
H150 C124 0.930 . S
H151 C125 0.931 . S
H152 C132 0.932 . S
H153 C133 0.930 . S
H154 C134 0.929 . S
H155 C136 0.930 . S
H156 C138 0.932 . S
H157 C139 0.929 . S
H158 C140 0.928 . S
H159 C142 0.932 . S
C160 C161 1.264 . S
C160 C165 1.479 . S
C160 C170 1.465 1_655 S
C161 C160 1.264 . S
C161 C163 1.339 . S
C161 H188 0.931 . S
C162 C163 1.395 . S
C162 C164 1.320 . S
C163 C161 1.339 . S
C163 C162 1.395 . S
C163 H189 0.929 . S
C164 C162 1.320 . S
C164 C165 1.405 . S
C164 H190 0.930 . S
C165 C160 1.479 . S
C165 C164 1.405 . S
C165 H191 0.931 . S
U166 O167 2.454 . S
U166 O168 2.458 . S
U166 C169 2.984 . S
U166 C170 2.847 . S
U166 C183 2.882 . S
U166 O184 2.441 . S
U166 O185 2.420 . S
U166 O186 2.455 . S
U166 O187 2.449 . S
O167 U166 2.454 . S
O167 C169 1.353 . S
O168 U166 2.458 . S
O168 C169 1.286 . S
C169 U166 2.984 . S
C169 O167 1.353 . S
C169 O168 1.286 . S
C169 C171 1.363 . S
C170 C160 1.465 1_455 S
C170 U166 2.847 . S
C170 O184 1.249 . S
C170 O185 1.202 . S
C171 C169 1.363 . S
C171 C173 1.408 . S
C171 C176 1.342 . S
C172 C173 1.310 . S
C172 C175 1.461 . S
C172 H192 0.932 . S
C173 C171 1.408 . S
C173 C172 1.310 . S
C173 H193 0.930 . S
C174 C175 1.474 . S
C174 C176 1.285 . S
C174 H194 0.929 . S
C175 C172 1.461 . S
C175 C174 1.474 . S
C176 C171 1.342 . S
C176 C174 1.285 . S
C176 H195 0.930 . S
C177 C180 1.424 . S
C177 C182 1.245 . S
C177 C183 1.428 . S
C178 C181 1.260 . S
C178 C182 1.477 . S
C178 H196 0.932 . S
C179 C180 1.382 1_655 S
C179 C181 1.474 1_655 S
C179 H197 0.936 . S
C180 C177 1.424 . S
C180 C179 1.382 1_455 S
C180 H198 0.928 1_455 S
C181 C178 1.260 . S
C181 C179 1.474 1_455 S
C182 C177 1.245 . S
C182 C178 1.477 . S
C182 H199 0.932 . S
C183 U166 2.882 . S
C183 C177 1.428 . S
C183 O186 1.301 . S
C183 O187 1.282 . S
O184 U166 2.441 . S
O184 C170 1.249 . S
O185 U166 2.420 . S
O185 C170 1.202 . S
O186 U166 2.455 . S
O186 C183 1.301 . S
O187 U166 2.449 . S
O187 C183 1.282 . S
H188 C161 0.931 . S
H189 C163 0.929 . S
H190 C164 0.930 . S
H191 C165 0.931 . S
H192 C172 0.932 . S
H193 C173 0.930 . S
H194 C174 0.929 . S
H195 C176 0.930 . S
H196 C178 0.932 . S
H197 C179 0.936 . S
H198 C180 0.928 1_655 S
H199 C182 0.932 . S
C200 C201 1.264 . S
C200 C205 1.479 . S
C200 C210 1.465 . S
C201 C200 1.264 . S
C201 C203 1.339 . S
C201 H228 0.931 . S
C202 C203 1.395 . S
C202 C204 1.320 . S
C203 C201 1.339 . S
C203 C202 1.395 . S
C203 H229 0.929 . S
C204 C202 1.320 . S
C204 C205 1.405 . S
C204 H230 0.930 . S
C205 C200 1.479 . S
C205 C204 1.405 . S
C205 H231 0.931 . S
U206 O207 2.454 . S
U206 O208 2.458 . S
U206 C209 2.984 . S
U206 C210 2.847 . S
U206 C223 2.882 . S
U206 O224 2.441 . S
U206 O225 2.420 . S
U206 O226 2.455 . S
U206 O227 2.449 . S
O207 U206 2.454 . S
O207 C209 1.353 . S
O208 U206 2.458 . S
O208 C209 1.286 . S
C209 U206 2.984 . S
C209 O207 1.353 . S
C209 O208 1.286 . S
C209 C211 1.363 . S
C210 C200 1.465 . S
C210 U206 2.847 . S
C210 O224 1.249 . S
C210 O225 1.202 . S
C211 C209 1.363 . S
C211 C213 1.408 . S
C211 C216 1.342 . S
C212 C213 1.310 . S
C212 C215 1.461 . S
C212 H232 0.932 . S
C213 C211 1.408 . S
C213 C212 1.310 . S
C213 H233 0.930 . S
C214 C215 1.474 . S
C214 C216 1.285 . S
C214 H234 0.929 . S
C215 C212 1.461 . S
C215 C214 1.474 . S
C216 C211 1.342 . S
C216 C214 1.285 . S
C216 H235 0.930 . S
C217 C220 1.424 . S
C217 C222 1.245 . S
C217 C223 1.428 . S
C218 C221 1.260 . S
C218 C222 1.477 . S
C218 H236 0.932 . S
C219 C220 1.384 . S
C219 C221 1.479 . S
C219 H237 0.929 . S
C220 C217 1.424 . S
C220 C219 1.384 . S
C220 H238 0.928 . S
C221 C218 1.260 . S
C221 C219 1.479 . S
C222 C217 1.245 . S
C222 C218 1.477 . S
C222 H239 0.932 . S
C223 U206 2.882 . S
C223 C217 1.428 . S
C223 O226 1.301 . S
C223 O227 1.282 . S
O224 U206 2.441 . S
O224 C210 1.249 . S
O225 U206 2.420 . S
O225 C210 1.202 . S
O226 U206 2.455 . S
O226 C223 1.301 . S
O227 U206 2.449 . S
O227 C223 1.282 . S
H228 C201 0.931 . S
H229 C203 0.929 . S
H230 C204 0.930 . S
H231 C205 0.931 . S
H232 C212 0.932 . S
H233 C213 0.930 . S
H234 C214 0.929 . S
H235 C216 0.930 . S
H236 C218 0.932 . S
H237 C219 0.929 . S
H238 C220 0.928 . S
H239 C222 0.932 . S
C240 C241 1.264 . S
C240 C245 1.479 . S
C240 C250 1.465 . S
C241 C240 1.264 . S
C241 C243 1.339 . S
C241 H268 0.931 . S
C242 C243 1.395 . S
C242 C244 1.320 . S
C243 C241 1.339 . S
C243 C242 1.395 . S
C243 H269 0.929 . S
C244 C242 1.320 . S
C244 C245 1.405 . S
C244 H270 0.930 . S
C245 C240 1.479 . S
C245 C244 1.405 . S
C245 H271 0.931 . S
U246 O247 2.454 . S
U246 O248 2.458 . S
U246 C249 2.984 . S
U246 C250 2.847 1_455 S
U246 C263 2.882 . S
U246 O264 2.441 1_455 S
U246 O265 2.420 . S
U246 O266 2.455 . S
U246 O267 2.449 . S
O247 U246 2.454 . S
O247 C249 1.353 . S
O248 U246 2.458 . S
O248 C249 1.286 . S
C249 U246 2.984 . S
C249 O247 1.353 . S
C249 O248 1.286 . S
C249 C251 1.363 . S
C250 C240 1.465 . S
C250 U246 2.847 1_655 S
C250 O264 1.249 . S
C250 O265 1.202 1_655 S
C251 C249 1.363 . S
C251 C253 1.408 . S
C251 C256 1.342 . S
C252 C253 1.310 . S
C252 C255 1.461 . S
C252 H272 0.932 . S
C253 C251 1.408 . S
C253 C252 1.310 . S
C253 H273 0.930 . S
C254 C255 1.474 . S
C254 C256 1.285 . S
C254 H274 0.929 . S
C255 C252 1.461 . S
C255 C254 1.474 . S
C256 C251 1.342 . S
C256 C254 1.285 . S
C256 H275 0.930 . S
C257 C260 1.424 . S
C257 C262 1.245 . S
C257 C263 1.428 . S
C258 C261 1.260 . S
C258 C262 1.477 . S
C258 H276 0.932 . S
C259 C260 1.384 . S
C259 C261 1.479 . S
C259 H277 0.929 . S
C260 C257 1.424 . S
C260 C259 1.384 . S
C260 H278 0.928 . S
C261 C258 1.260 . S
C261 C259 1.479 . S
C262 C257 1.245 . S
C262 C258 1.477 . S
C262 H279 0.932 . S
C263 U246 2.882 . S
C263 C257 1.428 . S
C263 O266 1.301 . S
C263 O267 1.282 . S
O264 U246 2.441 1_655 S
O264 C250 1.249 . S
O265 U246 2.420 . S
O265 C250 1.202 1_455 S
O266 U246 2.455 . S
O266 C263 1.301 . S
O267 U246 2.449 . S
O267 C263 1.282 . S
H268 C241 0.931 . S
H269 C243 0.929 . S
H270 C244 0.930 . S
H271 C245 0.931 . S
H272 C252 0.932 . S
H273 C253 0.930 . S
H274 C254 0.929 . S
H275 C256 0.930 . S
H276 C258 0.932 . S
H277 C259 0.929 . S
H278 C260 0.928 . S
H279 C262 0.932 . S
C280 C281 1.264 1_554 S
C280 C285 1.479 . S
C280 C290 1.465 . S
C281 C280 1.264 1_556 S
C281 C283 1.339 . S
C281 H308 0.931 . S
C282 C283 1.395 . S
C282 C284 1.320 1_556 S
C283 C281 1.339 . S
C283 C282 1.395 . S
C283 H309 0.929 . S
C284 C282 1.320 1_554 S
C284 C285 1.405 . S
C284 H310 0.930 . S
C285 C280 1.479 . S
C285 C284 1.405 . S
C285 H311 0.931 . S
U286 O287 2.454 . S
U286 O288 2.458 . S
U286 C289 2.984 . S
U286 C290 2.847 . S
U286 C303 2.882 1_554 S
U286 O304 2.441 . S
U286 O305 2.420 . S
U286 O306 2.455 . S
U286 O307 2.449 1_554 S
O287 U286 2.454 . S
O287 C289 1.353 . S
O288 U286 2.458 . S
O288 C289 1.286 . S
C289 U286 2.984 . S
C289 O287 1.353 . S
C289 O288 1.286 . S
C289 C291 1.363 . S
C290 C280 1.465 . S
C290 U286 2.847 . S
C290 O304 1.249 . S
C290 O305 1.202 . S
C291 C289 1.363 . S
C291 C293 1.408 . S
C291 C296 1.342 . S
C292 C293 1.310 . S
C292 C295 1.461 . S
C292 H312 0.932 . S
C293 C291 1.408 . S
C293 C292 1.310 . S
C293 H313 0.930 . S
C294 C295 1.474 . S
C294 C296 1.285 . S
C294 H314 0.929 . S
C295 C292 1.461 . S
C295 C294 1.474 . S
C296 C291 1.342 . S
C296 C294 1.285 . S
C296 H315 0.930 . S
C297 C300 1.424 . S
C297 C302 1.245 . S
C297 C303 1.428 . S
C298 C301 1.260 . S
C298 C302 1.477 . S
C298 H316 0.932 . S
C299 C300 1.384 . S
C299 C301 1.479 . S
C299 H317 0.929 . S
C300 C297 1.424 . S
C300 C299 1.384 . S
C300 H318 0.928 . S
C301 C298 1.260 . S
C301 C299 1.479 . S
C302 C297 1.245 . S
C302 C298 1.477 . S
C302 H319 0.932 . S
C303 U286 2.882 1_556 S
C303 C297 1.428 . S
C303 O306 1.301 1_556 S
C303 O307 1.282 . S
O304 U286 2.441 . S
O304 C290 1.249 . S
O305 U286 2.420 . S
O305 C290 1.202 . S
O306 U286 2.455 . S
O306 C303 1.301 1_554 S
O307 U286 2.449 1_556 S
O307 C303 1.282 . S
H308 C281 0.931 . S
H309 C283 0.929 . S
H310 C284 0.930 . S
H311 C285 0.931 . S
H312 C292 0.932 . S
H313 C293 0.930 . S
H314 C294 0.929 . S
H315 C296 0.930 . S
H316 C298 0.932 . S
H317 C299 0.929 . S
H318 C300 0.928 . S
H319 C302 0.932 . S
C320 C321 1.264 . S
C320 C325 1.479 . S
C320 C330 1.465 . S
C321 C320 1.264 . S
C321 C323 1.339 . S
C321 H348 0.931 . S
C322 C323 1.395 . S
C322 C324 1.320 . S
C323 C321 1.339 . S
C323 C322 1.395 . S
C323 H349 0.929 . S
C324 C322 1.320 . S
C324 C325 1.405 . S
C324 H350 0.930 . S
C325 C320 1.479 . S
C325 C324 1.405 . S
C325 H351 0.931 . S
U326 O327 2.454 . S
U326 O328 2.458 . S
U326 C329 2.984 . S
U326 C330 2.847 . S
U326 C343 2.882 . S
U326 O344 2.441 . S
U326 O345 2.420 . S
U326 O346 2.455 . S
U326 O347 2.449 . S
O327 U326 2.454 . S
O327 C329 1.353 . S
O328 U326 2.458 . S
O328 C329 1.286 . S
C329 U326 2.984 . S
C329 O327 1.353 . S
C329 O328 1.286 . S
C329 C331 1.363 . S
C330 C320 1.465 . S
C330 U326 2.847 . S
C330 O344 1.249 . S
C330 O345 1.202 . S
C331 C329 1.363 . S
C331 C333 1.408 . S
C331 C336 1.342 . S
C332 C333 1.310 . S
C332 C335 1.461 . S
C332 H352 0.932 . S
C333 C331 1.408 . S
C333 C332 1.310 . S
C333 H353 0.930 . S
C334 C335 1.474 . S
C334 C336 1.285 . S
C334 H354 0.929 . S
C335 C332 1.461 . S
C335 C334 1.474 . S
C336 C331 1.342 . S
C336 C334 1.285 . S
C336 H355 0.930 . S
C337 C340 1.424 . S
C337 C342 1.245 . S
C337 C343 1.428 . S
C338 C341 1.260 . S
C338 C342 1.477 . S
C338 H356 0.932 . S
C339 C340 1.384 . S
C339 C341 1.479 . S
C339 H357 0.929 . S
C340 C337 1.424 . S
C340 C339 1.384 . S
C340 H358 0.928 . S
C341 C338 1.260 . S
C341 C339 1.479 . S
C342 C337 1.245 . S
C342 C338 1.477 . S
C342 H359 0.932 . S
C343 U326 2.882 . S
C343 C337 1.428 . S
C343 O346 1.301 . S
C343 O347 1.282 . S
O344 U326 2.441 . S
O344 C330 1.249 . S
O345 U326 2.420 . S
O345 C330 1.202 . S
O346 U326 2.455 . S
O346 C343 1.301 . S
O347 U326 2.449 . S
O347 C343 1.282 . S
H348 C321 0.931 . S
H349 C323 0.929 . S
H350 C324 0.930 . S
H351 C325 0.931 . S
H352 C332 0.932 . S
H353 C333 0.930 . S
H354 C334 0.929 . S
H355 C336 0.930 . S
H356 C338 0.932 . S
H357 C339 0.929 . S
H358 C340 0.928 . S
H359 C342 0.932 . S
C360 C361 1.264 1_655 S
C360 C365 1.479 . S
C360 C370 1.465 . S
C361 C360 1.264 1_455 S
C361 C363 1.339 . S
C361 H388 0.931 . S
C362 C363 1.395 . S
C362 C364 1.320 1_455 S
C363 C361 1.339 . S
C363 C362 1.395 . S
C363 H389 0.929 . S
C364 C362 1.320 1_655 S
C364 C365 1.405 . S
C364 H390 0.930 . S
C365 C360 1.479 . S
C365 C364 1.405 . S
C365 H391 0.931 . S
U366 O367 2.454 . S
U366 O368 2.458 . S
U366 C369 2.984 . S
U366 C370 2.847 . S
U366 C383 2.882 . S
U366 O384 2.441 . S
U366 O385 2.420 . S
U366 O386 2.455 . S
U366 O387 2.449 . S
O367 U366 2.454 . S
O367 C369 1.353 . S
O368 U366 2.458 . S
O368 C369 1.286 . S
C369 U366 2.984 . S
C369 O367 1.353 . S
C369 O368 1.286 . S
C369 C371 1.363 . S
C370 C360 1.465 . S
C370 U366 2.847 . S
C370 O384 1.249 . S
C370 O385 1.202 . S
C371 C369 1.363 . S
C371 C373 1.408 . S
C371 C376 1.342 . S
C372 C373 1.310 . S
C372 C375 1.461 1_556 S
C372 H392 0.932 . S
C373 C371 1.408 . S
C373 C372 1.310 . S
C373 H393 0.930 . S
C374 C375 1.474 1_556 S
C374 C376 1.285 . S
C374 H394 0.929 1_556 S
C375 C372 1.461 1_554 S
C375 C374 1.474 1_554 S
C376 C371 1.342 . S
C376 C374 1.285 . S
C376 H395 0.930 . S
C377 C380 1.424 . S
C377 C382 1.245 . S
C377 C383 1.428 . S
C378 C381 1.260 . S
C378 C382 1.477 . S
C378 H396 0.932 . S
C379 C380 1.384 . S
C379 C381 1.479 . S
C379 H397 0.929 . S
C380 C377 1.424 . S
C380 C379 1.384 . S
C380 H398 0.928 . S
C381 C378 1.260 . S
C381 C379 1.479 . S
C382 C377 1.245 . S
C382 C378 1.477 . S
C382 H399 0.932 . S
C383 U366 2.882 . S
C383 C377 1.428 . S
C383 O386 1.301 . S
C383 O387 1.282 . S
O384 U366 2.441 . S
O384 C370 1.249 . S
O385 U366 2.420 . S
O385 C370 1.202 . S
O386 U366 2.455 . S
O386 C383 1.301 . S
O387 U366 2.449 . S
O387 C383 1.282 . S
H388 C361 0.931 . S
H389 C363 0.929 . S
H390 C364 0.930 . S
H391 C365 0.931 . S
H392 C372 0.932 . S
H393 C373 0.930 . S
H394 C374 0.929 1_554 S
H395 C376 0.930 . S
H396 C378 0.932 . S
H397 C379 0.929 . S
H398 C380 0.928 . S
H399 C382 0.932 . S
C400 C401 1.264 . S
C400 C405 1.479 . S
C400 C410 1.465 . S
C401 C400 1.264 . S
C401 C403 1.339 . S
C401 H428 0.931 . S
C402 C403 1.395 . S
C402 C404 1.320 . S
C403 C401 1.339 . S
C403 C402 1.395 . S
C403 H429 0.929 . S
C404 C402 1.320 . S
C404 C405 1.405 . S
C404 H430 0.930 . S
C405 C400 1.479 . S
C405 C404 1.405 . S
C405 H431 0.931 . S
U406 O407 2.454 . S
U406 O408 2.458 . S
U406 C409 2.984 . S
U406 C410 2.847 . S
U406 C423 2.882 . S
U406 O424 2.441 . S
U406 O425 2.420 . S
U406 O426 2.455 . S
U406 O427 2.449 . S
O407 U406 2.454 . S
O407 C409 1.353 . S
O408 U406 2.458 . S
O408 C409 1.286 . S
C409 U406 2.984 . S
C409 O407 1.353 . S
C409 O408 1.286 . S
C409 C411 1.363 . S
C410 C400 1.465 . S
C410 U406 2.847 . S
C410 O424 1.249 . S
C410 O425 1.202 . S
C411 C409 1.363 . S
C411 C413 1.408 . S
C411 C416 1.342 . S
C412 C413 1.310 . S
C412 C415 1.461 . S
C412 H432 0.932 . S
C413 C411 1.408 . S
C413 C412 1.310 . S
C413 H433 0.930 . S
C414 C415 1.474 . S
C414 C416 1.285 . S
C414 H434 0.929 . S
C415 C412 1.461 . S
C415 C414 1.474 . S
C416 C411 1.342 . S
C416 C414 1.285 . S
C416 H435 0.930 . S
C417 C420 1.424 . S
C417 C422 1.245 . S
C417 C423 1.428 . S
C418 C421 1.260 . S
C418 C422 1.477 . S
C418 H436 0.932 . S
C419 C420 1.384 . S
C419 C421 1.479 . S
C419 H437 0.929 . S
C420 C417 1.424 . S
C420 C419 1.384 . S
C420 H438 0.928 . S
C421 C418 1.260 . S
C421 C419 1.479 . S
C422 C417 1.245 . S
C422 C418 1.477 . S
C422 H439 0.932 . S
C423 U406 2.882 . S
C423 C417 1.428 . S
C423 O426 1.301 . S
C423 O427 1.282 . S
O424 U406 2.441 . S
O424 C410 1.249 . S
O425 U406 2.420 . S
O425 C410 1.202 . S
O426 U406 2.455 . S
O426 C423 1.301 . S
O427 U406 2.449 . S
O427 C423 1.282 . S
H428 C401 0.931 . S
H429 C403 0.929 . S
H430 C404 0.930 . S
H431 C405 0.931 . S
H432 C412 0.932 . S
H433 C413 0.930 . S
H434 C414 0.929 . S
H435 C416 0.930 . S
H436 C418 0.932 . S
H437 C419 0.929 . S
H438 C420 0.928 . S
H439 C422 0.932 . S
C440 C441 1.264 . S
C440 C445 1.479 . S
C440 C450 1.465 . S
C441 C440 1.264 . S
C441 C443 1.339 . S
C441 H468 0.931 . S
C442 C443 1.395 . S
C442 C444 1.320 . S
C443 C441 1.339 . S
C443 C442 1.395 . S
C443 H469 0.929 . S
C444 C442 1.320 . S
C444 C445 1.405 . S
C444 H470 0.930 . S
C445 C440 1.479 . S
C445 C444 1.405 . S
C445 H471 0.931 . S
U446 O447 2.454 . S
U446 O448 2.458 . S
U446 C449 2.984 . S
U446 C450 2.847 . S
U446 C463 2.882 . S
U446 O464 2.441 . S
U446 O465 2.420 . S
U446 O466 2.455 . S
U446 O467 2.449 . S
O447 U446 2.454 . S
O447 C449 1.353 . S
O448 U446 2.458 . S
O448 C449 1.286 . S
C449 U446 2.984 . S
C449 O447 1.353 . S
C449 O448 1.286 . S
C449 C451 1.363 . S
C450 C440 1.465 . S
C450 U446 2.847 . S
C450 O464 1.249 . S
C450 O465 1.202 . S
C451 C449 1.363 . S
C451 C453 1.408 . S
C451 C456 1.342 . S
C452 C453 1.310 . S
C452 C455 1.461 . S
C452 H472 0.932 . S
C453 C451 1.408 . S
C453 C452 1.310 . S
C453 H473 0.930 . S
C454 C455 1.474 . S
C454 C456 1.285 . S
C454 H474 0.929 . S
C455 C452 1.461 . S
C455 C454 1.474 . S
C456 C451 1.342 . S
C456 C454 1.285 . S
C456 H475 0.930 . S
C457 C460 1.424 . S
C457 C462 1.245 . S
C457 C463 1.428 . S
C458 C461 1.260 . S
C458 C462 1.477 . S
C458 H476 0.932 . S
C459 C460 1.384 . S
C459 C461 1.479 . S
C459 H477 0.929 . S
C460 C457 1.424 . S
C460 C459 1.384 . S
C460 H478 0.928 . S
C461 C458 1.260 . S
C461 C459 1.479 . S
C462 C457 1.245 . S
C462 C458 1.477 . S
C462 H479 0.932 . S
C463 U446 2.882 . S
C463 C457 1.428 . S
C463 O466 1.301 . S
C463 O467 1.282 . S
O464 U446 2.441 . S
O464 C450 1.249 . S
O465 U446 2.420 . S
O465 C450 1.202 . S
O466 U446 2.455 . S
O466 C463 1.301 . S
O467 U446 2.449 . S
O467 C463 1.282 . S
H468 C441 0.931 . S
H469 C443 0.929 . S
H470 C444 0.930 . S
H471 C445 0.931 . S
H472 C452 0.932 . S
H473 C453 0.930 . S
H474 C454 0.929 . S
H475 C456 0.930 . S
H476 C458 0.932 . S
H477 C459 0.929 . S
H478 C460 0.928 . S
H479 C462 0.932 . S
C480 C481 1.264 . S
C480 C485 1.479 . S
C480 C490 1.465 . S
C481 C480 1.264 . S
C481 C483 1.339 . S
C481 H508 0.931 . S
C482 C483 1.395 . S
C482 C484 1.320 . S
C483 C481 1.339 . S
C483 C482 1.395 . S
C483 H509 0.929 . S
C484 C482 1.320 . S
C484 C485 1.405 . S
C484 H510 0.930 . S
C485 C480 1.479 . S
C485 C484 1.405 . S
C485 H511 0.931 . S
U486 O487 2.454 . S
U486 O488 2.458 . S
U486 C489 2.984 . S
U486 C490 2.847 1_455 S
U486 C503 2.882 . S
U486 O504 2.441 1_455 S
U486 O505 2.420 1_455 S
U486 O506 2.455 . S
U486 O507 2.449 1_455 S
O487 U486 2.454 . S
O487 C489 1.353 . S
O488 U486 2.458 . S
O488 C489 1.286 . S
C489 U486 2.984 . S
C489 O487 1.353 . S
C489 O488 1.286 . S
C489 C491 1.363 . S
C490 C480 1.465 . S
C490 U486 2.847 1_655 S
C490 O504 1.249 . S
C490 O505 1.202 . S
C491 C489 1.363 . S
C491 C493 1.408 . S
C491 C496 1.342 . S
C492 C493 1.310 . S
C492 C495 1.461 . S
C492 H512 0.932 . S
C493 C491 1.408 . S
C493 C492 1.310 . S
C493 H513 0.930 . S
C494 C495 1.474 . S
C494 C496 1.285 . S
C494 H514 0.929 . S
C495 C492 1.461 . S
C495 C494 1.474 . S
C496 C491 1.342 . S
C496 C494 1.285 . S
C496 H515 0.930 . S
C497 C500 1.424 1_455 S
C497 C502 1.245 . S
C497 C503 1.428 . S
C498 C501 1.260 1_455 S
C498 C502 1.477 1_556 S
C498 H516 0.932 . S
C499 C500 1.393 . S
C499 C501 1.471 1_554 S
C499 H517 0.928 1_554 S
C500 C497 1.424 1_655 S
C500 C499 1.393 . S
C500 H518 0.928 . S
C501 C498 1.260 1_655 S
C501 C499 1.471 1_556 S
C502 C497 1.245 . S
C502 C498 1.477 1_554 S
C502 H519 0.932 . S
C503 U486 2.882 . S
C503 C497 1.428 . S
C503 O506 1.301 . S
C503 O507 1.282 1_455 S
O504 U486 2.441 1_655 S
O504 C490 1.249 . S
O505 U486 2.420 1_655 S
O505 C490 1.202 . S
O506 U486 2.455 . S
O506 C503 1.301 . S
O507 U486 2.449 1_655 S
O507 C503 1.282 1_655 S
H508 C481 0.931 . S
H509 C483 0.929 . S
H510 C484 0.930 . S
H511 C485 0.931 . S
H512 C492 0.932 . S
H513 C493 0.930 . S
H514 C494 0.929 . S
H515 C496 0.930 . S
H516 C498 0.932 . S
H517 C499 0.928 1_556 S
H518 C500 0.928 . S
H519 C502 0.932 . S
C520 C521 1.264 . S
C520 C525 1.479 . S
C520 C530 1.465 . S
C521 C520 1.264 . S
C521 C523 1.339 . S
C521 H548 0.931 . S
C522 C523 1.395 . S
C522 C524 1.320 . S
C523 C521 1.339 . S
C523 C522 1.395 . S
C523 H549 0.929 . S
C524 C522 1.320 . S
C524 C525 1.405 . S
C524 H550 0.930 . S
C525 C520 1.479 . S
C525 C524 1.405 . S
C525 H551 0.931 . S
U526 O527 2.454 . S
U526 O528 2.458 . S
U526 C529 2.984 . S
U526 C530 2.847 . S
U526 C543 2.882 . S
U526 O544 2.441 . S
U526 O545 2.420 . S
U526 O546 2.455 . S
U526 O547 2.449 . S
O527 U526 2.454 . S
O527 C529 1.353 . S
O528 U526 2.458 . S
O528 C529 1.286 . S
C529 U526 2.984 . S
C529 O527 1.353 . S
C529 O528 1.286 . S
C529 C531 1.363 . S
C530 C520 1.465 . S
C530 U526 2.847 . S
C530 O544 1.249 . S
C530 O545 1.202 . S
C531 C529 1.363 . S
C531 C533 1.408 . S
C531 C536 1.342 . S
C532 C533 1.310 . S
C532 C535 1.461 . S
C532 H552 0.932 . S
C533 C531 1.408 . S
C533 C532 1.310 . S
C533 H553 0.930 . S
C534 C535 1.474 . S
C534 C536 1.285 . S
C534 H554 0.929 . S
C535 C532 1.461 . S
C535 C534 1.474 . S
C536 C531 1.342 . S
C536 C534 1.285 . S
C536 H555 0.930 . S
C537 C540 1.424 . S
C537 C542 1.245 . S
C537 C543 1.428 . S
C538 C541 1.260 . S
C538 C542 1.477 . S
C538 H556 0.932 . S
C539 C540 1.384 . S
C539 C541 1.479 . S
C539 H557 0.929 . S
C540 C537 1.424 . S
C540 C539 1.384 . S
C540 H558 0.928 . S
C541 C538 1.260 . S
C541 C539 1.479 . S
C542 C537 1.245 . S
C542 C538 1.477 . S
C542 H559 0.932 . S
C543 U526 2.882 . S
C543 C537 1.428 . S
C543 O546 1.301 . S
C543 O547 1.282 . S
O544 U526 2.441 . S
O544 C530 1.249 . S
O545 U526 2.420 . S
O545 C530 1.202 . S
O546 U526 2.455 . S
O546 C543 1.301 . S
O547 U526 2.449 . S
O547 C543 1.282 . S
H548 C521 0.931 . S
H549 C523 0.929 . S
H550 C524 0.930 . S
H551 C525 0.931 . S
H552 C532 0.932 . S
H553 C533 0.930 . S
H554 C534 0.929 . S
H555 C536 0.930 . S
H556 C538 0.932 . S
H557 C539 0.929 . S
H558 C540 0.928 . S
H559 C542 0.932 . S
C560 C561 1.264 . S
C560 C565 1.479 . S
C560 C570 1.465 . S
C561 C560 1.264 . S
C561 C563 1.339 . S
C561 H588 0.931 . S
C562 C563 1.395 . S
C562 C564 1.320 . S
C563 C561 1.339 . S
C563 C562 1.395 . S
C563 H589 0.929 . S
C564 C562 1.320 . S
C564 C565 1.405 . S
C564 H590 0.930 . S
C565 C560 1.479 . S
C565 C564 1.405 . S
C565 H591 0.931 . S
U566 O567 2.454 . S
U566 O568 2.458 . S
U566 C569 2.984 . S
U566 C570 2.847 . S
U566 C583 2.882 . S
U566 O584 2.441 . S
U566 O585 2.420 . S
U566 O586 2.455 . S
U566 O587 2.449 . S
O567 U566 2.454 . S
O567 C569 1.353 . S
O568 U566 2.458 . S
O568 C569 1.286 . S
C569 U566 2.984 . S
C569 O567 1.353 . S
C569 O568 1.286 . S
C569 C571 1.363 . S
C570 C560 1.465 . S
C570 U566 2.847 . S
C570 O584 1.249 . S
C570 O585 1.202 . S
C571 C569 1.363 . S
C571 C573 1.408 . S
C571 C576 1.342 . S
C572 C573 1.310 . S
C572 C575 1.461 . S
C572 H592 0.932 . S
C573 C571 1.408 . S
C573 C572 1.310 . S
C573 H593 0.930 . S
C574 C575 1.474 . S
C574 C576 1.285 . S
C574 H594 0.929 . S
C575 C572 1.461 . S
C575 C574 1.474 . S
C576 C571 1.342 . S
C576 C574 1.285 . S
C576 H595 0.930 . S
C577 C580 1.424 . S
C577 C582 1.245 . S
C577 C583 1.428 . S
C578 C581 1.260 1_565 S
C578 C582 1.477 . S
C578 H596 0.932 . S
C579 C580 1.384 . S
C579 C581 1.479 1_565 S
C579 H597 0.929 . S
C580 C577 1.424 . S
C580 C579 1.384 . S
C580 H598 0.928 . S
C581 C578 1.260 1_545 S
C581 C579 1.479 1_545 S
C582 C577 1.245 . S
C582 C578 1.477 . S
C582 H599 0.932 . S
C583 U566 2.882 . S
C583 C577 1.428 . S
C583 O586 1.301 . S
C583 O587 1.282 . S
O584 U566 2.441 . S
O584 C570 1.249 . S
O585 U566 2.420 . S
O585 C570 1.202 . S
O586 U566 2.455 . S
O586 C583 1.301 . S
O587 U566 2.449 . S
O587 C583 1.282 . S
H588 C561 0.931 . S
H589 C563 0.929 . S
H590 C564 0.930 . S
H591 C565 0.931 . S
H592 C572 0.932 . S
H593 C573 0.930 . S
H594 C574 0.929 . S
H595 C576 0.930 . S
H596 C578 0.932 . S
H597 C579 0.929 . S
H598 C580 0.928 . S
H599 C582 0.932 . S
C600 C601 1.264 . S
C600 C605 1.479 . S
C600 C610 1.465 . S
C601 C600 1.264 . S
C601 C603 1.339 . S
C601 H628 0.931 . S
C602 C603 1.395 . S
C602 C604 1.320 . S
C603 C601 1.339 . S
C603 C602 1.395 . S
C603 H629 0.929 . S
C604 C602 1.320 . S
C604 C605 1.405 . S
C604 H630 0.930 . S
C605 C600 1.479 . S
C605 C604 1.405 . S
C605 H631 0.931 . S
U606 O607 2.454 . S
U606 O608 2.458 . S
U606 C609 2.984 . S
U606 C610 2.847 . S
U606 C623 2.882 . S
U606 O624 2.441 . S
U606 O625 2.420 . S
U606 O626 2.455 . S
U606 O627 2.449 . S
O607 U606 2.454 . S
O607 C609 1.353 . S
O608 U606 2.458 . S
O608 C609 1.286 . S
C609 U606 2.984 . S
C609 O607 1.353 . S
C609 O608 1.286 . S
C609 C611 1.363 . S
C610 C600 1.465 . S
C610 U606 2.847 . S
C610 O624 1.249 . S
C610 O625 1.202 . S
C611 C609 1.363 . S
C611 C613 1.408 . S
C611 C616 1.342 . S
C612 C613 1.310 . S
C612 C615 1.461 . S
C612 H632 0.932 . S
C613 C611 1.408 . S
C613 C612 1.310 . S
C613 H633 0.930 . S
C614 C615 1.474 . S
C614 C616 1.285 . S
C614 H634 0.929 . S
C615 C612 1.461 . S
C615 C614 1.474 . S
C616 C611 1.342 . S
C616 C614 1.285 . S
C616 H635 0.930 . S
C617 C620 1.424 . S
C617 C622 1.245 . S
C617 C623 1.428 1_565 S
C618 C621 1.260 . S
C618 C622 1.477 . S
C618 H636 0.932 . S
C619 C620 1.384 . S
C619 C621 1.479 . S
C619 H637 0.929 . S
C620 C617 1.424 . S
C620 C619 1.384 . S
C620 H638 0.928 . S
C621 C618 1.260 . S
C621 C619 1.479 . S
C622 C617 1.245 . S
C622 C618 1.477 . S
C622 H639 0.932 . S
C623 U606 2.882 . S
C623 C617 1.428 1_545 S
C623 O626 1.301 . S
C623 O627 1.282 . S
O624 U606 2.441 . S
O624 C610 1.249 . S
O625 U606 2.420 . S
O625 C610 1.202 . S
O626 U606 2.455 . S
O626 C623 1.301 . S
O627 U606 2.449 . S
O627 C623 1.282 . S
H628 C601 0.931 . S
H629 C603 0.929 . S
H630 C604 0.930 . S
H631 C605 0.931 . S
H632 C612 0.932 . S
H633 C613 0.930 . S
H634 C614 0.929 . S
H635 C616 0.930 . S
H636 C618 0.932 . S
H637 C619 0.929 . S
H638 C620 0.928 . S
H639 C622 0.932 . S
C640 C641 1.264 . S
C640 C645 1.479 . S
C640 C650 1.465 . S
C641 C640 1.264 . S
C641 C643 1.339 . S
C641 H668 0.931 . S
C642 C643 1.395 . S
C642 C644 1.320 . S
C643 C641 1.339 . S
C643 C642 1.395 . S
C643 H669 0.929 . S
C644 C642 1.320 . S
C644 C645 1.405 . S
C644 H670 0.930 . S
C645 C640 1.479 . S
C645 C644 1.405 . S
C645 H671 0.931 . S
U646 O647 2.451 1_455 S
U646 O648 2.458 1_455 S
U646 C649 2.984 1_455 S
U646 C650 2.847 . S
U646 C663 2.882 . S
U646 O664 2.441 . S
U646 O665 2.420 . S
U646 O666 2.455 . S
U646 O667 2.449 . S
O647 U646 2.451 1_655 S
O647 C649 1.356 . S
O648 U646 2.458 1_655 S
O648 C649 1.286 . S
C649 U646 2.984 1_655 S
C649 O647 1.356 . S
C649 O648 1.286 . S
C649 C651 1.363 . S
C650 C640 1.465 . S
C650 U646 2.847 . S
C650 O664 1.249 . S
C650 O665 1.202 . S
C651 C649 1.363 . S
C651 C653 1.408 . S
C651 C656 1.342 . S
C652 C653 1.310 . S
C652 C655 1.461 . S
C652 H672 0.932 . S
C653 C651 1.408 . S
C653 C652 1.310 . S
C653 H673 0.930 . S
C654 C655 1.474 . S
C654 C656 1.285 . S
C654 H674 0.929 . S
C655 C652 1.461 . S
C655 C654 1.474 . S
C656 C651 1.342 . S
C656 C654 1.285 . S
C656 H675 0.930 . S
C657 C660 1.424 . S
C657 C662 1.245 . S
C657 C663 1.428 . S
C658 C661 1.260 . S
C658 C662 1.477 . S
C658 H676 0.939 . S
C659 C660 1.384 . S
C659 C661 1.479 . S
C659 H677 0.929 . S
C660 C657 1.424 . S
C660 C659 1.384 . S
C660 H678 0.928 . S
C661 C658 1.260 . S
C661 C659 1.479 . S
C662 C657 1.245 . S
C662 C658 1.477 . S
C662 H679 0.935 . S
C663 U646 2.882 . S
C663 C657 1.428 . S
C663 O666 1.301 . S
C663 O667 1.282 . S
O664 U646 2.441 . S
O664 C650 1.249 . S
O665 U646 2.420 . S
O665 C650 1.202 . S
O666 U646 2.455 . S
O666 C663 1.301 . S
O667 U646 2.449 . S
O667 C663 1.282 . S
H668 C641 0.931 . S
H669 C643 0.929 . S
H670 C644 0.930 . S
H671 C645 0.931 . S
H672 C652 0.932 . S
H673 C653 0.930 . S
H674 C654 0.929 . S
H675 C656 0.930 . S
H676 C658 0.939 . S
H677 C659 0.929 . S
H678 C660 0.928 . S
H679 C662 0.935 . S
C680 C681 1.264 . S
C680 C685 1.479 . S
C680 C690 1.465 . S
C681 C680 1.264 . S
C681 C683 1.339 . S
C681 H708 0.931 . S
C682 C683 1.395 . S
C682 C684 1.320 . S
C683 C681 1.339 . S
C683 C682 1.395 . S
C683 H709 0.929 . S
C684 C682 1.320 . S
C684 C685 1.405 . S
C684 H710 0.930 . S
C685 C680 1.479 . S
C685 C684 1.405 . S
C685 H711 0.931 . S
U686 O687 2.454 . S
U686 O688 2.458 . S
U686 C689 2.984 . S
U686 C690 2.847 . S
U686 C703 2.882 . S
U686 O704 2.441 . S
U686 O705 2.420 . S
U686 O706 2.455 . S
U686 O707 2.449 . S
O687 U686 2.454 . S
O687 C689 1.353 . S
O688 U686 2.458 . S
O688 C689 1.286 . S
C689 U686 2.984 . S
C689 O687 1.353 . S
C689 O688 1.286 . S
C689 C691 1.363 . S
C690 C680 1.465 . S
C690 U686 2.847 . S
C690 O704 1.249 . S
C690 O705 1.202 . S
C691 C689 1.363 . S
C691 C693 1.408 . S
C691 C696 1.342 . S
C692 C693 1.310 . S
C692 C695 1.461 . S
C692 H712 0.932 . S
C693 C691 1.408 . S
C693 C692 1.310 . S
C693 H713 0.930 . S
C694 C695 1.474 . S
C694 C696 1.285 . S
C694 H714 0.929 . S
C695 C692 1.461 . S
C695 C694 1.474 . S
C696 C691 1.342 . S
C696 C694 1.285 . S
C696 H715 0.930 . S
C697 C700 1.424 . S
C697 C702 1.245 . S
C697 C703 1.428 . S
C698 C701 1.260 . S
C698 C702 1.477 . S
C698 H716 0.932 . S
C699 C700 1.384 . S
C699 C701 1.479 . S
C699 H717 0.929 . S
C700 C697 1.424 . S
C700 C699 1.384 . S
C700 H718 0.928 . S
C701 C698 1.260 . S
C701 C699 1.479 . S
C702 C697 1.245 . S
C702 C698 1.477 . S
C702 H719 0.932 . S
C703 U686 2.882 . S
C703 C697 1.428 . S
C703 O706 1.301 . S
C703 O707 1.282 . S
O704 U686 2.441 . S
O704 C690 1.249 . S
O705 U686 2.420 . S
O705 C690 1.202 . S
O706 U686 2.455 . S
O706 C703 1.301 . S
O707 U686 2.449 . S
O707 C703 1.282 . S
H708 C681 0.931 . S
H709 C683 0.929 . S
H710 C684 0.930 . S
H711 C685 0.931 . S
H712 C692 0.932 . S
H713 C693 0.930 . S
H714 C694 0.929 . S
H715 C696 0.930 . S
H716 C698 0.932 . S
H717 C699 0.929 . S
H718 C700 0.928 . S
H719 C702 0.932 . S
C720 C721 1.264 . S
C720 C725 1.479 . S
C720 C730 1.465 . S
C721 C720 1.264 . S
C721 C723 1.339 . S
C721 H748 0.931 . S
C722 C723 1.395 . S
C722 C724 1.320 . S
C723 C721 1.339 . S
C723 C722 1.395 . S
C723 H749 0.929 . S
C724 C722 1.320 . S
C724 C725 1.405 . S
C724 H750 0.930 . S
C725 C720 1.479 . S
C725 C724 1.405 . S
C725 H751 0.931 . S
U726 O727 2.454 . S
U726 O728 2.458 1_455 S
U726 C729 2.984 1_455 S
U726 C730 2.847 . S
U726 C743 2.882 . S
U726 O744 2.441 . S
U726 O745 2.420 . S
U726 O746 2.455 . S
U726 O747 2.449 . S
O727 U726 2.454 . S
O727 C729 1.353 1_455 S
O728 U726 2.458 1_655 S
O728 C729 1.286 . S
C729 U726 2.984 1_655 S
C729 O727 1.353 1_655 S
C729 O728 1.286 . S
C729 C731 1.363 . S
C730 C720 1.465 . S
C730 U726 2.847 . S
C730 O744 1.249 . S
C730 O745 1.202 . S
C731 C729 1.363 . S
C731 C733 1.408 . S
C731 C736 1.342 . S
C732 C733 1.310 . S
C732 C735 1.461 . S
C732 H752 0.932 . S
C733 C731 1.408 . S
C733 C732 1.310 . S
C733 H753 0.931 . S
C734 C735 1.474 . S
C734 C736 1.285 . S
C734 H754 0.929 . S
C735 C732 1.461 . S
C735 C734 1.474 . S
C736 C731 1.342 . S
C736 C734 1.285 . S
C736 H755 0.930 . S
C737 C740 1.424 . S
C737 C742 1.242 1_455 S
C737 C743 1.429 . S
C738 C741 1.260 . S
C738 C742 1.477 . S
C738 H756 0.932 . S
C739 C740 1.384 1_655 S
C739 C741 1.479 . S
C739 H757 0.928 1_655 S
C740 C737 1.424 . S
C740 C739 1.384 1_455 S
C740 H758 0.928 . S
C741 C738 1.260 . S
C741 C739 1.479 . S
C742 C737 1.242 1_655 S
C742 C738 1.477 . S
C742 H759 0.932 . S
C743 U726 2.882 . S
C743 C737 1.429 . S
C743 O746 1.301 . S
C743 O747 1.282 . S
O744 U726 2.441 . S
O744 C730 1.249 . S
O745 U726 2.420 . S
O745 C730 1.202 . S
O746 U726 2.455 . S
O746 C743 1.301 . S
O747 U726 2.449 . S
O747 C743 1.282 . S
H748 C721 0.931 . S
H749 C723 0.929 . S
H750 C724 0.930 . S
H751 C725 0.931 . S
H752 C732 0.932 . S
H753 C733 0.931 . S
H754 C734 0.929 . S
H755 C736 0.930 . S
H756 C738 0.932 . S
H757 C739 0.928 1_455 S
H758 C740 0.928 . S
H759 C742 0.932 . S
C760 C761 1.264 . S
C760 C765 1.479 . S
C760 C770 1.465 . S
C761 C760 1.264 . S
C761 C763 1.339 . S
C761 H788 0.931 . S
C762 C763 1.395 . S
C762 C764 1.320 . S
C763 C761 1.339 . S
C763 C762 1.395 . S
C763 H789 0.929 . S
C764 C762 1.320 . S
C764 C765 1.405 . S
C764 H790 0.930 1_554 S
C765 C760 1.479 . S
C765 C764 1.405 . S
C765 H791 0.931 1_554 S
U766 O767 2.454 1_554 S
U766 O768 2.458 1_554 S
U766 C769 2.984 1_554 S
U766 C770 2.847 . S
U766 C783 2.882 . S
U766 O784 2.441 . S
U766 O785 2.420 . S
U766 O786 2.455 . S
U766 O787 2.449 . S
O767 U766 2.454 1_556 S
O767 C769 1.353 . S
O768 U766 2.458 1_556 S
O768 C769 1.286 . S
C769 U766 2.984 1_556 S
C769 O767 1.353 . S
C769 O768 1.286 . S
C769 C771 1.363 . S
C770 C760 1.465 . S
C770 U766 2.847 . S
C770 O784 1.249 . S
C770 O785 1.202 . S
C771 C769 1.363 . S
C771 C773 1.408 . S
C771 C776 1.342 . S
C772 C773 1.310 . S
C772 C775 1.461 . S
C772 H792 0.932 . S
C773 C771 1.408 . S
C773 C772 1.310 . S
C773 H793 0.930 . S
C774 C775 1.474 . S
C774 C776 1.285 . S
C774 H794 0.929 . S
C775 C772 1.461 . S
C775 C774 1.474 . S
C776 C771 1.342 . S
C776 C774 1.285 . S
C776 H795 0.930 . S
C777 C780 1.424 . S
C777 C782 1.245 . S
C777 C783 1.428 . S
C778 C781 1.260 . S
C778 C782 1.477 . S
C778 H796 0.932 . S
C779 C780 1.384 . S
C779 C781 1.479 . S
C779 H797 0.929 . S
C780 C777 1.424 . S
C780 C779 1.384 . S
C780 H798 0.928 . S
C781 C778 1.260 . S
C781 C779 1.479 . S
C782 C777 1.245 . S
C782 C778 1.477 . S
C782 H799 0.932 . S
C783 U766 2.882 . S
C783 C777 1.428 . S
C783 O786 1.301 . S
C783 O787 1.282 . S
O784 U766 2.441 . S
O784 C770 1.249 . S
O785 U766 2.420 . S
O785 C770 1.202 . S
O786 U766 2.455 . S
O786 C783 1.301 . S
O787 U766 2.449 . S
O787 C783 1.282 . S
H788 C761 0.931 . S
H789 C763 0.929 . S
H790 C764 0.930 1_556 S
H791 C765 0.931 1_556 S
H792 C772 0.932 . S
H793 C773 0.930 . S
H794 C774 0.929 . S
H795 C776 0.930 . S
H796 C778 0.932 . S
H797 C779 0.929 . S
H798 C780 0.928 . S
H799 C782 0.932 . S
C800 C801 1.264 . S
C800 C805 1.479 . S
C800 C810 1.465 . S
C801 C800 1.264 . S
C801 C803 1.339 . S
C801 H828 0.931 . S
C802 C803 1.395 . S
C802 C804 1.320 . S
C803 C801 1.339 . S
C803 C802 1.395 . S
C803 H829 0.929 . S
C804 C802 1.320 . S
C804 C805 1.405 . S
C804 H830 0.930 . S
C805 C800 1.479 . S
C805 C804 1.405 . S
C805 H831 0.931 . S
U806 O807 2.454 . S
U806 O808 2.458 . S
U806 C809 2.984 . S
U806 C810 2.847 . S
U806 C823 2.882 . S
U806 O824 2.441 . S
U806 O825 2.420 . S
U806 O826 2.455 . S
U806 O827 2.449 . S
O807 U806 2.454 . S
O807 C809 1.353 . S
O808 U806 2.458 . S
O808 C809 1.286 . S
C809 U806 2.984 . S
C809 O807 1.353 . S
C809 O808 1.286 . S
C809 C811 1.363 . S
C810 C800 1.465 . S
C810 U806 2.847 . S
C810 O824 1.249 . S
C810 O825 1.202 . S
C811 C809 1.363 . S
C811 C813 1.408 . S
C811 C816 1.342 . S
C812 C813 1.310 . S
C812 C815 1.461 . S
C812 H832 0.932 . S
C813 C811 1.408 . S
C813 C812 1.310 . S
C813 H833 0.930 . S
C814 C815 1.474 . S
C814 C816 1.285 . S
C814 H834 0.929 . S
C815 C812 1.461 . S
C815 C814 1.474 . S
C816 C811 1.342 . S
C816 C814 1.285 . S
C816 H835 0.930 . S
C817 C820 1.424 . S
C817 C822 1.245 . S
C817 C823 1.428 . S
C818 C821 1.260 . S
C818 C822 1.477 . S
C818 H836 0.932 . S
C819 C820 1.384 . S
C819 C821 1.479 . S
C819 H837 0.929 . S
C820 C817 1.424 . S
C820 C819 1.384 . S
C820 H838 0.928 . S
C821 C818 1.260 . S
C821 C819 1.479 . S
C822 C817 1.245 . S
C822 C818 1.477 . S
C822 H839 0.932 . S
C823 U806 2.882 . S
C823 C817 1.428 . S
C823 O826 1.301 . S
C823 O827 1.282 . S
O824 U806 2.441 . S
O824 C810 1.249 . S
O825 U806 2.420 . S
O825 C810 1.202 . S
O826 U806 2.455 . S
O826 C823 1.301 . S
O827 U806 2.449 . S
O827 C823 1.282 . S
H828 C801 0.931 . S
H829 C803 0.929 . S
H830 C804 0.930 . S
H831 C805 0.931 . S
H832 C812 0.932 . S
H833 C813 0.930 . S
H834 C814 0.929 . S
H835 C816 0.930 . S
H836 C818 0.932 . S
H837 C819 0.929 . S
H838 C820 0.928 . S
H839 C822 0.932 . S
C840 C841 1.264 . S
C840 C845 1.479 . S
C840 C850 1.465 . S
C841 C840 1.264 . S
C841 C843 1.339 . S
C841 H868 0.931 . S
C842 C843 1.395 . S
C842 C844 1.320 . S
C843 C841 1.339 . S
C843 C842 1.395 . S
C843 H869 0.903 1_455 S
C844 C842 1.320 . S
C844 C845 1.405 . S
C844 H870 0.930 . S
C845 C840 1.479 . S
C845 C844 1.405 . S
C845 H871 0.931 . S
U846 O847 2.454 . S
U846 O848 2.458 . S
U846 C849 2.984 . S
U846 C850 2.847 . S
U846 C863 2.882 . S
U846 O864 2.441 . S
U846 O865 2.420 . S
U846 O866 2.455 . S
U846 O867 2.449 . S
O847 U846 2.454 . S
O847 C849 1.353 . S
O848 U846 2.458 . S
O848 C849 1.286 . S
C849 U846 2.984 . S
C849 O847 1.353 . S
C849 O848 1.286 . S
C849 C851 1.363 . S
C850 C840 1.465 . S
C850 U846 2.847 . S
C850 O864 1.249 . S
C850 O865 1.202 . S
C851 C849 1.363 . S
C851 C853 1.408 . S
C851 C856 1.342 . S
C852 C853 1.310 . S
C852 C855 1.461 1_554 S
C852 H872 0.932 . S
C853 C851 1.408 . S
C853 C852 1.310 . S
C853 H873 0.930 . S
C854 C855 1.474 1_554 S
C854 C856 1.285 . S
C854 H874 0.929 1_554 S
C855 C852 1.461 1_556 S
C855 C854 1.474 1_556 S
C856 C851 1.342 . S
C856 C854 1.285 . S
C856 H875 0.930 . S
C857 C860 1.424 . S
C857 C862 1.245 . S
C857 C863 1.428 . S
C858 C861 1.260 . S
C858 C862 1.477 . S
C858 H876 0.932 . S
C859 C860 1.384 . S
C859 C861 1.479 . S
C859 H877 0.929 . S
C860 C857 1.424 . S
C860 C859 1.384 . S
C860 H878 0.928 . S
C861 C858 1.260 . S
C861 C859 1.479 . S
C862 C857 1.245 . S
C862 C858 1.477 . S
C862 H879 0.932 . S
C863 U846 2.882 . S
C863 C857 1.428 . S
C863 O866 1.301 . S
C863 O867 1.282 . S
O864 U846 2.441 . S
O864 C850 1.249 . S
O865 U846 2.420 . S
O865 C850 1.202 . S
O866 U846 2.455 . S
O866 C863 1.301 . S
O867 U846 2.449 . S
O867 C863 1.282 . S
H868 C841 0.931 . S
H869 C843 0.903 1_655 S
H870 C844 0.930 . S
H871 C845 0.931 . S
H872 C852 0.932 . S
H873 C853 0.930 . S
H874 C854 0.929 1_556 S
H875 C856 0.930 . S
H876 C858 0.932 . S
H877 C859 0.929 . S
H878 C860 0.928 . S
H879 C862 0.932 . S
C880 C881 1.264 . S
C880 C885 1.479 . S
C880 C890 1.465 . S
C881 C880 1.264 . S
C881 C883 1.339 . S
C881 H908 0.931 . S
C882 C883 1.395 . S
C882 C884 1.320 . S
C883 C881 1.339 . S
C883 C882 1.395 . S
C883 H909 0.929 . S
C884 C882 1.320 . S
C884 C885 1.405 . S
C884 H910 0.930 . S
C885 C880 1.479 . S
C885 C884 1.405 . S
C885 H911 0.931 . S
U886 O887 2.454 . S
U886 O888 2.458 . S
U886 C889 2.984 . S
U886 C890 2.847 . S
U886 C903 2.882 . S
U886 O904 2.441 . S
U886 O905 2.420 . S
U886 O906 2.455 . S
U886 O907 2.449 . S
O887 U886 2.454 . S
O887 C889 1.353 . S
O888 U886 2.458 . S
O888 C889 1.286 . S
C889 U886 2.984 . S
C889 O887 1.353 . S
C889 O888 1.286 . S
C889 C891 1.363 . S
C890 C880 1.465 . S
C890 U886 2.847 . S
C890 O904 1.249 . S
C890 O905 1.202 . S
C891 C889 1.363 . S
C891 C893 1.408 . S
C891 C896 1.342 . S
C892 C893 1.310 . S
C892 C895 1.461 . S
C892 H912 0.932 . S
C893 C891 1.408 . S
C893 C892 1.310 . S
C893 H913 0.930 . S
C894 C895 1.474 . S
C894 C896 1.285 . S
C894 H914 0.929 . S
C895 C892 1.461 . S
C895 C894 1.474 . S
C896 C891 1.342 . S
C896 C894 1.285 . S
C896 H915 0.930 . S
C897 C900 1.424 . S
C897 C902 1.245 . S
C897 C903 1.428 . S
C898 C901 1.260 . S
C898 C902 1.477 . S
C898 H916 0.932 . S
C899 C900 1.384 . S
C899 C901 1.479 . S
C899 H917 0.929 . S
C900 C897 1.424 . S
C900 C899 1.384 . S
C900 H918 0.928 . S
C901 C898 1.260 . S
C901 C899 1.479 . S
C902 C897 1.245 . S
C902 C898 1.477 . S
C902 H919 0.932 . S
C903 U886 2.882 . S
C903 C897 1.428 . S
C903 O906 1.301 . S
C903 O907 1.282 . S
O904 U886 2.441 . S
O904 C890 1.249 . S
O905 U886 2.420 . S
O905 C890 1.202 . S
O906 U886 2.455 . S
O906 C903 1.301 . S
O907 U886 2.449 . S
O907 C903 1.282 . S
H908 C881 0.931 . S
H909 C883 0.929 . S
H910 C884 0.930 . S
H911 C885 0.931 . S
H912 C892 0.932 . S
H913 C893 0.930 . S
H914 C894 0.929 . S
H915 C896 0.930 . S
H916 C898 0.932 . S
H917 C899 0.929 . S
H918 C900 0.928 . S
H919 C902 0.932 . S
C920 C921 1.264 . S
C920 C925 1.479 . S
C920 C930 1.465 . S
C921 C920 1.264 . S
C921 C923 1.339 . S
C921 H948 0.931 . S
C922 C923 1.395 . S
C922 C924 1.320 . S
C923 C921 1.339 . S
C923 C922 1.395 . S
C923 H949 0.929 . S
C924 C922 1.320 . S
C924 C925 1.405 . S
C924 H950 0.930 . S
C925 C920 1.479 . S
C925 C924 1.405 . S
C925 H951 0.931 . S
U926 O927 2.454 . S
U926 O928 2.458 . S
U926 C929 2.984 . S
U926 C930 2.847 . S
U926 C943 2.882 . S
U926 O944 2.441 . S
U926 O945 2.420 . S
U926 O946 2.455 . S
U926 O947 2.449 . S
O927 U926 2.454 . S
O927 C929 1.353 . S
O928 U926 2.458 . S
O928 C929 1.286 . S
C929 U926 2.984 . S
C929 O927 1.353 . S
C929 O928 1.286 . S
C929 C931 1.363 . S
C930 C920 1.465 . S
C930 U926 2.847 . S
C930 O944 1.249 . S
C930 O945 1.202 . S
C931 C929 1.363 . S
C931 C933 1.408 . S
C931 C936 1.342 . S
C932 C933 1.310 . S
C932 C935 1.461 . S
C932 H952 0.932 . S
C933 C931 1.408 . S
C933 C932 1.310 . S
C933 H953 0.930 . S
C934 C935 1.474 . S
C934 C936 1.285 . S
C934 H954 0.929 . S
C935 C932 1.461 . S
C935 C934 1.474 . S
C936 C931 1.342 . S
C936 C934 1.285 . S
C936 H955 0.930 . S
C937 C940 1.424 . S
C937 C942 1.245 . S
C937 C943 1.428 . S
C938 C941 1.260 . S
C938 C942 1.477 . S
C938 H956 0.932 . S
C939 C940 1.384 . S
C939 C941 1.479 . S
C939 H957 0.929 . S
C940 C937 1.424 . S
C940 C939 1.384 . S
C940 H958 0.928 . S
C941 C938 1.260 . S
C941 C939 1.479 . S
C942 C937 1.245 . S
C942 C938 1.477 . S
C942 H959 0.932 . S
C943 U926 2.882 . S
C943 C937 1.428 . S
C943 O946 1.301 . S
C943 O947 1.282 . S
O944 U926 2.441 . S
O944 C930 1.249 . S
O945 U926 2.420 . S
O945 C930 1.202 . S
O946 U926 2.455 . S
O946 C943 1.301 . S
O947 U926 2.449 . S
O947 C943 1.282 . S
H948 C921 0.931 . S
H949 C923 0.929 . S
H950 C924 0.930 . S
H951 C925 0.931 . S
H952 C932 0.932 . S
H953 C933 0.930 . S
H954 C934 0.929 . S
H955 C936 0.930 . S
H956 C938 0.932 . S
H957 C939 0.929 . S
H958 C940 0.928 . S
H959 C942 0.932 . S
C960 C961 1.384 1_455 S
C960 H973 0.947 . S
C960 C995 1.382 1_455 S
C961 C960 1.384 1_655 S
C961 C962 1.378 . S
C962 C961 1.378 . S
C962 C963 1.378 . S
C962 H974 0.952 . S
C963 C962 1.378 . S
C963 H975 0.950 . S
C963 C994 1.383 . S
H964 C983 0.947 . S
H965 C984 0.955 . S
H966 C986 0.953 . S
H967 C987 0.945 . S
H968 C989 0.946 1_455 S
H969 C990 0.957 . S
H970 C992 0.950 . S
H971 C993 0.948 . S
H972 C995 0.951 1_455 S
H973 C960 0.947 . S
H974 C962 0.952 . S
H975 C963 0.950 . S
N976 C979 1.380 . S
N976 C981 1.363 . S
N977 C979 1.372 1_554 S
N977 C980 1.372 . S
N978 C980 1.361 . S
N978 C981 1.377 1_554 S
C979 N976 1.380 . S
C979 N977 1.372 1_556 S
C979 C982 1.479 1_556 S
C980 N977 1.372 . S
C980 N978 1.361 . S
C980 C988 1.457 . S
C981 N976 1.363 . S
C981 N978 1.377 1_556 S
C981 C994 1.479 . S
C982 C979 1.479 1_554 S
C982 C983 1.380 1_554 S
C982 C987 1.389 . S
C983 H964 0.947 . S
C983 C982 1.380 1_556 S
C983 C984 1.382 1_655 S
C984 H965 0.955 . S
C984 C983 1.382 1_455 S
C984 C985 1.408 1_455 S
C985 C984 1.408 1_655 S
C985 C986 1.359 1_556 S
C986 H966 0.953 . S
C986 C985 1.359 1_554 S
C986 C987 1.369 . S
C987 H967 0.945 . S
C987 C982 1.389 . S
C987 C986 1.369 . S
C988 C980 1.457 . S
C988 C989 1.377 . S
C988 C993 1.364 . S
C989 H968 0.946 1_655 S
C989 C988 1.377 . S
C989 C990 1.395 1_655 S
C990 H969 0.957 . S
C990 C989 1.395 1_455 S
C990 C991 1.377 1_455 S
C991 C990 1.377 1_655 S
C991 C992 1.372 . S
C992 H970 0.950 . S
C992 C991 1.372 . S
C992 C993 1.379 . S
C993 H971 0.948 . S
C993 C988 1.364 . S
C993 C992 1.379 . S
C994 C963 1.383 . S
C994 C981 1.479 . S
C994 C995 1.398 . S
C995 C960 1.382 1_655 S
C995 H972 0.951 1_655 S
C995 C994 1.398 . S
C996 C997 1.384 . S
C996 H1009 0.947 . S
C996 C1031 1.382 . S
C997 C996 1.384 . S
C997 C998 1.378 . S
C998 C997 1.378 . S
C998 C999 1.378 . S
C998 H1010 0.952 . S
C999 C998 1.378 . S
C999 H1011 0.950 . S
C999 C1030 1.383 . S
H1000 C1019 0.947 . S
H1001 C1020 0.946 . S
H1002 C1022 0.953 . S
H1003 C1023 0.945 . S
H1004 C1025 0.952 . S
H1005 C1026 0.949 . S
H1006 C1028 0.950 . S
H1007 C1029 0.948 . S
H1008 C1031 0.951 . S
H1009 C996 0.947 . S
H1010 C998 0.952 . S
H1011 C999 0.950 . S
N1012 C1015 1.382 . S
N1012 C1017 1.363 . S
N1013 C1015 1.371 . S
N1013 C1016 1.372 . S
N1014 C1016 1.361 . S
N1014 C1017 1.377 . S
C1015 N1012 1.382 . S
C1015 N1013 1.371 . S
C1015 C1018 1.480 . S
C1016 N1013 1.372 . S
C1016 N1014 1.361 . S
C1016 C1024 1.457 . S
C1017 N1012 1.363 . S
C1017 N1014 1.377 . S
C1017 C1030 1.479 . S
C1018 C1015 1.480 . S
C1018 C1019 1.383 . S
C1018 C1023 1.385 . S
C1019 H1000 0.947 . S
C1019 C1018 1.383 . S
C1019 C1020 1.388 . S
C1020 H1001 0.946 . S
C1020 C1019 1.388 . S
C1020 C1021 1.384 . S
C1021 C1020 1.384 . S
C1021 C1022 1.377 . S
C1022 H1002 0.953 . S
C1022 C1021 1.377 . S
C1022 C1023 1.369 . S
C1023 H1003 0.945 . S
C1023 C1018 1.385 . S
C1023 C1022 1.369 . S
C1024 C1016 1.457 . S
C1024 C1025 1.372 . S
C1024 C1029 1.364 . S
C1025 H1004 0.952 . S
C1025 C1024 1.372 . S
C1025 C1026 1.389 . S
C1026 H1005 0.949 . S
C1026 C1025 1.389 . S
C1026 C1027 1.387 . S
C1027 C1026 1.387 . S
C1027 C1028 1.372 . S
C1028 H1006 0.950 . S
C1028 C1027 1.372 . S
C1028 C1029 1.379 . S
C1029 H1007 0.948 . S
C1029 C1024 1.364 . S
C1029 C1028 1.379 . S
C1030 C999 1.383 . S
C1030 C1017 1.479 . S
C1030 C1031 1.398 . S
C1031 C996 1.382 . S
C1031 H1008 0.951 . S
C1031 C1030 1.398 . S
C1032 C1033 1.384 . S
C1032 H1045 0.947 . S
C1032 C1067 1.382 . S
C1033 C1032 1.384 . S
C1033 C1034 1.378 . S
C1034 C1033 1.378 . S
C1034 C1035 1.378 . S
C1034 H1046 0.952 . S
C1035 C1034 1.378 . S
C1035 H1047 0.950 . S
C1035 C1066 1.383 . S
H1036 C1055 0.947 . S
H1037 C1056 0.946 . S
H1038 C1058 0.953 . S
H1039 C1059 0.945 . S
H1040 C1061 0.952 . S
H1041 C1062 0.949 . S
H1042 C1064 0.950 . S
H1043 C1065 0.948 . S
H1044 C1067 0.951 . S
H1045 C1032 0.947 . S
H1046 C1034 0.952 . S
H1047 C1035 0.950 . S
N1048 C1051 1.403 . S
N1048 C1053 1.342 1_545 S
N1049 C1051 1.371 . S
N1049 C1052 1.372 . S
N1050 C1052 1.361 1_565 S
N1050 C1053 1.377 . S
C1051 N1048 1.403 . S
C1051 N1049 1.371 . S
C1051 C1054 1.480 . S
C1052 N1049 1.372 . S
C1052 N1050 1.361 1_545 S
C1052 C1060 1.457 . S
C1053 N1048 1.342 1_565 S
C1053 N1050 1.377 . S
C1053 C1066 1.479 . S
C1054 C1051 1.480 . S
C1054 C1055 1.383 . S
C1054 C1059 1.385 . S
C1055 H1036 0.947 . S
C1055 C1054 1.383 . S
C1055 C1056 1.388 . S
C1056 H1037 0.946 . S
C1056 C1055 1.388 . S
C1056 C1057 1.384 . S
C1057 C1056 1.384 . S
C1057 C1058 1.377 . S
C1058 H1038 0.953 . S
C1058 C1057 1.377 . S
C1058 C1059 1.369 . S
C1059 H1039 0.945 . S
C1059 C1054 1.385 . S
C1059 C1058 1.369 . S
C1060 C1052 1.457 . S
C1060 C1061 1.372 . S
C1060 C1065 1.364 1_545 S
C1061 H1040 0.952 . S
C1061 C1060 1.372 . S
C1061 C1062 1.389 . S
C1062 H1041 0.949 . S
C1062 C1061 1.389 . S
C1062 C1063 1.387 . S
C1063 C1062 1.387 . S
C1063 C1064 1.372 1_545 S
C1064 H1042 0.950 . S
C1064 C1063 1.372 1_565 S
C1064 C1065 1.379 . S
C1065 H1043 0.948 . S
C1065 C1060 1.364 1_565 S
C1065 C1064 1.379 . S
C1066 C1035 1.383 . S
C1066 C1053 1.479 . S
C1066 C1067 1.398 . S
C1067 C1032 1.382 . S
C1067 H1044 0.951 . S
C1067 C1066 1.398 . S
C1068 C1069 1.384 . S
C1068 H1081 0.947 . S
C1068 C1103 1.382 . S
C1069 C1068 1.384 . S
C1069 C1070 1.378 1_554 S
C1070 C1069 1.378 1_556 S
C1070 C1071 1.378 1_556 S
C1070 H1082 0.952 . S
C1071 C1070 1.378 1_554 S
C1071 H1083 0.950 . S
C1071 C1102 1.383 . S
H1072 C1091 0.947 . S
H1073 C1092 0.946 . S
H1074 C1094 0.953 . S
H1075 C1095 0.945 . S
H1076 C1097 0.952 . S
H1077 C1098 0.949 . S
H1078 C1100 0.950 . S
H1079 C1101 0.948 . S
H1080 C1103 0.951 . S
H1081 C1068 0.947 . S
H1082 C1070 0.952 . S
H1083 C1071 0.950 . S
N1084 C1087 1.382 1_565 S
N1084 C1089 1.363 . S
N1085 C1087 1.371 . S
N1085 C1088 1.372 . S
N1086 C1088 1.361 1_565 S
N1086 C1089 1.377 . S
C1087 N1084 1.382 1_545 S
C1087 N1085 1.371 . S
C1087 C1090 1.480 . S
C1088 N1085 1.372 . S
C1088 N1086 1.361 1_545 S
C1088 C1096 1.457 . S
C1089 N1084 1.363 . S
C1089 N1086 1.377 . S
C1089 C1102 1.479 . S
C1090 C1087 1.480 . S
C1090 C1091 1.383 . S
C1090 C1095 1.385 . S
C1091 H1072 0.947 . S
C1091 C1090 1.383 . S
C1091 C1092 1.388 . S
C1092 H1073 0.946 . S
C1092 C1091 1.388 . S
C1092 C1093 1.384 . S
C1093 C1092 1.384 . S
C1093 C1094 1.377 . S
C1094 H1074 0.953 . S
C1094 C1093 1.377 . S
C1094 C1095 1.369 . S
C1095 H1075 0.945 . S
C1095 C1090 1.385 . S
C1095 C1094 1.369 . S
C1096 C1088 1.457 . S
C1096 C1097 1.372 . S
C1096 C1101 1.364 1_545 S
C1097 H1076 0.952 . S
C1097 C1096 1.372 . S
C1097 C1098 1.389 . S
C1098 H1077 0.949 . S
C1098 C1097 1.389 . S
C1098 C1099 1.387 . S
C1099 C1098 1.387 . S
C1099 C1100 1.372 1_545 S
C1100 H1078 0.950 . S
C1100 C1099 1.372 1_565 S
C1100 C1101 1.379 . S
C1101 H1079 0.948 . S
C1101 C1096 1.364 1_565 S
C1101 C1100 1.379 . S
C1102 C1071 1.383 . S
C1102 C1089 1.479 . S
C1102 C1103 1.398 . S
C1103 C1068 1.382 . S
C1103 H1080 0.951 . S
C1103 C1102 1.398 . S
C1104 C1105 1.384 . S
C1104 H1117 0.947 . S
C1104 C1139 1.382 . S
C1105 C1104 1.384 . S
C1105 C1106 1.378 . S
C1106 C1105 1.378 . S
C1106 C1107 1.378 . S
C1106 H1118 0.952 . S
C1107 C1106 1.378 . S
C1107 H1119 0.950 . S
C1107 C1138 1.383 . S
H1108 C1127 0.947 . S
H1109 C1128 0.946 . S
H1110 C1130 0.953 . S
H1111 C1131 0.945 . S
H1112 C1133 0.952 . S
H1113 C1134 0.949 . S
H1114 C1136 0.950 . S
H1115 C1137 0.948 . S
H1116 C1139 0.951 . S
H1117 C1104 0.947 . S
H1118 C1106 0.952 . S
H1119 C1107 0.950 . S
N1120 C1123 1.382 . S
N1120 C1125 1.363 . S
N1121 C1123 1.371 . S
N1121 C1124 1.372 . S
N1122 C1124 1.361 . S
N1122 C1125 1.377 . S
C1123 N1120 1.382 . S
C1123 N1121 1.371 . S
C1123 C1126 1.480 . S
C1124 N1121 1.372 . S
C1124 N1122 1.361 . S
C1124 C1132 1.457 . S
C1125 N1120 1.363 . S
C1125 N1122 1.377 . S
C1125 C1138 1.479 . S
C1126 C1123 1.480 . S
C1126 C1127 1.383 . S
C1126 C1131 1.385 . S
C1127 H1108 0.947 . S
C1127 C1126 1.383 . S
C1127 C1128 1.388 . S
C1128 H1109 0.946 . S
C1128 C1127 1.388 . S
C1128 C1129 1.384 . S
C1129 C1128 1.384 . S
C1129 C1130 1.377 . S
C1130 H1110 0.953 . S
C1130 C1129 1.377 . S
C1130 C1131 1.369 . S
C1131 H1111 0.945 . S
C1131 C1126 1.385 . S
C1131 C1130 1.369 . S
C1132 C1124 1.457 . S
C1132 C1133 1.372 . S
C1132 C1137 1.364 . S
C1133 H1112 0.952 . S
C1133 C1132 1.372 . S
C1133 C1134 1.389 1_455 S
C1134 H1113 0.949 . S
C1134 C1133 1.389 1_655 S
C1134 C1135 1.387 1_655 S
C1135 C1134 1.387 1_455 S
C1135 C1136 1.372 . S
C1136 H1114 0.950 . S
C1136 C1135 1.372 . S
C1136 C1137 1.379 . S
C1137 H1115 0.948 . S
C1137 C1132 1.364 . S
C1137 C1136 1.379 . S
C1138 C1107 1.383 . S
C1138 C1125 1.479 . S
C1138 C1139 1.398 . S
C1139 C1104 1.382 . S
C1139 H1116 0.951 . S
C1139 C1138 1.398 . S
C1140 C1141 1.384 . S
C1140 H1153 0.947 . S
C1140 C1175 1.382 . S
C1141 C1140 1.384 . S
C1141 C1142 1.378 . S
C1142 C1141 1.378 . S
C1142 C1143 1.378 . S
C1142 H1154 0.952 . S
C1143 C1142 1.378 . S
C1143 H1155 0.950 . S
C1143 C1174 1.383 . S
H1144 C1163 0.947 . S
H1145 C1164 0.946 . S
H1146 C1166 0.953 . S
H1147 C1167 0.945 . S
H1148 C1169 0.952 . S
H1149 C1170 0.949 . S
H1150 C1172 0.950 . S
H1151 C1173 0.948 . S
H1152 C1175 0.951 . S
H1153 C1140 0.947 . S
H1154 C1142 0.952 . S
H1155 C1143 0.950 . S
N1156 C1159 1.382 . S
N1156 C1161 1.363 . S
N1157 C1159 1.371 . S
N1157 C1160 1.372 . S
N1158 C1160 1.361 . S
N1158 C1161 1.377 . S
C1159 N1156 1.382 . S
C1159 N1157 1.371 . S
C1159 C1162 1.480 . S
C1160 N1157 1.372 . S
C1160 N1158 1.361 . S
C1160 C1168 1.457 . S
C1161 N1156 1.363 . S
C1161 N1158 1.377 . S
C1161 C1174 1.479 . S
C1162 C1159 1.480 . S
C1162 C1163 1.383 . S
C1162 C1167 1.385 . S
C1163 H1144 0.947 . S
C1163 C1162 1.383 . S
C1163 C1164 1.388 . S
C1164 H1145 0.946 . S
C1164 C1163 1.388 . S
C1164 C1165 1.384 . S
C1165 C1164 1.384 . S
C1165 C1166 1.377 . S
C1166 H1146 0.953 . S
C1166 C1165 1.377 . S
C1166 C1167 1.369 . S
C1167 H1147 0.945 . S
C1167 C1162 1.385 . S
C1167 C1166 1.369 . S
C1168 C1160 1.457 . S
C1168 C1169 1.372 . S
C1168 C1173 1.364 . S
C1169 H1148 0.952 . S
C1169 C1168 1.372 . S
C1169 C1170 1.389 . S
C1170 H1149 0.949 . S
C1170 C1169 1.389 . S
C1170 C1171 1.387 . S
C1171 C1170 1.387 . S
C1171 C1172 1.372 . S
C1172 H1150 0.950 . S
C1172 C1171 1.372 . S
C1172 C1173 1.379 . S
C1173 H1151 0.948 . S
C1173 C1168 1.364 . S
C1173 C1172 1.379 . S
C1174 C1143 1.383 . S
C1174 C1161 1.479 . S
C1174 C1175 1.398 . S
C1175 C1140 1.382 . S
C1175 H1152 0.951 . S
C1175 C1174 1.398 . S
C1176 C1177 1.384 . S
C1176 H1189 0.947 . S
C1176 C1211 1.382 . S
C1177 C1176 1.384 . S
C1177 C1178 1.378 . S
C1178 C1177 1.378 . S
C1178 C1179 1.378 . S
C1178 H1190 0.952 . S
C1179 C1178 1.378 . S
C1179 H1191 0.950 . S
C1179 C1210 1.383 . S
H1180 C1199 0.947 . S
H1181 C1200 0.946 . S
H1182 C1202 0.953 . S
H1183 C1203 0.945 . S
H1184 C1205 0.952 . S
H1185 C1206 0.949 . S
H1186 C1208 0.950 . S
H1187 C1209 0.948 . S
H1188 C1211 0.951 . S
H1189 C1176 0.947 . S
H1190 C1178 0.952 . S
H1191 C1179 0.950 . S
N1192 C1195 1.369 1_655 S
N1192 C1197 1.363 . S
N1193 C1195 1.371 . S
N1193 C1196 1.372 . S
N1194 C1196 1.361 . S
N1194 C1197 1.373 1_455 S
C1195 N1192 1.369 1_455 S
C1195 N1193 1.371 . S
C1195 C1198 1.480 . S
C1196 N1193 1.372 . S
C1196 N1194 1.361 . S
C1196 C1204 1.457 . S
C1197 N1192 1.363 . S
C1197 N1194 1.373 1_655 S
C1197 C1210 1.485 . S
C1198 C1195 1.480 . S
C1198 C1199 1.383 1_455 S
C1198 C1203 1.385 . S
C1199 H1180 0.947 . S
C1199 C1198 1.383 1_655 S
C1199 C1200 1.388 . S
C1200 H1181 0.946 . S
C1200 C1199 1.388 . S
C1200 C1201 1.384 1_655 S
C1201 C1200 1.384 1_455 S
C1201 C1202 1.377 . S
C1202 H1182 0.953 . S
C1202 C1201 1.377 . S
C1202 C1203 1.369 . S
C1203 H1183 0.945 . S
C1203 C1198 1.385 . S
C1203 C1202 1.369 . S
C1204 C1196 1.457 . S
C1204 C1205 1.372 . S
C1204 C1209 1.364 . S
C1205 H1184 0.952 . S
C1205 C1204 1.372 . S
C1205 C1206 1.389 . S
C1206 H1185 0.949 . S
C1206 C1205 1.389 . S
C1206 C1207 1.387 . S
C1207 C1206 1.387 . S
C1207 C1208 1.372 . S
C1208 H1186 0.950 . S
C1208 C1207 1.372 . S
C1208 C1209 1.379 . S
C1209 H1187 0.948 . S
C1209 C1204 1.364 . S
C1209 C1208 1.379 . S
C1210 C1179 1.383 . S
C1210 C1197 1.485 . S
C1210 C1211 1.398 . S
C1211 C1176 1.382 . S
C1211 H1188 0.951 . S
C1211 C1210 1.398 . S
C1212 C1213 1.384 . S
C1212 H1225 0.947 . S
C1212 C1247 1.382 . S
C1213 C1212 1.384 . S
C1213 C1214 1.378 . S
C1214 C1213 1.378 . S
C1214 C1215 1.378 . S
C1214 H1226 0.952 . S
C1215 C1214 1.378 . S
C1215 H1227 0.950 . S
C1215 C1246 1.383 . S
H1216 C1235 0.947 . S
H1217 C1236 0.946 . S
H1218 C1238 0.953 . S
H1219 C1239 0.945 . S
H1220 C1241 0.952 . S
H1221 C1242 0.954 . S
H1222 C1244 0.950 . S
H1223 C1245 0.948 . S
H1224 C1247 0.951 . S
H1225 C1212 0.947 . S
H1226 C1214 0.952 . S
H1227 C1215 0.950 . S
N1228 C1231 1.382 . S
N1228 C1233 1.363 1_554 S
N1229 C1231 1.371 . S
N1229 C1232 1.372 1_554 S
N1230 C1232 1.361 . S
N1230 C1233 1.377 . S
C1231 N1228 1.382 . S
C1231 N1229 1.371 . S
C1231 C1234 1.480 . S
C1232 N1229 1.372 1_556 S
C1232 N1230 1.361 . S
C1232 C1240 1.457 . S
C1233 N1228 1.363 1_556 S
C1233 N1230 1.377 . S
C1233 C1246 1.479 . S
C1234 C1231 1.480 . S
C1234 C1235 1.383 . S
C1234 C1239 1.385 . S
C1235 H1216 0.947 . S
C1235 C1234 1.383 . S
C1235 C1236 1.388 . S
C1236 H1217 0.946 . S
C1236 C1235 1.388 . S
C1236 C1237 1.384 . S
C1237 C1236 1.384 . S
C1237 C1238 1.377 . S
C1238 H1218 0.953 . S
C1238 C1237 1.377 . S
C1238 C1239 1.369 . S
C1239 H1219 0.945 . S
C1239 C1234 1.385 . S
C1239 C1238 1.369 . S
C1240 C1232 1.457 . S
C1240 C1241 1.372 1_556 S
C1240 C1245 1.364 . S
C1241 H1220 0.952 . S
C1241 C1240 1.372 1_554 S
C1241 C1242 1.392 . S
C1242 H1221 0.954 . S
C1242 C1241 1.392 . S
C1242 C1243 1.377 1_554 S
C1243 C1242 1.377 1_556 S
C1243 C1244 1.372 . S
C1244 H1222 0.950 . S
C1244 C1243 1.372 . S
C1244 C1245 1.379 . S
C1245 H1223 0.948 . S
C1245 C1240 1.364 . S
C1245 C1244 1.379 . S
C1246 C1215 1.383 . S
C1246 C1233 1.479 . S
C1246 C1247 1.398 . S
C1247 C1212 1.382 . S
C1247 H1224 0.951 . S
C1247 C1246 1.398 . S
C1248 C1249 1.384 . S
C1248 H1261 0.947 . S
C1248 C1283 1.382 . S
C1249 C1248 1.384 . S
C1249 C1250 1.378 . S
C1250 C1249 1.378 . S
C1250 C1251 1.378 . S
C1250 H1262 0.952 . S
C1251 C1250 1.378 . S
C1251 H1263 0.950 . S
C1251 C1282 1.383 . S
H1252 C1271 0.947 . S
H1253 C1272 0.946 . S
H1254 C1274 0.953 . S
H1255 C1275 0.945 . S
H1256 C1277 0.952 . S
H1257 C1278 0.949 . S
H1258 C1280 0.950 . S
H1259 C1281 0.948 . S
H1260 C1283 0.951 . S
H1261 C1248 0.947 . S
H1262 C1250 0.952 . S
H1263 C1251 0.950 . S
N1264 C1267 1.382 . S
N1264 C1269 1.363 . S
N1265 C1267 1.371 . S
N1265 C1268 1.372 . S
N1266 C1268 1.361 . S
N1266 C1269 1.377 . S
C1267 N1264 1.382 . S
C1267 N1265 1.371 . S
C1267 C1270 1.480 . S
C1268 N1265 1.372 . S
C1268 N1266 1.361 . S
C1268 C1276 1.457 . S
C1269 N1264 1.363 . S
C1269 N1266 1.377 . S
C1269 C1282 1.479 . S
C1270 C1267 1.480 . S
C1270 C1271 1.383 . S
C1270 C1275 1.385 . S
C1271 H1252 0.947 . S
C1271 C1270 1.383 . S
C1271 C1272 1.388 . S
C1272 H1253 0.946 . S
C1272 C1271 1.388 . S
C1272 C1273 1.384 . S
C1273 C1272 1.384 . S
C1273 C1274 1.377 . S
C1274 H1254 0.953 . S
C1274 C1273 1.377 . S
C1274 C1275 1.369 . S
C1275 H1255 0.945 . S
C1275 C1270 1.385 . S
C1275 C1274 1.369 . S
C1276 C1268 1.457 . S
C1276 C1277 1.372 . S
C1276 C1281 1.364 . S
C1277 H1256 0.952 . S
C1277 C1276 1.372 . S
C1277 C1278 1.389 . S
C1278 H1257 0.949 . S
C1278 C1277 1.389 . S
C1278 C1279 1.387 . S
C1279 C1278 1.387 . S
C1279 C1280 1.372 . S
C1280 H1258 0.950 . S
C1280 C1279 1.372 . S
C1280 C1281 1.379 . S
C1281 H1259 0.948 . S
C1281 C1276 1.364 . S
C1281 C1280 1.379 . S
C1282 C1251 1.383 . S
C1282 C1269 1.479 . S
C1282 C1283 1.398 . S
C1283 C1248 1.382 . S
C1283 H1260 0.951 . S
C1283 C1282 1.398 . S
C1284 C1285 1.384 . S
C1284 H1297 0.947 . S
C1284 C1319 1.382 . S
C1285 C1284 1.384 . S
C1285 C1286 1.378 . S
C1286 C1285 1.378 . S
C1286 C1287 1.378 . S
C1286 H1298 0.952 . S
C1287 C1286 1.378 . S
C1287 H1299 0.950 . S
C1287 C1318 1.383 . S
H1288 C1307 0.947 . S
H1289 C1308 0.946 . S
H1290 C1310 0.953 . S
H1291 C1311 0.945 . S
H1292 C1313 0.952 . S
H1293 C1314 0.949 . S
H1294 C1316 0.950 . S
H1295 C1317 0.948 . S
H1296 C1319 0.951 . S
H1297 C1284 0.947 . S
H1298 C1286 0.952 . S
H1299 C1287 0.950 . S
N1300 C1303 1.382 . S
N1300 C1305 1.363 . S
N1301 C1303 1.371 . S
N1301 C1304 1.372 . S
N1302 C1304 1.361 . S
N1302 C1305 1.377 . S
C1303 N1300 1.382 . S
C1303 N1301 1.371 . S
C1303 C1306 1.480 . S
C1304 N1301 1.372 . S
C1304 N1302 1.361 . S
C1304 C1312 1.457 . S
C1305 N1300 1.363 . S
C1305 N1302 1.377 . S
C1305 C1318 1.479 . S
C1306 C1303 1.480 . S
C1306 C1307 1.383 . S
C1306 C1311 1.385 . S
C1307 H1288 0.947 . S
C1307 C1306 1.383 . S
C1307 C1308 1.388 . S
C1308 H1289 0.946 . S
C1308 C1307 1.388 . S
C1308 C1309 1.384 . S
C1309 C1308 1.384 . S
C1309 C1310 1.377 . S
C1310 H1290 0.953 . S
C1310 C1309 1.377 . S
C1310 C1311 1.369 . S
C1311 H1291 0.945 . S
C1311 C1306 1.385 . S
C1311 C1310 1.369 . S
C1312 C1304 1.457 . S
C1312 C1313 1.372 . S
C1312 C1317 1.364 . S
C1313 H1292 0.952 . S
C1313 C1312 1.372 . S
C1313 C1314 1.389 . S
C1314 H1293 0.949 . S
C1314 C1313 1.389 . S
C1314 C1315 1.387 . S
C1315 C1314 1.387 . S
C1315 C1316 1.372 . S
C1316 H1294 0.950 . S
C1316 C1315 1.372 . S
C1316 C1317 1.379 . S
C1317 H1295 0.948 . S
C1317 C1312 1.364 . S
C1317 C1316 1.379 . S
C1318 C1287 1.383 . S
C1318 C1305 1.479 . S
C1318 C1319 1.398 . S
C1319 C1284 1.382 . S
C1319 H1296 0.951 . S
C1319 C1318 1.398 . S
C1320 C1321 1.384 . S
C1320 H1333 0.947 . S
C1320 C1355 1.382 . S
C1321 C1320 1.384 . S
C1321 C1322 1.378 . S
C1322 C1321 1.378 . S
C1322 C1323 1.378 . S
C1322 H1334 0.952 . S
C1323 C1322 1.378 . S
C1323 H1335 0.950 . S
C1323 C1354 1.383 . S
H1324 C1343 0.947 . S
H1325 C1344 0.946 . S
H1326 C1346 0.953 . S
H1327 C1347 0.945 . S
H1328 C1349 0.952 . S
H1329 C1350 0.949 . S
H1330 C1352 0.950 . S
H1331 C1353 0.948 . S
H1332 C1355 0.951 . S
H1333 C1320 0.947 . S
H1334 C1322 0.952 . S
H1335 C1323 0.950 . S
N1336 C1339 1.382 . S
N1336 C1341 1.363 . S
N1337 C1339 1.371 . S
N1337 C1340 1.372 . S
N1338 C1340 1.361 . S
N1338 C1341 1.377 . S
C1339 N1336 1.382 . S
C1339 N1337 1.371 . S
C1339 C1342 1.480 . S
C1340 N1337 1.372 . S
C1340 N1338 1.361 . S
C1340 C1348 1.457 . S
C1341 N1336 1.363 . S
C1341 N1338 1.377 . S
C1341 C1354 1.479 . S
C1342 C1339 1.480 . S
C1342 C1343 1.383 . S
C1342 C1347 1.385 . S
C1343 H1324 0.947 . S
C1343 C1342 1.383 . S
C1343 C1344 1.388 . S
C1344 H1325 0.946 . S
C1344 C1343 1.388 . S
C1344 C1345 1.384 . S
C1345 C1344 1.384 . S
C1345 C1346 1.377 . S
C1346 H1326 0.953 . S
C1346 C1345 1.377 . S
C1346 C1347 1.369 . S
C1347 H1327 0.945 . S
C1347 C1342 1.385 . S
C1347 C1346 1.369 . S
C1348 C1340 1.457 . S
C1348 C1349 1.372 . S
C1348 C1353 1.364 . S
C1349 H1328 0.952 . S
C1349 C1348 1.372 . S
C1349 C1350 1.389 . S
C1350 H1329 0.949 . S
C1350 C1349 1.389 . S
C1350 C1351 1.387 . S
C1351 C1350 1.387 . S
C1351 C1352 1.372 . S
C1352 H1330 0.950 . S
C1352 C1351 1.372 . S
C1352 C1353 1.379 . S
C1353 H1331 0.948 . S
C1353 C1348 1.364 . S
C1353 C1352 1.379 . S
C1354 C1323 1.383 . S
C1354 C1341 1.479 . S
C1354 C1355 1.398 . S
C1355 C1320 1.382 . S
C1355 H1332 0.951 . S
C1355 C1354 1.398 . S
C1356 C1357 1.384 . S
C1356 H1369 0.947 . S
C1356 C1391 1.382 . S
C1357 C1356 1.384 . S
C1357 C1358 1.378 . S
C1358 C1357 1.378 . S
C1358 C1359 1.378 . S
C1358 H1370 0.952 . S
C1359 C1358 1.378 . S
C1359 H1371 0.950 . S
C1359 C1390 1.383 . S
H1360 C1379 0.947 . S
H1361 C1380 0.946 . S
H1362 C1382 0.953 . S
H1363 C1383 0.945 . S
H1364 C1385 0.952 . S
H1365 C1386 0.949 . S
H1366 C1388 0.950 . S
H1367 C1389 0.948 . S
H1368 C1391 0.951 . S
H1369 C1356 0.947 . S
H1370 C1358 0.952 . S
H1371 C1359 0.950 . S
N1372 C1375 1.382 . S
N1372 C1377 1.363 . S
N1373 C1375 1.371 . S
N1373 C1376 1.372 . S
N1374 C1376 1.361 . S
N1374 C1377 1.377 . S
C1375 N1372 1.382 . S
C1375 N1373 1.371 . S
C1375 C1378 1.480 . S
C1376 N1373 1.372 . S
C1376 N1374 1.361 . S
C1376 C1384 1.457 . S
C1377 N1372 1.363 . S
C1377 N1374 1.377 . S
C1377 C1390 1.479 . S
C1378 C1375 1.480 . S
C1378 C1379 1.383 . S
C1378 C1383 1.385 . S
C1379 H1360 0.947 . S
C1379 C1378 1.383 . S
C1379 C1380 1.388 . S
C1380 H1361 0.946 . S
C1380 C1379 1.388 . S
C1380 C1381 1.384 . S
C1381 C1380 1.384 . S
C1381 C1382 1.377 . S
C1382 H1362 0.953 . S
C1382 C1381 1.377 . S
C1382 C1383 1.369 . S
C1383 H1363 0.945 . S
C1383 C1378 1.385 . S
C1383 C1382 1.369 . S
C1384 C1376 1.457 . S
C1384 C1385 1.372 . S
C1384 C1389 1.364 . S
C1385 H1364 0.952 . S
C1385 C1384 1.372 . S
C1385 C1386 1.389 . S
C1386 H1365 0.949 . S
C1386 C1385 1.389 . S
C1386 C1387 1.387 . S
C1387 C1386 1.387 . S
C1387 C1388 1.372 . S
C1388 H1366 0.950 . S
C1388 C1387 1.372 . S
C1388 C1389 1.379 . S
C1389 H1367 0.948 . S
C1389 C1384 1.364 . S
C1389 C1388 1.379 . S
C1390 C1359 1.383 . S
C1390 C1377 1.479 . S
C1390 C1391 1.398 . S
C1391 C1356 1.382 . S
C1391 H1368 0.951 . S
C1391 C1390 1.398 . S
C1392 C1393 1.383 . S
C1392 H1405 0.948 1_655 S
C1392 C1427 1.381 . S
C1393 C1392 1.383 . S
C1393 C1394 1.378 . S
C1394 C1393 1.378 . S
C1394 C1395 1.378 . S
C1394 H1406 0.952 . S
C1395 C1394 1.378 . S
C1395 H1407 0.950 . S
C1395 C1426 1.383 . S
H1396 C1415 0.947 . S
H1397 C1416 0.947 . S
H1398 C1418 0.953 . S
H1399 C1419 0.945 . S
H1400 C1421 0.952 1_455 S
H1401 C1422 0.954 . S
H1402 C1424 0.950 . S
H1403 C1425 0.948 . S
H1404 C1427 0.949 1_455 S
H1405 C1392 0.948 1_455 S
H1406 C1394 0.952 . S
H1407 C1395 0.950 . S
N1408 C1411 1.353 1_554 S
N1408 C1413 1.363 . S
N1409 C1411 1.392 . S
N1409 C1412 1.372 . S
N1410 C1412 1.361 . S
N1410 C1413 1.377 1_556 S
C1411 N1408 1.353 1_556 S
C1411 N1409 1.392 . S
C1411 C1414 1.478 . S
C1412 N1409 1.372 . S
C1412 N1410 1.361 . S
C1412 C1420 1.457 . S
C1413 N1408 1.363 . S
C1413 N1410 1.377 1_554 S
C1413 C1426 1.479 . S
C1414 C1411 1.478 . S
C1414 C1415 1.359 1_556 S
C1414 C1419 1.420 . S
C1415 H1396 0.947 . S
C1415 C1414 1.359 1_554 S
C1415 C1416 1.389 1_655 S
C1416 H1397 0.947 . S
C1416 C1415 1.389 1_455 S
C1416 C1417 1.399 1_455 S
C1417 C1416 1.399 1_655 S
C1417 C1418 1.366 1_554 S
C1418 H1398 0.953 . S
C1418 C1417 1.366 1_556 S
C1418 C1419 1.369 . S
C1419 H1399 0.945 . S
C1419 C1414 1.420 . S
C1419 C1418 1.369 . S
C1420 C1412 1.457 . S
C1420 C1421 1.378 . S
C1420 C1425 1.364 . S
C1421 H1400 0.952 1_655 S
C1421 C1420 1.378 . S
C1421 C1422 1.378 1_655 S
C1422 H1401 0.954 . S
C1422 C1421 1.378 1_455 S
C1422 C1423 1.388 1_455 S
C1423 C1422 1.388 1_655 S
C1423 C1424 1.372 . S
C1424 H1402 0.950 . S
C1424 C1423 1.372 . S
C1424 C1425 1.379 . S
C1425 H1403 0.948 . S
C1425 C1420 1.364 . S
C1425 C1424 1.379 . S
C1426 C1395 1.383 . S
C1426 C1413 1.479 . S
C1426 C1427 1.401 . S
C1427 C1392 1.381 . S
C1427 H1404 0.949 1_655 S
C1427 C1426 1.401 . S
C1428 C1429 1.384 . S
C1428 H1441 0.947 . S
C1428 C1463 1.382 . S
C1429 C1428 1.384 . S
C1429 C1430 1.378 . S
C1430 C1429 1.378 . S
C1430 C1431 1.378 . S
C1430 H1442 0.952 . S
C1431 C1430 1.378 . S
C1431 H1443 0.950 . S
C1431 C1462 1.383 . S
H1432 C1451 0.947 . S
H1433 C1452 0.946 . S
H1434 C1454 0.953 . S
H1435 C1455 0.945 . S
H1436 C1457 0.952 . S
H1437 C1458 0.949 . S
H1438 C1460 0.950 . S
H1439 C1461 0.948 . S
H1440 C1463 0.951 . S
H1441 C1428 0.947 . S
H1442 C1430 0.952 . S
H1443 C1431 0.950 . S
N1444 C1447 1.382 . S
N1444 C1449 1.363 . S
N1445 C1447 1.371 . S
N1445 C1448 1.372 . S
N1446 C1448 1.361 . S
N1446 C1449 1.377 . S
C1447 N1444 1.382 . S
C1447 N1445 1.371 . S
C1447 C1450 1.480 . S
C1448 N1445 1.372 . S
C1448 N1446 1.361 . S
C1448 C1456 1.457 . S
C1449 N1444 1.363 . S
C1449 N1446 1.377 . S
C1449 C1462 1.479 . S
C1450 C1447 1.480 . S
C1450 C1451 1.383 . S
C1450 C1455 1.385 . S
C1451 H1432 0.947 . S
C1451 C1450 1.383 . S
C1451 C1452 1.388 . S
C1452 H1433 0.946 . S
C1452 C1451 1.388 . S
C1452 C1453 1.384 . S
C1453 C1452 1.384 . S
C1453 C1454 1.377 . S
C1454 H1434 0.953 . S
C1454 C1453 1.377 . S
C1454 C1455 1.369 . S
C1455 H1435 0.945 . S
C1455 C1450 1.385 . S
C1455 C1454 1.369 . S
C1456 C1448 1.457 . S
C1456 C1457 1.372 . S
C1456 C1461 1.364 . S
C1457 H1436 0.952 . S
C1457 C1456 1.372 . S
C1457 C1458 1.389 . S
C1458 H1437 0.949 . S
C1458 C1457 1.389 . S
C1458 C1459 1.387 . S
C1459 C1458 1.387 . S
C1459 C1460 1.372 . S
C1460 H1438 0.950 . S
C1460 C1459 1.372 . S
C1460 C1461 1.379 . S
C1461 H1439 0.948 . S
C1461 C1456 1.364 . S
C1461 C1460 1.379 . S
C1462 C1431 1.383 . S
C1462 C1449 1.479 . S
C1462 C1463 1.398 . S
C1463 C1428 1.382 . S
C1463 H1440 0.951 . S
C1463 C1462 1.398 . S
C1464 C1465 1.384 . S
C1464 H1477 0.947 . S
C1464 C1499 1.382 . S
C1465 C1464 1.384 . S
C1465 C1466 1.378 . S
C1466 C1465 1.378 . S
C1466 C1467 1.378 . S
C1466 H1478 0.952 . S
C1467 C1466 1.378 . S
C1467 H1479 0.950 . S
C1467 C1498 1.383 . S
H1468 C1487 0.947 . S
H1469 C1488 0.946 . S
H1470 C1490 0.953 . S
H1471 C1491 0.945 . S
H1472 C1493 0.952 . S
H1473 C1494 0.949 . S
H1474 C1496 0.950 . S
H1475 C1497 0.948 . S
H1476 C1499 0.951 . S
H1477 C1464 0.947 . S
H1478 C1466 0.952 . S
H1479 C1467 0.950 . S
N1480 C1483 1.382 1_545 S
N1480 C1485 1.363 . S
N1481 C1483 1.371 . S
N1481 C1484 1.368 . S
N1482 C1484 1.364 1_545 S
N1482 C1485 1.377 . S
C1483 N1480 1.382 1_565 S
C1483 N1481 1.371 . S
C1483 C1486 1.480 . S
C1484 N1481 1.368 . S
C1484 N1482 1.364 1_565 S
C1484 C1492 1.459 . S
C1485 N1480 1.363 . S
C1485 N1482 1.377 . S
C1485 C1498 1.479 . S
C1486 C1483 1.480 . S
C1486 C1487 1.383 . S
C1486 C1491 1.385 . S
C1487 H1468 0.947 . S
C1487 C1486 1.383 . S
C1487 C1488 1.388 . S
C1488 H1469 0.946 . S
C1488 C1487 1.388 . S
C1488 C1489 1.384 . S
C1489 C1488 1.384 . S
C1489 C1490 1.377 . S
C1490 H1470 0.953 . S
C1490 C1489 1.377 . S
C1490 C1491 1.369 . S
C1491 H1471 0.945 . S
C1491 C1486 1.385 . S
C1491 C1490 1.369 . S
C1492 C1484 1.459 . S
C1492 C1493 1.386 . S
C1492 C1497 1.349 1_565 S
C1493 H1472 0.952 . S
C1493 C1492 1.386 . S
C1493 C1494 1.389 . S
C1494 H1473 0.949 . S
C1494 C1493 1.389 . S
C1494 C1495 1.387 . S
C1495 C1494 1.387 . S
C1495 C1496 1.372 1_565 S
C1496 H1474 0.950 . S
C1496 C1495 1.372 1_545 S
C1496 C1497 1.379 . S
C1497 H1475 0.948 . S
C1497 C1492 1.349 1_545 S
C1497 C1496 1.379 . S
C1498 C1467 1.383 . S
C1498 C1485 1.479 . S
C1498 C1499 1.398 . S
C1499 C1464 1.382 . S
C1499 H1476 0.951 . S
C1499 C1498 1.398 . S
C1500 C1501 1.384 . S
C1500 H1513 0.947 . S
C1500 C1535 1.382 . S
C1501 C1500 1.384 . S
C1501 C1502 1.378 . S
C1502 C1501 1.378 . S
C1502 C1503 1.378 . S
C1502 H1514 0.952 . S
C1503 C1502 1.378 . S
C1503 H1515 0.950 . S
C1503 C1534 1.383 . S
H1504 C1523 0.947 . S
H1505 C1524 0.946 1_554 S
H1506 C1526 0.953 . S
H1507 C1527 0.945 . S
H1508 C1529 0.952 . S
H1509 C1530 0.949 . S
H1510 C1532 0.950 . S
H1511 C1533 0.948 . S
H1512 C1535 0.951 . S
H1513 C1500 0.947 . S
H1514 C1502 0.952 . S
H1515 C1503 0.950 . S
N1516 C1519 1.382 . S
N1516 C1521 1.363 1_545 S
N1517 C1519 1.371 . S
N1517 C1520 1.405 . S
N1518 C1520 1.316 1_565 S
N1518 C1521 1.377 . S
C1519 N1516 1.382 . S
C1519 N1517 1.371 . S
C1519 C1522 1.480 . S
C1520 N1517 1.405 . S
C1520 N1518 1.316 1_545 S
C1520 C1528 1.468 1_545 S
C1521 N1516 1.363 1_565 S
C1521 N1518 1.377 . S
C1521 C1534 1.479 . S
C1522 C1519 1.480 . S
C1522 C1523 1.383 . S
C1522 C1527 1.385 . S
C1523 H1504 0.947 . S
C1523 C1522 1.383 . S
C1523 C1524 1.388 . S
C1524 H1505 0.946 1_556 S
C1524 C1523 1.388 . S
C1524 C1525 1.384 . S
C1525 C1524 1.384 . S
C1525 C1526 1.377 . S
C1526 H1506 0.953 . S
C1526 C1525 1.377 . S
C1526 C1527 1.369 . S
C1527 H1507 0.945 . S
C1527 C1522 1.385 . S
C1527 C1526 1.369 . S
C1528 C1520 1.468 1_565 S
C1528 C1529 1.372 1_565 S
C1528 C1533 1.364 . S
C1529 H1508 0.952 . S
C1529 C1528 1.372 1_545 S
C1529 C1530 1.389 . S
C1530 H1509 0.949 . S
C1530 C1529 1.389 . S
C1530 C1531 1.387 1_545 S
C1531 C1530 1.387 1_565 S
C1531 C1532 1.372 . S
C1532 H1510 0.950 . S
C1532 C1531 1.372 . S
C1532 C1533 1.379 . S
C1533 H1511 0.948 . S
C1533 C1528 1.364 . S
C1533 C1532 1.379 . S
C1534 C1503 1.383 . S
C1534 C1521 1.479 . S
C1534 C1535 1.398 . S
C1535 C1500 1.382 . S
C1535 H1512 0.951 . S
C1535 C1534 1.398 . S
C1536 C1537 1.384 . S
C1536 H1549 0.947 . S
C1536 C1571 1.382 . S
C1537 C1536 1.384 . S
C1537 C1538 1.378 . S
C1538 C1537 1.378 . S
C1538 C1539 1.378 . S
C1538 H1550 0.952 . S
C1539 C1538 1.378 . S
C1539 H1551 0.950 . S
C1539 C1570 1.383 . S
H1540 C1559 0.947 . S
H1541 C1560 0.946 . S
H1542 C1562 0.953 . S
H1543 C1563 0.945 . S
H1544 C1565 0.952 . S
H1545 C1566 0.983 . S
H1546 C1568 0.950 . S
H1547 C1569 0.948 . S
H1548 C1571 0.951 . S
H1549 C1536 0.947 . S
H1550 C1538 0.952 . S
H1551 C1539 0.950 . S
N1552 C1555 1.382 . S
N1552 C1557 1.363 . S
N1553 C1555 1.371 . S
N1553 C1556 1.372 . S
N1554 C1556 1.361 . S
N1554 C1557 1.377 . S
C1555 N1552 1.382 . S
C1555 N1553 1.371 . S
C1555 C1558 1.480 . S
C1556 N1553 1.372 . S
C1556 N1554 1.361 . S
C1556 C1564 1.457 . S
C1557 N1552 1.363 . S
C1557 N1554 1.377 . S
C1557 C1570 1.479 . S
C1558 C1555 1.480 . S
C1558 C1559 1.383 . S
C1558 C1563 1.385 . S
C1559 H1540 0.947 . S
C1559 C1558 1.383 . S
C1559 C1560 1.388 . S
C1560 H1541 0.946 . S
C1560 C1559 1.388 . S
C1560 C1561 1.384 . S
C1561 C1560 1.384 . S
C1561 C1562 1.377 . S
C1562 H1542 0.953 . S
C1562 C1561 1.377 . S
C1562 C1563 1.369 . S
C1563 H1543 0.945 . S
C1563 C1558 1.385 . S
C1563 C1562 1.369 . S
C1564 C1556 1.457 . S
C1564 C1565 1.372 . S
C1564 C1569 1.364 . S
C1565 H1544 0.952 . S
C1565 C1564 1.372 . S
C1565 C1566 1.367 1_655 S
C1566 H1545 0.983 . S
C1566 C1565 1.367 1_455 S
C1566 C1567 1.374 1_455 S
C1567 C1566 1.374 1_655 S
C1567 C1568 1.372 . S
C1568 H1546 0.950 . S
C1568 C1567 1.372 . S
C1568 C1569 1.379 . S
C1569 H1547 0.948 . S
C1569 C1564 1.364 . S
C1569 C1568 1.379 . S
C1570 C1539 1.383 . S
C1570 C1557 1.479 . S
C1570 C1571 1.398 . S
C1571 C1536 1.382 . S
C1571 H1548 0.951 . S
C1571 C1570 1.398 . S
C1572 C1573 1.384 . S
C1572 H1585 0.947 . S
C1572 C1607 1.382 . S
C1573 C1572 1.384 . S
C1573 C1574 1.378 . S
C1574 C1573 1.378 . S
C1574 C1575 1.378 . S
C1574 H1586 0.952 . S
C1575 C1574 1.378 . S
C1575 H1587 0.950 . S
C1575 C1606 1.383 . S
H1576 C1595 0.947 . S
H1577 C1596 0.946 . S
H1578 C1598 0.953 . S
H1579 C1599 0.945 . S
H1580 C1601 0.952 . S
H1581 C1602 0.949 . S
H1582 C1604 0.950 . S
H1583 C1605 0.948 . S
H1584 C1607 0.951 . S
H1585 C1572 0.947 . S
H1586 C1574 0.952 . S
H1587 C1575 0.950 . S
N1588 C1591 1.382 . S
N1588 C1593 1.363 . S
N1589 C1591 1.371 . S
N1589 C1592 1.372 . S
N1590 C1592 1.361 . S
N1590 C1593 1.377 . S
C1591 N1588 1.382 . S
C1591 N1589 1.371 . S
C1591 C1594 1.480 . S
C1592 N1589 1.372 . S
C1592 N1590 1.361 . S
C1592 C1600 1.457 . S
C1593 N1588 1.363 . S
C1593 N1590 1.377 . S
C1593 C1606 1.479 . S
C1594 C1591 1.480 . S
C1594 C1595 1.383 . S
C1594 C1599 1.385 . S
C1595 H1576 0.947 . S
C1595 C1594 1.383 . S
C1595 C1596 1.388 . S
C1596 H1577 0.946 . S
C1596 C1595 1.388 . S
C1596 C1597 1.384 . S
C1597 C1596 1.384 . S
C1597 C1598 1.377 . S
C1598 H1578 0.953 . S
C1598 C1597 1.377 . S
C1598 C1599 1.369 . S
C1599 H1579 0.945 . S
C1599 C1594 1.385 . S
C1599 C1598 1.369 . S
C1600 C1592 1.457 . S
C1600 C1601 1.372 . S
C1600 C1605 1.364 . S
C1601 H1580 0.952 . S
C1601 C1600 1.372 . S
C1601 C1602 1.389 . S
C1602 H1581 0.949 . S
C1602 C1601 1.389 . S
C1602 C1603 1.387 . S
C1603 C1602 1.387 . S
C1603 C1604 1.372 . S
C1604 H1582 0.950 . S
C1604 C1603 1.372 . S
C1604 C1605 1.379 . S
C1605 H1583 0.948 . S
C1605 C1600 1.364 . S
C1605 C1604 1.379 . S
C1606 C1575 1.383 . S
C1606 C1593 1.479 . S
C1606 C1607 1.398 . S
C1607 C1572 1.382 . S
C1607 H1584 0.951 . S
C1607 C1606 1.398 . S
C1608 C1609 1.384 . S
C1608 H1621 0.947 . S
C1608 C1643 1.382 . S
C1609 C1608 1.384 . S
C1609 C1610 1.378 . S
C1610 C1609 1.378 . S
C1610 C1611 1.378 . S
C1610 H1622 0.952 . S
C1611 C1610 1.378 . S
C1611 H1623 0.950 . S
C1611 C1642 1.383 . S
H1612 C1631 0.947 . S
H1613 C1632 0.946 . S
H1614 C1634 0.953 . S
H1615 C1635 0.945 . S
H1616 C1637 0.952 . S
H1617 C1638 0.949 . S
H1618 C1640 0.950 . S
H1619 C1641 0.948 1_455 S
H1620 C1643 0.951 . S
H1621 C1608 0.947 . S
H1622 C1610 0.952 . S
H1623 C1611 0.950 . S
N1624 C1627 1.382 . S
N1624 C1629 1.363 . S
N1625 C1627 1.371 1_655 S
N1625 C1628 1.367 1_655 S
N1626 C1628 1.371 . S
N1626 C1629 1.377 . S
C1627 N1624 1.382 . S
C1627 N1625 1.371 1_455 S
C1627 C1630 1.480 . S
C1628 N1625 1.367 1_455 S
C1628 N1626 1.371 . S
C1628 C1636 1.447 1_455 S
C1629 N1624 1.363 . S
C1629 N1626 1.377 . S
C1629 C1642 1.479 . S
C1630 C1627 1.480 . S
C1630 C1631 1.383 . S
C1630 C1635 1.385 1_455 S
C1631 H1612 0.947 . S
C1631 C1630 1.383 . S
C1631 C1632 1.388 . S
C1632 H1613 0.946 . S
C1632 C1631 1.388 . S
C1632 C1633 1.384 1_455 S
C1633 C1632 1.384 1_655 S
C1633 C1634 1.377 . S
C1634 H1614 0.953 . S
C1634 C1633 1.377 . S
C1634 C1635 1.369 . S
C1635 H1615 0.945 . S
C1635 C1630 1.385 1_655 S
C1635 C1634 1.369 . S
C1636 C1628 1.447 1_655 S
C1636 C1637 1.372 . S
C1636 C1641 1.364 . S
C1637 H1616 0.952 . S
C1637 C1636 1.372 . S
C1637 C1638 1.389 . S
C1638 H1617 0.949 . S
C1638 C1637 1.389 . S
C1638 C1639 1.387 . S
C1639 C1638 1.387 . S
C1639 C1640 1.372 . S
C1640 H1618 0.950 . S
C1640 C1639 1.372 . S
C1640 C1641 1.379 . S
C1641 H1619 0.948 1_655 S
C1641 C1636 1.364 . S
C1641 C1640 1.379 . S
C1642 C1611 1.383 . S
C1642 C1629 1.479 . S
C1642 C1643 1.398 . S
C1643 C1608 1.382 . S
C1643 H1620 0.951 . S
C1643 C1642 1.398 . S
C1644 C1645 1.384 . S
C1644 H1657 0.947 . S
C1644 C1679 1.382 . S
C1645 C1644 1.384 . S
C1645 C1646 1.378 . S
C1646 C1645 1.378 . S
C1646 C1647 1.378 . S
C1646 H1658 0.952 . S
C1647 C1646 1.378 . S
C1647 H1659 0.950 . S
C1647 C1678 1.383 . S
H1648 C1667 0.947 . S
H1649 C1668 0.946 . S
H1650 C1670 0.953 . S
H1651 C1671 0.945 . S
H1652 C1673 0.952 . S
H1653 C1674 0.946 1_556 S
H1654 C1676 0.950 . S
H1655 C1677 0.948 . S
H1656 C1679 0.951 . S
H1657 C1644 0.947 . S
H1658 C1646 0.952 . S
H1659 C1647 0.950 . S
N1660 C1663 1.382 . S
N1660 C1665 1.363 1_556 S
N1661 C1663 1.371 . S
N1661 C1664 1.372 1_556 S
N1662 C1664 1.361 . S
N1662 C1665 1.377 . S
C1663 N1660 1.382 . S
C1663 N1661 1.371 . S
C1663 C1666 1.480 . S
C1664 N1661 1.372 1_554 S
C1664 N1662 1.361 . S
C1664 C1672 1.457 . S
C1665 N1660 1.363 1_554 S
C1665 N1662 1.377 . S
C1665 C1678 1.479 . S
C1666 C1663 1.480 . S
C1666 C1667 1.383 . S
C1666 C1671 1.385 . S
C1667 H1648 0.947 . S
C1667 C1666 1.383 . S
C1667 C1668 1.388 . S
C1668 H1649 0.946 . S
C1668 C1667 1.388 . S
C1668 C1669 1.384 . S
C1669 C1668 1.384 . S
C1669 C1670 1.377 . S
C1670 H1650 0.953 . S
C1670 C1669 1.377 . S
C1670 C1671 1.369 . S
C1671 H1651 0.945 . S
C1671 C1666 1.385 . S
C1671 C1670 1.369 . S
C1672 C1664 1.457 . S
C1672 C1673 1.372 1_554 S
C1672 C1677 1.364 . S
C1673 H1652 0.952 . S
C1673 C1672 1.372 1_556 S
C1673 C1674 1.387 1_556 S
C1674 H1653 0.946 1_554 S
C1674 C1673 1.387 1_554 S
C1674 C1675 1.392 . S
C1675 C1674 1.392 . S
C1675 C1676 1.372 . S
C1676 H1654 0.950 . S
C1676 C1675 1.372 . S
C1676 C1677 1.379 . S
C1677 H1655 0.948 . S
C1677 C1672 1.364 . S
C1677 C1676 1.379 . S
C1678 C1647 1.383 . S
C1678 C1665 1.479 . S
C1678 C1679 1.398 . S
C1679 C1644 1.382 . S
C1679 H1656 0.951 . S
C1679 C1678 1.398 . S
C1680 C1681 1.384 . S
C1680 H1693 0.947 . S
C1680 C1715 1.382 . S
C1681 C1680 1.384 . S
C1681 C1682 1.378 . S
C1682 C1681 1.378 . S
C1682 C1683 1.378 . S
C1682 H1694 0.952 . S
C1683 C1682 1.378 . S
C1683 H1695 0.950 . S
C1683 C1714 1.383 . S
H1684 C1703 0.947 . S
H1685 C1704 0.946 . S
H1686 C1706 0.953 . S
H1687 C1707 0.945 . S
H1688 C1709 0.952 . S
H1689 C1710 0.949 . S
H1690 C1712 0.950 . S
H1691 C1713 0.948 . S
H1692 C1715 0.951 . S
H1693 C1680 0.947 . S
H1694 C1682 0.952 . S
H1695 C1683 0.950 . S
N1696 C1699 1.382 . S
N1696 C1701 1.363 . S
N1697 C1699 1.371 . S
N1697 C1700 1.372 . S
N1698 C1700 1.361 . S
N1698 C1701 1.377 . S
C1699 N1696 1.382 . S
C1699 N1697 1.371 . S
C1699 C1702 1.480 . S
C1700 N1697 1.372 . S
C1700 N1698 1.361 . S
C1700 C1708 1.457 . S
C1701 N1696 1.363 . S
C1701 N1698 1.377 . S
C1701 C1714 1.479 . S
C1702 C1699 1.480 . S
C1702 C1703 1.383 . S
C1702 C1707 1.385 . S
C1703 H1684 0.947 . S
C1703 C1702 1.383 . S
C1703 C1704 1.388 . S
C1704 H1685 0.946 . S
C1704 C1703 1.388 . S
C1704 C1705 1.384 . S
C1705 C1704 1.384 . S
C1705 C1706 1.377 . S
C1706 H1686 0.953 . S
C1706 C1705 1.377 . S
C1706 C1707 1.369 . S
C1707 H1687 0.945 . S
C1707 C1702 1.385 . S
C1707 C1706 1.369 . S
C1708 C1700 1.457 . S
C1708 C1709 1.372 . S
C1708 C1713 1.364 . S
C1709 H1688 0.952 . S
C1709 C1708 1.372 . S
C1709 C1710 1.389 . S
C1710 H1689 0.949 . S
C1710 C1709 1.389 . S
C1710 C1711 1.387 . S
C1711 C1710 1.387 . S
C1711 C1712 1.372 . S
C1712 H1690 0.950 . S
C1712 C1711 1.372 . S
C1712 C1713 1.379 . S
C1713 H1691 0.948 . S
C1713 C1708 1.364 . S
C1713 C1712 1.379 . S
C1714 C1683 1.383 . S
C1714 C1701 1.479 . S
C1714 C1715 1.398 . S
C1715 C1680 1.382 . S
C1715 H1692 0.951 . S
C1715 C1714 1.398 . S
C1716 C1717 1.384 . S
C1716 H1729 0.947 . S
C1716 C1751 1.382 . S
C1717 C1716 1.384 . S
C1717 C1718 1.378 . S
C1718 C1717 1.378 . S
C1718 C1719 1.378 . S
C1718 H1730 0.952 . S
C1719 C1718 1.378 . S
C1719 H1731 0.950 . S
C1719 C1750 1.383 . S
H1720 C1739 0.947 . S
H1721 C1740 0.946 . S
H1722 C1742 0.953 . S
H1723 C1743 0.945 . S
H1724 C1745 0.952 . S
H1725 C1746 0.949 . S
H1726 C1748 0.950 . S
H1727 C1749 0.948 . S
H1728 C1751 0.951 . S
H1729 C1716 0.947 . S
H1730 C1718 0.952 . S
H1731 C1719 0.950 . S
N1732 C1735 1.382 . S
N1732 C1737 1.363 . S
N1733 C1735 1.371 . S
N1733 C1736 1.372 . S
N1734 C1736 1.361 . S
N1734 C1737 1.377 . S
C1735 N1732 1.382 . S
C1735 N1733 1.371 . S
C1735 C1738 1.480 . S
C1736 N1733 1.372 . S
C1736 N1734 1.361 . S
C1736 C1744 1.457 . S
C1737 N1732 1.363 . S
C1737 N1734 1.377 . S
C1737 C1750 1.479 . S
C1738 C1735 1.480 . S
C1738 C1739 1.383 . S
C1738 C1743 1.385 . S
C1739 H1720 0.947 . S
C1739 C1738 1.383 . S
C1739 C1740 1.388 . S
C1740 H1721 0.946 . S
C1740 C1739 1.388 . S
C1740 C1741 1.384 . S
C1741 C1740 1.384 . S
C1741 C1742 1.377 . S
C1742 H1722 0.953 . S
C1742 C1741 1.377 . S
C1742 C1743 1.369 . S
C1743 H1723 0.945 . S
C1743 C1738 1.385 . S
C1743 C1742 1.369 . S
C1744 C1736 1.457 . S
C1744 C1745 1.372 . S
C1744 C1749 1.364 . S
C1745 H1724 0.952 . S
C1745 C1744 1.372 . S
C1745 C1746 1.389 . S
C1746 H1725 0.949 . S
C1746 C1745 1.389 . S
C1746 C1747 1.387 . S
C1747 C1746 1.387 . S
C1747 C1748 1.372 . S
C1748 H1726 0.950 . S
C1748 C1747 1.372 . S
C1748 C1749 1.379 . S
C1749 H1727 0.948 . S
C1749 C1744 1.364 . S
C1749 C1748 1.379 . S
C1750 C1719 1.383 . S
C1750 C1737 1.479 . S
C1750 C1751 1.398 . S
C1751 C1716 1.382 . S
C1751 H1728 0.951 . S
C1751 C1750 1.398 . S
C1752 C1753 1.384 . S
C1752 H1765 0.947 . S
C1752 C1787 1.382 . S
C1753 C1752 1.384 . S
C1753 C1754 1.378 . S
C1754 C1753 1.378 . S
C1754 C1755 1.378 . S
C1754 H1766 0.952 . S
C1755 C1754 1.378 . S
C1755 H1767 0.950 . S
C1755 C1786 1.383 . S
H1756 C1775 0.947 . S
H1757 C1776 0.946 . S
H1758 C1778 0.953 . S
H1759 C1779 0.945 . S
H1760 C1781 0.952 . S
H1761 C1782 0.949 . S
H1762 C1784 0.950 . S
H1763 C1785 0.948 . S
H1764 C1787 0.951 . S
H1765 C1752 0.947 . S
H1766 C1754 0.952 . S
H1767 C1755 0.950 . S
N1768 C1771 1.382 . S
N1768 C1773 1.363 . S
N1769 C1771 1.371 . S
N1769 C1772 1.372 . S
N1770 C1772 1.361 . S
N1770 C1773 1.377 . S
C1771 N1768 1.382 . S
C1771 N1769 1.371 . S
C1771 C1774 1.480 . S
C1772 N1769 1.372 . S
C1772 N1770 1.361 . S
C1772 C1780 1.457 . S
C1773 N1768 1.363 . S
C1773 N1770 1.377 . S
C1773 C1786 1.479 . S
C1774 C1771 1.480 . S
C1774 C1775 1.383 . S
C1774 C1779 1.385 . S
C1775 H1756 0.947 . S
C1775 C1774 1.383 . S
C1775 C1776 1.388 . S
C1776 H1757 0.946 . S
C1776 C1775 1.388 . S
C1776 C1777 1.384 . S
C1777 C1776 1.384 . S
C1777 C1778 1.377 . S
C1778 H1758 0.953 . S
C1778 C1777 1.377 . S
C1778 C1779 1.369 . S
C1779 H1759 0.945 . S
C1779 C1774 1.385 . S
C1779 C1778 1.369 . S
C1780 C1772 1.457 . S
C1780 C1781 1.372 . S
C1780 C1785 1.364 . S
C1781 H1760 0.952 . S
C1781 C1780 1.372 . S
C1781 C1782 1.389 . S
C1782 H1761 0.949 . S
C1782 C1781 1.389 . S
C1782 C1783 1.387 . S
C1783 C1782 1.387 . S
C1783 C1784 1.372 . S
C1784 H1762 0.950 . S
C1784 C1783 1.372 . S
C1784 C1785 1.379 . S
C1785 H1763 0.948 . S
C1785 C1780 1.364 . S
C1785 C1784 1.379 . S
C1786 C1755 1.383 . S
C1786 C1773 1.479 . S
C1786 C1787 1.398 . S
C1787 C1752 1.382 . S
C1787 H1764 0.951 . S
C1787 C1786 1.398 . S
C1788 C1789 1.384 . S
C1788 H1801 0.947 . S
C1788 C1823 1.382 . S
C1789 C1788 1.384 . S
C1789 C1790 1.378 . S
C1790 C1789 1.378 . S
C1790 C1791 1.378 . S
C1790 H1802 0.952 . S
C1791 C1790 1.378 . S
C1791 H1803 0.950 . S
C1791 C1822 1.383 . S
H1792 C1811 0.947 . S
H1793 C1812 0.946 . S
H1794 C1814 0.953 . S
H1795 C1815 0.945 . S
H1796 C1817 0.952 . S
H1797 C1818 0.949 . S
H1798 C1820 0.950 . S
H1799 C1821 0.948 . S
H1800 C1823 0.951 . S
H1801 C1788 0.947 . S
H1802 C1790 0.952 . S
H1803 C1791 0.950 . S
N1804 C1807 1.382 . S
N1804 C1809 1.363 . S
N1805 C1807 1.371 . S
N1805 C1808 1.372 . S
N1806 C1808 1.361 . S
N1806 C1809 1.377 . S
C1807 N1804 1.382 . S
C1807 N1805 1.371 . S
C1807 C1810 1.480 . S
C1808 N1805 1.372 . S
C1808 N1806 1.361 . S
C1808 C1816 1.457 . S
C1809 N1804 1.363 . S
C1809 N1806 1.377 . S
C1809 C1822 1.479 . S
C1810 C1807 1.480 . S
C1810 C1811 1.383 . S
C1810 C1815 1.385 . S
C1811 H1792 0.947 . S
C1811 C1810 1.383 . S
C1811 C1812 1.388 . S
C1812 H1793 0.946 . S
C1812 C1811 1.388 . S
C1812 C1813 1.384 . S
C1813 C1812 1.384 . S
C1813 C1814 1.377 . S
C1814 H1794 0.953 . S
C1814 C1813 1.377 . S
C1814 C1815 1.369 . S
C1815 H1795 0.945 . S
C1815 C1810 1.385 . S
C1815 C1814 1.369 . S
C1816 C1808 1.457 . S
C1816 C1817 1.372 . S
C1816 C1821 1.364 . S
C1817 H1796 0.952 . S
C1817 C1816 1.372 . S
C1817 C1818 1.389 . S
C1818 H1797 0.949 . S
C1818 C1817 1.389 . S
C1818 C1819 1.387 . S
C1819 C1818 1.387 . S
C1819 C1820 1.372 . S
C1820 H1798 0.950 . S
C1820 C1819 1.372 . S
C1820 C1821 1.379 . S
C1821 H1799 0.948 . S
C1821 C1816 1.364 . S
C1821 C1820 1.379 . S
C1822 C1791 1.383 . S
C1822 C1809 1.479 . S
C1822 C1823 1.398 . S
C1823 C1788 1.382 . S
C1823 H1800 0.951 . S
C1823 C1822 1.398 . S
C1824 C1825 1.369 . S
C1824 C1826 1.419 . S
C1824 H1828 0.930 . S
C1825 C1824 1.369 . S
C1825 C1834 1.429 . S
C1826 C1824 1.419 . S
C1826 C1827 1.363 . S
C1826 H1829 0.929 . S
C1827 C1826 1.363 . S
C1827 C1833 1.428 . S
H1828 C1824 0.930 . S
H1829 C1826 0.929 . S
S1830 N1831 1.613 . S
S1830 N1832 1.610 . S
N1831 S1830 1.613 . S
N1831 C1834 1.350 . S
N1832 S1830 1.610 . S
N1832 C1833 1.351 . S
C1833 C1827 1.428 . S
C1833 N1832 1.351 . S
C1833 C1834 1.434 . S
C1834 C1825 1.429 . S
C1834 N1831 1.350 . S
C1834 C1833 1.434 . S
C1835 C1836 1.369 . S
C1835 C1837 1.419 . S
C1835 H1839 0.930 . S
C1836 C1835 1.369 . S
C1836 C1845 1.429 . S
C1837 C1835 1.419 . S
C1837 C1838 1.363 . S
C1837 H1840 0.929 . S
C1838 C1837 1.363 . S
C1838 C1844 1.428 . S
H1839 C1835 0.930 . S
H1840 C1837 0.929 . S
S1841 N1842 1.613 . S
S1841 N1843 1.610 . S
N1842 S1841 1.613 . S
N1842 C1845 1.350 . S
N1843 S1841 1.610 . S
N1843 C1844 1.351 . S
C1844 C1838 1.428 . S
C1844 N1843 1.351 . S
C1844 C1845 1.434 . S
C1845 C1836 1.429 . S
C1845 N1842 1.350 . S
C1845 C1844 1.434 . S
C1846 C1847 1.369 . S
C1846 C1848 1.419 . S
C1846 H1850 0.930 . S
C1847 C1846 1.369 . S
C1847 C1856 1.429 . S
C1848 C1846 1.419 . S
C1848 C1849 1.363 . S
C1848 H1851 0.929 . S
C1849 C1848 1.363 . S
C1849 C1855 1.428 . S
H1850 C1846 0.930 . S
H1851 C1848 0.929 . S
S1852 N1853 1.613 . S
S1852 N1854 1.610 . S
N1853 S1852 1.613 . S
N1853 C1856 1.350 . S
N1854 S1852 1.610 . S
N1854 C1855 1.351 . S
C1855 C1849 1.428 . S
C1855 N1854 1.351 . S
C1855 C1856 1.434 . S
C1856 C1847 1.429 . S
C1856 N1853 1.350 . S
C1856 C1855 1.434 . S
C1857 C1858 1.369 . S
C1857 C1859 1.419 . S
C1857 H1861 0.930 . S
C1858 C1857 1.369 . S
C1858 C1867 1.429 . S
C1859 C1857 1.419 . S
C1859 C1860 1.363 . S
C1859 H1862 0.929 . S
C1860 C1859 1.363 . S
C1860 C1866 1.428 1_655 S
H1861 C1857 0.930 . S
H1862 C1859 0.929 . S
S1863 N1864 1.611 1_445 S
S1863 N1865 1.610 1_545 S
N1864 S1863 1.611 1_665 S
N1864 C1867 1.376 . S
N1865 S1863 1.610 1_565 S
N1865 C1866 1.351 . S
C1866 C1860 1.428 1_455 S
C1866 N1865 1.351 . S
C1866 C1867 1.434 1_455 S
C1867 C1858 1.429 . S
C1867 N1864 1.376 . S
C1867 C1866 1.434 1_655 S
C1868 C1869 1.369 . S
C1868 C1870 1.419 . S
C1868 H1872 0.930 . S
C1869 C1868 1.369 . S
C1869 C1878 1.429 . S
C1870 C1868 1.419 . S
C1870 C1871 1.363 . S
C1870 H1873 0.929 . S
C1871 C1870 1.363 . S
C1871 C1877 1.428 . S
H1872 C1868 0.930 . S
H1873 C1870 0.929 . S
S1874 N1875 1.613 . S
S1874 N1876 1.610 . S
N1875 S1874 1.613 . S
N1875 C1878 1.350 . S
N1876 S1874 1.610 . S
N1876 C1877 1.351 . S
C1877 C1871 1.428 . S
C1877 N1876 1.351 . S
C1877 C1878 1.434 . S
C1878 C1869 1.429 . S
C1878 N1875 1.350 . S
C1878 C1877 1.434 . S
C1879 C1880 1.369 . S
C1879 C1881 1.419 . S
C1879 H1883 0.930 . S
C1880 C1879 1.369 . S
C1880 C1889 1.429 . S
C1881 C1879 1.419 . S
C1881 C1882 1.363 . S
C1881 H1884 0.929 . S
C1882 C1881 1.363 . S
C1882 C1888 1.428 . S
H1883 C1879 0.930 . S
H1884 C1881 0.929 . S
S1885 N1886 1.613 . S
S1885 N1887 1.610 . S
N1886 S1885 1.613 . S
N1886 C1889 1.350 . S
N1887 S1885 1.610 . S
N1887 C1888 1.351 . S
C1888 C1882 1.428 . S
C1888 N1887 1.351 . S
C1888 C1889 1.434 . S
C1889 C1880 1.429 . S
C1889 N1886 1.350 . S
C1889 C1888 1.434 . S
C1890 C1891 1.369 . S
C1890 C1892 1.419 1_455 S
C1890 H1894 0.930 . S
C1891 C1890 1.369 . S
C1891 C1900 1.429 . S
C1892 C1890 1.419 1_655 S
C1892 C1893 1.363 . S
C1892 H1895 0.929 . S
C1893 C1892 1.363 . S
C1893 C1899 1.428 1_655 S
H1894 C1890 0.930 . S
H1895 C1892 0.929 . S
S1896 N1897 1.613 . S
S1896 N1898 1.610 . S
N1897 S1896 1.613 . S
N1897 C1900 1.350 . S
N1898 S1896 1.610 . S
N1898 C1899 1.351 . S
C1899 C1893 1.428 1_455 S
C1899 N1898 1.351 . S
C1899 C1900 1.434 . S
C1900 C1891 1.429 . S
C1900 N1897 1.350 . S
C1900 C1899 1.434 . S
C1901 C1902 1.369 . S
C1901 C1903 1.419 . S
C1901 H1905 0.930 . S
C1902 C1901 1.369 . S
C1902 C1911 1.429 . S
C1903 C1901 1.419 . S
C1903 C1904 1.363 . S
C1903 H1906 0.929 . S
C1904 C1903 1.363 . S
C1904 C1910 1.428 . S
H1905 C1901 0.930 . S
H1906 C1903 0.929 . S
S1907 N1908 1.613 . S
S1907 N1909 1.610 . S
N1908 S1907 1.613 . S
N1908 C1911 1.350 . S
N1909 S1907 1.610 . S
N1909 C1910 1.351 . S
C1910 C1904 1.428 . S
C1910 N1909 1.351 . S
C1910 C1911 1.434 . S
C1911 C1902 1.429 . S
C1911 N1908 1.350 . S
C1911 C1910 1.434 . S
C1912 C1913 1.369 . S
C1912 C1914 1.419 . S
C1912 H1916 0.930 . S
C1913 C1912 1.369 . S
C1913 C1922 1.429 . S
C1914 C1912 1.419 . S
C1914 C1915 1.363 . S
C1914 H1917 0.929 . S
C1915 C1914 1.363 . S
C1915 C1921 1.428 . S
H1916 C1912 0.930 . S
H1917 C1914 0.929 . S
S1918 N1919 1.613 . S
S1918 N1920 1.610 . S
N1919 S1918 1.613 . S
N1919 C1922 1.350 . S
N1920 S1918 1.610 . S
N1920 C1921 1.351 . S
C1921 C1915 1.428 . S
C1921 N1920 1.351 . S
C1921 C1922 1.434 . S
C1922 C1913 1.429 . S
C1922 N1919 1.350 . S
C1922 C1921 1.434 . S
C1923 C1924 1.369 . S
C1923 C1925 1.419 . S
C1923 H1927 0.930 . S
C1924 C1923 1.369 . S
C1924 C1933 1.429 . S
C1925 C1923 1.419 . S
C1925 C1926 1.363 . S
C1925 H1928 0.929 . S
C1926 C1925 1.363 . S
C1926 C1932 1.428 . S
H1927 C1923 0.930 . S
H1928 C1925 0.929 . S
S1929 N1930 1.613 . S
S1929 N1931 1.610 . S
N1930 S1929 1.613 . S
N1930 C1933 1.350 . S
N1931 S1929 1.610 . S
N1931 C1932 1.351 . S
C1932 C1926 1.428 . S
C1932 N1931 1.351 . S
C1932 C1933 1.434 . S
C1933 C1924 1.429 . S
C1933 N1930 1.350 . S
C1933 C1932 1.434 . S
C1934 C1935 1.369 . S
C1934 C1936 1.419 . S
C1934 H1938 0.930 . S
C1935 C1934 1.369 . S
C1935 C1944 1.429 . S
C1936 C1934 1.419 . S
C1936 C1937 1.363 . S
C1936 H1939 0.929 . S
C1937 C1936 1.363 . S
C1937 C1943 1.428 . S
H1938 C1934 0.930 . S
H1939 C1936 0.929 . S
S1940 N1941 1.613 . S
S1940 N1942 1.610 . S
N1941 S1940 1.613 . S
N1941 C1944 1.350 . S
N1942 S1940 1.610 . S
N1942 C1943 1.351 . S
C1943 C1937 1.428 . S
C1943 N1942 1.351 . S
C1943 C1944 1.434 . S
C1944 C1935 1.429 . S
C1944 N1941 1.350 . S
C1944 C1943 1.434 . S
C1945 C1946 1.369 . S
C1945 C1947 1.419 . S
C1945 H1949 0.930 . S
C1946 C1945 1.369 . S
C1946 C1955 1.429 . S
C1947 C1945 1.419 . S
C1947 C1948 1.363 . S
C1947 H1950 0.929 . S
C1948 C1947 1.363 . S
C1948 C1954 1.428 . S
H1949 C1945 0.930 . S
H1950 C1947 0.929 . S
S1951 N1952 1.613 . S
S1951 N1953 1.610 . S
N1952 S1951 1.613 . S
N1952 C1955 1.350 . S
N1953 S1951 1.610 . S
N1953 C1954 1.351 . S
C1954 C1948 1.428 . S
C1954 N1953 1.351 . S
C1954 C1955 1.434 . S
C1955 C1946 1.429 . S
C1955 N1952 1.350 . S
C1955 C1954 1.434 . S
C1956 C1957 1.369 . S
C1956 C1958 1.419 . S
C1956 H1960 0.930 . S
C1957 C1956 1.369 . S
C1957 C1966 1.429 . S
C1958 C1956 1.419 . S
C1958 C1959 1.363 . S
C1958 H1961 0.929 . S
C1959 C1958 1.363 . S
C1959 C1965 1.428 . S
H1960 C1956 0.930 . S
H1961 C1958 0.929 . S
S1962 N1963 1.613 1_565 S
S1962 N1964 1.610 . S
N1963 S1962 1.613 1_545 S
N1963 C1966 1.350 . S
N1964 S1962 1.610 . S
N1964 C1965 1.351 1_565 S
C1965 C1959 1.428 . S
C1965 N1964 1.351 1_545 S
C1965 C1966 1.434 . S
C1966 C1957 1.429 . S
C1966 N1963 1.350 . S
C1966 C1965 1.434 . S
C1967 C1968 1.369 . S
C1967 C1969 1.419 . S
C1967 H1971 0.930 . S
C1968 C1967 1.369 . S
C1968 C1977 1.429 . S
C1969 C1967 1.419 . S
C1969 C1970 1.363 . S
C1969 H1972 0.929 . S
C1970 C1969 1.363 . S
C1970 C1976 1.428 . S
H1971 C1967 0.930 . S
H1972 C1969 0.929 . S
S1973 N1974 1.613 . S
S1973 N1975 1.610 . S
N1974 S1973 1.613 . S
N1974 C1977 1.350 . S
N1975 S1973 1.610 . S
N1975 C1976 1.351 . S
C1976 C1970 1.428 . S
C1976 N1975 1.351 . S
C1976 C1977 1.434 . S
C1977 C1968 1.429 . S
C1977 N1974 1.350 . S
C1977 C1976 1.434 . S
C1978 C1979 1.369 . S
C1978 C1980 1.419 . S
C1978 H1982 0.930 . S
C1979 C1978 1.369 . S
C1979 C1988 1.429 . S
C1980 C1978 1.419 . S
C1980 C1981 1.363 . S
C1980 H1983 0.929 . S
C1981 C1980 1.363 . S
C1981 C1987 1.428 . S
H1982 C1978 0.930 . S
H1983 C1980 0.929 . S
S1984 N1985 1.613 . S
S1984 N1986 1.610 . S
N1985 S1984 1.613 . S
N1985 C1988 1.350 . S
N1986 S1984 1.610 . S
N1986 C1987 1.351 . S
C1987 C1981 1.428 . S
C1987 N1986 1.351 . S
C1987 C1988 1.434 . S
C1988 C1979 1.429 . S
C1988 N1985 1.350 . S
C1988 C1987 1.434 . S
C1989 C1990 1.369 . S
C1989 C1991 1.419 1_455 S
C1989 H1993 0.930 . S
C1990 C1989 1.369 . S
C1990 C1999 1.429 . S
C1991 C1989 1.419 1_655 S
C1991 C1992 1.363 1_655 S
C1991 H1994 0.929 . S
C1992 C1991 1.363 1_455 S
C1992 C1998 1.428 . S
H1993 C1989 0.930 . S
H1994 C1991 0.929 . S
S1995 N1996 1.613 . S
S1995 N1997 1.610 . S
N1996 S1995 1.613 . S
N1996 C1999 1.350 . S
N1997 S1995 1.610 . S
N1997 C1998 1.351 . S
C1998 C1992 1.428 . S
C1998 N1997 1.351 . S
C1998 C1999 1.434 . S
C1999 C1990 1.429 . S
C1999 N1996 1.350 . S
C1999 C1998 1.434 . S
C2000 C2001 1.369 . S
C2000 C2002 1.419 . S
C2000 H2004 0.930 . S
C2001 C2000 1.369 . S
C2001 C2010 1.429 . S
C2002 C2000 1.419 . S
C2002 C2003 1.363 . S
C2002 H2005 0.929 . S
C2003 C2002 1.363 . S
C2003 C2009 1.428 . S
H2004 C2000 0.930 . S
H2005 C2002 0.929 . S
S2006 N2007 1.613 . S
S2006 N2008 1.610 . S
N2007 S2006 1.613 . S
N2007 C2010 1.350 . S
N2008 S2006 1.610 . S
N2008 C2009 1.351 . S
C2009 C2003 1.428 . S
C2009 N2008 1.351 . S
C2009 C2010 1.434 . S
C2010 C2001 1.429 . S
C2010 N2007 1.350 . S
C2010 C2009 1.434 . S
C2011 C2012 1.369 . S
C2011 C2013 1.419 . S
C2011 H2015 0.930 . S
C2012 C2011 1.369 . S
C2012 C2021 1.429 . S
C2013 C2011 1.419 . S
C2013 C2014 1.363 . S
C2013 H2016 0.929 . S
C2014 C2013 1.363 . S
C2014 C2020 1.428 . S
H2015 C2011 0.930 . S
H2016 C2013 0.929 . S
S2017 N2018 1.613 . S
S2017 N2019 1.610 . S
N2018 S2017 1.613 . S
N2018 C2021 1.350 . S
N2019 S2017 1.610 . S
N2019 C2020 1.351 . S
C2020 C2014 1.428 . S
C2020 N2019 1.351 . S
C2020 C2021 1.434 . S
C2021 C2012 1.429 . S
C2021 N2018 1.350 . S
C2021 C2020 1.434 . S
C2022 C2023 1.369 . S
C2022 C2024 1.419 1_655 S
C2022 H2026 0.930 . S
C2023 C2022 1.369 . S
C2023 C2032 1.429 . S
C2024 C2022 1.419 1_455 S
C2024 C2025 1.363 . S
C2024 H2027 0.929 . S
C2025 C2024 1.363 . S
C2025 C2031 1.428 1_455 S
H2026 C2022 0.930 . S
H2027 C2024 0.929 . S
S2028 N2029 1.613 . S
S2028 N2030 1.610 . S
N2029 S2028 1.613 . S
N2029 C2032 1.350 . S
N2030 S2028 1.610 . S
N2030 C2031 1.351 . S
C2031 C2025 1.428 1_655 S
C2031 N2030 1.351 . S
C2031 C2032 1.434 . S
C2032 C2023 1.429 . S
C2032 N2029 1.350 . S
C2032 C2031 1.434 . S
C2033 C2034 1.369 . S
C2033 C2035 1.419 . S
C2033 H2037 0.930 . S
C2034 C2033 1.369 . S
C2034 C2043 1.429 . S
C2035 C2033 1.419 . S
C2035 C2036 1.363 . S
C2035 H2038 0.929 . S
C2036 C2035 1.363 . S
C2036 C2042 1.428 . S
H2037 C2033 0.930 . S
H2038 C2035 0.929 . S
S2039 N2040 1.613 . S
S2039 N2041 1.610 . S
N2040 S2039 1.613 . S
N2040 C2043 1.350 . S
N2041 S2039 1.610 . S
N2041 C2042 1.351 . S
C2042 C2036 1.428 . S
C2042 N2041 1.351 . S
C2042 C2043 1.434 . S
C2043 C2034 1.429 . S
C2043 N2040 1.350 . S
C2043 C2042 1.434 . S
C2044 C2045 1.369 . S
C2044 C2046 1.419 . S
C2044 H2048 0.930 . S
C2045 C2044 1.369 . S
C2045 C2054 1.429 . S
C2046 C2044 1.419 . S
C2046 C2047 1.363 . S
C2046 H2049 0.929 . S
C2047 C2046 1.363 . S
C2047 C2053 1.428 . S
H2048 C2044 0.930 . S
H2049 C2046 0.929 . S
S2050 N2051 1.613 . S
S2050 N2052 1.610 . S
N2051 S2050 1.613 . S
N2051 C2054 1.350 . S
N2052 S2050 1.610 . S
N2052 C2053 1.351 . S
C2053 C2047 1.428 . S
C2053 N2052 1.351 . S
C2053 C2054 1.434 . S
C2054 C2045 1.429 . S
C2054 N2051 1.350 . S
C2054 C2053 1.434 . S
C2055 C2056 1.369 . S
C2055 C2057 1.419 . S
C2055 H2059 0.930 1_556 S
C2056 C2055 1.369 . S
C2056 C2065 1.429 . S
C2057 C2055 1.419 . S
C2057 C2058 1.363 . S
C2057 H2060 0.929 1_556 S
C2058 C2057 1.363 . S
C2058 C2064 1.428 . S
H2059 C2055 0.930 1_554 S
H2060 C2057 0.929 1_554 S
S2061 N2062 1.613 . S
S2061 N2063 1.610 . S
N2062 S2061 1.613 . S
N2062 C2065 1.350 . S
N2063 S2061 1.610 . S
N2063 C2064 1.351 . S
C2064 C2058 1.428 . S
C2064 N2063 1.351 . S
C2064 C2065 1.434 . S
C2065 C2056 1.429 . S
C2065 N2062 1.350 . S
C2065 C2064 1.434 . S
C2066 C2067 1.369 . S
C2066 C2068 1.419 . S
C2066 H2070 0.930 . S
C2067 C2066 1.369 . S
C2067 C2076 1.429 . S
C2068 C2066 1.419 . S
C2068 C2069 1.363 . S
C2068 H2071 0.929 . S
C2069 C2068 1.363 . S
C2069 C2075 1.428 . S
H2070 C2066 0.930 . S
H2071 C2068 0.929 . S
S2072 N2073 1.613 . S
S2072 N2074 1.610 . S
N2073 S2072 1.613 . S
N2073 C2076 1.350 . S
N2074 S2072 1.610 . S
N2074 C2075 1.351 . S
C2075 C2069 1.428 . S
C2075 N2074 1.351 . S
C2075 C2076 1.434 . S
C2076 C2067 1.429 . S
C2076 N2073 1.350 . S
C2076 C2075 1.434 . S
C2077 C2078 1.369 . S
C2077 C2079 1.419 . S
C2077 H2081 0.930 . S
C2078 C2077 1.369 . S
C2078 C2087 1.429 . S
C2079 C2077 1.419 . S
C2079 C2080 1.363 . S
C2079 H2082 0.929 . S
C2080 C2079 1.363 . S
C2080 C2086 1.428 . S
H2081 C2077 0.930 . S
H2082 C2079 0.929 . S
S2083 N2084 1.598 1_455 S
S2083 N2085 1.605 1_455 S
N2084 S2083 1.598 1_655 S
N2084 C2087 1.350 . S
N2085 S2083 1.605 1_655 S
N2085 C2086 1.351 . S
C2086 C2080 1.428 . S
C2086 N2085 1.351 . S
C2086 C2087 1.434 . S
C2087 C2078 1.429 . S
C2087 N2084 1.350 . S
C2087 C2086 1.434 . S
C2088 C2089 1.369 . S
C2088 C2090 1.419 . S
C2088 H2092 0.930 . S
C2089 C2088 1.369 . S
C2089 C2098 1.429 1_455 S
C2090 C2088 1.419 . S
C2090 C2091 1.363 . S
C2090 H2093 0.929 . S
C2091 C2090 1.363 . S
C2091 C2097 1.428 1_455 S
H2092 C2088 0.930 . S
H2093 C2090 0.929 . S
S2094 N2095 1.613 . S
S2094 N2096 1.610 . S
N2095 S2094 1.613 . S
N2095 C2098 1.350 . S
N2096 S2094 1.610 . S
N2096 C2097 1.351 . S
C2097 C2091 1.428 1_655 S
C2097 N2096 1.351 . S
C2097 C2098 1.434 . S
C2098 C2089 1.429 1_655 S
C2098 N2095 1.350 . S
C2098 C2097 1.434 . S
C2099 C2100 1.369 . S
C2099 C2101 1.419 . S
C2099 H2103 0.930 . S
C2100 C2099 1.369 . S
C2100 C2109 1.429 . S
C2101 C2099 1.419 . S
C2101 C2102 1.363 . S
C2101 H2104 0.929 . S
C2102 C2101 1.363 . S
C2102 C2108 1.428 . S
H2103 C2099 0.930 . S
H2104 C2101 0.929 . S
S2105 N2106 1.613 . S
S2105 N2107 1.610 . S
N2106 S2105 1.613 . S
N2106 C2109 1.350 . S
N2107 S2105 1.610 . S
N2107 C2108 1.351 . S
C2108 C2102 1.428 . S
C2108 N2107 1.351 . S
C2108 C2109 1.434 . S
C2109 C2100 1.429 . S
C2109 N2106 1.350 . S
C2109 C2108 1.434 . S
C2110 C2111 1.369 1_545 S
C2110 C2112 1.419 . S
C2110 H2114 0.930 . S
C2111 C2110 1.369 1_565 S
C2111 C2120 1.429 . S
C2112 C2110 1.419 . S
C2112 C2113 1.363 . S
C2112 H2115 0.929 . S
C2113 C2112 1.363 . S
C2113 C2119 1.428 1_545 S
H2114 C2110 0.930 . S
H2115 C2112 0.929 . S
S2116 N2117 1.613 . S
S2116 N2118 1.610 . S
N2117 S2116 1.613 . S
N2117 C2120 1.350 . S
N2118 S2116 1.610 . S
N2118 C2119 1.351 . S
C2119 C2113 1.428 1_565 S
C2119 N2118 1.351 . S
C2119 C2120 1.434 . S
C2120 C2111 1.429 . S
C2120 N2117 1.350 . S
C2120 C2119 1.434 . S
C2121 C2122 1.369 . S
C2121 C2123 1.419 . S
C2121 H2125 0.930 . S
C2122 C2121 1.369 . S
C2122 C2131 1.429 . S
C2123 C2121 1.419 . S
C2123 C2124 1.363 . S
C2123 H2126 0.929 . S
C2124 C2123 1.363 . S
C2124 C2130 1.428 . S
H2125 C2121 0.930 . S
H2126 C2123 0.929 . S
S2127 N2128 1.613 . S
S2127 N2129 1.610 . S
N2128 S2127 1.613 . S
N2128 C2131 1.350 . S
N2129 S2127 1.610 . S
N2129 C2130 1.351 . S
C2130 C2124 1.428 . S
C2130 N2129 1.351 . S
C2130 C2131 1.434 . S
C2131 C2122 1.429 . S
C2131 N2128 1.350 . S
C2131 C2130 1.434 . S
C2132 C2133 1.369 . S
C2132 C2134 1.419 . S
C2132 H2136 0.930 . S
C2133 C2132 1.369 . S
C2133 C2142 1.429 1_655 S
C2134 C2132 1.419 . S
C2134 C2135 1.363 . S
C2134 H2137 0.929 . S
C2135 C2134 1.363 . S
C2135 C2141 1.428 1_655 S
H2136 C2132 0.930 . S
H2137 C2134 0.929 . S
S2138 N2139 1.613 . S
S2138 N2140 1.610 . S
N2139 S2138 1.613 . S
N2139 C2142 1.350 . S
N2140 S2138 1.610 . S
N2140 C2141 1.351 . S
C2141 C2135 1.428 1_455 S
C2141 N2140 1.351 . S
C2141 C2142 1.434 . S
C2142 C2133 1.429 1_455 S
C2142 N2139 1.350 . S
C2142 C2141 1.434 . S
C2143 C2144 1.369 . S
C2143 C2145 1.419 . S
C2143 H2147 0.930 . S
C2144 C2143 1.369 . S
C2144 C2153 1.429 . S
C2145 C2143 1.419 . S
C2145 C2146 1.363 . S
C2145 H2148 0.929 . S
C2146 C2145 1.363 . S
C2146 C2152 1.428 . S
H2147 C2143 0.930 . S
H2148 C2145 0.929 . S
S2149 N2150 1.613 . S
S2149 N2151 1.610 . S
N2150 S2149 1.613 . S
N2150 C2153 1.350 . S
N2151 S2149 1.610 . S
N2151 C2152 1.351 . S
C2152 C2146 1.428 . S
C2152 N2151 1.351 . S
C2152 C2153 1.434 . S
C2153 C2144 1.429 . S
C2153 N2150 1.350 . S
C2153 C2152 1.434 . S
C2154 C2155 1.369 . S
C2154 C2156 1.419 . S
C2154 H2158 0.930 . S
C2155 C2154 1.369 . S
C2155 C2164 1.429 . S
C2156 C2154 1.419 . S
C2156 C2157 1.363 . S
C2156 H2159 0.929 . S
C2157 C2156 1.363 . S
C2157 C2163 1.428 . S
H2158 C2154 0.930 . S
H2159 C2156 0.929 . S
S2160 N2161 1.613 . S
S2160 N2162 1.610 . S
N2161 S2160 1.613 . S
N2161 C2164 1.350 1_655 S
N2162 S2160 1.610 . S
N2162 C2163 1.351 1_655 S
C2163 C2157 1.428 . S
C2163 N2162 1.351 1_455 S
C2163 C2164 1.434 . S
C2164 C2155 1.429 . S
C2164 N2161 1.350 1_455 S
C2164 C2163 1.434 . S
C2165 C2166 1.369 . S
C2165 C2167 1.419 . S
C2165 H2169 0.930 . S
C2166 C2165 1.369 . S
C2166 C2175 1.429 . S
C2167 C2165 1.419 . S
C2167 C2168 1.363 . S
C2167 H2170 0.929 . S
C2168 C2167 1.363 . S
C2168 C2174 1.428 . S
H2169 C2165 0.930 . S
H2170 C2167 0.929 . S
S2171 N2172 1.613 . S
S2171 N2173 1.610 . S
N2172 S2171 1.613 . S
N2172 C2175 1.350 . S
N2173 S2171 1.610 . S
N2173 C2174 1.351 . S
C2174 C2168 1.428 . S
C2174 N2173 1.351 . S
C2174 C2175 1.434 . S
C2175 C2166 1.429 . S
C2175 N2172 1.350 . S
C2175 C2174 1.434 . S
C2176 C2177 1.369 . S
C2176 C2178 1.419 . S
C2176 H2180 0.930 . S
C2177 C2176 1.369 . S
C2177 C2186 1.429 . S
C2178 C2176 1.419 . S
C2178 C2179 1.363 . S
C2178 H2181 0.929 . S
C2179 C2178 1.363 . S
C2179 C2185 1.428 . S
H2180 C2176 0.930 . S
H2181 C2178 0.929 . S
S2182 N2183 1.613 . S
S2182 N2184 1.610 . S
N2183 S2182 1.613 . S
N2183 C2186 1.350 . S
N2184 S2182 1.610 . S
N2184 C2185 1.351 . S
C2185 C2179 1.428 . S
C2185 N2184 1.351 . S
C2185 C2186 1.434 . S
C2186 C2177 1.429 . S
C2186 N2183 1.350 . S
C2186 C2185 1.434 . S
C2187 C2188 1.369 . S
C2187 C2189 1.419 . S
C2187 H2191 0.930 . S
C2188 C2187 1.369 . S
C2188 C2197 1.429 . S
C2189 C2187 1.419 . S
C2189 C2190 1.363 . S
C2189 H2192 0.929 . S
C2190 C2189 1.363 . S
C2190 C2196 1.428 . S
H2191 C2187 0.930 . S
H2192 C2189 0.929 . S
S2193 N2194 1.613 . S
S2193 N2195 1.610 . S
N2194 S2193 1.613 . S
N2194 C2197 1.350 . S
N2195 S2193 1.610 . S
N2195 C2196 1.351 . S
C2196 C2190 1.428 . S
C2196 N2195 1.351 . S
C2196 C2197 1.434 . S
C2197 C2188 1.429 . S
C2197 N2194 1.350 . S
C2197 C2196 1.434 . S
C2198 C2199 1.369 . S
C2198 C2200 1.419 . S
C2198 H2202 0.930 . S
C2199 C2198 1.369 . S
C2199 C2208 1.429 . S
C2200 C2198 1.419 . S
C2200 C2201 1.363 . S
C2200 H2203 0.929 . S
C2201 C2200 1.363 . S
C2201 C2207 1.428 . S
H2202 C2198 0.930 . S
H2203 C2200 0.929 . S
S2204 N2205 1.613 . S
S2204 N2206 1.610 . S
N2205 S2204 1.613 . S
N2205 C2208 1.350 . S
N2206 S2204 1.610 . S
N2206 C2207 1.351 . S
C2207 C2201 1.428 . S
C2207 N2206 1.351 . S
C2207 C2208 1.434 . S
C2208 C2199 1.429 . S
C2208 N2205 1.350 . S
C2208 C2207 1.434 . S
C2209 C2210 1.369 . S
C2209 C2211 1.419 . S
C2209 H2213 0.930 . S
C2210 C2209 1.369 . S
C2210 C2219 1.429 . S
C2211 C2209 1.419 . S
C2211 C2212 1.363 . S
C2211 H2214 0.929 . S
C2212 C2211 1.363 . S
C2212 C2218 1.428 . S
H2213 C2209 0.930 . S
H2214 C2211 0.929 . S
S2215 N2216 1.613 . S
S2215 N2217 1.610 . S
N2216 S2215 1.613 . S
N2216 C2219 1.350 . S
N2217 S2215 1.610 . S
N2217 C2218 1.351 . S
C2218 C2212 1.428 . S
C2218 N2217 1.351 . S
C2218 C2219 1.434 . S
C2219 C2210 1.429 . S
C2219 N2216 1.350 . S
C2219 C2218 1.434 . S
C2220 C2221 1.369 . S
C2220 C2222 1.419 . S
C2220 H2224 0.930 . S
C2221 C2220 1.369 . S
C2221 C2230 1.429 1_655 S
C2222 C2220 1.419 . S
C2222 C2223 1.363 . S
C2222 H2225 0.929 . S
C2223 C2222 1.363 . S
C2223 C2229 1.428 1_655 S
H2224 C2220 0.930 . S
H2225 C2222 0.929 . S
S2226 N2227 1.613 . S
S2226 N2228 1.610 . S
N2227 S2226 1.613 . S
N2227 C2230 1.350 . S
N2228 S2226 1.610 . S
N2228 C2229 1.351 . S
C2229 C2223 1.428 1_455 S
C2229 N2228 1.351 . S
C2229 C2230 1.434 . S
C2230 C2221 1.429 1_455 S
C2230 N2227 1.350 . S
C2230 C2229 1.434 . S
C2231 C2232 1.369 . S
C2231 C2233 1.419 . S
C2231 H2235 0.930 . S
C2232 C2231 1.369 . S
C2232 C2241 1.429 . S
C2233 C2231 1.419 . S
C2233 C2234 1.363 . S
C2233 H2236 0.929 . S
C2234 C2233 1.363 . S
C2234 C2240 1.428 . S
H2235 C2231 0.930 . S
H2236 C2233 0.929 . S
S2237 N2238 1.613 . S
S2237 N2239 1.610 . S
N2238 S2237 1.613 . S
N2238 C2241 1.350 . S
N2239 S2237 1.610 . S
N2239 C2240 1.351 . S
C2240 C2234 1.428 . S
C2240 N2239 1.351 . S
C2240 C2241 1.434 . S
C2241 C2232 1.429 . S
C2241 N2238 1.350 . S
C2241 C2240 1.434 . S
C2242 C2243 1.369 1_565 S
C2242 C2244 1.419 . S
C2242 H2246 0.930 . S
C2243 C2242 1.369 1_545 S
C2243 C2252 1.429 . S
C2244 C2242 1.419 . S
C2244 C2245 1.363 . S
C2244 H2247 0.929 . S
C2245 C2244 1.363 . S
C2245 C2251 1.428 1_565 S
H2246 C2242 0.930 . S
H2247 C2244 0.929 . S
S2248 N2249 1.613 . S
S2248 N2250 1.610 . S
N2249 S2248 1.613 . S
N2249 C2252 1.350 . S
N2250 S2248 1.610 . S
N2250 C2251 1.351 . S
C2251 C2245 1.428 1_545 S
C2251 N2250 1.351 . S
C2251 C2252 1.434 . S
C2252 C2243 1.429 . S
C2252 N2249 1.350 . S
C2252 C2251 1.434 . S
C2253 C2254 1.369 . S
C2253 C2255 1.419 . S
C2253 H2257 0.930 . S
C2254 C2253 1.369 . S
C2254 C2263 1.429 . S
C2255 C2253 1.419 . S
C2255 C2256 1.363 . S
C2255 H2258 0.929 1_565 S
C2256 C2255 1.363 . S
C2256 C2262 1.428 . S
H2257 C2253 0.930 . S
H2258 C2255 0.929 1_545 S
S2259 N2260 1.613 . S
S2259 N2261 1.610 . S
N2260 S2259 1.613 . S
N2260 C2263 1.350 . S
N2261 S2259 1.610 . S
N2261 C2262 1.351 . S
C2262 C2256 1.428 . S
C2262 N2261 1.351 . S
C2262 C2263 1.434 . S
C2263 C2254 1.429 . S
C2263 N2260 1.350 . S
C2263 C2262 1.434 . S
C2264 C2265 1.409 . S
C2264 C2266 1.419 . S
C2264 H2268 0.930 . S
C2265 C2264 1.409 . S
C2265 C2274 1.391 1_455 S
C2266 C2264 1.419 . S
C2266 C2267 1.363 . S
C2266 H2269 0.929 . S
C2267 C2266 1.363 . S
C2267 C2273 1.428 1_455 S
H2268 C2264 0.930 . S
H2269 C2266 0.929 . S
S2270 N2271 1.613 . S
S2270 N2272 1.610 . S
N2271 S2270 1.613 . S
N2271 C2274 1.350 . S
N2272 S2270 1.610 . S
N2272 C2273 1.351 . S
C2273 C2267 1.428 1_655 S
C2273 N2272 1.351 . S
C2273 C2274 1.434 . S
C2274 C2265 1.391 1_655 S
C2274 N2271 1.350 . S
C2274 C2273 1.434 . S
C2275 C2276 1.369 . S
C2275 C2277 1.419 . S
C2275 H2279 0.930 . S
C2276 C2275 1.369 . S
C2276 C2285 1.429 . S
C2277 C2275 1.419 . S
C2277 C2278 1.363 . S
C2277 H2280 0.929 . S
C2278 C2277 1.363 . S
C2278 C2284 1.428 . S
H2279 C2275 0.930 . S
H2280 C2277 0.929 . S
S2281 N2282 1.613 . S
S2281 N2283 1.610 . S
N2282 S2281 1.613 . S
N2282 C2285 1.350 . S
N2283 S2281 1.610 . S
N2283 C2284 1.351 . S
C2284 C2278 1.428 . S
C2284 N2283 1.351 . S
C2284 C2285 1.434 . S
C2285 C2276 1.429 . S
C2285 N2282 1.350 . S
C2285 C2284 1.434 . S
C2286 C2287 1.369 . S
C2286 C2288 1.419 . S
C2286 H2290 0.930 . S
C2287 C2286 1.369 . S
C2287 C2296 1.429 . S
C2288 C2286 1.419 . S
C2288 C2289 1.363 . S
C2288 H2291 0.929 . S
C2289 C2288 1.363 . S
C2289 C2295 1.428 . S
H2290 C2286 0.930 . S
H2291 C2288 0.929 . S
S2292 N2293 1.613 . S
S2292 N2294 1.610 . S
N2293 S2292 1.613 . S
N2293 C2296 1.350 . S
N2294 S2292 1.610 . S
N2294 C2295 1.351 . S
C2295 C2289 1.428 . S
C2295 N2294 1.351 . S
C2295 C2296 1.434 . S
C2296 C2287 1.429 . S
C2296 N2293 1.350 . S
C2296 C2295 1.434 . S
C2297 C2298 1.369 . S
C2297 C2299 1.419 . S
C2297 H2301 0.930 . S
C2298 C2297 1.369 . S
C2298 C2307 1.429 . S
C2299 C2297 1.419 . S
C2299 C2300 1.363 . S
C2299 H2302 0.929 . S
C2300 C2299 1.363 . S
C2300 C2306 1.428 . S
H2301 C2297 0.930 . S
H2302 C2299 0.929 . S
S2303 N2304 1.613 . S
S2303 N2305 1.610 . S
N2304 S2303 1.613 . S
N2304 C2307 1.350 . S
N2305 S2303 1.610 . S
N2305 C2306 1.351 . S
C2306 C2300 1.428 . S
C2306 N2305 1.351 . S
C2306 C2307 1.434 . S
C2307 C2298 1.429 . S
C2307 N2304 1.350 . S
C2307 C2306 1.434 . S
C2308 C2309 1.369 . S
C2308 C2310 1.419 . S
C2308 H2312 0.930 . S
C2309 C2308 1.369 . S
C2309 C2318 1.429 . S
C2310 C2308 1.419 . S
C2310 C2311 1.363 . S
C2310 H2313 0.929 . S
C2311 C2310 1.363 . S
C2311 C2317 1.428 . S
H2312 C2308 0.930 . S
H2313 C2310 0.929 . S
S2314 N2315 1.613 . S
S2314 N2316 1.610 . S
N2315 S2314 1.613 . S
N2315 C2318 1.350 . S
N2316 S2314 1.610 . S
N2316 C2317 1.351 . S
C2317 C2311 1.428 . S
C2317 N2316 1.351 . S
C2317 C2318 1.434 . S
C2318 C2309 1.429 . S
C2318 N2315 1.350 . S
C2318 C2317 1.434 . S
C2319 C2320 1.369 . S
C2319 C2321 1.419 . S
C2319 H2323 0.930 . S
C2320 C2319 1.369 . S
C2320 C2329 1.429 . S
C2321 C2319 1.419 . S
C2321 C2322 1.363 . S
C2321 H2324 0.929 . S
C2322 C2321 1.363 . S
C2322 C2328 1.428 . S
H2323 C2319 0.930 . S
H2324 C2321 0.929 . S
S2325 N2326 1.613 . S
S2325 N2327 1.610 . S
N2326 S2325 1.613 . S
N2326 C2329 1.350 . S
N2327 S2325 1.610 . S
N2327 C2328 1.351 . S
C2328 C2322 1.428 . S
C2328 N2327 1.351 . S
C2328 C2329 1.434 . S
C2329 C2320 1.429 . S
C2329 N2326 1.350 . S
C2329 C2328 1.434 . S
C2330 C2331 1.369 . S
C2330 C2332 1.419 . S
C2330 H2334 0.930 . S
C2331 C2330 1.369 . S
C2331 C2340 1.429 . S
C2332 C2330 1.419 . S
C2332 C2333 1.363 . S
C2332 H2335 0.929 . S
C2333 C2332 1.363 . S
C2333 C2339 1.428 . S
H2334 C2330 0.930 . S
H2335 C2332 0.929 . S
S2336 N2337 1.613 . S
S2336 N2338 1.610 . S
N2337 S2336 1.613 . S
N2337 C2340 1.350 . S
N2338 S2336 1.610 . S
N2338 C2339 1.351 . S
C2339 C2333 1.428 . S
C2339 N2338 1.351 . S
C2339 C2340 1.434 . S
C2340 C2331 1.429 . S
C2340 N2337 1.350 . S
C2340 C2339 1.434 . S
C2341 C2342 1.369 . S
C2341 C2343 1.419 . S
C2341 H2345 0.930 . S
C2342 C2341 1.369 . S
C2342 C2351 1.429 . S
C2343 C2341 1.419 . S
C2343 C2344 1.363 . S
C2343 H2346 0.929 . S
C2344 C2343 1.363 . S
C2344 C2350 1.428 . S
H2345 C2341 0.930 . S
H2346 C2343 0.929 . S
S2347 N2348 1.613 . S
S2347 N2349 1.610 . S
N2348 S2347 1.613 . S
N2348 C2351 1.350 . S
N2349 S2347 1.610 . S
N2349 C2350 1.351 . S
C2350 C2344 1.428 . S
C2350 N2349 1.351 . S
C2350 C2351 1.434 . S
C2351 C2342 1.429 . S
C2351 N2348 1.350 . S
C2351 C2350 1.434 . S
C2352 C2353 1.369 . S
C2352 C2354 1.419 . S
C2352 H2356 0.930 . S
C2353 C2352 1.369 . S
C2353 C2362 1.429 . S
C2354 C2352 1.419 . S
C2354 C2355 1.363 . S
C2354 H2357 0.929 . S
C2355 C2354 1.363 . S
C2355 C2361 1.428 . S
H2356 C2352 0.930 . S
H2357 C2354 0.929 . S
S2358 N2359 1.613 . S
S2358 N2360 1.610 . S
N2359 S2358 1.613 . S
N2359 C2362 1.350 . S
N2360 S2358 1.610 . S
N2360 C2361 1.351 . S
C2361 C2355 1.428 . S
C2361 N2360 1.351 . S
C2361 C2362 1.434 . S
C2362 C2353 1.429 . S
C2362 N2359 1.350 . S
C2362 C2361 1.434 . S
C2363 C2364 1.369 . S
C2363 C2365 1.419 . S
C2363 H2367 0.930 . S
C2364 C2363 1.369 . S
C2364 C2373 1.429 . S
C2365 C2363 1.419 . S
C2365 C2366 1.363 . S
C2365 H2368 0.929 . S
C2366 C2365 1.363 . S
C2366 C2372 1.428 . S
H2367 C2363 0.930 . S
H2368 C2365 0.929 . S
S2369 N2370 1.613 . S
S2369 N2371 1.610 . S
N2370 S2369 1.613 . S
N2370 C2373 1.350 . S
N2371 S2369 1.610 . S
N2371 C2372 1.351 . S
C2372 C2366 1.428 . S
C2372 N2371 1.351 . S
C2372 C2373 1.434 . S
C2373 C2364 1.429 . S
C2373 N2370 1.350 . S
C2373 C2372 1.434 . S
C2374 C2375 1.369 . S
C2374 C2376 1.419 . S
C2374 H2378 0.930 . S
C2375 C2374 1.369 . S
C2375 C2384 1.429 . S
C2376 C2374 1.419 . S
C2376 C2377 1.363 . S
C2376 H2379 0.929 . S
C2377 C2376 1.363 . S
C2377 C2383 1.428 . S
H2378 C2374 0.930 . S
H2379 C2376 0.929 . S
S2380 N2381 1.613 . S
S2380 N2382 1.610 . S
N2381 S2380 1.613 . S
N2381 C2384 1.350 . S
N2382 S2380 1.610 . S
N2382 C2383 1.351 . S
C2383 C2377 1.428 . S
C2383 N2382 1.351 . S
C2383 C2384 1.434 . S
C2384 C2375 1.429 . S
C2384 N2381 1.350 . S
C2384 C2383 1.434 . S
C2385 C2386 1.369 . S
C2385 C2387 1.419 . S
C2385 H2389 0.930 . S
C2386 C2385 1.369 . S
C2386 C2395 1.429 . S
C2387 C2385 1.419 . S
C2387 C2388 1.363 . S
C2387 H2390 0.929 . S
C2388 C2387 1.363 . S
C2388 C2394 1.428 . S
H2389 C2385 0.930 . S
H2390 C2387 0.929 . S
S2391 N2392 1.613 . S
S2391 N2393 1.610 . S
N2392 S2391 1.613 . S
N2392 C2395 1.350 . S
N2393 S2391 1.610 . S
N2393 C2394 1.351 . S
C2394 C2388 1.428 . S
C2394 N2393 1.351 . S
C2394 C2395 1.434 . S
C2395 C2386 1.429 . S
C2395 N2392 1.350 . S
C2395 C2394 1.434 . S
C2396 C2397 1.369 . S
C2396 C2398 1.419 . S
C2396 H2400 0.930 . S
C2397 C2396 1.369 . S
C2397 C2406 1.429 . S
C2398 C2396 1.419 . S
C2398 C2399 1.363 . S
C2398 H2401 0.929 . S
C2399 C2398 1.363 . S
C2399 C2405 1.428 . S
H2400 C2396 0.930 . S
H2401 C2398 0.929 . S
S2402 N2403 1.613 . S
S2402 N2404 1.610 . S
N2403 S2402 1.613 . S
N2403 C2406 1.350 . S
N2404 S2402 1.610 . S
N2404 C2405 1.351 . S
C2405 C2399 1.428 . S
C2405 N2404 1.351 . S
C2405 C2406 1.434 . S
C2406 C2397 1.429 . S
C2406 N2403 1.350 . S
C2406 C2405 1.434 . S
C2407 C2408 1.369 . S
C2407 C2409 1.419 . S
C2407 H2411 0.930 . S
C2408 C2407 1.369 . S
C2408 C2417 1.429 . S
C2409 C2407 1.419 . S
C2409 C2410 1.363 . S
C2409 H2412 0.929 . S
C2410 C2409 1.363 . S
C2410 C2416 1.428 . S
H2411 C2407 0.930 . S
H2412 C2409 0.929 . S
S2413 N2414 1.613 . S
S2413 N2415 1.610 . S
N2414 S2413 1.613 . S
N2414 C2417 1.350 . S
N2415 S2413 1.610 . S
N2415 C2416 1.351 . S
C2416 C2410 1.428 . S
C2416 N2415 1.351 . S
C2416 C2417 1.434 . S
C2417 C2408 1.429 . S
C2417 N2414 1.350 . S
C2417 C2416 1.434 . S
C2418 C2419 1.369 . S
C2418 C2420 1.419 . S
C2418 H2422 0.930 . S
C2419 C2418 1.369 . S
C2419 C2428 1.429 . S
C2420 C2418 1.419 . S
C2420 C2421 1.363 . S
C2420 H2423 0.929 . S
C2421 C2420 1.363 . S
C2421 C2427 1.428 . S
H2422 C2418 0.930 . S
H2423 C2420 0.929 . S
S2424 N2425 1.613 . S
S2424 N2426 1.610 . S
N2425 S2424 1.613 . S
N2425 C2428 1.350 . S
N2426 S2424 1.610 . S
N2426 C2427 1.351 . S
C2427 C2421 1.428 . S
C2427 N2426 1.351 . S
C2427 C2428 1.434 . S
C2428 C2419 1.429 . S
C2428 N2425 1.350 . S
C2428 C2427 1.434 . S
C2429 C2430 1.369 1_554 S
C2429 C2431 1.419 . S
C2429 H2433 0.930 . S
C2430 C2429 1.369 1_556 S
C2430 C2439 1.429 . S
C2431 C2429 1.419 . S
C2431 C2432 1.363 1_554 S
C2431 H2434 0.929 . S
C2432 C2431 1.363 1_556 S
C2432 C2438 1.428 . S
H2433 C2429 0.930 . S
H2434 C2431 0.929 . S
S2435 N2436 1.613 . S
S2435 N2437 1.610 . S
N2436 S2435 1.613 . S
N2436 C2439 1.350 . S
N2437 S2435 1.610 . S
N2437 C2438 1.351 . S
C2438 C2432 1.428 . S
C2438 N2437 1.351 . S
C2438 C2439 1.434 . S
C2439 C2430 1.429 . S
C2439 N2436 1.350 . S
C2439 C2438 1.434 . S
C2440 C2441 1.369 . S
C2440 C2442 1.419 . S
C2440 H2444 0.930 . S
C2441 C2440 1.369 . S
C2441 C2450 1.429 . S
C2442 C2440 1.419 . S
C2442 C2443 1.363 . S
C2442 H2445 0.929 . S
C2443 C2442 1.363 . S
C2443 C2449 1.428 . S
H2444 C2440 0.930 . S
H2445 C2442 0.929 . S
S2446 N2447 1.613 1_655 S
S2446 N2448 1.610 1_655 S
N2447 S2446 1.613 1_455 S
N2447 C2450 1.350 . S
N2448 S2446 1.610 1_455 S
N2448 C2449 1.351 . S
C2449 C2443 1.428 . S
C2449 N2448 1.351 . S
C2449 C2450 1.434 . S
C2450 C2441 1.429 . S
C2450 N2447 1.350 . S
C2450 C2449 1.434 . S
C2451 C2452 1.369 . S
C2451 C2453 1.419 . S
C2451 H2455 0.930 . S
C2452 C2451 1.369 . S
C2452 C2461 1.429 . S
C2453 C2451 1.419 . S
C2453 C2454 1.363 . S
C2453 H2456 0.929 1_455 S
C2454 C2453 1.363 . S
C2454 C2460 1.428 . S
H2455 C2451 0.930 . S
H2456 C2453 0.929 1_655 S
S2457 N2458 1.613 . S
S2457 N2459 1.610 . S
N2458 S2457 1.613 . S
N2458 C2461 1.350 . S
N2459 S2457 1.610 . S
N2459 C2460 1.351 . S
C2460 C2454 1.428 . S
C2460 N2459 1.351 . S
C2460 C2461 1.434 . S
C2461 C2452 1.429 . S
C2461 N2458 1.350 . S
C2461 C2460 1.434 . S
C2462 C2463 1.369 . S
C2462 C2464 1.419 . S
C2462 H2466 0.930 . S
C2463 C2462 1.369 . S
C2463 C2472 1.429 . S
C2464 C2462 1.419 . S
C2464 C2465 1.363 . S
C2464 H2467 0.929 . S
C2465 C2464 1.363 . S
C2465 C2471 1.428 . S
H2466 C2462 0.930 . S
H2467 C2464 0.929 . S
S2468 N2469 1.613 . S
S2468 N2470 1.610 . S
N2469 S2468 1.613 . S
N2469 C2472 1.350 . S
N2470 S2468 1.610 . S
N2470 C2471 1.351 . S
C2471 C2465 1.428 . S
C2471 N2470 1.351 . S
C2471 C2472 1.434 . S
C2472 C2463 1.429 . S
C2472 N2469 1.350 . S
C2472 C2471 1.434 . S
C2473 C2474 1.369 . S
C2473 C2475 1.419 . S
C2473 H2477 0.930 . S
C2474 C2473 1.369 . S
C2474 C2483 1.429 . S
C2475 C2473 1.419 . S
C2475 C2476 1.363 . S
C2475 H2478 0.929 . S
C2476 C2475 1.363 . S
C2476 C2482 1.428 . S
H2477 C2473 0.930 . S
H2478 C2475 0.929 . S
S2479 N2480 1.613 . S
S2479 N2481 1.610 . S
N2480 S2479 1.613 . S
N2480 C2483 1.350 . S
N2481 S2479 1.610 . S
N2481 C2482 1.351 . S
C2482 C2476 1.428 . S
C2482 N2481 1.351 . S
C2482 C2483 1.434 . S
C2483 C2474 1.429 . S
C2483 N2480 1.350 . S
C2483 C2482 1.434 . S
C2484 C2485 1.369 . S
C2484 C2486 1.419 . S
C2484 H2488 0.930 . S
C2485 C2484 1.369 . S
C2485 C2494 1.429 . S
C2486 C2484 1.419 . S
C2486 C2487 1.363 . S
C2486 H2489 0.929 . S
C2487 C2486 1.363 . S
C2487 C2493 1.428 . S
H2488 C2484 0.930 . S
H2489 C2486 0.929 . S
S2490 N2491 1.613 . S
S2490 N2492 1.610 . S
N2491 S2490 1.613 . S
N2491 C2494 1.350 . S
N2492 S2490 1.610 . S
N2492 C2493 1.351 . S
C2493 C2487 1.428 . S
C2493 N2492 1.351 . S
C2493 C2494 1.434 . S
C2494 C2485 1.429 . S
C2494 N2491 1.350 . S
C2494 C2493 1.434 . S
C2495 C2496 1.369 . S
C2495 C2497 1.419 . S
C2495 H2499 0.930 . S
C2496 C2495 1.369 . S
C2496 C2505 1.429 . S
C2497 C2495 1.419 . S
C2497 C2498 1.363 . S
C2497 H2500 0.929 . S
C2498 C2497 1.363 . S
C2498 C2504 1.428 . S
H2499 C2495 0.930 . S
H2500 C2497 0.929 . S
S2501 N2502 1.613 . S
S2501 N2503 1.610 . S
N2502 S2501 1.613 . S
N2502 C2505 1.350 . S
N2503 S2501 1.610 . S
N2503 C2504 1.351 . S
C2504 C2498 1.428 . S
C2504 N2503 1.351 . S
C2504 C2505 1.434 . S
C2505 C2496 1.429 . S
C2505 N2502 1.350 . S
C2505 C2504 1.434 . S
C2506 C2507 1.369 . S
C2506 C2508 1.419 . S
C2506 H2510 0.930 . S
C2507 C2506 1.369 . S
C2507 C2516 1.429 . S
C2508 C2506 1.419 . S
C2508 C2509 1.363 . S
C2508 H2511 0.929 . S
C2509 C2508 1.363 . S
C2509 C2515 1.428 . S
H2510 C2506 0.930 . S
H2511 C2508 0.929 . S
S2512 N2513 1.613 . S
S2512 N2514 1.610 . S
N2513 S2512 1.613 . S
N2513 C2516 1.350 . S
N2514 S2512 1.610 . S
N2514 C2515 1.351 . S
C2515 C2509 1.428 . S
C2515 N2514 1.351 . S
C2515 C2516 1.434 . S
C2516 C2507 1.429 . S
C2516 N2513 1.350 . S
C2516 C2515 1.434 . S
C2517 C2518 1.369 . S
C2517 C2519 1.419 . S
C2517 H2521 0.930 . S
C2518 C2517 1.369 . S
C2518 C2527 1.429 . S
C2519 C2517 1.419 . S
C2519 C2520 1.363 . S
C2519 H2522 0.929 . S
C2520 C2519 1.363 . S
C2520 C2526 1.428 . S
H2521 C2517 0.930 . S
H2522 C2519 0.929 . S
S2523 N2524 1.613 . S
S2523 N2525 1.610 1_565 S
N2524 S2523 1.613 . S
N2524 C2527 1.350 1_565 S
N2525 S2523 1.610 1_545 S
N2525 C2526 1.351 . S
C2526 C2520 1.428 . S
C2526 N2525 1.351 . S
C2526 C2527 1.434 . S
C2527 C2518 1.429 . S
C2527 N2524 1.350 1_545 S
C2527 C2526 1.434 . S
C2528 C2529 1.369 . S
C2528 C2530 1.413 1_455 S
C2528 H2532 0.930 1_455 S
C2529 C2528 1.369 . S
C2529 C2538 1.429 . S
C2530 C2528 1.413 1_655 S
C2530 C2531 1.345 1_655 S
C2530 H2533 0.955 . S
C2531 C2530 1.345 1_455 S
C2531 C2537 1.428 . S
H2532 C2528 0.930 1_655 S
H2533 C2530 0.955 . S
S2534 N2535 1.613 . S
S2534 N2536 1.610 . S
N2535 S2534 1.613 . S
N2535 C2538 1.350 . S
N2536 S2534 1.610 . S
N2536 C2537 1.351 . S
C2537 C2531 1.428 . S
C2537 N2536 1.351 . S
C2537 C2538 1.434 . S
C2538 C2529 1.429 . S
C2538 N2535 1.350 . S
C2538 C2537 1.434 . S
C2539 C2540 1.369 . S
C2539 C2541 1.419 . S
C2539 H2543 0.930 . S
C2540 C2539 1.369 . S
C2540 C2549 1.429 . S
C2541 C2539 1.419 . S
C2541 C2542 1.363 . S
C2541 H2544 0.929 . S
C2542 C2541 1.363 . S
C2542 C2548 1.428 . S
H2543 C2539 0.930 . S
H2544 C2541 0.929 . S
S2545 N2546 1.613 . S
S2545 N2547 1.610 . S
N2546 S2545 1.613 . S
N2546 C2549 1.350 . S
N2547 S2545 1.610 . S
N2547 C2548 1.351 . S
C2548 C2542 1.428 . S
C2548 N2547 1.351 . S
C2548 C2549 1.434 . S
C2549 C2540 1.429 . S
C2549 N2546 1.350 . S
C2549 C2548 1.434 . S
C2550 C2551 1.369 . S
C2550 C2552 1.419 . S
C2550 H2554 0.930 . S
C2551 C2550 1.369 . S
C2551 C2560 1.429 . S
C2552 C2550 1.419 . S
C2552 C2553 1.363 . S
C2552 H2555 0.929 . S
C2553 C2552 1.363 . S
C2553 C2559 1.428 . S
H2554 C2550 0.930 . S
H2555 C2552 0.929 . S
S2556 N2557 1.613 . S
S2556 N2558 1.610 . S
N2557 S2556 1.613 . S
N2557 C2560 1.350 . S
N2558 S2556 1.610 . S
N2558 C2559 1.351 . S
C2559 C2553 1.428 . S
C2559 N2558 1.351 . S
C2559 C2560 1.434 . S
C2560 C2551 1.429 . S
C2560 N2557 1.350 . S
C2560 C2559 1.434 . S
C2561 C2562 1.369 . S
C2561 C2563 1.424 1_554 S
C2561 H2565 0.930 1_554 S
C2562 C2561 1.369 . S
C2562 C2571 1.429 . S
C2563 C2561 1.424 1_556 S
C2563 C2564 1.341 1_556 S
C2563 H2566 0.947 . S
C2564 C2563 1.341 1_554 S
C2564 C2570 1.428 . S
H2565 C2561 0.930 1_556 S
H2566 C2563 0.947 . S
S2567 N2568 1.613 . S
S2567 N2569 1.610 . S
N2568 S2567 1.613 . S
N2568 C2571 1.350 . S
N2569 S2567 1.610 . S
N2569 C2570 1.351 . S
C2570 C2564 1.428 . S
C2570 N2569 1.351 . S
C2570 C2571 1.434 . S
C2571 C2562 1.429 . S
C2571 N2568 1.350 . S
C2571 C2570 1.434 . S
C2572 C2573 1.369 . S
C2572 C2574 1.419 . S
C2572 H2576 0.930 . S
C2573 C2572 1.369 . S
C2573 C2582 1.429 . S
C2574 C2572 1.419 . S
C2574 C2575 1.363 . S
C2574 H2577 0.929 . S
C2575 C2574 1.363 . S
C2575 C2581 1.428 . S
H2576 C2572 0.930 . S
H2577 C2574 0.929 . S
S2578 N2579 1.613 . S
S2578 N2580 1.610 . S
N2579 S2578 1.613 . S
N2579 C2582 1.350 . S
N2580 S2578 1.610 . S
N2580 C2581 1.351 . S
C2581 C2575 1.428 . S
C2581 N2580 1.351 . S
C2581 C2582 1.434 . S
C2582 C2573 1.429 . S
C2582 N2579 1.350 . S
C2582 C2581 1.434 . S
C2583 C2584 1.369 1_455 S
C2583 C2585 1.419 . S
C2583 H2587 0.930 . S
C2584 C2583 1.369 1_655 S
C2584 C2593 1.429 . S
C2585 C2583 1.419 . S
C2585 C2586 1.363 1_455 S
C2585 H2588 0.929 . S
C2586 C2585 1.363 1_655 S
C2586 C2592 1.428 . S
H2587 C2583 0.930 . S
H2588 C2585 0.929 . S
S2589 N2590 1.613 . S
S2589 N2591 1.610 . S
N2590 S2589 1.613 . S
N2590 C2593 1.350 . S
N2591 S2589 1.610 . S
N2591 C2592 1.351 . S
C2592 C2586 1.428 . S
C2592 N2591 1.351 . S
C2592 C2593 1.434 . S
C2593 C2584 1.429 . S
C2593 N2590 1.350 . S
C2593 C2592 1.434 . S
C2594 C2595 1.369 . S
C2594 C2596 1.419 . S
C2594 H2598 0.930 . S
C2595 C2594 1.369 . S
C2595 C2604 1.429 . S
C2596 C2594 1.419 . S
C2596 C2597 1.363 . S
C2596 H2599 0.929 . S
C2597 C2596 1.363 . S
C2597 C2603 1.428 . S
H2598 C2594 0.930 . S
H2599 C2596 0.929 . S
S2600 N2601 1.613 . S
S2600 N2602 1.610 . S
N2601 S2600 1.613 . S
N2601 C2604 1.350 . S
N2602 S2600 1.610 . S
N2602 C2603 1.351 . S
C2603 C2597 1.428 . S
C2603 N2602 1.351 . S
C2603 C2604 1.434 . S
C2604 C2595 1.429 . S
C2604 N2601 1.350 . S
C2604 C2603 1.434 . S
C2605 C2606 1.369 . S
C2605 C2607 1.419 . S
C2605 H2609 0.930 . S
C2606 C2605 1.369 . S
C2606 C2615 1.429 . S
C2607 C2605 1.419 . S
C2607 C2608 1.363 . S
C2607 H2610 0.929 . S
C2608 C2607 1.363 . S
C2608 C2614 1.428 . S
H2609 C2605 0.930 . S
H2610 C2607 0.929 . S
S2611 N2612 1.613 . S
S2611 N2613 1.610 . S
N2612 S2611 1.613 . S
N2612 C2615 1.350 . S
N2613 S2611 1.610 . S
N2613 C2614 1.351 . S
C2614 C2608 1.428 . S
C2614 N2613 1.351 . S
C2614 C2615 1.434 . S
C2615 C2606 1.429 . S
C2615 N2612 1.350 . S
C2615 C2614 1.434 . S
C1827 C1813 2.357 . S
C1825 C15 2.392 . S
C1838 C1681 2.055 . S
C1836 C55 1.999 . S
C1849 C1777 2.051 . S
C1847 C95 2.109 . S
C1860 C1717 2.285 1_655 S
C1858 C135 2.277 . S
C1871 C1465 2.366 . S
C1869 C175 2.336 . S
C1880 C215 1.943 . S
C1882 C1501 1.932 . S
C1893 C1393 0.626 . S
C1891 C255 0.704 . S
C1902 C295 2.224 . S
C1904 C1429 2.366 . S
C1915 C1645 2.676 . S
C1913 C335 2.605 . S
C1924 C375 1.932 . S
C1926 C1573 1.870 . S
C1935 C415 1.989 . S
C1937 C1537 2.112 . S
C1948 C1609 1.743 . S
C1946 C455 1.671 . S
C1959 C1357 2.378 . S
C1957 C495 2.381 . S
C1968 C535 2.018 . S
C1970 C1249 1.950 . S
C1981 C1321 2.038 . S
C1979 C575 2.098 . S
C1990 C615 2.263 . S
C1992 C1285 2.225 1_455 S
C2003 C1033 2.300 . S
C2001 C655 2.347 . S
C2014 C1093 1.925 . S
C2012 C695 1.940 . S
C2023 C735 0.723 . S
C2025 C961 0.653 1_455 S
C2034 C775 2.238 . S
C2036 C1021 2.379 . S
C2045 C815 2.614 . S
C2047 C1213 2.713 . S
C2056 C855 1.914 . S
C2058 C1141 1.944 . S
C2069 C1105 2.011 . S
C2067 C895 1.975 . S
C2078 C935 1.666 . S
C2080 C1177 1.733 . S
C2091 C991 2.970 1_455 S
C2089 C21 3.635 . S
C2102 C1027 2.624 . S
C2100 C61 2.538 . S
C2111 C101 1.588 . S
C2113 C1063 1.506 . S
C2122 C141 1.704 . S
C2124 C1099 1.715 . S
C2135 C1135 1.923 1_655 S
C2133 C181 2.130 1_655 S
C2144 C221 2.014 . S
C2146 C1171 2.068 . S
C2157 C1207 1.465 . S
C2155 C261 1.462 . S
C2168 C1243 2.120 . S
C2166 C301 1.874 . S
C2179 C1279 2.532 . S
C2177 C341 2.432 . S
C2188 C381 1.950 . S
C2190 C1315 1.844 . S
C2199 C421 1.910 . S
C2201 C1351 1.884 . S
C2210 C461 1.490 . S
C2212 C1387 1.501 . S
C2221 C501 3.614 . S
C2223 C1423 2.963 . S
C2232 C541 2.650 . S
C2234 C1459 2.640 . S
C2243 C581 1.497 . S
C2245 C1495 1.545 . S
C2254 C621 1.555 . S
C2256 C1531 1.701 . S
C2265 C661 2.134 . S
C2267 C1567 1.977 1_455 S
C2278 C1603 1.961 . S
C2276 C701 2.067 . S
C2289 C1639 1.441 . S
C2287 C741 1.425 . S
C2300 C1675 2.104 . S
C2298 C781 2.041 . S
C2311 C1711 2.578 . S
C2309 C821 2.563 . S
C2320 C861 1.834 . S
C2322 C1747 1.915 . S
C2331 C901 1.764 . S
C2333 C1783 1.889 . S
C2342 C941 1.366 . S
C2344 C1819 1.509 . S
C2353 C2 2.584 . S
C2355 C1273 2.560 . S
C2366 C1381 2.281 . S
C2364 C42 2.187 . S
C2375 C82 1.847 . S
C2377 C1309 1.810 . S
C2388 C1345 1.821 . S
C2386 C122 1.838 . S
C2397 C162 2.557 . S
C2399 C985 2.425 . S
C2408 C202 1.306 . S
C2410 C997 1.297 . S
C2419 C242 1.792 . S
C2421 C1057 1.665 . S
C2430 C282 2.183 . S
C2432 C1069 2.336 1_556 S
C2443 C1129 1.967 . S
C2441 C322 1.961 . S
C2454 C1201 1.656 . S
C2452 C362 1.651 . S
C2463 C402 2.218 . S
C2465 C1237 2.192 . S
C2474 C442 1.874 . S
C2476 C1165 1.933 . S
C2487 C1705 2.632 . S
C2485 C482 2.460 . S
C2498 C1789 2.276 . S
C2496 C522 2.324 . S
C2507 C562 1.820 . S
C2509 C1741 1.845 . S
C2520 C1753 1.844 . S
C2518 C602 1.771 . S
C2529 C642 2.672 . S
C2531 C1417 2.472 1_455 S
C2540 C682 1.291 . S
C2542 C1453 1.304 . S
C2551 C722 1.680 . S
C2553 C1489 1.767 . S
C2564 C1525 2.351 1_554 S
C2562 C762 2.312 . S
C2575 C1561 2.022 . S
C2573 C802 2.046 . S
C2586 C1633 1.650 . S
C2584 C842 1.568 1_655 S
C2595 C882 2.047 . S
C2597 C1669 2.219 . S
C2608 C1597 1.908 . S
C2606 C922 1.731 . S
