# Generated by pormake.
# Topology nom, (4,4)-cn, num edge types: 1
# Building blocks:
#     Node 0, Type 0, BuildingBlock: KUFVIS_clean_linker_0, # of connection points: 4
#     Node 1, Type 0, BuildingBlock: KUFVIS_clean_linker_0, # of connection points: 4
#     Node 2, Type 0, BuildingBlock: KUFVIS_clean_linker_0, # of connection points: 4
#     Node 3, Type 0, BuildingBlock: KUFVIS_clean_linker_0, # of connection points: 4
#     Node 4, Type 0, BuildingBlock: KUFVIS_clean_linker_0, # of connection points: 4
#     Node 5, Type 0, BuildingBlock: KUFVIS_clean_linker_0, # of connection points: 4
#     Node 6, Type 1, BuildingBlock: UXUYUI_clean_sbu_0, # of connection points: 4
#     Node 7, Type 1, BuildingBlock: UXUYUI_clean_sbu_0, # of connection points: 4
#     Node 8, Type 1, BuildingBlock: UXUYUI_clean_sbu_0, # of connection points: 4
#     Node 9, Type 1, BuildingBlock: UXUYUI_clean_sbu_0, # of connection points: 4
#     Node 10, Type 1, BuildingBlock: UXUYUI_clean_sbu_0, # of connection points: 4
#     Node 11, Type 1, BuildingBlock: UXUYUI_clean_sbu_0, # of connection points: 4
#     Edge 12, Type (0, 1), BuildingBlock: CIFDUS_clean_linker_0, # of connection points: 2
#     Edge 13, Type (0, 1), BuildingBlock: CIFDUS_clean_linker_0, # of connection points: 2
#     Edge 14, Type (0, 1), BuildingBlock: CIFDUS_clean_linker_0, # of connection points: 2
#     Edge 15, Type (0, 1), BuildingBlock: CIFDUS_clean_linker_0, # of connection points: 2
#     Edge 16, Type (0, 1), BuildingBlock: CIFDUS_clean_linker_0, # of connection points: 2
#     Edge 17, Type (0, 1), BuildingBlock: CIFDUS_clean_linker_0, # of connection points: 2
#     Edge 18, Type (0, 1), BuildingBlock: CIFDUS_clean_linker_0, # of connection points: 2
#     Edge 19, Type (0, 1), BuildingBlock: CIFDUS_clean_linker_0, # of connection points: 2
#     Edge 20, Type (0, 1), BuildingBlock: CIFDUS_clean_linker_0, # of connection points: 2
#     Edge 21, Type (0, 1), BuildingBlock: CIFDUS_clean_linker_0, # of connection points: 2
#     Edge 22, Type (0, 1), BuildingBlock: CIFDUS_clean_linker_0, # of connection points: 2
#     Edge 23, Type (0, 1), BuildingBlock: CIFDUS_clean_linker_0, # of connection points: 2
#     Edge 24, Type (0, 1), BuildingBlock: CIFDUS_clean_linker_0, # of connection points: 2
#     Edge 25, Type (0, 1), BuildingBlock: CIFDUS_clean_linker_0, # of connection points: 2
#     Edge 26, Type (0, 1), BuildingBlock: CIFDUS_clean_linker_0, # of connection points: 2
#     Edge 27, Type (0, 1), BuildingBlock: CIFDUS_clean_linker_0, # of connection points: 2
#     Edge 28, Type (0, 1), BuildingBlock: CIFDUS_clean_linker_0, # of connection points: 2
#     Edge 29, Type (0, 1), BuildingBlock: CIFDUS_clean_linker_0, # of connection points: 2
#     Edge 30, Type (0, 1), BuildingBlock: CIFDUS_clean_linker_0, # of connection points: 2
#     Edge 31, Type (0, 1), BuildingBlock: CIFDUS_clean_linker_0, # of connection points: 2
#     Edge 32, Type (0, 1), BuildingBlock: CIFDUS_clean_linker_0, # of connection points: 2
#     Edge 33, Type (0, 1), BuildingBlock: CIFDUS_clean_linker_0, # of connection points: 2
#     Edge 34, Type (0, 1), BuildingBlock: CIFDUS_clean_linker_0, # of connection points: 2
#     Edge 35, Type (0, 1), BuildingBlock: CIFDUS_clean_linker_0, # of connection points: 2
# Relax obj value: 0.035
# Max RMSD: 0.147
# Mean RMSD: 0.094
data_MOF--net-nom--node1-UXUYUI_clean_sbu_0--node2-KUFVIS_clean_linker_0--edge1-CIFDUS_clean_linker_0
_symmetry_space_group_name_H-M    P1
_symmetry_Int_Tables_number       1
_symmetry_cell_setting            triclinic
loop_
_symmetry_equiv_pos_as_xyz
'x, y, z'
_cell_length_a     50.285165
_cell_length_b     50.173981
_cell_length_c     51.740235
_cell_angle_alpha  89.99803
_cell_angle_beta   90.133555
_cell_angle_gamma 120.19635
loop_
_atom_site_label
_atom_site_type_symbol
_atom_site_fract_x
_atom_site_fract_y
_atom_site_fract_z
_atom_type_partial_charge
H0 H 0.13808 0.60892 0.34133 0.0
H1 H 0.06613 0.57429 0.28426 0.0
H2 H 0.04778 0.53703 0.3619 0.0
H3 H 1.00248 0.5386 0.35293 0.0
H4 H 0.93276 0.47599 0.30054 0.0
H5 H 0.02719 0.52241 0.27683 0.0
C6 C 0.11416 0.59375 0.33603 0.0
C7 C 0.09387 0.57333 0.35438 0.0
C8 C 0.10451 0.59392 0.31067 0.0
C9 C 0.07362 0.57371 0.30379 0.0
C10 C 0.05243 0.55349 0.32238 0.0
C11 C 0.06317 0.55308 0.34756 0.0
C12 C 1.01922 0.53272 0.31589 0.0
C13 C 0.99624 0.52694 0.3344 0.0
C14 C 0.96509 0.50608 0.32912 0.0
C15 C 0.95687 0.49141 0.30506 0.0
C16 C 0.979 0.49753 0.28614 0.0
C17 C 1.01017 0.51822 0.29147 0.0
H18 H 0.55345 0.13571 0.50789 0.0
H19 H 0.51802 0.0626 0.45225 0.0
H20 H 0.53059 0.04496 0.53206 0.0
H21 H 0.48732 0.99878 0.52244 0.0
H22 H 0.47729 0.92894 0.46936 0.0
H23 H 0.52837 0.02376 0.44634 0.0
C24 C 0.54413 0.11147 0.50346 0.0
C25 C 0.542 0.09127 0.52302 0.0
C26 C 0.53604 0.10137 0.47798 0.0
C27 C 0.52489 0.07023 0.47197 0.0
C28 C 0.52212 0.04915 0.49144 0.0
C29 C 0.53142 0.06025 0.51691 0.0
C30 C 0.50981 1.01577 0.4853 0.0
C31 C 0.49255 0.99269 0.50382 0.0
C32 C 0.48173 0.96148 0.49834 0.0
C33 C 0.48714 0.9532 0.47397 0.0
C34 C 0.50346 0.9754 0.45503 0.0
C35 C 0.51504 1.00668 0.46085 0.0
H36 H 0.56502 0.4563 0.63808 0.0
H37 H 0.51296 0.47915 0.68962 0.0
H38 H 0.53684 0.52017 0.61346 0.0
H39 H 0.48641 0.51324 0.61954 0.0
H40 H 0.46604 0.56637 0.67251 0.0
H41 H 0.52342 0.53065 0.69734 0.0
C42 C 0.55366 0.4694 0.642 0.0
C43 C 0.5528 0.4888 0.62297 0.0
C44 C 0.53955 0.46602 0.66592 0.0
C45 C 0.52416 0.48222 0.6711 0.0
C46 C 0.52284 0.5019 0.6522 0.0
C47 C 0.53715 0.50484 0.62805 0.0
C48 C 0.50696 0.51964 0.65773 0.0
C49 C 0.48923 0.52361 0.63846 0.0
C50 C 0.47426 0.54022 0.64389 0.0
C51 C 0.47746 0.55338 0.66834 0.0
C52 C 0.49506 0.54995 0.68752 0.0
C53 C 0.5096 0.53293 0.68236 0.0
H54 H 0.13859 0.54841 0.80327 0.0
H55 H 0.06481 0.50889 0.85783 0.0
H56 H 0.04696 0.52014 0.77776 0.0
H57 H 1.00199 0.47458 0.78712 0.0
H58 H 0.9304 0.46252 0.83871 0.0
H59 H 0.02453 0.51748 0.86277 0.0
C60 C 0.11417 0.5378 0.80733 0.0
C61 C 0.09379 0.53444 0.78749 0.0
C62 C 0.10391 0.52911 0.83263 0.0
C63 C 0.07251 0.51612 0.83821 0.0
C64 C 0.0513 0.51212 0.81842 0.0
C65 C 0.06246 0.52197 0.79312 0.0
C66 C 1.01775 0.49819 0.82411 0.0
C67 C 0.99528 0.47972 0.8055 0.0
C68 C 0.9639 0.46758 0.81064 0.0
C69 C 0.95478 0.47304 0.83457 0.0
C70 C 0.97645 0.49046 0.85361 0.0
C71 C 1.0079 0.50327 0.84822 0.0
H72 H 0.5019 0.92563 0.01312 0.0
H73 H 0.54903 0.99407 0.95477 0.0
H74 H 0.54123 0.02106 0.03276 0.0
H75 H 0.58834 0.06269 0.02164 0.0
H76 H 0.6094 0.1315 0.96353 0.0
H77 H 0.54506 0.0371 0.94611 0.0
C78 C 0.51438 0.94967 0.00731 0.0
C79 C 0.52111 0.97255 0.02573 0.0
C80 C 0.52382 0.95721 0.98166 0.0
C81 C 0.54094 0.98842 0.97449 0.0
C82 C 0.54736 1.01208 0.99269 0.0
C83 C 0.53698 1.00366 0.01839 0.0
C84 C 0.56464 0.04533 0.98485 0.0
C85 C 0.58477 0.06861 0.00233 0.0
C86 C 0.60114 0.09972 0.99464 0.0
C87 C 0.59724 0.10752 0.96953 0.0
C88 C 0.57731 0.08507 0.95214 0.0
C89 C 0.56094 0.0541 0.95972 0.0
H90 H 0.49258 0.58969 0.1376 0.0
H91 H 0.54954 0.57711 0.19174 0.0
H92 H 0.53297 0.53549 0.11561 0.0
H93 H 0.57995 0.54156 0.12224 0.0
H94 H 0.61631 0.50727 0.17979 0.0
H95 H 0.55177 0.53477 0.2023 0.0
C96 C 0.50613 0.57905 0.14243 0.0
C97 C 0.5114 0.56216 0.12367 0.0
C98 C 0.5192 0.58385 0.16704 0.0
C99 C 0.53859 0.57211 0.17293 0.0
C100 C 0.54372 0.55413 0.15466 0.0
C101 C 0.52988 0.54939 0.12995 0.0
C102 C 0.56346 0.54052 0.1614 0.0
C103 C 0.58065 0.53559 0.14223 0.0
C104 C 0.59961 0.52355 0.14894 0.0
C105 C 0.60191 0.51691 0.17476 0.0
C106 C 0.58505 0.52127 0.19403 0.0
C107 C 0.56538 0.53242 0.18727 0.0
Li108 Li 0.65952 0.41817 0.43482 0.0
Li109 Li 0.64591 0.37172 0.41011 0.0
Li110 Li 0.69864 0.41665 0.40764 0.0
Li111 Li 0.65497 0.41792 0.38728 0.0
C112 C 0.69199 0.39283 0.46068 0.0
N113 N 0.72172 0.39777 0.50691 0.0
C114 C 0.68073 0.36765 0.47746 0.0
C115 C 0.71848 0.42043 0.46729 0.0
C116 C 0.69606 0.37064 0.50078 0.0
C117 C 0.73316 0.42249 0.49078 0.0
C118 C 0.59708 0.37786 0.42871 0.0
C119 C 0.5441 0.36032 0.43917 0.0
N120 N 0.54674 0.34613 0.46062 0.0
C121 C 0.59929 0.36313 0.45087 0.0
C122 C 0.5693 0.37648 0.4228 0.0
C123 C 0.57358 0.3472 0.46675 0.0
C124 C 0.64424 0.45732 0.46079 0.0
N125 N 0.65169 0.43509 0.46489 0.0
C126 C 0.64494 0.437 0.51038 0.0
C127 C 0.65198 0.42467 0.48908 0.0
C128 C 0.63709 0.45995 0.50675 0.0
C129 C 0.63672 0.4701 0.48155 0.0
H130 H 0.64385 0.4649 0.44128 0.0
H131 H 0.65702 0.40638 0.49191 0.0
C132 C 0.63755 0.31268 0.4187 0.0
N133 N 0.62277 0.32767 0.4108 0.0
C134 C 0.6212 0.28075 0.4223 0.0
C135 C 0.57485 0.28015 0.40879 0.0
C136 C 0.59217 0.31204 0.40516 0.0
C137 C 0.58928 0.26419 0.41794 0.0
H138 H 0.6619 0.32571 0.42305 0.0
H139 H 0.58097 0.32443 0.39865 0.0
C140 C 0.70881 0.47928 0.4118 0.0
N141 N 0.75233 0.54116 0.4158 0.0
C142 C 0.71792 0.49802 0.38984 0.0
C143 C 0.72145 0.49213 0.43586 0.0
C144 C 0.74008 0.52921 0.39224 0.0
C145 C 0.74352 0.52343 0.43747 0.0
C146 C 0.65695 0.37233 0.35772 0.0
C147 C 0.67269 0.3634 0.34084 0.0
C148 C 0.62595 0.36254 0.35318 0.0
C149 C 0.65713 0.34476 0.31962 0.0
C150 C 0.6112 0.34392 0.33175 0.0
N151 N 0.62696 0.33549 0.31556 0.0
C152 C 0.7524 0.41223 0.4138 0.0
C153 C 0.75924 0.45459 0.38854 0.0
C154 C 0.78283 0.41985 0.40931 0.0
N155 N 0.74123 0.42953 0.40339 0.0
C156 C 0.78981 0.4631 0.38361 0.0
C157 C 0.80188 0.44539 0.39375 0.0
H158 H 0.73746 0.39205 0.42513 0.0
H159 H 0.74961 0.46738 0.37977 0.0
C160 C 0.62233 0.44282 0.36201 0.0
N161 N 0.64466 0.43531 0.35936 0.0
C162 C 0.61641 0.45782 0.34196 0.0
C163 C 0.65635 0.4566 0.31692 0.0
C164 C 0.66145 0.44165 0.33737 0.0
C165 C 0.63385 0.46526 0.31917 0.0
H166 H 0.60959 0.43772 0.3799 0.0
H167 H 0.67922 0.43559 0.33596 0.0
O168 O 0.67707 0.39026 0.43788 0.0
O169 O 0.62191 0.39365 0.41282 0.0
O170 O 0.68686 0.44877 0.40981 0.0
O171 O 0.67192 0.39048 0.37862 0.0
H172 H 0.66025 0.3461 0.47258 0.0
H173 H 0.72776 0.43993 0.45435 0.0
H174 H 0.68754 0.35139 0.51401 0.0
H175 H 0.75369 0.44373 0.49615 0.0
H176 H 0.52243 0.35904 0.43482 0.0
H177 H 0.62054 0.36385 0.45575 0.0
H178 H 0.56723 0.38776 0.40571 0.0
H179 H 0.57496 0.33567 0.48394 0.0
H180 H 0.64485 0.42807 0.52946 0.0
H181 H 0.63079 0.48775 0.47796 0.0
H182 H 0.63313 0.26939 0.42969 0.0
H183 H 0.55032 0.26818 0.40508 0.0
H184 H 0.70815 0.48853 0.37111 0.0
H185 H 0.71412 0.47822 0.45318 0.0
H186 H 0.7475 0.54393 0.37538 0.0
H187 H 0.75354 0.53366 0.45596 0.0
H188 H 0.6967 0.37079 0.34413 0.0
H189 H 0.61337 0.36923 0.36601 0.0
H190 H 0.66903 0.33766 0.30638 0.0
H191 H 0.58722 0.33617 0.328 0.0
H192 H 0.79117 0.40556 0.41753 0.0
H193 H 0.80339 0.48252 0.37102 0.0
H194 H 0.599 0.46426 0.34452 0.0
H195 H 0.66998 0.46143 0.29953 0.0
Li196 Li 0.27007 0.64957 0.59702 0.0
Li197 Li 0.30776 0.64262 0.57318 0.0
Li198 Li 0.30889 0.69036 0.57011 0.0
Li199 Li 0.26747 0.64645 0.54778 0.0
C200 C 0.32343 0.69032 0.62294 0.0
N201 N 0.33934 0.72783 0.66604 0.0
C202 C 0.34343 0.68977 0.64145 0.0
C203 C 0.31158 0.70999 0.62633 0.0
C204 C 0.35118 0.70889 0.66312 0.0
C205 C 0.3199 0.72878 0.64824 0.0
C206 C 0.25888 0.5865 0.57311 0.0
C207 C 0.25963 0.54563 0.54925 0.0
N208 N 0.25544 0.52984 0.57167 0.0
C209 C 0.2544 0.56983 0.59591 0.0
C210 C 0.26138 0.57432 0.54957 0.0
C211 C 0.25279 0.54123 0.59477 0.0
C212 C 0.21476 0.62867 0.62427 0.0
N213 N 0.24466 0.63608 0.62646 0.0
C214 C 0.23591 0.61479 0.66887 0.0
C215 C 0.25558 0.62981 0.64824 0.0
C216 C 0.20457 0.60568 0.66687 0.0
C217 C 0.19418 0.61348 0.64445 0.0
H218 H 0.20664 0.63332 0.60639 0.0
H219 H 0.27926 0.63523 0.64916 0.0
C220 C 0.34361 0.61418 0.55794 0.0
N221 N 0.33004 0.62141 0.5773 0.0
C222 C 0.35838 0.59738 0.56338 0.0
C223 C 0.34476 0.59602 0.60834 0.0
C224 C 0.3306 0.61292 0.60211 0.0
C225 C 0.35874 0.58781 0.58888 0.0
H226 H 0.34271 0.62119 0.53833 0.0
H227 H 0.31959 0.619 0.61707 0.0
C228 C 0.25225 0.69432 0.56727 0.0
N229 N 0.22613 0.73054 0.55832 0.0
C230 C 0.24895 0.70216 0.54201 0.0
C231 C 0.24177 0.70448 0.58794 0.0
C232 C 0.23583 0.72061 0.53789 0.0
C233 C 0.22879 0.72291 0.58303 0.0
C234 C 0.334 0.68901 0.52644 0.0
C235 C 0.32541 0.70278 0.50722 0.0
C236 C 0.36515 0.70014 0.53153 0.0
C237 C 0.34825 0.7279 0.4936 0.0
C238 C 0.38729 0.72534 0.5175 0.0
N239 N 0.37845 0.7386 0.49901 0.0
C240 C 0.36529 0.74589 0.57847 0.0
C241 C 0.32972 0.75278 0.55349 0.0
C242 C 0.38775 0.77682 0.5751 0.0
N243 N 0.33697 0.73436 0.56751 0.0
C244 C 0.35143 0.78386 0.54968 0.0
C245 C 0.3811 0.79617 0.56019 0.0
H246 H 0.37087 0.73076 0.58907 0.0
H247 H 0.30764 0.74321 0.54422 0.0
C248 C 0.21033 0.62807 0.52607 0.0
N249 N 0.23838 0.63172 0.52048 0.0
C250 C 0.18834 0.62018 0.50666 0.0
C251 C 0.22365 0.61762 0.47644 0.0
C252 C 0.2453 0.62627 0.49638 0.0
C253 C 0.19508 0.61516 0.4815 0.0
H254 H 0.20545 0.63231 0.5455 0.0
H255 H 0.2678 0.62931 0.49256 0.0
O256 O 0.31556 0.67154 0.60172 0.0
O257 O 0.2616 0.61499 0.57392 0.0
O258 O 0.26418 0.67549 0.5717 0.0
O259 O 0.31201 0.66506 0.54055 0.0
H260 H 0.35282 0.67466 0.63909 0.0
H261 H 0.29639 0.71095 0.6121 0.0
H262 H 0.3666 0.70866 0.67762 0.0
H263 H 0.31093 0.74416 0.65106 0.0
H264 H 0.26172 0.53598 0.5312 0.0
H265 H 0.25255 0.57906 0.61429 0.0
H266 H 0.26502 0.58708 0.53179 0.0
H267 H 0.24954 0.52815 0.61227 0.0
H268 H 0.24499 0.60965 0.68595 0.0
H269 H 0.17018 0.60663 0.64202 0.0
H270 H 0.36892 0.59152 0.54784 0.0
H271 H 0.34498 0.58967 0.62831 0.0
H272 H 0.25675 0.69438 0.52575 0.0
H273 H 0.24345 0.69805 0.60759 0.0
H274 H 0.23335 0.72703 0.51846 0.0
H275 H 0.2207 0.73102 0.59886 0.0
H276 H 0.30137 0.69438 0.50308 0.0
H277 H 0.37209 0.68971 0.54642 0.0
H278 H 0.34197 0.73897 0.4788 0.0
H279 H 0.41149 0.73443 0.52138 0.0
H280 H 0.41031 0.78532 0.58358 0.0
H281 H 0.34549 0.79768 0.53753 0.0
H282 H 0.1665 0.61847 0.51112 0.0
H283 H 0.22955 0.6141 0.45711 0.0
Li284 Li 0.6928 0.30348 0.74108 0.0
Li285 Li 0.64828 0.2616 0.76255 0.0
Li286 Li 0.65006 0.26576 0.71696 0.0
Li287 Li 0.644 0.30381 0.74027 0.0
C288 C 0.69722 0.2526 0.75325 0.0
N289 N 0.73625 0.24035 0.78195 0.0
C290 C 0.70794 0.26661 0.77736 0.0
C291 C 0.70636 0.23238 0.74376 0.0
C292 C 0.72765 0.2601 0.79157 0.0
C293 C 0.72611 0.22648 0.75856 0.0
C294 C 0.66051 0.31392 0.79332 0.0
C295 C 0.62006 0.31106 0.82023 0.0
N296 N 0.64134 0.32854 0.83841 0.0
C297 C 0.68198 0.33188 0.81224 0.0
C298 C 0.62929 0.30339 0.79731 0.0
C299 C 0.67182 0.33899 0.83493 0.0
C300 C 0.74501 0.35797 0.75551 0.0
N301 N 0.73619 0.33089 0.74319 0.0
C302 C 0.78879 0.34504 0.73649 0.0
C303 C 0.75727 0.3241 0.73358 0.0
C304 C 0.79863 0.37317 0.74942 0.0
C305 C 0.77614 0.37942 0.75895 0.0
H306 H 0.72775 0.36274 0.76295 0.0
H307 H 0.74966 0.30239 0.7238 0.0
C308 C 0.62984 0.20329 0.78164 0.0
N309 N 0.63463 0.23127 0.78946 0.0
C310 C 0.62108 0.17933 0.79936 0.0
C311 C 0.62137 0.213 0.83287 0.0
C312 C 0.63069 0.23652 0.81458 0.0
C313 C 0.61671 0.18408 0.82532 0.0
H314 H 0.63323 0.19972 0.76158 0.0
H315 H 0.63521 0.25893 0.82069 0.0
C316 C 0.69152 0.31942 0.69029 0.0
N317 N 0.73049 0.33711 0.64823 0.0
C318 C 0.69751 0.34549 0.67601 0.0
C319 C 0.70532 0.30232 0.68317 0.0
C320 C 0.71728 0.35406 0.6548 0.0
C321 C 0.72497 0.31164 0.66186 0.0
C322 C 0.59053 0.23954 0.72534 0.0
C323 C 0.57972 0.25148 0.70626 0.0
C324 C 0.5764 0.20764 0.72868 0.0
C325 C 0.55513 0.23122 0.69057 0.0
C326 C 0.55188 0.18815 0.71259 0.0
N327 N 0.54187 0.20024 0.69401 0.0
C328 C 0.63031 0.21109 0.6884 0.0
C329 C 0.62942 0.2514 0.6652 0.0
C330 C 0.61564 0.19055 0.66799 0.0
N331 N 0.63629 0.24065 0.6868 0.0
C332 C 0.61485 0.23173 0.64436 0.0
C333 C 0.6071 0.20065 0.64582 0.0
H334 H 0.63569 0.20314 0.70602 0.0
H335 H 0.6341 0.27492 0.66461 0.0
C336 C 0.64694 0.36025 0.73304 0.0
N337 N 0.62717 0.3305 0.73968 0.0
C338 C 0.6364 0.38104 0.73006 0.0
C339 C 0.58538 0.34045 0.74159 0.0
C340 C 0.5969 0.32034 0.74416 0.0
C341 C 0.60513 0.37124 0.7341 0.0
H342 H 0.67084 0.36761 0.72939 0.0
H343 H 0.58157 0.29648 0.74928 0.0
O344 O 0.67788 0.25846 0.73881 0.0
O345 O 0.67025 0.30728 0.77086 0.0
O346 O 0.67228 0.31094 0.71115 0.0
O347 O 0.61518 0.25898 0.74035 0.0
H348 H 0.70118 0.2823 0.78511 0.0
H349 H 0.69826 0.22137 0.72513 0.0
H350 H 0.73611 0.27077 0.81024 0.0
H351 H 0.73337 0.21088 0.75144 0.0
H352 H 0.59596 0.30299 0.82361 0.0
H353 H 0.70624 0.3402 0.80942 0.0
H354 H 0.61232 0.28902 0.78309 0.0
H355 H 0.68818 0.35283 0.84975 0.0
H356 H 0.80522 0.33929 0.72865 0.0
H357 H 0.78243 0.4004 0.76953 0.0
H358 H 0.61775 0.15733 0.79285 0.0
H359 H 0.61872 0.21766 0.85285 0.0
H360 H 0.68698 0.35897 0.68127 0.0
H361 H 0.70097 0.28205 0.69392 0.0
H362 H 0.72213 0.37419 0.64358 0.0
H363 H 0.73582 0.29864 0.65615 0.0
H364 H 0.59061 0.27611 0.70326 0.0
H365 H 0.58447 0.19803 0.74335 0.0
H366 H 0.54672 0.24012 0.67556 0.0
H367 H 0.54088 0.1634 0.71481 0.0
H368 H 0.6099 0.16676 0.67001 0.0
H369 H 0.60918 0.24064 0.62746 0.0
H370 H 0.65247 0.40426 0.72373 0.0
H371 H 0.5612 0.33186 0.74518 0.0
Li372 Li 0.4154 0.63744 0.93042 0.0
Li373 Li 0.42027 0.68559 0.90731 0.0
Li374 Li 0.37335 0.63409 0.90406 0.0
Li375 Li 0.41957 0.64318 0.8839 0.0
C376 C 0.36558 0.65343 0.94832 0.0
N377 N 0.31066 0.63966 0.9714 0.0
C378 C 0.35348 0.67289 0.94485 0.0
C379 C 0.34983 0.62702 0.96357 0.0
C380 C 0.32566 0.66551 0.95667 0.0
C381 C 0.32207 0.62045 0.97507 0.0
C382 C 0.47711 0.67682 0.89839 0.0
C383 C 0.51793 0.70632 0.86812 0.0
N384 N 0.52986 0.68775 0.87288 0.0
C385 C 0.48997 0.65826 0.90321 0.0
C386 C 0.49134 0.70124 0.88091 0.0
C387 C 0.51657 0.66407 0.89003 0.0
C388 C 0.43389 0.60007 0.95582 0.0
N389 N 0.42553 0.62168 0.95963 0.0
C390 C 0.42967 0.61856 0.00534 0.0
C391 C 0.42343 0.63118 0.98373 0.0
C392 C 0.43843 0.59622 0.00203 0.0
C393 C 0.44077 0.58715 0.97689 0.0
H394 H 0.43497 0.59272 0.93639 0.0
H395 H 0.41665 0.64836 0.98613 0.0
C396 C 0.41763 0.7403 0.90226 0.0
N397 N 0.43551 0.72882 0.91063 0.0
C398 C 0.42664 0.7712 0.90663 0.0
C399 C 0.4729 0.77824 0.92728 0.0
C400 C 0.46294 0.74714 0.92255 0.0
C401 C 0.45432 0.79051 0.91979 0.0
H402 H 0.39594 0.7252 0.89278 0.0
H403 H 0.47665 0.73735 0.92911 0.0
C404 C 0.37342 0.57993 0.89115 0.0
N405 N 0.33778 0.52561 0.86441 0.0
C406 C 0.36331 0.58059 0.86613 0.0
C407 C 0.36554 0.55167 0.90257 0.0
C408 C 0.34529 0.55288 0.85292 0.0
C409 C 0.34746 0.52444 0.88875 0.0
C410 C 0.3977 0.67495 0.852 0.0
C411 C 0.37456 0.6578 0.83394 0.0
C412 C 0.42245 0.70365 0.84497 0.0
C413 C 0.37703 0.66928 0.80892 0.0
C414 C 0.42407 0.71435 0.81977 0.0
N415 N 0.40154 0.69706 0.8024 0.0
C416 C 0.31634 0.62837 0.88964 0.0
C417 C 0.31201 0.58417 0.91026 0.0
C418 C 0.28454 0.61321 0.88558 0.0
N419 N 0.32942 0.61352 0.90138 0.0
C420 C 0.28023 0.56797 0.9062 0.0
C421 C 0.26621 0.58237 0.89338 0.0
H422 H 0.33072 0.65178 0.88291 0.0
H423 H 0.32288 0.57309 0.92003 0.0
C424 C 0.44072 0.60694 0.86181 0.0
N425 N 0.43624 0.63083 0.8559 0.0
C426 C 0.45052 0.59392 0.84299 0.0
C427 C 0.45234 0.63113 0.81237 0.0
C428 C 0.44241 0.64343 0.83184 0.0
C429 C 0.45597 0.60566 0.81774 0.0
H430 H 0.43624 0.59766 0.88119 0.0
H431 H 0.43921 0.66262 0.8275 0.0
O432 O 0.39226 0.65972 0.93626 0.0
O433 O 0.45056 0.67094 0.91052 0.0
O434 O 0.39094 0.60673 0.90455 0.0
O435 O 0.39544 0.66426 0.87669 0.0
H436 H 0.36531 0.6933 0.93296 0.0
H437 H 0.35873 0.61154 0.96619 0.0
H438 H 0.31594 0.68028 0.95407 0.0
H439 H 0.30954 0.60001 0.98682 0.0
H440 H 0.52908 0.72503 0.85442 0.0
H441 H 0.47932 0.63935 0.91676 0.0
H442 H 0.48195 0.71608 0.87723 0.0
H443 H 0.52661 0.64971 0.8934 0.0
H444 H 0.42793 0.62637 0.02445 0.0
H445 H 0.44726 0.56986 0.9736 0.0
H446 H 0.41175 0.77972 0.90027 0.0
H447 H 0.49419 0.79212 0.93776 0.0
H448 H 0.36946 0.60226 0.857 0.0
H449 H 0.37322 0.55081 0.92196 0.0
H450 H 0.33731 0.55307 0.83352 0.0
H451 H 0.3411 0.50239 0.89736 0.0
H452 H 0.35476 0.63596 0.8392 0.0
H453 H 0.44026 0.71752 0.85875 0.0
H454 H 0.35938 0.65616 0.79472 0.0
H455 H 0.4432 0.73643 0.81403 0.0
H456 H 0.27459 0.62498 0.87541 0.0
H457 H 0.2668 0.54427 0.91262 0.0
H458 H 0.45353 0.57468 0.84811 0.0
H459 H 0.45611 0.64082 0.79312 0.0
Li460 Li 0.7673 0.42109 0.07449 0.0
Li461 Li 0.80677 0.41222 0.09356 0.0
Li462 Li 0.80542 0.42123 0.04514 0.0
Li463 Li 0.7656 0.37358 0.06662 0.0
C464 C 0.82869 0.4802 0.07498 0.0
N465 N 0.86322 0.54388 0.07575 0.0
C466 C 0.84166 0.49582 0.09812 0.0
C467 C 0.83351 0.49702 0.05219 0.0
C468 C 0.85898 0.528 0.09812 0.0
C469 C 0.85095 0.52918 0.05299 0.0
C470 C 0.75654 0.39673 0.12502 0.0
C471 C 0.73348 0.38216 0.16727 0.0
N472 N 0.74719 0.41245 0.17397 0.0
C473 C 0.77035 0.4277 0.13231 0.0
C474 C 0.73791 0.37375 0.14261 0.0
C475 C 0.76535 0.43519 0.15713 0.0
C476 C 0.71503 0.42472 0.09149 0.0
N477 N 0.7431 0.44076 0.08001 0.0
C478 C 0.73846 0.4859 0.07784 0.0
C479 C 0.75455 0.47057 0.07262 0.0
C480 C 0.70996 0.47026 0.0904 0.0
C481 C 0.6979 0.43906 0.09678 0.0
H482 H 0.70619 0.40091 0.09692 0.0
H483 H 0.77626 0.48264 0.06279 0.0
C484 C 0.86575 0.44368 0.11295 0.0
N485 N 0.83659 0.42264 0.1201 0.0
C486 C 0.88961 0.45537 0.13103 0.0
C487 C 0.85326 0.4224 0.16334 0.0
C488 C 0.83 0.41142 0.1446 0.0
C489 C 0.88344 0.44509 0.15672 0.0
H490 H 0.8703 0.45196 0.09324 0.0
H491 H 0.80667 0.39449 0.14975 0.0
C492 C 0.73772 0.40395 0.03104 0.0
N493 N 0.69177 0.41438 0.01372 0.0
C494 C 0.70694 0.3826 0.0363 0.0
C495 C 0.74519 0.43051 0.01686 0.0
C496 C 0.68403 0.38831 0.02739 0.0
C497 C 0.7216 0.43538 0.0083 0.0
C498 C 0.81186 0.36354 0.05978 0.0
C499 C 0.81236 0.35393 0.03453 0.0
C500 C 0.81081 0.34534 0.08063 0.0
C501 C 0.81143 0.32593 0.03054 0.0
C502 C 0.80994 0.31751 0.07582 0.0
N503 N 0.81022 0.30844 0.05109 0.0
C504 C 0.86187 0.45673 0.02008 0.0
C505 C 0.81863 0.43285 0.99209 0.0
C506 C 0.88166 0.46983 -0.00091 0.0
N507 N 0.83107 0.43872 0.01617 0.0
C508 C 0.83755 0.44544 0.97055 0.0
C509 C 0.86954 0.46417 0.97389 0.0
H510 H 0.871 0.46088 0.03955 0.0
H511 H 0.79406 0.41814 0.98962 0.0
C512 C 0.73175 0.30837 0.07865 0.0
N513 N 0.74109 0.33029 0.0599 0.0
C514 C 0.71678 0.27702 0.07196 0.0
C515 C 0.72099 0.29165 0.027 0.0
C516 C 0.73557 0.3225 0.03452 0.0
C517 C 0.71181 0.26842 0.04575 0.0
H518 H 0.73672 0.31526 0.09871 0.0
H519 H 0.74339 0.34041 0.02003 0.0
O520 O 0.8122 0.44863 0.07449 0.0
O521 O 0.76111 0.38867 0.10087 0.0
O522 O 0.76048 0.3992 0.04024 0.0
O523 O 0.81154 0.39023 0.06406 0.0
H524 H 0.83851 0.48328 0.11593 0.0
H525 H 0.82351 0.48539 0.03413 0.0
H526 H 0.8691 0.54036 0.1159 0.0
H527 H 0.8547 0.54245 0.03553 0.0
H528 H 0.71916 0.36461 0.1811 0.0
H529 H 0.78458 0.44577 0.11894 0.0
H530 H 0.72705 0.34965 0.13725 0.0
H531 H 0.77588 0.45908 0.163 0.0
H532 H 0.74835 0.50987 0.07235 0.0
H533 H 0.67604 0.42627 0.10664 0.0
H534 H 0.91257 0.47253 0.12503 0.0
H535 H 0.84745 0.41404 0.18299 0.0
H536 H 0.70087 0.36201 0.04738 0.0
H537 H 0.76895 0.44736 0.01282 0.0
H538 H 0.6601 0.37209 0.03142 0.0
H539 H 0.72702 0.45593 -0.00255 0.0
H540 H 0.81302 0.36776 0.01821 0.0
H541 H 0.81027 0.35248 0.10028 0.0
H542 H 0.81154 0.31804 0.01111 0.0
H543 H 0.8089 0.30305 0.09175 0.0
H544 H 0.90612 0.48427 0.00255 0.0
H545 H 0.82728 0.43997 0.95145 0.0
H546 H 0.71014 0.25981 0.08698 0.0
H547 H 0.71717 0.28604 0.00661 0.0
Li548 Li 0.42383 0.79785 0.26675 0.0
Li549 Li 0.37555 0.76252 0.24458 0.0
Li550 Li 0.42127 0.75542 0.23984 0.0
Li551 Li 0.41856 0.79789 0.21825 0.0
C552 C 0.40364 0.74098 0.29355 0.0
N553 N 0.41637 0.71802 0.33748 0.0
C554 C 0.38067 0.72492 0.3119 0.0
C555 C 0.43297 0.74506 0.29742 0.0
C556 C 0.38759 0.71358 0.33403 0.0
C557 C 0.43898 0.73336 0.31977 0.0
C558 C 0.37434 0.81409 0.25049 0.0
C559 C 0.33101 0.81852 0.23636 0.0
N560 N 0.32579 0.8233 0.26125 0.0
C561 C 0.36874 0.81931 0.2759 0.0
C562 C 0.35553 0.81393 0.23051 0.0
C563 C 0.34401 0.82383 0.28096 0.0
C564 C 0.46291 0.85467 0.29019 0.0
N565 N 0.44262 0.82456 0.29552 0.0
C566 C 0.45002 0.83447 0.34085 0.0
C567 C 0.43574 0.81426 0.32025 0.0
C568 C 0.47119 0.86568 0.33597 0.0
C569 C 0.47747 0.87582 0.31026 0.0
H570 H 0.46774 0.86223 0.2703 0.0
H571 H 0.41896 0.79049 0.3241 0.0
C572 C 0.31123 0.72729 0.22999 0.0
N573 N 0.33188 0.74182 0.24941 0.0
C574 C 0.27955 0.71258 0.23493 0.0
C575 C 0.29118 0.72814 0.27964 0.0
C576 C 0.32244 0.74233 0.27388 0.0
C577 C 0.26917 0.71302 0.26006 0.0
H578 H 0.31929 0.72701 0.21071 0.0
H579 H 0.33933 0.75387 0.28898 0.0
C580 C 0.48333 0.81085 0.24062 0.0
N581 N 0.54619 0.8341 0.24282 0.0
C582 C 0.50076 0.81918 0.21794 0.0
C583 C 0.49806 0.81481 0.26446 0.0
C584 C 0.53244 0.83073 0.21944 0.0
C585 C 0.5298 0.82648 0.26516 0.0
C586 C 0.38705 0.74832 0.18706 0.0
C587 C 0.3997 0.73327 0.17349 0.0
C588 C 0.37026 0.75931 0.17379 0.0
C589 C 0.39563 0.72977 0.14674 0.0
C590 C 0.36674 0.75539 0.14703 0.0
N591 N 0.37941 0.74084 0.13416 0.0
C592 C 0.41834 0.69792 0.24683 0.0
C593 C 0.46065 0.73397 0.22185 0.0
C594 C 0.42698 0.67571 0.24328 0.0
N595 N 0.43512 0.72638 0.2361 0.0
C596 C 0.47015 0.71249 0.21782 0.0
C597 C 0.45303 0.68275 0.22834 0.0
H598 H 0.3979 0.6923 0.25781 0.0
H599 H 0.47309 0.75635 0.21288 0.0
C600 C 0.43399 0.85225 0.19014 0.0
N601 N 0.43318 0.82476 0.18915 0.0
C602 C 0.44844 0.87406 0.17051 0.0
C603 C 0.46003 0.83838 0.14897 0.0
C604 C 0.44554 0.81743 0.16897 0.0
C605 C 0.46228 0.86745 0.14983 0.0
H606 H 0.42438 0.85768 0.20663 0.0
H607 H 0.44526 0.79577 0.16888 0.0
O608 O 0.39722 0.75233 0.27184 0.0
O609 O 0.39795 0.80884 0.24524 0.0
O610 O 0.45229 0.79994 0.2395 0.0
O611 O 0.39094 0.75209 0.21323 0.0
H612 H 0.35775 0.72128 0.30913 0.0
H613 H 0.45076 0.75674 0.28317 0.0
H614 H 0.37008 0.70122 0.34844 0.0
H615 H 0.4616 0.73637 0.32298 0.0
H616 H 0.31612 0.81826 0.22111 0.0
H617 H 0.38309 0.81947 0.29159 0.0
H618 H 0.35973 0.81016 0.21072 0.0
H619 H 0.33923 0.82766 0.30055 0.0
H620 H 0.44407 0.82591 0.36044 0.0
H621 H 0.49361 0.89972 0.30575 0.0
H622 H 0.26341 0.70123 0.21926 0.0
H623 H 0.28436 0.72855 0.2994 0.0
H624 H 0.48994 0.81647 0.19934 0.0
H625 H 0.48528 0.80923 0.28231 0.0
H626 H 0.54611 0.83703 0.202 0.0
H627 H 0.54142 0.82958 0.28348 0.0
H628 H 0.4126 0.72447 0.1835 0.0
H629 H 0.3603 0.77096 0.18402 0.0
H630 H 0.40539 0.71828 0.13596 0.0
H631 H 0.35397 0.76394 0.13648 0.0
H632 H 0.41315 0.6531 0.2518 0.0
H633 H 0.48993 0.71873 0.20566 0.0
H634 H 0.44978 0.89623 0.17203 0.0
H635 H 0.46988 0.83204 0.13319 0.0
H636 H 0.13999 0.65574 0.31352 0.0
H637 H 0.12306 0.57762 0.26694 0.0
H638 H 0.172 0.60915 0.24435 0.0
H639 H 0.22325 0.65649 0.24343 0.0
H640 H 0.23987 0.73403 0.29109 0.0
H641 H 0.18755 0.70523 0.30774 0.0
C642 C 0.14663 0.64597 0.29782 0.0
C643 C 0.12812 0.6145 0.29187 0.0
C644 C 0.17511 0.66394 0.2856 0.0
C645 C 0.13686 0.60191 0.27162 0.0
C646 C 0.16503 0.61984 0.25899 0.0
C647 C 0.21519 0.66736 0.25696 0.0
C648 C 0.23576 0.69716 0.26644 0.0
C649 C 0.18495 0.65053 0.26663 0.0
C650 C 0.22484 0.71084 0.284 0.0
C651 C 0.19485 0.69445 0.29344 0.0
H652 H 0.5113 0.13814 0.47558 0.0
H653 H 0.57491 0.11795 0.43696 0.0
H654 H 0.59554 0.1661 0.41238 0.0
H655 H 0.6005 0.21744 0.40709 0.0
H656 H 0.53699 0.23735 0.44656 0.0
H657 H 0.51105 0.1858 0.46536 0.0
C658 C 0.529 0.14391 0.46114 0.0
C659 C 0.54167 0.12474 0.45802 0.0
C660 C 0.5411 0.17184 0.4476 0.0
C661 C 0.56467 0.13231 0.43943 0.0
C662 C 0.5767 0.16 0.42566 0.0
C663 C 0.58069 0.21024 0.41949 0.0
C664 C 0.57087 0.23128 0.42563 0.0
C665 C 0.56595 0.18053 0.4304 0.0
C666 C 0.54492 0.22158 0.44145 0.0
C667 C 0.53017 0.19215 0.45234 0.0
H668 H 0.41296 0.51522 0.64569 0.0
H669 H 0.49254 0.57601 0.60065 0.0
H670 H 0.46226 0.5939 0.57664 0.0
H671 H 0.41519 0.59791 0.57368 0.0
H672 H 0.33622 0.53734 0.61987 0.0
H673 H 0.36399 0.51351 0.63809 0.0
C674 C 0.42329 0.53163 0.63001 0.0
C675 C 0.45473 0.54427 0.62476 0.0
C676 C 0.40598 0.54226 0.61689 0.0
C677 C 0.46821 0.56578 0.6047 0.0
C678 C 0.45099 0.57622 0.59123 0.0
C679 C 0.40385 0.57897 0.58723 0.0
C680 C 0.37391 0.56986 0.59583 0.0
C681 C 0.42014 0.56551 0.59789 0.0
C682 C 0.3595 0.54527 0.61341 0.0
C683 C 0.37533 0.53156 0.62379 0.0
H684 H 0.92756 0.48285 0.78403 0.0
H685 H 0.94469 0.40815 0.79746 0.0
H686 H 0.89545 0.37189 0.77694 0.0
H687 H 0.84444 0.36075 0.7614 0.0
H688 H 0.82797 0.43616 0.74773 0.0
H689 H 0.87996 0.47283 0.76216 0.0
C690 C 0.92087 0.45879 0.7816 0.0
C691 C 0.93957 0.44805 0.79196 0.0
C692 C 0.89236 0.43815 0.77034 0.0
C693 C 0.93071 0.41685 0.78921 0.0
C694 C 0.90243 0.39613 0.77778 0.0
C695 C 0.85242 0.38524 0.76092 0.0
C696 C 0.83191 0.39552 0.75407 0.0
C697 C 0.88255 0.40636 0.76917 0.0
C698 C 0.84283 0.42743 0.75367 0.0
C699 C 0.87268 0.4485 0.76176 0.0
H700 H 0.46697 0.91039 0.97085 0.0
H701 H 0.56238 0.9462 0.95205 0.0
H702 H 0.54911 0.8981 0.92925 0.0
H703 H 0.51072 0.84367 0.91897 0.0
H704 H 0.41556 0.80843 0.93933 0.0
H705 H 0.42829 0.85845 0.95696 0.0
C706 C 0.48474 0.90783 0.96128 0.0
C707 C 0.51558 0.93161 0.96315 0.0
C708 C 0.47699 0.88004 0.94875 0.0
C709 C 0.53846 0.92822 0.95066 0.0
C710 C 0.53089 0.90062 0.93789 0.0
C711 C 0.49277 0.84705 0.92711 0.0
C712 C 0.46222 0.82218 0.92788 0.0
C713 C 0.50032 0.87599 0.93752 0.0
C714 C 0.43918 0.82711 0.93819 0.0
C715 C 0.44646 0.85571 0.94846 0.0
H716 H 0.66105 0.54931 0.14486 0.0
H717 H 0.57564 0.47977 0.1113 0.0
H718 H 0.60269 0.45754 0.08848 0.0
H719 H 0.64988 0.45416 0.08287 0.0
H720 H 0.73507 0.52423 0.11674 0.0
H721 H 0.70906 0.55008 0.1346 0.0
C722 C 0.64863 0.52991 0.13185 0.0
C723 C 0.61655 0.51621 0.12957 0.0
C724 C 0.66423 0.517 0.11932 0.0
C725 C 0.60044 0.49088 0.11298 0.0
C726 C 0.61585 0.47795 0.10026 0.0
C727 C 0.6627 0.47526 0.09394 0.0
C728 C 0.69425 0.48714 0.09871 0.0
C729 C 0.64757 0.49015 0.10406 0.0
C730 C 0.71078 0.5147 0.11279 0.0
C731 C 0.69591 0.52945 0.12306 0.0
H732 H 0.49241 0.91644 0.51394 0.0
H733 H 0.42933 0.95008 0.5237 0.0
H734 H 0.39323 0.90242 0.54629 0.0
H735 H 0.37717 0.84863 0.55823 0.0
H736 H 0.44016 0.815 0.54635 0.0
H737 H 0.47879 0.86521 0.52989 0.0
C738 C 0.47099 0.91352 0.5215 0.0
C739 C 0.46335 0.93652 0.51706 0.0
C740 C 0.45019 0.88589 0.5338 0.0
C741 C 0.43573 0.93272 0.52705 0.0
C742 C 0.41498 0.90535 0.5397 0.0
C743 C 0.39946 0.85242 0.55224 0.0
C744 C 0.40564 0.82797 0.55341 0.0
C745 C 0.42153 0.88134 0.54236 0.0
C746 C 0.43482 0.8334 0.54593 0.0
C747 C 0.45689 0.86207 0.53631 0.0
H748 H 0.5838 0.48019 0.70166 0.0
H749 H 0.50094 0.40452 0.67 0.0
H750 H 0.51237 0.3676 0.69093 0.0
H751 H 0.55005 0.35747 0.71225 0.0
H752 H 0.63331 0.43337 0.74393 0.0
H753 H 0.61776 0.46958 0.72889 0.0
C754 C 0.56774 0.4556 0.70027 0.0
C755 C 0.54138 0.44491 0.68474 0.0
C756 C 0.57498 0.43462 0.71174 0.0
C757 C 0.52103 0.41308 0.68234 0.0
C758 C 0.52781 0.39205 0.69401 0.0
C759 C 0.56446 0.3818 0.71656 0.0
C760 C 0.59317 0.3926 0.72879 0.0
C761 C 0.55533 0.40259 0.70791 0.0
C762 C 0.61152 0.42438 0.73392 0.0
C763 C 0.60255 0.44515 0.72548 0.0
H764 H 0.13851 0.50239 0.83845 0.0
H765 H 0.12289 0.57261 0.87025 0.0
H766 H 0.17156 0.5945 0.89422 0.0
H767 H 0.22193 0.59782 0.90076 0.0
H768 H 0.23701 0.52717 0.86876 0.0
H769 H 0.18517 0.50104 0.85042 0.0
C770 C 0.14534 0.5218 0.85139 0.0
C771 C 0.12729 0.53586 0.85281 0.0
C772 C 0.17352 0.53449 0.86463 0.0
C773 C 0.13635 0.56124 0.86926 0.0
C774 C 0.16433 0.57396 0.88264 0.0
C775 C 0.21359 0.57645 0.89011 0.0
C776 C 0.23329 0.56457 0.88587 0.0
C777 C 0.18367 0.5615 0.87964 0.0
C778 C 0.22221 0.53669 0.87231 0.0
C779 C 0.19263 0.52182 0.86172 0.0
H780 H 0.6604 0.14274 0.98632 0.0
H781 H 0.58743 0.11428 0.04186 0.0
H782 H 0.61705 0.16355 0.06484 0.0
H783 H 0.66051 0.21766 0.06498 0.0
H784 H 0.73214 0.24565 0.00793 0.0
H785 H 0.7063 0.19383 0.98965 0.0
C786 C 0.65136 0.14709 0.00384 0.0
C787 C 0.62178 0.1251 0.01234 0.0
C788 C 0.66803 0.17569 0.01633 0.0
C789 C 0.61026 0.13083 0.03508 0.0
C790 C 0.62705 0.15914 0.048 0.0
C791 C 0.6707 0.21219 0.04888 0.0
C792 C 0.69788 0.23566 0.03748 0.0
C793 C 0.65547 0.18223 0.03821 0.0
C794 C 0.71086 0.22821 0.01665 0.0
C795 C 0.69618 0.19854 0.00625 0.0
H796 H 0.46342 0.57213 0.18279 0.0
H797 H 0.56015 0.637 0.19205 0.0
H798 H 0.54817 0.67284 0.21442 0.0
H799 H 0.50992 0.688 0.22629 0.0
H800 H 0.41325 0.62305 0.215 0.0
H801 H 0.42539 0.58486 0.1988 0.0
C802 C 0.48183 0.59387 0.19026 0.0
C803 C 0.51257 0.60211 0.18574 0.0
C804 C 0.47473 0.61446 0.20244 0.0
C805 C 0.53632 0.63017 0.1955 0.0
C806 C 0.52944 0.65075 0.20801 0.0
C807 C 0.49154 0.66539 0.22047 0.0
C808 C 0.46071 0.65854 0.2217 0.0
C809 C 0.49871 0.64356 0.21076 0.0
C810 C 0.43713 0.62894 0.21449 0.0
C811 C 0.44405 0.60711 0.20504 0.0
H812 H 0.91906 0.45067 0.34506 0.0
H813 H 0.9551 0.54831 0.35407 0.0
H814 H 0.90842 0.53815 0.37722 0.0
H815 H 0.85488 0.50138 0.39028 0.0
H816 H 0.81887 0.4038 0.37953 0.0
H817 H 0.868 0.41401 0.36193 0.0
C818 C 0.91685 0.46969 0.3525 0.0
C819 C 0.94028 0.50017 0.34771 0.0
C820 C 0.88979 0.46366 0.36523 0.0
C821 C 0.93741 0.52465 0.35765 0.0
C822 C 0.91059 0.51883 0.37063 0.0
C823 C 0.8579 0.48237 0.38425 0.0
C824 C 0.83309 0.45187 0.38608 0.0
C825 C 0.88622 0.48843 0.37378 0.0
C826 C 0.83756 0.42746 0.37858 0.0
C827 C 0.86562 0.43328 0.36832 0.0
H828 H 0.11511 0.61899 0.38953 0.0
H829 H 0.10086 0.52799 0.37633 0.0
H830 H 0.13063 0.53232 0.41537 0.0
H831 H 0.16473 0.56432 0.45108 0.0
H832 H 0.17716 0.65462 0.46473 0.0
H833 H 0.14415 0.64848 0.42771 0.0
C834 C 0.118 0.59991 0.39565 0.0
C835 C 0.10591 0.57321 0.38037 0.0
C836 C 0.13518 0.6027 0.4179 0.0
C837 C 0.10979 0.54859 0.38812 0.0
C838 C 0.12703 0.55121 0.41023 0.0
C839 C 0.15989 0.58242 0.44595 0.0
C840 C 0.1734 0.60997 0.46025 0.0
C841 C 0.1405 0.57849 0.4249 0.0
C842 C 0.16692 0.63328 0.45382 0.0
C843 C 0.14812 0.62978 0.43271 0.0
H844 H 0.52556 0.12649 0.55027 0.0
H845 H 0.58222 0.0847 0.55447 0.0
H846 H 0.60631 0.11355 0.59422 0.0
H847 H 0.61503 0.15501 0.62489 0.0
H848 H 0.55834 0.19691 0.61963 0.0
H849 H 0.53091 0.16411 0.58287 0.0
C850 C 0.54293 0.12344 0.56011 0.0
C851 C 0.55234 0.10378 0.54942 0.0
C852 C 0.5571 0.1406 0.58242 0.0
C853 C 0.57453 0.09962 0.56245 0.0
C854 C 0.5885 0.11636 0.58499 0.0
C855 C 0.59639 0.15664 0.61592 0.0
C856 C 0.5892 0.17886 0.62468 0.0
C857 C 0.58057 0.13758 0.59473 0.0
C858 C 0.56495 0.18065 0.61282 0.0
C859 C 0.54906 0.16172 0.59193 0.0
H860 H 0.46403 0.52159 0.73085 0.0
H861 H 0.5294 0.6104 0.69984 0.0
H862 H 0.52487 0.63583 0.73865 0.0
H863 H 0.49836 0.63288 0.77936 0.0
H864 H 0.4307 0.54392 0.80915 0.0
H865 H 0.44024 0.51843 0.77319 0.0
C866 C 0.47786 0.54642 0.73306 0.0
C867 C 0.49732 0.56422 0.71293 0.0
C868 C 0.47436 0.56084 0.75503 0.0
C869 C 0.51465 0.5964 0.71545 0.0
C870 C 0.51182 0.61089 0.73747 0.0
C871 C 0.48578 0.60792 0.778 0.0
C872 C 0.46375 0.59038 0.79686 0.0
C873 C 0.49107 0.59339 0.75704 0.0
C874 C 0.44799 0.55801 0.79505 0.0
C875 C 0.4533 0.54338 0.77439 0.0
H876 H 0.9322 0.5044 0.86479 0.0
H877 H 0.99542 0.48112 0.90049 0.0
H878 H 0.96958 0.47398 0.94206 0.0
H879 H 0.92464 0.46722 0.96642 0.0
H880 H 0.86049 0.48893 0.93006 0.0
H881 H 0.89074 0.50325 0.89041 0.0
C882 C 0.94056 0.49818 0.88179 0.0
C883 C 0.9654 0.49291 0.87956 0.0
C884 C 0.92503 0.4932 0.90533 0.0
C885 C 0.9764 0.48542 0.90176 0.0
C886 C 0.96141 0.481 0.92545 0.0
C887 C 0.91763 0.47573 0.95003 0.0
C888 C 0.89007 0.47655 0.95108 0.0
C889 C 0.93505 0.48376 0.92721 0.0
C890 C 0.88123 0.48743 0.92956 0.0
C891 C 0.8986 0.49579 0.90693 0.0
H892 H 0.54457 0.94727 0.05717 0.0
H893 H 0.47574 0.9741 0.05337 0.0
H894 H 0.45226 0.94551 0.09337 0.0
H895 H 0.44776 0.90728 0.12593 0.0
H896 H 0.51704 0.88056 0.12867 0.0
H897 H 0.54381 0.91449 0.09249 0.0
C898 C 0.52495 0.94751 0.06561 0.0
C899 C 0.51188 0.96273 0.05267 0.0
C900 C 0.51129 0.93046 0.08802 0.0
C901 C 0.4863 0.96278 0.06336 0.0
C902 C 0.47273 0.94616 0.08599 0.0
C903 C 0.469 0.90932 0.1189 0.0
C904 C 0.47994 0.8908 0.12963 0.0
C905 C 0.48443 0.92903 0.09799 0.0
C906 C 0.50756 0.89379 0.12029 0.0
C907 C 0.52307 0.91339 0.09972 0.0
H908 H 0.6377 0.54032 0.22052 0.0
H909 H 0.53927 0.48359 0.22743 0.0
H910 H 0.54552 0.46278 0.26847 0.0
H911 H 0.57948 0.4564 0.29944 0.0
H912 H 0.678 0.51286 0.29125 0.0
H913 H 0.67124 0.53781 0.25344 0.0
C914 C 0.61762 0.52371 0.23125 0.0
C915 C 0.58811 0.51322 0.22097 0.0
C916 C 0.62145 0.51141 0.2543 0.0
C917 C 0.56221 0.49204 0.23509 0.0
C918 C 0.56581 0.47995 0.25838 0.0
C919 C 0.59942 0.47453 0.28963 0.0
C920 C 0.62921 0.48234 0.29787 0.0
C921 C 0.59538 0.48879 0.26775 0.0
C922 C 0.65484 0.50586 0.28492 0.0
C923 C 0.65102 0.5203 0.2634 0.0
H924 H 0.51871 0.93229 0.44281 0.0
H925 H 0.49258 0.9941 0.40847 0.0
H926 H 0.48403 0.96763 0.36691 0.0
H927 H 0.47607 0.92181 0.34254 0.0
H928 H 0.49852 0.85799 0.37844 0.0
H929 H 0.51598 0.88999 0.4173 0.0
C930 C 0.51158 0.94024 0.4261 0.0
C931 C 0.50582 0.96478 0.42878 0.0
C932 C 0.50543 0.92411 0.4027 0.0
C933 C 0.49723 0.97529 0.40689 0.0
C934 C 0.49197 0.95992 0.38321 0.0
C935 C 0.48541 0.91533 0.35868 0.0
C936 C 0.48568 0.88743 0.35781 0.0
C937 C 0.49479 0.93352 0.3812 0.0
C938 C 0.49765 0.87913 0.37888 0.0
C939 C 0.50771 0.89744 0.40104 0.0
H940 H 0.60968 0.49732 0.61507 0.0
H941 H 0.52915 0.4845 0.57439 0.0
H942 H 0.54995 0.47773 0.5337 0.0
H943 H 0.58791 0.46859 0.51107 0.0
H944 H 0.66685 0.47878 0.5529 0.0
H945 H 0.64963 0.49304 0.59187 0.0
C946 C 0.59684 0.49338 0.59722 0.0
C947 C 0.56775 0.49097 0.59774 0.0
C948 C 0.60844 0.48851 0.57422 0.0
C949 C 0.55162 0.48649 0.57445 0.0
C950 C 0.56338 0.48231 0.55126 0.0
C951 C 0.60161 0.47453 0.5286 0.0
C952 C 0.62842 0.47228 0.52923 0.0
C953 C 0.59129 0.48225 0.55109 0.0
C954 C 0.64587 0.47984 0.55209 0.0
C955 C 0.6361 0.48809 0.57434 0.0
H956 H 0.13118 0.52072 0.76068 0.0
H957 H 0.08515 0.57344 0.75616 0.0
H958 H 0.11413 0.59909 0.71697 0.0
H959 H 0.15685 0.61047 0.68704 0.0
H960 H 0.203 0.55773 0.69276 0.0
H961 H 0.17012 0.52859 0.72876 0.0
C962 C 0.12724 0.53756 0.75087 0.0
C963 C 0.10636 0.54544 0.76131 0.0
C964 C 0.14448 0.55266 0.72893 0.0
C965 C 0.10105 0.56693 0.74835 0.0
C966 C 0.11785 0.58181 0.72614 0.0
C967 C 0.1594 0.59232 0.69595 0.0
C968 C 0.18281 0.58676 0.68756 0.0
C969 C 0.14029 0.57549 0.71671 0.0
C970 C 0.18579 0.56312 0.69931 0.0
C971 C 0.16682 0.54622 0.71975 0.0
H972 H 0.61165 0.09178 0.91018 0.0
H973 H 0.53744 0.10352 0.93759 0.0
H974 H 0.54148 0.13385 0.89913 0.0
H975 H 0.5707 0.16241 0.86065 0.0
H976 H 0.6455 0.15122 0.83354 0.0
H977 H 0.63669 0.11512 0.86873 0.0
C978 C 0.59574 0.10013 0.90714 0.0
C979 C 0.57402 0.09525 0.92626 0.0
C980 C 0.59876 0.11811 0.88534 0.0
C981 C 0.55391 0.10667 0.92272 0.0
C982 C 0.5565 0.12428 0.90095 0.0
C983 C 0.58479 0.15175 0.86236 0.0
C984 C 0.6089 0.15962 0.8448 0.0
C985 C 0.57956 0.13105 0.88261 0.0
C986 C 0.62679 0.14542 0.84688 0.0
C987 C 0.62183 0.12489 0.86702 0.0
H988 H 0.45411 0.54999 0.11071 0.0
H989 H 0.54097 0.57078 0.07735 0.0
H990 H 0.52438 0.5798 0.03534 0.0
H991 H 0.48819 0.58932 0.01001 0.0
H992 H 0.4035 0.57279 0.04511 0.0
H993 H 0.41645 0.55524 0.08469 0.0
C994 C 0.46929 0.55616 0.09415 0.0
C995 C 0.4989 0.56019 0.09723 0.0
C996 C 0.46022 0.56277 0.07053 0.0
C997 C 0.51803 0.56745 0.07549 0.0
C998 C 0.5087 0.57301 0.05155 0.0
C999 C 0.4724 0.58136 0.0262 0.0
C1000 C 0.44511 0.58267 0.02483 0.0
C1001 C 0.48033 0.57191 0.04912 0.0
C1002 C 0.42486 0.57245 0.04593 0.0
C1003 C 0.43219 0.5623 0.06849 0.0
H1004 H 0.98147 0.52626 0.24135 0.0
H1005 H 0.95003 0.43662 0.27455 0.0
H1006 H 0.91928 0.41189 0.23587 0.0
H1007 H 0.89621 0.41616 0.19527 0.0
H1008 H 0.92551 0.50612 0.16323 0.0
H1009 H 0.96236 0.53031 0.19847 0.0
C1010 C 0.96871 0.50133 0.23961 0.0
C1011 C 0.96811 0.48318 0.26049 0.0
C1012 C 0.95021 0.48737 0.21774 0.0
C1013 C 0.95098 0.4509 0.25846 0.0
C1014 C 0.93317 0.43682 0.23652 0.0
C1015 C 0.91081 0.44104 0.19595 0.0
C1016 C 0.90789 0.45928 0.17678 0.0
C1017 C 0.93168 0.45486 0.21648 0.0
C1018 C 0.92737 0.49149 0.17765 0.0
C1019 C 0.94838 0.50539 0.19788 0.0
loop_
_geom_bond_atom_site_label_1
_geom_bond_atom_site_label_2
_geom_bond_distance
_geom_bond_site_symmetry_2
_ccdc_geom_bond_type
H0 C6 0.930 . S
H1 C9 0.931 . S
H2 C11 0.931 . S
H3 C13 0.930 . S
H4 C15 0.930 . S
H5 C17 0.931 1_455 S
C6 H0 0.930 . S
C6 C7 1.380 . S
C6 C8 1.394 . S
C7 C6 1.380 . S
C7 C11 1.382 . S
C8 C6 1.394 . S
C8 C9 1.400 . S
C9 H1 0.931 . S
C9 C8 1.400 . S
C9 C10 1.375 . S
C10 C9 1.375 . S
C10 C11 1.415 . S
C10 C12 1.501 1_455 S
C11 H2 0.931 . S
C11 C7 1.382 . S
C11 C10 1.415 . S
C12 C10 1.501 1_655 S
C12 C13 1.384 . S
C12 C17 1.408 . S
C13 H3 0.930 . S
C13 C12 1.384 . S
C13 C14 1.389 . S
C14 C13 1.389 . S
C14 C15 1.405 . S
C15 H4 0.930 . S
C15 C14 1.405 . S
C15 C16 1.364 . S
C16 C15 1.364 . S
C16 C17 1.400 . S
C17 H5 0.931 1_655 S
C17 C12 1.408 . S
C17 C16 1.400 . S
H18 C24 0.930 . S
H19 C27 0.931 . S
H20 C29 0.931 . S
H21 C31 0.930 . S
H22 C33 0.930 . S
H23 C35 0.931 1_545 S
C24 H18 0.930 . S
C24 C25 1.380 . S
C24 C26 1.394 . S
C25 C24 1.380 . S
C25 C29 1.382 . S
C26 C24 1.394 . S
C26 C27 1.400 . S
C27 H19 0.931 . S
C27 C26 1.400 . S
C27 C28 1.375 . S
C28 C27 1.375 . S
C28 C29 1.415 . S
C28 C30 1.501 1_545 S
C29 H20 0.931 . S
C29 C25 1.382 . S
C29 C28 1.415 . S
C30 C28 1.501 1_565 S
C30 C31 1.384 . S
C30 C35 1.408 . S
C31 H21 0.930 . S
C31 C30 1.384 . S
C31 C32 1.389 . S
C32 C31 1.389 . S
C32 C33 1.405 . S
C33 H22 0.930 . S
C33 C32 1.405 . S
C33 C34 1.364 . S
C34 C33 1.364 . S
C34 C35 1.400 . S
C35 H23 0.931 1_565 S
C35 C30 1.408 . S
C35 C34 1.400 . S
H36 C42 0.930 . S
H37 C45 0.931 . S
H38 C47 0.931 . S
H39 C49 0.930 . S
H40 C51 0.930 . S
H41 C53 0.931 . S
C42 H36 0.930 . S
C42 C43 1.380 . S
C42 C44 1.394 . S
C43 C42 1.380 . S
C43 C47 1.382 . S
C44 C42 1.394 . S
C44 C45 1.400 . S
C45 H37 0.931 . S
C45 C44 1.400 . S
C45 C46 1.375 . S
C46 C45 1.375 . S
C46 C47 1.415 . S
C46 C48 1.501 . S
C47 H38 0.931 . S
C47 C43 1.382 . S
C47 C46 1.415 . S
C48 C46 1.501 . S
C48 C49 1.384 . S
C48 C53 1.408 . S
C49 H39 0.930 . S
C49 C48 1.384 . S
C49 C50 1.389 . S
C50 C49 1.389 . S
C50 C51 1.405 . S
C51 H40 0.930 . S
C51 C50 1.405 . S
C51 C52 1.364 . S
C52 C51 1.364 . S
C52 C53 1.400 . S
C53 H41 0.931 . S
C53 C48 1.408 . S
C53 C52 1.400 . S
H54 C60 0.930 . S
H55 C63 0.931 . S
H56 C65 0.931 . S
H57 C67 0.930 . S
H58 C69 0.930 . S
H59 C71 0.931 1_455 S
C60 H54 0.930 . S
C60 C61 1.380 . S
C60 C62 1.394 . S
C61 C60 1.380 . S
C61 C65 1.382 . S
C62 C60 1.394 . S
C62 C63 1.400 . S
C63 H55 0.931 . S
C63 C62 1.400 . S
C63 C64 1.375 . S
C64 C63 1.375 . S
C64 C65 1.415 . S
C64 C66 1.501 1_455 S
C65 H56 0.931 . S
C65 C61 1.382 . S
C65 C64 1.415 . S
C66 C64 1.501 1_655 S
C66 C67 1.384 . S
C66 C71 1.408 . S
C67 H57 0.930 . S
C67 C66 1.384 . S
C67 C68 1.389 . S
C68 C67 1.389 . S
C68 C69 1.405 . S
C69 H58 0.930 . S
C69 C68 1.405 . S
C69 C70 1.364 . S
C70 C69 1.364 . S
C70 C71 1.400 . S
C71 H59 0.931 1_655 S
C71 C66 1.408 . S
C71 C70 1.400 . S
H72 C78 0.930 . S
H73 C81 0.931 . S
H74 C83 0.931 1_545 S
H75 C85 0.930 . S
H76 C87 0.930 . S
H77 C89 0.931 . S
C78 H72 0.930 . S
C78 C79 1.380 . S
C78 C80 1.394 1_554 S
C79 C78 1.380 . S
C79 C83 1.382 . S
C80 C78 1.394 1_556 S
C80 C81 1.400 . S
C81 H73 0.931 . S
C81 C80 1.400 . S
C81 C82 1.375 . S
C82 C81 1.375 . S
C82 C83 1.415 1_556 S
C82 C84 1.501 1_565 S
C83 H74 0.931 1_565 S
C83 C79 1.382 . S
C83 C82 1.415 1_554 S
C84 C82 1.501 1_545 S
C84 C85 1.384 1_556 S
C84 C89 1.408 . S
C85 H75 0.930 . S
C85 C84 1.384 1_554 S
C85 C86 1.379 1_554 S
C86 C85 1.379 1_556 S
C86 C87 1.443 . S
C87 H76 0.930 . S
C87 C86 1.443 . S
C87 C88 1.364 . S
C88 C87 1.364 . S
C88 C89 1.400 . S
C89 H77 0.931 . S
C89 C84 1.408 . S
C89 C88 1.400 . S
H90 C96 0.930 . S
H91 C99 0.931 . S
H92 C101 0.931 . S
H93 C103 0.930 . S
H94 C105 0.930 . S
H95 C107 0.931 . S
C96 H90 0.930 . S
C96 C97 1.380 . S
C96 C98 1.394 . S
C97 C96 1.380 . S
C97 C101 1.382 . S
C98 C96 1.394 . S
C98 C99 1.400 . S
C99 H91 0.931 . S
C99 C98 1.400 . S
C99 C100 1.375 . S
C100 C99 1.375 . S
C100 C101 1.415 . S
C100 C102 1.501 . S
C101 H92 0.931 . S
C101 C97 1.382 . S
C101 C100 1.415 . S
C102 C100 1.501 . S
C102 C103 1.384 . S
C102 C107 1.408 . S
C103 H93 0.930 . S
C103 C102 1.384 . S
C103 C104 1.389 . S
C104 C103 1.389 . S
C104 C105 1.405 . S
C105 H94 0.930 . S
C105 C104 1.405 . S
C105 C106 1.364 . S
C106 C105 1.364 . S
C106 C107 1.400 . S
C107 H95 0.931 . S
C107 C102 1.408 . S
C107 C106 1.400 . S
Li108 N125 1.990 . S
Li108 O168 1.956 . S
Li108 O169 1.970 . S
Li108 O170 1.961 . S
Li109 N133 1.990 . S
Li109 O168 1.970 . S
Li109 O169 1.956 . S
Li109 O171 1.961 . S
Li110 N155 1.990 . S
Li110 O168 1.961 . S
Li110 O170 1.956 . S
Li110 O171 1.970 . S
Li111 N161 1.990 . S
Li111 O169 1.961 . S
Li111 O170 1.970 . S
Li111 O171 1.956 . S
C112 C114 1.348 . S
C112 C115 1.356 . S
C112 O168 1.325 . S
N113 C116 1.314 . S
N113 C117 1.279 . S
C114 C112 1.348 . S
C114 C116 1.353 . S
C114 H172 0.929 . S
C115 C112 1.356 . S
C115 C117 1.358 . S
C115 H173 0.930 . S
C116 N113 1.314 . S
C116 C114 1.353 . S
C116 H174 0.930 . S
C117 N113 1.279 . S
C117 C115 1.358 . S
C117 H175 0.930 . S
C118 C121 1.348 . S
C118 C122 1.356 . S
C118 O169 1.325 . S
C119 N120 1.279 . S
C119 C122 1.358 . S
C119 H176 0.930 . S
N120 C119 1.279 . S
N120 C123 1.314 . S
C121 C118 1.348 . S
C121 C123 1.353 . S
C121 H177 0.929 . S
C122 C118 1.356 . S
C122 C119 1.358 . S
C122 H178 0.930 . S
C123 N120 1.314 . S
C123 C121 1.353 . S
C123 H179 0.930 . S
C124 N125 1.314 . S
C124 C129 1.353 . S
C124 H130 0.930 . S
N125 Li108 1.990 . S
N125 C124 1.314 . S
N125 C127 1.279 . S
C126 C127 1.358 . S
C126 C128 1.356 . S
C126 H180 0.930 . S
C127 N125 1.279 . S
C127 C126 1.358 . S
C127 H131 0.930 . S
C128 C126 1.356 . S
C128 C129 1.348 . S
C129 C124 1.353 . S
C129 C128 1.348 . S
C129 H181 0.929 . S
H130 C124 0.930 . S
H131 C127 0.930 . S
C132 N133 1.314 . S
C132 C134 1.353 . S
C132 H138 0.930 . S
N133 Li109 1.990 . S
N133 C132 1.314 . S
N133 C136 1.279 . S
C134 C132 1.353 . S
C134 C137 1.348 . S
C134 H182 0.929 . S
C135 C136 1.358 . S
C135 C137 1.356 . S
C135 H183 0.930 . S
C136 N133 1.279 . S
C136 C135 1.358 . S
C136 H139 0.930 . S
C137 C134 1.348 . S
C137 C135 1.356 . S
H138 C132 0.930 . S
H139 C136 0.930 . S
C140 C142 1.348 . S
C140 C143 1.356 . S
C140 O170 1.325 . S
N141 C144 1.314 . S
N141 C145 1.279 . S
C142 C140 1.348 . S
C142 C144 1.353 . S
C142 H184 0.929 . S
C143 C140 1.356 . S
C143 C145 1.358 . S
C143 H185 0.930 . S
C144 N141 1.314 . S
C144 C142 1.353 . S
C144 H186 0.930 . S
C145 N141 1.279 . S
C145 C143 1.358 . S
C145 H187 0.930 . S
C146 C147 1.348 . S
C146 C148 1.356 . S
C146 O171 1.325 . S
C147 C146 1.348 . S
C147 C149 1.353 . S
C147 H188 0.929 . S
C148 C146 1.356 . S
C148 C150 1.358 . S
C148 H189 0.930 . S
C149 C147 1.353 . S
C149 N151 1.314 . S
C149 H190 0.930 . S
C150 C148 1.358 . S
C150 N151 1.279 . S
C150 H191 0.930 . S
N151 C149 1.314 . S
N151 C150 1.279 . S
C152 C154 1.353 . S
C152 N155 1.314 . S
C152 H158 0.930 . S
C153 N155 1.279 . S
C153 C156 1.358 . S
C153 H159 0.930 . S
C154 C152 1.353 . S
C154 C157 1.348 . S
C154 H192 0.929 . S
N155 Li110 1.990 . S
N155 C152 1.314 . S
N155 C153 1.279 . S
C156 C153 1.358 . S
C156 C157 1.356 . S
C156 H193 0.930 . S
C157 C154 1.348 . S
C157 C156 1.356 . S
H158 C152 0.930 . S
H159 C153 0.930 . S
C160 N161 1.314 . S
C160 C162 1.353 . S
C160 H166 0.930 . S
N161 Li111 1.990 . S
N161 C160 1.314 . S
N161 C164 1.279 . S
C162 C160 1.353 . S
C162 C165 1.348 . S
C162 H194 0.929 . S
C163 C164 1.358 . S
C163 C165 1.356 . S
C163 H195 0.930 . S
C164 N161 1.279 . S
C164 C163 1.358 . S
C164 H167 0.930 . S
C165 C162 1.348 . S
C165 C163 1.356 . S
H166 C160 0.930 . S
H167 C164 0.930 . S
O168 Li108 1.956 . S
O168 Li109 1.970 . S
O168 Li110 1.961 . S
O168 C112 1.325 . S
O169 Li108 1.970 . S
O169 Li109 1.956 . S
O169 Li111 1.961 . S
O169 C118 1.325 . S
O170 Li108 1.961 . S
O170 Li110 1.956 . S
O170 Li111 1.970 . S
O170 C140 1.325 . S
O171 Li109 1.961 . S
O171 Li110 1.970 . S
O171 Li111 1.956 . S
O171 C146 1.325 . S
H172 C114 0.929 . S
H173 C115 0.930 . S
H174 C116 0.930 . S
H175 C117 0.930 . S
H176 C119 0.930 . S
H177 C121 0.929 . S
H178 C122 0.930 . S
H179 C123 0.930 . S
H180 C126 0.930 . S
H181 C129 0.929 . S
H182 C134 0.929 . S
H183 C135 0.930 . S
H184 C142 0.929 . S
H185 C143 0.930 . S
H186 C144 0.930 . S
H187 C145 0.930 . S
H188 C147 0.929 . S
H189 C148 0.930 . S
H190 C149 0.930 . S
H191 C150 0.930 . S
H192 C154 0.929 . S
H193 C156 0.930 . S
H194 C162 0.929 . S
H195 C163 0.930 . S
Li196 N213 1.990 . S
Li196 O256 1.956 . S
Li196 O257 1.970 . S
Li196 O258 1.961 . S
Li197 N221 1.990 . S
Li197 O256 1.970 . S
Li197 O257 1.956 . S
Li197 O259 1.961 . S
Li198 N243 1.990 . S
Li198 O256 1.961 . S
Li198 O258 1.956 . S
Li198 O259 1.970 . S
Li199 N249 1.990 . S
Li199 O257 1.961 . S
Li199 O258 1.970 . S
Li199 O259 1.956 . S
C200 C202 1.348 . S
C200 C203 1.356 . S
C200 O256 1.325 . S
N201 C204 1.314 . S
N201 C205 1.279 . S
C202 C200 1.348 . S
C202 C204 1.353 . S
C202 H260 0.929 . S
C203 C200 1.356 . S
C203 C205 1.358 . S
C203 H261 0.930 . S
C204 N201 1.314 . S
C204 C202 1.353 . S
C204 H262 0.930 . S
C205 N201 1.279 . S
C205 C203 1.358 . S
C205 H263 0.930 . S
C206 C209 1.348 . S
C206 C210 1.356 . S
C206 O257 1.325 . S
C207 N208 1.279 . S
C207 C210 1.358 . S
C207 H264 0.930 . S
N208 C207 1.279 . S
N208 C211 1.314 . S
C209 C206 1.348 . S
C209 C211 1.353 . S
C209 H265 0.929 . S
C210 C206 1.356 . S
C210 C207 1.358 . S
C210 H266 0.930 . S
C211 N208 1.314 . S
C211 C209 1.353 . S
C211 H267 0.930 . S
C212 N213 1.314 . S
C212 C217 1.353 . S
C212 H218 0.930 . S
N213 Li196 1.990 . S
N213 C212 1.314 . S
N213 C215 1.279 . S
C214 C215 1.358 . S
C214 C216 1.356 . S
C214 H268 0.930 . S
C215 N213 1.279 . S
C215 C214 1.358 . S
C215 H219 0.930 . S
C216 C214 1.356 . S
C216 C217 1.348 . S
C217 C212 1.353 . S
C217 C216 1.348 . S
C217 H269 0.929 . S
H218 C212 0.930 . S
H219 C215 0.930 . S
C220 N221 1.314 . S
C220 C222 1.353 . S
C220 H226 0.930 . S
N221 Li197 1.990 . S
N221 C220 1.314 . S
N221 C224 1.279 . S
C222 C220 1.353 . S
C222 C225 1.348 . S
C222 H270 0.929 . S
C223 C224 1.358 . S
C223 C225 1.356 . S
C223 H271 0.930 . S
C224 N221 1.279 . S
C224 C223 1.358 . S
C224 H227 0.930 . S
C225 C222 1.348 . S
C225 C223 1.356 . S
H226 C220 0.930 . S
H227 C224 0.930 . S
C228 C230 1.348 . S
C228 C231 1.356 . S
C228 O258 1.325 . S
N229 C232 1.314 . S
N229 C233 1.279 . S
C230 C228 1.348 . S
C230 C232 1.353 . S
C230 H272 0.929 . S
C231 C228 1.356 . S
C231 C233 1.358 . S
C231 H273 0.930 . S
C232 N229 1.314 . S
C232 C230 1.353 . S
C232 H274 0.930 . S
C233 N229 1.279 . S
C233 C231 1.358 . S
C233 H275 0.930 . S
C234 C235 1.348 . S
C234 C236 1.356 . S
C234 O259 1.325 . S
C235 C234 1.348 . S
C235 C237 1.353 . S
C235 H276 0.929 . S
C236 C234 1.356 . S
C236 C238 1.358 . S
C236 H277 0.930 . S
C237 C235 1.353 . S
C237 N239 1.314 . S
C237 H278 0.930 . S
C238 C236 1.358 . S
C238 N239 1.279 . S
C238 H279 0.930 . S
N239 C237 1.314 . S
N239 C238 1.279 . S
C240 C242 1.353 . S
C240 N243 1.314 . S
C240 H246 0.930 . S
C241 N243 1.279 . S
C241 C244 1.358 . S
C241 H247 0.930 . S
C242 C240 1.353 . S
C242 C245 1.348 . S
C242 H280 0.929 . S
N243 Li198 1.990 . S
N243 C240 1.314 . S
N243 C241 1.279 . S
C244 C241 1.358 . S
C244 C245 1.356 . S
C244 H281 0.930 . S
C245 C242 1.348 . S
C245 C244 1.356 . S
H246 C240 0.930 . S
H247 C241 0.930 . S
C248 N249 1.314 . S
C248 C250 1.353 . S
C248 H254 0.930 . S
N249 Li199 1.990 . S
N249 C248 1.314 . S
N249 C252 1.279 . S
C250 C248 1.353 . S
C250 C253 1.348 . S
C250 H282 0.929 . S
C251 C252 1.358 . S
C251 C253 1.356 . S
C251 H283 0.930 . S
C252 N249 1.279 . S
C252 C251 1.358 . S
C252 H255 0.930 . S
C253 C250 1.348 . S
C253 C251 1.356 . S
H254 C248 0.930 . S
H255 C252 0.930 . S
O256 Li196 1.956 . S
O256 Li197 1.970 . S
O256 Li198 1.961 . S
O256 C200 1.325 . S
O257 Li196 1.970 . S
O257 Li197 1.956 . S
O257 Li199 1.961 . S
O257 C206 1.325 . S
O258 Li196 1.961 . S
O258 Li198 1.956 . S
O258 Li199 1.970 . S
O258 C228 1.325 . S
O259 Li197 1.961 . S
O259 Li198 1.970 . S
O259 Li199 1.956 . S
O259 C234 1.325 . S
H260 C202 0.929 . S
H261 C203 0.930 . S
H262 C204 0.930 . S
H263 C205 0.930 . S
H264 C207 0.930 . S
H265 C209 0.929 . S
H266 C210 0.930 . S
H267 C211 0.930 . S
H268 C214 0.930 . S
H269 C217 0.929 . S
H270 C222 0.929 . S
H271 C223 0.930 . S
H272 C230 0.929 . S
H273 C231 0.930 . S
H274 C232 0.930 . S
H275 C233 0.930 . S
H276 C235 0.929 . S
H277 C236 0.930 . S
H278 C237 0.930 . S
H279 C238 0.930 . S
H280 C242 0.929 . S
H281 C244 0.930 . S
H282 C250 0.929 . S
H283 C251 0.930 . S
Li284 N301 1.990 . S
Li284 O344 1.956 . S
Li284 O345 1.970 . S
Li284 O346 1.961 . S
Li285 N309 1.990 . S
Li285 O344 1.970 . S
Li285 O345 1.956 . S
Li285 O347 1.961 . S
Li286 N331 1.990 . S
Li286 O344 1.961 . S
Li286 O346 1.956 . S
Li286 O347 1.970 . S
Li287 N337 1.990 . S
Li287 O345 1.961 . S
Li287 O346 1.970 . S
Li287 O347 1.956 . S
C288 C290 1.348 . S
C288 C291 1.356 . S
C288 O344 1.325 . S
N289 C292 1.314 . S
N289 C293 1.279 . S
C290 C288 1.348 . S
C290 C292 1.353 . S
C290 H348 0.929 . S
C291 C288 1.356 . S
C291 C293 1.358 . S
C291 H349 0.930 . S
C292 N289 1.314 . S
C292 C290 1.353 . S
C292 H350 0.930 . S
C293 N289 1.279 . S
C293 C291 1.358 . S
C293 H351 0.930 . S
C294 C297 1.348 . S
C294 C298 1.356 . S
C294 O345 1.325 . S
C295 N296 1.279 . S
C295 C298 1.358 . S
C295 H352 0.930 . S
N296 C295 1.279 . S
N296 C299 1.314 . S
C297 C294 1.348 . S
C297 C299 1.353 . S
C297 H353 0.929 . S
C298 C294 1.356 . S
C298 C295 1.358 . S
C298 H354 0.930 . S
C299 N296 1.314 . S
C299 C297 1.353 . S
C299 H355 0.930 . S
C300 N301 1.314 . S
C300 C305 1.353 . S
C300 H306 0.930 . S
N301 Li284 1.990 . S
N301 C300 1.314 . S
N301 C303 1.279 . S
C302 C303 1.358 . S
C302 C304 1.356 . S
C302 H356 0.930 . S
C303 N301 1.279 . S
C303 C302 1.358 . S
C303 H307 0.930 . S
C304 C302 1.356 . S
C304 C305 1.348 . S
C305 C300 1.353 . S
C305 C304 1.348 . S
C305 H357 0.929 . S
H306 C300 0.930 . S
H307 C303 0.930 . S
C308 N309 1.314 . S
C308 C310 1.353 . S
C308 H314 0.930 . S
N309 Li285 1.990 . S
N309 C308 1.314 . S
N309 C312 1.279 . S
C310 C308 1.353 . S
C310 C313 1.348 . S
C310 H358 0.929 . S
C311 C312 1.358 . S
C311 C313 1.356 . S
C311 H359 0.930 . S
C312 N309 1.279 . S
C312 C311 1.358 . S
C312 H315 0.930 . S
C313 C310 1.348 . S
C313 C311 1.356 . S
H314 C308 0.930 . S
H315 C312 0.930 . S
C316 C318 1.348 . S
C316 C319 1.356 . S
C316 O346 1.325 . S
N317 C320 1.314 . S
N317 C321 1.279 . S
C318 C316 1.348 . S
C318 C320 1.353 . S
C318 H360 0.929 . S
C319 C316 1.356 . S
C319 C321 1.358 . S
C319 H361 0.930 . S
C320 N317 1.314 . S
C320 C318 1.353 . S
C320 H362 0.930 . S
C321 N317 1.279 . S
C321 C319 1.358 . S
C321 H363 0.930 . S
C322 C323 1.348 . S
C322 C324 1.356 . S
C322 O347 1.325 . S
C323 C322 1.348 . S
C323 C325 1.353 . S
C323 H364 0.929 . S
C324 C322 1.356 . S
C324 C326 1.358 . S
C324 H365 0.930 . S
C325 C323 1.353 . S
C325 N327 1.314 . S
C325 H366 0.930 . S
C326 C324 1.358 . S
C326 N327 1.279 . S
C326 H367 0.930 . S
N327 C325 1.314 . S
N327 C326 1.279 . S
C328 C330 1.353 . S
C328 N331 1.314 . S
C328 H334 0.930 . S
C329 N331 1.279 . S
C329 C332 1.358 . S
C329 H335 0.930 . S
C330 C328 1.353 . S
C330 C333 1.348 . S
C330 H368 0.929 . S
N331 Li286 1.990 . S
N331 C328 1.314 . S
N331 C329 1.279 . S
C332 C329 1.358 . S
C332 C333 1.356 . S
C332 H369 0.930 . S
C333 C330 1.348 . S
C333 C332 1.356 . S
H334 C328 0.930 . S
H335 C329 0.930 . S
C336 N337 1.314 . S
C336 C338 1.353 . S
C336 H342 0.930 . S
N337 Li287 1.990 . S
N337 C336 1.314 . S
N337 C340 1.279 . S
C338 C336 1.353 . S
C338 C341 1.348 . S
C338 H370 0.929 . S
C339 C340 1.358 . S
C339 C341 1.356 . S
C339 H371 0.930 . S
C340 N337 1.279 . S
C340 C339 1.358 . S
C340 H343 0.930 . S
C341 C338 1.348 . S
C341 C339 1.356 . S
H342 C336 0.930 . S
H343 C340 0.930 . S
O344 Li284 1.956 . S
O344 Li285 1.970 . S
O344 Li286 1.961 . S
O344 C288 1.325 . S
O345 Li284 1.970 . S
O345 Li285 1.956 . S
O345 Li287 1.961 . S
O345 C294 1.325 . S
O346 Li284 1.961 . S
O346 Li286 1.956 . S
O346 Li287 1.970 . S
O346 C316 1.325 . S
O347 Li285 1.961 . S
O347 Li286 1.970 . S
O347 Li287 1.956 . S
O347 C322 1.325 . S
H348 C290 0.929 . S
H349 C291 0.930 . S
H350 C292 0.930 . S
H351 C293 0.930 . S
H352 C295 0.930 . S
H353 C297 0.929 . S
H354 C298 0.930 . S
H355 C299 0.930 . S
H356 C302 0.930 . S
H357 C305 0.929 . S
H358 C310 0.929 . S
H359 C311 0.930 . S
H360 C318 0.929 . S
H361 C319 0.930 . S
H362 C320 0.930 . S
H363 C321 0.930 . S
H364 C323 0.929 . S
H365 C324 0.930 . S
H366 C325 0.930 . S
H367 C326 0.930 . S
H368 C330 0.929 . S
H369 C332 0.930 . S
H370 C338 0.929 . S
H371 C339 0.930 . S
Li372 N389 1.990 . S
Li372 O432 1.956 . S
Li372 O433 1.970 . S
Li372 O434 1.961 . S
Li373 N397 1.990 . S
Li373 O432 1.970 . S
Li373 O433 1.956 . S
Li373 O435 1.961 . S
Li374 N419 1.990 . S
Li374 O432 1.961 . S
Li374 O434 1.956 . S
Li374 O435 1.970 . S
Li375 N425 1.990 . S
Li375 O433 1.961 . S
Li375 O434 1.970 . S
Li375 O435 1.956 . S
C376 C378 1.348 . S
C376 C379 1.356 . S
C376 O432 1.325 . S
N377 C380 1.314 1_554 S
N377 C381 1.279 1_554 S
C378 C376 1.348 . S
C378 C380 1.353 . S
C378 H436 0.929 . S
C379 C376 1.356 . S
C379 C381 1.358 . S
C379 H437 0.930 . S
C380 N377 1.314 1_556 S
C380 C378 1.353 . S
C380 H438 0.918 1_556 S
C381 N377 1.279 1_556 S
C381 C379 1.358 . S
C381 H439 0.930 . S
C382 C385 1.348 . S
C382 C386 1.356 . S
C382 O433 1.325 . S
C383 N384 1.279 . S
C383 C386 1.358 . S
C383 H440 0.930 . S
N384 C383 1.279 . S
N384 C387 1.314 . S
C385 C382 1.348 . S
C385 C387 1.353 . S
C385 H441 0.929 . S
C386 C382 1.356 . S
C386 C383 1.358 . S
C386 H442 0.930 . S
C387 N384 1.314 . S
C387 C385 1.353 . S
C387 H443 0.930 . S
C388 N389 1.314 . S
C388 C393 1.353 . S
C388 H394 0.930 . S
N389 Li372 1.990 . S
N389 C388 1.314 . S
N389 C391 1.279 . S
C390 C391 1.358 1_554 S
C390 C392 1.356 . S
C390 H444 0.930 . S
C391 N389 1.279 . S
C391 C390 1.358 1_556 S
C391 H395 0.930 . S
C392 C390 1.356 . S
C392 C393 1.348 1_554 S
C393 C388 1.353 . S
C393 C392 1.348 1_556 S
C393 H445 0.929 . S
H394 C388 0.930 . S
H395 C391 0.930 . S
C396 N397 1.314 . S
C396 C398 1.353 . S
C396 H402 0.930 . S
N397 Li373 1.990 . S
N397 C396 1.314 . S
N397 C400 1.279 . S
C398 C396 1.353 . S
C398 C401 1.348 . S
C398 H446 0.929 . S
C399 C400 1.358 . S
C399 C401 1.356 . S
C399 H447 0.930 . S
C400 N397 1.279 . S
C400 C399 1.358 . S
C400 H403 0.930 . S
C401 C398 1.348 . S
C401 C399 1.356 . S
H402 C396 0.930 . S
H403 C400 0.930 . S
C404 C406 1.348 . S
C404 C407 1.356 . S
C404 O434 1.325 . S
N405 C408 1.314 . S
N405 C409 1.279 . S
C406 C404 1.348 . S
C406 C408 1.353 . S
C406 H448 0.929 . S
C407 C404 1.356 . S
C407 C409 1.358 . S
C407 H449 0.930 . S
C408 N405 1.314 . S
C408 C406 1.353 . S
C408 H450 0.930 . S
C409 N405 1.279 . S
C409 C407 1.358 . S
C409 H451 0.930 . S
C410 C411 1.348 . S
C410 C412 1.356 . S
C410 O435 1.325 . S
C411 C410 1.348 . S
C411 C413 1.353 . S
C411 H452 0.929 . S
C412 C410 1.356 . S
C412 C414 1.358 . S
C412 H453 0.930 . S
C413 C411 1.353 . S
C413 N415 1.314 . S
C413 H454 0.930 . S
C414 C412 1.358 . S
C414 N415 1.279 . S
C414 H455 0.930 . S
N415 C413 1.314 . S
N415 C414 1.279 . S
C416 C418 1.353 . S
C416 N419 1.314 . S
C416 H422 0.930 . S
C417 N419 1.279 . S
C417 C420 1.358 . S
C417 H423 0.930 . S
C418 C416 1.353 . S
C418 C421 1.348 . S
C418 H456 0.929 . S
N419 Li374 1.990 . S
N419 C416 1.314 . S
N419 C417 1.279 . S
C420 C417 1.358 . S
C420 C421 1.356 . S
C420 H457 0.930 . S
C421 C418 1.348 . S
C421 C420 1.356 . S
H422 C416 0.930 . S
H423 C417 0.930 . S
C424 N425 1.314 . S
C424 C426 1.353 . S
C424 H430 0.930 . S
N425 Li375 1.990 . S
N425 C424 1.314 . S
N425 C428 1.279 . S
C426 C424 1.353 . S
C426 C429 1.348 . S
C426 H458 0.929 . S
C427 C428 1.358 . S
C427 C429 1.356 . S
C427 H459 0.930 . S
C428 N425 1.279 . S
C428 C427 1.358 . S
C428 H431 0.930 . S
C429 C426 1.348 . S
C429 C427 1.356 . S
H430 C424 0.930 . S
H431 C428 0.930 . S
O432 Li372 1.956 . S
O432 Li373 1.970 . S
O432 Li374 1.961 . S
O432 C376 1.325 . S
O433 Li372 1.970 . S
O433 Li373 1.956 . S
O433 Li375 1.961 . S
O433 C382 1.325 . S
O434 Li372 1.961 . S
O434 Li374 1.956 . S
O434 Li375 1.970 . S
O434 C404 1.325 . S
O435 Li373 1.961 . S
O435 Li374 1.970 . S
O435 Li375 1.956 . S
O435 C410 1.325 . S
H436 C378 0.929 . S
H437 C379 0.930 . S
H438 C380 0.918 1_554 S
H439 C381 0.930 . S
H440 C383 0.930 . S
H441 C385 0.929 . S
H442 C386 0.930 . S
H443 C387 0.930 . S
H444 C390 0.930 . S
H445 C393 0.929 . S
H446 C398 0.929 . S
H447 C399 0.930 . S
H448 C406 0.929 . S
H449 C407 0.930 . S
H450 C408 0.930 . S
H451 C409 0.930 . S
H452 C411 0.929 . S
H453 C412 0.930 . S
H454 C413 0.930 . S
H455 C414 0.930 . S
H456 C418 0.929 . S
H457 C420 0.930 . S
H458 C426 0.929 . S
H459 C427 0.930 . S
Li460 N477 1.990 . S
Li460 O520 1.956 . S
Li460 O521 1.970 . S
Li460 O522 1.961 . S
Li461 N485 1.990 . S
Li461 O520 1.970 . S
Li461 O521 1.956 . S
Li461 O523 1.961 . S
Li462 N507 1.990 . S
Li462 O520 1.961 . S
Li462 O522 1.956 . S
Li462 O523 1.970 . S
Li463 N513 1.990 . S
Li463 O521 1.961 . S
Li463 O522 1.970 . S
Li463 O523 1.956 . S
C464 C466 1.348 . S
C464 C467 1.356 . S
C464 O520 1.325 . S
N465 C468 1.314 . S
N465 C469 1.279 . S
C466 C464 1.348 . S
C466 C468 1.353 . S
C466 H524 0.929 . S
C467 C464 1.356 . S
C467 C469 1.358 . S
C467 H525 0.930 . S
C468 N465 1.314 . S
C468 C466 1.353 . S
C468 H526 0.930 . S
C469 N465 1.279 . S
C469 C467 1.358 . S
C469 H527 0.930 . S
C470 C473 1.348 . S
C470 C474 1.356 . S
C470 O521 1.325 . S
C471 N472 1.279 . S
C471 C474 1.358 . S
C471 H528 0.930 . S
N472 C471 1.279 . S
N472 C475 1.314 . S
C473 C470 1.348 . S
C473 C475 1.353 . S
C473 H529 0.929 . S
C474 C470 1.356 . S
C474 C471 1.358 . S
C474 H530 0.930 . S
C475 N472 1.314 . S
C475 C473 1.353 . S
C475 H531 0.930 . S
C476 N477 1.314 . S
C476 C481 1.353 . S
C476 H482 0.930 . S
N477 Li460 1.990 . S
N477 C476 1.314 . S
N477 C479 1.279 . S
C478 C479 1.358 . S
C478 C480 1.356 . S
C478 H532 0.930 . S
C479 N477 1.279 . S
C479 C478 1.358 . S
C479 H483 0.930 . S
C480 C478 1.356 . S
C480 C481 1.348 . S
C481 C476 1.353 . S
C481 C480 1.348 . S
C481 H533 0.929 . S
H482 C476 0.930 . S
H483 C479 0.930 . S
C484 N485 1.314 . S
C484 C486 1.353 . S
C484 H490 0.930 . S
N485 Li461 1.990 . S
N485 C484 1.314 . S
N485 C488 1.279 . S
C486 C484 1.353 . S
C486 C489 1.348 . S
C486 H534 0.929 . S
C487 C488 1.358 . S
C487 C489 1.356 . S
C487 H535 0.930 . S
C488 N485 1.279 . S
C488 C487 1.358 . S
C488 H491 0.930 . S
C489 C486 1.348 . S
C489 C487 1.356 . S
H490 C484 0.930 . S
H491 C488 0.930 . S
C492 C494 1.348 . S
C492 C495 1.356 . S
C492 O522 1.325 . S
N493 C496 1.314 . S
N493 C497 1.279 . S
C494 C492 1.348 . S
C494 C496 1.353 1_554 S
C494 H536 0.929 . S
C495 C492 1.356 . S
C495 C497 1.358 1_554 S
C495 H537 0.930 . S
C496 N493 1.314 . S
C496 C494 1.353 1_556 S
C496 H538 0.930 . S
C497 N493 1.279 . S
C497 C495 1.358 1_556 S
C497 H539 0.930 . S
C498 C499 1.348 . S
C498 C500 1.356 . S
C498 O523 1.325 . S
C499 C498 1.348 . S
C499 C501 1.353 . S
C499 H540 0.929 . S
C500 C498 1.356 . S
C500 C502 1.358 . S
C500 H541 0.930 . S
C501 C499 1.353 . S
C501 N503 1.314 . S
C501 H542 0.930 . S
C502 C500 1.358 . S
C502 N503 1.279 . S
C502 H543 0.930 . S
N503 C501 1.314 . S
N503 C502 1.279 . S
C504 C506 1.360 . S
C504 N507 1.314 . S
C504 H510 0.930 . S
C505 N507 1.279 1_556 S
C505 C508 1.358 . S
C505 H511 0.930 . S
C506 C504 1.360 . S
C506 C509 1.339 1_554 S
C506 H544 0.931 . S
N507 Li462 1.990 . S
N507 C504 1.314 . S
N507 C505 1.279 1_554 S
C508 C505 1.358 . S
C508 C509 1.356 . S
C508 H545 0.930 . S
C509 C506 1.339 1_556 S
C509 C508 1.356 . S
H510 C504 0.930 . S
H511 C505 0.930 . S
C512 N513 1.314 . S
C512 C514 1.353 . S
C512 H518 0.930 . S
N513 Li463 1.990 . S
N513 C512 1.314 . S
N513 C516 1.279 . S
C514 C512 1.353 . S
C514 C517 1.348 . S
C514 H546 0.929 . S
C515 C516 1.358 . S
C515 C517 1.356 . S
C515 H547 0.930 . S
C516 N513 1.279 . S
C516 C515 1.358 . S
C516 H519 0.930 . S
C517 C514 1.348 . S
C517 C515 1.356 . S
H518 C512 0.930 . S
H519 C516 0.930 . S
O520 Li460 1.956 . S
O520 Li461 1.970 . S
O520 Li462 1.961 . S
O520 C464 1.325 . S
O521 Li460 1.970 . S
O521 Li461 1.956 . S
O521 Li463 1.961 . S
O521 C470 1.325 . S
O522 Li460 1.961 . S
O522 Li462 1.956 . S
O522 Li463 1.970 . S
O522 C492 1.325 . S
O523 Li461 1.961 . S
O523 Li462 1.970 . S
O523 Li463 1.956 . S
O523 C498 1.325 . S
H524 C466 0.929 . S
H525 C467 0.930 . S
H526 C468 0.930 . S
H527 C469 0.930 . S
H528 C471 0.930 . S
H529 C473 0.929 . S
H530 C474 0.930 . S
H531 C475 0.930 . S
H532 C478 0.930 . S
H533 C481 0.929 . S
H534 C486 0.929 . S
H535 C487 0.930 . S
H536 C494 0.929 . S
H537 C495 0.930 . S
H538 C496 0.930 . S
H539 C497 0.930 . S
H540 C499 0.929 . S
H541 C500 0.930 . S
H542 C501 0.930 . S
H543 C502 0.930 . S
H544 C506 0.931 . S
H545 C508 0.930 . S
H546 C514 0.929 . S
H547 C515 0.930 . S
Li548 N565 1.990 . S
Li548 O608 1.956 . S
Li548 O609 1.970 . S
Li548 O610 1.961 . S
Li549 N573 1.990 . S
Li549 O608 1.970 . S
Li549 O609 1.956 . S
Li549 O611 1.961 . S
Li550 N595 1.990 . S
Li550 O608 1.961 . S
Li550 O610 1.956 . S
Li550 O611 1.970 . S
Li551 N601 1.990 . S
Li551 O609 1.961 . S
Li551 O610 1.970 . S
Li551 O611 1.956 . S
C552 C554 1.348 . S
C552 C555 1.356 . S
C552 O608 1.325 . S
N553 C556 1.314 . S
N553 C557 1.279 . S
C554 C552 1.348 . S
C554 C556 1.353 . S
C554 H612 0.929 . S
C555 C552 1.356 . S
C555 C557 1.358 . S
C555 H613 0.930 . S
C556 N553 1.314 . S
C556 C554 1.353 . S
C556 H614 0.930 . S
C557 N553 1.279 . S
C557 C555 1.358 . S
C557 H615 0.930 . S
C558 C561 1.348 . S
C558 C562 1.356 . S
C558 O609 1.325 . S
C559 N560 1.279 . S
C559 C562 1.358 . S
C559 H616 0.930 . S
N560 C559 1.279 . S
N560 C563 1.314 . S
C561 C558 1.348 . S
C561 C563 1.353 . S
C561 H617 0.929 . S
C562 C558 1.356 . S
C562 C559 1.358 . S
C562 H618 0.930 . S
C563 N560 1.314 . S
C563 C561 1.353 . S
C563 H619 0.930 . S
C564 N565 1.314 . S
C564 C569 1.353 . S
C564 H570 0.930 . S
N565 Li548 1.990 . S
N565 C564 1.314 . S
N565 C567 1.279 . S
C566 C567 1.358 . S
C566 C568 1.356 . S
C566 H620 0.930 . S
C567 N565 1.279 . S
C567 C566 1.358 . S
C567 H571 0.930 . S
C568 C566 1.356 . S
C568 C569 1.348 . S
C569 C564 1.353 . S
C569 C568 1.348 . S
C569 H621 0.929 . S
H570 C564 0.930 . S
H571 C567 0.930 . S
C572 N573 1.314 . S
C572 C574 1.353 . S
C572 H578 0.930 . S
N573 Li549 1.990 . S
N573 C572 1.314 . S
N573 C576 1.279 . S
C574 C572 1.353 . S
C574 C577 1.348 . S
C574 H622 0.929 . S
C575 C576 1.358 . S
C575 C577 1.356 . S
C575 H623 0.930 . S
C576 N573 1.279 . S
C576 C575 1.358 . S
C576 H579 0.930 . S
C577 C574 1.348 . S
C577 C575 1.356 . S
H578 C572 0.930 . S
H579 C576 0.930 . S
C580 C582 1.348 . S
C580 C583 1.356 . S
C580 O610 1.325 . S
N581 C584 1.314 . S
N581 C585 1.279 . S
C582 C580 1.348 . S
C582 C584 1.353 . S
C582 H624 0.929 . S
C583 C580 1.356 . S
C583 C585 1.358 . S
C583 H625 0.930 . S
C584 N581 1.314 . S
C584 C582 1.353 . S
C584 H626 0.930 . S
C585 N581 1.279 . S
C585 C583 1.358 . S
C585 H627 0.930 . S
C586 C587 1.348 . S
C586 C588 1.356 . S
C586 O611 1.325 . S
C587 C586 1.348 . S
C587 C589 1.353 . S
C587 H628 0.929 . S
C588 C586 1.356 . S
C588 C590 1.358 . S
C588 H629 0.930 . S
C589 C587 1.353 . S
C589 N591 1.314 . S
C589 H630 0.930 . S
C590 C588 1.358 . S
C590 N591 1.279 . S
C590 H631 0.930 . S
N591 C589 1.314 . S
N591 C590 1.279 . S
C592 C594 1.353 . S
C592 N595 1.314 . S
C592 H598 0.930 . S
C593 N595 1.279 . S
C593 C596 1.358 . S
C593 H599 0.930 . S
C594 C592 1.353 . S
C594 C597 1.348 . S
C594 H632 0.929 . S
N595 Li550 1.990 . S
N595 C592 1.314 . S
N595 C593 1.279 . S
C596 C593 1.358 . S
C596 C597 1.356 . S
C596 H633 0.930 . S
C597 C594 1.348 . S
C597 C596 1.356 . S
H598 C592 0.930 . S
H599 C593 0.930 . S
C600 N601 1.314 . S
C600 C602 1.353 . S
C600 H606 0.930 . S
N601 Li551 1.990 . S
N601 C600 1.314 . S
N601 C604 1.279 . S
C602 C600 1.353 . S
C602 C605 1.348 . S
C602 H634 0.929 . S
C603 C604 1.358 . S
C603 C605 1.356 . S
C603 H635 0.930 . S
C604 N601 1.279 . S
C604 C603 1.358 . S
C604 H607 0.930 . S
C605 C602 1.348 . S
C605 C603 1.356 . S
H606 C600 0.930 . S
H607 C604 0.930 . S
O608 Li548 1.956 . S
O608 Li549 1.970 . S
O608 Li550 1.961 . S
O608 C552 1.325 . S
O609 Li548 1.970 . S
O609 Li549 1.956 . S
O609 Li551 1.961 . S
O609 C558 1.325 . S
O610 Li548 1.961 . S
O610 Li550 1.956 . S
O610 Li551 1.970 . S
O610 C580 1.325 . S
O611 Li549 1.961 . S
O611 Li550 1.970 . S
O611 Li551 1.956 . S
O611 C586 1.325 . S
H612 C554 0.929 . S
H613 C555 0.930 . S
H614 C556 0.930 . S
H615 C557 0.930 . S
H616 C559 0.930 . S
H617 C561 0.929 . S
H618 C562 0.930 . S
H619 C563 0.930 . S
H620 C566 0.930 . S
H621 C569 0.929 . S
H622 C574 0.929 . S
H623 C575 0.930 . S
H624 C582 0.929 . S
H625 C583 0.930 . S
H626 C584 0.930 . S
H627 C585 0.930 . S
H628 C587 0.929 . S
H629 C588 0.930 . S
H630 C589 0.930 . S
H631 C590 0.930 . S
H632 C594 0.929 . S
H633 C596 0.930 . S
H634 C602 0.929 . S
H635 C603 0.930 . S
H636 C642 0.930 . S
H637 C645 0.930 . S
H638 C646 0.930 . S
H639 C647 0.930 . S
H640 C650 0.930 . S
H641 C651 0.930 . S
C642 H636 0.930 . S
C642 C643 1.355 . S
C642 C644 1.415 . S
C643 C642 1.355 . S
C643 C645 1.419 . S
C644 C642 1.415 . S
C644 C649 1.425 . S
C644 C651 1.409 . S
C645 H637 0.930 . S
C645 C643 1.419 . S
C645 C646 1.362 . S
C646 H638 0.930 . S
C646 C645 1.362 . S
C646 C649 1.409 . S
C647 H639 0.930 . S
C647 C648 1.355 . S
C647 C649 1.415 . S
C648 C647 1.355 . S
C648 C650 1.419 . S
C649 C644 1.425 . S
C649 C646 1.409 . S
C649 C647 1.415 . S
C650 H640 0.930 . S
C650 C648 1.419 . S
C650 C651 1.362 . S
C651 H641 0.930 . S
C651 C644 1.409 . S
C651 C650 1.362 . S
H652 C658 0.930 . S
H653 C661 0.930 . S
H654 C662 0.930 . S
H655 C663 0.930 . S
H656 C666 0.930 . S
H657 C667 0.930 . S
C658 H652 0.930 . S
C658 C659 1.355 . S
C658 C660 1.415 . S
C659 C658 1.355 . S
C659 C661 1.419 . S
C660 C658 1.415 . S
C660 C665 1.425 . S
C660 C667 1.409 . S
C661 H653 0.930 . S
C661 C659 1.419 . S
C661 C662 1.362 . S
C662 H654 0.930 . S
C662 C661 1.362 . S
C662 C665 1.409 . S
C663 H655 0.930 . S
C663 C664 1.355 . S
C663 C665 1.415 . S
C664 C663 1.355 . S
C664 C666 1.419 . S
C665 C660 1.425 . S
C665 C662 1.409 . S
C665 C663 1.415 . S
C666 H656 0.930 . S
C666 C664 1.419 . S
C666 C667 1.362 . S
C667 H657 0.930 . S
C667 C660 1.409 . S
C667 C666 1.362 . S
H668 C674 0.930 . S
H669 C677 0.930 . S
H670 C678 0.930 . S
H671 C679 0.930 . S
H672 C682 0.930 . S
H673 C683 0.930 . S
C674 H668 0.930 . S
C674 C675 1.355 . S
C674 C676 1.415 . S
C675 C674 1.355 . S
C675 C677 1.419 . S
C676 C674 1.415 . S
C676 C681 1.425 . S
C676 C683 1.409 . S
C677 H669 0.930 . S
C677 C675 1.419 . S
C677 C678 1.362 . S
C678 H670 0.930 . S
C678 C677 1.362 . S
C678 C681 1.409 . S
C679 H671 0.930 . S
C679 C680 1.355 . S
C679 C681 1.415 . S
C680 C679 1.355 . S
C680 C682 1.419 . S
C681 C676 1.425 . S
C681 C678 1.409 . S
C681 C679 1.415 . S
C682 H672 0.930 . S
C682 C680 1.419 . S
C682 C683 1.362 . S
C683 H673 0.930 . S
C683 C676 1.409 . S
C683 C682 1.362 . S
H684 C690 0.930 . S
H685 C693 0.930 . S
H686 C694 0.930 . S
H687 C695 0.930 . S
H688 C698 0.930 . S
H689 C699 0.930 . S
C690 H684 0.930 . S
C690 C691 1.355 . S
C690 C692 1.415 . S
C691 C690 1.355 . S
C691 C693 1.419 . S
C692 C690 1.415 . S
C692 C697 1.425 . S
C692 C699 1.409 . S
C693 H685 0.930 . S
C693 C691 1.419 . S
C693 C694 1.362 . S
C694 H686 0.930 . S
C694 C693 1.362 . S
C694 C697 1.409 . S
C695 H687 0.930 . S
C695 C696 1.355 . S
C695 C697 1.415 . S
C696 C695 1.355 . S
C696 C698 1.419 . S
C697 C692 1.425 . S
C697 C694 1.409 . S
C697 C695 1.415 . S
C698 H688 0.930 . S
C698 C696 1.419 . S
C698 C699 1.362 . S
C699 H689 0.930 . S
C699 C692 1.409 . S
C699 C698 1.362 . S
H700 C706 0.930 . S
H701 C709 0.930 . S
H702 C710 0.930 . S
H703 C711 0.930 . S
H704 C714 0.930 . S
H705 C715 0.930 . S
C706 H700 0.930 . S
C706 C707 1.355 . S
C706 C708 1.415 . S
C707 C706 1.355 . S
C707 C709 1.419 . S
C708 C706 1.415 . S
C708 C713 1.425 . S
C708 C715 1.409 . S
C709 H701 0.930 . S
C709 C707 1.419 . S
C709 C710 1.362 . S
C710 H702 0.930 . S
C710 C709 1.362 . S
C710 C713 1.409 . S
C711 H703 0.930 . S
C711 C712 1.355 . S
C711 C713 1.415 . S
C712 C711 1.355 . S
C712 C714 1.419 . S
C713 C708 1.425 . S
C713 C710 1.409 . S
C713 C711 1.415 . S
C714 H704 0.930 . S
C714 C712 1.419 . S
C714 C715 1.362 . S
C715 H705 0.930 . S
C715 C708 1.409 . S
C715 C714 1.362 . S
H716 C722 0.930 . S
H717 C725 0.930 . S
H718 C726 0.930 . S
H719 C727 0.930 . S
H720 C730 0.930 . S
H721 C731 0.930 . S
C722 H716 0.930 . S
C722 C723 1.355 . S
C722 C724 1.415 . S
C723 C722 1.355 . S
C723 C725 1.419 . S
C724 C722 1.415 . S
C724 C729 1.425 . S
C724 C731 1.409 . S
C725 H717 0.930 . S
C725 C723 1.419 . S
C725 C726 1.362 . S
C726 H718 0.930 . S
C726 C725 1.362 . S
C726 C729 1.409 . S
C727 H719 0.930 . S
C727 C728 1.355 . S
C727 C729 1.415 . S
C728 C727 1.355 . S
C728 C730 1.419 . S
C729 C724 1.425 . S
C729 C726 1.409 . S
C729 C727 1.415 . S
C730 H720 0.930 . S
C730 C728 1.419 . S
C730 C731 1.362 . S
C731 H721 0.930 . S
C731 C724 1.409 . S
C731 C730 1.362 . S
H732 C738 0.930 . S
H733 C741 0.930 . S
H734 C742 0.930 . S
H735 C743 0.930 . S
H736 C746 0.930 . S
H737 C747 0.930 . S
C738 H732 0.930 . S
C738 C739 1.355 . S
C738 C740 1.415 . S
C739 C738 1.355 . S
C739 C741 1.419 . S
C740 C738 1.415 . S
C740 C745 1.425 . S
C740 C747 1.409 . S
C741 H733 0.930 . S
C741 C739 1.419 . S
C741 C742 1.362 . S
C742 H734 0.930 . S
C742 C741 1.362 . S
C742 C745 1.409 . S
C743 H735 0.930 . S
C743 C744 1.355 . S
C743 C745 1.415 . S
C744 C743 1.355 . S
C744 C746 1.419 . S
C745 C740 1.425 . S
C745 C742 1.409 . S
C745 C743 1.415 . S
C746 H736 0.930 . S
C746 C744 1.419 . S
C746 C747 1.362 . S
C747 H737 0.930 . S
C747 C740 1.409 . S
C747 C746 1.362 . S
H748 C754 0.930 . S
H749 C757 0.930 . S
H750 C758 0.930 . S
H751 C759 0.930 . S
H752 C762 0.930 . S
H753 C763 0.930 . S
C754 H748 0.930 . S
C754 C755 1.355 . S
C754 C756 1.415 . S
C755 C754 1.355 . S
C755 C757 1.419 . S
C756 C754 1.415 . S
C756 C761 1.425 . S
C756 C763 1.409 . S
C757 H749 0.930 . S
C757 C755 1.419 . S
C757 C758 1.362 . S
C758 H750 0.930 . S
C758 C757 1.362 . S
C758 C761 1.409 . S
C759 H751 0.930 . S
C759 C760 1.355 . S
C759 C761 1.415 . S
C760 C759 1.355 . S
C760 C762 1.419 . S
C761 C756 1.425 . S
C761 C758 1.409 . S
C761 C759 1.415 . S
C762 H752 0.930 . S
C762 C760 1.419 . S
C762 C763 1.362 . S
C763 H753 0.930 . S
C763 C756 1.409 . S
C763 C762 1.362 . S
H764 C770 0.930 . S
H765 C773 0.930 . S
H766 C774 0.930 . S
H767 C775 0.930 . S
H768 C778 0.930 . S
H769 C779 0.930 . S
C770 H764 0.930 . S
C770 C771 1.355 . S
C770 C772 1.415 . S
C771 C770 1.355 . S
C771 C773 1.419 . S
C772 C770 1.415 . S
C772 C777 1.425 . S
C772 C779 1.409 . S
C773 H765 0.930 . S
C773 C771 1.419 . S
C773 C774 1.362 . S
C774 H766 0.930 . S
C774 C773 1.362 . S
C774 C777 1.409 . S
C775 H767 0.930 . S
C775 C776 1.355 . S
C775 C777 1.415 . S
C776 C775 1.355 . S
C776 C778 1.419 . S
C777 C772 1.425 . S
C777 C774 1.409 . S
C777 C775 1.415 . S
C778 H768 0.930 . S
C778 C776 1.419 . S
C778 C779 1.362 . S
C779 H769 0.930 . S
C779 C772 1.409 . S
C779 C778 1.362 . S
H780 C786 0.930 . S
H781 C789 0.930 . S
H782 C790 0.930 . S
H783 C791 0.930 . S
H784 C794 0.930 . S
H785 C795 0.930 . S
C786 H780 0.930 . S
C786 C787 1.355 . S
C786 C788 1.415 . S
C787 C786 1.355 . S
C787 C789 1.419 . S
C788 C786 1.415 . S
C788 C793 1.425 . S
C788 C795 1.409 . S
C789 H781 0.930 . S
C789 C787 1.419 . S
C789 C790 1.362 . S
C790 H782 0.930 . S
C790 C789 1.362 . S
C790 C793 1.409 . S
C791 H783 0.930 . S
C791 C792 1.355 . S
C791 C793 1.415 . S
C792 C791 1.355 . S
C792 C794 1.419 . S
C793 C788 1.425 . S
C793 C790 1.409 . S
C793 C791 1.415 . S
C794 H784 0.930 . S
C794 C792 1.419 . S
C794 C795 1.362 . S
C795 H785 0.930 . S
C795 C788 1.409 . S
C795 C794 1.362 . S
H796 C802 0.930 . S
H797 C805 0.930 . S
H798 C806 0.930 . S
H799 C807 0.930 . S
H800 C810 0.930 . S
H801 C811 0.930 . S
C802 H796 0.930 . S
C802 C803 1.355 . S
C802 C804 1.415 . S
C803 C802 1.355 . S
C803 C805 1.419 . S
C804 C802 1.415 . S
C804 C809 1.425 . S
C804 C811 1.409 . S
C805 H797 0.930 . S
C805 C803 1.419 . S
C805 C806 1.362 . S
C806 H798 0.930 . S
C806 C805 1.362 . S
C806 C809 1.409 . S
C807 H799 0.930 . S
C807 C808 1.355 . S
C807 C809 1.415 . S
C808 C807 1.355 . S
C808 C810 1.419 . S
C809 C804 1.425 . S
C809 C806 1.409 . S
C809 C807 1.415 . S
C810 H800 0.930 . S
C810 C808 1.419 . S
C810 C811 1.362 . S
C811 H801 0.930 . S
C811 C804 1.409 . S
C811 C810 1.362 . S
H812 C818 0.930 . S
H813 C821 0.930 . S
H814 C822 0.930 . S
H815 C823 0.930 . S
H816 C826 0.930 . S
H817 C827 0.930 . S
C818 H812 0.930 . S
C818 C819 1.355 . S
C818 C820 1.415 . S
C819 C818 1.355 . S
C819 C821 1.419 . S
C820 C818 1.415 . S
C820 C825 1.425 . S
C820 C827 1.409 . S
C821 H813 0.930 . S
C821 C819 1.419 . S
C821 C822 1.362 . S
C822 H814 0.930 . S
C822 C821 1.362 . S
C822 C825 1.409 . S
C823 H815 0.930 . S
C823 C824 1.355 . S
C823 C825 1.415 . S
C824 C823 1.355 . S
C824 C826 1.419 . S
C825 C820 1.425 . S
C825 C822 1.409 . S
C825 C823 1.415 . S
C826 H816 0.930 . S
C826 C824 1.419 . S
C826 C827 1.362 . S
C827 H817 0.930 . S
C827 C820 1.409 . S
C827 C826 1.362 . S
H828 C834 0.930 . S
H829 C837 0.930 . S
H830 C838 0.930 . S
H831 C839 0.930 . S
H832 C842 0.930 . S
H833 C843 0.930 . S
C834 H828 0.930 . S
C834 C835 1.355 . S
C834 C836 1.415 . S
C835 C834 1.355 . S
C835 C837 1.419 . S
C836 C834 1.415 . S
C836 C841 1.425 . S
C836 C843 1.409 . S
C837 H829 0.930 . S
C837 C835 1.419 . S
C837 C838 1.362 . S
C838 H830 0.930 . S
C838 C837 1.362 . S
C838 C841 1.409 . S
C839 H831 0.930 . S
C839 C840 1.355 . S
C839 C841 1.415 . S
C840 C839 1.355 . S
C840 C842 1.419 . S
C841 C836 1.425 . S
C841 C838 1.409 . S
C841 C839 1.415 . S
C842 H832 0.930 . S
C842 C840 1.419 . S
C842 C843 1.362 . S
C843 H833 0.930 . S
C843 C836 1.409 . S
C843 C842 1.362 . S
H844 C850 0.930 . S
H845 C853 0.930 . S
H846 C854 0.930 . S
H847 C855 0.930 . S
H848 C858 0.930 . S
H849 C859 0.930 . S
C850 H844 0.930 . S
C850 C851 1.355 . S
C850 C852 1.415 . S
C851 C850 1.355 . S
C851 C853 1.419 . S
C852 C850 1.415 . S
C852 C857 1.425 . S
C852 C859 1.409 . S
C853 H845 0.930 . S
C853 C851 1.419 . S
C853 C854 1.362 . S
C854 H846 0.930 . S
C854 C853 1.362 . S
C854 C857 1.409 . S
C855 H847 0.930 . S
C855 C856 1.355 . S
C855 C857 1.415 . S
C856 C855 1.355 . S
C856 C858 1.419 . S
C857 C852 1.425 . S
C857 C854 1.409 . S
C857 C855 1.415 . S
C858 H848 0.930 . S
C858 C856 1.419 . S
C858 C859 1.362 . S
C859 H849 0.930 . S
C859 C852 1.409 . S
C859 C858 1.362 . S
H860 C866 0.930 . S
H861 C869 0.930 . S
H862 C870 0.930 . S
H863 C871 0.930 . S
H864 C874 0.930 . S
H865 C875 0.930 . S
C866 H860 0.930 . S
C866 C867 1.355 . S
C866 C868 1.415 . S
C867 C866 1.355 . S
C867 C869 1.419 . S
C868 C866 1.415 . S
C868 C873 1.425 . S
C868 C875 1.409 . S
C869 H861 0.930 . S
C869 C867 1.419 . S
C869 C870 1.362 . S
C870 H862 0.930 . S
C870 C869 1.362 . S
C870 C873 1.409 . S
C871 H863 0.930 . S
C871 C872 1.355 . S
C871 C873 1.415 . S
C872 C871 1.355 . S
C872 C874 1.419 . S
C873 C868 1.425 . S
C873 C870 1.409 . S
C873 C871 1.415 . S
C874 H864 0.930 . S
C874 C872 1.419 . S
C874 C875 1.362 . S
C875 H865 0.930 . S
C875 C868 1.409 . S
C875 C874 1.362 . S
H876 C882 0.930 . S
H877 C885 0.930 . S
H878 C886 0.930 . S
H879 C887 0.930 . S
H880 C890 0.930 . S
H881 C891 0.930 . S
C882 H876 0.930 . S
C882 C883 1.355 . S
C882 C884 1.415 . S
C883 C882 1.355 . S
C883 C885 1.419 . S
C884 C882 1.415 . S
C884 C889 1.425 . S
C884 C891 1.409 . S
C885 H877 0.930 . S
C885 C883 1.419 . S
C885 C886 1.362 . S
C886 H878 0.930 . S
C886 C885 1.362 . S
C886 C889 1.409 . S
C887 H879 0.930 . S
C887 C888 1.355 . S
C887 C889 1.415 . S
C888 C887 1.355 . S
C888 C890 1.419 . S
C889 C884 1.425 . S
C889 C886 1.409 . S
C889 C887 1.415 . S
C890 H880 0.930 . S
C890 C888 1.419 . S
C890 C891 1.362 . S
C891 H881 0.930 . S
C891 C884 1.409 . S
C891 C890 1.362 . S
H892 C898 0.930 . S
H893 C901 0.930 . S
H894 C902 0.930 . S
H895 C903 0.930 . S
H896 C906 0.930 . S
H897 C907 0.930 . S
C898 H892 0.930 . S
C898 C899 1.355 . S
C898 C900 1.415 . S
C899 C898 1.355 . S
C899 C901 1.419 . S
C900 C898 1.415 . S
C900 C905 1.425 . S
C900 C907 1.409 . S
C901 H893 0.930 . S
C901 C899 1.419 . S
C901 C902 1.362 . S
C902 H894 0.930 . S
C902 C901 1.362 . S
C902 C905 1.409 . S
C903 H895 0.930 . S
C903 C904 1.355 . S
C903 C905 1.415 . S
C904 C903 1.355 . S
C904 C906 1.419 . S
C905 C900 1.425 . S
C905 C902 1.409 . S
C905 C903 1.415 . S
C906 H896 0.930 . S
C906 C904 1.419 . S
C906 C907 1.362 . S
C907 H897 0.930 . S
C907 C900 1.409 . S
C907 C906 1.362 . S
H908 C914 0.930 . S
H909 C917 0.930 . S
H910 C918 0.930 . S
H911 C919 0.930 . S
H912 C922 0.930 . S
H913 C923 0.930 . S
C914 H908 0.930 . S
C914 C915 1.355 . S
C914 C916 1.415 . S
C915 C914 1.355 . S
C915 C917 1.419 . S
C916 C914 1.415 . S
C916 C921 1.425 . S
C916 C923 1.409 . S
C917 H909 0.930 . S
C917 C915 1.419 . S
C917 C918 1.362 . S
C918 H910 0.930 . S
C918 C917 1.362 . S
C918 C921 1.409 . S
C919 H911 0.930 . S
C919 C920 1.355 . S
C919 C921 1.415 . S
C920 C919 1.355 . S
C920 C922 1.419 . S
C921 C916 1.425 . S
C921 C918 1.409 . S
C921 C919 1.415 . S
C922 H912 0.930 . S
C922 C920 1.419 . S
C922 C923 1.362 . S
C923 H913 0.930 . S
C923 C916 1.409 . S
C923 C922 1.362 . S
H924 C930 0.930 . S
H925 C933 0.930 . S
H926 C934 0.930 . S
H927 C935 0.930 . S
H928 C938 0.930 . S
H929 C939 0.930 . S
C930 H924 0.930 . S
C930 C931 1.355 . S
C930 C932 1.415 . S
C931 C930 1.355 . S
C931 C933 1.419 . S
C932 C930 1.415 . S
C932 C937 1.425 . S
C932 C939 1.409 . S
C933 H925 0.930 . S
C933 C931 1.419 . S
C933 C934 1.362 . S
C934 H926 0.930 . S
C934 C933 1.362 . S
C934 C937 1.409 . S
C935 H927 0.930 . S
C935 C936 1.355 . S
C935 C937 1.415 . S
C936 C935 1.355 . S
C936 C938 1.419 . S
C937 C932 1.425 . S
C937 C934 1.409 . S
C937 C935 1.415 . S
C938 H928 0.930 . S
C938 C936 1.419 . S
C938 C939 1.362 . S
C939 H929 0.930 . S
C939 C932 1.409 . S
C939 C938 1.362 . S
H940 C946 0.930 . S
H941 C949 0.930 . S
H942 C950 0.930 . S
H943 C951 0.930 . S
H944 C954 0.930 . S
H945 C955 0.930 . S
C946 H940 0.930 . S
C946 C947 1.355 . S
C946 C948 1.415 . S
C947 C946 1.355 . S
C947 C949 1.419 . S
C948 C946 1.415 . S
C948 C953 1.425 . S
C948 C955 1.409 . S
C949 H941 0.930 . S
C949 C947 1.419 . S
C949 C950 1.362 . S
C950 H942 0.930 . S
C950 C949 1.362 . S
C950 C953 1.409 . S
C951 H943 0.930 . S
C951 C952 1.355 . S
C951 C953 1.415 . S
C952 C951 1.355 . S
C952 C954 1.419 . S
C953 C948 1.425 . S
C953 C950 1.409 . S
C953 C951 1.415 . S
C954 H944 0.930 . S
C954 C952 1.419 . S
C954 C955 1.362 . S
C955 H945 0.930 . S
C955 C948 1.409 . S
C955 C954 1.362 . S
H956 C962 0.930 . S
H957 C965 0.930 . S
H958 C966 0.930 . S
H959 C967 0.930 . S
H960 C970 0.930 . S
H961 C971 0.930 . S
C962 H956 0.930 . S
C962 C963 1.355 . S
C962 C964 1.415 . S
C963 C962 1.355 . S
C963 C965 1.419 . S
C964 C962 1.415 . S
C964 C969 1.425 . S
C964 C971 1.409 . S
C965 H957 0.930 . S
C965 C963 1.419 . S
C965 C966 1.362 . S
C966 H958 0.930 . S
C966 C965 1.362 . S
C966 C969 1.409 . S
C967 H959 0.930 . S
C967 C968 1.355 . S
C967 C969 1.415 . S
C968 C967 1.355 . S
C968 C970 1.419 . S
C969 C964 1.425 . S
C969 C966 1.409 . S
C969 C967 1.415 . S
C970 H960 0.930 . S
C970 C968 1.419 . S
C970 C971 1.362 . S
C971 H961 0.930 . S
C971 C964 1.409 . S
C971 C970 1.362 . S
H972 C978 0.930 . S
H973 C981 0.930 . S
H974 C982 0.930 . S
H975 C983 0.930 . S
H976 C986 0.930 . S
H977 C987 0.930 . S
C978 H972 0.930 . S
C978 C979 1.355 . S
C978 C980 1.415 . S
C979 C978 1.355 . S
C979 C981 1.419 . S
C980 C978 1.415 . S
C980 C985 1.425 . S
C980 C987 1.409 . S
C981 H973 0.930 . S
C981 C979 1.419 . S
C981 C982 1.362 . S
C982 H974 0.930 . S
C982 C981 1.362 . S
C982 C985 1.409 . S
C983 H975 0.930 . S
C983 C984 1.355 . S
C983 C985 1.415 . S
C984 C983 1.355 . S
C984 C986 1.419 . S
C985 C980 1.425 . S
C985 C982 1.409 . S
C985 C983 1.415 . S
C986 H976 0.930 . S
C986 C984 1.419 . S
C986 C987 1.362 . S
C987 H977 0.930 . S
C987 C980 1.409 . S
C987 C986 1.362 . S
H988 C994 0.930 . S
H989 C997 0.930 . S
H990 C998 0.930 . S
H991 C999 0.930 . S
H992 C1002 0.930 . S
H993 C1003 0.930 . S
C994 H988 0.930 . S
C994 C995 1.355 . S
C994 C996 1.415 . S
C995 C994 1.355 . S
C995 C997 1.419 . S
C996 C994 1.415 . S
C996 C1001 1.425 . S
C996 C1003 1.409 . S
C997 H989 0.930 . S
C997 C995 1.419 . S
C997 C998 1.362 . S
C998 H990 0.930 . S
C998 C997 1.362 . S
C998 C1001 1.409 . S
C999 H991 0.930 . S
C999 C1000 1.355 . S
C999 C1001 1.415 . S
C1000 C999 1.355 . S
C1000 C1002 1.419 . S
C1001 C996 1.425 . S
C1001 C998 1.409 . S
C1001 C999 1.415 . S
C1002 H992 0.930 . S
C1002 C1000 1.419 . S
C1002 C1003 1.362 . S
C1003 H993 0.930 . S
C1003 C996 1.409 . S
C1003 C1002 1.362 . S
H1004 C1010 0.930 . S
H1005 C1013 0.930 . S
H1006 C1014 0.930 . S
H1007 C1015 0.930 . S
H1008 C1018 0.930 . S
H1009 C1019 0.930 . S
C1010 H1004 0.930 . S
C1010 C1011 1.355 . S
C1010 C1012 1.415 . S
C1011 C1010 1.355 . S
C1011 C1013 1.419 . S
C1012 C1010 1.415 . S
C1012 C1017 1.425 . S
C1012 C1019 1.409 . S
C1013 H1005 0.930 . S
C1013 C1011 1.419 . S
C1013 C1014 1.362 . S
C1014 H1006 0.930 . S
C1014 C1013 1.362 . S
C1014 C1017 1.409 . S
C1015 H1007 0.930 . S
C1015 C1016 1.355 . S
C1015 C1017 1.415 . S
C1016 C1015 1.355 . S
C1016 C1018 1.419 . S
C1017 C1012 1.425 . S
C1017 C1014 1.409 . S
C1017 C1015 1.415 . S
C1018 H1008 0.930 . S
C1018 C1016 1.419 . S
C1018 C1019 1.362 . S
C1019 H1009 0.930 . S
C1019 C1012 1.409 . S
C1019 C1018 1.362 . S
C648 C577 1.598 . S
C643 C8 1.550 . S
C659 C26 1.581 . S
C664 C137 1.570 . S
C675 C50 1.542 . S
C680 C225 1.607 . S
C691 C68 1.518 . S
C696 C304 1.587 . S
C712 C401 1.562 . S
C707 C80 1.545 . S
C723 C104 1.569 . S
C728 C480 1.566 . S
C739 C32 1.553 . S
C744 C245 1.570 . S
C755 C44 1.529 . S
C760 C341 1.594 . S
C771 C62 1.579 . S
C776 C421 1.569 . S
C792 C517 1.595 . S
C787 C86 1.551 1_554 S
C808 C597 1.573 . S
C803 C98 1.526 . S
C824 C157 1.579 . S
C819 C14 1.519 . S
C835 C7 1.442 . S
C840 C253 1.516 . S
C851 C25 1.500 . S
C856 C333 1.532 . S
C872 C429 1.521 . S
C867 C52 1.430 . S
C883 C70 1.505 . S
C888 C509 1.550 . S
C904 C605 1.514 . S
C899 C79 1.453 . S
C920 C165 1.511 . S
C915 C106 1.447 . S
C936 C568 1.544 . S
C931 C34 1.482 . S
C947 C43 1.477 . S
C952 C128 1.546 . S
C968 C216 1.533 . S
C963 C61 1.501 . S
C979 C88 1.431 . S
C984 C313 1.521 . S
C995 C97 1.504 . S
C1000 C392 1.546 . S
C1011 C16 1.436 . S
C1016 C489 1.519 . S
