# Generated by pormake.
# Topology rtl, (3,6)-cn, num edge types: 1
# Building blocks:
#     Node 0, Type 0, BuildingBlock: KAKCAD_clean_linker_0, # of connection points: 3
#     Node 1, Type 0, BuildingBlock: KAKCAD_clean_linker_0, # of connection points: 3
#     Node 2, Type 0, BuildingBlock: KAKCAD_clean_linker_0, # of connection points: 3
#     Node 3, Type 0, BuildingBlock: KAKCAD_clean_linker_0, # of connection points: 3
#     Node 4, Type 1, BuildingBlock: FUNLAD_clean_sbu_0, # of connection points: 6
#     Node 5, Type 1, BuildingBlock: FUNLAD_clean_sbu_0, # of connection points: 6
#     Edge 6, Type (0, 1), BuildingBlock: TEMPAE_clean_linker_10, # of connection points: 2
#     Edge 7, Type (0, 1), BuildingBlock: TEMPAE_clean_linker_10, # of connection points: 2
#     Edge 8, Type (0, 1), BuildingBlock: TEMPAE_clean_linker_10, # of connection points: 2
#     Edge 9, Type (0, 1), BuildingBlock: TEMPAE_clean_linker_10, # of connection points: 2
#     Edge 10, Type (0, 1), BuildingBlock: TEMPAE_clean_linker_10, # of connection points: 2
#     Edge 11, Type (0, 1), BuildingBlock: TEMPAE_clean_linker_10, # of connection points: 2
#     Edge 12, Type (0, 1), BuildingBlock: TEMPAE_clean_linker_10, # of connection points: 2
#     Edge 13, Type (0, 1), BuildingBlock: TEMPAE_clean_linker_10, # of connection points: 2
#     Edge 14, Type (0, 1), BuildingBlock: TEMPAE_clean_linker_10, # of connection points: 2
#     Edge 15, Type (0, 1), BuildingBlock: TEMPAE_clean_linker_10, # of connection points: 2
#     Edge 16, Type (0, 1), BuildingBlock: TEMPAE_clean_linker_10, # of connection points: 2
#     Edge 17, Type (0, 1), BuildingBlock: TEMPAE_clean_linker_10, # of connection points: 2
# Relax obj value: 0.027
# Max RMSD: 0.092
# Mean RMSD: 0.078
data_MOF--net-rtl--node1-FUNLAD_clean_sbu_0--node2-KAKCAD_clean_linker_0--edge1-TEMPAE_clean_linker_10
_symmetry_space_group_name_H-M    P1
_symmetry_Int_Tables_number       1
_symmetry_cell_setting            triclinic
loop_
_symmetry_equiv_pos_as_xyz
'x, y, z'
_cell_length_a     49.544937
_cell_length_b     40.445061
_cell_length_c     28.617742
_cell_angle_alpha  89.799397
_cell_angle_beta   90.927379
_cell_angle_gamma 90.60641
loop_
_atom_site_label
_atom_site_type_symbol
_atom_site_fract_x
_atom_site_fract_y
_atom_site_fract_z
_atom_type_partial_charge
C0 C 0.09162 0.78301 0.84818 0.0
C1 C 0.09091 0.81776 0.84549 0.0
C2 C 0.10156 0.76731 0.88858 0.0
C3 C 0.11074 0.78617 0.92688 0.0
C4 C 0.11091 0.82079 0.92342 0.0
C5 C 0.10122 0.83639 0.88321 0.0
C6 C 0.11929 0.77041 0.97137 0.0
C7 C 0.13895 0.74572 0.97256 0.0
C8 C 0.14931 0.73416 0.01561 0.0
C9 C 0.13917 0.74675 0.05754 0.0
C10 C 0.11918 0.77106 0.0566 0.0
C11 C 0.10921 0.78242 0.01342 0.0
C12 C 0.10973 0.78653 0.10016 0.0
C13 C 0.10173 0.76727 0.13856 0.0
C14 C 0.10783 0.82109 0.10267 0.0
C15 C 0.0973 0.83609 0.142 0.0
C16 C 0.08831 0.81692 0.17982 0.0
C17 C 0.1727 0.71172 0.01661 0.0
C18 C 0.17245 0.68247 0.99024 0.0
C19 C 0.19609 0.72054 0.0422 0.0
C20 C 0.21906 0.70094 0.04054 0.0
C21 C 0.21892 0.67189 0.01387 0.0
C22 C 0.19532 0.66249 0.9893 0.0
C23 C 0.09104 0.78235 0.1781 0.0
H24 H 0.08378 0.76799 0.81969 0.0
H25 H 0.10127 0.74056 0.89049 0.0
H26 H 0.11844 0.8359 0.9521 0.0
H27 H 0.1017 0.86315 0.88177 0.0
H28 H 0.1474 0.73706 0.94015 0.0
H29 H 0.09374 0.8012 0.01248 0.0
H30 H 0.14749 0.73844 0.09077 0.0
H31 H 0.10296 0.74056 0.13743 0.0
H32 H 0.11443 0.83661 0.07401 0.0
H33 H 0.09618 0.86282 0.14276 0.0
H34 H 0.15462 0.67522 0.97022 0.0
H35 H 0.19688 0.74315 0.06239 0.0
H36 H 0.08426 0.76694 0.20672 0.0
H37 H 0.19485 0.64021 0.96839 0.0
H38 H 0.23702 0.70857 0.0599 0.0
C39 C 0.58113 0.73094 0.67572 0.0
C40 C 0.57729 0.69639 0.67628 0.0
C41 C 0.59078 0.74686 0.63562 0.0
C42 C 0.59651 0.72843 0.59555 0.0
C43 C 0.59344 0.69391 0.59676 0.0
C44 C 0.58406 0.67809 0.63661 0.0
C45 C 0.6053 0.74445 0.55174 0.0
C46 C 0.62794 0.76549 0.55106 0.0
C47 C 0.63872 0.7763 0.50828 0.0
C48 C 0.62641 0.76544 0.46616 0.0
C49 C 0.60397 0.74388 0.46648 0.0
C50 C 0.59288 0.73497 0.50955 0.0
C51 C 0.59413 0.7273 0.42287 0.0
C52 C 0.59457 0.74339 0.37918 0.0
C53 C 0.58551 0.69405 0.42458 0.0
C54 C 0.57761 0.67739 0.38414 0.0
C55 C 0.57889 0.69298 0.3403 0.0
C56 C 0.66418 0.7963 0.50763 0.0
C57 C 0.66989 0.81994 0.54248 0.0
C58 C 0.68349 0.79106 0.47299 0.0
C59 C 0.70778 0.80881 0.47323 0.0
C60 C 0.71385 0.83174 0.5088 0.0
C61 C 0.69449 0.83722 0.54329 0.0
C62 C 0.58718 0.72635 0.3383 0.0
H63 H 0.57611 0.74568 0.70582 0.0
H64 H 0.5931 0.77352 0.63546 0.0
H65 H 0.59836 0.67905 0.56669 0.0
H66 H 0.58216 0.65138 0.63634 0.0
H67 H 0.63807 0.77167 0.58377 0.0
H68 H 0.57509 0.71917 0.51056 0.0
H69 H 0.63498 0.77268 0.4331 0.0
H70 H 0.6008 0.76905 0.37642 0.0
H71 H 0.58547 0.68031 0.45711 0.0
H72 H 0.57068 0.65202 0.38742 0.0
H73 H 0.65542 0.82501 0.56942 0.0
H74 H 0.68026 0.77267 0.44605 0.0
H75 H 0.58855 0.73915 0.30512 0.0
H76 H 0.69848 0.85438 0.57158 0.0
H77 H 0.72186 0.80433 0.44547 0.0
C78 C 0.90181 0.19544 0.16506 0.0
C79 C 0.92949 0.18933 0.17135 0.0
C80 C 0.89231 0.21142 0.12476 0.0
C81 C 0.91034 0.22185 0.09006 0.0
C82 C 0.93814 0.21669 0.09724 0.0
C83 C 0.94759 0.20047 0.13734 0.0
C84 C 0.90014 0.23658 0.04555 0.0
C85 C 0.87823 0.25833 0.04509 0.0
C86 C 0.86793 0.27101 0.00278 0.0
C87 C 0.87989 0.26216 0.96055 0.0
C88 C 0.90157 0.24004 0.96022 0.0
C89 C 0.91156 0.22751 0.00291 0.0
C90 C 0.91258 0.2278 0.91553 0.0
C91 C 0.89516 0.21912 0.87817 0.0
C92 C 0.94041 0.22221 0.91126 0.0
C93 C 0.95038 0.20677 0.87162 0.0
C94 C 0.93279 0.19683 0.83523 0.0
C95 C 0.84354 0.2918 0.00255 0.0
C96 C 0.82021 0.28065 0.0252 0.0
C97 C 0.84314 0.3223 0.97892 0.0
C98 C 0.81975 0.34141 0.97819 0.0
C99 C 0.7963 0.32992 0.0002 0.0
C100 C 0.79673 0.29941 0.02371 0.0
C101 C 0.90518 0.20388 0.83837 0.0
H102 H 0.88739 0.1868 0.19054 0.0
H103 H 0.87076 0.21455 0.12011 0.0
H104 H 0.95262 0.22497 0.07166 0.0
H105 H 0.96907 0.19648 0.14165 0.0
H106 H 0.86913 0.26553 0.07766 0.0
H107 H 0.92747 0.20934 0.0028 0.0
H108 H 0.87178 0.27177 0.92788 0.0
H109 H 0.87359 0.22267 0.88052 0.0
H110 H 0.95444 0.22915 0.93903 0.0
H111 H 0.97182 0.20209 0.86977 0.0
H112 H 0.81999 0.25708 0.04333 0.0
H113 H 0.86094 0.33138 0.96128 0.0
H114 H 0.89112 0.19621 0.811 0.0
H115 H 0.77891 0.29017 0.04114 0.0
H116 H 0.8198 0.36485 0.95975 0.0
C117 C 0.40921 0.30696 0.34892 0.0
C118 C 0.43673 0.30761 0.33825 0.0
C119 C 0.40017 0.28956 0.38795 0.0
C120 C 0.41861 0.27311 0.4174 0.0
C121 C 0.44613 0.27335 0.4063 0.0
C122 C 0.4551 0.29021 0.36661 0.0
C123 C 0.40921 0.25803 0.46141 0.0
C124 C 0.3872 0.23597 0.46106 0.0
C125 C 0.37595 0.2247 0.50311 0.0
C126 C 0.38747 0.23557 0.54574 0.0
C127 C 0.40966 0.25753 0.54662 0.0
C128 C 0.42055 0.26836 0.50414 0.0
C129 C 0.42009 0.27148 0.5915 0.0
C130 C 0.40213 0.28096 0.62647 0.0
C131 C 0.44789 0.27738 0.59854 0.0
C132 C 0.45738 0.29349 0.63876 0.0
C133 C 0.4393 0.30379 0.67297 0.0
C134 C 0.35118 0.20344 0.50257 0.0
C135 C 0.33094 0.20799 0.46806 0.0
C136 C 0.34698 0.17937 0.53748 0.0
C137 C 0.32289 0.1611 0.53861 0.0
C138 C 0.3028 0.166 0.50429 0.0
C139 C 0.30715 0.18922 0.46868 0.0
C140 C 0.41165 0.29682 0.66684 0.0
H141 H 0.39478 0.32032 0.32739 0.0
H142 H 0.3789 0.29001 0.39614 0.0
H143 H 0.46068 0.26086 0.42864 0.0
H144 H 0.47644 0.29062 0.35894 0.0
H145 H 0.37878 0.22791 0.42779 0.0
H146 H 0.43684 0.28646 0.50416 0.0
H147 H 0.37869 0.22772 0.57841 0.0
H148 H 0.38056 0.27738 0.6219 0.0
H149 H 0.4623 0.26993 0.57265 0.0
H150 H 0.47885 0.29823 0.64292 0.0
H151 H 0.33303 0.22673 0.44123 0.0
H152 H 0.36224 0.17466 0.56411 0.0
H153 H 0.39724 0.30485 0.69238 0.0
H154 H 0.29173 0.19362 0.44217 0.0
H155 H 0.31993 0.14311 0.56625 0.0
C156 C 0.02224 0.95745 0.44246 0.0
N157 N 0.0653 0.0343 0.50885 0.0
C158 C 0.08681 0.01407 0.50378 0.0
C159 C 0.11298 0.02711 0.50318 0.0
C160 C 0.11723 0.06129 0.50883 0.0
C161 C 0.09459 0.08153 0.51446 0.0
C162 C 0.06872 0.06751 0.51392 0.0
Zn163 Zn 0.02736 0.01401 0.50934 0.0
C164 C 0.99066 0.04532 0.44024 0.0
N165 N 0.94884 0.96972 0.51048 0.0
C166 C 0.94566 0.93658 0.51723 0.0
C167 C 0.92713 0.98978 0.50465 0.0
C168 C 0.90099 0.97661 0.50501 0.0
C169 C 0.89721 0.94262 0.51244 0.0
C170 C 0.91984 0.92249 0.5188 0.0
Zn171 Zn 0.98675 0.99006 0.50975 0.0
O172 O 0.0382 0.98012 0.45692 0.0
C173 C 0.02385 0.95863 0.57833 0.0
O174 O 0.99864 0.95537 0.45903 0.0
H175 H 0.93006 0.01609 0.49985 0.0
H176 H 0.08371 0.9877 0.50009 0.0
H177 H 0.96315 0.92103 0.52144 0.0
O178 O 0.03994 0.98013 0.56162 0.0
O179 O 0.99958 0.95742 0.56338 0.0
H180 H 0.05137 0.08319 0.51782 0.0
O181 O 0.97525 0.0249 0.56086 0.0
O182 O 0.01568 0.04751 0.56154 0.0
O183 O 0.97481 0.02302 0.45558 0.0
O184 O 0.01447 0.04767 0.45715 0.0
C185 C 0.99174 0.04653 0.57676 0.0
H186 H 0.12963 0.01049 0.49786 0.0
H187 H 0.09676 0.10791 0.51977 0.0
H188 H 0.8839 0.99283 0.50024 0.0
H189 H 0.91757 0.89609 0.52426 0.0
C190 C 0.49264 0.4558 0.93751 0.0
N191 N 0.56667 0.47298 0.00587 0.0
C192 C 0.57012 0.43997 0.01286 0.0
C193 C 0.59594 0.42655 0.0133 0.0
C194 C 0.61836 0.44716 0.00559 0.0
C195 C 0.61432 0.48103 0.99796 0.0
C196 C 0.58815 0.49356 -0.00131 0.0
Zn197 Zn 0.52835 0.49131 0.00579 0.0
C198 C 0.52121 0.54615 0.93807 0.0
N199 N 0.44809 0.52841 0.00557 0.0
C200 C 0.42652 0.50778 -0.00156 0.0
C201 C 0.44468 0.56129 0.01322 0.0
C202 C 0.41881 0.57449 0.01474 0.0
C203 C 0.3963 0.55378 0.00735 0.0
C204 C 0.40028 0.52011 -0.00131 0.0
Zn205 Zn 0.48646 0.51015 0.00551 0.0
O206 O 0.51606 0.4552 0.95626 0.0
C207 C 0.49347 0.4558 0.07387 0.0
O208 O 0.47596 0.47746 0.95043 0.0
H209 H 0.46204 0.57737 0.01825 0.0
H210 H 0.5528 0.42395 0.01793 0.0
H211 H 0.42964 0.48169 0.99272 0.0
O212 O 0.51785 0.4589 0.06128 0.0
O213 O 0.47544 0.47367 0.05478 0.0
H214 H 0.58501 0.51974 0.99346 0.0
O215 O 0.49792 0.54242 0.06078 0.0
O216 O 0.54026 0.52771 0.05466 0.0
O217 O 0.49796 0.54659 0.95615 0.0
O218 O 0.53795 0.52422 0.95102 0.0
C219 C 0.52253 0.5457 0.07318 0.0
H220 H 0.59833 0.40022 0.01883 0.0
H221 H 0.63123 0.49763 0.99208 0.0
H222 H 0.41641 0.60068 0.02107 0.0
H223 H 0.38327 0.50347 0.99298 0.0
C224 C 0.26739 0.12945 0.4683 0.0
C225 C 0.27677 0.14803 0.50654 0.0
C226 C 0.24202 0.11374 0.46909 0.0
C227 C 0.22547 0.11751 0.50857 0.0
C228 C 0.23502 0.13608 0.54743 0.0
C229 C 0.26074 0.15084 0.54614 0.0
C230 C 0.23279 0.09346 0.42749 0.0
C231 C 0.21773 0.14124 0.58972 0.0
C232 C 0.14992 0.10708 0.48933 0.0
C233 C 0.14506 0.0757 0.50881 0.0
C234 C 0.17593 0.1211 0.48954 0.0
C235 C 0.1978 0.10299 0.50858 0.0
C236 C 0.19321 0.07117 0.5277 0.0
C237 C 0.16687 0.0581 0.52815 0.0
C238 C 0.18 0.15535 0.46945 0.0
C239 C 0.21613 0.05091 0.54762 0.0
H240 H 0.27995 0.12725 0.43781 0.0
H241 H 0.26801 0.16553 0.57546 0.0
H242 H 0.22671 0.06827 0.43896 0.0
H243 H 0.21483 0.10496 0.41078 0.0
H244 H 0.24876 0.09128 0.40089 0.0
H245 H 0.22835 0.15586 0.61734 0.0
H246 H 0.19901 0.15435 0.57923 0.0
H247 H 0.21156 0.11706 0.60475 0.0
H248 H 0.13343 0.12069 0.47343 0.0
H249 H 0.16339 0.03415 0.54412 0.0
H250 H 0.1938 0.15435 0.43938 0.0
H251 H 0.1896 0.17174 0.49608 0.0
H252 H 0.16072 0.16662 0.4575 0.0
H253 H 0.23189 0.04778 0.52092 0.0
H254 H 0.20932 0.02606 0.55952 0.0
H255 H 0.22571 0.064 0.57768 0.0
C256 C 0.26778 0.6674 0.99635 0.0
C257 C 0.24377 0.65219 0.01066 0.0
C258 C 0.29183 0.64956 0.9944 0.0
C259 C 0.29194 0.61588 0.00809 0.0
C260 C 0.26764 0.60032 0.02225 0.0
C261 C 0.2437 0.61863 0.02287 0.0
C262 C 0.31719 0.66688 0.9782 0.0
C263 C 0.26709 0.56465 0.03794 0.0
C264 C 0.35139 0.56453 0.96984 0.0
C265 C 0.36882 0.56753 0.00863 0.0
C266 C 0.326 0.57966 0.96941 0.0
C267 C 0.31777 0.5975 0.00914 0.0
C268 C 0.33497 0.59945 0.04907 0.0
C269 C 0.36047 0.58476 0.04809 0.0
C270 C 0.30846 0.57763 0.92586 0.0
C271 C 0.3267 0.61765 0.09245 0.0
H272 H 0.26768 0.69332 0.98651 0.0
H273 H 0.22509 0.60701 0.03416 0.0
H274 H 0.33232 0.66779 0.00718 0.0
H275 H 0.32624 0.65289 0.94919 0.0
H276 H 0.31331 0.69255 0.96611 0.0
H277 H 0.24643 0.55599 0.04673 0.0
H278 H 0.27505 0.54854 0.01019 0.0
H279 H 0.28039 0.5616 0.0692 0.0
H280 H 0.35803 0.55132 0.93926 0.0
H281 H 0.37397 0.58679 0.07817 0.0
H282 H 0.30577 0.60276 0.91093 0.0
H283 H 0.28812 0.56792 0.93448 0.0
H284 H 0.31727 0.56157 0.89877 0.0
H285 H 0.32487 0.64442 0.08463 0.0
H286 H 0.34146 0.61456 0.12175 0.0
H287 H 0.30663 0.60868 0.10398 0.0
C288 C 0.74275 0.88204 0.52578 0.0
C289 C 0.74051 0.84919 0.51029 0.0
C290 C 0.76786 0.89846 0.52766 0.0
C291 C 0.79119 0.88194 0.51262 0.0
C292 C 0.7891 0.84897 0.49657 0.0
C293 C 0.76391 0.83287 0.49626 0.0
C294 C 0.76944 0.93345 0.54581 0.0
C295 C 0.81347 0.83067 0.47959 0.0
C296 C 0.8521 0.93252 0.47506 0.0
C297 C 0.86975 0.92815 0.51323 0.0
C298 C 0.82633 0.91781 0.47452 0.0
C299 C 0.8179 0.899 0.51359 0.0
C300 C 0.83544 0.89533 0.55279 0.0
C301 C 0.86134 0.90964 0.55187 0.0
C302 C 0.80843 0.92164 0.43167 0.0
C303 C 0.82693 0.87609 0.5955 0.0
H304 H 0.72485 0.89512 0.53608 0.0
H305 H 0.76266 0.80728 0.48531 0.0
H306 H 0.78414 0.935 0.57541 0.0
H307 H 0.77679 0.95033 0.51805 0.0
H308 H 0.74959 0.94239 0.55779 0.0
H309 H 0.80822 0.80555 0.46648 0.0
H310 H 0.82321 0.84484 0.45106 0.0
H311 H 0.82859 0.82826 0.50837 0.0
H312 H 0.85878 0.94672 0.44511 0.0
H313 H 0.87501 0.90659 0.58152 0.0
H314 H 0.78885 0.93252 0.44133 0.0
H315 H 0.80401 0.89699 0.41627 0.0
H316 H 0.81784 0.93756 0.40458 0.0
H317 H 0.80761 0.88577 0.60863 0.0
H318 H 0.84232 0.87733 0.62412 0.0
H319 H 0.82344 0.84977 0.58623 0.0
C320 C 0.7712 0.38221 0.01384 0.0
C321 C 0.77122 0.34939 -0.00159 0.0
C322 C 0.74712 0.40019 0.01487 0.0
C323 C 0.7227 0.38509 -0.00081 0.0
C324 C 0.72284 0.35223 0.98224 0.0
C325 C 0.74708 0.33466 0.98253 0.0
C326 C 0.74766 0.43494 0.03397 0.0
C327 C 0.69733 0.33549 0.96437 0.0
C328 C 0.65495 0.41375 0.04265 0.0
C329 C 0.64578 0.43312 0.00511 0.0
C330 C 0.6804 0.39894 0.04185 0.0
C331 C 0.69675 0.40304 0.00206 0.0
C332 C 0.68768 0.42295 0.96426 0.0
C333 C 0.66235 0.43806 0.96647 0.0
C334 C 0.68959 0.37843 0.08323 0.0
C335 C 0.70431 0.42737 0.9209 0.0
H336 H 0.7899 0.39345 0.02639 0.0
H337 H 0.74722 0.30934 0.97022 0.0
H338 H 0.73902 0.45236 0.00785 0.0
H339 H 0.73493 0.43614 0.06547 0.0
H340 H 0.76841 0.44341 0.04353 0.0
H341 H 0.7012 0.31059 0.9498 0.0
H342 H 0.68274 0.33282 0.99317 0.0
H343 H 0.68763 0.35087 0.9368 0.0
H344 H 0.64215 0.41021 0.07268 0.0
H345 H 0.6551 0.45288 0.93732 0.0
H346 H 0.70978 0.38701 0.09573 0.0
H347 H 0.69153 0.35222 0.07263 0.0
H348 H 0.67532 0.37963 0.11271 0.0
H349 H 0.72475 0.43689 0.93029 0.0
H350 H 0.69483 0.44462 0.89537 0.0
H351 H 0.70691 0.40308 0.90371 0.0
C352 C 0.083 0.82417 0.26631 0.0
C353 C 0.07599 0.83337 0.22044 0.0
C354 C 0.07312 0.84165 0.30466 0.0
C355 C 0.05598 0.86898 0.29679 0.0
C356 C 0.048 0.87751 0.25066 0.0
C357 C 0.058 0.85951 0.2131 0.0
C358 C 0.08187 0.83171 0.35344 0.0
C359 C 0.02972 0.90646 0.2408 0.0
C360 C 0.01511 0.90645 0.39412 0.0
C361 C 0.03116 0.93395 0.40649 0.0
C362 C 0.02329 0.88444 0.35938 0.0
C363 C 0.04793 0.8903 0.33626 0.0
C364 C 0.06436 0.91774 0.34907 0.0
C365 C 0.05584 0.93913 0.38415 0.0
C366 C 0.00538 0.85524 0.34689 0.0
C367 C 0.09068 0.92498 0.32493 0.0
H368 H 0.09696 0.80407 0.27218 0.0
H369 H 0.05203 0.86625 0.17775 0.0
H370 H 0.09513 0.85127 0.36872 0.0
H371 H 0.06407 0.82915 0.37627 0.0
H372 H 0.09304 0.80803 0.3539 0.0
H373 H 0.02422 0.90866 0.20313 0.0
H374 H 0.01092 0.90401 0.26109 0.0
H375 H 0.03993 0.92972 0.25203 0.0
H376 H 0.9961 0.90216 0.41148 0.0
H377 H 0.06838 0.96029 0.39353 0.0
H378 H 0.01707 0.83202 0.34905 0.0
H379 H 0.99792 0.85775 0.3103 0.0
H380 H 0.98772 0.853 0.37015 0.0
H381 H 0.10407 0.90321 0.32737 0.0
H382 H 0.10154 0.94668 0.34014 0.0
H383 H 0.08675 0.92987 0.28726 0.0
C384 C 0.5754 0.68675 0.76296 0.0
C385 C 0.5663 0.67892 0.71764 0.0
C386 C 0.56708 0.66787 0.80154 0.0
C387 C 0.5495 0.64045 0.7944 0.0
C388 C 0.53937 0.63335 0.74902 0.0
C389 C 0.54771 0.65284 0.7113 0.0
C390 C 0.57796 0.67642 0.84962 0.0
C391 C 0.52062 0.60429 0.73992 0.0
C392 C 0.5526 0.56727 0.87721 0.0
C393 C 0.52884 0.571 0.90253 0.0
C394 C 0.55984 0.59017 0.84264 0.0
C395 C 0.54308 0.61766 0.83354 0.0
C396 C 0.51943 0.62206 0.85979 0.0
C397 C 0.51249 0.59853 0.89382 0.0
C398 C 0.58508 0.58445 0.81499 0.0
C399 C 0.50126 0.65129 0.85139 0.0
H400 H 0.58981 0.70681 0.76808 0.0
H401 H 0.54009 0.64717 0.67649 0.0
H402 H 0.56127 0.67758 0.87492 0.0
H403 H 0.5919 0.65682 0.86189 0.0
H404 H 0.58906 0.70043 0.85 0.0
H405 H 0.51356 0.60313 0.70291 0.0
H406 H 0.53116 0.58094 0.7486 0.0
H407 H 0.50274 0.60565 0.76263 0.0
H408 H 0.56535 0.54609 0.88381 0.0
H409 H 0.49422 0.60172 0.91359 0.0
H410 H 0.5986 0.60643 0.81716 0.0
H411 H 0.57964 0.5808 0.77758 0.0
H412 H 0.59641 0.5625 0.82754 0.0
H413 H 0.51315 0.67466 0.8534 0.0
H414 H 0.48469 0.65237 0.87701 0.0
H415 H 0.49222 0.64989 0.81573 0.0
C416 C 0.93044 0.17719 0.25728 0.0
C417 C 0.93931 0.17003 0.2122 0.0
C418 C 0.93899 0.15828 0.2959 0.0
C419 C 0.95653 0.13137 0.28905 0.0
C420 C 0.96567 0.12419 0.24363 0.0
C421 C 0.95705 0.14371 0.20579 0.0
C422 C 0.9291 0.16692 0.34392 0.0
C423 C 0.98413 0.09545 0.23486 0.0
C424 C 0.99714 0.09581 0.39071 0.0
C425 C 0.98156 0.06796 0.40259 0.0
C426 C 0.98895 0.11709 0.35444 0.0
C427 C 0.9648 0.1101 0.32913 0.0
C428 C 0.94889 0.08216 0.34118 0.0
C429 C 0.95738 0.06154 0.37795 0.0
C430 C 0.00627 0.14687 0.3429 0.0
C431 C 0.92313 0.07371 0.31467 0.0
H432 H 0.9169 0.19771 0.26233 0.0
H433 H 0.96366 0.13787 0.17087 0.0
H434 H 0.91713 0.146 0.35823 0.0
H435 H 0.94652 0.17113 0.3681 0.0
H436 H 0.91637 0.18937 0.34354 0.0
H437 H 0.98974 0.09353 0.19755 0.0
H438 H 0.00286 0.09804 0.25634 0.0
H439 H 0.9741 0.07201 0.24548 0.0
H440 H 0.01577 0.10104 0.4098 0.0
H441 H 0.94525 0.04003 0.38687 0.0
H442 H 0.99408 0.16968 0.34432 0.0
H443 H 0.01384 0.14476 0.30677 0.0
H444 H 0.02386 0.14961 0.36722 0.0
H445 H 0.90899 0.09475 0.3159 0.0
H446 H 0.91287 0.05139 0.3289 0.0
H447 H 0.92764 0.06929 0.27736 0.0
C448 C 0.43983 0.3164 0.75861 0.0
C449 C 0.44895 0.32355 0.71354 0.0
C450 C 0.44749 0.33634 0.79672 0.0
C451 C 0.46437 0.36427 0.78934 0.0
C452 C 0.474 0.37126 0.74402 0.0
C453 C 0.46626 0.35071 0.70669 0.0
C454 C 0.43712 0.32789 0.84467 0.0
C455 C 0.49184 0.401 0.73471 0.0
C456 C 0.46119 0.4359 0.87424 0.0
C457 C 0.48503 0.43178 0.9006 0.0
C458 C 0.45413 0.41392 0.83817 0.0
C459 C 0.47117 0.38698 0.82859 0.0
C460 C 0.495 0.38232 0.85563 0.0
C461 C 0.50173 0.40489 0.89117 0.0
C462 C 0.42866 0.41985 0.80978 0.0
C463 C 0.5135 0.35366 0.84673 0.0
H464 H 0.42662 0.29523 0.764 0.0
H465 H 0.47306 0.35653 0.67176 0.0
H466 H 0.45423 0.32582 0.86998 0.0
H467 H 0.424 0.34799 0.85708 0.0
H468 H 0.42538 0.30434 0.84494 0.0
H469 H 0.4983 0.40235 0.69775 0.0
H470 H 0.48086 0.42395 0.74305 0.0
H471 H 0.51009 0.40032 0.75762 0.0
H472 H 0.4482 0.45664 0.88128 0.0
H473 H 0.52011 0.40144 0.9116 0.0
H474 H 0.41517 0.39783 0.81149 0.0
H475 H 0.43374 0.42374 0.77253 0.0
H476 H 0.41743 0.4417 0.82212 0.0
H477 H 0.50205 0.32999 0.84877 0.0
H478 H 0.53069 0.35278 0.8721 0.0
H479 H 0.52167 0.35555 0.81094 0.0
C480 C 0.55819 0.6887 0.25949 0.0
C481 C 0.57197 0.67393 0.29725 0.0
C482 C 0.5505 0.67017 0.21994 0.0
C483 C 0.55615 0.63595 0.21871 0.0
C484 C 0.57042 0.62103 0.25626 0.0
C485 C 0.57857 0.6403 0.29456 0.0
C486 C 0.53596 0.68704 0.17986 0.0
C487 C 0.57653 0.5845 0.25657 0.0
C488 C 0.51276 0.57818 0.14456 0.0
C489 C 0.5305 0.57022 0.10882 0.0
C490 C 0.52065 0.60016 0.18014 0.0
C491 C 0.54657 0.61523 0.17896 0.0
C492 C 0.56408 0.60837 0.14171 0.0
C493 C 0.556 0.58546 0.10744 0.0
C494 C 0.50171 0.60614 0.22 0.0
C495 C 0.59153 0.62472 0.13854 0.0
H496 H 0.55284 0.71457 0.2612 0.0
H497 H 0.58998 0.62881 0.32273 0.0
H498 H 0.54608 0.68165 0.14647 0.0
H499 H 0.51499 0.67731 0.17678 0.0
H500 H 0.53518 0.71427 0.18445 0.0
H501 H 0.58739 0.57665 0.28894 0.0
H502 H 0.55746 0.56997 0.25342 0.0
H503 H 0.58903 0.57819 0.22614 0.0
H504 H 0.49305 0.56629 0.14561 0.0
H505 H 0.56957 0.57961 0.07936 0.0
H506 H 0.49818 0.63299 0.22408 0.0
H507 H 0.51102 0.59714 0.25315 0.0
H508 H 0.48192 0.59341 0.21481 0.0
H509 H 0.58976 0.6519 0.14237 0.0
H510 H 0.60146 0.61942 0.10488 0.0
H511 H 0.60479 0.61586 0.16746 0.0
C512 C 0.93487 0.18431 0.7496 0.0
C513 C 0.94288 0.17712 0.7957 0.0
C514 C 0.94322 0.16458 0.71234 0.0
C515 C 0.95967 0.13682 0.7216 0.0
C516 C 0.96808 0.12971 0.76802 0.0
C517 C 0.95967 0.15003 0.80448 0.0
C518 C 0.93415 0.17314 0.6632 0.0
C519 C 0.98539 0.10013 0.77936 0.0
C520 C 0.95862 0.06553 0.63568 0.0
C521 C 0.98322 0.07018 0.61285 0.0
C522 C 0.9506 0.08726 0.67081 0.0
C523 C 0.96743 0.11449 0.68304 0.0
C524 C 0.99203 0.11968 0.65953 0.0
C525 C -0.00029 0.09735 0.62488 0.0
C526 C 0.92433 0.08072 0.69544 0.0
C527 C 0.01036 0.14864 0.6713 0.0
H528 H 0.92205 0.20539 0.74272 0.0
H529 H 0.96558 0.14412 0.84015 0.0
H530 H 0.95191 0.17581 0.64031 0.0
H531 H 0.92137 0.15283 0.64872 0.0
H532 H 0.92246 0.19642 0.66168 0.0
H533 H 0.99073 0.09853 0.81714 0.0
H534 H 0.97454 0.07709 0.76901 0.0
H535 H 0.0043 0.10129 0.75916 0.0
H536 H 0.94578 0.04457 0.62662 0.0
H537 H 0.01867 0.10122 0.60716 0.0
H538 H 0.91105 0.10254 0.69216 0.0
H539 H 0.92832 0.07663 0.73328 0.0
H540 H 0.91334 0.05879 0.68122 0.0
H541 H 0.99907 0.1721 0.66798 0.0
H542 H 0.02821 0.15 0.64834 0.0
H543 H 0.01754 0.14668 0.70811 0.0
C544 C 0.44332 0.3624 0.30061 0.0
C545 C 0.44633 0.32808 0.29909 0.0
C546 C 0.45204 0.38247 0.26368 0.0
C547 C 0.4634 0.36765 0.2239 0.0
C548 C 0.46641 0.33287 0.22223 0.0
C549 C 0.45811 0.31346 0.26028 0.0
C550 C 0.44905 0.4195 0.26723 0.0
C551 C 0.47789 0.31617 0.17996 0.0
C552 C 0.45978 0.41944 0.11329 0.0
C553 C 0.48618 0.43203 0.11091 0.0
C554 C 0.45235 0.39749 0.14899 0.0
C555 C 0.47163 0.38866 0.18379 0.0
C556 C 0.49838 0.40115 0.18137 0.0
C557 C 0.50543 0.42239 0.14456 0.0
C558 C 0.4238 0.38407 0.14981 0.0
C559 C 0.5193 0.39291 0.21844 0.0
H560 H 0.43432 0.37353 0.33098 0.0
H561 H 0.46027 0.28682 0.25935 0.0
H562 H 0.46888 0.4319 0.26215 0.0
H563 H 0.43521 0.42847 0.23922 0.0
H564 H 0.44102 0.42715 0.30152 0.0
H565 H 0.47885 0.28889 0.18422 0.0
H566 H 0.46528 0.32186 0.14861 0.0
H567 H 0.4985 0.32582 0.17324 0.0
H568 H 0.44493 0.42663 0.08703 0.0
H569 H 0.52583 0.43224 0.1429 0.0
H570 H 0.41346 0.3932 0.18126 0.0
H571 H 0.42396 0.35667 0.152 0.0
H572 H 0.41186 0.39147 0.11837 0.0
H573 H 0.51265 0.40208 0.25286 0.0
H574 H 0.53937 0.40402 0.21084 0.0
H575 H 0.5215 0.36573 0.22158 0.0
C576 C 0.0846 0.82457 0.75866 0.0
C577 C 0.07908 0.83497 0.80419 0.0
C578 C 0.0749 0.8423 0.71966 0.0
C579 C 0.05949 0.87113 0.72652 0.0
C580 C 0.05319 0.88112 0.77235 0.0
C581 C 0.0629 0.86282 0.81054 0.0
C582 C 0.08177 0.83077 0.67123 0.0
C583 C 0.03681 0.91172 0.78114 0.0
C584 C 0.05903 0.93936 0.6354 0.0
C585 C 0.03333 0.93532 0.61484 0.0
C586 C 0.06804 0.91808 0.671 0.0
C587 C 0.05102 0.89197 0.68615 0.0
C588 C 0.02534 0.8872 0.66473 0.0
C589 C 0.01673 0.90904 0.62944 0.0
C590 C 0.09549 0.92412 0.69328 0.0
C591 C 0.00675 0.85945 0.67973 0.0
H592 H 0.09717 0.80316 0.75351 0.0
H593 H 0.05803 0.87054 0.84561 0.0
H594 H 0.0632 0.82864 0.64922 0.0
H595 H 0.09518 0.84924 0.65433 0.0
H596 H 0.09209 0.80651 0.67173 0.0
H597 H 0.03295 0.91549 0.81887 0.0
H598 H 0.04765 0.93383 0.76761 0.0
H599 H 0.01714 0.91008 0.76218 0.0
H600 H 0.072 0.95954 0.62424 0.0
H601 H 0.99692 0.9056 0.61344 0.0
H602 H 0.10777 0.90139 0.69169 0.0
H603 H 0.09318 0.93032 0.73074 0.0
H604 H 0.10672 0.9446 0.67608 0.0
H605 H 0.01741 0.83549 0.67851 0.0
H606 H 0.98825 0.85772 0.65739 0.0
H607 H 0.00065 0.86332 0.71642 0.0
loop_
_geom_bond_atom_site_label_1
_geom_bond_atom_site_label_2
_geom_bond_distance
_geom_bond_site_symmetry_2
_ccdc_geom_bond_type
C0 C1 1.386 . S
C0 C2 1.397 . S
C0 H24 0.931 . S
C1 C0 1.386 . S
C1 C5 1.397 . S
C2 C0 1.397 . S
C2 C3 1.384 . S
C2 H25 0.930 . S
C3 C2 1.384 . S
C3 C4 1.377 . S
C3 C6 1.481 . S
C4 C3 1.377 . S
C4 C5 1.389 . S
C4 H26 0.929 . S
C5 C1 1.397 . S
C5 C4 1.389 . S
C5 H27 0.931 . S
C6 C3 1.481 . S
C6 C7 1.387 . S
C6 C11 1.390 1_556 S
C7 C6 1.387 . S
C7 C8 1.401 1_556 S
C7 H28 0.930 . S
C8 C7 1.401 1_554 S
C8 C9 1.376 . S
C8 C17 1.511 . S
C9 C8 1.376 . S
C9 C10 1.392 . S
C9 H30 0.931 . S
C10 C9 1.392 . S
C10 C11 1.361 . S
C10 C12 1.500 . S
C11 C6 1.390 1_554 S
C11 C10 1.361 . S
C11 H29 0.931 . S
C12 C10 1.500 . S
C12 C13 1.371 . S
C12 C14 1.365 . S
C13 C12 1.371 . S
C13 C23 1.386 . S
C13 H31 0.931 . S
C14 C12 1.365 . S
C14 C15 1.409 . S
C14 H32 0.929 . S
C15 C14 1.409 . S
C15 C16 1.380 . S
C15 H33 0.930 . S
C16 C15 1.380 . S
C16 C23 1.357 . S
C17 C8 1.511 . S
C17 C18 1.341 1_554 S
C17 C19 1.371 . S
C18 C17 1.341 1_556 S
C18 C22 1.394 . S
C18 H34 0.930 . S
C19 C17 1.371 . S
C19 C20 1.392 . S
C19 H35 0.931 . S
C20 C19 1.392 . S
C20 C21 1.331 . S
C20 H38 0.932 . S
C21 C20 1.331 . S
C21 C22 1.336 1_554 S
C22 C18 1.394 . S
C22 C21 1.336 1_556 S
C22 H37 0.929 . S
C23 C13 1.386 . S
C23 C16 1.357 . S
C23 H36 0.928 . S
H24 C0 0.931 . S
H25 C2 0.930 . S
H26 C4 0.929 . S
H27 C5 0.931 . S
H28 C7 0.930 . S
H29 C11 0.931 . S
H30 C9 0.931 . S
H31 C13 0.931 . S
H32 C14 0.929 . S
H33 C15 0.930 . S
H34 C18 0.930 . S
H35 C19 0.931 . S
H36 C23 0.928 . S
H37 C22 0.929 . S
H38 C20 0.932 . S
C39 C40 1.386 . S
C39 C41 1.397 . S
C39 H63 0.931 . S
C40 C39 1.386 . S
C40 C44 1.397 . S
C41 C39 1.397 . S
C41 C42 1.384 . S
C41 H64 0.930 . S
C42 C41 1.384 . S
C42 C43 1.377 . S
C42 C45 1.481 . S
C43 C42 1.377 . S
C43 C44 1.389 . S
C43 H65 0.929 . S
C44 C40 1.397 . S
C44 C43 1.389 . S
C44 H66 0.931 . S
C45 C42 1.481 . S
C45 C46 1.387 . S
C45 C50 1.390 . S
C46 C45 1.387 . S
C46 C47 1.401 . S
C46 H67 0.930 . S
C47 C46 1.401 . S
C47 C48 1.376 . S
C47 C56 1.511 . S
C48 C47 1.376 . S
C48 C49 1.392 . S
C48 H69 0.931 . S
C49 C48 1.392 . S
C49 C50 1.361 . S
C49 C51 1.500 . S
C50 C45 1.390 . S
C50 C49 1.361 . S
C50 H68 0.931 . S
C51 C49 1.500 . S
C51 C52 1.371 . S
C51 C53 1.365 . S
C52 C51 1.371 . S
C52 C62 1.386 . S
C52 H70 0.931 . S
C53 C51 1.365 . S
C53 C54 1.409 . S
C53 H71 0.929 . S
C54 C53 1.409 . S
C54 C55 1.380 . S
C54 H72 0.930 . S
C55 C54 1.380 . S
C55 C62 1.357 . S
C56 C47 1.511 . S
C56 C57 1.341 . S
C56 C58 1.371 . S
C57 C56 1.341 . S
C57 C61 1.394 . S
C57 H73 0.930 . S
C58 C56 1.371 . S
C58 C59 1.392 . S
C58 H74 0.931 . S
C59 C58 1.392 . S
C59 C60 1.331 . S
C59 H77 0.932 . S
C60 C59 1.331 . S
C60 C61 1.336 . S
C61 C57 1.394 . S
C61 C60 1.336 . S
C61 H76 0.929 . S
C62 C52 1.386 . S
C62 C55 1.357 . S
C62 H75 0.928 . S
H63 C39 0.931 . S
H64 C41 0.930 . S
H65 C43 0.929 . S
H66 C44 0.931 . S
H67 C46 0.930 . S
H68 C50 0.931 . S
H69 C48 0.931 . S
H70 C52 0.931 . S
H71 C53 0.929 . S
H72 C54 0.930 . S
H73 C57 0.930 . S
H74 C58 0.931 . S
H75 C62 0.928 . S
H76 C61 0.929 . S
H77 C59 0.932 . S
C78 C79 1.386 . S
C78 C80 1.397 . S
C78 H102 0.931 . S
C79 C78 1.386 . S
C79 C83 1.397 . S
C80 C78 1.397 . S
C80 C81 1.384 . S
C80 H103 0.930 . S
C81 C80 1.384 . S
C81 C82 1.377 . S
C81 C84 1.481 . S
C82 C81 1.377 . S
C82 C83 1.389 . S
C82 H104 0.929 . S
C83 C79 1.397 . S
C83 C82 1.389 . S
C83 H105 0.931 . S
C84 C81 1.481 . S
C84 C85 1.387 . S
C84 C89 1.390 . S
C85 C84 1.387 . S
C85 C86 1.401 . S
C85 H106 0.930 . S
C86 C85 1.401 . S
C86 C87 1.376 1_554 S
C86 C95 1.511 . S
C87 C86 1.376 1_556 S
C87 C88 1.392 . S
C87 H108 0.931 . S
C88 C87 1.392 . S
C88 C89 1.361 1_556 S
C88 C90 1.500 . S
C89 C84 1.390 . S
C89 C88 1.361 1_554 S
C89 H107 0.931 . S
C90 C88 1.500 . S
C90 C91 1.371 . S
C90 C92 1.365 . S
C91 C90 1.371 . S
C91 C101 1.386 . S
C91 H109 0.931 . S
C92 C90 1.365 . S
C92 C93 1.409 . S
C92 H110 0.929 . S
C93 C92 1.409 . S
C93 C94 1.380 . S
C93 H111 0.930 . S
C94 C93 1.380 . S
C94 C101 1.357 . S
C95 C86 1.511 . S
C95 C96 1.341 . S
C95 C97 1.371 1_554 S
C96 C95 1.341 . S
C96 C100 1.394 . S
C96 H112 0.930 . S
C97 C95 1.371 1_556 S
C97 C98 1.392 . S
C97 H113 0.931 . S
C98 C97 1.392 . S
C98 C99 1.331 1_556 S
C98 H116 0.932 . S
C99 C98 1.331 1_554 S
C99 C100 1.336 . S
C100 C96 1.394 . S
C100 C99 1.336 . S
C100 H115 0.929 . S
C101 C91 1.386 . S
C101 C94 1.357 . S
C101 H114 0.928 . S
H102 C78 0.931 . S
H103 C80 0.930 . S
H104 C82 0.929 . S
H105 C83 0.931 . S
H106 C85 0.930 . S
H107 C89 0.931 . S
H108 C87 0.931 . S
H109 C91 0.931 . S
H110 C92 0.929 . S
H111 C93 0.930 . S
H112 C96 0.930 . S
H113 C97 0.931 . S
H114 C101 0.928 . S
H115 C100 0.929 . S
H116 C98 0.932 . S
C117 C118 1.386 . S
C117 C119 1.397 . S
C117 H141 0.931 . S
C118 C117 1.386 . S
C118 C122 1.397 . S
C119 C117 1.397 . S
C119 C120 1.384 . S
C119 H142 0.930 . S
C120 C119 1.384 . S
C120 C121 1.377 . S
C120 C123 1.481 . S
C121 C120 1.377 . S
C121 C122 1.389 . S
C121 H143 0.929 . S
C122 C118 1.397 . S
C122 C121 1.389 . S
C122 H144 0.931 . S
C123 C120 1.481 . S
C123 C124 1.387 . S
C123 C128 1.390 . S
C124 C123 1.387 . S
C124 C125 1.401 . S
C124 H145 0.930 . S
C125 C124 1.401 . S
C125 C126 1.376 . S
C125 C134 1.511 . S
C126 C125 1.376 . S
C126 C127 1.392 . S
C126 H147 0.931 . S
C127 C126 1.392 . S
C127 C128 1.361 . S
C127 C129 1.500 . S
C128 C123 1.390 . S
C128 C127 1.361 . S
C128 H146 0.931 . S
C129 C127 1.500 . S
C129 C130 1.371 . S
C129 C131 1.365 . S
C130 C129 1.371 . S
C130 C140 1.386 . S
C130 H148 0.931 . S
C131 C129 1.365 . S
C131 C132 1.409 . S
C131 H149 0.929 . S
C132 C131 1.409 . S
C132 C133 1.380 . S
C132 H150 0.930 . S
C133 C132 1.380 . S
C133 C140 1.357 . S
C134 C125 1.511 . S
C134 C135 1.341 . S
C134 C136 1.371 . S
C135 C134 1.341 . S
C135 C139 1.394 . S
C135 H151 0.930 . S
C136 C134 1.371 . S
C136 C137 1.392 . S
C136 H152 0.931 . S
C137 C136 1.392 . S
C137 C138 1.331 . S
C137 H155 0.932 . S
C138 C137 1.331 . S
C138 C139 1.336 . S
C139 C135 1.394 . S
C139 C138 1.336 . S
C139 H154 0.929 . S
C140 C130 1.386 . S
C140 C133 1.357 . S
C140 H153 0.928 . S
H141 C117 0.931 . S
H142 C119 0.930 . S
H143 C121 0.929 . S
H144 C122 0.931 . S
H145 C124 0.930 . S
H146 C128 0.931 . S
H147 C126 0.931 . S
H148 C130 0.931 . S
H149 C131 0.929 . S
H150 C132 0.930 . S
H151 C135 0.930 . S
H152 C136 0.931 . S
H153 C140 0.928 . S
H154 C139 0.929 . S
H155 C137 0.932 . S
C156 O172 1.251 . S
C156 O174 1.254 . S
N157 C158 1.333 . S
N157 C162 1.307 . S
N157 Zn163 2.020 . S
C158 N157 1.333 . S
C158 C159 1.379 . S
C158 H176 0.952 . S
C159 C158 1.379 . S
C159 C160 1.390 . S
C159 H186 0.949 . S
C160 C159 1.390 . S
C160 C161 1.357 . S
C161 C160 1.357 . S
C161 C162 1.370 . S
C161 H187 0.950 . S
C162 N157 1.307 . S
C162 C161 1.370 . S
C162 H180 0.948 . S
Zn163 N157 2.020 . S
Zn163 O172 2.039 1_545 S
Zn163 O178 2.034 1_545 S
Zn163 O182 2.025 . S
Zn163 O184 2.024 . S
C164 O183 1.246 . S
C164 O184 1.249 1_655 S
N165 C166 1.307 . S
N165 C167 1.333 . S
N165 Zn171 2.020 . S
C166 N165 1.307 . S
C166 C170 1.370 . S
C166 H177 0.948 . S
C167 N165 1.333 . S
C167 C168 1.379 . S
C167 H175 0.980 . S
C168 C167 1.379 . S
C168 C169 1.390 . S
C168 H188 0.949 . S
C169 C168 1.390 . S
C169 C170 1.357 . S
C170 C166 1.370 . S
C170 C169 1.357 . S
C170 H189 0.950 . S
Zn171 N165 2.020 . S
Zn171 O174 2.025 1_655 S
Zn171 O179 2.024 1_655 S
Zn171 O181 2.039 1_565 S
Zn171 O183 2.034 1_565 S
O172 C156 1.251 . S
O172 Zn163 2.039 1_565 S
C173 O178 1.246 . S
C173 O179 1.249 . S
O174 C156 1.254 . S
O174 Zn171 2.025 1_455 S
H175 C167 0.980 . S
H176 C158 0.952 . S
H177 C166 0.948 . S
O178 Zn163 2.034 1_565 S
O178 C173 1.246 . S
O179 Zn171 2.024 1_455 S
O179 C173 1.249 . S
H180 C162 0.948 . S
O181 Zn171 2.039 1_545 S
O181 C185 1.251 . S
O182 Zn163 2.025 . S
O182 C185 1.254 1_455 S
O183 C164 1.246 . S
O183 Zn171 2.034 1_545 S
O184 Zn163 2.024 . S
O184 C164 1.249 1_455 S
C185 O181 1.251 . S
C185 O182 1.254 1_655 S
H186 C159 0.949 . S
H187 C161 0.950 . S
H188 C168 0.949 . S
H189 C170 0.950 . S
C190 O206 1.251 . S
C190 O208 1.254 . S
N191 C192 1.333 1_554 S
N191 C196 1.307 . S
N191 Zn197 2.020 . S
C192 N191 1.333 1_556 S
C192 C193 1.379 . S
C192 H210 0.952 . S
C193 C192 1.379 . S
C193 C194 1.390 1_556 S
C193 H220 0.949 . S
C194 C193 1.390 1_554 S
C194 C195 1.357 . S
C195 C194 1.357 . S
C195 C196 1.370 . S
C195 H221 0.950 . S
C196 N191 1.307 . S
C196 C195 1.370 . S
C196 H214 0.948 . S
Zn197 N191 2.020 . S
Zn197 O206 2.039 1_554 S
Zn197 O212 2.034 . S
Zn197 O216 2.025 . S
Zn197 O218 2.024 1_554 S
C198 O217 1.246 . S
C198 O218 1.249 . S
N199 C200 1.307 1_554 S
N199 C201 1.333 . S
N199 Zn205 2.020 . S
C200 N199 1.307 1_556 S
C200 C204 1.370 . S
C200 H211 0.948 . S
C201 N199 1.333 . S
C201 C202 1.379 . S
C201 H209 0.952 . S
C202 C201 1.379 . S
C202 C203 1.390 . S
C202 H222 0.949 . S
C203 C202 1.390 . S
C203 C204 1.357 1_554 S
C204 C200 1.370 . S
C204 C203 1.357 1_556 S
C204 H223 0.950 . S
Zn205 N199 2.020 . S
Zn205 O208 2.025 1_554 S
Zn205 O213 2.024 . S
Zn205 O215 2.039 . S
Zn205 O217 2.034 1_554 S
O206 C190 1.251 . S
O206 Zn197 2.039 1_556 S
C207 O212 1.246 . S
C207 O213 1.249 . S
O208 C190 1.254 . S
O208 Zn205 2.025 1_556 S
H209 C201 0.952 . S
H210 C192 0.952 . S
H211 C200 0.948 . S
O212 Zn197 2.034 . S
O212 C207 1.246 . S
O213 Zn205 2.024 . S
O213 C207 1.249 . S
H214 C196 0.948 . S
O215 Zn205 2.039 . S
O215 C219 1.251 . S
O216 Zn197 2.025 . S
O216 C219 1.254 . S
O217 C198 1.246 . S
O217 Zn205 2.034 1_556 S
O218 Zn197 2.024 1_556 S
O218 C198 1.249 . S
C219 O215 1.251 . S
C219 O216 1.254 . S
H220 C193 0.949 . S
H221 C195 0.950 . S
H222 C202 0.949 . S
H223 C204 0.950 . S
C224 C225 1.391 . S
C224 C226 1.394 . S
C224 H240 0.931 . S
C225 C224 1.391 . S
C225 C229 1.376 . S
C226 C224 1.394 . S
C226 C227 1.369 . S
C226 C230 1.531 . S
C227 C226 1.369 . S
C227 C228 1.410 . S
C227 C235 1.503 . S
C228 C227 1.410 . S
C228 C229 1.392 . S
C228 C231 1.511 . S
C229 C225 1.376 . S
C229 C228 1.392 . S
C229 H241 0.929 . S
C230 C226 1.531 . S
C230 H242 0.960 . S
C230 H243 0.962 . S
C230 H244 0.960 . S
C231 C228 1.511 . S
C231 H245 0.961 . S
C231 H246 0.961 . S
C231 H247 0.961 . S
C232 C233 1.370 . S
C232 C234 1.363 . S
C232 H248 0.931 . S
C233 C232 1.370 . S
C233 C237 1.408 . S
C234 C232 1.363 . S
C234 C235 1.370 . S
C234 C238 1.524 . S
C235 C227 1.503 . S
C235 C234 1.370 . S
C235 C236 1.403 . S
C236 C235 1.403 . S
C236 C237 1.404 . S
C236 C239 1.539 . S
C237 C233 1.408 . S
C237 C236 1.404 . S
C237 H249 0.930 . S
C238 C234 1.524 . S
C238 H250 0.956 . S
C238 H251 0.961 . S
C238 H252 0.961 . S
C239 C236 1.539 . S
C239 H253 0.958 . S
C239 H254 0.961 . S
C239 H255 0.960 . S
H240 C224 0.931 . S
H241 C229 0.929 . S
H242 C230 0.960 . S
H243 C230 0.962 . S
H244 C230 0.960 . S
H245 C231 0.961 . S
H246 C231 0.961 . S
H247 C231 0.961 . S
H248 C232 0.931 . S
H249 C237 0.930 . S
H250 C238 0.956 . S
H251 C238 0.961 . S
H252 C238 0.961 . S
H253 C239 0.958 . S
H254 C239 0.961 . S
H255 C239 0.960 . S
C256 C257 1.391 . S
C256 C258 1.394 . S
C256 H272 0.931 . S
C257 C256 1.391 . S
C257 C261 1.376 . S
C258 C256 1.394 . S
C258 C259 1.369 . S
C258 C262 1.531 . S
C259 C258 1.369 . S
C259 C260 1.410 . S
C259 C267 1.503 . S
C260 C259 1.410 . S
C260 C261 1.392 . S
C260 C263 1.511 . S
C261 C257 1.376 . S
C261 C260 1.392 . S
C261 H273 0.929 . S
C262 C258 1.531 . S
C262 H274 0.960 . S
C262 H275 0.962 1_554 S
C262 H276 0.960 . S
C263 C260 1.511 . S
C263 H277 0.961 . S
C263 H278 0.961 . S
C263 H279 0.961 . S
C264 C265 1.370 1_556 S
C264 C266 1.363 . S
C264 H280 0.931 . S
C265 C264 1.370 1_554 S
C265 C269 1.408 . S
C266 C264 1.363 . S
C266 C267 1.370 1_556 S
C266 C270 1.524 . S
C267 C259 1.503 . S
C267 C266 1.370 1_554 S
C267 C268 1.403 . S
C268 C267 1.403 . S
C268 C269 1.404 . S
C268 C271 1.539 . S
C269 C265 1.408 . S
C269 C268 1.404 . S
C269 H281 0.930 . S
C270 C266 1.524 . S
C270 H282 0.956 . S
C270 H283 0.961 . S
C270 H284 0.961 . S
C271 C268 1.539 . S
C271 H285 0.958 . S
C271 H286 0.961 . S
C271 H287 0.960 . S
H272 C256 0.931 . S
H273 C261 0.929 . S
H274 C262 0.960 . S
H275 C262 0.962 1_556 S
H276 C262 0.960 . S
H277 C263 0.961 . S
H278 C263 0.961 . S
H279 C263 0.961 . S
H280 C264 0.931 . S
H281 C269 0.930 . S
H282 C270 0.956 . S
H283 C270 0.961 . S
H284 C270 0.961 . S
H285 C271 0.958 . S
H286 C271 0.961 . S
H287 C271 0.960 . S
C288 C289 1.391 . S
C288 C290 1.394 . S
C288 H304 0.931 . S
C289 C288 1.391 . S
C289 C293 1.376 . S
C290 C288 1.394 . S
C290 C291 1.369 . S
C290 C294 1.531 . S
C291 C290 1.369 . S
C291 C292 1.410 . S
C291 C299 1.503 . S
C292 C291 1.410 . S
C292 C293 1.392 . S
C292 C295 1.511 . S
C293 C289 1.376 . S
C293 C292 1.392 . S
C293 H305 0.929 . S
C294 C290 1.531 . S
C294 H306 0.960 . S
C294 H307 0.962 . S
C294 H308 0.960 . S
C295 C292 1.511 . S
C295 H309 0.961 . S
C295 H310 0.961 . S
C295 H311 0.961 . S
C296 C297 1.370 . S
C296 C298 1.363 . S
C296 H312 0.931 . S
C297 C296 1.370 . S
C297 C301 1.408 . S
C298 C296 1.363 . S
C298 C299 1.370 . S
C298 C302 1.524 . S
C299 C291 1.503 . S
C299 C298 1.370 . S
C299 C300 1.403 . S
C300 C299 1.403 . S
C300 C301 1.404 . S
C300 C303 1.539 . S
C301 C297 1.408 . S
C301 C300 1.404 . S
C301 H313 0.930 . S
C302 C298 1.524 . S
C302 H314 0.956 . S
C302 H315 0.961 . S
C302 H316 0.961 . S
C303 C300 1.539 . S
C303 H317 0.958 . S
C303 H318 0.961 . S
C303 H319 0.960 . S
H304 C288 0.931 . S
H305 C293 0.929 . S
H306 C294 0.960 . S
H307 C294 0.962 . S
H308 C294 0.960 . S
H309 C295 0.961 . S
H310 C295 0.961 . S
H311 C295 0.961 . S
H312 C296 0.931 . S
H313 C301 0.930 . S
H314 C302 0.956 . S
H315 C302 0.961 . S
H316 C302 0.961 . S
H317 C303 0.958 . S
H318 C303 0.961 . S
H319 C303 0.960 . S
C320 C321 1.391 . S
C320 C322 1.394 . S
C320 H336 0.931 . S
C321 C320 1.391 . S
C321 C325 1.376 1_554 S
C322 C320 1.394 . S
C322 C323 1.369 1_554 S
C322 C326 1.531 . S
C323 C322 1.369 1_556 S
C323 C324 1.410 . S
C323 C331 1.503 . S
C324 C323 1.410 . S
C324 C325 1.392 . S
C324 C327 1.511 . S
C325 C321 1.376 1_556 S
C325 C324 1.392 . S
C325 H337 0.929 . S
C326 C322 1.531 . S
C326 H338 0.960 . S
C326 H339 0.962 . S
C326 H340 0.960 . S
C327 C324 1.511 . S
C327 H341 0.961 . S
C327 H342 0.961 . S
C327 H343 0.961 . S
C328 C329 1.370 . S
C328 C330 1.363 . S
C328 H344 0.931 . S
C329 C328 1.370 . S
C329 C333 1.408 1_554 S
C330 C328 1.363 . S
C330 C331 1.370 1_554 S
C330 C334 1.524 . S
C331 C323 1.503 . S
C331 C330 1.370 1_556 S
C331 C332 1.403 . S
C332 C331 1.403 . S
C332 C333 1.404 . S
C332 C335 1.539 . S
C333 C329 1.408 1_556 S
C333 C332 1.404 . S
C333 H345 0.930 . S
C334 C330 1.524 . S
C334 H346 0.956 . S
C334 H347 0.961 . S
C334 H348 0.961 . S
C335 C332 1.539 . S
C335 H349 0.958 . S
C335 H350 0.961 . S
C335 H351 0.960 . S
H336 C320 0.931 . S
H337 C325 0.929 . S
H338 C326 0.960 . S
H339 C326 0.962 . S
H340 C326 0.960 . S
H341 C327 0.961 . S
H342 C327 0.961 . S
H343 C327 0.961 . S
H344 C328 0.931 . S
H345 C333 0.930 . S
H346 C334 0.956 . S
H347 C334 0.961 . S
H348 C334 0.961 . S
H349 C335 0.958 . S
H350 C335 0.961 . S
H351 C335 0.960 . S
C352 C353 1.391 . S
C352 C354 1.394 . S
C352 H368 0.931 . S
C353 C352 1.391 . S
C353 C357 1.376 . S
C354 C352 1.394 . S
C354 C355 1.369 . S
C354 C358 1.531 . S
C355 C354 1.369 . S
C355 C356 1.410 . S
C355 C363 1.503 . S
C356 C355 1.410 . S
C356 C357 1.392 . S
C356 C359 1.511 . S
C357 C353 1.376 . S
C357 C356 1.392 . S
C357 H369 0.929 . S
C358 C354 1.531 . S
C358 H370 0.960 . S
C358 H371 0.962 . S
C358 H372 0.960 . S
C359 C356 1.511 . S
C359 H373 0.961 1_455 S
C359 H374 0.961 . S
C359 H375 0.961 . S
C360 C361 1.370 . S
C360 C362 1.363 . S
C360 H376 0.931 . S
C361 C360 1.370 . S
C361 C365 1.408 . S
C362 C360 1.363 . S
C362 C363 1.370 . S
C362 C366 1.524 . S
C363 C355 1.503 . S
C363 C362 1.370 . S
C363 C364 1.403 . S
C364 C363 1.403 . S
C364 C365 1.404 . S
C364 C367 1.539 . S
C365 C361 1.408 . S
C365 C364 1.404 . S
C365 H377 0.930 . S
C366 C362 1.524 . S
C366 H378 0.956 . S
C366 H379 0.961 . S
C366 H380 0.961 . S
C367 C364 1.539 . S
C367 H381 0.958 . S
C367 H382 0.961 . S
C367 H383 0.960 . S
H368 C352 0.931 . S
H369 C357 0.929 . S
H370 C358 0.960 . S
H371 C358 0.962 . S
H372 C358 0.960 . S
H373 C359 0.961 1_655 S
H374 C359 0.961 . S
H375 C359 0.961 . S
H376 C360 0.931 . S
H377 C365 0.930 . S
H378 C366 0.956 . S
H379 C366 0.961 . S
H380 C366 0.961 . S
H381 C367 0.958 . S
H382 C367 0.961 . S
H383 C367 0.960 . S
C384 C385 1.391 . S
C384 C386 1.394 . S
C384 H400 0.931 . S
C385 C384 1.391 . S
C385 C389 1.376 . S
C386 C384 1.394 . S
C386 C387 1.369 . S
C386 C390 1.531 . S
C387 C386 1.369 . S
C387 C388 1.410 . S
C387 C395 1.503 . S
C388 C387 1.410 . S
C388 C389 1.392 . S
C388 C391 1.511 . S
C389 C385 1.376 . S
C389 C388 1.392 . S
C389 H401 0.929 . S
C390 C386 1.531 . S
C390 H402 0.960 . S
C390 H403 0.962 . S
C390 H404 0.960 . S
C391 C388 1.511 . S
C391 H405 0.961 . S
C391 H406 0.961 . S
C391 H407 0.961 . S
C392 C393 1.370 . S
C392 C394 1.363 . S
C392 H408 0.931 . S
C393 C392 1.370 . S
C393 C397 1.408 . S
C394 C392 1.363 . S
C394 C395 1.370 . S
C394 C398 1.524 . S
C395 C387 1.503 . S
C395 C394 1.370 . S
C395 C396 1.403 . S
C396 C395 1.403 . S
C396 C397 1.404 . S
C396 C399 1.539 . S
C397 C393 1.408 . S
C397 C396 1.404 . S
C397 H409 0.930 . S
C398 C394 1.524 . S
C398 H410 0.956 . S
C398 H411 0.961 . S
C398 H412 0.961 . S
C399 C396 1.539 . S
C399 H413 0.958 . S
C399 H414 0.961 . S
C399 H415 0.960 . S
H400 C384 0.931 . S
H401 C389 0.929 . S
H402 C390 0.960 . S
H403 C390 0.962 . S
H404 C390 0.960 . S
H405 C391 0.961 . S
H406 C391 0.961 . S
H407 C391 0.961 . S
H408 C392 0.931 . S
H409 C397 0.930 . S
H410 C398 0.956 . S
H411 C398 0.961 . S
H412 C398 0.961 . S
H413 C399 0.958 . S
H414 C399 0.961 . S
H415 C399 0.960 . S
C416 C417 1.391 . S
C416 C418 1.394 . S
C416 H432 0.931 . S
C417 C416 1.391 . S
C417 C421 1.376 . S
C418 C416 1.394 . S
C418 C419 1.369 . S
C418 C422 1.531 . S
C419 C418 1.369 . S
C419 C420 1.410 . S
C419 C427 1.503 . S
C420 C419 1.410 . S
C420 C421 1.392 . S
C420 C423 1.511 1_655 S
C421 C417 1.376 . S
C421 C420 1.392 . S
C421 H433 0.929 . S
C422 C418 1.531 . S
C422 H434 0.960 . S
C422 H435 0.962 . S
C422 H436 0.960 . S
C423 C420 1.511 1_455 S
C423 H437 0.961 . S
C423 H438 0.961 . S
C423 H439 0.961 1_455 S
C424 C425 1.370 . S
C424 C426 1.363 . S
C424 H440 0.946 . S
C425 C424 1.370 . S
C425 C429 1.408 . S
C426 C424 1.363 . S
C426 C427 1.370 . S
C426 C430 1.524 . S
C427 C419 1.503 . S
C427 C426 1.370 . S
C427 C428 1.403 . S
C428 C427 1.403 . S
C428 C429 1.404 . S
C428 C431 1.539 . S
C429 C425 1.408 . S
C429 C428 1.404 . S
C429 H441 0.930 . S
C430 C426 1.524 . S
C430 H442 0.956 . S
C430 H443 0.961 1_655 S
C430 H444 0.961 1_655 S
C431 C428 1.539 . S
C431 H445 0.958 . S
C431 H446 0.961 . S
C431 H447 0.960 . S
H432 C416 0.931 . S
H433 C421 0.929 . S
H434 C422 0.960 . S
H435 C422 0.962 . S
H436 C422 0.960 . S
H437 C423 0.961 . S
H438 C423 0.961 . S
H439 C423 0.961 1_655 S
H440 C424 0.946 . S
H441 C429 0.930 . S
H442 C430 0.956 . S
H443 C430 0.961 1_455 S
H444 C430 0.961 1_455 S
H445 C431 0.958 . S
H446 C431 0.961 . S
H447 C431 0.960 . S
C448 C449 1.391 . S
C448 C450 1.394 . S
C448 H464 0.931 . S
C449 C448 1.391 . S
C449 C453 1.376 . S
C450 C448 1.394 . S
C450 C451 1.369 . S
C450 C454 1.531 . S
C451 C450 1.369 . S
C451 C452 1.410 . S
C451 C459 1.503 . S
C452 C451 1.410 . S
C452 C453 1.392 . S
C452 C455 1.511 . S
C453 C449 1.376 . S
C453 C452 1.392 . S
C453 H465 0.929 . S
C454 C450 1.531 . S
C454 H466 0.960 . S
C454 H467 0.962 . S
C454 H468 0.960 . S
C455 C452 1.511 . S
C455 H469 0.961 . S
C455 H470 0.961 . S
C455 H471 0.961 . S
C456 C457 1.370 . S
C456 C458 1.363 . S
C456 H472 0.931 . S
C457 C456 1.370 . S
C457 C461 1.408 . S
C458 C456 1.363 . S
C458 C459 1.370 . S
C458 C462 1.524 . S
C459 C451 1.503 . S
C459 C458 1.370 . S
C459 C460 1.403 . S
C460 C459 1.403 . S
C460 C461 1.404 . S
C460 C463 1.539 . S
C461 C457 1.408 . S
C461 C460 1.404 . S
C461 H473 0.930 . S
C462 C458 1.524 . S
C462 H474 0.956 . S
C462 H475 0.961 . S
C462 H476 0.961 . S
C463 C460 1.539 . S
C463 H477 0.958 . S
C463 H478 0.961 . S
C463 H479 0.960 . S
H464 C448 0.931 . S
H465 C453 0.929 . S
H466 C454 0.960 . S
H467 C454 0.962 . S
H468 C454 0.960 . S
H469 C455 0.961 . S
H470 C455 0.961 . S
H471 C455 0.961 . S
H472 C456 0.931 . S
H473 C461 0.930 . S
H474 C462 0.956 . S
H475 C462 0.961 . S
H476 C462 0.961 . S
H477 C463 0.958 . S
H478 C463 0.961 . S
H479 C463 0.960 . S
C480 C481 1.391 . S
C480 C482 1.394 . S
C480 H496 0.931 . S
C481 C480 1.391 . S
C481 C485 1.376 . S
C482 C480 1.394 . S
C482 C483 1.369 . S
C482 C486 1.531 . S
C483 C482 1.369 . S
C483 C484 1.410 . S
C483 C491 1.503 . S
C484 C483 1.410 . S
C484 C485 1.392 . S
C484 C487 1.511 . S
C485 C481 1.376 . S
C485 C484 1.392 . S
C485 H497 0.929 . S
C486 C482 1.531 . S
C486 H498 0.960 . S
C486 H499 0.962 . S
C486 H500 0.960 . S
C487 C484 1.511 . S
C487 H501 0.961 . S
C487 H502 0.961 . S
C487 H503 0.961 . S
C488 C489 1.370 . S
C488 C490 1.363 . S
C488 H504 0.931 . S
C489 C488 1.370 . S
C489 C493 1.408 . S
C490 C488 1.363 . S
C490 C491 1.370 . S
C490 C494 1.524 . S
C491 C483 1.503 . S
C491 C490 1.370 . S
C491 C492 1.403 . S
C492 C491 1.403 . S
C492 C493 1.404 . S
C492 C495 1.539 . S
C493 C489 1.408 . S
C493 C492 1.404 . S
C493 H505 0.930 . S
C494 C490 1.524 . S
C494 H506 0.956 . S
C494 H507 0.961 . S
C494 H508 0.961 . S
C495 C492 1.539 . S
C495 H509 0.958 . S
C495 H510 0.961 . S
C495 H511 0.960 . S
H496 C480 0.931 . S
H497 C485 0.929 . S
H498 C486 0.960 . S
H499 C486 0.962 . S
H500 C486 0.960 . S
H501 C487 0.961 . S
H502 C487 0.961 . S
H503 C487 0.961 . S
H504 C488 0.931 . S
H505 C493 0.930 . S
H506 C494 0.956 . S
H507 C494 0.961 . S
H508 C494 0.961 . S
H509 C495 0.958 . S
H510 C495 0.961 . S
H511 C495 0.960 . S
C512 C513 1.391 . S
C512 C514 1.394 . S
C512 H528 0.931 . S
C513 C512 1.391 . S
C513 C517 1.376 . S
C514 C512 1.394 . S
C514 C515 1.369 . S
C514 C518 1.531 . S
C515 C514 1.369 . S
C515 C516 1.410 . S
C515 C523 1.503 . S
C516 C515 1.410 . S
C516 C517 1.392 . S
C516 C519 1.511 1_655 S
C517 C513 1.376 . S
C517 C516 1.392 . S
C517 H529 0.929 . S
C518 C514 1.531 . S
C518 H530 0.960 . S
C518 H531 0.962 . S
C518 H532 0.960 . S
C519 C516 1.511 1_455 S
C519 H533 0.961 . S
C519 H534 0.961 . S
C519 H535 0.961 . S
C520 C521 1.370 . S
C520 C522 1.363 . S
C520 H536 0.931 . S
C521 C520 1.370 . S
C521 C525 1.408 . S
C522 C520 1.363 . S
C522 C523 1.370 . S
C522 C526 1.524 . S
C523 C515 1.503 . S
C523 C522 1.370 . S
C523 C524 1.403 . S
C524 C523 1.403 . S
C524 C525 1.404 . S
C524 C527 1.539 1_655 S
C525 C521 1.408 . S
C525 C524 1.404 . S
C525 H537 0.930 1_655 S
C526 C522 1.524 . S
C526 H538 0.956 . S
C526 H539 0.961 . S
C526 H540 0.961 . S
C527 C524 1.539 1_455 S
C527 H541 0.958 1_455 S
C527 H542 0.961 . S
C527 H543 0.960 . S
H528 C512 0.931 . S
H529 C517 0.929 . S
H530 C518 0.960 . S
H531 C518 0.962 . S
H532 C518 0.960 . S
H533 C519 0.961 . S
H534 C519 0.961 . S
H535 C519 0.961 . S
H536 C520 0.931 . S
H537 C525 0.930 1_455 S
H538 C526 0.956 . S
H539 C526 0.961 . S
H540 C526 0.961 . S
H541 C527 0.958 1_655 S
H542 C527 0.961 . S
H543 C527 0.960 . S
C544 C545 1.391 . S
C544 C546 1.394 . S
C544 H560 0.931 . S
C545 C544 1.391 . S
C545 C549 1.376 . S
C546 C544 1.394 . S
C546 C547 1.369 . S
C546 C550 1.531 . S
C547 C546 1.369 . S
C547 C548 1.410 . S
C547 C555 1.503 . S
C548 C547 1.410 . S
C548 C549 1.392 . S
C548 C551 1.511 . S
C549 C545 1.376 . S
C549 C548 1.392 . S
C549 H561 0.929 . S
C550 C546 1.531 . S
C550 H562 0.960 . S
C550 H563 0.962 . S
C550 H564 0.960 . S
C551 C548 1.511 . S
C551 H565 0.961 . S
C551 H566 0.961 . S
C551 H567 0.961 . S
C552 C553 1.370 . S
C552 C554 1.363 . S
C552 H568 0.931 . S
C553 C552 1.370 . S
C553 C557 1.408 . S
C554 C552 1.363 . S
C554 C555 1.370 . S
C554 C558 1.524 . S
C555 C547 1.503 . S
C555 C554 1.370 . S
C555 C556 1.403 . S
C556 C555 1.403 . S
C556 C557 1.404 . S
C556 C559 1.539 . S
C557 C553 1.408 . S
C557 C556 1.404 . S
C557 H569 0.930 . S
C558 C554 1.524 . S
C558 H570 0.956 . S
C558 H571 0.961 . S
C558 H572 0.961 . S
C559 C556 1.539 . S
C559 H573 0.958 . S
C559 H574 0.961 . S
C559 H575 0.960 . S
H560 C544 0.931 . S
H561 C549 0.929 . S
H562 C550 0.960 . S
H563 C550 0.962 . S
H564 C550 0.960 . S
H565 C551 0.961 . S
H566 C551 0.961 . S
H567 C551 0.961 . S
H568 C552 0.931 . S
H569 C557 0.930 . S
H570 C558 0.956 . S
H571 C558 0.961 . S
H572 C558 0.961 . S
H573 C559 0.958 . S
H574 C559 0.961 . S
H575 C559 0.960 . S
C576 C577 1.391 . S
C576 C578 1.394 . S
C576 H592 0.931 . S
C577 C576 1.391 . S
C577 C581 1.376 . S
C578 C576 1.394 . S
C578 C579 1.369 . S
C578 C582 1.531 . S
C579 C578 1.369 . S
C579 C580 1.410 . S
C579 C587 1.503 . S
C580 C579 1.410 . S
C580 C581 1.392 . S
C580 C583 1.511 . S
C581 C577 1.376 . S
C581 C580 1.392 . S
C581 H593 0.929 . S
C582 C578 1.531 . S
C582 H594 0.960 . S
C582 H595 0.962 . S
C582 H596 0.960 . S
C583 C580 1.511 . S
C583 H597 0.961 . S
C583 H598 0.961 . S
C583 H599 0.961 . S
C584 C585 1.370 . S
C584 C586 1.363 . S
C584 H600 0.931 . S
C585 C584 1.370 . S
C585 C589 1.408 . S
C586 C584 1.363 . S
C586 C587 1.370 . S
C586 C590 1.524 . S
C587 C579 1.503 . S
C587 C586 1.370 . S
C587 C588 1.403 . S
C588 C587 1.403 . S
C588 C589 1.404 . S
C588 C591 1.539 1_455 S
C589 C585 1.408 . S
C589 C588 1.404 . S
C589 H601 0.930 1_455 S
C590 C586 1.524 . S
C590 H602 0.956 . S
C590 H603 0.961 . S
C590 H604 0.961 . S
C591 C588 1.539 1_655 S
C591 H605 0.958 . S
C591 H606 0.961 . S
C591 H607 0.960 . S
H592 C576 0.931 . S
H593 C581 0.929 . S
H594 C582 0.960 . S
H595 C582 0.962 . S
H596 C582 0.960 . S
H597 C583 0.961 . S
H598 C583 0.961 . S
H599 C583 0.961 . S
H600 C584 0.931 . S
H601 C589 0.930 1_655 S
H602 C590 0.956 . S
H603 C590 0.961 . S
H604 C590 0.961 . S
H605 C591 0.958 . S
H606 C591 0.961 . S
H607 C591 0.960 . S
C233 C160 1.648 . S
C225 C138 1.630 . S
C257 C21 1.559 . S
C265 C203 1.573 . S
C289 C60 1.609 . S
C297 C169 1.653 . S
C321 C99 1.556 . S
C329 C194 1.573 . S
C361 C156 1.637 . S
C353 C16 1.580 . S
C393 C198 1.729 . S
C385 C40 1.703 . S
C417 C79 1.571 . S
C425 C164 1.628 . S
C449 C133 1.703 . S
C457 C190 1.720 . S
C489 C219 1.724 . S
C481 C55 1.686 . S
C521 C185 1.631 . S
C513 C94 1.625 . S
C553 C207 1.729 . S
C545 C118 1.686 . S
C577 C1 1.609 . S
C585 C173 1.621 . S
