# Generated by pormake.
# Topology zzz, (3,6)-cn, num edge types: 1
# Building blocks:
#     Node 0, Type 0, BuildingBlock: MIDCAF_clean_linker_0, # of connection points: 3
#     Node 1, Type 0, BuildingBlock: MIDCAF_clean_linker_0, # of connection points: 3
#     Node 2, Type 0, BuildingBlock: MIDCAF_clean_linker_0, # of connection points: 3
#     Node 3, Type 0, BuildingBlock: MIDCAF_clean_linker_0, # of connection points: 3
#     Node 4, Type 0, BuildingBlock: MIDCAF_clean_linker_0, # of connection points: 3
#     Node 5, Type 0, BuildingBlock: MIDCAF_clean_linker_0, # of connection points: 3
#     Node 6, Type 0, BuildingBlock: MIDCAF_clean_linker_0, # of connection points: 3
#     Node 7, Type 0, BuildingBlock: MIDCAF_clean_linker_0, # of connection points: 3
#     Node 8, Type 1, BuildingBlock: VOLQOD_clean_sbu_1, # of connection points: 6
#     Node 9, Type 1, BuildingBlock: VOLQOD_clean_sbu_1, # of connection points: 6
#     Node 10, Type 1, BuildingBlock: VOLQOD_clean_sbu_1, # of connection points: 6
#     Node 11, Type 1, BuildingBlock: VOLQOD_clean_sbu_1, # of connection points: 6
#     Edge 12, Type (0, 1), BuildingBlock: ZUJKAS_clean_linker_0, # of connection points: 2
#     Edge 13, Type (0, 1), BuildingBlock: ZUJKAS_clean_linker_0, # of connection points: 2
#     Edge 14, Type (0, 1), BuildingBlock: ZUJKAS_clean_linker_0, # of connection points: 2
#     Edge 15, Type (0, 1), BuildingBlock: ZUJKAS_clean_linker_0, # of connection points: 2
#     Edge 16, Type (0, 1), BuildingBlock: ZUJKAS_clean_linker_0, # of connection points: 2
#     Edge 17, Type (0, 1), BuildingBlock: ZUJKAS_clean_linker_0, # of connection points: 2
#     Edge 18, Type (0, 1), BuildingBlock: ZUJKAS_clean_linker_0, # of connection points: 2
#     Edge 19, Type (0, 1), BuildingBlock: ZUJKAS_clean_linker_0, # of connection points: 2
#     Edge 20, Type (0, 1), BuildingBlock: ZUJKAS_clean_linker_0, # of connection points: 2
#     Edge 21, Type (0, 1), BuildingBlock: ZUJKAS_clean_linker_0, # of connection points: 2
#     Edge 22, Type (0, 1), BuildingBlock: ZUJKAS_clean_linker_0, # of connection points: 2
#     Edge 23, Type (0, 1), BuildingBlock: ZUJKAS_clean_linker_0, # of connection points: 2
#     Edge 24, Type (0, 1), BuildingBlock: ZUJKAS_clean_linker_0, # of connection points: 2
#     Edge 25, Type (0, 1), BuildingBlock: ZUJKAS_clean_linker_0, # of connection points: 2
#     Edge 26, Type (0, 1), BuildingBlock: ZUJKAS_clean_linker_0, # of connection points: 2
#     Edge 27, Type (0, 1), BuildingBlock: ZUJKAS_clean_linker_0, # of connection points: 2
#     Edge 28, Type (0, 1), BuildingBlock: ZUJKAS_clean_linker_0, # of connection points: 2
#     Edge 29, Type (0, 1), BuildingBlock: ZUJKAS_clean_linker_0, # of connection points: 2
#     Edge 30, Type (0, 1), BuildingBlock: ZUJKAS_clean_linker_0, # of connection points: 2
#     Edge 31, Type (0, 1), BuildingBlock: ZUJKAS_clean_linker_0, # of connection points: 2
#     Edge 32, Type (0, 1), BuildingBlock: ZUJKAS_clean_linker_0, # of connection points: 2
#     Edge 33, Type (0, 1), BuildingBlock: ZUJKAS_clean_linker_0, # of connection points: 2
#     Edge 34, Type (0, 1), BuildingBlock: ZUJKAS_clean_linker_0, # of connection points: 2
#     Edge 35, Type (0, 1), BuildingBlock: ZUJKAS_clean_linker_0, # of connection points: 2
# Relax obj value: 0.363
# Max RMSD: 0.258
# Mean RMSD: 0.209
data_MOF--net-zzz--node1-VOLQOD_clean_sbu_1--node2-MIDCAF_clean_linker_0--edge1-ZUJKAS_clean_linker_0
_symmetry_space_group_name_H-M    P1
_symmetry_Int_Tables_number       1
_symmetry_cell_setting            triclinic
loop_
_symmetry_equiv_pos_as_xyz
'x, y, z'
_cell_length_a     71.146046
_cell_length_b     70.045812
_cell_length_c     28.067217
_cell_angle_alpha  90.030656
_cell_angle_beta   90.293373
_cell_angle_gamma 92.290026
loop_
_atom_site_label
_atom_site_type_symbol
_atom_site_fract_x
_atom_site_fract_y
_atom_site_fract_z
_atom_type_partial_charge
C0 C 0.82312 0.45876 0.29019 0.0
C1 C 0.81926 0.47762 0.30264 0.0
C2 C 0.80545 0.48712 0.2768 0.0
C3 C 0.7961 0.47807 0.23832 0.0
H4 H 0.7482 0.47754 0.13898 0.0
H5 H 0.71851 0.48527 0.10011 0.0
H6 H 0.71987 0.43317 0.01817 0.0
H7 H 0.74934 0.42547 0.05652 0.0
H8 H 0.79208 0.41433 0.02588 0.0
H9 H 0.81536 0.40258 0.97091 0.0
H10 H 0.85909 0.4146 0.07539 0.0
H11 H 0.8359 0.42569 0.13064 0.0
H12 H 0.81788 0.43557 0.24187 0.0
H13 H 0.83383 0.45113 0.30897 0.0
H14 H 0.80218 0.50166 0.28573 0.0
H15 H 0.78595 0.48588 0.21801 0.0
N16 N 0.77603 0.45476 0.16256 0.0
N17 N 0.78135 0.43536 0.09596 0.0
N18 N 0.80458 0.43938 0.15461 0.0
C19 C 0.76986 0.44676 0.12076 0.0
C20 C 0.79877 0.43166 0.11249 0.0
C21 C 0.79335 0.45082 0.17994 0.0
C22 C 0.75117 0.45094 0.10068 0.0
C23 C 0.74203 0.46765 0.11307 0.0
C24 C 0.72512 0.47213 0.09067 0.0
C25 C 0.7169 0.45981 0.05615 0.0
C26 C 0.72577 0.44285 0.04495 0.0
C27 C 0.74273 0.43851 0.06673 0.0
C28 C 0.81213 0.42134 0.08242 0.0
C29 C 0.8066 0.41409 0.03752 0.0
C30 C 0.81997 0.40741 0.00588 0.0
C31 C 0.83916 0.40791 0.01835 0.0
C32 C 0.84445 0.41382 0.06456 0.0
C33 C 0.8311 0.42038 0.09625 0.0
C34 C 0.80075 0.45955 0.22456 0.0
C35 C 0.81406 0.44989 0.25149 0.0
C36 C 0.97878 0.79312 0.28937 0.0
C37 C 0.98502 0.78844 0.33533 0.0
C38 C 0.99649 0.77268 0.34108 0.0
C39 C 0.00276 0.76274 0.30126 0.0
H40 H 0.04275 0.72348 0.09922 0.0
H41 H 0.03826 0.69443 0.0529 0.0
H42 H 0.98284 0.68524 0.11293 0.0
H43 H 0.98755 0.71435 0.16064 0.0
H44 H 0.0495 0.76984 0.07042 0.0
H45 H 0.06633 0.79578 0.02914 0.0
H46 H 0.05908 0.83263 0.15062 0.0
H47 H 0.04185 0.80688 0.19153 0.0
H48 H 0.98158 0.78831 0.21438 0.0
H49 H 0.97015 0.80532 0.28374 0.0
H50 H 0.00147 0.76876 0.37614 0.0
H51 H 0.01268 0.75156 0.30621 0.0
N52 N 0.0071 0.7449 0.19525 0.0
N53 N 0.02977 0.75369 0.13772 0.0
N54 N 0.021 0.77593 0.19459 0.0
C55 C 0.01764 0.7403 0.15672 0.0
C56 C 0.03159 0.7715 0.15651 0.0
C57 C 0.00888 0.76278 0.21418 0.0
C58 C 0.01542 0.72138 0.13325 0.0
C59 C 0.02963 0.71524 0.10292 0.0
C60 C 0.02701 0.69861 0.07606 0.0
C61 C 0.01003 0.68771 0.07836 0.0
C62 C 0.9961 0.69331 0.11034 0.0
C63 C 0.99879 0.70999 0.13766 0.0
C64 C 0.044 0.78635 0.13397 0.0
C65 C 0.05171 0.78338 0.08867 0.0
C66 C 0.06151 0.79823 0.06508 0.0
C67 C 0.06389 0.81634 0.08641 0.0
C68 C 0.05718 0.81895 0.13287 0.0
C69 C 0.04731 0.80415 0.15634 0.0
C70 C 0.99779 0.76858 0.25529 0.0
C71 C 0.98529 0.7834 0.24967 0.0
C72 C 0.71155 0.03517 0.28071 0.0
C73 C 0.71915 0.01999 0.30606 0.0
C74 C 0.73566 0.01198 0.289 0.0
C75 C 0.74423 0.01894 0.24716 0.0
H76 H 0.79127 0.0147 0.15304 0.0
H77 H 0.82139 0.00513 0.12072 0.0
H78 H 0.81579 0.04523 0.00521 0.0
H79 H 0.78612 0.05493 0.03728 0.0
H80 H 0.74598 0.06964 0.01178 0.0
H81 H 0.72364 0.08433 0.95823 0.0
H82 H 0.68351 0.08657 0.07291 0.0
H83 H 0.70581 0.0724 0.1265 0.0
H84 H 0.71348 0.05363 0.22067 0.0
H85 H 0.69866 0.04146 0.2921 0.0
H86 H 0.74191 0.00031 0.30786 0.0
H87 H 0.75677 0.01233 0.2345 0.0
N88 N 0.7612 0.03524 0.15933 0.0
N89 N 0.75697 0.05283 0.08898 0.0
N90 N 0.73375 0.05214 0.14746 0.0
C91 C 0.76774 0.04142 0.11617 0.0
C92 C 0.73997 0.05827 0.10438 0.0
C93 C 0.74417 0.0407 0.17526 0.0
C94 C 0.78622 0.03561 0.09787 0.0
C95 C 0.79653 0.02154 0.1209 0.0
C96 C 0.81373 0.01597 0.10227 0.0
C97 C 0.82102 0.0245 0.06056 0.0
C98 C 0.81074 0.03859 0.03781 0.0
C99 C 0.79359 0.04406 0.05614 0.0
C100 C 0.72761 0.06952 0.07333 0.0
C101 C 0.73252 0.07358 0.02582 0.0
C102 C 0.7197 0.08196 0.99504 0.0
C103 C 0.70172 0.08649 0.01114 0.0
C104 C 0.69728 0.08348 0.05935 0.0
C105 C 0.71006 0.07512 0.09005 0.0
C106 C 0.73633 0.03392 0.22147 0.0
C107 C 0.72002 0.04205 0.23921 0.0
C108 C 0.52873 0.67596 0.0722 0.0
C109 C 0.51544 0.68167 0.0385 0.0
C110 C 0.51127 0.70104 0.03518 0.0
C111 C 0.5204 0.71452 0.06495 0.0
H112 H 0.56679 0.76592 0.06688 0.0
H113 H 0.56845 0.79812 0.03402 0.0
H114 H 0.5455 0.82002 0.16426 0.0
H115 H 0.5443 0.78748 0.19794 0.0
H116 H 0.54809 0.74204 0.29607 0.0
H117 H 0.55341 0.72471 0.37088 0.0
H118 H 0.58524 0.68354 0.29411 0.0
H119 H 0.57963 0.70055 0.22002 0.0
H120 H 0.54765 0.68447 0.12841 0.0
H121 H 0.53208 0.66107 0.07553 0.0
H122 H 0.50111 0.70574 0.00927 0.0
H123 H 0.51692 0.72939 0.06178 0.0
N124 N 0.54451 0.74146 0.12014 0.0
N125 N 0.55832 0.74866 0.1948 0.0
N126 N 0.54903 0.71701 0.17508 0.0
C127 C 0.55242 0.75443 0.15101 0.0
C128 C 0.55678 0.72979 0.20656 0.0
C129 C 0.54261 0.72276 0.13215 0.0
C130 C 0.5554 0.77431 0.13482 0.0
C131 C 0.56243 0.77766 0.08884 0.0
C132 C 0.56348 0.79609 0.07015 0.0
C133 C 0.55714 0.81153 0.09666 0.0
C134 C 0.5505 0.80831 0.14323 0.0
C135 C 0.54989 0.7898 0.1625 0.0
C136 C 0.56348 0.72257 0.25259 0.0
C137 C 0.55671 0.72964 0.29574 0.0
C138 C 0.55964 0.71967 0.3383 0.0
C139 C 0.56972 0.70277 0.33825 0.0
C140 C 0.57762 0.69661 0.29543 0.0
C141 C 0.57436 0.7063 0.253 0.0
C142 C 0.53353 0.70876 0.09916 0.0
C143 C 0.53756 0.68934 0.10252 0.0
C144 C 0.2149 0.54794 0.0542 0.0
C145 C 0.2181 0.52896 0.04135 0.0
C146 C 0.23048 0.5184 0.06921 0.0
C147 C 0.23901 0.52653 0.11001 0.0
H148 H 0.28546 0.52529 0.21193 0.0
H149 H 0.31388 0.51574 0.25374 0.0
H150 H 0.30806 0.56196 0.35378 0.0
H151 H 0.27996 0.57157 0.31231 0.0
H152 H 0.23901 0.58714 0.32763 0.0
H153 H 0.21472 0.60061 0.37682 0.0
H154 H 0.1753 0.5948 0.25955 0.0
H155 H 0.19957 0.58195 0.21012 0.0
H156 H 0.21982 0.57035 0.10489 0.0
H157 H 0.20527 0.55638 0.03388 0.0
H158 H 0.23322 0.50376 0.06001 0.0
H159 H 0.24801 0.51792 0.13176 0.0
N160 N 0.25758 0.54769 0.1915 0.0
N161 N 0.25115 0.56673 0.25802 0.0
N162 N 0.23002 0.56501 0.19405 0.0
C163 C 0.26271 0.55477 0.23513 0.0
C164 C 0.23475 0.57188 0.23781 0.0
C165 C 0.24129 0.55301 0.1706 0.0
C166 C 0.28037 0.54918 0.25875 0.0
C167 C 0.29033 0.53348 0.24264 0.0
C168 C 0.30653 0.52794 0.26672 0.0
C169 C 0.31322 0.53813 0.30697 0.0
C170 C 0.30341 0.55395 0.32255 0.0
C171 C 0.28719 0.55938 0.29887 0.0
C172 C 0.22118 0.58307 0.26513 0.0
C173 C 0.22528 0.5891 0.312 0.0
C174 C 0.21132 0.59677 0.3403 0.0
C175 C 0.19296 0.59854 0.32243 0.0
C176 C 0.18929 0.59382 0.2745 0.0
C177 C 0.20324 0.58625 0.24617 0.0
C178 C 0.23496 0.54519 0.12402 0.0
C179 C 0.22314 0.5559 0.09514 0.0
C180 C 0.11455 0.1915 0.07341 0.0
C181 C 0.10603 0.19791 0.03142 0.0
C182 C 0.09804 0.21599 0.03134 0.0
C183 C 0.09758 0.22688 0.07326 0.0
H184 H 0.08255 0.28319 0.15734 0.0
H185 H 0.07761 0.31626 0.18255 0.0
H186 H 0.10629 0.30547 0.31527 0.0
H187 H 0.11091 0.27272 0.29048 0.0
H188 H 0.07337 0.2331 0.32503 0.0
H189 H 0.05782 0.21147 0.38187 0.0
H190 H 0.07477 0.16311 0.29925 0.0
H191 H 0.0905 0.18456 0.24284 0.0
H192 H 0.11959 0.19632 0.14762 0.0
H193 H 0.12064 0.17759 0.07495 0.0
H194 H 0.09147 0.22134 0.99938 0.0
H195 H 0.09046 0.24026 0.07303 0.0
N196 N 0.10084 0.24763 0.16891 0.0
N197 N 0.0915 0.24273 0.2485 0.0
N198 N 0.09545 0.21653 0.19873 0.0
C199 C 0.09667 0.2548 0.21261 0.0
C200 C 0.09069 0.22358 0.24173 0.0
C201 C 0.10059 0.22833 0.16233 0.0
C202 C 0.09704 0.2755 0.22211 0.0
C203 C 0.08822 0.28815 0.19124 0.0
C204 C 0.0853 0.30697 0.20578 0.0
C205 C 0.09154 0.31342 0.25089 0.0
C206 C 0.10149 0.30103 0.28013 0.0
C207 C 0.10406 0.28224 0.26606 0.0
C208 C 0.0831 0.21058 0.27914 0.0
C209 C 0.07401 0.21785 0.31929 0.0
C210 C 0.06497 0.20548 0.35169 0.0
C211 C 0.06497 0.18562 0.34481 0.0
C212 C 0.07465 0.17835 0.30572 0.0
C213 C 0.08359 0.19068 0.27323 0.0
C214 C 0.10482 0.21965 0.11592 0.0
C215 C 0.11385 0.20219 0.11518 0.0
C216 C 0.31893 0.98825 0.03913 0.0
C217 C 0.3172 0.00669 0.02032 0.0
C218 C 0.30472 0.01905 0.04223 0.0
C219 C 0.29486 0.01335 0.08335 0.0
H220 H 0.23544 0.99963 0.17103 0.0
H221 H 0.20568 0.00682 0.21005 0.0
H222 H 0.23473 0.01177 0.34526 0.0
H223 H 0.2641 0.00463 0.30671 0.0
H224 H 0.29472 0.97289 0.3229 0.0
H225 H 0.31763 0.9588 0.37569 0.0
H226 H 0.34887 0.94012 0.25402 0.0
H227 H 0.32601 0.95426 0.20074 0.0
H228 H 0.31165 0.96864 0.09487 0.0
H229 H 0.32856 0.97842 0.02362 0.0
H230 H 0.30299 0.0333 0.02835 0.0
H231 H 0.28599 0.02342 0.10073 0.0
N232 N 0.27451 0.99777 0.16935 0.0
N233 N 0.28032 0.98315 0.24308 0.0
N234 N 0.30114 0.97936 0.18013 0.0
C235 C 0.26934 0.99402 0.21523 0.0
C236 C 0.29617 0.97567 0.22581 0.0
C237 C 0.29052 0.9904 0.15172 0.0
C238 C 0.25202 0.00143 0.23592 0.0
C239 C 0.23545 0.00269 0.20886 0.0
C240 C 0.21844 0.00667 0.23122 0.0
C241 C 0.21786 0.00981 0.28075 0.0
C242 C 0.2347 0.00963 0.30703 0.0
C243 C 0.25152 0.00539 0.28496 0.0
C244 C 0.30866 0.96495 0.25752 0.0
C245 C 0.30627 0.96552 0.30721 0.0
C246 C 0.31939 0.95749 0.33752 0.0
C247 C 0.33503 0.94851 0.31884 0.0
C248 C 0.33686 0.94688 0.26925 0.0
C249 C 0.32384 0.95512 0.23883 0.0
C250 C 0.29758 0.99531 0.10359 0.0
C251 C 0.30931 0.98267 0.08025 0.0
C252 C 0.46096 0.31321 0.24646 0.0
C253 C 0.47266 0.30935 0.28552 0.0
C254 C 0.47546 0.29023 0.29793 0.0
C255 C 0.46741 0.27532 0.27068 0.0
H256 H 0.43461 0.21778 0.26476 0.0
H257 H 0.44016 0.18714 0.3014 0.0
H258 H 0.46655 0.16831 0.17224 0.0
H259 H 0.46088 0.19941 0.1352 0.0
H260 H 0.45945 0.24231 0.0383 0.0
H261 H 0.46011 0.25997 0.96274 0.0
H262 H 0.4177 0.29674 0.01664 0.0
H263 H 0.41704 0.27907 0.09097 0.0
H264 H 0.44455 0.30183 0.18832 0.0
H265 H 0.4581 0.32776 0.23666 0.0
H266 H 0.4845 0.28673 0.32757 0.0
H267 H 0.47042 0.26077 0.28021 0.0
N268 N 0.45068 0.24521 0.21116 0.0
N269 N 0.44292 0.235 0.13326 0.0
N270 N 0.44575 0.26775 0.15182 0.0
C271 C 0.44684 0.23081 0.17969 0.0
C272 C 0.44202 0.25364 0.11966 0.0
C273 C 0.45029 0.2637 0.19742 0.0
C274 C 0.4474 0.21097 0.19725 0.0
C275 C 0.44126 0.20697 0.24378 0.0
C276 C 0.44434 0.18934 0.26469 0.0
C277 C 0.45384 0.17528 0.2398 0.0
C278 C 0.45928 0.17893 0.19236 0.0
C279 C 0.45591 0.19662 0.17104 0.0
C280 C 0.43819 0.25938 0.07022 0.0
C281 C 0.44971 0.25361 0.03288 0.0
C282 C 0.45024 0.2639 0.98997 0.0
C283 C 0.43915 0.27996 0.98382 0.0
C284 C 0.42633 0.2844 0.01972 0.0
C285 C 0.42594 0.27429 0.06248 0.0
C286 C 0.45653 0.27924 0.23017 0.0
C287 C 0.45306 0.29833 0.21896 0.0
O288 O 0.06624 0.99807 0.64932 0.0
Zn289 Zn 0.04947 0.99783 0.70764 0.0
O290 O 0.02261 0.99574 0.68939 0.0
Zn291 Zn 0.00994 0.01815 0.71208 0.0
Zn292 Zn 0.02033 0.99409 0.62003 0.0
Zn293 Zn 0.01022 0.97306 0.71753 0.0
O294 O 0.98866 0.01124 0.75639 0.0
O295 O 0.98876 0.97964 0.76109 0.0
O296 O 0.0556 0.02249 0.74366 0.0
O297 O 0.02795 0.03598 0.74696 0.0
O298 O 0.00023 0.03341 0.65756 0.0
O299 O 0.00694 0.01653 0.59342 0.0
O300 O 0.00757 0.96923 0.59905 0.0
O301 O 0.05625 0.97554 0.74943 0.0
O302 O 0.00023 0.95468 0.66708 0.0
O303 O 0.02903 0.95905 0.75599 0.0
C304 C 0.06266 0.99714 0.60481 0.0
C305 C 0.98193 0.99549 0.7729 0.0
C306 C 0.00013 0.03121 0.61256 0.0
C307 C 0.04547 0.0362 0.75637 0.0
C308 C 0.00041 0.95498 0.62171 0.0
C309 C 0.04651 0.9613 0.76549 0.0
O310 O 0.04581 0.99547 0.58949 0.0
O311 O 0.51074 0.04111 0.62504 0.0
Zn312 Zn 0.51492 0.02592 0.68573 0.0
O313 O 0.52221 0.9996 0.67088 0.0
Zn314 Zn 0.50334 0.98106 0.69519 0.0
Zn315 Zn 0.52445 0.99668 0.60201 0.0
Zn316 Zn 0.54636 0.99418 0.70014 0.0
O317 O 0.514 0.96368 0.745 0.0
O318 O 0.54432 0.97234 0.7468 0.0
O319 O 0.49031 0.02559 0.72261 0.0
O320 O 0.48223 0.99466 0.72573 0.0
O321 O 0.49185 0.96497 0.64224 0.0
O322 O 0.50631 0.97623 0.57757 0.0
O323 O 0.55081 0.99075 0.58259 0.0
O324 O 0.53528 0.03982 0.72525 0.0
O325 O 0.56612 0.98838 0.65125 0.0
O326 O 0.55583 0.01712 0.73654 0.0
C327 C 0.51249 0.03701 0.58105 0.0
C328 C 0.53054 0.96183 0.76152 0.0
C329 C 0.49427 0.9649 0.59733 0.0
C330 C 0.47885 0.012 0.73475 0.0
C331 C 0.56582 0.98781 0.60589 0.0
C332 C 0.55054 0.03405 0.74328 0.0
O333 O 0.51778 0.02067 0.56807 0.0
O334 O 0.47097 0.49313 0.64388 0.0
Zn335 Zn 0.4897 0.49014 0.69769 0.0
O336 O 0.51584 0.49308 0.6745 0.0
Zn337 Zn 0.52911 0.46969 0.68669 0.0
Zn338 Zn 0.51561 0.49844 0.60618 0.0
Zn339 Zn 0.52946 0.51405 0.70694 0.0
O340 O 0.55269 0.4743 0.72619 0.0
O341 O 0.55206 0.50521 0.74294 0.0
O342 O 0.48472 0.4639 0.72746 0.0
O343 O 0.51248 0.45071 0.72173 0.0
O344 O 0.53542 0.45683 0.62529 0.0
O345 O 0.52671 0.47706 0.56928 0.0
O346 O 0.52914 0.52342 0.59056 0.0
O347 O 0.48456 0.51063 0.7466 0.0
O348 O 0.53816 0.53488 0.66111 0.0
O349 O 0.51256 0.52574 0.75425 0.0
C350 C 0.47289 0.49749 0.60004 0.0
C351 C 0.55968 0.48915 0.74692 0.0
C352 C 0.53363 0.46131 0.5816 0.0
C353 C 0.49534 0.44993 0.73467 0.0
C354 C 0.53708 0.53651 0.61597 0.0
C355 C 0.49535 0.52342 0.76587 0.0
O356 O 0.48912 0.50025 0.58183 0.0
O357 O 0.98765 0.51803 0.60706 0.0
Zn358 Zn 0.01215 0.52 0.64488 0.0
O359 O 0.02115 0.4944 0.66063 0.0
Zn360 Zn 0.02216 0.49121 0.72976 0.0
Zn361 Zn 0.00421 0.47469 0.63298 0.0
Zn362 Zn 0.04629 0.49123 0.63507 0.0
O363 O 0.04844 0.4864 0.75292 0.0
O364 O 0.06556 0.48789 0.68712 0.0
O365 O 0.00778 0.53532 0.7048 0.0
O366 O 0.01464 0.51519 0.76281 0.0
O367 O 0.00436 0.46993 0.75134 0.0
O368 O 0.99177 0.45849 0.68412 0.0
O369 O 0.01752 0.45768 0.58707 0.0
O370 O 0.03146 0.53494 0.60514 0.0
O371 O 0.0471 0.46888 0.59005 0.0
O372 O 0.05432 0.51444 0.59793 0.0
C373 C 0.97829 0.5037 0.58987 0.0
C374 C 0.0643 0.48599 0.73212 0.0
C375 C 0.99314 0.4583 0.7294 0.0
C376 C 0.00939 0.53146 0.74898 0.0
C377 C 0.03458 0.45709 0.57377 0.0
C378 C 0.04747 0.53057 0.58911 0.0
O379 O 0.98346 0.48672 0.59666 0.0
H380 H 0.20951 0.03507 0.35124 0.0
H381 H 0.18179 0.03394 0.40274 0.0
H382 H 0.15774 0.98704 0.32025 0.0
H383 H 0.18553 0.98789 0.26897 0.0
H384 H 0.14148 0.03541 0.38272 0.0
H385 H 0.1629 0.96635 0.45961 0.0
H386 H 0.17879 0.98177 0.42578 0.0
H387 H 0.16111 0.96719 0.39571 0.0
C388 C 0.1982 0.02467 0.34372 0.0
C389 C 0.19976 0.01147 0.30629 0.0
C390 C 0.18238 0.02408 0.37307 0.0
C391 C 0.1679 0.0102 0.36572 0.0
C392 C 0.1689 0.9977 0.3268 0.0
H393 H 0.05991 0.99858 0.50762 0.0
H394 H 0.08538 0.00212 0.44996 0.0
C395 C 0.18469 0.99834 0.29726 0.0
C396 C 0.15237 0.00809 0.40052 0.0
H397 H 0.1341 0.97813 0.486 0.0
C398 C 0.1398 0.02289 0.40523 0.0
C399 C 0.15046 0.99185 0.43035 0.0
C400 C 0.16409 0.97591 0.4281 0.0
C401 C 0.12514 0.02174 0.43861 0.0
C402 C 0.12299 0.00531 0.46771 0.0
C403 C 0.13573 0.99064 0.46342 0.0
C404 C 0.10759 0.00306 0.50287 0.0
C405 C 0.11225 0.03822 0.44306 0.0
C406 C 0.11167 0.00195 0.55175 0.0
C407 C 0.09713 0.99988 0.58499 0.0
C408 C 0.07823 0.9987 0.56984 0.0
C409 C 0.07427 0.99949 0.52067 0.0
C410 C 0.08881 0.00163 0.48758 0.0
H411 H 0.11832 0.05142 0.42627 0.0
H412 H 0.09869 0.03446 0.42501 0.0
H413 H 0.10926 0.04125 0.48106 0.0
H414 H 0.12612 0.0029 0.56421 0.0
H415 H 0.1007 0.99929 0.6225 0.0
H416 H 0.43241 0.15269 0.29963 0.0
H417 H 0.44328 0.12784 0.35316 0.0
H418 H 0.49868 0.13346 0.29192 0.0
H419 H 0.48803 0.15871 0.23904 0.0
H420 H 0.46006 0.09276 0.33934 0.0
H421 H 0.50783 0.14491 0.43419 0.0
H422 H 0.48993 0.15217 0.39297 0.0
H423 H 0.5116 0.14327 0.3711 0.0
C424 C 0.44687 0.1485 0.29724 0.0
C425 C 0.45941 0.15782 0.26547 0.0
C426 C 0.45304 0.13427 0.32775 0.0
C427 C 0.47189 0.12911 0.32723 0.0
C428 C 0.48417 0.1375 0.29352 0.0
H429 H 0.51652 0.03367 0.48458 0.0
H430 H 0.50709 0.05591 0.42289 0.0
C431 C 0.47799 0.15175 0.2629 0.0
C432 C 0.47878 0.11567 0.36359 0.0
H433 H 0.50856 0.11271 0.45897 0.0
C434 C 0.47071 0.09707 0.36539 0.0
C435 C 0.49243 0.12147 0.3981 0.0
C436 C 0.50087 0.14158 0.39948 0.0
C437 C 0.47604 0.08406 0.40056 0.0
C438 C 0.49001 0.08972 0.43438 0.0
C439 C 0.49797 0.10836 0.43279 0.0
C440 C 0.49638 0.07657 0.47208 0.0
C441 C 0.46633 0.06451 0.40188 0.0
C442 C 0.49412 0.08112 0.52041 0.0
C443 C 0.49965 0.06847 0.55599 0.0
C444 C 0.50761 0.05107 0.54385 0.0
C445 C 0.51029 0.04685 0.49534 0.0
C446 C 0.50481 0.0595 0.4599 0.0
H447 H 0.45281 0.06416 0.38185 0.0
H448 H 0.47556 0.054 0.38525 0.0
H449 H 0.46352 0.05993 0.43912 0.0
H450 H 0.48777 0.0943 0.53058 0.0
H451 H 0.49741 0.07221 0.59292 0.0
H452 H 0.32219 0.50197 0.33367 0.0
H453 H 0.34872 0.49274 0.3836 0.0
H454 H 0.36885 0.55159 0.39008 0.0
H455 H 0.34238 0.5609 0.34061 0.0
H456 H 0.3872 0.49682 0.37257 0.0
H457 H 0.36446 0.53734 0.53023 0.0
H458 H 0.34936 0.53282 0.47926 0.0
H459 H 0.36701 0.55195 0.47799 0.0
C460 C 0.33239 0.5129 0.34535 0.0
C461 C 0.33009 0.53219 0.33366 0.0
C462 C 0.34748 0.50762 0.37402 0.0
C463 C 0.3605 0.52154 0.39147 0.0
C464 C 0.35867 0.54068 0.37815 0.0
H465 H 0.47161 0.50971 0.50759 0.0
H466 H 0.4439 0.51385 0.45779 0.0
C467 C 0.34357 0.54598 0.34977 0.0
C468 C 0.37598 0.51616 0.4238 0.0
H469 H 0.39567 0.52608 0.53266 0.0
C470 C 0.38899 0.50309 0.40772 0.0
C471 C 0.37808 0.52405 0.47005 0.0
C472 C 0.36388 0.53716 0.49066 0.0
C473 C 0.40444 0.49824 0.436 0.0
C474 C 0.40713 0.50701 0.48113 0.0
C475 C 0.39373 0.51954 0.49785 0.0
C476 C 0.42397 0.50383 0.51109 0.0
C477 C 0.41765 0.4837 0.41734 0.0
C478 C 0.422 0.49731 0.55818 0.0
C479 C 0.43785 0.49514 0.5871 0.0
C480 C 0.456 0.49952 0.56949 0.0
C481 C 0.45789 0.50606 0.52228 0.0
C482 C 0.44204 0.5083 0.49354 0.0
H483 H 0.41062 0.47415 0.39048 0.0
H484 H 0.42975 0.49122 0.39977 0.0
H485 H 0.42312 0.47479 0.44661 0.0
H486 H 0.40817 0.49391 0.57258 0.0
H487 H 0.43587 0.49008 0.62325 0.0
H488 H 0.05662 0.32804 0.25006 0.0
H489 H 0.04605 0.35521 0.29644 0.0
H490 H 0.10295 0.36725 0.34457 0.0
H491 H 0.11362 0.3402 0.29802 0.0
H492 H 0.05184 0.35571 0.39823 0.0
H493 H 0.08292 0.4207 0.31115 0.0
H494 H 0.07935 0.3982 0.28018 0.0
H495 H 0.09882 0.40173 0.32063 0.0
C496 C 0.06697 0.33688 0.26921 0.0
C497 C 0.08595 0.33202 0.27045 0.0
C498 C 0.06089 0.3523 0.29593 0.0
C499 C 0.07373 0.36326 0.32372 0.0
C500 C 0.09286 0.35912 0.32286 0.0
H501 H 0.06997 0.44846 0.54507 0.0
H502 H 0.07859 0.42563 0.48384 0.0
C503 C 0.09892 0.34362 0.29646 0.0
C504 C 0.06691 0.37746 0.35799 0.0
H505 H 0.07041 0.42461 0.38883 0.0
C506 C 0.0557 0.37082 0.39597 0.0
C507 C 0.07218 0.39708 0.3551 0.0
C508 C 0.08386 0.40496 0.3144 0.0
C509 C 0.05004 0.3832 0.43202 0.0
C510 C 0.05533 0.40286 0.42929 0.0
C511 C 0.06635 0.40954 0.39088 0.0
C512 C 0.04991 0.41666 0.46646 0.0
C513 C 0.03906 0.37493 0.47358 0.0
C514 C 0.03091 0.41929 0.47688 0.0
C515 C 0.02593 0.43217 0.51227 0.0
C516 C 0.03985 0.44291 0.53746 0.0
C517 C 0.05887 0.4404 0.52649 0.0
C518 C 0.06384 0.4274 0.49138 0.0
H519 H 0.04071 0.35928 0.47694 0.0
H520 H 0.04358 0.38186 0.50757 0.0
H521 H 0.02389 0.37737 0.46811 0.0
H522 H 0.01991 0.41149 0.45735 0.0
H523 H 0.01114 0.43391 0.51935 0.0
H524 H 0.8493 0.04772 0.02514 0.0
H525 H 0.87759 0.03837 0.9837 0.0
H526 H 0.86246 0.979 0.00869 0.0
H527 H 0.83373 0.98827 0.04927 0.0
H528 H 0.90791 0.01655 0.01372 0.0
H529 H 0.86824 0.98214 0.86288 0.0
H530 H 0.85725 0.99753 0.90517 0.0
H531 H 0.86251 0.97355 0.92159 0.0
C532 C 0.85195 0.03266 0.02177 0.0
C533 C 0.83914 0.01873 0.03993 0.0
C534 C 0.86819 0.02735 0.99835 0.0
C535 C 0.87196 0.008 0.99244 0.0
C536 C 0.85963 0.99402 0.01218 0.0
H537 H 0.96224 0.96497 0.81276 0.0
H538 H 0.93631 0.96591 0.86984 0.0
C539 C 0.84334 0.99934 0.03576 0.0
C540 C 0.88855 0.00273 0.96425 0.0
H541 H 0.90122 0.98344 0.85787 0.0
C542 C 0.90648 0.00913 0.97988 0.0
C543 C 0.88663 0.99299 0.92019 0.0
C544 C 0.86764 0.98624 0.90108 0.0
C545 C 0.9225 0.0065 0.95205 0.0
C546 C 0.92048 0.99751 0.90708 0.0
C547 C 0.90269 0.99036 0.89234 0.0
C548 C 0.93638 0.99676 0.8733 0.0
C549 C 0.94144 0.01357 0.97076 0.0
C550 C 0.94477 0.01379 0.85579 0.0
C551 C 0.95948 0.01332 0.82315 0.0
C552 C 0.9661 0.99579 0.80712 0.0
C553 C 0.95754 0.97872 0.82443 0.0
C554 C 0.94273 0.97921 0.85706 0.0
H555 H 0.94147 0.0148 0.01024 0.0
H556 H 0.95268 0.00391 0.96001 0.0
H557 H 0.94485 0.02796 0.95587 0.0
H558 H 0.93981 0.02748 0.86709 0.0
H559 H 0.96565 0.02676 0.81054 0.0
H560 H 0.52664 0.8337 0.0895 0.0
H561 H 0.52318 0.86144 0.03738 0.0
H562 H 0.58174 0.85962 0.99919 0.0
H563 H 0.58507 0.83156 0.0501 0.0
H564 H 0.53942 0.89727 0.02847 0.0
H565 H 0.55615 0.85315 0.87118 0.0
H566 H 0.55204 0.84294 0.92932 0.0
H567 H 0.57454 0.85412 0.91517 0.0
C568 C 0.53884 0.8395 0.07074 0.0
C569 C 0.55607 0.83043 0.07339 0.0
C570 C 0.53685 0.85528 0.04084 0.0
C571 C 0.55207 0.86226 0.01336 0.0
C572 C 0.56966 0.85411 0.01893 0.0
H573 H 0.56423 0.95009 0.79607 0.0
H574 H 0.56945 0.92665 0.85893 0.0
C575 C 0.5716 0.8382 0.04827 0.0
C576 C 0.54927 0.87724 0.97691 0.0
H577 H 0.5529 0.88624 0.85754 0.0
C578 C 0.54234 0.89485 0.9911 0.0
C579 C 0.5529 0.87399 0.92801 0.0
C580 C 0.55913 0.85497 0.90985 0.0
C581 C 0.53925 0.90939 0.9578 0.0
C582 C 0.54315 0.90618 0.90921 0.0
C583 C 0.55007 0.88864 0.89497 0.0
C584 C 0.53988 0.92075 0.87227 0.0
C585 C 0.53201 0.92816 0.97465 0.0
C586 C 0.52152 0.92496 0.85868 0.0
C587 C 0.51846 0.93819 0.82245 0.0
C588 C 0.53374 0.94752 0.79931 0.0
C589 C 0.55214 0.94322 0.81317 0.0
C590 C 0.55517 0.92986 0.8491 0.0
H591 H 0.5326 0.92953 0.01408 0.0
H592 H 0.5403 0.94028 0.95861 0.0
H593 H 0.51717 0.92929 0.96298 0.0
H594 H 0.50955 0.91786 0.87581 0.0
H595 H 0.50412 0.94118 0.81278 0.0
H596 H 0.70932 0.49392 0.01449 0.0
H597 H 0.68213 0.50114 0.96444 0.0
H598 H 0.65864 0.44424 0.98773 0.0
H599 H 0.68573 0.43693 0.03781 0.0
H600 H 0.67105 0.47787 0.87871 0.0
H601 H 0.61494 0.48203 0.01522 0.0
H602 H 0.63964 0.48565 0.02944 0.0
H603 H 0.62988 0.46196 0.01953 0.0
C604 C 0.69818 0.48308 0.00965 0.0
C605 C 0.69962 0.46486 0.03003 0.0
C606 C 0.68274 0.48719 0.98088 0.0
C607 C 0.66839 0.47325 0.97269 0.0
C608 C 0.66952 0.45523 0.99403 0.0
H609 H 0.58251 0.45873 0.75612 0.0
H610 H 0.60945 0.45587 0.80991 0.0
C611 C 0.68502 0.45105 0.02238 0.0
C612 C 0.65274 0.47707 0.93958 0.0
H613 H 0.60519 0.48168 0.93423 0.0
C614 C 0.65666 0.47883 0.89079 0.0
C615 C 0.63405 0.47837 0.95563 0.0
C616 C 0.62927 0.47705 0.00784 0.0
C617 C 0.64222 0.48141 0.85739 0.0
C618 C 0.62346 0.48221 0.87332 0.0
C619 C 0.61961 0.48093 0.92222 0.0
C620 C 0.60761 0.48422 0.83964 0.0
C621 C 0.64707 0.48326 0.8053 0.0
C622 C 0.59768 0.50109 0.83875 0.0
C623 C 0.58236 0.50283 0.8079 0.0
C624 C 0.57654 0.48761 0.77779 0.0
C625 C 0.5866 0.47072 0.77876 0.0
C626 C 0.60203 0.46907 0.80936 0.0
H627 H 0.66241 0.48583 0.79976 0.0
H628 H 0.64261 0.46987 0.78653 0.0
H629 H 0.63946 0.49514 0.78881 0.0
H630 H 0.60177 0.5129 0.86203 0.0
H631 H 0.57489 0.51601 0.80829 0.0
H632 H 0.01967 0.68517 0.98468 0.0
H633 H 0.01649 0.65742 0.93233 0.0
H634 H 0.98956 0.62487 0.04491 0.0
H635 H 0.99306 0.65259 0.09835 0.0
H636 H 0.03218 0.62022 0.95578 0.0
H637 H 0.9549 0.61726 0.92183 0.0
H638 H 0.96746 0.6389 0.94088 0.0
H639 H 0.9629 0.61992 0.98258 0.0
C640 C 0.01315 0.6721 0.99857 0.0
C641 C 0.00685 0.67104 0.04599 0.0
C642 C 0.01122 0.65631 0.96842 0.0
C643 C 0.00275 0.63916 0.98473 0.0
C644 C 0.99597 0.63808 0.03158 0.0
H645 H 0.01375 0.529 0.8457 0.0
H646 H 0.01079 0.55437 0.90462 0.0
C647 C 0.99797 0.65392 0.06199 0.0
C648 C 0.0021 0.62223 0.95314 0.0
H649 H 0.97263 0.59351 0.88542 0.0
C650 C 0.01917 0.61427 0.94063 0.0
C651 C 0.98509 0.61469 0.93324 0.0
C652 C 0.96649 0.62311 0.94491 0.0
C653 C 0.01971 0.59899 0.90845 0.0
C654 C 0.00271 0.59142 0.8885 0.0
C655 C 0.9856 0.59932 0.90106 0.0
C656 C 0.00267 0.57562 0.85347 0.0
C657 C 0.0385 0.59132 0.89507 0.0
C658 C 0.9986 0.57908 0.80537 0.0
C659 C 0.00032 0.56462 0.77143 0.0
C660 C 0.00605 0.54641 0.78513 0.0
C661 C 0.0094 0.54285 0.83376 0.0
C662 C 0.00774 0.55733 0.86756 0.0
H663 H 0.05043 0.6009 0.90701 0.0
H664 H 0.04003 0.57716 0.91201 0.0
H665 H 0.03941 0.58938 0.85589 0.0
H666 H 0.99465 0.59314 0.79391 0.0
H667 H 0.99755 0.56785 0.73438 0.0
H668 H 0.07634 0.15202 0.38215 0.0
H669 H 0.05788 0.12905 0.43004 0.0
H670 H 0.01121 0.16649 0.42883 0.0
H671 H 0.02948 0.18943 0.37983 0.0
H672 H 0.04066 0.13486 0.52038 0.0
H673 H 0.98894 0.11438 0.37773 0.0
H674 H 0.01112 0.12672 0.36502 0.0
H675 H 0.99236 0.13941 0.39122 0.0
C676 C 0.06214 0.15534 0.39195 0.0
C677 C 0.05431 0.17245 0.37701 0.0
C678 C 0.05165 0.14227 0.41945 0.0
C679 C 0.03313 0.14601 0.43234 0.0
C680 C 0.0254 0.16327 0.41862 0.0
H681 H 0.98521 0.06499 0.63982 0.0
H682 H 0.98757 0.09502 0.5956 0.0
C683 C 0.03592 0.17641 0.39113 0.0
C684 C 0.02211 0.13158 0.45998 0.0
H685 H 0.98679 0.09733 0.44978 0.0
C686 C 0.02866 0.12684 0.50542 0.0
C687 C 0.00657 0.12117 0.43995 0.0
C688 C 0.99931 0.12551 0.39069 0.0
C689 C 0.02064 0.11135 0.53069 0.0
C690 C 0.00538 0.10057 0.51019 0.0
C691 C 0.99833 0.1058 0.4655 0.0
C692 C 0.99858 0.08235 0.5318 0.0
C693 C 0.02936 0.10594 0.57774 0.0
C694 C 0.00245 0.06514 0.50901 0.0
C695 C 0.00095 0.04791 0.53393 0.0
C696 C 0.99568 0.04771 0.58217 0.0
C697 C 0.98963 0.06469 0.60297 0.0
C698 C 0.99102 0.08189 0.57784 0.0
H699 H 0.04299 0.11381 0.58445 0.0
H700 H 0.01966 0.10934 0.60711 0.0
H701 H 0.03177 0.09038 0.57892 0.0
H702 H 0.00815 0.06519 0.47328 0.0
H703 H 0.00551 0.03509 0.51658 0.0
H704 H 0.35222 0.97015 0.38721 0.0
H705 H 0.37929 0.96247 0.43596 0.0
H706 H 0.37955 0.90633 0.37244 0.0
H707 H 0.3527 0.91438 0.32176 0.0
H708 H 0.38481 0.93641 0.50157 0.0
H709 H 0.43276 0.92445 0.34924 0.0
H710 H 0.40983 0.93401 0.34113 0.0
H711 H 0.4121 0.90892 0.35209 0.0
C712 C 0.35793 0.9561 0.38395 0.0
C713 C 0.35042 0.94285 0.35081 0.0
C714 C 0.37341 0.95171 0.41178 0.0
C715 C 0.38164 0.9339 0.40749 0.0
C716 C 0.37374 0.92032 0.37557 0.0
H717 H 0.4725 0.93323 0.6219 0.0
H718 H 0.44635 0.91868 0.57566 0.0
C719 C 0.35836 0.92486 0.34692 0.0
C720 C 0.39878 0.93028 0.43588 0.0
H721 H 0.44606 0.92491 0.42555 0.0
C722 C 0.39819 0.93362 0.48514 0.0
C723 C 0.41619 0.92655 0.41426 0.0
C724 C 0.4179 0.9234 0.36127 0.0
C725 C 0.41467 0.9351 0.5127 0.0
C726 C 0.43222 0.93216 0.49073 0.0
C727 C 0.43261 0.92714 0.44228 0.0
C728 C 0.4503 0.93746 0.51494 0.0
C729 C 0.41314 0.94141 0.56399 0.0
C730 C 0.4622 0.95165 0.49455 0.0
C731 C 0.47746 0.95951 0.52014 0.0
C732 C 0.48095 0.95355 0.56702 0.0
C733 C 0.46995 0.93831 0.58609 0.0
C734 C 0.45491 0.9301 0.55988 0.0
H735 H 0.39902 0.94674 0.57223 0.0
H736 H 0.41558 0.92912 0.58782 0.0
H737 H 0.4238 0.95295 0.57238 0.0
H738 H 0.45904 0.95752 0.45983 0.0
H739 H 0.48569 0.97119 0.50432 0.0
H740 H 0.48856 0.34238 0.24896 0.0
H741 H 0.50436 0.36871 0.29245 0.0
H742 H 0.49563 0.33841 0.42458 0.0
H743 H 0.47917 0.31222 0.38177 0.0
H744 H 0.48552 0.3882 0.3777 0.0
H745 H 0.55459 0.35643 0.41443 0.0
H746 H 0.53992 0.34919 0.36426 0.0
H747 H 0.53364 0.34155 0.42322 0.0
C748 C 0.4898 0.34135 0.28733 0.0
C749 C 0.48248 0.32522 0.31193 0.0
C750 C 0.49902 0.35632 0.31196 0.0
C751 C 0.50131 0.35529 0.36143 0.0
C752 C 0.49421 0.33922 0.38619 0.0
H753 H 0.53815 0.42318 0.59518 0.0
H754 H 0.53356 0.39812 0.53564 0.0
C755 C 0.48484 0.3243 0.36167 0.0
C756 C 0.50998 0.3716 0.38771 0.0
H757 H 0.54873 0.38579 0.45256 0.0
C758 C 0.49943 0.38786 0.39365 0.0
C759 C 0.52804 0.37085 0.40847 0.0
C760 C 0.53985 0.35364 0.40225 0.0
C761 C 0.50616 0.40324 0.42164 0.0
C762 C 0.52425 0.40253 0.44282 0.0
C763 C 0.53499 0.38638 0.43583 0.0
C764 C 0.53127 0.41757 0.4762 0.0
C765 C 0.49339 0.41959 0.43027 0.0
C766 C 0.53274 0.43678 0.46204 0.0
C767 C 0.53509 0.45122 0.49616 0.0
C768 C 0.53635 0.44659 0.5448 0.0
C769 C 0.53707 0.42727 0.55808 0.0
C770 C 0.53444 0.41288 0.52405 0.0
H771 H 0.47854 0.41581 0.42055 0.0
H772 H 0.49385 0.42405 0.46824 0.0
H773 H 0.49808 0.432 0.40816 0.0
H774 H 0.5309 0.44065 0.42501 0.0
H775 H 0.53479 0.46597 0.4847 0.0
H776 H 0.16215 0.62009 0.3045 0.0
H777 H 0.13327 0.62061 0.35158 0.0
H778 H 0.15895 0.58638 0.4597 0.0
H779 H 0.18752 0.58558 0.41309 0.0
H780 H 0.11313 0.58823 0.36857 0.0
H781 H 0.13002 0.62211 0.54139 0.0
H782 H 0.14479 0.62575 0.4897 0.0
H783 H 0.14736 0.60515 0.52738 0.0
C784 C 0.16177 0.61304 0.33883 0.0
C785 C 0.17714 0.60268 0.35482 0.0
C786 C 0.1453 0.61347 0.36581 0.0
C787 C 0.144 0.60374 0.40946 0.0
C788 C 0.15976 0.59447 0.42684 0.0
H789 H 0.07642 0.52276 0.53056 0.0
H790 H 0.09599 0.54512 0.48437 0.0
C791 C 0.17616 0.59399 0.39994 0.0
C792 C 0.12555 0.60016 0.43282 0.0
H793 H 0.10597 0.59574 0.5432 0.0
C794 C 0.1113 0.59047 0.40648 0.0
C795 C 0.12295 0.60327 0.48212 0.0
C796 C 0.13705 0.61484 0.51157 0.0
C797 C 0.09553 0.58205 0.42905 0.0
C798 C 0.09409 0.58324 0.47911 0.0
C799 C 0.10726 0.59463 0.50481 0.0
C800 C 0.08121 0.57011 0.50565 0.0
C801 C 0.08114 0.57083 0.39961 0.0
C802 C 0.06647 0.57683 0.53326 0.0
C803 C 0.05508 0.56398 0.55972 0.0
C804 C 0.05858 0.54433 0.55955 0.0
C805 C 0.07336 0.53778 0.53167 0.0
C806 C 0.08451 0.55053 0.50499 0.0
H807 H 0.08097 0.57592 0.36213 0.0
H808 H 0.08475 0.55556 0.39934 0.0
H809 H 0.06683 0.57185 0.4148 0.0
H810 H 0.06386 0.59195 0.53444 0.0
H811 H 0.04385 0.56945 0.58107 0.0
H812 H 0.09373 0.8178 0.02429 0.0
H813 H 0.10273 0.84402 0.97008 0.0
H814 H 0.05946 0.87803 0.03001 0.0
H815 H 0.05049 0.85217 0.08376 0.0
H816 H 0.08047 0.85687 0.90277 0.0
H817 H 0.10097 0.91794 0.01741 0.0
H818 H 0.09989 0.8937 0.03954 0.0
H819 H 0.07906 0.90758 0.03792 0.0
C820 C 0.0864 0.83103 0.02642 0.0
C821 C 0.07142 0.83291 0.05841 0.0
C822 C 0.09163 0.84602 0.99567 0.0
C823 C 0.08203 0.86315 0.99657 0.0
C824 C 0.06754 0.86525 0.02968 0.0
H825 H 0.03055 0.92798 0.79883 0.0
H826 H 0.04465 0.90442 0.84979 0.0
C827 C 0.06236 0.85036 0.06039 0.0
C828 C 0.08488 0.87772 0.95873 0.0
H829 H 0.085 0.92596 0.94207 0.0
C830 C 0.08206 0.87197 0.91123 0.0
C831 C 0.08739 0.89742 0.96933 0.0
C832 C 0.09222 0.90446 0.01885 0.0
C833 C 0.07965 0.88541 0.87499 0.0
C834 C 0.07969 0.90503 0.88682 0.0
C835 C 0.08456 0.91087 0.93323 0.0
C836 C 0.07192 0.9192 0.85379 0.0
C837 C 0.07609 0.87842 0.82478 0.0
C838 C 0.08244 0.93564 0.84007 0.0
C839 C 0.07433 0.94933 0.8109 0.0
C840 C 0.05551 0.94687 0.79561 0.0
C841 C 0.04508 0.93037 0.80973 0.0
C842 C 0.05318 0.91676 0.83857 0.0
H843 H 0.08314 0.8648 0.81827 0.0
H844 H 0.06076 0.87566 0.81943 0.0
H845 H 0.08113 0.88914 0.79813 0.0
H846 H 0.09687 0.93788 0.85201 0.0
H847 H 0.08273 0.96191 0.80078 0.0
H848 H 0.69456 0.07188 0.92258 0.0
H849 H 0.6667 0.07587 0.87384 0.0
H850 H 0.64658 0.11692 0.97415 0.0
H851 H 0.6747 0.11305 0.02342 0.0
H852 H 0.62168 0.08803 0.96095 0.0
H853 H 0.64427 0.11349 0.78404 0.0
H854 H 0.65838 0.09413 0.80211 0.0
H855 H 0.65926 0.11603 0.83604 0.0
C856 C 0.68463 0.08235 0.93346 0.0
C857 C 0.68683 0.09206 0.9771 0.0
C858 C 0.66867 0.08467 0.90535 0.0
C859 C 0.65461 0.09687 0.91996 0.0
C860 C 0.65729 0.10751 0.96203 0.0
H861 H 0.55249 0.07341 0.74355 0.0
H862 H 0.57488 0.09427 0.78879 0.0
C863 C 0.67331 0.10519 0.99027 0.0
C864 C 0.63602 0.09572 0.89576 0.0
H865 H 0.61644 0.09122 0.78487 0.0
C866 C 0.62038 0.08938 0.92259 0.0
C867 C 0.63412 0.09774 0.84582 0.0
C868 C 0.6499 0.10594 0.81552 0.0
C869 C 0.6036 0.08303 0.9003 0.0
C870 C 0.60255 0.08285 0.85005 0.0
C871 C 0.6174 0.09112 0.82346 0.0
C872 C 0.58801 0.07097 0.82492 0.0
C873 C 0.58757 0.07531 0.93053 0.0
C874 C 0.58813 0.05109 0.83027 0.0
C875 C 0.57566 0.03926 0.80439 0.0
C876 C 0.5627 0.04705 0.77263 0.0
C877 C 0.56226 0.06703 0.76799 0.0
C878 C 0.57502 0.07894 0.79364 0.0
H879 H 0.58799 0.08182 0.96666 0.0
H880 H 0.57377 0.078 0.91363 0.0
H881 H 0.58874 0.05965 0.93469 0.0
H882 H 0.59825 0.04467 0.85372 0.0
H883 H 0.57633 0.02395 0.80896 0.0
H884 H 0.53223 0.65593 0.98248 0.0
H885 H 0.51704 0.63024 0.93523 0.0
H886 H 0.4625 0.64883 0.97728 0.0
H887 H 0.47772 0.67491 0.02433 0.0
H888 H 0.47591 0.60543 0.99308 0.0
H889 H 0.4793 0.6357 0.81025 0.0
H890 H 0.49952 0.64079 0.84769 0.0
H891 H 0.47731 0.65037 0.86296 0.0
C892 C 0.51701 0.65465 0.9812 0.0
C893 C 0.5061 0.66729 0.00698 0.0
C894 C 0.50837 0.64008 0.95417 0.0
C895 C 0.48871 0.63779 0.95281 0.0
C896 C 0.4777 0.65054 0.9778 0.0
H897 H 0.46128 0.54018 0.76456 0.0
H898 H 0.45217 0.5673 0.81411 0.0
C899 C 0.48637 0.66538 0.00442 0.0
C900 C 0.48017 0.62109 0.92777 0.0
H901 H 0.47781 0.60153 0.8167 0.0
C902 C 0.47565 0.60465 0.95448 0.0
C903 C 0.47976 0.62024 0.87756 0.0
C904 C 0.48409 0.63774 0.84772 0.0
C905 C 0.47255 0.58689 0.93207 0.0
C906 C 0.47408 0.58571 0.88202 0.0
C907 C 0.47665 0.6025 0.85514 0.0
C908 C 0.47724 0.56736 0.85808 0.0
C909 C 0.46901 0.56932 0.96219 0.0
C910 C 0.49417 0.55839 0.867 0.0
C911 C 0.4995 0.54331 0.83845 0.0
C912 C 0.48789 0.53676 0.80085 0.0
C913 C 0.47035 0.5449 0.79373 0.0
C914 C 0.46517 0.56035 0.82184 0.0
H915 H 0.4625 0.57296 0.99676 0.0
H916 H 0.45973 0.55864 0.9433 0.0
H917 H 0.48261 0.5627 0.96984 0.0
H918 H 0.50382 0.56382 0.89425 0.0
H919 H 0.51309 0.53726 0.84455 0.0
H920 H 0.83901 0.41922 0.92525 0.0
H921 H 0.86535 0.42018 0.87022 0.0
H922 H 0.89951 0.39219 0.97424 0.0
H923 H 0.87289 0.39038 0.02907 0.0
H924 H 0.89706 0.44116 0.89646 0.0
H925 H 0.91535 0.36725 0.84892 0.0
H926 H 0.89263 0.37295 0.8724 0.0
H927 H 0.91253 0.37134 0.91165 0.0
C928 C 0.85183 0.41252 0.93588 0.0
C929 C 0.85384 0.40485 0.98186 0.0
C930 C 0.86694 0.41322 0.90438 0.0
C931 C 0.88437 0.40625 0.91808 0.0
C932 C 0.88611 0.39742 0.96265 0.0
H933 H 0.9914 0.45442 0.82632 0.0
H934 H 0.96605 0.43889 0.87224 0.0
C935 C 0.87094 0.39662 0.99419 0.0
C936 C 0.90124 0.41101 0.8891 0.0
H937 H 0.938 0.39216 0.82964 0.0
C938 C 0.90592 0.43042 0.8816 0.0
C939 C 0.91278 0.39698 0.86985 0.0
C940 C 0.90803 0.37594 0.87567 0.0
C941 C 0.92191 0.43622 0.85578 0.0
C942 C 0.93372 0.42225 0.83753 0.0
C943 C 0.92898 0.4028 0.84427 0.0
C944 C 0.9508 0.42796 0.81056 0.0
C945 C 0.92602 0.4573 0.84795 0.0
C946 C 0.95096 0.42619 0.76084 0.0
C947 C 0.96542 0.43508 0.73436 0.0
C948 C 0.97991 0.4459 0.75731 0.0
C949 C 0.98039 0.44638 0.80743 0.0
C950 C 0.96594 0.43748 0.83379 0.0
H951 H 0.91374 0.46596 0.85654 0.0
H952 H 0.93794 0.46216 0.87119 0.0
H953 H 0.93014 0.46012 0.81041 0.0
H954 H 0.93934 0.4189 0.74237 0.0
H955 H 0.96466 0.4343 0.69585 0.0
H956 H 0.07413 0.19062 0.97906 0.0
H957 H 0.06796 0.16418 0.92359 0.0
H958 H 0.12561 0.14805 0.93682 0.0
H959 H 0.13191 0.1745 0.99255 0.0
H960 H 0.0837 0.15212 0.83704 0.0
H961 H 0.09549 0.10068 0.98422 0.0
H962 H 0.09316 0.12588 0.99465 0.0
H963 H 0.1148 0.11722 0.97196 0.0
C964 C 0.08565 0.1818 0.96916 0.0
C965 C 0.10347 0.18455 0.99055 0.0
C966 C 0.08206 0.16661 0.93767 0.0
C967 C 0.09621 0.1539 0.927 0.0
C968 C 0.11438 0.15743 0.9455 0.0
H969 H 0.08241 0.04252 0.7836 0.0
H970 H 0.09656 0.07123 0.82158 0.0
C971 C 0.11797 0.17258 0.97715 0.0
C972 C 0.09148 0.1363 0.89933 0.0
H973 H 0.08687 0.08773 0.90961 0.0
C974 C 0.08452 0.13803 0.85274 0.0
C975 C 0.09257 0.11792 0.91995 0.0
C976 C 0.09926 0.11521 0.97055 0.0
C977 C 0.0784 0.12188 0.82639 0.0
C978 C 0.07897 0.10358 0.84754 0.0
C979 C 0.08648 0.10178 0.89353 0.0
C980 C 0.07062 0.08629 0.82389 0.0
C981 C 0.07127 0.12456 0.77621 0.0
C982 C 0.05131 0.08512 0.81361 0.0
C983 C 0.04318 0.06878 0.79222 0.0
C984 C 0.05419 0.05317 0.78079 0.0
C985 C 0.07353 0.05427 0.79181 0.0
C986 C 0.08165 0.07066 0.81341 0.0
H987 H 0.07681 0.13822 0.76061 0.0
H988 H 0.07526 0.1126 0.75283 0.0
H989 H 0.0557 0.12493 0.77667 0.0
H990 H 0.04246 0.09682 0.82246 0.0
H991 H 0.02825 0.06846 0.78449 0.0
H992 H 0.33698 0.04089 0.01249 0.0
H993 H 0.36193 0.04921 0.95549 0.0
H994 H 0.35183 0.99509 0.88459 0.0
H995 H 0.3265 0.98704 0.9401 0.0
H996 H 0.39349 0.03 0.94838 0.0
H997 H 0.35908 0.02967 0.77182 0.0
H998 H 0.3459 0.03078 0.8265 0.0
H999 H 0.35301 0.00814 0.80362 0.0
C1000 C 0.33962 0.03107 0.9837 0.0
C1001 C 0.32979 0.01326 0.98094 0.0
C1002 C 0.35399 0.03578 0.95135 0.0
C1003 C 0.35869 0.02287 0.91542 0.0
C1004 C 0.34825 0.0055 0.91125 0.0
H1005 H 0.44935 0.98715 0.75377 0.0
H1006 H 0.42031 0.99348 0.79556 0.0
C1007 C 0.33389 0.0008 0.94342 0.0
C1008 C 0.37585 0.02628 0.88617 0.0
H1009 H 0.39239 0.023 0.77253 0.0
C1010 C 0.39322 0.02896 0.90983 0.0
C1011 C 0.37552 0.02497 0.83584 0.0
C1012 C 0.35733 0.02344 0.80801 0.0
C1013 C 0.41027 0.02905 0.88483 0.0
C1014 C 0.40993 0.02649 0.83489 0.0
C1015 C 0.39259 0.02484 0.81091 0.0
C1016 C 0.42736 0.02339 0.8078 0.0
C1017 C 0.42858 0.03071 0.91217 0.0
C1018 C 0.44091 0.03821 0.80048 0.0
C1019 C 0.45763 0.03466 0.77638 0.0
C1020 C 0.46107 0.0162 0.75947 0.0
C1021 C 0.44728 0.00151 0.76651 0.0
C1022 C 0.4306 0.0051 0.79022 0.0
H1023 H 0.42641 0.0307 0.95134 0.0
H1024 H 0.43762 0.01872 0.9028 0.0
H1025 H 0.43627 0.04421 0.90225 0.0
H1026 H 0.43858 0.05246 0.81359 0.0
H1027 H 0.46792 0.0463 0.77146 0.0
H1028 H 0.47317 0.29213 0.94763 0.0
H1029 H 0.47959 0.31952 0.89563 0.0
H1030 H 0.4201 0.32747 0.88046 0.0
H1031 H 0.41346 0.29981 0.93193 0.0
H1032 H 0.46674 0.3301 0.79999 0.0
H1033 H 0.44213 0.37761 0.94407 0.0
H1034 H 0.44764 0.35304 0.95477 0.0
H1035 H 0.42611 0.35855 0.92519 0.0
C1036 C 0.46139 0.29927 0.93206 0.0
C1037 C 0.44278 0.29383 0.94437 0.0
C1038 C 0.46511 0.31504 0.9026 0.0
C1039 C 0.45034 0.32573 0.88504 0.0
C1040 C 0.43171 0.3196 0.89442 0.0
H1041 H 0.45854 0.44014 0.75667 0.0
H1042 H 0.44617 0.40975 0.78952 0.0
C1043 C 0.42796 0.30378 0.92379 0.0
C1044 C 0.45458 0.34404 0.86008 0.0
H1045 H 0.45368 0.39243 0.87449 0.0
C1046 C 0.46377 0.34373 0.81603 0.0
C1047 C 0.45063 0.36179 0.88111 0.0
C1048 C 0.4412 0.36293 0.92904 0.0
C1049 C 0.46929 0.36076 0.79259 0.0
C1050 C 0.46594 0.37853 0.81443 0.0
C1051 C 0.45626 0.37881 0.85784 0.0
C1052 C 0.4733 0.39694 0.79422 0.0
C1053 C 0.47861 0.35951 0.74458 0.0
C1054 C 0.49268 0.40001 0.78707 0.0
C1055 C 0.49977 0.41727 0.76833 0.0
C1056 C 0.48766 0.43201 0.75677 0.0
C1057 C 0.46827 0.42911 0.76511 0.0
C1058 C 0.46117 0.41173 0.78376 0.0
H1059 H 0.47467 0.34583 0.72633 0.0
H1060 H 0.47477 0.37153 0.72114 0.0
H1061 H 0.4941 0.36013 0.74952 0.0
H1062 H 0.50239 0.38905 0.79623 0.0
H1063 H 0.5148 0.41902 0.76286 0.0
H1064 H 0.19896 0.49435 0.04059 0.0
H1065 H 0.17577 0.48278 0.98149 0.0
H1066 H 0.18865 0.53212 0.89395 0.0
H1067 H 0.21178 0.54378 0.95297 0.0
H1068 H 0.15132 0.52813 0.9178 0.0
H1069 H 0.17642 0.4597 0.84719 0.0
H1070 H 0.17631 0.46128 0.91109 0.0
H1071 H 0.19178 0.477 0.87745 0.0
C1072 C 0.1973 0.50239 0.008 0.0
C1073 C 0.20709 0.52003 0.00152 0.0
C1074 C 0.18404 0.49576 0.97421 0.0
C1075 C 0.18053 0.50655 0.93321 0.0
C1076 C 0.19114 0.52357 0.92534 0.0
H1077 H 0.10084 0.48655 0.70118 0.0
H1078 H 0.12942 0.48966 0.74996 0.0
C1079 C 0.20432 0.53023 0.95911 0.0
C1080 C 0.16419 0.50156 0.90193 0.0
H1081 H 0.14452 0.46676 0.82985 0.0
C1082 C 0.14991 0.51475 0.89836 0.0
C1083 C 0.16239 0.48413 0.87654 0.0
C1084 C 0.17761 0.46975 0.8778 0.0
C1085 C 0.13378 0.51092 0.87061 0.0
C1086 C 0.13171 0.49328 0.84627 0.0
C1087 C 0.14609 0.48017 0.84906 0.0
C1088 C 0.11472 0.48859 0.8172 0.0
C1089 C 0.11912 0.52587 0.8672 0.0
C1090 C 0.09708 0.48631 0.83899 0.0
C1091 C 0.08072 0.48457 0.81132 0.0
C1092 C 0.08171 0.48505 0.76125 0.0
C1093 C 0.09953 0.48623 0.7396 0.0
C1094 C 0.1159 0.48796 0.76738 0.0
H1095 H 0.12464 0.54009 0.87957 0.0
H1096 H 0.11398 0.52723 0.82997 0.0
H1097 H 0.10693 0.52154 0.88983 0.0
H1098 H 0.09593 0.48656 0.87746 0.0
H1099 H 0.06727 0.48354 0.82925 0.0
H1100 H 0.95227 0.80466 0.36284 0.0
H1101 H 0.94912 0.83095 0.41976 0.0
H1102 H 0.00844 0.82971 0.4518 0.0
H1103 H 0.01147 0.80315 0.3966 0.0
H1104 H 0.98951 0.83696 0.52979 0.0
H1105 H 0.96562 0.88432 0.38468 0.0
H1106 H 0.9504 0.86372 0.39494 0.0
H1107 H 0.97387 0.86078 0.37328 0.0
C1108 C 0.96453 0.80981 0.38279 0.0
C1109 C 0.98212 0.80189 0.37524 0.0
C1110 C 0.96276 0.82493 0.41494 0.0
C1111 C 0.97865 0.83268 0.43911 0.0
C1112 C 0.99598 0.82405 0.4335 0.0
H1113 H 0.00814 0.94576 0.52958 0.0
H1114 H 0.00028 0.91584 0.48834 0.0
C1115 C 0.99769 0.80878 0.40205 0.0
C1116 C 0.97776 0.8504 0.46811 0.0
H1117 H 0.96892 0.8979 0.46089 0.0
C1118 C 0.98487 0.85027 0.51489 0.0
C1119 C 0.97191 0.86783 0.44841 0.0
C1120 C 0.96518 0.8693 0.39747 0.0
C1121 C 0.98692 0.86712 0.54188 0.0
C1122 C 0.98105 0.88454 0.52218 0.0
C1123 C 0.97331 0.88454 0.47606 0.0
C1124 C 0.98444 0.90318 0.54682 0.0
C1125 C 0.99635 0.86621 0.59011 0.0
C1126 C 0.97773 0.90632 0.59304 0.0
C1127 C 0.98249 0.92337 0.6171 0.0
C1128 C 0.99368 0.93777 0.59493 0.0
C1129 C 0.99949 0.93499 0.54772 0.0
C1130 C 0.995 0.91786 0.52406 0.0
H1131 H 0.00421 0.85293 0.59452 0.0
H1132 H 0.00628 0.87865 0.59571 0.0
H1133 H 0.98548 0.86637 0.6183 0.0
H1134 H 0.96907 0.89548 0.61084 0.0
H1135 H 0.97761 0.92516 0.65325 0.0
H1136 H 0.70231 0.04002 0.37642 0.0
H1137 H 0.68072 0.02764 0.43671 0.0
H1138 H 0.69187 0.96997 0.39437 0.0
H1139 H 0.71274 0.98241 0.3315 0.0
H1140 H 0.65607 0.97366 0.39781 0.0
H1141 H 0.68447 0.00452 0.56434 0.0
H1142 H 0.68215 0.02345 0.5222 0.0
H1143 H 0.6981 0.00462 0.51027 0.0
C1144 C 0.70034 0.02468 0.38014 0.0
C1145 C 0.70907 0.01222 0.34863 0.0
C1146 C 0.68819 0.01759 0.41532 0.0
C1147 C 0.68481 0.99783 0.42078 0.0
C1148 C 0.69432 0.98528 0.39109 0.0
H1149 H 0.5991 0.97476 0.64056 0.0
H1150 H 0.62885 0.97243 0.5978 0.0
C1151 C 0.70637 0.9924 0.35537 0.0
C1152 C 0.66962 0.99067 0.45318 0.0
H1153 H 0.65013 0.99926 0.56154 0.0
C1154 C 0.65501 0.9789 0.43404 0.0
C1155 C 0.6683 0.99698 0.50094 0.0
C1156 C 0.68425 0.0079 0.52566 0.0
C1157 C 0.63855 0.97459 0.4599 0.0
C1158 C 0.63632 0.98285 0.50548 0.0
C1159 C 0.65155 0.99328 0.52614 0.0
C1160 C 0.61791 0.9823 0.53044 0.0
C1161 C 0.62363 0.96147 0.43762 0.0
C1162 C 0.60181 0.98858 0.50694 0.0
C1163 C 0.58477 0.98966 0.53103 0.0
C1164 C 0.58351 0.98493 0.5796 0.0
C1165 C 0.59959 0.97852 0.60314 0.0
C1166 C 0.61661 0.97718 0.57875 0.0
H1167 H 0.63006 0.95078 0.41413 0.0
H1168 H 0.61504 0.95378 0.46499 0.0
H1169 H 0.61422 0.96999 0.41511 0.0
H1170 H 0.60253 0.99328 0.47022 0.0
H1171 H 0.57275 0.99489 0.51192 0.0
H1172 H 0.54003 0.69097 0.39295 0.0
H1173 H 0.53908 0.66512 0.45118 0.0
H1174 H 0.59896 0.65954 0.43663 0.0
H1175 H 0.59984 0.68512 0.37707 0.0
H1176 H 0.58181 0.62646 0.42517 0.0
H1177 H 0.55285 0.65823 0.58745 0.0
H1178 H 0.53786 0.66247 0.53741 0.0
H1179 H 0.56153 0.67268 0.53844 0.0
C1180 C 0.5531 0.68467 0.40334 0.0
C1181 C 0.57002 0.69009 0.38058 0.0
C1182 C 0.55255 0.66988 0.4368 0.0
C1183 C 0.56899 0.66047 0.4489 0.0
C1184 C 0.5861 0.66659 0.42802 0.0
H1185 H 0.55801 0.56628 0.65586 0.0
H1186 H 0.56853 0.59623 0.61755 0.0
C1187 C 0.58661 0.68122 0.39408 0.0
C1188 C 0.56785 0.64285 0.47852 0.0
H1189 H 0.54836 0.62383 0.57973 0.0
C1190 C 0.57479 0.626 0.45939 0.0
C1191 C 0.55898 0.64217 0.52357 0.0
C1192 C 0.55259 0.65993 0.54809 0.0
C1193 C 0.57226 0.60839 0.48278 0.0
C1194 C 0.56198 0.60746 0.52582 0.0
C1195 C 0.55595 0.62445 0.54631 0.0
C1196 C 0.55647 0.58894 0.54865 0.0
C1197 C 0.58055 0.59096 0.46087 0.0
C1198 C 0.5461 0.57492 0.5228 0.0
C1199 C 0.54024 0.55775 0.54438 0.0
C1200 C 0.54432 0.55433 0.59264 0.0
C1201 C 0.55466 0.56842 0.6186 0.0
C1202 C 0.56067 0.58557 0.59679 0.0
H1203 H 0.59309 0.59492 0.439 0.0
H1204 H 0.58471 0.58059 0.48852 0.0
H1205 H 0.56996 0.58383 0.43698 0.0
H1206 H 0.5422 0.57739 0.48604 0.0
H1207 H 0.53213 0.54735 0.5234 0.0
H1208 H 0.82893 0.46427 0.39041 0.0
H1209 H 0.85341 0.47753 0.44352 0.0
H1210 H 0.86097 0.52648 0.35142 0.0
H1211 H 0.83665 0.51305 0.29751 0.0
H1212 H 0.89343 0.5079 0.36638 0.0
H1213 H 0.85973 0.52067 0.53977 0.0
H1214 H 0.8535 0.49732 0.517 0.0
H1215 H 0.84643 0.51814 0.48493 0.0
C1216 C 0.8355 0.47808 0.38207 0.0
C1217 C 0.83096 0.48757 0.33968 0.0
C1218 C 0.84936 0.48575 0.41271 0.0
C1219 C 0.85891 0.5031 0.40173 0.0
C1220 C 0.85366 0.51315 0.36079 0.0
H1221 H 0.95815 0.53629 0.58062 0.0
H1222 H 0.92913 0.54012 0.53414 0.0
C1223 C 0.83971 0.50551 0.33016 0.0
C1224 C 0.87609 0.50904 0.429 0.0
H1225 H 0.89316 0.51456 0.54237 0.0
C1226 C 0.89332 0.50985 0.40472 0.0
C1227 C 0.87597 0.51171 0.47897 0.0
C1228 C 0.85788 0.51212 0.5066 0.0
C1229 C 0.91045 0.51184 0.42947 0.0
C1230 C 0.91036 0.51294 0.47971 0.0
C1231 C 0.89316 0.51354 0.5038 0.0
C1232 C 0.92786 0.51109 0.50772 0.0
C1233 C 0.9286 0.51191 0.40191 0.0
C1234 C 0.93654 0.49349 0.5084 0.0
C1235 C 0.95291 0.49122 0.53495 0.0
C1236 C 0.96103 0.50654 0.56134 0.0
C1237 C 0.95231 0.52424 0.56052 0.0
C1238 C 0.93573 0.52645 0.53414 0.0
H1239 H 0.92643 0.51577 0.36394 0.0
H1240 H 0.93922 0.52209 0.41788 0.0
H1241 H 0.93435 0.49742 0.40316 0.0
H1242 H 0.93056 0.48143 0.48853 0.0
H1243 H 0.95921 0.4774 0.53465 0.0
loop_
_geom_bond_atom_site_label_1
_geom_bond_atom_site_label_2
_geom_bond_distance
_geom_bond_site_symmetry_2
_ccdc_geom_bond_type
C0 C1 1.384 . S
C0 H13 0.947 . S
C0 C35 1.382 . S
C1 C0 1.384 . S
C1 C2 1.378 . S
C2 C1 1.378 . S
C2 C3 1.378 . S
C2 H14 0.952 . S
C3 C2 1.378 . S
C3 H15 0.950 . S
C3 C34 1.383 . S
H4 C23 0.947 . S
H5 C24 0.946 . S
H6 C26 0.953 . S
H7 C27 0.945 . S
H8 C29 0.952 . S
H9 C30 0.949 . S
H10 C32 0.950 . S
H11 C33 0.948 1_554 S
H12 C35 0.951 . S
H13 C0 0.947 . S
H14 C2 0.952 . S
H15 C3 0.950 . S
N16 C19 1.382 . S
N16 C21 1.363 . S
N17 C19 1.371 1_556 S
N17 C20 1.373 . S
N18 C20 1.356 1_554 S
N18 C21 1.377 . S
C19 N16 1.382 . S
C19 N17 1.371 1_554 S
C19 C22 1.480 . S
C20 N17 1.373 . S
C20 N18 1.356 1_556 S
C20 C28 1.461 . S
C21 N16 1.363 . S
C21 N18 1.377 . S
C21 C34 1.479 . S
C22 C19 1.480 . S
C22 C23 1.383 . S
C22 C27 1.385 1_554 S
C23 H4 0.947 . S
C23 C22 1.383 . S
C23 C24 1.388 . S
C24 H5 0.946 . S
C24 C23 1.388 . S
C24 C25 1.384 1_554 S
C25 C24 1.384 1_556 S
C25 C26 1.377 . S
C26 H6 0.953 . S
C26 C25 1.377 . S
C26 C27 1.369 . S
C27 H7 0.945 . S
C27 C22 1.385 1_556 S
C27 C26 1.369 . S
C28 C20 1.461 . S
C28 C29 1.372 . S
C28 C33 1.364 . S
C29 H8 0.952 . S
C29 C28 1.372 . S
C29 C30 1.389 . S
C30 H9 0.949 . S
C30 C29 1.389 . S
C30 C31 1.387 . S
C31 C30 1.387 . S
C31 C32 1.372 . S
C32 H10 0.950 . S
C32 C31 1.372 . S
C32 C33 1.379 . S
C33 H11 0.948 1_556 S
C33 C28 1.364 . S
C33 C32 1.379 . S
C34 C3 1.383 . S
C34 C21 1.479 . S
C34 C35 1.398 . S
C35 C0 1.382 . S
C35 H12 0.951 . S
C35 C34 1.398 . S
C36 C37 1.384 . S
C36 H49 0.947 . S
C36 C71 1.382 . S
C37 C36 1.384 . S
C37 C38 1.378 . S
C38 C37 1.378 . S
C38 C39 1.378 . S
C38 H50 0.952 . S
C39 C38 1.378 . S
C39 H51 0.950 . S
C39 C70 1.383 . S
H40 C59 0.947 . S
H41 C60 0.946 . S
H42 C62 0.953 1_556 S
H43 C63 0.945 . S
H44 C65 0.952 . S
H45 C66 0.949 . S
H46 C68 0.948 1_455 S
H47 C69 0.943 1_455 S
H48 C71 0.951 . S
H49 C36 0.947 . S
H50 C38 0.952 . S
H51 C39 0.950 . S
N52 C55 1.382 . S
N52 C57 1.363 . S
N53 C55 1.371 . S
N53 C56 1.372 . S
N54 C56 1.361 . S
N54 C57 1.377 . S
C55 N52 1.382 . S
C55 N53 1.371 . S
C55 C58 1.480 . S
C56 N53 1.372 . S
C56 N54 1.361 . S
C56 C64 1.457 . S
C57 N52 1.363 . S
C57 N54 1.377 . S
C57 C70 1.479 . S
C58 C55 1.480 . S
C58 C59 1.383 . S
C58 C63 1.385 . S
C59 H40 0.947 . S
C59 C58 1.383 . S
C59 C60 1.388 . S
C60 H41 0.946 . S
C60 C59 1.388 . S
C60 C61 1.384 . S
C61 C60 1.384 . S
C61 C62 1.377 . S
C62 H42 0.953 1_554 S
C62 C61 1.377 . S
C62 C63 1.369 . S
C63 H43 0.945 . S
C63 C58 1.385 . S
C63 C62 1.369 . S
C64 C56 1.457 . S
C64 C65 1.372 1_554 S
C64 C69 1.368 . S
C65 H44 0.952 . S
C65 C64 1.372 1_556 S
C65 C66 1.389 . S
C66 H45 0.949 . S
C66 C65 1.389 . S
C66 C67 1.387 . S
C67 C66 1.387 . S
C67 C68 1.372 1_556 S
C68 H46 0.948 1_655 S
C68 C67 1.372 1_554 S
C68 C69 1.382 . S
C69 H47 0.943 1_655 S
C69 C64 1.368 . S
C69 C68 1.382 . S
C70 C39 1.383 . S
C70 C57 1.479 . S
C70 C71 1.398 . S
C71 C36 1.382 . S
C71 H48 0.951 . S
C71 C70 1.398 . S
C72 C73 1.384 1_565 S
C72 H85 0.947 . S
C72 C107 1.382 1_565 S
C73 C72 1.384 1_545 S
C73 C74 1.378 . S
C74 C73 1.378 . S
C74 C75 1.378 . S
C74 H86 0.952 . S
C75 C74 1.378 . S
C75 H87 0.950 . S
C75 C106 1.383 . S
H76 C95 0.947 . S
H77 C96 0.957 . S
H78 C98 0.953 . S
H79 C99 0.945 . S
H80 C101 0.948 1_565 S
H81 C102 0.955 . S
H82 C104 0.950 . S
H83 C105 0.948 . S
H84 C107 0.951 1_565 S
H85 C72 0.947 . S
H86 C74 0.952 . S
H87 C75 0.950 . S
N88 C91 1.382 . S
N88 C93 1.363 . S
N89 C91 1.371 . S
N89 C92 1.372 . S
N90 C92 1.361 . S
N90 C93 1.377 . S
C91 N88 1.382 . S
C91 N89 1.371 . S
C91 C94 1.480 . S
C92 N89 1.372 . S
C92 N90 1.361 . S
C92 C100 1.457 1_554 S
C93 N88 1.363 . S
C93 N90 1.377 . S
C93 C106 1.479 . S
C94 C91 1.480 . S
C94 C95 1.383 . S
C94 C99 1.385 1_554 S
C95 H76 0.947 . S
C95 C94 1.383 . S
C95 C96 1.383 1_545 S
C96 H77 0.957 . S
C96 C95 1.383 1_565 S
C96 C97 1.381 1_565 S
C97 C96 1.381 1_545 S
C97 C98 1.377 1_554 S
C98 H78 0.953 . S
C98 C97 1.377 1_556 S
C98 C99 1.369 . S
C99 H79 0.945 . S
C99 C94 1.385 1_556 S
C99 C98 1.369 . S
C100 C92 1.457 1_556 S
C100 C101 1.377 . S
C100 C105 1.364 1_556 S
C101 H80 0.948 1_545 S
C101 C100 1.377 . S
C101 C102 1.388 1_545 S
C102 H81 0.955 . S
C102 C101 1.388 1_565 S
C102 C103 1.382 1_565 S
C103 C102 1.382 1_545 S
C103 C104 1.372 . S
C104 H82 0.950 . S
C104 C103 1.372 . S
C104 C105 1.379 1_556 S
C105 H83 0.948 . S
C105 C100 1.364 1_554 S
C105 C104 1.379 1_554 S
C106 C75 1.383 . S
C106 C93 1.479 . S
C106 C107 1.398 . S
C107 C72 1.382 1_545 S
C107 H84 0.951 1_545 S
C107 C106 1.398 . S
C108 C109 1.384 . S
C108 H121 0.947 . S
C108 C143 1.382 . S
C109 C108 1.384 . S
C109 C110 1.378 . S
C110 C109 1.378 . S
C110 C111 1.378 . S
C110 H122 0.952 . S
C111 C110 1.378 . S
C111 H123 0.950 . S
C111 C142 1.383 . S
H112 C131 0.947 . S
H113 C132 0.946 . S
H114 C134 0.953 . S
H115 C135 0.945 . S
H116 C137 0.952 . S
H117 C138 0.949 . S
H118 C140 0.950 . S
H119 C141 0.948 . S
H120 C143 0.951 1_554 S
H121 C108 0.947 . S
H122 C110 0.952 . S
H123 C111 0.950 . S
N124 C127 1.382 . S
N124 C129 1.363 . S
N125 C127 1.371 . S
N125 C128 1.372 . S
N126 C128 1.361 . S
N126 C129 1.377 . S
C127 N124 1.382 . S
C127 N125 1.371 . S
C127 C130 1.480 . S
C128 N125 1.372 . S
C128 N126 1.361 . S
C128 C136 1.457 . S
C129 N124 1.363 . S
C129 N126 1.377 . S
C129 C142 1.479 1_554 S
C130 C127 1.480 . S
C130 C131 1.383 1_554 S
C130 C135 1.385 . S
C131 H112 0.947 . S
C131 C130 1.383 1_556 S
C131 C132 1.388 . S
C132 H113 0.946 . S
C132 C131 1.388 . S
C132 C133 1.384 1_556 S
C133 C132 1.384 1_554 S
C133 C134 1.377 . S
C134 H114 0.953 . S
C134 C133 1.377 . S
C134 C135 1.369 . S
C135 H115 0.945 . S
C135 C130 1.385 . S
C135 C134 1.369 . S
C136 C128 1.457 . S
C136 C137 1.372 . S
C136 C141 1.364 . S
C137 H116 0.952 . S
C137 C136 1.372 . S
C137 C138 1.389 . S
C138 H117 0.949 . S
C138 C137 1.389 . S
C138 C139 1.387 . S
C139 C138 1.387 . S
C139 C140 1.372 . S
C140 H118 0.950 . S
C140 C139 1.372 . S
C140 C141 1.379 . S
C141 H119 0.948 . S
C141 C136 1.364 . S
C141 C140 1.379 . S
C142 C111 1.383 . S
C142 C129 1.479 1_556 S
C142 C143 1.398 . S
C143 C108 1.382 . S
C143 H120 0.951 1_556 S
C143 C142 1.398 . S
C144 C145 1.384 . S
C144 H157 0.947 . S
C144 C179 1.382 . S
C145 C144 1.384 . S
C145 C146 1.378 . S
C146 C145 1.378 . S
C146 C147 1.378 . S
C146 H158 0.952 . S
C147 C146 1.378 . S
C147 H159 0.950 . S
C147 C178 1.383 . S
H148 C167 0.947 . S
H149 C168 0.946 . S
H150 C170 0.953 . S
H151 C171 0.945 . S
H152 C173 0.952 . S
H153 C174 0.949 . S
H154 C176 0.950 . S
H155 C177 0.948 . S
H156 C179 0.951 . S
H157 C144 0.947 . S
H158 C146 0.952 . S
H159 C147 0.950 . S
N160 C163 1.382 . S
N160 C165 1.363 . S
N161 C163 1.371 . S
N161 C164 1.372 . S
N162 C164 1.361 . S
N162 C165 1.377 . S
C163 N160 1.382 . S
C163 N161 1.371 . S
C163 C166 1.480 . S
C164 N161 1.372 . S
C164 N162 1.361 . S
C164 C172 1.457 . S
C165 N160 1.363 . S
C165 N162 1.377 . S
C165 C178 1.479 . S
C166 C163 1.480 . S
C166 C167 1.383 . S
C166 C171 1.385 . S
C167 H148 0.947 . S
C167 C166 1.383 . S
C167 C168 1.388 . S
C168 H149 0.946 . S
C168 C167 1.388 . S
C168 C169 1.384 . S
C169 C168 1.384 . S
C169 C170 1.377 . S
C170 H150 0.953 . S
C170 C169 1.377 . S
C170 C171 1.369 . S
C171 H151 0.945 . S
C171 C166 1.385 . S
C171 C170 1.369 . S
C172 C164 1.457 . S
C172 C173 1.372 . S
C172 C177 1.364 . S
C173 H152 0.952 . S
C173 C172 1.372 . S
C173 C174 1.389 . S
C174 H153 0.949 . S
C174 C173 1.389 . S
C174 C175 1.387 . S
C175 C174 1.387 . S
C175 C176 1.372 . S
C176 H154 0.950 . S
C176 C175 1.372 . S
C176 C177 1.379 . S
C177 H155 0.948 . S
C177 C172 1.364 . S
C177 C176 1.379 . S
C178 C147 1.383 . S
C178 C165 1.479 . S
C178 C179 1.398 . S
C179 C144 1.382 . S
C179 H156 0.951 . S
C179 C178 1.398 . S
C180 C181 1.384 . S
C180 H193 0.947 . S
C180 C215 1.382 . S
C181 C180 1.384 . S
C181 C182 1.378 . S
C182 C181 1.378 . S
C182 C183 1.378 . S
C182 H194 0.952 . S
C183 C182 1.378 . S
C183 H195 0.950 . S
C183 C214 1.383 . S
H184 C203 0.947 . S
H185 C204 0.946 . S
H186 C206 0.953 . S
H187 C207 0.945 . S
H188 C209 0.952 . S
H189 C210 0.949 . S
H190 C212 0.950 . S
H191 C213 0.948 . S
H192 C215 0.951 . S
H193 C180 0.947 . S
H194 C182 0.952 . S
H195 C183 0.950 . S
N196 C199 1.382 . S
N196 C201 1.363 . S
N197 C199 1.371 . S
N197 C200 1.372 . S
N198 C200 1.361 . S
N198 C201 1.377 . S
C199 N196 1.382 . S
C199 N197 1.371 . S
C199 C202 1.480 . S
C200 N197 1.372 . S
C200 N198 1.361 . S
C200 C208 1.457 . S
C201 N196 1.363 . S
C201 N198 1.377 . S
C201 C214 1.479 . S
C202 C199 1.480 . S
C202 C203 1.383 . S
C202 C207 1.385 . S
C203 H184 0.947 . S
C203 C202 1.383 . S
C203 C204 1.388 . S
C204 H185 0.946 . S
C204 C203 1.388 . S
C204 C205 1.384 . S
C205 C204 1.384 . S
C205 C206 1.377 . S
C206 H186 0.953 . S
C206 C205 1.377 . S
C206 C207 1.369 . S
C207 H187 0.945 . S
C207 C202 1.385 . S
C207 C206 1.369 . S
C208 C200 1.457 . S
C208 C209 1.372 . S
C208 C213 1.364 . S
C209 H188 0.952 . S
C209 C208 1.372 . S
C209 C210 1.389 . S
C210 H189 0.949 . S
C210 C209 1.389 . S
C210 C211 1.387 . S
C211 C210 1.387 . S
C211 C212 1.372 . S
C212 H190 0.950 . S
C212 C211 1.372 . S
C212 C213 1.379 . S
C213 H191 0.948 . S
C213 C208 1.364 . S
C213 C212 1.379 . S
C214 C183 1.383 . S
C214 C201 1.479 . S
C214 C215 1.398 . S
C215 C180 1.382 . S
C215 H192 0.951 . S
C215 C214 1.398 . S
C216 C217 1.384 . S
C216 H229 0.942 1_545 S
C216 C251 1.382 . S
C217 C216 1.384 . S
C217 C218 1.378 . S
C218 C217 1.378 . S
C218 C219 1.378 . S
C218 H230 0.952 . S
C219 C218 1.378 . S
C219 H231 0.950 . S
C219 C250 1.383 . S
H220 C239 0.947 . S
H221 C240 0.951 . S
H222 C242 0.953 . S
H223 C243 0.945 . S
H224 C245 0.948 1_565 S
H225 C246 0.952 . S
H226 C248 0.950 . S
H227 C249 0.948 . S
H228 C251 0.949 1_565 S
H229 C216 0.942 1_565 S
H230 C218 0.952 . S
H231 C219 0.950 . S
N232 C235 1.382 . S
N232 C237 1.363 . S
N233 C235 1.371 . S
N233 C236 1.372 . S
N234 C236 1.361 . S
N234 C237 1.377 . S
C235 N232 1.382 . S
C235 N233 1.371 . S
C235 C238 1.480 . S
C236 N233 1.372 . S
C236 N234 1.361 . S
C236 C244 1.457 . S
C237 N232 1.363 . S
C237 N234 1.377 . S
C237 C250 1.479 . S
C238 C235 1.480 . S
C238 C239 1.383 . S
C238 C243 1.385 . S
C239 H220 0.947 . S
C239 C238 1.383 . S
C239 C240 1.387 1_545 S
C240 H221 0.951 . S
C240 C239 1.387 1_565 S
C240 C241 1.381 1_565 S
C241 C240 1.381 1_545 S
C241 C242 1.377 . S
C242 H222 0.953 . S
C242 C241 1.377 . S
C242 C243 1.369 . S
C243 H223 0.945 . S
C243 C238 1.385 . S
C243 C242 1.369 . S
C244 C236 1.457 . S
C244 C245 1.380 . S
C244 C249 1.364 . S
C245 H224 0.948 1_545 S
C245 C244 1.380 . S
C245 C246 1.385 1_545 S
C246 H225 0.952 . S
C246 C245 1.385 1_565 S
C246 C247 1.385 1_565 S
C247 C246 1.385 1_545 S
C247 C248 1.372 . S
C248 H226 0.950 . S
C248 C247 1.372 . S
C248 C249 1.379 . S
C249 H227 0.948 . S
C249 C244 1.364 . S
C249 C248 1.379 . S
C250 C219 1.383 . S
C250 C237 1.479 . S
C250 C251 1.401 . S
C251 C216 1.382 . S
C251 H228 0.949 1_545 S
C251 C250 1.401 . S
C252 C253 1.384 . S
C252 H265 0.947 . S
C252 C287 1.382 . S
C253 C252 1.384 . S
C253 C254 1.378 . S
C254 C253 1.378 . S
C254 C255 1.378 . S
C254 H266 0.952 . S
C255 C254 1.378 . S
C255 H267 0.950 . S
C255 C286 1.383 . S
H256 C275 0.947 . S
H257 C276 0.946 . S
H258 C278 0.953 . S
H259 C279 0.945 . S
H260 C281 0.952 . S
H261 C282 0.949 . S
H262 C284 0.950 . S
H263 C285 0.948 . S
H264 C287 0.951 . S
H265 C252 0.947 . S
H266 C254 0.952 . S
H267 C255 0.950 . S
N268 C271 1.382 . S
N268 C273 1.363 . S
N269 C271 1.371 . S
N269 C272 1.372 . S
N270 C272 1.361 . S
N270 C273 1.377 . S
C271 N268 1.382 . S
C271 N269 1.371 . S
C271 C274 1.480 . S
C272 N269 1.372 . S
C272 N270 1.361 . S
C272 C280 1.457 . S
C273 N268 1.363 . S
C273 N270 1.377 . S
C273 C286 1.479 . S
C274 C271 1.480 . S
C274 C275 1.383 . S
C274 C279 1.385 . S
C275 H256 0.947 . S
C275 C274 1.383 . S
C275 C276 1.388 . S
C276 H257 0.946 . S
C276 C275 1.388 . S
C276 C277 1.384 . S
C277 C276 1.384 . S
C277 C278 1.377 . S
C278 H258 0.953 . S
C278 C277 1.377 . S
C278 C279 1.369 . S
C279 H259 0.945 . S
C279 C274 1.385 . S
C279 C278 1.369 . S
C280 C272 1.457 . S
C280 C281 1.372 . S
C280 C285 1.364 . S
C281 H260 0.952 . S
C281 C280 1.372 . S
C281 C282 1.389 . S
C282 H261 0.949 . S
C282 C281 1.389 . S
C282 C283 1.387 . S
C283 C282 1.387 . S
C283 C284 1.372 . S
C284 H262 0.950 . S
C284 C283 1.372 . S
C284 C285 1.379 . S
C285 H263 0.948 . S
C285 C280 1.364 . S
C285 C284 1.379 . S
C286 C255 1.383 . S
C286 C273 1.479 . S
C286 C287 1.398 . S
C287 C252 1.382 . S
C287 H264 0.951 . S
C287 C286 1.398 . S
O288 Zn289 1.954 . S
O288 C304 1.235 . S
Zn289 O288 1.954 . S
Zn289 O290 1.947 . S
Zn289 O296 1.881 1_565 S
Zn289 O301 1.971 . S
O290 Zn289 1.947 . S
O290 Zn291 1.904 1_565 S
O290 Zn292 1.952 . S
O290 Zn293 1.960 . S
Zn291 O290 1.904 1_545 S
Zn291 O294 1.933 1_455 S
Zn291 O297 1.941 . S
Zn291 O298 1.965 . S
Zn292 O290 1.952 . S
Zn292 O299 1.938 1_565 S
Zn292 O300 1.906 . S
Zn292 O310 1.953 . S
Zn293 O290 1.960 . S
Zn293 O295 1.932 1_455 S
Zn293 O302 1.977 . S
Zn293 O303 1.910 . S
O294 Zn291 1.933 1_655 S
O294 C305 1.226 . S
O295 Zn293 1.932 1_655 S
O295 C305 1.307 1_565 S
O296 Zn289 1.881 1_545 S
O296 C307 1.253 . S
O297 Zn291 1.941 . S
O297 C307 1.283 . S
O298 Zn291 1.965 . S
O298 C306 1.303 . S
O299 Zn292 1.938 1_545 S
O299 C306 1.247 . S
O300 Zn292 1.906 . S
O300 C308 1.304 . S
O301 Zn289 1.971 . S
O301 C309 1.311 . S
O302 Zn293 1.977 . S
O302 C308 1.272 . S
O303 Zn293 1.910 . S
O303 C309 1.231 . S
C304 O288 1.235 . S
C304 O310 1.298 . S
C305 O294 1.226 . S
C305 O295 1.307 1_545 S
C306 O298 1.303 . S
C306 O299 1.247 . S
C307 O296 1.253 . S
C307 O297 1.283 . S
C308 O300 1.304 . S
C308 O302 1.272 . S
C309 O301 1.311 . S
C309 O303 1.231 . S
O310 Zn292 1.953 . S
O310 C304 1.298 . S
O311 Zn312 1.953 . S
O311 C327 1.225 . S
Zn312 O311 1.953 . S
Zn312 O313 1.949 . S
Zn312 O319 1.919 . S
Zn312 O324 1.924 . S
O313 Zn312 1.949 . S
O313 Zn314 1.923 1_545 S
O313 Zn315 1.950 . S
O313 Zn316 1.945 1_545 S
Zn314 O313 1.923 1_565 S
Zn314 O317 1.933 . S
Zn314 O320 1.941 . S
Zn314 O321 1.965 . S
Zn315 O313 1.950 . S
Zn315 O322 1.938 . S
Zn315 O323 1.896 1_545 S
Zn315 O333 1.953 . S
Zn316 O313 1.945 1_565 S
Zn316 O318 1.932 . S
Zn316 O325 1.977 . S
Zn316 O326 1.910 1_565 S
O317 Zn314 1.933 . S
O317 C328 1.226 . S
O318 Zn316 1.932 . S
O318 C328 1.307 . S
O319 Zn312 1.919 . S
O319 C330 1.253 . S
O320 Zn314 1.941 . S
O320 C330 1.283 1_565 S
O321 Zn314 1.965 . S
O321 C329 1.303 . S
O322 Zn315 1.938 . S
O322 C329 1.247 1_545 S
O323 Zn315 1.896 1_565 S
O323 C331 1.318 . S
O324 Zn312 1.924 . S
O324 C332 1.311 . S
O325 Zn316 1.977 . S
O325 C331 1.272 . S
O326 Zn316 1.910 1_545 S
O326 C332 1.231 . S
C327 O311 1.225 . S
C327 O333 1.298 . S
C328 O317 1.226 . S
C328 O318 1.307 . S
C329 O321 1.303 . S
C329 O322 1.247 1_565 S
C330 O319 1.253 . S
C330 O320 1.283 1_545 S
C331 O323 1.318 . S
C331 O325 1.272 . S
C332 O324 1.311 . S
C332 O326 1.231 . S
O333 Zn315 1.953 . S
O333 C327 1.298 . S
O334 Zn335 1.953 . S
O334 C350 1.225 . S
Zn335 O334 1.953 . S
Zn335 O336 1.949 . S
Zn335 O342 1.919 . S
Zn335 O347 1.924 . S
O336 Zn335 1.949 . S
O336 Zn337 1.923 . S
O336 Zn338 1.950 . S
O336 Zn339 1.945 . S
Zn337 O336 1.923 . S
Zn337 O340 1.933 . S
Zn337 O343 1.941 . S
Zn337 O344 1.965 . S
Zn338 O336 1.950 . S
Zn338 O345 1.938 . S
Zn338 O346 1.906 . S
Zn338 O356 1.953 . S
Zn339 O336 1.945 . S
Zn339 O341 1.932 . S
Zn339 O348 1.977 . S
Zn339 O349 1.910 . S
O340 Zn337 1.933 . S
O340 C351 1.226 . S
O341 Zn339 1.932 . S
O341 C351 1.307 . S
O342 Zn335 1.919 . S
O342 C353 1.253 . S
O343 Zn337 1.941 . S
O343 C353 1.283 . S
O344 Zn337 1.965 . S
O344 C352 1.303 . S
O345 Zn338 1.938 . S
O345 C352 1.247 . S
O346 Zn338 1.906 . S
O346 C354 1.304 . S
O347 Zn335 1.924 . S
O347 C355 1.311 . S
O348 Zn339 1.977 . S
O348 C354 1.272 . S
O349 Zn339 1.910 . S
O349 C355 1.231 . S
C350 O334 1.225 . S
C350 O356 1.298 . S
C351 O340 1.226 . S
C351 O341 1.307 . S
C352 O344 1.303 . S
C352 O345 1.247 . S
C353 O342 1.253 . S
C353 O343 1.283 . S
C354 O346 1.304 . S
C354 O348 1.272 . S
C355 O347 1.311 . S
C355 O349 1.231 . S
O356 Zn338 1.953 . S
O356 C350 1.298 . S
O357 Zn358 1.953 1_655 S
O357 C373 1.225 . S
Zn358 O357 1.953 1_455 S
Zn358 O359 1.949 . S
Zn358 O365 1.919 . S
Zn358 O370 1.924 . S
O359 Zn358 1.949 . S
O359 Zn360 1.923 . S
O359 Zn361 1.950 1_455 S
O359 Zn362 1.945 . S
Zn360 O359 1.923 . S
Zn360 O363 1.933 . S
Zn360 O366 1.941 . S
Zn360 O367 1.965 1_455 S
Zn361 O359 1.950 1_655 S
Zn361 O368 1.938 . S
Zn361 O369 1.906 1_655 S
Zn361 O379 1.953 . S
Zn362 O359 1.945 . S
Zn362 O364 1.932 . S
Zn362 O371 1.977 . S
Zn362 O372 1.910 . S
O363 Zn360 1.933 . S
O363 C374 1.226 . S
O364 Zn362 1.932 . S
O364 C374 1.307 . S
O365 Zn358 1.919 . S
O365 C376 1.253 . S
O366 Zn360 1.941 . S
O366 C376 1.283 . S
O367 Zn360 1.965 1_655 S
O367 C375 1.303 . S
O368 Zn361 1.938 . S
O368 C375 1.247 . S
O369 Zn361 1.906 1_455 S
O369 C377 1.304 . S
O370 Zn358 1.924 . S
O370 C378 1.311 . S
O371 Zn362 1.977 . S
O371 C377 1.272 . S
O372 Zn362 1.910 . S
O372 C378 1.231 . S
C373 O357 1.225 . S
C373 O379 1.298 . S
C374 O363 1.226 . S
C374 O364 1.307 . S
C375 O367 1.303 . S
C375 O368 1.247 . S
C376 O365 1.253 . S
C376 O366 1.283 . S
C377 O369 1.304 . S
C377 O371 1.272 . S
C378 O370 1.311 . S
C378 O372 1.231 . S
O379 Zn361 1.953 . S
O379 C373 1.298 . S
H380 C388 0.929 . S
H381 C390 0.930 . S
H382 C392 0.930 . S
H383 C395 0.929 . S
H384 C398 0.930 . S
H385 C400 0.960 . S
H386 C400 0.960 . S
H387 C400 0.960 . S
C388 H380 0.929 . S
C388 C389 1.363 1_545 S
C388 C390 1.384 . S
C389 C388 1.363 1_565 S
C389 C395 1.404 . S
C390 H381 0.930 . S
C390 C388 1.384 . S
C390 C391 1.340 1_545 S
C391 C390 1.340 1_565 S
C391 C392 1.433 . S
C391 C396 1.490 . S
C392 H382 0.930 . S
C392 C391 1.433 . S
C392 C395 1.386 . S
H393 C409 0.930 . S
H394 C410 0.931 . S
C395 H383 0.929 . S
C395 C389 1.404 . S
C395 C392 1.386 . S
C396 C391 1.490 . S
C396 C398 1.369 1_565 S
C396 C399 1.428 . S
H397 C403 0.930 . S
C398 H384 0.930 . S
C398 C396 1.369 1_545 S
C398 C401 1.403 . S
C399 C396 1.428 . S
C399 C400 1.524 . S
C399 C403 1.400 . S
C400 H385 0.960 . S
C400 H386 0.960 . S
C400 H387 0.960 . S
C400 C399 1.524 . S
C401 C398 1.403 . S
C401 C402 1.392 1_545 S
C401 C405 1.495 . S
C402 C401 1.392 1_565 S
C402 C403 1.385 . S
C402 C404 1.478 . S
C403 H397 0.930 . S
C403 C399 1.400 . S
C403 C402 1.385 . S
C404 C402 1.478 . S
C404 C406 1.381 1_565 S
C404 C410 1.383 . S
C405 C401 1.495 . S
C405 H411 0.959 . S
C405 H412 0.961 . S
C405 H413 0.960 . S
C406 C404 1.381 1_545 S
C406 C407 1.394 . S
C406 H414 0.930 . S
C407 C406 1.394 . S
C407 C408 1.383 1_545 S
C407 H415 0.929 . S
C408 C407 1.383 1_565 S
C408 C409 1.377 . S
C409 H393 0.930 . S
C409 C408 1.377 . S
C409 C410 1.379 . S
C410 H394 0.931 . S
C410 C404 1.383 . S
C410 C409 1.379 . S
H411 C405 0.959 . S
H412 C405 0.961 . S
H413 C405 0.960 . S
H414 C406 0.930 . S
H415 C407 0.929 . S
H416 C424 0.929 . S
H417 C426 0.930 . S
H418 C428 0.930 . S
H419 C431 0.929 . S
H420 C434 0.930 . S
H421 C436 0.960 . S
H422 C436 0.960 . S
H423 C436 0.960 . S
C424 H416 0.929 . S
C424 C425 1.377 . S
C424 C426 1.384 . S
C425 C424 1.377 . S
C425 C431 1.390 . S
C426 H417 0.930 . S
C426 C424 1.384 . S
C426 C427 1.372 . S
C427 C426 1.372 . S
C427 C428 1.400 . S
C427 C432 1.490 . S
C428 H418 0.930 . S
C428 C427 1.400 . S
C428 C431 1.386 . S
H429 C445 0.930 . S
H430 C446 0.931 . S
C431 H419 0.929 . S
C431 C425 1.390 . S
C431 C428 1.386 . S
C432 C427 1.490 . S
C432 C434 1.395 . S
C432 C435 1.403 . S
H433 C439 0.930 . S
C434 H420 0.930 . S
C434 C432 1.395 . S
C434 C437 1.403 . S
C435 C432 1.403 . S
C435 C436 1.524 . S
C435 C439 1.400 . S
C436 H421 0.960 . S
C436 H422 0.960 . S
C436 H423 0.960 . S
C436 C435 1.524 . S
C437 C434 1.403 . S
C437 C438 1.392 . S
C437 C441 1.495 . S
C438 C437 1.392 . S
C438 C439 1.385 . S
C438 C440 1.478 . S
C439 H433 0.930 . S
C439 C435 1.400 . S
C439 C438 1.385 . S
C440 C438 1.478 . S
C440 C442 1.381 . S
C440 C446 1.383 . S
C441 C437 1.495 . S
C441 H447 0.959 . S
C441 H448 0.961 . S
C441 H449 0.960 . S
C442 C440 1.381 . S
C442 C443 1.394 . S
C442 H450 0.930 . S
C443 C442 1.394 . S
C443 C444 1.383 . S
C443 H451 0.929 . S
C444 C443 1.383 . S
C444 C445 1.377 . S
C445 H429 0.930 . S
C445 C444 1.377 . S
C445 C446 1.379 . S
C446 H430 0.931 . S
C446 C440 1.383 . S
C446 C445 1.379 . S
H447 C441 0.959 . S
H448 C441 0.961 . S
H449 C441 0.960 . S
H450 C442 0.930 . S
H451 C443 0.929 . S
H452 C460 0.929 . S
H453 C462 0.930 . S
H454 C464 0.930 . S
H455 C467 0.929 . S
H456 C470 0.930 . S
H457 C472 0.960 . S
H458 C472 0.960 . S
H459 C472 0.960 . S
C460 H452 0.929 . S
C460 C461 1.377 . S
C460 C462 1.384 . S
C461 C460 1.377 . S
C461 C467 1.390 . S
C462 H453 0.930 . S
C462 C460 1.384 . S
C462 C463 1.372 . S
C463 C462 1.372 . S
C463 C464 1.400 . S
C463 C468 1.490 . S
C464 H454 0.930 . S
C464 C463 1.400 . S
C464 C467 1.386 . S
H465 C481 0.930 . S
H466 C482 0.931 . S
C467 H455 0.929 . S
C467 C461 1.390 . S
C467 C464 1.386 . S
C468 C463 1.490 . S
C468 C470 1.395 . S
C468 C471 1.403 . S
H469 C475 0.930 . S
C470 H456 0.930 . S
C470 C468 1.395 . S
C470 C473 1.403 . S
C471 C468 1.403 . S
C471 C472 1.524 . S
C471 C475 1.400 . S
C472 H457 0.960 . S
C472 H458 0.960 . S
C472 H459 0.960 . S
C472 C471 1.524 . S
C473 C470 1.403 . S
C473 C474 1.392 . S
C473 C477 1.495 . S
C474 C473 1.392 . S
C474 C475 1.385 . S
C474 C476 1.478 . S
C475 H469 0.930 . S
C475 C471 1.400 . S
C475 C474 1.385 . S
C476 C474 1.478 . S
C476 C478 1.381 . S
C476 C482 1.383 . S
C477 C473 1.495 . S
C477 H483 0.959 . S
C477 H484 0.961 . S
C477 H485 0.960 . S
C478 C476 1.381 . S
C478 C479 1.394 . S
C478 H486 0.930 . S
C479 C478 1.394 . S
C479 C480 1.383 . S
C479 H487 0.929 . S
C480 C479 1.383 . S
C480 C481 1.377 . S
C481 H465 0.930 . S
C481 C480 1.377 . S
C481 C482 1.379 . S
C482 H466 0.931 . S
C482 C476 1.383 . S
C482 C481 1.379 . S
H483 C477 0.959 . S
H484 C477 0.961 . S
H485 C477 0.960 . S
H486 C478 0.930 . S
H487 C479 0.929 . S
H488 C496 0.929 . S
H489 C498 0.930 . S
H490 C500 0.930 . S
H491 C503 0.929 . S
H492 C506 0.930 . S
H493 C508 0.960 . S
H494 C508 0.960 . S
H495 C508 0.960 . S
C496 H488 0.929 . S
C496 C497 1.377 . S
C496 C498 1.384 . S
C497 C496 1.377 . S
C497 C503 1.390 . S
C498 H489 0.930 . S
C498 C496 1.384 . S
C498 C499 1.372 . S
C499 C498 1.372 . S
C499 C500 1.400 . S
C499 C504 1.490 . S
C500 H490 0.930 . S
C500 C499 1.400 . S
C500 C503 1.386 . S
H501 C517 0.930 . S
H502 C518 0.931 . S
C503 H491 0.929 . S
C503 C497 1.390 . S
C503 C500 1.386 . S
C504 C499 1.490 . S
C504 C506 1.395 . S
C504 C507 1.403 . S
H505 C511 0.930 . S
C506 H492 0.930 . S
C506 C504 1.395 . S
C506 C509 1.403 . S
C507 C504 1.403 . S
C507 C508 1.524 . S
C507 C511 1.400 . S
C508 H493 0.960 . S
C508 H494 0.960 . S
C508 H495 0.960 . S
C508 C507 1.524 . S
C509 C506 1.403 . S
C509 C510 1.392 . S
C509 C513 1.495 . S
C510 C509 1.392 . S
C510 C511 1.385 . S
C510 C512 1.478 . S
C511 H505 0.930 . S
C511 C507 1.400 . S
C511 C510 1.385 . S
C512 C510 1.478 . S
C512 C514 1.381 . S
C512 C518 1.383 . S
C513 C509 1.495 . S
C513 H519 0.959 . S
C513 H520 0.961 . S
C513 H521 0.960 . S
C514 C512 1.381 . S
C514 C515 1.394 . S
C514 H522 0.930 . S
C515 C514 1.394 . S
C515 C516 1.383 . S
C515 H523 0.929 . S
C516 C515 1.383 . S
C516 C517 1.377 . S
C517 H501 0.930 . S
C517 C516 1.377 . S
C517 C518 1.379 . S
C518 H502 0.931 . S
C518 C512 1.383 . S
C518 C517 1.379 . S
H519 C513 0.959 . S
H520 C513 0.961 . S
H521 C513 0.960 . S
H522 C514 0.930 . S
H523 C515 0.929 . S
H524 C532 0.929 1_554 S
H525 C534 0.930 . S
H526 C536 0.930 . S
H527 C539 0.929 . S
H528 C542 0.930 . S
H529 C544 0.960 . S
H530 C544 0.960 1_545 S
H531 C544 0.960 . S
C532 H524 0.929 1_556 S
C532 C533 1.398 1_556 S
C532 C534 1.384 . S
C533 C532 1.398 1_554 S
C533 C539 1.370 1_544 S
C534 H525 0.930 . S
C534 C532 1.384 . S
C534 C535 1.372 . S
C535 C534 1.372 . S
C535 C536 1.400 1_545 S
C535 C540 1.490 . S
C536 H526 0.930 . S
C536 C535 1.400 1_565 S
C536 C539 1.386 . S
H537 C553 0.930 . S
H538 C554 0.931 . S
C539 H527 0.929 . S
C539 C533 1.370 1_566 S
C539 C536 1.386 . S
C540 C535 1.490 . S
C540 C542 1.395 . S
C540 C543 1.403 1_545 S
H541 C547 0.933 . S
C542 H528 0.930 . S
C542 C540 1.395 . S
C542 C545 1.403 . S
C543 C540 1.403 1_565 S
C543 C544 1.524 . S
C543 C547 1.400 . S
C544 H529 0.960 . S
C544 H530 0.960 1_565 S
C544 H531 0.960 . S
C544 C543 1.524 . S
C545 C542 1.403 . S
C545 C546 1.392 . S
C545 C549 1.495 . S
C546 C545 1.392 . S
C546 C547 1.382 1_545 S
C546 C548 1.478 . S
C547 H541 0.933 . S
C547 C543 1.400 . S
C547 C546 1.382 1_565 S
C548 C546 1.478 . S
C548 C550 1.381 . S
C548 C554 1.383 1_545 S
C549 C545 1.495 . S
C549 H555 0.959 . S
C549 H556 0.961 . S
C549 H557 0.960 . S
C550 C548 1.381 . S
C550 C551 1.394 . S
C550 H558 0.930 . S
C551 C550 1.394 . S
C551 C552 1.383 . S
C551 H559 0.929 . S
C552 C551 1.383 . S
C552 C553 1.377 1_545 S
C553 H537 0.930 . S
C553 C552 1.377 1_565 S
C553 C554 1.379 . S
C554 H538 0.931 . S
C554 C548 1.383 1_565 S
C554 C553 1.379 . S
H555 C549 0.959 . S
H556 C549 0.961 . S
H557 C549 0.960 . S
H558 C550 0.930 . S
H559 C551 0.929 . S
H560 C568 0.929 . S
H561 C570 0.930 . S
H562 C572 0.930 . S
H563 C575 0.929 1_554 S
H564 C578 0.930 . S
H565 C580 0.960 . S
H566 C580 0.960 . S
H567 C580 0.960 . S
C568 H560 0.929 . S
C568 C569 1.377 . S
C568 C570 1.384 . S
C569 C568 1.377 . S
C569 C575 1.390 . S
C570 H561 0.930 . S
C570 C568 1.384 . S
C570 C571 1.372 . S
C571 C570 1.372 . S
C571 C572 1.400 . S
C571 C576 1.490 . S
C572 H562 0.930 . S
C572 C571 1.400 . S
C572 C575 1.386 . S
H573 C589 0.930 . S
H574 C590 0.931 . S
C575 H563 0.929 1_556 S
C575 C569 1.390 . S
C575 C572 1.386 . S
C576 C571 1.490 . S
C576 C578 1.395 . S
C576 C579 1.403 . S
H577 C583 0.930 . S
C578 H564 0.930 . S
C578 C576 1.395 . S
C578 C581 1.403 . S
C579 C576 1.403 . S
C579 C580 1.524 . S
C579 C583 1.400 . S
C580 H565 0.960 . S
C580 H566 0.960 . S
C580 H567 0.960 . S
C580 C579 1.524 . S
C581 C578 1.403 . S
C581 C582 1.392 . S
C581 C585 1.495 . S
C582 C581 1.392 . S
C582 C583 1.385 . S
C582 C584 1.478 . S
C583 H577 0.930 . S
C583 C579 1.400 . S
C583 C582 1.385 . S
C584 C582 1.478 . S
C584 C586 1.381 . S
C584 C590 1.383 . S
C585 C581 1.495 . S
C585 H591 0.959 . S
C585 H592 0.961 . S
C585 H593 0.960 . S
C586 C584 1.381 . S
C586 C587 1.394 . S
C586 H594 0.930 . S
C587 C586 1.394 . S
C587 C588 1.383 . S
C587 H595 0.929 . S
C588 C587 1.383 . S
C588 C589 1.377 . S
C589 H573 0.930 . S
C589 C588 1.377 . S
C589 C590 1.379 . S
C590 H574 0.931 . S
C590 C584 1.383 . S
C590 C589 1.379 . S
H591 C585 0.959 . S
H592 C585 0.961 . S
H593 C585 0.960 . S
H594 C586 0.930 . S
H595 C587 0.929 . S
H596 C604 0.929 . S
H597 C606 0.930 . S
H598 C608 0.930 . S
H599 C611 0.929 . S
H600 C614 0.930 . S
H601 C616 0.960 . S
H602 C616 0.960 . S
H603 C616 0.960 . S
C604 H596 0.929 . S
C604 C605 1.377 . S
C604 C606 1.384 . S
C605 C604 1.377 . S
C605 C611 1.390 . S
C606 H597 0.930 . S
C606 C604 1.384 . S
C606 C607 1.372 . S
C607 C606 1.372 . S
C607 C608 1.400 . S
C607 C612 1.490 . S
C608 H598 0.930 . S
C608 C607 1.400 . S
C608 C611 1.386 . S
H609 C625 0.930 . S
H610 C626 0.931 . S
C611 H599 0.929 . S
C611 C605 1.390 . S
C611 C608 1.386 . S
C612 C607 1.490 . S
C612 C614 1.395 . S
C612 C615 1.403 . S
H613 C619 0.930 . S
C614 H600 0.930 . S
C614 C612 1.395 . S
C614 C617 1.403 . S
C615 C612 1.403 . S
C615 C616 1.524 . S
C615 C619 1.400 . S
C616 H601 0.960 . S
C616 H602 0.960 . S
C616 H603 0.960 . S
C616 C615 1.524 . S
C617 C614 1.403 . S
C617 C618 1.392 . S
C617 C621 1.495 . S
C618 C617 1.392 . S
C618 C619 1.385 . S
C618 C620 1.478 . S
C619 H613 0.930 . S
C619 C615 1.400 . S
C619 C618 1.385 . S
C620 C618 1.478 . S
C620 C622 1.381 . S
C620 C626 1.383 . S
C621 C617 1.495 . S
C621 H627 0.959 . S
C621 H628 0.961 . S
C621 H629 0.960 . S
C622 C620 1.381 . S
C622 C623 1.394 . S
C622 H630 0.930 . S
C623 C622 1.394 . S
C623 C624 1.383 . S
C623 H631 0.929 . S
C624 C623 1.383 . S
C624 C625 1.377 . S
C625 H609 0.930 . S
C625 C624 1.377 . S
C625 C626 1.379 . S
C626 H610 0.931 . S
C626 C620 1.383 . S
C626 C625 1.379 . S
H627 C621 0.959 . S
H628 C621 0.961 . S
H629 C621 0.960 . S
H630 C622 0.930 . S
H631 C623 0.929 . S
H632 C640 0.929 . S
H633 C642 0.930 . S
H634 C644 0.930 . S
H635 C647 0.929 . S
H636 C650 0.930 . S
H637 C652 0.960 . S
H638 C652 0.960 . S
H639 C652 0.960 . S
C640 H632 0.929 . S
C640 C641 1.377 1_456 S
C640 C642 1.384 . S
C641 C640 1.377 1_654 S
C641 C647 1.390 . S
C642 H633 0.930 . S
C642 C640 1.384 . S
C642 C643 1.372 1_455 S
C643 C642 1.372 1_655 S
C643 C644 1.400 . S
C643 C648 1.490 . S
C644 H634 0.930 . S
C644 C643 1.400 . S
C644 C647 1.386 1_556 S
H645 C661 0.930 1_655 S
H646 C662 0.932 1_655 S
C647 H635 0.929 . S
C647 C641 1.390 . S
C647 C644 1.386 1_554 S
C648 C643 1.490 . S
C648 C650 1.395 1_655 S
C648 C651 1.403 . S
H649 C655 0.930 . S
C650 H636 0.930 . S
C650 C648 1.395 1_455 S
C650 C653 1.403 . S
C651 C648 1.403 . S
C651 C652 1.524 . S
C651 C655 1.400 . S
C652 H637 0.960 . S
C652 H638 0.960 . S
C652 H639 0.960 . S
C652 C651 1.524 . S
C653 C650 1.403 . S
C653 C654 1.392 . S
C653 C657 1.495 . S
C654 C653 1.392 . S
C654 C655 1.385 1_455 S
C654 C656 1.478 . S
C655 H649 0.930 . S
C655 C651 1.400 . S
C655 C654 1.385 1_655 S
C656 C654 1.478 . S
C656 C658 1.381 . S
C656 C662 1.382 . S
C657 C653 1.495 . S
C657 H663 0.959 . S
C657 H664 0.961 . S
C657 H665 0.960 . S
C658 C656 1.381 . S
C658 C659 1.394 . S
C658 H666 0.930 . S
C659 C658 1.394 . S
C659 C660 1.383 . S
C659 H667 0.929 . S
C660 C659 1.383 . S
C660 C661 1.377 . S
C661 H645 0.930 1_455 S
C661 C660 1.377 . S
C661 C662 1.379 . S
C662 H646 0.932 1_455 S
C662 C656 1.382 . S
C662 C661 1.379 . S
H663 C657 0.959 . S
H664 C657 0.961 . S
H665 C657 0.960 . S
H666 C658 0.930 . S
H667 C659 0.929 . S
H668 C676 0.929 . S
H669 C678 0.930 . S
H670 C680 0.930 . S
H671 C683 0.929 . S
H672 C686 0.930 . S
H673 C688 0.960 . S
H674 C688 0.960 . S
H675 C688 0.960 . S
C676 H668 0.929 . S
C676 C677 1.377 . S
C676 C678 1.384 . S
C677 C676 1.377 . S
C677 C683 1.390 . S
C678 H669 0.930 . S
C678 C676 1.384 . S
C678 C679 1.372 . S
C679 C678 1.372 . S
C679 C680 1.400 . S
C679 C684 1.490 . S
C680 H670 0.930 . S
C680 C679 1.400 . S
C680 C683 1.386 . S
H681 C697 0.930 . S
H682 C698 0.931 . S
C683 H671 0.929 . S
C683 C677 1.390 . S
C683 C680 1.386 . S
C684 C679 1.490 . S
C684 C686 1.395 . S
C684 C687 1.403 . S
H685 C691 0.930 . S
C686 H672 0.930 . S
C686 C684 1.395 . S
C686 C689 1.403 . S
C687 C684 1.403 . S
C687 C688 1.524 . S
C687 C691 1.400 . S
C688 H673 0.960 . S
C688 H674 0.960 . S
C688 H675 0.960 . S
C688 C687 1.524 . S
C689 C686 1.403 . S
C689 C690 1.392 . S
C689 C693 1.495 . S
C690 C689 1.392 . S
C690 C691 1.385 . S
C690 C692 1.478 . S
C691 H685 0.930 . S
C691 C687 1.400 . S
C691 C690 1.385 . S
C692 C690 1.478 . S
C692 C694 1.381 . S
C692 C698 1.383 . S
C693 C689 1.495 . S
C693 H699 0.959 . S
C693 H700 0.961 . S
C693 H701 0.960 . S
C694 C692 1.381 . S
C694 C695 1.394 . S
C694 H702 0.930 . S
C695 C694 1.394 . S
C695 C696 1.383 . S
C695 H703 0.929 . S
C696 C695 1.383 . S
C696 C697 1.377 . S
C697 H681 0.930 . S
C697 C696 1.377 . S
C697 C698 1.379 . S
C698 H682 0.931 . S
C698 C692 1.383 . S
C698 C697 1.379 . S
H699 C693 0.959 . S
H700 C693 0.961 . S
H701 C693 0.960 . S
H702 C694 0.930 . S
H703 C695 0.929 . S
H704 C712 0.929 . S
H705 C714 0.930 . S
H706 C716 0.930 . S
H707 C719 0.929 . S
H708 C722 0.930 . S
H709 C724 0.960 . S
H710 C724 0.960 1_545 S
H711 C724 0.960 . S
C712 H704 0.929 . S
C712 C713 1.416 . S
C712 C714 1.384 . S
C713 C712 1.416 . S
C713 C719 1.349 1_545 S
C714 H705 0.930 . S
C714 C712 1.384 . S
C714 C715 1.421 . S
C715 C714 1.421 . S
C715 C716 1.354 1_545 S
C715 C720 1.489 . S
C716 H706 0.930 . S
C716 C715 1.354 1_565 S
C716 C719 1.386 . S
H717 C733 0.930 . S
H718 C734 0.931 . S
C719 H707 0.929 . S
C719 C713 1.349 1_565 S
C719 C716 1.386 . S
C720 C715 1.489 . S
C720 C722 1.404 . S
C720 C723 1.393 1_545 S
H721 C727 0.930 . S
C722 H708 0.930 . S
C722 C720 1.404 . S
C722 C725 1.403 . S
C723 C720 1.393 1_565 S
C723 C724 1.524 . S
C723 C727 1.400 . S
C724 H709 0.960 . S
C724 H710 0.960 1_565 S
C724 H711 0.960 . S
C724 C723 1.524 . S
C725 C722 1.403 . S
C725 C726 1.395 . S
C725 C729 1.495 . S
C726 C725 1.395 . S
C726 C727 1.383 1_545 S
C726 C728 1.475 1_545 S
C727 H721 0.930 . S
C727 C723 1.400 . S
C727 C726 1.383 1_565 S
C728 C726 1.475 1_565 S
C728 C730 1.354 1_565 S
C728 C734 1.413 . S
C729 C725 1.495 . S
C729 H735 0.959 . S
C729 H736 0.961 1_545 S
C729 H737 0.960 . S
C730 C728 1.354 1_545 S
C730 C731 1.394 . S
C730 H738 0.930 . S
C731 C730 1.394 . S
C731 C732 1.383 1_545 S
C731 H739 0.929 . S
C732 C731 1.383 1_565 S
C732 C733 1.377 . S
C733 H717 0.930 . S
C733 C732 1.377 . S
C733 C734 1.379 . S
C734 H718 0.931 . S
C734 C728 1.413 . S
C734 C733 1.379 . S
H735 C729 0.959 . S
H736 C729 0.961 1_565 S
H737 C729 0.960 . S
H738 C730 0.930 . S
H739 C731 0.929 . S
H740 C748 0.929 . S
H741 C750 0.930 . S
H742 C752 0.930 . S
H743 C755 0.929 . S
H744 C758 0.930 . S
H745 C760 0.960 . S
H746 C760 0.960 . S
H747 C760 0.960 . S
C748 H740 0.929 . S
C748 C749 1.377 . S
C748 C750 1.384 . S
C749 C748 1.377 . S
C749 C755 1.390 . S
C750 H741 0.930 . S
C750 C748 1.384 . S
C750 C751 1.372 . S
C751 C750 1.372 . S
C751 C752 1.400 . S
C751 C756 1.490 . S
C752 H742 0.930 . S
C752 C751 1.400 . S
C752 C755 1.386 . S
H753 C769 0.930 . S
H754 C770 0.931 . S
C755 H743 0.929 . S
C755 C749 1.390 . S
C755 C752 1.386 . S
C756 C751 1.490 . S
C756 C758 1.395 . S
C756 C759 1.403 . S
H757 C763 0.930 . S
C758 H744 0.930 . S
C758 C756 1.395 . S
C758 C761 1.403 . S
C759 C756 1.403 . S
C759 C760 1.524 . S
C759 C763 1.400 . S
C760 H745 0.960 . S
C760 H746 0.960 . S
C760 H747 0.960 . S
C760 C759 1.524 . S
C761 C758 1.403 . S
C761 C762 1.392 . S
C761 C765 1.495 . S
C762 C761 1.392 . S
C762 C763 1.385 . S
C762 C764 1.478 . S
C763 H757 0.930 . S
C763 C759 1.400 . S
C763 C762 1.385 . S
C764 C762 1.478 . S
C764 C766 1.381 . S
C764 C770 1.383 . S
C765 C761 1.495 . S
C765 H771 0.959 . S
C765 H772 0.961 . S
C765 H773 0.960 . S
C766 C764 1.381 . S
C766 C767 1.394 . S
C766 H774 0.930 . S
C767 C766 1.394 . S
C767 C768 1.383 . S
C767 H775 0.929 . S
C768 C767 1.383 . S
C768 C769 1.377 . S
C769 H753 0.930 . S
C769 C768 1.377 . S
C769 C770 1.379 . S
C770 H754 0.931 . S
C770 C764 1.383 . S
C770 C769 1.379 . S
H771 C765 0.959 . S
H772 C765 0.961 . S
H773 C765 0.960 . S
H774 C766 0.930 . S
H775 C767 0.929 . S
H776 C784 0.929 . S
H777 C786 0.930 . S
H778 C788 0.930 . S
H779 C791 0.929 . S
H780 C794 0.930 . S
H781 C796 0.960 . S
H782 C796 0.960 . S
H783 C796 0.960 . S
C784 H776 0.929 . S
C784 C785 1.377 . S
C784 C786 1.384 . S
C785 C784 1.377 . S
C785 C791 1.390 . S
C786 H777 0.930 . S
C786 C784 1.384 . S
C786 C787 1.372 . S
C787 C786 1.372 . S
C787 C788 1.400 . S
C787 C792 1.490 . S
C788 H778 0.930 . S
C788 C787 1.400 . S
C788 C791 1.386 . S
H789 C805 0.930 . S
H790 C806 0.931 . S
C791 H779 0.929 . S
C791 C785 1.390 . S
C791 C788 1.386 . S
C792 C787 1.490 . S
C792 C794 1.395 . S
C792 C795 1.403 . S
H793 C799 0.930 . S
C794 H780 0.930 . S
C794 C792 1.395 . S
C794 C797 1.403 . S
C795 C792 1.403 . S
C795 C796 1.524 . S
C795 C799 1.400 . S
C796 H781 0.960 . S
C796 H782 0.960 . S
C796 H783 0.960 . S
C796 C795 1.524 . S
C797 C794 1.403 . S
C797 C798 1.392 . S
C797 C801 1.495 . S
C798 C797 1.392 . S
C798 C799 1.385 . S
C798 C800 1.478 . S
C799 H793 0.930 . S
C799 C795 1.400 . S
C799 C798 1.385 . S
C800 C798 1.478 . S
C800 C802 1.381 . S
C800 C806 1.383 . S
C801 C797 1.495 . S
C801 H807 0.959 . S
C801 H808 0.961 . S
C801 H809 0.960 . S
C802 C800 1.381 . S
C802 C803 1.394 . S
C802 H810 0.930 . S
C803 C802 1.394 . S
C803 C804 1.383 . S
C803 H811 0.929 . S
C804 C803 1.383 . S
C804 C805 1.377 . S
C805 H789 0.930 . S
C805 C804 1.377 . S
C805 C806 1.379 . S
C806 H790 0.931 . S
C806 C800 1.383 . S
C806 C805 1.379 . S
H807 C801 0.959 . S
H808 C801 0.961 . S
H809 C801 0.960 . S
H810 C802 0.930 . S
H811 C803 0.929 . S
H812 C820 0.929 . S
H813 C822 0.930 . S
H814 C824 0.930 . S
H815 C827 0.929 . S
H816 C830 0.930 . S
H817 C832 0.960 . S
H818 C832 0.960 . S
H819 C832 0.960 1_655 S
C820 H812 0.929 . S
C820 C821 1.377 1_455 S
C820 C822 1.384 . S
C821 C820 1.377 1_655 S
C821 C827 1.390 . S
C822 H813 0.930 . S
C822 C820 1.384 . S
C822 C823 1.372 . S
C823 C822 1.372 . S
C823 C824 1.400 1_455 S
C823 C828 1.490 . S
C824 H814 0.930 . S
C824 C823 1.400 1_655 S
C824 C827 1.386 . S
H825 C841 0.930 . S
H826 C842 0.931 . S
C827 H815 0.929 . S
C827 C821 1.390 . S
C827 C824 1.386 . S
C828 C823 1.490 . S
C828 C830 1.395 . S
C828 C831 1.403 . S
H829 C835 0.930 . S
C830 H816 0.930 . S
C830 C828 1.395 . S
C830 C833 1.403 . S
C831 C828 1.403 . S
C831 C832 1.524 . S
C831 C835 1.400 . S
C832 H817 0.960 . S
C832 H818 0.960 . S
C832 H819 0.960 1_455 S
C832 C831 1.524 . S
C833 C830 1.403 . S
C833 C834 1.392 . S
C833 C837 1.495 . S
C834 C833 1.392 . S
C834 C835 1.385 . S
C834 C836 1.478 . S
C835 H829 0.930 . S
C835 C831 1.400 . S
C835 C834 1.385 . S
C836 C834 1.478 . S
C836 C838 1.381 . S
C836 C842 1.383 . S
C837 C833 1.495 . S
C837 H843 0.959 . S
C837 H844 0.961 . S
C837 H845 0.960 . S
C838 C836 1.381 . S
C838 C839 1.394 . S
C838 H846 0.930 . S
C839 C838 1.394 . S
C839 C840 1.383 . S
C839 H847 0.929 . S
C840 C839 1.383 . S
C840 C841 1.377 . S
C841 H825 0.930 . S
C841 C840 1.377 . S
C841 C842 1.379 . S
C842 H826 0.931 . S
C842 C836 1.383 . S
C842 C841 1.379 . S
H843 C837 0.959 . S
H844 C837 0.961 . S
H845 C837 0.960 . S
H846 C838 0.930 . S
H847 C839 0.929 . S
H848 C856 0.929 . S
H849 C858 0.930 . S
H850 C860 0.930 . S
H851 C863 0.929 . S
H852 C866 0.930 . S
H853 C868 0.960 . S
H854 C868 0.960 . S
H855 C868 0.942 1_545 S
C856 H848 0.929 . S
C856 C857 1.377 . S
C856 C858 1.384 . S
C857 C856 1.377 . S
C857 C863 1.390 1_565 S
C858 H849 0.930 . S
C858 C856 1.384 . S
C858 C859 1.372 1_565 S
C859 C858 1.372 1_545 S
C859 C860 1.400 . S
C859 C864 1.490 . S
C860 H850 0.930 . S
C860 C859 1.400 . S
C860 C863 1.386 . S
H861 C877 0.930 . S
H862 C878 0.931 . S
C863 H851 0.929 . S
C863 C857 1.390 1_545 S
C863 C860 1.386 . S
C864 C859 1.490 . S
C864 C866 1.395 . S
C864 C867 1.403 . S
H865 C871 0.930 . S
C866 H852 0.930 . S
C866 C864 1.395 . S
C866 C869 1.403 . S
C867 C864 1.403 . S
C867 C868 1.524 1_545 S
C867 C871 1.400 . S
C868 H853 0.960 . S
C868 H854 0.960 . S
C868 H855 0.942 1_565 S
C868 C867 1.524 1_565 S
C869 C866 1.403 . S
C869 C870 1.392 . S
C869 C873 1.495 . S
C870 C869 1.392 . S
C870 C871 1.385 . S
C870 C872 1.478 . S
C871 H865 0.930 . S
C871 C867 1.400 . S
C871 C870 1.385 . S
C872 C870 1.478 . S
C872 C874 1.381 . S
C872 C878 1.383 . S
C873 C869 1.495 . S
C873 H879 0.959 . S
C873 H880 0.961 . S
C873 H881 0.960 . S
C874 C872 1.381 . S
C874 C875 1.394 . S
C874 H882 0.930 . S
C875 C874 1.394 . S
C875 C876 1.383 . S
C875 H883 0.929 . S
C876 C875 1.383 . S
C876 C877 1.377 . S
C877 H861 0.930 . S
C877 C876 1.377 . S
C877 C878 1.379 . S
C878 H862 0.931 . S
C878 C872 1.383 . S
C878 C877 1.379 . S
H879 C873 0.959 . S
H880 C873 0.961 . S
H881 C873 0.960 . S
H882 C874 0.930 . S
H883 C875 0.929 . S
H884 C892 0.929 . S
H885 C894 0.930 . S
H886 C896 0.930 . S
H887 C899 0.929 . S
H888 C902 0.930 . S
H889 C904 0.960 . S
H890 C904 0.960 . S
H891 C904 0.960 . S
C892 H884 0.929 . S
C892 C893 1.377 . S
C892 C894 1.384 . S
C893 C892 1.377 . S
C893 C899 1.390 . S
C894 H885 0.930 . S
C894 C892 1.384 . S
C894 C895 1.372 . S
C895 C894 1.372 . S
C895 C896 1.400 . S
C895 C900 1.490 . S
C896 H886 0.930 . S
C896 C895 1.400 . S
C896 C899 1.386 . S
H897 C913 0.930 . S
H898 C914 0.931 . S
C899 H887 0.929 . S
C899 C893 1.390 . S
C899 C896 1.386 . S
C900 C895 1.490 . S
C900 C902 1.395 . S
C900 C903 1.403 . S
H901 C907 0.930 . S
C902 H888 0.930 . S
C902 C900 1.395 . S
C902 C905 1.403 . S
C903 C900 1.403 . S
C903 C904 1.524 . S
C903 C907 1.400 . S
C904 H889 0.960 . S
C904 H890 0.960 . S
C904 H891 0.960 . S
C904 C903 1.524 . S
C905 C902 1.403 . S
C905 C906 1.392 . S
C905 C909 1.495 . S
C906 C905 1.392 . S
C906 C907 1.385 . S
C906 C908 1.478 . S
C907 H901 0.930 . S
C907 C903 1.400 . S
C907 C906 1.385 . S
C908 C906 1.478 . S
C908 C910 1.381 . S
C908 C914 1.383 . S
C909 C905 1.495 . S
C909 H915 0.959 . S
C909 H916 0.961 . S
C909 H917 0.960 . S
C910 C908 1.381 . S
C910 C911 1.394 . S
C910 H918 0.930 . S
C911 C910 1.394 . S
C911 C912 1.383 . S
C911 H919 0.929 . S
C912 C911 1.383 . S
C912 C913 1.377 . S
C913 H897 0.930 . S
C913 C912 1.377 . S
C913 C914 1.379 . S
C914 H898 0.931 . S
C914 C908 1.383 . S
C914 C913 1.379 . S
H915 C909 0.959 . S
H916 C909 0.961 . S
H917 C909 0.960 . S
H918 C910 0.930 . S
H919 C911 0.929 . S
H920 C928 0.929 . S
H921 C930 0.930 . S
H922 C932 0.930 . S
H923 C935 0.929 . S
H924 C938 0.930 . S
H925 C940 0.960 . S
H926 C940 0.960 . S
H927 C940 0.960 . S
C928 H920 0.929 . S
C928 C929 1.377 . S
C928 C930 1.384 . S
C929 C928 1.377 . S
C929 C935 1.390 . S
C930 H921 0.930 . S
C930 C928 1.384 . S
C930 C931 1.372 . S
C931 C930 1.372 . S
C931 C932 1.400 . S
C931 C936 1.490 . S
C932 H922 0.930 . S
C932 C931 1.400 . S
C932 C935 1.386 . S
H933 C949 0.930 . S
H934 C950 0.931 . S
C935 H923 0.929 . S
C935 C929 1.390 . S
C935 C932 1.386 . S
C936 C931 1.490 . S
C936 C938 1.395 . S
C936 C939 1.403 . S
H937 C943 0.930 . S
C938 H924 0.930 . S
C938 C936 1.395 . S
C938 C941 1.403 . S
C939 C936 1.403 . S
C939 C940 1.524 . S
C939 C943 1.400 . S
C940 H925 0.960 . S
C940 H926 0.960 . S
C940 H927 0.960 . S
C940 C939 1.524 . S
C941 C938 1.403 . S
C941 C942 1.392 . S
C941 C945 1.495 . S
C942 C941 1.392 . S
C942 C943 1.385 . S
C942 C944 1.478 . S
C943 H937 0.930 . S
C943 C939 1.400 . S
C943 C942 1.385 . S
C944 C942 1.478 . S
C944 C946 1.381 . S
C944 C950 1.383 . S
C945 C941 1.495 . S
C945 H951 0.959 . S
C945 H952 0.961 . S
C945 H953 0.960 . S
C946 C944 1.381 . S
C946 C947 1.394 . S
C946 H954 0.930 . S
C947 C946 1.394 . S
C947 C948 1.383 . S
C947 H955 0.929 . S
C948 C947 1.383 . S
C948 C949 1.377 . S
C949 H933 0.930 . S
C949 C948 1.377 . S
C949 C950 1.379 . S
C950 H934 0.931 . S
C950 C944 1.383 . S
C950 C949 1.379 . S
H951 C945 0.959 . S
H952 C945 0.961 . S
H953 C945 0.960 . S
H954 C946 0.930 . S
H955 C947 0.929 . S
H956 C964 0.929 . S
H957 C966 0.930 . S
H958 C968 0.930 . S
H959 C971 0.929 . S
H960 C974 0.930 . S
H961 C976 0.960 . S
H962 C976 0.960 . S
H963 C976 0.960 . S
C964 H956 0.929 . S
C964 C965 1.377 . S
C964 C966 1.384 . S
C965 C964 1.377 . S
C965 C971 1.390 . S
C966 H957 0.930 . S
C966 C964 1.384 . S
C966 C967 1.372 . S
C967 C966 1.372 . S
C967 C968 1.400 . S
C967 C972 1.479 1_554 S
C968 H958 0.930 . S
C968 C967 1.400 . S
C968 C971 1.386 . S
H969 C985 0.930 . S
H970 C986 0.931 . S
C971 H959 0.929 . S
C971 C965 1.390 . S
C971 C968 1.386 . S
C972 C967 1.479 1_556 S
C972 C974 1.410 . S
C972 C975 1.399 1_556 S
H973 C979 0.930 . S
C974 H960 0.930 . S
C974 C972 1.410 . S
C974 C977 1.403 . S
C975 C972 1.399 1_554 S
C975 C976 1.524 . S
C975 C979 1.400 1_554 S
C976 H961 0.960 . S
C976 H962 0.960 . S
C976 H963 0.960 . S
C976 C975 1.524 . S
C977 C974 1.403 . S
C977 C978 1.392 . S
C977 C981 1.495 . S
C978 C977 1.392 . S
C978 C979 1.385 . S
C978 C980 1.478 . S
C979 H973 0.930 . S
C979 C975 1.400 1_556 S
C979 C978 1.385 . S
C980 C978 1.478 . S
C980 C982 1.381 . S
C980 C986 1.383 . S
C981 C977 1.495 . S
C981 H987 0.959 . S
C981 H988 0.961 . S
C981 H989 0.960 . S
C982 C980 1.381 . S
C982 C983 1.394 . S
C982 H990 0.930 . S
C983 C982 1.394 . S
C983 C984 1.383 . S
C983 H991 0.929 . S
C984 C983 1.383 . S
C984 C985 1.377 . S
C985 H969 0.930 . S
C985 C984 1.377 . S
C985 C986 1.379 . S
C986 H970 0.931 . S
C986 C980 1.383 . S
C986 C985 1.379 . S
H987 C981 0.959 . S
H988 C981 0.961 . S
H989 C981 0.960 . S
H990 C982 0.930 . S
H991 C983 0.929 . S
H992 C1000 0.926 1_556 S
H993 C1002 0.930 . S
H994 C1004 0.930 . S
H995 C1007 0.929 . S
H996 C1010 0.930 . S
H997 C1012 0.960 . S
H998 C1012 0.960 . S
H999 C1012 0.960 . S
C1000 H992 0.926 1_554 S
C1000 C1001 1.378 . S
C1000 C1002 1.384 1_554 S
C1001 C1000 1.378 . S
C1001 C1007 1.390 1_545 S
C1002 H993 0.930 . S
C1002 C1000 1.384 1_556 S
C1002 C1003 1.397 . S
C1003 C1002 1.397 . S
C1003 C1004 1.375 1_546 S
C1003 C1008 1.490 . S
C1004 H994 0.930 . S
C1004 C1003 1.375 1_564 S
C1004 C1007 1.386 . S
H1005 C1021 0.930 . S
H1006 C1022 0.931 . S
C1007 H995 0.929 . S
C1007 C1001 1.390 1_565 S
C1007 C1004 1.386 . S
C1008 C1003 1.490 . S
C1008 C1010 1.395 . S
C1008 C1011 1.403 1_545 S
H1009 C1015 0.930 . S
C1010 H996 0.930 . S
C1010 C1008 1.395 . S
C1010 C1013 1.403 . S
C1011 C1008 1.403 1_565 S
C1011 C1012 1.524 . S
C1011 C1015 1.400 . S
C1012 H997 0.960 . S
C1012 H998 0.960 . S
C1012 H999 0.960 . S
C1012 C1011 1.524 . S
C1013 C1010 1.403 . S
C1013 C1014 1.392 . S
C1013 C1017 1.495 . S
C1014 C1013 1.392 . S
C1014 C1015 1.385 1_545 S
C1014 C1016 1.478 . S
C1015 H1009 0.930 . S
C1015 C1011 1.400 . S
C1015 C1014 1.385 1_565 S
C1016 C1014 1.478 . S
C1016 C1018 1.381 . S
C1016 C1022 1.383 1_545 S
C1017 C1013 1.495 . S
C1017 H1023 0.959 . S
C1017 H1024 0.961 . S
C1017 H1025 0.960 . S
C1018 C1016 1.381 . S
C1018 C1019 1.394 . S
C1018 H1026 0.930 . S
C1019 C1018 1.394 . S
C1019 C1020 1.383 . S
C1019 H1027 0.929 . S
C1020 C1019 1.383 . S
C1020 C1021 1.377 1_545 S
C1021 H1005 0.930 . S
C1021 C1020 1.377 1_565 S
C1021 C1022 1.379 . S
C1022 H1006 0.931 . S
C1022 C1016 1.383 1_565 S
C1022 C1021 1.379 . S
H1023 C1017 0.959 . S
H1024 C1017 0.961 . S
H1025 C1017 0.960 . S
H1026 C1018 0.930 . S
H1027 C1019 0.929 . S
H1028 C1036 0.929 . S
H1029 C1038 0.930 1_554 S
H1030 C1040 0.930 . S
H1031 C1043 0.929 . S
H1032 C1046 0.930 . S
H1033 C1048 0.960 . S
H1034 C1048 0.960 . S
H1035 C1048 0.960 . S
C1036 H1028 0.929 . S
C1036 C1037 1.377 . S
C1036 C1038 1.384 1_554 S
C1037 C1036 1.377 . S
C1037 C1043 1.390 1_554 S
C1038 H1029 0.930 1_556 S
C1038 C1036 1.384 1_556 S
C1038 C1039 1.372 . S
C1039 C1038 1.372 . S
C1039 C1040 1.400 . S
C1039 C1044 1.490 . S
C1040 H1030 0.930 . S
C1040 C1039 1.400 . S
C1040 C1043 1.386 . S
H1041 C1057 0.930 . S
H1042 C1058 0.931 . S
C1043 H1031 0.929 . S
C1043 C1037 1.390 1_556 S
C1043 C1040 1.386 . S
C1044 C1039 1.490 . S
C1044 C1046 1.395 . S
C1044 C1047 1.403 . S
H1045 C1051 0.930 . S
C1046 H1032 0.930 . S
C1046 C1044 1.395 . S
C1046 C1049 1.403 . S
C1047 C1044 1.403 . S
C1047 C1048 1.524 . S
C1047 C1051 1.400 . S
C1048 H1033 0.960 . S
C1048 H1034 0.960 . S
C1048 H1035 0.960 . S
C1048 C1047 1.524 . S
C1049 C1046 1.403 . S
C1049 C1050 1.392 . S
C1049 C1053 1.495 . S
C1050 C1049 1.392 . S
C1050 C1051 1.385 . S
C1050 C1052 1.478 . S
C1051 H1045 0.930 . S
C1051 C1047 1.400 . S
C1051 C1050 1.385 . S
C1052 C1050 1.478 . S
C1052 C1054 1.381 . S
C1052 C1058 1.383 . S
C1053 C1049 1.495 . S
C1053 H1059 0.959 . S
C1053 H1060 0.961 . S
C1053 H1061 0.960 . S
C1054 C1052 1.381 . S
C1054 C1055 1.394 . S
C1054 H1062 0.930 . S
C1055 C1054 1.394 . S
C1055 C1056 1.383 . S
C1055 H1063 0.929 . S
C1056 C1055 1.383 . S
C1056 C1057 1.377 . S
C1057 H1041 0.930 . S
C1057 C1056 1.377 . S
C1057 C1058 1.379 . S
C1058 H1042 0.931 . S
C1058 C1052 1.383 . S
C1058 C1057 1.379 . S
H1059 C1053 0.959 . S
H1060 C1053 0.961 . S
H1061 C1053 0.960 . S
H1062 C1054 0.930 . S
H1063 C1055 0.929 . S
H1064 C1072 0.929 . S
H1065 C1074 0.930 . S
H1066 C1076 0.930 . S
H1067 C1079 0.929 . S
H1068 C1082 0.930 . S
H1069 C1084 0.960 . S
H1070 C1084 0.960 . S
H1071 C1084 0.960 . S
C1072 H1064 0.929 . S
C1072 C1073 1.377 . S
C1072 C1074 1.384 . S
C1073 C1072 1.377 . S
C1073 C1079 1.390 1_554 S
C1074 H1065 0.930 . S
C1074 C1072 1.384 . S
C1074 C1075 1.372 1_554 S
C1075 C1074 1.372 1_556 S
C1075 C1076 1.400 . S
C1075 C1080 1.490 . S
C1076 H1066 0.930 . S
C1076 C1075 1.400 . S
C1076 C1079 1.386 . S
H1077 C1093 0.930 . S
H1078 C1094 0.931 . S
C1079 H1067 0.929 . S
C1079 C1073 1.390 1_556 S
C1079 C1076 1.386 . S
C1080 C1075 1.490 . S
C1080 C1082 1.395 . S
C1080 C1083 1.403 . S
H1081 C1087 0.930 . S
C1082 H1068 0.930 . S
C1082 C1080 1.395 . S
C1082 C1085 1.403 . S
C1083 C1080 1.403 . S
C1083 C1084 1.524 . S
C1083 C1087 1.400 . S
C1084 H1069 0.960 . S
C1084 H1070 0.960 . S
C1084 H1071 0.960 . S
C1084 C1083 1.524 . S
C1085 C1082 1.403 . S
C1085 C1086 1.392 . S
C1085 C1089 1.495 . S
C1086 C1085 1.392 . S
C1086 C1087 1.385 . S
C1086 C1088 1.478 . S
C1087 H1081 0.930 . S
C1087 C1083 1.400 . S
C1087 C1086 1.385 . S
C1088 C1086 1.478 . S
C1088 C1090 1.381 . S
C1088 C1094 1.383 . S
C1089 C1085 1.495 . S
C1089 H1095 0.959 . S
C1089 H1096 0.961 . S
C1089 H1097 0.960 . S
C1090 C1088 1.381 . S
C1090 C1091 1.394 . S
C1090 H1098 0.930 . S
C1091 C1090 1.394 . S
C1091 C1092 1.383 . S
C1091 H1099 0.929 . S
C1092 C1091 1.383 . S
C1092 C1093 1.377 . S
C1093 H1077 0.930 . S
C1093 C1092 1.377 . S
C1093 C1094 1.379 . S
C1094 H1078 0.931 . S
C1094 C1088 1.383 . S
C1094 C1093 1.379 . S
H1095 C1089 0.959 . S
H1096 C1089 0.961 . S
H1097 C1089 0.960 . S
H1098 C1090 0.930 . S
H1099 C1091 0.929 . S
H1100 C1108 0.929 . S
H1101 C1110 0.930 . S
H1102 C1112 0.930 . S
H1103 C1115 0.929 . S
H1104 C1118 0.930 . S
H1105 C1120 0.960 . S
H1106 C1120 0.960 1_655 S
H1107 C1120 0.960 . S
C1108 H1100 0.929 . S
C1108 C1109 1.377 . S
C1108 C1110 1.384 . S
C1109 C1108 1.377 . S
C1109 C1115 1.390 1_655 S
C1110 H1101 0.930 . S
C1110 C1108 1.384 . S
C1110 C1111 1.372 . S
C1111 C1110 1.372 . S
C1111 C1112 1.400 1_655 S
C1111 C1116 1.490 . S
C1112 H1102 0.930 . S
C1112 C1111 1.400 1_455 S
C1112 C1115 1.386 . S
H1113 C1129 0.930 . S
H1114 C1130 0.931 . S
C1115 H1103 0.929 . S
C1115 C1109 1.390 1_455 S
C1115 C1112 1.386 . S
C1116 C1111 1.490 . S
C1116 C1118 1.395 . S
C1116 C1119 1.403 1_655 S
H1117 C1123 0.930 . S
C1118 H1104 0.930 . S
C1118 C1116 1.395 . S
C1118 C1121 1.403 . S
C1119 C1116 1.403 1_455 S
C1119 C1120 1.524 . S
C1119 C1123 1.400 . S
C1120 H1105 0.960 . S
C1120 H1106 0.960 1_455 S
C1120 H1107 0.960 . S
C1120 C1119 1.524 . S
C1121 C1118 1.403 . S
C1121 C1122 1.392 . S
C1121 C1125 1.495 . S
C1122 C1121 1.392 . S
C1122 C1123 1.385 1_655 S
C1122 C1124 1.478 1_655 S
C1123 H1117 0.930 . S
C1123 C1119 1.400 . S
C1123 C1122 1.385 1_455 S
C1124 C1122 1.478 1_455 S
C1124 C1126 1.383 1_455 S
C1124 C1130 1.381 . S
C1125 C1121 1.495 . S
C1125 H1131 0.959 . S
C1125 H1132 0.961 . S
C1125 H1133 0.960 . S
C1126 C1124 1.383 1_655 S
C1126 C1127 1.394 . S
C1126 H1134 0.930 . S
C1127 C1126 1.394 . S
C1127 C1128 1.383 1_655 S
C1127 H1135 0.929 . S
C1128 C1127 1.383 1_455 S
C1128 C1129 1.377 . S
C1129 H1113 0.930 . S
C1129 C1128 1.377 . S
C1129 C1130 1.379 . S
C1130 H1114 0.931 . S
C1130 C1124 1.381 . S
C1130 C1129 1.379 . S
H1131 C1125 0.959 . S
H1132 C1125 0.961 . S
H1133 C1125 0.960 . S
H1134 C1126 0.930 . S
H1135 C1127 0.929 . S
H1136 C1144 0.929 . S
H1137 C1146 0.930 . S
H1138 C1148 0.930 . S
H1139 C1151 0.929 . S
H1140 C1154 0.930 . S
H1141 C1156 0.960 . S
H1142 C1156 0.960 . S
H1143 C1156 0.960 1_565 S
C1144 H1136 0.929 . S
C1144 C1145 1.344 1_545 S
C1144 C1146 1.384 . S
C1145 C1144 1.344 1_565 S
C1145 C1151 1.428 . S
C1146 H1137 0.930 . S
C1146 C1144 1.384 . S
C1146 C1147 1.372 1_545 S
C1147 C1146 1.372 1_565 S
C1147 C1148 1.400 . S
C1147 C1152 1.490 . S
C1148 H1138 0.930 . S
C1148 C1147 1.400 . S
C1148 C1151 1.386 . S
H1149 C1165 0.930 . S
H1150 C1166 0.931 . S
C1151 H1139 0.929 . S
C1151 C1145 1.428 . S
C1151 C1148 1.386 . S
C1152 C1147 1.490 . S
C1152 C1154 1.395 . S
C1152 C1155 1.403 . S
H1153 C1159 0.930 . S
C1154 H1140 0.930 . S
C1154 C1152 1.395 . S
C1154 C1157 1.403 . S
C1155 C1152 1.403 . S
C1155 C1156 1.524 1_565 S
C1155 C1159 1.400 . S
C1156 H1141 0.960 . S
C1156 H1142 0.960 . S
C1156 H1143 0.960 1_545 S
C1156 C1155 1.524 1_545 S
C1157 C1154 1.403 . S
C1157 C1158 1.392 . S
C1157 C1161 1.495 . S
C1158 C1157 1.392 . S
C1158 C1159 1.385 . S
C1158 C1160 1.478 . S
C1159 H1153 0.930 . S
C1159 C1155 1.400 . S
C1159 C1158 1.385 . S
C1160 C1158 1.478 . S
C1160 C1162 1.381 . S
C1160 C1166 1.383 . S
C1161 C1157 1.495 . S
C1161 H1167 0.959 . S
C1161 H1168 0.961 . S
C1161 H1169 0.960 . S
C1162 C1160 1.381 . S
C1162 C1163 1.394 . S
C1162 H1170 0.930 1_565 S
C1163 C1162 1.394 . S
C1163 C1164 1.383 . S
C1163 H1171 0.929 1_565 S
C1164 C1163 1.383 . S
C1164 C1165 1.377 . S
C1165 H1149 0.930 . S
C1165 C1164 1.377 . S
C1165 C1166 1.379 . S
C1166 H1150 0.931 . S
C1166 C1160 1.383 . S
C1166 C1165 1.379 . S
H1167 C1161 0.959 . S
H1168 C1161 0.961 . S
H1169 C1161 0.960 . S
H1170 C1162 0.930 1_545 S
H1171 C1163 0.929 1_545 S
H1172 C1180 0.929 . S
H1173 C1182 0.930 . S
H1174 C1184 0.930 . S
H1175 C1187 0.929 . S
H1176 C1190 0.930 . S
H1177 C1192 0.960 . S
H1178 C1192 0.960 . S
H1179 C1192 0.960 . S
C1180 H1172 0.929 . S
C1180 C1181 1.377 . S
C1180 C1182 1.384 . S
C1181 C1180 1.377 . S
C1181 C1187 1.390 . S
C1182 H1173 0.930 . S
C1182 C1180 1.384 . S
C1182 C1183 1.372 . S
C1183 C1182 1.372 . S
C1183 C1184 1.400 . S
C1183 C1188 1.490 . S
C1184 H1174 0.930 . S
C1184 C1183 1.400 . S
C1184 C1187 1.386 . S
H1185 C1201 0.930 . S
H1186 C1202 0.931 . S
C1187 H1175 0.929 . S
C1187 C1181 1.390 . S
C1187 C1184 1.386 . S
C1188 C1183 1.490 . S
C1188 C1190 1.395 . S
C1188 C1191 1.403 . S
H1189 C1195 0.930 . S
C1190 H1176 0.930 . S
C1190 C1188 1.395 . S
C1190 C1193 1.403 . S
C1191 C1188 1.403 . S
C1191 C1192 1.524 . S
C1191 C1195 1.400 . S
C1192 H1177 0.960 . S
C1192 H1178 0.960 . S
C1192 H1179 0.960 . S
C1192 C1191 1.524 . S
C1193 C1190 1.403 . S
C1193 C1194 1.392 . S
C1193 C1197 1.495 . S
C1194 C1193 1.392 . S
C1194 C1195 1.385 . S
C1194 C1196 1.478 . S
C1195 H1189 0.930 . S
C1195 C1191 1.400 . S
C1195 C1194 1.385 . S
C1196 C1194 1.478 . S
C1196 C1198 1.381 . S
C1196 C1202 1.383 . S
C1197 C1193 1.495 . S
C1197 H1203 0.959 . S
C1197 H1204 0.961 . S
C1197 H1205 0.960 . S
C1198 C1196 1.381 . S
C1198 C1199 1.394 . S
C1198 H1206 0.930 . S
C1199 C1198 1.394 . S
C1199 C1200 1.383 . S
C1199 H1207 0.929 . S
C1200 C1199 1.383 . S
C1200 C1201 1.377 . S
C1201 H1185 0.930 . S
C1201 C1200 1.377 . S
C1201 C1202 1.379 . S
C1202 H1186 0.931 . S
C1202 C1196 1.383 . S
C1202 C1201 1.379 . S
H1203 C1197 0.959 . S
H1204 C1197 0.961 . S
H1205 C1197 0.960 . S
H1206 C1198 0.930 . S
H1207 C1199 0.929 . S
H1208 C1216 0.929 . S
H1209 C1218 0.930 . S
H1210 C1220 0.930 . S
H1211 C1223 0.929 . S
H1212 C1226 0.930 . S
H1213 C1228 0.960 . S
H1214 C1228 0.960 . S
H1215 C1228 0.960 . S
C1216 H1208 0.929 . S
C1216 C1217 1.377 . S
C1216 C1218 1.384 . S
C1217 C1216 1.377 . S
C1217 C1223 1.390 . S
C1218 H1209 0.930 . S
C1218 C1216 1.384 . S
C1218 C1219 1.372 . S
C1219 C1218 1.372 . S
C1219 C1220 1.400 . S
C1219 C1224 1.490 . S
C1220 H1210 0.930 . S
C1220 C1219 1.400 . S
C1220 C1223 1.386 . S
H1221 C1237 0.930 . S
H1222 C1238 0.931 . S
C1223 H1211 0.929 . S
C1223 C1217 1.390 . S
C1223 C1220 1.386 . S
C1224 C1219 1.490 . S
C1224 C1226 1.395 . S
C1224 C1227 1.403 . S
H1225 C1231 0.930 . S
C1226 H1212 0.930 . S
C1226 C1224 1.395 . S
C1226 C1229 1.403 . S
C1227 C1224 1.403 . S
C1227 C1228 1.524 . S
C1227 C1231 1.400 . S
C1228 H1213 0.960 . S
C1228 H1214 0.960 . S
C1228 H1215 0.960 . S
C1228 C1227 1.524 . S
C1229 C1226 1.403 . S
C1229 C1230 1.392 . S
C1229 C1233 1.495 . S
C1230 C1229 1.392 . S
C1230 C1231 1.385 . S
C1230 C1232 1.478 . S
C1231 H1225 0.930 . S
C1231 C1227 1.400 . S
C1231 C1230 1.385 . S
C1232 C1230 1.478 . S
C1232 C1234 1.381 . S
C1232 C1238 1.383 . S
C1233 C1229 1.495 . S
C1233 H1239 0.959 . S
C1233 H1240 0.961 . S
C1233 H1241 0.960 . S
C1234 C1232 1.381 . S
C1234 C1235 1.394 . S
C1234 H1242 0.930 . S
C1235 C1234 1.394 . S
C1235 C1236 1.383 . S
C1235 H1243 0.929 . S
C1236 C1235 1.383 . S
C1236 C1237 1.377 . S
C1237 H1221 0.930 . S
C1237 C1236 1.377 . S
C1237 C1238 1.379 . S
C1238 H1222 0.931 . S
C1238 C1232 1.383 . S
C1238 C1237 1.379 . S
H1239 C1233 0.959 . S
H1240 C1233 0.961 . S
H1241 C1233 0.960 . S
H1242 C1234 0.930 . S
H1243 C1235 0.929 . S
C389 C241 1.545 1_565 S
C408 C304 1.549 . S
C444 C327 1.769 . S
C425 C277 1.769 . S
C480 C350 1.669 . S
C461 C169 1.639 . S
C516 C377 1.574 . S
C497 C205 1.645 . S
C552 C305 1.528 . S
C533 C97 1.510 . S
C569 C133 1.560 1_556 S
C588 C328 1.561 . S
C605 C25 1.371 . S
C624 C351 1.404 . S
C641 C61 1.611 . S
C660 C376 1.667 . S
C696 C306 0.449 . S
C677 C211 0.671 . S
C732 C329 0.730 . S
C713 C247 0.789 . S
C768 C352 0.457 . S
C749 C253 0.594 . S
C785 C175 0.600 . S
C804 C378 0.812 . S
C821 C67 0.498 . S
C840 C309 0.746 . S
C876 C332 0.839 . S
C857 C103 0.565 1_565 S
C912 C355 0.708 . S
C893 C109 0.403 . S
C929 C31 0.618 . S
C948 C375 0.561 . S
C965 C181 1.933 . S
C984 C307 1.901 . S
C1001 C217 1.803 . S
C1020 C330 1.804 . S
C1056 C353 1.844 . S
C1037 C283 1.767 . S
C1092 C374 1.499 . S
C1073 C145 1.429 . S
C1109 C37 1.864 . S
C1128 C308 1.818 . S
C1164 C331 1.721 . S
C1145 C73 1.742 1_565 S
C1200 C354 1.691 . S
C1181 C139 1.713 . S
C1217 C1 1.937 . S
C1236 C373 1.994 . S
