# Generated by pormake.
# Topology pts, (4,4)-cn, num edge types: 1
# Building blocks:
#     Node 0, Type 0, BuildingBlock: AZAVOO_clean_linker_0, # of connection points: 4
#     Node 1, Type 0, BuildingBlock: AZAVOO_clean_linker_0, # of connection points: 4
#     Node 2, Type 1, BuildingBlock: QUQFOY_clean_sbu_1, # of connection points: 4
#     Node 3, Type 1, BuildingBlock: QUQFOY_clean_sbu_1, # of connection points: 4
#     Edge 4, Type (0, 1), BuildingBlock: CIFDUS_clean_linker_0, # of connection points: 2
#     Edge 5, Type (0, 1), BuildingBlock: CIFDUS_clean_linker_0, # of connection points: 2
#     Edge 6, Type (0, 1), BuildingBlock: CIFDUS_clean_linker_0, # of connection points: 2
#     Edge 7, Type (0, 1), BuildingBlock: CIFDUS_clean_linker_0, # of connection points: 2
#     Edge 8, Type (0, 1), BuildingBlock: CIFDUS_clean_linker_0, # of connection points: 2
#     Edge 9, Type (0, 1), BuildingBlock: CIFDUS_clean_linker_0, # of connection points: 2
#     Edge 10, Type (0, 1), BuildingBlock: CIFDUS_clean_linker_0, # of connection points: 2
#     Edge 11, Type (0, 1), BuildingBlock: CIFDUS_clean_linker_0, # of connection points: 2
# Relax obj value: 0.203
# Max RMSD: 0.245
# Mean RMSD: 0.235
data_MOF--net-pts--node1-QUQFOY_clean_sbu_1--node2-AZAVOO_clean_linker_0--edge1-CIFDUS_clean_linker_0
_symmetry_space_group_name_H-M    P1
_symmetry_Int_Tables_number       1
_symmetry_cell_setting            triclinic
loop_
_symmetry_equiv_pos_as_xyz
'x, y, z'
_cell_length_a     22.379321
_cell_length_b     25.235214
_cell_length_c     44.072476
_cell_angle_alpha  91.005837
_cell_angle_beta   93.074018
_cell_angle_gamma 90.355611
loop_
_atom_site_label
_atom_site_type_symbol
_atom_site_fract_x
_atom_site_fract_y
_atom_site_fract_z
_atom_type_partial_charge
H0 H 0.33495 0.10923 0.81365 0.0
H1 H 0.93851 0.03314 0.0265 0.0
H2 H 0.40253 0.15881 0.98963 0.0
H3 H 0.30783 0.16079 0.95939 0.0
H4 H 0.32847 0.99456 0.9366 0.0
H5 H 0.41977 0.99255 0.96853 0.0
H6 H 0.46168 0.16004 0.93006 0.0
H7 H 0.40567 0.15485 0.88087 0.0
H8 H 0.45475 0.99012 0.87157 0.0
H9 H 0.51052 0.99588 0.92088 0.0
H10 H 0.59104 0.15762 0.92132 0.0
H11 H 0.6409 0.15124 0.87345 0.0
H12 H 0.70576 0.99576 0.89805 0.0
H13 H 0.6524 0.00133 0.94488 0.0
H14 H 0.68993 0.15856 0.97879 0.0
H15 H 0.79912 0.15672 0.98594 0.0
H16 H 0.78793 0.00053 0.0242 0.0
H17 H 0.67892 0.0026 0.01655 0.0
H18 H 0.64804 0.16031 0.04514 0.0
H19 H 0.71224 0.15363 0.09126 0.0
H20 H 0.6302 0.00268 0.10979 0.0
H21 H 0.56935 0.00812 0.06227 0.0
H22 H 0.50553 0.16376 0.05649 0.0
H23 H 0.44213 0.17004 0.09984 0.0
H24 H 0.36777 0.0151 0.07637 0.0
H25 H 0.43402 0.00801 0.0343 0.0
O26 O 0.35921 0.11091 0.83249 0.0
O27 O 0.38627 0.02652 0.82859 0.0
O28 O 0.89885 0.11477 0.00297 0.0
O29 O 0.89544 0.03473 0.02316 0.0
C30 C 0.48421 0.07971 0.98582 0.0
C31 C 0.51942 0.08037 0.96012 0.0
C32 C 0.58226 0.0816 0.96386 0.0
C33 C 0.61019 0.08235 0.99335 0.0
C34 C 0.57488 0.08375 0.01917 0.0
C35 C 0.51166 0.08261 0.01537 0.0
C36 C 0.41842 0.07582 0.98061 0.0
C37 C 0.38446 0.12222 0.97959 0.0
C38 C 0.33097 0.12342 0.96175 0.0
C39 C 0.31177 0.07848 0.94433 0.0
C40 C 0.34149 0.03016 0.94938 0.0
C41 C 0.39401 0.02877 0.96778 0.0
C42 C 0.48985 0.07828 0.92904 0.0
C43 C 0.46057 0.12299 0.91725 0.0
C44 C 0.42854 0.11987 0.88918 0.0
C45 C 0.4253 0.07194 0.8724 0.0
C46 C 0.45611 0.02757 0.88397 0.0
C47 C 0.48821 0.03078 0.91204 0.0
C48 C 0.61819 0.07996 0.93654 0.0
C49 C 0.61609 0.12224 0.91629 0.0
C50 C 0.64482 0.11856 0.889 0.0
C51 C 0.67706 0.0728 0.88171 0.0
C52 C 0.68022 0.03107 0.90253 0.0
C53 C 0.65067 0.03449 0.92958 0.0
C54 C 0.67655 0.08076 -0.00281 0.0
C55 C 0.71121 0.12388 0.98853 0.0
C56 C 0.77353 0.12277 0.99273 0.0
C57 C 0.80226 0.07849 0.0057 0.0
C58 C 0.76729 0.03526 0.01419 0.0
C59 C 0.70501 0.03635 0.00988 0.0
C60 C 0.60478 0.08433 0.05009 0.0
C61 C 0.64355 0.12608 0.05936 0.0
C62 C 0.67981 0.12237 0.08597 0.0
C63 C 0.67705 0.07724 0.1042 0.0
C64 C 0.63461 0.03739 0.09597 0.0
C65 C 0.59918 0.04071 0.06901 0.0
C66 C 0.47415 0.08557 0.04213 0.0
C67 C 0.47604 0.13095 0.06099 0.0
C68 C 0.43933 0.13464 0.08558 0.0
C69 C 0.39946 0.09321 0.09158 0.0
C70 C 0.39841 0.04748 0.07278 0.0
C71 C 0.4357 0.04358 0.04845 0.0
C72 C 0.38927 0.06823 0.84315 0.0
C73 C 0.86841 0.07729 0.01046 0.0
H74 H 0.04185 0.4451 0.30727 0.0
H75 H 0.04851 0.90784 0.55937 0.0
H76 H 0.99334 0.43882 0.47348 0.0
H77 H 0.01138 0.36244 0.44033 0.0
H78 H 0.20071 0.3975 0.44696 0.0
H79 H 0.18246 0.47322 0.48068 0.0
H80 H 0.97929 0.519 0.42798 0.0
H81 H 0.98726 0.48609 0.37576 0.0
H82 H 0.17624 0.52433 0.38142 0.0
H83 H 0.16752 0.55698 0.43365 0.0
H84 H 0.95937 0.63557 0.4421 0.0
H85 H 0.95008 0.70173 0.40187 0.0
H86 H 0.13865 0.73796 0.41536 0.0
H87 H 0.1477 0.67118 0.45505 0.0
H88 H 0.95319 0.66159 0.52562 0.0
H89 H 0.93338 0.75078 0.54515 0.0
H90 H 0.1137 0.79825 0.52676 0.0
H91 H 0.1332 0.70867 0.50784 0.0
H92 H 0.98301 0.57058 0.5719 0.0
H93 H 0.97278 0.62761 0.61641 0.0
H94 H 0.14186 0.70322 0.59868 0.0
H95 H 0.15443 0.64126 0.55766 0.0
H96 H 0.98358 0.46008 0.52969 0.0
H97 H 0.98699 0.38391 0.56321 0.0
H98 H 0.16517 0.42986 0.59657 0.0
H99 H 0.16166 0.50604 0.56241 0.0
O100 O 0.03932 0.45976 0.32761 0.0
O101 O 0.13604 0.48104 0.33147 0.0
O102 O 0.96259 0.84606 0.56035 0.0
O103 O 0.05465 0.87266 0.55106 0.0
C104 C 0.07442 0.51636 0.48946 0.0
C105 C 0.06894 0.55551 0.46696 0.0
C106 C 0.06006 0.60872 0.47533 0.0
C107 C 0.05772 0.62321 0.50621 0.0
C108 C 0.06565 0.58438 0.52897 0.0
C109 C 0.07172 0.53047 0.52052 0.0
C110 C 0.08665 0.46125 0.47962 0.0
C111 C 0.03899 0.4282 0.46922 0.0
C112 C 0.04934 0.38483 0.45013 0.0
C113 C 0.10735 0.37463 0.44092 0.0
C114 C 0.1556 0.40479 0.4537 0.0
C115 C 0.14532 0.44763 0.47315 0.0
C116 C 0.07281 0.54033 0.43445 0.0
C117 C 0.02218 0.52073 0.41773 0.0
C118 C 0.02694 0.50179 0.38798 0.0
C119 C 0.08245 0.50237 0.37445 0.0
C120 C 0.13284 0.52326 0.39115 0.0
C121 C 0.12799 0.54214 0.42091 0.0
C122 C 0.05401 0.64931 0.45161 0.0
C123 C -0.00151 0.65799 0.43635 0.0
C124 C 0.99334 0.69548 0.41341 0.0
C125 C 0.0436 0.72506 0.40575 0.0
C126 C 0.09911 0.71619 0.42117 0.0
C127 C 0.10435 0.67821 0.44375 0.0
C128 C 0.04434 0.67888 0.51496 0.0
C129 C 0.98807 0.69154 0.52547 0.0
C130 C 0.97697 0.74243 0.53673 0.0
C131 C 0.022 0.78167 0.53753 0.0
C132 C 0.07801 0.76904 0.5264 0.0
C133 C 0.08909 0.71805 0.51526 0.0
C134 C 0.06897 0.60247 0.56124 0.0
C135 C 0.01916 0.5976 0.57889 0.0
C136 C 0.01268 0.6318 0.60387 0.0
C137 C 0.05466 0.67302 0.61077 0.0
C138 C 0.10777 0.67304 0.59486 0.0
C139 C 0.11539 0.6372 0.57099 0.0
C140 C 0.07251 0.48829 0.54348 0.0
C141 C 0.02331 0.45379 0.54428 0.0
C142 C 0.02546 0.41019 0.56329 0.0
C143 C 0.07667 0.40056 0.58218 0.0
C144 C 0.12516 0.43637 0.58223 0.0
C145 C 0.1232 0.47985 0.56286 0.0
C146 C 0.08778 0.48058 0.34322 0.0
C147 C 0.01103 0.83533 0.55031 0.0
O148 O 0.97627 0.04258 0.229 0.0
Cd149 Cd 0.05723 0.02227 0.25001 0.0
Cd150 Cd 0.07008 0.128 0.25409 0.0
O151 O 0.98633 0.1295 0.23234 0.0
O152 O 0.048 0.94711 0.26222 0.0
O153 O 0.0662 0.01337 0.29507 0.0
C154 C 0.05694 0.96339 0.29001 0.0
C155 C 0.0838 0.17139 0.30091 0.0
C156 C 0.95584 0.08867 0.22395 0.0
C157 C 0.15991 0.06868 0.21853 0.0
O158 O 0.14225 0.11357 0.22791 0.0
O159 O 0.13253 0.02654 0.22521 0.0
O160 O 0.08488 0.19708 0.27587 0.0
O161 O 0.07556 0.12073 0.2993 0.0
O162 O 0.95546 0.12079 0.7575 0.0
Cd163 Cd 0.04189 0.11635 0.744 0.0
Cd164 Cd 0.01372 0.00927 0.74454 0.0
O165 O 0.92875 0.03718 0.74997 0.0
O166 O 0.06344 0.19237 0.73887 0.0
O167 O 0.06054 0.13411 0.70089 0.0
C168 C 0.06915 0.18235 0.71047 0.0
C169 C 0.02976 0.93879 0.71117 0.0
C170 C 0.91605 0.08437 0.75768 0.0
C171 C 0.10398 0.05047 0.79193 0.0
O172 O 0.06942 0.01242 0.7832 0.0
O173 O 0.10383 0.09354 0.77738 0.0
O174 O 0.00089 0.93224 0.73533 0.0
O175 O 0.04848 0.98585 0.70532 0.0
H176 H 0.36405 0.01622 0.12969 0.0
H177 H 0.34008 0.18192 0.10966 0.0
H178 H 0.26805 0.18979 0.14898 0.0
H179 H 0.20711 0.14864 0.18681 0.0
H180 H 0.22538 0.98158 0.20427 0.0
H181 H 0.30374 0.97519 0.16789 0.0
C182 C 0.34282 0.05401 0.13373 0.0
C183 C 0.35764 0.09834 0.1166 0.0
C184 C 0.3001 0.05801 0.15584 0.0
C185 C 0.33043 0.14724 0.12272 0.0
C186 C 0.28875 0.15173 0.14506 0.0
C187 C 0.22864 0.11092 0.18291 0.0
C188 C 0.21037 0.06566 0.19823 0.0
C189 C 0.27273 0.10726 0.1615 0.0
C190 C 0.23843 0.01701 0.19269 0.0
C191 C 0.28323 0.0133 0.17189 0.0
H192 H 0.11164 0.39557 0.64209 0.0
H193 H 0.0463 0.29899 0.56556 0.0
H194 H 0.04275 0.22154 0.59798 0.0
H195 H 0.05234 0.1825 0.64878 0.0
H196 H 0.11367 0.28036 0.72563 0.0
H197 H 0.12552 0.35561 0.69242 0.0
C198 C 0.09744 0.35738 0.63248 0.0
C199 C 0.07894 0.35305 0.60156 0.0
C200 C 0.09466 0.3132 0.65134 0.0
C201 C 0.06004 0.30343 0.58943 0.0
C202 C 0.05818 0.25911 0.60791 0.0
C203 C 0.06905 0.22011 0.65816 0.0
C204 C 0.08194 0.22583 0.68962 0.0
C205 C 0.07448 0.26368 0.63901 0.0
C206 C 0.10312 0.27495 0.70149 0.0
C207 C 0.10987 0.31808 0.68253 0.0
H208 H 0.72602 0.152 0.14413 0.0
H209 H 0.73135 0.98488 0.12135 0.0
H210 H 0.81349 0.97313 0.15887 0.0
H211 H 0.89036 0.01123 0.19423 0.0
H212 H 0.89154 0.17938 0.21412 0.0
H213 H 0.80103 0.18976 0.18127 0.0
C214 C 0.74512 0.11298 0.14731 0.0
C215 C 0.72229 0.06952 0.12973 0.0
C216 C 0.79413 0.10671 0.16816 0.0
C217 C 0.74698 0.01905 0.13477 0.0
C218 C 0.79461 0.0123 0.15603 0.0
C219 C 0.87056 0.05013 0.19169 0.0
C220 C 0.898 0.0945 0.20646 0.0
C221 C 0.81941 0.05601 0.1723 0.0
C222 C 0.87161 0.14458 0.20285 0.0
C223 C 0.81985 0.15057 0.18406 0.0
H224 H 0.13276 0.74422 0.64125 0.0
H225 H 0.94356 0.70794 0.62744 0.0
H226 H 0.92023 0.78434 0.65823 0.0
H227 H 0.95228 0.86465 0.6875 0.0
H228 H 0.13848 0.90988 0.69265 0.0
H229 H 0.16367 0.82843 0.66517 0.0
C230 C 0.08612 0.75294 0.64404 0.0
C231 C 0.04054 0.71863 0.63164 0.0
C232 C 0.07214 0.79966 0.65987 0.0
C233 C 0.98062 0.73135 0.63713 0.0
C234 C 0.96673 0.77608 0.65443 0.0
C235 C -0.00177 0.85668 0.68229 0.0
C236 C 0.04358 0.89279 0.69193 0.0
C237 C 0.01201 0.81079 0.66563 0.0
C238 C 0.10293 0.88262 0.68509 0.0
C239 C 0.1173 0.83595 0.66963 0.0
H240 H 0.23053 0.00535 0.9201 0.0
H241 H 0.2994 0.16318 0.90665 0.0
H242 H 0.24201 0.16792 0.85856 0.0
H243 H 0.17673 0.12609 0.81884 0.0
H244 H 0.11199 0.9665 0.83039 0.0
H245 H 0.16567 0.96301 0.87999 0.0
C246 C 0.23319 0.04081 0.90669 0.0
C247 C 0.26934 0.08381 0.91736 0.0
C248 C 0.20193 0.04262 0.87826 0.0
C249 C 0.27102 0.12977 0.89971 0.0
C250 C 0.23891 0.13231 0.8718 0.0
C251 C 0.17455 0.09035 0.83207 0.0
C252 C 0.14049 0.0466 0.82079 0.0
C253 C 0.20509 0.08867 0.86063 0.0
C254 C 0.1381 0.00073 0.83839 0.0
C255 C 0.16847 0.99879 0.86688 0.0
H256 H 0.06987 0.27223 0.43235 0.0
H257 H 0.16157 0.39938 0.38965 0.0
H258 H 0.16419 0.34705 0.34267 0.0
H259 H 0.13476 0.2675 0.31274 0.0
H260 H 0.04624 0.13844 0.35542 0.0
H261 H 0.04841 0.18878 0.40345 0.0
C262 C 0.09112 0.28793 0.41283 0.0
C263 C 0.11565 0.33934 0.41438 0.0
C264 C 0.09272 0.25746 0.38589 0.0
C265 C 0.14312 0.35955 0.38905 0.0
C266 C 0.14423 0.32984 0.36213 0.0
C267 C 0.11628 0.25029 0.33262 0.0
C268 C 0.08979 0.19969 0.33051 0.0
C269 C 0.11831 0.27913 0.36014 0.0
C270 C 0.0668 0.17746 0.35651 0.0
C271 C 0.06787 0.20625 0.38393 0.0
H272 H 0.73613 0.15147 0.85374 0.0
H273 H 0.68897 0.98551 0.84469 0.0
H274 H 0.75211 0.97637 0.80153 0.0
H275 H 0.83005 0.01289 0.77085 0.0
H276 H 0.87678 0.17895 0.78002 0.0
H277 H 0.80186 0.19105 0.81761 0.0
C278 C 0.73828 0.11355 0.84192 0.0
C279 C 0.70883 0.069 0.85298 0.0
C280 C 0.77439 0.10857 0.817 0.0
C281 C 0.71264 0.02015 0.83733 0.0
C282 C 0.74833 0.01494 0.81245 0.0
C283 C 0.82289 0.05206 0.78046 0.0
C284 C 0.85997 0.09465 0.77307 0.0
C285 C 0.7809 0.05851 0.80273 0.0
C286 C 0.84945 0.14524 0.78553 0.0
C287 C 0.8069 0.15217 0.80725 0.0
H288 H 0.08339 0.82669 0.40838 0.0
H289 H 0.99263 0.71148 0.34865 0.0
H290 H 0.98831 0.7754 0.30749 0.0
H291 H 0.01283 0.8631 0.28823 0.0
H292 H 0.10083 0.97944 0.34841 0.0
H293 H 0.10393 0.91595 0.38972 0.0
C294 C 0.06276 0.81572 0.38631 0.0
C295 C 0.03865 0.76456 0.38139 0.0
C296 C 0.06012 0.85272 0.3629 0.0
C297 C 0.01119 0.75083 0.35292 0.0
C298 C 0.00897 0.78722 0.32939 0.0
C299 C 0.03269 0.87455 0.31039 0.0
C300 C 0.05699 0.92568 0.31522 0.0
C301 C 0.03368 0.83812 0.33408 0.0
C302 C 0.08187 0.94024 0.34414 0.0
C303 C 0.08375 0.90396 0.36774 0.0
loop_
_geom_bond_atom_site_label_1
_geom_bond_atom_site_label_2
_geom_bond_distance
_geom_bond_site_symmetry_2
_ccdc_geom_bond_type
H0 O26 0.856 . S
H1 O29 0.854 . S
H2 C37 0.930 . S
H3 C38 0.930 . S
H4 C40 0.930 . S
H5 C41 0.930 . S
H6 C43 0.931 . S
H7 C44 0.930 . S
H8 C46 0.930 1_565 S
H9 C47 0.929 1_565 S
H10 C49 0.930 . S
H11 C50 0.931 . S
H12 C52 0.930 1_565 S
H13 C53 0.929 1_565 S
H14 C55 0.931 . S
H15 C56 0.930 . S
H16 C58 0.930 1_565 S
H17 C59 0.932 1_566 S
H18 C61 0.930 . S
H19 C62 0.929 . S
H20 C64 0.931 . S
H21 C65 0.930 . S
H22 C67 0.929 . S
H23 C68 0.931 . S
H24 C70 0.930 1_565 S
H25 C71 0.929 . S
O26 H0 0.856 . S
O26 C72 1.300 . S
O27 C72 1.209 . S
O28 C73 1.199 . S
O29 H1 0.854 . S
O29 C73 1.297 . S
C30 C31 1.404 . S
C30 C35 1.397 1_556 S
C30 C36 1.492 . S
C31 C30 1.404 . S
C31 C32 1.396 . S
C31 C42 1.492 . S
C32 C31 1.396 . S
C32 C33 1.374 1_556 S
C32 C48 1.509 . S
C33 C32 1.374 1_554 S
C33 C34 1.430 . S
C33 C54 1.491 . S
C34 C33 1.430 . S
C34 C35 1.388 . S
C34 C60 1.490 . S
C35 C30 1.397 1_554 S
C35 C34 1.388 . S
C35 C66 1.519 . S
C36 C30 1.492 . S
C36 C37 1.363 . S
C36 C41 1.390 . S
C37 H2 0.930 . S
C37 C36 1.363 . S
C37 C38 1.372 . S
C38 H3 0.930 . S
C38 C37 1.372 . S
C38 C39 1.383 . S
C39 C38 1.383 . S
C39 C40 1.395 . S
C40 H4 0.930 . S
C40 C39 1.395 . S
C40 C41 1.362 . S
C41 H5 0.930 . S
C41 C36 1.390 . S
C41 C40 1.362 . S
C42 C31 1.492 . S
C42 C43 1.377 . S
C42 C47 1.397 . S
C43 H6 0.931 . S
C43 C42 1.377 . S
C43 C44 1.376 . S
C44 H7 0.930 . S
C44 C43 1.376 . S
C44 C45 1.376 . S
C45 C44 1.376 . S
C45 C46 1.378 . S
C45 C72 1.486 . S
C46 H8 0.930 1_545 S
C46 C45 1.378 . S
C46 C47 1.376 . S
C47 H9 0.929 1_545 S
C47 C42 1.397 . S
C47 C46 1.376 . S
C48 C32 1.509 . S
C48 C49 1.391 . S
C48 C53 1.386 . S
C49 H10 0.930 . S
C49 C48 1.391 . S
C49 C50 1.375 . S
C50 H11 0.931 . S
C50 C49 1.375 . S
C50 C51 1.375 . S
C51 C50 1.375 . S
C51 C52 1.361 . S
C52 H12 0.930 1_545 S
C52 C51 1.361 . S
C52 C53 1.399 . S
C53 H13 0.929 1_545 S
C53 C48 1.386 . S
C53 C52 1.399 . S
C54 C33 1.491 . S
C54 C55 1.394 . S
C54 C59 1.360 . S
C55 H14 0.931 . S
C55 C54 1.394 . S
C55 C56 1.372 . S
C56 H15 0.930 . S
C56 C55 1.372 . S
C56 C57 1.397 . S
C57 C56 1.397 . S
C57 C58 1.390 . S
C57 C73 1.476 . S
C58 H16 0.930 1_545 S
C58 C57 1.390 . S
C58 C59 1.366 . S
C59 H17 0.932 1_544 S
C59 C54 1.360 . S
C59 C58 1.366 . S
C60 C34 1.490 . S
C60 C61 1.380 . S
C60 C65 1.386 . S
C61 H18 0.930 . S
C61 C60 1.380 . S
C61 C62 1.381 . S
C62 H19 0.929 . S
C62 C61 1.381 . S
C62 C63 1.371 . S
C63 C62 1.371 . S
C63 C64 1.380 . S
C64 H20 0.931 . S
C64 C63 1.380 . S
C64 C65 1.387 . S
C65 H21 0.930 . S
C65 C60 1.386 . S
C65 C64 1.387 . S
C66 C35 1.519 . S
C66 C67 1.377 . S
C66 C71 1.361 . S
C67 H22 0.929 . S
C67 C66 1.377 . S
C67 C68 1.386 . S
C68 H23 0.931 . S
C68 C67 1.386 . S
C68 C69 1.363 . S
C69 C68 1.363 . S
C69 C70 1.385 . S
C70 H24 0.930 1_545 S
C70 C69 1.385 . S
C70 C71 1.396 . S
C71 H25 0.929 . S
C71 C66 1.361 . S
C71 C70 1.396 . S
C72 O26 1.300 . S
C72 O27 1.209 . S
C72 C45 1.486 . S
C73 O28 1.199 . S
C73 O29 1.297 . S
C73 C57 1.476 . S
H74 O100 0.856 . S
H75 O103 0.854 . S
H76 C111 0.930 . S
H77 C112 0.930 . S
H78 C114 0.930 . S
H79 C115 0.930 . S
H80 C117 0.931 1_655 S
H81 C118 0.930 1_655 S
H82 C120 0.930 . S
H83 C121 0.929 . S
H84 C123 0.930 1_655 S
H85 C124 0.931 1_655 S
H86 C126 0.930 . S
H87 C127 0.929 . S
H88 C129 0.931 1_655 S
H89 C130 0.930 1_655 S
H90 C132 0.930 . S
H91 C133 0.932 . S
H92 C135 0.930 . S
H93 C136 0.929 . S
H94 C138 0.931 . S
H95 C139 0.930 . S
H96 C141 0.929 1_655 S
H97 C142 0.931 1_655 S
H98 C144 0.930 . S
H99 C145 0.929 . S
O100 H74 0.856 . S
O100 C146 1.300 . S
O101 C146 1.209 . S
O102 C147 1.199 . S
O103 H75 0.854 . S
O103 C147 1.297 . S
C104 C105 1.404 . S
C104 C109 1.397 . S
C104 C110 1.492 . S
C105 C104 1.404 . S
C105 C106 1.396 . S
C105 C116 1.492 . S
C106 C105 1.396 . S
C106 C107 1.397 . S
C106 C122 1.509 . S
C107 C106 1.397 . S
C107 C108 1.412 . S
C107 C128 1.485 . S
C108 C107 1.412 . S
C108 C109 1.388 . S
C108 C134 1.490 . S
C109 C104 1.397 . S
C109 C108 1.388 . S
C109 C140 1.519 . S
C110 C104 1.492 . S
C110 C111 1.363 1_455 S
C110 C115 1.390 . S
C111 H76 0.930 . S
C111 C110 1.363 1_655 S
C111 C112 1.372 . S
C112 H77 0.930 . S
C112 C111 1.372 . S
C112 C113 1.383 1_655 S
C113 C112 1.383 1_455 S
C113 C114 1.395 . S
C114 H78 0.930 . S
C114 C113 1.395 . S
C114 C115 1.362 . S
C115 H79 0.930 . S
C115 C110 1.390 . S
C115 C114 1.362 . S
C116 C105 1.492 . S
C116 C117 1.377 . S
C116 C121 1.397 . S
C117 H80 0.931 1_455 S
C117 C116 1.377 . S
C117 C118 1.376 . S
C118 H81 0.930 1_455 S
C118 C117 1.376 . S
C118 C119 1.376 . S
C119 C118 1.376 . S
C119 C120 1.378 . S
C119 C146 1.486 . S
C120 H82 0.930 . S
C120 C119 1.378 . S
C120 C121 1.376 . S
C121 H83 0.929 . S
C121 C116 1.397 . S
C121 C120 1.376 . S
C122 C106 1.509 . S
C122 C123 1.391 . S
C122 C127 1.386 . S
C123 H84 0.930 1_455 S
C123 C122 1.391 . S
C123 C124 1.375 . S
C124 H85 0.931 1_455 S
C124 C123 1.375 . S
C124 C125 1.375 . S
C125 C124 1.375 . S
C125 C126 1.361 . S
C126 H86 0.930 . S
C126 C125 1.361 . S
C126 C127 1.399 . S
C127 H87 0.929 . S
C127 C122 1.386 . S
C127 C126 1.399 . S
C128 C107 1.485 . S
C128 C129 1.394 . S
C128 C133 1.360 . S
C129 H88 0.931 1_455 S
C129 C128 1.394 . S
C129 C130 1.372 . S
C130 H89 0.930 1_455 S
C130 C129 1.372 . S
C130 C131 1.397 . S
C131 C130 1.397 . S
C131 C132 1.390 . S
C131 C147 1.476 . S
C132 H90 0.930 . S
C132 C131 1.390 . S
C132 C133 1.366 . S
C133 H91 0.932 . S
C133 C128 1.360 . S
C133 C132 1.366 . S
C134 C108 1.490 . S
C134 C135 1.380 1_455 S
C134 C139 1.386 . S
C135 H92 0.930 . S
C135 C134 1.380 1_655 S
C135 C136 1.381 . S
C136 H93 0.929 . S
C136 C135 1.381 . S
C136 C137 1.371 1_655 S
C137 C136 1.371 1_455 S
C137 C138 1.380 . S
C138 H94 0.931 . S
C138 C137 1.380 . S
C138 C139 1.387 . S
C139 H95 0.930 . S
C139 C134 1.386 . S
C139 C138 1.387 . S
C140 C109 1.519 . S
C140 C141 1.377 . S
C140 C145 1.361 . S
C141 H96 0.929 1_455 S
C141 C140 1.377 . S
C141 C142 1.386 . S
C142 H97 0.931 1_455 S
C142 C141 1.386 . S
C142 C143 1.363 . S
C143 C142 1.363 . S
C143 C144 1.385 . S
C144 H98 0.930 . S
C144 C143 1.385 . S
C144 C145 1.396 . S
C145 H99 0.929 . S
C145 C140 1.361 . S
C145 C144 1.396 . S
C146 O100 1.300 . S
C146 O101 1.209 . S
C146 C119 1.486 . S
C147 O102 1.199 . S
C147 O103 1.297 . S
C147 C131 1.476 . S
O148 Cd149 2.223 . S
O148 C156 1.315 1_455 S
Cd149 O148 2.223 . S
Cd149 O152 2.297 1_545 S
Cd149 O153 2.439 . S
Cd149 O159 2.240 . S
Cd150 O151 2.240 1_455 S
Cd150 O158 2.223 . S
Cd150 O160 2.297 . S
Cd150 O161 2.439 . S
O151 Cd150 2.240 1_655 S
O151 C156 1.279 . S
O152 Cd149 2.297 1_565 S
O152 C154 1.247 . S
O153 Cd149 2.439 . S
O153 C154 1.208 1_545 S
C154 O152 1.247 . S
C154 O153 1.208 1_565 S
C155 O160 1.247 . S
C155 O161 1.208 . S
C156 O148 1.315 1_655 S
C156 O151 1.279 . S
C157 O158 1.315 . S
C157 O159 1.279 . S
O158 Cd150 2.223 . S
O158 C157 1.315 . S
O159 Cd149 2.240 . S
O159 C157 1.279 . S
O160 Cd150 2.297 . S
O160 C155 1.247 . S
O161 Cd150 2.439 . S
O161 C155 1.208 . S
O162 Cd163 2.223 . S
O162 C170 1.315 1_455 S
Cd163 O162 2.223 . S
Cd163 O166 2.297 . S
Cd163 O167 2.439 . S
Cd163 O173 2.240 . S
Cd164 O165 2.240 1_465 S
Cd164 O172 2.223 . S
Cd164 O174 2.297 . S
Cd164 O175 2.439 . S
O165 Cd164 2.240 1_645 S
O165 C170 1.279 . S
O166 Cd163 2.297 . S
O166 C168 1.247 . S
O167 Cd163 2.439 . S
O167 C168 1.208 . S
C168 O166 1.247 . S
C168 O167 1.208 . S
C169 O174 1.247 . S
C169 O175 1.208 . S
C170 O162 1.315 1_655 S
C170 O165 1.279 . S
C171 O172 1.315 1_545 S
C171 O173 1.279 . S
O172 Cd164 2.223 . S
O172 C171 1.315 1_565 S
O173 Cd163 2.240 . S
O173 C171 1.279 . S
O174 Cd164 2.297 . S
O174 C169 1.247 . S
O175 Cd164 2.439 . S
O175 C169 1.208 . S
H176 C182 0.930 . S
H177 C185 0.930 . S
H178 C186 0.930 . S
H179 C187 0.930 . S
H180 C190 0.930 . S
H181 C191 0.930 . S
C182 H176 0.930 . S
C182 C183 1.355 . S
C182 C184 1.415 . S
C183 C182 1.355 . S
C183 C185 1.419 . S
C184 C182 1.415 . S
C184 C189 1.425 . S
C184 C191 1.409 . S
C185 H177 0.930 . S
C185 C183 1.419 . S
C185 C186 1.362 . S
C186 H178 0.930 . S
C186 C185 1.362 . S
C186 C189 1.409 . S
C187 H179 0.930 . S
C187 C188 1.355 . S
C187 C189 1.415 . S
C188 C187 1.355 . S
C188 C190 1.419 . S
C189 C184 1.425 . S
C189 C186 1.409 . S
C189 C187 1.415 . S
C190 H180 0.930 . S
C190 C188 1.419 . S
C190 C191 1.362 . S
C191 H181 0.930 . S
C191 C184 1.409 . S
C191 C190 1.362 . S
H192 C198 0.930 . S
H193 C201 0.930 . S
H194 C202 0.930 . S
H195 C203 0.930 . S
H196 C206 0.930 . S
H197 C207 0.930 . S
C198 H192 0.930 . S
C198 C199 1.355 . S
C198 C200 1.415 . S
C199 C198 1.355 . S
C199 C201 1.419 . S
C200 C198 1.415 . S
C200 C205 1.425 . S
C200 C207 1.409 1_455 S
C201 H193 0.930 . S
C201 C199 1.419 . S
C201 C202 1.362 . S
C202 H194 0.930 . S
C202 C201 1.362 . S
C202 C205 1.409 . S
C203 H195 0.930 . S
C203 C204 1.355 . S
C203 C205 1.415 . S
C204 C203 1.355 . S
C204 C206 1.419 1_455 S
C205 C200 1.425 . S
C205 C202 1.409 . S
C205 C203 1.415 . S
C206 H196 0.930 . S
C206 C204 1.419 1_655 S
C206 C207 1.362 . S
C207 H197 0.930 . S
C207 C200 1.409 1_655 S
C207 C206 1.362 . S
H208 C214 0.930 . S
H209 C217 0.930 . S
H210 C218 0.930 1_565 S
H211 C219 0.946 . S
H212 C222 0.930 . S
H213 C223 0.930 . S
C214 H208 0.930 . S
C214 C215 1.355 . S
C214 C216 1.415 . S
C215 C214 1.355 . S
C215 C217 1.419 . S
C216 C214 1.415 . S
C216 C221 1.425 . S
C216 C223 1.409 . S
C217 H209 0.930 . S
C217 C215 1.419 . S
C217 C218 1.362 . S
C218 H210 0.930 1_545 S
C218 C217 1.362 . S
C218 C221 1.409 . S
C219 H211 0.946 . S
C219 C220 1.355 . S
C219 C221 1.415 . S
C220 C219 1.355 . S
C220 C222 1.419 . S
C221 C216 1.425 . S
C221 C218 1.409 . S
C221 C219 1.415 . S
C222 H212 0.930 . S
C222 C220 1.419 . S
C222 C223 1.362 . S
C223 H213 0.930 . S
C223 C216 1.409 . S
C223 C222 1.362 . S
H224 C230 0.930 . S
H225 C233 0.930 . S
H226 C234 0.930 . S
H227 C235 0.930 1_655 S
H228 C238 0.930 . S
H229 C239 0.930 . S
C230 H224 0.930 . S
C230 C231 1.355 . S
C230 C232 1.415 . S
C231 C230 1.355 . S
C231 C233 1.419 1_455 S
C232 C230 1.415 . S
C232 C237 1.425 . S
C232 C239 1.409 . S
C233 H225 0.930 . S
C233 C231 1.419 1_655 S
C233 C234 1.362 . S
C234 H226 0.930 . S
C234 C233 1.362 . S
C234 C237 1.409 1_655 S
C235 H227 0.930 1_455 S
C235 C236 1.355 . S
C235 C237 1.415 . S
C236 C235 1.355 . S
C236 C238 1.419 . S
C237 C232 1.425 . S
C237 C234 1.409 1_455 S
C237 C235 1.415 . S
C238 H228 0.930 . S
C238 C236 1.419 . S
C238 C239 1.362 . S
C239 H229 0.930 . S
C239 C232 1.409 . S
C239 C238 1.362 . S
H240 C246 0.930 . S
H241 C249 0.930 . S
H242 C250 0.930 . S
H243 C251 0.930 . S
H244 C254 0.930 . S
H245 C255 0.930 . S
C246 H240 0.930 . S
C246 C247 1.355 . S
C246 C248 1.415 . S
C247 C246 1.355 . S
C247 C249 1.419 . S
C248 C246 1.415 . S
C248 C253 1.425 . S
C248 C255 1.409 . S
C249 H241 0.930 . S
C249 C247 1.419 . S
C249 C250 1.362 . S
C250 H242 0.930 . S
C250 C249 1.362 . S
C250 C253 1.409 . S
C251 H243 0.930 . S
C251 C252 1.355 . S
C251 C253 1.415 . S
C252 C251 1.355 . S
C252 C254 1.419 . S
C253 C248 1.425 . S
C253 C250 1.409 . S
C253 C251 1.415 . S
C254 H244 0.930 . S
C254 C252 1.419 . S
C254 C255 1.362 . S
C255 H245 0.930 . S
C255 C248 1.409 . S
C255 C254 1.362 . S
H256 C262 0.930 1_655 S
H257 C265 0.930 . S
H258 C266 0.930 . S
H259 C267 0.930 . S
H260 C270 0.930 1_655 S
H261 C271 0.930 . S
C262 H256 0.930 1_455 S
C262 C263 1.355 . S
C262 C264 1.415 . S
C263 C262 1.355 . S
C263 C265 1.419 . S
C264 C262 1.415 . S
C264 C269 1.425 . S
C264 C271 1.409 1_455 S
C265 H257 0.930 . S
C265 C263 1.419 . S
C265 C266 1.362 . S
C266 H258 0.930 . S
C266 C265 1.362 . S
C266 C269 1.409 . S
C267 H259 0.930 . S
C267 C268 1.355 . S
C267 C269 1.415 . S
C268 C267 1.355 . S
C268 C270 1.419 . S
C269 C264 1.425 . S
C269 C266 1.409 . S
C269 C267 1.415 . S
C270 H260 0.930 1_455 S
C270 C268 1.419 . S
C270 C271 1.362 1_455 S
C271 H261 0.930 . S
C271 C264 1.409 1_655 S
C271 C270 1.362 1_655 S
H272 C278 0.930 . S
H273 C281 0.930 . S
H274 C282 0.930 . S
H275 C283 0.930 . S
H276 C286 0.930 1_455 S
H277 C287 0.930 . S
C278 H272 0.930 . S
C278 C279 1.355 . S
C278 C280 1.415 . S
C279 C278 1.355 . S
C279 C281 1.419 . S
C280 C278 1.415 . S
C280 C285 1.425 . S
C280 C287 1.409 . S
C281 H273 0.930 . S
C281 C279 1.419 . S
C281 C282 1.362 . S
C282 H274 0.930 . S
C282 C281 1.362 . S
C282 C285 1.409 . S
C283 H275 0.930 . S
C283 C284 1.355 . S
C283 C285 1.415 . S
C284 C283 1.355 . S
C284 C286 1.419 . S
C285 C280 1.425 . S
C285 C282 1.409 . S
C285 C283 1.415 . S
C286 H276 0.930 1_655 S
C286 C284 1.419 . S
C286 C287 1.362 . S
C287 H277 0.930 . S
C287 C280 1.409 . S
C287 C286 1.362 . S
H288 C294 0.930 . S
H289 C297 0.930 1_655 S
H290 C298 0.930 . S
H291 C299 0.930 . S
H292 C302 0.930 . S
H293 C303 0.930 . S
C294 H288 0.930 . S
C294 C295 1.355 . S
C294 C296 1.415 . S
C295 C294 1.355 . S
C295 C297 1.419 . S
C296 C294 1.415 . S
C296 C301 1.425 . S
C296 C303 1.409 . S
C297 H289 0.930 1_455 S
C297 C295 1.419 . S
C297 C298 1.362 1_455 S
C298 H290 0.930 . S
C298 C297 1.362 1_655 S
C298 C301 1.409 1_655 S
C299 H291 0.930 . S
C299 C300 1.355 1_655 S
C299 C301 1.415 1_655 S
C300 C299 1.355 1_455 S
C300 C302 1.419 . S
C301 C296 1.425 . S
C301 C298 1.409 1_455 S
C301 C299 1.415 1_455 S
C302 H292 0.930 . S
C302 C300 1.419 . S
C302 C303 1.362 . S
C303 H293 0.930 . S
C303 C296 1.409 . S
C303 C302 1.362 . S
C188 C157 2.158 . S
C183 C69 2.151 . S
C204 C168 2.191 . S
C199 C143 2.270 . S
C220 C156 1.728 . S
C215 C63 1.540 . S
C236 C169 1.676 . S
C231 C137 1.622 . S
C252 C171 1.722 . S
C247 C39 1.542 . S
C268 C155 1.527 . S
C263 C113 1.503 . S
C284 C170 0.956 . S
C279 C51 0.945 . S
C295 C125 0.989 . S
C300 C154 0.929 . S
