# Generated by pormake.
# Topology ctn, (3,4)-cn, num edge types: 1
# Building blocks:
#     Node 0, Type 0, BuildingBlock: KAKCAD_clean_linker_0, # of connection points: 3
#     Node 1, Type 0, BuildingBlock: KAKCAD_clean_linker_0, # of connection points: 3
#     Node 2, Type 0, BuildingBlock: KAKCAD_clean_linker_0, # of connection points: 3
#     Node 3, Type 0, BuildingBlock: KAKCAD_clean_linker_0, # of connection points: 3
#     Node 4, Type 0, BuildingBlock: KAKCAD_clean_linker_0, # of connection points: 3
#     Node 5, Type 0, BuildingBlock: KAKCAD_clean_linker_0, # of connection points: 3
#     Node 6, Type 0, BuildingBlock: KAKCAD_clean_linker_0, # of connection points: 3
#     Node 7, Type 0, BuildingBlock: KAKCAD_clean_linker_0, # of connection points: 3
#     Node 8, Type 0, BuildingBlock: KAKCAD_clean_linker_0, # of connection points: 3
#     Node 9, Type 0, BuildingBlock: KAKCAD_clean_linker_0, # of connection points: 3
#     Node 10, Type 0, BuildingBlock: KAKCAD_clean_linker_0, # of connection points: 3
#     Node 11, Type 0, BuildingBlock: KAKCAD_clean_linker_0, # of connection points: 3
#     Node 12, Type 0, BuildingBlock: KAKCAD_clean_linker_0, # of connection points: 3
#     Node 13, Type 0, BuildingBlock: KAKCAD_clean_linker_0, # of connection points: 3
#     Node 14, Type 0, BuildingBlock: KAKCAD_clean_linker_0, # of connection points: 3
#     Node 15, Type 0, BuildingBlock: KAKCAD_clean_linker_0, # of connection points: 3
#     Node 16, Type 1, BuildingBlock: UXUYUI_clean_sbu_0, # of connection points: 4
#     Node 17, Type 1, BuildingBlock: UXUYUI_clean_sbu_0, # of connection points: 4
#     Node 18, Type 1, BuildingBlock: UXUYUI_clean_sbu_0, # of connection points: 4
#     Node 19, Type 1, BuildingBlock: UXUYUI_clean_sbu_0, # of connection points: 4
#     Node 20, Type 1, BuildingBlock: UXUYUI_clean_sbu_0, # of connection points: 4
#     Node 21, Type 1, BuildingBlock: UXUYUI_clean_sbu_0, # of connection points: 4
#     Node 22, Type 1, BuildingBlock: UXUYUI_clean_sbu_0, # of connection points: 4
#     Node 23, Type 1, BuildingBlock: UXUYUI_clean_sbu_0, # of connection points: 4
#     Node 24, Type 1, BuildingBlock: UXUYUI_clean_sbu_0, # of connection points: 4
#     Node 25, Type 1, BuildingBlock: UXUYUI_clean_sbu_0, # of connection points: 4
#     Node 26, Type 1, BuildingBlock: UXUYUI_clean_sbu_0, # of connection points: 4
#     Node 27, Type 1, BuildingBlock: UXUYUI_clean_sbu_0, # of connection points: 4
#     Edge 28, Type (0, 1), BuildingBlock: CIFDUS_clean_linker_0, # of connection points: 2
#     Edge 29, Type (0, 1), BuildingBlock: CIFDUS_clean_linker_0, # of connection points: 2
#     Edge 30, Type (0, 1), BuildingBlock: CIFDUS_clean_linker_0, # of connection points: 2
#     Edge 31, Type (0, 1), BuildingBlock: CIFDUS_clean_linker_0, # of connection points: 2
#     Edge 32, Type (0, 1), BuildingBlock: CIFDUS_clean_linker_0, # of connection points: 2
#     Edge 33, Type (0, 1), BuildingBlock: CIFDUS_clean_linker_0, # of connection points: 2
#     Edge 34, Type (0, 1), BuildingBlock: CIFDUS_clean_linker_0, # of connection points: 2
#     Edge 35, Type (0, 1), BuildingBlock: CIFDUS_clean_linker_0, # of connection points: 2
#     Edge 36, Type (0, 1), BuildingBlock: CIFDUS_clean_linker_0, # of connection points: 2
#     Edge 37, Type (0, 1), BuildingBlock: CIFDUS_clean_linker_0, # of connection points: 2
#     Edge 38, Type (0, 1), BuildingBlock: CIFDUS_clean_linker_0, # of connection points: 2
#     Edge 39, Type (0, 1), BuildingBlock: CIFDUS_clean_linker_0, # of connection points: 2
#     Edge 40, Type (0, 1), BuildingBlock: CIFDUS_clean_linker_0, # of connection points: 2
#     Edge 41, Type (0, 1), BuildingBlock: CIFDUS_clean_linker_0, # of connection points: 2
#     Edge 42, Type (0, 1), BuildingBlock: CIFDUS_clean_linker_0, # of connection points: 2
#     Edge 43, Type (0, 1), BuildingBlock: CIFDUS_clean_linker_0, # of connection points: 2
#     Edge 44, Type (0, 1), BuildingBlock: CIFDUS_clean_linker_0, # of connection points: 2
#     Edge 45, Type (0, 1), BuildingBlock: CIFDUS_clean_linker_0, # of connection points: 2
#     Edge 46, Type (0, 1), BuildingBlock: CIFDUS_clean_linker_0, # of connection points: 2
#     Edge 47, Type (0, 1), BuildingBlock: CIFDUS_clean_linker_0, # of connection points: 2
#     Edge 48, Type (0, 1), BuildingBlock: CIFDUS_clean_linker_0, # of connection points: 2
#     Edge 49, Type (0, 1), BuildingBlock: CIFDUS_clean_linker_0, # of connection points: 2
#     Edge 50, Type (0, 1), BuildingBlock: CIFDUS_clean_linker_0, # of connection points: 2
#     Edge 51, Type (0, 1), BuildingBlock: CIFDUS_clean_linker_0, # of connection points: 2
#     Edge 52, Type (0, 1), BuildingBlock: CIFDUS_clean_linker_0, # of connection points: 2
#     Edge 53, Type (0, 1), BuildingBlock: CIFDUS_clean_linker_0, # of connection points: 2
#     Edge 54, Type (0, 1), BuildingBlock: CIFDUS_clean_linker_0, # of connection points: 2
#     Edge 55, Type (0, 1), BuildingBlock: CIFDUS_clean_linker_0, # of connection points: 2
#     Edge 56, Type (0, 1), BuildingBlock: CIFDUS_clean_linker_0, # of connection points: 2
#     Edge 57, Type (0, 1), BuildingBlock: CIFDUS_clean_linker_0, # of connection points: 2
#     Edge 58, Type (0, 1), BuildingBlock: CIFDUS_clean_linker_0, # of connection points: 2
#     Edge 59, Type (0, 1), BuildingBlock: CIFDUS_clean_linker_0, # of connection points: 2
#     Edge 60, Type (0, 1), BuildingBlock: CIFDUS_clean_linker_0, # of connection points: 2
#     Edge 61, Type (0, 1), BuildingBlock: CIFDUS_clean_linker_0, # of connection points: 2
#     Edge 62, Type (0, 1), BuildingBlock: CIFDUS_clean_linker_0, # of connection points: 2
#     Edge 63, Type (0, 1), BuildingBlock: CIFDUS_clean_linker_0, # of connection points: 2
#     Edge 64, Type (0, 1), BuildingBlock: CIFDUS_clean_linker_0, # of connection points: 2
#     Edge 65, Type (0, 1), BuildingBlock: CIFDUS_clean_linker_0, # of connection points: 2
#     Edge 66, Type (0, 1), BuildingBlock: CIFDUS_clean_linker_0, # of connection points: 2
#     Edge 67, Type (0, 1), BuildingBlock: CIFDUS_clean_linker_0, # of connection points: 2
#     Edge 68, Type (0, 1), BuildingBlock: CIFDUS_clean_linker_0, # of connection points: 2
#     Edge 69, Type (0, 1), BuildingBlock: CIFDUS_clean_linker_0, # of connection points: 2
#     Edge 70, Type (0, 1), BuildingBlock: CIFDUS_clean_linker_0, # of connection points: 2
#     Edge 71, Type (0, 1), BuildingBlock: CIFDUS_clean_linker_0, # of connection points: 2
#     Edge 72, Type (0, 1), BuildingBlock: CIFDUS_clean_linker_0, # of connection points: 2
#     Edge 73, Type (0, 1), BuildingBlock: CIFDUS_clean_linker_0, # of connection points: 2
#     Edge 74, Type (0, 1), BuildingBlock: CIFDUS_clean_linker_0, # of connection points: 2
#     Edge 75, Type (0, 1), BuildingBlock: CIFDUS_clean_linker_0, # of connection points: 2
# Relax obj value: 0.000
# Max RMSD: 0.005
# Mean RMSD: 0.004
data_MOF--net-ctn--node1-UXUYUI_clean_sbu_0--node2-KAKCAD_clean_linker_0--edge1-CIFDUS_clean_linker_0
_symmetry_space_group_name_H-M    P1
_symmetry_Int_Tables_number       1
_symmetry_cell_setting            triclinic
loop_
_symmetry_equiv_pos_as_xyz
'x, y, z'
_cell_length_a     73.726187
_cell_length_b     73.651498
_cell_length_c     73.652155
_cell_angle_alpha  90.037388
_cell_angle_beta   90.357814
_cell_angle_gamma 90.174395
loop_
_atom_site_label
_atom_site_type_symbol
_atom_site_fract_x
_atom_site_fract_y
_atom_site_fract_z
_atom_type_partial_charge
C0 C 0.04175 0.09744 0.99593 0.0
C1 C 0.03722 0.11419 1.00383 0.0
C2 C 0.04415 0.08199 0.00669 0.0
C3 C 0.04207 0.0829 0.02564 0.0
C4 C 0.03751 0.09965 0.03355 0.0
C5 C 0.03512 0.1151 0.02278 0.0
C6 C 0.04468 0.06646 0.0371 0.0
C7 C 0.0589 0.05432 0.03354 0.0
C8 C 0.06148 0.03878 0.0443 0.0
C9 C 0.04957 0.03534 0.05872 0.0
C10 C 0.03521 0.04726 0.06244 0.0
C11 C 0.03292 0.06281 0.05162 0.0
C12 C 0.02235 0.04333 0.07739 0.0
C13 C 0.01486 0.02588 0.07939 0.0
C14 C 0.01719 0.05708 0.08953 0.0
C15 C 1.00477 0.05347 0.10336 0.0
C16 C 0.99709 0.03608 0.1052 0.0
C17 C 0.0767 0.02621 0.04046 0.0
C18 C 0.0801 0.02046 0.02262 0.0
C19 C 0.0881 0.02011 0.05453 0.0
C20 C 0.10277 0.00872 0.0508 0.0
C21 C 0.10627 1.003 0.03291 0.0
C22 C 0.09462 0.00891 0.01891 0.0
C23 C 1.00229 0.02232 0.09309 0.0
H24 H 0.04366 0.09629 0.9814 0.0
H25 H 0.04747 0.06927 1.00013 0.0
H26 H 0.03597 0.10088 0.04811 0.0
H27 H 0.03145 0.12774 0.0293 0.0
H28 H 0.0683 0.0572 0.02265 0.0
H29 H 0.02162 0.07181 0.0542 0.0
H30 H 0.05145 0.02334 0.06702 0.0
H31 H 0.01847 0.01505 0.07014 0.0
H32 H 0.02283 0.07063 0.08838 0.0
H33 H 1.00092 0.06438 0.11241 0.0
H34 H 0.07138 0.02475 0.01154 0.0
H35 H 0.08591 0.0245 0.06839 0.0
H36 H 0.99671 0.00875 0.09427 0.0
H37 H 0.09662 1.00451 0.00503 0.0
H38 H 0.11157 1.00472 0.0619 0.0
C39 C 0.34678 0.73883 0.25688 0.0
C40 C 0.35796 0.72396 0.261 0.0
C41 C 0.33148 0.7366 0.24574 0.0
C42 C 0.3269 0.7194 0.2388 0.0
C43 C 0.33793 0.70448 0.24317 0.0
C44 C 0.35338 0.70677 0.25404 0.0
C45 C 0.31083 0.71701 0.22679 0.0
C46 C 0.30823 0.72846 0.21177 0.0
C47 C 0.29343 0.7259 0.19991 0.0
C48 C 0.28103 0.71178 0.20342 0.0
C49 C 0.28324 0.70031 0.21855 0.0
C50 C 0.29828 0.70303 0.23011 0.0
C51 C 0.26988 0.68553 0.2223 0.0
C52 C 0.25123 0.68819 0.21917 0.0
C53 C 0.27563 0.66865 0.22914 0.0
C54 C 0.26309 0.65488 0.23285 0.0
C55 C 0.24444 0.65752 0.22967 0.0
C56 C 0.29112 0.73774 0.18367 0.0
C57 C 0.29419 0.75657 0.18485 0.0
C58 C 0.28601 0.73029 0.16681 0.0
C59 C 0.28407 0.74136 0.15151 0.0
C60 C 0.28718 0.76017 0.15267 0.0
C61 C 0.29222 0.76765 0.16955 0.0
C62 C 0.2387 0.67435 0.22272 0.0
H63 H 0.35006 0.75225 0.26199 0.0
H64 H 0.32315 0.74831 0.24264 0.0
H65 H 0.33476 0.6911 0.2379 0.0
H66 H 0.36172 0.69506 0.25711 0.0
H67 H 0.31812 0.739 0.20898 0.0
H68 H 0.30008 0.69454 0.24199 0.0
H69 H 0.26963 0.70972 0.19429 0.0
H70 H 0.24622 0.70106 0.21415 0.0
H71 H 0.28989 0.66598 0.23151 0.0
H72 H 0.26805 0.64222 0.23842 0.0
H73 H 0.29799 0.76278 0.19766 0.0
H74 H 0.28373 0.71582 0.16536 0.0
H75 H 0.22451 0.67685 0.21986 0.0
H76 H 0.29489 0.78206 0.17089 0.0
H77 H 0.27998 0.73517 0.13877 0.0
C78 C 0.98922 0.47934 0.11257 0.0
C79 C 0.00825 0.47946 0.11112 0.0
C80 C 0.97826 0.47646 0.09727 0.0
C81 C 0.98605 0.47346 0.08017 0.0
C82 C 1.00504 0.47327 0.07873 0.0
C83 C 0.01601 0.47631 0.094 0.0
C84 C 0.97443 0.47103 0.06378 0.0
C85 C 0.9597 0.48265 0.06062 0.0
C86 C 0.94899 0.48095 0.04487 0.0
C87 C 0.95324 0.46741 0.03212 0.0
C88 C 0.96776 0.45535 0.03515 0.0
C89 C 0.97822 0.45732 0.05111 0.0
C90 C 0.97197 0.44065 0.0218 0.0
C91 C 0.95806 0.4319 0.01193 0.0
C92 C 0.98998 0.43507 0.01895 0.0
C93 C 0.99391 0.42097 0.00691 0.0
C94 C 0.98002 0.41224 0.99699 0.0
C95 C 0.93343 0.49342 0.04182 0.0
C96 C 0.92166 0.49766 0.05615 0.0
C97 C 0.93039 0.50144 0.02476 0.0
C98 C 0.91609 0.51366 0.02217 0.0
C99 C 0.90446 0.51809 0.03659 0.0
C100 C 0.90735 0.5098 0.05356 0.0
C101 C 0.96204 0.41804 0.99959 0.0
H102 H 0.98275 0.48137 0.12557 0.0
H103 H 0.96366 0.47645 0.09884 0.0
H104 H 0.01143 0.47123 0.06568 0.0
H105 H 0.03058 0.47659 0.09227 0.0
H106 H 0.95689 0.49343 0.07022 0.0
H107 H 0.98916 0.44794 0.05398 0.0
H108 H 0.94514 0.46628 0.01985 0.0
H109 H 0.94399 0.43554 0.01386 0.0
H110 H 1.00116 0.44163 0.02597 0.0
H111 H 0.00791 0.4168 0.0056 0.0
H112 H 0.92345 0.49148 0.06938 0.0
H113 H 0.93934 0.49861 0.0135 0.0
H114 H 0.95094 0.41196 0.99203 0.0
H115 H 0.89846 0.5126 0.06486 0.0
H116 H 0.91441 0.51994 0.00899 0.0
C117 C 0.70471 0.75688 0.15519 0.0
C118 C 0.72188 0.74954 0.15144 0.0
C119 C 0.70234 0.76883 0.16973 0.0
C120 C 0.7171 0.77385 0.18083 0.0
C121 C 0.73435 0.76687 0.17687 0.0
C122 C 0.73671 0.75481 0.16239 0.0
C123 C 0.71435 0.78583 0.19684 0.0
C124 C 0.69962 0.78282 0.20847 0.0
C125 C 0.69699 0.79374 0.22385 0.0
C126 C 0.70939 0.80778 0.2276 0.0
C127 C 0.72408 0.81134 0.21597 0.0
C128 C 0.72644 0.80018 0.20062 0.0
C129 C 0.73673 0.82682 0.21979 0.0
C130 C 0.73033 0.84294 0.22782 0.0
C131 C 0.75531 0.82566 0.21554 0.0
C132 C 0.76708 0.84017 0.21923 0.0
C133 C 0.76064 0.856 0.22758 0.0
C134 C 0.68111 0.79064 0.23584 0.0
C135 C 0.66382 0.78741 0.22831 0.0
C136 C 0.68302 0.79116 0.25484 0.0
C137 C 0.66798 0.7886 0.26605 0.0
C138 C 0.65067 0.78556 0.25851 0.0
C139 C 0.64878 0.78494 0.23951 0.0
C140 C 0.74218 0.85725 0.23186 0.0
H141 H 0.69305 0.75345 0.14684 0.0
H142 H 0.68893 0.7742 0.17227 0.0
H143 H 0.74595 0.77034 0.1853 0.0
H144 H 0.75008 0.74927 0.16007 0.0
H145 H 0.69039 0.77163 0.20578 0.0
H146 H 0.7374 0.80289 0.19127 0.0
H147 H 0.70745 0.81605 0.23959 0.0
H148 H 0.7161 0.84465 0.23087 0.0
H149 H 0.76088 0.81344 0.20965 0.0
H150 H 0.78132 0.83887 0.21592 0.0
H151 H 0.66186 0.78709 0.21373 0.0
H152 H 0.69618 0.79346 0.26106 0.0
H153 H 0.73687 0.86943 0.23811 0.0
H154 H 0.63567 0.78243 0.23328 0.0
H155 H 0.66987 0.7893 0.28063 0.0
C156 C 0.98624 0.97807 0.42811 0.0
C157 C 0.99195 0.98226 0.41041 0.0
C158 C 0.99892 0.9747 0.44191 0.0
C159 C 0.01763 0.97546 0.43835 0.0
C160 C 0.02334 0.97977 0.42068 0.0
C161 C 0.01066 0.98313 0.40689 0.0
C162 C 0.03118 0.9716 0.45293 0.0
C163 C 0.02834 0.95733 0.46527 0.0
C164 C 0.04125 0.95335 0.4788 0.0
C165 C 0.05717 0.96383 0.47992 0.0
C166 C 0.0602 0.97835 0.4679 0.0
C167 C 0.0471 0.9821 0.45445 0.0
C168 C 0.0769 0.98973 0.46954 0.0
C169 C 0.08388 0.99452 0.48671 0.0
C170 C 0.08595 0.99598 0.45398 0.0
C171 C 0.10149 0.00682 0.45555 0.0
C172 C 0.10845 0.01164 0.47273 0.0
C173 C 0.03808 0.93831 0.49186 0.0
C174 C 0.02124 0.93647 0.50052 0.0
C175 C 0.05193 0.92587 0.49597 0.0
C176 C 0.04902 0.91192 0.5085 0.0
C177 C 0.03226 0.91022 0.51734 0.0
C178 C 0.01839 0.92264 0.51319 0.0
C179 C 0.09946 1.00528 0.48828 0.0
H180 H 0.97194 0.97713 0.43126 0.0
H181 H 0.99406 0.9716 0.4554 0.0
H182 H 0.03763 0.98029 0.4174 0.0
H183 H 0.01555 0.98652 0.39348 0.0
H184 H 0.01627 0.94896 0.46408 0.0
H185 H 0.04907 0.99352 0.4454 0.0
H186 H 0.06719 0.96071 0.49028 0.0
H187 H 0.07716 0.99016 0.49901 0.0
H188 H 0.0811 0.99239 0.44054 0.0
H189 H 0.10791 0.01163 0.44327 0.0
H190 H 0.01035 0.94593 0.49771 0.0
H191 H 0.065 0.92687 0.4894 0.0
H192 H 0.10454 0.0085 0.50174 0.0
H193 H 1.00528 0.92158 0.51967 0.0
H194 H 0.06 0.90263 0.51151 0.0
C195 C 0.16664 0.71223 0.75254 0.0
C196 C 0.16335 0.73017 0.74694 0.0
C197 C 0.18064 0.70839 0.76487 0.0
C198 C 0.19145 0.72245 0.77204 0.0
C199 C 0.18804 0.7404 0.76656 0.0
C200 C 0.17421 0.74421 0.75407 0.0
C201 C 0.20639 0.71849 0.78508 0.0
C202 C 0.21878 0.70449 0.78158 0.0
C203 C 0.2334 0.70119 0.79347 0.0
C204 C 0.23545 0.7121 0.80904 0.0
C205 C 0.22302 0.72603 0.81298 0.0
C206 C 0.2085 0.72903 0.80087 0.0
C207 C 0.22524 0.73745 0.82966 0.0
C208 C 0.23231 0.73005 0.84583 0.0
C209 C 0.22032 0.7559 0.82958 0.0
C210 C 0.22223 0.76656 0.8452 0.0
C211 C 0.22951 0.75921 0.86131 0.0
C212 C 0.24662 0.68643 0.78958 0.0
C213 C 0.24065 0.66949 0.78299 0.0
C214 C 0.2653 0.68911 0.79259 0.0
C215 C 0.27767 0.67517 0.78924 0.0
C216 C 0.2717 0.65819 0.78275 0.0
C217 C 0.25304 0.65556 0.77961 0.0
C218 C 0.23459 0.7408 0.86134 0.0
H219 H 0.15855 0.70113 0.74717 0.0
H220 H 0.1829 0.69444 0.76893 0.0
H221 H 0.19624 0.7515 0.77175 0.0
H222 H 0.17191 0.75818 0.75011 0.0
H223 H 0.21736 0.69655 0.76926 0.0
H224 H 0.19853 0.73937 0.80382 0.0
H225 H 0.2468 0.70971 0.81811 0.0
H226 H 0.23599 0.71586 0.84663 0.0
H227 H 0.21509 0.76227 0.81739 0.0
H228 H 0.21781 0.78054 0.84461 0.0
H229 H 0.22636 0.66691 0.78067 0.0
H230 H 0.27041 0.70204 0.79743 0.0
H231 H 0.24051 0.73463 0.87331 0.0
H232 H 0.24797 0.64274 0.77441 0.0
H233 H 0.29191 0.67764 0.79198 0.0
C234 C 0.97824 0.60975 0.4984 0.0
C235 C 0.97599 0.60708 0.51715 0.0
C236 C 0.97618 0.59527 0.48623 0.0
C237 C 0.97187 0.57777 0.49255 0.0
C238 C 0.96977 0.5751 0.51134 0.0
C239 C 0.97177 0.58958 0.52347 0.0
C240 C 0.96957 0.56231 0.47968 0.0
C241 C 0.98128 0.56022 0.46485 0.0
C242 C 0.97944 0.54539 0.45294 0.0
C243 C 0.96569 0.53249 0.45604 0.0
C244 C 0.95372 0.5344 0.47073 0.0
C245 C 0.95573 0.54944 0.48236 0.0
C246 C 0.93911 0.52077 0.47404 0.0
C247 C 0.92921 0.5131 0.45954 0.0
C248 C 0.93474 0.51554 0.49186 0.0
C249 C 0.9207 0.50321 0.49512 0.0
C250 C 0.9107 0.49562 0.48065 0.0
C251 C 0.99203 0.54336 0.43737 0.0
C252 C 0.99639 0.55838 0.42646 0.0
C253 C 0.99994 0.52649 0.43344 0.0
C254 C 0.01209 0.52472 0.41902 0.0
C255 C 0.01652 0.53976 0.40811 0.0
C256 C 0.00842 0.55659 0.41198 0.0
C257 C 0.9152 0.50066 0.4628 0.0
H258 H 0.98129 0.62312 0.49308 0.0
H259 H 0.97767 0.59786 0.47185 0.0
H260 H 0.9668 0.56175 0.51672 0.0
H261 H 0.97025 0.58699 0.53786 0.0
H262 H 0.99222 0.56986 0.46285 0.0
H263 H 0.94625 0.55134 0.49337 0.0
H264 H 0.96434 0.52095 0.447 0.0
H265 H 0.93206 0.51693 0.44566 0.0
H266 H 0.94223 0.52094 0.50336 0.0
H267 H 0.91752 0.49986 0.50905 0.0
H268 H 0.99031 0.5715 0.429 0.0
H269 H 0.99704 0.51471 0.44174 0.0
H270 H 0.90797 0.49493 0.4513 0.0
H271 H 0.01122 0.5684 0.40368 0.0
H272 H 0.01826 0.51161 0.41666 0.0
C273 C 0.80662 0.75601 0.84768 0.0
C274 C 0.78926 0.74948 0.85217 0.0
C275 C 0.80895 0.7681 0.83325 0.0
C276 C 0.79398 0.7741 0.82304 0.0
C277 C 0.77658 0.76786 0.82766 0.0
C278 C 0.77425 0.75563 0.842 0.0
C279 C 0.79659 0.78662 0.80744 0.0
C280 C 0.81044 0.78338 0.79485 0.0
C281 C 0.81321 0.79511 0.78006 0.0
C282 C 0.80179 0.81026 0.77798 0.0
C283 C 0.78782 0.81379 0.79044 0.0
C284 C 0.78532 0.80182 0.80511 0.0
C285 C 0.77599 0.83005 0.78821 0.0
C286 C 0.78327 0.84668 0.78224 0.0
C287 C 0.75734 0.82911 0.79201 0.0
C288 C 0.74627 0.84438 0.78992 0.0
C289 C 0.75353 0.86098 0.78385 0.0
C290 C 0.82801 0.79152 0.76683 0.0
C291 C 0.84496 0.78504 0.7728 0.0
C292 C 0.82533 0.79447 0.74814 0.0
C293 C 0.83923 0.79106 0.73576 0.0
C294 C 0.85615 0.78451 0.74173 0.0
C295 C 0.85882 0.78153 0.76042 0.0
C296 C 0.77218 0.8619 0.78002 0.0
H297 H 0.81846 0.75191 0.85541 0.0
H298 H 0.8225 0.77289 0.83018 0.0
H299 H 0.7648 0.77211 0.81991 0.0
H300 H 0.76072 0.75071 0.84486 0.0
H301 H 0.81882 0.77141 0.79636 0.0
H302 H 0.77493 0.80458 0.81507 0.0
H303 H 0.80382 0.81936 0.76663 0.0
H304 H 0.7976 0.84803 0.77943 0.0
H305 H 0.7512 0.81651 0.79645 0.0
H306 H 0.73203 0.84318 0.79324 0.0
H307 H 0.84761 0.78281 0.78711 0.0
H308 H 0.8124 0.79924 0.743 0.0
H309 H 0.77825 0.87435 0.77512 0.0
H310 H 0.87156 0.77627 0.76552 0.0
H311 H 0.83673 0.79373 0.72151 0.0
C312 C 0.30627 0.25028 0.34791 0.0
C313 C 0.28902 0.24409 0.35312 0.0
C314 C 0.30815 0.26265 0.33365 0.0
C315 C 0.29283 0.26902 0.32413 0.0
C316 C 0.27557 0.26281 0.32938 0.0
C317 C 0.27369 0.25055 0.34375 0.0
C318 C 0.29488 0.28199 0.30873 0.0
C319 C 0.30942 0.2803 0.29655 0.0
C320 C 0.31145 0.29241 0.28197 0.0
C321 C 0.29877 0.30641 0.27961 0.0
C322 C 0.28413 0.30834 0.29157 0.0
C323 C 0.28228 0.29608 0.30606 0.0
C324 C 0.27074 0.32312 0.28884 0.0
C325 C 0.27656 0.34098 0.28543 0.0
C326 C 0.25204 0.31942 0.28935 0.0
C327 C 0.23942 0.33324 0.28626 0.0
C328 C 0.24525 0.3511 0.28283 0.0
C329 C 0.32672 0.29031 0.26906 0.0
C330 C 0.34443 0.28718 0.27544 0.0
C331 C 0.32367 0.29145 0.25024 0.0
C332 C 0.33801 0.28949 0.23808 0.0
C333 C 0.3558 0.2865 0.24442 0.0
C334 C 0.35882 0.28537 0.26328 0.0
C335 C 0.26395 0.35485 0.28257 0.0
H336 H 0.31832 0.24574 0.35504 0.0
H337 H 0.32162 0.26737 0.33023 0.0
H338 H 0.26349 0.26717 0.3222 0.0
H339 H 0.26024 0.24586 0.34732 0.0
H340 H 0.31893 0.26921 0.2981 0.0
H341 H 0.27122 0.29783 0.31552 0.0
H342 H 0.30024 0.31581 0.2684 0.0
H343 H 0.2909 0.34424 0.28509 0.0
H344 H 0.24717 0.30576 0.29183 0.0
H345 H 0.22509 0.32999 0.28666 0.0
H346 H 0.34723 0.28644 0.28988 0.0
H347 H 0.31012 0.29358 0.24491 0.0
H348 H 0.26883 0.36845 0.27984 0.0
H349 H 0.37235 0.28338 0.26869 0.0
H350 H 0.33509 0.2901 0.22366 0.0
C351 C 0.49414 0.97475 0.60993 0.0
C352 C 0.51261 0.97098 0.60728 0.0
C353 C 0.48158 0.97229 0.59581 0.0
C354 C 0.48722 0.96615 0.57865 0.0
C355 C 0.50577 0.96266 0.57597 0.0
C356 C 0.51829 0.96497 0.59013 0.0
C357 C 0.47379 0.96312 0.5637 0.0
C358 C 0.45907 0.975 0.56123 0.0
C359 C 0.44617 0.97204 0.54737 0.0
C360 C 0.44827 0.95704 0.53574 0.0
C361 C 0.46295 0.94506 0.53787 0.0
C362 C 0.47555 0.94818 0.55194 0.0
C363 C 0.46509 0.92921 0.5255 0.0
C364 C 0.45003 0.91861 0.52033 0.0
C365 C 0.48229 0.9245 0.51885 0.0
C366 C 0.48438 0.90953 0.50737 0.0
C367 C 0.46933 0.89888 0.50226 0.0
C368 C 0.43044 0.98453 0.54515 0.0
C369 C 0.42121 0.99119 0.56041 0.0
C370 C 0.4244 0.98975 0.52777 0.0
C371 C 0.40946 1.00125 0.52571 0.0
C372 C 0.40018 0.00784 0.54098 0.0
C373 C 0.4063 1.0027 0.55836 0.0
C374 C 0.45212 0.90362 0.50887 0.0
H375 H 0.48932 0.97919 0.62306 0.0
H376 H 0.46739 0.97485 0.59848 0.0
H377 H 0.51068 0.95825 0.56286 0.0
H378 H 0.53247 0.96222 0.58759 0.0
H379 H 0.45785 0.98682 0.56989 0.0
H380 H 0.48651 0.93862 0.55403 0.0
H381 H 0.43843 0.95464 0.52502 0.0
H382 H 0.43662 0.92175 0.52535 0.0
H383 H 0.49416 0.93248 0.52241 0.0
H384 H 0.49786 0.90617 0.50269 0.0
H385 H 0.42536 0.9873 0.57399 0.0
H386 H 0.4313 0.98505 0.51572 0.0
H387 H 0.44022 0.89581 0.50507 0.0
H388 H 0.39963 0.00769 0.57043 0.0
H389 H 0.40503 1.00477 0.51212 0.0
C390 C 0.20445 0.2504 0.6602 0.0
C391 C 0.22189 0.2453 0.65466 0.0
C392 C 0.20217 0.26288 0.67432 0.0
C393 C 0.2173 0.27037 0.68341 0.0
C394 C 0.23477 0.26521 0.67778 0.0
C395 C 0.23703 0.25292 0.6635 0.0
C396 C 0.21493 0.28325 0.69887 0.0
C397 C 0.20058 0.28101 0.71116 0.0
C398 C 0.19848 0.29284 0.72595 0.0
C399 C 0.21118 0.30684 0.72871 0.0
C400 C 0.22551 0.3096 0.71645 0.0
C401 C 0.22709 0.2978 0.70148 0.0
C402 C 0.23865 0.32489 0.71907 0.0
C403 C 0.23301 0.34161 0.72642 0.0
C404 C 0.25696 0.323 0.71403 0.0
C405 C 0.26912 0.33749 0.71589 0.0
C406 C 0.2634 0.35408 0.72321 0.0
C407 C 0.1827 0.29086 0.73822 0.0
C408 C 0.16512 0.28903 0.73094 0.0
C409 C 0.18498 0.29118 0.75717 0.0
C410 C 0.16996 0.2897 0.76862 0.0
C411 C 0.15236 0.28815 0.76131 0.0
C412 C 0.15011 0.2878 0.74236 0.0
C413 C 0.2453 0.35597 0.72864 0.0
H414 H 0.19254 0.24488 0.65347 0.0
H415 H 0.18852 0.26676 0.67798 0.0
H416 H 0.24675 0.27038 0.68463 0.0
H417 H 0.25063 0.24907 0.65962 0.0
H418 H 0.19115 0.2698 0.70951 0.0
H419 H 0.23759 0.30018 0.69155 0.0
H420 H 0.20971 0.3157 0.74034 0.0
H421 H 0.21901 0.34381 0.73015 0.0
H422 H 0.26199 0.31028 0.70872 0.0
H423 H 0.28309 0.33568 0.71178 0.0
H424 H 0.16296 0.28888 0.71637 0.0
H425 H 0.19838 0.29249 0.76314 0.0
H426 H 0.24056 0.36872 0.73418 0.0
H427 H 0.13671 0.28648 0.73636 0.0
H428 H 0.17206 0.29009 0.78318 0.0
C429 C 0.84668 0.24392 0.75414 0.0
C430 C 0.85771 0.23 0.76113 0.0
C431 C 0.83186 0.23984 0.74292 0.0
C432 C 0.82775 0.22174 0.7383 0.0
C433 C 0.8387 0.20782 0.74544 0.0
C434 C 0.85347 0.2119 0.75676 0.0
C435 C 0.81226 0.21746 0.72589 0.0
C436 C 0.80863 0.22853 0.71076 0.0
C437 C 0.79411 0.22465 0.69891 0.0
C438 C 0.78328 0.20927 0.70222 0.0
C439 C 0.78667 0.19794 0.71724 0.0
C440 C 0.80114 0.20225 0.72905 0.0
C441 C 0.77515 0.1816 0.72056 0.0
C442 C 0.75633 0.18207 0.71733 0.0
C443 C 0.78292 0.16532 0.72682 0.0
C444 C 0.77217 0.14993 0.72972 0.0
C445 C 0.75337 0.15035 0.72634 0.0
C446 C 0.79028 0.23667 0.68308 0.0
C447 C 0.79156 0.25566 0.68481 0.0
C448 C 0.78522 0.2293 0.66616 0.0
C449 C 0.78144 0.24062 0.65139 0.0
C450 C 0.78269 0.2596 0.65314 0.0
C451 C 0.78784 0.26698 0.67001 0.0
C452 C 0.7456 0.16664 0.72011 0.0
H453 H 0.84943 0.25799 0.75749 0.0
H454 H 0.82354 0.25089 0.73797 0.0
H455 H 0.8361 0.19375 0.74197 0.0
H456 H 0.86183 0.20089 0.76175 0.0
H457 H 0.81742 0.23998 0.70792 0.0
H458 H 0.80351 0.19396 0.74097 0.0
H459 H 0.77217 0.2061 0.69306 0.0
H460 H 0.74981 0.19441 0.71275 0.0
H461 H 0.79738 0.16436 0.72926 0.0
H462 H 0.77861 0.13772 0.73474 0.0
H463 H 0.79514 0.26182 0.6977 0.0
H464 H 0.7844 0.21474 0.66425 0.0
H465 H 0.73123 0.16745 0.71713 0.0
H466 H 0.78868 0.28154 0.67189 0.0
H467 H 0.77776 0.2345 0.6385 0.0
C468 C 0.53978 0.59184 0.49682 0.0
C469 C 0.53463 0.60876 0.50401 0.0
C470 C 0.54404 0.57732 0.50834 0.0
C471 C 0.54322 0.57939 0.5273 0.0
C472 C 0.53832 0.59637 0.53446 0.0
C473 C 0.53409 0.61086 0.52297 0.0
C474 C 0.54722 0.5639 0.53966 0.0
C475 C 0.56199 0.55232 0.53643 0.0
C476 C 0.56613 0.53814 0.54854 0.0
C477 C 0.55517 0.53545 0.56387 0.0
C478 C 0.5402 0.54672 0.56719 0.0
C479 C 0.53635 0.56088 0.55499 0.0
C480 C 0.52859 0.54385 0.58341 0.0
C481 C 0.5234 0.52626 0.58874 0.0
C482 C 0.52241 0.55875 0.59357 0.0
C483 C 0.51121 0.55614 0.60859 0.0
C484 C 0.5059 0.53858 0.61385 0.0
C485 C 0.58217 0.52638 0.54542 0.0
C486 C 0.58541 0.51881 0.52822 0.0
C487 C 0.59436 0.52267 0.55968 0.0
C488 C 0.60953 0.51171 0.55678 0.0
C489 C 0.61273 0.50404 0.53963 0.0
C490 C 0.60047 0.50764 0.52539 0.0
C491 C 0.51216 0.52366 0.60377 0.0
H492 H 0.54015 0.58969 0.48228 0.0
H493 H 0.5476 0.56437 0.50239 0.0
H494 H 0.5379 0.59853 0.549 0.0
H495 H 0.53055 0.62378 0.52898 0.0
H496 H 0.57065 0.55472 0.52484 0.0
H497 H 0.52462 0.56939 0.55725 0.0
H498 H 0.55837 0.52459 0.57327 0.0
H499 H 0.52779 0.5145 0.58112 0.0
H500 H 0.52631 0.57246 0.58997 0.0
H501 H 0.50649 0.56795 0.61594 0.0
H502 H 0.57618 0.52136 0.51702 0.0
H503 H 0.59229 0.52844 0.57304 0.0
H504 H 0.50848 0.50993 0.60756 0.0
H505 H 0.60265 0.50201 0.51199 0.0
H506 H 0.61867 0.50907 0.56804 0.0
C507 C 0.48944 0.47331 0.92816 0.0
C508 C 0.49538 0.4797 0.91121 0.0
C509 C 0.50185 0.46999 0.9422 0.0
C510 C 0.52051 0.473 0.93966 0.0
C511 C 0.52645 0.47939 0.92271 0.0
C512 C 0.51404 0.48269 0.90866 0.0
C513 C 0.5337 0.4696 0.95467 0.0
C514 C 0.53188 0.45425 0.96587 0.0
C515 C 0.54415 0.45101 0.98019 0.0
C516 C 0.55835 0.46345 0.98332 0.0
C517 C 0.56044 0.47882 0.97223 0.0
C518 C 0.54811 0.48175 0.95791 0.0
C519 C 0.57538 0.49197 0.9757 0.0
C520 C 0.57869 0.49859 0.99331 0.0
C521 C 0.58627 0.49817 0.96137 0.0
C522 C 0.60023 0.5107 0.9646 0.0
C523 C 0.6034 0.51749 0.98218 0.0
C524 C 0.54222 0.43457 0.99177 0.0
C525 C 0.52506 0.42898 0.9979 0.0
C526 C 0.5575 0.42424 0.99666 0.0
C527 C 0.55565 0.40866 0.00735 0.0
C528 C 0.53849 0.40307 0.01348 0.0
C529 C 0.52322 0.41345 0.00866 0.0
C530 C 0.59248 0.51131 0.9965 0.0
H531 H 0.47519 0.47068 0.93054 0.0
H532 H 0.49679 0.46526 0.95514 0.0
H533 H 0.54073 0.48169 0.92022 0.0
H534 H 0.51907 0.48778 0.89585 0.0
H535 H 0.52113 0.44453 0.96314 0.0
H536 H 0.54946 0.49382 0.94962 0.0
H537 H 0.56781 0.46117 0.9944 0.0
H538 H 0.57042 0.49414 1.00458 0.0
H539 H 0.58408 0.49321 0.94768 0.0
H540 H 0.60836 0.5153 0.95329 0.0
H541 H 0.51304 0.43672 0.9945 0.0
H542 H 0.57088 0.42807 0.99202 0.0
H543 H 0.5947 0.51623 0.0102 0.0
H544 H 0.50979 0.40943 0.01302 0.0
H545 H 0.5677 0.40107 0.01096 0.0
C546 C 0.6645 0.21323 0.25304 0.0
C547 C 0.66081 0.23092 0.24684 0.0
C548 C 0.67943 0.20987 0.26438 0.0
C549 C 0.69093 0.22414 0.26986 0.0
C550 C 0.68748 0.24173 0.26334 0.0
C551 C 0.67264 0.24507 0.25195 0.0
C552 C 0.7061 0.22089 0.28286 0.0
C553 C 0.71762 0.20585 0.28088 0.0
C554 C 0.73199 0.20281 0.29321 0.0
C555 C 0.73449 0.21495 0.30781 0.0
C556 C 0.72319 0.23012 0.30987 0.0
C557 C 0.70906 0.23296 0.29735 0.0
C558 C 0.7261 0.24318 0.32499 0.0
C559 C 0.7284 0.23708 0.34291 0.0
C560 C 0.72615 0.26194 0.32157 0.0
C561 C 0.72825 0.27436 0.33578 0.0
C562 C 0.73013 0.26834 0.35383 0.0
C563 C 0.74471 0.18734 0.29051 0.0
C564 C 0.73835 0.17033 0.28448 0.0
C565 C 0.76343 0.18959 0.2936 0.0
C566 C 0.77547 0.17528 0.29065 0.0
C567 C 0.76915 0.15833 0.28442 0.0
C568 C 0.75041 0.15601 0.28146 0.0
C569 C 0.7303 0.24952 0.35719 0.0
H570 H 0.65558 0.20204 0.24954 0.0
H571 H 0.68164 0.1962 0.26932 0.0
H572 H 0.69628 0.25295 0.26705 0.0
H573 H 0.67045 0.25878 0.24713 0.0
H574 H 0.71574 0.19685 0.26938 0.0
H575 H 0.70006 0.24443 0.29915 0.0
H576 H 0.74536 0.21273 0.31752 0.0
H577 H 0.72825 0.22269 0.34595 0.0
H578 H 0.72467 0.26702 0.30784 0.0
H579 H 0.72847 0.2887 0.33257 0.0
H580 H 0.72401 0.16803 0.28214 0.0
H581 H 0.76888 0.20254 0.29802 0.0
H582 H 0.73146 0.24435 0.37091 0.0
H583 H 0.74506 0.14322 0.2765 0.0
H584 H 0.78976 0.17751 0.29332 0.0
C585 C 0.4805 0.1078 0.99034 0.0
C586 C 0.48034 0.10702 0.00942 0.0
C587 C 0.47717 0.09223 0.97995 0.0
C588 C 0.47354 0.0755 0.98838 0.0
C589 C 0.47327 0.07471 0.00744 0.0
C590 C 0.47667 0.09027 0.01784 0.0
C591 C 0.47015 0.0589 0.97731 0.0
C592 C 0.48096 0.05513 0.96211 0.0
C593 C 0.47794 0.03948 0.95158 0.0
C594 C 0.46377 0.02762 0.95631 0.0
C595 C 0.45275 0.03118 0.97139 0.0
C596 C 0.45612 0.04679 0.98189 0.0
C597 C 0.43755 0.01871 0.97599 0.0
C598 C 0.42592 0.01209 0.9623 0.0
C599 C 0.43457 0.01331 0.99404 0.0
C600 C 0.42034 1.00144 0.99827 0.0
C601 C 0.40868 0.99488 0.98456 0.0
C602 C 0.48966 0.03543 0.93573 0.0
C603 C 0.49442 0.04918 0.9234 0.0
C604 C 0.49619 0.01776 0.93282 0.0
C605 C 0.50723 0.01393 0.91794 0.0
C606 C 0.51195 0.02765 0.90554 0.0
C607 C 0.50539 0.04533 0.90846 0.0
C608 C 0.41163 1.00037 0.96654 0.0
H609 H 0.48298 0.12051 0.98339 0.0
H610 H 0.47722 0.09334 0.96529 0.0
H611 H 0.47075 0.06198 0.01435 0.0
H612 H 0.47673 0.08909 0.03249 0.0
H613 H 0.49208 0.06415 0.95874 0.0
H614 H 0.44746 0.0498 0.99334 0.0
H615 H 0.46128 0.01557 0.94819 0.0
H616 H 0.42776 0.01614 0.94829 0.0
H617 H 0.44338 0.01808 0.00486 0.0
H618 H 0.41834 0.99756 0.0123 0.0
H619 H 0.48941 0.06288 0.92515 0.0
H620 H 0.49299 0.00693 0.94222 0.0
H621 H 0.40299 0.99541 0.95565 0.0
H622 H 0.5085 0.05617 0.89905 0.0
H623 H 0.51229 1.00024 0.91632 0.0
Li624 Li 0.26957 0.89465 1.00322 0.0
Li625 Li 0.25734 0.87001 0.0233 0.0
Li626 Li 0.25043 0.87183 0.99054 0.0
Li627 Li 0.23698 0.89393 0.01007 0.0
C628 C 0.29246 0.86823 1.0007 0.0
N629 N 0.32967 0.8708 0.9974 0.0
C630 C 0.30354 0.86737 0.01613 0.0
C631 C 0.30027 0.87027 0.98358 0.0
C632 C 0.32234 0.86871 0.01418 0.0
C633 C 0.31912 0.87159 0.9822 0.0
C634 C 0.25187 0.90942 0.03901 0.0
C635 C 0.23302 0.91791 0.06425 0.0
N636 N 0.23766 0.93561 0.06164 0.0
C637 C 0.25647 0.92767 0.03658 0.0
C638 C 0.24009 0.90446 0.05296 0.0
C639 C 0.24914 0.94071 0.04818 0.0
C640 C 0.29249 0.91794 0.98312 0.0
N641 N 0.28992 0.91051 0.99978 0.0
C642 C 0.31574 0.92653 0.01156 0.0
C643 C 0.3012 0.9145 0.01392 0.0
C644 C 0.31865 0.93453 0.99447 0.0
C645 C 0.30686 0.9299 0.98012 0.0
H646 H 0.28332 0.9147 0.97214 0.0
H647 H 0.29877 0.9085 0.02709 0.0
C648 C 0.2605 0.83672 0.04243 0.0
N649 N 0.26221 0.85505 0.04389 0.0
C650 C 0.2634 0.82561 0.05755 0.0
C651 C 0.27034 0.85239 0.07526 0.0
C652 C 0.26727 0.86298 0.05981 0.0
C653 C 0.26824 0.83343 0.07433 0.0
H654 H 0.25681 0.83073 0.02954 0.0
H655 H 0.26892 0.87755 0.06052 0.0
C656 C 0.24319 0.90073 0.96917 0.0
N657 N 0.23166 0.905 0.93365 0.0
C658 C 0.22577 0.90723 0.96543 0.0
C659 C 0.25476 0.89643 0.95482 0.0
C660 C 0.22019 0.9093 0.94738 0.0
C661 C 0.24867 0.89867 0.93696 0.0
C662 C 0.22013 0.85721 1.00262 0.0
C663 C 0.20559 0.86558 0.99372 0.0
C664 C 0.22162 0.8383 1.00224 0.0
C665 C 0.19274 0.85488 0.98464 0.0
C666 C 0.20854 0.82807 0.99295 0.0
N667 N 0.19448 0.8365 0.98444 0.0
C668 C 0.25831 0.84214 0.96755 0.0
C669 C 0.23268 0.85892 0.95779 0.0
C670 C 0.25653 0.83041 0.9527 0.0
N671 N 0.2466 0.85622 0.96972 0.0
C672 C 0.23067 0.84781 0.94255 0.0
C673 C 0.24274 0.83342 0.93988 0.0
H674 H 0.26908 0.84004 0.97735 0.0
H675 H 0.22318 0.8698 0.95996 0.0
C676 C 0.21749 0.92689 0.01115 0.0
N677 N 0.21677 0.90905 0.01578 0.0
C678 C 0.20316 0.93847 0.01542 0.0
C679 C 0.18761 0.91309 0.02919 0.0
C680 C 0.20233 0.90205 0.02482 0.0
C681 C 0.18785 0.9316 0.02447 0.0
H682 H 0.22928 0.93215 1.00422 0.0
H683 H 0.20224 0.88786 0.02858 0.0
O684 O 0.27403 0.86754 1.00238 0.0
O685 O 0.25846 0.89652 0.02747 0.0
O686 O 0.24893 0.89881 0.98677 0.0
O687 O 0.233 0.86749 0.01134 0.0
H688 H 0.29768 0.86589 0.02949 0.0
H689 H 0.29184 0.87099 0.97152 0.0
H690 H 0.33109 0.86818 0.026 0.0
H691 H 0.32535 0.87328 0.96905 0.0
H692 H 0.2238 0.91429 0.07503 0.0
H693 H 0.26546 0.93173 0.02574 0.0
H694 H 0.23622 0.8904 0.05486 0.0
H695 H 0.25252 0.9549 0.04643 0.0
H696 H 0.32434 0.92982 0.02308 0.0
H697 H 0.3087 0.93545 0.96665 0.0
H698 H 0.26151 0.81109 0.05617 0.0
H699 H 0.27441 0.859 0.08779 0.0
H700 H 0.21658 0.91053 0.97631 0.0
H701 H 0.26815 0.89105 0.95742 0.0
H702 H 0.20673 0.91426 0.9443 0.0
H703 H 0.25743 0.89527 0.92574 0.0
H704 H 0.2044 0.8802 0.99348 0.0
H705 H 0.23286 0.83158 0.00885 0.0
H706 H 0.18148 0.8612 0.97763 0.0
H707 H 0.20958 0.81343 0.99248 0.0
H708 H 0.26604 0.81936 0.95103 0.0
H709 H 0.21974 0.85037 0.933 0.0
H710 H 0.20419 0.95269 0.01184 0.0
H711 H 0.17608 0.90709 0.03599 0.0
Li712 Li 0.11976 0.50701 0.27458 0.0
Li713 Li 0.14203 0.48743 0.26195 0.0
Li714 Li 0.14413 0.51999 0.25615 0.0
Li715 Li 0.11893 0.50006 0.24183 0.0
C716 C 0.1505 0.50137 0.29664 0.0
N717 N 0.15914 0.48903 0.33101 0.0
C718 C 0.14225 0.48572 0.30343 0.0
C719 C 0.1632 0.51073 0.30728 0.0
C720 C 0.14678 0.47969 0.32085 0.0
C721 C 0.16737 0.50428 0.32464 0.0
C722 C 0.10775 0.46691 0.2627 0.0
C723 C 0.098 0.43968 0.24718 0.0
N724 N 0.09191 0.43285 0.26318 0.0
C725 C 0.10122 0.45968 0.27895 0.0
C726 C 0.10599 0.4569 0.24664 0.0
C727 C 0.09333 0.44241 0.27893 0.0
C728 C 0.08658 0.50495 0.29272 0.0
N729 N 0.10388 0.51113 0.2946 0.0
C730 C 0.09754 0.52203 0.32449 0.0
C731 C 0.10948 0.51973 0.30999 0.0
C732 C 0.07961 0.51554 0.32306 0.0
C733 C 0.07417 0.50706 0.30679 0.0
H734 H 0.08244 0.49837 0.28023 0.0
H735 H 0.12325 0.52473 0.31107 0.0
C736 C 0.17533 0.47119 0.26988 0.0
N737 N 0.15765 0.46698 0.26654 0.0
C738 C 0.18798 0.45751 0.27327 0.0
C739 C 0.16397 0.43534 0.27017 0.0
C740 C 0.15182 0.44945 0.26663 0.0
C741 C 0.18238 0.43925 0.27352 0.0
H742 H 0.17963 0.48524 0.26979 0.0
H743 H 0.13778 0.44628 0.26406 0.0
C744 C 0.10653 0.53714 0.26181 0.0
N745 N 0.08427 0.5615 0.27935 0.0
C746 C 0.08782 0.53675 0.25871 0.0
C747 C 0.11395 0.54995 0.27374 0.0
C748 C 0.07678 0.54917 0.26773 0.0
C749 C 0.10246 0.56215 0.2825 0.0
C750 C 0.15868 0.48894 0.23042 0.0
C751 C 0.17685 0.4944 0.23046 0.0
C752 C 0.15385 0.47217 0.2229 0.0
C753 C 0.18995 0.48283 0.22323 0.0
C754 C 0.16734 0.46098 0.21582 0.0
N755 N 0.18496 0.46649 0.21615 0.0
C756 C 0.17738 0.53856 0.25866 0.0
C757 C 0.15426 0.55499 0.24342 0.0
C758 C 0.18985 0.55251 0.25553 0.0
N759 N 0.16006 0.53996 0.25242 0.0
C760 C 0.16622 0.56939 0.24018 0.0
C761 C 0.18434 0.56815 0.24609 0.0
H762 H 0.18157 0.52646 0.26586 0.0
H763 H 0.14038 0.55571 0.23861 0.0
C764 C 0.08568 0.49424 0.22358 0.0
N765 N 0.10383 0.49627 0.22117 0.0
C766 C 0.07429 0.49086 0.20872 0.0
C767 C 0.10054 0.49155 0.18921 0.0
C768 C 0.1114 0.49506 0.20444 0.0
C769 C 0.08171 0.48938 0.19125 0.0
H770 H 0.08009 0.49503 0.23711 0.0
H771 H 0.12589 0.49672 0.20294 0.0
O772 O 0.14633 0.50753 0.27961 0.0
O773 O 0.11533 0.48389 0.26245 0.0
O774 O 0.11751 0.5247 0.25362 0.0
O775 O 0.14573 0.49987 0.23786 0.0
H776 H 0.13253 0.47826 0.29532 0.0
H777 H 0.16974 0.52286 0.30217 0.0
H778 H 0.14049 0.46758 0.32628 0.0
H779 H 0.17715 0.5114 0.33305 0.0
H780 H 0.09663 0.43177 0.23487 0.0
H781 H 0.10217 0.46733 0.29147 0.0
H782 H 0.11074 0.4623 0.2339 0.0
H783 H 0.08828 0.43664 0.29142 0.0
H784 H 0.10241 0.52852 0.33678 0.0
H785 H 0.06043 0.50217 0.30488 0.0
H786 H 0.20203 0.46126 0.27547 0.0
H787 H 0.1589 0.42154 0.27052 0.0
H788 H 0.08188 0.52686 0.24956 0.0
H789 H 0.12841 0.5503 0.27641 0.0
H790 H 0.06226 0.54898 0.26554 0.0
H791 H 0.10799 0.57207 0.29186 0.0
H792 H 0.18083 0.50736 0.23613 0.0
H793 H 0.13986 0.46778 0.22267 0.0
H794 H 0.20408 0.48683 0.22328 0.0
H795 H 0.1638 0.44791 0.21009 0.0
H796 H 0.20364 0.55112 0.26047 0.0
H797 H 0.16148 0.58116 0.23276 0.0
H798 H 0.05989 0.48904 0.21092 0.0
H799 H 0.10678 0.49069 0.17597 0.0
Li800 Li 0.73911 0.62226 0.99993 0.0
Li801 Li 0.75379 0.64528 0.01831 0.0
Li802 Li 0.75718 0.64552 0.98558 0.0
Li803 Li 0.77184 0.62237 1.00355 0.0
C804 C 0.71865 0.6531 0.00807 0.0
N805 N 0.68665 0.66181 0.0253 0.0
C806 C 0.71271 0.64281 0.02285 0.0
C807 C 0.70832 0.66782 1.00208 0.0
C808 C 0.6965 0.64743 0.03137 0.0
C809 C 0.69217 0.672 0.01096 0.0
C810 C 0.76165 0.61416 0.03861 0.0
C811 C 0.78484 0.61957 0.06123 0.0
N812 N 0.77878 0.60498 0.07078 0.0
C813 C 0.75566 0.59923 0.04863 0.0
C814 C 0.77637 0.62443 0.04494 0.0
C815 C 0.76449 0.59481 0.06486 0.0
C816 C 0.72215 0.58836 1.00033 0.0
N817 N 0.71889 0.60619 0.99695 0.0
C818 C 0.68827 0.59945 0.98828 0.0
C819 C 0.70238 0.61192 0.99093 0.0
C820 C 0.69131 0.58091 0.99152 0.0
C821 C 0.70852 0.57541 0.99763 0.0
H822 H 0.73547 0.58418 0.00492 0.0
H823 H 0.70021 0.6261 0.9879 0.0
C824 C 0.7571 0.67838 0.0367 0.0
N825 N 0.75145 0.66095 0.03885 0.0
C826 C 0.75545 0.69086 0.05087 0.0
C827 C 0.74219 0.66721 0.06929 0.0
C828 C 0.74404 0.65519 0.05471 0.0
C829 C 0.7479 0.68536 0.06748 0.0
H830 H 0.76275 0.68262 0.02385 0.0
H831 H 0.73951 0.64129 0.05606 0.0
C832 C 0.74927 0.61484 0.96475 0.0
N833 N 0.73208 0.6063 0.93241 0.0
C834 C 0.75567 0.60061 0.95402 0.0
C835 C 0.73411 0.62472 0.95904 0.0
C836 C 0.7468 0.59651 0.9377 0.0
C837 C 0.72561 0.62019 0.94265 0.0
C838 C 0.79238 0.65329 0.99601 0.0
C839 C 0.79827 0.64326 0.98104 0.0
C840 C 0.80285 0.66781 1.00238 0.0
C841 C 0.81458 0.64796 0.9727 0.0
C842 C 0.8191 0.67209 0.99366 0.0
N843 N 0.82457 0.66216 0.97913 0.0
C844 C 0.75446 0.67893 0.96763 0.0
C845 C 0.76668 0.65565 0.94922 0.0
C846 C 0.75627 0.6915 0.95355 0.0
N847 N 0.75962 0.66141 0.96523 0.0
C848 C 0.7686 0.66773 0.93473 0.0
C849 C 0.76341 0.68598 0.93677 0.0
H850 H 0.74909 0.68317 0.98059 0.0
H851 H 0.77089 0.64169 0.94769 0.0
C852 C 0.79034 0.58942 0.9997 0.0
N853 N 0.79231 0.6067 0.00591 0.0
C854 C 0.80457 0.57703 1.00136 0.0
C855 C 0.82262 0.60045 0.01578 0.0
C856 C 0.80803 0.61238 0.01387 0.0
C857 C 0.82101 0.58246 0.00952 0.0
H858 H 0.77762 0.58524 0.99359 0.0
H859 H 0.80924 0.62616 0.0188 0.0
O860 O 0.73456 0.64901 0.99956 0.0
O861 O 0.75316 0.61851 0.02264 0.0
O862 O 0.75779 0.61886 0.98082 0.0
O863 O 0.77642 0.64907 1.00441 0.0
H864 H 0.72048 0.63135 0.02768 0.0
H865 H 0.71277 0.67593 0.99068 0.0
H866 H 0.69174 0.63958 0.04281 0.0
H867 H 0.68404 0.68336 0.00646 0.0
H868 H 0.79625 0.62739 0.06629 0.0
H869 H 0.7443 0.59113 0.04388 0.0
H870 H 0.78121 0.63604 0.0374 0.0
H871 H 0.75999 0.58328 0.07276 0.0
H872 H 0.67526 0.60419 0.98333 0.0
H873 H 0.71137 0.56125 1.00035 0.0
H874 H 0.75975 0.70476 0.04871 0.0
H875 H 0.73649 0.66227 0.08187 0.0
H876 H 0.76738 0.59282 0.95827 0.0
H877 H 0.72894 0.63578 0.96714 0.0
H878 H 0.75161 0.58553 0.92926 0.0
H879 H 0.71387 0.62773 0.93807 0.0
H880 H 0.79039 0.63195 0.97592 0.0
H881 H 0.79847 0.67571 0.01395 0.0
H882 H 0.8193 0.64032 0.96111 0.0
H883 H 0.82734 0.6833 0.99845 0.0
H884 H 0.75238 0.70546 0.95592 0.0
H885 H 0.77397 0.66275 0.92202 0.0
H886 H 0.80258 0.56326 0.9966 0.0
H887 H 0.83508 0.60532 0.02196 0.0
Li888 Li 0.86818 0.02019 0.25837 0.0
Li889 Li 0.89138 1.00004 0.27088 0.0
Li890 Li 0.89304 0.00835 0.23828 0.0
Li891 Li 0.86999 0.98784 0.24974 0.0
C892 C 0.89989 0.04161 0.25477 0.0
N893 N 0.91028 0.07581 0.24342 0.0
C894 C 0.91414 0.05065 0.26352 0.0
C895 C 0.89095 0.04991 0.24019 0.0
C896 C 0.91918 0.06796 0.2576 0.0
C897 C 0.8964 0.06721 0.23467 0.0
C898 C 0.864 0.99559 0.29193 0.0
C899 C 0.86513 0.97528 0.31755 0.0
N900 N 0.86437 0.98979 0.32896 0.0
C901 C 0.86313 0.0103 0.30388 0.0
C902 C 0.86491 0.97793 0.29877 0.0
C903 C 0.86337 0.00708 0.32257 0.0
C904 C 0.83421 0.03743 0.26004 0.0
N905 N 0.85215 0.03994 0.26366 0.0
C906 C 0.84634 0.06985 0.27491 0.0
C907 C 0.85832 0.05564 0.27127 0.0
C908 C 0.82777 0.06777 0.27099 0.0
C909 C 0.82174 0.05122 0.26357 0.0
H910 H 0.82957 0.02462 0.25454 0.0
H911 H 0.87251 0.05715 0.2747 0.0
C912 C 0.91372 0.97919 0.29441 0.0
N913 N 0.90622 0.99584 0.29191 0.0
C914 C 0.92546 0.97604 0.30899 0.0
C915 C 0.92147 0.00719 0.31839 0.0
C916 C 0.90978 0.00975 0.30357 0.0
C917 C 0.92968 0.99019 0.32112 0.0
H918 H 0.91085 0.9684 0.28493 0.0
H919 H 0.90375 0.02291 0.30118 0.0
C920 C 0.85816 1.00245 0.21834 0.0
N921 N 0.84094 0.98768 0.1883 0.0
C922 C 0.86797 0.99228 0.20576 0.0
C923 C 0.83958 1.00511 0.21562 0.0
C924 C 0.85903 0.98493 0.19066 0.0
C925 C 0.83112 0.99752 0.20036 0.0
C926 C 0.89987 0.96708 0.24411 0.0
C927 C 0.90844 0.9639 0.22753 0.0
C928 C 0.89451 0.95238 0.25484 0.0
C929 C 0.91141 0.94604 0.22192 0.0
C930 C 0.89772 0.93472 0.24874 0.0
N931 N 0.90603 0.93194 0.23255 0.0
C932 C 0.92738 0.01162 0.22256 0.0
C933 C 0.90359 0.02216 0.20354 0.0
C934 C 0.94022 0.01582 0.20934 0.0
N935 N 0.90947 0.01466 0.21938 0.0
C936 C 0.91595 0.02636 0.18984 0.0
C937 C 0.93453 0.02315 0.19266 0.0
H938 H 0.93165 0.0058 0.23537 0.0
H939 H 0.88932 0.02486 0.20152 0.0
C940 C 0.83907 0.96545 0.25321 0.0
N941 N 0.85462 0.96744 0.24357 0.0
C942 C 0.82701 0.95126 0.24929 0.0
C943 C 0.84721 0.94128 0.22566 0.0
C944 C 0.85868 0.95583 0.22982 0.0
C945 C 0.83103 0.9388 0.23538 0.0
H946 H 0.83592 0.97504 0.26386 0.0
H947 H 0.87085 0.95776 0.222 0.0
O948 O 0.89497 0.02457 0.2603 0.0
O949 O 0.86435 0.9985 0.27362 0.0
O950 O 0.86667 0.00957 0.23332 0.0
O951 O 0.89697 0.9845 0.24985 0.0
H952 H 0.92124 0.04436 0.27478 0.0
H953 H 0.8799 0.0431 0.23323 0.0
H954 H 0.93018 0.07514 0.26426 0.0
H955 H 0.8896 0.07381 0.22342 0.0
H956 H 0.86593 0.96169 0.32306 0.0
H957 H 0.86251 0.02406 0.29877 0.0
H958 H 0.86556 0.96641 0.28967 0.0
H959 H 0.86282 0.01834 0.33199 0.0
H960 H 0.85152 0.08222 0.28101 0.0
H961 H 0.80756 0.04902 0.26033 0.0
H962 H 0.93126 0.96265 0.31068 0.0
H963 H 0.92446 0.01854 0.32728 0.0
H964 H 0.88228 0.9898 0.20778 0.0
H965 H 0.83174 0.01294 0.22516 0.0
H966 H 0.86646 0.97695 0.18089 0.0
H967 H 0.81674 0.99947 0.19811 0.0
H968 H 0.91269 0.97509 0.21905 0.0
H969 H 0.88763 0.95456 0.26757 0.0
H970 H 0.91798 0.94338 0.2091 0.0
H971 H 0.89353 0.92323 0.25685 0.0
H972 H 0.95441 0.01306 0.212 0.0
H973 H 0.91106 0.03226 0.17727 0.0
H974 H 0.81456 0.95028 0.25693 0.0
H975 H 0.85115 0.932 0.215 0.0
Li976 Li 0.2535 0.14248 0.52076 0.0
Li977 Li 0.24002 0.11967 0.502 0.0
Li978 Li 0.27254 0.11876 0.5091 0.0
Li979 Li 0.25985 0.14249 0.48883 0.0
C980 C 0.23902 0.11198 0.53863 0.0
N981 N 0.21263 0.10339 0.56369 0.0
C982 C 0.22346 0.12267 0.54003 0.0
C983 C 0.24116 0.09692 0.54995 0.0
C984 C 0.21027 0.11811 0.55279 0.0
C985 C 0.22767 0.09281 0.56255 0.0
C986 C 0.22361 0.15044 0.48755 0.0
C987 C 0.21002 0.14488 0.45819 0.0
N988 N 0.19839 0.15889 0.46099 0.0
C989 C 0.21155 0.16479 0.49013 0.0
C990 C 0.22287 0.1404 0.47144 0.0
C991 C 0.19888 0.16884 0.47655 0.0
C992 C 0.2463 0.1763 0.53659 0.0
N993 N 0.25 0.15871 0.54074 0.0
C994 C 0.24926 0.16542 0.5725 0.0
C995 C 0.25165 0.15311 0.55827 0.0
C996 C 0.24552 0.18369 0.5686 0.0
C997 C 0.24413 0.18912 0.55038 0.0
H998 H 0.24523 0.18038 0.52251 0.0
H999 H 0.25497 0.13913 0.56123 0.0
C1000 C 0.22141 0.08703 0.49366 0.0
N1001 N 0.21905 0.10472 0.49833 0.0
C1002 C 0.20642 0.0755 0.49158 0.0
C1003 C 0.18687 0.10066 0.49902 0.0
C1004 C 0.20221 0.11165 0.50103 0.0
C1005 C 0.18883 0.08226 0.49436 0.0
H1006 H 0.23498 0.08182 0.49179 0.0
H1007 H 0.20064 0.1257 0.50493 0.0
C1008 C 0.2868 0.15474 0.52192 0.0
N1009 N 0.30397 0.17439 0.54901 0.0
C1010 C 0.29016 0.17327 0.5196 0.0
C1011 C 0.29225 0.14617 0.53797 0.0
C1012 C 0.29884 0.18297 0.53347 0.0
C1013 C 0.3009 0.15635 0.55151 0.0
C1014 C 0.2728 0.10999 0.47251 0.0
C1015 C 0.28935 0.11918 0.47103 0.0
C1016 C 0.26926 0.09496 0.46145 0.0
C1017 C 0.30208 0.11319 0.45842 0.0
C1018 C 0.28234 0.0894 0.44899 0.0
N1019 N 0.29834 0.09854 0.44776 0.0
C1020 C 0.28996 0.08538 0.51667 0.0
C1021 C 0.30989 0.11019 0.51182 0.0
C1022 C 0.30465 0.07362 0.51899 0.0
N1023 N 0.29284 0.10326 0.51313 0.0
C1024 C 0.32495 0.09894 0.51406 0.0
C1025 C 0.32247 0.08035 0.51762 0.0
H1026 H 0.27623 0.08023 0.51748 0.0
H1027 H 0.3118 0.12444 0.50888 0.0
C1028 C 0.26329 0.17619 0.47188 0.0
N1029 N 0.26337 0.15808 0.46832 0.0
C1030 C 0.26506 0.18876 0.45781 0.0
C1031 C 0.26674 0.16383 0.43655 0.0
C1032 C 0.26476 0.15174 0.45103 0.0
C1033 C 0.26689 0.18262 0.43986 0.0
H1034 H 0.26158 0.18086 0.48568 0.0
H1035 H 0.26401 0.13735 0.44835 0.0
O1036 O 0.25207 0.116 0.52611 0.0
O1037 O 0.23616 0.1465 0.50073 0.0
O1038 O 0.27778 0.14509 0.50878 0.0
O1039 O 0.26022 0.11535 0.48497 0.0
H1040 H 0.22155 0.13438 0.53139 0.0
H1041 H 0.25312 0.08849 0.54898 0.0
H1042 H 0.19816 0.12626 0.55402 0.0
H1043 H 0.22914 0.08118 0.5714 0.0
H1044 H 0.2093 0.13722 0.44566 0.0
H1045 H 0.21199 0.17272 0.50251 0.0
H1046 H 0.23209 0.12926 0.46915 0.0
H1047 H 0.18946 0.17991 0.47837 0.0
H1048 H 0.25065 0.16079 0.58639 0.0
H1049 H 0.24119 0.20308 0.54684 0.0
H1050 H 0.20864 0.06136 0.48824 0.0
H1051 H 0.17361 0.10658 0.50106 0.0
H1052 H 0.28605 0.18011 0.50727 0.0
H1053 H 0.28955 0.13188 0.54008 0.0
H1054 H 0.30146 0.19734 0.53189 0.0
H1055 H 0.30509 0.14992 0.56405 0.0
H1056 H 0.29232 0.13085 0.47945 0.0
H1057 H 0.25654 0.08766 0.4625 0.0
H1058 H 0.31493 0.12018 0.45712 0.0
H1059 H 0.27979 0.07779 0.44033 0.0
H1060 H 0.30207 0.05936 0.52147 0.0
H1061 H 0.3384 0.1048 0.51311 0.0
H1062 H 0.26509 0.20312 0.46096 0.0
H1063 H 0.26773 0.15856 0.42286 0.0
Li1064 Li 0.39456 0.4994 0.7723 0.0
Li1065 Li 0.37113 0.51978 0.7604 0.0
Li1066 Li 0.3707 0.48586 0.75399 0.0
Li1067 Li 0.39332 0.50583 0.73923 0.0
C1068 C 0.36826 0.49672 0.79575 0.0
N1069 N 0.36993 0.49218 0.83293 0.0
C1070 C 0.36683 0.51174 0.80724 0.0
C1071 C 0.37037 0.47937 0.80313 0.0
C1072 C 0.36774 0.50916 0.82602 0.0
C1073 C 0.37124 0.47737 0.82197 0.0
C1074 C 0.40282 0.54026 0.75453 0.0
C1075 C 0.40112 0.56494 0.7331 0.0
N1076 N 0.41253 0.57486 0.7438 0.0
C1077 C 0.41459 0.55065 0.76528 0.0
C1078 C 0.39606 0.54742 0.73829 0.0
C1079 C 0.41931 0.56814 0.75964 0.0
C1080 C 0.42017 0.47985 0.79336 0.0
N1081 N 0.41079 0.49567 0.79234 0.0
C1082 C 0.42516 0.50649 0.81951 0.0
C1083 C 0.4131 0.50896 0.80498 0.0
C1084 C 0.43507 0.49026 0.8209 0.0
C1085 C 0.43238 0.47683 0.80759 0.0
H1086 H 0.41834 0.46962 0.78303 0.0
H1087 H 0.40566 0.52154 0.8037 0.0
C1088 C 0.33778 0.53753 0.76091 0.0
N1089 N 0.35565 0.53999 0.76488 0.0
C1090 C 0.32536 0.55147 0.76388 0.0
C1091 C 0.34991 0.57025 0.77512 0.0
C1092 C 0.36187 0.55589 0.772 0.0
C1093 C 0.33136 0.56813 0.77108 0.0
H1094 H 0.33321 0.52469 0.75537 0.0
H1095 H 0.37606 0.55741 0.77544 0.0
C1096 C 0.40007 0.46482 0.74634 0.0
N1097 N 0.40524 0.42936 0.73529 0.0
C1098 C 0.40615 0.46113 0.72879 0.0
C1099 C 0.39669 0.45048 0.7583 0.0
C1100 C 0.40867 0.4431 0.72346 0.0
C1101 C 0.39935 0.43265 0.75245 0.0
C1102 C 0.35773 0.50941 0.72119 0.0
C1103 C 0.35399 0.49479 0.70964 0.0
C1104 C 0.3522 0.52687 0.71623 0.0
C1105 C 0.34492 0.4979 0.69323 0.0
C1106 C 0.34316 0.52943 0.6997 0.0
N1107 N 0.33974 0.51501 0.68864 0.0
C1108 C 0.33981 0.46509 0.76209 0.0
C1109 C 0.35701 0.45263 0.73813 0.0
C1110 C 0.32717 0.45097 0.7607 0.0
N1111 N 0.35443 0.46565 0.75096 0.0
C1112 C 0.34494 0.43807 0.73651 0.0
C1113 C 0.32966 0.43706 0.74784 0.0
H1114 H 0.33787 0.47575 0.77199 0.0
H1115 H 0.36842 0.45349 0.72908 0.0
C1116 C 0.42615 0.51204 0.72152 0.0
N1117 N 0.40812 0.50972 0.71828 0.0
C1118 C 0.43818 0.5145 0.70712 0.0
C1119 C 0.41286 0.51222 0.68627 0.0
C1120 C 0.40133 0.50983 0.70107 0.0
C1121 C 0.43158 0.51452 0.68918 0.0
H1122 H 0.4312 0.51182 0.73534 0.0
H1123 H 0.38702 0.50798 0.6987 0.0
O1124 O 0.36783 0.49901 0.77735 0.0
O1125 O 0.39801 0.52318 0.75996 0.0
O1126 O 0.3976 0.48238 0.75181 0.0
O1127 O 0.36645 0.5066 0.73739 0.0
H1128 H 0.36523 0.52525 0.80171 0.0
H1129 H 0.37144 0.46762 0.79438 0.0
H1130 H 0.36677 0.52067 0.83509 0.0
H1131 H 0.37298 0.46404 0.82789 0.0
H1132 H 0.39598 0.57065 0.72056 0.0
H1133 H 0.41994 0.54528 0.7779 0.0
H1134 H 0.38708 0.5395 0.72976 0.0
H1135 H 0.42837 0.57636 0.76785 0.0
H1136 H 0.42698 0.51731 0.82932 0.0
H1137 H 0.43958 0.46405 0.80819 0.0
H1138 H 0.31122 0.54928 0.76042 0.0
H1139 H 0.35507 0.58276 0.78095 0.0
H1140 H 0.40886 0.47204 0.71936 0.0
H1141 H 0.39184 0.45309 0.77189 0.0
H1142 H 0.41333 0.44004 0.7099 0.0
H1143 H 0.39669 0.42143 0.76152 0.0
H1144 H 0.35826 0.48123 0.71317 0.0
H1145 H 0.35482 0.53835 0.72503 0.0
H1146 H 0.34202 0.48671 0.68412 0.0
H1147 H 0.33885 0.54287 0.69569 0.0
H1148 H 0.31546 0.45114 0.76948 0.0
H1149 H 0.34772 0.42765 0.72656 0.0
H1150 H 0.45252 0.51602 0.71002 0.0
H1151 H 0.40713 0.51238 0.6727 0.0
Li1152 Li 0.77202 0.39588 0.50253 0.0
Li1153 Li 0.76037 0.37031 0.52345 0.0
Li1154 Li 0.75377 0.3707 0.49052 0.0
Li1155 Li 0.73998 0.39258 0.50998 0.0
C1156 C 0.78717 0.35865 0.49099 0.0
N1157 N 0.80418 0.3365 0.46612 0.0
C1158 C 0.78946 0.34019 0.49469 0.0
C1159 C 0.79362 0.36588 0.47472 0.0
C1160 C 0.79808 0.3292 0.48192 0.0
C1161 C 0.80217 0.35445 0.4623 0.0
C1162 C 0.75335 0.4102 0.53815 0.0
C1163 C 0.73341 0.41872 0.56253 0.0
N1164 N 0.73748 0.43649 0.55954 0.0
C1165 C 0.75746 0.42853 0.53543 0.0
C1166 C 0.74136 0.40522 0.55191 0.0
C1167 C 0.74926 0.44162 0.54635 0.0
C1168 C 0.78812 0.4291 0.492 0.0
N1169 N 0.79165 0.41193 0.49773 0.0
C1170 C 0.82358 0.41725 0.4958 0.0
C1171 C 0.80893 0.40586 0.49972 0.0
C1172 C 0.82044 0.43515 0.48993 0.0
C1173 C 0.80236 0.44102 0.48812 0.0
H1174 H 0.77422 0.43353 0.49049 0.0
H1175 H 0.81133 0.39208 0.50419 0.0
C1176 C 0.76332 0.33705 0.54208 0.0
N1177 N 0.7658 0.35527 0.54371 0.0
C1178 C 0.76704 0.32558 0.55672 0.0
C1179 C 0.77565 0.35187 0.5745 0.0
C1180 C 0.77181 0.36283 0.55948 0.0
C1181 C 0.77331 0.33294 0.57325 0.0
H1182 H 0.75842 0.33145 0.52938 0.0
H1183 H 0.77355 0.37739 0.5604 0.0
C1184 C 0.73824 0.40089 0.47295 0.0
N1185 N 0.71211 0.40864 0.44708 0.0
C1186 C 0.72201 0.39105 0.47248 0.0
C1187 C 0.74117 0.41471 0.4603 0.0
C1188 C 0.70897 0.39516 0.45929 0.0
C1189 C 0.7278 0.41841 0.44731 0.0
C1190 C 0.7227 0.35678 0.51724 0.0
C1191 C 0.71046 0.34849 0.50524 0.0
C1192 C 0.7199 0.35545 0.53595 0.0
C1193 C 0.69547 0.3392 0.51217 0.0
C1194 C 0.70476 0.34603 0.54234 0.0
N1195 N 0.69295 0.33819 0.53042 0.0
C1196 C 0.7481 0.33671 0.47421 0.0
C1197 C 0.75228 0.3605 0.45296 0.0
C1198 C 0.74673 0.32398 0.46021 0.0
N1199 N 0.75086 0.35455 0.47037 0.0
C1200 C 0.75075 0.34826 0.43852 0.0
C1201 C 0.74804 0.32972 0.44208 0.0
H1202 H 0.7472 0.33235 0.4882 0.0
H1203 H 0.75486 0.3747 0.45027 0.0
C1204 C 0.71995 0.42501 0.50934 0.0
N1205 N 0.71859 0.40713 0.5138 0.0
C1206 C 0.7052 0.43665 0.51164 0.0
C1207 C 0.68766 0.41122 0.52258 0.0
C1208 C 0.70282 0.40012 0.5203 0.0
C1209 C 0.68876 0.42975 0.51828 0.0
H1210 H 0.73255 0.43023 0.50398 0.0
H1211 H 0.70186 0.38595 0.52372 0.0
O1212 O 0.77821 0.36951 0.503 0.0
O1213 O 0.76089 0.39723 0.52729 0.0
O1214 O 0.75117 0.39724 0.48582 0.0
O1215 O 0.73755 0.36574 0.51067 0.0
H1216 H 0.7845 0.33438 0.5072 0.0
H1217 H 0.79178 0.38012 0.47159 0.0
H1218 H 0.79986 0.31487 0.48454 0.0
H1219 H 0.80711 0.35982 0.44959 0.0
H1220 H 0.724 0.41507 0.57314 0.0
H1221 H 0.76676 0.43261 0.52489 0.0
H1222 H 0.73812 0.39111 0.55427 0.0
H1223 H 0.75221 0.45587 0.54431 0.0
H1224 H 0.83721 0.41195 0.4971 0.0
H1225 H 0.79921 0.45474 0.48391 0.0
H1226 H 0.76525 0.31108 0.55502 0.0
H1227 H 0.78018 0.35819 0.58701 0.0
H1228 H 0.71948 0.38043 0.48223 0.0
H1229 H 0.75366 0.42248 0.46054 0.0
H1230 H 0.69634 0.38766 0.45878 0.0
H1231 H 0.72988 0.42905 0.43743 0.0
H1232 H 0.71251 0.34918 0.49072 0.0
H1233 H 0.72927 0.36164 0.54545 0.0
H1234 H 0.68587 0.33277 0.50303 0.0
H1235 H 0.7024 0.34495 0.55678 0.0
H1236 H 0.74454 0.30981 0.46351 0.0
H1237 H 0.75206 0.35318 0.42473 0.0
H1238 H 0.70655 0.45082 0.50798 0.0
H1239 H 0.67526 0.40539 0.52786 0.0
Li1240 Li 0.64146 0.98899 0.75859 0.0
Li1241 Li 0.61944 0.00828 0.77304 0.0
Li1242 Li 0.61807 1.00313 0.74038 0.0
Li1243 Li 0.64198 0.02164 0.75344 0.0
C1244 C 0.6097 0.96883 0.75263 0.0
N1245 N 0.59934 0.93612 0.73733 0.0
C1246 C 0.59502 0.95917 0.75971 0.0
C1247 C 0.6191 0.96187 0.73775 0.0
C1248 C 0.58999 0.94265 0.75179 0.0
C1249 C 0.61365 0.94531 0.73021 0.0
C1250 C 0.65111 1.00086 0.7928 0.0
C1251 C 0.67138 0.99886 0.81854 0.0
N1252 N 0.66113 0.98511 0.82538 0.0
C1253 C 0.64077 0.98672 0.80008 0.0
C1254 C 0.66654 0.00699 0.80209 0.0
C1255 C 0.64606 0.97893 0.81656 0.0
C1256 C 0.67383 0.9688 0.75574 0.0
N1257 N 0.65645 0.96802 0.76177 0.0
C1258 C 0.66084 0.93764 0.77234 0.0
C1259 C 0.64988 0.95292 0.77011 0.0
C1260 C 0.67882 0.93799 0.76616 0.0
C1261 C 0.68534 0.95387 0.75787 0.0
H1262 H 0.67873 0.98103 0.74926 0.0
H1263 H 0.63613 0.95271 0.77509 0.0
C1264 C 0.58715 0.00736 0.79332 0.0
N1265 N 0.60487 0.01244 0.79402 0.0
C1266 C 0.57572 0.01082 0.808 0.0
C1267 C 0.60105 0.02455 0.82387 0.0
C1268 C 0.61195 0.0209 0.80889 0.0
C1269 C 0.58261 0.0196 0.82355 0.0
H1270 H 0.58184 1.00084 0.78123 0.0
H1271 H 0.62604 0.02498 0.80907 0.0
C1272 C 0.64858 0.00945 0.71869 0.0
N1273 N 0.65691 0.0248 0.68554 0.0
C1274 C 0.63833 0.02394 0.71197 0.0
C1275 C 0.66307 1.00278 0.70855 0.0
C1276 C 0.64276 0.03151 0.69519 0.0
C1277 C 0.66706 0.01072 0.69181 0.0
C1278 C 0.61131 0.0428 0.76118 0.0
C1279 C 0.59617 0.05248 0.75514 0.0
C1280 C 0.62211 0.04987 0.77518 0.0
C1281 C 0.59208 0.06913 0.76322 0.0
C1282 C 0.61756 0.06655 0.78291 0.0
N1283 N 0.60276 0.07576 0.77682 0.0
C1284 C 0.5844 0.00593 0.7226 0.0
C1285 C 0.60698 0.99196 0.70467 0.0
C1286 C 0.57166 1.00402 0.70859 0.0
N1287 N 0.60167 0.99999 0.72039 0.0
C1288 C 0.59473 0.98989 0.69025 0.0
C1289 C 0.57676 0.99597 0.69207 0.0
H1290 H 0.5805 0.01208 0.73533 0.0
H1291 H 0.62075 0.98717 0.70327 0.0
C1292 C 0.6749 0.04145 0.75525 0.0
N1293 N 0.65736 0.04225 0.74951 0.0
C1294 C 0.68643 0.05639 0.75298 0.0
C1295 C 0.66163 0.07262 0.73889 0.0
C1296 C 0.65065 0.05735 0.74126 0.0
C1297 C 0.67976 0.0723 0.74486 0.0
H1298 H 0.67988 0.02924 0.7617 0.0
H1299 H 0.63673 0.05761 0.73661 0.0
O1300 O 0.61465 0.98508 0.76023 0.0
O1301 O 0.64633 0.00866 0.77662 0.0
O1302 O 0.64465 1.00184 0.73514 0.0
O1303 O 0.61536 0.02642 0.75345 0.0
H1304 H 0.58759 0.9644 0.77121 0.0
H1305 H 0.63051 0.96912 0.7321 0.0
H1306 H 0.57866 0.93502 0.75713 0.0
H1307 H 0.62081 0.93976 0.71871 0.0
H1308 H 0.68329 1.00347 0.82587 0.0
H1309 H 0.62877 0.9818 0.79313 0.0
H1310 H 0.67468 0.01792 0.79662 0.0
H1311 H 0.63819 0.96798 0.82235 0.0
H1312 H 0.65537 0.92576 0.77904 0.0
H1313 H 0.69909 0.95466 0.75283 0.0
H1314 H 0.56156 0.007 0.80699 0.0
H1315 H 0.60705 0.03113 0.83562 0.0
H1316 H 0.62705 0.02926 0.71959 0.0
H1317 H 0.67114 0.99158 0.71358 0.0
H1318 H 0.63493 0.04272 0.68983 0.0
H1319 H 0.67823 0.00569 0.68382 0.0
H1320 H 0.58767 0.04717 0.74432 0.0
H1321 H 0.63389 0.04258 0.78003 0.0
H1322 H 0.58039 0.07677 0.75868 0.0
H1323 H 0.62579 0.07218 0.79376 0.0
H1324 H 0.55792 0.00862 0.71079 0.0
H1325 H 0.59939 0.98381 0.67775 0.0
H1326 H 0.7003 0.05563 0.75786 0.0
H1327 H 0.65603 0.08453 0.73233 0.0
Li1328 Li 0.02195 0.2642 0.87021 0.0
Li1329 Li 1.00177 0.27635 0.89222 0.0
Li1330 Li 0.00901 0.24375 0.89418 0.0
Li1331 Li 0.98932 0.2568 0.86961 0.0
C1332 C 0.03394 0.27727 0.90776 0.0
N1333 N 0.04879 0.30348 0.93027 0.0
C1334 C 0.04331 0.29202 0.90038 0.0
C1335 C 0.03217 0.27582 0.92658 0.0
C1336 C 0.05074 0.30512 0.91199 0.0
C1337 C 0.03974 0.28923 0.93773 0.0
C1338 C 0.99885 0.29856 0.86312 0.0
C1339 C 0.97998 0.3252 0.86476 0.0
N1340 N 0.99398 0.33546 0.85849 0.0
C1341 C 0.01304 0.30936 0.85666 0.0
C1342 C 0.98217 0.30652 0.86717 0.0
C1343 C 0.01031 0.32799 0.85442 0.0
C1344 C 0.04071 0.27102 0.83742 0.0
N1345 N 0.04288 0.26748 0.85541 0.0
C1346 C 0.07511 0.26688 0.85218 0.0
C1347 C 0.05962 0.26534 0.8629 0.0
C1348 C 0.07336 0.27038 0.83347 0.0
C1349 C 0.05582 0.27245 0.82614 0.0
H1350 H 0.0272 0.27243 0.83179 0.0
H1351 H 0.06093 0.26231 0.87722 0.0
C1352 C 0.98622 0.29332 0.92265 0.0
N1353 N 0.99679 0.29673 0.90797 0.0
C1354 C 0.98225 0.30713 0.93501 0.0
C1355 C 0.99996 0.32785 0.91691 0.0
C1356 C 1.00393 0.31354 0.90515 0.0
C1357 C 0.98898 0.32481 0.93218 0.0
H1358 H 0.98105 0.27976 0.9249 0.0
H1359 H 0.01278 0.31593 0.89379 0.0
C1360 C 0.0193 0.23249 0.85344 0.0
N1361 N 0.03934 0.21953 0.82467 0.0
C1362 C 0.01252 0.23379 0.83572 0.0
C1363 C 0.03625 0.22458 0.85654 0.0
C1364 C 0.02286 0.22713 0.82136 0.0
C1365 C 0.04619 0.21813 0.8418 0.0
C1366 C 0.96772 0.24988 0.89678 0.0
C1367 C 0.96401 0.23135 0.89851 0.0
C1368 C 0.95346 0.26218 0.89475 0.0
C1369 C 0.946 0.2254 0.89801 0.0
C1370 C 0.93564 0.25568 0.8943 0.0
N1371 N 0.93232 0.23758 0.89591 0.0
C1372 C 0.01027 0.22466 0.92751 0.0
C1373 C 0.01701 0.20697 0.90155 0.0
C1374 C 0.01246 0.20955 0.93878 0.0
N1375 N 0.01269 0.22313 0.9093 0.0
C1376 C 0.01932 0.19151 0.91229 0.0
C1377 C 0.01704 0.19267 0.93119 0.0
H1378 H 0.00637 0.23758 0.93325 0.0
H1379 H 0.01852 0.20603 0.887 0.0
C1380 C 0.95929 0.26449 0.84637 0.0
N1381 N 0.96895 0.25102 0.85444 0.0
C1382 C 0.94423 0.26035 0.83553 0.0
C1383 C 0.94948 0.2285 0.84125 0.0
C1384 C 0.96441 0.23327 0.85205 0.0
C1385 C 0.93912 0.24214 0.83281 0.0
H1386 H 0.96323 0.27847 0.84834 0.0
H1387 H 0.97242 0.22281 0.85854 0.0
O1388 O 0.02625 0.26451 0.89659 0.0
O1389 O 1.00124 0.28027 0.86519 0.0
O1390 O 0.00963 0.23942 0.86762 0.0
O1391 O 0.98526 0.25593 0.89667 0.0
H1392 H 0.04457 0.29352 0.88583 0.0
H1393 H 0.02488 0.26455 0.93251 0.0
H1394 H 0.05793 0.31667 0.90646 0.0
H1395 H 0.03839 0.28833 0.95232 0.0
H1396 H 0.96719 0.33156 0.86796 0.0
H1397 H 0.02606 0.30345 0.85352 0.0
H1398 H 0.97111 0.29843 0.8724 0.0
H1399 H 0.02118 0.33651 0.84948 0.0
H1400 H 0.0883 0.26541 0.85854 0.0
H1401 H 0.05371 0.2748 0.81178 0.0
H1402 H 0.97416 0.30385 0.94677 0.0
H1403 H 0.00537 0.34117 0.91387 0.0
H1404 H 0.99953 0.24006 0.83306 0.0
H1405 H 0.04181 0.22373 0.87014 0.0
H1406 H 0.01782 0.2281 0.80757 0.0
H1407 H 0.05938 0.2121 0.84398 0.0
H1408 H 0.97492 0.22166 0.9 0.0
H1409 H 0.95615 0.27657 0.8934 0.0
H1410 H 0.94291 0.21108 0.89923 0.0
H1411 H 0.92447 0.26502 0.89262 0.0
H1412 H 0.01025 0.211 0.95323 0.0
H1413 H 0.02296 0.17882 0.90585 0.0
H1414 H 0.93655 0.27135 0.82952 0.0
H1415 H 0.94625 0.21427 0.83936 0.0
Li1416 Li 0.52279 0.75592 0.36927 0.0
Li1417 Li 0.50468 0.77065 0.3927 0.0
Li1418 Li 0.51047 0.73803 0.39273 0.0
Li1419 Li 0.4903 0.75169 0.36787 0.0
C1420 C 0.53965 0.75236 0.40897 0.0
N1421 N 0.56201 0.73977 0.43648 0.0
C1422 C 0.53987 0.76095 0.4259 0.0
C1423 C 0.55119 0.73766 0.40593 0.0
C1424 C 0.55118 0.75432 0.43966 0.0
C1425 C 0.56227 0.73139 0.42003 0.0
C1426 C 0.51302 0.78801 0.35681 0.0
C1427 C 0.51878 0.80547 0.32975 0.0
N1428 N 0.53327 0.81341 0.33811 0.0
C1429 C 0.5279 0.79645 0.36518 0.0
C1430 C 0.50835 0.79263 0.33899 0.0
C1431 C 0.53799 0.80921 0.35549 0.0
C1432 C 0.54118 0.75934 0.33543 0.0
N1433 N 0.54348 0.75896 0.35377 0.0
C1434 C 0.57546 0.76331 0.35055 0.0
C1435 C 0.56018 0.76102 0.36144 0.0
C1436 C 0.57355 0.76355 0.33155 0.0
C1437 C 0.55608 0.76156 0.32403 0.0
H1438 H 0.52774 0.7579 0.32966 0.0
H1439 H 0.56164 0.76104 0.37604 0.0
C1440 C 0.49843 0.7891 0.42611 0.0
N1441 N 0.50006 0.79138 0.40787 0.0
C1442 C 0.49513 0.80398 0.4374 0.0
C1443 C 0.49462 0.82325 0.41088 0.0
C1444 C 0.49787 0.80799 0.40012 0.0
C1445 C 0.49338 0.82141 0.42983 0.0
H1446 H 0.49975 0.7757 0.43194 0.0
H1447 H 0.49854 0.80945 0.38556 0.0
C1448 C 0.51808 0.72436 0.35207 0.0
N1449 N 0.53595 0.70825 0.32335 0.0
C1450 C 0.50986 0.72341 0.33494 0.0
C1451 C 0.53524 0.71672 0.35464 0.0
C1452 C 0.51913 0.71531 0.32058 0.0
C1453 C 0.54411 0.70877 0.33995 0.0
C1454 C 0.47269 0.75774 0.40448 0.0
C1455 C 0.46903 0.75177 0.42208 0.0
C1456 C 0.46226 0.77161 0.39682 0.0
C1457 C 0.45497 0.75985 0.43179 0.0
C1458 C 0.44834 0.77935 0.40697 0.0
N1459 N 0.44502 0.77337 0.4241 0.0
C1460 C 0.51316 0.71952 0.42652 0.0
C1461 C 0.5177 0.70114 0.40054 0.0
C1462 C 0.51687 0.70483 0.43797 0.0
N1463 N 0.51384 0.71746 0.40819 0.0
C1464 C 0.52153 0.68612 0.41145 0.0
C1465 C 0.52131 0.68788 0.43045 0.0
H1466 H 0.51016 0.73268 0.43226 0.0
H1467 H 0.51798 0.69981 0.38594 0.0
C1468 C 0.46911 0.75347 0.33559 0.0
N1469 N 0.46886 0.74863 0.3534 0.0
C1470 C 0.45364 0.75128 0.32474 0.0
C1471 C 0.43774 0.73958 0.35086 0.0
C1472 C 0.45363 0.7417 0.36113 0.0
C1473 C 0.43767 0.74433 0.3324 0.0
H1474 H 0.48142 0.75879 0.32973 0.0
H1475 H 0.4538 0.7378 0.37527 0.0
O1476 O 0.52843 0.75849 0.3954 0.0
O1477 O 0.50332 0.7751 0.36598 0.0
O1478 O 0.50924 0.73246 0.36624 0.0
O1479 O 0.48668 0.75033 0.39491 0.0
H1480 H 0.53158 0.77271 0.42837 0.0
H1481 H 0.55151 0.73106 0.39287 0.0
H1482 H 0.55138 0.7608 0.45285 0.0
H1483 H 0.57109 0.71989 0.41789 0.0
H1484 H 0.51536 0.80912 0.31593 0.0
H1485 H 0.53173 0.79301 0.37897 0.0
H1486 H 0.49682 0.78637 0.33233 0.0
H1487 H 0.54961 0.81574 0.36175 0.0
H1488 H 0.58859 0.76514 0.35697 0.0
H1489 H 0.55395 0.76149 0.30947 0.0
H1490 H 0.49431 0.8019 0.45192 0.0
H1491 H 0.49292 0.83634 0.40441 0.0
H1492 H 0.49646 0.72883 0.33272 0.0
H1493 H 0.54172 0.71698 0.3678 0.0
H1494 H 0.51295 0.71461 0.30724 0.0
H1495 H 0.55746 0.70298 0.34176 0.0
H1496 H 0.477 0.74106 0.42821 0.0
H1497 H 0.46504 0.77647 0.38325 0.0
H1498 H 0.45201 0.75541 0.44545 0.0
H1499 H 0.44021 0.79016 0.40125 0.0
H1500 H 0.51672 0.70685 0.45253 0.0
H1501 H 0.52461 0.67324 0.40507 0.0
H1502 H 0.45409 0.75517 0.31057 0.0
H1503 H 0.42574 0.73402 0.3572 0.0
Li1504 Li 0.01354 0.77388 0.62063 0.0
Li1505 Li 0.99453 0.76052 0.643 0.0
Li1506 Li 0.02738 0.75586 0.64416 0.0
Li1507 Li 0.00865 0.74179 0.61986 0.0
C1508 C 0.00612 0.79522 0.65118 0.0
N1509 N 0.98999 0.82793 0.65966 0.0
C1510 C 0.99164 0.80168 0.64069 0.0
C1511 C 0.01237 0.80537 0.66598 0.0
C1512 C 0.98368 0.81825 0.6452 0.0
C1513 C 1.00405 0.82189 0.67005 0.0
C1514 C 0.97406 0.75311 0.61209 0.0
C1515 C 0.95136 0.73007 0.61732 0.0
N1516 N 0.94125 0.73695 0.60345 0.0
C1517 C 0.96345 0.75994 0.59789 0.0
C1518 C 0.96799 0.73804 0.6219 0.0
C1519 C 0.94689 0.75159 0.59374 0.0
C1520 C 0.01218 0.79145 0.58703 0.0
N1521 N 0.01701 0.7941 0.60468 0.0
C1522 C 0.02735 0.82417 0.59801 0.0
C1523 C 0.02452 0.81004 0.61035 0.0
C1524 C 0.02265 0.82174 0.57965 0.0
C1525 C 0.01497 0.80512 0.57421 0.0
H1526 H 0.00636 0.77858 0.5829 0.0
H1527 H 0.02858 0.8117 0.62438 0.0
C1528 C 0.97612 0.7589 0.67606 0.0
N1529 N 0.97405 0.76384 0.6584 0.0
C1530 C 0.96215 0.7618 0.68845 0.0
C1531 C 0.94406 0.77461 0.66419 0.0
C1532 C 0.95844 0.77158 0.65229 0.0
C1533 C 0.94587 0.76983 0.68257 0.0
H1534 H 0.98875 0.75291 0.68055 0.0
H1535 H 0.95722 0.77571 0.63825 0.0
C1536 C 0.04541 0.7641 0.60895 0.0
N1537 N 0.07094 0.78461 0.59078 0.0
C1538 C 0.04855 0.7611 0.5905 0.0
C1539 C 0.05532 0.77747 0.61818 0.0
C1540 C 0.06149 0.77163 0.58155 0.0
C1541 C 0.06816 0.7877 0.60875 0.0
C1542 C 0.01497 0.72119 0.65187 0.0
C1543 C 0.03023 0.7144 0.64299 0.0
C1544 C 0.00745 0.71147 0.66628 0.0
C1545 C 0.03767 0.69792 0.64866 0.0
C1546 C 0.01529 0.69503 0.67153 0.0
N1547 N 0.03011 0.68866 0.66269 0.0
C1548 C 0.04388 0.75302 0.67847 0.0
C1549 C 0.06382 0.74709 0.65406 0.0
C1550 C 0.05757 0.74917 0.69108 0.0
N1551 N 0.04722 0.75191 0.66038 0.0
C1552 C 0.07797 0.74332 0.6662 0.0
C1553 C 0.07489 0.74423 0.68498 0.0
H1554 H 0.03047 0.75668 0.68307 0.0
H1555 H 0.06601 0.74588 0.63962 0.0
C1556 C 0.00796 0.72464 0.58601 0.0
N1557 N 1.00529 0.72147 0.60397 0.0
C1558 C 0.00571 0.71068 0.57334 0.0
C1559 C 0.99744 0.69052 0.59781 0.0
C1560 C 0.99982 0.70489 0.61 0.0
C1561 C 1.0005 0.69328 0.57919 0.0
H1562 H 0.01163 0.73811 0.58151 0.0
H1563 H 0.99718 0.70278 0.62425 0.0
O1564 O 0.01407 0.77894 0.64721 0.0
O1565 O 0.99034 0.76116 0.61614 0.0
O1566 O 0.03238 0.75437 0.61787 0.0
O1567 O 0.00759 0.73745 0.64681 0.0
H1568 H 0.98659 0.79403 0.62919 0.0
H1569 H 0.02353 0.80052 0.67426 0.0
H1570 H 0.97247 0.82341 0.63721 0.0
H1571 H 0.00875 0.8299 0.68147 0.0
H1572 H 0.9465 0.71841 0.6248 0.0
H1573 H 0.96798 0.77158 0.59015 0.0
H1574 H 0.97595 0.73254 0.63294 0.0
H1575 H 0.93854 0.75674 0.58278 0.0
H1576 H 0.03351 0.83671 0.60269 0.0
H1577 H 0.01106 0.80275 0.56021 0.0
H1578 H 0.96406 0.75778 0.70247 0.0
H1579 H 0.93184 0.78106 0.65915 0.0
H1580 H 0.04106 0.75079 0.58315 0.0
H1581 H 0.05289 0.78013 0.63242 0.0
H1582 H 0.06401 0.76951 0.56725 0.0
H1583 H 0.07583 0.79818 0.6157 0.0
H1584 H 0.03627 0.72175 0.63184 0.0
H1585 H 0.99569 0.7166 0.67333 0.0
H1586 H 0.04947 0.6925 0.64191 0.0
H1587 H 0.0096 0.68735 0.68265 0.0
H1588 H 0.05466 0.75011 0.70545 0.0
H1589 H 0.09105 0.73931 0.66095 0.0
H1590 H 0.00778 0.71357 0.55909 0.0
H1591 H 0.99344 0.67734 0.60296 0.0
Li1592 Li 0.51032 0.27103 0.12099 0.0
Li1593 Li 0.49158 0.25799 0.14376 0.0
Li1594 Li 0.52463 0.25091 0.14312 0.0
Li1595 Li 0.50286 0.2392 0.11777 0.0
C1596 C 0.51614 0.28935 0.15706 0.0
N1597 N 0.52377 0.32074 0.17624 0.0
C1598 C 0.50204 0.3004 0.16315 0.0
C1599 C 0.53412 0.2942 0.16084 0.0
C1600 C 0.50618 0.31624 0.17279 0.0
C1601 C 0.53769 0.31014 0.17053 0.0
C1602 C 0.47692 0.27292 0.10798 0.0
C1603 C 0.46456 0.28436 0.07986 0.0
N1604 N 0.46028 0.30018 0.08832 0.0
C1605 C 0.47224 0.28922 0.11644 0.0
C1606 C 0.47293 0.27038 0.08958 0.0
C1607 C 0.4639 0.30287 0.10625 0.0
C1608 C 0.51412 0.2906 0.08793 0.0
N1609 N 0.51422 0.29257 0.10631 0.0
C1610 C 0.5183 0.32469 0.10325 0.0
C1611 C 0.51629 0.30924 0.11404 0.0
C1612 C 0.51822 0.32305 0.08426 0.0
C1613 C 0.5162 0.30568 0.07661 0.0
H1614 H 0.5121 0.2773 0.08203 0.0
H1615 H 0.51616 0.31074 0.12856 0.0
C1616 C 0.47571 0.26248 0.17828 0.0
N1617 N 0.47199 0.26132 0.16021 0.0
C1618 C 0.46166 0.26433 0.19076 0.0
C1619 C 0.44021 0.2641 0.16579 0.0
C1620 C 0.45468 0.26207 0.1538 0.0
C1621 C 0.44362 0.26518 0.18455 0.0
H1622 H 0.48963 0.26186 0.18297 0.0
H1623 H 0.4521 0.26092 0.13937 0.0
C1624 C 0.54034 0.25803 0.10523 0.0
N1625 N 0.56609 0.27378 0.08312 0.0
C1626 C 0.54153 0.25293 0.087 0.0
C1627 C 0.55236 0.27096 0.11228 0.0
C1628 C 0.55462 0.26109 0.07602 0.0
C1629 C 0.56524 0.27883 0.10087 0.0
C1630 C 0.49307 0.22486 0.15695 0.0
C1631 C 0.49922 0.22226 0.17474 0.0
C1632 C 0.47559 0.21926 0.15203 0.0
C1633 C 0.48767 0.21419 0.18739 0.0
C1634 C 0.46445 0.21127 0.16508 0.0
N1635 N 0.47067 0.20894 0.18234 0.0
C1636 C 0.54527 0.24942 0.17548 0.0
C1637 C 0.56026 0.23813 0.14945 0.0
C1638 C 0.56043 0.24572 0.18632 0.0
N1639 N 0.54547 0.24559 0.15743 0.0
C1640 C 0.57574 0.23425 0.15977 0.0
C1641 C 0.57599 0.23803 0.17849 0.0
H1642 H 0.53329 0.25536 0.18145 0.0
H1643 H 0.56004 0.23526 0.13505 0.0
C1644 C 0.49699 0.22132 0.0839 0.0
N1645 N 0.49799 0.21904 0.1022 0.0
C1646 C 0.49322 0.20651 0.07256 0.0
C1647 C 0.49171 0.18732 0.09911 0.0
C1648 C 0.49563 0.20244 0.1099 0.0
C1649 C 0.49038 0.18925 0.08018 0.0
H1650 H 0.4991 0.23464 0.07811 0.0
H1651 H 0.49683 0.20091 0.12444 0.0
O1652 O 0.51237 0.27377 0.14765 0.0
O1653 O 0.48556 0.25961 0.11764 0.0
O1654 O 0.52744 0.25042 0.11612 0.0
O1655 O 0.50394 0.23327 0.14452 0.0
H1656 H 0.48804 0.29684 0.16044 0.0
H1657 H 0.5452 0.28576 0.15637 0.0
H1658 H 0.4954 0.32494 0.17753 0.0
H1659 H 0.55154 0.31408 0.17352 0.0
H1660 H 0.46149 0.28263 0.06558 0.0
H1661 H 0.47524 0.29138 0.13066 0.0
H1662 H 0.47637 0.25782 0.08285 0.0
H1663 H 0.46036 0.31562 0.11259 0.0
H1664 H 0.51997 0.33779 0.10974 0.0
H1665 H 0.51581 0.30382 0.06203 0.0
H1666 H 0.46487 0.26527 0.2051 0.0
H1667 H 0.42649 0.26449 0.16047 0.0
H1668 H 0.53239 0.24286 0.08136 0.0
H1669 H 0.55163 0.27499 0.12637 0.0
H1670 H 0.55564 0.25736 0.06186 0.0
H1671 H 0.57456 0.28895 0.10611 0.0
H1672 H 0.5127 0.22654 0.17877 0.0
H1673 H 0.47058 0.22134 0.13834 0.0
H1674 H 0.49221 0.21217 0.20123 0.0
H1675 H 0.45084 0.207 0.1615 0.0
H1676 H 0.55988 0.24865 0.20071 0.0
H1677 H 0.58747 0.22857 0.15308 0.0
H1678 H 0.49224 0.20861 0.05804 0.0
H1679 H 0.48994 0.17421 0.10553 0.0
H1680 H 0.23786 0.79546 0.86334 0.0
H1681 H 0.22614 0.74893 0.89706 0.0
H1682 H 0.23028 0.76744 0.92418 0.0
H1683 H 0.23652 0.79713 0.93853 0.0
H1684 H 0.24514 0.84407 0.90477 0.0
H1685 H 0.24247 0.82522 0.87746 0.0
C1686 C 0.23589 0.78933 0.87655 0.0
C1687 C 0.23177 0.77068 0.87795 0.0
C1688 C 0.23767 0.80019 0.89216 0.0
C1689 C 0.22971 0.76309 0.89539 0.0
C1690 C 0.2319 0.77372 0.91098 0.0
C1691 C 0.23785 0.80313 0.92515 0.0
C1692 C 0.24111 0.82186 0.92354 0.0
C1693 C 0.23586 0.79229 0.90954 0.0
C1694 C 0.24261 0.82965 0.90623 0.0
C1695 C 0.24111 0.81888 0.89066 0.0
H1696 H 0.01997 0.51146 0.38438 0.0
H1697 H 0.0426 0.56404 0.39741 0.0
H1698 H 0.06374 0.56138 0.37221 0.0
H1699 H 0.07583 0.54417 0.34641 0.0
H1700 H 0.05428 0.49087 0.3345 0.0
H1701 H 0.03278 0.49381 0.35931 0.0
C1702 C 0.02965 0.52226 0.38188 0.0
C1703 C 0.02958 0.53795 0.39282 0.0
C1704 C 0.04197 0.52056 0.36749 0.0
C1705 C 0.04208 0.55193 0.38908 0.0
C1706 C 0.05429 0.55037 0.37472 0.0
C1707 C 0.06659 0.53309 0.34934 0.0
C1708 C 0.06669 0.51736 0.33846 0.0
C1709 C 0.05436 0.53475 0.36383 0.0
C1710 C 0.05435 0.50329 0.34237 0.0
C1711 C 0.0421 0.50489 0.35667 0.0
H1712 H 0.76183 0.74773 0.87698 0.0
H1713 H 0.81139 0.72103 0.86125 0.0
H1714 H 0.80798 0.69947 0.88609 0.0
H1715 H 0.79106 0.68817 0.91233 0.0
H1716 H 0.74053 0.71364 0.92695 0.0
H1717 H 0.74425 0.73563 0.9025 0.0
C1718 C 0.7718 0.73708 0.87882 0.0
C1719 C 0.78691 0.73615 0.86723 0.0
C1720 C 0.76962 0.72449 0.89299 0.0
C1721 C 0.7998 0.72237 0.8701 0.0
C1722 C 0.7978 0.70991 0.88424 0.0
C1723 C 0.78071 0.69836 0.91005 0.0
C1724 C 0.76556 0.69919 0.92158 0.0
C1725 C 0.78277 0.71084 0.89578 0.0
C1726 C 0.7525 0.71278 0.91855 0.0
C1727 C 0.75454 0.72532 0.90446 0.0
H1728 H 0.99329 0.97033 0.37545 0.0
H1729 H 0.96021 1.00147 0.41214 0.0
H1730 H 0.93802 0.00662 0.38791 0.0
H1731 H 0.92797 1.00224 0.35621 0.0
H1732 H 0.96165 0.9717 0.31953 0.0
H1733 H 0.98361 0.96645 0.34381 0.0
C1734 C 0.98133 0.97842 0.37812 0.0
C1735 C 0.97848 0.98551 0.39562 0.0
C1736 C 0.96867 0.9814 0.36412 0.0
C1737 C 0.96268 0.99566 0.39888 0.0
C1738 C 0.95002 0.9987 0.38499 0.0
C1739 C 0.94018 0.99456 0.3535 0.0
C1740 C 0.94306 0.9873 0.33606 0.0
C1741 C 0.95287 0.99164 0.36754 0.0
C1742 C 0.9589 0.9772 0.33287 0.0
C1743 C 0.97155 0.97427 0.34673 0.0
H1744 H 0.24386 0.24813 0.6253 0.0
H1745 H 0.20524 0.21243 0.65084 0.0
H1746 H 0.20937 0.19003 0.62667 0.0
H1747 H 0.22399 0.18061 0.59822 0.0
H1748 H 0.26176 0.21678 0.57209 0.0
H1749 H 0.258 0.23898 0.59651 0.0
C1750 C 0.23643 0.2354 0.62558 0.0
C1751 C 0.22431 0.23189 0.63983 0.0
C1752 C 0.23872 0.2227 0.61153 0.0
C1753 C 0.21455 0.21547 0.63993 0.0
C1754 C 0.21696 0.20264 0.62616 0.0
C1755 C 0.23145 0.19333 0.59796 0.0
C1756 C 0.24318 0.19706 0.58345 0.0
C1757 C 0.22902 0.20611 0.61191 0.0
C1758 C 0.25258 0.21368 0.5831 0.0
C1759 C 0.25047 0.22633 0.59707 0.0
H1760 H 0.47727 0.51525 0.61673 0.0
H1761 H 0.5072 0.55598 0.64667 0.0
H1762 H 0.48689 0.55224 0.67245 0.0
H1763 H 0.46044 0.53762 0.68644 0.0
H1764 H 0.43097 0.49635 0.65678 0.0
H1765 H 0.45127 0.5001 0.631 0.0
C1766 C 0.47948 0.52316 0.62897 0.0
C1767 C 0.49375 0.53589 0.62971 0.0
C1768 C 0.46777 0.52091 0.64379 0.0
C1769 C 0.49621 0.54625 0.6456 0.0
C1770 C 0.48464 0.54406 0.66041 0.0
C1771 C 0.45856 0.52931 0.67441 0.0
C1772 C 0.44414 0.51675 0.67358 0.0
C1773 C 0.47035 0.53146 0.65964 0.0
C1774 C 0.44177 0.50631 0.65773 0.0
C1775 C 0.45345 0.50836 0.643 0.0
H1776 H 0.8013 0.28962 0.64212 0.0
H1777 H 0.7546 0.25661 0.62892 0.0
H1778 H 0.74761 0.27628 0.60314 0.0
H1779 H 0.7545 0.30307 0.58458 0.0
H1780 H 0.80152 0.33581 0.59747 0.0
H1781 H 0.80834 0.31631 0.62338 0.0
C1782 C 0.78951 0.28682 0.63369 0.0
C1783 C 0.7785 0.27165 0.63746 0.0
C1784 C 0.78555 0.2982 0.61888 0.0
C1785 C 0.76343 0.26806 0.62621 0.0
C1786 C 0.75936 0.27936 0.61152 0.0
C1787 C 0.76635 0.30586 0.59292 0.0
C1788 C 0.77744 0.32095 0.58903 0.0
C1789 C 0.77033 0.29446 0.60771 0.0
C1790 C 0.79257 0.32448 0.60025 0.0
C1791 C 0.79656 0.31325 0.61502 0.0
H1792 H 0.51574 0.9991 0.63117 0.0
H1793 H 0.5393 0.94739 0.61738 0.0
H1794 H 0.56111 0.9505 0.64231 0.0
H1795 H 0.57318 0.96764 0.6683 0.0
H1796 H 0.55031 0.01989 0.68147 0.0
H1797 H 0.5283 0.01659 0.65683 0.0
C1798 C 0.52559 0.98847 0.6337 0.0
C1799 C 0.52589 0.97304 0.62243 0.0
C1800 C 0.53814 0.99037 0.64804 0.0
C1801 C 0.53889 0.95949 0.62573 0.0
C1802 C 0.55131 0.96122 0.64005 0.0
C1803 C 0.56355 0.97844 0.66568 0.0
C1804 C 0.56345 0.99397 0.67685 0.0
C1805 C 0.55107 0.9766 0.65128 0.0
C1806 C 0.55057 0.00763 0.67336 0.0
C1807 C 0.53803 0.00583 0.65916 0.0
H1808 H 0.86852 0.2134 0.79244 0.0
H1809 H 0.88295 0.25657 0.75565 0.0
H1810 H 0.90933 0.26405 0.77445 0.0
H1811 H 0.92849 0.25814 0.8011 0.0
H1812 H 0.91371 0.21549 0.83842 0.0
H1813 H 0.88758 0.20772 0.81941 0.0
C1814 C 0.87751 0.22436 0.78849 0.0
C1815 C 0.87374 0.23442 0.77267 0.0
C1816 C 0.89267 0.22862 0.79939 0.0
C1817 C 0.88541 0.24875 0.76786 0.0
C1818 C 0.90055 0.25298 0.77856 0.0
C1819 C 0.91946 0.24728 0.80522 0.0
C1820 C 0.92314 0.23743 0.82121 0.0
C1821 C 0.9043 0.24303 0.79436 0.0
C1822 C 0.91142 0.22315 0.82608 0.0
C1823 C 0.89637 0.21877 0.81527 0.0
H1824 H 0.49044 0.89612 0.47213 0.0
H1825 H 0.45333 0.86544 0.50533 0.0
H1826 H 0.45721 0.83896 0.48578 0.0
H1827 H 0.47138 0.82437 0.45938 0.0
H1828 H 0.50908 0.8549 0.42669 0.0
H1829 H 0.50473 0.88151 0.44591 0.0
C1830 C 0.48331 0.8836 0.47519 0.0
C1831 C 0.47162 0.88281 0.49021 0.0
C1832 C 0.48569 0.86837 0.46395 0.0
C1833 C 0.46225 0.86653 0.49375 0.0
C1834 C 0.46455 0.85133 0.48263 0.0
C1835 C 0.47876 0.8368 0.45654 0.0
C1836 C 0.49053 0.8376 0.44158 0.0
C1837 C 0.47627 0.85207 0.46772 0.0
C1838 C 0.49975 0.85394 0.43795 0.0
C1839 C 0.49735 0.86916 0.44901 0.0
H1840 H 0.14761 0.26636 0.79072 0.0
H1841 H 0.12115 0.30771 0.75881 0.0
H1842 H 0.09454 0.30608 0.7784 0.0
H1843 H 0.07891 0.29308 0.80466 0.0
H1844 H 0.10472 0.25048 0.83563 0.0
H1845 H 0.13157 0.25274 0.81662 0.0
C1846 C 0.13604 0.27507 0.78815 0.0
C1847 C 0.13633 0.28714 0.77337 0.0
C1848 C 0.12071 0.27392 0.79935 0.0
C1849 C 0.12117 0.2982 0.77003 0.0
C1850 C 0.10599 0.29732 0.78126 0.0
C1851 C 0.09029 0.28411 0.80716 0.0
C1852 C 0.08971 0.27168 0.82168 0.0
C1853 C 0.10559 0.28519 0.79592 0.0
C1854 C 0.10481 0.26043 0.82482 0.0
C1855 C 0.12017 0.2616 0.81384 0.0
H1856 H 0.55119 0.61927 0.47264 0.0
H1857 H 0.50684 0.6329 0.50806 0.0
H1858 H 0.49897 0.65857 0.48867 0.0
H1859 H 0.50451 0.67711 0.46152 0.0
H1860 H 0.54869 0.66338 0.42596 0.0
H1861 H 0.55651 0.63761 0.44529 0.0
C1862 C 0.53969 0.62774 0.47602 0.0
C1863 C 0.52969 0.62416 0.49186 0.0
C1864 C 0.53514 0.64245 0.46473 0.0
C1865 C 0.51497 0.63547 0.49613 0.0
C1866 C 0.51038 0.65011 0.48499 0.0
C1867 C 0.51593 0.66856 0.45808 0.0
C1868 C 0.52597 0.67219 0.44229 0.0
C1869 C 0.5204 0.65377 0.46929 0.0
C1870 C 0.54057 0.66079 0.4379 0.0
C1871 C 0.54513 0.64609 0.449 0.0
H1872 H 0.89246 0.79088 0.74593 0.0
H1873 H 0.85316 0.76956 0.70772 0.0
H1874 H 0.87727 0.76356 0.686 0.0
H1875 H 0.90963 0.76386 0.67797 0.0
H1876 H 0.94893 0.78431 0.71657 0.0
H1877 H 0.92475 0.79069 0.73816 0.0
C1878 C 0.88914 0.78472 0.73295 0.0
C1879 C 0.87094 0.78074 0.72853 0.0
C1880 C 0.90311 0.78103 0.7206 0.0
C1881 C 0.86697 0.77307 0.71144 0.0
C1882 C 0.88078 0.76949 0.69903 0.0
C1883 C 0.91287 0.76981 0.69107 0.0
C1884 C 0.93106 0.77358 0.69565 0.0
C1885 C 0.8989 0.77342 0.70346 0.0
C1886 C 0.93507 0.78108 0.71278 0.0
C1887 C 0.92124 0.78482 0.7251 0.0
H1888 H 0.04093 0.87445 0.51449 0.0
H1889 H 0.01688 0.91339 0.5508 0.0
H1890 H 0.01201 0.88958 0.57337 0.0
H1891 H 0.01449 0.8576 0.58278 0.0
H1892 H 0.03805 0.81858 0.54624 0.0
H1893 H 0.04325 0.84246 0.52381 0.0
C1894 C 0.03473 0.87772 0.5274 0.0
C1895 C 0.02929 0.89566 0.53097 0.0
C1896 C 0.03187 0.86394 0.54027 0.0
C1897 C 0.02103 0.89966 0.54765 0.0
C1898 C 0.01832 0.88607 0.5606 0.0
C1899 C 0.02087 0.85438 0.56995 0.0
C1900 C 0.02589 0.83637 0.56618 0.0
C1901 C 0.02367 0.86816 0.55705 0.0
C1902 C 0.03392 0.83232 0.54939 0.0
C1903 C 0.03696 0.84598 0.5366 0.0
H1904 H 0.12844 0.71805 0.74708 0.0
H1905 H 0.16556 0.75166 0.7169 0.0
H1906 H 0.14159 0.75884 0.69499 0.0
H1907 H 0.10998 0.75574 0.6845 0.0
H1908 H 0.07266 0.72266 0.71501 0.0
H1909 H 0.09674 0.71513 0.73669 0.0
C1910 C 0.13128 0.72684 0.73562 0.0
C1911 C 0.14874 0.73429 0.73359 0.0
C1912 C 0.11738 0.73106 0.72318 0.0
C1913 C 0.15218 0.74587 0.71884 0.0
C1914 C 0.1385 0.74993 0.70627 0.0
C1915 C 0.10717 0.74679 0.69584 0.0
C1916 C 0.08957 0.73976 0.69814 0.0
C1917 C 0.12104 0.74263 0.70832 0.0
C1918 C 0.08605 0.72839 0.71304 0.0
C1919 C 0.09983 0.72401 0.72539 0.0
H1920 H 1.00194 0.63352 0.51741 0.0
H1921 H 0.95445 0.61515 0.54609 0.0
H1922 H 0.95785 0.64005 0.56777 0.0
H1923 H 0.97414 0.66718 0.57847 0.0
H1924 H 0.02188 0.68534 0.55002 0.0
H1925 H 0.01828 0.66066 0.52816 0.0
C1926 C 0.99224 0.63506 0.52831 0.0
C1927 C 0.97798 0.62246 0.53012 0.0
C1928 C 0.99426 0.64943 0.54073 0.0
C1929 C 0.96568 0.62452 0.54449 0.0
C1930 C 0.96756 0.63881 0.55685 0.0
C1931 C 0.98387 0.66565 0.5676 0.0
C1932 C 0.99825 0.67815 0.56593 0.0
C1933 C 0.98182 0.65132 0.55514 0.0
C1934 C 0.01053 0.6761 0.55153 0.0
C1935 C 0.00856 0.66191 0.53906 0.0
H1936 H 0.78254 0.87435 0.20447 0.0
H1937 H 0.76644 0.87164 0.26054 0.0
H1938 H 0.787 0.89677 0.26805 0.0
H1939 H 0.80973 0.9192 0.25868 0.0
H1940 H 0.8238 0.92365 0.20198 0.0
H1941 H 0.80418 0.89797 0.19482 0.0
C1942 C 0.78364 0.87927 0.21832 0.0
C1943 C 0.77314 0.87117 0.23197 0.0
C1944 C 0.79518 0.89396 0.22245 0.0
C1945 C 0.77441 0.87775 0.24984 0.0
C1946 C 0.78617 0.89207 0.25412 0.0
C1947 C 0.80835 0.91481 0.24469 0.0
C1948 C 0.81849 0.92341 0.23097 0.0
C1949 C 0.7966 0.90031 0.24052 0.0
C1950 C 0.81661 0.91714 0.21297 0.0
C1951 C 0.80523 0.9025 0.20879 0.0
H1952 H 0.76482 0.12214 0.29158 0.0
H1953 H 0.80272 0.1606 0.26891 0.0
H1954 H 0.82421 0.1362 0.26319 0.0
H1955 H 0.83216 0.10385 0.26415 0.0
H1956 H 0.79409 0.06524 0.28618 0.0
H1957 H 0.77263 0.0897 0.29219 0.0
C1958 C 0.7777 0.12518 0.28522 0.0
C1959 C 0.78211 0.14326 0.28079 0.0
C1960 C 0.78996 0.11102 0.28175 0.0
C1961 C 0.79903 0.14691 0.27278 0.0
C1962 C 0.81131 0.13292 0.26937 0.0
C1963 C 0.81923 0.1008 0.2704 0.0
C1964 C 0.81477 0.08272 0.27471 0.0
C1965 C 0.80694 0.11494 0.27382 0.0
C1966 C 0.79781 0.079 0.28255 0.0
C1967 C 0.78555 0.093 0.28607 0.0
H1968 H 0.3739 0.9964 0.97227 0.0
H1969 H 0.40944 0.96515 0.00682 0.0
H1970 H 0.38471 0.94395 0.01332 0.0
H1971 H 0.35322 0.9337 0.00828 0.0
H1972 H 0.31768 0.96558 0.97419 0.0
H1973 H 0.34226 0.98685 0.96816 0.0
C1974 C 0.37626 0.98489 0.98115 0.0
C1975 C 0.39351 0.98231 0.98897 0.0
C1976 C 0.362 0.97277 0.98481 0.0
C1977 C 0.39625 0.96752 1.00072 0.0
C1978 C 0.38214 0.95534 1.00437 0.0
C1979 C 0.35078 0.94541 0.99971 0.0
C1980 C 0.33361 0.94785 0.99157 0.0
C1981 C 0.36497 0.95777 0.99641 0.0
C1982 C 0.33081 0.96307 0.98034 0.0
C1983 C 0.34484 0.97535 0.97697 0.0
H1984 H 0.24451 0.38492 0.29762 0.0
H1985 H 0.21597 0.34999 0.26004 0.0
H1986 H 0.1941 0.37412 0.25375 0.0
H1987 H 0.18347 0.40529 0.2585 0.0
H1988 H 0.2112 0.43974 0.29727 0.0
H1989 H 0.23322 0.41582 0.30315 0.0
C1990 C 0.23354 0.38265 0.288 0.0
C1991 C 0.23187 0.36573 0.27928 0.0
C1992 C 0.22095 0.39653 0.28455 0.0
C1993 C 0.21745 0.36286 0.26703 0.0
C1994 C 0.205 0.37667 0.26337 0.0
C1995 C 0.19416 0.40754 0.26843 0.0
C1996 C 0.19563 0.42443 0.27732 0.0
C1997 C 0.20662 0.39357 0.27205 0.0
C1998 C 0.20985 0.42707 0.28991 0.0
C1999 C 0.22241 0.41333 0.29342 0.0
H2000 H 0.11481 0.03876 0.49723 0.0
H2001 H 0.13922 0.01092 0.45199 0.0
H2002 H 0.166 0.03035 0.4545 0.0
H2003 H 0.18251 0.05533 0.46949 0.0
H2004 H 0.1586 0.08199 0.51572 0.0
H2005 H 0.1317 0.06288 0.51287 0.0
C2006 C 0.12606 0.03675 0.48805 0.0
C2007 C 0.12491 0.02336 0.47443 0.0
C2008 C 0.14154 0.04781 0.4897 0.0
C2009 C 0.13955 0.02126 0.46244 0.0
C2010 C 0.15496 0.0323 0.46394 0.0
C2011 C 0.17151 0.05684 0.47908 0.0
C2012 C 0.17261 0.07021 0.49273 0.0
C2013 C 0.1561 0.04563 0.47751 0.0
C2014 C 0.15805 0.07209 0.50486 0.0
C2015 C 0.14268 0.06106 0.50333 0.0
H2016 H 0.71904 0.14849 0.73999 0.0
H2017 H 0.76196 0.11492 0.71888 0.0
H2018 H 0.74334 0.08788 0.72337 0.0
H2019 H 0.71452 0.07373 0.73257 0.0
H2020 H 0.67125 0.10747 0.7525 0.0
H2021 H 0.6902 0.13447 0.74878 0.0
C2022 C 0.72429 0.1353 0.73617 0.0
C2023 C 0.74195 0.13384 0.72913 0.0
C2024 C 0.71339 0.1198 0.73848 0.0
C2025 C 0.74856 0.11651 0.7246 0.0
C2026 C 0.73786 0.10101 0.72704 0.0
C2027 C 0.70931 0.08699 0.73622 0.0
C2028 C 0.6915 0.08859 0.74278 0.0
C2029 C 0.72024 0.10249 0.73393 0.0
C2030 C 0.68485 0.10589 0.74724 0.0
C2031 C 0.6957 0.12133 0.74519 0.0
H2032 H 0.39567 0.03568 0.51693 0.0
H2033 H 0.3685 0.00719 0.56019 0.0
H2034 H 0.34228 0.0271 0.55694 0.0
H2035 H 0.32703 0.05266 0.54187 0.0
H2036 H 0.35379 0.08041 0.49787 0.0
H2037 H 0.38012 0.06071 0.50136 0.0
C2038 C 0.38395 0.03368 0.52553 0.0
C2039 C 0.38414 0.01994 0.53882 0.0
C2040 C 0.36882 0.04509 0.52349 0.0
C2041 C 0.36889 0.0178 0.55003 0.0
C2042 C 0.35382 0.02912 0.5481 0.0
C2043 C 0.33853 0.05429 0.53291 0.0
C2044 C 0.33839 0.06808 0.51966 0.0
C2045 C 0.35363 0.04281 0.53489 0.0
C2046 C 0.35359 0.07013 0.50837 0.0
C2047 C 0.36864 0.05879 0.51028 0.0
H2048 H 0.61385 0.47116 0.5228 0.0
H2049 H 0.64773 0.5107 0.54991 0.0
H2050 H 0.67427 0.49142 0.54546 0.0
H2051 H 0.68784 0.46312 0.53411 0.0
H2052 H 0.65382 0.42323 0.50768 0.0
H2053 H 0.62739 0.44279 0.51158 0.0
C2054 C 0.62708 0.47559 0.5276 0.0
C2055 C 0.62883 0.49234 0.53664 0.0
C2056 C 0.64225 0.46434 0.52515 0.0
C2057 C 0.64601 0.4978 0.54303 0.0
C2058 C 0.6612 0.48681 0.54043 0.0
C2059 C 0.67465 0.45879 0.5291 0.0
C2060 C 0.67279 0.44177 0.5206 0.0
C2061 C 0.65948 0.47004 0.53155 0.0
C2062 C 0.65557 0.43621 0.51441 0.0
C2063 C 0.64047 0.44742 0.51657 0.0
H2064 H 0.75101 0.26604 0.38462 0.0
H2065 H 0.71236 0.30075 0.3574 0.0
H2066 H 0.71496 0.32291 0.38184 0.0
H2067 H 0.72782 0.33237 0.41124 0.0
H2068 H 0.76531 0.29714 0.4392 0.0
H2069 H 0.76321 0.2751 0.41441 0.0
C2070 C 0.74298 0.27834 0.38409 0.0
C2071 C 0.7316 0.28168 0.36903 0.0
C2072 C 0.74426 0.29093 0.3984 0.0
C2073 C 0.72152 0.29789 0.36857 0.0
C2074 C 0.72288 0.31056 0.38264 0.0
C2075 C 0.7356 0.31991 0.41183 0.0
C2076 C 0.74672 0.31639 0.42699 0.0
C2077 C 0.73422 0.30724 0.39761 0.0
C2078 C 0.75654 0.30008 0.42772 0.0
C2079 C 0.7554 0.28751 0.41353 0.0
H2080 H 0.53906 0.04852 0.89139 0.0
H2081 H 0.51121 0.9974 0.88387 0.0
H2082 H 0.53068 0.99031 0.85817 0.0
H2083 H 0.5557 0.99853 0.83786 0.0
H2084 H 0.58255 0.0503 0.84453 0.0
H2085 H 0.56337 0.05718 0.87048 0.0
C2086 C 0.53708 0.03592 0.88402 0.0
C2087 C 0.52368 0.02352 0.88966 0.0
C2088 C 0.54821 0.03199 0.8691 0.0
C2089 C 0.52158 0.0071 0.88007 0.0
C2090 C 0.53264 1.00307 0.86527 0.0
C2091 C 0.55724 0.01141 0.84484 0.0
C2092 C 0.57065 0.02382 0.83923 0.0
C2093 C 0.54601 0.0154 0.85967 0.0
C2094 C 0.57259 0.04033 0.84869 0.0
C2095 C 0.56153 0.04435 0.86348 0.0
H2096 H 0.26504 0.24514 0.38104 0.0
H2097 H 0.30871 0.2133 0.35901 0.0
H2098 H 0.30565 0.19143 0.38375 0.0
H2099 H 0.29061 0.18137 0.41174 0.0
H2100 H 0.24716 0.21338 0.43396 0.0
H2101 H 0.25007 0.23514 0.40909 0.0
C2102 C 0.27379 0.23334 0.3816 0.0
C2103 C 0.28707 0.23084 0.3682 0.0
C2104 C 0.27202 0.22087 0.39593 0.0
C2105 C 0.2985 0.21563 0.36925 0.0
C2106 C 0.29671 0.20307 0.38335 0.0
C2107 C 0.2817 0.19305 0.41105 0.0
C2108 C 0.26869 0.19575 0.42466 0.0
C2109 C 0.28352 0.20555 0.39677 0.0
C2110 C 0.25741 0.21109 0.42374 0.0
C2111 C 0.25901 0.22349 0.40948 0.0
H2112 H 0.49899 0.47155 0.87533 0.0
H2113 H 0.46196 0.49568 0.91347 0.0
H2114 H 0.44011 0.50109 0.88902 0.0
H2115 H 0.4314 0.49881 0.85677 0.0
H2116 H 0.46884 0.4753 0.81863 0.0
H2117 H 0.49062 0.46991 0.84309 0.0
C2118 C 0.48623 0.47818 0.87828 0.0
C2119 C 0.48216 0.48318 0.89624 0.0
C2120 C 0.47374 0.48133 0.86414 0.0
C2121 C 0.46538 0.49146 0.89983 0.0
C2122 C 0.4529 0.49467 0.88583 0.0
C2123 C 0.44439 0.49267 0.85378 0.0
C2124 C 0.44841 0.48741 0.83588 0.0
C2125 C 0.45692 0.48964 0.86793 0.0
C2126 C 0.46524 0.47924 0.83231 0.0
C2127 C 0.47777 0.47623 0.84628 0.0
H2128 H 0.75012 0.74678 0.12768 0.0
H2129 H 0.69883 0.72205 0.1414 0.0
H2130 H 0.70223 0.70034 0.11668 0.0
H2131 H 0.71963 0.68836 0.09106 0.0
H2132 H 0.77161 0.71207 0.07822 0.0
H2133 H 0.76804 0.7341 0.10269 0.0
C2134 C 0.73976 0.73653 0.12541 0.0
C2135 C 0.72419 0.73619 0.1364 0.0
C2136 C 0.74189 0.72388 0.11127 0.0
C2137 C 0.71081 0.72292 0.133 0.0
C2138 C 0.7128 0.71037 0.11893 0.0
C2139 C 0.73031 0.69819 0.09374 0.0
C2140 C 0.74585 0.69852 0.08272 0.0
C2141 C 0.72827 0.71073 0.10797 0.0
C2142 C 0.75937 0.71162 0.08625 0.0
C2143 C 0.7574 0.72418 0.10034 0.0
H2144 H 0.99895 0.04551 0.14089 0.0
H2145 H 0.96477 0.01827 0.10164 0.0
H2146 H 0.94227 0.01215 0.12511 0.0
H2147 H 0.93236 0.01441 0.15687 0.0
H2148 H 0.9668 0.04107 0.19627 0.0
H2149 H 0.98911 0.0476 0.1727 0.0
C2150 C 0.98651 0.03834 0.13748 0.0
C2151 C 0.98352 0.03237 0.11956 0.0
C2152 C 0.9737 0.03476 0.15107 0.0
C2153 C 0.96747 0.02286 0.11537 0.0
C2154 C 0.95456 0.01943 0.12876 0.0
C2155 C 0.94469 0.02177 0.16024 0.0
C2156 C 0.94791 0.0273 0.17825 0.0
C2157 C 0.95753 0.02531 0.14666 0.0
C2158 C 0.96408 0.03657 0.18251 0.0
C2159 C 0.97681 0.04036 0.16904 0.0
H2160 H 0.27162 0.79366 0.15044 0.0
H2161 H 0.29842 0.75305 0.11807 0.0
H2162 H 0.29497 0.77202 0.0911 0.0
H2163 H 0.28455 0.80025 0.0767 0.0
H2164 H 0.25753 0.84074 0.10907 0.0
H2165 H 0.26132 0.82194 0.13607 0.0
C2166 C 0.27687 0.78903 0.13753 0.0
C2167 C 0.28523 0.77192 0.13632 0.0
C2168 C 0.27491 0.80005 0.12206 0.0
C2169 C 0.2917 0.76604 0.11938 0.0
C2170 C 0.28983 0.77693 0.10395 0.0
C2171 C 0.27935 0.80491 0.08963 0.0
C2172 C 0.27078 0.82194 0.09079 0.0
C2173 C 0.28141 0.79394 0.10511 0.0
C2174 C 0.26441 0.82785 0.10776 0.0
C2175 C 0.26646 0.81704 0.12322 0.0
H2176 H 0.04061 0.46371 0.12011 0.0
H2177 H 1.00225 0.50374 0.13863 0.0
H2178 H 0.02125 0.50994 0.16513 0.0
H2179 H 0.04909 0.50452 0.18282 0.0
H2180 H 0.08793 0.46527 0.16381 0.0
H2181 H 0.06864 0.45862 0.13752 0.0
C2182 C 0.03647 0.47393 0.12982 0.0
C2183 C 0.01993 0.48317 0.12732 0.0
C2184 C 0.04762 0.47768 0.14492 0.0
C2185 C 0.01471 0.49616 0.14029 0.0
C2186 C 0.02565 0.49984 0.15541 0.0
C2187 C 0.05326 0.49442 0.17298 0.0
C2188 C 0.06992 0.48541 0.17528 0.0
C2189 C 0.04213 0.4907 0.15786 0.0
C2190 C 0.07526 0.47254 0.16227 0.0
C2191 C 0.0642 0.46867 0.14728 0.0
H2192 H 0.36085 0.74081 0.29376 0.0
H2193 H 0.39214 0.71241 0.25352 0.0
H2194 H 0.41963 0.71643 0.27188 0.0
H2195 H 0.43477 0.728 0.29944 0.0
H2196 H 0.40333 0.75532 0.3403 0.0
H2197 H 0.3759 0.75175 0.32171 0.0
C2198 C 0.37373 0.73559 0.28902 0.0
C2199 C 0.37452 0.72639 0.27231 0.0
C2200 C 0.38942 0.73773 0.29977 0.0
C2201 C 0.39121 0.71945 0.26639 0.0
C2202 C 0.40692 0.7218 0.27685 0.0
C2203 C 0.42191 0.73324 0.3042 0.0
C2204 C 0.42106 0.74198 0.32115 0.0
C2205 C 0.40619 0.73092 0.29356 0.0
C2206 C 0.40428 0.74846 0.32732 0.0
C2207 C 0.38863 0.74648 0.31668 0.0
H2208 H 0.95949 0.38212 0.98889 0.0
H2209 H 0.01028 0.40829 0.97568 0.0
H2210 H 0.01782 0.38331 0.9555 0.0
H2211 H 0.01019 0.35408 0.94161 0.0
H2212 H 0.95776 0.32985 0.95183 0.0
H2213 H 0.95083 0.35406 0.97315 0.0
C2214 C 0.97209 0.38262 0.9814 0.0
C2215 C 0.9843 0.39717 0.98408 0.0
C2216 C 0.97616 0.36846 0.9693 0.0
C2217 C 1.00072 0.39717 0.97438 0.0
C2218 C 1.00502 0.38293 0.96265 0.0
C2219 C 0.99708 0.35416 0.94818 0.0
C2220 C 0.98462 0.33991 0.94503 0.0
C2221 C 0.99285 0.3685 0.96001 0.0
C2222 C 0.96789 0.34027 0.95417 0.0
C2223 C 0.96379 0.35426 0.96629 0.0
H2224 H 0.64815 0.76554 0.28951 0.0
H2225 H 0.61701 0.8004 0.25415 0.0
H2226 H 0.59047 0.7966 0.27347 0.0
H2227 H 0.5762 0.78374 0.30063 0.0
H2228 H 0.60722 0.74854 0.3358 0.0
H2229 H 0.63379 0.75248 0.31659 0.0
C2230 C 0.63559 0.77242 0.28611 0.0
C2231 C 0.63458 0.78322 0.27039 0.0
C2232 C 0.62038 0.7702 0.29731 0.0
C2233 C 0.61811 0.79183 0.26604 0.0
C2234 C 0.60295 0.78974 0.27714 0.0
C2235 C 0.58871 0.77677 0.304 0.0
C2236 C 0.58967 0.76588 0.31969 0.0
C2237 C 0.60391 0.77895 0.29279 0.0
C2238 C 0.60613 0.75721 0.32398 0.0
C2239 C 0.62132 0.75936 0.31293 0.0
H2240 H 0.02006 0.11667 0.97104 0.0
H2241 H 0.0489 0.1488 0.0109 0.0
H2242 H 0.04493 0.17587 0.9922 0.0
H2243 H 0.03379 0.19035 0.96422 0.0
H2244 H 1.00508 0.15815 0.92432 0.0
H2245 H 0.00887 0.13114 0.94313 0.0
C2246 C 0.02563 0.12956 0.97557 0.0
C2247 C 0.03476 0.13066 0.99238 0.0
C2248 C 0.02342 0.14506 0.96468 0.0
C2249 C 0.04161 0.14757 0.99815 0.0
C2250 C 0.03944 0.16305 0.9874 0.0
C2251 C 0.02822 0.17746 0.95971 0.0
C2252 C 0.01921 0.1763 0.94284 0.0
C2253 C 0.03038 0.16196 0.97064 0.0
C2254 C 0.0123 0.15941 0.93711 0.0
C2255 C 0.01437 0.14396 0.94791 0.0
H2256 H 0.38478 0.26352 0.24658 0.0
H2257 H 0.36137 0.30546 0.21293 0.0
H2258 H 0.3861 0.30224 0.19135 0.0
H2259 H 0.41464 0.28783 0.18214 0.0
H2260 H 0.43861 0.24669 0.21625 0.0
H2261 H 0.41364 0.24961 0.23773 0.0
C2262 C 0.38516 0.27212 0.23465 0.0
C2263 C 0.37111 0.28466 0.23142 0.0
C2264 C 0.3996 0.27041 0.22239 0.0
C2265 C 0.37177 0.29546 0.21567 0.0
C2266 C 0.386 0.29373 0.20335 0.0
C2267 C 0.41432 0.27943 0.19423 0.0
C2268 C 0.42844 0.26705 0.19758 0.0
C2269 C 0.39997 0.28124 0.20656 0.0
C2270 C 0.42799 0.25644 0.21344 0.0
C2271 C 0.41368 0.25805 0.22568 0.0
H2272 H 0.51766 0.39865 0.04358 0.0
H2273 H 0.55499 0.37019 0.00889 0.0
H2274 H 0.55198 0.34295 0.02758 0.0
H2275 H 0.53882 0.32721 0.05391 0.0
H2276 H 0.50134 0.3557 0.08842 0.0
H2277 H 0.50428 0.38286 0.06966 0.0
C2278 C 0.52501 0.38643 0.04001 0.0
C2279 C 0.53653 0.38648 0.02485 0.0
C2280 C 0.52321 0.37081 0.05082 0.0
C2281 C 0.54619 0.37061 0.0206 0.0
C2282 C 0.5444 0.35499 0.03123 0.0
C2283 C 0.53118 0.33932 0.05722 0.0
C2284 C 0.51991 0.33942 0.07257 0.0
C2285 C 0.53296 0.35493 0.04638 0.0
C2286 C 0.51029 0.35532 0.07682 0.0
C2287 C 0.5119 0.37083 0.06605 0.0
H2288 H 0.64671 0.2105 0.21909 0.0
H2289 H 0.63798 0.26 0.24917 0.0
H2290 H 0.61135 0.26666 0.2306 0.0
H2291 H 0.5905 0.25854 0.20582 0.0
H2292 H 0.59835 0.20845 0.17649 0.0
H2293 H 0.62531 0.20197 0.19475 0.0
C2294 C 0.63889 0.22266 0.2217 0.0
C2295 C 0.64446 0.23475 0.23548 0.0
C2296 C 0.62343 0.22635 0.21107 0.0
C2297 C 0.63425 0.25058 0.23848 0.0
C2298 C 0.61892 0.25436 0.22793 0.0
C2299 C 0.59797 0.2461 0.20354 0.0
C2300 C 0.59235 0.23403 0.18976 0.0
C2301 C 0.61338 0.24235 0.21419 0.0
C2302 C 0.60246 0.21813 0.18681 0.0
C2303 C 0.61784 0.21434 0.19733 0.0
H2304 H 0.46367 0.11772 0.04061 0.0
H2305 H 0.50561 0.13361 1.00315 0.0
H2306 H 0.51195 0.16067 0.02128 0.0
H2307 H 0.50618 0.17948 0.04826 0.0
H2308 H 0.46475 0.16314 0.08605 0.0
H2309 H 0.45791 0.13645 0.06752 0.0
C2310 C 0.47432 0.127 0.03648 0.0
C2311 C 0.48412 0.12357 0.0205 0.0
C2312 C 0.47807 0.14244 0.04709 0.0
C2313 C 0.49766 0.13598 0.01523 0.0
C2314 C 0.50139 0.15142 0.02566 0.0
C2315 C 0.49554 0.17016 0.05234 0.0
C2316 C 0.48602 0.17329 0.06854 0.0
C2317 C 0.49171 0.15478 0.04164 0.0
C2318 C 0.47244 0.16094 0.07376 0.0
C2319 C 0.46846 0.14571 0.06313 0.0
H2320 H 0.27199 0.37318 0.7536 0.0
H2321 H 0.28355 0.36929 0.69646 0.0
H2322 H 0.30464 0.39494 0.69886 0.0
H2323 H 0.31943 0.41856 0.71712 0.0
H2324 H 0.30999 0.42068 0.77494 0.0
H2325 H 0.28812 0.39598 0.77226 0.0
C2326 C 0.27913 0.37803 0.74171 0.0
C2327 C 0.27624 0.36949 0.72488 0.0
C2328 C 0.29149 0.39253 0.74328 0.0
C2329 C 0.28567 0.37568 0.70956 0.0
C2330 C 0.29766 0.39034 0.71093 0.0
C2331 C 0.31288 0.4135 0.72925 0.0
C2332 C 0.31644 0.4217 0.74621 0.0
C2333 C 0.30071 0.39885 0.72774 0.0
C2334 C 0.30735 0.41503 0.76161 0.0
C2335 C 0.29491 0.40074 0.76014 0.0
H2336 H 0.26776 0.62213 0.79029 0.0
H2337 H 0.30543 0.66075 0.76752 0.0
H2338 H 0.32728 0.6365 0.76232 0.0
H2339 H 0.33558 0.60419 0.76381 0.0
H2340 H 0.29768 0.56557 0.78612 0.0
H2341 H 0.27592 0.58987 0.79153 0.0
C2342 C 0.28066 0.62524 0.784 0.0
C2343 C 0.2849 0.64329 0.77934 0.0
C2344 C 0.29313 0.61119 0.78089 0.0
C2345 C 0.30186 0.64705 0.77149 0.0
C2346 C 0.31435 0.63316 0.76841 0.0
C2347 C 0.32262 0.60112 0.76999 0.0
C2348 C 0.31828 0.58307 0.77452 0.0
C2349 C 0.31014 0.61518 0.77307 0.0
C2350 C 0.3013 0.5793 0.78229 0.0
C2351 C 0.28887 0.59321 0.78548 0.0
H2352 H 0.87796 0.49315 0.46314 0.0
H2353 H 0.90934 0.46878 0.50636 0.0
H2354 H 0.88422 0.44837 0.51322 0.0
H2355 H 0.85323 0.43768 0.50732 0.0
H2356 H 0.82252 0.46068 0.46286 0.0
H2357 H 0.84749 0.48136 0.45623 0.0
C2358 C 0.87944 0.48322 0.4739 0.0
C2359 C 0.89557 0.48265 0.48426 0.0
C2360 C 0.865 0.47131 0.47766 0.0
C2361 C 0.89703 0.46982 0.49835 0.0
C2362 C 0.88269 0.45803 0.50223 0.0
C2363 C 0.85204 0.44702 0.496 0.0
C2364 C 0.83588 0.44758 0.48569 0.0
C2365 C 0.86659 0.4587 0.49203 0.0
C2366 C 0.83459 0.46009 0.47129 0.0
C2367 C 0.84894 0.47186 0.46737 0.0
H2368 H 0.7187 0.86228 0.77097 0.0
H2369 H 0.7618 0.89649 0.79162 0.0
H2370 H 0.74282 0.92323 0.78742 0.0
H2371 H 0.71376 0.93698 0.77834 0.0
H2372 H 0.6703 0.90265 0.75888 0.0
H2373 H 0.68949 0.87589 0.76256 0.0
C2374 C 0.72391 0.87553 0.77477 0.0
C2375 C 0.74174 0.87727 0.78155 0.0
C2376 C 0.71281 0.89088 0.77261 0.0
C2377 C 0.74828 0.89469 0.78608 0.0
C2378 C 0.73737 0.91002 0.7838 0.0
C2379 C 0.70855 0.92364 0.77479 0.0
C2380 C 0.69064 0.92181 0.76833 0.0
C2381 C 0.71962 0.90829 0.77706 0.0
C2382 C 0.68399 0.90441 0.76403 0.0
C2383 C 0.69498 0.88911 0.76607 0.0
H2384 H 0.63837 0.51633 0.97075 0.0
H2385 H 0.60096 0.54915 1.00122 0.0
H2386 H 0.62474 0.5718 0.00662 0.0
H2387 H 0.65623 0.58229 1.00267 0.0
H2388 H 0.69383 0.54902 0.97294 0.0
H2389 H 0.66997 0.52656 0.96725 0.0
C2390 C 0.63543 0.5285 0.97849 0.0
C2391 C 0.61794 0.5311 0.98553 0.0
C2392 C 0.64921 0.54136 0.9817 0.0
C2393 C 0.61437 0.54679 0.99577 0.0
C2394 C 0.62793 0.55977 0.9988 0.0
C2395 C 0.65914 0.57016 0.99487 0.0
C2396 C 0.67674 0.56732 0.98821 0.0
C2397 C 0.6454 0.55721 0.99182 0.0
C2398 C 0.68042 0.55143 0.97833 0.0
C2399 C 0.66677 0.53862 0.97502 0.0
H2400 H 0.24842 0.62095 0.22471 0.0
H2401 H 0.2102 0.66092 0.24367 0.0
H2402 H 0.18815 0.637 0.24984 0.0
H2403 H 0.1798 0.60459 0.25038 0.0
H2404 H 0.21856 0.56463 0.23279 0.0
H2405 H 0.24044 0.58864 0.22602 0.0
C2406 C 0.23537 0.62447 0.23041 0.0
C2407 C 0.23105 0.64281 0.23363 0.0
C2408 C 0.22284 0.6106 0.23428 0.0
C2409 C 0.21387 0.64701 0.24071 0.0
C2410 C 0.20126 0.63331 0.2444 0.0
C2411 C 0.19301 0.60118 0.24498 0.0
C2412 C 0.19755 0.58287 0.2421 0.0
C2413 C 0.20559 0.61506 0.24124 0.0
C2414 C 0.2148 0.57861 0.2353 0.0
C2415 C 0.22729 0.59234 0.23135 0.0
H2416 H 0.88172 0.52187 0.00739 0.0
H2417 H 0.89367 0.54455 0.0602 0.0
H2418 H 0.86897 0.56622 0.05656 0.0
H2419 H 0.84382 0.57863 0.03856 0.0
H2420 H 0.83251 0.5568 0.98526 0.0
H2421 H 0.85709 0.53495 0.98895 0.0
C2422 C 0.87906 0.53167 0.01803 0.0
C2423 C 0.88954 0.53147 0.03408 0.0
C2424 C 0.86489 0.54424 0.0158 0.0
C2425 C 0.88567 0.54415 0.04782 0.0
C2426 C 0.8716 0.55665 0.04571 0.0
C2427 C 0.84685 0.56926 0.02764 0.0
C2428 C 0.83626 0.5694 0.01166 0.0
C2429 C 0.86111 0.5568 0.02978 0.0
C2430 C 0.84024 0.55687 0.99782 0.0
C2431 C 0.85438 0.54443 0.99986 0.0
H2432 H 0.11979 0.97497 0.05325 0.0
H2433 H 0.12857 1.00432 1.0033 0.0
H2434 H 0.15408 0.98468 0.99618 0.0
H2435 H 0.17386 0.95915 1.00395 0.0
H2436 H 0.16654 0.93116 0.0549 0.0
H2437 H 0.14054 0.95033 0.06174 0.0
C2438 C 0.12739 0.97726 0.04091 0.0
C2439 C 0.12208 0.99111 0.02881 0.0
C2440 C 0.14232 0.96611 0.03701 0.0
C2441 C 0.13202 0.99359 0.01274 0.0
C2442 C 0.14674 0.98244 0.00869 0.0
C2443 C 0.16678 0.95737 0.01669 0.0
C2444 C 0.17221 0.94362 0.02883 0.0
C2445 C 0.15201 0.96865 0.02071 0.0
C2446 C 0.16254 0.94137 0.04511 0.0
C2447 C 0.14772 0.95244 0.04911 0.0
loop_
_geom_bond_atom_site_label_1
_geom_bond_atom_site_label_2
_geom_bond_distance
_geom_bond_site_symmetry_2
_ccdc_geom_bond_type
C0 C1 1.386 . S
C0 C2 1.397 . S
C0 H24 0.931 . S
C1 C0 1.386 . S
C1 C5 1.397 1_556 S
C2 C0 1.397 . S
C2 C3 1.384 1_556 S
C2 H25 0.930 . S
C3 C2 1.384 1_554 S
C3 C4 1.377 . S
C3 C6 1.481 . S
C4 C3 1.377 . S
C4 C5 1.389 . S
C4 H26 0.929 . S
C5 C1 1.397 1_554 S
C5 C4 1.389 . S
C5 H27 0.931 . S
C6 C3 1.481 . S
C6 C7 1.387 . S
C6 C11 1.390 . S
C7 C6 1.387 . S
C7 C8 1.401 . S
C7 H28 0.930 . S
C8 C7 1.401 . S
C8 C9 1.376 . S
C8 C17 1.511 . S
C9 C8 1.376 . S
C9 C10 1.392 . S
C9 H30 0.931 . S
C10 C9 1.392 . S
C10 C11 1.361 . S
C10 C12 1.500 . S
C11 C6 1.390 . S
C11 C10 1.361 . S
C11 H29 0.931 . S
C12 C10 1.500 . S
C12 C13 1.371 . S
C12 C14 1.365 . S
C13 C12 1.371 . S
C13 C23 1.386 1_455 S
C13 H31 0.926 1_545 S
C14 C12 1.365 . S
C14 C15 1.409 1_455 S
C14 H32 0.929 . S
C15 C14 1.409 1_655 S
C15 C16 1.380 . S
C15 H33 0.930 . S
C16 C15 1.380 . S
C16 C23 1.357 . S
C17 C8 1.511 . S
C17 C18 1.341 . S
C17 C19 1.371 1_545 S
C18 C17 1.341 . S
C18 C22 1.394 1_545 S
C18 H34 0.964 . S
C19 C17 1.371 1_565 S
C19 C20 1.392 . S
C19 H35 0.931 . S
C20 C19 1.392 . S
C20 C21 1.331 . S
C20 H38 0.932 . S
C21 C20 1.331 . S
C21 C22 1.336 . S
C22 C18 1.394 1_565 S
C22 C21 1.336 . S
C22 H37 0.929 1_554 S
C23 C13 1.386 1_655 S
C23 C16 1.357 . S
C23 H36 0.928 1_545 S
H24 C0 0.931 . S
H25 C2 0.930 . S
H26 C4 0.929 . S
H27 C5 0.931 . S
H28 C7 0.930 . S
H29 C11 0.931 . S
H30 C9 0.931 . S
H31 C13 0.926 1_565 S
H32 C14 0.929 . S
H33 C15 0.930 . S
H34 C18 0.964 . S
H35 C19 0.931 . S
H36 C23 0.928 1_565 S
H37 C22 0.929 1_556 S
H38 C20 0.932 . S
C39 C40 1.386 . S
C39 C41 1.397 . S
C39 H63 0.931 . S
C40 C39 1.386 . S
C40 C44 1.397 . S
C41 C39 1.397 . S
C41 C42 1.384 . S
C41 H64 0.930 . S
C42 C41 1.384 . S
C42 C43 1.377 . S
C42 C45 1.481 . S
C43 C42 1.377 . S
C43 C44 1.389 . S
C43 H65 0.929 . S
C44 C40 1.397 . S
C44 C43 1.389 . S
C44 H66 0.931 . S
C45 C42 1.481 . S
C45 C46 1.387 . S
C45 C50 1.390 . S
C46 C45 1.387 . S
C46 C47 1.401 . S
C46 H67 0.930 . S
C47 C46 1.401 . S
C47 C48 1.376 . S
C47 C56 1.511 . S
C48 C47 1.376 . S
C48 C49 1.392 . S
C48 H69 0.931 . S
C49 C48 1.392 . S
C49 C50 1.361 . S
C49 C51 1.500 . S
C50 C45 1.390 . S
C50 C49 1.361 . S
C50 H68 0.931 . S
C51 C49 1.500 . S
C51 C52 1.371 . S
C51 C53 1.365 . S
C52 C51 1.371 . S
C52 C62 1.386 . S
C52 H70 0.931 . S
C53 C51 1.365 . S
C53 C54 1.409 . S
C53 H71 0.929 . S
C54 C53 1.409 . S
C54 C55 1.380 . S
C54 H72 0.930 . S
C55 C54 1.380 . S
C55 C62 1.357 . S
C56 C47 1.511 . S
C56 C57 1.341 . S
C56 C58 1.371 . S
C57 C56 1.341 . S
C57 C61 1.394 . S
C57 H73 0.930 . S
C58 C56 1.371 . S
C58 C59 1.392 . S
C58 H74 0.931 . S
C59 C58 1.392 . S
C59 C60 1.331 . S
C59 H77 0.932 . S
C60 C59 1.331 . S
C60 C61 1.336 . S
C61 C57 1.394 . S
C61 C60 1.336 . S
C61 H76 0.929 . S
C62 C52 1.386 . S
C62 C55 1.357 . S
C62 H75 0.928 . S
H63 C39 0.931 . S
H64 C41 0.930 . S
H65 C43 0.929 . S
H66 C44 0.931 . S
H67 C46 0.930 . S
H68 C50 0.931 . S
H69 C48 0.931 . S
H70 C52 0.931 . S
H71 C53 0.929 . S
H72 C54 0.930 . S
H73 C57 0.930 . S
H74 C58 0.931 . S
H75 C62 0.928 . S
H76 C61 0.929 . S
H77 C59 0.932 . S
C78 C79 1.386 1_655 S
C78 C80 1.397 . S
C78 H102 0.931 . S
C79 C78 1.386 1_455 S
C79 C83 1.397 . S
C80 C78 1.397 . S
C80 C81 1.384 . S
C80 H103 0.930 . S
C81 C80 1.384 . S
C81 C82 1.377 1_655 S
C81 C84 1.481 . S
C82 C81 1.377 1_455 S
C82 C83 1.389 . S
C82 H104 0.929 . S
C83 C79 1.397 . S
C83 C82 1.389 . S
C83 H105 0.931 . S
C84 C81 1.481 . S
C84 C85 1.387 . S
C84 C89 1.390 . S
C85 C84 1.387 . S
C85 C86 1.401 . S
C85 H106 0.930 . S
C86 C85 1.401 . S
C86 C87 1.376 . S
C86 C95 1.511 . S
C87 C86 1.376 . S
C87 C88 1.392 . S
C87 H108 0.931 . S
C88 C87 1.392 . S
C88 C89 1.361 . S
C88 C90 1.500 . S
C89 C84 1.390 . S
C89 C88 1.361 . S
C89 H107 0.931 . S
C90 C88 1.500 . S
C90 C91 1.393 . S
C90 C92 1.365 . S
C91 C90 1.393 . S
C91 C101 1.358 1_554 S
C91 H109 0.940 . S
C92 C90 1.365 . S
C92 C93 1.409 1_554 S
C92 H110 0.929 1_655 S
C93 C92 1.409 1_556 S
C93 C94 1.380 . S
C93 H111 0.930 1_655 S
C94 C93 1.380 . S
C94 C101 1.357 . S
C95 C86 1.511 . S
C95 C96 1.341 . S
C95 C97 1.371 . S
C96 C95 1.341 . S
C96 C100 1.394 . S
C96 H112 0.930 . S
C97 C95 1.371 . S
C97 C98 1.392 . S
C97 H113 0.931 . S
C98 C97 1.392 . S
C98 C99 1.331 . S
C98 H116 0.932 1_554 S
C99 C98 1.331 . S
C99 C100 1.336 . S
C100 C96 1.394 . S
C100 C99 1.336 . S
C100 H115 0.929 . S
C101 C91 1.358 1_556 S
C101 C94 1.357 . S
C101 H114 0.928 . S
H102 C78 0.931 . S
H103 C80 0.930 . S
H104 C82 0.929 . S
H105 C83 0.931 . S
H106 C85 0.930 . S
H107 C89 0.931 . S
H108 C87 0.931 . S
H109 C91 0.940 . S
H110 C92 0.929 1_455 S
H111 C93 0.930 1_455 S
H112 C96 0.930 . S
H113 C97 0.931 . S
H114 C101 0.928 . S
H115 C100 0.929 . S
H116 C98 0.932 1_556 S
C117 C118 1.386 . S
C117 C119 1.397 . S
C117 H141 0.931 . S
C118 C117 1.386 . S
C118 C122 1.397 . S
C119 C117 1.397 . S
C119 C120 1.384 . S
C119 H142 0.930 . S
C120 C119 1.384 . S
C120 C121 1.377 . S
C120 C123 1.481 . S
C121 C120 1.377 . S
C121 C122 1.389 . S
C121 H143 0.929 . S
C122 C118 1.397 . S
C122 C121 1.389 . S
C122 H144 0.931 . S
C123 C120 1.481 . S
C123 C124 1.387 . S
C123 C128 1.390 . S
C124 C123 1.387 . S
C124 C125 1.401 . S
C124 H145 0.930 . S
C125 C124 1.401 . S
C125 C126 1.376 . S
C125 C134 1.511 . S
C126 C125 1.376 . S
C126 C127 1.392 . S
C126 H147 0.931 . S
C127 C126 1.392 . S
C127 C128 1.361 . S
C127 C129 1.500 . S
C128 C123 1.390 . S
C128 C127 1.361 . S
C128 H146 0.931 . S
C129 C127 1.500 . S
C129 C130 1.371 . S
C129 C131 1.365 . S
C130 C129 1.371 . S
C130 C140 1.386 . S
C130 H148 0.931 . S
C131 C129 1.365 . S
C131 C132 1.409 . S
C131 H149 0.929 . S
C132 C131 1.409 . S
C132 C133 1.380 . S
C132 H150 0.930 . S
C133 C132 1.380 . S
C133 C140 1.357 . S
C134 C125 1.511 . S
C134 C135 1.341 . S
C134 C136 1.371 . S
C135 C134 1.341 . S
C135 C139 1.394 . S
C135 H151 0.930 . S
C136 C134 1.371 . S
C136 C137 1.392 . S
C136 H152 0.931 . S
C137 C136 1.392 . S
C137 C138 1.331 . S
C137 H155 0.932 . S
C138 C137 1.331 . S
C138 C139 1.336 . S
C139 C135 1.394 . S
C139 C138 1.336 . S
C139 H154 0.929 . S
C140 C130 1.386 . S
C140 C133 1.357 . S
C140 H153 0.928 . S
H141 C117 0.931 . S
H142 C119 0.930 . S
H143 C121 0.929 . S
H144 C122 0.931 . S
H145 C124 0.930 . S
H146 C128 0.931 . S
H147 C126 0.931 . S
H148 C130 0.931 . S
H149 C131 0.929 . S
H150 C132 0.930 . S
H151 C135 0.930 . S
H152 C136 0.931 . S
H153 C140 0.928 . S
H154 C139 0.929 . S
H155 C137 0.932 . S
C156 C157 1.386 . S
C156 C158 1.397 . S
C156 H180 0.931 . S
C157 C156 1.386 . S
C157 C161 1.397 1_655 S
C158 C156 1.397 . S
C158 C159 1.384 1_655 S
C158 H181 0.930 . S
C159 C158 1.384 1_455 S
C159 C160 1.377 . S
C159 C162 1.481 . S
C160 C159 1.377 . S
C160 C161 1.389 . S
C160 H182 0.929 . S
C161 C157 1.397 1_455 S
C161 C160 1.389 . S
C161 H183 0.931 . S
C162 C159 1.481 . S
C162 C163 1.387 . S
C162 C167 1.390 . S
C163 C162 1.387 . S
C163 C164 1.401 . S
C163 H184 0.930 . S
C164 C163 1.401 . S
C164 C165 1.376 . S
C164 C173 1.511 . S
C165 C164 1.376 . S
C165 C166 1.392 . S
C165 H186 0.931 . S
C166 C165 1.392 . S
C166 C167 1.361 . S
C166 C168 1.500 . S
C167 C162 1.390 . S
C167 C166 1.361 . S
C167 H185 0.931 . S
C168 C166 1.500 . S
C168 C169 1.371 . S
C168 C170 1.365 1_565 S
C169 C168 1.371 . S
C169 C179 1.386 1_565 S
C169 H187 0.931 . S
C170 C168 1.365 1_545 S
C170 C171 1.409 . S
C170 H188 0.929 1_545 S
C171 C170 1.409 . S
C171 C172 1.380 . S
C171 H189 0.930 . S
C172 C171 1.380 . S
C172 C179 1.357 . S
C173 C164 1.511 . S
C173 C174 1.341 . S
C173 C175 1.371 . S
C174 C173 1.341 . S
C174 C178 1.394 . S
C174 H190 0.967 . S
C175 C173 1.371 . S
C175 C176 1.392 . S
C175 H191 0.931 . S
C176 C175 1.392 . S
C176 C177 1.331 . S
C176 H194 0.932 . S
C177 C176 1.331 . S
C177 C178 1.336 . S
C178 C174 1.394 . S
C178 C177 1.336 . S
C178 H193 0.929 1_455 S
C179 C169 1.386 1_545 S
C179 C172 1.357 . S
C179 H192 0.928 . S
H180 C156 0.931 . S
H181 C158 0.930 . S
H182 C160 0.929 . S
H183 C161 0.931 . S
H184 C163 0.930 . S
H185 C167 0.931 . S
H186 C165 0.931 . S
H187 C169 0.931 . S
H188 C170 0.929 1_565 S
H189 C171 0.930 . S
H190 C174 0.967 . S
H191 C175 0.931 . S
H192 C179 0.928 . S
H193 C178 0.929 1_655 S
H194 C176 0.932 . S
C195 C196 1.386 . S
C195 C197 1.397 . S
C195 H219 0.931 . S
C196 C195 1.386 . S
C196 C200 1.397 . S
C197 C195 1.397 . S
C197 C198 1.384 . S
C197 H220 0.930 . S
C198 C197 1.384 . S
C198 C199 1.377 . S
C198 C201 1.481 . S
C199 C198 1.377 . S
C199 C200 1.389 . S
C199 H221 0.929 . S
C200 C196 1.397 . S
C200 C199 1.389 . S
C200 H222 0.931 . S
C201 C198 1.481 . S
C201 C202 1.387 . S
C201 C206 1.390 . S
C202 C201 1.387 . S
C202 C203 1.401 . S
C202 H223 0.930 . S
C203 C202 1.401 . S
C203 C204 1.376 . S
C203 C212 1.511 . S
C204 C203 1.376 . S
C204 C205 1.392 . S
C204 H225 0.931 . S
C205 C204 1.392 . S
C205 C206 1.361 . S
C205 C207 1.500 . S
C206 C201 1.390 . S
C206 C205 1.361 . S
C206 H224 0.931 . S
C207 C205 1.500 . S
C207 C208 1.371 . S
C207 C209 1.365 . S
C208 C207 1.371 . S
C208 C218 1.386 . S
C208 H226 0.931 . S
C209 C207 1.365 . S
C209 C210 1.409 . S
C209 H227 0.929 . S
C210 C209 1.409 . S
C210 C211 1.380 . S
C210 H228 0.930 . S
C211 C210 1.380 . S
C211 C218 1.357 . S
C212 C203 1.511 . S
C212 C213 1.341 . S
C212 C214 1.371 . S
C213 C212 1.341 . S
C213 C217 1.394 . S
C213 H229 0.930 . S
C214 C212 1.371 . S
C214 C215 1.392 . S
C214 H230 0.931 . S
C215 C214 1.392 . S
C215 C216 1.331 . S
C215 H233 0.932 . S
C216 C215 1.331 . S
C216 C217 1.336 . S
C217 C213 1.394 . S
C217 C216 1.336 . S
C217 H232 0.929 . S
C218 C208 1.386 . S
C218 C211 1.357 . S
C218 H231 0.928 . S
H219 C195 0.931 . S
H220 C197 0.930 . S
H221 C199 0.929 . S
H222 C200 0.931 . S
H223 C202 0.930 . S
H224 C206 0.931 . S
H225 C204 0.931 . S
H226 C208 0.931 . S
H227 C209 0.929 . S
H228 C210 0.930 . S
H229 C213 0.930 . S
H230 C214 0.931 . S
H231 C218 0.928 . S
H232 C217 0.929 . S
H233 C215 0.932 . S
C234 C235 1.386 . S
C234 C236 1.397 . S
C234 H258 0.931 . S
C235 C234 1.386 . S
C235 C239 1.397 . S
C236 C234 1.397 . S
C236 C237 1.384 . S
C236 H259 0.930 . S
C237 C236 1.384 . S
C237 C238 1.377 . S
C237 C240 1.481 . S
C238 C237 1.377 . S
C238 C239 1.389 . S
C238 H260 0.929 . S
C239 C235 1.397 . S
C239 C238 1.389 . S
C239 H261 0.931 . S
C240 C237 1.481 . S
C240 C241 1.387 . S
C240 C245 1.390 . S
C241 C240 1.387 . S
C241 C242 1.401 . S
C241 H262 0.930 . S
C242 C241 1.401 . S
C242 C243 1.376 . S
C242 C251 1.511 . S
C243 C242 1.376 . S
C243 C244 1.392 . S
C243 H264 0.931 . S
C244 C243 1.392 . S
C244 C245 1.361 . S
C244 C246 1.500 . S
C245 C240 1.390 . S
C245 C244 1.361 . S
C245 H263 0.931 . S
C246 C244 1.500 . S
C246 C247 1.371 . S
C246 C248 1.365 . S
C247 C246 1.371 . S
C247 C257 1.386 . S
C247 H265 0.931 . S
C248 C246 1.365 . S
C248 C249 1.409 . S
C248 H266 0.929 . S
C249 C248 1.409 . S
C249 C250 1.380 . S
C249 H267 0.930 . S
C250 C249 1.380 . S
C250 C257 1.357 . S
C251 C242 1.511 . S
C251 C252 1.341 1_655 S
C251 C253 1.371 . S
C252 C251 1.341 1_455 S
C252 C256 1.394 . S
C252 H268 0.930 . S
C253 C251 1.371 . S
C253 C254 1.392 1_655 S
C253 H269 0.931 . S
C254 C253 1.392 1_455 S
C254 C255 1.331 . S
C254 H272 0.932 . S
C255 C254 1.331 . S
C255 C256 1.336 . S
C256 C252 1.394 . S
C256 C255 1.336 . S
C256 H271 0.929 . S
C257 C247 1.386 . S
C257 C250 1.357 . S
C257 H270 0.928 . S
H258 C234 0.931 . S
H259 C236 0.930 . S
H260 C238 0.929 . S
H261 C239 0.931 . S
H262 C241 0.930 . S
H263 C245 0.931 . S
H264 C243 0.931 . S
H265 C247 0.931 . S
H266 C248 0.929 . S
H267 C249 0.930 . S
H268 C252 0.930 . S
H269 C253 0.931 . S
H270 C257 0.928 . S
H271 C256 0.929 . S
H272 C254 0.932 . S
C273 C274 1.386 . S
C273 C275 1.397 . S
C273 H297 0.931 . S
C274 C273 1.386 . S
C274 C278 1.397 . S
C275 C273 1.397 . S
C275 C276 1.384 . S
C275 H298 0.930 . S
C276 C275 1.384 . S
C276 C277 1.377 . S
C276 C279 1.481 . S
C277 C276 1.377 . S
C277 C278 1.389 . S
C277 H299 0.929 . S
C278 C274 1.397 . S
C278 C277 1.389 . S
C278 H300 0.931 . S
C279 C276 1.481 . S
C279 C280 1.387 . S
C279 C284 1.390 . S
C280 C279 1.387 . S
C280 C281 1.401 . S
C280 H301 0.930 . S
C281 C280 1.401 . S
C281 C282 1.376 . S
C281 C290 1.511 . S
C282 C281 1.376 . S
C282 C283 1.392 . S
C282 H303 0.931 . S
C283 C282 1.392 . S
C283 C284 1.361 . S
C283 C285 1.500 . S
C284 C279 1.390 . S
C284 C283 1.361 . S
C284 H302 0.931 . S
C285 C283 1.500 . S
C285 C286 1.371 . S
C285 C287 1.365 . S
C286 C285 1.371 . S
C286 C296 1.386 . S
C286 H304 0.931 . S
C287 C285 1.365 . S
C287 C288 1.409 . S
C287 H305 0.929 . S
C288 C287 1.409 . S
C288 C289 1.380 . S
C288 H306 0.930 . S
C289 C288 1.380 . S
C289 C296 1.357 . S
C290 C281 1.511 . S
C290 C291 1.341 . S
C290 C292 1.371 . S
C291 C290 1.341 . S
C291 C295 1.394 . S
C291 H307 0.930 . S
C292 C290 1.371 . S
C292 C293 1.392 . S
C292 H308 0.931 . S
C293 C292 1.392 . S
C293 C294 1.331 . S
C293 H311 0.932 . S
C294 C293 1.331 . S
C294 C295 1.336 . S
C295 C291 1.394 . S
C295 C294 1.336 . S
C295 H310 0.929 . S
C296 C286 1.386 . S
C296 C289 1.357 . S
C296 H309 0.928 . S
H297 C273 0.931 . S
H298 C275 0.930 . S
H299 C277 0.929 . S
H300 C278 0.931 . S
H301 C280 0.930 . S
H302 C284 0.931 . S
H303 C282 0.931 . S
H304 C286 0.931 . S
H305 C287 0.929 . S
H306 C288 0.930 . S
H307 C291 0.930 . S
H308 C292 0.931 . S
H309 C296 0.928 . S
H310 C295 0.929 . S
H311 C293 0.932 . S
C312 C313 1.386 . S
C312 C314 1.397 . S
C312 H336 0.931 . S
C313 C312 1.386 . S
C313 C317 1.397 . S
C314 C312 1.397 . S
C314 C315 1.384 . S
C314 H337 0.930 . S
C315 C314 1.384 . S
C315 C316 1.377 . S
C315 C318 1.481 . S
C316 C315 1.377 . S
C316 C317 1.389 . S
C316 H338 0.929 . S
C317 C313 1.397 . S
C317 C316 1.389 . S
C317 H339 0.931 . S
C318 C315 1.481 . S
C318 C319 1.387 . S
C318 C323 1.390 . S
C319 C318 1.387 . S
C319 C320 1.401 . S
C319 H340 0.930 . S
C320 C319 1.401 . S
C320 C321 1.376 . S
C320 C329 1.511 . S
C321 C320 1.376 . S
C321 C322 1.392 . S
C321 H342 0.931 . S
C322 C321 1.392 . S
C322 C323 1.361 . S
C322 C324 1.500 . S
C323 C318 1.390 . S
C323 C322 1.361 . S
C323 H341 0.931 . S
C324 C322 1.500 . S
C324 C325 1.371 . S
C324 C326 1.365 . S
C325 C324 1.371 . S
C325 C335 1.386 . S
C325 H343 0.931 . S
C326 C324 1.365 . S
C326 C327 1.409 . S
C326 H344 0.929 . S
C327 C326 1.409 . S
C327 C328 1.380 . S
C327 H345 0.930 . S
C328 C327 1.380 . S
C328 C335 1.357 . S
C329 C320 1.511 . S
C329 C330 1.341 . S
C329 C331 1.371 . S
C330 C329 1.341 . S
C330 C334 1.394 . S
C330 H346 0.930 . S
C331 C329 1.371 . S
C331 C332 1.392 . S
C331 H347 0.931 . S
C332 C331 1.392 . S
C332 C333 1.331 . S
C332 H350 0.932 . S
C333 C332 1.331 . S
C333 C334 1.336 . S
C334 C330 1.394 . S
C334 C333 1.336 . S
C334 H349 0.929 . S
C335 C325 1.386 . S
C335 C328 1.357 . S
C335 H348 0.928 . S
H336 C312 0.931 . S
H337 C314 0.930 . S
H338 C316 0.929 . S
H339 C317 0.931 . S
H340 C319 0.930 . S
H341 C323 0.931 . S
H342 C321 0.931 . S
H343 C325 0.931 . S
H344 C326 0.929 . S
H345 C327 0.930 . S
H346 C330 0.930 . S
H347 C331 0.931 . S
H348 C335 0.928 . S
H349 C334 0.929 . S
H350 C332 0.932 . S
C351 C352 1.386 . S
C351 C353 1.397 . S
C351 H375 0.931 . S
C352 C351 1.386 . S
C352 C356 1.397 . S
C353 C351 1.397 . S
C353 C354 1.384 . S
C353 H376 0.930 . S
C354 C353 1.384 . S
C354 C355 1.377 . S
C354 C357 1.481 . S
C355 C354 1.377 . S
C355 C356 1.389 . S
C355 H377 0.929 . S
C356 C352 1.397 . S
C356 C355 1.389 . S
C356 H378 0.931 . S
C357 C354 1.481 . S
C357 C358 1.387 . S
C357 C362 1.390 . S
C358 C357 1.387 . S
C358 C359 1.401 . S
C358 H379 0.930 . S
C359 C358 1.401 . S
C359 C360 1.376 . S
C359 C368 1.511 . S
C360 C359 1.376 . S
C360 C361 1.392 . S
C360 H381 0.931 . S
C361 C360 1.392 . S
C361 C362 1.361 . S
C361 C363 1.500 . S
C362 C357 1.390 . S
C362 C361 1.361 . S
C362 H380 0.931 . S
C363 C361 1.500 . S
C363 C364 1.371 . S
C363 C365 1.365 . S
C364 C363 1.371 . S
C364 C374 1.386 . S
C364 H382 0.931 . S
C365 C363 1.365 . S
C365 C366 1.409 . S
C365 H383 0.929 . S
C366 C365 1.409 . S
C366 C367 1.380 . S
C366 H384 0.930 . S
C367 C366 1.380 . S
C367 C374 1.357 . S
C368 C359 1.511 . S
C368 C369 1.341 1_565 S
C368 C370 1.371 . S
C369 C368 1.341 1_545 S
C369 C373 1.394 . S
C369 H385 0.930 . S
C370 C368 1.371 . S
C370 C371 1.392 1_565 S
C370 H386 0.931 . S
C371 C370 1.392 1_545 S
C371 C372 1.331 . S
C371 H389 0.932 . S
C372 C371 1.331 . S
C372 C373 1.336 . S
C373 C369 1.394 . S
C373 C372 1.336 . S
C373 H388 0.929 . S
C374 C364 1.386 . S
C374 C367 1.357 . S
C374 H387 0.928 . S
H375 C351 0.931 . S
H376 C353 0.930 . S
H377 C355 0.929 . S
H378 C356 0.931 . S
H379 C358 0.930 . S
H380 C362 0.931 . S
H381 C360 0.931 . S
H382 C364 0.931 . S
H383 C365 0.929 . S
H384 C366 0.930 . S
H385 C369 0.930 . S
H386 C370 0.931 . S
H387 C374 0.928 . S
H388 C373 0.929 . S
H389 C371 0.932 . S
C390 C391 1.386 . S
C390 C392 1.397 . S
C390 H414 0.931 . S
C391 C390 1.386 . S
C391 C395 1.397 . S
C392 C390 1.397 . S
C392 C393 1.384 . S
C392 H415 0.930 . S
C393 C392 1.384 . S
C393 C394 1.377 . S
C393 C396 1.481 . S
C394 C393 1.377 . S
C394 C395 1.389 . S
C394 H416 0.929 . S
C395 C391 1.397 . S
C395 C394 1.389 . S
C395 H417 0.931 . S
C396 C393 1.481 . S
C396 C397 1.387 . S
C396 C401 1.390 . S
C397 C396 1.387 . S
C397 C398 1.401 . S
C397 H418 0.930 . S
C398 C397 1.401 . S
C398 C399 1.376 . S
C398 C407 1.511 . S
C399 C398 1.376 . S
C399 C400 1.392 . S
C399 H420 0.931 . S
C400 C399 1.392 . S
C400 C401 1.361 . S
C400 C402 1.500 . S
C401 C396 1.390 . S
C401 C400 1.361 . S
C401 H419 0.931 . S
C402 C400 1.500 . S
C402 C403 1.371 . S
C402 C404 1.365 . S
C403 C402 1.371 . S
C403 C413 1.386 . S
C403 H421 0.931 . S
C404 C402 1.365 . S
C404 C405 1.409 . S
C404 H422 0.929 . S
C405 C404 1.409 . S
C405 C406 1.380 . S
C405 H423 0.930 . S
C406 C405 1.380 . S
C406 C413 1.357 . S
C407 C398 1.511 . S
C407 C408 1.341 . S
C407 C409 1.371 . S
C408 C407 1.341 . S
C408 C412 1.394 . S
C408 H424 0.930 . S
C409 C407 1.371 . S
C409 C410 1.392 . S
C409 H425 0.931 . S
C410 C409 1.392 . S
C410 C411 1.331 . S
C410 H428 0.932 . S
C411 C410 1.331 . S
C411 C412 1.336 . S
C412 C408 1.394 . S
C412 C411 1.336 . S
C412 H427 0.929 . S
C413 C403 1.386 . S
C413 C406 1.357 . S
C413 H426 0.928 . S
H414 C390 0.931 . S
H415 C392 0.930 . S
H416 C394 0.929 . S
H417 C395 0.931 . S
H418 C397 0.930 . S
H419 C401 0.931 . S
H420 C399 0.931 . S
H421 C403 0.931 . S
H422 C404 0.929 . S
H423 C405 0.930 . S
H424 C408 0.930 . S
H425 C409 0.931 . S
H426 C413 0.928 . S
H427 C412 0.929 . S
H428 C410 0.932 . S
C429 C430 1.386 . S
C429 C431 1.397 . S
C429 H453 0.931 . S
C430 C429 1.386 . S
C430 C434 1.397 . S
C431 C429 1.397 . S
C431 C432 1.384 . S
C431 H454 0.930 . S
C432 C431 1.384 . S
C432 C433 1.377 . S
C432 C435 1.481 . S
C433 C432 1.377 . S
C433 C434 1.389 . S
C433 H455 0.929 . S
C434 C430 1.397 . S
C434 C433 1.389 . S
C434 H456 0.931 . S
C435 C432 1.481 . S
C435 C436 1.387 . S
C435 C440 1.390 . S
C436 C435 1.387 . S
C436 C437 1.401 . S
C436 H457 0.930 . S
C437 C436 1.401 . S
C437 C438 1.376 . S
C437 C446 1.511 . S
C438 C437 1.376 . S
C438 C439 1.392 . S
C438 H459 0.931 . S
C439 C438 1.392 . S
C439 C440 1.361 . S
C439 C441 1.500 . S
C440 C435 1.390 . S
C440 C439 1.361 . S
C440 H458 0.931 . S
C441 C439 1.500 . S
C441 C442 1.371 . S
C441 C443 1.365 . S
C442 C441 1.371 . S
C442 C452 1.386 . S
C442 H460 0.931 . S
C443 C441 1.365 . S
C443 C444 1.409 . S
C443 H461 0.929 . S
C444 C443 1.409 . S
C444 C445 1.380 . S
C444 H462 0.930 . S
C445 C444 1.380 . S
C445 C452 1.357 . S
C446 C437 1.511 . S
C446 C447 1.341 . S
C446 C448 1.371 . S
C447 C446 1.341 . S
C447 C451 1.394 . S
C447 H463 0.930 . S
C448 C446 1.371 . S
C448 C449 1.392 . S
C448 H464 0.931 . S
C449 C448 1.392 . S
C449 C450 1.331 . S
C449 H467 0.932 . S
C450 C449 1.331 . S
C450 C451 1.336 . S
C451 C447 1.394 . S
C451 C450 1.336 . S
C451 H466 0.929 . S
C452 C442 1.386 . S
C452 C445 1.357 . S
C452 H465 0.928 . S
H453 C429 0.931 . S
H454 C431 0.930 . S
H455 C433 0.929 . S
H456 C434 0.931 . S
H457 C436 0.930 . S
H458 C440 0.931 . S
H459 C438 0.931 . S
H460 C442 0.931 . S
H461 C443 0.929 . S
H462 C444 0.930 . S
H463 C447 0.930 . S
H464 C448 0.931 . S
H465 C452 0.928 . S
H466 C451 0.929 . S
H467 C449 0.932 . S
C468 C469 1.386 . S
C468 C470 1.397 . S
C468 H492 0.931 . S
C469 C468 1.386 . S
C469 C473 1.397 . S
C470 C468 1.397 . S
C470 C471 1.384 . S
C470 H493 0.930 . S
C471 C470 1.384 . S
C471 C472 1.377 . S
C471 C474 1.481 . S
C472 C471 1.377 . S
C472 C473 1.389 . S
C472 H494 0.929 . S
C473 C469 1.397 . S
C473 C472 1.389 . S
C473 H495 0.931 . S
C474 C471 1.481 . S
C474 C475 1.387 . S
C474 C479 1.390 . S
C475 C474 1.387 . S
C475 C476 1.401 . S
C475 H496 0.930 . S
C476 C475 1.401 . S
C476 C477 1.376 . S
C476 C485 1.511 . S
C477 C476 1.376 . S
C477 C478 1.392 . S
C477 H498 0.931 . S
C478 C477 1.392 . S
C478 C479 1.361 . S
C478 C480 1.500 . S
C479 C474 1.390 . S
C479 C478 1.361 . S
C479 H497 0.931 . S
C480 C478 1.500 . S
C480 C481 1.371 . S
C480 C482 1.365 . S
C481 C480 1.371 . S
C481 C491 1.386 . S
C481 H499 0.931 . S
C482 C480 1.365 . S
C482 C483 1.409 . S
C482 H500 0.929 . S
C483 C482 1.409 . S
C483 C484 1.380 . S
C483 H501 0.930 . S
C484 C483 1.380 . S
C484 C491 1.357 . S
C485 C476 1.511 . S
C485 C486 1.341 . S
C485 C487 1.371 . S
C486 C485 1.341 . S
C486 C490 1.394 . S
C486 H502 0.930 . S
C487 C485 1.371 . S
C487 C488 1.392 . S
C487 H503 0.931 . S
C488 C487 1.392 . S
C488 C489 1.331 . S
C488 H506 0.932 . S
C489 C488 1.331 . S
C489 C490 1.336 . S
C490 C486 1.394 . S
C490 C489 1.336 . S
C490 H505 0.929 . S
C491 C481 1.386 . S
C491 C484 1.357 . S
C491 H504 0.928 . S
H492 C468 0.931 . S
H493 C470 0.930 . S
H494 C472 0.929 . S
H495 C473 0.931 . S
H496 C475 0.930 . S
H497 C479 0.931 . S
H498 C477 0.931 . S
H499 C481 0.931 . S
H500 C482 0.929 . S
H501 C483 0.930 . S
H502 C486 0.930 . S
H503 C487 0.931 . S
H504 C491 0.928 . S
H505 C490 0.929 . S
H506 C488 0.932 . S
C507 C508 1.386 . S
C507 C509 1.397 . S
C507 H531 0.931 . S
C508 C507 1.386 . S
C508 C512 1.397 . S
C509 C507 1.397 . S
C509 C510 1.384 . S
C509 H532 0.930 . S
C510 C509 1.384 . S
C510 C511 1.377 . S
C510 C513 1.481 . S
C511 C510 1.377 . S
C511 C512 1.389 . S
C511 H533 0.929 . S
C512 C508 1.397 . S
C512 C511 1.389 . S
C512 H534 0.931 . S
C513 C510 1.481 . S
C513 C514 1.387 . S
C513 C518 1.390 . S
C514 C513 1.387 . S
C514 C515 1.401 . S
C514 H535 0.930 . S
C515 C514 1.401 . S
C515 C516 1.376 . S
C515 C524 1.511 . S
C516 C515 1.376 . S
C516 C517 1.392 . S
C516 H537 0.931 . S
C517 C516 1.392 . S
C517 C518 1.361 . S
C517 C519 1.500 . S
C518 C513 1.390 . S
C518 C517 1.361 . S
C518 H536 0.931 . S
C519 C517 1.500 . S
C519 C520 1.371 . S
C519 C521 1.365 . S
C520 C519 1.371 . S
C520 C530 1.386 . S
C520 H538 0.931 1_556 S
C521 C519 1.365 . S
C521 C522 1.409 . S
C521 H539 0.929 . S
C522 C521 1.409 . S
C522 C523 1.380 . S
C522 H540 0.930 . S
C523 C522 1.380 . S
C523 C530 1.357 . S
C524 C515 1.511 . S
C524 C525 1.341 . S
C524 C526 1.371 1_556 S
C525 C524 1.341 . S
C525 C529 1.394 1_556 S
C525 H541 0.930 . S
C526 C524 1.371 1_554 S
C526 C527 1.392 . S
C526 H542 0.931 . S
C527 C526 1.392 . S
C527 C528 1.331 . S
C527 H545 0.932 . S
C528 C527 1.331 . S
C528 C529 1.336 . S
C529 C525 1.394 1_554 S
C529 C528 1.336 . S
C529 H544 0.929 . S
C530 C520 1.386 . S
C530 C523 1.357 . S
C530 H543 0.928 1_556 S
H531 C507 0.931 . S
H532 C509 0.930 . S
H533 C511 0.929 . S
H534 C512 0.931 . S
H535 C514 0.930 . S
H536 C518 0.931 . S
H537 C516 0.931 . S
H538 C520 0.931 1_554 S
H539 C521 0.929 . S
H540 C522 0.930 . S
H541 C525 0.930 . S
H542 C526 0.931 . S
H543 C530 0.928 1_554 S
H544 C529 0.929 . S
H545 C527 0.932 . S
C546 C547 1.386 . S
C546 C548 1.397 . S
C546 H570 0.931 . S
C547 C546 1.386 . S
C547 C551 1.397 . S
C548 C546 1.397 . S
C548 C549 1.384 . S
C548 H571 0.930 . S
C549 C548 1.384 . S
C549 C550 1.377 . S
C549 C552 1.481 . S
C550 C549 1.377 . S
C550 C551 1.389 . S
C550 H572 0.929 . S
C551 C547 1.397 . S
C551 C550 1.389 . S
C551 H573 0.931 . S
C552 C549 1.481 . S
C552 C553 1.387 . S
C552 C557 1.390 . S
C553 C552 1.387 . S
C553 C554 1.401 . S
C553 H574 0.930 . S
C554 C553 1.401 . S
C554 C555 1.376 . S
C554 C563 1.511 . S
C555 C554 1.376 . S
C555 C556 1.392 . S
C555 H576 0.931 . S
C556 C555 1.392 . S
C556 C557 1.361 . S
C556 C558 1.500 . S
C557 C552 1.390 . S
C557 C556 1.361 . S
C557 H575 0.931 . S
C558 C556 1.500 . S
C558 C559 1.371 . S
C558 C560 1.365 . S
C559 C558 1.371 . S
C559 C569 1.386 . S
C559 H577 0.931 . S
C560 C558 1.365 . S
C560 C561 1.409 . S
C560 H578 0.929 . S
C561 C560 1.409 . S
C561 C562 1.380 . S
C561 H579 0.930 . S
C562 C561 1.380 . S
C562 C569 1.357 . S
C563 C554 1.511 . S
C563 C564 1.341 . S
C563 C565 1.371 . S
C564 C563 1.341 . S
C564 C568 1.394 . S
C564 H580 0.930 . S
C565 C563 1.371 . S
C565 C566 1.392 . S
C565 H581 0.931 . S
C566 C565 1.392 . S
C566 C567 1.331 . S
C566 H584 0.932 . S
C567 C566 1.331 . S
C567 C568 1.336 . S
C568 C564 1.394 . S
C568 C567 1.336 . S
C568 H583 0.929 . S
C569 C559 1.386 . S
C569 C562 1.357 . S
C569 H582 0.928 . S
H570 C546 0.931 . S
H571 C548 0.930 . S
H572 C550 0.929 . S
H573 C551 0.931 . S
H574 C553 0.930 . S
H575 C557 0.931 . S
H576 C555 0.931 . S
H577 C559 0.931 . S
H578 C560 0.929 . S
H579 C561 0.930 . S
H580 C564 0.930 . S
H581 C565 0.931 . S
H582 C569 0.928 . S
H583 C568 0.929 . S
H584 C566 0.932 . S
C585 C586 1.386 1_556 S
C585 C587 1.397 . S
C585 H609 0.931 . S
C586 C585 1.386 1_554 S
C586 C590 1.397 . S
C587 C585 1.397 . S
C587 C588 1.384 . S
C587 H610 0.930 . S
C588 C587 1.384 . S
C588 C589 1.377 1_556 S
C588 C591 1.481 . S
C589 C588 1.377 1_554 S
C589 C590 1.389 . S
C589 H611 0.929 . S
C590 C586 1.397 . S
C590 C589 1.389 . S
C590 H612 0.931 . S
C591 C588 1.481 . S
C591 C592 1.387 . S
C591 C596 1.390 . S
C592 C591 1.387 . S
C592 C593 1.401 . S
C592 H613 0.930 . S
C593 C592 1.401 . S
C593 C594 1.376 . S
C593 C602 1.511 . S
C594 C593 1.376 . S
C594 C595 1.392 . S
C594 H615 0.931 . S
C595 C594 1.392 . S
C595 C596 1.361 . S
C595 C597 1.500 . S
C596 C591 1.390 . S
C596 C595 1.361 . S
C596 H614 0.931 . S
C597 C595 1.500 . S
C597 C598 1.364 1_545 S
C597 C599 1.365 . S
C598 C597 1.364 1_565 S
C598 C608 1.397 . S
C598 H616 0.928 1_565 S
C599 C597 1.365 . S
C599 C600 1.409 1_545 S
C599 H617 0.929 1_556 S
C600 C599 1.409 1_565 S
C600 C601 1.380 . S
C600 H618 0.930 1_556 S
C601 C600 1.380 . S
C601 C608 1.357 . S
C602 C593 1.511 . S
C602 C603 1.341 . S
C602 C604 1.371 . S
C603 C602 1.341 . S
C603 C607 1.394 . S
C603 H619 0.930 . S
C604 C602 1.371 . S
C604 C605 1.392 . S
C604 H620 0.953 . S
C605 C604 1.392 . S
C605 C606 1.331 . S
C605 H623 0.932 1_545 S
C606 C605 1.331 . S
C606 C607 1.336 . S
C607 C603 1.394 . S
C607 C606 1.336 . S
C607 H622 0.929 . S
C608 C598 1.397 . S
C608 C601 1.357 . S
C608 H621 0.928 . S
H609 C585 0.931 . S
H610 C587 0.930 . S
H611 C589 0.929 . S
H612 C590 0.931 . S
H613 C592 0.930 . S
H614 C596 0.931 . S
H615 C594 0.931 . S
H616 C598 0.928 1_545 S
H617 C599 0.929 1_554 S
H618 C600 0.930 1_554 S
H619 C603 0.930 . S
H620 C604 0.953 . S
H621 C608 0.928 . S
H622 C607 0.929 . S
H623 C605 0.932 1_565 S
Li624 N641 1.990 . S
Li624 O684 1.956 . S
Li624 O685 1.970 1_556 S
Li624 O686 1.961 . S
Li625 N649 1.990 . S
Li625 O684 1.970 1_554 S
Li625 O685 1.956 . S
Li625 O687 1.961 . S
Li626 N671 1.990 . S
Li626 O684 1.961 . S
Li626 O686 1.956 . S
Li626 O687 1.970 1_556 S
Li627 N677 1.990 . S
Li627 O685 1.961 . S
Li627 O686 1.970 1_554 S
Li627 O687 1.956 . S
C628 C630 1.348 1_556 S
C628 C631 1.356 . S
C628 O684 1.325 . S
N629 C632 1.314 1_556 S
N629 C633 1.279 . S
C630 C628 1.348 1_554 S
C630 C632 1.353 . S
C630 H688 0.929 . S
C631 C628 1.356 . S
C631 C633 1.358 . S
C631 H689 0.930 . S
C632 N629 1.314 1_554 S
C632 C630 1.353 . S
C632 H690 0.930 . S
C633 N629 1.279 . S
C633 C631 1.358 . S
C633 H691 0.930 . S
C634 C637 1.348 . S
C634 C638 1.356 . S
C634 O685 1.325 . S
C635 N636 1.279 . S
C635 C638 1.358 . S
C635 H692 0.930 . S
N636 C635 1.279 . S
N636 C639 1.314 . S
C637 C634 1.348 . S
C637 C639 1.353 . S
C637 H693 0.929 . S
C638 C634 1.356 . S
C638 C635 1.358 . S
C638 H694 0.930 . S
C639 N636 1.314 . S
C639 C637 1.353 . S
C639 H695 0.930 . S
C640 N641 1.314 . S
C640 C645 1.353 . S
C640 H646 0.930 . S
N641 Li624 1.990 . S
N641 C640 1.314 . S
N641 C643 1.279 . S
C642 C643 1.358 . S
C642 C644 1.356 . S
C642 H696 0.930 . S
C643 N641 1.279 . S
C643 C642 1.358 . S
C643 H647 0.930 . S
C644 C642 1.356 . S
C644 C645 1.348 . S
C645 C640 1.353 . S
C645 C644 1.348 . S
C645 H697 0.929 . S
H646 C640 0.930 . S
H647 C643 0.930 . S
C648 N649 1.314 . S
C648 C650 1.353 . S
C648 H654 0.930 . S
N649 Li625 1.990 . S
N649 C648 1.314 . S
N649 C652 1.279 . S
C650 C648 1.353 . S
C650 C653 1.348 . S
C650 H698 0.929 . S
C651 C652 1.358 . S
C651 C653 1.356 . S
C651 H699 0.930 . S
C652 N649 1.279 . S
C652 C651 1.358 . S
C652 H655 0.930 . S
C653 C650 1.348 . S
C653 C651 1.356 . S
H654 C648 0.930 . S
H655 C652 0.930 . S
C656 C658 1.348 . S
C656 C659 1.356 . S
C656 O686 1.325 . S
N657 C660 1.314 . S
N657 C661 1.279 . S
C658 C656 1.348 . S
C658 C660 1.353 . S
C658 H700 0.929 . S
C659 C656 1.356 . S
C659 C661 1.358 . S
C659 H701 0.930 . S
C660 N657 1.314 . S
C660 C658 1.353 . S
C660 H702 0.930 . S
C661 N657 1.279 . S
C661 C659 1.358 . S
C661 H703 0.930 . S
C662 C663 1.348 1_554 S
C662 C664 1.356 . S
C662 O687 1.325 . S
C663 C662 1.348 1_556 S
C663 C665 1.353 . S
C663 H704 0.929 . S
C664 C662 1.356 . S
C664 C666 1.358 . S
C664 H705 0.930 . S
C665 C663 1.353 . S
C665 N667 1.314 1_556 S
C665 H706 0.930 . S
C666 C664 1.358 . S
C666 N667 1.279 . S
C666 H707 0.930 . S
N667 C665 1.314 1_554 S
N667 C666 1.279 . S
C668 C670 1.353 . S
C668 N671 1.314 . S
C668 H674 0.930 . S
C669 N671 1.279 . S
C669 C672 1.358 . S
C669 H675 0.930 . S
C670 C668 1.353 . S
C670 C673 1.348 . S
C670 H708 0.929 . S
N671 Li626 1.990 . S
N671 C668 1.314 . S
N671 C669 1.279 . S
C672 C669 1.358 . S
C672 C673 1.356 . S
C672 H709 0.930 . S
C673 C670 1.348 . S
C673 C672 1.356 . S
H674 C668 0.930 . S
H675 C669 0.930 . S
C676 N677 1.314 . S
C676 C678 1.353 . S
C676 H682 0.930 . S
N677 Li627 1.990 . S
N677 C676 1.314 . S
N677 C680 1.279 . S
C678 C676 1.353 . S
C678 C681 1.348 . S
C678 H710 0.929 . S
C679 C680 1.358 . S
C679 C681 1.356 . S
C679 H711 0.930 . S
C680 N677 1.279 . S
C680 C679 1.358 . S
C680 H683 0.930 . S
C681 C678 1.348 . S
C681 C679 1.356 . S
H682 C676 0.930 . S
H683 C680 0.930 . S
O684 Li624 1.956 . S
O684 Li625 1.970 1_556 S
O684 Li626 1.961 . S
O684 C628 1.325 . S
O685 Li624 1.970 1_554 S
O685 Li625 1.956 . S
O685 Li627 1.961 . S
O685 C634 1.325 . S
O686 Li624 1.961 . S
O686 Li626 1.956 . S
O686 Li627 1.970 1_556 S
O686 C656 1.325 . S
O687 Li625 1.961 . S
O687 Li626 1.970 1_554 S
O687 Li627 1.956 . S
O687 C662 1.325 . S
H688 C630 0.929 . S
H689 C631 0.930 . S
H690 C632 0.930 . S
H691 C633 0.930 . S
H692 C635 0.930 . S
H693 C637 0.929 . S
H694 C638 0.930 . S
H695 C639 0.930 . S
H696 C642 0.930 . S
H697 C645 0.929 . S
H698 C650 0.929 . S
H699 C651 0.930 . S
H700 C658 0.929 . S
H701 C659 0.930 . S
H702 C660 0.930 . S
H703 C661 0.930 . S
H704 C663 0.929 . S
H705 C664 0.930 . S
H706 C665 0.930 . S
H707 C666 0.930 . S
H708 C670 0.929 . S
H709 C672 0.930 . S
H710 C678 0.929 . S
H711 C679 0.930 . S
Li712 N729 1.990 . S
Li712 O772 1.956 . S
Li712 O773 1.970 . S
Li712 O774 1.961 . S
Li713 N737 1.990 . S
Li713 O772 1.970 . S
Li713 O773 1.956 . S
Li713 O775 1.961 . S
Li714 N759 1.990 . S
Li714 O772 1.961 . S
Li714 O774 1.956 . S
Li714 O775 1.970 . S
Li715 N765 1.990 . S
Li715 O773 1.961 . S
Li715 O774 1.970 . S
Li715 O775 1.956 . S
C716 C718 1.348 . S
C716 C719 1.356 . S
C716 O772 1.325 . S
N717 C720 1.314 . S
N717 C721 1.279 . S
C718 C716 1.348 . S
C718 C720 1.353 . S
C718 H776 0.929 . S
C719 C716 1.356 . S
C719 C721 1.358 . S
C719 H777 0.930 . S
C720 N717 1.314 . S
C720 C718 1.353 . S
C720 H778 0.930 . S
C721 N717 1.279 . S
C721 C719 1.358 . S
C721 H779 0.930 . S
C722 C725 1.348 . S
C722 C726 1.356 . S
C722 O773 1.325 . S
C723 N724 1.279 . S
C723 C726 1.358 . S
C723 H780 0.930 . S
N724 C723 1.279 . S
N724 C727 1.314 . S
C725 C722 1.348 . S
C725 C727 1.353 . S
C725 H781 0.929 . S
C726 C722 1.356 . S
C726 C723 1.358 . S
C726 H782 0.930 . S
C727 N724 1.314 . S
C727 C725 1.353 . S
C727 H783 0.930 . S
C728 N729 1.314 . S
C728 C733 1.353 . S
C728 H734 0.930 . S
N729 Li712 1.990 . S
N729 C728 1.314 . S
N729 C731 1.279 . S
C730 C731 1.358 . S
C730 C732 1.356 . S
C730 H784 0.930 . S
C731 N729 1.279 . S
C731 C730 1.358 . S
C731 H735 0.930 . S
C732 C730 1.356 . S
C732 C733 1.348 . S
C733 C728 1.353 . S
C733 C732 1.348 . S
C733 H785 0.929 . S
H734 C728 0.930 . S
H735 C731 0.930 . S
C736 N737 1.314 . S
C736 C738 1.353 . S
C736 H742 0.930 . S
N737 Li713 1.990 . S
N737 C736 1.314 . S
N737 C740 1.279 . S
C738 C736 1.353 . S
C738 C741 1.348 . S
C738 H786 0.929 . S
C739 C740 1.358 . S
C739 C741 1.356 . S
C739 H787 0.930 . S
C740 N737 1.279 . S
C740 C739 1.358 . S
C740 H743 0.930 . S
C741 C738 1.348 . S
C741 C739 1.356 . S
H742 C736 0.930 . S
H743 C740 0.930 . S
C744 C746 1.348 . S
C744 C747 1.356 . S
C744 O774 1.325 . S
N745 C748 1.314 . S
N745 C749 1.279 . S
C746 C744 1.348 . S
C746 C748 1.353 . S
C746 H788 0.929 . S
C747 C744 1.356 . S
C747 C749 1.358 . S
C747 H789 0.930 . S
C748 N745 1.314 . S
C748 C746 1.353 . S
C748 H790 0.930 . S
C749 N745 1.279 . S
C749 C747 1.358 . S
C749 H791 0.930 . S
C750 C751 1.348 . S
C750 C752 1.356 . S
C750 O775 1.325 . S
C751 C750 1.348 . S
C751 C753 1.353 . S
C751 H792 0.929 . S
C752 C750 1.356 . S
C752 C754 1.358 . S
C752 H793 0.930 . S
C753 C751 1.353 . S
C753 N755 1.314 . S
C753 H794 0.930 . S
C754 C752 1.358 . S
C754 N755 1.279 . S
C754 H795 0.930 . S
N755 C753 1.314 . S
N755 C754 1.279 . S
C756 C758 1.353 . S
C756 N759 1.314 . S
C756 H762 0.930 . S
C757 N759 1.279 . S
C757 C760 1.358 . S
C757 H763 0.930 . S
C758 C756 1.353 . S
C758 C761 1.348 . S
C758 H796 0.929 . S
N759 Li714 1.990 . S
N759 C756 1.314 . S
N759 C757 1.279 . S
C760 C757 1.358 . S
C760 C761 1.356 . S
C760 H797 0.930 . S
C761 C758 1.348 . S
C761 C760 1.356 . S
H762 C756 0.930 . S
H763 C757 0.930 . S
C764 N765 1.314 . S
C764 C766 1.353 . S
C764 H770 0.930 . S
N765 Li715 1.990 . S
N765 C764 1.314 . S
N765 C768 1.279 . S
C766 C764 1.353 . S
C766 C769 1.348 . S
C766 H798 0.929 . S
C767 C768 1.358 . S
C767 C769 1.356 . S
C767 H799 0.930 . S
C768 N765 1.279 . S
C768 C767 1.358 . S
C768 H771 0.930 . S
C769 C766 1.348 . S
C769 C767 1.356 . S
H770 C764 0.930 . S
H771 C768 0.930 . S
O772 Li712 1.956 . S
O772 Li713 1.970 . S
O772 Li714 1.961 . S
O772 C716 1.325 . S
O773 Li712 1.970 . S
O773 Li713 1.956 . S
O773 Li715 1.961 . S
O773 C722 1.325 . S
O774 Li712 1.961 . S
O774 Li714 1.956 . S
O774 Li715 1.970 . S
O774 C744 1.325 . S
O775 Li713 1.961 . S
O775 Li714 1.970 . S
O775 Li715 1.956 . S
O775 C750 1.325 . S
H776 C718 0.929 . S
H777 C719 0.930 . S
H778 C720 0.930 . S
H779 C721 0.930 . S
H780 C723 0.930 . S
H781 C725 0.929 . S
H782 C726 0.930 . S
H783 C727 0.930 . S
H784 C730 0.930 . S
H785 C733 0.929 . S
H786 C738 0.929 . S
H787 C739 0.930 . S
H788 C746 0.929 . S
H789 C747 0.930 . S
H790 C748 0.930 . S
H791 C749 0.930 . S
H792 C751 0.929 . S
H793 C752 0.930 . S
H794 C753 0.930 . S
H795 C754 0.930 . S
H796 C758 0.929 . S
H797 C760 0.930 . S
H798 C766 0.929 . S
H799 C767 0.930 . S
Li800 N817 1.990 . S
Li800 O860 1.956 . S
Li800 O861 1.970 1_556 S
Li800 O862 1.961 . S
Li801 N825 1.990 . S
Li801 O860 1.970 1_554 S
Li801 O861 1.956 . S
Li801 O863 1.961 . S
Li802 N847 1.990 . S
Li802 O860 1.961 . S
Li802 O862 1.956 . S
Li802 O863 1.970 1_556 S
Li803 N853 1.990 . S
Li803 O861 1.961 . S
Li803 O862 1.970 1_554 S
Li803 O863 1.956 . S
C804 C806 1.348 1_556 S
C804 C807 1.356 . S
C804 O860 1.325 . S
N805 C808 1.314 1_556 S
N805 C809 1.279 . S
C806 C804 1.348 1_554 S
C806 C808 1.353 . S
C806 H864 0.929 . S
C807 C804 1.356 . S
C807 C809 1.358 . S
C807 H865 0.930 . S
C808 N805 1.314 1_554 S
C808 C806 1.353 . S
C808 H866 0.930 . S
C809 N805 1.279 . S
C809 C807 1.358 . S
C809 H867 0.930 . S
C810 C813 1.348 . S
C810 C814 1.356 . S
C810 O861 1.325 . S
C811 N812 1.279 . S
C811 C814 1.358 . S
C811 H868 0.930 . S
N812 C811 1.279 . S
N812 C815 1.314 . S
C813 C810 1.348 . S
C813 C815 1.353 . S
C813 H869 0.929 . S
C814 C810 1.356 . S
C814 C811 1.358 . S
C814 H870 0.930 . S
C815 N812 1.314 . S
C815 C813 1.353 . S
C815 H871 0.930 . S
C816 N817 1.314 . S
C816 C821 1.353 . S
C816 H822 0.930 . S
N817 Li800 1.990 . S
N817 C816 1.314 . S
N817 C819 1.279 . S
C818 C819 1.358 . S
C818 C820 1.356 . S
C818 H872 0.930 . S
C819 N817 1.279 . S
C819 C818 1.358 . S
C819 H823 0.930 . S
C820 C818 1.356 . S
C820 C821 1.348 . S
C821 C816 1.353 . S
C821 C820 1.348 . S
C821 H873 0.929 . S
H822 C816 0.930 . S
H823 C819 0.930 . S
C824 N825 1.314 . S
C824 C826 1.353 . S
C824 H830 0.930 . S
N825 Li801 1.990 . S
N825 C824 1.314 . S
N825 C828 1.279 . S
C826 C824 1.353 . S
C826 C829 1.348 . S
C826 H874 0.929 . S
C827 C828 1.358 . S
C827 C829 1.356 . S
C827 H875 0.930 . S
C828 N825 1.279 . S
C828 C827 1.358 . S
C828 H831 0.930 . S
C829 C826 1.348 . S
C829 C827 1.356 . S
H830 C824 0.930 . S
H831 C828 0.930 . S
C832 C834 1.348 . S
C832 C835 1.356 . S
C832 O862 1.325 . S
N833 C836 1.314 . S
N833 C837 1.279 . S
C834 C832 1.348 . S
C834 C836 1.353 . S
C834 H876 0.929 . S
C835 C832 1.356 . S
C835 C837 1.358 . S
C835 H877 0.930 . S
C836 N833 1.314 . S
C836 C834 1.353 . S
C836 H878 0.930 . S
C837 N833 1.279 . S
C837 C835 1.358 . S
C837 H879 0.930 . S
C838 C839 1.348 1_554 S
C838 C840 1.356 . S
C838 O863 1.325 . S
C839 C838 1.348 1_556 S
C839 C841 1.353 . S
C839 H880 0.929 . S
C840 C838 1.356 . S
C840 C842 1.358 . S
C840 H881 0.930 . S
C841 C839 1.353 . S
C841 N843 1.314 1_556 S
C841 H882 0.930 . S
C842 C840 1.358 . S
C842 N843 1.279 . S
C842 H883 0.930 . S
N843 C841 1.314 1_554 S
N843 C842 1.279 . S
C844 C846 1.353 . S
C844 N847 1.314 . S
C844 H850 0.930 . S
C845 N847 1.279 . S
C845 C848 1.358 . S
C845 H851 0.930 . S
C846 C844 1.353 . S
C846 C849 1.348 . S
C846 H884 0.929 . S
N847 Li802 1.990 . S
N847 C844 1.314 . S
N847 C845 1.279 . S
C848 C845 1.358 . S
C848 C849 1.356 . S
C848 H885 0.930 . S
C849 C846 1.348 . S
C849 C848 1.356 . S
H850 C844 0.930 . S
H851 C845 0.930 . S
C852 N853 1.314 . S
C852 C854 1.353 . S
C852 H858 0.930 . S
N853 Li803 1.990 . S
N853 C852 1.314 . S
N853 C856 1.279 . S
C854 C852 1.353 . S
C854 C857 1.348 . S
C854 H886 0.929 . S
C855 C856 1.358 . S
C855 C857 1.356 . S
C855 H887 0.930 . S
C856 N853 1.279 . S
C856 C855 1.358 . S
C856 H859 0.930 . S
C857 C854 1.348 . S
C857 C855 1.356 . S
H858 C852 0.930 . S
H859 C856 0.930 . S
O860 Li800 1.956 . S
O860 Li801 1.970 1_556 S
O860 Li802 1.961 . S
O860 C804 1.325 . S
O861 Li800 1.970 1_554 S
O861 Li801 1.956 . S
O861 Li803 1.961 . S
O861 C810 1.325 . S
O862 Li800 1.961 . S
O862 Li802 1.956 . S
O862 Li803 1.970 1_556 S
O862 C832 1.325 . S
O863 Li801 1.961 . S
O863 Li802 1.970 1_554 S
O863 Li803 1.956 . S
O863 C838 1.325 . S
H864 C806 0.929 . S
H865 C807 0.930 . S
H866 C808 0.930 . S
H867 C809 0.930 . S
H868 C811 0.930 . S
H869 C813 0.929 . S
H870 C814 0.930 . S
H871 C815 0.930 . S
H872 C818 0.930 . S
H873 C821 0.929 . S
H874 C826 0.929 . S
H875 C827 0.930 . S
H876 C834 0.929 . S
H877 C835 0.930 . S
H878 C836 0.930 . S
H879 C837 0.930 . S
H880 C839 0.929 . S
H881 C840 0.930 . S
H882 C841 0.930 . S
H883 C842 0.930 . S
H884 C846 0.929 . S
H885 C848 0.930 . S
H886 C854 0.929 . S
H887 C855 0.930 . S
Li888 N905 1.990 . S
Li888 O948 1.956 . S
Li888 O949 1.970 1_545 S
Li888 O950 1.961 . S
Li889 N913 1.990 . S
Li889 O948 1.970 1_565 S
Li889 O949 1.956 . S
Li889 O951 1.961 . S
Li890 N935 1.990 . S
Li890 O948 1.961 . S
Li890 O950 1.956 . S
Li890 O951 1.970 1_545 S
Li891 N941 1.990 . S
Li891 O949 1.961 . S
Li891 O950 1.970 1_565 S
Li891 O951 1.956 . S
C892 C894 1.348 . S
C892 C895 1.356 . S
C892 O948 1.325 . S
N893 C896 1.314 . S
N893 C897 1.279 . S
C894 C892 1.348 . S
C894 C896 1.353 . S
C894 H952 0.929 . S
C895 C892 1.356 . S
C895 C897 1.358 . S
C895 H953 0.930 . S
C896 N893 1.314 . S
C896 C894 1.353 . S
C896 H954 0.930 . S
C897 N893 1.279 . S
C897 C895 1.358 . S
C897 H955 0.930 . S
C898 C901 1.348 1_565 S
C898 C902 1.356 . S
C898 O949 1.325 . S
C899 N900 1.279 . S
C899 C902 1.358 . S
C899 H956 0.930 . S
N900 C899 1.279 . S
N900 C903 1.314 1_565 S
C901 C898 1.348 1_545 S
C901 C903 1.353 . S
C901 H957 0.929 . S
C902 C898 1.356 . S
C902 C899 1.358 . S
C902 H958 0.930 . S
C903 N900 1.314 1_545 S
C903 C901 1.353 . S
C903 H959 0.930 . S
C904 N905 1.314 . S
C904 C909 1.353 . S
C904 H910 0.930 . S
N905 Li888 1.990 . S
N905 C904 1.314 . S
N905 C907 1.279 . S
C906 C907 1.358 . S
C906 C908 1.356 . S
C906 H960 0.930 . S
C907 N905 1.279 . S
C907 C906 1.358 . S
C907 H911 0.930 . S
C908 C906 1.356 . S
C908 C909 1.348 . S
C909 C904 1.353 . S
C909 C908 1.348 . S
C909 H961 0.929 . S
H910 C904 0.930 . S
H911 C907 0.930 . S
C912 N913 1.314 . S
C912 C914 1.353 . S
C912 H918 0.930 . S
N913 Li889 1.990 . S
N913 C912 1.314 . S
N913 C916 1.279 . S
C914 C912 1.353 . S
C914 C917 1.348 . S
C914 H962 0.929 . S
C915 C916 1.358 . S
C915 C917 1.356 . S
C915 H963 0.930 . S
C916 N913 1.279 . S
C916 C915 1.358 . S
C916 H919 0.930 . S
C917 C914 1.348 . S
C917 C915 1.356 . S
H918 C912 0.930 . S
H919 C916 0.930 . S
C920 C922 1.348 1_545 S
C920 C923 1.356 . S
C920 O950 1.325 . S
N921 C924 1.314 1_545 S
N921 C925 1.279 . S
C922 C920 1.348 1_565 S
C922 C924 1.353 . S
C922 H964 0.929 . S
C923 C920 1.356 . S
C923 C925 1.358 . S
C923 H965 0.930 . S
C924 N921 1.314 1_565 S
C924 C922 1.353 . S
C924 H966 0.930 . S
C925 N921 1.279 . S
C925 C923 1.358 . S
C925 H967 0.930 . S
C926 C927 1.348 . S
C926 C928 1.356 . S
C926 O951 1.325 . S
C927 C926 1.348 . S
C927 C929 1.353 . S
C927 H968 0.929 . S
C928 C926 1.356 . S
C928 C930 1.358 . S
C928 H969 0.930 . S
C929 C927 1.353 . S
C929 N931 1.314 . S
C929 H970 0.930 . S
C930 C928 1.358 . S
C930 N931 1.279 . S
C930 H971 0.930 . S
N931 C929 1.314 . S
N931 C930 1.279 . S
C932 C934 1.353 . S
C932 N935 1.314 . S
C932 H938 0.930 . S
C933 N935 1.279 . S
C933 C936 1.358 . S
C933 H939 0.930 . S
C934 C932 1.353 . S
C934 C937 1.348 . S
C934 H972 0.929 . S
N935 Li890 1.990 . S
N935 C932 1.314 . S
N935 C933 1.279 . S
C936 C933 1.358 . S
C936 C937 1.356 . S
C936 H973 0.930 . S
C937 C934 1.348 . S
C937 C936 1.356 . S
H938 C932 0.930 . S
H939 C933 0.930 . S
C940 N941 1.314 . S
C940 C942 1.353 . S
C940 H946 0.930 . S
N941 Li891 1.990 . S
N941 C940 1.314 . S
N941 C944 1.279 . S
C942 C940 1.353 . S
C942 C945 1.348 . S
C942 H974 0.929 . S
C943 C944 1.358 . S
C943 C945 1.356 . S
C943 H975 0.930 . S
C944 N941 1.279 . S
C944 C943 1.358 . S
C944 H947 0.930 . S
C945 C942 1.348 . S
C945 C943 1.356 . S
H946 C940 0.930 . S
H947 C944 0.930 . S
O948 Li888 1.956 . S
O948 Li889 1.970 1_545 S
O948 Li890 1.961 . S
O948 C892 1.325 . S
O949 Li888 1.970 1_565 S
O949 Li889 1.956 . S
O949 Li891 1.961 . S
O949 C898 1.325 . S
O950 Li888 1.961 . S
O950 Li890 1.956 . S
O950 Li891 1.970 1_545 S
O950 C920 1.325 . S
O951 Li889 1.961 . S
O951 Li890 1.970 1_565 S
O951 Li891 1.956 . S
O951 C926 1.325 . S
H952 C894 0.929 . S
H953 C895 0.930 . S
H954 C896 0.930 . S
H955 C897 0.930 . S
H956 C899 0.930 . S
H957 C901 0.929 . S
H958 C902 0.930 . S
H959 C903 0.930 . S
H960 C906 0.930 . S
H961 C909 0.929 . S
H962 C914 0.929 . S
H963 C915 0.930 . S
H964 C922 0.929 . S
H965 C923 0.930 . S
H966 C924 0.930 . S
H967 C925 0.930 . S
H968 C927 0.929 . S
H969 C928 0.930 . S
H970 C929 0.930 . S
H971 C930 0.930 . S
H972 C934 0.929 . S
H973 C936 0.930 . S
H974 C942 0.929 . S
H975 C943 0.930 . S
Li976 N993 1.990 . S
Li976 O1036 1.956 . S
Li976 O1037 1.970 . S
Li976 O1038 1.961 . S
Li977 N1001 1.990 . S
Li977 O1036 1.970 . S
Li977 O1037 1.956 . S
Li977 O1039 1.961 . S
Li978 N1023 1.990 . S
Li978 O1036 1.961 . S
Li978 O1038 1.956 . S
Li978 O1039 1.970 . S
Li979 N1029 1.990 . S
Li979 O1037 1.961 . S
Li979 O1038 1.970 . S
Li979 O1039 1.956 . S
C980 C982 1.348 . S
C980 C983 1.356 . S
C980 O1036 1.325 . S
N981 C984 1.314 . S
N981 C985 1.279 . S
C982 C980 1.348 . S
C982 C984 1.353 . S
C982 H1040 0.929 . S
C983 C980 1.356 . S
C983 C985 1.358 . S
C983 H1041 0.930 . S
C984 N981 1.314 . S
C984 C982 1.353 . S
C984 H1042 0.930 . S
C985 N981 1.279 . S
C985 C983 1.358 . S
C985 H1043 0.930 . S
C986 C989 1.348 . S
C986 C990 1.356 . S
C986 O1037 1.325 . S
C987 N988 1.279 . S
C987 C990 1.358 . S
C987 H1044 0.930 . S
N988 C987 1.279 . S
N988 C991 1.314 . S
C989 C986 1.348 . S
C989 C991 1.353 . S
C989 H1045 0.929 . S
C990 C986 1.356 . S
C990 C987 1.358 . S
C990 H1046 0.930 . S
C991 N988 1.314 . S
C991 C989 1.353 . S
C991 H1047 0.930 . S
C992 N993 1.314 . S
C992 C997 1.353 . S
C992 H998 0.930 . S
N993 Li976 1.990 . S
N993 C992 1.314 . S
N993 C995 1.279 . S
C994 C995 1.358 . S
C994 C996 1.356 . S
C994 H1048 0.930 . S
C995 N993 1.279 . S
C995 C994 1.358 . S
C995 H999 0.930 . S
C996 C994 1.356 . S
C996 C997 1.348 . S
C997 C992 1.353 . S
C997 C996 1.348 . S
C997 H1049 0.929 . S
H998 C992 0.930 . S
H999 C995 0.930 . S
C1000 N1001 1.314 . S
C1000 C1002 1.353 . S
C1000 H1006 0.930 . S
N1001 Li977 1.990 . S
N1001 C1000 1.314 . S
N1001 C1004 1.279 . S
C1002 C1000 1.353 . S
C1002 C1005 1.348 . S
C1002 H1050 0.929 . S
C1003 C1004 1.358 . S
C1003 C1005 1.356 . S
C1003 H1051 0.930 . S
C1004 N1001 1.279 . S
C1004 C1003 1.358 . S
C1004 H1007 0.930 . S
C1005 C1002 1.348 . S
C1005 C1003 1.356 . S
H1006 C1000 0.930 . S
H1007 C1004 0.930 . S
C1008 C1010 1.348 . S
C1008 C1011 1.356 . S
C1008 O1038 1.325 . S
N1009 C1012 1.314 . S
N1009 C1013 1.279 . S
C1010 C1008 1.348 . S
C1010 C1012 1.353 . S
C1010 H1052 0.929 . S
C1011 C1008 1.356 . S
C1011 C1013 1.358 . S
C1011 H1053 0.930 . S
C1012 N1009 1.314 . S
C1012 C1010 1.353 . S
C1012 H1054 0.930 . S
C1013 N1009 1.279 . S
C1013 C1011 1.358 . S
C1013 H1055 0.930 . S
C1014 C1015 1.348 . S
C1014 C1016 1.356 . S
C1014 O1039 1.325 . S
C1015 C1014 1.348 . S
C1015 C1017 1.353 . S
C1015 H1056 0.929 . S
C1016 C1014 1.356 . S
C1016 C1018 1.358 . S
C1016 H1057 0.930 . S
C1017 C1015 1.353 . S
C1017 N1019 1.314 . S
C1017 H1058 0.930 . S
C1018 C1016 1.358 . S
C1018 N1019 1.279 . S
C1018 H1059 0.930 . S
N1019 C1017 1.314 . S
N1019 C1018 1.279 . S
C1020 C1022 1.353 . S
C1020 N1023 1.314 . S
C1020 H1026 0.930 . S
C1021 N1023 1.279 . S
C1021 C1024 1.358 . S
C1021 H1027 0.930 . S
C1022 C1020 1.353 . S
C1022 C1025 1.348 . S
C1022 H1060 0.929 . S
N1023 Li978 1.990 . S
N1023 C1020 1.314 . S
N1023 C1021 1.279 . S
C1024 C1021 1.358 . S
C1024 C1025 1.356 . S
C1024 H1061 0.930 . S
C1025 C1022 1.348 . S
C1025 C1024 1.356 . S
H1026 C1020 0.930 . S
H1027 C1021 0.930 . S
C1028 N1029 1.314 . S
C1028 C1030 1.353 . S
C1028 H1034 0.930 . S
N1029 Li979 1.990 . S
N1029 C1028 1.314 . S
N1029 C1032 1.279 . S
C1030 C1028 1.353 . S
C1030 C1033 1.348 . S
C1030 H1062 0.929 . S
C1031 C1032 1.358 . S
C1031 C1033 1.356 . S
C1031 H1063 0.930 . S
C1032 N1029 1.279 . S
C1032 C1031 1.358 . S
C1032 H1035 0.930 . S
C1033 C1030 1.348 . S
C1033 C1031 1.356 . S
H1034 C1028 0.930 . S
H1035 C1032 0.930 . S
O1036 Li976 1.956 . S
O1036 Li977 1.970 . S
O1036 Li978 1.961 . S
O1036 C980 1.325 . S
O1037 Li976 1.970 . S
O1037 Li977 1.956 . S
O1037 Li979 1.961 . S
O1037 C986 1.325 . S
O1038 Li976 1.961 . S
O1038 Li978 1.956 . S
O1038 Li979 1.970 . S
O1038 C1008 1.325 . S
O1039 Li977 1.961 . S
O1039 Li978 1.970 . S
O1039 Li979 1.956 . S
O1039 C1014 1.325 . S
H1040 C982 0.929 . S
H1041 C983 0.930 . S
H1042 C984 0.930 . S
H1043 C985 0.930 . S
H1044 C987 0.930 . S
H1045 C989 0.929 . S
H1046 C990 0.930 . S
H1047 C991 0.930 . S
H1048 C994 0.930 . S
H1049 C997 0.929 . S
H1050 C1002 0.929 . S
H1051 C1003 0.930 . S
H1052 C1010 0.929 . S
H1053 C1011 0.930 . S
H1054 C1012 0.930 . S
H1055 C1013 0.930 . S
H1056 C1015 0.929 . S
H1057 C1016 0.930 . S
H1058 C1017 0.930 . S
H1059 C1018 0.930 . S
H1060 C1022 0.929 . S
H1061 C1024 0.930 . S
H1062 C1030 0.929 . S
H1063 C1031 0.930 . S
Li1064 N1081 1.990 . S
Li1064 O1124 1.956 . S
Li1064 O1125 1.970 . S
Li1064 O1126 1.961 . S
Li1065 N1089 1.990 . S
Li1065 O1124 1.970 . S
Li1065 O1125 1.956 . S
Li1065 O1127 1.961 . S
Li1066 N1111 1.990 . S
Li1066 O1124 1.961 . S
Li1066 O1126 1.956 . S
Li1066 O1127 1.970 . S
Li1067 N1117 1.990 . S
Li1067 O1125 1.961 . S
Li1067 O1126 1.970 . S
Li1067 O1127 1.956 . S
C1068 C1070 1.348 . S
C1068 C1071 1.356 . S
C1068 O1124 1.325 . S
N1069 C1072 1.314 . S
N1069 C1073 1.279 . S
C1070 C1068 1.348 . S
C1070 C1072 1.353 . S
C1070 H1128 0.929 . S
C1071 C1068 1.356 . S
C1071 C1073 1.358 . S
C1071 H1129 0.930 . S
C1072 N1069 1.314 . S
C1072 C1070 1.353 . S
C1072 H1130 0.930 . S
C1073 N1069 1.279 . S
C1073 C1071 1.358 . S
C1073 H1131 0.930 . S
C1074 C1077 1.348 . S
C1074 C1078 1.356 . S
C1074 O1125 1.325 . S
C1075 N1076 1.279 . S
C1075 C1078 1.358 . S
C1075 H1132 0.930 . S
N1076 C1075 1.279 . S
N1076 C1079 1.314 . S
C1077 C1074 1.348 . S
C1077 C1079 1.353 . S
C1077 H1133 0.929 . S
C1078 C1074 1.356 . S
C1078 C1075 1.358 . S
C1078 H1134 0.930 . S
C1079 N1076 1.314 . S
C1079 C1077 1.353 . S
C1079 H1135 0.930 . S
C1080 N1081 1.314 . S
C1080 C1085 1.353 . S
C1080 H1086 0.930 . S
N1081 Li1064 1.990 . S
N1081 C1080 1.314 . S
N1081 C1083 1.279 . S
C1082 C1083 1.358 . S
C1082 C1084 1.356 . S
C1082 H1136 0.930 . S
C1083 N1081 1.279 . S
C1083 C1082 1.358 . S
C1083 H1087 0.930 . S
C1084 C1082 1.356 . S
C1084 C1085 1.348 . S
C1085 C1080 1.353 . S
C1085 C1084 1.348 . S
C1085 H1137 0.929 . S
H1086 C1080 0.930 . S
H1087 C1083 0.930 . S
C1088 N1089 1.314 . S
C1088 C1090 1.353 . S
C1088 H1094 0.930 . S
N1089 Li1065 1.990 . S
N1089 C1088 1.314 . S
N1089 C1092 1.279 . S
C1090 C1088 1.353 . S
C1090 C1093 1.348 . S
C1090 H1138 0.929 . S
C1091 C1092 1.358 . S
C1091 C1093 1.356 . S
C1091 H1139 0.930 . S
C1092 N1089 1.279 . S
C1092 C1091 1.358 . S
C1092 H1095 0.930 . S
C1093 C1090 1.348 . S
C1093 C1091 1.356 . S
H1094 C1088 0.930 . S
H1095 C1092 0.930 . S
C1096 C1098 1.348 . S
C1096 C1099 1.356 . S
C1096 O1126 1.325 . S
N1097 C1100 1.314 . S
N1097 C1101 1.279 . S
C1098 C1096 1.348 . S
C1098 C1100 1.353 . S
C1098 H1140 0.929 . S
C1099 C1096 1.356 . S
C1099 C1101 1.358 . S
C1099 H1141 0.930 . S
C1100 N1097 1.314 . S
C1100 C1098 1.353 . S
C1100 H1142 0.930 . S
C1101 N1097 1.279 . S
C1101 C1099 1.358 . S
C1101 H1143 0.930 . S
C1102 C1103 1.348 . S
C1102 C1104 1.356 . S
C1102 O1127 1.325 . S
C1103 C1102 1.348 . S
C1103 C1105 1.353 . S
C1103 H1144 0.929 . S
C1104 C1102 1.356 . S
C1104 C1106 1.358 . S
C1104 H1145 0.930 . S
C1105 C1103 1.353 . S
C1105 N1107 1.314 . S
C1105 H1146 0.930 . S
C1106 C1104 1.358 . S
C1106 N1107 1.279 . S
C1106 H1147 0.930 . S
N1107 C1105 1.314 . S
N1107 C1106 1.279 . S
C1108 C1110 1.353 . S
C1108 N1111 1.314 . S
C1108 H1114 0.930 . S
C1109 N1111 1.279 . S
C1109 C1112 1.358 . S
C1109 H1115 0.930 . S
C1110 C1108 1.353 . S
C1110 C1113 1.348 . S
C1110 H1148 0.929 . S
N1111 Li1066 1.990 . S
N1111 C1108 1.314 . S
N1111 C1109 1.279 . S
C1112 C1109 1.358 . S
C1112 C1113 1.356 . S
C1112 H1149 0.930 . S
C1113 C1110 1.348 . S
C1113 C1112 1.356 . S
H1114 C1108 0.930 . S
H1115 C1109 0.930 . S
C1116 N1117 1.314 . S
C1116 C1118 1.353 . S
C1116 H1122 0.930 . S
N1117 Li1067 1.990 . S
N1117 C1116 1.314 . S
N1117 C1120 1.279 . S
C1118 C1116 1.353 . S
C1118 C1121 1.348 . S
C1118 H1150 0.929 . S
C1119 C1120 1.358 . S
C1119 C1121 1.356 . S
C1119 H1151 0.930 . S
C1120 N1117 1.279 . S
C1120 C1119 1.358 . S
C1120 H1123 0.930 . S
C1121 C1118 1.348 . S
C1121 C1119 1.356 . S
H1122 C1116 0.930 . S
H1123 C1120 0.930 . S
O1124 Li1064 1.956 . S
O1124 Li1065 1.970 . S
O1124 Li1066 1.961 . S
O1124 C1068 1.325 . S
O1125 Li1064 1.970 . S
O1125 Li1065 1.956 . S
O1125 Li1067 1.961 . S
O1125 C1074 1.325 . S
O1126 Li1064 1.961 . S
O1126 Li1066 1.956 . S
O1126 Li1067 1.970 . S
O1126 C1096 1.325 . S
O1127 Li1065 1.961 . S
O1127 Li1066 1.970 . S
O1127 Li1067 1.956 . S
O1127 C1102 1.325 . S
H1128 C1070 0.929 . S
H1129 C1071 0.930 . S
H1130 C1072 0.930 . S
H1131 C1073 0.930 . S
H1132 C1075 0.930 . S
H1133 C1077 0.929 . S
H1134 C1078 0.930 . S
H1135 C1079 0.930 . S
H1136 C1082 0.930 . S
H1137 C1085 0.929 . S
H1138 C1090 0.929 . S
H1139 C1091 0.930 . S
H1140 C1098 0.929 . S
H1141 C1099 0.930 . S
H1142 C1100 0.930 . S
H1143 C1101 0.930 . S
H1144 C1103 0.929 . S
H1145 C1104 0.930 . S
H1146 C1105 0.930 . S
H1147 C1106 0.930 . S
H1148 C1110 0.929 . S
H1149 C1112 0.930 . S
H1150 C1118 0.929 . S
H1151 C1119 0.930 . S
Li1152 N1169 1.990 . S
Li1152 O1212 1.956 . S
Li1152 O1213 1.970 . S
Li1152 O1214 1.961 . S
Li1153 N1177 1.990 . S
Li1153 O1212 1.970 . S
Li1153 O1213 1.956 . S
Li1153 O1215 1.961 . S
Li1154 N1199 1.990 . S
Li1154 O1212 1.961 . S
Li1154 O1214 1.956 . S
Li1154 O1215 1.970 . S
Li1155 N1205 1.990 . S
Li1155 O1213 1.961 . S
Li1155 O1214 1.970 . S
Li1155 O1215 1.956 . S
C1156 C1158 1.348 . S
C1156 C1159 1.356 . S
C1156 O1212 1.325 . S
N1157 C1160 1.314 . S
N1157 C1161 1.279 . S
C1158 C1156 1.348 . S
C1158 C1160 1.353 . S
C1158 H1216 0.929 . S
C1159 C1156 1.356 . S
C1159 C1161 1.358 . S
C1159 H1217 0.930 . S
C1160 N1157 1.314 . S
C1160 C1158 1.353 . S
C1160 H1218 0.930 . S
C1161 N1157 1.279 . S
C1161 C1159 1.358 . S
C1161 H1219 0.930 . S
C1162 C1165 1.348 . S
C1162 C1166 1.356 . S
C1162 O1213 1.325 . S
C1163 N1164 1.279 . S
C1163 C1166 1.358 . S
C1163 H1220 0.930 . S
N1164 C1163 1.279 . S
N1164 C1167 1.314 . S
C1165 C1162 1.348 . S
C1165 C1167 1.353 . S
C1165 H1221 0.929 . S
C1166 C1162 1.356 . S
C1166 C1163 1.358 . S
C1166 H1222 0.930 . S
C1167 N1164 1.314 . S
C1167 C1165 1.353 . S
C1167 H1223 0.930 . S
C1168 N1169 1.314 . S
C1168 C1173 1.353 . S
C1168 H1174 0.930 . S
N1169 Li1152 1.990 . S
N1169 C1168 1.314 . S
N1169 C1171 1.279 . S
C1170 C1171 1.358 . S
C1170 C1172 1.356 . S
C1170 H1224 0.930 . S
C1171 N1169 1.279 . S
C1171 C1170 1.358 . S
C1171 H1175 0.930 . S
C1172 C1170 1.356 . S
C1172 C1173 1.348 . S
C1173 C1168 1.353 . S
C1173 C1172 1.348 . S
C1173 H1225 0.929 . S
H1174 C1168 0.930 . S
H1175 C1171 0.930 . S
C1176 N1177 1.314 . S
C1176 C1178 1.353 . S
C1176 H1182 0.930 . S
N1177 Li1153 1.990 . S
N1177 C1176 1.314 . S
N1177 C1180 1.279 . S
C1178 C1176 1.353 . S
C1178 C1181 1.348 . S
C1178 H1226 0.929 . S
C1179 C1180 1.358 . S
C1179 C1181 1.356 . S
C1179 H1227 0.930 . S
C1180 N1177 1.279 . S
C1180 C1179 1.358 . S
C1180 H1183 0.930 . S
C1181 C1178 1.348 . S
C1181 C1179 1.356 . S
H1182 C1176 0.930 . S
H1183 C1180 0.930 . S
C1184 C1186 1.348 . S
C1184 C1187 1.356 . S
C1184 O1214 1.325 . S
N1185 C1188 1.314 . S
N1185 C1189 1.279 . S
C1186 C1184 1.348 . S
C1186 C1188 1.353 . S
C1186 H1228 0.929 . S
C1187 C1184 1.356 . S
C1187 C1189 1.358 . S
C1187 H1229 0.930 . S
C1188 N1185 1.314 . S
C1188 C1186 1.353 . S
C1188 H1230 0.930 . S
C1189 N1185 1.279 . S
C1189 C1187 1.358 . S
C1189 H1231 0.930 . S
C1190 C1191 1.348 . S
C1190 C1192 1.356 . S
C1190 O1215 1.325 . S
C1191 C1190 1.348 . S
C1191 C1193 1.353 . S
C1191 H1232 0.929 . S
C1192 C1190 1.356 . S
C1192 C1194 1.358 . S
C1192 H1233 0.930 . S
C1193 C1191 1.353 . S
C1193 N1195 1.314 . S
C1193 H1234 0.930 . S
C1194 C1192 1.358 . S
C1194 N1195 1.279 . S
C1194 H1235 0.930 . S
N1195 C1193 1.314 . S
N1195 C1194 1.279 . S
C1196 C1198 1.353 . S
C1196 N1199 1.314 . S
C1196 H1202 0.930 . S
C1197 N1199 1.279 . S
C1197 C1200 1.358 . S
C1197 H1203 0.930 . S
C1198 C1196 1.353 . S
C1198 C1201 1.348 . S
C1198 H1236 0.929 . S
N1199 Li1154 1.990 . S
N1199 C1196 1.314 . S
N1199 C1197 1.279 . S
C1200 C1197 1.358 . S
C1200 C1201 1.356 . S
C1200 H1237 0.930 . S
C1201 C1198 1.348 . S
C1201 C1200 1.356 . S
H1202 C1196 0.930 . S
H1203 C1197 0.930 . S
C1204 N1205 1.314 . S
C1204 C1206 1.353 . S
C1204 H1210 0.930 . S
N1205 Li1155 1.990 . S
N1205 C1204 1.314 . S
N1205 C1208 1.279 . S
C1206 C1204 1.353 . S
C1206 C1209 1.348 . S
C1206 H1238 0.929 . S
C1207 C1208 1.358 . S
C1207 C1209 1.356 . S
C1207 H1239 0.930 . S
C1208 N1205 1.279 . S
C1208 C1207 1.358 . S
C1208 H1211 0.930 . S
C1209 C1206 1.348 . S
C1209 C1207 1.356 . S
H1210 C1204 0.930 . S
H1211 C1208 0.930 . S
O1212 Li1152 1.956 . S
O1212 Li1153 1.970 . S
O1212 Li1154 1.961 . S
O1212 C1156 1.325 . S
O1213 Li1152 1.970 . S
O1213 Li1153 1.956 . S
O1213 Li1155 1.961 . S
O1213 C1162 1.325 . S
O1214 Li1152 1.961 . S
O1214 Li1154 1.956 . S
O1214 Li1155 1.970 . S
O1214 C1184 1.325 . S
O1215 Li1153 1.961 . S
O1215 Li1154 1.970 . S
O1215 Li1155 1.956 . S
O1215 C1190 1.325 . S
H1216 C1158 0.929 . S
H1217 C1159 0.930 . S
H1218 C1160 0.930 . S
H1219 C1161 0.930 . S
H1220 C1163 0.930 . S
H1221 C1165 0.929 . S
H1222 C1166 0.930 . S
H1223 C1167 0.930 . S
H1224 C1170 0.930 . S
H1225 C1173 0.929 . S
H1226 C1178 0.929 . S
H1227 C1179 0.930 . S
H1228 C1186 0.929 . S
H1229 C1187 0.930 . S
H1230 C1188 0.930 . S
H1231 C1189 0.930 . S
H1232 C1191 0.929 . S
H1233 C1192 0.930 . S
H1234 C1193 0.930 . S
H1235 C1194 0.930 . S
H1236 C1198 0.929 . S
H1237 C1200 0.930 . S
H1238 C1206 0.929 . S
H1239 C1207 0.930 . S
Li1240 N1257 1.990 . S
Li1240 O1300 1.956 . S
Li1240 O1301 1.970 1_565 S
Li1240 O1302 1.961 . S
Li1241 N1265 1.990 . S
Li1241 O1300 1.970 1_545 S
Li1241 O1301 1.956 . S
Li1241 O1303 1.961 . S
Li1242 N1287 1.990 . S
Li1242 O1300 1.961 . S
Li1242 O1302 1.956 . S
Li1242 O1303 1.970 1_565 S
Li1243 N1293 1.990 . S
Li1243 O1301 1.961 . S
Li1243 O1302 1.970 1_545 S
Li1243 O1303 1.956 . S
C1244 C1246 1.348 . S
C1244 C1247 1.356 . S
C1244 O1300 1.325 . S
N1245 C1248 1.314 . S
N1245 C1249 1.279 . S
C1246 C1244 1.348 . S
C1246 C1248 1.353 . S
C1246 H1304 0.929 . S
C1247 C1244 1.356 . S
C1247 C1249 1.358 . S
C1247 H1305 0.930 . S
C1248 N1245 1.314 . S
C1248 C1246 1.353 . S
C1248 H1306 0.930 . S
C1249 N1245 1.279 . S
C1249 C1247 1.358 . S
C1249 H1307 0.930 . S
C1250 C1253 1.348 1_545 S
C1250 C1254 1.356 . S
C1250 O1301 1.325 . S
C1251 N1252 1.279 . S
C1251 C1254 1.358 . S
C1251 H1308 0.930 . S
N1252 C1251 1.279 . S
N1252 C1255 1.314 1_545 S
C1253 C1250 1.348 1_565 S
C1253 C1255 1.353 . S
C1253 H1309 0.929 . S
C1254 C1250 1.356 . S
C1254 C1251 1.358 . S
C1254 H1310 0.930 . S
C1255 N1252 1.314 1_565 S
C1255 C1253 1.353 . S
C1255 H1311 0.930 . S
C1256 N1257 1.314 . S
C1256 C1261 1.353 . S
C1256 H1262 0.930 . S
N1257 Li1240 1.990 . S
N1257 C1256 1.314 . S
N1257 C1259 1.279 . S
C1258 C1259 1.358 . S
C1258 C1260 1.356 . S
C1258 H1312 0.930 . S
C1259 N1257 1.279 . S
C1259 C1258 1.358 . S
C1259 H1263 0.930 . S
C1260 C1258 1.356 . S
C1260 C1261 1.348 . S
C1261 C1256 1.353 . S
C1261 C1260 1.348 . S
C1261 H1313 0.929 . S
H1262 C1256 0.930 . S
H1263 C1259 0.930 . S
C1264 N1265 1.314 . S
C1264 C1266 1.353 . S
C1264 H1270 0.930 . S
N1265 Li1241 1.990 . S
N1265 C1264 1.314 . S
N1265 C1268 1.279 . S
C1266 C1264 1.353 . S
C1266 C1269 1.348 . S
C1266 H1314 0.929 . S
C1267 C1268 1.358 . S
C1267 C1269 1.356 . S
C1267 H1315 0.930 . S
C1268 N1265 1.279 . S
C1268 C1267 1.358 . S
C1268 H1271 0.930 . S
C1269 C1266 1.348 . S
C1269 C1267 1.356 . S
H1270 C1264 0.930 . S
H1271 C1268 0.930 . S
C1272 C1274 1.348 1_565 S
C1272 C1275 1.356 . S
C1272 O1302 1.325 . S
N1273 C1276 1.314 1_565 S
N1273 C1277 1.279 . S
C1274 C1272 1.348 1_545 S
C1274 C1276 1.353 . S
C1274 H1316 0.929 . S
C1275 C1272 1.356 . S
C1275 C1277 1.358 . S
C1275 H1317 0.930 . S
C1276 N1273 1.314 1_545 S
C1276 C1274 1.353 . S
C1276 H1318 0.930 . S
C1277 N1273 1.279 . S
C1277 C1275 1.358 . S
C1277 H1319 0.930 . S
C1278 C1279 1.348 . S
C1278 C1280 1.356 . S
C1278 O1303 1.325 . S
C1279 C1278 1.348 . S
C1279 C1281 1.353 . S
C1279 H1320 0.929 . S
C1280 C1278 1.356 . S
C1280 C1282 1.358 . S
C1280 H1321 0.930 . S
C1281 C1279 1.353 . S
C1281 N1283 1.314 . S
C1281 H1322 0.930 . S
C1282 C1280 1.358 . S
C1282 N1283 1.279 . S
C1282 H1323 0.930 . S
N1283 C1281 1.314 . S
N1283 C1282 1.279 . S
C1284 C1286 1.353 . S
C1284 N1287 1.314 . S
C1284 H1290 0.930 . S
C1285 N1287 1.279 . S
C1285 C1288 1.358 . S
C1285 H1291 0.930 . S
C1286 C1284 1.353 . S
C1286 C1289 1.348 . S
C1286 H1324 0.929 . S
N1287 Li1242 1.990 . S
N1287 C1284 1.314 . S
N1287 C1285 1.279 . S
C1288 C1285 1.358 . S
C1288 C1289 1.356 . S
C1288 H1325 0.930 . S
C1289 C1286 1.348 . S
C1289 C1288 1.356 . S
H1290 C1284 0.930 . S
H1291 C1285 0.930 . S
C1292 N1293 1.314 . S
C1292 C1294 1.353 . S
C1292 H1298 0.930 . S
N1293 Li1243 1.990 . S
N1293 C1292 1.314 . S
N1293 C1296 1.279 . S
C1294 C1292 1.353 . S
C1294 C1297 1.348 . S
C1294 H1326 0.929 . S
C1295 C1296 1.358 . S
C1295 C1297 1.356 . S
C1295 H1327 0.930 . S
C1296 N1293 1.279 . S
C1296 C1295 1.358 . S
C1296 H1299 0.930 . S
C1297 C1294 1.348 . S
C1297 C1295 1.356 . S
H1298 C1292 0.930 . S
H1299 C1296 0.930 . S
O1300 Li1240 1.956 . S
O1300 Li1241 1.970 1_565 S
O1300 Li1242 1.961 . S
O1300 C1244 1.325 . S
O1301 Li1240 1.970 1_545 S
O1301 Li1241 1.956 . S
O1301 Li1243 1.961 . S
O1301 C1250 1.325 . S
O1302 Li1240 1.961 . S
O1302 Li1242 1.956 . S
O1302 Li1243 1.970 1_565 S
O1302 C1272 1.325 . S
O1303 Li1241 1.961 . S
O1303 Li1242 1.970 1_545 S
O1303 Li1243 1.956 . S
O1303 C1278 1.325 . S
H1304 C1246 0.929 . S
H1305 C1247 0.930 . S
H1306 C1248 0.930 . S
H1307 C1249 0.930 . S
H1308 C1251 0.930 . S
H1309 C1253 0.929 . S
H1310 C1254 0.930 . S
H1311 C1255 0.930 . S
H1312 C1258 0.930 . S
H1313 C1261 0.929 . S
H1314 C1266 0.929 . S
H1315 C1267 0.930 . S
H1316 C1274 0.929 . S
H1317 C1275 0.930 . S
H1318 C1276 0.930 . S
H1319 C1277 0.930 . S
H1320 C1279 0.929 . S
H1321 C1280 0.930 . S
H1322 C1281 0.930 . S
H1323 C1282 0.930 . S
H1324 C1286 0.929 . S
H1325 C1288 0.930 . S
H1326 C1294 0.929 . S
H1327 C1295 0.930 . S
Li1328 N1345 1.990 . S
Li1328 O1388 1.956 . S
Li1328 O1389 1.970 1_455 S
Li1328 O1390 1.961 . S
Li1329 N1353 1.990 . S
Li1329 O1388 1.970 1_655 S
Li1329 O1389 1.956 . S
Li1329 O1391 1.961 . S
Li1330 N1375 1.990 . S
Li1330 O1388 1.961 . S
Li1330 O1390 1.956 . S
Li1330 O1391 1.970 1_455 S
Li1331 N1381 1.990 . S
Li1331 O1389 1.961 . S
Li1331 O1390 1.970 1_655 S
Li1331 O1391 1.956 . S
C1332 C1334 1.348 . S
C1332 C1335 1.356 . S
C1332 O1388 1.325 . S
N1333 C1336 1.314 . S
N1333 C1337 1.279 . S
C1334 C1332 1.348 . S
C1334 C1336 1.353 . S
C1334 H1392 0.929 . S
C1335 C1332 1.356 . S
C1335 C1337 1.358 . S
C1335 H1393 0.930 . S
C1336 N1333 1.314 . S
C1336 C1334 1.353 . S
C1336 H1394 0.930 . S
C1337 N1333 1.279 . S
C1337 C1335 1.358 . S
C1337 H1395 0.930 . S
C1338 C1341 1.348 1_655 S
C1338 C1342 1.356 . S
C1338 O1389 1.325 . S
C1339 N1340 1.279 . S
C1339 C1342 1.358 . S
C1339 H1396 0.930 . S
N1340 C1339 1.279 . S
N1340 C1343 1.314 1_655 S
C1341 C1338 1.348 1_455 S
C1341 C1343 1.353 . S
C1341 H1397 0.929 . S
C1342 C1338 1.356 . S
C1342 C1339 1.358 . S
C1342 H1398 0.930 . S
C1343 N1340 1.314 1_455 S
C1343 C1341 1.353 . S
C1343 H1399 0.930 . S
C1344 N1345 1.314 . S
C1344 C1349 1.353 . S
C1344 H1350 0.930 . S
N1345 Li1328 1.990 . S
N1345 C1344 1.314 . S
N1345 C1347 1.279 . S
C1346 C1347 1.358 . S
C1346 C1348 1.356 . S
C1346 H1400 0.930 . S
C1347 N1345 1.279 . S
C1347 C1346 1.358 . S
C1347 H1351 0.930 . S
C1348 C1346 1.356 . S
C1348 C1349 1.348 . S
C1349 C1344 1.353 . S
C1349 C1348 1.348 . S
C1349 H1401 0.929 . S
H1350 C1344 0.930 . S
H1351 C1347 0.930 . S
C1352 N1353 1.314 . S
C1352 C1354 1.353 . S
C1352 H1358 0.930 . S
N1353 Li1329 1.990 . S
N1353 C1352 1.314 . S
N1353 C1356 1.279 . S
C1354 C1352 1.353 . S
C1354 C1357 1.348 . S
C1354 H1402 0.929 . S
C1355 C1356 1.358 . S
C1355 C1357 1.356 . S
C1355 H1403 0.930 . S
C1356 N1353 1.279 . S
C1356 C1355 1.358 . S
C1356 H1359 0.930 . S
C1357 C1354 1.348 . S
C1357 C1355 1.356 . S
H1358 C1352 0.930 . S
H1359 C1356 0.930 . S
C1360 C1362 1.348 1_455 S
C1360 C1363 1.356 . S
C1360 O1390 1.325 . S
N1361 C1364 1.314 1_455 S
N1361 C1365 1.279 . S
C1362 C1360 1.348 1_655 S
C1362 C1364 1.353 . S
C1362 H1404 0.929 . S
C1363 C1360 1.356 . S
C1363 C1365 1.358 . S
C1363 H1405 0.930 . S
C1364 N1361 1.314 1_655 S
C1364 C1362 1.353 . S
C1364 H1406 0.930 . S
C1365 N1361 1.279 . S
C1365 C1363 1.358 . S
C1365 H1407 0.930 . S
C1366 C1367 1.348 . S
C1366 C1368 1.356 . S
C1366 O1391 1.325 . S
C1367 C1366 1.348 . S
C1367 C1369 1.353 . S
C1367 H1408 0.929 . S
C1368 C1366 1.356 . S
C1368 C1370 1.358 . S
C1368 H1409 0.930 . S
C1369 C1367 1.353 . S
C1369 N1371 1.314 . S
C1369 H1410 0.930 . S
C1370 C1368 1.358 . S
C1370 N1371 1.279 . S
C1370 H1411 0.930 . S
N1371 C1369 1.314 . S
N1371 C1370 1.279 . S
C1372 C1374 1.353 . S
C1372 N1375 1.314 . S
C1372 H1378 0.930 . S
C1373 N1375 1.279 . S
C1373 C1376 1.358 . S
C1373 H1379 0.930 . S
C1374 C1372 1.353 . S
C1374 C1377 1.348 . S
C1374 H1412 0.929 . S
N1375 Li1330 1.990 . S
N1375 C1372 1.314 . S
N1375 C1373 1.279 . S
C1376 C1373 1.358 . S
C1376 C1377 1.356 . S
C1376 H1413 0.930 . S
C1377 C1374 1.348 . S
C1377 C1376 1.356 . S
H1378 C1372 0.930 . S
H1379 C1373 0.930 . S
C1380 N1381 1.314 . S
C1380 C1382 1.353 . S
C1380 H1386 0.930 . S
N1381 Li1331 1.990 . S
N1381 C1380 1.314 . S
N1381 C1384 1.279 . S
C1382 C1380 1.353 . S
C1382 C1385 1.348 . S
C1382 H1414 0.929 . S
C1383 C1384 1.358 . S
C1383 C1385 1.356 . S
C1383 H1415 0.930 . S
C1384 N1381 1.279 . S
C1384 C1383 1.358 . S
C1384 H1387 0.930 . S
C1385 C1382 1.348 . S
C1385 C1383 1.356 . S
H1386 C1380 0.930 . S
H1387 C1384 0.930 . S
O1388 Li1328 1.956 . S
O1388 Li1329 1.970 1_455 S
O1388 Li1330 1.961 . S
O1388 C1332 1.325 . S
O1389 Li1328 1.970 1_655 S
O1389 Li1329 1.956 . S
O1389 Li1331 1.961 . S
O1389 C1338 1.325 . S
O1390 Li1328 1.961 . S
O1390 Li1330 1.956 . S
O1390 Li1331 1.970 1_455 S
O1390 C1360 1.325 . S
O1391 Li1329 1.961 . S
O1391 Li1330 1.970 1_655 S
O1391 Li1331 1.956 . S
O1391 C1366 1.325 . S
H1392 C1334 0.929 . S
H1393 C1335 0.930 . S
H1394 C1336 0.930 . S
H1395 C1337 0.930 . S
H1396 C1339 0.930 . S
H1397 C1341 0.929 . S
H1398 C1342 0.930 . S
H1399 C1343 0.930 . S
H1400 C1346 0.930 . S
H1401 C1349 0.929 . S
H1402 C1354 0.929 . S
H1403 C1355 0.930 . S
H1404 C1362 0.929 . S
H1405 C1363 0.930 . S
H1406 C1364 0.930 . S
H1407 C1365 0.930 . S
H1408 C1367 0.929 . S
H1409 C1368 0.930 . S
H1410 C1369 0.930 . S
H1411 C1370 0.930 . S
H1412 C1374 0.929 . S
H1413 C1376 0.930 . S
H1414 C1382 0.929 . S
H1415 C1383 0.930 . S
Li1416 N1433 1.990 . S
Li1416 O1476 1.956 . S
Li1416 O1477 1.970 . S
Li1416 O1478 1.961 . S
Li1417 N1441 1.990 . S
Li1417 O1476 1.970 . S
Li1417 O1477 1.956 . S
Li1417 O1479 1.961 . S
Li1418 N1463 1.990 . S
Li1418 O1476 1.961 . S
Li1418 O1478 1.956 . S
Li1418 O1479 1.970 . S
Li1419 N1469 1.990 . S
Li1419 O1477 1.961 . S
Li1419 O1478 1.970 . S
Li1419 O1479 1.956 . S
C1420 C1422 1.348 . S
C1420 C1423 1.356 . S
C1420 O1476 1.325 . S
N1421 C1424 1.314 . S
N1421 C1425 1.279 . S
C1422 C1420 1.348 . S
C1422 C1424 1.353 . S
C1422 H1480 0.929 . S
C1423 C1420 1.356 . S
C1423 C1425 1.358 . S
C1423 H1481 0.930 . S
C1424 N1421 1.314 . S
C1424 C1422 1.353 . S
C1424 H1482 0.930 . S
C1425 N1421 1.279 . S
C1425 C1423 1.358 . S
C1425 H1483 0.930 . S
C1426 C1429 1.348 . S
C1426 C1430 1.356 . S
C1426 O1477 1.325 . S
C1427 N1428 1.279 . S
C1427 C1430 1.358 . S
C1427 H1484 0.930 . S
N1428 C1427 1.279 . S
N1428 C1431 1.314 . S
C1429 C1426 1.348 . S
C1429 C1431 1.353 . S
C1429 H1485 0.929 . S
C1430 C1426 1.356 . S
C1430 C1427 1.358 . S
C1430 H1486 0.930 . S
C1431 N1428 1.314 . S
C1431 C1429 1.353 . S
C1431 H1487 0.930 . S
C1432 N1433 1.314 . S
C1432 C1437 1.353 . S
C1432 H1438 0.930 . S
N1433 Li1416 1.990 . S
N1433 C1432 1.314 . S
N1433 C1435 1.279 . S
C1434 C1435 1.358 . S
C1434 C1436 1.356 . S
C1434 H1488 0.930 . S
C1435 N1433 1.279 . S
C1435 C1434 1.358 . S
C1435 H1439 0.930 . S
C1436 C1434 1.356 . S
C1436 C1437 1.348 . S
C1437 C1432 1.353 . S
C1437 C1436 1.348 . S
C1437 H1489 0.929 . S
H1438 C1432 0.930 . S
H1439 C1435 0.930 . S
C1440 N1441 1.314 . S
C1440 C1442 1.353 . S
C1440 H1446 0.930 . S
N1441 Li1417 1.990 . S
N1441 C1440 1.314 . S
N1441 C1444 1.279 . S
C1442 C1440 1.353 . S
C1442 C1445 1.348 . S
C1442 H1490 0.929 . S
C1443 C1444 1.358 . S
C1443 C1445 1.356 . S
C1443 H1491 0.930 . S
C1444 N1441 1.279 . S
C1444 C1443 1.358 . S
C1444 H1447 0.930 . S
C1445 C1442 1.348 . S
C1445 C1443 1.356 . S
H1446 C1440 0.930 . S
H1447 C1444 0.930 . S
C1448 C1450 1.348 . S
C1448 C1451 1.356 . S
C1448 O1478 1.325 . S
N1449 C1452 1.314 . S
N1449 C1453 1.279 . S
C1450 C1448 1.348 . S
C1450 C1452 1.353 . S
C1450 H1492 0.929 . S
C1451 C1448 1.356 . S
C1451 C1453 1.358 . S
C1451 H1493 0.930 . S
C1452 N1449 1.314 . S
C1452 C1450 1.353 . S
C1452 H1494 0.930 . S
C1453 N1449 1.279 . S
C1453 C1451 1.358 . S
C1453 H1495 0.930 . S
C1454 C1455 1.348 . S
C1454 C1456 1.356 . S
C1454 O1479 1.325 . S
C1455 C1454 1.348 . S
C1455 C1457 1.353 . S
C1455 H1496 0.929 . S
C1456 C1454 1.356 . S
C1456 C1458 1.358 . S
C1456 H1497 0.930 . S
C1457 C1455 1.353 . S
C1457 N1459 1.314 . S
C1457 H1498 0.930 . S
C1458 C1456 1.358 . S
C1458 N1459 1.279 . S
C1458 H1499 0.930 . S
N1459 C1457 1.314 . S
N1459 C1458 1.279 . S
C1460 C1462 1.353 . S
C1460 N1463 1.314 . S
C1460 H1466 0.930 . S
C1461 N1463 1.279 . S
C1461 C1464 1.358 . S
C1461 H1467 0.930 . S
C1462 C1460 1.353 . S
C1462 C1465 1.348 . S
C1462 H1500 0.929 . S
N1463 Li1418 1.990 . S
N1463 C1460 1.314 . S
N1463 C1461 1.279 . S
C1464 C1461 1.358 . S
C1464 C1465 1.356 . S
C1464 H1501 0.930 . S
C1465 C1462 1.348 . S
C1465 C1464 1.356 . S
H1466 C1460 0.930 . S
H1467 C1461 0.930 . S
C1468 N1469 1.314 . S
C1468 C1470 1.353 . S
C1468 H1474 0.930 . S
N1469 Li1419 1.990 . S
N1469 C1468 1.314 . S
N1469 C1472 1.279 . S
C1470 C1468 1.353 . S
C1470 C1473 1.348 . S
C1470 H1502 0.929 . S
C1471 C1472 1.358 . S
C1471 C1473 1.356 . S
C1471 H1503 0.930 . S
C1472 N1469 1.279 . S
C1472 C1471 1.358 . S
C1472 H1475 0.930 . S
C1473 C1470 1.348 . S
C1473 C1471 1.356 . S
H1474 C1468 0.930 . S
H1475 C1472 0.930 . S
O1476 Li1416 1.956 . S
O1476 Li1417 1.970 . S
O1476 Li1418 1.961 . S
O1476 C1420 1.325 . S
O1477 Li1416 1.970 . S
O1477 Li1417 1.956 . S
O1477 Li1419 1.961 . S
O1477 C1426 1.325 . S
O1478 Li1416 1.961 . S
O1478 Li1418 1.956 . S
O1478 Li1419 1.970 . S
O1478 C1448 1.325 . S
O1479 Li1417 1.961 . S
O1479 Li1418 1.970 . S
O1479 Li1419 1.956 . S
O1479 C1454 1.325 . S
H1480 C1422 0.929 . S
H1481 C1423 0.930 . S
H1482 C1424 0.930 . S
H1483 C1425 0.930 . S
H1484 C1427 0.930 . S
H1485 C1429 0.929 . S
H1486 C1430 0.930 . S
H1487 C1431 0.930 . S
H1488 C1434 0.930 . S
H1489 C1437 0.929 . S
H1490 C1442 0.929 . S
H1491 C1443 0.930 . S
H1492 C1450 0.929 . S
H1493 C1451 0.930 . S
H1494 C1452 0.930 . S
H1495 C1453 0.930 . S
H1496 C1455 0.929 . S
H1497 C1456 0.930 . S
H1498 C1457 0.930 . S
H1499 C1458 0.930 . S
H1500 C1462 0.929 . S
H1501 C1464 0.930 . S
H1502 C1470 0.929 . S
H1503 C1471 0.930 . S
Li1504 N1521 1.990 . S
Li1504 O1564 1.956 . S
Li1504 O1565 1.970 1_455 S
Li1504 O1566 1.961 . S
Li1505 N1529 1.990 . S
Li1505 O1564 1.970 1_655 S
Li1505 O1565 1.956 . S
Li1505 O1567 1.961 . S
Li1506 N1551 1.990 . S
Li1506 O1564 1.961 . S
Li1506 O1566 1.956 . S
Li1506 O1567 1.970 1_455 S
Li1507 N1557 1.990 . S
Li1507 O1565 1.961 . S
Li1507 O1566 1.970 1_655 S
Li1507 O1567 1.956 . S
C1508 C1510 1.348 1_455 S
C1508 C1511 1.356 . S
C1508 O1564 1.325 . S
N1509 C1512 1.314 1_455 S
N1509 C1513 1.279 . S
C1510 C1508 1.348 1_655 S
C1510 C1512 1.353 . S
C1510 H1568 0.929 . S
C1511 C1508 1.356 . S
C1511 C1513 1.358 . S
C1511 H1569 0.930 . S
C1512 N1509 1.314 1_655 S
C1512 C1510 1.353 . S
C1512 H1570 0.930 . S
C1513 N1509 1.279 . S
C1513 C1511 1.358 . S
C1513 H1571 0.930 . S
C1514 C1517 1.348 . S
C1514 C1518 1.356 . S
C1514 O1565 1.325 . S
C1515 N1516 1.279 . S
C1515 C1518 1.358 . S
C1515 H1572 0.930 . S
N1516 C1515 1.279 . S
N1516 C1519 1.314 . S
C1517 C1514 1.348 . S
C1517 C1519 1.353 . S
C1517 H1573 0.929 . S
C1518 C1514 1.356 . S
C1518 C1515 1.358 . S
C1518 H1574 0.930 . S
C1519 N1516 1.314 . S
C1519 C1517 1.353 . S
C1519 H1575 0.930 . S
C1520 N1521 1.314 . S
C1520 C1525 1.353 . S
C1520 H1526 0.930 . S
N1521 Li1504 1.990 . S
N1521 C1520 1.314 . S
N1521 C1523 1.279 . S
C1522 C1523 1.358 . S
C1522 C1524 1.356 . S
C1522 H1576 0.930 . S
C1523 N1521 1.279 . S
C1523 C1522 1.358 . S
C1523 H1527 0.930 . S
C1524 C1522 1.356 . S
C1524 C1525 1.348 . S
C1525 C1520 1.353 . S
C1525 C1524 1.348 . S
C1525 H1577 0.929 . S
H1526 C1520 0.930 . S
H1527 C1523 0.930 . S
C1528 N1529 1.314 . S
C1528 C1530 1.353 . S
C1528 H1534 0.930 . S
N1529 Li1505 1.990 . S
N1529 C1528 1.314 . S
N1529 C1532 1.279 . S
C1530 C1528 1.353 . S
C1530 C1533 1.348 . S
C1530 H1578 0.929 . S
C1531 C1532 1.358 . S
C1531 C1533 1.356 . S
C1531 H1579 0.930 . S
C1532 N1529 1.279 . S
C1532 C1531 1.358 . S
C1532 H1535 0.930 . S
C1533 C1530 1.348 . S
C1533 C1531 1.356 . S
H1534 C1528 0.930 . S
H1535 C1532 0.930 . S
C1536 C1538 1.348 . S
C1536 C1539 1.356 . S
C1536 O1566 1.325 . S
N1537 C1540 1.314 . S
N1537 C1541 1.279 . S
C1538 C1536 1.348 . S
C1538 C1540 1.353 . S
C1538 H1580 0.929 . S
C1539 C1536 1.356 . S
C1539 C1541 1.358 . S
C1539 H1581 0.930 . S
C1540 N1537 1.314 . S
C1540 C1538 1.353 . S
C1540 H1582 0.930 . S
C1541 N1537 1.279 . S
C1541 C1539 1.358 . S
C1541 H1583 0.930 . S
C1542 C1543 1.348 1_655 S
C1542 C1544 1.356 . S
C1542 O1567 1.325 . S
C1543 C1542 1.348 1_455 S
C1543 C1545 1.353 . S
C1543 H1584 0.929 . S
C1544 C1542 1.356 . S
C1544 C1546 1.358 . S
C1544 H1585 0.930 . S
C1545 C1543 1.353 . S
C1545 N1547 1.314 1_455 S
C1545 H1586 0.930 . S
C1546 C1544 1.358 . S
C1546 N1547 1.279 . S
C1546 H1587 0.930 . S
N1547 C1545 1.314 1_655 S
N1547 C1546 1.279 . S
C1548 C1550 1.353 . S
C1548 N1551 1.314 . S
C1548 H1554 0.930 . S
C1549 N1551 1.279 . S
C1549 C1552 1.358 . S
C1549 H1555 0.930 . S
C1550 C1548 1.353 . S
C1550 C1553 1.348 . S
C1550 H1588 0.929 . S
N1551 Li1506 1.990 . S
N1551 C1548 1.314 . S
N1551 C1549 1.279 . S
C1552 C1549 1.358 . S
C1552 C1553 1.356 . S
C1552 H1589 0.930 . S
C1553 C1550 1.348 . S
C1553 C1552 1.356 . S
H1554 C1548 0.930 . S
H1555 C1549 0.930 . S
C1556 N1557 1.314 . S
C1556 C1558 1.353 . S
C1556 H1562 0.930 . S
N1557 Li1507 1.990 . S
N1557 C1556 1.314 . S
N1557 C1560 1.279 . S
C1558 C1556 1.353 . S
C1558 C1561 1.348 . S
C1558 H1590 0.929 . S
C1559 C1560 1.358 . S
C1559 C1561 1.356 . S
C1559 H1591 0.930 . S
C1560 N1557 1.279 . S
C1560 C1559 1.358 . S
C1560 H1563 0.930 . S
C1561 C1558 1.348 . S
C1561 C1559 1.356 . S
H1562 C1556 0.930 . S
H1563 C1560 0.930 . S
O1564 Li1504 1.956 . S
O1564 Li1505 1.970 1_455 S
O1564 Li1506 1.961 . S
O1564 C1508 1.325 . S
O1565 Li1504 1.970 1_655 S
O1565 Li1505 1.956 . S
O1565 Li1507 1.961 . S
O1565 C1514 1.325 . S
O1566 Li1504 1.961 . S
O1566 Li1506 1.956 . S
O1566 Li1507 1.970 1_455 S
O1566 C1536 1.325 . S
O1567 Li1505 1.961 . S
O1567 Li1506 1.970 1_655 S
O1567 Li1507 1.956 . S
O1567 C1542 1.325 . S
H1568 C1510 0.929 . S
H1569 C1511 0.930 . S
H1570 C1512 0.930 . S
H1571 C1513 0.930 . S
H1572 C1515 0.930 . S
H1573 C1517 0.929 . S
H1574 C1518 0.930 . S
H1575 C1519 0.930 . S
H1576 C1522 0.930 . S
H1577 C1525 0.929 . S
H1578 C1530 0.929 . S
H1579 C1531 0.930 . S
H1580 C1538 0.929 . S
H1581 C1539 0.930 . S
H1582 C1540 0.930 . S
H1583 C1541 0.930 . S
H1584 C1543 0.929 . S
H1585 C1544 0.930 . S
H1586 C1545 0.930 . S
H1587 C1546 0.930 . S
H1588 C1550 0.929 . S
H1589 C1552 0.930 . S
H1590 C1558 0.929 . S
H1591 C1559 0.930 . S
Li1592 N1609 1.990 . S
Li1592 O1652 1.956 . S
Li1592 O1653 1.970 . S
Li1592 O1654 1.961 . S
Li1593 N1617 1.990 . S
Li1593 O1652 1.970 . S
Li1593 O1653 1.956 . S
Li1593 O1655 1.961 . S
Li1594 N1639 1.990 . S
Li1594 O1652 1.961 . S
Li1594 O1654 1.956 . S
Li1594 O1655 1.970 . S
Li1595 N1645 1.990 . S
Li1595 O1653 1.961 . S
Li1595 O1654 1.970 . S
Li1595 O1655 1.956 . S
C1596 C1598 1.348 . S
C1596 C1599 1.356 . S
C1596 O1652 1.325 . S
N1597 C1600 1.314 . S
N1597 C1601 1.279 . S
C1598 C1596 1.348 . S
C1598 C1600 1.353 . S
C1598 H1656 0.929 . S
C1599 C1596 1.356 . S
C1599 C1601 1.358 . S
C1599 H1657 0.930 . S
C1600 N1597 1.314 . S
C1600 C1598 1.353 . S
C1600 H1658 0.930 . S
C1601 N1597 1.279 . S
C1601 C1599 1.358 . S
C1601 H1659 0.930 . S
C1602 C1605 1.348 . S
C1602 C1606 1.356 . S
C1602 O1653 1.325 . S
C1603 N1604 1.279 . S
C1603 C1606 1.358 . S
C1603 H1660 0.930 . S
N1604 C1603 1.279 . S
N1604 C1607 1.314 . S
C1605 C1602 1.348 . S
C1605 C1607 1.353 . S
C1605 H1661 0.929 . S
C1606 C1602 1.356 . S
C1606 C1603 1.358 . S
C1606 H1662 0.930 . S
C1607 N1604 1.314 . S
C1607 C1605 1.353 . S
C1607 H1663 0.930 . S
C1608 N1609 1.314 . S
C1608 C1613 1.353 . S
C1608 H1614 0.930 . S
N1609 Li1592 1.990 . S
N1609 C1608 1.314 . S
N1609 C1611 1.279 . S
C1610 C1611 1.358 . S
C1610 C1612 1.356 . S
C1610 H1664 0.930 . S
C1611 N1609 1.279 . S
C1611 C1610 1.358 . S
C1611 H1615 0.930 . S
C1612 C1610 1.356 . S
C1612 C1613 1.348 . S
C1613 C1608 1.353 . S
C1613 C1612 1.348 . S
C1613 H1665 0.929 . S
H1614 C1608 0.930 . S
H1615 C1611 0.930 . S
C1616 N1617 1.314 . S
C1616 C1618 1.353 . S
C1616 H1622 0.930 . S
N1617 Li1593 1.990 . S
N1617 C1616 1.314 . S
N1617 C1620 1.279 . S
C1618 C1616 1.353 . S
C1618 C1621 1.348 . S
C1618 H1666 0.929 . S
C1619 C1620 1.358 . S
C1619 C1621 1.356 . S
C1619 H1667 0.930 . S
C1620 N1617 1.279 . S
C1620 C1619 1.358 . S
C1620 H1623 0.930 . S
C1621 C1618 1.348 . S
C1621 C1619 1.356 . S
H1622 C1616 0.930 . S
H1623 C1620 0.930 . S
C1624 C1626 1.348 . S
C1624 C1627 1.356 . S
C1624 O1654 1.325 . S
N1625 C1628 1.314 . S
N1625 C1629 1.279 . S
C1626 C1624 1.348 . S
C1626 C1628 1.353 . S
C1626 H1668 0.929 . S
C1627 C1624 1.356 . S
C1627 C1629 1.358 . S
C1627 H1669 0.930 . S
C1628 N1625 1.314 . S
C1628 C1626 1.353 . S
C1628 H1670 0.930 . S
C1629 N1625 1.279 . S
C1629 C1627 1.358 . S
C1629 H1671 0.930 . S
C1630 C1631 1.348 . S
C1630 C1632 1.356 . S
C1630 O1655 1.325 . S
C1631 C1630 1.348 . S
C1631 C1633 1.353 . S
C1631 H1672 0.929 . S
C1632 C1630 1.356 . S
C1632 C1634 1.358 . S
C1632 H1673 0.930 . S
C1633 C1631 1.353 . S
C1633 N1635 1.314 . S
C1633 H1674 0.930 . S
C1634 C1632 1.358 . S
C1634 N1635 1.279 . S
C1634 H1675 0.930 . S
N1635 C1633 1.314 . S
N1635 C1634 1.279 . S
C1636 C1638 1.353 . S
C1636 N1639 1.314 . S
C1636 H1642 0.930 . S
C1637 N1639 1.279 . S
C1637 C1640 1.358 . S
C1637 H1643 0.930 . S
C1638 C1636 1.353 . S
C1638 C1641 1.348 . S
C1638 H1676 0.929 . S
N1639 Li1594 1.990 . S
N1639 C1636 1.314 . S
N1639 C1637 1.279 . S
C1640 C1637 1.358 . S
C1640 C1641 1.356 . S
C1640 H1677 0.930 . S
C1641 C1638 1.348 . S
C1641 C1640 1.356 . S
H1642 C1636 0.930 . S
H1643 C1637 0.930 . S
C1644 N1645 1.314 . S
C1644 C1646 1.353 . S
C1644 H1650 0.930 . S
N1645 Li1595 1.990 . S
N1645 C1644 1.314 . S
N1645 C1648 1.279 . S
C1646 C1644 1.353 . S
C1646 C1649 1.348 . S
C1646 H1678 0.929 . S
C1647 C1648 1.358 . S
C1647 C1649 1.356 . S
C1647 H1679 0.930 . S
C1648 N1645 1.279 . S
C1648 C1647 1.358 . S
C1648 H1651 0.930 . S
C1649 C1646 1.348 . S
C1649 C1647 1.356 . S
H1650 C1644 0.930 . S
H1651 C1648 0.930 . S
O1652 Li1592 1.956 . S
O1652 Li1593 1.970 . S
O1652 Li1594 1.961 . S
O1652 C1596 1.325 . S
O1653 Li1592 1.970 . S
O1653 Li1593 1.956 . S
O1653 Li1595 1.961 . S
O1653 C1602 1.325 . S
O1654 Li1592 1.961 . S
O1654 Li1594 1.956 . S
O1654 Li1595 1.970 . S
O1654 C1624 1.325 . S
O1655 Li1593 1.961 . S
O1655 Li1594 1.970 . S
O1655 Li1595 1.956 . S
O1655 C1630 1.325 . S
H1656 C1598 0.929 . S
H1657 C1599 0.930 . S
H1658 C1600 0.930 . S
H1659 C1601 0.930 . S
H1660 C1603 0.930 . S
H1661 C1605 0.929 . S
H1662 C1606 0.930 . S
H1663 C1607 0.930 . S
H1664 C1610 0.930 . S
H1665 C1613 0.929 . S
H1666 C1618 0.929 . S
H1667 C1619 0.930 . S
H1668 C1626 0.929 . S
H1669 C1627 0.930 . S
H1670 C1628 0.930 . S
H1671 C1629 0.930 . S
H1672 C1631 0.929 . S
H1673 C1632 0.930 . S
H1674 C1633 0.930 . S
H1675 C1634 0.930 . S
H1676 C1638 0.929 . S
H1677 C1640 0.930 . S
H1678 C1646 0.929 . S
H1679 C1647 0.930 . S
H1680 C1686 0.930 . S
H1681 C1689 0.930 . S
H1682 C1690 0.930 . S
H1683 C1691 0.930 . S
H1684 C1694 0.930 . S
H1685 C1695 0.930 . S
C1686 H1680 0.930 . S
C1686 C1687 1.355 . S
C1686 C1688 1.415 . S
C1687 C1686 1.355 . S
C1687 C1689 1.419 . S
C1688 C1686 1.415 . S
C1688 C1693 1.425 . S
C1688 C1695 1.409 . S
C1689 H1681 0.930 . S
C1689 C1687 1.419 . S
C1689 C1690 1.362 . S
C1690 H1682 0.930 . S
C1690 C1689 1.362 . S
C1690 C1693 1.409 . S
C1691 H1683 0.930 . S
C1691 C1692 1.355 . S
C1691 C1693 1.415 . S
C1692 C1691 1.355 . S
C1692 C1694 1.419 . S
C1693 C1688 1.425 . S
C1693 C1690 1.409 . S
C1693 C1691 1.415 . S
C1694 H1684 0.930 . S
C1694 C1692 1.419 . S
C1694 C1695 1.362 . S
C1695 H1685 0.930 . S
C1695 C1688 1.409 . S
C1695 C1694 1.362 . S
H1696 C1702 0.930 . S
H1697 C1705 0.930 . S
H1698 C1706 0.930 . S
H1699 C1707 0.930 . S
H1700 C1710 0.930 . S
H1701 C1711 0.930 . S
C1702 H1696 0.930 . S
C1702 C1703 1.355 . S
C1702 C1704 1.415 . S
C1703 C1702 1.355 . S
C1703 C1705 1.419 . S
C1704 C1702 1.415 . S
C1704 C1709 1.425 . S
C1704 C1711 1.409 . S
C1705 H1697 0.930 . S
C1705 C1703 1.419 . S
C1705 C1706 1.362 . S
C1706 H1698 0.930 . S
C1706 C1705 1.362 . S
C1706 C1709 1.409 . S
C1707 H1699 0.930 . S
C1707 C1708 1.355 . S
C1707 C1709 1.415 . S
C1708 C1707 1.355 . S
C1708 C1710 1.419 . S
C1709 C1704 1.425 . S
C1709 C1706 1.409 . S
C1709 C1707 1.415 . S
C1710 H1700 0.930 . S
C1710 C1708 1.419 . S
C1710 C1711 1.362 . S
C1711 H1701 0.930 . S
C1711 C1704 1.409 . S
C1711 C1710 1.362 . S
H1712 C1718 0.930 . S
H1713 C1721 0.930 . S
H1714 C1722 0.930 . S
H1715 C1723 0.930 . S
H1716 C1726 0.930 . S
H1717 C1727 0.930 . S
C1718 H1712 0.930 . S
C1718 C1719 1.355 . S
C1718 C1720 1.415 . S
C1719 C1718 1.355 . S
C1719 C1721 1.419 . S
C1720 C1718 1.415 . S
C1720 C1725 1.425 . S
C1720 C1727 1.409 . S
C1721 H1713 0.930 . S
C1721 C1719 1.419 . S
C1721 C1722 1.362 . S
C1722 H1714 0.930 . S
C1722 C1721 1.362 . S
C1722 C1725 1.409 . S
C1723 H1715 0.930 . S
C1723 C1724 1.355 . S
C1723 C1725 1.415 . S
C1724 C1723 1.355 . S
C1724 C1726 1.419 . S
C1725 C1720 1.425 . S
C1725 C1722 1.409 . S
C1725 C1723 1.415 . S
C1726 H1716 0.930 . S
C1726 C1724 1.419 . S
C1726 C1727 1.362 . S
C1727 H1717 0.930 . S
C1727 C1720 1.409 . S
C1727 C1726 1.362 . S
H1728 C1734 0.930 . S
H1729 C1737 0.930 . S
H1730 C1738 0.930 . S
H1731 C1739 0.930 . S
H1732 C1742 0.930 . S
H1733 C1743 0.930 . S
C1734 H1728 0.930 . S
C1734 C1735 1.355 . S
C1734 C1736 1.415 . S
C1735 C1734 1.355 . S
C1735 C1737 1.419 . S
C1736 C1734 1.415 . S
C1736 C1741 1.425 . S
C1736 C1743 1.409 . S
C1737 H1729 0.930 . S
C1737 C1735 1.419 . S
C1737 C1738 1.362 . S
C1738 H1730 0.930 . S
C1738 C1737 1.362 . S
C1738 C1741 1.409 . S
C1739 H1731 0.930 . S
C1739 C1740 1.355 . S
C1739 C1741 1.415 . S
C1740 C1739 1.355 . S
C1740 C1742 1.419 . S
C1741 C1736 1.425 . S
C1741 C1738 1.409 . S
C1741 C1739 1.415 . S
C1742 H1732 0.930 . S
C1742 C1740 1.419 . S
C1742 C1743 1.362 . S
C1743 H1733 0.930 . S
C1743 C1736 1.409 . S
C1743 C1742 1.362 . S
H1744 C1750 0.930 . S
H1745 C1753 0.930 . S
H1746 C1754 0.930 . S
H1747 C1755 0.930 . S
H1748 C1758 0.930 . S
H1749 C1759 0.930 . S
C1750 H1744 0.930 . S
C1750 C1751 1.355 . S
C1750 C1752 1.415 . S
C1751 C1750 1.355 . S
C1751 C1753 1.419 . S
C1752 C1750 1.415 . S
C1752 C1757 1.425 . S
C1752 C1759 1.409 . S
C1753 H1745 0.930 . S
C1753 C1751 1.419 . S
C1753 C1754 1.362 . S
C1754 H1746 0.930 . S
C1754 C1753 1.362 . S
C1754 C1757 1.409 . S
C1755 H1747 0.930 . S
C1755 C1756 1.355 . S
C1755 C1757 1.415 . S
C1756 C1755 1.355 . S
C1756 C1758 1.419 . S
C1757 C1752 1.425 . S
C1757 C1754 1.409 . S
C1757 C1755 1.415 . S
C1758 H1748 0.930 . S
C1758 C1756 1.419 . S
C1758 C1759 1.362 . S
C1759 H1749 0.930 . S
C1759 C1752 1.409 . S
C1759 C1758 1.362 . S
H1760 C1766 0.930 . S
H1761 C1769 0.930 . S
H1762 C1770 0.930 . S
H1763 C1771 0.930 . S
H1764 C1774 0.930 . S
H1765 C1775 0.930 . S
C1766 H1760 0.930 . S
C1766 C1767 1.355 . S
C1766 C1768 1.415 . S
C1767 C1766 1.355 . S
C1767 C1769 1.419 . S
C1768 C1766 1.415 . S
C1768 C1773 1.425 . S
C1768 C1775 1.409 . S
C1769 H1761 0.930 . S
C1769 C1767 1.419 . S
C1769 C1770 1.362 . S
C1770 H1762 0.930 . S
C1770 C1769 1.362 . S
C1770 C1773 1.409 . S
C1771 H1763 0.930 . S
C1771 C1772 1.355 . S
C1771 C1773 1.415 . S
C1772 C1771 1.355 . S
C1772 C1774 1.419 . S
C1773 C1768 1.425 . S
C1773 C1770 1.409 . S
C1773 C1771 1.415 . S
C1774 H1764 0.930 . S
C1774 C1772 1.419 . S
C1774 C1775 1.362 . S
C1775 H1765 0.930 . S
C1775 C1768 1.409 . S
C1775 C1774 1.362 . S
H1776 C1782 0.930 . S
H1777 C1785 0.930 . S
H1778 C1786 0.930 . S
H1779 C1787 0.930 . S
H1780 C1790 0.930 . S
H1781 C1791 0.930 . S
C1782 H1776 0.930 . S
C1782 C1783 1.355 . S
C1782 C1784 1.415 . S
C1783 C1782 1.355 . S
C1783 C1785 1.419 . S
C1784 C1782 1.415 . S
C1784 C1789 1.425 . S
C1784 C1791 1.409 . S
C1785 H1777 0.930 . S
C1785 C1783 1.419 . S
C1785 C1786 1.362 . S
C1786 H1778 0.930 . S
C1786 C1785 1.362 . S
C1786 C1789 1.409 . S
C1787 H1779 0.930 . S
C1787 C1788 1.355 . S
C1787 C1789 1.415 . S
C1788 C1787 1.355 . S
C1788 C1790 1.419 . S
C1789 C1784 1.425 . S
C1789 C1786 1.409 . S
C1789 C1787 1.415 . S
C1790 H1780 0.930 . S
C1790 C1788 1.419 . S
C1790 C1791 1.362 . S
C1791 H1781 0.930 . S
C1791 C1784 1.409 . S
C1791 C1790 1.362 . S
H1792 C1798 0.923 1_545 S
H1793 C1801 0.930 . S
H1794 C1802 0.930 . S
H1795 C1803 0.930 . S
H1796 C1806 0.946 . S
H1797 C1807 0.930 . S
C1798 H1792 0.923 1_565 S
C1798 C1799 1.355 . S
C1798 C1800 1.415 . S
C1799 C1798 1.355 . S
C1799 C1801 1.419 . S
C1800 C1798 1.415 . S
C1800 C1805 1.425 . S
C1800 C1807 1.409 1_565 S
C1801 H1793 0.930 . S
C1801 C1799 1.419 . S
C1801 C1802 1.362 . S
C1802 H1794 0.930 . S
C1802 C1801 1.362 . S
C1802 C1805 1.409 . S
C1803 H1795 0.930 . S
C1803 C1804 1.355 . S
C1803 C1805 1.415 . S
C1804 C1803 1.355 . S
C1804 C1806 1.402 1_565 S
C1805 C1800 1.425 . S
C1805 C1802 1.409 . S
C1805 C1803 1.415 . S
C1806 H1796 0.946 . S
C1806 C1804 1.402 1_545 S
C1806 C1807 1.364 . S
C1807 H1797 0.930 . S
C1807 C1800 1.409 1_545 S
C1807 C1806 1.364 . S
H1808 C1814 0.930 . S
H1809 C1817 0.930 . S
H1810 C1818 0.930 . S
H1811 C1819 0.930 . S
H1812 C1822 0.930 . S
H1813 C1823 0.930 . S
C1814 H1808 0.930 . S
C1814 C1815 1.355 . S
C1814 C1816 1.415 . S
C1815 C1814 1.355 . S
C1815 C1817 1.419 . S
C1816 C1814 1.415 . S
C1816 C1821 1.425 . S
C1816 C1823 1.409 . S
C1817 H1809 0.930 . S
C1817 C1815 1.419 . S
C1817 C1818 1.362 . S
C1818 H1810 0.930 . S
C1818 C1817 1.362 . S
C1818 C1821 1.409 . S
C1819 H1811 0.930 . S
C1819 C1820 1.355 . S
C1819 C1821 1.415 . S
C1820 C1819 1.355 . S
C1820 C1822 1.419 . S
C1821 C1816 1.425 . S
C1821 C1818 1.409 . S
C1821 C1819 1.415 . S
C1822 H1812 0.930 . S
C1822 C1820 1.419 . S
C1822 C1823 1.362 . S
C1823 H1813 0.930 . S
C1823 C1816 1.409 . S
C1823 C1822 1.362 . S
H1824 C1830 0.930 . S
H1825 C1833 0.930 . S
H1826 C1834 0.930 . S
H1827 C1835 0.930 . S
H1828 C1838 0.930 . S
H1829 C1839 0.930 . S
C1830 H1824 0.930 . S
C1830 C1831 1.355 . S
C1830 C1832 1.415 . S
C1831 C1830 1.355 . S
C1831 C1833 1.419 . S
C1832 C1830 1.415 . S
C1832 C1837 1.425 . S
C1832 C1839 1.409 . S
C1833 H1825 0.930 . S
C1833 C1831 1.419 . S
C1833 C1834 1.362 . S
C1834 H1826 0.930 . S
C1834 C1833 1.362 . S
C1834 C1837 1.409 . S
C1835 H1827 0.930 . S
C1835 C1836 1.355 . S
C1835 C1837 1.415 . S
C1836 C1835 1.355 . S
C1836 C1838 1.419 . S
C1837 C1832 1.425 . S
C1837 C1834 1.409 . S
C1837 C1835 1.415 . S
C1838 H1828 0.930 . S
C1838 C1836 1.419 . S
C1838 C1839 1.362 . S
C1839 H1829 0.930 . S
C1839 C1832 1.409 . S
C1839 C1838 1.362 . S
H1840 C1846 0.930 . S
H1841 C1849 0.930 . S
H1842 C1850 0.930 . S
H1843 C1851 0.930 . S
H1844 C1854 0.930 . S
H1845 C1855 0.930 . S
C1846 H1840 0.930 . S
C1846 C1847 1.355 . S
C1846 C1848 1.415 . S
C1847 C1846 1.355 . S
C1847 C1849 1.419 . S
C1848 C1846 1.415 . S
C1848 C1853 1.425 . S
C1848 C1855 1.409 . S
C1849 H1841 0.930 . S
C1849 C1847 1.419 . S
C1849 C1850 1.362 . S
C1850 H1842 0.930 . S
C1850 C1849 1.362 . S
C1850 C1853 1.409 . S
C1851 H1843 0.930 . S
C1851 C1852 1.355 . S
C1851 C1853 1.415 . S
C1852 C1851 1.355 . S
C1852 C1854 1.419 . S
C1853 C1848 1.425 . S
C1853 C1850 1.409 . S
C1853 C1851 1.415 . S
C1854 H1844 0.930 . S
C1854 C1852 1.419 . S
C1854 C1855 1.362 . S
C1855 H1845 0.930 . S
C1855 C1848 1.409 . S
C1855 C1854 1.362 . S
H1856 C1862 0.930 . S
H1857 C1865 0.930 . S
H1858 C1866 0.930 . S
H1859 C1867 0.930 . S
H1860 C1870 0.930 . S
H1861 C1871 0.930 . S
C1862 H1856 0.930 . S
C1862 C1863 1.355 . S
C1862 C1864 1.415 . S
C1863 C1862 1.355 . S
C1863 C1865 1.419 . S
C1864 C1862 1.415 . S
C1864 C1869 1.425 . S
C1864 C1871 1.409 . S
C1865 H1857 0.930 . S
C1865 C1863 1.419 . S
C1865 C1866 1.362 . S
C1866 H1858 0.930 . S
C1866 C1865 1.362 . S
C1866 C1869 1.409 . S
C1867 H1859 0.930 . S
C1867 C1868 1.355 . S
C1867 C1869 1.415 . S
C1868 C1867 1.355 . S
C1868 C1870 1.419 . S
C1869 C1864 1.425 . S
C1869 C1866 1.409 . S
C1869 C1867 1.415 . S
C1870 H1860 0.930 . S
C1870 C1868 1.419 . S
C1870 C1871 1.362 . S
C1871 H1861 0.930 . S
C1871 C1864 1.409 . S
C1871 C1870 1.362 . S
H1872 C1878 0.930 . S
H1873 C1881 0.930 . S
H1874 C1882 0.930 . S
H1875 C1883 0.930 . S
H1876 C1886 0.930 . S
H1877 C1887 0.930 . S
C1878 H1872 0.930 . S
C1878 C1879 1.355 . S
C1878 C1880 1.415 . S
C1879 C1878 1.355 . S
C1879 C1881 1.419 . S
C1880 C1878 1.415 . S
C1880 C1885 1.425 . S
C1880 C1887 1.409 . S
C1881 H1873 0.930 . S
C1881 C1879 1.419 . S
C1881 C1882 1.362 . S
C1882 H1874 0.930 . S
C1882 C1881 1.362 . S
C1882 C1885 1.409 . S
C1883 H1875 0.930 . S
C1883 C1884 1.355 . S
C1883 C1885 1.415 . S
C1884 C1883 1.355 . S
C1884 C1886 1.419 . S
C1885 C1880 1.425 . S
C1885 C1882 1.409 . S
C1885 C1883 1.415 . S
C1886 H1876 0.930 . S
C1886 C1884 1.419 . S
C1886 C1887 1.362 . S
C1887 H1877 0.930 . S
C1887 C1880 1.409 . S
C1887 C1886 1.362 . S
H1888 C1894 0.930 . S
H1889 C1897 0.930 . S
H1890 C1898 0.930 . S
H1891 C1899 0.930 1_655 S
H1892 C1902 0.930 . S
H1893 C1903 0.930 . S
C1894 H1888 0.930 . S
C1894 C1895 1.355 . S
C1894 C1896 1.415 . S
C1895 C1894 1.355 . S
C1895 C1897 1.419 1_455 S
C1896 C1894 1.415 . S
C1896 C1901 1.425 . S
C1896 C1903 1.409 . S
C1897 H1889 0.930 . S
C1897 C1895 1.419 1_655 S
C1897 C1898 1.362 . S
C1898 H1890 0.930 . S
C1898 C1897 1.362 . S
C1898 C1901 1.409 1_655 S
C1899 H1891 0.930 1_455 S
C1899 C1900 1.355 . S
C1899 C1901 1.415 . S
C1900 C1899 1.355 . S
C1900 C1902 1.419 . S
C1901 C1896 1.425 . S
C1901 C1898 1.409 1_455 S
C1901 C1899 1.415 . S
C1902 H1892 0.930 . S
C1902 C1900 1.419 . S
C1902 C1903 1.362 . S
C1903 H1893 0.930 . S
C1903 C1896 1.409 . S
C1903 C1902 1.362 . S
H1904 C1910 0.930 . S
H1905 C1913 0.930 . S
H1906 C1914 0.930 . S
H1907 C1915 0.930 . S
H1908 C1918 0.930 . S
H1909 C1919 0.930 . S
C1910 H1904 0.930 . S
C1910 C1911 1.355 . S
C1910 C1912 1.415 . S
C1911 C1910 1.355 . S
C1911 C1913 1.419 . S
C1912 C1910 1.415 . S
C1912 C1917 1.425 . S
C1912 C1919 1.409 . S
C1913 H1905 0.930 . S
C1913 C1911 1.419 . S
C1913 C1914 1.362 . S
C1914 H1906 0.930 . S
C1914 C1913 1.362 . S
C1914 C1917 1.409 . S
C1915 H1907 0.930 . S
C1915 C1916 1.355 . S
C1915 C1917 1.415 . S
C1916 C1915 1.355 . S
C1916 C1918 1.419 . S
C1917 C1912 1.425 . S
C1917 C1914 1.409 . S
C1917 C1915 1.415 . S
C1918 H1908 0.930 . S
C1918 C1916 1.419 . S
C1918 C1919 1.362 . S
C1919 H1909 0.930 . S
C1919 C1912 1.409 . S
C1919 C1918 1.362 . S
H1920 C1926 0.930 . S
H1921 C1929 0.930 . S
H1922 C1930 0.930 . S
H1923 C1931 0.930 . S
H1924 C1934 0.930 1_455 S
H1925 C1935 0.930 1_455 S
C1926 H1920 0.930 . S
C1926 C1927 1.355 . S
C1926 C1928 1.415 . S
C1927 C1926 1.355 . S
C1927 C1929 1.419 . S
C1928 C1926 1.415 . S
C1928 C1933 1.425 . S
C1928 C1935 1.409 . S
C1929 H1921 0.930 . S
C1929 C1927 1.419 . S
C1929 C1930 1.362 . S
C1930 H1922 0.930 . S
C1930 C1929 1.362 . S
C1930 C1933 1.409 . S
C1931 H1923 0.930 . S
C1931 C1932 1.355 . S
C1931 C1933 1.415 . S
C1932 C1931 1.355 . S
C1932 C1934 1.419 . S
C1933 C1928 1.425 . S
C1933 C1930 1.409 . S
C1933 C1931 1.415 . S
C1934 H1924 0.930 1_655 S
C1934 C1932 1.419 . S
C1934 C1935 1.362 . S
C1935 H1925 0.930 1_655 S
C1935 C1928 1.409 . S
C1935 C1934 1.362 . S
H1936 C1942 0.930 . S
H1937 C1945 0.930 . S
H1938 C1946 0.930 . S
H1939 C1947 0.930 . S
H1940 C1950 0.930 . S
H1941 C1951 0.930 . S
C1942 H1936 0.930 . S
C1942 C1943 1.355 . S
C1942 C1944 1.415 . S
C1943 C1942 1.355 . S
C1943 C1945 1.419 . S
C1944 C1942 1.415 . S
C1944 C1949 1.425 . S
C1944 C1951 1.409 . S
C1945 H1937 0.930 . S
C1945 C1943 1.419 . S
C1945 C1946 1.362 . S
C1946 H1938 0.930 . S
C1946 C1945 1.362 . S
C1946 C1949 1.409 . S
C1947 H1939 0.930 . S
C1947 C1948 1.355 . S
C1947 C1949 1.415 . S
C1948 C1947 1.355 . S
C1948 C1950 1.419 . S
C1949 C1944 1.425 . S
C1949 C1946 1.409 . S
C1949 C1947 1.415 . S
C1950 H1940 0.930 . S
C1950 C1948 1.419 . S
C1950 C1951 1.362 . S
C1951 H1941 0.930 . S
C1951 C1944 1.409 . S
C1951 C1950 1.362 . S
H1952 C1958 0.930 . S
H1953 C1961 0.930 . S
H1954 C1962 0.930 . S
H1955 C1963 0.930 . S
H1956 C1966 0.930 . S
H1957 C1967 0.930 . S
C1958 H1952 0.930 . S
C1958 C1959 1.355 . S
C1958 C1960 1.415 . S
C1959 C1958 1.355 . S
C1959 C1961 1.419 . S
C1960 C1958 1.415 . S
C1960 C1965 1.425 . S
C1960 C1967 1.409 . S
C1961 H1953 0.930 . S
C1961 C1959 1.419 . S
C1961 C1962 1.362 . S
C1962 H1954 0.930 . S
C1962 C1961 1.362 . S
C1962 C1965 1.409 . S
C1963 H1955 0.930 . S
C1963 C1964 1.355 . S
C1963 C1965 1.415 . S
C1964 C1963 1.355 . S
C1964 C1966 1.419 . S
C1965 C1960 1.425 . S
C1965 C1962 1.409 . S
C1965 C1963 1.415 . S
C1966 H1956 0.930 . S
C1966 C1964 1.419 . S
C1966 C1967 1.362 . S
C1967 H1957 0.930 . S
C1967 C1960 1.409 . S
C1967 C1966 1.362 . S
H1968 C1974 0.930 . S
H1969 C1977 0.930 . S
H1970 C1978 0.930 . S
H1971 C1979 0.930 . S
H1972 C1982 0.930 . S
H1973 C1983 0.930 . S
C1974 H1968 0.930 . S
C1974 C1975 1.355 . S
C1974 C1976 1.415 . S
C1975 C1974 1.355 . S
C1975 C1977 1.419 . S
C1976 C1974 1.415 . S
C1976 C1981 1.425 . S
C1976 C1983 1.409 . S
C1977 H1969 0.930 . S
C1977 C1975 1.419 . S
C1977 C1978 1.362 . S
C1978 H1970 0.930 . S
C1978 C1977 1.362 . S
C1978 C1981 1.409 . S
C1979 H1971 0.930 . S
C1979 C1980 1.355 . S
C1979 C1981 1.415 . S
C1980 C1979 1.355 . S
C1980 C1982 1.419 . S
C1981 C1976 1.425 . S
C1981 C1978 1.409 . S
C1981 C1979 1.415 . S
C1982 H1972 0.930 . S
C1982 C1980 1.419 . S
C1982 C1983 1.362 . S
C1983 H1973 0.930 . S
C1983 C1976 1.409 . S
C1983 C1982 1.362 . S
H1984 C1990 0.930 . S
H1985 C1993 0.930 . S
H1986 C1994 0.930 . S
H1987 C1995 0.930 . S
H1988 C1998 0.930 . S
H1989 C1999 0.930 . S
C1990 H1984 0.930 . S
C1990 C1991 1.355 . S
C1990 C1992 1.415 . S
C1991 C1990 1.355 . S
C1991 C1993 1.419 . S
C1992 C1990 1.415 . S
C1992 C1997 1.425 . S
C1992 C1999 1.409 . S
C1993 H1985 0.930 . S
C1993 C1991 1.419 . S
C1993 C1994 1.362 . S
C1994 H1986 0.930 . S
C1994 C1993 1.362 . S
C1994 C1997 1.409 . S
C1995 H1987 0.930 . S
C1995 C1996 1.355 . S
C1995 C1997 1.415 . S
C1996 C1995 1.355 . S
C1996 C1998 1.419 . S
C1997 C1992 1.425 . S
C1997 C1994 1.409 . S
C1997 C1995 1.415 . S
C1998 H1988 0.930 . S
C1998 C1996 1.419 . S
C1998 C1999 1.362 . S
C1999 H1989 0.930 . S
C1999 C1992 1.409 . S
C1999 C1998 1.362 . S
H2000 C2006 0.930 . S
H2001 C2009 0.930 . S
H2002 C2010 0.930 . S
H2003 C2011 0.930 . S
H2004 C2014 0.930 . S
H2005 C2015 0.930 . S
C2006 H2000 0.930 . S
C2006 C2007 1.355 . S
C2006 C2008 1.415 . S
C2007 C2006 1.355 . S
C2007 C2009 1.419 . S
C2008 C2006 1.415 . S
C2008 C2013 1.425 . S
C2008 C2015 1.409 . S
C2009 H2001 0.930 . S
C2009 C2007 1.419 . S
C2009 C2010 1.362 . S
C2010 H2002 0.930 . S
C2010 C2009 1.362 . S
C2010 C2013 1.409 . S
C2011 H2003 0.930 . S
C2011 C2012 1.355 . S
C2011 C2013 1.415 . S
C2012 C2011 1.355 . S
C2012 C2014 1.419 . S
C2013 C2008 1.425 . S
C2013 C2010 1.409 . S
C2013 C2011 1.415 . S
C2014 H2004 0.930 . S
C2014 C2012 1.419 . S
C2014 C2015 1.362 . S
C2015 H2005 0.930 . S
C2015 C2008 1.409 . S
C2015 C2014 1.362 . S
H2016 C2022 0.930 . S
H2017 C2025 0.930 . S
H2018 C2026 0.930 . S
H2019 C2027 0.930 . S
H2020 C2030 0.930 . S
H2021 C2031 0.930 . S
C2022 H2016 0.930 . S
C2022 C2023 1.355 . S
C2022 C2024 1.415 . S
C2023 C2022 1.355 . S
C2023 C2025 1.419 . S
C2024 C2022 1.415 . S
C2024 C2029 1.425 . S
C2024 C2031 1.409 . S
C2025 H2017 0.930 . S
C2025 C2023 1.419 . S
C2025 C2026 1.362 . S
C2026 H2018 0.930 . S
C2026 C2025 1.362 . S
C2026 C2029 1.409 . S
C2027 H2019 0.930 . S
C2027 C2028 1.355 . S
C2027 C2029 1.415 . S
C2028 C2027 1.355 . S
C2028 C2030 1.419 . S
C2029 C2024 1.425 . S
C2029 C2026 1.409 . S
C2029 C2027 1.415 . S
C2030 H2020 0.930 . S
C2030 C2028 1.419 . S
C2030 C2031 1.362 . S
C2031 H2021 0.930 . S
C2031 C2024 1.409 . S
C2031 C2030 1.362 . S
H2032 C2038 0.930 . S
H2033 C2041 0.930 . S
H2034 C2042 0.930 . S
H2035 C2043 0.930 . S
H2036 C2046 0.930 . S
H2037 C2047 0.930 . S
C2038 H2032 0.930 . S
C2038 C2039 1.355 . S
C2038 C2040 1.415 . S
C2039 C2038 1.355 . S
C2039 C2041 1.419 . S
C2040 C2038 1.415 . S
C2040 C2045 1.425 . S
C2040 C2047 1.409 . S
C2041 H2033 0.930 . S
C2041 C2039 1.419 . S
C2041 C2042 1.362 . S
C2042 H2034 0.930 . S
C2042 C2041 1.362 . S
C2042 C2045 1.409 . S
C2043 H2035 0.930 . S
C2043 C2044 1.355 . S
C2043 C2045 1.415 . S
C2044 C2043 1.355 . S
C2044 C2046 1.419 . S
C2045 C2040 1.425 . S
C2045 C2042 1.409 . S
C2045 C2043 1.415 . S
C2046 H2036 0.930 . S
C2046 C2044 1.419 . S
C2046 C2047 1.362 . S
C2047 H2037 0.930 . S
C2047 C2040 1.409 . S
C2047 C2046 1.362 . S
H2048 C2054 0.930 . S
H2049 C2057 0.930 . S
H2050 C2058 0.930 . S
H2051 C2059 0.930 . S
H2052 C2062 0.930 . S
H2053 C2063 0.930 . S
C2054 H2048 0.930 . S
C2054 C2055 1.355 . S
C2054 C2056 1.415 . S
C2055 C2054 1.355 . S
C2055 C2057 1.419 . S
C2056 C2054 1.415 . S
C2056 C2061 1.425 . S
C2056 C2063 1.409 . S
C2057 H2049 0.930 . S
C2057 C2055 1.419 . S
C2057 C2058 1.362 . S
C2058 H2050 0.930 . S
C2058 C2057 1.362 . S
C2058 C2061 1.409 . S
C2059 H2051 0.930 . S
C2059 C2060 1.355 . S
C2059 C2061 1.415 . S
C2060 C2059 1.355 . S
C2060 C2062 1.419 . S
C2061 C2056 1.425 . S
C2061 C2058 1.409 . S
C2061 C2059 1.415 . S
C2062 H2052 0.930 . S
C2062 C2060 1.419 . S
C2062 C2063 1.362 . S
C2063 H2053 0.930 . S
C2063 C2056 1.409 . S
C2063 C2062 1.362 . S
H2064 C2070 0.930 . S
H2065 C2073 0.930 . S
H2066 C2074 0.930 . S
H2067 C2075 0.930 . S
H2068 C2078 0.930 . S
H2069 C2079 0.930 . S
C2070 H2064 0.930 . S
C2070 C2071 1.355 . S
C2070 C2072 1.415 . S
C2071 C2070 1.355 . S
C2071 C2073 1.419 . S
C2072 C2070 1.415 . S
C2072 C2077 1.425 . S
C2072 C2079 1.409 . S
C2073 H2065 0.930 . S
C2073 C2071 1.419 . S
C2073 C2074 1.362 . S
C2074 H2066 0.930 . S
C2074 C2073 1.362 . S
C2074 C2077 1.409 . S
C2075 H2067 0.930 . S
C2075 C2076 1.355 . S
C2075 C2077 1.415 . S
C2076 C2075 1.355 . S
C2076 C2078 1.419 . S
C2077 C2072 1.425 . S
C2077 C2074 1.409 . S
C2077 C2075 1.415 . S
C2078 H2068 0.930 . S
C2078 C2076 1.419 . S
C2078 C2079 1.362 . S
C2079 H2069 0.930 . S
C2079 C2072 1.409 . S
C2079 C2078 1.362 . S
H2080 C2086 0.930 . S
H2081 C2089 0.930 . S
H2082 C2090 0.930 . S
H2083 C2091 0.930 . S
H2084 C2094 0.930 . S
H2085 C2095 0.930 . S
C2086 H2080 0.930 . S
C2086 C2087 1.355 . S
C2086 C2088 1.415 . S
C2087 C2086 1.355 . S
C2087 C2089 1.419 . S
C2088 C2086 1.415 . S
C2088 C2093 1.425 . S
C2088 C2095 1.409 . S
C2089 H2081 0.930 . S
C2089 C2087 1.419 . S
C2089 C2090 1.362 . S
C2090 H2082 0.930 . S
C2090 C2089 1.362 . S
C2090 C2093 1.409 . S
C2091 H2083 0.930 . S
C2091 C2092 1.355 . S
C2091 C2093 1.415 . S
C2092 C2091 1.355 . S
C2092 C2094 1.419 . S
C2093 C2088 1.425 . S
C2093 C2090 1.409 . S
C2093 C2091 1.415 . S
C2094 H2084 0.930 . S
C2094 C2092 1.419 . S
C2094 C2095 1.362 . S
C2095 H2085 0.930 . S
C2095 C2088 1.409 . S
C2095 C2094 1.362 . S
H2096 C2102 0.930 . S
H2097 C2105 0.930 . S
H2098 C2106 0.930 . S
H2099 C2107 0.930 . S
H2100 C2110 0.930 . S
H2101 C2111 0.930 . S
C2102 H2096 0.930 . S
C2102 C2103 1.355 . S
C2102 C2104 1.415 . S
C2103 C2102 1.355 . S
C2103 C2105 1.419 . S
C2104 C2102 1.415 . S
C2104 C2109 1.425 . S
C2104 C2111 1.409 . S
C2105 H2097 0.930 . S
C2105 C2103 1.419 . S
C2105 C2106 1.362 . S
C2106 H2098 0.930 . S
C2106 C2105 1.362 . S
C2106 C2109 1.409 . S
C2107 H2099 0.930 . S
C2107 C2108 1.355 . S
C2107 C2109 1.415 . S
C2108 C2107 1.355 . S
C2108 C2110 1.419 . S
C2109 C2104 1.425 . S
C2109 C2106 1.409 . S
C2109 C2107 1.415 . S
C2110 H2100 0.930 . S
C2110 C2108 1.419 . S
C2110 C2111 1.362 . S
C2111 H2101 0.930 . S
C2111 C2104 1.409 . S
C2111 C2110 1.362 . S
H2112 C2118 0.930 . S
H2113 C2121 0.930 . S
H2114 C2122 0.930 . S
H2115 C2123 0.930 . S
H2116 C2126 0.930 . S
H2117 C2127 0.930 . S
C2118 H2112 0.930 . S
C2118 C2119 1.355 . S
C2118 C2120 1.415 . S
C2119 C2118 1.355 . S
C2119 C2121 1.419 . S
C2120 C2118 1.415 . S
C2120 C2125 1.425 . S
C2120 C2127 1.409 . S
C2121 H2113 0.930 . S
C2121 C2119 1.419 . S
C2121 C2122 1.362 . S
C2122 H2114 0.930 . S
C2122 C2121 1.362 . S
C2122 C2125 1.409 . S
C2123 H2115 0.930 . S
C2123 C2124 1.355 . S
C2123 C2125 1.415 . S
C2124 C2123 1.355 . S
C2124 C2126 1.419 . S
C2125 C2120 1.425 . S
C2125 C2122 1.409 . S
C2125 C2123 1.415 . S
C2126 H2116 0.930 . S
C2126 C2124 1.419 . S
C2126 C2127 1.362 . S
C2127 H2117 0.930 . S
C2127 C2120 1.409 . S
C2127 C2126 1.362 . S
H2128 C2134 0.930 . S
H2129 C2137 0.930 . S
H2130 C2138 0.930 . S
H2131 C2139 0.930 . S
H2132 C2142 0.930 . S
H2133 C2143 0.930 . S
C2134 H2128 0.930 . S
C2134 C2135 1.355 . S
C2134 C2136 1.415 . S
C2135 C2134 1.355 . S
C2135 C2137 1.419 . S
C2136 C2134 1.415 . S
C2136 C2141 1.425 . S
C2136 C2143 1.409 . S
C2137 H2129 0.930 . S
C2137 C2135 1.419 . S
C2137 C2138 1.362 . S
C2138 H2130 0.930 . S
C2138 C2137 1.362 . S
C2138 C2141 1.409 . S
C2139 H2131 0.930 . S
C2139 C2140 1.355 . S
C2139 C2141 1.415 . S
C2140 C2139 1.355 . S
C2140 C2142 1.419 . S
C2141 C2136 1.425 . S
C2141 C2138 1.409 . S
C2141 C2139 1.415 . S
C2142 H2132 0.930 . S
C2142 C2140 1.419 . S
C2142 C2143 1.362 . S
C2143 H2133 0.930 . S
C2143 C2136 1.409 . S
C2143 C2142 1.362 . S
H2144 C2150 0.930 . S
H2145 C2153 0.930 1_565 S
H2146 C2154 0.930 . S
H2147 C2155 0.930 1_565 S
H2148 C2158 0.930 . S
H2149 C2159 0.930 . S
C2150 H2144 0.930 . S
C2150 C2151 1.355 . S
C2150 C2152 1.415 . S
C2151 C2150 1.355 . S
C2151 C2153 1.419 . S
C2152 C2150 1.415 . S
C2152 C2157 1.425 . S
C2152 C2159 1.409 . S
C2153 H2145 0.930 1_545 S
C2153 C2151 1.419 . S
C2153 C2154 1.362 1_545 S
C2154 H2146 0.930 . S
C2154 C2153 1.362 1_565 S
C2154 C2157 1.409 1_565 S
C2155 H2147 0.930 1_545 S
C2155 C2156 1.355 . S
C2155 C2157 1.415 . S
C2156 C2155 1.355 . S
C2156 C2158 1.419 . S
C2157 C2152 1.425 . S
C2157 C2154 1.409 1_545 S
C2157 C2155 1.415 . S
C2158 H2148 0.930 . S
C2158 C2156 1.419 . S
C2158 C2159 1.362 . S
C2159 H2149 0.930 . S
C2159 C2152 1.409 . S
C2159 C2158 1.362 . S
H2160 C2166 0.930 . S
H2161 C2169 0.930 . S
H2162 C2170 0.930 . S
H2163 C2171 0.930 . S
H2164 C2174 0.930 . S
H2165 C2175 0.930 . S
C2166 H2160 0.930 . S
C2166 C2167 1.355 . S
C2166 C2168 1.415 . S
C2167 C2166 1.355 . S
C2167 C2169 1.419 . S
C2168 C2166 1.415 . S
C2168 C2173 1.425 . S
C2168 C2175 1.409 . S
C2169 H2161 0.930 . S
C2169 C2167 1.419 . S
C2169 C2170 1.362 . S
C2170 H2162 0.930 . S
C2170 C2169 1.362 . S
C2170 C2173 1.409 . S
C2171 H2163 0.930 . S
C2171 C2172 1.355 . S
C2171 C2173 1.415 . S
C2172 C2171 1.355 . S
C2172 C2174 1.419 . S
C2173 C2168 1.425 . S
C2173 C2170 1.409 . S
C2173 C2171 1.415 . S
C2174 H2164 0.930 . S
C2174 C2172 1.419 . S
C2174 C2175 1.362 . S
C2175 H2165 0.930 . S
C2175 C2168 1.409 . S
C2175 C2174 1.362 . S
H2176 C2182 0.930 . S
H2177 C2185 0.930 . S
H2178 C2186 0.930 . S
H2179 C2187 0.930 . S
H2180 C2190 0.930 . S
H2181 C2191 0.930 . S
C2182 H2176 0.930 . S
C2182 C2183 1.355 . S
C2182 C2184 1.415 . S
C2183 C2182 1.355 . S
C2183 C2185 1.419 . S
C2184 C2182 1.415 . S
C2184 C2189 1.425 . S
C2184 C2191 1.409 . S
C2185 H2177 0.930 . S
C2185 C2183 1.419 . S
C2185 C2186 1.362 . S
C2186 H2178 0.930 . S
C2186 C2185 1.362 . S
C2186 C2189 1.409 . S
C2187 H2179 0.930 . S
C2187 C2188 1.355 . S
C2187 C2189 1.415 . S
C2188 C2187 1.355 . S
C2188 C2190 1.419 . S
C2189 C2184 1.425 . S
C2189 C2186 1.409 . S
C2189 C2187 1.415 . S
C2190 H2180 0.930 . S
C2190 C2188 1.419 . S
C2190 C2191 1.362 . S
C2191 H2181 0.930 . S
C2191 C2184 1.409 . S
C2191 C2190 1.362 . S
H2192 C2198 0.930 . S
H2193 C2201 0.930 . S
H2194 C2202 0.930 . S
H2195 C2203 0.930 . S
H2196 C2206 0.930 . S
H2197 C2207 0.930 . S
C2198 H2192 0.930 . S
C2198 C2199 1.355 . S
C2198 C2200 1.415 . S
C2199 C2198 1.355 . S
C2199 C2201 1.419 . S
C2200 C2198 1.415 . S
C2200 C2205 1.425 . S
C2200 C2207 1.409 . S
C2201 H2193 0.930 . S
C2201 C2199 1.419 . S
C2201 C2202 1.362 . S
C2202 H2194 0.930 . S
C2202 C2201 1.362 . S
C2202 C2205 1.409 . S
C2203 H2195 0.930 . S
C2203 C2204 1.355 . S
C2203 C2205 1.415 . S
C2204 C2203 1.355 . S
C2204 C2206 1.419 . S
C2205 C2200 1.425 . S
C2205 C2202 1.409 . S
C2205 C2203 1.415 . S
C2206 H2196 0.930 . S
C2206 C2204 1.419 . S
C2206 C2207 1.362 . S
C2207 H2197 0.930 . S
C2207 C2200 1.409 . S
C2207 C2206 1.362 . S
H2208 C2214 0.930 . S
H2209 C2217 0.922 1_455 S
H2210 C2218 0.930 1_455 S
H2211 C2219 0.930 1_455 S
H2212 C2222 0.930 . S
H2213 C2223 0.930 . S
C2214 H2208 0.930 . S
C2214 C2215 1.355 . S
C2214 C2216 1.415 . S
C2215 C2214 1.355 . S
C2215 C2217 1.419 . S
C2216 C2214 1.415 . S
C2216 C2221 1.425 . S
C2216 C2223 1.409 . S
C2217 H2209 0.922 1_655 S
C2217 C2215 1.419 . S
C2217 C2218 1.362 . S
C2218 H2210 0.930 1_655 S
C2218 C2217 1.362 . S
C2218 C2221 1.409 . S
C2219 H2211 0.930 1_655 S
C2219 C2220 1.355 . S
C2219 C2221 1.415 . S
C2220 C2219 1.355 . S
C2220 C2222 1.419 . S
C2221 C2216 1.425 . S
C2221 C2218 1.409 . S
C2221 C2219 1.415 . S
C2222 H2212 0.930 . S
C2222 C2220 1.419 . S
C2222 C2223 1.362 . S
C2223 H2213 0.930 . S
C2223 C2216 1.409 . S
C2223 C2222 1.362 . S
H2224 C2230 0.930 . S
H2225 C2233 0.930 . S
H2226 C2234 0.930 . S
H2227 C2235 0.930 . S
H2228 C2238 0.930 . S
H2229 C2239 0.930 . S
C2230 H2224 0.930 . S
C2230 C2231 1.355 . S
C2230 C2232 1.415 . S
C2231 C2230 1.355 . S
C2231 C2233 1.419 . S
C2232 C2230 1.415 . S
C2232 C2237 1.425 . S
C2232 C2239 1.409 . S
C2233 H2225 0.930 . S
C2233 C2231 1.419 . S
C2233 C2234 1.362 . S
C2234 H2226 0.930 . S
C2234 C2233 1.362 . S
C2234 C2237 1.409 . S
C2235 H2227 0.930 . S
C2235 C2236 1.355 . S
C2235 C2237 1.415 . S
C2236 C2235 1.355 . S
C2236 C2238 1.419 . S
C2237 C2232 1.425 . S
C2237 C2234 1.409 . S
C2237 C2235 1.415 . S
C2238 H2228 0.930 . S
C2238 C2236 1.419 . S
C2238 C2239 1.362 . S
C2239 H2229 0.930 . S
C2239 C2232 1.409 . S
C2239 C2238 1.362 . S
H2240 C2246 0.930 . S
H2241 C2249 0.930 . S
H2242 C2250 0.930 . S
H2243 C2251 0.930 . S
H2244 C2254 0.930 . S
H2245 C2255 0.930 . S
C2246 H2240 0.930 . S
C2246 C2247 1.355 . S
C2246 C2248 1.415 . S
C2247 C2246 1.355 . S
C2247 C2249 1.419 . S
C2248 C2246 1.415 . S
C2248 C2253 1.425 . S
C2248 C2255 1.409 . S
C2249 H2241 0.930 . S
C2249 C2247 1.419 . S
C2249 C2250 1.362 . S
C2250 H2242 0.930 . S
C2250 C2249 1.362 . S
C2250 C2253 1.409 . S
C2251 H2243 0.930 . S
C2251 C2252 1.355 . S
C2251 C2253 1.415 . S
C2252 C2251 1.355 . S
C2252 C2254 1.419 . S
C2253 C2248 1.425 . S
C2253 C2250 1.409 . S
C2253 C2251 1.415 . S
C2254 H2244 0.930 . S
C2254 C2252 1.419 . S
C2254 C2255 1.362 . S
C2255 H2245 0.930 . S
C2255 C2248 1.409 . S
C2255 C2254 1.362 . S
H2256 C2262 0.930 . S
H2257 C2265 0.930 . S
H2258 C2266 0.930 . S
H2259 C2267 0.930 . S
H2260 C2270 0.930 . S
H2261 C2271 0.930 . S
C2262 H2256 0.930 . S
C2262 C2263 1.355 . S
C2262 C2264 1.415 . S
C2263 C2262 1.355 . S
C2263 C2265 1.419 . S
C2264 C2262 1.415 . S
C2264 C2269 1.425 . S
C2264 C2271 1.409 . S
C2265 H2257 0.930 . S
C2265 C2263 1.419 . S
C2265 C2266 1.362 . S
C2266 H2258 0.930 . S
C2266 C2265 1.362 . S
C2266 C2269 1.409 . S
C2267 H2259 0.930 . S
C2267 C2268 1.355 . S
C2267 C2269 1.415 . S
C2268 C2267 1.355 . S
C2268 C2270 1.419 . S
C2269 C2264 1.425 . S
C2269 C2266 1.409 . S
C2269 C2267 1.415 . S
C2270 H2260 0.930 . S
C2270 C2268 1.419 . S
C2270 C2271 1.362 . S
C2271 H2261 0.930 . S
C2271 C2264 1.409 . S
C2271 C2270 1.362 . S
H2272 C2278 0.930 . S
H2273 C2281 0.930 . S
H2274 C2282 0.930 . S
H2275 C2283 0.930 . S
H2276 C2286 0.930 . S
H2277 C2287 0.930 . S
C2278 H2272 0.930 . S
C2278 C2279 1.355 . S
C2278 C2280 1.415 . S
C2279 C2278 1.355 . S
C2279 C2281 1.419 . S
C2280 C2278 1.415 . S
C2280 C2285 1.425 . S
C2280 C2287 1.409 . S
C2281 H2273 0.930 . S
C2281 C2279 1.419 . S
C2281 C2282 1.362 . S
C2282 H2274 0.930 . S
C2282 C2281 1.362 . S
C2282 C2285 1.409 . S
C2283 H2275 0.930 . S
C2283 C2284 1.355 . S
C2283 C2285 1.415 . S
C2284 C2283 1.355 . S
C2284 C2286 1.419 . S
C2285 C2280 1.425 . S
C2285 C2282 1.409 . S
C2285 C2283 1.415 . S
C2286 H2276 0.930 . S
C2286 C2284 1.419 . S
C2286 C2287 1.362 . S
C2287 H2277 0.930 . S
C2287 C2280 1.409 . S
C2287 C2286 1.362 . S
H2288 C2294 0.930 . S
H2289 C2297 0.930 . S
H2290 C2298 0.930 . S
H2291 C2299 0.930 . S
H2292 C2302 0.930 . S
H2293 C2303 0.930 . S
C2294 H2288 0.930 . S
C2294 C2295 1.355 . S
C2294 C2296 1.415 . S
C2295 C2294 1.355 . S
C2295 C2297 1.419 . S
C2296 C2294 1.415 . S
C2296 C2301 1.425 . S
C2296 C2303 1.409 . S
C2297 H2289 0.930 . S
C2297 C2295 1.419 . S
C2297 C2298 1.362 . S
C2298 H2290 0.930 . S
C2298 C2297 1.362 . S
C2298 C2301 1.409 . S
C2299 H2291 0.930 . S
C2299 C2300 1.355 . S
C2299 C2301 1.415 . S
C2300 C2299 1.355 . S
C2300 C2302 1.419 . S
C2301 C2296 1.425 . S
C2301 C2298 1.409 . S
C2301 C2299 1.415 . S
C2302 H2292 0.930 . S
C2302 C2300 1.419 . S
C2302 C2303 1.362 . S
C2303 H2293 0.930 . S
C2303 C2296 1.409 . S
C2303 C2302 1.362 . S
H2304 C2310 0.930 . S
H2305 C2313 0.930 . S
H2306 C2314 0.930 . S
H2307 C2315 0.930 . S
H2308 C2318 0.930 . S
H2309 C2319 0.930 . S
C2310 H2304 0.930 . S
C2310 C2311 1.355 . S
C2310 C2312 1.415 . S
C2311 C2310 1.355 . S
C2311 C2313 1.419 . S
C2312 C2310 1.415 . S
C2312 C2317 1.425 . S
C2312 C2319 1.409 . S
C2313 H2305 0.930 . S
C2313 C2311 1.419 . S
C2313 C2314 1.362 . S
C2314 H2306 0.930 . S
C2314 C2313 1.362 . S
C2314 C2317 1.409 . S
C2315 H2307 0.930 . S
C2315 C2316 1.355 . S
C2315 C2317 1.415 . S
C2316 C2315 1.355 . S
C2316 C2318 1.419 . S
C2317 C2312 1.425 . S
C2317 C2314 1.409 . S
C2317 C2315 1.415 . S
C2318 H2308 0.930 . S
C2318 C2316 1.419 . S
C2318 C2319 1.362 . S
C2319 H2309 0.930 . S
C2319 C2312 1.409 . S
C2319 C2318 1.362 . S
H2320 C2326 0.930 . S
H2321 C2329 0.930 . S
H2322 C2330 0.930 . S
H2323 C2331 0.930 . S
H2324 C2334 0.930 . S
H2325 C2335 0.930 . S
C2326 H2320 0.930 . S
C2326 C2327 1.355 . S
C2326 C2328 1.415 . S
C2327 C2326 1.355 . S
C2327 C2329 1.419 . S
C2328 C2326 1.415 . S
C2328 C2333 1.425 . S
C2328 C2335 1.409 . S
C2329 H2321 0.930 . S
C2329 C2327 1.419 . S
C2329 C2330 1.362 . S
C2330 H2322 0.930 . S
C2330 C2329 1.362 . S
C2330 C2333 1.409 . S
C2331 H2323 0.930 . S
C2331 C2332 1.355 . S
C2331 C2333 1.415 . S
C2332 C2331 1.355 . S
C2332 C2334 1.419 . S
C2333 C2328 1.425 . S
C2333 C2330 1.409 . S
C2333 C2331 1.415 . S
C2334 H2324 0.930 . S
C2334 C2332 1.419 . S
C2334 C2335 1.362 . S
C2335 H2325 0.930 . S
C2335 C2328 1.409 . S
C2335 C2334 1.362 . S
H2336 C2342 0.930 . S
H2337 C2345 0.930 . S
H2338 C2346 0.930 . S
H2339 C2347 0.930 . S
H2340 C2350 0.930 . S
H2341 C2351 0.930 . S
C2342 H2336 0.930 . S
C2342 C2343 1.355 . S
C2342 C2344 1.415 . S
C2343 C2342 1.355 . S
C2343 C2345 1.419 . S
C2344 C2342 1.415 . S
C2344 C2349 1.425 . S
C2344 C2351 1.409 . S
C2345 H2337 0.930 . S
C2345 C2343 1.419 . S
C2345 C2346 1.362 . S
C2346 H2338 0.930 . S
C2346 C2345 1.362 . S
C2346 C2349 1.409 . S
C2347 H2339 0.930 . S
C2347 C2348 1.355 . S
C2347 C2349 1.415 . S
C2348 C2347 1.355 . S
C2348 C2350 1.419 . S
C2349 C2344 1.425 . S
C2349 C2346 1.409 . S
C2349 C2347 1.415 . S
C2350 H2340 0.930 . S
C2350 C2348 1.419 . S
C2350 C2351 1.362 . S
C2351 H2341 0.930 . S
C2351 C2344 1.409 . S
C2351 C2350 1.362 . S
H2352 C2358 0.930 . S
H2353 C2361 0.930 . S
H2354 C2362 0.930 . S
H2355 C2363 0.930 . S
H2356 C2366 0.930 . S
H2357 C2367 0.930 . S
C2358 H2352 0.930 . S
C2358 C2359 1.355 . S
C2358 C2360 1.415 . S
C2359 C2358 1.355 . S
C2359 C2361 1.419 . S
C2360 C2358 1.415 . S
C2360 C2365 1.425 . S
C2360 C2367 1.409 . S
C2361 H2353 0.930 . S
C2361 C2359 1.419 . S
C2361 C2362 1.362 . S
C2362 H2354 0.930 . S
C2362 C2361 1.362 . S
C2362 C2365 1.409 . S
C2363 H2355 0.930 . S
C2363 C2364 1.355 . S
C2363 C2365 1.415 . S
C2364 C2363 1.355 . S
C2364 C2366 1.419 . S
C2365 C2360 1.425 . S
C2365 C2362 1.409 . S
C2365 C2363 1.415 . S
C2366 H2356 0.930 . S
C2366 C2364 1.419 . S
C2366 C2367 1.362 . S
C2367 H2357 0.930 . S
C2367 C2360 1.409 . S
C2367 C2366 1.362 . S
H2368 C2374 0.930 . S
H2369 C2377 0.930 . S
H2370 C2378 0.930 . S
H2371 C2379 0.930 . S
H2372 C2382 0.930 . S
H2373 C2383 0.930 . S
C2374 H2368 0.930 . S
C2374 C2375 1.355 . S
C2374 C2376 1.415 . S
C2375 C2374 1.355 . S
C2375 C2377 1.419 . S
C2376 C2374 1.415 . S
C2376 C2381 1.425 . S
C2376 C2383 1.409 . S
C2377 H2369 0.930 . S
C2377 C2375 1.419 . S
C2377 C2378 1.362 . S
C2378 H2370 0.930 . S
C2378 C2377 1.362 . S
C2378 C2381 1.409 . S
C2379 H2371 0.930 . S
C2379 C2380 1.355 . S
C2379 C2381 1.415 . S
C2380 C2379 1.355 . S
C2380 C2382 1.419 . S
C2381 C2376 1.425 . S
C2381 C2378 1.409 . S
C2381 C2379 1.415 . S
C2382 H2372 0.930 . S
C2382 C2380 1.419 . S
C2382 C2383 1.362 . S
C2383 H2373 0.930 . S
C2383 C2376 1.409 . S
C2383 C2382 1.362 . S
H2384 C2390 0.930 . S
H2385 C2393 0.930 . S
H2386 C2394 0.930 1_554 S
H2387 C2395 0.930 . S
H2388 C2398 0.930 . S
H2389 C2399 0.930 . S
C2390 H2384 0.930 . S
C2390 C2391 1.355 . S
C2390 C2392 1.415 . S
C2391 C2390 1.355 . S
C2391 C2393 1.419 . S
C2392 C2390 1.415 . S
C2392 C2397 1.425 . S
C2392 C2399 1.409 . S
C2393 H2385 0.930 . S
C2393 C2391 1.419 . S
C2393 C2394 1.362 . S
C2394 H2386 0.930 1_556 S
C2394 C2393 1.362 . S
C2394 C2397 1.409 . S
C2395 H2387 0.930 . S
C2395 C2396 1.355 . S
C2395 C2397 1.415 . S
C2396 C2395 1.355 . S
C2396 C2398 1.419 . S
C2397 C2392 1.425 . S
C2397 C2394 1.409 . S
C2397 C2395 1.415 . S
C2398 H2388 0.930 . S
C2398 C2396 1.419 . S
C2398 C2399 1.362 . S
C2399 H2389 0.930 . S
C2399 C2392 1.409 . S
C2399 C2398 1.362 . S
H2400 C2406 0.930 . S
H2401 C2409 0.930 . S
H2402 C2410 0.930 . S
H2403 C2411 0.930 . S
H2404 C2414 0.930 . S
H2405 C2415 0.930 . S
C2406 H2400 0.930 . S
C2406 C2407 1.355 . S
C2406 C2408 1.415 . S
C2407 C2406 1.355 . S
C2407 C2409 1.419 . S
C2408 C2406 1.415 . S
C2408 C2413 1.425 . S
C2408 C2415 1.409 . S
C2409 H2401 0.930 . S
C2409 C2407 1.419 . S
C2409 C2410 1.362 . S
C2410 H2402 0.930 . S
C2410 C2409 1.362 . S
C2410 C2413 1.409 . S
C2411 H2403 0.930 . S
C2411 C2412 1.355 . S
C2411 C2413 1.415 . S
C2412 C2411 1.355 . S
C2412 C2414 1.419 . S
C2413 C2408 1.425 . S
C2413 C2410 1.409 . S
C2413 C2411 1.415 . S
C2414 H2404 0.930 . S
C2414 C2412 1.419 . S
C2414 C2415 1.362 . S
C2415 H2405 0.930 . S
C2415 C2408 1.409 . S
C2415 C2414 1.362 . S
H2416 C2422 0.930 . S
H2417 C2425 0.930 . S
H2418 C2426 0.930 . S
H2419 C2427 0.930 . S
H2420 C2430 0.930 . S
H2421 C2431 0.930 . S
C2422 H2416 0.930 . S
C2422 C2423 1.355 . S
C2422 C2424 1.415 . S
C2423 C2422 1.355 . S
C2423 C2425 1.419 . S
C2424 C2422 1.415 . S
C2424 C2429 1.425 . S
C2424 C2431 1.409 . S
C2425 H2417 0.930 . S
C2425 C2423 1.419 . S
C2425 C2426 1.362 . S
C2426 H2418 0.930 . S
C2426 C2425 1.362 . S
C2426 C2429 1.409 . S
C2427 H2419 0.930 . S
C2427 C2428 1.355 . S
C2427 C2429 1.415 . S
C2428 C2427 1.355 . S
C2428 C2430 1.419 . S
C2429 C2424 1.425 . S
C2429 C2426 1.409 . S
C2429 C2427 1.415 . S
C2430 H2420 0.930 . S
C2430 C2428 1.419 . S
C2430 C2431 1.362 . S
C2431 H2421 0.930 . S
C2431 C2424 1.409 . S
C2431 C2430 1.362 . S
H2432 C2438 0.930 . S
H2433 C2441 0.918 1_556 S
H2434 C2442 0.930 . S
H2435 C2443 0.930 1_556 S
H2436 C2446 0.930 . S
H2437 C2447 0.930 . S
C2438 H2432 0.930 . S
C2438 C2439 1.355 . S
C2438 C2440 1.415 . S
C2439 C2438 1.355 . S
C2439 C2441 1.436 . S
C2440 C2438 1.415 . S
C2440 C2445 1.425 . S
C2440 C2447 1.409 . S
C2441 H2433 0.918 1_554 S
C2441 C2439 1.436 . S
C2441 C2442 1.358 1_554 S
C2442 H2434 0.930 . S
C2442 C2441 1.358 1_556 S
C2442 C2445 1.409 1_556 S
C2443 H2435 0.930 1_554 S
C2443 C2444 1.355 . S
C2443 C2445 1.415 . S
C2444 C2443 1.355 . S
C2444 C2446 1.419 . S
C2445 C2440 1.425 . S
C2445 C2442 1.409 1_554 S
C2445 C2443 1.415 . S
C2446 H2436 0.930 . S
C2446 C2444 1.419 . S
C2446 C2447 1.362 . S
C2447 H2437 0.930 . S
C2447 C2440 1.409 . S
C2447 C2446 1.362 . S
C1692 C673 1.493 . S
C1687 C211 1.491 . S
C1708 C732 1.515 . S
C1703 C255 1.515 . S
C1719 C274 1.496 . S
C1724 C849 1.502 . S
C1740 C917 1.523 . S
C1735 C157 1.523 . S
C1756 C996 1.508 . S
C1751 C391 1.503 . S
C1772 C1121 1.516 . S
C1767 C484 1.510 . S
C1783 C450 1.502 . S
C1788 C1181 1.504 . S
C1804 C1289 1.523 . S
C1799 C352 1.522 . S
C1815 C430 1.496 . S
C1820 C1385 1.498 . S
C1836 C1445 1.523 . S
C1831 C367 1.517 . S
C1847 C411 1.512 . S
C1852 C1348 1.518 . S
C1868 C1465 1.509 . S
C1863 C469 1.512 . S
C1879 C294 1.503 . S
C1884 C1533 1.505 . S
C1895 C177 1.520 . S
C1900 C1524 1.516 . S
C1911 C196 1.509 . S
C1916 C1553 1.510 . S
C1927 C235 1.518 . S
C1932 C1561 1.518 . S
C1943 C133 1.504 . S
C1948 C945 1.506 . S
C1959 C567 1.500 . S
C1964 C908 1.502 . S
C1980 C644 1.517 . S
C1975 C601 1.518 . S
C1996 C741 1.512 . S
C1991 C328 1.513 . S
C2007 C172 1.504 . S
C2012 C1005 1.511 . S
C2028 C1297 1.502 . S
C2023 C445 1.500 . S
C2044 C1025 1.527 . S
C2039 C372 1.517 . S
C2060 C1209 1.500 . S
C2055 C489 1.498 . S
C2076 C1201 1.494 . S
C2071 C562 1.494 . S
C2087 C606 1.495 . S
C2092 C1269 1.505 . S
C2103 C313 1.494 . S
C2108 C1033 1.500 . S
C2124 C1084 1.523 . S
C2119 C508 1.523 . S
C2135 C118 1.503 . S
C2140 C829 1.508 . S
C2156 C937 1.517 . S
C2151 C16 1.519 . S
C2172 C653 1.497 . S
C2167 C60 1.496 . S
C2188 C769 1.516 . S
C2183 C79 1.513 . S
C2199 C40 1.494 . S
C2204 C1473 1.495 . S
C2215 C94 1.531 . S
C2220 C1357 1.528 . S
C2231 C138 1.512 . S
C2236 C1436 1.518 . S
C2247 C1 1.504 . S
C2252 C1377 1.508 . S
C2268 C1621 1.501 . S
C2263 C333 1.496 . S
C2284 C1612 1.515 . S
C2279 C528 1.511 . S
C2300 C1641 1.509 . S
C2295 C547 1.510 . S
C2311 C586 1.503 . S
C2316 C1649 1.508 . S
C2327 C406 1.500 . S
C2332 C1113 1.500 . S
C2348 C1093 1.504 . S
C2343 C216 1.502 . S
C2364 C1172 1.517 . S
C2359 C250 1.518 . S
C2380 C1260 1.503 . S
C2375 C289 1.501 . S
C2391 C523 1.520 . S
C2396 C820 1.517 . S
C2412 C761 1.509 . S
C2407 C55 1.509 . S
C2423 C99 1.537 . S
C2428 C857 1.536 . S
C2444 C681 1.500 . S
C2439 C21 1.505 . S
