# Generated by pormake.
# Topology nom, (4,4)-cn, num edge types: 1
# Building blocks:
#     Node 0, Type 0, BuildingBlock: GIZVER_clean_linker_0, # of connection points: 4
#     Node 1, Type 0, BuildingBlock: GIZVER_clean_linker_0, # of connection points: 4
#     Node 2, Type 0, BuildingBlock: GIZVER_clean_linker_0, # of connection points: 4
#     Node 3, Type 0, BuildingBlock: GIZVER_clean_linker_0, # of connection points: 4
#     Node 4, Type 0, BuildingBlock: GIZVER_clean_linker_0, # of connection points: 4
#     Node 5, Type 0, BuildingBlock: GIZVER_clean_linker_0, # of connection points: 4
#     Node 6, Type 1, BuildingBlock: AZAVOO_clean_sbu_0, # of connection points: 4
#     Node 7, Type 1, BuildingBlock: AZAVOO_clean_sbu_0, # of connection points: 4
#     Node 8, Type 1, BuildingBlock: AZAVOO_clean_sbu_0, # of connection points: 4
#     Node 9, Type 1, BuildingBlock: AZAVOO_clean_sbu_0, # of connection points: 4
#     Node 10, Type 1, BuildingBlock: AZAVOO_clean_sbu_0, # of connection points: 4
#     Node 11, Type 1, BuildingBlock: AZAVOO_clean_sbu_0, # of connection points: 4
#     Edge 12, Type (0, 1), BuildingBlock: TEMPAE_clean_linker_10, # of connection points: 2
#     Edge 13, Type (0, 1), BuildingBlock: TEMPAE_clean_linker_10, # of connection points: 2
#     Edge 14, Type (0, 1), BuildingBlock: TEMPAE_clean_linker_10, # of connection points: 2
#     Edge 15, Type (0, 1), BuildingBlock: TEMPAE_clean_linker_10, # of connection points: 2
#     Edge 16, Type (0, 1), BuildingBlock: TEMPAE_clean_linker_10, # of connection points: 2
#     Edge 17, Type (0, 1), BuildingBlock: TEMPAE_clean_linker_10, # of connection points: 2
#     Edge 18, Type (0, 1), BuildingBlock: TEMPAE_clean_linker_10, # of connection points: 2
#     Edge 19, Type (0, 1), BuildingBlock: TEMPAE_clean_linker_10, # of connection points: 2
#     Edge 20, Type (0, 1), BuildingBlock: TEMPAE_clean_linker_10, # of connection points: 2
#     Edge 21, Type (0, 1), BuildingBlock: TEMPAE_clean_linker_10, # of connection points: 2
#     Edge 22, Type (0, 1), BuildingBlock: TEMPAE_clean_linker_10, # of connection points: 2
#     Edge 23, Type (0, 1), BuildingBlock: TEMPAE_clean_linker_10, # of connection points: 2
#     Edge 24, Type (0, 1), BuildingBlock: TEMPAE_clean_linker_10, # of connection points: 2
#     Edge 25, Type (0, 1), BuildingBlock: TEMPAE_clean_linker_10, # of connection points: 2
#     Edge 26, Type (0, 1), BuildingBlock: TEMPAE_clean_linker_10, # of connection points: 2
#     Edge 27, Type (0, 1), BuildingBlock: TEMPAE_clean_linker_10, # of connection points: 2
#     Edge 28, Type (0, 1), BuildingBlock: TEMPAE_clean_linker_10, # of connection points: 2
#     Edge 29, Type (0, 1), BuildingBlock: TEMPAE_clean_linker_10, # of connection points: 2
#     Edge 30, Type (0, 1), BuildingBlock: TEMPAE_clean_linker_10, # of connection points: 2
#     Edge 31, Type (0, 1), BuildingBlock: TEMPAE_clean_linker_10, # of connection points: 2
#     Edge 32, Type (0, 1), BuildingBlock: TEMPAE_clean_linker_10, # of connection points: 2
#     Edge 33, Type (0, 1), BuildingBlock: TEMPAE_clean_linker_10, # of connection points: 2
#     Edge 34, Type (0, 1), BuildingBlock: TEMPAE_clean_linker_10, # of connection points: 2
#     Edge 35, Type (0, 1), BuildingBlock: TEMPAE_clean_linker_10, # of connection points: 2
# Relax obj value: 0.032
# Max RMSD: 0.160
# Mean RMSD: 0.105
data_MOF--net-nom--node1-AZAVOO_clean_sbu_0--node2-GIZVER_clean_linker_0--edge1-TEMPAE_clean_linker_10
_symmetry_space_group_name_H-M    P1
_symmetry_Int_Tables_number       1
_symmetry_cell_setting            triclinic
loop_
_symmetry_equiv_pos_as_xyz
'x, y, z'
_cell_length_a     47.284499
_cell_length_b     47.674648
_cell_length_c     44.90175
_cell_angle_alpha  91.279906
_cell_angle_beta   91.157513
_cell_angle_gamma 119.99758
loop_
_atom_site_label
_atom_site_type_symbol
_atom_site_fract_x
_atom_site_fract_y
_atom_site_fract_z
_atom_type_partial_charge
H0 H 0.94881 0.55495 0.3657 0.0
H1 H 0.98576 0.5596 0.27781 0.0
H2 H 0.88964 0.48383 0.29753 0.0
H3 H 0.9993 0.60099 0.35426 0.0
H4 H 0.00468 0.60997 0.3158 0.0
H5 H 0.03353 0.58446 0.38025 0.0
H6 H 0.11262 0.58523 0.33392 0.0
H7 H 0.04111 0.59812 0.28569 0.0
C8 C 0.94628 0.54449 0.34344 0.0
C9 C 0.9165 0.5173 0.33396 0.0
C10 C 0.97175 0.55976 0.32337 0.0
C11 C 0.96705 0.54722 0.29382 0.0
C12 C 0.93769 0.51945 0.28448 0.0
C13 C 0.91295 0.50442 0.3049 0.0
C14 C 0.00194 0.59166 0.33216 0.0
C15 C 0.0325 0.58905 0.33259 0.0
C16 C 0.04552 0.58528 0.35972 0.0
C17 C 0.07516 0.58504 0.36053 0.0
C18 C 0.09012 0.58604 0.33362 0.0
C19 C 0.07845 0.59135 0.30671 0.0
C20 C 0.04961 0.5929 0.30627 0.0
H21 H 0.42487 0.95781 0.51442 0.0
H22 H 0.44589 0.98325 0.42283 0.0
H23 H 0.4339 0.89298 0.45266 0.0
H24 H 0.41864 1.00118 0.49534 0.0
H25 H 0.41888 0.00635 0.45616 0.0
H26 H 0.46844 0.03248 0.52653 0.0
H27 H 0.54756 0.1162 0.48824 0.0
H28 H 0.46826 0.04558 0.43201 0.0
C29 C 0.43031 0.95259 0.49233 0.0
C30 C 0.42995 0.92336 0.48641 0.0
C31 C 0.43636 0.97449 0.46952 0.0
C32 C 0.44211 0.96686 0.44062 0.0
C33 C 0.44173 0.93762 0.4344 0.0
C34 C 0.43604 0.91635 0.45757 0.0
C35 C 0.43296 0.004 0.47514 0.0
C36 C 0.46581 0.03463 0.4787 0.0
C37 C 0.48067 0.04607 0.50726 0.0
C38 C 0.50988 0.07601 0.51106 0.0
C39 C 0.52491 0.09326 0.48568 0.0
C40 C 0.50982 0.08298 0.45729 0.0
C41 C 0.4804 0.05339 0.45382 0.0
H42 H 0.41097 0.45633 0.61366 0.0
H43 H 0.47331 0.47497 0.69175 0.0
H44 H 0.45119 0.54721 0.6622 0.0
H45 H 0.41823 0.41377 0.63103 0.0
H46 H 0.42359 0.41606 0.67055 0.0
H47 H 0.46606 0.42844 0.5989 0.0
H48 H 0.54334 0.4171 0.63823 0.0
H49 H 0.47109 0.41821 0.69361 0.0
C50 C 0.42736 0.47285 0.63114 0.0
C51 C 0.43025 0.50344 0.63521 0.0
C52 C 0.44327 0.46252 0.65129 0.0
C53 C 0.46244 0.48339 0.67533 0.0
C54 C 0.46597 0.51432 0.6792 0.0
C55 C 0.4503 0.5242 0.65858 0.0
C56 C 0.43583 0.42777 0.64979 0.0
C57 C 0.46632 0.42543 0.64672 0.0
C58 C 0.47873 0.4263 0.61833 0.0
C59 C 0.50609 0.42242 0.61494 0.0
C60 C 0.52193 0.41963 0.64048 0.0
C61 C 0.50923 0.41746 0.66874 0.0
C62 C 0.48139 0.42045 0.67185 0.0
H63 H 0.96405 0.41042 0.77755 0.0
H64 H 0.98851 0.47493 0.85408 0.0
H65 H 0.9056 0.45375 0.79666 0.0
H66 H 0.00855 0.41949 0.81023 0.0
H67 H 0.00829 0.43428 0.84727 0.0
H68 H 0.02881 0.47457 0.77256 0.0
H69 H 0.12778 0.5417 0.80081 0.0
H70 H 0.06489 0.46879 0.86006 0.0
C71 C 0.96017 0.42755 0.79056 0.0
C72 C 0.93283 0.43077 0.78395 0.0
C73 C 0.98132 0.4449 0.81505 0.0
C74 C 0.97389 0.46417 0.83373 0.0
C75 C 0.94601 0.46681 0.82779 0.0
C76 C 0.92726 0.45206 0.80148 0.0
C77 C 0.00975 0.44017 0.82331 0.0
C78 C 0.04211 0.47012 0.81801 0.0
C79 C 0.04782 0.48445 0.79 0.0
C80 C 0.07874 0.51013 0.78384 0.0
C81 C 0.1037 0.52202 0.80586 0.0
C82 C 0.09929 0.50683 0.83298 0.0
C83 C 0.06824 0.48118 0.83936 0.0
H84 H 0.61542 0.0855 0.0383 0.0
H85 H 0.55182 0.02854 0.96384 0.0
H86 H 0.587 0.13072 0.97187 0.0
H87 H 0.59247 0.02789 0.03758 0.0
H88 H 0.59941 0.01967 0.00035 0.0
H89 H 0.53086 0.01181 0.04783 0.0
H90 H 0.46303 0.91685 0.01076 0.0
H91 H 0.55986 0.96929 0.97775 0.0
C92 C 0.60108 0.08355 0.01842 0.0
C93 C 0.6031 0.11161 0.00692 0.0
C94 C 0.58217 0.05329 0.00321 0.0
C95 C 0.56529 0.05142 0.97634 0.0
C96 C 0.56633 0.07913 0.96519 0.0
C97 C 0.58495 0.1089 0.98091 0.0
C98 C 0.58249 0.02373 0.01424 0.0
C99 C 0.54884 0.99402 0.01263 0.0
C100 C 0.52488 0.99213 0.03179 0.0
C101 C 0.49363 0.96456 0.0309 0.0
C102 C 0.48648 0.939 0.01038 0.0
C103 C 0.51012 0.94029 0.99125 0.0
C104 C 0.54135 0.96802 0.9924 0.0
H105 H 0.59687 0.56732 0.11082 0.0
H106 H 0.55871 0.5487 0.19902 0.0
H107 H 0.57581 0.47915 0.15259 0.0
H108 H 0.59656 0.61014 0.14047 0.0
H109 H 0.58724 0.60442 0.17903 0.0
H110 H 0.54642 0.57868 0.10233 0.0
H111 H 0.46704 0.59259 0.1271 0.0
H112 H 0.53893 0.60357 0.19351 0.0
C113 C 0.5871 0.55124 0.12924 0.0
C114 C 0.58677 0.52161 0.1284 0.0
C115 C 0.57595 0.56065 0.15435 0.0
C116 C 0.56533 0.54059 0.17897 0.0
C117 C 0.56586 0.51145 0.17856 0.0
C118 C 0.57504 0.50152 0.1527 0.0
C119 C 0.57841 0.59341 0.15621 0.0
C120 C 0.54584 0.59067 0.14886 0.0
C121 C 0.53324 0.58345 0.11931 0.0
C122 C 0.50434 0.58339 0.11148 0.0
C123 C 0.48806 0.59041 0.13358 0.0
C124 C 0.50009 0.59762 0.16326 0.0
C125 C 0.529 0.59745 0.17082 0.0
Mg126 Mg 0.61842 0.36902 0.36914 0.0
O127 O 0.60154 0.38386 0.4114 0.0
O128 O 0.62196 0.43766 0.41049 0.0
Mg129 Mg 0.64914 0.45655 0.36782 0.0
C130 C 0.60557 0.41051 0.4228 0.0
C131 C 0.59948 0.29738 0.36768 0.0
O132 O 0.60307 0.30443 0.33938 0.0
O133 O 0.67094 0.3921 0.38843 0.0
O134 O 0.68782 0.44483 0.38498 0.0
O135 O 0.57297 0.36015 0.34473 0.0
O136 O 0.61889 0.40743 0.34809 0.0
C137 C 0.69304 0.42191 0.3918 0.0
C138 C 0.5885 0.39081 0.3397 0.0
O139 O 0.60482 0.31963 0.38694 0.0
Mg140 Mg 0.26672 0.64079 0.59416 0.0
O141 O 0.23068 0.62295 0.55366 0.0
O142 O 0.19521 0.57009 0.55894 0.0
Mg143 Mg 0.20648 0.5549 0.60326 0.0
C144 C 0.206 0.59604 0.54454 0.0
C145 C 0.3191 0.71216 0.58844 0.0
O146 O 0.3173 0.709 0.61744 0.0
O147 O 0.29232 0.61362 0.5771 0.0
O148 O 0.255 0.56243 0.58601 0.0
O149 O 0.23379 0.65411 0.61784 0.0
O150 O 0.22992 0.60585 0.61859 0.0
C151 C 0.28309 0.58341 0.57719 0.0
C152 C 0.21795 0.62413 0.62519 0.0
O153 O 0.30165 0.68735 0.57147 0.0
Mg154 Mg 0.62884 0.24698 0.7599 0.0
O155 O 0.61272 0.21376 0.71758 0.0
O156 O 0.63532 0.18232 0.72098 0.0
Mg157 Mg 0.6643 0.19439 0.76517 0.0
C158 C 0.61757 0.19139 0.70721 0.0
C159 C 0.60593 0.29609 0.75929 0.0
O160 O 0.61125 0.29349 0.78766 0.0
O161 O 0.68086 0.27813 0.74392 0.0
O162 O 0.70114 0.24483 0.74879 0.0
O163 O 0.58498 0.20939 0.78186 0.0
O164 O 0.63339 0.21259 0.78352 0.0
C165 C 0.70423 0.27207 0.74196 0.0
C166 C 0.60307 0.19749 0.79023 0.0
O167 O 0.61158 0.27963 0.74008 0.0
Mg168 Mg 0.40359 0.65202 0.87087 0.0
O169 O 0.41716 0.62868 0.90868 0.0
O170 O 0.3991 0.57687 0.89509 0.0
Mg171 Mg 0.3704 0.56594 0.85093 0.0
C172 C 0.41427 0.60104 0.91345 0.0
C173 C 0.43653 0.72438 0.88557 0.0
O174 O 0.44215 0.7222 0.85731 0.0
O175 O 0.35073 0.62827 0.88617 0.0
O176 O 0.33313 0.57626 0.87352 0.0
O177 O 0.44887 0.6611 0.84782 0.0
O178 O 0.40045 0.61707 0.8404 0.0
C179 C 0.32846 0.59837 0.88491 0.0
C180 C 0.4311 0.63267 0.83514 0.0
O181 O 0.42006 0.69833 0.89939 0.0
Mg182 Mg 0.77366 0.41902 0.03309 0.0
O183 O 0.8093 0.43488 0.07417 0.0
O184 O 0.84485 0.41809 0.06441 0.0
Mg185 Mg 0.83177 0.39093 0.01949 0.0
C186 C 0.83444 0.43262 0.0813 0.0
C187 C 0.72546 0.44211 0.03768 0.0
O188 O 0.73244 0.44304 0.0094 0.0
O189 O 0.74694 0.36649 0.04808 0.0
O190 O 0.78344 0.3513 0.03754 0.0
O191 O 0.80703 0.4649 0.0108 0.0
O192 O 0.80972 0.42005 0.00673 0.0
C193 C 0.7557 0.3451 0.04708 0.0
C194 C 0.82177 0.45015 0.00076 0.0
O195 O 0.73873 0.43176 0.05601 0.0
Mg196 Mg 0.35489 0.75721 0.19347 0.0
O197 O 0.38107 0.79368 0.2329 0.0
O198 O 0.43156 0.8281 0.2184 0.0
Mg199 Mg 0.43815 0.81339 0.17138 0.0
C200 C 0.40942 0.8186 0.2377 0.0
C201 C 0.28673 0.70612 0.20296 0.0
O202 O 0.29077 0.70807 0.17405 0.0
O203 O 0.38253 0.73047 0.20494 0.0
O204 O 0.43143 0.76509 0.18724 0.0
O205 O 0.34031 0.79136 0.17415 0.0
O206 O 0.38546 0.79057 0.16401 0.0
C207 C 0.41184 0.73829 0.19894 0.0
C208 C 0.36783 0.80392 0.16089 0.0
O209 O 0.31112 0.72418 0.22032 0.0
C210 C 0.11611 0.58381 0.27365 0.0
C211 C 0.10022 0.60105 0.28107 0.0
C212 C 0.1443 0.5979 0.25685 0.0
C213 C 0.15665 0.62987 0.24719 0.0
C214 C 0.13871 0.64597 0.25192 0.0
C215 C 0.11061 0.63133 0.26885 0.0
C216 C 0.16245 0.57972 0.25194 0.0
C217 C 0.15083 0.67991 0.24159 0.0
C218 C 0.24863 0.68427 0.24515 0.0
C219 C 0.25383 0.68506 0.21451 0.0
C220 C 0.21712 0.66593 0.25604 0.0
C221 C 0.1902 0.64798 0.23577 0.0
C222 C 0.19537 0.64807 0.20488 0.0
C223 C 0.22714 0.66661 0.19461 0.0
C224 C 0.21256 0.66625 0.28923 0.0
C225 C 0.1673 0.62914 0.18266 0.0
H226 H 0.1079 0.56027 0.28293 0.0
H227 H 0.09854 0.64483 0.27471 0.0
H228 H 0.17089 0.58213 0.22878 0.0
H229 H 0.18444 0.59021 0.26712 0.0
H230 H 0.14712 0.55356 0.25642 0.0
H231 H 0.13187 0.6871 0.24311 0.0
H232 H 0.17242 0.69725 0.25567 0.0
H233 H 0.15868 0.6821 0.21823 0.0
H234 H 0.26911 0.6984 0.26065 0.0
H235 H 0.23093 0.667 0.17087 0.0
H236 H 0.2003 0.64114 0.2972 0.0
H237 H 0.19656 0.67649 0.29418 0.0
H238 H 0.2361 0.68077 0.30202 0.0
H239 H 0.15327 0.60335 0.18863 0.0
H240 H 0.17566 0.63037 0.15953 0.0
H241 H 0.15026 0.63878 0.18325 0.0
C242 C 0.55589 0.12447 0.42852 0.0
C243 C 0.52224 0.10656 0.43319 0.0
C244 C 0.56937 0.15351 0.41329 0.0
C245 C 0.54865 0.16481 0.40254 0.0
C246 C 0.51435 0.14511 0.40451 0.0
C247 C 0.50152 0.11612 0.4198 0.0
C248 C 0.60602 0.1735 0.41126 0.0
C249 C 0.49136 0.15611 0.39311 0.0
C250 C 0.58177 0.25563 0.4066 0.0
C251 C 0.58782 0.2637 0.37667 0.0
C252 C 0.56935 0.22358 0.41523 0.0
C253 C 0.56289 0.19895 0.39342 0.0
C254 C 0.56948 0.20698 0.36325 0.0
C255 C 0.58183 0.23926 0.35522 0.0
C256 C 0.5627 0.21602 0.44771 0.0
C257 C 0.5631 0.18142 0.33945 0.0
H258 H 0.57192 0.11696 0.4387 0.0
H259 H 0.47553 0.1025 0.42354 0.0
H260 H 0.61281 0.18372 0.38886 0.0
H261 H 0.61569 0.19414 0.42778 0.0
H262 H 0.61807 0.15908 0.41591 0.0
H263 H 0.46553 0.13612 0.39218 0.0
H264 H 0.49334 0.17587 0.40813 0.0
H265 H 0.49798 0.16593 0.37056 0.0
H266 H 0.58634 0.27432 0.42332 0.0
H267 H 0.58651 0.24527 0.33203 0.0
H268 H 0.57663 0.20456 0.45606 0.0
H269 H 0.53638 0.19845 0.45025 0.0
H270 H 0.56946 0.23799 0.46191 0.0
H271 H 0.57623 0.16837 0.34541 0.0
H272 H 0.57086 0.19185 0.3172 0.0
H273 H 0.53665 0.16322 0.33789 0.0
C274 C 0.40889 0.51559 0.58824 0.0
C275 C 0.40816 0.51209 0.61915 0.0
C276 C 0.38992 0.52705 0.57406 0.0
C277 C 0.36988 0.53493 0.59134 0.0
C278 C 0.36849 0.53037 0.62245 0.0
C279 C 0.38758 0.51902 0.63588 0.0
C280 C 0.39206 0.53161 0.54089 0.0
C281 C 0.34723 0.53802 0.64181 0.0
C282 C 0.34049 0.59373 0.5755 0.0
C283 C 0.3068 0.5723 0.57144 0.0
C284 C 0.36232 0.58195 0.5787 0.0
C285 C 0.3501 0.54805 0.5777 0.0
C286 C 0.31676 0.52668 0.56991 0.0
C287 C 0.2955 0.53906 0.56693 0.0
C288 C 0.39782 0.60563 0.58644 0.0
C289 C 0.30274 0.49044 0.56807 0.0
H290 H 0.42496 0.51034 0.57538 0.0
H291 H 0.38684 0.51598 0.65978 0.0
H292 H 0.3673 0.52097 0.5302 0.0
H293 H 0.40517 0.55789 0.53657 0.0
H294 H 0.40526 0.5205 0.53017 0.0
H295 H 0.34875 0.53275 0.66558 0.0
H296 H 0.3547 0.56402 0.64045 0.0
H297 H 0.32135 0.52364 0.63375 0.0
H298 H 0.34954 0.61947 0.57873 0.0
H299 H 0.26957 0.52234 0.56314 0.0
H300 H 0.41389 0.59864 0.57465 0.0
H301 H 0.40242 0.60535 0.61074 0.0
H302 H 0.40466 0.63075 0.58075 0.0
H303 H 0.31945 0.48407 0.55662 0.0
H304 H 0.2785 0.47784 0.55612 0.0
H305 H 0.2997 0.48123 0.59095 0.0
C306 C 0.88773 0.37459 0.77554 0.0
C307 C 0.9051 0.40607 0.76517 0.0
C308 C 0.85565 0.35315 0.76517 0.0
C309 C 0.841 0.36313 0.74311 0.0
C310 C 0.85979 0.39366 0.73023 0.0
C311 C 0.89146 0.41517 0.74195 0.0
C312 C 0.83643 0.32117 0.78008 0.0
C313 C 0.84572 0.40458 0.70564 0.0
C314 C 0.75797 0.29327 0.71794 0.0
C315 C 0.73743 0.29862 0.73637 0.0
C316 C 0.79156 0.31591 0.71749 0.0
C317 C 0.80501 0.34353 0.73714 0.0
C318 C 0.78396 0.34982 0.75456 0.0
C319 C 0.75028 0.32756 0.75347 0.0
C320 C 0.81284 0.30921 0.69737 0.0
C321 C 0.79725 0.37851 0.7764 0.0
H322 H 0.8981 0.36783 0.79389 0.0
H323 H 0.90484 0.43966 0.73412 0.0
H324 H 0.81653 0.32121 0.79276 0.0
H325 H 0.82488 0.30093 0.7632 0.0
H326 H 0.85192 0.31638 0.79571 0.0
H327 H 0.86529 0.42434 0.69309 0.0
H328 H 0.82992 0.38411 0.68985 0.0
H329 H 0.83047 0.41387 0.71537 0.0
H330 H 0.74793 0.27088 0.70462 0.0
H331 H 0.73441 0.33147 0.76797 0.0
H332 H 0.8253 0.29877 0.7104 0.0
H333 H 0.83198 0.33193 0.68783 0.0
H334 H 0.79826 0.29168 0.67885 0.0
H335 H 0.81268 0.37604 0.79394 0.0
H336 H 0.77753 0.38068 0.78735 0.0
H337 H 0.81294 0.4013 0.76499 0.0
C338 C 0.47207 0.89426 0.95652 0.0
C339 C 0.50232 0.91126 0.97213 0.0
C340 C 0.46227 0.86443 0.94166 0.0
C341 C 0.48324 0.85122 0.94237 0.0
C342 C 0.51432 0.86882 0.95716 0.0
C343 C 0.52352 0.89867 0.97185 0.0
C344 C 0.42907 0.84662 0.92591 0.0
C345 C 0.53739 0.85558 0.95834 0.0
C346 C 0.44327 0.7597 0.93066 0.0
C347 C 0.44904 0.75672 0.90055 0.0
C348 C 0.45467 0.79034 0.94467 0.0
C349 C 0.47222 0.81866 0.92817 0.0
C350 C 0.4784 0.81581 0.89789 0.0
C351 C 0.46676 0.78493 0.88447 0.0
C352 C 0.4476 0.7924 0.97704 0.0
C353 C 0.49696 0.84538 0.87953 0.0
H354 H 0.45572 0.90405 0.95646 0.0
H355 H 0.54674 0.91149 0.98417 0.0
H356 H 0.43151 0.84097 0.90233 0.0
H357 H 0.41362 0.82322 0.93659 0.0
H358 H 0.41625 0.8608 0.92643 0.0
H359 H 0.56132 0.87298 0.96937 0.0
H360 H 0.52627 0.83284 0.97075 0.0
H361 H 0.54167 0.84952 0.93549 0.0
H362 H 0.42967 0.73808 0.94327 0.0
H363 H 0.47142 0.78294 0.8612 0.0
H364 H 0.43257 0.8042 0.97923 0.0
H365 H 0.47077 0.80762 0.99011 0.0
H366 H 0.43443 0.76819 0.98696 0.0
H367 H 0.4836 0.85897 0.87834 0.0
H368 H 0.50049 0.83907 0.85647 0.0
H369 H 0.52128 0.8619 0.89029 0.0
C370 C 0.5892 0.48162 0.09327 0.0
C371 C 0.6037 0.51339 0.10531 0.0
C372 C 0.60789 0.47045 0.07874 0.0
C373 C 0.64186 0.49164 0.07619 0.0
C374 C 0.65601 0.52453 0.08596 0.0
C375 C 0.63671 0.53505 0.10041 0.0
C376 C 0.59173 0.43533 0.0683 0.0
C377 C 0.69208 0.54796 0.08338 0.0
C378 C 0.69651 0.45427 0.07778 0.0
C379 C 0.70353 0.45409 0.04762 0.0
C380 C 0.67641 0.46638 0.0873 0.0
C381 C 0.66303 0.47862 0.06616 0.0
C382 C 0.66985 0.47832 0.03569 0.0
C383 C 0.69 0.46606 0.02679 0.0
C384 C 0.66958 0.4662 0.12003 0.0
C385 C 0.656 0.49109 0.01252 0.0
H386 H 0.56363 0.46488 0.097 0.0
H387 H 0.64808 0.55952 0.10998 0.0
H388 H 0.59914 0.4331 0.04548 0.0
H389 H 0.59974 0.42218 0.08324 0.0
H390 H 0.56465 0.42327 0.06835 0.0
H391 H 0.69842 0.57342 0.08841 0.0
H392 H 0.7061 0.5416 0.09925 0.0
H393 H 0.70003 0.54632 0.06065 0.0
H394 H 0.70685 0.44509 0.094 0.0
H395 H 0.69526 0.46604 0.00342 0.0
H396 H 0.64288 0.45191 0.12325 0.0
H397 H 0.67813 0.49129 0.12859 0.0
H398 H 0.68175 0.45577 0.13358 0.0
H399 H 0.62893 0.47767 0.01284 0.0
H400 H 0.66345 0.4889 0.98967 0.0
H401 H 0.66429 0.51696 0.01777 0.0
C402 C 0.43595 0.88081 0.51264 0.0
C403 C 0.4191 0.89779 0.5087 0.0
C404 C 0.4224 0.8522 0.52854 0.0
C405 C 0.39115 0.8402 0.54056 0.0
C406 C 0.37501 0.8584 0.53832 0.0
C407 C 0.38926 0.88708 0.52247 0.0
C408 C 0.44063 0.83381 0.53081 0.0
C409 C 0.34167 0.84644 0.55086 0.0
C410 C 0.33724 0.749 0.54536 0.0
C411 C 0.33912 0.74462 0.57596 0.0
C412 C 0.35433 0.77996 0.53359 0.0
C413 C 0.37397 0.80721 0.55284 0.0
C414 C 0.3766 0.80288 0.58363 0.0
C415 C 0.35907 0.77165 0.59484 0.0
C416 C 0.35086 0.78358 0.50059 0.0
C417 C 0.39754 0.83129 0.60477 0.0
H418 H 0.45914 0.8892 0.50212 0.0
H419 H 0.37601 0.89995 0.51919 0.0
H420 H 0.44095 0.82645 0.55403 0.0
H421 H 0.42797 0.81135 0.5165 0.0
H422 H 0.46622 0.84832 0.52365 0.0
H423 H 0.33396 0.86494 0.54998 0.0
H424 H 0.32338 0.82445 0.53789 0.0
H425 H 0.34143 0.83954 0.57431 0.0
H426 H 0.32188 0.7283 0.53061 0.0
H427 H 0.36076 0.7685 0.61851 0.0
H428 H 0.37523 0.7953 0.49057 0.0
H429 H 0.34033 0.79951 0.49698 0.0
H430 H 0.33498 0.75994 0.4886 0.0
H431 H 0.42293 0.84473 0.597 0.0
H432 H 0.39812 0.82368 0.62787 0.0
H433 H 0.38808 0.8484 0.60514 0.0
C434 C 0.55646 0.42226 0.69873 0.0
C435 C 0.52258 0.40677 0.69327 0.0
C436 C 0.57062 0.4068 0.71411 0.0
C437 C 0.55035 0.37509 0.7241 0.0
C438 C 0.51593 0.36078 0.72129 0.0
C439 C 0.50241 0.37689 0.70592 0.0
C440 C 0.60739 0.42317 0.71707 0.0
C441 C 0.49344 0.32713 0.73184 0.0
C442 C 0.58446 0.31802 0.72022 0.0
C443 C 0.59246 0.31693 0.75022 0.0
C444 C 0.57079 0.33691 0.71153 0.0
C445 C 0.56507 0.35527 0.73337 0.0
C446 C 0.57337 0.35455 0.76366 0.0
C447 C 0.58693 0.33535 0.77174 0.0
C448 C 0.56227 0.33706 0.67894 0.0
C449 C 0.56779 0.37393 0.7875 0.0
H450 H 0.57203 0.44543 0.68895 0.0
H451 H 0.47623 0.36476 0.70147 0.0
H452 H 0.61526 0.42017 0.73964 0.0
H453 H 0.61623 0.41173 0.70076 0.0
H454 H 0.61927 0.44946 0.71278 0.0
H455 H 0.46767 0.3216 0.7323 0.0
H456 H 0.49455 0.3091 0.71657 0.0
H457 H 0.50121 0.32412 0.75444 0.0
H458 H 0.58862 0.30387 0.70347 0.0
H459 H 0.59308 0.33471 0.795 0.0
H460 H 0.57573 0.36213 0.67092 0.0
H461 H 0.53579 0.32845 0.67591 0.0
H462 H 0.56823 0.32144 0.66478 0.0
H463 H 0.58103 0.40001 0.78238 0.0
H464 H 0.57605 0.37113 0.81001 0.0
H465 H 0.54144 0.36616 0.78794 0.0
C466 C 0.15415 0.51282 0.83736 0.0
C467 C 0.12902 0.51497 0.85124 0.0
C468 C 0.18549 0.52693 0.85054 0.0
C469 C 0.19181 0.54294 0.87891 0.0
C470 C 0.16579 0.54283 0.89425 0.0
C471 C 0.13458 0.52908 0.88002 0.0
C472 C 0.21228 0.52638 0.83314 0.0
C473 C 0.17114 0.55858 0.9249 0.0
C474 C 0.2746 0.5583 0.90449 0.0
C475 C 0.2947 0.5888 0.89277 0.0
C476 C 0.24052 0.54468 0.90414 0.0
C477 C 0.22629 0.56145 0.89067 0.0
C478 C 0.2467 0.59371 0.88186 0.0
C479 C 0.2808 0.60719 0.88335 0.0
C480 C 0.21972 0.51095 0.91523 0.0
C481 C 0.23259 0.61253 0.86743 0.0
H482 H 0.14965 0.50159 0.81517 0.0
H483 H 0.11511 0.53076 0.89074 0.0
H484 H 0.23168 0.55153 0.82894 0.0
H485 H 0.22368 0.51488 0.84616 0.0
H486 H 0.20314 0.51292 0.81134 0.0
H487 H 0.14793 0.54844 0.93692 0.0
H488 H 0.18923 0.55551 0.93846 0.0
H489 H 0.18072 0.58494 0.92283 0.0
H490 H 0.28538 0.54423 0.91225 0.0
H491 H 0.29629 0.6308 0.87432 0.0
H492 H 0.21104 0.49318 0.89608 0.0
H493 H 0.1979 0.50863 0.92629 0.0
H494 H 0.23371 0.50454 0.93115 0.0
H495 H 0.22308 0.60219 0.84461 0.0
H496 H 0.25114 0.63858 0.86577 0.0
H497 H 0.21186 0.61057 0.88015 0.0
C498 C 0.6274 0.15243 0.05008 0.0
C499 C 0.62644 0.14447 0.01968 0.0
C500 C 0.64768 0.18454 0.06116 0.0
C501 C 0.66724 0.20898 0.04129 0.0
C502 C 0.66697 0.20067 0.01077 0.0
C503 C 0.64682 0.1686 0.00047 0.0
C504 C 0.64759 0.19243 0.09386 0.0
C505 C 0.68758 0.22578 0.98875 0.0
C506 C 0.6983 0.29889 0.05003 0.0
C507 C 0.73202 0.31096 0.05358 0.0
C508 C 0.67619 0.26533 0.04887 0.0
C509 C 0.68812 0.24348 0.05162 0.0
C510 C 0.72169 0.25569 0.05849 0.0
C511 C 0.74326 0.28927 0.0592 0.0
C512 C 0.64055 0.25334 0.04167 0.0
C513 C 0.73539 0.23332 0.06219 0.0
H514 H 0.61165 0.13381 0.06496 0.0
H515 H 0.64666 0.16238 0.97706 0.0
H516 H 0.67296 0.2064 0.10332 0.0
H517 H 0.63635 0.20787 0.09671 0.0
H518 H 0.63372 0.17028 0.10683 0.0
H519 H 0.68439 0.21526 0.96576 0.0
H520 H 0.68101 0.2451 0.98832 0.0
H521 H 0.7138 0.2374 -0.00433 0.0
H522 H 0.68938 0.31547 0.04584 0.0
H523 H 0.76924 0.29844 0.06253 0.0
H524 H 0.62475 0.23253 0.05544 0.0
H525 H 0.63493 0.2448 0.01794 0.0
H526 H 0.63427 0.27268 0.04527 0.0
H527 H 0.71917 0.21235 0.07563 0.0
H528 H 0.76022 0.24604 0.07301 0.0
H529 H 0.737 0.22367 0.03995 0.0
C530 C 0.45047 0.59654 0.18301 0.0
C531 C 0.48453 0.60986 0.18443 0.0
C532 C 0.43618 0.61429 0.19361 0.0
C533 C 0.4564 0.64559 0.20675 0.0
C534 C 0.48984 0.65644 0.21305 0.0
C535 C 0.50372 0.63866 0.20139 0.0
C536 C 0.40027 0.6014 0.18706 0.0
C537 C 0.51173 0.68871 0.2289 0.0
C538 C 0.44067 0.71108 0.17921 0.0
C539 C 0.42285 0.71448 0.20211 0.0
C540 C 0.45131 0.68856 0.18059 0.0
C541 C 0.44508 0.66964 0.20613 0.0
C542 C 0.42769 0.67346 0.22978 0.0
C543 C 0.41604 0.69538 0.22715 0.0
C544 C 0.46891 0.68482 0.15437 0.0
C545 C 0.42104 0.65445 0.25772 0.0
H546 H 0.43532 0.57363 0.17094 0.0
H547 H 0.52999 0.64898 0.20315 0.0
H548 H 0.38864 0.60515 0.20676 0.0
H549 H 0.39731 0.61482 0.16849 0.0
H550 H 0.38718 0.57517 0.18055 0.0
H551 H 0.53432 0.6901 0.23834 0.0
H552 H 0.51894 0.70836 0.21289 0.0
H553 H 0.49872 0.69309 0.24713 0.0
H554 H 0.44562 0.72562 0.15969 0.0
H555 H 0.40231 0.6981 0.24492 0.0
H556 H 0.45648 0.65914 0.14615 0.0
H557 H 0.49429 0.6918 0.16136 0.0
H558 H 0.46998 0.70002 0.13555 0.0
H559 H 0.39731 0.63158 0.25475 0.0
H560 H 0.41924 0.66821 0.27718 0.0
H561 H 0.44028 0.64824 0.2628 0.0
C562 C 0.88579 0.4931 0.38051 0.0
C563 C 0.887 0.50489 0.35197 0.0
C564 C 0.85619 0.47807 0.39561 0.0
C565 C 0.82747 0.47474 0.38158 0.0
C566 C 0.82917 0.4879 0.35325 0.0
C567 C 0.85888 0.50295 0.33901 0.0
C568 C 0.85554 0.46479 0.42591 0.0
C569 C 0.79937 0.48534 0.33743 0.0
C570 C 0.73955 0.41133 0.38889 0.0
C571 C 0.72717 0.43082 0.39936 0.0
C572 C 0.77339 0.42419 0.38663 0.0
C573 C 0.79502 0.45707 0.39534 0.0
C574 C 0.78277 0.47503 0.41019 0.0
C575 C 0.74888 0.4618 0.41174 0.0
C576 C 0.78552 0.40397 0.37124 0.0
C577 C 0.80508 0.50969 0.42093 0.0
H578 H 0.90761 0.49466 0.39052 0.0
H579 H 0.86002 0.51264 0.31715 0.0
H580 H 0.83917 0.46849 0.44082 0.0
H581 H 0.84605 0.43833 0.42345 0.0
H582 H 0.88036 0.47621 0.43669 0.0
H583 H 0.80501 0.49683 0.31545 0.0
H584 H 0.78033 0.45949 0.33383 0.0
H585 H 0.78887 0.49718 0.35132 0.0
H586 H 0.72288 0.38723 0.37958 0.0
H587 H 0.73938 0.47671 0.42053 0.0
H588 H 0.8085 0.40792 0.38222 0.0
H589 H 0.7908 0.41133 0.3478 0.0
H590 H 0.76712 0.37771 0.37108 0.0
H591 H 0.82829 0.51291 0.43075 0.0
H592 H 0.79329 0.51753 0.43777 0.0
H593 H 0.81118 0.52578 0.40175 0.0
C594 C 0.12706 0.60667 0.39121 0.0
C595 C 0.09281 0.58729 0.38914 0.0
C596 C 0.14486 0.60787 0.41689 0.0
C597 C 0.12804 0.59059 0.44188 0.0
C598 C 0.09343 0.57232 0.44072 0.0
C599 C 0.07618 0.57052 0.41417 0.0
C600 C 0.18178 0.62718 0.41698 0.0
C601 C 0.0747 0.55449 0.4674 0.0
C602 C 0.17551 0.56923 0.49701 0.0
C603 C 0.18721 0.59527 0.51777 0.0
C604 C 0.15603 0.56729 0.47221 0.0
C605 C 0.14706 0.59133 0.46889 0.0
C606 C 0.15821 0.61728 0.49028 0.0
C607 C 0.17872 0.61926 0.51423 0.0
C608 C 0.14565 0.53996 0.44926 0.0
C609 C 0.14833 0.64279 0.48797 0.0
H610 H 0.14021 0.62094 0.37257 0.0
H611 H 0.04979 0.55563 0.41291 0.0
H612 H 0.1912 0.64683 0.43448 0.0
H613 H 0.19198 0.6113 0.42229 0.0
H614 H 0.19108 0.63821 0.39521 0.0
H615 H 0.04789 0.54358 0.46367 0.0
H616 H 0.08001 0.5349 0.47251 0.0
H617 H 0.08259 0.57125 0.48728 0.0
H618 H 0.18205 0.55064 0.49997 0.0
H619 H 0.18728 0.63902 0.53074 0.0
H620 H 0.15508 0.55002 0.42724 0.0
H621 H 0.11863 0.52579 0.4468 0.0
H622 H 0.15472 0.52327 0.4552 0.0
H623 H 0.15853 0.65692 0.46776 0.0
H624 H 0.15697 0.65986 0.5077 0.0
H625 H 0.12134 0.63111 0.48567 0.0
C626 C 0.52251 0.07275 0.56546 0.0
C627 C 0.52339 0.09126 0.54125 0.0
C628 C 0.53604 0.08761 0.5936 0.0
C629 C 0.55155 0.12179 0.59735 0.0
C630 C 0.55216 0.14049 0.57315 0.0
C631 C 0.53744 0.12498 0.54574 0.0
C632 C 0.53402 0.06681 0.61923 0.0
C633 C 0.56895 0.17705 0.57599 0.0
C634 C 0.5682 0.16535 0.67306 0.0
C635 C 0.60083 0.17407 0.679 0.0
C636 C 0.55136 0.14706 0.64714 0.0
C637 C 0.56799 0.13839 0.62624 0.0
C638 C 0.60111 0.14751 0.63206 0.0
C639 C 0.61695 0.16474 0.65867 0.0
C640 C 0.5158 0.13695 0.64214 0.0
C641 C 0.62004 0.13977 0.60986 0.0
H642 H 0.5117 0.04675 0.56237 0.0
H643 H 0.5371 0.13954 0.5277 0.0
H644 H 0.55889 0.07206 0.62618 0.0
H645 H 0.52353 0.07258 0.63873 0.0
H646 H 0.51885 0.04052 0.61334 0.0
H647 H 0.56818 0.18809 0.55467 0.0
H648 H 0.55722 0.18449 0.59315 0.0
H649 H 0.59489 0.18712 0.58334 0.0
H650 H 0.5556 0.17211 0.68908 0.0
H651 H 0.64221 0.17152 0.66334 0.0
H652 H 0.5011 0.11039 0.63754 0.0
H653 H 0.51279 0.14886 0.62236 0.0
H654 H 0.50577 0.14337 0.66163 0.0
H655 H 0.60781 0.11324 0.60526 0.0
H656 H 0.64559 0.1485 0.61784 0.0
H657 H 0.62058 0.15117 0.58843 0.0
C658 C 0.49643 0.5681 0.70643 0.0
C659 C 0.47988 0.53415 0.70731 0.0
C660 C 0.49723 0.58702 0.73112 0.0
C661 C 0.4821 0.57158 0.75748 0.0
C662 C 0.471 0.53815 0.76015 0.0
C663 C 0.46961 0.51963 0.73483 0.0
C664 C 0.50978 0.62267 0.72732 0.0
C665 C 0.45641 0.52113 0.78848 0.0
C666 C 0.4767 0.62302 0.82102 0.0
C667 C 0.44509 0.61781 0.81567 0.0
C668 C 0.48922 0.60777 0.80265 0.0
C669 C 0.4699 0.58772 0.77804 0.0
C670 C 0.43817 0.58302 0.77239 0.0
C671 C 0.42602 0.59767 0.79157 0.0
C672 C 0.52254 0.61232 0.81015 0.0
C673 C 0.41694 0.56259 0.74594 0.0
H674 H 0.5054 0.57954 0.6854 0.0
H675 H 0.45722 0.49347 0.73596 0.0
H676 H 0.48876 0.6264 0.72275 0.0
H677 H 0.52282 0.63704 0.74789 0.0
H678 H 0.52648 0.63209 0.70843 0.0
H679 H 0.45642 0.49788 0.78957 0.0
H680 H 0.47003 0.53671 0.80835 0.0
H681 H 0.43074 0.51576 0.78935 0.0
H682 H 0.49124 0.6383 0.83997 0.0
H683 H 0.40163 0.59382 0.78739 0.0
H684 H 0.53683 0.61614 0.78985 0.0
H685 H 0.51955 0.59004 0.82033 0.0
H686 H 0.53674 0.63308 0.82621 0.0
H687 H 0.43026 0.57133 0.72502 0.0
H688 H 0.39373 0.56306 0.7438 0.0
H689 H 0.41084 0.53706 0.74814 0.0
C690 C 0.95251 0.50295 0.87252 0.0
C691 C 0.93226 0.47785 0.85192 0.0
C692 C 0.9399 0.50836 0.89877 0.0
C693 C 0.90638 0.48814 0.90439 0.0
C694 C 0.88541 0.46475 0.88247 0.0
C695 C 0.89862 0.45974 0.85677 0.0
C696 C 0.96293 0.53402 0.9213 0.0
C697 C 0.84937 0.44275 0.88732 0.0
C698 C 0.87073 0.45375 0.97741 0.0
C699 C 0.84998 0.46644 0.98143 0.0
C700 C 0.89264 0.46381 0.95423 0.0
C701 C 0.89356 0.48698 0.93449 0.0
C702 C 0.87563 0.50277 0.94069 0.0
C703 C 0.85393 0.49227 0.96421 0.0
C704 C 0.91198 0.4469 0.9489 0.0
C705 C 0.8767 0.52825 0.92068 0.0
H706 H 0.97844 0.51743 0.86882 0.0
H707 H 0.88262 0.43976 0.84159 0.0
H708 H 0.95065 0.5452 0.93351 0.0
H709 H 0.97157 0.52278 0.93785 0.0
H710 H 0.98468 0.55335 0.9105 0.0
H711 H 0.83596 0.42824 0.86685 0.0
H712 H 0.8462 0.42578 0.90516 0.0
H713 H 0.83799 0.45709 0.89459 0.0
H714 H 0.8687 0.43468 0.99132 0.0
H715 H 0.8383 0.5026 0.96756 0.0
H716 H 0.9375 0.46461 0.94353 0.0
H717 H 0.90084 0.42949 0.92956 0.0
H718 H 0.91239 0.43331 0.96853 0.0
H719 H 0.90174 0.54405 0.91281 0.0
H720 H 0.86836 0.54354 0.93222 0.0
H721 H 0.86033 0.51623 0.90078 0.0
C722 C 0.43639 0.94243 0.04701 0.0
C723 C 0.46999 0.95912 0.05436 0.0
C724 C 0.41379 0.9238 0.06817 0.0
C725 C 0.4254 0.9223 0.09702 0.0
C726 C 0.45812 0.9447 0.10603 0.0
C727 C 0.48033 0.9628 0.08438 0.0
C728 C 0.3787 0.9015 0.0581 0.0
C729 C 0.47091 0.94531 0.13721 0.0
C730 C 0.37157 0.85716 0.15038 0.0
C731 C 0.38001 0.83346 0.14377 0.0
C732 C 0.38561 0.88633 0.13512 0.0
C733 C 0.40816 0.89138 0.1127 0.0
C734 C 0.41565 0.86678 0.10533 0.0
C735 C 0.40169 0.83835 0.12114 0.0
C736 C 0.37727 0.91196 0.14401 0.0
C737 C 0.439 0.87056 0.08111 0.0
H738 H 0.4282 0.94063 0.02395 0.0
H739 H 0.50619 0.97633 0.09043 0.0
H740 H 0.37544 0.87749 0.05134 0.0
H741 H 0.3619 0.89788 0.07639 0.0
H742 H 0.37178 0.9111 0.03866 0.0
H743 H 0.49373 0.96856 0.14269 0.0
H744 H 0.45243 0.94168 0.15381 0.0
H745 H 0.4764 0.92532 0.13905 0.0
H746 H 0.3549 0.8534 0.16808 0.0
H747 H 0.4079 0.81982 0.11581 0.0
H748 H 0.37814 0.92673 0.12493 0.0
H749 H 0.39531 0.92849 0.16139 0.0
H750 H 0.35264 0.901 0.15355 0.0
H751 H 0.43085 0.87594 0.05973 0.0
H752 H 0.44093 0.84846 0.07746 0.0
H753 H 0.46376 0.89109 0.0871 0.0
C754 C 0.58612 0.48544 0.21346 0.0
C755 C 0.56242 0.49383 0.2062 0.0
C756 C 0.58359 0.46768 0.23849 0.0
C757 C 0.55692 0.45852 0.2573 0.0
C758 C 0.53335 0.4678 0.2508 0.0
C759 C 0.53633 0.48538 0.22511 0.0
C760 C 0.60955 0.45864 0.24463 0.0
C761 C 0.50479 0.45871 0.27051 0.0
C762 C 0.54993 0.38902 0.30028 0.0
C763 C 0.57259 0.4061 0.32368 0.0
C764 C 0.54092 0.40539 0.28 0.0
C765 C 0.55476 0.4394 0.28362 0.0
C766 C 0.57396 0.45575 0.3096 0.0
C767 C 0.58292 0.43889 0.32924 0.0
C768 C 0.52001 0.387 0.25279 0.0
C769 C 0.58826 0.49178 0.31484 0.0
H770 H 0.60689 0.49282 0.19939 0.0
H771 H 0.51809 0.49203 0.21956 0.0
H772 H 0.62212 0.46935 0.26652 0.0
H773 H 0.59817 0.43193 0.24565 0.0
H774 H 0.62825 0.46712 0.22731 0.0
H775 H 0.49237 0.47275 0.26566 0.0
H776 H 0.48675 0.43257 0.26682 0.0
H777 H 0.51275 0.46268 0.29439 0.0
H778 H 0.54151 0.36349 0.29624 0.0
H779 H 0.59932 0.45182 0.34809 0.0
H780 H 0.53592 0.39148 0.23354 0.0
H781 H 0.50261 0.39539 0.24703 0.0
H782 H 0.50606 0.36047 0.2561 0.0
H783 H 0.60994 0.50488 0.30096 0.0
H784 H 0.59613 0.4993 0.33855 0.0
H785 H 0.57037 0.49933 0.30829 0.0
C786 C 0.42474 0.92974 0.38018 0.0
C787 C 0.44332 0.92689 0.40342 0.0
C788 C 0.42128 0.91451 0.35212 0.0
C789 C 0.43653 0.89577 0.34732 0.0
C790 C 0.45675 0.89429 0.37016 0.0
C791 C 0.46008 0.91006 0.39784 0.0
C792 C 0.39994 0.91709 0.32815 0.0
C793 C 0.47348 0.87462 0.36592 0.0
C794 C 0.39628 0.82551 0.29026 0.0
C795 C 0.4166 0.83803 0.26598 0.0
C796 C 0.40261 0.84404 0.31688 0.0
C797 C 0.42966 0.87601 0.31916 0.0
C798 C 0.45018 0.88885 0.29472 0.0
C799 C 0.44353 0.86966 0.26851 0.0
C800 C 0.38038 0.82934 0.34263 0.0
C801 C 0.479 0.92296 0.29617 0.0
H802 H 0.41145 0.94242 0.38435 0.0
H803 H 0.47488 0.90818 0.41558 0.0
H804 H 0.4128 0.92381 0.30683 0.0
H805 H 0.37746 0.8932 0.32421 0.0
H806 H 0.39269 0.93527 0.33428 0.0
H807 H 0.49015 0.87778 0.38511 0.0
H808 H 0.45481 0.84854 0.36318 0.0
H809 H 0.48773 0.88153 0.34538 0.0
H810 H 0.37549 0.80111 0.28855 0.0
H811 H 0.45924 0.8797 0.24979 0.0
H812 H 0.36908 0.84413 0.34872 0.0
H813 H 0.39478 0.82939 0.36249 0.0
H814 H 0.36061 0.80406 0.33739 0.0
H815 H 0.47058 0.94049 0.30094 0.0
H816 H 0.49241 0.92944 0.2751 0.0
H817 H 0.49624 0.92573 0.31465 0.0
C818 C 0.52811 0.3965 0.5806 0.0
C819 C 0.51701 0.41863 0.58502 0.0
C820 C 0.54126 0.39425 0.55366 0.0
C821 C 0.54198 0.41349 0.5299 0.0
C822 C 0.529 0.43443 0.53342 0.0
C823 C 0.51704 0.4371 0.56112 0.0
C824 C 0.55545 0.3721 0.55103 0.0
C825 C 0.52845 0.45455 0.50817 0.0
C826 C 0.60685 0.43412 0.4729 0.0
C827 C 0.58962 0.41016 0.4506 0.0
C828 C 0.59161 0.43538 0.49891 0.0
C829 C 0.55802 0.41287 0.50205 0.0
C830 C 0.54037 0.38892 0.47928 0.0
C831 C 0.5566 0.38748 0.45397 0.0
C832 C 0.61154 0.46051 0.52318 0.0
C833 C 0.50431 0.36518 0.48148 0.0
H834 H 0.52699 0.38108 0.59845 0.0
H835 H 0.50845 0.45416 0.56422 0.0
H836 H 0.54316 0.35416 0.53228 0.0
H837 H 0.58177 0.38648 0.54612 0.0
H838 H 0.55299 0.3588 0.5717 0.0
H839 H 0.51429 0.46678 0.51343 0.0
H840 H 0.55378 0.47334 0.50337 0.0
H841 H 0.51765 0.43911 0.48759 0.0
H842 H 0.63242 0.45165 0.47011 0.0
H843 H 0.54324 0.36934 0.43635 0.0
H844 H 0.61053 0.44841 0.54429 0.0
H845 H 0.60118 0.47652 0.52736 0.0
H846 H 0.63755 0.47578 0.51745 0.0
H847 H 0.50005 0.34982 0.50095 0.0
H848 H 0.49383 0.34916 0.46115 0.0
H849 H 0.49091 0.3785 0.48504 0.0
C850 C 0.11383 0.52039 0.741 0.0
C851 C 0.08759 0.52166 0.75341 0.0
C852 C 0.12825 0.53718 0.71552 0.0
C853 C 0.11543 0.55501 0.70155 0.0
C854 C 0.08681 0.55371 0.71226 0.0
C855 C 0.07329 0.53719 0.73848 0.0
C856 C 0.15871 0.53771 0.705 0.0
C857 C 0.07154 0.57116 0.69728 0.0
C858 C 0.18627 0.62556 0.66772 0.0
C859 C 0.1872 0.61095 0.64074 0.0
C860 C 0.1604 0.60891 0.68682 0.0
C861 C 0.13474 0.57743 0.6781 0.0
C862 C 0.13344 0.56486 0.64897 0.0
C863 C 0.16022 0.58147 0.6308 0.0
C864 C 0.1627 0.62325 0.7177 0.0
C865 C 0.10548 0.53237 0.63818 0.0
H866 H 0.12436 0.50774 0.75241 0.0
H867 H 0.05276 0.53785 0.74805 0.0
H868 H 0.15521 0.52891 0.68142 0.0
H869 H 0.17964 0.56291 0.70629 0.0
H870 H 0.16529 0.52241 0.71849 0.0
H871 H 0.04492 0.55905 0.70115 0.0
H872 H 0.08291 0.59627 0.70682 0.0
H873 H 0.07525 0.57244 0.67291 0.0
H874 H 0.20717 0.64857 0.67511 0.0
H875 H 0.1607 0.57069 0.60945 0.0
H876 H 0.16886 0.6099 0.73415 0.0
H877 H 0.13892 0.62073 0.72365 0.0
H878 H 0.18174 0.64929 0.71968 0.0
H879 H 0.10939 0.51283 0.6466 0.0
H880 H 0.10367 0.53011 0.61344 0.0
H881 H 0.08196 0.52857 0.64664 0.0
C882 C 0.55887 0.06454 0.91059 0.0
C883 C 0.55253 0.079 0.93516 0.0
C884 C 0.55752 0.0744 0.88162 0.0
C885 C 0.55093 0.09996 0.87764 0.0
C886 C 0.53944 0.1107 0.90173 0.0
C887 C 0.53967 0.09943 0.93018 0.0
C888 C 0.56741 0.06055 0.85601 0.0
C889 C 0.53195 0.13783 0.89864 0.0
C890 C 0.61063 0.16925 0.83232 0.0
C891 C 0.59032 0.16944 0.8094 0.0
C892 C 0.59816 0.14599 0.8541 0.0
C893 C 0.56478 0.12138 0.85209 0.0
C894 C 0.54472 0.11999 0.82761 0.0
C895 C 0.55761 0.14459 0.80678 0.0
C896 C 0.62038 0.14906 0.88023 0.0
C897 C 0.50979 0.09281 0.82357 0.0
H898 H 0.56813 0.04812 0.91407 0.0
H899 H 0.53344 0.1096 0.94908 0.0
H900 H 0.55436 0.05994 0.83497 0.0
H901 H 0.59401 0.07598 0.85284 0.0
H902 H 0.56234 0.03566 0.86047 0.0
H903 H 0.51858 0.13974 0.91793 0.0
H904 H 0.55522 0.16115 0.8973 0.0
H905 H 0.51722 0.13441 0.87796 0.0
H906 H 0.6359 0.1886 0.83432 0.0
H907 H 0.54211 0.14457 0.78864 0.0
H908 H 0.62246 0.12695 0.88132 0.0
H909 H 0.61 0.15157 0.90142 0.0
H910 H 0.64536 0.17029 0.87879 0.0
H911 H 0.50955 0.06972 0.819 0.0
H912 H 0.49666 0.09679 0.80483 0.0
H913 H 0.49621 0.0898 0.8442 0.0
C914 C 0.4589 0.56229 0.07282 0.0
C915 C 0.49254 0.57959 0.07994 0.0
C916 C 0.44676 0.56365 0.0445 0.0
C917 C 0.46885 0.58231 0.0226 0.0
C918 C 0.50293 0.59785 0.02891 0.0
C919 C 0.5144 0.59646 0.05761 0.0
C920 C 0.41023 0.54673 0.03866 0.0
C921 C 0.52724 0.6175 0.00592 0.0
C922 C 0.43456 0.57049 0.94324 0.0
C923 C 0.42909 0.59675 0.94108 0.0
C924 C 0.44824 0.56588 0.96939 0.0
C925 C 0.45615 0.58775 0.99409 0.0
C926 C 0.45089 0.61441 0.992 0.0
C927 C 0.43765 0.61873 0.96543 0.0
C928 C 0.45399 0.53749 0.97067 0.0
C929 C 0.45867 0.63806 0.01804 0.0
H930 H 0.44194 0.54875 0.08988 0.0
H931 H 0.54041 0.61008 0.06297 0.0
H932 H 0.40261 0.56507 0.03558 0.0
H933 H 0.40325 0.53147 0.01784 0.0
H934 H 0.39649 0.53122 0.05724 0.0
H935 H 0.55265 0.62452 0.01298 0.0
H936 H 0.52107 0.60367 0.98428 0.0
H937 H 0.52621 0.63991 0.00216 0.0
H938 H 0.42832 0.55358 0.9244 0.0
H939 H 0.43341 0.63901 0.96396 0.0
H940 H 0.43889 0.52086 0.98803 0.0
H941 H 0.47993 0.54609 0.977 0.0
H942 H 0.44794 0.52359 0.94904 0.0
H943 H 0.4441 0.62506 0.03735 0.0
H944 H 0.45344 0.65769 0.01268 0.0
H945 H 0.48483 0.64922 0.02505 0.0
C946 C 0.9362 0.53023 0.23033 0.0
C947 C 0.93039 0.50813 0.25273 0.0
C948 C 0.92345 0.51939 0.20116 0.0
C949 C 0.90428 0.48569 0.19441 0.0
C950 C 0.89999 0.46331 0.2165 0.0
C951 C 0.91329 0.47482 0.24534 0.0
C952 C 0.92899 0.54397 0.17804 0.0
C953 C 0.87983 0.42718 0.21016 0.0
C954 C 0.83836 0.45601 0.13283 0.0
C955 C 0.85261 0.44745 0.1099 0.0
C956 C 0.85513 0.4689 0.16035 0.0
C957 C 0.88704 0.47372 0.16486 0.0
C958 C 0.90186 0.46591 0.14157 0.0
C959 C 0.88441 0.45269 0.11445 0.0
C960 C 0.83842 0.4767 0.18483 0.0
C961 C 0.93598 0.47111 0.14541 0.0
H962 H 0.94911 0.55599 0.23595 0.0
H963 H 0.9091 0.45768 0.26253 0.0
H964 H 0.93727 0.53803 0.15711 0.0
H965 H 0.90566 0.54331 0.17266 0.0
H966 H 0.94738 0.569 0.18585 0.0
H967 H 0.8806 0.41307 0.22921 0.0
H968 H 0.85401 0.42032 0.20531 0.0
H969 H 0.88859 0.42014 0.19018 0.0
H970 H 0.81382 0.452 0.12951 0.0
H971 H 0.89579 0.44649 0.09675 0.0
H972 H 0.85357 0.50247 0.19243 0.0
H973 H 0.83572 0.46173 0.20431 0.0
H974 H 0.81385 0.47218 0.17755 0.0
H975 H 0.95332 0.49665 0.15255 0.0
H976 H 0.94465 0.46535 0.12458 0.0
H977 H 0.93663 0.45561 0.16317 0.0
loop_
_geom_bond_atom_site_label_1
_geom_bond_atom_site_label_2
_geom_bond_distance
_geom_bond_site_symmetry_2
_ccdc_geom_bond_type
H0 C8 0.930 . S
H1 C11 0.930 . S
H2 C13 0.930 . S
H3 C14 0.958 1_655 S
H4 C14 0.970 . S
H5 C16 0.930 . S
H6 C18 0.930 . S
H7 C20 0.930 . S
C8 H0 0.930 . S
C8 C9 1.382 . S
C8 C10 1.426 . S
C9 C8 1.382 . S
C9 C13 1.389 . S
C10 C8 1.426 . S
C10 C11 1.375 . S
C10 C14 1.532 1_655 S
C11 H1 0.930 . S
C11 C10 1.375 . S
C11 C12 1.416 . S
C12 C11 1.416 . S
C12 C13 1.371 . S
C13 H2 0.930 . S
C13 C9 1.389 . S
C13 C12 1.371 . S
C14 H3 0.958 1_455 S
C14 H4 0.970 . S
C14 C10 1.532 1_455 S
C14 C15 1.499 . S
C15 C14 1.499 . S
C15 C16 1.370 . S
C15 C20 1.415 . S
C16 H5 0.930 . S
C16 C15 1.370 . S
C16 C17 1.407 . S
C17 C16 1.407 . S
C17 C18 1.365 . S
C18 H6 0.930 . S
C18 C17 1.365 . S
C18 C19 1.393 . S
C19 C18 1.393 . S
C19 C20 1.387 . S
C20 H7 0.930 . S
C20 C15 1.415 . S
C20 C19 1.387 . S
H21 C29 0.930 . S
H22 C32 0.930 . S
H23 C34 0.930 . S
H24 C35 0.970 . S
H25 C35 0.970 . S
H26 C37 0.930 . S
H27 C39 0.930 . S
H28 C41 0.930 . S
C29 H21 0.930 . S
C29 C30 1.382 . S
C29 C31 1.426 . S
C30 C29 1.382 . S
C30 C34 1.389 . S
C31 C29 1.426 . S
C31 C32 1.375 . S
C31 C35 1.532 1_565 S
C32 H22 0.930 . S
C32 C31 1.375 . S
C32 C33 1.416 . S
C33 C32 1.416 . S
C33 C34 1.371 . S
C34 H23 0.930 . S
C34 C30 1.389 . S
C34 C33 1.371 . S
C35 H24 0.970 . S
C35 H25 0.970 . S
C35 C31 1.532 1_545 S
C35 C36 1.499 . S
C36 C35 1.499 . S
C36 C37 1.370 . S
C36 C41 1.415 . S
C37 H26 0.930 . S
C37 C36 1.370 . S
C37 C38 1.407 . S
C38 C37 1.407 . S
C38 C39 1.365 . S
C39 H27 0.930 . S
C39 C38 1.365 . S
C39 C40 1.393 . S
C40 C39 1.393 . S
C40 C41 1.387 . S
C41 H28 0.930 . S
C41 C36 1.415 . S
C41 C40 1.387 . S
H42 C50 0.930 . S
H43 C53 0.930 . S
H44 C55 0.930 . S
H45 C56 0.970 . S
H46 C56 0.970 . S
H47 C58 0.930 . S
H48 C60 0.930 . S
H49 C62 0.930 . S
C50 H42 0.930 . S
C50 C51 1.382 . S
C50 C52 1.426 . S
C51 C50 1.382 . S
C51 C55 1.389 . S
C52 C50 1.426 . S
C52 C53 1.375 . S
C52 C56 1.532 . S
C53 H43 0.930 . S
C53 C52 1.375 . S
C53 C54 1.416 . S
C54 C53 1.416 . S
C54 C55 1.371 . S
C55 H44 0.930 . S
C55 C51 1.389 . S
C55 C54 1.371 . S
C56 H45 0.970 . S
C56 H46 0.970 . S
C56 C52 1.532 . S
C56 C57 1.499 . S
C57 C56 1.499 . S
C57 C58 1.370 . S
C57 C62 1.415 . S
C58 H47 0.930 . S
C58 C57 1.370 . S
C58 C59 1.407 . S
C59 C58 1.407 . S
C59 C60 1.365 . S
C60 H48 0.930 . S
C60 C59 1.365 . S
C60 C61 1.393 . S
C61 C60 1.393 . S
C61 C62 1.387 . S
C62 H49 0.930 . S
C62 C57 1.415 . S
C62 C61 1.387 . S
H63 C71 0.930 . S
H64 C74 0.930 . S
H65 C76 0.930 . S
H66 C77 0.970 . S
H67 C77 0.970 . S
H68 C79 0.930 . S
H69 C81 0.930 . S
H70 C83 0.930 . S
C71 H63 0.930 . S
C71 C72 1.382 . S
C71 C73 1.426 . S
C72 C71 1.382 . S
C72 C76 1.389 . S
C73 C71 1.426 . S
C73 C74 1.375 . S
C73 C77 1.532 1_655 S
C74 H64 0.930 . S
C74 C73 1.375 . S
C74 C75 1.416 . S
C75 C74 1.416 . S
C75 C76 1.371 . S
C76 H65 0.930 . S
C76 C72 1.389 . S
C76 C75 1.371 . S
C77 H66 0.970 . S
C77 H67 0.970 . S
C77 C73 1.532 1_455 S
C77 C78 1.499 . S
C78 C77 1.499 . S
C78 C79 1.370 . S
C78 C83 1.415 . S
C79 H68 0.930 . S
C79 C78 1.370 . S
C79 C80 1.407 . S
C80 C79 1.407 . S
C80 C81 1.365 . S
C81 H69 0.930 . S
C81 C80 1.365 . S
C81 C82 1.393 . S
C82 C81 1.393 . S
C82 C83 1.387 . S
C83 H70 0.930 . S
C83 C78 1.415 . S
C83 C82 1.387 . S
H84 C92 0.930 . S
H85 C95 0.930 . S
H86 C97 0.930 . S
H87 C98 0.970 1_554 S
H88 C98 0.970 . S
H89 C100 0.930 . S
H90 C102 0.930 . S
H91 C104 0.930 . S
C92 H84 0.930 . S
C92 C93 1.382 1_554 S
C92 C94 1.426 1_554 S
C93 C92 1.382 1_556 S
C93 C97 1.389 . S
C94 C92 1.426 1_556 S
C94 C95 1.375 . S
C94 C98 1.532 . S
C95 H85 0.930 . S
C95 C94 1.375 . S
C95 C96 1.416 . S
C96 C95 1.416 . S
C96 C97 1.371 . S
C97 H86 0.930 . S
C97 C93 1.389 . S
C97 C96 1.371 . S
C98 H87 0.970 1_556 S
C98 H88 0.970 . S
C98 C94 1.532 . S
C98 C99 1.499 1_545 S
C99 C98 1.499 1_565 S
C99 C100 1.370 1_556 S
C99 C104 1.415 . S
C100 H89 0.930 . S
C100 C99 1.370 1_554 S
C100 C101 1.407 . S
C101 C100 1.407 . S
C101 C102 1.365 . S
C102 H90 0.930 . S
C102 C101 1.365 . S
C102 C103 1.393 1_554 S
C103 C102 1.393 1_556 S
C103 C104 1.387 . S
C104 H91 0.930 . S
C104 C99 1.415 . S
C104 C103 1.387 . S
H105 C113 0.930 . S
H106 C116 0.930 . S
H107 C118 0.930 . S
H108 C119 0.970 . S
H109 C119 0.970 . S
H110 C121 0.930 . S
H111 C123 0.930 . S
H112 C125 0.930 . S
C113 H105 0.930 . S
C113 C114 1.382 . S
C113 C115 1.426 . S
C114 C113 1.382 . S
C114 C118 1.389 . S
C115 C113 1.426 . S
C115 C116 1.375 . S
C115 C119 1.532 . S
C116 H106 0.930 . S
C116 C115 1.375 . S
C116 C117 1.416 . S
C117 C116 1.416 . S
C117 C118 1.371 . S
C118 H107 0.930 . S
C118 C114 1.389 . S
C118 C117 1.371 . S
C119 H108 0.970 . S
C119 H109 0.970 . S
C119 C115 1.532 . S
C119 C120 1.499 . S
C120 C119 1.499 . S
C120 C121 1.370 . S
C120 C125 1.415 . S
C121 H110 0.930 . S
C121 C120 1.370 . S
C121 C122 1.407 . S
C122 C121 1.407 . S
C122 C123 1.365 . S
C123 H111 0.930 . S
C123 C122 1.365 . S
C123 C124 1.393 . S
C124 C123 1.393 . S
C124 C125 1.387 . S
C125 H112 0.930 . S
C125 C120 1.415 . S
C125 C124 1.387 . S
Mg126 O127 2.028 . S
Mg126 O133 1.986 . S
Mg126 O135 2.114 . S
Mg126 O136 2.251 . S
Mg126 O139 2.010 . S
O127 Mg126 2.028 . S
O127 C130 1.250 . S
O128 Mg129 2.028 . S
O128 C130 1.248 . S
Mg129 O128 2.028 . S
Mg129 O134 2.032 . S
Mg129 O136 2.079 . S
C130 O127 1.250 . S
C130 O128 1.248 . S
C131 O132 1.264 . S
C131 O139 1.249 . S
O132 C131 1.264 . S
O133 Mg126 1.986 . S
O133 C137 1.246 . S
O134 Mg129 2.032 . S
O134 C137 1.259 . S
O135 Mg126 2.114 . S
O135 C138 1.252 . S
O136 Mg126 2.251 . S
O136 Mg129 2.079 . S
O136 C138 1.273 . S
C137 O133 1.246 . S
C137 O134 1.259 . S
C138 O135 1.252 . S
C138 O136 1.273 . S
O139 Mg126 2.010 . S
O139 C131 1.249 . S
Mg140 O141 2.028 . S
Mg140 O147 1.986 . S
Mg140 O149 2.114 . S
Mg140 O150 2.251 . S
Mg140 O153 2.010 . S
O141 Mg140 2.028 . S
O141 C144 1.250 . S
O142 Mg143 2.028 . S
O142 C144 1.248 . S
Mg143 O142 2.028 . S
Mg143 O148 2.032 . S
Mg143 O150 2.079 . S
C144 O141 1.250 . S
C144 O142 1.248 . S
C145 O146 1.264 . S
C145 O153 1.249 . S
O146 C145 1.264 . S
O147 Mg140 1.986 . S
O147 C151 1.246 . S
O148 Mg143 2.032 . S
O148 C151 1.259 . S
O149 Mg140 2.114 . S
O149 C152 1.252 . S
O150 Mg140 2.251 . S
O150 Mg143 2.079 . S
O150 C152 1.273 . S
C151 O147 1.246 . S
C151 O148 1.259 . S
C152 O149 1.252 . S
C152 O150 1.273 . S
O153 Mg140 2.010 . S
O153 C145 1.249 . S
Mg154 O155 2.028 . S
Mg154 O161 1.986 . S
Mg154 O163 2.114 . S
Mg154 O164 2.251 . S
Mg154 O167 2.010 . S
O155 Mg154 2.028 . S
O155 C158 1.250 . S
O156 Mg157 2.028 . S
O156 C158 1.248 . S
Mg157 O156 2.028 . S
Mg157 O162 2.032 . S
Mg157 O164 2.079 . S
C158 O155 1.250 . S
C158 O156 1.248 . S
C159 O160 1.264 . S
C159 O167 1.249 . S
O160 C159 1.264 . S
O161 Mg154 1.986 . S
O161 C165 1.246 . S
O162 Mg157 2.032 . S
O162 C165 1.259 . S
O163 Mg154 2.114 . S
O163 C166 1.252 . S
O164 Mg154 2.251 . S
O164 Mg157 2.079 . S
O164 C166 1.273 . S
C165 O161 1.246 . S
C165 O162 1.259 . S
C166 O163 1.252 . S
C166 O164 1.273 . S
O167 Mg154 2.010 . S
O167 C159 1.249 . S
Mg168 O169 2.028 . S
Mg168 O175 1.986 . S
Mg168 O177 2.114 . S
Mg168 O178 2.251 . S
Mg168 O181 2.010 . S
O169 Mg168 2.028 . S
O169 C172 1.250 . S
O170 Mg171 2.028 . S
O170 C172 1.248 . S
Mg171 O170 2.028 . S
Mg171 O176 2.032 . S
Mg171 O178 2.079 . S
C172 O169 1.250 . S
C172 O170 1.248 . S
C173 O174 1.264 . S
C173 O181 1.249 . S
O174 C173 1.264 . S
O175 Mg168 1.986 . S
O175 C179 1.246 . S
O176 Mg171 2.032 . S
O176 C179 1.259 . S
O177 Mg168 2.114 . S
O177 C180 1.252 . S
O178 Mg168 2.251 . S
O178 Mg171 2.079 . S
O178 C180 1.273 . S
C179 O175 1.246 . S
C179 O176 1.259 . S
C180 O177 1.252 . S
C180 O178 1.273 . S
O181 Mg168 2.010 . S
O181 C173 1.249 . S
Mg182 O183 2.028 . S
Mg182 O189 1.986 . S
Mg182 O191 2.114 . S
Mg182 O192 2.251 . S
Mg182 O195 2.010 . S
O183 Mg182 2.028 . S
O183 C186 1.250 . S
O184 Mg185 2.028 . S
O184 C186 1.248 . S
Mg185 O184 2.028 . S
Mg185 O190 2.032 . S
Mg185 O192 2.079 . S
C186 O183 1.250 . S
C186 O184 1.248 . S
C187 O188 1.264 . S
C187 O195 1.249 . S
O188 C187 1.264 . S
O189 Mg182 1.986 . S
O189 C193 1.246 . S
O190 Mg185 2.032 . S
O190 C193 1.259 . S
O191 Mg182 2.114 . S
O191 C194 1.252 . S
O192 Mg182 2.251 . S
O192 Mg185 2.079 . S
O192 C194 1.273 . S
C193 O189 1.246 . S
C193 O190 1.259 . S
C194 O191 1.252 . S
C194 O192 1.273 . S
O195 Mg182 2.010 . S
O195 C187 1.249 . S
Mg196 O197 2.028 . S
Mg196 O203 1.986 . S
Mg196 O205 2.114 . S
Mg196 O206 2.251 . S
Mg196 O209 2.010 . S
O197 Mg196 2.028 . S
O197 C200 1.250 . S
O198 Mg199 2.028 . S
O198 C200 1.248 . S
Mg199 O198 2.028 . S
Mg199 O204 2.032 . S
Mg199 O206 2.079 . S
C200 O197 1.250 . S
C200 O198 1.248 . S
C201 O202 1.264 . S
C201 O209 1.249 . S
O202 C201 1.264 . S
O203 Mg196 1.986 . S
O203 C207 1.246 . S
O204 Mg199 2.032 . S
O204 C207 1.259 . S
O205 Mg196 2.114 . S
O205 C208 1.252 . S
O206 Mg196 2.251 . S
O206 Mg199 2.079 . S
O206 C208 1.273 . S
C207 O203 1.246 . S
C207 O204 1.259 . S
C208 O205 1.252 . S
C208 O206 1.273 . S
O209 Mg196 2.010 . S
O209 C201 1.249 . S
C210 C211 1.391 . S
C210 C212 1.394 . S
C210 H226 0.931 . S
C211 C210 1.391 . S
C211 C215 1.376 . S
C212 C210 1.394 . S
C212 C213 1.369 . S
C212 C216 1.531 . S
C213 C212 1.369 . S
C213 C214 1.410 . S
C213 C221 1.503 . S
C214 C213 1.410 . S
C214 C215 1.392 . S
C214 C217 1.511 . S
C215 C211 1.376 . S
C215 C214 1.392 . S
C215 H227 0.929 . S
C216 C212 1.531 . S
C216 H228 0.960 . S
C216 H229 0.962 . S
C216 H230 0.960 . S
C217 C214 1.511 . S
C217 H231 0.961 . S
C217 H232 0.961 . S
C217 H233 0.961 . S
C218 C219 1.370 . S
C218 C220 1.363 . S
C218 H234 0.931 . S
C219 C218 1.370 . S
C219 C223 1.408 . S
C220 C218 1.363 . S
C220 C221 1.370 . S
C220 C224 1.524 . S
C221 C213 1.503 . S
C221 C220 1.370 . S
C221 C222 1.403 . S
C222 C221 1.403 . S
C222 C223 1.404 . S
C222 C225 1.539 . S
C223 C219 1.408 . S
C223 C222 1.404 . S
C223 H235 0.930 . S
C224 C220 1.524 . S
C224 H236 0.956 . S
C224 H237 0.961 . S
C224 H238 0.961 . S
C225 C222 1.539 . S
C225 H239 0.958 . S
C225 H240 0.961 . S
C225 H241 0.960 . S
H226 C210 0.931 . S
H227 C215 0.929 . S
H228 C216 0.960 . S
H229 C216 0.962 . S
H230 C216 0.960 . S
H231 C217 0.961 . S
H232 C217 0.961 . S
H233 C217 0.961 . S
H234 C218 0.931 . S
H235 C223 0.930 . S
H236 C224 0.956 . S
H237 C224 0.961 . S
H238 C224 0.961 . S
H239 C225 0.958 . S
H240 C225 0.961 . S
H241 C225 0.960 . S
C242 C243 1.391 . S
C242 C244 1.394 . S
C242 H258 0.931 . S
C243 C242 1.391 . S
C243 C247 1.376 . S
C244 C242 1.394 . S
C244 C245 1.369 . S
C244 C248 1.531 . S
C245 C244 1.369 . S
C245 C246 1.410 . S
C245 C253 1.503 . S
C246 C245 1.410 . S
C246 C247 1.392 . S
C246 C249 1.511 . S
C247 C243 1.376 . S
C247 C246 1.392 . S
C247 H259 0.929 . S
C248 C244 1.531 . S
C248 H260 0.960 . S
C248 H261 0.962 . S
C248 H262 0.960 . S
C249 C246 1.511 . S
C249 H263 0.961 . S
C249 H264 0.961 . S
C249 H265 0.961 . S
C250 C251 1.370 . S
C250 C252 1.363 . S
C250 H266 0.931 . S
C251 C250 1.370 . S
C251 C255 1.408 . S
C252 C250 1.363 . S
C252 C253 1.370 . S
C252 C256 1.524 . S
C253 C245 1.503 . S
C253 C252 1.370 . S
C253 C254 1.403 . S
C254 C253 1.403 . S
C254 C255 1.404 . S
C254 C257 1.539 . S
C255 C251 1.408 . S
C255 C254 1.404 . S
C255 H267 0.930 . S
C256 C252 1.524 . S
C256 H268 0.956 . S
C256 H269 0.961 . S
C256 H270 0.961 . S
C257 C254 1.539 . S
C257 H271 0.958 . S
C257 H272 0.961 . S
C257 H273 0.960 . S
H258 C242 0.931 . S
H259 C247 0.929 . S
H260 C248 0.960 . S
H261 C248 0.962 . S
H262 C248 0.960 . S
H263 C249 0.961 . S
H264 C249 0.961 . S
H265 C249 0.961 . S
H266 C250 0.931 . S
H267 C255 0.930 . S
H268 C256 0.956 . S
H269 C256 0.961 . S
H270 C256 0.961 . S
H271 C257 0.958 . S
H272 C257 0.961 . S
H273 C257 0.960 . S
C274 C275 1.391 . S
C274 C276 1.394 . S
C274 H290 0.931 . S
C275 C274 1.391 . S
C275 C279 1.376 . S
C276 C274 1.394 . S
C276 C277 1.369 . S
C276 C280 1.531 . S
C277 C276 1.369 . S
C277 C278 1.410 . S
C277 C285 1.503 . S
C278 C277 1.410 . S
C278 C279 1.392 . S
C278 C281 1.511 . S
C279 C275 1.376 . S
C279 C278 1.392 . S
C279 H291 0.929 . S
C280 C276 1.531 . S
C280 H292 0.960 . S
C280 H293 0.962 . S
C280 H294 0.960 . S
C281 C278 1.511 . S
C281 H295 0.961 . S
C281 H296 0.961 . S
C281 H297 0.961 . S
C282 C283 1.370 . S
C282 C284 1.363 . S
C282 H298 0.931 . S
C283 C282 1.370 . S
C283 C287 1.408 . S
C284 C282 1.363 . S
C284 C285 1.370 . S
C284 C288 1.524 . S
C285 C277 1.503 . S
C285 C284 1.370 . S
C285 C286 1.403 . S
C286 C285 1.403 . S
C286 C287 1.404 . S
C286 C289 1.539 . S
C287 C283 1.408 . S
C287 C286 1.404 . S
C287 H299 0.930 . S
C288 C284 1.524 . S
C288 H300 0.956 . S
C288 H301 0.961 . S
C288 H302 0.961 . S
C289 C286 1.539 . S
C289 H303 0.958 . S
C289 H304 0.961 . S
C289 H305 0.960 . S
H290 C274 0.931 . S
H291 C279 0.929 . S
H292 C280 0.960 . S
H293 C280 0.962 . S
H294 C280 0.960 . S
H295 C281 0.961 . S
H296 C281 0.961 . S
H297 C281 0.961 . S
H298 C282 0.931 . S
H299 C287 0.930 . S
H300 C288 0.956 . S
H301 C288 0.961 . S
H302 C288 0.961 . S
H303 C289 0.958 . S
H304 C289 0.961 . S
H305 C289 0.960 . S
C306 C307 1.391 . S
C306 C308 1.394 . S
C306 H322 0.931 . S
C307 C306 1.391 . S
C307 C311 1.376 . S
C308 C306 1.394 . S
C308 C309 1.369 . S
C308 C312 1.531 . S
C309 C308 1.369 . S
C309 C310 1.410 . S
C309 C317 1.503 . S
C310 C309 1.410 . S
C310 C311 1.392 . S
C310 C313 1.511 . S
C311 C307 1.376 . S
C311 C310 1.392 . S
C311 H323 0.929 . S
C312 C308 1.531 . S
C312 H324 0.960 . S
C312 H325 0.962 . S
C312 H326 0.960 . S
C313 C310 1.511 . S
C313 H327 0.961 . S
C313 H328 0.961 . S
C313 H329 0.961 . S
C314 C315 1.370 . S
C314 C316 1.363 . S
C314 H330 0.931 . S
C315 C314 1.370 . S
C315 C319 1.408 . S
C316 C314 1.363 . S
C316 C317 1.370 . S
C316 C320 1.524 . S
C317 C309 1.503 . S
C317 C316 1.370 . S
C317 C318 1.403 . S
C318 C317 1.403 . S
C318 C319 1.404 . S
C318 C321 1.539 . S
C319 C315 1.408 . S
C319 C318 1.404 . S
C319 H331 0.930 . S
C320 C316 1.524 . S
C320 H332 0.956 . S
C320 H333 0.961 . S
C320 H334 0.961 . S
C321 C318 1.539 . S
C321 H335 0.958 . S
C321 H336 0.961 . S
C321 H337 0.960 . S
H322 C306 0.931 . S
H323 C311 0.929 . S
H324 C312 0.960 . S
H325 C312 0.962 . S
H326 C312 0.960 . S
H327 C313 0.961 . S
H328 C313 0.961 . S
H329 C313 0.961 . S
H330 C314 0.931 . S
H331 C319 0.930 . S
H332 C320 0.956 . S
H333 C320 0.961 . S
H334 C320 0.961 . S
H335 C321 0.958 . S
H336 C321 0.961 . S
H337 C321 0.960 . S
C338 C339 1.391 . S
C338 C340 1.394 . S
C338 H354 0.931 . S
C339 C338 1.391 . S
C339 C343 1.376 . S
C340 C338 1.394 . S
C340 C341 1.369 . S
C340 C344 1.531 . S
C341 C340 1.369 . S
C341 C342 1.410 . S
C341 C349 1.503 . S
C342 C341 1.410 . S
C342 C343 1.392 . S
C342 C345 1.511 . S
C343 C339 1.376 . S
C343 C342 1.392 . S
C343 H355 0.929 . S
C344 C340 1.531 . S
C344 H356 0.960 . S
C344 H357 0.962 . S
C344 H358 0.960 . S
C345 C342 1.511 . S
C345 H359 0.961 . S
C345 H360 0.961 . S
C345 H361 0.961 . S
C346 C347 1.370 . S
C346 C348 1.363 . S
C346 H362 0.931 . S
C347 C346 1.370 . S
C347 C351 1.408 . S
C348 C346 1.363 . S
C348 C349 1.370 . S
C348 C352 1.524 . S
C349 C341 1.503 . S
C349 C348 1.370 . S
C349 C350 1.403 . S
C350 C349 1.403 . S
C350 C351 1.404 . S
C350 C353 1.539 . S
C351 C347 1.408 . S
C351 C350 1.404 . S
C351 H363 0.930 . S
C352 C348 1.524 . S
C352 H364 0.956 . S
C352 H365 0.961 . S
C352 H366 0.961 . S
C353 C350 1.539 . S
C353 H367 0.958 . S
C353 H368 0.961 . S
C353 H369 0.960 . S
H354 C338 0.931 . S
H355 C343 0.929 . S
H356 C344 0.960 . S
H357 C344 0.962 . S
H358 C344 0.960 . S
H359 C345 0.961 . S
H360 C345 0.961 . S
H361 C345 0.961 . S
H362 C346 0.931 . S
H363 C351 0.930 . S
H364 C352 0.956 . S
H365 C352 0.961 . S
H366 C352 0.961 . S
H367 C353 0.958 . S
H368 C353 0.961 . S
H369 C353 0.960 . S
C370 C371 1.391 . S
C370 C372 1.394 . S
C370 H386 0.931 . S
C371 C370 1.391 . S
C371 C375 1.376 . S
C372 C370 1.394 . S
C372 C373 1.369 . S
C372 C376 1.531 . S
C373 C372 1.369 . S
C373 C374 1.410 . S
C373 C381 1.503 . S
C374 C373 1.410 . S
C374 C375 1.392 . S
C374 C377 1.511 . S
C375 C371 1.376 . S
C375 C374 1.392 . S
C375 H387 0.929 . S
C376 C372 1.531 . S
C376 H388 0.960 . S
C376 H389 0.962 . S
C376 H390 0.960 . S
C377 C374 1.511 . S
C377 H391 0.961 . S
C377 H392 0.961 . S
C377 H393 0.961 . S
C378 C379 1.370 . S
C378 C380 1.363 . S
C378 H394 0.931 . S
C379 C378 1.370 . S
C379 C383 1.408 . S
C380 C378 1.363 . S
C380 C381 1.370 . S
C380 C384 1.524 . S
C381 C373 1.503 . S
C381 C380 1.370 . S
C381 C382 1.403 . S
C382 C381 1.403 . S
C382 C383 1.404 . S
C382 C385 1.539 . S
C383 C379 1.408 . S
C383 C382 1.404 . S
C383 H395 0.930 . S
C384 C380 1.524 . S
C384 H396 0.956 . S
C384 H397 0.961 . S
C384 H398 0.961 . S
C385 C382 1.539 . S
C385 H399 0.958 . S
C385 H400 0.961 . S
C385 H401 0.960 . S
H386 C370 0.931 . S
H387 C375 0.929 . S
H388 C376 0.960 . S
H389 C376 0.962 . S
H390 C376 0.960 . S
H391 C377 0.961 . S
H392 C377 0.961 . S
H393 C377 0.961 . S
H394 C378 0.931 . S
H395 C383 0.930 . S
H396 C384 0.956 . S
H397 C384 0.961 . S
H398 C384 0.961 . S
H399 C385 0.958 . S
H400 C385 0.961 . S
H401 C385 0.960 . S
C402 C403 1.391 . S
C402 C404 1.394 . S
C402 H418 0.931 . S
C403 C402 1.391 . S
C403 C407 1.376 . S
C404 C402 1.394 . S
C404 C405 1.369 . S
C404 C408 1.531 . S
C405 C404 1.369 . S
C405 C406 1.410 . S
C405 C413 1.503 . S
C406 C405 1.410 . S
C406 C407 1.392 . S
C406 C409 1.511 . S
C407 C403 1.376 . S
C407 C406 1.392 . S
C407 H419 0.929 . S
C408 C404 1.531 . S
C408 H420 0.960 . S
C408 H421 0.962 . S
C408 H422 0.960 . S
C409 C406 1.511 . S
C409 H423 0.961 . S
C409 H424 0.961 . S
C409 H425 0.961 . S
C410 C411 1.370 . S
C410 C412 1.363 . S
C410 H426 0.931 . S
C411 C410 1.370 . S
C411 C415 1.408 . S
C412 C410 1.363 . S
C412 C413 1.370 . S
C412 C416 1.524 . S
C413 C405 1.503 . S
C413 C412 1.370 . S
C413 C414 1.403 . S
C414 C413 1.403 . S
C414 C415 1.404 . S
C414 C417 1.539 . S
C415 C411 1.408 . S
C415 C414 1.404 . S
C415 H427 0.930 . S
C416 C412 1.524 . S
C416 H428 0.956 . S
C416 H429 0.961 . S
C416 H430 0.961 . S
C417 C414 1.539 . S
C417 H431 0.958 . S
C417 H432 0.961 . S
C417 H433 0.960 . S
H418 C402 0.931 . S
H419 C407 0.929 . S
H420 C408 0.960 . S
H421 C408 0.962 . S
H422 C408 0.960 . S
H423 C409 0.961 . S
H424 C409 0.961 . S
H425 C409 0.961 . S
H426 C410 0.931 . S
H427 C415 0.930 . S
H428 C416 0.956 . S
H429 C416 0.961 . S
H430 C416 0.961 . S
H431 C417 0.958 . S
H432 C417 0.961 . S
H433 C417 0.960 . S
C434 C435 1.391 . S
C434 C436 1.394 . S
C434 H450 0.931 . S
C435 C434 1.391 . S
C435 C439 1.376 . S
C436 C434 1.394 . S
C436 C437 1.369 . S
C436 C440 1.531 . S
C437 C436 1.369 . S
C437 C438 1.410 . S
C437 C445 1.503 . S
C438 C437 1.410 . S
C438 C439 1.392 . S
C438 C441 1.511 . S
C439 C435 1.376 . S
C439 C438 1.392 . S
C439 H451 0.929 . S
C440 C436 1.531 . S
C440 H452 0.960 . S
C440 H453 0.962 . S
C440 H454 0.960 . S
C441 C438 1.511 . S
C441 H455 0.961 . S
C441 H456 0.961 . S
C441 H457 0.961 . S
C442 C443 1.370 . S
C442 C444 1.363 . S
C442 H458 0.931 . S
C443 C442 1.370 . S
C443 C447 1.408 . S
C444 C442 1.363 . S
C444 C445 1.370 . S
C444 C448 1.524 . S
C445 C437 1.503 . S
C445 C444 1.370 . S
C445 C446 1.403 . S
C446 C445 1.403 . S
C446 C447 1.404 . S
C446 C449 1.539 . S
C447 C443 1.408 . S
C447 C446 1.404 . S
C447 H459 0.930 . S
C448 C444 1.524 . S
C448 H460 0.956 . S
C448 H461 0.961 . S
C448 H462 0.961 . S
C449 C446 1.539 . S
C449 H463 0.958 . S
C449 H464 0.961 . S
C449 H465 0.960 . S
H450 C434 0.931 . S
H451 C439 0.929 . S
H452 C440 0.960 . S
H453 C440 0.962 . S
H454 C440 0.960 . S
H455 C441 0.961 . S
H456 C441 0.961 . S
H457 C441 0.961 . S
H458 C442 0.931 . S
H459 C447 0.930 . S
H460 C448 0.956 . S
H461 C448 0.961 . S
H462 C448 0.961 . S
H463 C449 0.958 . S
H464 C449 0.961 . S
H465 C449 0.960 . S
C466 C467 1.391 . S
C466 C468 1.394 . S
C466 H482 0.931 . S
C467 C466 1.391 . S
C467 C471 1.376 . S
C468 C466 1.394 . S
C468 C469 1.369 . S
C468 C472 1.531 . S
C469 C468 1.369 . S
C469 C470 1.410 . S
C469 C477 1.503 . S
C470 C469 1.410 . S
C470 C471 1.392 . S
C470 C473 1.511 . S
C471 C467 1.376 . S
C471 C470 1.392 . S
C471 H483 0.929 . S
C472 C468 1.531 . S
C472 H484 0.960 . S
C472 H485 0.962 . S
C472 H486 0.960 . S
C473 C470 1.511 . S
C473 H487 0.961 . S
C473 H488 0.961 . S
C473 H489 0.961 . S
C474 C475 1.370 . S
C474 C476 1.363 . S
C474 H490 0.931 . S
C475 C474 1.370 . S
C475 C479 1.408 . S
C476 C474 1.363 . S
C476 C477 1.370 . S
C476 C480 1.524 . S
C477 C469 1.503 . S
C477 C476 1.370 . S
C477 C478 1.403 . S
C478 C477 1.403 . S
C478 C479 1.404 . S
C478 C481 1.539 . S
C479 C475 1.408 . S
C479 C478 1.404 . S
C479 H491 0.930 . S
C480 C476 1.524 . S
C480 H492 0.956 . S
C480 H493 0.961 . S
C480 H494 0.961 . S
C481 C478 1.539 . S
C481 H495 0.958 . S
C481 H496 0.961 . S
C481 H497 0.960 . S
H482 C466 0.931 . S
H483 C471 0.929 . S
H484 C472 0.960 . S
H485 C472 0.962 . S
H486 C472 0.960 . S
H487 C473 0.961 . S
H488 C473 0.961 . S
H489 C473 0.961 . S
H490 C474 0.931 . S
H491 C479 0.930 . S
H492 C480 0.956 . S
H493 C480 0.961 . S
H494 C480 0.961 . S
H495 C481 0.958 . S
H496 C481 0.961 . S
H497 C481 0.960 . S
C498 C499 1.391 . S
C498 C500 1.394 . S
C498 H514 0.931 . S
C499 C498 1.391 . S
C499 C503 1.376 . S
C500 C498 1.394 . S
C500 C501 1.369 . S
C500 C504 1.531 . S
C501 C500 1.369 . S
C501 C502 1.410 . S
C501 C509 1.503 . S
C502 C501 1.410 . S
C502 C503 1.392 . S
C502 C505 1.511 . S
C503 C499 1.376 . S
C503 C502 1.392 . S
C503 H515 0.929 1_554 S
C504 C500 1.531 . S
C504 H516 0.960 . S
C504 H517 0.962 . S
C504 H518 0.960 . S
C505 C502 1.511 . S
C505 H519 0.961 1_554 S
C505 H520 0.963 . S
C505 H521 0.961 . S
C506 C507 1.370 . S
C506 C508 1.363 . S
C506 H522 0.931 . S
C507 C506 1.370 . S
C507 C511 1.408 . S
C508 C506 1.363 . S
C508 C509 1.370 . S
C508 C512 1.524 1_554 S
C509 C501 1.503 . S
C509 C508 1.370 . S
C509 C510 1.403 . S
C510 C509 1.403 . S
C510 C511 1.404 . S
C510 C513 1.539 . S
C511 C507 1.408 . S
C511 C510 1.404 . S
C511 H523 0.930 . S
C512 C508 1.524 1_556 S
C512 H524 0.956 1_556 S
C512 H525 0.961 . S
C512 H526 0.961 . S
C513 C510 1.539 . S
C513 H527 0.958 . S
C513 H528 0.961 . S
C513 H529 0.960 . S
H514 C498 0.931 . S
H515 C503 0.929 1_556 S
H516 C504 0.960 . S
H517 C504 0.962 . S
H518 C504 0.960 . S
H519 C505 0.961 1_556 S
H520 C505 0.963 . S
H521 C505 0.961 . S
H522 C506 0.931 . S
H523 C511 0.930 . S
H524 C512 0.956 1_554 S
H525 C512 0.961 . S
H526 C512 0.961 . S
H527 C513 0.958 . S
H528 C513 0.961 . S
H529 C513 0.960 . S
C530 C531 1.391 . S
C530 C532 1.394 . S
C530 H546 0.931 . S
C531 C530 1.391 . S
C531 C535 1.376 . S
C532 C530 1.394 . S
C532 C533 1.369 . S
C532 C536 1.531 . S
C533 C532 1.369 . S
C533 C534 1.410 . S
C533 C541 1.503 . S
C534 C533 1.410 . S
C534 C535 1.392 . S
C534 C537 1.511 . S
C535 C531 1.376 . S
C535 C534 1.392 . S
C535 H547 0.929 . S
C536 C532 1.531 . S
C536 H548 0.960 . S
C536 H549 0.962 . S
C536 H550 0.960 . S
C537 C534 1.511 . S
C537 H551 0.961 . S
C537 H552 0.961 . S
C537 H553 0.961 . S
C538 C539 1.370 . S
C538 C540 1.363 . S
C538 H554 0.931 . S
C539 C538 1.370 . S
C539 C543 1.408 . S
C540 C538 1.363 . S
C540 C541 1.370 . S
C540 C544 1.524 . S
C541 C533 1.503 . S
C541 C540 1.370 . S
C541 C542 1.403 . S
C542 C541 1.403 . S
C542 C543 1.404 . S
C542 C545 1.539 . S
C543 C539 1.408 . S
C543 C542 1.404 . S
C543 H555 0.930 . S
C544 C540 1.524 . S
C544 H556 0.956 . S
C544 H557 0.961 . S
C544 H558 0.961 . S
C545 C542 1.539 . S
C545 H559 0.958 . S
C545 H560 0.961 . S
C545 H561 0.960 . S
H546 C530 0.931 . S
H547 C535 0.929 . S
H548 C536 0.960 . S
H549 C536 0.962 . S
H550 C536 0.960 . S
H551 C537 0.961 . S
H552 C537 0.961 . S
H553 C537 0.961 . S
H554 C538 0.931 . S
H555 C543 0.930 . S
H556 C544 0.956 . S
H557 C544 0.961 . S
H558 C544 0.961 . S
H559 C545 0.958 . S
H560 C545 0.961 . S
H561 C545 0.960 . S
C562 C563 1.391 . S
C562 C564 1.394 . S
C562 H578 0.931 . S
C563 C562 1.391 . S
C563 C567 1.376 . S
C564 C562 1.394 . S
C564 C565 1.369 . S
C564 C568 1.531 . S
C565 C564 1.369 . S
C565 C566 1.410 . S
C565 C573 1.503 . S
C566 C565 1.410 . S
C566 C567 1.392 . S
C566 C569 1.511 . S
C567 C563 1.376 . S
C567 C566 1.392 . S
C567 H579 0.929 . S
C568 C564 1.531 . S
C568 H580 0.960 . S
C568 H581 0.962 . S
C568 H582 0.960 . S
C569 C566 1.511 . S
C569 H583 0.961 . S
C569 H584 0.961 . S
C569 H585 0.961 . S
C570 C571 1.370 . S
C570 C572 1.363 . S
C570 H586 0.931 . S
C571 C570 1.370 . S
C571 C575 1.408 . S
C572 C570 1.363 . S
C572 C573 1.370 . S
C572 C576 1.524 . S
C573 C565 1.503 . S
C573 C572 1.370 . S
C573 C574 1.403 . S
C574 C573 1.403 . S
C574 C575 1.404 . S
C574 C577 1.539 . S
C575 C571 1.408 . S
C575 C574 1.404 . S
C575 H587 0.930 . S
C576 C572 1.524 . S
C576 H588 0.956 . S
C576 H589 0.961 . S
C576 H590 0.961 . S
C577 C574 1.539 . S
C577 H591 0.958 . S
C577 H592 0.961 . S
C577 H593 0.960 . S
H578 C562 0.931 . S
H579 C567 0.929 . S
H580 C568 0.960 . S
H581 C568 0.962 . S
H582 C568 0.960 . S
H583 C569 0.961 . S
H584 C569 0.961 . S
H585 C569 0.961 . S
H586 C570 0.931 . S
H587 C575 0.930 . S
H588 C576 0.956 . S
H589 C576 0.961 . S
H590 C576 0.961 . S
H591 C577 0.958 . S
H592 C577 0.961 . S
H593 C577 0.960 . S
C594 C595 1.391 . S
C594 C596 1.394 . S
C594 H610 0.931 . S
C595 C594 1.391 . S
C595 C599 1.376 . S
C596 C594 1.394 . S
C596 C597 1.369 . S
C596 C600 1.531 . S
C597 C596 1.369 . S
C597 C598 1.410 . S
C597 C605 1.503 . S
C598 C597 1.410 . S
C598 C599 1.392 . S
C598 C601 1.511 . S
C599 C595 1.376 . S
C599 C598 1.392 . S
C599 H611 0.929 . S
C600 C596 1.531 . S
C600 H612 0.960 . S
C600 H613 0.962 . S
C600 H614 0.960 . S
C601 C598 1.511 . S
C601 H615 0.961 . S
C601 H616 0.961 . S
C601 H617 0.961 . S
C602 C603 1.370 . S
C602 C604 1.363 . S
C602 H618 0.931 . S
C603 C602 1.370 . S
C603 C607 1.408 . S
C604 C602 1.363 . S
C604 C605 1.370 . S
C604 C608 1.524 . S
C605 C597 1.503 . S
C605 C604 1.370 . S
C605 C606 1.403 . S
C606 C605 1.403 . S
C606 C607 1.404 . S
C606 C609 1.539 . S
C607 C603 1.408 . S
C607 C606 1.404 . S
C607 H619 0.930 . S
C608 C604 1.524 . S
C608 H620 0.956 . S
C608 H621 0.961 . S
C608 H622 0.961 . S
C609 C606 1.539 . S
C609 H623 0.958 . S
C609 H624 0.961 . S
C609 H625 0.960 . S
H610 C594 0.931 . S
H611 C599 0.929 . S
H612 C600 0.960 . S
H613 C600 0.962 . S
H614 C600 0.960 . S
H615 C601 0.961 . S
H616 C601 0.961 . S
H617 C601 0.961 . S
H618 C602 0.931 . S
H619 C607 0.930 . S
H620 C608 0.956 . S
H621 C608 0.961 . S
H622 C608 0.961 . S
H623 C609 0.958 . S
H624 C609 0.961 . S
H625 C609 0.960 . S
C626 C627 1.391 . S
C626 C628 1.394 . S
C626 H642 0.931 . S
C627 C626 1.391 . S
C627 C631 1.376 . S
C628 C626 1.394 . S
C628 C629 1.369 . S
C628 C632 1.531 . S
C629 C628 1.369 . S
C629 C630 1.410 . S
C629 C637 1.503 . S
C630 C629 1.410 . S
C630 C631 1.392 . S
C630 C633 1.511 . S
C631 C627 1.376 . S
C631 C630 1.392 . S
C631 H643 0.929 . S
C632 C628 1.531 . S
C632 H644 0.960 . S
C632 H645 0.962 . S
C632 H646 0.960 . S
C633 C630 1.511 . S
C633 H647 0.961 . S
C633 H648 0.961 . S
C633 H649 0.961 . S
C634 C635 1.370 . S
C634 C636 1.363 . S
C634 H650 0.931 . S
C635 C634 1.370 . S
C635 C639 1.408 . S
C636 C634 1.363 . S
C636 C637 1.370 . S
C636 C640 1.524 . S
C637 C629 1.503 . S
C637 C636 1.370 . S
C637 C638 1.403 . S
C638 C637 1.403 . S
C638 C639 1.404 . S
C638 C641 1.539 . S
C639 C635 1.408 . S
C639 C638 1.404 . S
C639 H651 0.930 . S
C640 C636 1.524 . S
C640 H652 0.956 . S
C640 H653 0.961 . S
C640 H654 0.961 . S
C641 C638 1.539 . S
C641 H655 0.958 . S
C641 H656 0.961 . S
C641 H657 0.960 . S
H642 C626 0.931 . S
H643 C631 0.929 . S
H644 C632 0.960 . S
H645 C632 0.962 . S
H646 C632 0.960 . S
H647 C633 0.961 . S
H648 C633 0.961 . S
H649 C633 0.961 . S
H650 C634 0.931 . S
H651 C639 0.930 . S
H652 C640 0.956 . S
H653 C640 0.961 . S
H654 C640 0.961 . S
H655 C641 0.958 . S
H656 C641 0.961 . S
H657 C641 0.960 . S
C658 C659 1.391 . S
C658 C660 1.394 . S
C658 H674 0.931 . S
C659 C658 1.391 . S
C659 C663 1.376 . S
C660 C658 1.394 . S
C660 C661 1.369 . S
C660 C664 1.531 . S
C661 C660 1.369 . S
C661 C662 1.410 . S
C661 C669 1.503 . S
C662 C661 1.410 . S
C662 C663 1.392 . S
C662 C665 1.511 . S
C663 C659 1.376 . S
C663 C662 1.392 . S
C663 H675 0.929 . S
C664 C660 1.531 . S
C664 H676 0.960 . S
C664 H677 0.962 . S
C664 H678 0.960 . S
C665 C662 1.511 . S
C665 H679 0.961 . S
C665 H680 0.961 . S
C665 H681 0.961 . S
C666 C667 1.370 . S
C666 C668 1.363 . S
C666 H682 0.931 . S
C667 C666 1.370 . S
C667 C671 1.408 . S
C668 C666 1.363 . S
C668 C669 1.370 . S
C668 C672 1.524 . S
C669 C661 1.503 . S
C669 C668 1.370 . S
C669 C670 1.403 . S
C670 C669 1.403 . S
C670 C671 1.404 . S
C670 C673 1.539 . S
C671 C667 1.408 . S
C671 C670 1.404 . S
C671 H683 0.930 . S
C672 C668 1.524 . S
C672 H684 0.956 . S
C672 H685 0.961 . S
C672 H686 0.961 . S
C673 C670 1.539 . S
C673 H687 0.958 . S
C673 H688 0.961 . S
C673 H689 0.960 . S
H674 C658 0.931 . S
H675 C663 0.929 . S
H676 C664 0.960 . S
H677 C664 0.962 . S
H678 C664 0.960 . S
H679 C665 0.961 . S
H680 C665 0.961 . S
H681 C665 0.961 . S
H682 C666 0.931 . S
H683 C671 0.930 . S
H684 C672 0.956 . S
H685 C672 0.961 . S
H686 C672 0.961 . S
H687 C673 0.958 . S
H688 C673 0.961 . S
H689 C673 0.960 . S
C690 C691 1.391 . S
C690 C692 1.394 . S
C690 H706 0.931 . S
C691 C690 1.391 . S
C691 C695 1.376 . S
C692 C690 1.394 . S
C692 C693 1.369 . S
C692 C696 1.531 . S
C693 C692 1.369 . S
C693 C694 1.410 . S
C693 C701 1.503 . S
C694 C693 1.410 . S
C694 C695 1.392 . S
C694 C697 1.511 . S
C695 C691 1.376 . S
C695 C694 1.392 . S
C695 H707 0.929 . S
C696 C692 1.531 . S
C696 H708 0.960 . S
C696 H709 0.962 . S
C696 H710 0.960 . S
C697 C694 1.511 . S
C697 H711 0.961 . S
C697 H712 0.961 . S
C697 H713 0.961 . S
C698 C699 1.372 . S
C698 C700 1.379 . S
C698 H714 0.913 1_556 S
C699 C698 1.372 . S
C699 C703 1.408 . S
C700 C698 1.379 . S
C700 C701 1.370 . S
C700 C704 1.524 . S
C701 C693 1.503 . S
C701 C700 1.370 . S
C701 C702 1.403 . S
C702 C701 1.403 . S
C702 C703 1.404 . S
C702 C705 1.539 . S
C703 C699 1.408 . S
C703 C702 1.404 . S
C703 H715 0.930 . S
C704 C700 1.524 . S
C704 H716 0.956 . S
C704 H717 0.961 . S
C704 H718 0.961 . S
C705 C702 1.539 . S
C705 H719 0.958 . S
C705 H720 0.961 . S
C705 H721 0.960 . S
H706 C690 0.931 . S
H707 C695 0.929 . S
H708 C696 0.960 . S
H709 C696 0.962 . S
H710 C696 0.960 . S
H711 C697 0.961 . S
H712 C697 0.961 . S
H713 C697 0.961 . S
H714 C698 0.913 1_554 S
H715 C703 0.930 . S
H716 C704 0.956 . S
H717 C704 0.961 . S
H718 C704 0.961 . S
H719 C705 0.958 . S
H720 C705 0.961 . S
H721 C705 0.960 . S
C722 C723 1.391 . S
C722 C724 1.394 . S
C722 H738 0.931 . S
C723 C722 1.391 . S
C723 C727 1.376 . S
C724 C722 1.394 . S
C724 C725 1.369 . S
C724 C728 1.531 . S
C725 C724 1.369 . S
C725 C726 1.410 . S
C725 C733 1.503 . S
C726 C725 1.410 . S
C726 C727 1.392 . S
C726 C729 1.511 . S
C727 C723 1.376 . S
C727 C726 1.392 . S
C727 H739 0.929 . S
C728 C724 1.531 . S
C728 H740 0.960 . S
C728 H741 0.962 . S
C728 H742 0.960 . S
C729 C726 1.511 . S
C729 H743 0.961 . S
C729 H744 0.961 . S
C729 H745 0.961 . S
C730 C731 1.370 . S
C730 C732 1.363 . S
C730 H746 0.931 . S
C731 C730 1.370 . S
C731 C735 1.408 . S
C732 C730 1.363 . S
C732 C733 1.370 . S
C732 C736 1.524 . S
C733 C725 1.503 . S
C733 C732 1.370 . S
C733 C734 1.403 . S
C734 C733 1.403 . S
C734 C735 1.404 . S
C734 C737 1.539 . S
C735 C731 1.408 . S
C735 C734 1.404 . S
C735 H747 0.930 . S
C736 C732 1.524 . S
C736 H748 0.956 . S
C736 H749 0.961 . S
C736 H750 0.961 . S
C737 C734 1.539 . S
C737 H751 0.958 . S
C737 H752 0.961 . S
C737 H753 0.960 . S
H738 C722 0.931 . S
H739 C727 0.929 . S
H740 C728 0.960 . S
H741 C728 0.962 . S
H742 C728 0.960 . S
H743 C729 0.961 . S
H744 C729 0.961 . S
H745 C729 0.961 . S
H746 C730 0.931 . S
H747 C735 0.930 . S
H748 C736 0.956 . S
H749 C736 0.961 . S
H750 C736 0.961 . S
H751 C737 0.958 . S
H752 C737 0.961 . S
H753 C737 0.960 . S
C754 C755 1.391 . S
C754 C756 1.394 . S
C754 H770 0.931 . S
C755 C754 1.391 . S
C755 C759 1.376 . S
C756 C754 1.394 . S
C756 C757 1.369 . S
C756 C760 1.531 . S
C757 C756 1.369 . S
C757 C758 1.410 . S
C757 C765 1.503 . S
C758 C757 1.410 . S
C758 C759 1.392 . S
C758 C761 1.511 . S
C759 C755 1.376 . S
C759 C758 1.392 . S
C759 H771 0.929 . S
C760 C756 1.531 . S
C760 H772 0.960 . S
C760 H773 0.962 . S
C760 H774 0.960 . S
C761 C758 1.511 . S
C761 H775 0.961 . S
C761 H776 0.961 . S
C761 H777 0.961 . S
C762 C763 1.370 . S
C762 C764 1.363 . S
C762 H778 0.931 . S
C763 C762 1.370 . S
C763 C767 1.408 . S
C764 C762 1.363 . S
C764 C765 1.370 . S
C764 C768 1.524 . S
C765 C757 1.503 . S
C765 C764 1.370 . S
C765 C766 1.403 . S
C766 C765 1.403 . S
C766 C767 1.404 . S
C766 C769 1.539 . S
C767 C763 1.408 . S
C767 C766 1.404 . S
C767 H779 0.930 . S
C768 C764 1.524 . S
C768 H780 0.956 . S
C768 H781 0.961 . S
C768 H782 0.961 . S
C769 C766 1.539 . S
C769 H783 0.958 . S
C769 H784 0.961 . S
C769 H785 0.960 . S
H770 C754 0.931 . S
H771 C759 0.929 . S
H772 C760 0.960 . S
H773 C760 0.962 . S
H774 C760 0.960 . S
H775 C761 0.961 . S
H776 C761 0.961 . S
H777 C761 0.961 . S
H778 C762 0.931 . S
H779 C767 0.930 . S
H780 C768 0.956 . S
H781 C768 0.961 . S
H782 C768 0.961 . S
H783 C769 0.958 . S
H784 C769 0.961 . S
H785 C769 0.960 . S
C786 C787 1.391 . S
C786 C788 1.394 . S
C786 H802 0.931 . S
C787 C786 1.391 . S
C787 C791 1.376 . S
C788 C786 1.394 . S
C788 C789 1.369 . S
C788 C792 1.531 . S
C789 C788 1.369 . S
C789 C790 1.410 . S
C789 C797 1.503 . S
C790 C789 1.410 . S
C790 C791 1.392 . S
C790 C793 1.511 . S
C791 C787 1.376 . S
C791 C790 1.392 . S
C791 H803 0.929 . S
C792 C788 1.531 . S
C792 H804 0.960 . S
C792 H805 0.962 . S
C792 H806 0.960 . S
C793 C790 1.511 . S
C793 H807 0.961 . S
C793 H808 0.961 . S
C793 H809 0.961 . S
C794 C795 1.370 . S
C794 C796 1.363 . S
C794 H810 0.931 . S
C795 C794 1.370 . S
C795 C799 1.408 . S
C796 C794 1.363 . S
C796 C797 1.370 . S
C796 C800 1.524 . S
C797 C789 1.503 . S
C797 C796 1.370 . S
C797 C798 1.403 . S
C798 C797 1.403 . S
C798 C799 1.404 . S
C798 C801 1.539 . S
C799 C795 1.408 . S
C799 C798 1.404 . S
C799 H811 0.930 . S
C800 C796 1.524 . S
C800 H812 0.956 . S
C800 H813 0.961 . S
C800 H814 0.961 . S
C801 C798 1.539 . S
C801 H815 0.958 . S
C801 H816 0.961 . S
C801 H817 0.960 . S
H802 C786 0.931 . S
H803 C791 0.929 . S
H804 C792 0.960 . S
H805 C792 0.962 . S
H806 C792 0.960 . S
H807 C793 0.961 . S
H808 C793 0.961 . S
H809 C793 0.961 . S
H810 C794 0.931 . S
H811 C799 0.930 . S
H812 C800 0.956 . S
H813 C800 0.961 . S
H814 C800 0.961 . S
H815 C801 0.958 . S
H816 C801 0.961 . S
H817 C801 0.960 . S
C818 C819 1.391 . S
C818 C820 1.394 . S
C818 H834 0.931 . S
C819 C818 1.391 . S
C819 C823 1.376 . S
C820 C818 1.394 . S
C820 C821 1.369 . S
C820 C824 1.531 . S
C821 C820 1.369 . S
C821 C822 1.410 . S
C821 C829 1.503 . S
C822 C821 1.410 . S
C822 C823 1.392 . S
C822 C825 1.511 . S
C823 C819 1.376 . S
C823 C822 1.392 . S
C823 H835 0.929 . S
C824 C820 1.531 . S
C824 H836 0.960 . S
C824 H837 0.962 . S
C824 H838 0.960 . S
C825 C822 1.511 . S
C825 H839 0.961 . S
C825 H840 0.961 . S
C825 H841 0.961 . S
C826 C827 1.370 . S
C826 C828 1.363 . S
C826 H842 0.931 . S
C827 C826 1.370 . S
C827 C831 1.408 . S
C828 C826 1.363 . S
C828 C829 1.370 . S
C828 C832 1.524 . S
C829 C821 1.503 . S
C829 C828 1.370 . S
C829 C830 1.403 . S
C830 C829 1.403 . S
C830 C831 1.404 . S
C830 C833 1.539 . S
C831 C827 1.408 . S
C831 C830 1.404 . S
C831 H843 0.930 . S
C832 C828 1.524 . S
C832 H844 0.956 . S
C832 H845 0.961 . S
C832 H846 0.961 . S
C833 C830 1.539 . S
C833 H847 0.958 . S
C833 H848 0.961 . S
C833 H849 0.960 . S
H834 C818 0.931 . S
H835 C823 0.929 . S
H836 C824 0.960 . S
H837 C824 0.962 . S
H838 C824 0.960 . S
H839 C825 0.961 . S
H840 C825 0.961 . S
H841 C825 0.961 . S
H842 C826 0.931 . S
H843 C831 0.930 . S
H844 C832 0.956 . S
H845 C832 0.961 . S
H846 C832 0.961 . S
H847 C833 0.958 . S
H848 C833 0.961 . S
H849 C833 0.960 . S
C850 C851 1.391 . S
C850 C852 1.394 . S
C850 H866 0.931 . S
C851 C850 1.391 . S
C851 C855 1.376 . S
C852 C850 1.394 . S
C852 C853 1.369 . S
C852 C856 1.531 . S
C853 C852 1.369 . S
C853 C854 1.410 . S
C853 C861 1.503 . S
C854 C853 1.410 . S
C854 C855 1.392 . S
C854 C857 1.511 . S
C855 C851 1.376 . S
C855 C854 1.392 . S
C855 H867 0.929 . S
C856 C852 1.531 . S
C856 H868 0.960 . S
C856 H869 0.962 . S
C856 H870 0.960 . S
C857 C854 1.511 . S
C857 H871 0.961 . S
C857 H872 0.961 . S
C857 H873 0.961 . S
C858 C859 1.370 . S
C858 C860 1.363 . S
C858 H874 0.931 . S
C859 C858 1.370 . S
C859 C863 1.408 . S
C860 C858 1.363 . S
C860 C861 1.370 . S
C860 C864 1.524 . S
C861 C853 1.503 . S
C861 C860 1.370 . S
C861 C862 1.403 . S
C862 C861 1.403 . S
C862 C863 1.404 . S
C862 C865 1.539 . S
C863 C859 1.408 . S
C863 C862 1.404 . S
C863 H875 0.930 . S
C864 C860 1.524 . S
C864 H876 0.956 . S
C864 H877 0.961 . S
C864 H878 0.961 . S
C865 C862 1.539 . S
C865 H879 0.958 . S
C865 H880 0.961 . S
C865 H881 0.960 . S
H866 C850 0.931 . S
H867 C855 0.929 . S
H868 C856 0.960 . S
H869 C856 0.962 . S
H870 C856 0.960 . S
H871 C857 0.961 . S
H872 C857 0.961 . S
H873 C857 0.961 . S
H874 C858 0.931 . S
H875 C863 0.930 . S
H876 C864 0.956 . S
H877 C864 0.961 . S
H878 C864 0.961 . S
H879 C865 0.958 . S
H880 C865 0.961 . S
H881 C865 0.960 . S
C882 C883 1.391 . S
C882 C884 1.394 . S
C882 H898 0.931 . S
C883 C882 1.391 . S
C883 C887 1.376 . S
C884 C882 1.394 . S
C884 C885 1.369 . S
C884 C888 1.531 . S
C885 C884 1.369 . S
C885 C886 1.410 . S
C885 C893 1.503 . S
C886 C885 1.410 . S
C886 C887 1.392 . S
C886 C889 1.511 . S
C887 C883 1.376 . S
C887 C886 1.392 . S
C887 H899 0.929 . S
C888 C884 1.531 . S
C888 H900 0.960 . S
C888 H901 0.962 . S
C888 H902 0.960 . S
C889 C886 1.511 . S
C889 H903 0.961 . S
C889 H904 0.961 . S
C889 H905 0.961 . S
C890 C891 1.370 . S
C890 C892 1.363 . S
C890 H906 0.931 . S
C891 C890 1.370 . S
C891 C895 1.408 . S
C892 C890 1.363 . S
C892 C893 1.370 . S
C892 C896 1.524 . S
C893 C885 1.503 . S
C893 C892 1.370 . S
C893 C894 1.403 . S
C894 C893 1.403 . S
C894 C895 1.404 . S
C894 C897 1.539 . S
C895 C891 1.408 . S
C895 C894 1.404 . S
C895 H907 0.930 . S
C896 C892 1.524 . S
C896 H908 0.956 . S
C896 H909 0.961 . S
C896 H910 0.961 . S
C897 C894 1.539 . S
C897 H911 0.958 . S
C897 H912 0.961 . S
C897 H913 0.960 . S
H898 C882 0.931 . S
H899 C887 0.929 . S
H900 C888 0.960 . S
H901 C888 0.962 . S
H902 C888 0.960 . S
H903 C889 0.961 . S
H904 C889 0.961 . S
H905 C889 0.961 . S
H906 C890 0.931 . S
H907 C895 0.930 . S
H908 C896 0.956 . S
H909 C896 0.961 . S
H910 C896 0.961 . S
H911 C897 0.958 . S
H912 C897 0.961 . S
H913 C897 0.960 . S
C914 C915 1.391 . S
C914 C916 1.394 . S
C914 H930 0.931 . S
C915 C914 1.391 . S
C915 C919 1.376 . S
C916 C914 1.394 . S
C916 C917 1.369 . S
C916 C920 1.531 . S
C917 C916 1.369 . S
C917 C918 1.410 . S
C917 C925 1.503 . S
C918 C917 1.410 . S
C918 C919 1.392 . S
C918 C921 1.511 . S
C919 C915 1.376 . S
C919 C918 1.392 . S
C919 H931 0.929 . S
C920 C916 1.531 . S
C920 H932 0.960 . S
C920 H933 0.962 . S
C920 H934 0.960 . S
C921 C918 1.511 . S
C921 H935 0.961 1_554 S
C921 H936 0.961 1_554 S
C921 H937 0.961 . S
C922 C923 1.370 . S
C922 C924 1.363 . S
C922 H938 0.931 . S
C923 C922 1.370 . S
C923 C927 1.408 . S
C924 C922 1.363 . S
C924 C925 1.370 1_556 S
C924 C928 1.524 . S
C925 C917 1.503 . S
C925 C924 1.370 1_554 S
C925 C926 1.403 . S
C926 C925 1.403 . S
C926 C927 1.404 1_554 S
C926 C929 1.539 . S
C927 C923 1.408 . S
C927 C926 1.404 1_556 S
C927 H939 0.930 . S
C928 C924 1.524 . S
C928 H940 0.956 1_556 S
C928 H941 0.961 . S
C928 H942 0.961 . S
C929 C926 1.539 . S
C929 H943 0.958 . S
C929 H944 0.961 . S
C929 H945 0.960 . S
H930 C914 0.931 . S
H931 C919 0.929 . S
H932 C920 0.960 . S
H933 C920 0.962 . S
H934 C920 0.960 . S
H935 C921 0.961 1_556 S
H936 C921 0.961 1_556 S
H937 C921 0.961 . S
H938 C922 0.931 . S
H939 C927 0.930 . S
H940 C928 0.956 1_554 S
H941 C928 0.961 . S
H942 C928 0.961 . S
H943 C929 0.958 . S
H944 C929 0.961 . S
H945 C929 0.960 . S
C946 C947 1.391 . S
C946 C948 1.394 . S
C946 H962 0.931 . S
C947 C946 1.391 . S
C947 C951 1.376 . S
C948 C946 1.394 . S
C948 C949 1.369 . S
C948 C952 1.531 . S
C949 C948 1.369 . S
C949 C950 1.410 . S
C949 C957 1.503 . S
C950 C949 1.410 . S
C950 C951 1.392 . S
C950 C953 1.511 . S
C951 C947 1.376 . S
C951 C950 1.392 . S
C951 H963 0.929 . S
C952 C948 1.531 . S
C952 H964 0.960 . S
C952 H965 0.962 . S
C952 H966 0.960 . S
C953 C950 1.511 . S
C953 H967 0.961 . S
C953 H968 0.961 . S
C953 H969 0.961 . S
C954 C955 1.370 . S
C954 C956 1.363 . S
C954 H970 0.931 . S
C955 C954 1.370 . S
C955 C959 1.408 . S
C956 C954 1.363 . S
C956 C957 1.370 . S
C956 C960 1.524 . S
C957 C949 1.503 . S
C957 C956 1.370 . S
C957 C958 1.403 . S
C958 C957 1.403 . S
C958 C959 1.404 . S
C958 C961 1.539 . S
C959 C955 1.408 . S
C959 C958 1.404 . S
C959 H971 0.930 . S
C960 C956 1.524 . S
C960 H972 0.956 . S
C960 H973 0.961 . S
C960 H974 0.961 . S
C961 C958 1.539 . S
C961 H975 0.958 . S
C961 H976 0.961 . S
C961 H977 0.960 . S
H962 C946 0.931 . S
H963 C951 0.929 . S
H964 C952 0.960 . S
H965 C952 0.962 . S
H966 C952 0.960 . S
H967 C953 0.961 . S
H968 C953 0.961 . S
H969 C953 0.961 . S
H970 C954 0.931 . S
H971 C959 0.930 . S
H972 C960 0.956 . S
H973 C960 0.961 . S
H974 C960 0.961 . S
H975 C961 0.958 . S
H976 C961 0.961 . S
H977 C961 0.960 . S
C219 C201 1.262 . S
C211 C19 1.461 . S
C243 C40 1.480 . S
C251 C131 1.294 . S
C275 C51 1.387 . S
C283 C151 1.514 . S
C307 C72 1.343 . S
C315 C165 1.455 . S
C347 C173 1.255 . S
C339 C103 1.407 . S
C371 C114 1.410 . S
C379 C187 1.275 . S
C403 C30 1.450 . S
C411 C145 1.300 . S
C435 C61 1.433 . S
C443 C159 1.239 . S
C467 C82 1.381 . S
C475 C179 1.446 . S
C507 C193 1.479 . S
C499 C93 1.384 1_554 S
C539 C207 1.485 . S
C531 C124 1.437 . S
C571 C137 1.496 . S
C563 C9 1.361 . S
C595 C17 1.398 . S
C603 C144 1.464 . S
C627 C38 1.402 . S
C635 C158 1.472 . S
C667 C180 1.485 . S
C659 C54 1.357 . S
C691 C75 1.385 . S
C699 C194 1.499 1_556 S
C731 C208 1.459 . S
C723 C101 1.324 . S
C763 C138 1.443 . S
C755 C117 1.351 . S
C795 C200 1.439 . S
C787 C33 1.430 . S
C819 C59 1.370 . S
C827 C130 1.465 . S
C859 C152 1.479 . S
C851 C80 1.398 . S
C883 C96 1.423 . S
C891 C166 1.482 . S
C915 C122 1.411 . S
C923 C172 1.506 . S
C947 C12 1.467 . S
C955 C186 1.476 . S
