# Generated by pormake.
# Topology pto, (3,4)-cn, num edge types: 1
# Building blocks:
#     Node 0, Type 0, BuildingBlock: OLANEW_clean_sbu_2, # of connection points: 3
#     Node 1, Type 0, BuildingBlock: OLANEW_clean_sbu_2, # of connection points: 3
#     Node 2, Type 0, BuildingBlock: OLANEW_clean_sbu_2, # of connection points: 3
#     Node 3, Type 0, BuildingBlock: OLANEW_clean_sbu_2, # of connection points: 3
#     Node 4, Type 0, BuildingBlock: OLANEW_clean_sbu_2, # of connection points: 3
#     Node 5, Type 0, BuildingBlock: OLANEW_clean_sbu_2, # of connection points: 3
#     Node 6, Type 0, BuildingBlock: OLANEW_clean_sbu_2, # of connection points: 3
#     Node 7, Type 0, BuildingBlock: OLANEW_clean_sbu_2, # of connection points: 3
#     Node 8, Type 1, BuildingBlock: NAHDIM_clean_linker_0, # of connection points: 4
#     Node 9, Type 1, BuildingBlock: NAHDIM_clean_linker_0, # of connection points: 4
#     Node 10, Type 1, BuildingBlock: NAHDIM_clean_linker_0, # of connection points: 4
#     Node 11, Type 1, BuildingBlock: NAHDIM_clean_linker_0, # of connection points: 4
#     Node 12, Type 1, BuildingBlock: NAHDIM_clean_linker_0, # of connection points: 4
#     Node 13, Type 1, BuildingBlock: NAHDIM_clean_linker_0, # of connection points: 4
#     Edge 14, Type (0, 1), BuildingBlock: UVAHIK_clean_linker_0, # of connection points: 2
#     Edge 15, Type (0, 1), BuildingBlock: UVAHIK_clean_linker_0, # of connection points: 2
#     Edge 16, Type (0, 1), BuildingBlock: UVAHIK_clean_linker_0, # of connection points: 2
#     Edge 17, Type (0, 1), BuildingBlock: UVAHIK_clean_linker_0, # of connection points: 2
#     Edge 18, Type (0, 1), BuildingBlock: UVAHIK_clean_linker_0, # of connection points: 2
#     Edge 19, Type (0, 1), BuildingBlock: UVAHIK_clean_linker_0, # of connection points: 2
#     Edge 20, Type (0, 1), BuildingBlock: UVAHIK_clean_linker_0, # of connection points: 2
#     Edge 21, Type (0, 1), BuildingBlock: UVAHIK_clean_linker_0, # of connection points: 2
#     Edge 22, Type (0, 1), BuildingBlock: UVAHIK_clean_linker_0, # of connection points: 2
#     Edge 23, Type (0, 1), BuildingBlock: UVAHIK_clean_linker_0, # of connection points: 2
#     Edge 24, Type (0, 1), BuildingBlock: UVAHIK_clean_linker_0, # of connection points: 2
#     Edge 25, Type (0, 1), BuildingBlock: UVAHIK_clean_linker_0, # of connection points: 2
#     Edge 26, Type (0, 1), BuildingBlock: UVAHIK_clean_linker_0, # of connection points: 2
#     Edge 27, Type (0, 1), BuildingBlock: UVAHIK_clean_linker_0, # of connection points: 2
#     Edge 28, Type (0, 1), BuildingBlock: UVAHIK_clean_linker_0, # of connection points: 2
#     Edge 29, Type (0, 1), BuildingBlock: UVAHIK_clean_linker_0, # of connection points: 2
#     Edge 30, Type (0, 1), BuildingBlock: UVAHIK_clean_linker_0, # of connection points: 2
#     Edge 31, Type (0, 1), BuildingBlock: UVAHIK_clean_linker_0, # of connection points: 2
#     Edge 32, Type (0, 1), BuildingBlock: UVAHIK_clean_linker_0, # of connection points: 2
#     Edge 33, Type (0, 1), BuildingBlock: UVAHIK_clean_linker_0, # of connection points: 2
#     Edge 34, Type (0, 1), BuildingBlock: UVAHIK_clean_linker_0, # of connection points: 2
#     Edge 35, Type (0, 1), BuildingBlock: UVAHIK_clean_linker_0, # of connection points: 2
#     Edge 36, Type (0, 1), BuildingBlock: UVAHIK_clean_linker_0, # of connection points: 2
#     Edge 37, Type (0, 1), BuildingBlock: UVAHIK_clean_linker_0, # of connection points: 2
# Relax obj value: 0.012
# Max RMSD: 0.134
# Mean RMSD: 0.070
data_MOF--net-pto--node1-OLANEW_clean_sbu_2--node2-NAHDIM_clean_linker_0--edge1-UVAHIK_clean_linker_0
_symmetry_space_group_name_H-M    P1
_symmetry_Int_Tables_number       1
_symmetry_cell_setting            triclinic
loop_
_symmetry_equiv_pos_as_xyz
'x, y, z'
_cell_length_a     74.66623
_cell_length_b     73.633453
_cell_length_c     69.19283
_cell_angle_alpha  92.964906
_cell_angle_beta   90.738963
_cell_angle_gamma 102.48707
loop_
_atom_site_label
_atom_site_type_symbol
_atom_site_fract_x
_atom_site_fract_y
_atom_site_fract_z
_atom_type_partial_charge
O0 O 0.30071 0.35995 0.25455 0.0
Cd1 Cd 0.27574 0.35492 0.27746 0.0
O2 O 0.30984 0.38945 0.26437 0.0
Cd3 Cd 0.28476 0.39022 0.27988 0.0
O4 O 0.25873 0.39894 0.2777 0.0
C5 C 0.24987 0.39402 0.26181 0.0
O6 O 0.25627 0.38329 0.24911 0.0
C7 C 0.31223 0.37541 0.25406 0.0
C8 C 0.28406 0.33275 0.3063 0.0
O9 O 0.27389 0.32553 0.2916 0.0
O10 O 0.28999 0.35046 0.30751 0.0
O11 O 0.27586 0.86518 0.77427 0.0
Cd12 Cd 0.24945 0.8692 0.755 0.0
O13 O 0.28133 0.84213 0.75541 0.0
Cd14 Cd 0.25476 0.83779 0.74044 0.0
O15 O 0.22757 0.81942 0.7401 0.0
C16 C 0.21794 0.82029 0.75499 0.0
O17 O 0.22409 0.83318 0.76877 0.0
C18 C 0.28587 0.85372 0.76983 0.0
C19 C 0.26092 0.89685 0.72902 0.0
O20 O 0.25664 0.90097 0.74633 0.0
O21 O 0.25947 0.87961 0.72387 0.0
O22 O 0.77334 0.74239 0.2643 0.0
Cd23 Cd 0.76923 0.7189 0.2373 0.0
O24 O 0.75039 0.75314 0.25256 0.0
Cd25 Cd 0.74414 0.73539 0.22604 0.0
O26 O 0.7284 0.73528 0.19924 0.0
C27 C 0.72875 0.75161 0.1939 0.0
O28 O 0.73905 0.7658 0.20392 0.0
C29 C 0.76274 0.75377 0.26555 0.0
C30 C 0.79788 0.70031 0.23262 0.0
O31 O 0.79782 0.71527 0.22395 0.0
O32 O 0.78458 0.69438 0.24381 0.0
O33 O 0.748 0.29964 0.72267 0.0
Cd34 Cd 0.71854 0.27772 0.71706 0.0
O35 O 0.74903 0.29247 0.75307 0.0
Cd36 Cd 0.72056 0.27724 0.75388 0.0
O37 O 0.69558 0.27926 0.76906 0.0
C38 C 0.6882 0.2927 0.76518 0.0
O39 O 0.69485 0.30327 0.75108 0.0
C40 C 0.75653 0.30127 0.73891 0.0
C41 C 0.72311 0.24543 0.6966 0.0
O42 O 0.71877 0.25881 0.68779 0.0
O43 O 0.72516 0.24728 0.71507 0.0
O44 O 0.73482 0.75127 0.70211 0.0
Cd45 Cd 0.72702 0.72884 0.7272 0.0
O46 O 0.75062 0.77314 0.72228 0.0
Cd47 Cd 0.73996 0.75818 0.7475 0.0
O48 O 0.71916 0.7536 0.76959 0.0
C49 C 0.7038 0.75691 0.76453 0.0
O50 O 0.70163 0.76165 0.74674 0.0
C51 C 0.74508 0.76741 0.70514 0.0
C52 C 0.75573 0.71109 0.73441 0.0
O53 O 0.74298 0.70406 0.7219 0.0
O54 O 0.75486 0.72646 0.74353 0.0
O55 O 0.78713 0.25262 0.21033 0.0
Cd56 Cd 0.75909 0.22814 0.20937 0.0
O57 O 0.77229 0.27526 0.21432 0.0
Cd58 Cd 0.7448 0.25835 0.20837 0.0
O59 O 0.72113 0.26181 0.19123 0.0
C60 C 0.7251 0.26939 0.17528 0.0
O61 O 0.74232 0.27301 0.17009 0.0
C62 C 0.78732 0.26986 0.21314 0.0
C63 C 0.75886 0.20432 0.23956 0.0
O64 O 0.76671 0.20172 0.2236 0.0
O65 O 0.75103 0.21817 0.24126 0.0
O66 O 0.2727 0.37652 0.79235 0.0
Cd67 Cd 0.24769 0.36675 0.76841 0.0
O68 O 0.28695 0.40089 0.7773 0.0
Cd69 Cd 0.27105 0.38988 0.751 0.0
O70 O 0.26999 0.36602 0.73061 0.0
C71 C 0.28146 0.35644 0.73533 0.0
O72 O 0.29179 0.36186 0.75099 0.0
C73 C 0.28546 0.39108 0.79203 0.0
C74 C 0.22128 0.38802 0.77393 0.0
O75 O 0.22122 0.3737 0.78372 0.0
O76 O 0.23375 0.39223 0.76137 0.0
O77 O 0.30047 0.8554 0.24985 0.0
Cd78 Cd 0.27962 0.85054 0.27691 0.0
O79 O 0.27902 0.85419 0.22747 0.0
Cd80 Cd 0.25698 0.84471 0.24735 0.0
O81 O 0.2374 0.81879 0.252 0.0
C82 C 0.23989 0.80553 0.24058 0.0
O83 O 0.25335 0.80891 0.22831 0.0
C84 C 0.29589 0.85654 0.23228 0.0
C85 C 0.29078 0.87866 0.30579 0.0
O86 O 0.29803 0.86439 0.30454 0.0
O87 O 0.27804 0.87955 0.29351 0.0
C88 C 0.92284 0.42483 0.14342 0.0
C89 C 0.93147 0.41907 0.16171 0.0
C90 C 0.95033 0.44726 0.17839 0.0
C91 C 0.95256 0.45785 0.19593 0.0
C92 C 0.96831 0.47188 0.20002 0.0
C93 C 0.98192 0.4758 0.18587 0.0
C94 C 0.97961 0.46538 0.16789 0.0
C95 C 0.96393 0.45108 0.1644 0.0
C96 C 0.97046 0.48234 0.21955 0.0
C97 C -0.00626 0.46931 0.15237 0.0
C98 C 0.12317 0.4595 0.20721 0.0
C99 C 0.10757 0.4664 0.19896 0.0
C100 C 0.0795 0.47589 0.20883 0.0
C101 C 0.07576 0.48217 0.19066 0.0
C102 C 0.06007 0.4893 0.18751 0.0
C103 C 0.04799 0.49044 0.20289 0.0
C104 C 0.05181 0.48436 0.22125 0.0
C105 C 0.06752 0.47711 0.22395 0.0
C106 C 0.05632 0.49549 0.16766 0.0
C107 C 0.03927 0.48551 0.23797 0.0
C108 C 0.08299 0.61483 0.21067 0.0
C109 C 0.08006 0.60478 0.19264 0.0
C110 C 0.06337 0.59221 0.18812 0.0
C111 C 0.04954 0.58916 0.20213 0.0
C112 C 0.05233 0.59944 0.22016 0.0
C113 C 0.06895 0.61235 0.22406 0.0
C114 C 0.06063 0.58203 0.16843 0.0
C115 C 0.03792 0.59655 0.23546 0.0
C116 C 0.90734 0.57292 0.15223 0.0
C117 C 0.91824 0.58194 0.17041 0.0
C118 C 0.95152 0.58576 0.17138 0.0
C119 C 0.9655 0.58569 0.15819 0.0
C120 C 0.98157 0.57999 0.16345 0.0
C121 C 0.98381 0.57469 0.18255 0.0
C122 C 0.97012 0.57574 0.19628 0.0
C123 C 0.95405 0.5812 0.19052 0.0
C124 C -0.00405 0.57922 0.14849 0.0
C125 C 0.97237 0.57087 0.21696 0.0
C126 C -0.00121 0.49043 0.1901 0.0
C127 C 0.01484 0.48469 0.19503 0.0
C128 C 0.03118 0.49763 0.19953 0.0
C129 C 0.03149 0.5169 0.19973 0.0
C130 C 0.04749 0.53028 0.20505 0.0
C131 C 0.04777 0.54922 0.20483 0.0
C132 C 0.03213 0.55551 0.19904 0.0
C133 C 0.03246 0.57473 0.19813 0.0
C134 C 0.01654 0.58052 0.19279 0.0
C135 C 0.00023 0.56759 0.18803 0.0
C136 C -0.00024 0.54828 0.18836 0.0
C137 C 0.98376 0.53486 0.18306 0.0
C138 C 0.98341 0.51591 0.18355 0.0
C139 C -0.00096 0.50964 0.18936 0.0
C140 C 0.01541 0.52292 0.19442 0.0
C141 C 0.01575 0.54225 0.19399 0.0
C142 C 0.12414 0.61162 0.21344 0.0
C143 C 0.116 0.62797 0.2075 0.0
O144 O 0.93484 0.4337 0.17563 0.0
O145 O 0.93584 0.59038 0.16523 0.0
O146 O 0.09902 0.62698 0.21579 0.0
O147 O 0.09439 0.46856 0.21231 0.0
H148 H 0.94454 0.41495 0.15789 0.0
H149 H 0.93233 0.43664 0.1371 0.0
H150 H 0.90985 0.42925 0.14678 0.0
H151 H 0.91992 0.413 0.13238 0.0
H152 H 0.94198 0.45483 0.2066 0.0
H153 H 0.96236 0.44313 0.15067 0.0
H154 H 0.98422 0.48269 0.22605 0.0
H155 H 0.95983 0.47601 0.22976 0.0
H156 H 0.96935 0.49695 0.2178 0.0
H157 H 0.9888 0.46177 0.13834 0.0
H158 H 0.00638 0.46495 0.15705 0.0
H159 H -0.00251 0.48449 0.15016 0.0
H160 H 0.10157 0.45892 0.18514 0.0
H161 H 0.12234 0.44542 0.19964 0.0
H162 H 0.11861 0.45374 0.22155 0.0
H163 H 0.14562 0.48177 0.20465 0.0
H164 H 0.08495 0.48149 0.17882 0.0
H165 H 0.07052 0.47231 0.23793 0.0
H166 H 0.05688 0.51069 0.16851 0.0
H167 H 0.04232 0.48835 0.16242 0.0
H168 H 0.06638 0.49254 0.1569 0.0
H169 H 0.04479 0.48138 0.25167 0.0
H170 H 0.02565 0.47622 0.2346 0.0
H171 H 0.03714 0.49994 0.24015 0.0
H172 H 0.11456 0.62755 0.19148 0.0
H173 H 0.0906 0.60661 0.18193 0.0
H174 H 0.07126 0.62025 0.23786 0.0
H175 H 0.06153 0.56731 0.16985 0.0
H176 H 0.07116 0.58832 0.1581 0.0
H177 H 0.04683 0.58204 0.16226 0.0
H178 H 0.04279 0.60457 0.24928 0.0
H179 H 0.0338 0.58153 0.23831 0.0
H180 H 0.02552 0.601 0.23017 0.0
H181 H 0.91853 0.57047 0.18022 0.0
H182 H 0.89316 0.566 0.156 0.0
H183 H 0.91408 0.56222 0.14545 0.0
H184 H 0.90666 0.5835 0.14151 0.0
H185 H 0.96352 0.58956 0.14354 0.0
H186 H 0.94354 0.58199 0.20098 0.0
H187 H -0.00119 0.56502 0.14725 0.0
H188 H 0.00894 0.58906 0.15312 0.0
H189 H 0.9917 0.58287 0.134 0.0
H190 H 0.96146 0.57433 0.22633 0.0
H191 H 0.98595 0.57841 0.22301 0.0
H192 H 0.97187 0.55572 0.21739 0.0
H193 H 0.01466 0.46992 0.19515 0.0
H194 H 0.05997 0.52625 0.20949 0.0
H195 H 0.06046 0.55886 0.20915 0.0
H196 H 0.01689 0.59529 0.19219 0.0
H197 H 0.97131 0.53884 0.17843 0.0
H198 H 0.97072 0.50623 0.17926 0.0
H199 H 0.1257 0.61182 0.22945 0.0
H200 H 0.13777 0.61235 0.2069 0.0
H201 H 0.11502 0.5982 0.2083 0.0
C202 C 0.05238 0.45634 0.81124 0.0
C203 C 0.06564 0.47087 0.80019 0.0
C204 C 0.05579 0.49981 0.80591 0.0
C205 C 0.05202 0.50422 0.78702 0.0
C206 C 0.03853 0.51431 0.7834 0.0
C207 C 0.02872 0.52017 0.79903 0.0
C208 C 0.03335 0.51678 0.81822 0.0
C209 C 0.04702 0.50676 0.82143 0.0
C210 C 0.03425 0.5181 0.76282 0.0
C211 C 0.02328 0.523 0.83523 0.0
C212 C 0.93138 0.43605 0.794 0.0
C213 C 0.91521 0.44542 0.79066 0.0
C214 C 0.93294 0.4753 0.78045 0.0
C215 C 0.93857 0.48338 0.799 0.0
C216 C 0.95316 0.49897 0.8014 0.0
C217 C 0.96241 0.50655 0.78497 0.0
C218 C 0.95626 0.49897 0.76624 0.0
C219 C 0.94141 0.48356 0.76423 0.0
C220 C 0.9591 0.50696 0.82158 0.0
C221 C 0.96584 0.5067 0.74842 0.0
C222 C 0.93132 0.61658 0.77663 0.0
C223 C 0.93519 0.61099 0.79506 0.0
C224 C 0.95179 0.60575 0.79902 0.0
C225 C 0.96461 0.6057 0.78414 0.0
C226 C 0.96101 0.61189 0.76576 0.0
C227 C 0.94449 0.61751 0.76235 0.0
C228 C 0.95551 0.60001 0.81906 0.0
C229 C 0.97443 0.61216 0.7496 0.0
C230 C 0.11129 0.6475 0.82418 0.0
C231 C 0.09844 0.65285 0.80914 0.0
C232 C 0.06512 0.64285 0.81165 0.0
C233 C 0.05208 0.63725 0.82565 0.0
C234 C 0.03508 0.62544 0.82061 0.0
C235 C 0.031 0.61938 0.801 0.0
C236 C 0.0437 0.62594 0.78659 0.0
C237 C 0.06065 0.63767 0.79206 0.0
C238 C 0.02174 0.61894 0.83631 0.0
C239 C 0.03953 0.62013 0.7655 0.0
C240 C 0.01233 0.52789 0.79511 0.0
C241 C -0.00429 0.51516 0.79142 0.0
C242 C 0.97955 0.52111 0.7876 0.0
C243 C 0.97991 0.54035 0.78721 0.0
C244 C 0.96395 0.54681 0.7832 0.0
C245 C 0.96445 0.5658 0.78299 0.0
C246 C 0.98086 0.57907 0.78716 0.0
C247 C 0.98138 0.59842 0.7876 0.0
C248 C -0.00209 0.61121 0.7919 0.0
C249 C 0.01404 0.60519 0.79579 0.0
C250 C 0.01382 0.58591 0.79533 0.0
C251 C 0.02983 0.57938 0.79914 0.0
C252 C 0.02943 0.56039 0.7989 0.0
C253 C 0.01298 0.5472 0.79503 0.0
C254 C -0.00331 0.55345 0.79105 0.0
C255 C -0.00287 0.57282 0.79112 0.0
C256 C 0.89145 0.59339 0.77092 0.0
C257 C 0.89809 0.61345 0.77929 0.0
O258 O 0.06732 0.48835 0.8094 0.0
O259 O 0.08177 0.65323 0.81759 0.0
O260 O 0.91514 0.62117 0.77205 0.0
O261 O 0.91985 0.45931 0.77763 0.0
H262 H 0.05942 0.47039 0.78541 0.0
H263 H 0.03829 0.45891 0.81007 0.0
H264 H 0.0563 0.45718 0.82684 0.0
H265 H 0.0521 0.44207 0.80499 0.0
H266 H 0.05939 0.49947 0.77508 0.0
H267 H 0.05028 0.50352 0.83599 0.0
H268 H 0.02037 0.50989 0.75843 0.0
H269 H 0.04433 0.51435 0.75252 0.0
H270 H 0.03409 0.53306 0.76175 0.0
H271 H 0.02911 0.52008 0.8493 0.0
H272 H 0.00861 0.51573 0.83412 0.0
H273 H 0.02384 0.53818 0.83499 0.0
H274 H 0.91148 0.45155 0.80466 0.0
H275 H 0.92756 0.42467 0.8041 0.0
H276 H 0.94335 0.44625 0.80053 0.0
H277 H 0.93554 0.43016 0.78007 0.0
H278 H 0.93188 0.4775 0.8117 0.0
H279 H 0.93685 0.47737 0.74997 0.0
H280 H 0.9608 0.52235 0.82228 0.0
H281 H 0.9726 0.50387 0.8253 0.0
H282 H 0.94913 0.50108 0.83262 0.0
H283 H 0.95921 0.49942 0.73485 0.0
H284 H 0.98037 0.50538 0.749 0.0
H285 H 0.96586 0.52176 0.748 0.0
H286 H 0.89898 0.61333 0.7953 0.0
H287 H 0.92548 0.61082 0.80652 0.0
H288 H 0.9415 0.62208 0.74825 0.0
H289 H 0.9546 0.58475 0.81863 0.0
H290 H 0.94555 0.60343 0.8297 0.0
H291 H 0.9696 0.60698 0.82419 0.0
H292 H 0.96919 0.61649 0.73586 0.0
H293 H 0.97742 0.59811 0.74705 0.0
H294 H 0.98756 0.62196 0.75383 0.0
H295 H 0.09676 0.64192 0.79712 0.0
H296 H 0.12478 0.64713 0.81776 0.0
H297 H 0.10522 0.63344 0.82916 0.0
H298 H 0.11345 0.6576 0.83694 0.0
H299 H 0.05553 0.64165 0.84068 0.0
H300 H 0.07035 0.64273 0.78104 0.0
H301 H 0.01943 0.60356 0.83687 0.0
H302 H 0.00829 0.62234 0.83293 0.0
H303 H 0.02672 0.62541 0.85079 0.0
H304 H 0.05028 0.6274 0.75593 0.0
H305 H 0.02612 0.62308 0.76115 0.0
H306 H 0.0384 0.60488 0.76327 0.0
H307 H -0.0047 0.50035 0.79171 0.0
H308 H 0.95091 0.53725 0.78012 0.0
H309 H 0.95175 0.56994 0.77966 0.0
H310 H -0.00182 0.62602 0.79245 0.0
H311 H 0.04288 0.58888 0.80236 0.0
H312 H 0.04215 0.55616 0.80193 0.0
H313 H 0.89066 0.59303 0.75485 0.0
H314 H 0.87768 0.58721 0.77644 0.0
H315 H 0.90108 0.5847 0.77533 0.0
C316 C 0.30092 0.17496 0.64281 0.0
C317 C 0.31294 0.19125 0.63292 0.0
C318 C 0.31553 0.17752 0.60083 0.0
C319 C 0.3343 0.17763 0.59992 0.0
C320 C 0.34056 0.16447 0.58793 0.0
C321 C 0.32772 0.15082 0.57681 0.0
C322 C 0.30882 0.15107 0.57728 0.0
C323 C 0.303 0.16467 0.58909 0.0
C324 C 0.36085 0.16495 0.58742 0.0
C325 C 0.29472 0.13671 0.56571 0.0
C326 C 0.37391 0.02055 0.5979 0.0
C327 C 0.35636 0.02803 0.59895 0.0
C328 C 0.3558 0.06088 0.59636 0.0
C329 C 0.3385 0.05879 0.58729 0.0
C330 C 0.33382 0.07359 0.57779 0.0
C331 C 0.34685 0.09065 0.57712 0.0
C332 C 0.36406 0.09293 0.58682 0.0
C333 C 0.36818 0.07806 0.59659 0.0
C334 C 0.31509 0.0709 0.56822 0.0
C335 C 0.37826 0.11094 0.58658 0.0
C336 C 0.35938 0.05498 0.45718 0.0
C337 C 0.34151 0.0578 0.45937 0.0
C338 C 0.33853 0.07478 0.46731 0.0
C339 C 0.35375 0.08928 0.47293 0.0
C340 C 0.37175 0.08694 0.46938 0.0
C341 C 0.37433 0.06978 0.46141 0.0
C342 C 0.31912 0.07699 0.4704 0.0
C343 C 0.38824 0.10224 0.47488 0.0
C344 C 0.33757 0.22515 0.46686 0.0
C345 C 0.34165 0.21725 0.44684 0.0
C346 C 0.33625 0.18392 0.45335 0.0
C347 C 0.32265 0.16756 0.45276 0.0
C348 C 0.32499 0.15205 0.46265 0.0
C349 C 0.34161 0.15282 0.47303 0.0
C350 C 0.35578 0.16907 0.47303 0.0
C351 C 0.3529 0.18453 0.46337 0.0
C352 C 0.30959 0.13495 0.46225 0.0
C353 C 0.37391 0.17019 0.48345 0.0
C354 C 0.33397 0.13579 0.56543 0.0
C355 C 0.33717 0.12066 0.57533 0.0
C356 C 0.34287 0.10587 0.5656 0.0
C357 C 0.34518 0.10594 0.54534 0.0
C358 C 0.3506 0.09114 0.53504 0.0
C359 C 0.35238 0.09109 0.51507 0.0
C360 C 0.34926 0.10606 0.50465 0.0
C361 C 0.35077 0.10598 0.48429 0.0
C362 C 0.34839 0.12142 0.47444 0.0
C363 C 0.34398 0.13686 0.48436 0.0
C364 C 0.34158 0.13682 0.50463 0.0
C365 C 0.33636 0.15173 0.51497 0.0
C366 C 0.33396 0.1515 0.53489 0.0
C367 C 0.33661 0.13631 0.54524 0.0
C368 C 0.34205 0.12122 0.53514 0.0
C369 C 0.34437 0.12141 0.5148 0.0
C370 C 0.36534 0.0136 0.47155 0.0
C371 C 0.35315 0.02113 0.45739 0.0
O372 O 0.30917 0.18946 0.61315 0.0
O373 O 0.33263 0.1987 0.4442 0.0
O374 O 0.36262 0.03813 0.45128 0.0
O375 O 0.36098 0.0467 0.60512 0.0
H376 H 0.32756 0.19096 0.63584 0.0
H377 H 0.304 0.16159 0.63719 0.0
H378 H 0.28615 0.17452 0.63998 0.0
H379 H 0.30372 0.17633 0.6587 0.0
H380 H 0.34405 0.18802 0.60854 0.0
H381 H 0.28856 0.16487 0.5898 0.0
H382 H 0.36372 0.15295 0.59503 0.0
H383 H 0.36918 0.17797 0.59454 0.0
H384 H 0.36526 0.16365 0.57223 0.0
H385 H 0.28047 0.13807 0.56868 0.0
H386 H 0.2961 0.12248 0.56906 0.0
H387 H 0.29712 0.13822 0.55002 0.0
H388 H 0.35016 0.02631 0.58405 0.0
H389 H 0.37077 0.00569 0.59251 0.0
H390 H 0.38079 0.02178 0.6124 0.0
H391 H 0.38352 0.02866 0.58776 0.0
H392 H 0.32863 0.04566 0.58771 0.0
H393 H 0.38138 0.07957 0.60393 0.0
H394 H 0.30875 0.08282 0.57236 0.0
H395 H 0.30576 0.05778 0.57217 0.0
H396 H 0.31647 0.07046 0.55226 0.0
H397 H 0.39149 0.10995 0.59352 0.0
H398 H 0.37303 0.12219 0.5944 0.0
H399 H 0.38079 0.11497 0.57145 0.0
H400 H 0.34089 0.02269 0.46576 0.0
H401 H 0.32987 0.04669 0.45513 0.0
H402 H 0.38807 0.06758 0.45924 0.0
H403 H 0.31673 0.07841 0.48616 0.0
H404 H 0.30878 0.06495 0.46399 0.0
H405 H 0.31704 0.08989 0.46393 0.0
H406 H 0.40125 0.09876 0.46989 0.0
H407 H 0.38912 0.1047 0.49087 0.0
H408 H 0.38673 0.11541 0.4686 0.0
H409 H 0.35668 0.21847 0.44553 0.0
H410 H 0.34463 0.24005 0.46899 0.0
H411 H 0.34256 0.21748 0.47845 0.0
H412 H 0.32256 0.22392 0.4684 0.0
H413 H 0.30992 0.16715 0.44486 0.0
H414 H 0.36371 0.19697 0.46375 0.0
H415 H 0.30635 0.13076 0.47721 0.0
H416 H 0.31398 0.12322 0.45432 0.0
H417 H 0.29693 0.13721 0.45506 0.0
H418 H 0.38435 0.1827 0.47991 0.0
H419 H 0.3793 0.15756 0.47967 0.0
H420 H 0.37189 0.17074 0.49931 0.0
H421 H 0.33528 0.12043 0.59084 0.0
H422 H 0.35334 0.07929 0.54226 0.0
H423 H 0.35635 0.07918 0.50795 0.0
H424 H 0.34974 0.12131 0.45884 0.0
H425 H 0.33398 0.16374 0.50778 0.0
H426 H 0.32996 0.16337 0.54208 0.0
H427 H 0.35844 -0.00057 0.47563 0.0
H428 H 0.36793 0.0229 0.48491 0.0
H429 H 0.37881 0.01304 0.46522 0.0
C430 C 0.43345 0.79324 0.12021 0.0
C431 C 0.4333 0.8116 0.11088 0.0
C432 C 0.44317 0.8098 0.07791 0.0
C433 C 0.45513 0.82697 0.0756 0.0
C434 C 0.46937 0.8285 0.06235 0.0
C435 C 0.47178 0.8124 0.05148 0.0
C436 C 0.45947 0.79509 0.05363 0.0
C437 C 0.44505 0.79412 0.06659 0.0
C438 C 0.482 0.84723 0.0602 0.0
C439 C 0.46183 0.77753 0.04266 0.0
C440 C 0.58826 0.82922 0.11276 0.0
C441 C 0.58529 0.81156 0.09939 0.0
C442 C 0.57019 0.8156 0.06931 0.0
C443 C 0.55747 0.79872 0.0658 0.0
C444 C 0.5414 0.79794 0.05475 0.0
C445 C 0.53797 0.81448 0.04736 0.0
C446 C 0.55096 0.83151 0.05076 0.0
C447 C 0.56714 0.83175 0.06141 0.0
C448 C 0.52803 0.77949 0.05112 0.0
C449 C 0.54761 0.84949 0.0435 0.0
C450 C 0.56289 0.81357 0.92142 0.0
C451 C 0.55277 0.79673 0.92782 0.0
C452 C 0.53671 0.79626 0.93826 0.0
C453 C 0.53084 0.81304 0.94253 0.0
C454 C 0.54071 0.82993 0.93548 0.0
C455 C 0.55651 0.8299 0.92475 0.0
C456 C 0.52613 0.77791 0.94494 0.0
C457 C 0.53477 0.84804 0.93962 0.0
C458 C 0.38569 0.80889 0.93654 0.0
C459 C 0.4009 0.81956 0.92425 0.0
C460 C 0.43014 0.81008 0.92865 0.0
C461 C 0.43613 0.79378 0.9319 0.0
C462 C 0.45317 0.79445 0.94099 0.0
C463 C 0.46459 0.81192 0.94664 0.0
C464 C 0.45894 0.82852 0.94267 0.0
C465 C 0.44177 0.82744 0.93363 0.0
C466 C 0.45888 0.77649 0.94481 0.0
C467 C 0.47103 0.84736 0.94808 0.0
C468 C 0.48782 0.81343 0.0388 0.0
C469 C 0.50481 0.81376 0.04767 0.0
C470 C 0.52047 0.81408 0.03677 0.0
C471 C 0.51923 0.81392 0.01636 0.0
C472 C 0.53464 0.81386 0.00492 0.0
C473 C 0.53329 0.8138 0.98485 0.0
C474 C 0.51641 0.81348 0.97542 0.0
C475 C 0.51483 0.81308 0.955 0.0
C476 C 0.49784 0.8127 0.94608 0.0
C477 C 0.48227 0.81278 0.95704 0.0
C478 C 0.48357 0.81327 0.97748 0.0
C479 C 0.46818 0.81347 0.98894 0.0
C480 C 0.46957 0.81375 0.00904 0.0
C481 C 0.48635 0.81364 0.01843 0.0
C482 C 0.5021 0.81373 0.00717 0.0
C483 C 0.5007 0.81352 0.98668 0.0
C484 C 0.60776 0.82197 0.92768 0.0
C485 C 0.59311 0.80672 0.91728 0.0
O486 O 0.42983 0.8081 0.09117 0.0
O487 O 0.41335 0.80846 0.92014 0.0
O488 O 0.5786 0.81441 0.91162 0.0
O489 O 0.5855 0.81656 0.08034 0.0
H490 H 0.44703 0.82104 0.11365 0.0
H491 H 0.44425 0.78677 0.11368 0.0
H492 H 0.41997 0.78336 0.11788 0.0
H493 H 0.43648 0.79572 0.13601 0.0
H494 H 0.4533 0.83912 0.08422 0.0
H495 H 0.43559 0.78096 0.0685 0.0
H496 H 0.49572 0.84717 0.06656 0.0
H497 H 0.47677 0.85874 0.06758 0.0
H498 H 0.4838 0.85002 0.04464 0.0
H499 H 0.45231 0.76492 0.04754 0.0
H500 H 0.47615 0.77576 0.04449 0.0
H501 H 0.45921 0.77859 0.02699 0.0
H502 H 0.57172 0.80266 0.10272 0.0
H503 H 0.58773 0.82562 0.12818 0.0
H504 H 0.60177 0.83849 0.11016 0.0
H505 H 0.5773 0.8369 0.11 0.0
H506 H 0.56017 0.78619 0.07167 0.0
H507 H 0.5772 0.84467 0.06418 0.0
H508 H 0.52417 0.77715 0.03549 0.0
H509 H 0.51532 0.77968 0.0592 0.0
H510 H 0.53374 0.76763 0.05579 0.0
H511 H 0.55818 0.86177 0.04902 0.0
H512 H 0.5339 0.8515 0.04794 0.0
H513 H 0.5477 0.84885 0.02744 0.0
H514 H 0.58856 0.79562 0.92759 0.0
H515 H 0.55733 0.78394 0.92449 0.0
H516 H 0.56429 0.84276 0.91939 0.0
H517 H 0.5273 0.77789 0.96095 0.0
H518 H 0.53126 0.7659 0.93857 0.0
H519 H 0.51134 0.776 0.94101 0.0
H520 H 0.54441 0.8601 0.93383 0.0
H521 H 0.53375 0.85062 0.95549 0.0
H522 H 0.52094 0.84711 0.93304 0.0
H523 H 0.40748 0.83253 0.9328 0.0
H524 H 0.37556 0.81753 0.94014 0.0
H525 H 0.39169 0.80542 0.95029 0.0
H526 H 0.3785 0.79572 0.92871 0.0
H527 H 0.4272 0.78047 0.92763 0.0
H528 H 0.43765 0.84015 0.93024 0.0
H529 H 0.4612 0.77569 0.9606 0.0
H530 H 0.47205 0.7762 0.93765 0.0
H531 H 0.44844 0.76403 0.93949 0.0
H532 H 0.4649 0.85898 0.9435 0.0
H533 H 0.48459 0.8485 0.94129 0.0
H534 H 0.47343 0.84891 0.96401 0.0
H535 H 0.50584 0.81365 0.06333 0.0
H536 H 0.54794 0.81389 0.01136 0.0
H537 H 0.54566 0.8139 0.97683 0.0
H538 H 0.49672 0.81228 0.9304 0.0
H539 H 0.45487 0.81341 0.98252 0.0
H540 H 0.45729 0.81396 0.01712 0.0
H541 H 0.61942 0.81616 0.93276 0.0
H542 H 0.6018 0.82797 0.94049 0.0
H543 H 0.61297 0.83332 0.91786 0.0
C544 C 0.72784 0.05934 0.60581 0.0
C545 C 0.7421 0.07407 0.59618 0.0
C546 C 0.74274 0.05995 0.56391 0.0
C547 C 0.76079 0.05755 0.56246 0.0
C548 C 0.76491 0.04332 0.55018 0.0
C549 C 0.7506 0.0311 0.53935 0.0
C550 C 0.73243 0.03385 0.54044 0.0
C551 C 0.72881 0.0485 0.55249 0.0
C552 C 0.78451 0.04112 0.54906 0.0
C553 C 0.71678 0.02101 0.5293 0.0
C554 C 0.7798 0.89962 0.54488 0.0
C555 C 0.76465 0.90231 0.55876 0.0
C556 C 0.7659 0.93557 0.55842 0.0
C557 C 0.74898 0.93596 0.5496 0.0
C558 C 0.74655 0.95172 0.54017 0.0
C559 C 0.76143 0.96726 0.53939 0.0
C560 C 0.7783 0.9671 0.54889 0.0
C561 C 0.78021 0.95131 0.55855 0.0
C562 C 0.72818 0.95167 0.5308 0.0
C563 C 0.79442 0.98345 0.54851 0.0
C564 C 0.77567 0.93162 0.41761 0.0
C565 C 0.75785 0.93312 0.42249 0.0
C566 C 0.75458 0.94972 0.43115 0.0
C567 C 0.76949 0.96503 0.43521 0.0
C568 C 0.78736 0.96378 0.42953 0.0
C569 C 0.79015 0.94712 0.42053 0.0
C570 C 0.73525 0.95077 0.43634 0.0
C571 C 0.80355 0.97985 0.43346 0.0
C572 C 0.78223 0.10622 0.41748 0.0
C573 C 0.77794 0.09217 0.39998 0.0
C574 C 0.76377 0.06253 0.41403 0.0
C575 C 0.74737 0.0494 0.41586 0.0
C576 C 0.74677 0.03342 0.42631 0.0
C577 C 0.76304 0.03054 0.43515 0.0
C578 C 0.77971 0.04369 0.43331 0.0
C579 C 0.77992 0.05955 0.42283 0.0
C580 C 0.72877 0.01967 0.42802 0.0
C581 C 0.79733 0.04102 0.44254 0.0
C582 C 0.75448 0.01486 0.52782 0.0
C583 C 0.75597 -0.00086 0.53772 0.0
C584 C 0.75963 0.98332 0.52795 0.0
C585 C 0.76166 0.98296 0.50765 0.0
C586 C 0.76542 0.96728 0.49737 0.0
C587 C 0.76707 0.9669 0.47738 0.0
C588 C 0.76515 0.98223 0.46686 0.0
C589 C 0.76658 0.98185 0.44647 0.0
C590 C 0.76539 -0.00237 0.43655 0.0
C591 C 0.76272 0.01386 0.44643 0.0
C592 C 0.76065 0.01428 0.46675 0.0
C593 C 0.75755 0.03022 0.47711 0.0
C594 C 0.75558 0.03049 0.49711 0.0
C595 C 0.75663 0.01483 0.50752 0.0
C596 C 0.76002 -0.00128 0.49739 0.0
C597 C 0.76189 -0.0016 0.47698 0.0
C598 C 0.78672 0.8959 0.43381 0.0
C599 C 0.77345 0.89817 0.41751 0.0
O600 O 0.73845 0.07307 0.5764 0.0
O601 O 0.7633 0.07777 0.4038 0.0
O602 O 0.77925 0.91549 0.40992 0.0
O603 O 0.76876 0.9203 0.56711 0.0
H604 H 0.75593 0.07128 0.59907 0.0
H605 H 0.7285 0.0452 0.59988 0.0
H606 H 0.71379 0.06155 0.6031 0.0
H607 H 0.73058 0.05996 0.62168 0.0
H608 H 0.77165 0.06683 0.57092 0.0
H609 H 0.71494 0.05063 0.55364 0.0
H610 H 0.78591 0.02854 0.55659 0.0
H611 H 0.79432 0.05334 0.55593 0.0
H612 H 0.78828 0.03914 0.53374 0.0
H613 H 0.70329 0.02427 0.53275 0.0
H614 H 0.7164 0.00633 0.53258 0.0
H615 H 0.71892 0.02219 0.51353 0.0
H616 H 0.75148 0.89975 0.55033 0.0
H617 H 0.77673 0.88521 0.53818 0.0
H618 H 0.7933 0.90226 0.55268 0.0
H619 H 0.78069 0.90946 0.53311 0.0
H620 H 0.73762 0.92408 0.55021 0.0
H621 H 0.79311 0.95093 0.56572 0.0
H622 H 0.72943 0.95117 0.51483 0.0
H623 H 0.7237 0.96469 0.53517 0.0
H624 H 0.71742 0.93955 0.5347 0.0
H625 H 0.80697 0.98061 0.55543 0.0
H626 H 0.79093 -0.00425 0.55627 0.0
H627 H 0.79744 0.98708 0.53334 0.0
H628 H 0.7596 0.8969 0.42373 0.0
H629 H 0.74647 0.92138 0.41943 0.0
H630 H 0.8038 0.94589 0.41637 0.0
H631 H 0.73395 0.95082 0.4523 0.0
H632 H 0.72493 0.9388 0.42975 0.0
H633 H 0.73208 0.96391 0.43152 0.0
H634 H 0.8167 0.97631 0.42906 0.0
H635 H 0.80455 0.98418 0.44912 0.0
H636 H 0.80156 0.99195 0.42542 0.0
H637 H 0.79033 0.0865 0.39693 0.0
H638 H 0.79358 0.11804 0.41416 0.0
H639 H 0.78658 0.09953 0.43021 0.0
H640 H 0.76997 0.11171 0.42147 0.0
H641 H 0.73497 0.05174 0.40908 0.0
H642 H 0.79278 0.06949 0.42175 0.0
H643 H 0.72547 0.01807 0.44353 0.0
H644 H 0.72994 0.0058 0.42173 0.0
H645 H 0.71727 0.02403 0.42053 0.0
H646 H 0.8093 0.05219 0.43926 0.0
H647 H 0.80009 0.02737 0.43738 0.0
H648 H 0.79593 0.04084 0.45849 0.0
H649 H 0.75433 -0.00074 0.55328 0.0
H650 H 0.76706 0.95505 0.50465 0.0
H651 H 0.76991 0.9544 0.47031 0.0
H652 H 0.76682 -0.00264 0.42095 0.0
H653 H 0.75653 0.04265 0.46986 0.0
H654 H 0.75321 0.04313 0.50432 0.0
H655 H 0.80086 0.8973 0.42835 0.0
H656 H 0.78229 0.88204 0.43996 0.0
H657 H 0.78691 0.90678 0.4456 0.0
C658 C 0.47746 0.40513 0.13195 0.0
C659 C 0.46018 0.40447 0.11941 0.0
C660 C 0.47022 0.39054 0.08954 0.0
C661 C 0.48226 0.40667 0.08372 0.0
C662 C 0.49513 0.40554 0.06937 0.0
C663 C 0.496 0.38795 0.06069 0.0
C664 C 0.48331 0.37182 0.0658 0.0
C665 C 0.47045 0.37337 0.08007 0.0
C666 C 0.50823 0.42308 0.06395 0.0
C667 C 0.48382 0.35287 0.05672 0.0
C668 C 0.61204 0.39652 0.12663 0.0
C669 C 0.60472 0.38069 0.1115 0.0
C670 C 0.59155 0.38623 0.08064 0.0
C671 C 0.57869 0.36939 0.07727 0.0
C672 C 0.56335 0.36832 0.06498 0.0
C673 C 0.56074 0.38452 0.05617 0.0
C674 C 0.57405 0.4014 0.05914 0.0
C675 C 0.58953 0.40189 0.07103 0.0
C676 C 0.5497 0.35 0.06182 0.0
C677 C 0.57161 0.41912 0.05042 0.0
C678 C 0.58767 0.38868 0.93203 0.0
C679 C 0.57611 0.37149 0.93555 0.0
C680 C 0.55959 0.37077 0.94527 0.0
C681 C 0.55467 0.38757 0.95164 0.0
C682 C 0.56589 0.40487 0.94725 0.0
C683 C 0.58217 0.40516 0.93727 0.0
C684 C 0.54762 0.35209 0.94916 0.0
C685 C 0.56095 0.42306 0.95356 0.0
C686 C 0.42843 0.42411 0.95221 0.0
C687 C 0.43477 0.41861 0.93216 0.0
C688 C 0.45737 0.39998 0.94011 0.0
C689 C 0.46027 0.38187 0.94047 0.0
C690 C 0.47645 0.37838 0.94856 0.0
C691 C 0.49008 0.39344 0.95643 0.0
C692 C 0.4875 0.41186 0.95567 0.0
C693 C 0.47118 0.41496 0.94754 0.0
C694 C 0.47883 0.35858 0.94909 0.0
C695 C 0.50185 0.42827 0.9638 0.0
C696 C 0.51129 0.38629 0.04773 0.0
C697 C 0.52793 0.38512 0.05646 0.0
C698 C 0.54332 0.3843 0.04548 0.0
C699 C 0.54207 0.38433 0.02507 0.0
C700 C 0.55718 0.3832 0.01354 0.0
C701 C 0.55603 0.38404 -0.00647 0.0
C702 C 0.53964 0.38581 0.98426 0.0
C703 C 0.53847 0.38714 0.96397 0.0
C704 C 0.52205 0.38914 0.95527 0.0
C705 C 0.50667 0.38995 0.96633 0.0
C706 C 0.50752 0.38847 0.98661 0.0
C707 C 0.49228 0.38917 -0.00184 0.0
C708 C 0.49342 0.38831 0.01817 0.0
C709 C 0.50983 0.3867 0.02739 0.0
C710 C 0.5253 0.38572 0.01602 0.0
C711 C 0.52411 0.38652 -0.0044 0.0
C712 C 0.63478 0.38931 0.93263 0.0
C713 C 0.61594 0.37791 0.9258 0.0
O714 O 0.45861 0.39082 0.10449 0.0
O715 O 0.44104 0.40222 0.93273 0.0
O716 O 0.60418 0.38992 0.92361 0.0
O717 O 0.60588 0.38786 0.09331 0.0
H718 H 0.46091 0.41825 0.11324 0.0
H719 H 0.49002 0.40912 0.12339 0.0
H720 H 0.4772 0.39129 0.13778 0.0
H721 H 0.47837 0.41565 0.14424 0.0
H722 H 0.48197 0.42015 0.09053 0.0
H723 H 0.46096 0.36104 0.08446 0.0
H724 H 0.52233 0.42276 0.06898 0.0
H725 H 0.50454 0.43585 0.07046 0.0
H726 H 0.50842 0.42387 0.04797 0.0
H727 H 0.47264 0.34175 0.06183 0.0
H728 H 0.49721 0.34942 0.06023 0.0
H729 H 0.4826 0.35303 0.04073 0.0
H730 H 0.59012 0.37491 0.115 0.0
H731 H 0.61102 0.39122 0.14142 0.0
H732 H 0.6038 0.40736 0.12594 0.0
H733 H 0.6266 0.40303 0.12396 0.0
H734 H 0.5806 0.35713 0.08435 0.0
H735 H 0.5997 0.41476 0.07363 0.0
H736 H 0.54586 0.34723 0.04621 0.0
H737 H 0.53703 0.3507 0.06978 0.0
H738 H 0.55514 0.33817 0.067 0.0
H739 H 0.58216 0.43143 0.05587 0.0
H740 H 0.55782 0.42171 0.0537 0.0
H741 H 0.57255 0.41769 0.03445 0.0
H742 H 0.61112 0.36804 0.93726 0.0
H743 H 0.57995 0.35866 0.93075 0.0
H744 H 0.59105 0.41833 0.93411 0.0
H745 H 0.54779 0.35005 0.96494 0.0
H746 H 0.55231 0.3404 0.94149 0.0
H747 H 0.5332 0.35164 0.94463 0.0
H748 H 0.57151 0.43533 0.94965 0.0
H749 H 0.55924 0.42379 0.96948 0.0
H750 H 0.54765 0.42381 0.94666 0.0
H751 H 0.44595 0.42999 0.92747 0.0
H752 H 0.42297 0.43697 0.95158 0.0
H753 H 0.44005 0.42692 0.96288 0.0
H754 H 0.41755 0.41276 0.95744 0.0
H755 H 0.44962 0.3704 0.93463 0.0
H756 H 0.46933 0.4291 0.9473 0.0
H757 H 0.48036 0.35504 0.96434 0.0
H758 H 0.49156 0.35718 0.94159 0.0
H759 H 0.46704 0.3484 0.94213 0.0
H760 H 0.49831 0.44182 0.96101 0.0
H761 H 0.51534 0.42797 0.95738 0.0
H762 H 0.50337 0.42734 0.97968 0.0
H763 H 0.52903 0.38525 0.07213 0.0
H764 H 0.57012 0.38183 0.01988 0.0
H765 H 0.5682 0.38337 0.98545 0.0
H766 H 0.52136 0.3905 0.93975 0.0
H767 H 0.4793 0.39049 -0.00813 0.0
H768 H 0.4813 0.38904 0.02635 0.0
H769 H 0.64448 0.38001 0.93471 0.0
H770 H 0.63356 0.39689 0.94669 0.0
H771 H 0.64046 0.39966 0.92193 0.0
C772 C 0.22823 0.41516 0.26909 0.0
C773 C 0.23402 0.40202 0.25656 0.0
C774 C 0.21459 0.42418 0.26309 0.0
C775 C 0.1951 0.43763 0.21848 0.0
H776 H 0.15606 0.44758 0.25101 0.0
C777 C 0.13514 0.47294 0.17925 0.0
C778 C 0.12106 0.48275 0.19728 0.0
C779 C 0.15122 0.46083 0.18941 0.0
C780 C 0.16703 0.44513 0.24184 0.0
H781 H 0.22939 0.3874 0.22829 0.0
H782 H 0.20564 0.40303 0.21793 0.0
H783 H 0.17765 0.43004 0.26336 0.0
H784 H 0.12122 0.49619 0.23287 0.0
H785 H 0.14844 0.47719 0.24712 0.0
H786 H 0.18487 0.45289 0.19713 0.0
C787 C 0.21182 0.40658 0.23226 0.0
C788 C 0.17935 0.43503 0.2489 0.0
C789 C 0.22537 0.39754 0.23825 0.0
C790 C 0.12862 0.48875 0.22304 0.0
C791 C 0.14494 0.47611 0.23184 0.0
C792 C 0.18287 0.44776 0.21148 0.0
C793 C 0.20656 0.42028 0.24443 0.0
C794 C 0.19343 0.43105 0.23722 0.0
C795 C 0.15551 0.4619 0.21532 0.0
C796 C 0.16864 0.45151 0.22302 0.0
H797 H 0.2346 0.41891 0.28331 0.0
H798 H 0.21087 0.43472 0.27277 0.0
H799 H 0.20607 0.43518 0.20929 0.0
H800 H 0.13123 0.47095 0.16405 0.0
H801 H 0.158 0.45258 0.17981 0.0
C802 C 0.19699 0.78958 0.74534 0.0
C803 C 0.20156 0.80543 0.75814 0.0
C804 C 0.1831 0.77443 0.74976 0.0
C805 C 0.16009 0.75282 0.79219 0.0
H806 H 0.12802 0.72114 0.75373 0.0
C807 C 0.10746 0.68806 0.81336 0.0
C808 C 0.10684 0.6717 0.80174 0.0
C809 C 0.11679 0.70529 0.8073 0.0
C810 C 0.13694 0.72983 0.76461 0.0
H811 H 0.19434 0.81828 0.78501 0.0
H812 H 0.16994 0.79203 0.79253 0.0
H813 H 0.14803 0.74999 0.74424 0.0
H814 H 0.11539 0.66054 0.77467 0.0
H815 H 0.13176 0.69065 0.76407 0.0
H816 H 0.14929 0.73258 0.81248 0.0
C817 C 0.17737 0.79111 0.7793 0.0
C818 C 0.14841 0.74634 0.75918 0.0
C819 C 0.19129 0.80621 0.77492 0.0
C820 C 0.11547 0.67297 0.7838 0.0
C821 C 0.12478 0.69021 0.77771 0.0
C822 C 0.14862 0.73637 0.79761 0.0
C823 C 0.17343 0.77484 0.76703 0.0
C824 C 0.16025 0.75795 0.77288 0.0
C825 C 0.12577 0.70654 0.78953 0.0
C826 C 0.13704 0.72459 0.78386 0.0
H827 H 0.20464 0.78852 0.73229 0.0
H828 H 0.18054 0.76208 0.74005 0.0
H829 H 0.16929 0.76121 0.80304 0.0
H830 H 0.10105 0.68745 0.82734 0.0
H831 H 0.11716 0.71764 0.81666 0.0
C832 C 0.81249 0.67352 0.23898 0.0
C833 C 0.81244 0.68976 0.22919 0.0
C834 C 0.82547 0.66285 0.23477 0.0
C835 C 0.86997 0.66379 0.21097 0.0
H836 H 0.85189 0.61026 0.20577 0.0
C837 C 0.90967 0.61352 0.17237 0.0
C838 C 0.90881 0.59609 0.18014 0.0
C839 C 0.89932 0.62571 0.18018 0.0
C840 C 0.85726 0.62515 0.20745 0.0
H841 H 0.8263 0.70779 0.20764 0.0
H842 H 0.84876 0.68904 0.20012 0.0
H843 H 0.8313 0.63013 0.21613 0.0
H844 H 0.8966 0.57784 0.20222 0.0
H845 H 0.87872 0.59922 0.21606 0.0
H846 H 0.89589 0.65874 0.20191 0.0
C847 C 0.83892 0.68466 0.21123 0.0
C848 C 0.84544 0.63657 0.2134 0.0
C849 C 0.82597 0.69536 0.21547 0.0
C850 C 0.89764 0.59125 0.19606 0.0
C851 C 0.88729 0.60343 0.20386 0.0
C852 C 0.88181 0.65235 0.20497 0.0
C853 C 0.83868 0.66813 0.22064 0.0
C854 C 0.8516 0.65604 0.21514 0.0
C855 C 0.88778 0.62068 0.19583 0.0
C856 C 0.87556 0.6329 0.20305 0.0
H857 H 0.80233 0.66888 0.24972 0.0
H858 H 0.82507 0.65037 0.24253 0.0
H859 H 0.87523 0.67872 0.2124 0.0
H860 H 0.91795 0.61747 0.15991 0.0
H861 H 0.89983 0.63878 0.17348 0.0
C862 C 0.7833 0.32435 0.72663 0.0
C863 C 0.77461 0.31427 0.74189 0.0
C864 C 0.79968 0.33765 0.73001 0.0
C865 C 0.83772 0.35375 0.7665 0.0
H866 H 0.84296 0.40098 0.74245 0.0
C867 C 0.88735 0.4203 0.79639 0.0
C868 C 0.89871 0.43086 0.78314 0.0
C869 C 0.87297 0.40571 0.78992 0.0
C870 C 0.84175 0.38778 0.74909 0.0
H871 H 0.77653 0.31008 0.77261 0.0
H872 H 0.80466 0.33337 0.77854 0.0
H873 H 0.81672 0.37564 0.73352 0.0
H874 H 0.90418 0.43403 0.75263 0.0
H875 H 0.87859 0.40878 0.74128 0.0
H876 H 0.86239 0.36618 0.78258 0.0
C877 C 0.79912 0.33082 0.76387 0.0
C878 C 0.82678 0.37323 0.74394 0.0
C879 C 0.78287 0.3175 0.76048 0.0
C880 C 0.89539 0.42646 0.76319 0.0
C881 C 0.88081 0.41199 0.7567 0.0
C882 C 0.85253 0.36834 0.77179 0.0
C883 C 0.80767 0.3412 0.74873 0.0
C884 C 0.82443 0.35612 0.75282 0.0
C885 C 0.8696 0.40137 0.77002 0.0
C886 C 0.85455 0.38558 0.76335 0.0
H887 H 0.77733 0.32216 0.71212 0.0
H888 H 0.80603 0.34521 0.71797 0.0
H889 H 0.8366 0.34064 0.7733 0.0
H890 H 0.8898 0.42318 0.81183 0.0
H891 H 0.86446 0.39782 0.80049 0.0
C892 C 0.27982 0.30233 0.32215 0.0
C893 C 0.28923 0.32095 0.32115 0.0
C894 C 0.28505 0.29107 0.33588 0.0
C895 C 0.31289 0.29332 0.38149 0.0
H896 H 0.30965 0.24097 0.36765 0.0
C897 C 0.3469 0.24558 0.42685 0.0
C898 C 0.33551 0.22855 0.43133 0.0
C899 C 0.34111 0.25677 0.41343 0.0
C900 C 0.31052 0.25555 0.37172 0.0
H901 H 0.31159 0.34233 0.33364 0.0
H902 H 0.32115 0.32259 0.35706 0.0
H903 H 0.29994 0.26073 0.34419 0.0
H904 H 0.30877 0.21026 0.4256 0.0
H905 H 0.29896 0.22955 0.40165 0.0
H906 H 0.32405 0.2881 0.40884 0.0
C907 C 0.30937 0.31675 0.34769 0.0
C908 C 0.30486 0.26688 0.35834 0.0
C909 C 0.30396 0.32808 0.33416 0.0
C910 C 0.31809 0.22305 0.42216 0.0
C911 C 0.31244 0.2341 0.40848 0.0
C912 C 0.31881 0.28204 0.39474 0.0
C913 C 0.3 0.29807 0.34875 0.0
C914 C 0.30593 0.28593 0.36305 0.0
C915 C 0.32385 0.25111 0.40409 0.0
C916 C 0.31765 0.26305 0.38998 0.0
H917 H 0.26833 0.29647 0.31239 0.0
H918 H 0.27725 0.27689 0.33647 0.0
H919 H 0.31359 0.3078 0.38584 0.0
H920 H 0.36025 0.2503 0.43394 0.0
H921 H 0.35017 0.26982 0.41026 0.0
C922 C 0.30685 0.86535 0.79851 0.0
C923 C 0.30182 0.85276 0.78238 0.0
C924 C 0.32041 0.86303 0.8117 0.0
C925 C 0.33995 0.82595 0.83043 0.0
H926 H 0.37599 0.8664 0.85565 0.0
C927 C 0.38949 0.81204 0.88939 0.0
C928 C 0.39276 0.82465 0.90567 0.0
C929 C 0.38065 0.81626 0.87283 0.0
C930 C 0.36591 0.85497 0.84885 0.0
H931 H 0.3078 0.82842 0.76694 0.0
H932 H 0.33143 0.82441 0.78997 0.0
H933 H 0.35675 0.87275 0.82908 0.0
H934 H 0.38894 0.85129 0.91753 0.0
H935 H 0.37312 0.85852 0.88879 0.0
H936 H 0.3485 0.80826 0.85049 0.0
C937 C 0.32473 0.83595 0.7925 0.0
C938 C 0.35494 0.85861 0.8336 0.0
C939 C 0.31125 0.83832 0.77926 0.0
C940 C 0.38692 0.8415 0.90504 0.0
C941 C 0.37794 0.84566 0.88854 0.0
C942 C 0.35079 0.82234 0.84573 0.0
C943 C 0.32915 0.84802 0.80909 0.0
C944 C 0.34176 0.84415 0.82433 0.0
C945 C 0.37454 0.83301 0.87228 0.0
C946 C 0.3638 0.83681 0.85526 0.0
H947 H 0.2999 0.87666 0.80132 0.0
H948 H 0.32344 0.87249 0.82441 0.0
H949 H 0.32968 0.81457 0.82381 0.0
H950 H 0.39353 0.79878 0.88954 0.0
H951 H 0.37846 0.80628 0.86051 0.0
C952 C 0.77714 0.76855 0.29733 0.0
C953 C 0.76454 0.76794 0.2819 0.0
C954 C 0.77849 0.78201 0.31267 0.0
C955 C 0.75238 0.8143 0.3361 0.0
H956 H 0.7998 0.83978 0.35787 0.0
C957 C 0.78594 0.88416 0.38758 0.0
C958 C 0.77254 0.88285 0.40184 0.0
C959 C 0.7853 0.8696 0.3736 0.0
C960 C 0.78646 0.83288 0.35186 0.0
H961 H 0.74367 0.78121 0.27042 0.0
H962 H 0.74623 0.80464 0.29681 0.0
H963 H 0.79808 0.81546 0.33213 0.0
H964 H 0.7486 0.8649 0.41325 0.0
H965 H 0.74755 0.83941 0.38901 0.0
H966 H 0.74076 0.83205 0.35528 0.0
C967 C 0.75482 0.79455 0.29734 0.0
C968 C 0.78546 0.81877 0.33728 0.0
C969 C 0.75344 0.78113 0.28211 0.0
C970 C 0.75883 0.86647 0.40214 0.0
C971 C 0.75823 0.85189 0.38823 0.0
C972 C 0.75338 0.82841 0.3506 0.0
C973 C 0.76726 0.79512 0.31288 0.0
C974 C 0.76841 0.80943 0.3291 0.0
C975 C 0.77139 0.85331 0.37371 0.0
C976 C 0.77042 0.83796 0.3586 0.0
H977 H 0.78587 0.75858 0.29762 0.0
H978 H 0.78812 0.78199 0.3245 0.0
H979 H 0.739 0.80722 0.33032 0.0
H980 H 0.7969 0.89646 0.38724 0.0
H981 H 0.79558 0.87124 0.36255 0.0
C982 C 0.66771 0.3142 0.77486 0.0
C983 C 0.67463 0.29834 0.77833 0.0
C984 C 0.65728 0.32138 0.78872 0.0
C985 C 0.632 0.31159 0.83425 0.0
H986 H 0.64903 0.36476 0.84526 0.0
C987 C 0.62028 0.34894 0.90697 0.0
C988 C 0.61759 0.36723 0.90688 0.0
C989 C 0.62403 0.33969 0.88985 0.0
C990 C 0.6438 0.34997 0.84219 0.0
H991 H 0.67499 0.27686 0.79856 0.0
H992 H 0.65691 0.28947 0.82281 0.0
H993 H 0.66076 0.34977 0.81759 0.0
H994 H 0.61665 0.39017 0.88877 0.0
H995 H 0.62272 0.37389 0.85877 0.0
H996 H 0.61531 0.3118 0.85919 0.0
C997 C 0.65947 0.29632 0.80933 0.0
C998 C 0.65055 0.34136 0.82629 0.0
C999 C 0.66991 0.28914 0.79545 0.0
C1000 C 0.6184 0.37598 0.88924 0.0
C1001 C 0.62206 0.36671 0.8721 0.0
C1002 C 0.62519 0.32023 0.85017 0.0
C1003 C 0.65352 0.31285 0.80637 0.0
C1004 C 0.64492 0.32204 0.82226 0.0
C1005 C 0.62527 0.34858 0.87226 0.0
C1006 C 0.6312 0.3395 0.85447 0.0
H1007 H 0.67094 0.32154 0.76174 0.0
H1008 H 0.65259 0.33393 0.78586 0.0
H1009 H 0.62726 0.29671 0.83141 0.0
H1010 H 0.62005 0.34201 0.92043 0.0
H1011 H 0.62673 0.32586 0.89058 0.0
C1012 C 0.2697 0.90712 0.69582 0.0
C1013 C 0.26793 0.91161 0.7156 0.0
C1014 C 0.27718 0.92098 0.68335 0.0
C1015 C 0.30919 0.96588 0.6832 0.0
H1016 H 0.28752 0.96962 0.63274 0.0
C1017 C 0.34322 0.02215 0.63241 0.0
C1018 C 0.34314 0.01686 0.61259 0.0
C1019 C 0.33228 0.01063 0.64512 0.0
C1020 C 0.29388 0.96866 0.64669 0.0
H1021 H 0.27238 0.9342 0.73774 0.0
H1022 H 0.28572 0.95833 0.71597 0.0
H1023 H 0.27175 0.94667 0.65452 0.0
H1024 H 0.33183 -0.00471 0.59064 0.0
H1025 H 0.31319 0.9749 0.6128 0.0
H1026 H 0.33167 0.9872 0.67527 0.0
C1027 C 0.28126 0.94409 0.71016 0.0
C1028 C 0.28478 0.95555 0.65918 0.0
C1029 C 0.27355 0.93029 0.72258 0.0
C1030 C 0.33187 -0.00014 0.60578 0.0
C1031 C 0.32113 0.98823 0.61851 0.0
C1032 C 0.31841 0.97879 0.67065 0.0
C1033 C 0.28326 0.93955 0.69045 0.0
C1034 C 0.2924 0.95398 0.67751 0.0
C1035 C 0.32133 0.99335 0.6384 0.0
C1036 C 0.31094 0.98029 0.65216 0.0
H1037 H 0.26546 0.89287 0.69 0.0
H1038 H 0.2787 0.91708 0.66824 0.0
H1039 H 0.31549 0.96479 0.69716 0.0
H1040 H 0.35197 0.03503 0.63819 0.0
H1041 H 0.33261 0.01521 0.66027 0.0
C1042 C 0.70444 0.74009 0.16795 0.0
C1043 C 0.71629 0.75494 0.1783 0.0
C1044 C 0.69141 0.74354 0.15468 0.0
C1045 C 0.67764 0.78188 0.12857 0.0
H1046 H 0.62873 0.75105 0.13145 0.0
C1047 C 0.6161 0.80324 0.09247 0.0
C1048 C 0.60002 0.80087 0.10329 0.0
C1049 C 0.6303 0.79463 0.0976 0.0
C1050 C 0.64229 0.75987 0.13052 0.0
H1051 H 0.72421 0.78505 0.18229 0.0
H1052 H 0.70138 0.79103 0.1598 0.0
H1053 H 0.65427 0.74216 0.14781 0.0
H1054 H 0.58631 0.7878 0.12797 0.0
H1055 H 0.61125 0.77343 0.13744 0.0
H1056 H 0.66555 0.80036 0.11262 0.0
C1057 C 0.70227 0.77671 0.16148 0.0
C1058 C 0.65703 0.75459 0.13966 0.0
C1059 C 0.71532 0.77327 0.17457 0.0
C1060 C 0.59842 0.78961 0.1192 0.0
C1061 C 0.61271 0.78125 0.12452 0.0
C1062 C 0.66289 0.7873 0.11969 0.0
C1063 C 0.68993 0.76192 0.15157 0.0
C1064 C 0.67482 0.76584 0.13929 0.0
C1065 C 0.62896 0.78385 0.11395 0.0
C1066 C 0.64492 0.77664 0.121 0.0
H1067 H 0.70492 0.72579 0.17042 0.0
H1068 H 0.68231 0.73181 0.1471 0.0
H1069 H 0.69121 0.79067 0.12758 0.0
H1070 H 0.61789 0.81202 0.08025 0.0
H1071 H 0.64246 0.79674 0.08892 0.0
C1072 C 0.7196 0.22449 0.66644 0.0
C1073 C 0.72571 0.22836 0.6858 0.0
C1074 C 0.72187 0.20823 0.65633 0.0
C1075 C 0.73135 0.16152 0.66427 0.0
H1076 H 0.74114 0.16158 0.60935 0.0
C1077 C 0.75172 0.09965 0.6223 0.0
C1078 C 0.74174 0.09325 0.60502 0.0
C1079 C 0.75036 0.11653 0.6317 0.0
C1080 C 0.73832 0.16137 0.62467 0.0
H1081 H 0.73938 0.21842 0.70963 0.0
H1082 H 0.74393 0.19045 0.69188 0.0
H1083 H 0.73794 0.19036 0.62675 0.0
H1084 H 0.72214 0.09941 0.58426 0.0
H1085 H 0.72018 0.12922 0.60045 0.0
H1086 H 0.73217 0.13259 0.66217 0.0
C1087 C 0.73686 0.19963 0.6846 0.0
C1088 C 0.73639 0.17782 0.63465 0.0
C1089 C 0.73436 0.21575 0.69477 0.0
C1090 C 0.73036 0.10415 0.5973 0.0
C1091 C 0.7292 0.12119 0.60657 0.0
C1092 C 0.73353 0.14517 0.65434 0.0
C1093 C 0.73054 0.19556 0.66527 0.0
C1094 C 0.73282 0.17811 0.65459 0.0
C1095 C 0.73903 0.12742 0.62397 0.0
C1096 C 0.73698 0.14491 0.63444 0.0
H1097 H 0.7128 0.2339 0.65915 0.0
H1098 H 0.71655 0.20548 0.64159 0.0
H1099 H 0.72822 0.16104 0.67949 0.0
H1100 H 0.76034 0.09138 0.62874 0.0
H1101 H 0.75813 0.12104 0.64507 0.0
C1102 C 0.33161 0.36179 0.23036 0.0
C1103 C 0.32799 0.37735 0.24098 0.0
C1104 C 0.34606 0.36388 0.21741 0.0
C1105 C 0.38879 0.39693 0.20474 0.0
H1106 H 0.38156 0.36896 0.15515 0.0
C1107 C 0.43765 0.41528 0.14168 0.0
C1108 C 0.44352 0.40044 0.132 0.0
C1109 C 0.42343 0.41185 0.1548 0.0
C1110 C 0.3838 0.37674 0.16901 0.0
H1111 H 0.33676 0.40728 0.24635 0.0
H1112 H 0.3616 0.41095 0.22359 0.0
H1113 H 0.3572 0.36398 0.17878 0.0
H1114 H 0.4394 0.37034 0.12889 0.0
H1115 H 0.41421 0.36435 0.15156 0.0
H1116 H 0.41524 0.40996 0.19477 0.0
C1117 C 0.35356 0.39707 0.2255 0.0
C1118 C 0.3699 0.37385 0.18259 0.0
C1119 C 0.33922 0.39498 0.2385 0.0
C1120 C 0.43486 0.38206 0.13575 0.0
C1121 C 0.42049 0.37863 0.14874 0.0
C1122 C 0.40259 0.39993 0.19112 0.0
C1123 C 0.35714 0.38157 0.21474 0.0
C1124 C 0.37218 0.38401 0.20058 0.0
C1125 C 0.41478 0.3935 0.15856 0.0
C1126 C 0.4002 0.38996 0.17308 0.0
H1127 H 0.32325 0.348 0.23198 0.0
H1128 H 0.34858 0.3516 0.20957 0.0
H1129 H 0.39118 0.40472 0.21858 0.0
H1130 H 0.44431 0.42956 0.13933 0.0
H1131 H 0.41922 0.42357 0.16208 0.0
C1132 C 0.78564 0.71038 0.75084 0.0
C1133 C 0.77099 0.70175 0.73828 0.0
C1134 C 0.79997 0.70152 0.75468 0.0
C1135 C 0.82184 0.66351 0.73624 0.0
H1136 H 0.84161 0.66726 0.78873 0.0
C1137 C 0.87003 0.62613 0.78693 0.0
C1138 C 0.8843 0.62493 0.77424 0.0
C1139 C 0.85669 0.63594 0.7822 0.0
C1140 C 0.83617 0.66594 0.77402 0.0
H1141 H 0.7599 0.67704 0.71985 0.0
H1142 H 0.7847 0.66141 0.72684 0.0
H1143 H 0.81721 0.68309 0.78115 0.0
H1144 H 0.89532 0.63238 0.74618 0.0
H1145 H 0.8723 0.65003 0.73812 0.0
H1146 H 0.84039 0.64581 0.72929 0.0
C1147 C 0.78531 0.67518 0.73347 0.0
C1148 C 0.82232 0.67524 0.76961 0.0
C1149 C 0.77102 0.68409 0.72955 0.0
C1150 C 0.88471 0.63342 0.75646 0.0
C1151 C 0.8714 0.64335 0.75176 0.0
C1152 C 0.83565 0.65413 0.74068 0.0
C1153 C 0.79994 0.68376 0.74613 0.0
C1154 C 0.81494 0.67411 0.75068 0.0
C1155 C 0.85723 0.64475 0.7646 0.0
C1156 C 0.84292 0.65515 0.75966 0.0
H1157 H 0.7861 0.72404 0.75771 0.0
H1158 H 0.81115 0.70868 0.76425 0.0
H1159 H 0.81663 0.66251 0.72146 0.0
H1160 H 0.86911 0.61931 0.80049 0.0
H1161 H 0.84574 0.63633 0.79223 0.0
C1162 C 0.8049 0.30292 0.21688 0.0
C1163 C 0.80483 0.28393 0.21327 0.0
C1164 C 0.8208 0.31651 0.21451 0.0
C1165 C 0.86264 0.32414 0.18644 0.0
H1166 H 0.87534 0.37011 0.21841 0.0
C1167 C 0.92226 0.38468 0.16794 0.0
C1168 C 0.91863 0.40263 0.16991 0.0
C1169 C 0.91018 0.36948 0.17526 0.0
C1170 C 0.87191 0.35739 0.20929 0.0
H1171 H 0.82174 0.26432 0.20532 0.0
H1172 H 0.8496 0.28815 0.20125 0.0
H1173 H 0.85131 0.34459 0.22854 0.0
H1174 H 0.8994 0.41868 0.18075 0.0
H1175 H 0.87817 0.39217 0.19326 0.0
H1176 H 0.88283 0.3371 0.1669 0.0
C1177 C 0.83723 0.29246 0.20569 0.0
C1178 C 0.85818 0.34276 0.21512 0.0
C1179 C 0.8213 0.27882 0.20814 0.0
C1180 C 0.90263 0.40504 0.17923 0.0
C1181 C 0.89056 0.38987 0.18651 0.0
C1182 C 0.87634 0.33879 0.18059 0.0
C1183 C 0.83703 0.31148 0.20844 0.0
C1184 C 0.85313 0.32611 0.20357 0.0
C1185 C 0.89417 0.3719 0.18461 0.0
C1186 C 0.88088 0.35572 0.19175 0.0
H1187 H 0.79248 0.30737 0.2209 0.0
H1188 H 0.82011 0.33103 0.21656 0.0
H1189 H 0.85891 0.31159 0.17708 0.0
H1190 H 0.93444 0.38241 0.16073 0.0
H1191 H 0.91342 0.35585 0.17367 0.0
C1192 C 0.20403 0.41145 0.76303 0.0
C1193 C 0.20729 0.39927 0.777 0.0
C1194 C 0.19034 0.42158 0.76567 0.0
C1195 C 0.16318 0.44029 0.80219 0.0
H1196 H 0.12606 0.43483 0.76138 0.0
C1197 C 0.09365 0.46103 0.81417 0.0
C1198 C 0.08438 0.46626 0.79826 0.0
C1199 C 0.11014 0.45521 0.81166 0.0
C1200 C 0.13647 0.43692 0.77279 0.0
H1201 H 0.19917 0.38858 0.80494 0.0
H1202 H 0.17549 0.40659 0.80969 0.0
H1203 H 0.15226 0.42052 0.75676 0.0
H1204 H 0.08626 0.47162 0.76778 0.0
H1205 H 0.11535 0.46227 0.76354 0.0
H1206 H 0.14764 0.45691 0.81817 0.0
C1207 C 0.18345 0.40817 0.79667 0.0
C1208 C 0.15145 0.4286 0.77014 0.0
C1209 C 0.1969 0.39778 0.79387 0.0
C1210 C 0.09277 0.46707 0.78018 0.0
C1211 C 0.10941 0.46158 0.77774 0.0
C1212 C 0.14835 0.4489 0.80474 0.0
C1213 C 0.1799 0.42 0.78249 0.0
C1214 C 0.16479 0.42998 0.7849 0.0
C1215 C 0.11804 0.45501 0.7933 0.0
C1216 C 0.13463 0.44711 0.79017 0.0
H1217 H 0.21181 0.41289 0.74989 0.0
H1218 H 0.18789 0.43067 0.75457 0.0
H1219 H 0.17342 0.44169 0.81373 0.0
H1220 H 0.08791 0.46087 0.82845 0.0
H1221 H 0.1163 0.45026 0.82403 0.0
C1222 C 0.21362 0.7825 0.25382 0.0
C1223 C 0.2277 0.78678 0.24042 0.0
C1224 C 0.20195 0.7648 0.2531 0.0
C1225 C 0.19796 0.7164 0.23221 0.0
H1226 H 0.14571 0.71257 0.23806 0.0
C1227 C 0.1436 0.65349 0.20192 0.0
C1228 C 0.12894 0.64622 0.21377 0.0
C1229 C 0.15598 0.67005 0.20751 0.0
C1230 C 0.16029 0.71341 0.23664 0.0
H1231 H 0.24058 0.77583 0.21581 0.0
H1232 H 0.22013 0.74535 0.21428 0.0
H1233 H 0.16684 0.74277 0.24377 0.0
H1234 H 0.11631 0.65021 0.24131 0.0
H1235 H 0.13774 0.67954 0.25082 0.0
H1236 H 0.19129 0.68718 0.22435 0.0
C1237 C 0.21827 0.75541 0.22564 0.0
C1238 C 0.17242 0.73069 0.23997 0.0
C1239 C 0.22994 0.77299 0.22642 0.0
C1240 C 0.12718 0.65568 0.23162 0.0
C1241 C 0.13945 0.67243 0.23709 0.0
C1242 C 0.18584 0.69921 0.22871 0.0
C1243 C 0.20411 0.75106 0.23893 0.0
C1244 C 0.19137 0.73245 0.23741 0.0
C1245 C 0.15396 0.67975 0.22508 0.0
C1246 C 0.16687 0.69762 0.23055 0.0
H1247 H 0.21159 0.79281 0.26483 0.0
H1248 H 0.19129 0.76185 0.26367 0.0
H1249 H 0.2125 0.71716 0.23056 0.0
H1250 H 0.14546 0.64631 0.18827 0.0
H1251 H 0.16699 0.67544 0.19791 0.0
C1252 C 0.74066 0.77522 0.67082 0.0
C1253 C 0.74939 0.78005 0.68906 0.0
C1254 C 0.74323 0.78794 0.65627 0.0
C1255 C 0.77349 0.83075 0.64043 0.0
H1256 H 0.72949 0.83775 0.61415 0.0
C1257 C 0.77421 0.89185 0.59105 0.0
C1258 C 0.76288 0.88833 0.57428 0.0
C1259 C 0.77292 0.87848 0.60489 0.0
C1260 C 0.74196 0.83581 0.62112 0.0
H1261 H 0.76826 0.80177 0.70604 0.0
H1262 H 0.7728 0.8239 0.68057 0.0
H1263 H 0.72714 0.81424 0.63803 0.0
H1264 H 0.74206 0.86774 0.5584 0.0
H1265 H 0.74 0.84426 0.58234 0.0
H1266 H 0.78834 0.85221 0.62344 0.0
C1267 C 0.76397 0.81028 0.67756 0.0
C1268 C 0.74059 0.82233 0.63483 0.0
C1269 C 0.7613 0.79761 0.69217 0.0
C1270 C 0.75062 0.87098 0.57142 0.0
C1271 C 0.74942 0.85757 0.58517 0.0
C1272 C 0.77488 0.84415 0.62661 0.0
C1273 C 0.75469 0.8057 0.65958 0.0
C1274 C 0.75633 0.81968 0.64465 0.0
C1275 C 0.76051 0.86117 0.60213 0.0
C1276 C 0.75911 0.84688 0.61681 0.0
H1277 H 0.73142 0.76181 0.66792 0.0
H1278 H 0.73609 0.78395 0.64246 0.0
H1279 H 0.78587 0.8289 0.64767 0.0
H1280 H 0.78407 0.90494 0.59345 0.0
H1281 H 0.78156 0.88179 0.61784 0.0
C1282 C 0.6931 0.27425 0.17039 0.0
C1283 C 0.71121 0.27635 0.16404 0.0
C1284 C 0.68073 0.28291 0.16107 0.0
C1285 C 0.68094 0.32385 0.13336 0.0
H1286 H 0.62908 0.30239 0.12495 0.0
C1287 C 0.63251 0.36724 0.10351 0.0
C1288 C 0.6156 0.36565 0.11268 0.0
C1289 C 0.64346 0.35442 0.10658 0.0
C1290 C 0.64352 0.30862 0.12731 0.0
H1291 H 0.73018 0.28831 0.14222 0.0
H1292 H 0.7086 0.30334 0.12603 0.0
H1293 H 0.64945 0.28303 0.13622 0.0
H1294 H 0.59696 0.34954 0.13228 0.0
H1295 H 0.61616 0.32737 0.13797 0.0
H1296 H 0.67507 0.34956 0.12521 0.0
C1297 C 0.70405 0.29521 0.13835 0.0
C1298 C 0.65517 0.29751 0.13373 0.0
C1299 C 0.71638 0.28652 0.1476 0.0
C1300 C 0.60978 0.35088 0.12477 0.0
C1301 C 0.62077 0.33814 0.12794 0.0
C1302 C 0.66931 0.33497 0.12708 0.0
C1303 C 0.68624 0.29388 0.14527 0.0
C1304 C 0.67398 0.30508 0.13702 0.0
C1305 C 0.63789 0.33992 0.11914 0.0
C1306 C 0.65041 0.32757 0.12419 0.0
H1307 H 0.68867 0.26647 0.18298 0.0
H1308 H 0.66712 0.28171 0.16681 0.0
H1309 H 0.69531 0.33019 0.13607 0.0
H1310 H 0.63747 0.37865 0.09434 0.0
H1311 H 0.65646 0.35609 0.09938 0.0
C1312 C 0.29655 0.32967 0.72929 0.0
C1313 C 0.2834 0.33956 0.7237 0.0
C1314 C 0.29857 0.31368 0.71865 0.0
C1315 C 0.28934 0.2887 0.67077 0.0
H1316 H 0.29891 0.24751 0.69903 0.0
C1317 C 0.29468 0.21676 0.63477 0.0
C1318 C 0.30945 0.20949 0.64141 0.0
C1319 C 0.29075 0.2328 0.64391 0.0
C1320 C 0.29638 0.25895 0.69093 0.0
H1321 H 0.26208 0.34045 0.70241 0.0
H1322 H 0.26549 0.31223 0.68381 0.0
H1323 H 0.29282 0.27487 0.71672 0.0
H1324 H 0.33134 0.21305 0.66302 0.0
H1325 H 0.32452 0.24102 0.67896 0.0
H1326 H 0.29288 0.27255 0.64493 0.0
C1327 C 0.27435 0.31703 0.6964 0.0
C1328 C 0.2929 0.27464 0.70105 0.0
C1329 C 0.27234 0.33313 0.70709 0.0
C1330 C 0.32008 0.21851 0.65742 0.0
C1331 C 0.31607 0.23441 0.66663 0.0
C1332 C 0.29273 0.27289 0.6606 0.0
C1333 C 0.28744 0.30707 0.70214 0.0
C1334 C 0.28967 0.28985 0.69113 0.0
C1335 C 0.30127 0.24164 0.6601 0.0
C1336 C 0.2966 0.258 0.67061 0.0
H1337 H 0.30539 0.33428 0.74193 0.0
H1338 H 0.30903 0.30659 0.72327 0.0
H1339 H 0.28703 0.30023 0.66269 0.0
H1340 H 0.286 0.20985 0.62273 0.0
H1341 H 0.27914 0.23796 0.6387 0.0
C1342 C 0.32871 0.86214 0.22243 0.0
C1343 C 0.30996 0.8584 0.2172 0.0
C1344 C 0.34184 0.86096 0.20848 0.0
C1345 C 0.34603 0.83491 0.16354 0.0
H1346 H 0.39396 0.86794 0.1615 0.0
C1347 C 0.40083 0.8171 0.11257 0.0
C1348 C 0.41892 0.8207 0.12006 0.0
C1349 C 0.38738 0.8244 0.1222 0.0
C1350 C 0.38069 0.85849 0.16198 0.0
H1351 H 0.2904 0.85156 0.19304 0.0
H1352 H 0.31336 0.84935 0.16877 0.0
H1353 H 0.37076 0.87657 0.18252 0.0
H1354 H 0.43698 0.83433 0.14367 0.0
H1355 H 0.41346 0.84657 0.16084 0.0
H1356 H 0.35604 0.81636 0.14387 0.0
C1357 C 0.31784 0.85311 0.18367 0.0
C1358 C 0.36739 0.86351 0.17394 0.0
C1359 C 0.30472 0.85448 0.19757 0.0
C1360 C 0.42323 0.83167 0.13739 0.0
C1361 C 0.40975 0.83876 0.14715 0.0
C1362 C 0.35936 0.82979 0.15177 0.0
C1363 C 0.33647 0.85586 0.18908 0.0
C1364 C 0.35001 0.85165 0.17501 0.0
C1365 C 0.3916 0.83508 0.13978 0.0
C1366 C 0.37696 0.84138 0.15102 0.0
H1367 H 0.3332 0.86526 0.23741 0.0
H1368 H 0.3561 0.86305 0.21308 0.0
H1369 H 0.33284 0.82535 0.16431 0.0
H1370 H 0.39698 0.80843 0.09942 0.0
H1371 H 0.37362 0.82145 0.11596 0.0
C1372 C 0.77082 0.17929 0.25526 0.0
C1373 C 0.75898 0.19176 0.25557 0.0
C1374 C 0.77121 0.16763 0.27049 0.0
C1375 C 0.75818 0.16198 0.32189 0.0
H1376 H 0.76795 0.1128 0.31157 0.0
C1377 C 0.75768 0.10936 0.38151 0.0
C1378 C 0.7734 0.10176 0.38227 0.0
C1379 C 0.75431 0.11937 0.3657 0.0
C1380 C 0.76524 0.12652 0.31465 0.0
H1381 H 0.73804 0.20154 0.27196 0.0
H1382 H 0.73828 0.18079 0.29825 0.0
H1383 H 0.76481 0.13209 0.28467 0.0
H1384 H 0.79762 0.09829 0.36681 0.0
H1385 H 0.79154 0.11543 0.33908 0.0
H1386 H 0.75843 0.15619 0.35192 0.0
C1387 C 0.74762 0.18033 0.28649 0.0
C1388 C 0.76354 0.13764 0.29926 0.0
C1389 C 0.7474 0.19217 0.27135 0.0
C1390 C 0.78537 0.10392 0.36663 0.0
C1391 C 0.78187 0.11369 0.35073 0.0
C1392 C 0.75966 0.15075 0.33727 0.0
C1393 C 0.7596 0.16795 0.28631 0.0
C1394 C 0.76028 0.15565 0.30267 0.0
C1395 C 0.76644 0.12171 0.35021 0.0
C1396 C 0.76346 0.13302 0.33382 0.0
H1397 H 0.78002 0.17874 0.24337 0.0
H1398 H 0.7809 0.15861 0.26997 0.0
H1399 H 0.75594 0.17585 0.32516 0.0
H1400 H 0.74818 0.10783 0.39331 0.0
H1401 H 0.74224 0.12528 0.36558 0.0
C1402 C 0.2988 0.38342 0.82315 0.0
C1403 C 0.29927 0.39562 0.80809 0.0
C1404 C 0.31279 0.38656 0.83729 0.0
C1405 C 0.35066 0.42213 0.85989 0.0
H1406 H 0.37095 0.37955 0.87143 0.0
C1407 C 0.41802 0.4296 0.90452 0.0
C1408 C 0.41896 0.41587 0.91764 0.0
C1409 C 0.40314 0.4274 0.89151 0.0
C1410 C 0.3653 0.39154 0.8686 0.0
H1411 H 0.31447 0.42112 0.79656 0.0
H1412 H 0.3389 0.42664 0.82138 0.0
H1413 H 0.34511 0.37559 0.84862 0.0
H1414 H 0.40479 0.38938 0.92786 0.0
H1415 H 0.37867 0.3856 0.90531 0.0
H1416 H 0.37079 0.43808 0.87996 0.0
C1417 C 0.32766 0.41464 0.82219 0.0
C1418 C 0.3505 0.38926 0.85551 0.0
C1419 C 0.3137 0.41144 0.80794 0.0
C1420 C 0.40456 0.40003 0.91768 0.0
C1421 C 0.38965 0.39786 0.90472 0.0
C1422 C 0.36543 0.4244 0.87309 0.0
C1423 C 0.32752 0.40203 0.83679 0.0
C1424 C 0.34303 0.40453 0.85099 0.0
C1425 C 0.38877 0.4115 0.89145 0.0
C1426 C 0.37295 0.40913 0.87757 0.0
H1427 H 0.28786 0.37113 0.82376 0.0
H1428 H 0.31217 0.37676 0.84854 0.0
H1429 H 0.34507 0.43411 0.85684 0.0
H1430 H 0.42883 0.44204 0.90432 0.0
H1431 H 0.40301 0.43808 0.88136 0.0
C1432 C 0.31461 0.89605 0.32958 0.0
C1433 C 0.29716 0.89376 0.3208 0.0
C1434 C 0.32085 0.9105 0.34354 0.0
C1435 C 0.311 0.95523 0.36397 0.0
H1436 H 0.34291 0.94711 0.40583 0.0
C1437 C 0.3283 0.00232 0.43476 0.0
C1438 C 0.34702 0.00772 0.44004 0.0
C1439 C 0.32239 0.98936 0.41927 0.0
C1440 C 0.33411 0.94958 0.39413 0.0
H1441 H 0.27241 0.90458 0.31992 0.0
H1442 H 0.28286 0.92923 0.34497 0.0
H1443 H 0.33177 0.92217 0.38131 0.0
H1444 H 0.37436 0.00482 0.4322 0.0
H1445 H 0.36392 0.98155 0.40565 0.0
H1446 H 0.31284 0.98247 0.37755 0.0
C1447 C 0.29207 0.92034 0.34065 0.0
C1448 C 0.32778 0.93534 0.37998 0.0
C1449 C 0.28598 0.9061 0.32637 0.0
C1450 C 0.3598 0.0005 0.42892 0.0
C1451 C 0.35386 0.98726 0.41369 0.0
C1452 C 0.31706 0.96935 0.37837 0.0
C1453 C 0.30963 0.92279 0.3494 0.0
C1454 C 0.31621 0.93798 0.36461 0.0
C1455 C 0.33509 0.98145 0.40888 0.0
C1456 C 0.32874 0.96666 0.3935 0.0
H1457 H 0.32361 0.88687 0.32541 0.0
H1458 H 0.3346 0.91212 0.34955 0.0
H1459 H 0.30242 0.95798 0.35223 0.0
H1460 H 0.31818 0.00792 0.44281 0.0
H1461 H 0.30785 0.9851 0.41578 0.0
C1462 C 0.67405 0.76475 0.7739 0.0
C1463 C 0.6894 0.75762 0.77887 0.0
C1464 C 0.66146 0.76752 0.78788 0.0
C1465 C 0.64413 0.75531 0.83597 0.0
H1466 H 0.63577 0.80554 0.83928 0.0
C1467 C 0.61194 0.78514 0.90265 0.0
C1468 C 0.60121 0.79833 0.89991 0.0
C1469 C 0.62094 0.77845 0.88714 0.0
C1470 C 0.63758 0.79133 0.83839 0.0
H1471 H 0.703 0.74679 0.80217 0.0
H1472 H 0.6808 0.75149 0.82661 0.0
H1473 H 0.6541 0.79623 0.81339 0.0
H1474 H 0.5915 0.81484 0.87861 0.0
H1475 H 0.60637 0.80253 0.85146 0.0
H1476 H 0.62745 0.75031 0.86088 0.0
C1477 C 0.67863 0.755 0.81188 0.0
C1478 C 0.64818 0.78603 0.82356 0.0
C1479 C 0.69136 0.7524 0.79791 0.0
C1480 C 0.59946 0.8045 0.88123 0.0
C1481 C 0.60821 0.7976 0.86567 0.0
C1482 C 0.63328 0.76053 0.8507 0.0
C1483 C 0.66383 0.76303 0.80708 0.0
C1484 C 0.6517 0.76805 0.82229 0.0
C1485 C 0.61935 0.78473 0.86847 0.0
C1486 C 0.63 0.77868 0.85221 0.0
H1487 H 0.67205 0.76882 0.75934 0.0
H1488 H 0.65004 0.77353 0.78377 0.0
H1489 H 0.64655 0.74131 0.83522 0.0
H1490 H 0.61375 0.78037 0.91695 0.0
H1491 H 0.62964 0.76884 0.88998 0.0
loop_
_geom_bond_atom_site_label_1
_geom_bond_atom_site_label_2
_geom_bond_distance
_geom_bond_site_symmetry_2
_ccdc_geom_bond_type
O0 Cd1 2.300 . S
O0 C7 1.275 . S
Cd1 O0 2.300 . S
Cd1 O9 2.381 . S
Cd1 O10 2.378 . S
O2 Cd3 2.385 . S
O2 C7 1.255 . S
Cd3 O2 2.385 . S
Cd3 O4 2.317 . S
O4 Cd3 2.317 . S
O4 C5 1.232 . S
C5 O4 1.232 . S
C5 O6 1.218 . S
O6 C5 1.218 . S
C7 O0 1.275 . S
C7 O2 1.255 . S
C8 O9 1.258 . S
C8 O10 1.256 . S
O9 Cd1 2.381 . S
O9 C8 1.258 . S
O10 Cd1 2.378 . S
O10 C8 1.256 . S
O11 Cd12 2.300 . S
O11 C18 1.275 . S
Cd12 O11 2.300 . S
Cd12 O20 2.381 . S
Cd12 O21 2.378 . S
O13 Cd14 2.385 . S
O13 C18 1.255 . S
Cd14 O13 2.385 . S
Cd14 O15 2.317 . S
O15 Cd14 2.317 . S
O15 C16 1.232 . S
C16 O15 1.232 . S
C16 O17 1.218 . S
O17 C16 1.218 . S
C18 O11 1.275 . S
C18 O13 1.255 . S
C19 O20 1.258 . S
C19 O21 1.256 . S
O20 Cd12 2.381 . S
O20 C19 1.258 . S
O21 Cd12 2.378 . S
O21 C19 1.256 . S
O22 Cd23 2.300 . S
O22 C29 1.275 . S
Cd23 O22 2.300 . S
Cd23 O31 2.381 . S
Cd23 O32 2.378 . S
O24 Cd25 2.385 . S
O24 C29 1.255 . S
Cd25 O24 2.385 . S
Cd25 O26 2.317 . S
O26 Cd25 2.317 . S
O26 C27 1.232 . S
C27 O26 1.232 . S
C27 O28 1.218 . S
O28 C27 1.218 . S
C29 O22 1.275 . S
C29 O24 1.255 . S
C30 O31 1.258 . S
C30 O32 1.256 . S
O31 Cd23 2.381 . S
O31 C30 1.258 . S
O32 Cd23 2.378 . S
O32 C30 1.256 . S
O33 Cd34 2.300 . S
O33 C40 1.275 . S
Cd34 O33 2.300 . S
Cd34 O42 2.381 . S
Cd34 O43 2.378 . S
O35 Cd36 2.385 . S
O35 C40 1.255 . S
Cd36 O35 2.385 . S
Cd36 O37 2.317 . S
O37 Cd36 2.317 . S
O37 C38 1.232 . S
C38 O37 1.232 . S
C38 O39 1.218 . S
O39 C38 1.218 . S
C40 O33 1.275 . S
C40 O35 1.255 . S
C41 O42 1.258 . S
C41 O43 1.256 . S
O42 Cd34 2.381 . S
O42 C41 1.258 . S
O43 Cd34 2.378 . S
O43 C41 1.256 . S
O44 Cd45 2.300 . S
O44 C51 1.275 . S
Cd45 O44 2.300 . S
Cd45 O53 2.381 . S
Cd45 O54 2.378 . S
O46 Cd47 2.385 . S
O46 C51 1.255 . S
Cd47 O46 2.385 . S
Cd47 O48 2.317 . S
O48 Cd47 2.317 . S
O48 C49 1.232 . S
C49 O48 1.232 . S
C49 O50 1.218 . S
O50 C49 1.218 . S
C51 O44 1.275 . S
C51 O46 1.255 . S
C52 O53 1.258 . S
C52 O54 1.256 . S
O53 Cd45 2.381 . S
O53 C52 1.258 . S
O54 Cd45 2.378 . S
O54 C52 1.256 . S
O55 Cd56 2.300 . S
O55 C62 1.275 . S
Cd56 O55 2.300 . S
Cd56 O64 2.381 . S
Cd56 O65 2.378 . S
O57 Cd58 2.385 . S
O57 C62 1.255 . S
Cd58 O57 2.385 . S
Cd58 O59 2.317 . S
O59 Cd58 2.317 . S
O59 C60 1.232 . S
C60 O59 1.232 . S
C60 O61 1.218 . S
O61 C60 1.218 . S
C62 O55 1.275 . S
C62 O57 1.255 . S
C63 O64 1.258 . S
C63 O65 1.256 . S
O64 Cd56 2.381 . S
O64 C63 1.258 . S
O65 Cd56 2.378 . S
O65 C63 1.256 . S
O66 Cd67 2.300 . S
O66 C73 1.275 . S
Cd67 O66 2.300 . S
Cd67 O75 2.381 . S
Cd67 O76 2.378 . S
O68 Cd69 2.385 . S
O68 C73 1.255 . S
Cd69 O68 2.385 . S
Cd69 O70 2.317 . S
O70 Cd69 2.317 . S
O70 C71 1.232 . S
C71 O70 1.232 . S
C71 O72 1.218 . S
O72 C71 1.218 . S
C73 O66 1.275 . S
C73 O68 1.255 . S
C74 O75 1.258 . S
C74 O76 1.256 . S
O75 Cd67 2.381 . S
O75 C74 1.258 . S
O76 Cd67 2.378 . S
O76 C74 1.256 . S
O77 Cd78 2.300 . S
O77 C84 1.275 . S
Cd78 O77 2.300 . S
Cd78 O86 2.381 . S
Cd78 O87 2.378 . S
O79 Cd80 2.385 . S
O79 C84 1.255 . S
Cd80 O79 2.385 . S
Cd80 O81 2.317 . S
O81 Cd80 2.317 . S
O81 C82 1.232 . S
C82 O81 1.232 . S
C82 O83 1.218 . S
O83 C82 1.218 . S
C84 O77 1.275 . S
C84 O79 1.255 . S
C85 O86 1.258 . S
C85 O87 1.256 . S
O86 Cd78 2.381 . S
O86 C85 1.258 . S
O87 Cd78 2.378 . S
O87 C85 1.256 . S
C88 C89 1.560 . S
C88 H149 0.959 . S
C88 H150 0.959 . S
C88 H151 0.960 . S
C89 C88 1.560 . S
C89 O144 1.426 . S
C89 H148 0.980 . S
C90 C91 1.407 . S
C90 C95 1.418 . S
C90 O144 1.334 . S
C91 C90 1.407 . S
C91 C92 1.360 . S
C91 H152 0.929 . S
C92 C91 1.360 . S
C92 C93 1.401 . S
C92 C96 1.527 . S
C93 C92 1.401 . S
C93 C94 1.405 . S
C93 C126 1.587 1_655 S
C94 C93 1.405 . S
C94 C95 1.332 . S
C94 C97 1.496 1_655 S
C95 C90 1.418 . S
C95 C94 1.332 . S
C95 H153 0.929 . S
C96 C92 1.527 . S
C96 H154 0.959 . S
C96 H155 0.961 . S
C96 H156 0.961 . S
C97 C94 1.496 1_455 S
C97 H157 0.960 . S
C97 H158 0.960 . S
C97 H159 0.961 . S
C98 C99 1.517 . S
C98 H161 0.961 . S
C98 H162 0.960 . S
C98 H163 0.959 . S
C99 C98 1.517 . S
C99 O147 1.468 . S
C99 H160 0.980 . S
C100 C101 1.349 . S
C100 C105 1.367 . S
C100 O147 1.408 . S
C101 C100 1.349 . S
C101 C102 1.407 . S
C101 H164 0.930 . S
C102 C101 1.407 . S
C102 C103 1.449 . S
C102 C106 1.535 . S
C103 C102 1.449 . S
C103 C104 1.384 . S
C103 C128 1.553 . S
C104 C103 1.384 . S
C104 C105 1.364 . S
C104 C107 1.450 . S
C105 C100 1.367 . S
C105 C104 1.364 . S
C105 H165 0.931 . S
C106 C102 1.535 . S
C106 H166 0.959 . S
C106 H167 0.961 . S
C106 H168 0.959 . S
C107 C104 1.450 . S
C107 H169 0.960 . S
C107 H170 0.960 . S
C107 H171 0.960 . S
C108 C109 1.309 . S
C108 C113 1.304 . S
C108 O146 1.435 . S
C109 C108 1.309 . S
C109 C110 1.476 . S
C109 H173 0.930 . S
C110 C109 1.476 . S
C110 C111 1.400 . S
C110 C114 1.567 . S
C111 C110 1.400 . S
C111 C112 1.373 . S
C111 C133 1.432 . S
C112 C111 1.373 . S
C112 C113 1.339 . S
C112 C115 1.530 . S
C113 C108 1.304 . S
C113 C112 1.339 . S
C113 H174 0.930 . S
C114 C110 1.567 . S
C114 H175 0.961 . S
C114 H176 0.960 . S
C114 H177 0.958 . S
C115 C112 1.530 . S
C115 H178 0.961 . S
C115 H179 0.960 . S
C115 H180 0.960 . S
C116 C117 1.530 . S
C116 H182 0.961 . S
C116 H183 0.961 . S
C116 H184 0.959 . S
C117 C116 1.530 . S
C117 O145 1.412 . S
C117 H181 0.980 . S
C118 C119 1.288 . S
C118 C123 1.377 . S
C118 O145 1.393 . S
C119 C118 1.288 . S
C119 C120 1.369 . S
C119 H185 0.932 . S
C120 C119 1.369 . S
C120 C121 1.398 . S
C120 C124 1.527 1_655 S
C121 C120 1.398 . S
C121 C122 1.380 . S
C121 C135 1.497 1_655 S
C122 C121 1.380 . S
C122 C123 1.383 . S
C122 C125 1.603 . S
C123 C118 1.377 . S
C123 C122 1.383 . S
C123 H186 0.929 . S
C124 C120 1.527 1_455 S
C124 H187 0.961 . S
C124 H188 0.959 . S
C124 H189 0.959 . S
C125 C122 1.603 . S
C125 H190 0.960 . S
C125 H191 0.961 . S
C125 H192 0.961 . S
C126 C93 1.587 1_455 S
C126 C127 1.360 . S
C126 C139 1.412 . S
C127 C126 1.360 . S
C127 C128 1.365 . S
C127 H193 0.929 . S
C128 C103 1.553 . S
C128 C127 1.365 . S
C128 C129 1.404 . S
C129 C128 1.404 . S
C129 C130 1.395 . S
C129 C140 1.451 . S
C130 C129 1.395 . S
C130 C131 1.322 . S
C130 H194 0.930 . S
C131 C130 1.322 . S
C131 C132 1.459 . S
C131 H195 0.929 . S
C132 C131 1.459 . S
C132 C133 1.445 . S
C132 C141 1.395 . S
C133 C111 1.432 . S
C133 C132 1.445 . S
C133 C134 1.370 . S
C134 C133 1.370 . S
C134 C135 1.438 . S
C134 H196 0.930 . S
C135 C121 1.497 1_455 S
C135 C134 1.438 . S
C135 C136 1.360 . S
C136 C135 1.360 . S
C136 C137 1.401 1_455 S
C136 C141 1.446 . S
C137 C136 1.401 1_655 S
C137 C138 1.347 . S
C137 H197 0.929 . S
C138 C137 1.347 . S
C138 C139 1.455 1_655 S
C138 H198 0.930 . S
C139 C126 1.412 . S
C139 C138 1.455 1_455 S
C139 C140 1.331 . S
C140 C129 1.451 . S
C140 C139 1.331 . S
C140 C141 1.497 . S
C141 C132 1.395 . S
C141 C136 1.446 . S
C141 C140 1.497 . S
C142 C143 1.582 . S
C142 H199 0.962 . S
C142 H200 0.959 . S
C142 H201 0.958 . S
C143 C142 1.582 . S
C143 O146 1.458 . S
C143 H172 0.980 . S
O144 C89 1.426 . S
O144 C90 1.334 . S
O145 C117 1.412 . S
O145 C118 1.393 . S
O146 C108 1.435 . S
O146 C143 1.458 . S
O147 C99 1.468 . S
O147 C100 1.408 . S
H148 C89 0.980 . S
H149 C88 0.959 . S
H150 C88 0.959 . S
H151 C88 0.960 . S
H152 C91 0.929 . S
H153 C95 0.929 . S
H154 C96 0.959 . S
H155 C96 0.961 . S
H156 C96 0.961 . S
H157 C97 0.960 . S
H158 C97 0.960 . S
H159 C97 0.961 . S
H160 C99 0.980 . S
H161 C98 0.961 . S
H162 C98 0.960 . S
H163 C98 0.959 . S
H164 C101 0.930 . S
H165 C105 0.931 . S
H166 C106 0.959 . S
H167 C106 0.961 . S
H168 C106 0.959 . S
H169 C107 0.960 . S
H170 C107 0.960 . S
H171 C107 0.960 . S
H172 C143 0.980 . S
H173 C109 0.930 . S
H174 C113 0.930 . S
H175 C114 0.961 . S
H176 C114 0.960 . S
H177 C114 0.958 . S
H178 C115 0.961 . S
H179 C115 0.960 . S
H180 C115 0.960 . S
H181 C117 0.980 . S
H182 C116 0.961 . S
H183 C116 0.961 . S
H184 C116 0.959 . S
H185 C119 0.932 . S
H186 C123 0.929 . S
H187 C124 0.961 . S
H188 C124 0.959 . S
H189 C124 0.959 . S
H190 C125 0.960 . S
H191 C125 0.961 . S
H192 C125 0.961 . S
H193 C127 0.929 . S
H194 C130 0.930 . S
H195 C131 0.929 . S
H196 C134 0.930 . S
H197 C137 0.929 . S
H198 C138 0.930 . S
H199 C142 0.962 . S
H200 C142 0.959 . S
H201 C142 0.958 . S
C202 C203 1.560 . S
C202 H263 0.959 . S
C202 H264 0.959 . S
C202 H265 0.960 . S
C203 C202 1.560 . S
C203 O258 1.426 . S
C203 H262 0.980 . S
C204 C205 1.407 . S
C204 C209 1.418 . S
C204 O258 1.334 . S
C205 C204 1.407 . S
C205 C206 1.360 . S
C205 H266 0.929 . S
C206 C205 1.360 . S
C206 C207 1.401 . S
C206 C210 1.527 . S
C207 C206 1.401 . S
C207 C208 1.405 . S
C207 C240 1.587 . S
C208 C207 1.405 . S
C208 C209 1.332 . S
C208 C211 1.496 . S
C209 C204 1.418 . S
C209 C208 1.332 . S
C209 H267 0.929 . S
C210 C206 1.527 . S
C210 H268 0.959 . S
C210 H269 0.961 . S
C210 H270 0.961 . S
C211 C208 1.496 . S
C211 H271 0.960 . S
C211 H272 0.960 . S
C211 H273 0.961 . S
C212 C213 1.517 . S
C212 H275 0.961 . S
C212 H276 0.960 . S
C212 H277 0.959 . S
C213 C212 1.517 . S
C213 O261 1.468 . S
C213 H274 0.980 . S
C214 C215 1.349 . S
C214 C219 1.367 . S
C214 O261 1.408 . S
C215 C214 1.349 . S
C215 C216 1.407 . S
C215 H278 0.930 . S
C216 C215 1.407 . S
C216 C217 1.449 . S
C216 C220 1.535 . S
C217 C216 1.449 . S
C217 C218 1.384 . S
C217 C242 1.553 . S
C218 C217 1.384 . S
C218 C219 1.364 . S
C218 C221 1.450 . S
C219 C214 1.367 . S
C219 C218 1.364 . S
C219 H279 0.931 . S
C220 C216 1.535 . S
C220 H280 0.959 . S
C220 H281 0.961 . S
C220 H282 0.959 . S
C221 C218 1.450 . S
C221 H283 0.960 . S
C221 H284 0.960 . S
C221 H285 0.960 . S
C222 C223 1.309 . S
C222 C227 1.304 . S
C222 O260 1.435 . S
C223 C222 1.309 . S
C223 C224 1.476 . S
C223 H287 0.930 . S
C224 C223 1.476 . S
C224 C225 1.400 . S
C224 C228 1.567 . S
C225 C224 1.400 . S
C225 C226 1.373 . S
C225 C247 1.432 . S
C226 C225 1.373 . S
C226 C227 1.339 . S
C226 C229 1.530 . S
C227 C222 1.304 . S
C227 C226 1.339 . S
C227 H288 0.930 . S
C228 C224 1.567 . S
C228 H289 0.961 . S
C228 H290 0.960 . S
C228 H291 0.958 . S
C229 C226 1.530 . S
C229 H292 0.961 . S
C229 H293 0.960 . S
C229 H294 0.960 . S
C230 C231 1.530 . S
C230 H296 0.961 . S
C230 H297 0.961 . S
C230 H298 0.959 . S
C231 C230 1.530 . S
C231 O259 1.412 . S
C231 H295 0.980 . S
C232 C233 1.288 . S
C232 C237 1.377 . S
C232 O259 1.393 . S
C233 C232 1.288 . S
C233 C234 1.369 . S
C233 H299 0.932 . S
C234 C233 1.369 . S
C234 C235 1.398 . S
C234 C238 1.527 . S
C235 C234 1.398 . S
C235 C236 1.380 . S
C235 C249 1.497 . S
C236 C235 1.380 . S
C236 C237 1.383 . S
C236 C239 1.603 . S
C237 C232 1.377 . S
C237 C236 1.383 . S
C237 H300 0.929 . S
C238 C234 1.527 . S
C238 H301 0.961 . S
C238 H302 0.959 . S
C238 H303 0.959 . S
C239 C236 1.603 . S
C239 H304 0.960 . S
C239 H305 0.962 . S
C239 H306 0.961 . S
C240 C207 1.587 . S
C240 C241 1.360 . S
C240 C253 1.412 . S
C241 C240 1.360 . S
C241 C242 1.365 1_455 S
C241 H307 0.929 . S
C242 C217 1.553 . S
C242 C241 1.365 1_655 S
C242 C243 1.404 . S
C243 C242 1.404 . S
C243 C244 1.395 . S
C243 C254 1.451 1_655 S
C244 C243 1.395 . S
C244 C245 1.322 . S
C244 H308 0.930 . S
C245 C244 1.322 . S
C245 C246 1.459 . S
C245 H309 0.929 . S
C246 C245 1.459 . S
C246 C247 1.445 . S
C246 C255 1.395 1_655 S
C247 C225 1.432 . S
C247 C246 1.445 . S
C247 C248 1.370 1_655 S
C248 C247 1.370 1_455 S
C248 C249 1.438 . S
C248 H310 0.930 . S
C249 C235 1.497 . S
C249 C248 1.438 . S
C249 C250 1.360 . S
C250 C249 1.360 . S
C250 C251 1.401 . S
C250 C255 1.446 . S
C251 C250 1.401 . S
C251 C252 1.347 . S
C251 H311 0.929 . S
C252 C251 1.347 . S
C252 C253 1.455 . S
C252 H312 0.930 . S
C253 C240 1.412 . S
C253 C252 1.455 . S
C253 C254 1.331 . S
C254 C243 1.451 1_455 S
C254 C253 1.331 . S
C254 C255 1.497 . S
C255 C246 1.395 1_455 S
C255 C250 1.446 . S
C255 C254 1.497 . S
C256 C257 1.582 . S
C256 H313 0.962 . S
C256 H314 0.959 . S
C256 H315 0.958 . S
C257 C256 1.582 . S
C257 O260 1.458 . S
C257 H286 0.980 . S
O258 C203 1.426 . S
O258 C204 1.334 . S
O259 C231 1.412 . S
O259 C232 1.393 . S
O260 C222 1.435 . S
O260 C257 1.458 . S
O261 C213 1.468 . S
O261 C214 1.408 . S
H262 C203 0.980 . S
H263 C202 0.959 . S
H264 C202 0.959 . S
H265 C202 0.960 . S
H266 C205 0.929 . S
H267 C209 0.929 . S
H268 C210 0.959 . S
H269 C210 0.961 . S
H270 C210 0.961 . S
H271 C211 0.960 . S
H272 C211 0.960 . S
H273 C211 0.961 . S
H274 C213 0.980 . S
H275 C212 0.961 . S
H276 C212 0.960 . S
H277 C212 0.959 . S
H278 C215 0.930 . S
H279 C219 0.931 . S
H280 C220 0.959 . S
H281 C220 0.961 . S
H282 C220 0.959 . S
H283 C221 0.960 . S
H284 C221 0.960 . S
H285 C221 0.960 . S
H286 C257 0.980 . S
H287 C223 0.930 . S
H288 C227 0.930 . S
H289 C228 0.961 . S
H290 C228 0.960 . S
H291 C228 0.958 . S
H292 C229 0.961 . S
H293 C229 0.960 . S
H294 C229 0.960 . S
H295 C231 0.980 . S
H296 C230 0.961 . S
H297 C230 0.961 . S
H298 C230 0.959 . S
H299 C233 0.932 . S
H300 C237 0.929 . S
H301 C238 0.961 . S
H302 C238 0.959 . S
H303 C238 0.959 . S
H304 C239 0.960 . S
H305 C239 0.962 . S
H306 C239 0.961 . S
H307 C241 0.929 . S
H308 C244 0.930 . S
H309 C245 0.929 . S
H310 C248 0.930 . S
H311 C251 0.929 . S
H312 C252 0.930 . S
H313 C256 0.962 . S
H314 C256 0.959 . S
H315 C256 0.958 . S
C316 C317 1.560 . S
C316 H377 0.959 . S
C316 H378 0.959 . S
C316 H379 0.960 . S
C317 C316 1.560 . S
C317 O372 1.426 . S
C317 H376 0.980 . S
C318 C319 1.407 . S
C318 C323 1.418 . S
C318 O372 1.334 . S
C319 C318 1.407 . S
C319 C320 1.360 . S
C319 H380 0.929 . S
C320 C319 1.360 . S
C320 C321 1.401 . S
C320 C324 1.527 . S
C321 C320 1.401 . S
C321 C322 1.405 . S
C321 C354 1.587 . S
C322 C321 1.405 . S
C322 C323 1.332 . S
C322 C325 1.496 . S
C323 C318 1.418 . S
C323 C322 1.332 . S
C323 H381 0.929 . S
C324 C320 1.527 . S
C324 H382 0.959 . S
C324 H383 0.961 . S
C324 H384 0.961 . S
C325 C322 1.496 . S
C325 H385 0.960 . S
C325 H386 0.960 . S
C325 H387 0.961 . S
C326 C327 1.517 . S
C326 H389 0.961 . S
C326 H390 0.960 . S
C326 H391 0.959 . S
C327 C326 1.517 . S
C327 O375 1.468 . S
C327 H388 0.980 . S
C328 C329 1.349 . S
C328 C333 1.367 . S
C328 O375 1.408 . S
C329 C328 1.349 . S
C329 C330 1.407 . S
C329 H392 0.930 . S
C330 C329 1.407 . S
C330 C331 1.449 . S
C330 C334 1.535 . S
C331 C330 1.449 . S
C331 C332 1.384 . S
C331 C356 1.553 . S
C332 C331 1.384 . S
C332 C333 1.364 . S
C332 C335 1.450 . S
C333 C328 1.367 . S
C333 C332 1.364 . S
C333 H393 0.931 . S
C334 C330 1.535 . S
C334 H394 0.959 . S
C334 H395 0.961 . S
C334 H396 0.959 . S
C335 C332 1.450 . S
C335 H397 0.960 . S
C335 H398 0.960 . S
C335 H399 0.960 . S
C336 C337 1.309 . S
C336 C341 1.304 . S
C336 O374 1.435 . S
C337 C336 1.309 . S
C337 C338 1.476 . S
C337 H401 0.930 . S
C338 C337 1.476 . S
C338 C339 1.400 . S
C338 C342 1.567 . S
C339 C338 1.400 . S
C339 C340 1.373 . S
C339 C361 1.432 . S
C340 C339 1.373 . S
C340 C341 1.339 . S
C340 C343 1.530 . S
C341 C336 1.304 . S
C341 C340 1.339 . S
C341 H402 0.930 . S
C342 C338 1.567 . S
C342 H403 0.961 . S
C342 H404 0.960 . S
C342 H405 0.958 . S
C343 C340 1.530 . S
C343 H406 0.961 . S
C343 H407 0.960 . S
C343 H408 0.960 . S
C344 C345 1.530 . S
C344 H410 0.961 . S
C344 H411 0.961 . S
C344 H412 0.959 . S
C345 C344 1.530 . S
C345 O373 1.412 . S
C345 H409 0.980 . S
C346 C347 1.288 . S
C346 C351 1.377 . S
C346 O373 1.393 . S
C347 C346 1.288 . S
C347 C348 1.369 . S
C347 H413 0.932 . S
C348 C347 1.369 . S
C348 C349 1.398 . S
C348 C352 1.527 . S
C349 C348 1.398 . S
C349 C350 1.380 . S
C349 C363 1.497 . S
C350 C349 1.380 . S
C350 C351 1.383 . S
C350 C353 1.603 . S
C351 C346 1.377 . S
C351 C350 1.383 . S
C351 H414 0.929 . S
C352 C348 1.527 . S
C352 H415 0.961 . S
C352 H416 0.959 . S
C352 H417 0.959 . S
C353 C350 1.603 . S
C353 H418 0.960 . S
C353 H419 0.962 . S
C353 H420 0.961 . S
C354 C321 1.587 . S
C354 C355 1.360 . S
C354 C367 1.412 . S
C355 C354 1.360 . S
C355 C356 1.365 . S
C355 H421 0.929 . S
C356 C331 1.553 . S
C356 C355 1.365 . S
C356 C357 1.404 . S
C357 C356 1.404 . S
C357 C358 1.395 . S
C357 C368 1.451 . S
C358 C357 1.395 . S
C358 C359 1.322 . S
C358 H422 0.930 . S
C359 C358 1.322 . S
C359 C360 1.459 . S
C359 H423 0.929 . S
C360 C359 1.459 . S
C360 C361 1.445 . S
C360 C369 1.395 . S
C361 C339 1.432 . S
C361 C360 1.445 . S
C361 C362 1.370 . S
C362 C361 1.370 . S
C362 C363 1.438 . S
C362 H424 0.930 . S
C363 C349 1.497 . S
C363 C362 1.438 . S
C363 C364 1.360 . S
C364 C363 1.360 . S
C364 C365 1.401 . S
C364 C369 1.446 . S
C365 C364 1.401 . S
C365 C366 1.347 . S
C365 H425 0.929 . S
C366 C365 1.347 . S
C366 C367 1.455 . S
C366 H426 0.930 . S
C367 C354 1.412 . S
C367 C366 1.455 . S
C367 C368 1.331 . S
C368 C357 1.451 . S
C368 C367 1.331 . S
C368 C369 1.497 . S
C369 C360 1.395 . S
C369 C364 1.446 . S
C369 C368 1.497 . S
C370 C371 1.582 . S
C370 H427 0.962 . S
C370 H428 0.959 . S
C370 H429 0.958 . S
C371 C370 1.582 . S
C371 O374 1.458 . S
C371 H400 0.980 . S
O372 C317 1.426 . S
O372 C318 1.334 . S
O373 C345 1.412 . S
O373 C346 1.393 . S
O374 C336 1.435 . S
O374 C371 1.458 . S
O375 C327 1.468 . S
O375 C328 1.408 . S
H376 C317 0.980 . S
H377 C316 0.959 . S
H378 C316 0.959 . S
H379 C316 0.960 . S
H380 C319 0.929 . S
H381 C323 0.929 . S
H382 C324 0.959 . S
H383 C324 0.961 . S
H384 C324 0.961 . S
H385 C325 0.960 . S
H386 C325 0.960 . S
H387 C325 0.961 . S
H388 C327 0.980 . S
H389 C326 0.961 . S
H390 C326 0.960 . S
H391 C326 0.959 . S
H392 C329 0.930 . S
H393 C333 0.931 . S
H394 C334 0.959 . S
H395 C334 0.961 . S
H396 C334 0.959 . S
H397 C335 0.960 . S
H398 C335 0.960 . S
H399 C335 0.960 . S
H400 C371 0.980 . S
H401 C337 0.930 . S
H402 C341 0.930 . S
H403 C342 0.961 . S
H404 C342 0.960 . S
H405 C342 0.958 . S
H406 C343 0.961 . S
H407 C343 0.960 . S
H408 C343 0.960 . S
H409 C345 0.980 . S
H410 C344 0.961 . S
H411 C344 0.961 . S
H412 C344 0.959 . S
H413 C347 0.932 . S
H414 C351 0.929 . S
H415 C352 0.961 . S
H416 C352 0.959 . S
H417 C352 0.959 . S
H418 C353 0.960 . S
H419 C353 0.962 . S
H420 C353 0.961 . S
H421 C355 0.929 . S
H422 C358 0.930 . S
H423 C359 0.929 . S
H424 C362 0.930 . S
H425 C365 0.929 . S
H426 C366 0.930 . S
H427 C370 0.962 . S
H428 C370 0.959 . S
H429 C370 0.958 . S
C430 C431 1.560 . S
C430 H491 0.959 . S
C430 H492 0.959 . S
C430 H493 0.960 . S
C431 C430 1.560 . S
C431 O486 1.426 . S
C431 H490 0.980 . S
C432 C433 1.407 . S
C432 C437 1.418 . S
C432 O486 1.334 . S
C433 C432 1.407 . S
C433 C434 1.360 . S
C433 H494 0.929 . S
C434 C433 1.360 . S
C434 C435 1.401 . S
C434 C438 1.527 . S
C435 C434 1.401 . S
C435 C436 1.405 . S
C435 C468 1.587 . S
C436 C435 1.405 . S
C436 C437 1.332 . S
C436 C439 1.496 . S
C437 C432 1.418 . S
C437 C436 1.332 . S
C437 H495 0.929 . S
C438 C434 1.527 . S
C438 H496 0.959 . S
C438 H497 0.961 . S
C438 H498 0.961 . S
C439 C436 1.496 . S
C439 H499 0.960 . S
C439 H500 0.960 . S
C439 H501 0.961 . S
C440 C441 1.517 . S
C440 H503 0.961 . S
C440 H504 0.960 . S
C440 H505 0.959 . S
C441 C440 1.517 . S
C441 O489 1.468 . S
C441 H502 0.980 . S
C442 C443 1.349 . S
C442 C447 1.367 . S
C442 O489 1.408 . S
C443 C442 1.349 . S
C443 C444 1.407 . S
C443 H506 0.930 . S
C444 C443 1.407 . S
C444 C445 1.449 . S
C444 C448 1.535 . S
C445 C444 1.449 . S
C445 C446 1.384 . S
C445 C470 1.553 . S
C446 C445 1.384 . S
C446 C447 1.364 . S
C446 C449 1.450 . S
C447 C442 1.367 . S
C447 C446 1.364 . S
C447 H507 0.931 . S
C448 C444 1.535 . S
C448 H508 0.959 . S
C448 H509 0.961 . S
C448 H510 0.959 . S
C449 C446 1.450 . S
C449 H511 0.960 . S
C449 H512 0.960 . S
C449 H513 0.960 . S
C450 C451 1.309 . S
C450 C455 1.304 . S
C450 O488 1.435 . S
C451 C450 1.309 . S
C451 C452 1.476 . S
C451 H515 0.930 . S
C452 C451 1.476 . S
C452 C453 1.400 . S
C452 C456 1.567 . S
C453 C452 1.400 . S
C453 C454 1.373 . S
C453 C475 1.432 . S
C454 C453 1.373 . S
C454 C455 1.339 . S
C454 C457 1.530 . S
C455 C450 1.304 . S
C455 C454 1.339 . S
C455 H516 0.930 . S
C456 C452 1.567 . S
C456 H517 0.961 . S
C456 H518 0.960 . S
C456 H519 0.958 . S
C457 C454 1.530 . S
C457 H520 0.961 . S
C457 H521 0.960 . S
C457 H522 0.960 . S
C458 C459 1.530 . S
C458 H524 0.961 . S
C458 H525 0.961 . S
C458 H526 0.959 . S
C459 C458 1.530 . S
C459 O487 1.412 . S
C459 H523 0.980 . S
C460 C461 1.288 . S
C460 C465 1.377 . S
C460 O487 1.393 . S
C461 C460 1.288 . S
C461 C462 1.369 . S
C461 H527 0.932 . S
C462 C461 1.369 . S
C462 C463 1.398 . S
C462 C466 1.527 . S
C463 C462 1.398 . S
C463 C464 1.380 . S
C463 C477 1.497 . S
C464 C463 1.380 . S
C464 C465 1.383 . S
C464 C467 1.603 . S
C465 C460 1.377 . S
C465 C464 1.383 . S
C465 H528 0.929 . S
C466 C462 1.527 . S
C466 H529 0.961 . S
C466 H530 0.959 . S
C466 H531 0.959 . S
C467 C464 1.603 . S
C467 H532 0.960 . S
C467 H533 0.962 . S
C467 H534 0.961 . S
C468 C435 1.587 . S
C468 C469 1.360 . S
C468 C481 1.412 . S
C469 C468 1.360 . S
C469 C470 1.365 . S
C469 H535 0.929 . S
C470 C445 1.553 . S
C470 C469 1.365 . S
C470 C471 1.404 . S
C471 C470 1.404 . S
C471 C472 1.395 . S
C471 C482 1.451 . S
C472 C471 1.395 . S
C472 C473 1.304 1_554 S
C472 H536 0.930 . S
C473 C472 1.304 1_556 S
C473 C474 1.467 . S
C473 H537 0.939 . S
C474 C473 1.467 . S
C474 C475 1.445 . S
C474 C483 1.415 . S
C475 C453 1.432 . S
C475 C474 1.445 . S
C475 C476 1.370 . S
C476 C475 1.370 . S
C476 C477 1.438 . S
C476 H538 0.930 . S
C477 C463 1.497 . S
C477 C476 1.438 . S
C477 C478 1.360 . S
C478 C477 1.360 . S
C478 C479 1.368 1_556 S
C478 C483 1.463 . S
C479 C478 1.368 1_554 S
C479 C480 1.406 . S
C479 H539 0.904 1_554 S
C480 C479 1.406 . S
C480 C481 1.455 . S
C480 H540 0.930 . S
C481 C468 1.412 . S
C481 C480 1.455 . S
C481 C482 1.331 . S
C482 C471 1.451 . S
C482 C481 1.331 . S
C482 C483 1.460 1_554 S
C483 C474 1.415 . S
C483 C478 1.463 . S
C483 C482 1.460 1_556 S
C484 C485 1.582 . S
C484 H541 0.962 . S
C484 H542 0.959 . S
C484 H543 0.958 . S
C485 C484 1.582 . S
C485 O488 1.458 . S
C485 H514 0.980 . S
O486 C431 1.426 . S
O486 C432 1.334 . S
O487 C459 1.412 . S
O487 C460 1.393 . S
O488 C450 1.435 . S
O488 C485 1.458 . S
O489 C441 1.468 . S
O489 C442 1.408 . S
H490 C431 0.980 . S
H491 C430 0.959 . S
H492 C430 0.959 . S
H493 C430 0.960 . S
H494 C433 0.929 . S
H495 C437 0.929 . S
H496 C438 0.959 . S
H497 C438 0.961 . S
H498 C438 0.961 . S
H499 C439 0.960 . S
H500 C439 0.960 . S
H501 C439 0.961 . S
H502 C441 0.980 . S
H503 C440 0.961 . S
H504 C440 0.960 . S
H505 C440 0.959 . S
H506 C443 0.930 . S
H507 C447 0.931 . S
H508 C448 0.959 . S
H509 C448 0.961 . S
H510 C448 0.959 . S
H511 C449 0.960 . S
H512 C449 0.960 . S
H513 C449 0.960 . S
H514 C485 0.980 . S
H515 C451 0.930 . S
H516 C455 0.930 . S
H517 C456 0.961 . S
H518 C456 0.960 . S
H519 C456 0.958 . S
H520 C457 0.961 . S
H521 C457 0.960 . S
H522 C457 0.960 . S
H523 C459 0.980 . S
H524 C458 0.961 . S
H525 C458 0.961 . S
H526 C458 0.959 . S
H527 C461 0.932 . S
H528 C465 0.929 . S
H529 C466 0.961 . S
H530 C466 0.959 . S
H531 C466 0.959 . S
H532 C467 0.960 . S
H533 C467 0.962 . S
H534 C467 0.961 . S
H535 C469 0.929 . S
H536 C472 0.930 . S
H537 C473 0.939 . S
H538 C476 0.930 . S
H539 C479 0.904 1_556 S
H540 C480 0.930 . S
H541 C484 0.962 . S
H542 C484 0.959 . S
H543 C484 0.958 . S
C544 C545 1.560 . S
C544 H605 0.959 . S
C544 H606 0.959 . S
C544 H607 0.960 . S
C545 C544 1.560 . S
C545 O600 1.426 . S
C545 H604 0.980 . S
C546 C547 1.407 . S
C546 C551 1.418 . S
C546 O600 1.334 . S
C547 C546 1.407 . S
C547 C548 1.360 . S
C547 H608 0.929 . S
C548 C547 1.360 . S
C548 C549 1.401 . S
C548 C552 1.527 . S
C549 C548 1.401 . S
C549 C550 1.405 . S
C549 C582 1.587 . S
C550 C549 1.405 . S
C550 C551 1.332 . S
C550 C553 1.496 . S
C551 C546 1.418 . S
C551 C550 1.332 . S
C551 H609 0.929 . S
C552 C548 1.527 . S
C552 H610 0.959 . S
C552 H611 0.961 . S
C552 H612 0.961 . S
C553 C550 1.496 . S
C553 H613 0.960 . S
C553 H614 0.960 . S
C553 H615 0.961 . S
C554 C555 1.517 . S
C554 H617 0.961 . S
C554 H618 0.960 . S
C554 H619 0.959 . S
C555 C554 1.517 . S
C555 O603 1.468 . S
C555 H616 0.980 . S
C556 C557 1.349 . S
C556 C561 1.367 . S
C556 O603 1.408 . S
C557 C556 1.349 . S
C557 C558 1.407 . S
C557 H620 0.930 . S
C558 C557 1.407 . S
C558 C559 1.449 . S
C558 C562 1.535 . S
C559 C558 1.449 . S
C559 C560 1.384 . S
C559 C584 1.553 . S
C560 C559 1.384 . S
C560 C561 1.364 . S
C560 C563 1.450 . S
C561 C556 1.367 . S
C561 C560 1.364 . S
C561 H621 0.931 . S
C562 C558 1.535 . S
C562 H622 0.959 . S
C562 H623 0.961 . S
C562 H624 0.959 . S
C563 C560 1.450 . S
C563 H625 0.960 . S
C563 H626 0.960 . S
C563 H627 0.960 . S
C564 C565 1.309 . S
C564 C569 1.304 . S
C564 O602 1.435 . S
C565 C564 1.309 . S
C565 C566 1.476 . S
C565 H629 0.930 . S
C566 C565 1.476 . S
C566 C567 1.400 . S
C566 C570 1.567 . S
C567 C566 1.400 . S
C567 C568 1.373 . S
C567 C589 1.432 . S
C568 C567 1.373 . S
C568 C569 1.339 . S
C568 C571 1.530 . S
C569 C564 1.304 . S
C569 C568 1.339 . S
C569 H630 0.930 . S
C570 C566 1.567 . S
C570 H631 0.961 . S
C570 H632 0.960 . S
C570 H633 0.958 . S
C571 C568 1.530 . S
C571 H634 0.961 . S
C571 H635 0.960 . S
C571 H636 0.960 . S
C572 C573 1.530 . S
C572 H638 0.961 . S
C572 H639 0.961 . S
C572 H640 0.959 . S
C573 C572 1.530 . S
C573 O601 1.412 . S
C573 H637 0.980 . S
C574 C575 1.288 . S
C574 C579 1.377 . S
C574 O601 1.393 . S
C575 C574 1.288 . S
C575 C576 1.369 . S
C575 H641 0.932 . S
C576 C575 1.369 . S
C576 C577 1.398 . S
C576 C580 1.527 . S
C577 C576 1.398 . S
C577 C578 1.380 . S
C577 C591 1.497 . S
C578 C577 1.380 . S
C578 C579 1.383 . S
C578 C581 1.603 . S
C579 C574 1.377 . S
C579 C578 1.383 . S
C579 H642 0.929 . S
C580 C576 1.527 . S
C580 H643 0.961 . S
C580 H644 0.959 . S
C580 H645 0.959 . S
C581 C578 1.603 . S
C581 H646 0.960 . S
C581 H647 0.962 . S
C581 H648 0.961 . S
C582 C549 1.587 . S
C582 C583 1.360 . S
C582 C595 1.412 . S
C583 C582 1.360 . S
C583 C584 1.365 1_545 S
C583 H649 0.929 . S
C584 C559 1.553 . S
C584 C583 1.365 1_565 S
C584 C585 1.404 . S
C585 C584 1.404 . S
C585 C586 1.395 . S
C585 C596 1.451 1_565 S
C586 C585 1.395 . S
C586 C587 1.322 . S
C586 H650 0.930 . S
C587 C586 1.322 . S
C587 C588 1.459 . S
C587 H651 0.929 . S
C588 C587 1.459 . S
C588 C589 1.445 . S
C588 C597 1.395 1_565 S
C589 C567 1.432 . S
C589 C588 1.445 . S
C589 C590 1.397 . S
C590 C589 1.397 . S
C590 C591 1.410 1_565 S
C590 H652 0.932 . S
C591 C577 1.497 . S
C591 C590 1.410 1_545 S
C591 C592 1.360 . S
C592 C591 1.360 . S
C592 C593 1.401 . S
C592 C597 1.446 . S
C593 C592 1.401 . S
C593 C594 1.347 . S
C593 H653 0.929 . S
C594 C593 1.347 . S
C594 C595 1.455 . S
C594 H654 0.930 . S
C595 C582 1.412 . S
C595 C594 1.455 . S
C595 C596 1.331 . S
C596 C585 1.451 1_545 S
C596 C595 1.331 . S
C596 C597 1.497 . S
C597 C588 1.395 1_545 S
C597 C592 1.446 . S
C597 C596 1.497 . S
C598 C599 1.582 . S
C598 H655 0.962 . S
C598 H656 0.959 . S
C598 H657 0.958 . S
C599 C598 1.582 . S
C599 O602 1.458 . S
C599 H628 0.980 . S
O600 C545 1.426 . S
O600 C546 1.334 . S
O601 C573 1.412 . S
O601 C574 1.393 . S
O602 C564 1.435 . S
O602 C599 1.458 . S
O603 C555 1.468 . S
O603 C556 1.408 . S
H604 C545 0.980 . S
H605 C544 0.959 . S
H606 C544 0.959 . S
H607 C544 0.960 . S
H608 C547 0.929 . S
H609 C551 0.929 . S
H610 C552 0.959 . S
H611 C552 0.961 . S
H612 C552 0.961 . S
H613 C553 0.960 . S
H614 C553 0.960 . S
H615 C553 0.961 . S
H616 C555 0.980 . S
H617 C554 0.961 . S
H618 C554 0.960 . S
H619 C554 0.959 . S
H620 C557 0.930 . S
H621 C561 0.931 . S
H622 C562 0.959 . S
H623 C562 0.961 . S
H624 C562 0.959 . S
H625 C563 0.960 . S
H626 C563 0.960 . S
H627 C563 0.960 . S
H628 C599 0.980 . S
H629 C565 0.930 . S
H630 C569 0.930 . S
H631 C570 0.961 . S
H632 C570 0.960 . S
H633 C570 0.958 . S
H634 C571 0.961 . S
H635 C571 0.960 . S
H636 C571 0.960 . S
H637 C573 0.980 . S
H638 C572 0.961 . S
H639 C572 0.961 . S
H640 C572 0.959 . S
H641 C575 0.932 . S
H642 C579 0.929 . S
H643 C580 0.961 . S
H644 C580 0.959 . S
H645 C580 0.959 . S
H646 C581 0.960 . S
H647 C581 0.962 . S
H648 C581 0.961 . S
H649 C583 0.929 . S
H650 C586 0.930 . S
H651 C587 0.929 . S
H652 C590 0.932 . S
H653 C593 0.929 . S
H654 C594 0.930 . S
H655 C598 0.962 . S
H656 C598 0.959 . S
H657 C598 0.958 . S
C658 C659 1.560 . S
C658 H719 0.959 . S
C658 H720 0.959 . S
C658 H721 0.960 . S
C659 C658 1.560 . S
C659 O714 1.426 . S
C659 H718 0.980 . S
C660 C661 1.407 . S
C660 C665 1.418 . S
C660 O714 1.334 . S
C661 C660 1.407 . S
C661 C662 1.360 . S
C661 H722 0.929 . S
C662 C661 1.360 . S
C662 C663 1.401 . S
C662 C666 1.527 . S
C663 C662 1.401 . S
C663 C664 1.405 . S
C663 C696 1.587 . S
C664 C663 1.405 . S
C664 C665 1.332 . S
C664 C667 1.496 . S
C665 C660 1.418 . S
C665 C664 1.332 . S
C665 H723 0.929 . S
C666 C662 1.527 . S
C666 H724 0.959 . S
C666 H725 0.961 . S
C666 H726 0.961 . S
C667 C664 1.496 . S
C667 H727 0.960 . S
C667 H728 0.960 . S
C667 H729 0.961 . S
C668 C669 1.517 . S
C668 H731 0.961 . S
C668 H732 0.960 . S
C668 H733 0.959 . S
C669 C668 1.517 . S
C669 O717 1.468 . S
C669 H730 0.980 . S
C670 C671 1.349 . S
C670 C675 1.367 . S
C670 O717 1.408 . S
C671 C670 1.349 . S
C671 C672 1.407 . S
C671 H734 0.930 . S
C672 C671 1.407 . S
C672 C673 1.449 . S
C672 C676 1.535 . S
C673 C672 1.449 . S
C673 C674 1.384 . S
C673 C698 1.553 . S
C674 C673 1.384 . S
C674 C675 1.364 . S
C674 C677 1.450 . S
C675 C670 1.367 . S
C675 C674 1.364 . S
C675 H735 0.931 . S
C676 C672 1.535 . S
C676 H736 0.959 . S
C676 H737 0.961 . S
C676 H738 0.959 . S
C677 C674 1.450 . S
C677 H739 0.960 . S
C677 H740 0.960 . S
C677 H741 0.960 . S
C678 C679 1.309 . S
C678 C683 1.304 . S
C678 O716 1.435 . S
C679 C678 1.309 . S
C679 C680 1.476 . S
C679 H743 0.930 . S
C680 C679 1.476 . S
C680 C681 1.400 . S
C680 C684 1.567 . S
C681 C680 1.400 . S
C681 C682 1.373 . S
C681 C703 1.432 . S
C682 C681 1.373 . S
C682 C683 1.339 . S
C682 C685 1.530 . S
C683 C678 1.304 . S
C683 C682 1.339 . S
C683 H744 0.930 . S
C684 C680 1.567 . S
C684 H745 0.961 . S
C684 H746 0.960 . S
C684 H747 0.958 . S
C685 C682 1.530 . S
C685 H748 0.961 . S
C685 H749 0.960 . S
C685 H750 0.960 . S
C686 C687 1.530 . S
C686 H752 0.961 . S
C686 H753 0.961 . S
C686 H754 0.959 . S
C687 C686 1.530 . S
C687 O715 1.412 . S
C687 H751 0.980 . S
C688 C689 1.288 . S
C688 C693 1.377 . S
C688 O715 1.393 . S
C689 C688 1.288 . S
C689 C690 1.369 . S
C689 H755 0.932 . S
C690 C689 1.369 . S
C690 C691 1.398 . S
C690 C694 1.527 . S
C691 C690 1.398 . S
C691 C692 1.380 . S
C691 C705 1.497 . S
C692 C691 1.380 . S
C692 C693 1.383 . S
C692 C695 1.603 . S
C693 C688 1.377 . S
C693 C692 1.383 . S
C693 H756 0.929 . S
C694 C690 1.527 . S
C694 H757 0.961 . S
C694 H758 0.959 . S
C694 H759 0.959 . S
C695 C692 1.603 . S
C695 H760 0.960 . S
C695 H761 0.962 . S
C695 H762 0.961 . S
C696 C663 1.587 . S
C696 C697 1.360 . S
C696 C709 1.412 . S
C697 C696 1.360 . S
C697 C698 1.365 . S
C697 H763 0.929 . S
C698 C673 1.553 . S
C698 C697 1.365 . S
C698 C699 1.404 . S
C699 C698 1.404 . S
C699 C700 1.395 . S
C699 C710 1.451 . S
C700 C699 1.395 . S
C700 C701 1.322 . S
C700 H764 0.930 . S
C701 C700 1.322 . S
C701 C702 1.459 1_554 S
C701 H765 0.907 1_554 S
C702 C701 1.459 1_556 S
C702 C703 1.445 . S
C702 C711 1.395 1_556 S
C703 C681 1.432 . S
C703 C702 1.445 . S
C703 C704 1.370 . S
C704 C703 1.370 . S
C704 C705 1.438 . S
C704 H766 0.930 . S
C705 C691 1.497 . S
C705 C704 1.438 . S
C705 C706 1.360 . S
C706 C705 1.360 . S
C706 C707 1.401 1_556 S
C706 C711 1.446 1_556 S
C707 C706 1.401 1_554 S
C707 C708 1.347 . S
C707 H767 0.929 . S
C708 C707 1.347 . S
C708 C709 1.455 . S
C708 H768 0.930 . S
C709 C696 1.412 . S
C709 C708 1.455 . S
C709 C710 1.331 . S
C710 C699 1.451 . S
C710 C709 1.331 . S
C710 C711 1.497 . S
C711 C702 1.395 1_554 S
C711 C706 1.446 1_554 S
C711 C710 1.497 . S
C712 C713 1.582 . S
C712 H769 0.962 . S
C712 H770 0.959 . S
C712 H771 0.958 . S
C713 C712 1.582 . S
C713 O716 1.458 . S
C713 H742 0.980 . S
O714 C659 1.426 . S
O714 C660 1.334 . S
O715 C687 1.412 . S
O715 C688 1.393 . S
O716 C678 1.435 . S
O716 C713 1.458 . S
O717 C669 1.468 . S
O717 C670 1.408 . S
H718 C659 0.980 . S
H719 C658 0.959 . S
H720 C658 0.959 . S
H721 C658 0.960 . S
H722 C661 0.929 . S
H723 C665 0.929 . S
H724 C666 0.959 . S
H725 C666 0.961 . S
H726 C666 0.961 . S
H727 C667 0.960 . S
H728 C667 0.960 . S
H729 C667 0.961 . S
H730 C669 0.980 . S
H731 C668 0.961 . S
H732 C668 0.960 . S
H733 C668 0.959 . S
H734 C671 0.930 . S
H735 C675 0.931 . S
H736 C676 0.959 . S
H737 C676 0.961 . S
H738 C676 0.959 . S
H739 C677 0.960 . S
H740 C677 0.960 . S
H741 C677 0.960 . S
H742 C713 0.980 . S
H743 C679 0.930 . S
H744 C683 0.930 . S
H745 C684 0.961 . S
H746 C684 0.960 . S
H747 C684 0.958 . S
H748 C685 0.961 . S
H749 C685 0.960 . S
H750 C685 0.960 . S
H751 C687 0.980 . S
H752 C686 0.961 . S
H753 C686 0.961 . S
H754 C686 0.959 . S
H755 C689 0.932 . S
H756 C693 0.929 . S
H757 C694 0.961 . S
H758 C694 0.959 . S
H759 C694 0.959 . S
H760 C695 0.960 . S
H761 C695 0.962 . S
H762 C695 0.961 . S
H763 C697 0.929 . S
H764 C700 0.930 . S
H765 C701 0.907 1_556 S
H766 C704 0.930 . S
H767 C707 0.929 . S
H768 C708 0.930 . S
H769 C712 0.962 . S
H770 C712 0.959 . S
H771 C712 0.958 . S
C772 C773 1.349 . S
C772 C774 1.327 . S
C772 H797 0.950 . S
C773 C772 1.349 . S
C773 C789 1.349 . S
C774 C772 1.327 . S
C774 C793 1.429 . S
C774 H798 0.950 . S
C775 C792 1.574 . S
C775 C794 1.368 . S
C775 H799 0.949 . S
H776 C780 0.949 . S
C777 C778 1.349 . S
C777 C779 1.327 . S
C777 H800 0.950 . S
C778 C777 1.349 . S
C778 C790 1.349 . S
C779 C777 1.327 . S
C779 C795 1.429 . S
C779 H801 0.950 . S
C780 H776 0.949 . S
C780 C788 1.574 . S
C780 C796 1.368 . S
H781 C789 0.950 . S
H782 C787 0.950 . S
H783 C788 0.949 . S
H784 C790 0.950 . S
H785 C791 0.950 . S
H786 C792 0.949 . S
C787 H782 0.950 . S
C787 C789 1.327 . S
C787 C793 1.429 . S
C788 C780 1.574 . S
C788 H783 0.949 . S
C788 C794 1.368 . S
C789 C773 1.349 . S
C789 H781 0.950 . S
C789 C787 1.327 . S
C790 C778 1.349 . S
C790 H784 0.950 . S
C790 C791 1.327 . S
C791 H785 0.950 . S
C791 C790 1.327 . S
C791 C795 1.429 . S
C792 C775 1.574 . S
C792 H786 0.949 . S
C792 C796 1.368 . S
C793 C774 1.429 . S
C793 C787 1.429 . S
C793 C794 1.523 . S
C794 C775 1.368 . S
C794 C788 1.368 . S
C794 C793 1.523 . S
C795 C779 1.429 . S
C795 C791 1.429 . S
C795 C796 1.523 . S
C796 C780 1.368 . S
C796 C792 1.368 . S
C796 C795 1.523 . S
H797 C772 0.950 . S
H798 C774 0.950 . S
H799 C775 0.949 . S
H800 C777 0.950 . S
H801 C779 0.950 . S
C802 C803 1.349 . S
C802 C804 1.327 . S
C802 H827 0.950 . S
C803 C802 1.349 . S
C803 C819 1.349 . S
C804 C802 1.327 . S
C804 C823 1.429 . S
C804 H828 0.950 . S
C805 C822 1.574 . S
C805 C824 1.368 . S
C805 H829 0.949 . S
H806 C810 0.949 . S
C807 C808 1.349 . S
C807 C809 1.327 . S
C807 H830 0.950 . S
C808 C807 1.349 . S
C808 C820 1.349 . S
C809 C807 1.327 . S
C809 C825 1.429 . S
C809 H831 0.950 . S
C810 H806 0.949 . S
C810 C818 1.574 . S
C810 C826 1.368 . S
H811 C819 0.950 . S
H812 C817 0.950 . S
H813 C818 0.949 . S
H814 C820 0.950 . S
H815 C821 0.950 . S
H816 C822 0.949 . S
C817 H812 0.950 . S
C817 C819 1.327 . S
C817 C823 1.429 . S
C818 C810 1.574 . S
C818 H813 0.949 . S
C818 C824 1.368 . S
C819 C803 1.349 . S
C819 H811 0.950 . S
C819 C817 1.327 . S
C820 C808 1.349 . S
C820 H814 0.950 . S
C820 C821 1.327 . S
C821 H815 0.950 . S
C821 C820 1.327 . S
C821 C825 1.429 . S
C822 C805 1.574 . S
C822 H816 0.949 . S
C822 C826 1.368 . S
C823 C804 1.429 . S
C823 C817 1.429 . S
C823 C824 1.523 . S
C824 C805 1.368 . S
C824 C818 1.368 . S
C824 C823 1.523 . S
C825 C809 1.429 . S
C825 C821 1.429 . S
C825 C826 1.523 . S
C826 C810 1.368 . S
C826 C822 1.368 . S
C826 C825 1.523 . S
H827 C802 0.950 . S
H828 C804 0.950 . S
H829 C805 0.949 . S
H830 C807 0.950 . S
H831 C809 0.950 . S
C832 C833 1.349 . S
C832 C834 1.327 . S
C832 H857 0.950 . S
C833 C832 1.349 . S
C833 C849 1.349 . S
C834 C832 1.327 . S
C834 C853 1.429 . S
C834 H858 0.950 . S
C835 C852 1.574 . S
C835 C854 1.368 . S
C835 H859 0.949 . S
H836 C840 0.949 . S
C837 C838 1.349 . S
C837 C839 1.327 . S
C837 H860 0.950 . S
C838 C837 1.349 . S
C838 C850 1.349 . S
C839 C837 1.327 . S
C839 C855 1.429 . S
C839 H861 0.950 . S
C840 H836 0.949 . S
C840 C848 1.574 . S
C840 C856 1.368 . S
H841 C849 0.950 . S
H842 C847 0.950 . S
H843 C848 0.949 . S
H844 C850 0.950 . S
H845 C851 0.950 . S
H846 C852 0.949 . S
C847 H842 0.950 . S
C847 C849 1.327 . S
C847 C853 1.429 . S
C848 C840 1.574 . S
C848 H843 0.949 . S
C848 C854 1.368 . S
C849 C833 1.349 . S
C849 H841 0.950 . S
C849 C847 1.327 . S
C850 C838 1.349 . S
C850 H844 0.950 . S
C850 C851 1.327 . S
C851 H845 0.950 . S
C851 C850 1.327 . S
C851 C855 1.429 . S
C852 C835 1.574 . S
C852 H846 0.949 . S
C852 C856 1.368 . S
C853 C834 1.429 . S
C853 C847 1.429 . S
C853 C854 1.523 . S
C854 C835 1.368 . S
C854 C848 1.368 . S
C854 C853 1.523 . S
C855 C839 1.429 . S
C855 C851 1.429 . S
C855 C856 1.523 . S
C856 C840 1.368 . S
C856 C852 1.368 . S
C856 C855 1.523 . S
H857 C832 0.950 . S
H858 C834 0.950 . S
H859 C835 0.949 . S
H860 C837 0.950 . S
H861 C839 0.950 . S
C862 C863 1.349 . S
C862 C864 1.327 . S
C862 H887 0.950 . S
C863 C862 1.349 . S
C863 C879 1.349 . S
C864 C862 1.327 . S
C864 C883 1.429 . S
C864 H888 0.950 . S
C865 C882 1.574 . S
C865 C884 1.368 . S
C865 H889 0.949 . S
H866 C870 0.949 . S
C867 C868 1.349 . S
C867 C869 1.327 . S
C867 H890 0.950 . S
C868 C867 1.349 . S
C868 C880 1.349 . S
C869 C867 1.327 . S
C869 C885 1.429 . S
C869 H891 0.950 . S
C870 H866 0.949 . S
C870 C878 1.574 . S
C870 C886 1.368 . S
H871 C879 0.950 . S
H872 C877 0.950 . S
H873 C878 0.949 . S
H874 C880 0.950 . S
H875 C881 0.950 . S
H876 C882 0.949 . S
C877 H872 0.950 . S
C877 C879 1.327 . S
C877 C883 1.429 . S
C878 C870 1.574 . S
C878 H873 0.949 . S
C878 C884 1.368 . S
C879 C863 1.349 . S
C879 H871 0.950 . S
C879 C877 1.327 . S
C880 C868 1.349 . S
C880 H874 0.950 . S
C880 C881 1.327 . S
C881 H875 0.950 . S
C881 C880 1.327 . S
C881 C885 1.429 . S
C882 C865 1.574 . S
C882 H876 0.949 . S
C882 C886 1.368 . S
C883 C864 1.429 . S
C883 C877 1.429 . S
C883 C884 1.523 . S
C884 C865 1.368 . S
C884 C878 1.368 . S
C884 C883 1.523 . S
C885 C869 1.429 . S
C885 C881 1.429 . S
C885 C886 1.523 . S
C886 C870 1.368 . S
C886 C882 1.368 . S
C886 C885 1.523 . S
H887 C862 0.950 . S
H888 C864 0.950 . S
H889 C865 0.949 . S
H890 C867 0.950 . S
H891 C869 0.950 . S
C892 C893 1.349 . S
C892 C894 1.327 . S
C892 H917 0.950 . S
C893 C892 1.349 . S
C893 C909 1.349 . S
C894 C892 1.327 . S
C894 C913 1.429 . S
C894 H918 0.950 . S
C895 C912 1.574 . S
C895 C914 1.368 . S
C895 H919 0.949 . S
H896 C900 0.949 . S
C897 C898 1.349 . S
C897 C899 1.327 . S
C897 H920 0.950 . S
C898 C897 1.349 . S
C898 C910 1.349 . S
C899 C897 1.327 . S
C899 C915 1.429 . S
C899 H921 0.950 . S
C900 H896 0.949 . S
C900 C908 1.574 . S
C900 C916 1.368 . S
H901 C909 0.950 . S
H902 C907 0.950 . S
H903 C908 0.949 . S
H904 C910 0.950 . S
H905 C911 0.950 . S
H906 C912 0.949 . S
C907 H902 0.950 . S
C907 C909 1.327 . S
C907 C913 1.429 . S
C908 C900 1.574 . S
C908 H903 0.949 . S
C908 C914 1.368 . S
C909 C893 1.349 . S
C909 H901 0.950 . S
C909 C907 1.327 . S
C910 C898 1.349 . S
C910 H904 0.950 . S
C910 C911 1.327 . S
C911 H905 0.950 . S
C911 C910 1.327 . S
C911 C915 1.429 . S
C912 C895 1.574 . S
C912 H906 0.949 . S
C912 C916 1.368 . S
C913 C894 1.429 . S
C913 C907 1.429 . S
C913 C914 1.523 . S
C914 C895 1.368 . S
C914 C908 1.368 . S
C914 C913 1.523 . S
C915 C899 1.429 . S
C915 C911 1.429 . S
C915 C916 1.523 . S
C916 C900 1.368 . S
C916 C912 1.368 . S
C916 C915 1.523 . S
H917 C892 0.950 . S
H918 C894 0.950 . S
H919 C895 0.949 . S
H920 C897 0.950 . S
H921 C899 0.950 . S
C922 C923 1.349 . S
C922 C924 1.327 . S
C922 H947 0.950 . S
C923 C922 1.349 . S
C923 C939 1.349 . S
C924 C922 1.327 . S
C924 C943 1.429 . S
C924 H948 0.950 . S
C925 C942 1.574 . S
C925 C944 1.368 . S
C925 H949 0.949 . S
H926 C930 0.949 . S
C927 C928 1.349 . S
C927 C929 1.327 . S
C927 H950 0.950 . S
C928 C927 1.349 . S
C928 C940 1.349 . S
C929 C927 1.327 . S
C929 C945 1.429 . S
C929 H951 0.950 . S
C930 H926 0.949 . S
C930 C938 1.574 . S
C930 C946 1.368 . S
H931 C939 0.950 . S
H932 C937 0.950 . S
H933 C938 0.949 . S
H934 C940 0.950 . S
H935 C941 0.950 . S
H936 C942 0.949 . S
C937 H932 0.950 . S
C937 C939 1.327 . S
C937 C943 1.429 . S
C938 C930 1.574 . S
C938 H933 0.949 . S
C938 C944 1.368 . S
C939 C923 1.349 . S
C939 H931 0.950 . S
C939 C937 1.327 . S
C940 C928 1.349 . S
C940 H934 0.950 . S
C940 C941 1.327 . S
C941 H935 0.950 . S
C941 C940 1.327 . S
C941 C945 1.429 . S
C942 C925 1.574 . S
C942 H936 0.949 . S
C942 C946 1.368 . S
C943 C924 1.429 . S
C943 C937 1.429 . S
C943 C944 1.523 . S
C944 C925 1.368 . S
C944 C938 1.368 . S
C944 C943 1.523 . S
C945 C929 1.429 . S
C945 C941 1.429 . S
C945 C946 1.523 . S
C946 C930 1.368 . S
C946 C942 1.368 . S
C946 C945 1.523 . S
H947 C922 0.950 . S
H948 C924 0.950 . S
H949 C925 0.949 . S
H950 C927 0.950 . S
H951 C929 0.950 . S
C952 C953 1.349 . S
C952 C954 1.327 . S
C952 H977 0.950 . S
C953 C952 1.349 . S
C953 C969 1.349 . S
C954 C952 1.327 . S
C954 C973 1.429 . S
C954 H978 0.950 . S
C955 C972 1.574 . S
C955 C974 1.368 . S
C955 H979 0.949 . S
H956 C960 0.949 . S
C957 C958 1.349 . S
C957 C959 1.327 . S
C957 H980 0.950 . S
C958 C957 1.349 . S
C958 C970 1.349 . S
C959 C957 1.327 . S
C959 C975 1.429 . S
C959 H981 0.950 . S
C960 H956 0.949 . S
C960 C968 1.574 . S
C960 C976 1.368 . S
H961 C969 0.950 . S
H962 C967 0.950 . S
H963 C968 0.949 . S
H964 C970 0.950 . S
H965 C971 0.950 . S
H966 C972 0.949 . S
C967 H962 0.950 . S
C967 C969 1.327 . S
C967 C973 1.429 . S
C968 C960 1.574 . S
C968 H963 0.949 . S
C968 C974 1.368 . S
C969 C953 1.349 . S
C969 H961 0.950 . S
C969 C967 1.327 . S
C970 C958 1.349 . S
C970 H964 0.950 . S
C970 C971 1.327 . S
C971 H965 0.950 . S
C971 C970 1.327 . S
C971 C975 1.429 . S
C972 C955 1.574 . S
C972 H966 0.949 . S
C972 C976 1.368 . S
C973 C954 1.429 . S
C973 C967 1.429 . S
C973 C974 1.523 . S
C974 C955 1.368 . S
C974 C968 1.368 . S
C974 C973 1.523 . S
C975 C959 1.429 . S
C975 C971 1.429 . S
C975 C976 1.523 . S
C976 C960 1.368 . S
C976 C972 1.368 . S
C976 C975 1.523 . S
H977 C952 0.950 . S
H978 C954 0.950 . S
H979 C955 0.949 . S
H980 C957 0.950 . S
H981 C959 0.950 . S
C982 C983 1.349 . S
C982 C984 1.327 . S
C982 H1007 0.950 . S
C983 C982 1.349 . S
C983 C999 1.349 . S
C984 C982 1.327 . S
C984 C1003 1.429 . S
C984 H1008 0.950 . S
C985 C1002 1.574 . S
C985 C1004 1.368 . S
C985 H1009 0.949 . S
H986 C990 0.949 . S
C987 C988 1.349 . S
C987 C989 1.327 . S
C987 H1010 0.950 . S
C988 C987 1.349 . S
C988 C1000 1.349 . S
C989 C987 1.327 . S
C989 C1005 1.429 . S
C989 H1011 0.950 . S
C990 H986 0.949 . S
C990 C998 1.574 . S
C990 C1006 1.368 . S
H991 C999 0.950 . S
H992 C997 0.950 . S
H993 C998 0.949 . S
H994 C1000 0.950 . S
H995 C1001 0.950 . S
H996 C1002 0.949 . S
C997 H992 0.950 . S
C997 C999 1.327 . S
C997 C1003 1.429 . S
C998 C990 1.574 . S
C998 H993 0.949 . S
C998 C1004 1.368 . S
C999 C983 1.349 . S
C999 H991 0.950 . S
C999 C997 1.327 . S
C1000 C988 1.349 . S
C1000 H994 0.950 . S
C1000 C1001 1.327 . S
C1001 H995 0.950 . S
C1001 C1000 1.327 . S
C1001 C1005 1.429 . S
C1002 C985 1.574 . S
C1002 H996 0.949 . S
C1002 C1006 1.368 . S
C1003 C984 1.429 . S
C1003 C997 1.429 . S
C1003 C1004 1.523 . S
C1004 C985 1.368 . S
C1004 C998 1.368 . S
C1004 C1003 1.523 . S
C1005 C989 1.429 . S
C1005 C1001 1.429 . S
C1005 C1006 1.523 . S
C1006 C990 1.368 . S
C1006 C1002 1.368 . S
C1006 C1005 1.523 . S
H1007 C982 0.950 . S
H1008 C984 0.950 . S
H1009 C985 0.949 . S
H1010 C987 0.950 . S
H1011 C989 0.950 . S
C1012 C1013 1.349 . S
C1012 C1014 1.327 . S
C1012 H1037 0.950 . S
C1013 C1012 1.349 . S
C1013 C1029 1.349 . S
C1014 C1012 1.327 . S
C1014 C1033 1.429 . S
C1014 H1038 0.950 . S
C1015 C1032 1.574 . S
C1015 C1034 1.368 . S
C1015 H1039 0.949 . S
H1016 C1020 0.949 . S
C1017 C1018 1.349 . S
C1017 C1019 1.327 . S
C1017 H1040 0.950 . S
C1018 C1017 1.349 . S
C1018 C1030 1.349 . S
C1019 C1017 1.327 . S
C1019 C1035 1.429 1_545 S
C1019 H1041 0.950 . S
C1020 H1016 0.949 . S
C1020 C1028 1.574 . S
C1020 C1036 1.368 . S
H1021 C1029 0.950 . S
H1022 C1027 0.950 . S
H1023 C1028 0.949 . S
H1024 C1030 0.950 . S
H1025 C1031 0.942 1_565 S
H1026 C1032 0.949 . S
C1027 H1022 0.950 . S
C1027 C1029 1.327 . S
C1027 C1033 1.429 . S
C1028 C1020 1.574 . S
C1028 H1023 0.949 . S
C1028 C1034 1.368 . S
C1029 C1013 1.349 . S
C1029 H1021 0.950 . S
C1029 C1027 1.327 . S
C1030 C1018 1.349 . S
C1030 H1024 0.950 . S
C1030 C1031 1.338 . S
C1031 H1025 0.942 1_545 S
C1031 C1030 1.338 . S
C1031 C1035 1.425 1_545 S
C1032 C1015 1.574 . S
C1032 H1026 0.949 . S
C1032 C1036 1.368 . S
C1033 C1014 1.429 . S
C1033 C1027 1.429 . S
C1033 C1034 1.523 . S
C1034 C1015 1.368 . S
C1034 C1028 1.368 . S
C1034 C1033 1.523 . S
C1035 C1019 1.429 1_565 S
C1035 C1031 1.425 1_565 S
C1035 C1036 1.523 . S
C1036 C1020 1.368 . S
C1036 C1032 1.368 . S
C1036 C1035 1.523 . S
H1037 C1012 0.950 . S
H1038 C1014 0.950 . S
H1039 C1015 0.949 . S
H1040 C1017 0.950 . S
H1041 C1019 0.950 . S
C1042 C1043 1.349 . S
C1042 C1044 1.327 . S
C1042 H1067 0.950 . S
C1043 C1042 1.349 . S
C1043 C1059 1.349 . S
C1044 C1042 1.327 . S
C1044 C1063 1.429 . S
C1044 H1068 0.950 . S
C1045 C1062 1.574 . S
C1045 C1064 1.368 . S
C1045 H1069 0.949 . S
H1046 C1050 0.949 . S
C1047 C1048 1.349 . S
C1047 C1049 1.327 . S
C1047 H1070 0.950 . S
C1048 C1047 1.349 . S
C1048 C1060 1.349 . S
C1049 C1047 1.327 . S
C1049 C1065 1.429 . S
C1049 H1071 0.950 . S
C1050 H1046 0.949 . S
C1050 C1058 1.574 . S
C1050 C1066 1.368 . S
H1051 C1059 0.950 . S
H1052 C1057 0.950 . S
H1053 C1058 0.949 . S
H1054 C1060 0.950 . S
H1055 C1061 0.950 . S
H1056 C1062 0.949 . S
C1057 H1052 0.950 . S
C1057 C1059 1.327 . S
C1057 C1063 1.429 . S
C1058 C1050 1.574 . S
C1058 H1053 0.949 . S
C1058 C1064 1.368 . S
C1059 C1043 1.349 . S
C1059 H1051 0.950 . S
C1059 C1057 1.327 . S
C1060 C1048 1.349 . S
C1060 H1054 0.950 . S
C1060 C1061 1.327 . S
C1061 H1055 0.950 . S
C1061 C1060 1.327 . S
C1061 C1065 1.429 . S
C1062 C1045 1.574 . S
C1062 H1056 0.949 . S
C1062 C1066 1.368 . S
C1063 C1044 1.429 . S
C1063 C1057 1.429 . S
C1063 C1064 1.523 . S
C1064 C1045 1.368 . S
C1064 C1058 1.368 . S
C1064 C1063 1.523 . S
C1065 C1049 1.429 . S
C1065 C1061 1.429 . S
C1065 C1066 1.523 . S
C1066 C1050 1.368 . S
C1066 C1062 1.368 . S
C1066 C1065 1.523 . S
H1067 C1042 0.950 . S
H1068 C1044 0.950 . S
H1069 C1045 0.949 . S
H1070 C1047 0.950 . S
H1071 C1049 0.950 . S
C1072 C1073 1.349 . S
C1072 C1074 1.327 . S
C1072 H1097 0.950 . S
C1073 C1072 1.349 . S
C1073 C1089 1.349 . S
C1074 C1072 1.327 . S
C1074 C1093 1.429 . S
C1074 H1098 0.950 . S
C1075 C1092 1.574 . S
C1075 C1094 1.368 . S
C1075 H1099 0.949 . S
H1076 C1080 0.949 . S
C1077 C1078 1.349 . S
C1077 C1079 1.327 . S
C1077 H1100 0.950 . S
C1078 C1077 1.349 . S
C1078 C1090 1.349 . S
C1079 C1077 1.327 . S
C1079 C1095 1.429 . S
C1079 H1101 0.950 . S
C1080 H1076 0.949 . S
C1080 C1088 1.574 . S
C1080 C1096 1.368 . S
H1081 C1089 0.950 . S
H1082 C1087 0.950 . S
H1083 C1088 0.949 . S
H1084 C1090 0.950 . S
H1085 C1091 0.950 . S
H1086 C1092 0.949 . S
C1087 H1082 0.950 . S
C1087 C1089 1.327 . S
C1087 C1093 1.429 . S
C1088 C1080 1.574 . S
C1088 H1083 0.949 . S
C1088 C1094 1.368 . S
C1089 C1073 1.349 . S
C1089 H1081 0.950 . S
C1089 C1087 1.327 . S
C1090 C1078 1.349 . S
C1090 H1084 0.950 . S
C1090 C1091 1.327 . S
C1091 H1085 0.950 . S
C1091 C1090 1.327 . S
C1091 C1095 1.429 . S
C1092 C1075 1.574 . S
C1092 H1086 0.949 . S
C1092 C1096 1.368 . S
C1093 C1074 1.429 . S
C1093 C1087 1.429 . S
C1093 C1094 1.523 . S
C1094 C1075 1.368 . S
C1094 C1088 1.368 . S
C1094 C1093 1.523 . S
C1095 C1079 1.429 . S
C1095 C1091 1.429 . S
C1095 C1096 1.523 . S
C1096 C1080 1.368 . S
C1096 C1092 1.368 . S
C1096 C1095 1.523 . S
H1097 C1072 0.950 . S
H1098 C1074 0.950 . S
H1099 C1075 0.949 . S
H1100 C1077 0.950 . S
H1101 C1079 0.950 . S
C1102 C1103 1.349 . S
C1102 C1104 1.327 . S
C1102 H1127 0.950 . S
C1103 C1102 1.349 . S
C1103 C1119 1.349 . S
C1104 C1102 1.327 . S
C1104 C1123 1.429 . S
C1104 H1128 0.950 . S
C1105 C1122 1.574 . S
C1105 C1124 1.368 . S
C1105 H1129 0.949 . S
H1106 C1110 0.949 . S
C1107 C1108 1.349 . S
C1107 C1109 1.327 . S
C1107 H1130 0.950 . S
C1108 C1107 1.349 . S
C1108 C1120 1.349 . S
C1109 C1107 1.327 . S
C1109 C1125 1.429 . S
C1109 H1131 0.950 . S
C1110 H1106 0.949 . S
C1110 C1118 1.574 . S
C1110 C1126 1.368 . S
H1111 C1119 0.950 . S
H1112 C1117 0.950 . S
H1113 C1118 0.949 . S
H1114 C1120 0.950 . S
H1115 C1121 0.950 . S
H1116 C1122 0.949 . S
C1117 H1112 0.950 . S
C1117 C1119 1.327 . S
C1117 C1123 1.429 . S
C1118 C1110 1.574 . S
C1118 H1113 0.949 . S
C1118 C1124 1.368 . S
C1119 C1103 1.349 . S
C1119 H1111 0.950 . S
C1119 C1117 1.327 . S
C1120 C1108 1.349 . S
C1120 H1114 0.950 . S
C1120 C1121 1.327 . S
C1121 H1115 0.950 . S
C1121 C1120 1.327 . S
C1121 C1125 1.429 . S
C1122 C1105 1.574 . S
C1122 H1116 0.949 . S
C1122 C1126 1.368 . S
C1123 C1104 1.429 . S
C1123 C1117 1.429 . S
C1123 C1124 1.523 . S
C1124 C1105 1.368 . S
C1124 C1118 1.368 . S
C1124 C1123 1.523 . S
C1125 C1109 1.429 . S
C1125 C1121 1.429 . S
C1125 C1126 1.523 . S
C1126 C1110 1.368 . S
C1126 C1122 1.368 . S
C1126 C1125 1.523 . S
H1127 C1102 0.950 . S
H1128 C1104 0.950 . S
H1129 C1105 0.949 . S
H1130 C1107 0.950 . S
H1131 C1109 0.950 . S
C1132 C1133 1.349 . S
C1132 C1134 1.327 . S
C1132 H1157 0.950 . S
C1133 C1132 1.349 . S
C1133 C1149 1.349 . S
C1134 C1132 1.327 . S
C1134 C1153 1.429 . S
C1134 H1158 0.950 . S
C1135 C1152 1.574 . S
C1135 C1154 1.368 . S
C1135 H1159 0.949 . S
H1136 C1140 0.949 . S
C1137 C1138 1.349 . S
C1137 C1139 1.327 . S
C1137 H1160 0.950 . S
C1138 C1137 1.349 . S
C1138 C1150 1.349 . S
C1139 C1137 1.327 . S
C1139 C1155 1.429 . S
C1139 H1161 0.950 . S
C1140 H1136 0.949 . S
C1140 C1148 1.574 . S
C1140 C1156 1.368 . S
H1141 C1149 0.950 . S
H1142 C1147 0.950 . S
H1143 C1148 0.949 . S
H1144 C1150 0.950 . S
H1145 C1151 0.950 . S
H1146 C1152 0.949 . S
C1147 H1142 0.950 . S
C1147 C1149 1.327 . S
C1147 C1153 1.429 . S
C1148 C1140 1.574 . S
C1148 H1143 0.949 . S
C1148 C1154 1.368 . S
C1149 C1133 1.349 . S
C1149 H1141 0.950 . S
C1149 C1147 1.327 . S
C1150 C1138 1.349 . S
C1150 H1144 0.950 . S
C1150 C1151 1.327 . S
C1151 H1145 0.950 . S
C1151 C1150 1.327 . S
C1151 C1155 1.429 . S
C1152 C1135 1.574 . S
C1152 H1146 0.949 . S
C1152 C1156 1.368 . S
C1153 C1134 1.429 . S
C1153 C1147 1.429 . S
C1153 C1154 1.523 . S
C1154 C1135 1.368 . S
C1154 C1148 1.368 . S
C1154 C1153 1.523 . S
C1155 C1139 1.429 . S
C1155 C1151 1.429 . S
C1155 C1156 1.523 . S
C1156 C1140 1.368 . S
C1156 C1152 1.368 . S
C1156 C1155 1.523 . S
H1157 C1132 0.950 . S
H1158 C1134 0.950 . S
H1159 C1135 0.949 . S
H1160 C1137 0.950 . S
H1161 C1139 0.950 . S
C1162 C1163 1.349 . S
C1162 C1164 1.327 . S
C1162 H1187 0.950 . S
C1163 C1162 1.349 . S
C1163 C1179 1.349 . S
C1164 C1162 1.327 . S
C1164 C1183 1.429 . S
C1164 H1188 0.950 . S
C1165 C1182 1.574 . S
C1165 C1184 1.368 . S
C1165 H1189 0.949 . S
H1166 C1170 0.949 . S
C1167 C1168 1.349 . S
C1167 C1169 1.327 . S
C1167 H1190 0.950 . S
C1168 C1167 1.349 . S
C1168 C1180 1.349 . S
C1169 C1167 1.327 . S
C1169 C1185 1.429 . S
C1169 H1191 0.950 . S
C1170 H1166 0.949 . S
C1170 C1178 1.574 . S
C1170 C1186 1.368 . S
H1171 C1179 0.950 . S
H1172 C1177 0.950 . S
H1173 C1178 0.949 . S
H1174 C1180 0.950 . S
H1175 C1181 0.950 . S
H1176 C1182 0.949 . S
C1177 H1172 0.950 . S
C1177 C1179 1.327 . S
C1177 C1183 1.429 . S
C1178 C1170 1.574 . S
C1178 H1173 0.949 . S
C1178 C1184 1.368 . S
C1179 C1163 1.349 . S
C1179 H1171 0.950 . S
C1179 C1177 1.327 . S
C1180 C1168 1.349 . S
C1180 H1174 0.950 . S
C1180 C1181 1.327 . S
C1181 H1175 0.950 . S
C1181 C1180 1.327 . S
C1181 C1185 1.429 . S
C1182 C1165 1.574 . S
C1182 H1176 0.949 . S
C1182 C1186 1.368 . S
C1183 C1164 1.429 . S
C1183 C1177 1.429 . S
C1183 C1184 1.523 . S
C1184 C1165 1.368 . S
C1184 C1178 1.368 . S
C1184 C1183 1.523 . S
C1185 C1169 1.429 . S
C1185 C1181 1.429 . S
C1185 C1186 1.523 . S
C1186 C1170 1.368 . S
C1186 C1182 1.368 . S
C1186 C1185 1.523 . S
H1187 C1162 0.950 . S
H1188 C1164 0.950 . S
H1189 C1165 0.949 . S
H1190 C1167 0.950 . S
H1191 C1169 0.950 . S
C1192 C1193 1.349 . S
C1192 C1194 1.327 . S
C1192 H1217 0.950 . S
C1193 C1192 1.349 . S
C1193 C1209 1.349 . S
C1194 C1192 1.327 . S
C1194 C1213 1.429 . S
C1194 H1218 0.950 . S
C1195 C1212 1.574 . S
C1195 C1214 1.368 . S
C1195 H1219 0.949 . S
H1196 C1200 0.949 . S
C1197 C1198 1.349 . S
C1197 C1199 1.327 . S
C1197 H1220 0.950 . S
C1198 C1197 1.349 . S
C1198 C1210 1.349 . S
C1199 C1197 1.327 . S
C1199 C1215 1.429 . S
C1199 H1221 0.950 . S
C1200 H1196 0.949 . S
C1200 C1208 1.574 . S
C1200 C1216 1.368 . S
H1201 C1209 0.950 . S
H1202 C1207 0.950 . S
H1203 C1208 0.949 . S
H1204 C1210 0.950 . S
H1205 C1211 0.950 . S
H1206 C1212 0.949 . S
C1207 H1202 0.950 . S
C1207 C1209 1.327 . S
C1207 C1213 1.429 . S
C1208 C1200 1.574 . S
C1208 H1203 0.949 . S
C1208 C1214 1.368 . S
C1209 C1193 1.349 . S
C1209 H1201 0.950 . S
C1209 C1207 1.327 . S
C1210 C1198 1.349 . S
C1210 H1204 0.950 . S
C1210 C1211 1.327 . S
C1211 H1205 0.950 . S
C1211 C1210 1.327 . S
C1211 C1215 1.429 . S
C1212 C1195 1.574 . S
C1212 H1206 0.949 . S
C1212 C1216 1.368 . S
C1213 C1194 1.429 . S
C1213 C1207 1.429 . S
C1213 C1214 1.523 . S
C1214 C1195 1.368 . S
C1214 C1208 1.368 . S
C1214 C1213 1.523 . S
C1215 C1199 1.429 . S
C1215 C1211 1.429 . S
C1215 C1216 1.523 . S
C1216 C1200 1.368 . S
C1216 C1212 1.368 . S
C1216 C1215 1.523 . S
H1217 C1192 0.950 . S
H1218 C1194 0.950 . S
H1219 C1195 0.949 . S
H1220 C1197 0.950 . S
H1221 C1199 0.950 . S
C1222 C1223 1.349 . S
C1222 C1224 1.327 . S
C1222 H1247 0.950 . S
C1223 C1222 1.349 . S
C1223 C1239 1.349 . S
C1224 C1222 1.327 . S
C1224 C1243 1.429 . S
C1224 H1248 0.950 . S
C1225 C1242 1.574 . S
C1225 C1244 1.368 . S
C1225 H1249 0.949 . S
H1226 C1230 0.949 . S
C1227 C1228 1.349 . S
C1227 C1229 1.327 . S
C1227 H1250 0.950 . S
C1228 C1227 1.349 . S
C1228 C1240 1.349 . S
C1229 C1227 1.327 . S
C1229 C1245 1.429 . S
C1229 H1251 0.950 . S
C1230 H1226 0.949 . S
C1230 C1238 1.574 . S
C1230 C1246 1.368 . S
H1231 C1239 0.950 . S
H1232 C1237 0.950 . S
H1233 C1238 0.949 . S
H1234 C1240 0.950 . S
H1235 C1241 0.950 . S
H1236 C1242 0.949 . S
C1237 H1232 0.950 . S
C1237 C1239 1.327 . S
C1237 C1243 1.429 . S
C1238 C1230 1.574 . S
C1238 H1233 0.949 . S
C1238 C1244 1.368 . S
C1239 C1223 1.349 . S
C1239 H1231 0.950 . S
C1239 C1237 1.327 . S
C1240 C1228 1.349 . S
C1240 H1234 0.950 . S
C1240 C1241 1.327 . S
C1241 H1235 0.950 . S
C1241 C1240 1.327 . S
C1241 C1245 1.429 . S
C1242 C1225 1.574 . S
C1242 H1236 0.949 . S
C1242 C1246 1.368 . S
C1243 C1224 1.429 . S
C1243 C1237 1.429 . S
C1243 C1244 1.523 . S
C1244 C1225 1.368 . S
C1244 C1238 1.368 . S
C1244 C1243 1.523 . S
C1245 C1229 1.429 . S
C1245 C1241 1.429 . S
C1245 C1246 1.523 . S
C1246 C1230 1.368 . S
C1246 C1242 1.368 . S
C1246 C1245 1.523 . S
H1247 C1222 0.950 . S
H1248 C1224 0.950 . S
H1249 C1225 0.949 . S
H1250 C1227 0.950 . S
H1251 C1229 0.950 . S
C1252 C1253 1.349 . S
C1252 C1254 1.327 . S
C1252 H1277 0.950 . S
C1253 C1252 1.349 . S
C1253 C1269 1.349 . S
C1254 C1252 1.327 . S
C1254 C1273 1.429 . S
C1254 H1278 0.950 . S
C1255 C1272 1.574 . S
C1255 C1274 1.368 . S
C1255 H1279 0.949 . S
H1256 C1260 0.949 . S
C1257 C1258 1.349 . S
C1257 C1259 1.327 . S
C1257 H1280 0.950 . S
C1258 C1257 1.349 . S
C1258 C1270 1.349 . S
C1259 C1257 1.327 . S
C1259 C1275 1.429 . S
C1259 H1281 0.950 . S
C1260 H1256 0.949 . S
C1260 C1268 1.574 . S
C1260 C1276 1.368 . S
H1261 C1269 0.950 . S
H1262 C1267 0.950 . S
H1263 C1268 0.949 . S
H1264 C1270 0.950 . S
H1265 C1271 0.950 . S
H1266 C1272 0.949 . S
C1267 H1262 0.950 . S
C1267 C1269 1.327 . S
C1267 C1273 1.429 . S
C1268 C1260 1.574 . S
C1268 H1263 0.949 . S
C1268 C1274 1.368 . S
C1269 C1253 1.349 . S
C1269 H1261 0.950 . S
C1269 C1267 1.327 . S
C1270 C1258 1.349 . S
C1270 H1264 0.950 . S
C1270 C1271 1.327 . S
C1271 H1265 0.950 . S
C1271 C1270 1.327 . S
C1271 C1275 1.429 . S
C1272 C1255 1.574 . S
C1272 H1266 0.949 . S
C1272 C1276 1.368 . S
C1273 C1254 1.429 . S
C1273 C1267 1.429 . S
C1273 C1274 1.523 . S
C1274 C1255 1.368 . S
C1274 C1268 1.368 . S
C1274 C1273 1.523 . S
C1275 C1259 1.429 . S
C1275 C1271 1.429 . S
C1275 C1276 1.523 . S
C1276 C1260 1.368 . S
C1276 C1272 1.368 . S
C1276 C1275 1.523 . S
H1277 C1252 0.950 . S
H1278 C1254 0.950 . S
H1279 C1255 0.949 . S
H1280 C1257 0.950 . S
H1281 C1259 0.950 . S
C1282 C1283 1.349 . S
C1282 C1284 1.327 . S
C1282 H1307 0.950 . S
C1283 C1282 1.349 . S
C1283 C1299 1.349 . S
C1284 C1282 1.327 . S
C1284 C1303 1.429 . S
C1284 H1308 0.950 . S
C1285 C1302 1.574 . S
C1285 C1304 1.368 . S
C1285 H1309 0.949 . S
H1286 C1290 0.949 . S
C1287 C1288 1.349 . S
C1287 C1289 1.327 . S
C1287 H1310 0.950 . S
C1288 C1287 1.349 . S
C1288 C1300 1.349 . S
C1289 C1287 1.327 . S
C1289 C1305 1.429 . S
C1289 H1311 0.950 . S
C1290 H1286 0.949 . S
C1290 C1298 1.574 . S
C1290 C1306 1.368 . S
H1291 C1299 0.950 . S
H1292 C1297 0.950 . S
H1293 C1298 0.949 . S
H1294 C1300 0.950 . S
H1295 C1301 0.950 . S
H1296 C1302 0.949 . S
C1297 H1292 0.950 . S
C1297 C1299 1.327 . S
C1297 C1303 1.429 . S
C1298 C1290 1.574 . S
C1298 H1293 0.949 . S
C1298 C1304 1.368 . S
C1299 C1283 1.349 . S
C1299 H1291 0.950 . S
C1299 C1297 1.327 . S
C1300 C1288 1.349 . S
C1300 H1294 0.950 . S
C1300 C1301 1.327 . S
C1301 H1295 0.950 . S
C1301 C1300 1.327 . S
C1301 C1305 1.429 . S
C1302 C1285 1.574 . S
C1302 H1296 0.949 . S
C1302 C1306 1.368 . S
C1303 C1284 1.429 . S
C1303 C1297 1.429 . S
C1303 C1304 1.523 . S
C1304 C1285 1.368 . S
C1304 C1298 1.368 . S
C1304 C1303 1.523 . S
C1305 C1289 1.429 . S
C1305 C1301 1.429 . S
C1305 C1306 1.523 . S
C1306 C1290 1.368 . S
C1306 C1302 1.368 . S
C1306 C1305 1.523 . S
H1307 C1282 0.950 . S
H1308 C1284 0.950 . S
H1309 C1285 0.949 . S
H1310 C1287 0.950 . S
H1311 C1289 0.950 . S
C1312 C1313 1.349 . S
C1312 C1314 1.327 . S
C1312 H1337 0.950 . S
C1313 C1312 1.349 . S
C1313 C1329 1.349 . S
C1314 C1312 1.327 . S
C1314 C1333 1.429 . S
C1314 H1338 0.950 . S
C1315 C1332 1.574 . S
C1315 C1334 1.368 . S
C1315 H1339 0.949 . S
H1316 C1320 0.949 . S
C1317 C1318 1.349 . S
C1317 C1319 1.327 . S
C1317 H1340 0.950 . S
C1318 C1317 1.349 . S
C1318 C1330 1.349 . S
C1319 C1317 1.327 . S
C1319 C1335 1.429 . S
C1319 H1341 0.950 . S
C1320 H1316 0.949 . S
C1320 C1328 1.574 . S
C1320 C1336 1.368 . S
H1321 C1329 0.950 . S
H1322 C1327 0.950 . S
H1323 C1328 0.949 . S
H1324 C1330 0.950 . S
H1325 C1331 0.950 . S
H1326 C1332 0.949 . S
C1327 H1322 0.950 . S
C1327 C1329 1.327 . S
C1327 C1333 1.429 . S
C1328 C1320 1.574 . S
C1328 H1323 0.949 . S
C1328 C1334 1.368 . S
C1329 C1313 1.349 . S
C1329 H1321 0.950 . S
C1329 C1327 1.327 . S
C1330 C1318 1.349 . S
C1330 H1324 0.950 . S
C1330 C1331 1.327 . S
C1331 H1325 0.950 . S
C1331 C1330 1.327 . S
C1331 C1335 1.429 . S
C1332 C1315 1.574 . S
C1332 H1326 0.949 . S
C1332 C1336 1.368 . S
C1333 C1314 1.429 . S
C1333 C1327 1.429 . S
C1333 C1334 1.523 . S
C1334 C1315 1.368 . S
C1334 C1328 1.368 . S
C1334 C1333 1.523 . S
C1335 C1319 1.429 . S
C1335 C1331 1.429 . S
C1335 C1336 1.523 . S
C1336 C1320 1.368 . S
C1336 C1332 1.368 . S
C1336 C1335 1.523 . S
H1337 C1312 0.950 . S
H1338 C1314 0.950 . S
H1339 C1315 0.949 . S
H1340 C1317 0.950 . S
H1341 C1319 0.950 . S
C1342 C1343 1.349 . S
C1342 C1344 1.327 . S
C1342 H1367 0.950 . S
C1343 C1342 1.349 . S
C1343 C1359 1.349 . S
C1344 C1342 1.327 . S
C1344 C1363 1.429 . S
C1344 H1368 0.950 . S
C1345 C1362 1.574 . S
C1345 C1364 1.368 . S
C1345 H1369 0.949 . S
H1346 C1350 0.949 . S
C1347 C1348 1.349 . S
C1347 C1349 1.327 . S
C1347 H1370 0.950 . S
C1348 C1347 1.349 . S
C1348 C1360 1.349 . S
C1349 C1347 1.327 . S
C1349 C1365 1.429 . S
C1349 H1371 0.950 . S
C1350 H1346 0.949 . S
C1350 C1358 1.574 . S
C1350 C1366 1.368 . S
H1351 C1359 0.950 . S
H1352 C1357 0.950 . S
H1353 C1358 0.949 . S
H1354 C1360 0.950 . S
H1355 C1361 0.950 . S
H1356 C1362 0.949 . S
C1357 H1352 0.950 . S
C1357 C1359 1.327 . S
C1357 C1363 1.429 . S
C1358 C1350 1.574 . S
C1358 H1353 0.949 . S
C1358 C1364 1.368 . S
C1359 C1343 1.349 . S
C1359 H1351 0.950 . S
C1359 C1357 1.327 . S
C1360 C1348 1.349 . S
C1360 H1354 0.950 . S
C1360 C1361 1.327 . S
C1361 H1355 0.950 . S
C1361 C1360 1.327 . S
C1361 C1365 1.429 . S
C1362 C1345 1.574 . S
C1362 H1356 0.949 . S
C1362 C1366 1.368 . S
C1363 C1344 1.429 . S
C1363 C1357 1.429 . S
C1363 C1364 1.523 . S
C1364 C1345 1.368 . S
C1364 C1358 1.368 . S
C1364 C1363 1.523 . S
C1365 C1349 1.429 . S
C1365 C1361 1.429 . S
C1365 C1366 1.523 . S
C1366 C1350 1.368 . S
C1366 C1362 1.368 . S
C1366 C1365 1.523 . S
H1367 C1342 0.950 . S
H1368 C1344 0.950 . S
H1369 C1345 0.949 . S
H1370 C1347 0.950 . S
H1371 C1349 0.950 . S
C1372 C1373 1.349 . S
C1372 C1374 1.327 . S
C1372 H1397 0.950 . S
C1373 C1372 1.349 . S
C1373 C1389 1.349 . S
C1374 C1372 1.327 . S
C1374 C1393 1.429 . S
C1374 H1398 0.950 . S
C1375 C1392 1.574 . S
C1375 C1394 1.368 . S
C1375 H1399 0.949 . S
H1376 C1380 0.949 . S
C1377 C1378 1.349 . S
C1377 C1379 1.327 . S
C1377 H1400 0.950 . S
C1378 C1377 1.349 . S
C1378 C1390 1.349 . S
C1379 C1377 1.327 . S
C1379 C1395 1.429 . S
C1379 H1401 0.950 . S
C1380 H1376 0.949 . S
C1380 C1388 1.574 . S
C1380 C1396 1.368 . S
H1381 C1389 0.950 . S
H1382 C1387 0.950 . S
H1383 C1388 0.949 . S
H1384 C1390 0.950 . S
H1385 C1391 0.950 . S
H1386 C1392 0.949 . S
C1387 H1382 0.950 . S
C1387 C1389 1.327 . S
C1387 C1393 1.429 . S
C1388 C1380 1.574 . S
C1388 H1383 0.949 . S
C1388 C1394 1.368 . S
C1389 C1373 1.349 . S
C1389 H1381 0.950 . S
C1389 C1387 1.327 . S
C1390 C1378 1.349 . S
C1390 H1384 0.950 . S
C1390 C1391 1.327 . S
C1391 H1385 0.950 . S
C1391 C1390 1.327 . S
C1391 C1395 1.429 . S
C1392 C1375 1.574 . S
C1392 H1386 0.949 . S
C1392 C1396 1.368 . S
C1393 C1374 1.429 . S
C1393 C1387 1.429 . S
C1393 C1394 1.523 . S
C1394 C1375 1.368 . S
C1394 C1388 1.368 . S
C1394 C1393 1.523 . S
C1395 C1379 1.429 . S
C1395 C1391 1.429 . S
C1395 C1396 1.523 . S
C1396 C1380 1.368 . S
C1396 C1392 1.368 . S
C1396 C1395 1.523 . S
H1397 C1372 0.950 . S
H1398 C1374 0.950 . S
H1399 C1375 0.949 . S
H1400 C1377 0.950 . S
H1401 C1379 0.950 . S
C1402 C1403 1.349 . S
C1402 C1404 1.327 . S
C1402 H1427 0.950 . S
C1403 C1402 1.349 . S
C1403 C1419 1.349 . S
C1404 C1402 1.327 . S
C1404 C1423 1.429 . S
C1404 H1428 0.950 . S
C1405 C1422 1.574 . S
C1405 C1424 1.368 . S
C1405 H1429 0.949 . S
H1406 C1410 0.949 . S
C1407 C1408 1.349 . S
C1407 C1409 1.327 . S
C1407 H1430 0.950 . S
C1408 C1407 1.349 . S
C1408 C1420 1.349 . S
C1409 C1407 1.327 . S
C1409 C1425 1.429 . S
C1409 H1431 0.950 . S
C1410 H1406 0.949 . S
C1410 C1418 1.574 . S
C1410 C1426 1.368 . S
H1411 C1419 0.950 . S
H1412 C1417 0.950 . S
H1413 C1418 0.949 . S
H1414 C1420 0.950 . S
H1415 C1421 0.950 . S
H1416 C1422 0.949 . S
C1417 H1412 0.950 . S
C1417 C1419 1.327 . S
C1417 C1423 1.429 . S
C1418 C1410 1.574 . S
C1418 H1413 0.949 . S
C1418 C1424 1.368 . S
C1419 C1403 1.349 . S
C1419 H1411 0.950 . S
C1419 C1417 1.327 . S
C1420 C1408 1.349 . S
C1420 H1414 0.950 . S
C1420 C1421 1.327 . S
C1421 H1415 0.950 . S
C1421 C1420 1.327 . S
C1421 C1425 1.429 . S
C1422 C1405 1.574 . S
C1422 H1416 0.949 . S
C1422 C1426 1.368 . S
C1423 C1404 1.429 . S
C1423 C1417 1.429 . S
C1423 C1424 1.523 . S
C1424 C1405 1.368 . S
C1424 C1418 1.368 . S
C1424 C1423 1.523 . S
C1425 C1409 1.429 . S
C1425 C1421 1.429 . S
C1425 C1426 1.523 . S
C1426 C1410 1.368 . S
C1426 C1422 1.368 . S
C1426 C1425 1.523 . S
H1427 C1402 0.950 . S
H1428 C1404 0.950 . S
H1429 C1405 0.949 . S
H1430 C1407 0.950 . S
H1431 C1409 0.950 . S
C1432 C1433 1.349 . S
C1432 C1434 1.327 . S
C1432 H1457 0.950 . S
C1433 C1432 1.349 . S
C1433 C1449 1.349 . S
C1434 C1432 1.327 . S
C1434 C1453 1.429 . S
C1434 H1458 0.950 . S
C1435 C1452 1.574 . S
C1435 C1454 1.368 . S
C1435 H1459 0.949 . S
H1436 C1440 0.949 . S
C1437 C1438 1.349 . S
C1437 C1439 1.327 1_545 S
C1437 H1460 0.950 . S
C1438 C1437 1.349 . S
C1438 C1450 1.349 . S
C1439 C1437 1.327 1_565 S
C1439 C1455 1.429 . S
C1439 H1461 0.950 . S
C1440 H1436 0.949 . S
C1440 C1448 1.574 . S
C1440 C1456 1.368 . S
H1441 C1449 0.950 . S
H1442 C1447 0.950 . S
H1443 C1448 0.949 . S
H1444 C1450 0.950 . S
H1445 C1451 0.950 1_565 S
H1446 C1452 0.949 . S
C1447 H1442 0.950 . S
C1447 C1449 1.327 . S
C1447 C1453 1.429 . S
C1448 C1440 1.574 . S
C1448 H1443 0.949 . S
C1448 C1454 1.368 . S
C1449 C1433 1.349 . S
C1449 H1441 0.950 . S
C1449 C1447 1.327 . S
C1450 C1438 1.349 . S
C1450 H1444 0.950 . S
C1450 C1451 1.327 . S
C1451 H1445 0.950 1_545 S
C1451 C1450 1.327 . S
C1451 C1455 1.429 1_545 S
C1452 C1435 1.574 . S
C1452 H1446 0.949 . S
C1452 C1456 1.368 . S
C1453 C1434 1.429 . S
C1453 C1447 1.429 . S
C1453 C1454 1.523 . S
C1454 C1435 1.368 . S
C1454 C1448 1.368 . S
C1454 C1453 1.523 . S
C1455 C1439 1.429 . S
C1455 C1451 1.429 1_565 S
C1455 C1456 1.523 . S
C1456 C1440 1.368 . S
C1456 C1452 1.368 . S
C1456 C1455 1.523 . S
H1457 C1432 0.950 . S
H1458 C1434 0.950 . S
H1459 C1435 0.949 . S
H1460 C1437 0.950 . S
H1461 C1439 0.950 . S
C1462 C1463 1.349 . S
C1462 C1464 1.327 . S
C1462 H1487 0.950 . S
C1463 C1462 1.349 . S
C1463 C1479 1.349 . S
C1464 C1462 1.327 . S
C1464 C1483 1.429 . S
C1464 H1488 0.950 . S
C1465 C1482 1.574 . S
C1465 C1484 1.368 . S
C1465 H1489 0.949 . S
H1466 C1470 0.949 . S
C1467 C1468 1.349 . S
C1467 C1469 1.327 . S
C1467 H1490 0.950 . S
C1468 C1467 1.349 . S
C1468 C1480 1.349 . S
C1469 C1467 1.327 . S
C1469 C1485 1.429 . S
C1469 H1491 0.950 . S
C1470 H1466 0.949 . S
C1470 C1478 1.574 . S
C1470 C1486 1.368 . S
H1471 C1479 0.950 . S
H1472 C1477 0.950 . S
H1473 C1478 0.949 . S
H1474 C1480 0.950 . S
H1475 C1481 0.950 . S
H1476 C1482 0.949 . S
C1477 H1472 0.950 . S
C1477 C1479 1.327 . S
C1477 C1483 1.429 . S
C1478 C1470 1.574 . S
C1478 H1473 0.949 . S
C1478 C1484 1.368 . S
C1479 C1463 1.349 . S
C1479 H1471 0.950 . S
C1479 C1477 1.327 . S
C1480 C1468 1.349 . S
C1480 H1474 0.950 . S
C1480 C1481 1.327 . S
C1481 H1475 0.950 . S
C1481 C1480 1.327 . S
C1481 C1485 1.429 . S
C1482 C1465 1.574 . S
C1482 H1476 0.949 . S
C1482 C1486 1.368 . S
C1483 C1464 1.429 . S
C1483 C1477 1.429 . S
C1483 C1484 1.523 . S
C1484 C1465 1.368 . S
C1484 C1478 1.368 . S
C1484 C1483 1.523 . S
C1485 C1469 1.429 . S
C1485 C1481 1.429 . S
C1485 C1486 1.523 . S
C1486 C1470 1.368 . S
C1486 C1482 1.368 . S
C1486 C1485 1.523 . S
H1487 C1462 0.950 . S
H1488 C1464 0.950 . S
H1489 C1465 0.949 . S
H1490 C1467 0.950 . S
H1491 C1469 0.950 . S
C778 C99 1.096 . S
C773 C5 1.693 . S
C808 C231 1.226 . S
C803 C16 1.251 . S
C838 C117 1.698 . S
C833 C30 1.928 . S
C868 C213 0.966 . S
C863 C40 1.634 . S
C898 C345 1.100 . S
C893 C8 1.488 . S
C928 C459 1.116 . S
C923 C18 1.336 . S
C953 C29 1.853 . S
C958 C599 1.467 . S
C988 C713 1.299 . S
C983 C38 1.408 . S
C1018 C327 0.966 . S
C1013 C19 1.379 . S
C1043 C27 1.595 . S
C1048 C441 1.129 . S
C1078 C545 1.246 . S
C1073 C41 1.575 . S
C1108 C659 1.132 . S
C1103 C7 1.523 . S
C1133 C52 1.654 . S
C1138 C257 1.128 . S
C1168 C89 1.473 . S
C1163 C62 1.754 . S
C1193 C74 1.247 . S
C1198 C203 1.022 . S
C1223 C82 1.369 . S
C1228 C143 1.097 . S
C1258 C555 1.340 . S
C1253 C51 1.904 . S
C1288 C669 1.478 . S
C1283 C60 1.628 . S
C1318 C317 0.966 . S
C1313 C71 1.134 . S
C1343 C84 1.360 . S
C1348 C431 1.039 . S
C1378 C573 1.438 . S
C1373 C63 1.737 . S
C1408 C687 1.151 . S
C1403 C73 1.489 . S
C1438 C371 1.317 . S
C1433 C85 1.618 . S
C1463 C49 1.428 . S
C1468 C485 1.325 . S
