# Generated by pormake.
# Topology ptr, (4,4)-cn, num edge types: 1
# Building blocks:
#     Node 0, Type 0, BuildingBlock: NAHDIM_clean_sbu_0, # of connection points: 4
#     Node 1, Type 0, BuildingBlock: NAHDIM_clean_sbu_0, # of connection points: 4
#     Node 2, Type 0, BuildingBlock: NAHDIM_clean_sbu_0, # of connection points: 4
#     Node 3, Type 0, BuildingBlock: NAHDIM_clean_sbu_0, # of connection points: 4
#     Node 4, Type 0, BuildingBlock: NAHDIM_clean_sbu_0, # of connection points: 4
#     Node 5, Type 0, BuildingBlock: NAHDIM_clean_sbu_0, # of connection points: 4
#     Node 6, Type 0, BuildingBlock: NAHDIM_clean_sbu_0, # of connection points: 4
#     Node 7, Type 0, BuildingBlock: NAHDIM_clean_sbu_0, # of connection points: 4
#     Node 8, Type 0, BuildingBlock: NAHDIM_clean_sbu_0, # of connection points: 4
#     Node 9, Type 0, BuildingBlock: NAHDIM_clean_sbu_0, # of connection points: 4
#     Node 10, Type 0, BuildingBlock: NAHDIM_clean_sbu_0, # of connection points: 4
#     Node 11, Type 0, BuildingBlock: NAHDIM_clean_sbu_0, # of connection points: 4
#     Node 12, Type 0, BuildingBlock: NAHDIM_clean_sbu_0, # of connection points: 4
#     Node 13, Type 0, BuildingBlock: NAHDIM_clean_sbu_0, # of connection points: 4
#     Node 14, Type 0, BuildingBlock: NAHDIM_clean_sbu_0, # of connection points: 4
#     Node 15, Type 0, BuildingBlock: NAHDIM_clean_sbu_0, # of connection points: 4
#     Node 16, Type 0, BuildingBlock: NAHDIM_clean_sbu_0, # of connection points: 4
#     Node 17, Type 0, BuildingBlock: NAHDIM_clean_sbu_0, # of connection points: 4
#     Node 18, Type 1, BuildingBlock: MIFKUJ_clean_linker_1, # of connection points: 4
#     Node 19, Type 1, BuildingBlock: MIFKUJ_clean_linker_1, # of connection points: 4
#     Node 20, Type 1, BuildingBlock: MIFKUJ_clean_linker_1, # of connection points: 4
#     Node 21, Type 1, BuildingBlock: MIFKUJ_clean_linker_1, # of connection points: 4
#     Node 22, Type 1, BuildingBlock: MIFKUJ_clean_linker_1, # of connection points: 4
#     Node 23, Type 1, BuildingBlock: MIFKUJ_clean_linker_1, # of connection points: 4
#     Node 24, Type 1, BuildingBlock: MIFKUJ_clean_linker_1, # of connection points: 4
#     Node 25, Type 1, BuildingBlock: MIFKUJ_clean_linker_1, # of connection points: 4
#     Node 26, Type 1, BuildingBlock: MIFKUJ_clean_linker_1, # of connection points: 4
#     Node 27, Type 1, BuildingBlock: MIFKUJ_clean_linker_1, # of connection points: 4
#     Node 28, Type 1, BuildingBlock: MIFKUJ_clean_linker_1, # of connection points: 4
#     Node 29, Type 1, BuildingBlock: MIFKUJ_clean_linker_1, # of connection points: 4
#     Node 30, Type 1, BuildingBlock: MIFKUJ_clean_linker_1, # of connection points: 4
#     Node 31, Type 1, BuildingBlock: MIFKUJ_clean_linker_1, # of connection points: 4
#     Node 32, Type 1, BuildingBlock: MIFKUJ_clean_linker_1, # of connection points: 4
#     Node 33, Type 1, BuildingBlock: MIFKUJ_clean_linker_1, # of connection points: 4
#     Node 34, Type 1, BuildingBlock: MIFKUJ_clean_linker_1, # of connection points: 4
#     Node 35, Type 1, BuildingBlock: MIFKUJ_clean_linker_1, # of connection points: 4
#     Edge 36, Type (0, 1), BuildingBlock: ZUJKAS_clean_linker_0, # of connection points: 2
#     Edge 37, Type (0, 1), BuildingBlock: ZUJKAS_clean_linker_0, # of connection points: 2
#     Edge 38, Type (0, 1), BuildingBlock: ZUJKAS_clean_linker_0, # of connection points: 2
#     Edge 39, Type (0, 1), BuildingBlock: ZUJKAS_clean_linker_0, # of connection points: 2
#     Edge 40, Type (0, 1), BuildingBlock: ZUJKAS_clean_linker_0, # of connection points: 2
#     Edge 41, Type (0, 1), BuildingBlock: ZUJKAS_clean_linker_0, # of connection points: 2
#     Edge 42, Type (0, 1), BuildingBlock: ZUJKAS_clean_linker_0, # of connection points: 2
#     Edge 43, Type (0, 1), BuildingBlock: ZUJKAS_clean_linker_0, # of connection points: 2
#     Edge 44, Type (0, 1), BuildingBlock: ZUJKAS_clean_linker_0, # of connection points: 2
#     Edge 45, Type (0, 1), BuildingBlock: ZUJKAS_clean_linker_0, # of connection points: 2
#     Edge 46, Type (0, 1), BuildingBlock: ZUJKAS_clean_linker_0, # of connection points: 2
#     Edge 47, Type (0, 1), BuildingBlock: ZUJKAS_clean_linker_0, # of connection points: 2
#     Edge 48, Type (0, 1), BuildingBlock: ZUJKAS_clean_linker_0, # of connection points: 2
#     Edge 49, Type (0, 1), BuildingBlock: ZUJKAS_clean_linker_0, # of connection points: 2
#     Edge 50, Type (0, 1), BuildingBlock: ZUJKAS_clean_linker_0, # of connection points: 2
#     Edge 51, Type (0, 1), BuildingBlock: ZUJKAS_clean_linker_0, # of connection points: 2
#     Edge 52, Type (0, 1), BuildingBlock: ZUJKAS_clean_linker_0, # of connection points: 2
#     Edge 53, Type (0, 1), BuildingBlock: ZUJKAS_clean_linker_0, # of connection points: 2
#     Edge 54, Type (0, 1), BuildingBlock: ZUJKAS_clean_linker_0, # of connection points: 2
#     Edge 55, Type (0, 1), BuildingBlock: ZUJKAS_clean_linker_0, # of connection points: 2
#     Edge 56, Type (0, 1), BuildingBlock: ZUJKAS_clean_linker_0, # of connection points: 2
#     Edge 57, Type (0, 1), BuildingBlock: ZUJKAS_clean_linker_0, # of connection points: 2
#     Edge 58, Type (0, 1), BuildingBlock: ZUJKAS_clean_linker_0, # of connection points: 2
#     Edge 59, Type (0, 1), BuildingBlock: ZUJKAS_clean_linker_0, # of connection points: 2
#     Edge 60, Type (0, 1), BuildingBlock: ZUJKAS_clean_linker_0, # of connection points: 2
#     Edge 61, Type (0, 1), BuildingBlock: ZUJKAS_clean_linker_0, # of connection points: 2
#     Edge 62, Type (0, 1), BuildingBlock: ZUJKAS_clean_linker_0, # of connection points: 2
#     Edge 63, Type (0, 1), BuildingBlock: ZUJKAS_clean_linker_0, # of connection points: 2
#     Edge 64, Type (0, 1), BuildingBlock: ZUJKAS_clean_linker_0, # of connection points: 2
#     Edge 65, Type (0, 1), BuildingBlock: ZUJKAS_clean_linker_0, # of connection points: 2
#     Edge 66, Type (0, 1), BuildingBlock: ZUJKAS_clean_linker_0, # of connection points: 2
#     Edge 67, Type (0, 1), BuildingBlock: ZUJKAS_clean_linker_0, # of connection points: 2
#     Edge 68, Type (0, 1), BuildingBlock: ZUJKAS_clean_linker_0, # of connection points: 2
#     Edge 69, Type (0, 1), BuildingBlock: ZUJKAS_clean_linker_0, # of connection points: 2
#     Edge 70, Type (0, 1), BuildingBlock: ZUJKAS_clean_linker_0, # of connection points: 2
#     Edge 71, Type (0, 1), BuildingBlock: ZUJKAS_clean_linker_0, # of connection points: 2
#     Edge 72, Type (0, 1), BuildingBlock: ZUJKAS_clean_linker_0, # of connection points: 2
#     Edge 73, Type (0, 1), BuildingBlock: ZUJKAS_clean_linker_0, # of connection points: 2
#     Edge 74, Type (0, 1), BuildingBlock: ZUJKAS_clean_linker_0, # of connection points: 2
#     Edge 75, Type (0, 1), BuildingBlock: ZUJKAS_clean_linker_0, # of connection points: 2
#     Edge 76, Type (0, 1), BuildingBlock: ZUJKAS_clean_linker_0, # of connection points: 2
#     Edge 77, Type (0, 1), BuildingBlock: ZUJKAS_clean_linker_0, # of connection points: 2
#     Edge 78, Type (0, 1), BuildingBlock: ZUJKAS_clean_linker_0, # of connection points: 2
#     Edge 79, Type (0, 1), BuildingBlock: ZUJKAS_clean_linker_0, # of connection points: 2
#     Edge 80, Type (0, 1), BuildingBlock: ZUJKAS_clean_linker_0, # of connection points: 2
#     Edge 81, Type (0, 1), BuildingBlock: ZUJKAS_clean_linker_0, # of connection points: 2
#     Edge 82, Type (0, 1), BuildingBlock: ZUJKAS_clean_linker_0, # of connection points: 2
#     Edge 83, Type (0, 1), BuildingBlock: ZUJKAS_clean_linker_0, # of connection points: 2
#     Edge 84, Type (0, 1), BuildingBlock: ZUJKAS_clean_linker_0, # of connection points: 2
#     Edge 85, Type (0, 1), BuildingBlock: ZUJKAS_clean_linker_0, # of connection points: 2
#     Edge 86, Type (0, 1), BuildingBlock: ZUJKAS_clean_linker_0, # of connection points: 2
#     Edge 87, Type (0, 1), BuildingBlock: ZUJKAS_clean_linker_0, # of connection points: 2
#     Edge 88, Type (0, 1), BuildingBlock: ZUJKAS_clean_linker_0, # of connection points: 2
#     Edge 89, Type (0, 1), BuildingBlock: ZUJKAS_clean_linker_0, # of connection points: 2
#     Edge 90, Type (0, 1), BuildingBlock: ZUJKAS_clean_linker_0, # of connection points: 2
#     Edge 91, Type (0, 1), BuildingBlock: ZUJKAS_clean_linker_0, # of connection points: 2
#     Edge 92, Type (0, 1), BuildingBlock: ZUJKAS_clean_linker_0, # of connection points: 2
#     Edge 93, Type (0, 1), BuildingBlock: ZUJKAS_clean_linker_0, # of connection points: 2
#     Edge 94, Type (0, 1), BuildingBlock: ZUJKAS_clean_linker_0, # of connection points: 2
#     Edge 95, Type (0, 1), BuildingBlock: ZUJKAS_clean_linker_0, # of connection points: 2
#     Edge 96, Type (0, 1), BuildingBlock: ZUJKAS_clean_linker_0, # of connection points: 2
#     Edge 97, Type (0, 1), BuildingBlock: ZUJKAS_clean_linker_0, # of connection points: 2
#     Edge 98, Type (0, 1), BuildingBlock: ZUJKAS_clean_linker_0, # of connection points: 2
#     Edge 99, Type (0, 1), BuildingBlock: ZUJKAS_clean_linker_0, # of connection points: 2
#     Edge 100, Type (0, 1), BuildingBlock: ZUJKAS_clean_linker_0, # of connection points: 2
#     Edge 101, Type (0, 1), BuildingBlock: ZUJKAS_clean_linker_0, # of connection points: 2
#     Edge 102, Type (0, 1), BuildingBlock: ZUJKAS_clean_linker_0, # of connection points: 2
#     Edge 103, Type (0, 1), BuildingBlock: ZUJKAS_clean_linker_0, # of connection points: 2
#     Edge 104, Type (0, 1), BuildingBlock: ZUJKAS_clean_linker_0, # of connection points: 2
#     Edge 105, Type (0, 1), BuildingBlock: ZUJKAS_clean_linker_0, # of connection points: 2
#     Edge 106, Type (0, 1), BuildingBlock: ZUJKAS_clean_linker_0, # of connection points: 2
#     Edge 107, Type (0, 1), BuildingBlock: ZUJKAS_clean_linker_0, # of connection points: 2
# Relax obj value: 0.073
# Max RMSD: 0.245
# Mean RMSD: 0.109
data_MOF--net-ptr--node1-NAHDIM_clean_sbu_0--node2-MIFKUJ_clean_linker_1--edge1-ZUJKAS_clean_linker_0
_symmetry_space_group_name_H-M    P1
_symmetry_Int_Tables_number       1
_symmetry_cell_setting            triclinic
loop_
_symmetry_equiv_pos_as_xyz
'x, y, z'
_cell_length_a     113.65984
_cell_length_b     111.61171
_cell_length_c     75.48546
_cell_angle_alpha  91.589737
_cell_angle_beta   89.228662
_cell_angle_gamma 121.74159
loop_
_atom_site_label
_atom_site_type_symbol
_atom_site_fract_x
_atom_site_fract_y
_atom_site_fract_z
_atom_type_partial_charge
C0 C 0.0224 0.34221 0.02856 0.0
O1 O 0.00914 0.33384 0.03178 0.0
O2 O 0.99627 0.33562 0.99953 0.0
Zn3 Zn 0.011 0.35473 0.00913 0.0
O4 O 0.0041 0.36182 0.02901 0.0
C5 C 0.01032 0.36616 0.97582 0.0
O6 O 0.99855 0.35401 0.97445 0.0
O7 O 0.02629 0.35271 0.01871 0.0
C8 C 0.99545 0.36555 0.02646 0.0
O9 O 0.99022 0.36401 0.01055 0.0
C10 C 0.98401 0.32791 0.0053 0.0
O11 O 0.97988 0.3323 0.01897 0.0
O12 O 0.0178 0.36884 0.9895 0.0
C13 C 0.67618 0.65555 0.98848 0.0
O14 O 0.66804 0.65871 0.98036 0.0
O15 O 0.6579 0.66444 0.02317 0.0
Zn16 Zn 0.65444 0.64598 0.01335 0.0
O17 O 0.64018 0.63882 0.99388 0.0
C18 C 0.65167 0.63515 0.04867 0.0
O19 O 0.66103 0.64832 0.05277 0.0
O20 O 0.67241 0.64951 0.0033 0.0
C21 C 0.62747 0.62989 0.99679 0.0
O22 O 0.62349 0.62537 0.01295 0.0
C23 C 0.64912 0.66558 0.03244 0.0
O24 O 0.63702 0.65425 0.03565 0.0
O25 O 0.64767 0.63176 0.03268 0.0
C26 C 0.34339 0.02509 0.99554 0.0
O27 O 0.33591 0.01164 0.99103 0.0
O28 O 0.33626 0.99883 0.0263 0.0
Zn29 Zn 0.35472 0.01347 0.01651 0.0
O30 O 0.35997 0.00519 0.9961 0.0
C31 C 0.36663 0.01984 0.05193 0.0
O32 O 0.35392 0.01552 0.05696 0.0
O33 O 0.35286 0.02905 0.00709 0.0
C34 C 0.36787 0.00049 0.9983 0.0
O35 O 0.3723 0.00059 0.01432 0.0
C36 C 0.33404 0.98754 0.03311 0.0
O37 O 0.34413 0.98508 0.03375 0.0
O38 O 0.36937 0.02042 0.03548 0.0
C39 C 0.97257 0.66189 0.00506 0.0
O40 O 0.97879 0.66873 0.0198 0.0
O41 O 0.00521 0.66884 0.01884 0.0
Zn42 Zn 0.99005 0.65043 0.00843 0.0
O43 O 0.99743 0.64367 0.98874 0.0
C44 C 0.98398 0.6391 0.04378 0.0
O45 O 0.99019 0.65245 0.04869 0.0
O46 O 0.97547 0.65323 0.99818 0.0
C47 C 0.00223 0.63594 0.99202 0.0
O48 O 0.00292 0.63295 0.00854 0.0
C49 C 0.01364 0.67913 0.00942 0.0
O50 O 0.0128 0.6777 0.99207 0.0
O51 O 0.98223 0.6358 0.02736 0.0
C52 C 0.31332 0.34675 0.00802 0.0
O53 O 0.31362 0.34052 0.99314 0.0
O54 O 0.33849 0.33958 0.99631 0.0
Zn55 Zn 0.34242 0.35839 0.0058 0.0
O56 O 0.35676 0.36596 0.02517 0.0
C57 C 0.35285 0.36981 0.97122 0.0
O58 O 0.35164 0.35754 0.96839 0.0
O59 O 0.32464 0.35541 0.0158 0.0
C60 C 0.36953 0.37189 0.02141 0.0
O61 O 0.37325 0.37268 0.00471 0.0
C62 C 0.34466 0.33334 0.00053 0.0
O63 O 0.35475 0.33927 0.0122 0.0
O64 O 0.34927 0.37244 0.98616 0.0
C65 C 0.65579 0.9793 0.02391 0.0
O66 O 0.66259 0.99257 0.0293 0.0
O67 O 0.66373 0.006 0.99365 0.0
Zn68 Zn 0.64496 0.99107 0.00246 0.0
O69 O 0.63816 0.99799 0.02266 0.0
C70 C 0.63321 0.99301 0.97033 0.0
O71 O 0.64441 0.00567 0.97104 0.0
O72 O 0.64687 0.97546 0.01163 0.0
C73 C 0.63484 0.00715 0.02117 0.0
O74 O 0.63646 0.01314 0.00585 0.0
C75 C 0.67154 0.01828 0.00031 0.0
O76 O 0.66748 0.02227 0.01443 0.0
O77 O 0.63116 0.98438 0.98239 0.0
C78 C 0.69152 0.67889 0.34572 0.0
O79 O 0.68567 0.67256 0.3306 0.0
O80 O 0.65899 0.67117 0.33193 0.0
Zn81 Zn 0.67378 0.68982 0.3423 0.0
O82 O 0.66578 0.69626 0.36168 0.0
C83 C 0.67474 0.70287 0.30972 0.0
O84 O 0.66205 0.69191 0.30859 0.0
O85 O 0.68829 0.68716 0.35305 0.0
C86 C 0.66229 0.70518 0.35909 0.0
O87 O 0.66366 0.71026 0.3432 0.0
C88 C 0.64984 0.66143 0.34144 0.0
O89 O 0.64979 0.66365 0.35862 0.0
O90 O 0.68208 0.70425 0.32308 0.0
C91 C 0.33894 0.988 0.32658 0.0
O92 O 0.33484 0.99652 0.32205 0.0
O93 O 0.32262 0.99852 0.35915 0.0
Zn94 Zn 0.31619 0.97905 0.34957 0.0
O95 O 0.30144 0.97277 0.33098 0.0
C96 C 0.2974 0.96345 0.37677 0.0
O97 O 0.29178 0.97031 0.37098 0.0
O98 O 0.33239 0.97915 0.33861 0.0
C99 C 0.29622 0.96027 0.32484 0.0
O100 O 0.30073 0.95247 0.33086 0.0
C101 C 0.31706 0.00546 0.35535 0.0
O102 O 0.30639 -0.0002 0.34456 0.0
O103 O 0.30845 0.9655 0.36955 0.0
C104 C 0.01696 0.36115 0.32524 0.0
O105 O 0.00896 0.34785 0.32028 0.0
O106 O 0.00685 0.33473 0.3585 0.0
Zn107 Zn 0.02572 0.34819 0.3486 0.0
O108 O 0.03092 0.33881 0.32961 0.0
C109 C 0.04023 0.34562 0.37673 0.0
O110 O 0.03161 0.3323 0.37238 0.0
O111 O 0.0255 0.36428 0.33782 0.0
C112 C 0.04316 0.34579 0.32357 0.0
O113 O 0.05167 0.35857 0.33 0.0
C114 C -0.0002 0.32172 0.35417 0.0
O115 O 0.00489 0.31659 0.34266 0.0
O116 O 0.03973 0.35501 0.36825 0.0
C117 C 0.6438 0.97865 0.31852 0.0
O118 O 0.65285 0.97794 0.30826 0.0
O119 O 0.6753 0.99634 0.35483 0.0
Zn120 Zn 0.66045 0.97716 0.34572 0.0
O121 O 0.66789 0.96946 0.32723 0.0
C122 C 0.66232 0.96184 0.37339 0.0
O123 O 0.6751 0.96853 0.36748 0.0
O124 O 0.64486 0.9784 0.33524 0.0
C125 C 0.68015 0.97587 0.32114 0.0
O126 O 0.6892 0.9886 0.32718 0.0
C127 C 0.67876 0.00753 0.34666 0.0
O128 O 0.67271 0.00662 0.33155 0.0
O129 O 0.65354 0.96389 0.36607 0.0
C130 C 0.98751 0.67787 0.35874 0.0
O131 O 0.99269 0.66991 0.36098 0.0
O132 O 0.012 0.67681 0.33211 0.0
Zn133 Zn 0.0136 0.69454 0.34221 0.0
O134 O 0.02693 0.70262 0.36285 0.0
C135 C 0.02749 0.70831 0.31034 0.0
O136 O 0.03057 0.6985 0.31046 0.0
O137 O 0.99473 0.68948 0.35085 0.0
C138 C 0.03996 0.70958 0.36058 0.0
O139 O 0.0449 0.71138 0.3444 0.0
C140 C 0.01883 0.67146 0.33721 0.0
O141 O 0.02771 0.67756 0.35029 0.0
O142 O 0.0201 0.70883 0.32278 0.0
C143 C 0.32459 0.3193 0.36405 0.0
O144 O 0.32978 0.33218 0.37046 0.0
O145 O 0.33048 0.34404 0.32839 0.0
Zn146 Zn 0.31307 0.32951 0.34043 0.0
O147 O 0.30821 0.33862 0.36024 0.0
C148 C 0.29866 0.31725 0.307 0.0
O149 O 0.31071 0.31958 0.30156 0.0
O150 O 0.31661 0.3153 0.35068 0.0
C151 C 0.30064 0.34361 0.35734 0.0
O152 O 0.29622 0.34301 0.34116 0.0
C153 C 0.33093 0.35316 0.31824 0.0
O154 O 0.31962 0.35332 0.31551 0.0
O155 O 0.29735 0.32033 0.32295 0.0
C156 C 0.35897 0.01854 0.67834 0.0
O157 O 0.35428 0.0123 0.6628 0.0
O158 O 0.32367 0.007 0.66566 0.0
Zn159 Zn 0.33849 0.02626 0.67455 0.0
O160 O 0.33112 0.03402 0.69297 0.0
C161 C 0.3371 0.04205 0.64708 0.0
O162 O 0.32432 0.03564 0.65298 0.0
O163 O 0.35391 0.02525 0.68558 0.0
C164 C 0.31885 0.02774 0.69902 0.0
O165 O 0.30977 0.01495 0.69319 0.0
C166 C 0.32018 0.996 0.67432 0.0
O167 O 0.32618 0.99728 0.6896 0.0
O168 O 0.34562 0.03955 0.65425 0.0
C169 C 0.01283 0.32549 0.65537 0.0
O170 O 0.00675 0.33194 0.6497 0.0
O171 O 0.98982 0.32906 0.68485 0.0
Zn172 Zn 0.98776 0.3112 0.67456 0.0
O173 O 0.97467 0.30395 0.65378 0.0
C174 C 0.97513 0.29795 0.70749 0.0
O175 O 0.97497 0.30955 0.71001 0.0
O176 O 0.00651 0.31567 0.66639 0.0
C177 C 0.96178 0.29859 0.6562 0.0
O178 O 0.95716 0.29803 0.67239 0.0
C179 C 0.98595 0.33646 0.67734 0.0
O180 O 0.98024 0.33262 0.66155 0.0
O181 O 0.9803 0.29631 0.69326 0.0
C182 C 0.67565 0.68529 0.66167 0.0
O183 O 0.66811 0.6716 0.65876 0.0
O184 O 0.67376 0.66195 0.6947 0.0
Zn185 Zn 0.69061 0.67663 0.68173 0.0
O186 O 0.69565 0.66776 0.66189 0.0
C187 C 0.70485 0.68983 0.71449 0.0
O188 O 0.69255 0.68709 0.71936 0.0
O189 O 0.68633 0.69032 0.67142 0.0
C190 C 0.70666 0.67557 0.65325 0.0
O191 O 0.7143 0.68902 0.65769 0.0
C192 C 0.66551 0.64966 0.68832 0.0
O193 O 0.66813 0.64606 0.67273 0.0
O194 O 0.70653 0.68652 0.69883 0.0
C195 C 0.30878 0.32466 0.67274 0.0
O196 O 0.31441 0.33049 0.68815 0.0
O197 O 0.34037 0.33028 0.68805 0.0
Zn198 Zn 0.32553 0.31249 0.67598 0.0
O199 O 0.33394 0.30673 0.65649 0.0
C200 C 0.31686 0.29945 0.71019 0.0
O201 O 0.32309 0.3126 0.716 0.0
O202 O 0.31176 0.31626 0.6652 0.0
C203 C 0.33878 0.29901 0.65965 0.0
O204 O 0.33843 0.29496 0.67592 0.0
C205 C 0.34958 0.3405 0.67918 0.0
O206 O 0.34962 0.33922 0.66183 0.0
O207 O 0.3163 0.2969 0.6936 0.0
C208 C 0.65741 0.01405 0.69237 0.0
O209 O 0.66265 0.00667 0.69756 0.0
O210 O 0.67537 0.00529 0.6598 0.0
Zn211 Zn 0.68049 0.0243 0.66984 0.0
O212 O 0.69471 0.03072 0.68918 0.0
C213 C 0.69944 0.04064 0.64324 0.0
O214 O 0.70522 0.03392 0.649 0.0
O215 O 0.66342 0.02281 0.68007 0.0
C216 C 0.69855 0.04244 0.697 0.0
O217 O 0.69315 0.04974 0.69208 0.0
C218 C 0.68081 0.9985 0.66483 0.0
O219 O 0.6904 0.00403 0.67718 0.0
O220 O 0.68824 0.03828 0.65034 0.0
C221 C 0.98095 0.6373 0.67728 0.0
O222 O 0.98901 0.6439 0.66379 0.0
O223 O 0.99231 0.67151 0.66484 0.0
Zn224 Zn 0.97291 0.65747 0.67281 0.0
O225 O 0.96691 0.66618 0.69183 0.0
C226 C 0.96208 0.65768 0.63832 0.0
O227 O 0.9737 0.66994 0.63729 0.0
O228 O 0.9729 0.64113 0.68327 0.0
C229 C 0.9603 0.67212 0.68828 0.0
O230 O 0.95738 0.67278 0.67169 0.0
C231 C 0.99738 0.68473 0.66475 0.0
O232 O 0.98976 0.68979 0.67005 0.0
O233 O 0.95959 0.65047 0.65215 0.0
H234 H 0.14311 0.31559 0.19194 0.0
H235 H 0.12722 0.31843 0.21095 0.0
H236 H 0.09252 0.2844 0.18226 0.0
H237 H 0.1086 0.28167 0.16307 0.0
H238 H 0.14664 0.2942 0.18742 0.0
H239 H 0.1357 0.32122 0.15075 0.0
H240 H 0.12127 0.32746 0.13451 0.0
H241 H 0.10409 0.28861 0.10373 0.0
H242 H 0.11847 0.28234 0.12022 0.0
H243 H 0.15664 0.28085 0.11521 0.0
H244 H 0.17588 0.28503 0.09588 0.0
H245 H 0.20431 0.31972 0.13024 0.0
H246 H 0.1851 0.31568 0.14927 0.0
H247 H 0.14772 0.29827 0.12211 0.0
H248 H 0.16674 0.27679 0.15811 0.0
H249 H 0.18466 0.27608 0.17502 0.0
H250 H 0.1903 0.311 0.20796 0.0
H251 H 0.17263 0.31177 0.19105 0.0
C252 C 0.12705 0.29841 0.17611 0.0
C253 C 0.13208 0.30868 0.18978 0.0
C254 C 0.12297 0.31026 0.20068 0.0
C255 C 0.1086 0.30155 0.19822 0.0
C256 C 0.10354 0.29133 0.1844 0.0
C257 C 0.11271 0.28975 0.17346 0.0
C258 C 0.13697 0.29685 0.16483 0.0
C259 C 0.14691 0.2951 0.17313 0.0
C260 C 0.13717 0.29781 0.14619 0.0
C261 C 0.12801 0.30124 0.13682 0.0
C262 C 0.12871 0.31398 0.14065 0.0
C263 C 0.12057 0.31759 0.13125 0.0
C264 C 0.11158 0.30853 0.11784 0.0
C265 C 0.11083 0.29572 0.11411 0.0
C266 C 0.11905 0.29216 0.12345 0.0
C267 C 0.16945 0.29779 0.13385 0.0
C268 C 0.16704 0.28928 0.11863 0.0
C269 C 0.17801 0.2917 0.10759 0.0
C270 C 0.19159 0.30266 0.11162 0.0
C271 C 0.19399 0.31104 0.12698 0.0
C272 C 0.18302 0.30871 0.1379 0.0
C273 C 0.1577 0.296 0.14475 0.0
C274 C 0.1473 0.297 0.13636 0.0
C275 C 0.15744 0.29492 0.16341 0.0
C276 C 0.16831 0.29432 0.17333 0.0
C277 C 0.17191 0.28434 0.16891 0.0
C278 C 0.18213 0.28394 0.17856 0.0
C279 C 0.18877 0.29339 0.19291 0.0
C280 C 0.18518 0.30339 0.1972 0.0
C281 C 0.17508 0.30386 0.18752 0.0
H282 H 0.72357 0.88409 0.1764 0.0
H283 H 0.72277 0.9016 0.19576 0.0
H284 H 0.68092 0.88597 0.17845 0.0
H285 H 0.68156 0.86811 0.15989 0.0
H286 H 0.70783 0.85599 0.17888 0.0
H287 H 0.71488 0.88939 0.13384 0.0
H288 H 0.70886 0.90436 0.11818 0.0
H289 H 0.66965 0.86751 0.10293 0.0
H290 H 0.67547 0.85274 0.11918 0.0
H291 H 0.67541 0.82021 0.12146 0.0
H292 H 0.66945 0.7978 0.10729 0.0
H293 H 0.70981 0.80563 0.12066 0.0
H294 H 0.71588 0.82833 0.13441 0.0
H295 H 0.69434 0.8467 0.11546 0.0
H296 H 0.68262 0.81466 0.1619 0.0
H297 H 0.68326 0.79746 0.18042 0.0
H298 H 0.72548 0.82837 0.19508 0.0
H299 H 0.72484 0.84558 0.17624 0.0
C300 C 0.70269 0.8749 0.16652 0.0
C301 C 0.71426 0.88451 0.17673 0.0
C302 C 0.71382 0.89458 0.18768 0.0
C303 C 0.70177 0.89518 0.18869 0.0
C304 C 0.6903 0.88569 0.17818 0.0
C305 C 0.69072 0.87559 0.16735 0.0
C306 C 0.70273 0.8635 0.15599 0.0
C307 C 0.70525 0.85418 0.16488 0.0
C308 C 0.69881 0.86081 0.1379 0.0
C309 C 0.69559 0.86996 0.12781 0.0
C310 C 0.70496 0.88457 0.1272 0.0
C311 C 0.70156 0.89309 0.11811 0.0
C312 C 0.68874 0.88713 0.10937 0.0
C313 C 0.67951 0.87246 0.10976 0.0
C314 C 0.68289 0.86398 0.11888 0.0
C315 C 0.69606 0.82591 0.12907 0.0
C316 C 0.68305 0.81719 0.12116 0.0
C317 C 0.6796 0.80431 0.11324 0.0
C318 C 0.68911 0.79989 0.11301 0.0
C319 C 0.70229 0.80879 0.12055 0.0
C320 C 0.70574 0.8217 0.1285 0.0
C321 C 0.69918 0.83911 0.13844 0.0
C322 C 0.6973 0.84876 0.12933 0.0
C323 C 0.70318 0.84184 0.15649 0.0
C324 C 0.70377 0.83133 0.16741 0.0
C325 C 0.69211 0.81767 0.16881 0.0
C326 C 0.69249 0.80784 0.17941 0.0
C327 C 0.70446 0.81153 0.18908 0.0
C328 C 0.7161 0.82525 0.18781 0.0
C329 C 0.71576 0.83507 0.17705 0.0
H330 H 0.11966 0.84705 0.1741 0.0
H331 H 0.10158 0.82853 0.19211 0.0
H332 H 0.10868 0.79796 0.16583 0.0
H333 H 0.12733 0.81667 0.1488 0.0
H334 H 0.14614 0.85597 0.17503 0.0
H335 H 0.11086 0.83432 0.12926 0.0
H336 H 0.09367 0.81419 0.11116 0.0
H337 H 0.1259 0.80837 0.09011 0.0
H338 H 0.14294 0.82819 0.1084 0.0
H339 H 0.17741 0.85899 0.11378 0.0
H340 H 0.19968 0.87513 0.10011 0.0
H341 H 0.19861 0.91056 0.12269 0.0
H342 H 0.17605 0.89431 0.1359 0.0
H343 H 0.15247 0.85452 0.11006 0.0
H344 H 0.18512 0.8688 0.15665 0.0
H345 H 0.2035 0.88401 0.1776 0.0
H346 H 0.17848 0.89977 0.19861 0.0
H347 H 0.16027 0.88483 0.17713 0.0
C348 C 0.12478 0.83326 0.15994 0.0
C349 C 0.11725 0.83634 0.17216 0.0
C350 C 0.10681 0.82569 0.18235 0.0
C351 C 0.10365 0.81172 0.18049 0.0
C352 C 0.11095 0.80862 0.16784 0.0
C353 C 0.1215 0.8193 0.15785 0.0
C354 C 0.1368 0.84481 0.1505 0.0
C355 C 0.14734 0.85585 0.16075 0.0
C356 C 0.13864 0.84433 0.13194 0.0
C357 C 0.12819 0.83271 0.12032 0.0
C358 C 0.11422 0.82868 0.12078 0.0
C359 C 0.10441 0.81721 0.11044 0.0
C360 C 0.10847 0.80975 0.09923 0.0
C361 C 0.1225 0.81404 0.09845 0.0
C362 C 0.13225 0.82537 0.10891 0.0
C363 C 0.1751 0.87544 0.12593 0.0
C364 C 0.1819 0.87024 0.11564 0.0
C365 C 0.1947 0.87947 0.108 0.0
C366 C 0.20096 0.89412 0.11044 0.0
C367 C 0.19401 0.89933 0.12048 0.0
C368 C 0.18118 0.89007 0.12814 0.0
C369 C 0.16181 0.86545 0.13466 0.0
C370 C 0.15105 0.85481 0.12428 0.0
C371 C 0.15995 0.86595 0.15316 0.0
C372 C 0.1714 0.87582 0.16518 0.0
C373 C 0.18369 0.87574 0.16552 0.0
C374 C 0.19413 0.88432 0.17764 0.0
C375 C 0.19242 0.89305 0.18982 0.0
C376 C 0.18018 0.89328 0.18927 0.0
C377 C 0.16973 0.88469 0.1771 0.0
H378 H 0.27478 0.15931 0.84457 0.0
H379 H 0.27321 0.17619 0.82622 0.0
H380 H 0.31516 0.20818 0.84056 0.0
H381 H 0.3167 0.1913 0.8587 0.0
H382 H 0.29214 0.14983 0.84069 0.0
H383 H 0.2837 0.17568 0.88672 0.0
H384 H 0.28854 0.19729 0.90247 0.0
H385 H 0.32952 0.20656 0.9152 0.0
H386 H 0.3248 0.18527 0.89895 0.0
H387 H 0.32596 0.1525 0.89835 0.0
H388 H 0.3318 0.13751 0.91409 0.0
H389 H 0.29206 0.101 0.89982 0.0
H390 H 0.28607 0.11617 0.88462 0.0
H391 H 0.30693 0.15849 0.90364 0.0
H392 H 0.31901 0.13776 0.85701 0.0
H393 H 0.31916 0.12012 0.83736 0.0
H394 H 0.27662 0.10417 0.8231 0.0
H395 H 0.27639 0.12156 0.84335 0.0
C396 C 0.29578 0.17409 0.85322 0.0
C397 C 0.28359 0.16999 0.84384 0.0
C398 C 0.28272 0.17962 0.83334 0.0
C399 C 0.29404 0.19353 0.83202 0.0
C400 C 0.30618 0.19763 0.84156 0.0
C401 C 0.30707 0.18798 0.85195 0.0
C402 C 0.29701 0.16366 0.86351 0.0
C403 C 0.29503 0.15153 0.85459 0.0
C404 C 0.30135 0.16619 0.88143 0.0
C405 C 0.30393 0.17893 0.89153 0.0
C406 C 0.29374 0.18242 0.89284 0.0
C407 C 0.29648 0.1947 0.90197 0.0
C408 C 0.30944 0.20367 0.91001 0.0
C409 C 0.31952 0.2 0.90892 0.0
C410 C 0.31678 0.18776 0.89979 0.0
C411 C 0.3056 0.13546 0.89023 0.0
C412 C 0.31846 0.14128 0.89871 0.0
C413 C 0.32184 0.13267 0.90755 0.0
C414 C 0.31242 0.11805 0.90813 0.0
C415 C 0.2995 0.11224 0.89975 0.0
C416 C 0.29611 0.12088 0.89091 0.0
C417 C 0.30222 0.14475 0.88076 0.0
C418 C 0.30373 0.15661 0.88985 0.0
C419 C 0.29788 0.14221 0.86284 0.0
C420 C 0.29763 0.13087 0.85182 0.0
C421 C 0.30962 0.13028 0.84995 0.0
C422 C 0.30974 0.12029 0.83854 0.0
C423 C 0.29792 0.11079 0.82859 0.0
C424 C 0.28584 0.11123 0.83072 0.0
C425 C 0.28572 0.12122 0.84219 0.0
H426 H 0.8365 0.11888 0.84029 0.0
H427 H 0.81741 0.10333 0.82023 0.0
H428 H 0.79269 0.11851 0.84399 0.0
H429 H 0.81196 0.13442 0.86335 0.0
H430 H 0.85038 0.14711 0.84136 0.0
H431 H 0.82309 0.11075 0.88348 0.0
H432 H 0.80169 0.09464 0.89916 0.0
H433 H 0.80074 0.13026 0.92131 0.0
H434 H 0.82176 0.14622 0.9051 0.0
H435 H 0.85498 0.17852 0.90436 0.0
H436 H 0.87196 0.19966 0.92074 0.0
H437 H 0.9046 0.19393 0.90103 0.0
H438 H 0.88741 0.17236 0.88518 0.0
H439 H 0.84684 0.15207 0.90637 0.0
H440 H 0.86793 0.1871 0.86239 0.0
H441 H 0.88572 0.2051 0.84353 0.0
H442 H 0.89589 0.175 0.8234 0.0
H443 H 0.87833 0.15713 0.84279 0.0
C444 C 0.82562 0.1277 0.85347 0.0
C445 C 0.82692 0.11876 0.84124 0.0
C446 C 0.81597 0.10981 0.82987 0.0
C447 C 0.80354 0.10971 0.83047 0.0
C448 C 0.80218 0.11845 0.84302 0.0
C449 C 0.81313 0.12742 0.85429 0.0
C450 C 0.83761 0.13813 0.86441 0.0
C451 C 0.84976 0.14797 0.85565 0.0
C452 C 0.8366 0.13955 0.88297 0.0
C453 C 0.82398 0.12969 0.89301 0.0
C454 C 0.81822 0.11506 0.89165 0.0
C455 C 0.80606 0.10588 0.90075 0.0
C456 C 0.79948 0.11117 0.91142 0.0
C457 C 0.80542 0.12583 0.91298 0.0
C458 C 0.81753 0.13498 0.90387 0.0
C459 C 0.86992 0.17388 0.89346 0.0
C460 C 0.86577 0.18171 0.9037 0.0
C461 C 0.87552 0.1939 0.91291 0.0
C462 C 0.88965 0.19856 0.91206 0.0
C463 C 0.89378 0.19057 0.90204 0.0
C464 C 0.88399 0.17832 0.89285 0.0
C465 C 0.85941 0.16126 0.88324 0.0
C466 C 0.84761 0.15098 0.89214 0.0
C467 C 0.86053 0.15969 0.86474 0.0
C468 C 0.87193 0.17083 0.85416 0.0
C469 C 0.87418 0.18445 0.85418 0.0
C470 C 0.88424 0.19468 0.84324 0.0
C471 C 0.89217 0.19146 0.83191 0.0
C472 C 0.89006 0.17786 0.83212 0.0
C473 C 0.87998 0.16762 0.8431 0.0
H474 H 0.83085 0.69792 0.82877 0.0
H475 H 0.81341 0.6994 0.81224 0.0
H476 H 0.8173 0.7317 0.84896 0.0
H477 H 0.83487 0.73018 0.86555 0.0
H478 H 0.85669 0.71557 0.83487 0.0
H479 H 0.81674 0.69 0.86879 0.0
H480 H 0.79592 0.6846 0.88516 0.0
H481 H 0.82097 0.71675 0.92442 0.0
H482 H 0.84189 0.72238 0.90771 0.0
H483 H 0.881 0.7236 0.90393 0.0
H484 H 0.8955 0.71777 0.92079 0.0
H485 H 0.88353 0.68198 0.88553 0.0
H486 H 0.86876 0.68764 0.86908 0.0
H487 H 0.85262 0.70661 0.89927 0.0
H488 H 0.89391 0.72598 0.86063 0.0
H489 H 0.91044 0.72468 0.84052 0.0
H490 H 0.87649 0.69384 0.80781 0.0
H491 H 0.86012 0.69489 0.82793 0.0
C492 C 0.83419 0.71395 0.8484 0.0
C493 C 0.82806 0.70543 0.83319 0.0
C494 C 0.8181 0.7063 0.82373 0.0
C495 C 0.81404 0.71573 0.82923 0.0
C496 C 0.82015 0.72426 0.84448 0.0
C497 C 0.83019 0.72341 0.85395 0.0
C498 C 0.84467 0.71273 0.85836 0.0
C499 C 0.85578 0.71358 0.84896 0.0
C500 C 0.84343 0.71004 0.87671 0.0
C501 C 0.83086 0.70683 0.8868 0.0
C502 C 0.81777 0.69608 0.88075 0.0
C503 C 0.80587 0.69296 0.89013 0.0
C504 C 0.80684 0.70034 0.90596 0.0
C505 C 0.81996 0.71089 0.91226 0.0
C506 C 0.83188 0.71412 0.90273 0.0
C507 C 0.87394 0.70615 0.88514 0.0
C508 C 0.88157 0.71454 0.8998 0.0
C509 C 0.88991 0.71125 0.90935 0.0
C510 C 0.89068 0.69942 0.90448 0.0
C511 C 0.88307 0.69108 0.88971 0.0
C512 C 0.87474 0.69439 0.88018 0.0
C513 C 0.86456 0.70926 0.87567 0.0
C514 C 0.85368 0.70888 0.88525 0.0
C515 C 0.86549 0.71142 0.8572 0.0
C516 C 0.87577 0.71056 0.84577 0.0
C517 C 0.89005 0.71883 0.84924 0.0
C518 C 0.89947 0.71811 0.83776 0.0
C519 C 0.89472 0.7093 0.82252 0.0
C520 C 0.88044 0.70092 0.81928 0.0
C521 C 0.87108 0.70151 0.83078 0.0
H522 H 0.80703 0.65096 0.51809 0.0
H523 H 0.79054 0.65253 0.53741 0.0
H524 H 0.75677 0.61696 0.50939 0.0
H525 H 0.77344 0.61554 0.48987 0.0
H526 H 0.81231 0.63081 0.51376 0.0
H527 H 0.79779 0.65481 0.47795 0.0
H528 H 0.78263 0.65992 0.46156 0.0
H529 H 0.76929 0.62267 0.42856 0.0
H530 H 0.78416 0.61735 0.44548 0.0
H531 H 0.82363 0.61604 0.44406 0.0
H532 H 0.84376 0.62056 0.42624 0.0
H533 H 0.86934 0.65935 0.4561 0.0
H534 H 0.84925 0.65488 0.47359 0.0
H535 H 0.81239 0.63376 0.44831 0.0
H536 H 0.83192 0.61335 0.48569 0.0
H537 H 0.85089 0.61392 0.50166 0.0
H538 H 0.85829 0.65102 0.53112 0.0
H539 H 0.83949 0.65047 0.51507 0.0
C540 C 0.79148 0.63312 0.50257 0.0
C541 C 0.79608 0.64345 0.51614 0.0
C542 C 0.78663 0.6443 0.52722 0.0
C543 C 0.77234 0.63478 0.52506 0.0
C544 C 0.76771 0.62451 0.51132 0.0
C545 C 0.77721 0.62366 0.50018 0.0
C546 C 0.80177 0.63227 0.49119 0.0
C547 C 0.81229 0.63143 0.49944 0.0
C548 C 0.8017 0.63294 0.4725 0.0
C549 C 0.79194 0.63557 0.46311 0.0
C550 C 0.7914 0.64759 0.46741 0.0
C551 C 0.78286 0.6506 0.45788 0.0
C552 C 0.77479 0.64173 0.44371 0.0
C553 C 0.77525 0.62962 0.43953 0.0
C554 C 0.7838 0.62661 0.4491 0.0
C555 C 0.83502 0.63505 0.46023 0.0
C556 C 0.83359 0.6255 0.44671 0.0
C557 C 0.84508 0.62806 0.43663 0.0
C558 C 0.8581 0.64032 0.43978 0.0
C559 C 0.85941 0.6499 0.45324 0.0
C560 C 0.84798 0.6473 0.46335 0.0
C561 C 0.82297 0.63253 0.47096 0.0
C562 C 0.81212 0.6327 0.46258 0.0
C563 C 0.82297 0.63174 0.4896 0.0
C564 C 0.83433 0.63188 0.4992 0.0
C565 C 0.83768 0.62162 0.49555 0.0
C566 C 0.84845 0.62192 0.50472 0.0
C567 C 0.85609 0.63255 0.51756 0.0
C568 C 0.8527 0.64281 0.52113 0.0
C569 C 0.84189 0.64244 0.5121 0.0
H570 H 0.39404 0.22188 0.50756 0.0
H571 H 0.39153 0.23777 0.5282 0.0
H572 H 0.34989 0.22093 0.5092 0.0
H573 H 0.35237 0.20498 0.48889 0.0
H574 H 0.37732 0.19248 0.50831 0.0
H575 H 0.38868 0.22895 0.46561 0.0
H576 H 0.38416 0.2453 0.45062 0.0
H577 H 0.34488 0.21017 0.43215 0.0
H578 H 0.34955 0.19395 0.44693 0.0
H579 H 0.34919 0.16113 0.44573 0.0
H580 H 0.34372 0.13938 0.43008 0.0
H581 H 0.38197 0.14459 0.44873 0.0
H582 H 0.38761 0.16666 0.46398 0.0
H583 H 0.3687 0.18758 0.44352 0.0
H584 H 0.35221 0.15268 0.48663 0.0
H585 H 0.34966 0.1341 0.50554 0.0
H586 H 0.39059 0.16247 0.52688 0.0
H587 H 0.3933 0.1809 0.50731 0.0
C588 C 0.37344 0.21236 0.49659 0.0
C589 C 0.38445 0.22177 0.50771 0.0
C590 C 0.38303 0.23087 0.51941 0.0
C591 C 0.37049 0.23054 0.52034 0.0
C592 C 0.35962 0.22132 0.50888 0.0
C593 C 0.36107 0.21231 0.49716 0.0
C594 C 0.37434 0.20172 0.48548 0.0
C595 C 0.37589 0.19164 0.49405 0.0
C596 C 0.37177 0.20027 0.46703 0.0
C597 C 0.36944 0.21024 0.45741 0.0
C598 C 0.37912 0.2248 0.45829 0.0
C599 C 0.37649 0.23412 0.44977 0.0
C600 C 0.36415 0.22904 0.44019 0.0
C601 C 0.35458 0.21443 0.43916 0.0
C602 C 0.35722 0.20513 0.44764 0.0
C603 C 0.36877 0.16549 0.4561 0.0
C604 C 0.3565 0.15771 0.44626 0.0
C605 C 0.35331 0.14519 0.43748 0.0
C606 C 0.36235 0.1402 0.43832 0.0
C607 C 0.37483 0.14821 0.44777 0.0
C608 C 0.37802 0.16075 0.45658 0.0
C609 C 0.3715 0.17821 0.46639 0.0
C610 C 0.37064 0.18867 0.45768 0.0
C611 C 0.37407 0.17967 0.48486 0.0
C612 C 0.37303 0.16812 0.49536 0.0
C613 C 0.36078 0.15481 0.49505 0.0
C614 C 0.35926 0.14424 0.50605 0.0
C615 C 0.36989 0.14683 0.5178 0.0
C616 C 0.38227 0.16009 0.51784 0.0
C617 C 0.3838 0.17066 0.50676 0.0
H618 H 0.78992 0.17694 0.50312 0.0
H619 H 0.77263 0.15794 0.52147 0.0
H620 H 0.78283 0.12922 0.49651 0.0
H621 H 0.80049 0.14837 0.47887 0.0
H622 H 0.81718 0.18776 0.50376 0.0
H623 H 0.78156 0.16499 0.45911 0.0
H624 H 0.76407 0.1444 0.44203 0.0
H625 H 0.79594 0.13796 0.421 0.0
H626 H 0.81333 0.1585 0.43806 0.0
H627 H 0.84842 0.19204 0.44188 0.0
H628 H 0.86994 0.20916 0.42735 0.0
H629 H 0.86576 0.24304 0.44881 0.0
H630 H 0.84398 0.22579 0.46291 0.0
H631 H 0.82246 0.18537 0.43865 0.0
H632 H 0.85638 0.203 0.48465 0.0
H633 H 0.87446 0.21954 0.50513 0.0
H634 H 0.8475 0.23333 0.52484 0.0
H635 H 0.82937 0.21662 0.50437 0.0
C636 C 0.79641 0.16406 0.4895 0.0
C637 C 0.78834 0.16652 0.50154 0.0
C638 C 0.77839 0.15561 0.51191 0.0
C639 C 0.77636 0.14205 0.51048 0.0
C640 C 0.78424 0.13957 0.4981 0.0
C641 C 0.79423 0.15048 0.48782 0.0
C642 C 0.8078 0.17587 0.47965 0.0
C643 C 0.81815 0.18743 0.48945 0.0
C644 C 0.80931 0.17518 0.46107 0.0
C645 C 0.79874 0.16322 0.44998 0.0
C646 C 0.78476 0.15914 0.45081 0.0
C647 C 0.77479 0.14737 0.44107 0.0
C648 C 0.77862 0.13954 0.43021 0.0
C649 C 0.79267 0.14387 0.42907 0.0
C650 C 0.80262 0.1556 0.43884 0.0
C651 C 0.84465 0.20764 0.45357 0.0
C652 C 0.85207 0.20315 0.44332 0.0
C653 C 0.86443 0.21295 0.43517 0.0
C654 C 0.8696 0.22745 0.43705 0.0
C655 C 0.862 0.23193 0.44703 0.0
C656 C 0.84962 0.22211 0.4552 0.0
C657 C 0.83188 0.19714 0.46281 0.0
C658 C 0.82129 0.18587 0.45289 0.0
C659 C 0.83028 0.19792 0.48134 0.0
C660 C 0.84158 0.20869 0.49286 0.0
C661 C 0.85445 0.20977 0.49316 0.0
C662 C 0.86479 0.21924 0.50487 0.0
C663 C 0.86243 0.22777 0.51662 0.0
C664 C 0.84959 0.2268 0.51611 0.0
C665 C 0.83924 0.21731 0.50438 0.0
H666 H 0.96461 0.50568 0.17417 0.0
H667 H 0.96137 0.52201 0.15703 0.0
H668 H 0.0033 0.55534 0.16929 0.0
H669 H 0.00643 0.53897 0.18646 0.0
H670 H 0.98297 0.49748 0.16833 0.0
H671 H 0.97395 0.52204 0.2153 0.0
H672 H 0.97794 0.5428 0.23236 0.0
H673 H 0.01922 0.55294 0.24503 0.0
H674 H 0.01537 0.53255 0.22733 0.0
H675 H 0.0158 0.49785 0.22656 0.0
H676 H 0.01983 0.48161 0.24261 0.0
H677 H 0.97928 0.44705 0.22706 0.0
H678 H 0.97512 0.46344 0.2116 0.0
H679 H 0.99767 0.50538 0.2313 0.0
H680 H 0.00871 0.48334 0.18532 0.0
H681 H 0.00779 0.46477 0.1665 0.0
H682 H 0.96637 0.45187 0.15011 0.0
H683 H 0.96709 0.47001 0.16976 0.0
C684 C 0.98572 0.52113 0.18171 0.0
C685 C 0.97308 0.51652 0.17321 0.0
C686 C 0.97126 0.52585 0.16339 0.0
C687 C 0.98208 0.53997 0.1618 0.0
C688 C 0.99469 0.54459 0.17049 0.0
C689 C 0.99651 0.53524 0.18028 0.0
C690 C 0.98777 0.51101 0.19144 0.0
C691 C 0.98593 0.49905 0.1822 0.0
C692 C 0.9922 0.5134 0.20932 0.0
C693 C 0.99442 0.52583 0.21986 0.0
C694 C 0.9839 0.52883 0.2216 0.0
C695 C 0.98615 0.54061 0.23152 0.0
C696 C -0.00108 0.54955 0.24003 0.0
C697 C 0.00936 0.54641 0.23842 0.0
C698 C 0.00712 0.53468 0.22844 0.0
C699 C 0.9952 0.48185 0.21778 0.0
C700 C 0.00775 0.48678 0.22669 0.0
C701 C 0.01009 0.47747 0.23572 0.0
C702 C -0.00011 0.46303 0.23605 0.0
C703 C 0.98729 0.45813 0.2272 0.0
C704 C 0.98495 0.46746 0.2182 0.0
C705 C 0.99281 0.49181 0.20822 0.0
C706 C 0.99458 0.50372 0.21747 0.0
C707 C 0.98862 0.48954 0.19024 0.0
C708 C 0.9879 0.47797 0.17915 0.0
C709 C -0.00068 0.47634 0.17796 0.0
C710 C 0.99885 0.46581 0.16699 0.0
C711 C 0.98702 0.45683 0.15672 0.0
C712 C 0.97557 0.45845 0.15801 0.0
C713 C 0.97601 0.46891 0.16911 0.0
H714 H 0.50376 0.4584 0.17165 0.0
H715 H 0.48624 0.44199 0.15032 0.0
H716 H 0.45974 0.45733 0.16637 0.0
H717 H 0.47724 0.47363 0.18763 0.0
H718 H 0.51742 0.48702 0.17271 0.0
H719 H 0.48695 0.44957 0.21207 0.0
H720 H 0.46434 0.43281 0.22474 0.0
H721 H 0.46027 0.46746 0.24324 0.0
H722 H 0.4827 0.48411 0.23018 0.0
H723 H 0.51901 0.51658 0.23743 0.0
H724 H 0.53591 0.5359 0.25652 0.0
H725 H 0.56716 0.52708 0.23984 0.0
H726 H 0.55012 0.50755 0.22093 0.0
H727 H 0.50817 0.4896 0.23667 0.0
H728 H 0.53578 0.52671 0.19719 0.0
H729 H 0.55604 0.54481 0.18143 0.0
H730 H 0.56425 0.51324 0.16156 0.0
H731 H 0.54397 0.49514 0.17747 0.0
C732 C 0.49174 0.46711 0.18137 0.0
C733 C 0.49414 0.45815 0.17061 0.0
C734 C 0.48414 0.44883 0.15841 0.0
C735 C 0.47158 0.44833 0.15669 0.0
C736 C 0.46919 0.45726 0.16759 0.0
C737 C 0.47919 0.4666 0.17974 0.0
C738 C 0.50259 0.47746 0.19374 0.0
C739 C 0.51553 0.48741 0.18678 0.0
C740 C 0.49991 0.47827 0.21194 0.0
C741 C 0.48645 0.46807 0.22008 0.0
C742 C 0.48115 0.45353 0.2188 0.0
C743 C 0.46829 0.44399 0.22615 0.0
C744 C 0.46052 0.44883 0.23493 0.0
C745 C 0.46593 0.4634 0.23634 0.0
C746 C 0.4788 0.47293 0.22904 0.0
C747 C 0.53331 0.51069 0.2276 0.0
C748 C 0.52945 0.51869 0.23801 0.0
C749 C 0.53911 0.52972 0.24894 0.0
C750 C 0.55285 0.533 0.24963 0.0
C751 C 0.55667 0.52487 0.23939 0.0
C752 C 0.54696 0.51374 0.22858 0.0
C753 C 0.52303 0.49928 0.21563 0.0
C754 C 0.51019 0.4891 0.22266 0.0
C755 C 0.5257 0.49847 0.19739 0.0
C756 C 0.53844 0.50959 0.18866 0.0
C757 C 0.54208 0.52371 0.18972 0.0
C758 C 0.55368 0.53406 0.18071 0.0
C759 C 0.56175 0.53045 0.17028 0.0
C760 C 0.55816 0.51631 0.16937 0.0
C761 C 0.5466 0.50598 0.17847 0.0
H762 H 0.53551 0.03376 0.1707 0.0
H763 H 0.5531 0.03477 0.15078 0.0
H764 H 0.54131 0.99275 0.16565 0.0
H765 H 0.52328 0.99154 0.18479 0.0
H766 H 0.50852 0.01709 0.16867 0.0
H767 H 0.54262 0.02602 0.21271 0.0
H768 H 0.55912 0.02206 0.22792 0.0
H769 H 0.52594 0.98011 0.24084 0.0
H770 H 0.50955 0.98401 0.22527 0.0
H771 H 0.47479 0.98491 0.22726 0.0
H772 H 0.45484 0.9815 0.24424 0.0
H773 H 0.4659 0.02388 0.23248 0.0
H774 H 0.48613 0.02739 0.21612 0.0
H775 H 0.50196 0.00275 0.2314 0.0
H776 H 0.46797 0.99348 0.18738 0.0
H777 H 0.45127 0.99678 0.17161 0.0
H778 H 0.48389 0.03892 0.15842 0.0
H779 H 0.50054 0.0356 0.17434 0.0
C780 C 0.52814 0.01263 0.17937 0.0
C781 C 0.53675 0.02479 0.16969 0.0
C782 C 0.54689 0.02539 0.15843 0.0
C783 C 0.54864 0.01384 0.1566 0.0
C784 C 0.54015 0.00177 0.16656 0.0
C785 C 0.52994 0.00114 0.17771 0.0
C786 C 0.5168 0.01169 0.19044 0.0
C787 C 0.50724 0.01422 0.18249 0.0
C788 C 0.51488 0.00754 0.20831 0.0
C789 C 0.52489 0.00526 0.21773 0.0
C790 C 0.53893 0.01594 0.21874 0.0
C791 C 0.54832 0.01371 0.22756 0.0
C792 C 0.54383 0.00076 0.23556 0.0
C793 C 0.52974 0.99013 0.23463 0.0
C794 C 0.52035 0.99238 0.22586 0.0
C795 C 0.48186 0.00635 0.22028 0.0
C796 C 0.47297 0.9935 0.22849 0.0
C797 C 0.46151 0.99153 0.23804 0.0
C798 C 0.45873 0.00239 0.23961 0.0
C799 C 0.46781 0.01535 0.23165 0.0
C800 C 0.4793 0.01733 0.22215 0.0
C801 C 0.49372 0.00817 0.20962 0.0
C802 C 0.50333 0.00577 0.21763 0.0
C803 C 0.49566 0.01239 0.19178 0.0
C804 C 0.48548 0.01436 0.18223 0.0
C805 C 0.4715 0.00349 0.18128 0.0
C806 C 0.46196 0.00539 0.17227 0.0
C807 C 0.46626 0.01813 0.16383 0.0
C808 C 0.48029 0.02895 0.16467 0.0
C809 C 0.4898 0.02707 0.17377 0.0
H810 H 0.48122 0.00314 0.85742 0.0
H811 H 0.46319 0.00177 0.87676 0.0
H812 H 0.4319 0.96858 0.84319 0.0
H813 H 0.45004 0.96981 0.82393 0.0
H814 H 0.48769 0.98433 0.85106 0.0
H815 H 0.47277 0.00897 0.81549 0.0
H816 H 0.45682 0.0128 0.79873 0.0
H817 H 0.44738 0.97728 0.76421 0.0
H818 H 0.46301 0.97324 0.78139 0.0
H819 H 0.50028 0.97282 0.78025 0.0
H820 H 0.52043 0.976 0.7638 0.0
H821 H 0.54728 0.01175 0.79789 0.0
H822 H 0.52716 0.00845 0.81428 0.0
H823 H 0.49057 0.99057 0.78602 0.0
H824 H 0.50663 0.96683 0.82202 0.0
H825 H 0.52412 0.96489 0.83812 0.0
H826 H 0.53258 0.00074 0.8713 0.0
H827 H 0.51524 0.00274 0.85503 0.0
C828 C 0.467 0.9866 0.8392 0.0
C829 C 0.47048 0.99556 0.85419 0.0
C830 C 0.46018 0.99475 0.86525 0.0
C831 C 0.44617 0.985 0.86153 0.0
C832 C 0.44263 0.97625 0.84629 0.0
C833 C 0.45298 0.97697 0.83528 0.0
C834 C 0.47815 0.98702 0.82826 0.0
C835 C 0.48835 0.98582 0.83685 0.0
C836 C 0.47886 0.98857 0.80965 0.0
C837 C 0.46894 0.99071 0.79982 0.0
C838 C 0.46711 0.00189 0.80447 0.0
C839 C 0.45811 0.00416 0.79476 0.0
C840 C 0.45084 0.99535 0.78014 0.0
C841 C 0.45268 0.98414 0.77554 0.0
C842 C 0.46168 0.98188 0.78526 0.0
C843 C 0.51226 0.99026 0.79863 0.0
C844 C 0.51052 0.98136 0.78411 0.0
C845 C 0.52203 0.98322 0.77471 0.0
C846 C 0.53545 0.99407 0.77964 0.0
C847 C 0.5371 0.00313 0.79399 0.0
C848 C 0.52562 0.00127 0.80334 0.0
C849 C 0.50015 0.98815 0.80891 0.0
C850 C 0.48977 0.98895 0.80019 0.0
C851 C 0.4993 0.98635 0.82743 0.0
C852 C 0.50971 0.98497 0.83729 0.0
C853 C 0.5123 0.97429 0.83273 0.0
C854 C 0.52222 0.97314 0.84199 0.0
C855 C 0.52974 0.9827 0.85591 0.0
C856 C 0.52706 0.99334 0.86048 0.0
C857 C 0.51709 0.99442 0.85131 0.0
H858 H 0.03327 0.53718 0.84296 0.0
H859 H 0.03373 0.55552 0.86213 0.0
H860 H 0.99073 0.53897 0.84999 0.0
H861 H 0.99029 0.52059 0.83106 0.0
H862 H 0.01701 0.50854 0.84723 0.0
H863 H 0.02496 0.54124 0.80168 0.0
H864 H 0.02104 0.55721 0.78473 0.0
H865 H 0.97944 0.52302 0.77281 0.0
H866 H 0.98336 0.50713 0.78996 0.0
H867 H 0.98527 0.47209 0.78825 0.0
H868 H 0.98259 0.4521 0.77064 0.0
H869 H 0.02446 0.46446 0.78379 0.0
H870 H 0.02707 0.48444 0.8014 0.0
H871 H 0.00221 0.49946 0.78426 0.0
H872 H 0.99355 0.46676 0.82946 0.0
H873 H 0.99627 0.45046 0.84737 0.0
H874 H 0.03778 0.48393 0.86123 0.0
H875 H 0.03513 0.50008 0.84284 0.0
C876 C 0.01177 0.52759 0.83553 0.0
C877 C 0.02399 0.53759 0.84434 0.0
C878 C 0.02426 0.5481 0.85518 0.0
C879 C 0.01226 0.54865 0.85756 0.0
C880 C 0.0001 0.53873 0.84851 0.0
C881 C -0.00013 0.52831 0.83759 0.0
C882 C 0.01121 0.51594 0.82491 0.0
C883 C 0.01405 0.50669 0.83335 0.0
C884 C 0.0069 0.51329 0.80702 0.0
C885 C 0.00442 0.52303 0.79714 0.0
C886 C 0.01496 0.53722 0.79554 0.0
C887 C 0.01275 0.5463 0.78575 0.0
C888 C -6e-05 0.54134 0.77745 0.0
C889 C 0.98936 0.52715 0.77921 0.0
C890 C 0.99162 0.51805 0.78889 0.0
C891 C 0.00633 0.4797 0.79625 0.0
C892 C 0.99388 0.4705 0.78731 0.0
C893 C 0.99238 0.45911 0.77721 0.0
C894 C 0.00332 0.45671 0.77581 0.0
C895 C 0.01578 0.46592 0.78481 0.0
C896 C 0.01728 0.47734 0.79488 0.0
C897 C 0.00794 0.49197 0.80658 0.0
C898 C 0.00529 0.50134 0.79809 0.0
C899 C 0.01231 0.49464 0.82449 0.0
C900 C 0.01419 0.4846 0.83468 0.0
C901 C 0.00332 0.47053 0.83612 0.0
C902 C 0.00484 0.46126 0.84651 0.0
C903 C 0.01723 0.46592 0.85576 0.0
C904 C 0.02817 0.47998 0.85411 0.0
C905 C 0.02664 0.48924 0.84372 0.0
H906 H 0.45556 0.51046 0.83943 0.0
H907 H 0.43705 0.49236 0.85762 0.0
H908 H 0.44711 0.46206 0.83799 0.0
H909 H 0.46583 0.48028 0.82033 0.0
H910 H 0.48308 0.52018 0.84251 0.0
H911 H 0.44802 0.49649 0.79709 0.0
H912 H 0.43083 0.47571 0.77996 0.0
H913 H 0.46297 0.4689 0.76118 0.0
H914 H 0.48004 0.48944 0.77851 0.0
H915 H 0.5149 0.5216 0.78237 0.0
H916 H 0.53674 0.53772 0.76776 0.0
H917 H 0.53385 0.57305 0.78645 0.0
H918 H 0.512 0.55681 0.8012 0.0
H919 H 0.4895 0.51597 0.77801 0.0
H920 H 0.522 0.53242 0.82493 0.0
H921 H 0.54024 0.54834 0.84569 0.0
H922 H 0.5153 0.56508 0.8635 0.0
H923 H 0.49715 0.54928 0.84237 0.0
C924 C 0.46198 0.49669 0.82842 0.0
C925 C 0.45369 0.49988 0.83897 0.0
C926 C 0.44306 0.48951 0.84925 0.0
C927 C 0.44063 0.47578 0.84926 0.0
C928 C 0.44881 0.47257 0.83841 0.0
C929 C 0.45942 0.48293 0.82817 0.0
C930 C 0.4739 0.50792 0.81857 0.0
C931 C 0.48433 0.51946 0.82831 0.0
C932 C 0.47576 0.50662 0.80019 0.0
C933 C 0.46532 0.49447 0.78922 0.0
C934 C 0.45135 0.49048 0.78935 0.0
C935 C 0.44155 0.47863 0.77956 0.0
C936 C 0.44558 0.47071 0.76925 0.0
C937 C 0.45959 0.47491 0.76883 0.0
C938 C 0.46935 0.48664 0.77874 0.0
C939 C 0.51185 0.538 0.79292 0.0
C940 C 0.51892 0.53281 0.78322 0.0
C941 C 0.53139 0.54204 0.77484 0.0
C942 C 0.53702 0.55667 0.77592 0.0
C943 C 0.52987 0.56185 0.78557 0.0
C944 C 0.51738 0.55259 0.79396 0.0
C945 C 0.49874 0.52807 0.80201 0.0
C946 C 0.48809 0.51685 0.79213 0.0
C947 C 0.49686 0.52934 0.82037 0.0
C948 C 0.50829 0.53978 0.83199 0.0
C949 C 0.52057 0.5397 0.83306 0.0
C950 C 0.53092 0.5487 0.84505 0.0
C951 C 0.52916 0.55791 0.85627 0.0
C952 C 0.51699 0.5582 0.8549 0.0
C953 C 0.5066 0.54914 0.84293 0.0
H954 H 0.61106 0.82463 0.51246 0.0
H955 H 0.6135 0.8434 0.49381 0.0
H956 H 0.65373 0.87211 0.51686 0.0
H957 H 0.6515 0.85317 0.53475 0.0
H958 H 0.6273 0.8135 0.51175 0.0
H959 H 0.61599 0.83859 0.55593 0.0
H960 H 0.62134 0.86043 0.57153 0.0
H961 H 0.65886 0.86498 0.59196 0.0
H962 H 0.65375 0.84353 0.57585 0.0
H963 H 0.65303 0.81097 0.57519 0.0
H964 H 0.65715 0.79454 0.59047 0.0
H965 H 0.6196 0.75955 0.56788 0.0
H966 H 0.61538 0.77609 0.55276 0.0
H967 H 0.63426 0.81717 0.57685 0.0
H968 H 0.65145 0.80005 0.53169 0.0
H969 H 0.65378 0.78391 0.51153 0.0
H970 H 0.61267 0.76824 0.49129 0.0
H971 H 0.6103 0.78428 0.51178 0.0
C972 C 0.63101 0.83753 0.52516 0.0
C973 C 0.62036 0.835 0.51353 0.0
C974 C 0.62174 0.84577 0.50299 0.0
C975 C 0.63382 0.85927 0.50383 0.0
C976 C 0.64436 0.8618 0.51571 0.0
C977 C 0.64302 0.85102 0.52614 0.0
C978 C 0.62999 0.82589 0.53545 0.0
C979 C 0.62843 0.81411 0.52606 0.0
C980 C 0.63209 0.82699 0.55401 0.0
C981 C 0.63454 0.8395 0.56458 0.0
C982 C 0.62536 0.84431 0.56378 0.0
C983 C 0.62837 0.85673 0.57281 0.0
C984 C 0.64059 0.86449 0.58286 0.0
C985 C 0.6495 0.85938 0.58408 0.0
C986 C 0.64651 0.84703 0.57503 0.0
C987 C 0.63393 0.79478 0.56275 0.0
C988 C 0.64558 0.79977 0.57368 0.0
C989 C 0.64792 0.79037 0.58242 0.0
C990 C 0.63869 0.77577 0.58036 0.0
C991 C 0.62696 0.77075 0.56955 0.0
C992 C 0.62455 0.78019 0.56091 0.0
C993 C 0.63186 0.80494 0.5531 0.0
C994 C 0.63273 0.81636 0.56261 0.0
C995 C 0.62975 0.80385 0.53455 0.0
C996 C 0.63064 0.79325 0.52334 0.0
C997 C 0.64284 0.79296 0.52315 0.0
C998 C 0.64421 0.78383 0.51152 0.0
C999 C 0.63343 0.77486 0.49979 0.0
C1000 C 0.62109 0.77493 0.5003 0.0
C1001 C 0.61975 0.78412 0.5119 0.0
H1002 H 0.16918 0.78747 0.51652 0.0
H1003 H 0.15111 0.7717 0.49542 0.0
H1004 H 0.12464 0.78571 0.51638 0.0
H1005 H 0.14271 0.80136 0.53749 0.0
H1006 H 0.18171 0.81614 0.51776 0.0
H1007 H 0.15377 0.77782 0.5575 0.0
H1008 H 0.13192 0.76109 0.5718 0.0
H1009 H 0.13063 0.79581 0.59645 0.0
H1010 H 0.15201 0.81242 0.58142 0.0
H1011 H 0.18634 0.84503 0.58392 0.0
H1012 H 0.20387 0.86528 0.6012 0.0
H1013 H 0.23547 0.85878 0.57929 0.0
H1014 H 0.21783 0.83848 0.56195 0.0
H1015 H 0.1771 0.81819 0.58301 0.0
H1016 H 0.19877 0.85531 0.54293 0.0
H1017 H 0.21579 0.8743 0.52449 0.0
H1018 H 0.22566 0.84554 0.4989 0.0
H1019 H 0.209 0.8267 0.51795 0.0
C1020 C 0.15725 0.79549 0.52868 0.0
C1021 C 0.15942 0.78701 0.51669 0.0
C1022 C 0.14911 0.77805 0.5046 0.0
C1023 C 0.13645 0.77748 0.50419 0.0
C1024 C 0.13418 0.78574 0.51652 0.0
C1025 C 0.14451 0.79471 0.52859 0.0
C1026 C 0.1687 0.80599 0.54025 0.0
C1027 C 0.18087 0.81639 0.53209 0.0
C1028 C 0.16728 0.80668 0.55884 0.0
C1029 C 0.15445 0.79638 0.56821 0.0
C1030 C 0.14871 0.78181 0.56588 0.0
C1031 C 0.13629 0.77226 0.57422 0.0
C1032 C 0.12946 0.77711 0.58519 0.0
C1033 C 0.13545 0.79171 0.58782 0.0
C1034 C 0.14778 0.80122 0.57939 0.0
C1035 C 0.20077 0.84028 0.57156 0.0
C1036 C 0.19702 0.84786 0.58298 0.0
C1037 C 0.20706 0.85942 0.59289 0.0
C1038 C 0.22107 0.86365 0.59161 0.0
C1039 C 0.22479 0.8559 0.58038 0.0
C1040 C 0.21472 0.84429 0.5705 0.0
C1041 C 0.19008 0.82841 0.56049 0.0
C1042 C 0.1781 0.81775 0.56873 0.0
C1043 C 0.1914 0.82779 0.54188 0.0
C1044 C 0.20272 0.83961 0.53196 0.0
C1045 C 0.20486 0.85318 0.53369 0.0
C1046 C 0.21448 0.86399 0.52297 0.0
C1047 C 0.22201 0.86141 0.51013 0.0
C1048 C 0.22014 0.84792 0.50878 0.0
C1049 C 0.21056 0.83711 0.51957 0.0
H1050 H 0.16587 0.35747 0.50237 0.0
H1051 H 0.1466 0.3553 0.48573 0.0
H1052 H 0.14938 0.3899 0.51657 0.0
H1053 H 0.16898 0.39221 0.5331 0.0
H1054 H 0.19199 0.3783 0.50521 0.0
H1055 H 0.15409 0.35174 0.54318 0.0
H1056 H 0.13323 0.34614 0.55956 0.0
H1057 H 0.15701 0.38391 0.59197 0.0
H1058 H 0.17797 0.38944 0.57545 0.0
H1059 H 0.21855 0.38977 0.57433 0.0
H1060 H 0.23316 0.3841 0.59129 0.0
H1061 H 0.22087 0.34789 0.55668 0.0
H1062 H 0.20599 0.35334 0.54022 0.0
H1063 H 0.19027 0.37295 0.57035 0.0
H1064 H 0.23054 0.39213 0.53053 0.0
H1065 H 0.24736 0.39131 0.51046 0.0
H1066 H 0.21373 0.35828 0.47936 0.0
H1067 H 0.1971 0.35889 0.49942 0.0
C1068 C 0.16886 0.375 0.51896 0.0
C1069 C 0.1624 0.36465 0.50551 0.0
C1070 C 0.15128 0.36332 0.49613 0.0
C1071 C 0.1464 0.37235 0.49995 0.0
C1072 C 0.15296 0.38283 0.51332 0.0
C1073 C 0.16409 0.38412 0.5228 0.0
C1074 C 0.18046 0.37595 0.529 0.0
C1075 C 0.19167 0.37716 0.51947 0.0
C1076 C 0.18 0.3745 0.54758 0.0
C1077 C 0.16751 0.37114 0.5579 0.0
C1078 C 0.15479 0.35888 0.55372 0.0
C1079 C 0.14288 0.35571 0.56307 0.0
C1080 C 0.14344 0.36467 0.57693 0.0
C1081 C 0.15627 0.37678 0.58141 0.0
C1082 C 0.16822 0.37997 0.57197 0.0
C1083 C 0.21134 0.37209 0.55588 0.0
C1084 C 0.2191 0.38067 0.57036 0.0
C1085 C 0.22749 0.37746 0.57996 0.0
C1086 C 0.22815 0.36554 0.57534 0.0
C1087 C 0.22046 0.35706 0.5607 0.0
C1088 C 0.21209 0.36026 0.55114 0.0
C1089 C 0.20171 0.37489 0.54645 0.0
C1090 C 0.19088 0.3745 0.55616 0.0
C1091 C 0.2021 0.37622 0.52782 0.0
C1092 C 0.21254 0.37563 0.51642 0.0
C1093 C 0.22682 0.38462 0.5195 0.0
C1094 C 0.2364 0.38416 0.50804 0.0
C1095 C 0.23181 0.37487 0.49325 0.0
C1096 C 0.21755 0.36575 0.49045 0.0
C1097 C 0.20804 0.36609 0.50192 0.0
H1098 H 0.97656 0.3737 0.02624 0.0
H1099 H 0.97297 0.38741 0.04915 0.0
H1100 H 0.00391 0.38766 0.08189 0.0
H1101 H 0.00732 0.37368 0.05931 0.0
H1102 H 0.98152 0.38349 0.10117 0.0
H1103 H 0.00043 0.42925 0.05734 0.0
H1104 H 0.98593 0.41318 0.0486 0.0
H1105 H 0.00222 0.41448 0.05172 0.0
C1106 C 0.98252 0.37657 0.03838 0.0
C1107 C 0.99234 0.37273 0.04087 0.0
C1108 C 0.98051 0.38447 0.05141 0.0
C1109 C 0.98839 0.38881 0.06705 0.0
C1110 C 0.99777 0.38449 0.06988 0.0
H1111 H 0.00814 0.45972 0.13573 0.0
H1112 H 0.00784 0.44247 0.11489 0.0
C1113 C -0.00028 0.37651 0.05693 0.0
C1114 C 0.9873 0.39829 0.08021 0.0
H1115 H 0.99212 0.43105 0.08549 0.0
C1116 C 0.98379 0.39388 0.09777 0.0
C1117 C 0.99049 0.41191 0.07576 0.0
C1118 C 0.99511 0.41758 0.05738 0.0
C1119 C 0.9834 0.40276 0.11102 0.0
C1120 C 0.98634 0.41628 0.10648 0.0
C1121 C 0.98978 0.42064 0.08891 0.0
C1122 C 0.98649 0.42636 0.11982 0.0
C1123 C 0.9803 0.39775 0.12983 0.0
C1124 C 0.97457 0.42304 0.12953 0.0
C1125 C 0.97476 0.43283 0.1417 0.0
C1126 C 0.98685 0.44618 0.14424 0.0
C1127 C 0.99874 0.44946 0.1344 0.0
C1128 C 0.99855 0.43965 0.12235 0.0
H1129 H 0.98185 0.38885 0.13185 0.0
H1130 H 0.98694 0.40642 0.13938 0.0
H1131 H 0.96933 0.39403 0.13288 0.0
H1132 H 0.96506 0.41295 0.12755 0.0
H1133 H 0.96545 0.42991 0.14914 0.0
H1134 H 0.63272 0.60698 0.04443 0.0
H1135 H 0.62021 0.58992 0.06759 0.0
H1136 H 0.64275 0.6222 0.10767 0.0
H1137 H 0.65534 0.63941 0.08458 0.0
H1138 H 0.63079 0.58193 0.09757 0.0
H1139 H 0.60082 0.60668 0.11753 0.0
H1140 H 0.60984 0.61018 0.09663 0.0
H1141 H 0.61934 0.61806 0.11676 0.0
C1142 C 0.63512 0.61045 0.05816 0.0
C1143 C 0.64496 0.62458 0.06266 0.0
C1144 C 0.62798 0.60068 0.07137 0.0
C1145 C 0.63047 0.60486 0.08929 0.0
C1146 C 0.64059 0.61883 0.09388 0.0
H1147 H 0.58159 0.55737 0.18058 0.0
H1148 H 0.59982 0.57567 0.16226 0.0
C1149 C 0.64779 0.62862 0.08067 0.0
C1150 C 0.62204 0.59468 0.10307 0.0
H1151 H 0.59607 0.58651 0.13267 0.0
C1152 C 0.62326 0.58295 0.10536 0.0
C1153 C 0.61228 0.59611 0.11321 0.0
C1154 C 0.61035 0.60837 0.11091 0.0
C1155 C 0.61486 0.5725 0.11746 0.0
C1156 C 0.60477 0.57369 0.12718 0.0
C1157 C 0.60382 0.58562 0.12521 0.0
C1158 C 0.59453 0.56233 0.13868 0.0
C1159 C 0.6169 0.56033 0.11975 0.0
C1160 C 0.5855 0.54878 0.1315 0.0
C1161 C 0.57511 0.53834 0.14192 0.0
C1162 C 0.57344 0.54128 0.15968 0.0
C1163 C 0.58257 0.55482 0.1669 0.0
C1164 C 0.59302 0.56525 0.15648 0.0
H1165 H 0.62756 0.56322 0.11604 0.0
H1166 H 0.61491 0.55671 0.13363 0.0
H1167 H 0.60959 0.5514 0.11095 0.0
H1168 H 0.58621 0.5464 0.11766 0.0
H1169 H 0.56807 0.5281 0.13587 0.0
H1170 H 0.39383 0.02889 0.04595 0.0
H1171 H 0.41062 0.03041 0.06724 0.0
H1172 H 0.38037 0.01782 0.10896 0.0
H1173 H 0.36344 0.01621 0.08777 0.0
H1174 H 0.42062 0.04616 0.10106 0.0
H1175 H 0.39193 0.98789 0.10762 0.0
H1176 H 0.38891 0.99623 0.08956 0.0
H1177 H 0.38212 0.99617 0.11118 0.0
C1178 C 0.39077 0.02659 0.05968 0.0
C1179 C 0.37725 0.02232 0.06513 0.0
C1180 C 0.40039 0.02748 0.07182 0.0
C1181 C 0.39665 0.02404 0.08957 0.0
C1182 C 0.38337 0.02034 0.09524 0.0
H1183 H 0.44007 0.01071 0.17382 0.0
H1184 H 0.42323 0.01312 0.1569 0.0
C1185 C 0.37374 0.01949 0.08312 0.0
C1186 C 0.40647 0.02372 0.10191 0.0
H1187 H 0.41213 0.00123 0.1247 0.0
C1188 C 0.41877 0.03636 0.10631 0.0
C1189 C 0.40397 0.01091 0.10873 0.0
C1190 C 0.39108 0.99698 0.10398 0.0
C1191 C 0.42869 0.03654 0.11741 0.0
C1192 C 0.42633 0.02368 0.12391 0.0
C1193 C 0.41391 0.01107 0.11972 0.0
C1194 C 0.4368 0.02293 0.13453 0.0
C1195 C 0.4415 0.0505 0.12221 0.0
C1196 C 0.44998 0.02755 0.12752 0.0
C1197 C 0.4596 0.02618 0.13715 0.0
C1198 C 0.45618 0.02002 0.1539 0.0
C1199 C 0.44297 0.01539 0.16089 0.0
C1200 C 0.43337 0.01683 0.15128 0.0
H1201 H 0.43979 0.05936 0.12085 0.0
H1202 H 0.44484 0.05062 0.13601 0.0
H1203 H 0.45002 0.05235 0.11312 0.0
H1204 H 0.45272 0.03192 0.11441 0.0
H1205 H 0.4696 0.02961 0.13127 0.0
H1206 H 0.38724 0.99306 0.99801 0.0
H1207 H 0.39705 0.98772 0.97224 0.0
H1208 H 0.36964 0.99217 0.93787 0.0
H1209 H 0.35995 0.99785 0.96358 0.0
H1210 H 0.3854 0.96688 0.94593 0.0
H1211 H 0.40763 0.02014 0.91781 0.0
H1212 H 0.40086 0.01616 0.94004 0.0
H1213 H 0.38928 0.01061 0.92145 0.0
C1214 C 0.38323 0.99284 0.98499 0.0
C1215 C 0.37293 0.99604 0.98283 0.0
C1216 C 0.38884 0.98976 0.97027 0.0
C1217 C 0.38424 0.9898 0.95313 0.0
C1218 C 0.37355 0.9924 0.95096 0.0
H1219 H 0.4221 0.98374 0.85347 0.0
H1220 H 0.405 0.98308 0.87437 0.0
C1221 C 0.36798 0.99557 0.96568 0.0
C1222 C 0.39104 0.98756 0.93762 0.0
H1223 H 0.4116 0.00415 0.90202 0.0
C1224 C 0.39103 0.97498 0.93623 0.0
C1225 C 0.39835 0.99813 0.92496 0.0
C1226 C 0.39917 0.01208 0.92614 0.0
C1227 C 0.3984 0.97283 0.92277 0.0
C1228 C 0.40607 0.98359 0.91052 0.0
C1229 C 0.40565 0.99592 0.91144 0.0
C1230 C 0.41568 0.98287 0.89775 0.0
C1231 C 0.39812 0.95916 0.92192 0.0
C1232 C 0.42731 0.98302 0.90405 0.0
C1233 C 0.43706 0.98348 0.89223 0.0
C1234 C 0.43537 0.98381 0.87387 0.0
C1235 C 0.42358 0.98339 0.86755 0.0
C1236 C 0.41386 0.98305 0.87943 0.0
H1237 H 0.38893 0.95064 0.92883 0.0
H1238 H 0.39807 0.9557 0.90796 0.0
H1239 H 0.40751 0.96071 0.92849 0.0
H1240 H 0.429 0.98312 0.91815 0.0
H1241 H 0.44598 0.98367 0.89746 0.0
H1242 H 0.99677 0.36326 0.94496 0.0
H1243 H 0.00166 0.38149 0.9239 0.0
H1244 H 0.03718 0.41171 0.95477 0.0
H1245 H 0.03227 0.39351 0.97615 0.0
H1246 H 0.01964 0.42095 0.94697 0.0
H1247 H 0.03144 0.40043 0.8861 0.0
H1248 H 0.0155 0.38751 0.8962 0.0
H1249 H 0.03156 0.39417 0.90787 0.0
C1250 C 0.00574 0.37373 0.94719 0.0
C1251 C 0.01412 0.37694 0.96226 0.0
C1252 C 0.00858 0.38412 0.93504 0.0
C1253 C 0.0199 0.39789 0.93763 0.0
C1254 C 0.02846 0.4011 0.95247 0.0
H1255 H 0.03941 0.46275 0.85954 0.0
H1256 H 0.04161 0.44729 0.8799 0.0
C1257 C 0.02564 0.39069 0.96465 0.0
C1258 C 0.02198 0.40913 0.92564 0.0
H1259 H 0.02503 0.41758 0.882 0.0
C1260 C 0.02104 0.42034 0.93279 0.0
C1261 C 0.02395 0.4084 0.90719 0.0
C1262 C 0.02582 0.39705 0.8989 0.0
C1263 C 0.02132 0.43045 0.92187 0.0
C1264 C 0.02238 0.42918 0.90331 0.0
C1265 C 0.02403 0.4184 0.89623 0.0
C1266 C 0.02113 0.43856 0.89102 0.0
C1267 C 0.02032 0.44231 0.93028 0.0
C1268 C 0.00882 0.43857 0.89037 0.0
C1269 C 0.00754 0.44738 0.87884 0.0
C1270 C 0.01854 0.4563 0.86764 0.0
C1271 C 0.03082 0.45612 0.86815 0.0
C1272 C 0.03207 0.44726 0.87969 0.0
H1273 H 0.02355 0.4441 0.94442 0.0
H1274 H 0.02684 0.45227 0.92312 0.0
H1275 H 0.00943 0.43957 0.92973 0.0
H1276 H 0.00017 0.43175 0.8988 0.0
H1277 H 0.998 0.44736 0.87889 0.0
H1278 H 0.60048 0.60823 0.99762 0.0
H1279 H 0.5843 0.59779 0.97278 0.0
H1280 H 0.61533 0.62825 0.93779 0.0
H1281 H 0.6317 0.63856 0.96248 0.0
H1282 H 0.57374 0.60868 0.9503 0.0
H1283 H 0.60475 0.59115 0.91302 0.0
H1284 H 0.60842 0.59741 0.93576 0.0
H1285 H 0.61386 0.60972 0.91809 0.0
C1286 C 0.60387 0.61274 0.98465 0.0
C1287 C 0.61742 0.62413 0.98199 0.0
C1288 C 0.5946 0.60677 0.97048 0.0
C1289 C 0.59869 0.61209 0.95338 0.0
C1290 C 0.61206 0.62378 0.95079 0.0
H1291 H 0.53976 0.58573 0.86521 0.0
H1292 H 0.5569 0.59981 0.88828 0.0
C1293 C 0.62138 0.62969 0.96494 0.0
C1294 C 0.589 0.60519 0.93829 0.0
H1295 H 0.58468 0.58757 0.8989 0.0
C1296 C 0.57612 0.60409 0.93902 0.0
C1297 C 0.59211 0.59908 0.92371 0.0
C1298 C 0.60547 0.59926 0.92261 0.0
C1299 C 0.56621 0.59696 0.9256 0.0
C1300 C 0.56939 0.59102 0.9109 0.0
C1301 C 0.58232 0.59223 0.91011 0.0
C1302 C 0.55919 0.58276 0.89672 0.0
C1303 C 0.55225 0.59542 0.92761 0.0
C1304 C 0.55508 0.56864 0.8935 0.0
C1305 C 0.54543 0.56065 0.88027 0.0
C1306 C 0.53969 0.56662 0.86997 0.0
C1307 C 0.54389 0.58081 0.8731 0.0
C1308 C 0.55364 0.58884 0.88629 0.0
H1309 H 0.55032 0.59753 0.94148 0.0
H1310 H 0.55182 0.6031 0.91904 0.0
H1311 H 0.54382 0.58467 0.92348 0.0
H1312 H 0.55922 0.56373 0.9014 0.0
H1313 H 0.54226 0.5497 0.87834 0.0
H1314 H 0.00428 0.64158 0.95666 0.0
H1315 H 0.00802 0.62904 0.93227 0.0
H1316 H 0.01122 0.60238 0.9697 0.0
H1317 H 0.00789 0.61509 0.99416 0.0
H1318 H 0.03029 0.61024 0.94341 0.0
H1319 H 0.97814 0.59013 0.915 0.0
H1320 H 0.98876 0.60899 0.91676 0.0
H1321 H 0.98322 0.59876 0.93651 0.0
C1322 C 0.00589 0.63312 0.9597 0.0
C1323 C 0.00565 0.62923 0.97733 0.0
C1324 C 0.00794 0.62591 0.94574 0.0
C1325 C 0.00958 0.61458 0.94915 0.0
C1326 C 0.00989 0.61105 0.96677 0.0
H1327 H 0.99291 0.54389 0.88262 0.0
H1328 H 0.99306 0.5608 0.90403 0.0
C1329 C 0.00797 0.61832 0.98073 0.0
C1330 C 0.01054 0.60605 0.93445 0.0
H1331 H 0.99268 0.58445 0.89919 0.0
C1332 C 0.02211 0.60463 0.93368 0.0
C1333 C -0.00025 0.59861 0.92192 0.0
C1334 C 0.9867 0.59906 0.92262 0.0
C1335 C 0.02311 0.59586 0.92085 0.0
C1336 C 0.0124 0.58857 0.90819 0.0
C1337 C 0.00093 0.59014 0.90883 0.0
C1338 C 0.0124 0.57855 0.89489 0.0
C1339 C 0.03536 0.59406 0.92142 0.0
C1340 C 0.02314 0.58295 0.88248 0.0
C1341 C 0.02311 0.57327 0.87028 0.0
C1342 C 0.01222 0.55908 0.87011 0.0
C1343 C 0.00136 0.55479 0.88231 0.0
C1344 C 0.00146 0.56442 0.89458 0.0
H1345 H 0.04075 0.59752 0.93443 0.0
H1346 H 0.03214 0.5829 0.91881 0.0
H1347 H 0.04289 0.60057 0.91105 0.0
H1348 H 0.03152 0.59387 0.8822 0.0
H1349 H 0.03153 0.57689 0.86087 0.0
H1350 H 0.35791 0.39667 0.97319 0.0
H1351 H 0.37023 0.41528 0.95162 0.0
H1352 H 0.3751 0.38657 0.91746 0.0
H1353 H 0.36265 0.36788 0.93873 0.0
H1354 H 0.39698 0.42605 0.94107 0.0
H1355 H 0.36211 0.40455 0.88286 0.0
H1356 H 0.35657 0.39773 0.90482 0.0
H1357 H 0.36621 0.3923 0.89132 0.0
C1358 C 0.36142 0.39425 0.96096 0.0
C1359 C 0.35931 0.38079 0.95768 0.0
C1360 C 0.36845 0.4049 0.94866 0.0
C1361 C 0.37341 0.40225 0.93284 0.0
C1362 C 0.37109 0.38876 0.92939 0.0
H1363 H 0.44307 0.45731 0.86946 0.0
H1364 H 0.42604 0.44002 0.88971 0.0
C1365 C 0.36405 0.37811 0.94165 0.0
C1366 C 0.38203 0.41385 0.92063 0.0
H1367 H 0.38554 0.42314 0.87727 0.0
C1368 C 0.39438 0.42551 0.92717 0.0
C1369 C 0.37856 0.4132 0.90255 0.0
C1370 C 0.36507 0.40133 0.895 0.0
C1371 C 0.40365 0.43623 0.91596 0.0
C1372 C 0.40057 0.43515 0.89769 0.0
C1373 C 0.38794 0.42383 0.89126 0.0
C1374 C 0.41063 0.44536 0.88497 0.0
C1375 C 0.41673 0.44859 0.92375 0.0
C1376 C 0.40742 0.4538 0.87522 0.0
C1377 C 0.4171 0.46362 0.86348 0.0
C1378 C 0.43009 0.46506 0.8612 0.0
C1379 C 0.43312 0.45637 0.87077 0.0
C1380 C 0.42346 0.4466 0.8825 0.0
H1381 H 0.41573 0.44985 0.93824 0.0
H1382 H 0.42539 0.44682 0.9216 0.0
H1383 H 0.41944 0.45854 0.91727 0.0
H1384 H 0.3975 0.45289 0.87686 0.0
H1385 H 0.41441 0.47005 0.85614 0.0
H1386 H 0.60859 0.96799 0.965 0.0
H1387 H 0.59069 0.9628 0.94307 0.0
H1388 H 0.61603 0.00471 0.92288 0.0
H1389 H 0.634 0.00988 0.94435 0.0
H1390 H 0.57655 0.97605 0.94045 0.0
H1391 H 0.60419 0.98139 0.87754 0.0
H1392 H 0.61053 0.97976 0.89858 0.0
H1393 H 0.61378 0.9966 0.89181 0.0
C1394 C 0.61043 0.97602 0.9557 0.0
C1395 C 0.62273 0.98934 0.9564 0.0
C1396 C 0.6002 0.97303 0.94319 0.0
C1397 C 0.60213 0.98328 0.93114 0.0
C1398 C 0.61446 0.99651 0.93171 0.0
H1399 H 0.5557 0.00394 0.86539 0.0
H1400 H 0.5727 0.0023 0.88302 0.0
C1401 C 0.62469 -0.00052 0.94412 0.0
C1402 C 0.59087 0.98068 0.91894 0.0
H1403 H 0.58421 0.9836 0.8758 0.0
C1404 C 0.57812 0.97742 0.92626 0.0
C1405 C 0.59293 0.98246 0.90043 0.0
C1406 C 0.60606 0.9851 0.89161 0.0
C1407 C 0.56766 0.97662 0.91571 0.0
C1408 C 0.57 0.97907 0.89737 0.0
C1409 C 0.58252 0.98181 0.88991 0.0
C1410 C 0.5599 0.97974 0.88598 0.0
C1411 C 0.5544 0.97381 0.92431 0.0
C1412 C 0.54719 0.96754 0.88165 0.0
C1413 C 0.53746 0.96844 0.87158 0.0
C1414 C 0.54029 0.98157 0.86579 0.0
C1415 C 0.55317 0.99372 0.86988 0.0
C1416 C 0.56291 0.99279 0.87983 0.0
H1417 H 0.5549 0.97388 0.939 0.0
H1418 H 0.55204 0.98183 0.92035 0.0
H1419 H 0.54573 0.96334 0.91972 0.0
H1420 H 0.54476 0.95736 0.88623 0.0
H1421 H 0.52759 0.95892 0.8687 0.0
H1422 H 0.6276 0.99452 0.05329 0.0
H1423 H 0.6145 0.99768 0.07686 0.0
H1424 H 0.61394 0.0297 0.04686 0.0
H1425 H 0.6268 0.02639 0.02296 0.0
H1426 H 0.61932 0.02046 0.09771 0.0
H1427 H 0.57299 0.00143 0.05514 0.0
H1428 H 0.58732 -0.00036 0.04859 0.0
H1429 H 0.58854 0.01627 0.04666 0.0
C1430 C 0.62478 0.0023 0.05171 0.0
C1431 C 0.6281 0.01008 0.03614 0.0
C1432 C 0.6173 0.00411 0.06523 0.0
C1433 C 0.61303 0.01373 0.06346 0.0
C1434 C 0.61687 0.02199 0.0483 0.0
H1435 H 0.57479 0.03598 0.14927 0.0
H1436 H 0.5909 0.03666 0.12692 0.0
C1437 C 0.62429 0.02013 0.0347 0.0
C1438 C 0.60411 0.01467 0.07723 0.0
H1439 H 0.572 0.00942 0.08407 0.0
C1440 C 0.60898 0.0181 0.09475 0.0
C1441 C 0.59056 0.01136 0.07334 0.0
C1442 C 0.58446 0.00684 0.05496 0.0
C1443 C 0.60065 0.01828 0.10853 0.0
C1444 C 0.58719 0.01521 0.10457 0.0
C1445 C 0.58236 0.01185 0.08703 0.0
C1446 C 0.57768 0.01485 0.11846 0.0
C1447 C 0.60616 0.02132 0.12724 0.0
C1448 C 0.56479 0.00245 0.12088 0.0
C1449 C 0.55547 0.00209 0.1334 0.0
C1450 C 0.55884 0.01414 0.14379 0.0
C1451 C 0.57182 0.02654 0.14141 0.0
C1452 C 0.58112 0.02691 0.12879 0.0
H1453 H 0.61505 0.01987 0.1286 0.0
H1454 H 0.60977 0.03242 0.13096 0.0
H1455 H 0.59798 0.01439 0.13674 0.0
H1456 H 0.56189 0.99304 0.11296 0.0
H1457 H 0.54549 0.99245 0.13462 0.0
H1458 H 0.97168 0.61069 0.03797 0.0
H1459 H 0.96885 0.59318 0.05912 0.0
H1460 H 0.98656 0.62536 0.10039 0.0
H1461 H 0.98923 0.64291 0.07942 0.0
H1462 H 0.99049 0.59423 0.07635 0.0
H1463 H 0.9532 0.59338 0.12525 0.0
H1464 H 0.95569 0.60094 0.10364 0.0
H1465 H 0.96778 0.6107 0.12124 0.0
C1466 C 0.97474 0.61401 0.05162 0.0
C1467 C 0.98071 0.62821 0.05699 0.0
C1468 C 0.97312 0.60398 0.06369 0.0
C1469 C 0.97737 0.60794 0.08136 0.0
C1470 C 0.98295 0.62202 0.08691 0.0
H1471 H 0.99067 0.56763 0.16885 0.0
H1472 H 0.98908 0.58393 0.14936 0.0
C1473 C 0.98454 0.63206 0.07486 0.0
C1474 C 0.97717 0.59762 0.09351 0.0
H1475 H 0.96503 0.58194 0.1334 0.0
C1476 C 0.98482 0.59145 0.08875 0.0
C1477 C 0.96985 0.59411 0.10974 0.0
C1478 C 0.96106 0.60002 0.11524 0.0
C1479 C 0.98555 0.58202 0.09989 0.0
C1480 C 0.97826 0.57851 0.11612 0.0
C1481 C 0.9706 0.58467 0.12093 0.0
C1482 C 0.97854 0.56847 0.12824 0.0
C1483 C 0.99439 0.57613 0.09441 0.0
C1484 C 0.97292 0.55435 0.12291 0.0
C1485 C 0.97387 0.54506 0.13393 0.0
C1486 C 0.98043 0.5497 0.15054 0.0
C1487 C 0.98573 0.56379 0.15603 0.0
C1488 C 0.98475 0.57308 0.14499 0.0
H1489 H 0.00179 0.58234 0.08375 0.0
H1490 H 0.0003 0.57595 0.10588 0.0
H1491 H 0.98762 0.56515 0.08933 0.0
H1492 H 0.96794 0.55057 0.1101 0.0
H1493 H 0.96978 0.53432 0.12923 0.0
H1494 H 0.39762 0.38536 0.01784 0.0
H1495 H 0.41511 0.39674 0.04117 0.0
H1496 H 0.38296 0.38449 0.08025 0.0
H1497 H 0.36539 0.37291 0.05707 0.0
H1498 H 0.41912 0.41877 0.06341 0.0
H1499 H 0.4076 0.37239 0.10242 0.0
H1500 H 0.40117 0.37077 0.08019 0.0
H1501 H 0.39285 0.37386 0.09863 0.0
C1502 C 0.39425 0.38495 0.03142 0.0
C1503 C 0.3801 0.37822 0.0356 0.0
C1504 C 0.40426 0.39146 0.04472 0.0
C1505 C 0.40032 0.39129 0.06245 0.0
C1506 C 0.38622 0.38449 0.0667 0.0
H1507 H 0.44341 0.43223 0.16021 0.0
H1508 H 0.42633 0.41814 0.13714 0.0
C1509 C 0.37619 0.37795 0.05341 0.0
C1510 C 0.41099 0.39897 0.07634 0.0
H1511 H 0.42301 0.39498 0.11558 0.0
C1512 C 0.42005 0.41356 0.07475 0.0
C1513 C 0.41211 0.39214 0.09114 0.0
C1514 C 0.403 0.37641 0.09318 0.0
C1515 C 0.43005 0.42156 0.08775 0.0
C1516 C 0.43115 0.41474 0.10258 0.0
C1517 C 0.42212 0.40015 0.10417 0.0
C1518 C 0.44152 0.42267 0.11668 0.0
C1519 C 0.43912 0.43731 0.08574 0.0
C1520 C 0.4557 0.42962 0.11285 0.0
C1521 C 0.46547 0.43772 0.12595 0.0
C1522 C 0.46122 0.43897 0.14313 0.0
C1523 C 0.447 0.43164 0.14703 0.0
C1524 C 0.43724 0.42352 0.13392 0.0
H1525 H 0.43484 0.44127 0.07593 0.0
H1526 H 0.4404 0.44292 0.09863 0.0
H1527 H 0.44951 0.43997 0.0811 0.0
H1528 H 0.45921 0.42891 0.09967 0.0
H1529 H 0.47634 0.44332 0.12247 0.0
H1530 H 0.65781 0.72693 0.35913 0.0
H1531 H 0.65136 0.73656 0.38424 0.0
H1532 H 0.64909 0.70475 0.41779 0.0
H1533 H 0.65589 0.69524 0.39281 0.0
H1534 H 0.6286 0.72512 0.40562 0.0
H1535 H 0.67583 0.74084 0.4448 0.0
H1536 H 0.67405 0.73534 0.4218 0.0
H1537 H 0.66579 0.72245 0.43873 0.0
C1538 C 0.65591 0.72195 0.37183 0.0
C1539 C 0.65751 0.71041 0.37402 0.0
C1540 C 0.6522 0.72745 0.38616 0.0
C1541 C 0.64999 0.72153 0.40295 0.0
C1542 C 0.65107 0.70969 0.40505 0.0
H1543 H 0.61528 0.74719 0.49033 0.0
H1544 H 0.61852 0.73308 0.46753 0.0
C1545 C 0.65489 0.70423 0.39074 0.0
C1546 C 0.64682 0.72798 0.41823 0.0
H1547 H 0.65914 0.74453 0.45841 0.0
C1548 C 0.63523 0.72931 0.41721 0.0
C1549 C 0.65559 0.73358 0.43324 0.0
C1550 C 0.66858 0.73312 0.43471 0.0
C1551 C 0.63227 0.73626 0.43069 0.0
C1552 C 0.64097 0.74173 0.44577 0.0
C1553 C 0.65243 0.74021 0.4469 0.0
C1554 C 0.63896 0.74994 0.45996 0.0
C1555 C 0.62018 0.73814 0.42833 0.0
C1556 C 0.64952 0.76393 0.46361 0.0
C1557 C 0.64776 0.77192 0.47669 0.0
C1558 C 0.63538 0.76608 0.4864 0.0
C1559 C 0.62486 0.752 0.48289 0.0
C1560 C 0.62668 0.74396 0.46986 0.0
H1561 H 0.61664 0.73635 0.41433 0.0
H1562 H 0.61139 0.73042 0.43654 0.0
H1563 H 0.62289 0.74889 0.43268 0.0
H1564 H 0.65908 0.76875 0.45612 0.0
H1565 H 0.65598 0.78279 0.47893 0.0
H1566 H 0.27333 0.95611 0.39395 0.0
H1567 H 0.26202 0.9389 0.41726 0.0
H1568 H 0.29486 0.93035 0.41535 0.0
H1569 H 0.30635 0.94766 0.39207 0.0
H1570 H 0.25316 0.90982 0.41443 0.0
H1571 H 0.29146 0.93785 0.46871 0.0
H1572 H 0.29094 0.9467 0.44934 0.0
H1573 H 0.29826 0.93585 0.44794 0.0
C1574 C 0.27821 0.95065 0.39855 0.0
C1575 C 0.29076 0.95327 0.39117 0.0
C1576 C 0.27173 0.94082 0.41186 0.0
C1577 C 0.27769 0.93349 0.41813 0.0
C1578 C 0.29022 0.93609 0.41087 0.0
H1579 H 0.24758 0.86819 0.49773 0.0
H1580 H 0.26153 0.88539 0.47511 0.0
C1581 C 0.29672 0.94592 0.39751 0.0
C1582 C 0.27043 0.92274 0.43178 0.0
H1583 H 0.27254 0.91503 0.47465 0.0
C1584 C 0.25739 0.91094 0.42759 0.0
C1585 C 0.27606 0.92421 0.44886 0.0
C1586 C 0.28991 0.93687 0.45412 0.0
C1587 C 0.24976 0.90057 0.44009 0.0
C1588 C 0.25522 0.90222 0.45733 0.0
C1589 C 0.2684 0.91385 0.46142 0.0
C1590 C 0.24712 0.89222 0.47144 0.0
C1591 C 0.23595 0.8879 0.43471 0.0
C1592 C 0.23458 0.89062 0.47708 0.0
C1593 C 0.22658 0.8808 0.48986 0.0
C1594 C 0.23103 0.87245 0.49738 0.0
C1595 C 0.2438 0.87435 0.49203 0.0
C1596 C 0.25181 0.8842 0.47921 0.0
H1597 H 0.23504 0.88628 0.42008 0.0
H1598 H 0.23431 0.87819 0.44079 0.0
H1599 H 0.22758 0.88954 0.43932 0.0
H1600 H 0.23089 0.89688 0.47144 0.0
H1601 H 0.21673 0.8795 0.49351 0.0
H1602 H 0.04377 0.32794 0.39707 0.0
H1603 H 0.06153 0.33426 0.41947 0.0
H1604 H 0.07816 0.37835 0.41061 0.0
H1605 H 0.0603 0.37213 0.38823 0.0
H1606 H 0.09024 0.35016 0.41307 0.0
H1607 H 0.07483 0.37553 0.46515 0.0
H1608 H 0.06321 0.36428 0.44771 0.0
H1609 H 0.07668 0.38204 0.44312 0.0
C1610 C 0.05111 0.33899 0.39997 0.0
C1611 C 0.05063 0.34953 0.39085 0.0
C1612 C 0.06125 0.34258 0.41278 0.0
C1613 C 0.07105 0.35676 0.41682 0.0
C1614 C 0.07053 0.36734 0.40791 0.0
H1615 H 0.14396 0.39319 0.48545 0.0
H1616 H 0.12557 0.39021 0.46569 0.0
C1617 C 0.06037 0.36376 0.39506 0.0
C1618 C 0.08228 0.36034 0.42957 0.0
H1619 H 0.09553 0.37584 0.47001 0.0
C1620 C 0.0914 0.35578 0.42551 0.0
C1621 C 0.08381 0.36778 0.4457 0.0
C1622 C 0.07407 0.37263 0.45083 0.0
C1623 C 0.10198 0.35835 0.43723 0.0
C1624 C 0.10331 0.36547 0.45357 0.0
C1625 C 0.09441 0.37034 0.45749 0.0
C1626 C 0.11364 0.36746 0.46691 0.0
C1627 C 0.1117 0.35349 0.43199 0.0
C1628 C 0.11272 0.35569 0.47455 0.0
C1629 C 0.12313 0.35735 0.4858 0.0
C1630 C 0.13465 0.37084 0.48967 0.0
C1631 C 0.13519 0.38268 0.48274 0.0
C1632 C 0.12474 0.381 0.47142 0.0
H1633 H 0.11156 0.35153 0.41746 0.0
H1634 H 0.12247 0.36139 0.43613 0.0
H1635 H 0.10847 0.34348 0.43867 0.0
H1636 H 0.10407 0.34518 0.47149 0.0
H1637 H 0.1223 0.34806 0.49124 0.0
H1638 H 0.02784 0.32042 0.30578 0.0
H1639 H 0.03583 0.31049 0.28268 0.0
H1640 H 0.07699 0.34728 0.28691 0.0
H1641 H 0.06907 0.35739 0.30968 0.0
H1642 H 0.06818 0.33941 0.25225 0.0
H1643 H 0.0597 0.29365 0.29056 0.0
H1644 H 0.04481 0.29513 0.28811 0.0
H1645 H 0.05941 0.3083 0.30077 0.0
C1646 C 0.0386 0.32638 0.3018 0.0
C1647 C 0.04784 0.33967 0.30961 0.0
C1648 C 0.04315 0.32066 0.28866 0.0
C1649 C 0.05704 0.32807 0.28326 0.0
C1650 C 0.06623 0.34138 0.29092 0.0
H1651 H 0.11058 0.30586 0.23409 0.0
H1652 H 0.09628 0.31096 0.25339 0.0
C1653 C 0.06169 0.34713 0.30396 0.0
C1654 C 0.06215 0.32212 0.26959 0.0
H1655 H 0.06843 0.29573 0.26159 0.0
C1656 C 0.06813 0.32979 0.25419 0.0
C1657 C 0.06212 0.30961 0.27226 0.0
C1658 C 0.05628 0.30122 0.28886 0.0
C1659 C 0.07447 0.32552 0.24158 0.0
C1660 C 0.07456 0.31308 0.24431 0.0
C1661 C 0.06823 0.30519 0.25948 0.0
C1662 C 0.0824 0.30889 0.23256 0.0
C1663 C 0.08159 0.33473 0.2259 0.0
C1664 C 0.07913 0.30571 0.21449 0.0
C1665 C 0.08742 0.30296 0.20334 0.0
C1666 C 0.09905 0.30327 0.21012 0.0
C1667 C 0.10188 0.30584 0.22838 0.0
C1668 C 0.09364 0.30863 0.23946 0.0
H1669 H 0.08298 0.34532 0.22767 0.0
H1670 H 0.0919 0.33609 0.22367 0.0
H1671 H 0.07525 0.32966 0.21383 0.0
H1672 H 0.07034 0.30562 0.20897 0.0
H1673 H 0.08498 0.30103 0.18934 0.0
H1674 H 0.66061 0.70414 0.28165 0.0
H1675 H 0.66841 0.72333 0.26096 0.0
H1676 H 0.70812 0.74617 0.28696 0.0
H1677 H 0.70042 0.72699 0.30785 0.0
H1678 H 0.67842 0.7525 0.27272 0.0
H1679 H 0.7164 0.74658 0.23203 0.0
H1680 H 0.70282 0.73224 0.24445 0.0
H1681 H 0.71762 0.74633 0.25577 0.0
C1682 C 0.67106 0.71316 0.2829 0.0
C1683 C 0.67988 0.71405 0.29643 0.0
C1684 C 0.67548 0.72411 0.27106 0.0
C1685 C 0.68884 0.73608 0.27241 0.0
C1686 C 0.69782 0.73692 0.28562 0.0
H1687 H 0.71414 0.81604 0.22309 0.0
H1688 H 0.71199 0.7984 0.2437 0.0
C1689 C 0.69338 0.72598 0.29756 0.0
C1690 C 0.69298 0.74801 0.26061 0.0
H1691 H 0.7136 0.76551 0.22543 0.0
C1692 C 0.68618 0.75542 0.26245 0.0
C1693 C 0.70304 0.75169 0.24722 0.0
C1694 C 0.71039 0.74379 0.24457 0.0
C1695 C 0.68908 0.76638 0.2511 0.0
C1696 C 0.69912 0.77006 0.23767 0.0
C1697 C 0.706 0.7627 0.23587 0.0
C1698 C 0.70194 0.78098 0.22478 0.0
C1699 C 0.68113 0.77371 0.25322 0.0
C1700 C 0.69737 0.77704 0.20723 0.0
C1701 C 0.69858 0.78706 0.19545 0.0
C1702 C 0.70448 0.80121 0.20101 0.0
C1703 C 0.70962 0.80523 0.2184 0.0
C1704 C 0.70834 0.79518 0.2302 0.0
H1705 H 0.67219 0.7681 0.26235 0.0
H1706 H 0.6881 0.78454 0.25867 0.0
H1707 H 0.67727 0.77459 0.24018 0.0
H1708 H 0.69244 0.76611 0.20283 0.0
H1709 H 0.6947 0.78369 0.18206 0.0
H1710 H 0.2848 0.97363 0.30892 0.0
H1711 H 0.2664 0.96374 0.28651 0.0
H1712 H 0.26452 0.92416 0.2875 0.0
H1713 H 0.28274 0.93384 0.30989 0.0
H1714 H 0.26616 0.95197 0.2525 0.0
H1715 H 0.22412 0.91293 0.29532 0.0
H1716 H 0.2401 0.92755 0.30417 0.0
H1717 H 0.2394 0.91198 0.29564 0.0
C1718 C 0.28043 0.9628 0.3044 0.0
C1719 C 0.28518 0.95449 0.31125 0.0
C1720 C 0.26994 0.95719 0.29161 0.0
C1721 C 0.26397 0.94317 0.28559 0.0
C1722 C 0.2688 0.93492 0.29224 0.0
H1723 H 0.20656 0.88452 0.20948 0.0
H1724 H 0.22389 0.89791 0.23241 0.0
C1725 C 0.27928 0.94051 0.30498 0.0
C1726 C 0.2529 0.93713 0.27202 0.0
H1727 H 0.21995 0.90975 0.2641 0.0
C1728 C 0.25598 0.94286 0.25505 0.0
C1729 C 0.23964 0.92529 0.27547 0.0
C1730 C 0.23554 0.91915 0.29368 0.0
C1731 C 0.24633 0.93661 0.24117 0.0
C1732 C 0.23325 0.92446 0.24448 0.0
C1733 C 0.23003 0.91903 0.2616 0.0
C1734 C 0.22301 0.91671 0.23019 0.0
C1735 C 0.25039 0.94267 0.22291 0.0
C1736 C 0.21674 0.92285 0.2214 0.0
C1737 C 0.20687 0.91524 0.20817 0.0
C1738 C 0.2031 0.90136 0.20356 0.0
C1739 C 0.2094 0.89527 0.21247 0.0
C1740 C 0.21923 0.90286 0.22568 0.0
H1741 H 0.26168 0.95039 0.22185 0.0
H1742 H 0.24738 0.93416 0.21274 0.0
H1743 H 0.24487 0.94813 0.21987 0.0
H1744 H 0.21939 0.93346 0.22488 0.0
H1745 H 0.20224 0.92023 0.2015 0.0
H1746 H 0.66386 0.9496 0.30631 0.0
H1747 H 0.66992 0.93838 0.28277 0.0
H1748 H 0.71093 0.9754 0.28017 0.0
H1749 H 0.70503 0.98671 0.30397 0.0
H1750 H 0.67869 0.94804 0.24827 0.0
H1751 H 0.71813 0.9431 0.28476 0.0
H1752 H 0.70614 0.94674 0.2959 0.0
H1753 H 0.72077 0.96045 0.28436 0.0
C1754 C 0.67421 0.95536 0.30083 0.0
C1755 C 0.68398 0.96905 0.30707 0.0
C1756 C 0.67764 0.94893 0.28735 0.0
C1757 C 0.69091 0.956 0.27987 0.0
C1758 C 0.70071 0.96967 0.28599 0.0
H1759 H 0.72174 0.92276 0.19657 0.0
H1760 H 0.72013 0.9389 0.21776 0.0
C1761 C 0.69729 0.97614 0.29953 0.0
C1762 C 0.69421 0.94904 0.26537 0.0
H1763 H 0.71363 0.93464 0.25514 0.0
C1764 C 0.68639 0.94519 0.24972 0.0
C1765 C 0.70434 0.94544 0.26728 0.0
C1766 C 0.71279 0.94903 0.284 0.0
C1767 C 0.6882 0.93754 0.23605 0.0
C1768 C 0.69795 0.93348 0.23823 0.0
C1769 C 0.70615 0.93778 0.25357 0.0
C1770 C 0.69902 0.92389 0.22531 0.0
C1771 C 0.67957 0.93374 0.21946 0.0
C1772 C 0.68776 0.91008 0.22281 0.0
C1773 C 0.68867 0.90083 0.21089 0.0
C1774 C 0.70088 0.90519 0.20122 0.0
C1775 C 0.71222 0.91903 0.20388 0.0
C1776 C 0.7113 0.92829 0.2159 0.0
H1777 H 0.67553 0.94079 0.21774 0.0
H1778 H 0.68565 0.9343 0.20753 0.0
H1779 H 0.67059 0.92278 0.22037 0.0
H1780 H 0.67829 0.90639 0.23026 0.0
H1781 H 0.67986 0.89016 0.20951 0.0
H1782 H 0.04617 0.71186 0.28487 0.0
H1783 H 0.05606 0.7296 0.2621 0.0
H1784 H 0.03121 0.74619 0.28057 0.0
H1785 H 0.02147 0.7286 0.30384 0.0
H1786 H 0.0438 0.73454 0.23489 0.0
H1787 H 0.06973 0.78124 0.2808 0.0
H1788 H 0.06258 0.76351 0.28827 0.0
H1789 H 0.05138 0.76992 0.28377 0.0
C1790 C 0.04279 0.71927 0.28415 0.0
C1791 C 0.03309 0.71888 0.29625 0.0
C1792 C 0.04845 0.7294 0.27108 0.0
C1793 C 0.04452 0.73933 0.26978 0.0
C1794 C 0.03461 0.73881 0.28158 0.0
H1795 H 0.07909 0.80795 0.1931 0.0
H1796 H 0.06309 0.79036 0.21411 0.0
C1797 C 0.029 0.72871 0.2948 0.0
C1798 C 0.05096 0.75019 0.25602 0.0
H1799 H 0.07251 0.78558 0.25022 0.0
C1800 C 0.04997 0.7457 0.23824 0.0
C1801 C 0.059 0.76477 0.26042 0.0
C1802 C 0.06087 0.7702 0.27934 0.0
C1803 C 0.05712 0.75536 0.22481 0.0
C1804 C 0.06547 0.76983 0.22929 0.0
C1805 C 0.06602 0.77443 0.2469 0.0
C1806 C 0.07475 0.78018 0.21618 0.0
C1807 C 0.05601 0.75003 0.20595 0.0
C1808 C 0.08659 0.78026 0.21057 0.0
C1809 C 0.09584 0.79038 0.19885 0.0
C1810 C 0.0934 0.8006 0.19239 0.0
C1811 C 0.08139 0.80036 0.19794 0.0
C1812 C 0.07219 0.79028 0.20984 0.0
H1813 H 0.04707 0.73907 0.2041 0.0
H1814 H 0.05496 0.75696 0.19667 0.0
H1815 H 0.06559 0.75017 0.20242 0.0
H1816 H 0.08881 0.77265 0.21556 0.0
H1817 H 0.1051 0.7904 0.19525 0.0
H1818 H 0.29829 0.31152 0.27136 0.0
H1819 H 0.27965 0.30555 0.25025 0.0
H1820 H 0.25426 0.3059 0.29296 0.0
H1821 H 0.27275 0.31192 0.31409 0.0
H1822 H 0.25031 0.28244 0.24961 0.0
H1823 H 0.25801 0.33573 0.25749 0.0
H1824 H 0.27078 0.33184 0.26436 0.0
H1825 H 0.25588 0.32696 0.27795 0.0
C1826 C 0.28869 0.3102 0.27628 0.0
C1827 C 0.28706 0.31234 0.29439 0.0
C1828 C 0.27806 0.30677 0.26421 0.0
C1829 C 0.2657 0.3055 0.27006 0.0
C1830 C 0.26382 0.30704 0.28819 0.0
H1831 H 0.1912 0.29485 0.22885 0.0
H1832 H 0.20999 0.29667 0.24642 0.0
C1833 C 0.2744 0.31045 0.30024 0.0
C1834 C 0.25494 0.30321 0.25725 0.0
H1835 H 0.23781 0.31843 0.24209 0.0
C1836 C 0.24762 0.29032 0.24779 0.0
C1837 C 0.25158 0.31358 0.25487 0.0
C1838 C 0.25954 0.32786 0.26406 0.0
C1839 C 0.23658 0.28731 0.23655 0.0
C1840 C 0.23296 0.29754 0.23463 0.0
C1841 C 0.24056 0.31057 0.24371 0.0
C1842 C 0.22099 0.2949 0.22388 0.0
C1843 C 0.22856 0.27307 0.22731 0.0
C1844 C 0.22087 0.2931 0.20539 0.0
C1845 C 0.21012 0.29209 0.19528 0.0
C1846 C 0.19943 0.29299 0.20353 0.0
C1847 C 0.1994 0.29433 0.2221 0.0
C1848 C 0.21008 0.29531 0.23216 0.0
H1849 H 0.23092 0.26544 0.23285 0.0
H1850 H 0.21726 0.26868 0.22839 0.0
H1851 H 0.23128 0.27422 0.21303 0.0
H1852 H 0.22931 0.293 0.19873 0.0
H1853 H 0.21047 0.29118 0.18098 0.0
H1854 H 0.28279 0.35294 0.35593 0.0
H1855 H 0.27386 0.36039 0.38071 0.0
H1856 H 0.29898 0.35416 0.41708 0.0
H1857 H 0.30803 0.34668 0.39235 0.0
H1858 H 0.25969 0.34203 0.41059 0.0
H1859 H 0.30542 0.39405 0.43084 0.0
H1860 H 0.30378 0.38636 0.40893 0.0
H1861 H 0.30797 0.37953 0.42741 0.0
C1862 C 0.28656 0.35331 0.36916 0.0
C1863 C 0.29608 0.34916 0.37218 0.0
C1864 C 0.28145 0.35758 0.38328 0.0
C1865 C 0.28586 0.35792 0.40065 0.0
C1866 C 0.29562 0.35415 0.40372 0.0
H1867 H 0.25472 0.37355 0.50019 0.0
H1868 H 0.26902 0.37001 0.47846 0.0
C1869 C 0.30071 0.34981 0.38959 0.0
C1870 C 0.27931 0.3611 0.4156 0.0
H1871 H 0.28504 0.38572 0.44777 0.0
C1872 C 0.26523 0.35156 0.41875 0.0
C1873 C 0.28666 0.37345 0.42631 0.0
C1874 C 0.30179 0.38403 0.42324 0.0
C1875 C 0.25819 0.35413 0.43223 0.0
C1876 C 0.26538 0.36675 0.44254 0.0
C1877 C 0.27958 0.37611 0.43975 0.0
C1878 C 0.25801 0.37055 0.45563 0.0
C1879 C 0.2431 0.34331 0.43531 0.0
C1880 C 0.24749 0.37255 0.4499 0.0
C1881 C 0.23935 0.37449 0.46218 0.0
C1882 C 0.24165 0.37461 0.48044 0.0
C1883 C 0.25274 0.37349 0.48618 0.0
C1884 C 0.26088 0.37145 0.47382 0.0
H1885 H 0.24024 0.33275 0.42987 0.0
H1886 H 0.24058 0.3424 0.44966 0.0
H1887 H 0.23665 0.34657 0.42855 0.0
H1888 H 0.24532 0.37218 0.43589 0.0
H1889 H 0.23103 0.3756 0.4574 0.0
H1890 H 0.67851 0.95459 0.3907 0.0
H1891 H 0.67171 0.9376 0.41423 0.0
H1892 H 0.63024 0.92959 0.41304 0.0
H1893 H 0.6369 0.94646 0.38922 0.0
H1894 H 0.66097 0.93745 0.44783 0.0
H1895 H 0.62418 0.89007 0.40736 0.0
H1896 H 0.63642 0.90669 0.39756 0.0
H1897 H 0.62098 0.90422 0.40785 0.0
C1898 C 0.66793 0.94922 0.39541 0.0
C1899 C 0.65822 0.95182 0.38801 0.0
C1900 C 0.66408 0.93953 0.40888 0.0
C1901 C 0.65044 0.93221 0.4152 0.0
C1902 C 0.64076 0.93494 0.4081 0.0
H1903 H 0.61458 0.86566 0.49399 0.0
H1904 H 0.61778 0.8838 0.47348 0.0
C1905 C 0.6446 0.94464 0.39457 0.0
C1906 C 0.6465 0.92175 0.42925 0.0
H1907 H 0.62671 0.88655 0.43737 0.0
C1908 C 0.65342 0.92633 0.44559 0.0
C1909 C 0.6366 0.90726 0.42629 0.0
C1910 C 0.62917 0.90169 0.40879 0.0
C1911 C 0.65088 0.91679 0.45896 0.0
C1912 C 0.64131 0.90226 0.45581 0.0
C1913 C 0.63405 0.89771 0.43971 0.0
C1914 C 0.63939 0.89154 0.46856 0.0
C1915 C 0.65852 0.9223 0.47634 0.0
C1916 C 0.65043 0.88981 0.47236 0.0
C1917 C 0.64863 0.87942 0.48389 0.0
C1918 C 0.63571 0.87051 0.49186 0.0
C1919 C 0.62463 0.87226 0.48797 0.0
C1920 C 0.62645 0.88265 0.47635 0.0
H1921 H 0.6624 0.93368 0.47851 0.0
H1922 H 0.65177 0.91636 0.48764 0.0
H1923 H 0.66756 0.92102 0.47624 0.0
H1924 H 0.66042 0.89635 0.46614 0.0
H1925 H 0.6573 0.87816 0.48625 0.0
H1926 H 0.03323 0.70845 0.39575 0.0
H1927 H 0.04909 0.71932 0.42094 0.0
H1928 H 0.08392 0.73522 0.38544 0.0
H1929 H 0.06821 0.72458 0.36019 0.0
H1930 H 0.07021 0.71533 0.43263 0.0
H1931 H 0.09115 0.77056 0.41319 0.0
H1932 H 0.0756 0.75587 0.40357 0.0
H1933 H 0.0923 0.75973 0.39606 0.0
C1934 C 0.04427 0.71427 0.39329 0.0
C1935 C 0.04946 0.71575 0.37594 0.0
C1936 C 0.0533 0.72045 0.4077 0.0
C1937 C 0.06766 0.72826 0.405 0.0
C1938 C 0.07287 0.72948 0.38776 0.0
H1939 H 0.14104 0.77494 0.46907 0.0
H1940 H 0.12388 0.76207 0.44577 0.0
C1941 C 0.06386 0.72333 0.37335 0.0
C1942 C 0.07723 0.73512 0.4202 0.0
H1943 H 0.10288 0.7671 0.43643 0.0
C1944 C 0.0773 0.72665 0.43356 0.0
C1945 C 0.0864 0.74989 0.42137 0.0
C1946 C 0.08631 0.75958 0.40788 0.0
C1947 C 0.08663 0.73256 0.44782 0.0
C1948 C 0.09596 0.74731 0.4488 0.0
C1949 C 0.09575 0.75578 0.43557 0.0
C1950 C 0.10624 0.75424 0.46327 0.0
C1951 C 0.08669 0.72297 0.46146 0.0
C1952 C 0.10198 0.75406 0.48085 0.0
C1953 C 0.11178 0.76135 0.49425 0.0
C1954 C 0.126 0.76898 0.49027 0.0
C1955 C 0.13019 0.76898 0.47265 0.0
C1956 C 0.1204 0.76172 0.45929 0.0
H1957 H 0.08107 0.71179 0.45674 0.0
H1958 H 0.09745 0.72621 0.46495 0.0
H1959 H 0.08154 0.72366 0.4737 0.0
H1960 H 0.09108 0.74852 0.48414 0.0
H1961 H 0.10823 0.76109 0.5077 0.0
H1962 H 0.3348 0.05467 0.71206 0.0
H1963 H 0.32844 0.06671 0.73406 0.0
H1964 H 0.28775 0.02945 0.7383 0.0
H1965 H 0.29403 0.0172 0.71625 0.0
H1966 H 0.3055 0.07101 0.73167 0.0
H1967 H 0.30241 0.0403 0.79038 0.0
H1968 H 0.31141 0.04052 0.77037 0.0
H1969 H 0.29286 0.03049 0.77091 0.0
C1970 C 0.3245 0.04898 0.71768 0.0
C1971 C 0.31493 0.03495 0.71243 0.0
C1972 C 0.32089 0.0559 0.73024 0.0
C1973 C 0.30769 0.04892 0.73789 0.0
C1974 C 0.29806 0.03493 0.73269 0.0
H1975 H 0.27815 0.08303 0.82159 0.0
H1976 H 0.27898 0.06723 0.79903 0.0
C1977 C 0.30165 0.02799 0.72005 0.0
C1978 C 0.30408 0.05652 0.75106 0.0
H1979 H 0.29831 0.05872 0.7952 0.0
C1980 C 0.30382 0.06827 0.74554 0.0
C1981 C 0.30179 0.05282 0.76909 0.0
C1982 C 0.30219 0.0404 0.77568 0.0
C1983 C 0.30162 0.07664 0.75767 0.0
C1984 C 0.29993 0.07332 0.77583 0.0
C1985 C 0.29966 0.06125 0.78126 0.0
C1986 C 0.29933 0.08276 0.78948 0.0
C1987 C 0.30121 0.08902 0.75093 0.0
C1988 C 0.31058 0.09661 0.79174 0.0
C1989 C 0.31012 0.10564 0.8045 0.0
C1990 C 0.29843 0.10096 0.81538 0.0
C1991 C 0.28723 0.08699 0.81327 0.0
C1992 C 0.28771 0.07794 0.80047 0.0
H1993 H 0.29847 0.08764 0.73664 0.0
H1994 H 0.29363 0.09057 0.75847 0.0
H1995 H 0.31159 0.09872 0.75255 0.0
H1996 H 0.31975 0.10045 0.78361 0.0
H1997 H 0.31886 0.11637 0.80563 0.0
H1998 H 0.9721 0.27187 0.70573 0.0
H1999 H 0.9601 0.25286 0.72692 0.0
H2000 H 0.95142 0.27943 0.75997 0.0
H2001 H 0.96349 0.2985 0.73908 0.0
H2002 H 0.96053 0.26412 0.77885 0.0
H2003 H 0.91754 0.23009 0.73202 0.0
H2004 H 0.93471 0.23596 0.72421 0.0
H2005 H 0.92964 0.24855 0.72829 0.0
C2006 C 0.96771 0.2737 0.71757 0.0
C2007 C 0.96865 0.28666 0.72065 0.0
C2008 C 0.96082 0.26281 0.72961 0.0
C2009 C 0.95474 0.2647 0.74487 0.0
C2010 C 0.95603 0.27776 0.74824 0.0
H2011 H 0.88844 0.20913 0.81182 0.0
H2012 H 0.90462 0.22647 0.79093 0.0
C2013 C 0.9629 0.28863 0.73624 0.0
C2014 C 0.94657 0.25301 0.75712 0.0
H2015 H 0.91627 0.2213 0.7604 0.0
C2016 C 0.95092 0.25468 0.77482 0.0
C2017 C 0.93398 0.2408 0.75179 0.0
C2018 C 0.92857 0.23871 0.73309 0.0
C2019 C 0.94287 0.24455 0.78744 0.0
C2020 C 0.93022 0.23241 0.78213 0.0
C2021 C 0.92601 0.23061 0.76436 0.0
C2022 C 0.92069 0.22196 0.79503 0.0
C2023 C 0.94764 0.24718 0.80648 0.0
C2024 C 0.92437 0.21364 0.8042 0.0
C2025 C 0.91516 0.20376 0.81627 0.0
C2026 C 0.90213 0.20205 0.81934 0.0
C2027 C 0.89849 0.21037 0.81001 0.0
C2028 C 0.90767 0.2202 0.79796 0.0
H2029 H 0.9563 0.25819 0.80895 0.0
H2030 H 0.93898 0.24495 0.81555 0.0
H2031 H 0.95126 0.24 0.80978 0.0
H2032 H 0.93431 0.21473 0.80193 0.0
H2033 H 0.91828 0.19754 0.8233 0.0
H2034 H 0.70423 0.69589 0.74977 0.0
H2035 H 0.72295 0.7041 0.77142 0.0
H2036 H 0.75008 0.70515 0.73019 0.0
H2037 H 0.73155 0.69709 0.70846 0.0
H2038 H 0.73605 0.68977 0.77948 0.0
H2039 H 0.77413 0.74316 0.75589 0.0
H2040 H 0.7562 0.73364 0.74913 0.0
H2041 H 0.76823 0.72984 0.73864 0.0
C2042 C 0.71424 0.69806 0.74525 0.0
C2043 C 0.7164 0.69582 0.72738 0.0
C2044 C 0.72491 0.70275 0.75765 0.0
C2045 C 0.73795 0.70542 0.75236 0.0
C2046 C 0.7402 0.70345 0.73449 0.0
H2047 H 0.81174 0.71579 0.7933 0.0
H2048 H 0.79299 0.71463 0.7764 0.0
C2049 C 0.72954 0.69874 0.7221 0.0
C2050 C 0.74886 0.70908 0.76567 0.0
H2051 H 0.78282 0.73283 0.77528 0.0
C2052 C 0.74621 0.69931 0.7788 0.0
C2053 C 0.76209 0.72152 0.76471 0.0
C2054 C 0.76532 0.73271 0.75144 0.0
C2055 C 0.75666 0.70126 0.79039 0.0
C2056 C 0.77004 0.71345 0.78898 0.0
C2057 C 0.77255 0.72349 0.7763 0.0
C2058 C 0.78183 0.71532 0.79947 0.0
C2059 C 0.75349 0.6899 0.80339 0.0
C2060 C 0.78194 0.71643 0.81805 0.0
C2061 C 0.79261 0.71697 0.82777 0.0
C2062 C 0.80335 0.71645 0.81905 0.0
C2063 C 0.80348 0.71594 0.80041 0.0
C2064 C 0.79283 0.7154 0.79074 0.0
H2065 H 0.74348 0.68001 0.80044 0.0
H2066 H 0.76181 0.6875 0.80331 0.0
H2067 H 0.75288 0.69363 0.81695 0.0
H2068 H 0.77364 0.71661 0.82502 0.0
H2069 H 0.7922 0.71732 0.84211 0.0
H2070 H 0.73075 0.68885 0.6345 0.0
H2071 H 0.73806 0.67898 0.61068 0.0
H2072 H 0.69952 0.6391 0.61458 0.0
H2073 H 0.69223 0.64883 0.63878 0.0
H2074 H 0.72129 0.63574 0.61311 0.0
H2075 H 0.72593 0.6707 0.55952 0.0
H2076 H 0.73574 0.68067 0.57865 0.0
H2077 H 0.71718 0.66959 0.58012 0.0
C2078 C 0.72377 0.67801 0.63023 0.0
C2079 C 0.71089 0.66964 0.63851 0.0
C2080 C 0.72792 0.67241 0.6165 0.0
C2081 C 0.71921 0.6584 0.61059 0.0
C2082 C 0.70635 0.64998 0.61884 0.0
H2083 H 0.74767 0.63226 0.51679 0.0
H2084 H 0.73226 0.63535 0.53686 0.0
C2085 C 0.70221 0.65556 0.63267 0.0
C2086 C 0.72395 0.65239 0.59649 0.0
H2087 H 0.73853 0.65892 0.55534 0.0
C2088 C 0.72485 0.64066 0.60036 0.0
C2089 C 0.7283 0.65859 0.5797 0.0
C2090 C 0.72659 0.67048 0.57417 0.0
C2091 C 0.73077 0.63553 0.58831 0.0
C2092 C 0.73622 0.64252 0.57216 0.0
C2093 C 0.73454 0.65368 0.56783 0.0
C2094 C 0.74469 0.63923 0.56027 0.0
C2095 C 0.73128 0.62278 0.59313 0.0
C2096 C 0.75674 0.64035 0.56677 0.0
C2097 C 0.76545 0.63848 0.55542 0.0
C2098 C 0.76242 0.63565 0.53723 0.0
C2099 C 0.75022 0.63429 0.53076 0.0
C2100 C 0.74145 0.63612 0.54218 0.0
H2101 H 0.72268 0.61591 0.60219 0.0
H2102 H 0.7307 0.61647 0.58117 0.0
H2103 H 0.74114 0.62628 0.60013 0.0
H2104 H 0.75963 0.64306 0.58058 0.0
H2105 H 0.77468 0.63943 0.56087 0.0
H2106 H 0.32172 0.05076 0.63074 0.0
H2107 H 0.3293 0.06873 0.60831 0.0
H2108 H 0.37015 0.07512 0.60903 0.0
H2109 H 0.36266 0.05707 0.6315 0.0
H2110 H 0.35196 0.09761 0.61278 0.0
H2111 H 0.3593 0.06969 0.55546 0.0
H2112 H 0.3489 0.06048 0.57444 0.0
H2113 H 0.36742 0.07025 0.57603 0.0
C2114 C 0.3323 0.05589 0.62606 0.0
C2115 C 0.34159 0.05248 0.63291 0.0
C2116 C 0.3366 0.06616 0.61325 0.0
C2117 C 0.35024 0.07314 0.60694 0.0
C2118 C 0.35953 0.0697 0.61358 0.0
H2119 H 0.38826 0.13935 0.52789 0.0
H2120 H 0.38468 0.12205 0.55005 0.0
C2121 C 0.35524 0.05943 0.62646 0.0
C2122 C 0.35477 0.08446 0.59399 0.0
H2123 H 0.36445 0.09278 0.55088 0.0
C2124 C 0.35475 0.09659 0.59927 0.0
C2125 C 0.35853 0.08312 0.57645 0.0
C2126 C 0.35849 0.07016 0.57012 0.0
C2127 C 0.35819 0.10738 0.58737 0.0
C2128 C 0.36144 0.10582 0.56963 0.0
C2129 C 0.3619 0.09389 0.56448 0.0
C2130 C 0.36365 0.11613 0.55606 0.0
C2131 C 0.3583 0.12034 0.59389 0.0
C2132 C 0.35294 0.11832 0.55194 0.0
C2133 C 0.35497 0.12819 0.53943 0.0
C2134 C 0.36772 0.13601 0.53065 0.0
C2135 C 0.37838 0.13361 0.53458 0.0
C2136 C 0.37633 0.12369 0.54714 0.0
H2137 H 0.35962 0.12178 0.60851 0.0
H2138 H 0.36671 0.12996 0.58754 0.0
H2139 H 0.34828 0.11921 0.59053 0.0
H2140 H 0.343 0.11241 0.55847 0.0
H2141 H 0.3466 0.12988 0.53689 0.0
H2142 H 0.93358 0.28528 0.657 0.0
H2143 H 0.91752 0.27487 0.63201 0.0
H2144 H 0.95186 0.28852 0.59609 0.0
H2145 H 0.96801 0.29879 0.62101 0.0
H2146 H 0.9154 0.28735 0.60134 0.0
H2147 H 0.92756 0.24616 0.58497 0.0
H2148 H 0.93275 0.2562 0.60559 0.0
H2149 H 0.94226 0.26388 0.58561 0.0
C2150 C 0.93773 0.28608 0.64379 0.0
C2151 C 0.95208 0.29276 0.64102 0.0
C2152 C 0.92853 0.28015 0.62953 0.0
C2153 C 0.9335 0.28074 0.61226 0.0
C2154 C 0.94781 0.2877 0.60937 0.0
H2155 H 0.89052 0.24431 0.51202 0.0
H2156 H 0.90809 0.2583 0.5346 0.0
C2157 C 0.95702 0.29362 0.62363 0.0
C2158 C 0.92365 0.27398 0.59731 0.0
H2159 H 0.9123 0.24777 0.56566 0.0
C2160 C 0.91471 0.2787 0.59351 0.0
C2161 C 0.92281 0.26271 0.58714 0.0
C2162 C 0.93176 0.25682 0.59108 0.0
C2163 C 0.90498 0.27248 0.57973 0.0
C2164 C 0.90404 0.26112 0.5697 0.0
C2165 C 0.91309 0.25652 0.57335 0.0
C2166 C 0.89337 0.25344 0.55582 0.0
C2167 C 0.89587 0.2782 0.57592 0.0
C2168 C 0.8793 0.24606 0.5603 0.0
C2169 C 0.86925 0.238 0.54748 0.0
C2170 C 0.87309 0.2371 0.52993 0.0
C2171 C 0.88722 0.24467 0.52545 0.0
C2172 C 0.89727 0.25272 0.5383 0.0
H2173 H 0.90036 0.28912 0.58132 0.0
H2174 H 0.89421 0.27815 0.56145 0.0
H2175 H 0.88564 0.27146 0.58225 0.0
H2176 H 0.87609 0.24622 0.57385 0.0
H2177 H 0.85849 0.2321 0.55147 0.0
H2178 H 0.34408 0.30793 0.62545 0.0
H2179 H 0.35148 0.29864 0.60091 0.0
H2180 H 0.35231 0.26924 0.636 0.0
H2181 H 0.34531 0.27873 0.6607 0.0
H2182 H 0.37448 0.28098 0.61377 0.0
H2183 H 0.32585 0.26129 0.57589 0.0
H2184 H 0.33507 0.27987 0.58089 0.0
H2185 H 0.32785 0.26753 0.59859 0.0
C2186 C 0.34589 0.29952 0.62796 0.0
C2187 C 0.34397 0.29397 0.64499 0.0
C2188 C 0.35006 0.29418 0.6139 0.0
C2189 C 0.35216 0.28305 0.61655 0.0
C2190 C 0.35068 0.27779 0.63364 0.0
H2191 H 0.3483 0.22188 0.54207 0.0
H2192 H 0.34483 0.23564 0.56489 0.0
C2193 C 0.34665 0.28321 0.64774 0.0
C2194 C 0.35557 0.27658 0.6015 0.0
H2195 H 0.34319 0.25876 0.56204 0.0
C2196 C 0.36767 0.27615 0.60241 0.0
C2197 C 0.34658 0.27017 0.58681 0.0
C2198 C 0.33305 0.26959 0.5855 0.0
C2199 C 0.37096 0.26933 0.58913 0.0
C2200 C 0.36205 0.26306 0.57434 0.0
C2201 C 0.35006 0.26367 0.57332 0.0
C2202 C 0.3644 0.25495 0.56036 0.0
C2203 C 0.38365 0.26844 0.59139 0.0
C2204 C 0.37653 0.26126 0.55012 0.0
C2205 C 0.37857 0.25337 0.53708 0.0
C2206 C 0.36842 0.2391 0.53392 0.0
C2207 C 0.35623 0.23289 0.54405 0.0
C2208 C 0.35425 0.24073 0.55713 0.0
H2209 H 0.38741 0.27071 0.60532 0.0
H2210 H 0.38153 0.25784 0.58735 0.0
H2211 H 0.39208 0.27632 0.58289 0.0
H2212 H 0.38436 0.2723 0.55211 0.0
H2213 H 0.38799 0.25845 0.52934 0.0
H2214 H 0.72347 0.04814 0.62584 0.0
H2215 H 0.73431 0.06498 0.60206 0.0
H2216 H 0.7009 0.07269 0.60373 0.0
H2217 H 0.69002 0.05597 0.62775 0.0
H2218 H 0.72338 0.06439 0.56854 0.0
H2219 H 0.7357 0.1124 0.6082 0.0
H2220 H 0.73098 0.09599 0.61832 0.0
H2221 H 0.71792 0.09817 0.60855 0.0
C2222 C 0.71842 0.05343 0.62121 0.0
C2223 C 0.70591 0.05077 0.62875 0.0
C2224 C 0.72463 0.06303 0.60759 0.0
C2225 C 0.71849 0.07018 0.6013 0.0
C2226 C 0.70592 0.06745 0.60863 0.0
H2227 H 0.75059 0.13572 0.52142 0.0
H2228 H 0.7352 0.11771 0.54241 0.0
C2229 C 0.6997 0.05785 0.62229 0.0
C2230 C 0.72527 0.0804 0.58694 0.0
H2231 H 0.74159 0.1154 0.57791 0.0
C2232 C 0.72731 0.07553 0.57054 0.0
C2233 C 0.7303 0.09491 0.5896 0.0
C2234 C 0.72874 0.10076 0.60714 0.0
C2235 C 0.73443 0.08483 0.55677 0.0
C2236 C 0.73982 0.09939 0.55961 0.0
C2237 C 0.73742 0.10422 0.57581 0.0
C2238 C 0.74878 0.10989 0.54639 0.0
C2239 C 0.73617 0.07901 0.53932 0.0
C2240 C 0.76154 0.11152 0.54186 0.0
C2241 C 0.77037 0.12182 0.53003 0.0
C2242 C 0.76664 0.13075 0.52251 0.0
C2243 C 0.75381 0.12908 0.52707 0.0
C2244 C 0.74499 0.11877 0.53897 0.0
H2245 H 0.72823 0.06763 0.53753 0.0
H2246 H 0.7355 0.08479 0.52802 0.0
H2247 H 0.7465 0.08021 0.53898 0.0
H2248 H 0.76481 0.105 0.54779 0.0
H2249 H 0.78029 0.12302 0.52715 0.0
H2250 H 0.93775 0.6322 0.63503 0.0
H2251 H 0.91997 0.62474 0.61221 0.0
H2252 H 0.94473 0.6648 0.58704 0.0
H2253 H 0.96266 0.67218 0.60946 0.0
H2254 H 0.90523 0.63656 0.60562 0.0
H2255 H 0.93375 0.63821 0.54489 0.0
H2256 H 0.9402 0.63873 0.56681 0.0
H2257 H 0.9427 0.65454 0.5573 0.0
C2258 C 0.93949 0.63934 0.62449 0.0
C2259 C 0.95163 0.65278 0.62404 0.0
C2260 C 0.92932 0.63506 0.61146 0.0
C2261 C 0.93112 0.64412 0.59774 0.0
C2262 C 0.94328 0.65748 0.5972 0.0
H2263 H 0.88183 0.65531 0.5245 0.0
H2264 H 0.89979 0.65637 0.54322 0.0
C2265 C 0.95348 0.66173 0.61013 0.0
C2266 C 0.91984 0.64012 0.58485 0.0
H2267 H 0.91303 0.63874 0.54064 0.0
C2268 C 0.90686 0.63678 0.59141 0.0
C2269 C 0.92197 0.64039 0.5663 0.0
C2270 C 0.93537 0.64302 0.55841 0.0
C2271 C 0.89618 0.63437 0.57995 0.0
C2272 C 0.89853 0.63525 0.56148 0.0
C2273 C 0.91133 0.63814 0.55485 0.0
C2274 C 0.88811 0.63416 0.54898 0.0
C2275 C 0.88263 0.63149 0.58765 0.0
C2276 C 0.87575 0.62125 0.54579 0.0
C2277 C 0.86548 0.62061 0.53508 0.0
C2278 C 0.86741 0.6329 0.52754 0.0
C2279 C 0.88 0.64572 0.53033 0.0
C2280 C 0.89028 0.64632 0.54092 0.0
H2281 H 0.88307 0.63288 0.60231 0.0
H2282 H 0.8797 0.63861 0.58188 0.0
H2283 H 0.87436 0.62049 0.58424 0.0
H2284 H 0.87396 0.61175 0.55187 0.0
H2285 H 0.85585 0.61062 0.53322 0.0
H2286 H 0.96501 0.67296 0.72392 0.0
H2287 H 0.95596 0.68118 0.7478 0.0
H2288 H 0.93599 0.69247 0.70928 0.0
H2289 H 0.9449 0.68424 0.68532 0.0
H2290 H 0.9585 0.70875 0.75364 0.0
H2291 H 0.90458 0.66399 0.74274 0.0
H2292 H 0.91942 0.66386 0.73419 0.0
H2293 H 0.91329 0.67365 0.72326 0.0
C2294 C 0.95875 0.67725 0.72051 0.0
C2295 C 0.95556 0.67782 0.70272 0.0
C2296 C 0.95364 0.68198 0.73417 0.0
C2297 C 0.94521 0.68727 0.73026 0.0
C2298 C 0.94236 0.68826 0.71253 0.0
H2299 H 0.89483 0.71141 0.78679 0.0
H2300 H 0.90865 0.70739 0.76516 0.0
C2301 C 0.94748 0.68357 0.69887 0.0
C2302 C 0.93888 0.69121 0.7447 0.0
H2303 H 0.90767 0.68217 0.76264 0.0
C2304 C 0.9474 0.70293 0.75572 0.0
C2305 C 0.92442 0.6835 0.74738 0.0
C2306 C 0.91487 0.67047 0.73639 0.0
C2307 C 0.94173 0.70746 0.76904 0.0
C2308 C 0.92723 0.6999 0.77147 0.0
C2309 C 0.91878 0.688 0.76066 0.0
C2310 C 0.92039 0.7042 0.78478 0.0
C2311 C 0.95123 0.7205 0.78002 0.0
C2312 C 0.92262 0.70404 0.80301 0.0
C2313 C 0.91475 0.7064 0.81543 0.0
C2314 C 0.90442 0.70875 0.80974 0.0
C2315 C 0.90262 0.70946 0.79151 0.0
C2316 C 0.91052 0.7072 0.77916 0.0
H2317 H 0.96161 0.72686 0.77387 0.0
H2318 H 0.94675 0.72721 0.78189 0.0
H2319 H 0.95257 0.71735 0.79329 0.0
H2320 H 0.93002 0.70149 0.80762 0.0
H2321 H 0.91624 0.70569 0.82942 0.0
H2322 H 0.31956 0.30146 0.74626 0.0
H2323 H 0.31307 0.28236 0.76675 0.0
H2324 H 0.29586 0.25205 0.72334 0.0
H2325 H 0.30257 0.2711 0.70268 0.0
H2326 H 0.28793 0.2583 0.77511 0.0
H2327 H 0.32406 0.24444 0.74437 0.0
H2328 H 0.32458 0.26043 0.73939 0.0
H2329 H 0.31173 0.24392 0.72925 0.0
C2330 C 0.31432 0.29073 0.74107 0.0
C2331 C 0.31173 0.28782 0.72281 0.0
C2332 C 0.3106 0.27982 0.75281 0.0
C2333 C 0.30423 0.26583 0.74651 0.0
C2334 C 0.30105 0.26282 0.72841 0.0
H2335 H 0.2838 0.18847 0.79828 0.0
H2336 H 0.28462 0.2055 0.77776 0.0
C2337 C 0.30484 0.27372 0.71665 0.0
C2338 C 0.30138 0.25448 0.7588 0.0
H2339 H 0.3096 0.22983 0.76714 0.0
C2340 C 0.29265 0.25206 0.77337 0.0
C2341 C 0.30759 0.24639 0.75652 0.0
C2342 C 0.31762 0.24897 0.74164 0.0
C2343 C 0.2899 0.24168 0.78568 0.0
C2344 C 0.29616 0.23365 0.78341 0.0
C2345 C 0.30476 0.23597 0.76875 0.0
C2346 C 0.29441 0.22314 0.7964 0.0
C2347 C 0.28024 0.23929 0.80092 0.0
C2348 C 0.29959 0.22743 0.81369 0.0
C2349 C 0.29913 0.21774 0.82544 0.0
C2350 C 0.2935 0.20358 0.82008 0.0
C2351 C 0.28803 0.19925 0.80287 0.0
C2352 C 0.28855 0.20897 0.79111 0.0
H2353 H 0.27364 0.24367 0.79834 0.0
H2354 H 0.27347 0.22788 0.80357 0.0
H2355 H 0.28642 0.24461 0.81304 0.0
H2356 H 0.30436 0.23837 0.81793 0.0
H2357 H 0.30333 0.22136 0.83865 0.0
H2358 H 0.71172 0.03001 0.71054 0.0
H2359 H 0.7288 0.03906 0.73457 0.0
H2360 H 0.72603 0.07607 0.73981 0.0
H2361 H 0.7089 0.06709 0.71605 0.0
H2362 H 0.75454 0.06432 0.73635 0.0
H2363 H 0.7202 0.06217 0.7906 0.0
H2364 H 0.71363 0.05297 0.7696 0.0
H2365 H 0.71995 0.07149 0.77175 0.0
C2366 C 0.7147 0.04005 0.71688 0.0
C2367 C 0.7089 0.04781 0.71145 0.0
C2368 C 0.72446 0.04519 0.73058 0.0
C2369 C 0.72848 0.0581 0.73916 0.0
C2370 C 0.72282 0.06592 0.73364 0.0
H2371 H 0.78768 0.11732 0.81297 0.0
H2372 H 0.76931 0.10338 0.79145 0.0
C2373 C 0.71309 0.06081 0.71997 0.0
C2374 C 0.73895 0.06372 0.7535 0.0
H2375 H 0.74456 0.07622 0.79628 0.0
C2376 C 0.75234 0.06674 0.74954 0.0
C2377 C 0.736 0.06679 0.7707 0.0
C2378 C 0.72163 0.06306 0.776 0.0
C2379 C 0.76304 0.07342 0.76211 0.0
C2380 C 0.76019 0.07698 0.77907 0.0
C2381 C 0.7467 0.07352 0.78321 0.0
C2382 C 0.77123 0.08512 0.79235 0.0
C2383 C 0.77743 0.07717 0.75692 0.0
C2384 C 0.77829 0.0794 0.80011 0.0
C2385 C 0.78875 0.08732 0.81257 0.0
C2386 C 0.79228 0.10107 0.8175 0.0
C2387 C 0.78508 0.10669 0.80972 0.0
C2388 C 0.77464 0.09877 0.79733 0.0
H2389 H 0.77838 0.07588 0.74242 0.0
H2390 H 0.78515 0.08823 0.76099 0.0
H2391 H 0.78003 0.07021 0.76383 0.0
H2392 H 0.77564 0.06878 0.79661 0.0
H2393 H 0.79398 0.08263 0.81847 0.0
H2394 H 0.05072 0.35912 0.02885 0.0
H2395 H 0.0672 0.35417 0.04237 0.0
H2396 H 0.0334 0.31393 0.05924 0.0
H2397 H 0.0169 0.31875 0.04593 0.0
H2398 H 0.0666 0.34682 0.08031 0.0
H2399 H 0.06113 0.30564 0.03209 0.0
H2400 H 0.05661 0.31841 0.02675 0.0
H2401 H 0.04522 0.30362 0.04009 0.0
C2402 C 0.04681 0.34919 0.03536 0.0
C2403 C 0.03251 0.33932 0.03632 0.0
C2404 C 0.05623 0.3464 0.04307 0.0
C2405 C 0.05148 0.33364 0.0516 0.0
C2406 C 0.03724 0.32376 0.0525 0.0
H2407 H 0.08422 0.29204 0.10904 0.0
H2408 H 0.07027 0.29882 0.09258 0.0
C2409 C 0.02784 0.32658 0.04496 0.0
C2410 C 0.0613 0.33074 0.06019 0.0
H2411 H 0.0732 0.30834 0.05876 0.0
C2412 C 0.0682 0.33853 0.07554 0.0
C2413 C 0.06321 0.31984 0.05393 0.0
C2414 C 0.05625 0.31143 0.03723 0.0
C2415 C 0.07666 0.33537 0.0852 0.0
C2416 C 0.07849 0.32436 0.07904 0.0
C2417 C 0.07177 0.31676 0.06347 0.0
C2418 C 0.08706 0.32031 0.08878 0.0
C2419 C 0.0831 0.34348 0.10227 0.0
C2420 C 0.10116 0.33009 0.09185 0.0
C2421 C 0.10912 0.32626 0.10131 0.0
C2422 C 0.10315 0.31252 0.10765 0.0
C2423 C 0.0891 0.30267 0.10422 0.0
C2424 C 0.08113 0.30654 0.09487 0.0
H2425 H 0.07779 0.34883 0.10745 0.0
H2426 H 0.08281 0.33644 0.1126 0.0
H2427 H 0.09408 0.3517 0.09982 0.0
H2428 H 0.10604 0.34066 0.08686 0.0
H2429 H 0.11998 0.33399 0.10348 0.0
H2430 H 0.63336 0.67179 0.05401 0.0
H2431 H 0.63993 0.69475 0.06733 0.0
H2432 H 0.67981 0.71355 0.04197 0.0
H2433 H 0.67333 0.69077 0.02845 0.0
H2434 H 0.66248 0.71163 0.09013 0.0
H2435 H 0.66622 0.73963 0.02868 0.0
H2436 H 0.65751 0.72068 0.02939 0.0
H2437 H 0.67607 0.73126 0.02818 0.0
C2438 C 0.64349 0.68083 0.05115 0.0
C2439 C 0.6528 0.67946 0.04012 0.0
C2440 C 0.64722 0.69392 0.05879 0.0
C2441 C 0.66027 0.70586 0.05542 0.0
C2442 C 0.66959 0.70452 0.04444 0.0
H2443 H 0.7046 0.79335 0.0914 0.0
H2444 H 0.69775 0.7703 0.07807 0.0
C2445 C 0.66588 0.69146 0.03681 0.0
C2446 C 0.6644 0.71962 0.06393 0.0
H2447 H 0.67497 0.75367 0.05506 0.0
C2448 C 0.66513 0.72081 0.08249 0.0
C2449 C 0.6679 0.73156 0.05389 0.0
C2450 C 0.66678 0.73075 0.03394 0.0
C2451 C 0.66952 0.73372 0.0913 0.0
C2452 C 0.67305 0.74567 0.08125 0.0
C2453 C 0.6723 0.74448 0.06269 0.0
C2454 C 0.67733 0.75947 0.08975 0.0
C2455 C 0.67063 0.73455 0.11125 0.0
C2456 C 0.66807 0.76098 0.10063 0.0
C2457 C 0.67196 0.77407 0.1083 0.0
C2458 C 0.68516 0.78593 0.10514 0.0
C2459 C 0.69443 0.78438 0.09424 0.0
C2460 C 0.69051 0.77126 0.08654 0.0
H2461 H 0.67099 0.72556 0.11655 0.0
H2462 H 0.68 0.74454 0.11577 0.0
H2463 H 0.66144 0.73426 0.11698 0.0
H2464 H 0.65777 0.75205 0.10305 0.0
H2465 H 0.66464 0.7749 0.11678 0.0
H2466 H 0.31127 0.98982 0.03414 0.0
H2467 H 0.28882 0.97374 0.04753 0.0
H2468 H 0.30319 0.9466 0.06267 0.0
H2469 H 0.32579 0.96273 0.04948 0.0
H2470 H 0.2702 0.94506 0.03948 0.0
H2471 H 0.28839 0.95363 0.10928 0.0
H2472 H 0.29874 0.96526 0.09179 0.0
H2473 H 0.29746 0.94863 0.09409 0.0
C2474 C 0.30969 0.98045 0.04033 0.0
C2475 C 0.32035 0.97759 0.04083 0.0
C2476 C 0.29685 0.97127 0.04796 0.0
C2477 C 0.29443 0.95911 0.0563 0.0
C2478 C 0.30495 0.95609 0.05659 0.0
H2479 H 0.2235 0.89141 0.10964 0.0
H2480 H 0.24601 0.90709 0.09605 0.0
C2481 C 0.31782 0.96527 0.04896 0.0
C2482 C 0.28082 0.94952 0.06446 0.0
H2483 H 0.26501 0.93577 0.10389 0.0
C2484 C 0.26904 0.94305 0.05357 0.0
C2485 C 0.27938 0.94694 0.08283 0.0
C2486 C 0.29163 0.95406 0.09525 0.0
C2487 C 0.25584 0.93388 0.06054 0.0
C2488 C 0.2544 0.93133 0.07892 0.0
C2489 C 0.26618 0.93777 0.0898 0.0
C2490 C 0.24075 0.92194 0.08711 0.0
C2491 C 0.24359 0.92678 0.04812 0.0
C2492 C 0.23041 0.92522 0.08678 0.0
C2493 C 0.21751 0.91625 0.09444 0.0
C2494 C 0.21474 0.90386 0.10262 0.0
C2495 C 0.22522 0.90075 0.10318 0.0
C2496 C 0.23812 0.90973 0.09553 0.0
H2497 H 0.24683 0.92709 0.0341 0.0
H2498 H 0.2364 0.91562 0.05168 0.0
H2499 H 0.23785 0.93231 0.04916 0.0
H2500 H 0.23234 0.93474 0.08061 0.0
H2501 H 0.20963 0.9189 0.09373 0.0
H2502 H 0.3237 0.01954 0.97095 0.0
H2503 H 0.31955 0.0363 0.95661 0.0
H2504 H 0.35308 0.07052 0.98637 0.0
H2505 H 0.35725 0.05375 0.00103 0.0
H2506 H 0.32893 0.07161 0.98578 0.0
H2507 H 0.34383 0.06377 0.91817 0.0
H2508 H 0.33103 0.04768 0.9283 0.0
H2509 H 0.3481 0.05788 0.93775 0.0
C2510 C 0.33024 0.03063 0.97445 0.0
C2511 C 0.34087 0.03532 0.98706 0.0
C2512 C 0.32788 0.0402 0.96616 0.0
C2513 C 0.33616 0.05465 0.97021 0.0
C2514 C 0.34664 0.05939 0.98299 0.0
H2515 H 0.33724 0.11956 0.90775 0.0
H2516 H 0.3435 0.10491 0.92366 0.0
C2517 C 0.34901 0.04981 0.99133 0.0
C2518 C 0.33368 0.06475 0.96124 0.0
H2519 H 0.33212 0.07627 0.92044 0.0
C2520 C 0.32972 0.07272 0.97151 0.0
C2521 C 0.33489 0.06629 0.94266 0.0
C2522 C 0.33983 0.05856 0.93107 0.0
C2523 C 0.32655 0.08193 0.9636 0.0
C2524 C 0.32717 0.08299 0.94493 0.0
C2525 C 0.33151 0.07531 0.93473 0.0
C2526 C 0.32337 0.09201 0.93569 0.0
C2527 C 0.3227 0.09052 0.9753 0.0
C2528 C 0.30993 0.08949 0.93702 0.0
C2529 C 0.30635 0.09791 0.92805 0.0
C2530 C 0.31613 0.10895 0.91749 0.0
C2531 C 0.32953 0.1113 0.91601 0.0
C2532 C 0.33311 0.10289 0.925 0.0
H2533 H 0.32635 0.09141 0.98913 0.0
H2534 H 0.32711 0.10129 0.97015 0.0
H2535 H 0.31127 0.08531 0.9756 0.0
H2536 H 0.30218 0.08096 0.94492 0.0
H2537 H 0.29597 0.09588 0.92956 0.0
H2538 H 0.95636 0.30978 0.01151 0.0
H2539 H 0.94075 0.28734 0.99608 0.0
H2540 H 0.97468 0.29241 0.96396 0.0
H2541 H 0.99026 0.31492 0.97899 0.0
H2542 H 0.95199 0.2852 0.94428 0.0
H2543 H 0.9375 0.24951 0.00101 0.0
H2544 H 0.93444 0.26359 0.00484 0.0
H2545 H 0.95185 0.26754 0.00192 0.0
C2546 C 0.96051 0.30607 0.00124 0.0
C2547 C 0.97455 0.31413 0.99649 0.0
C2548 C 0.95159 0.2932 0.99252 0.0
C2549 C 0.95661 0.28812 0.97906 0.0
C2550 C 0.97062 0.29612 0.97435 0.0
H2551 H 0.91234 0.2037 0.931 0.0
H2552 H 0.92914 0.22555 0.94672 0.0
C2553 C 0.9795 0.30899 0.98297 0.0
C2554 C 0.94718 0.27477 0.96928 0.0
H2555 H 0.92454 0.23952 0.9744 0.0
C2556 C 0.94603 0.2752 0.95085 0.0
C2557 C 0.93958 0.26172 0.97785 0.0
C2558 C 0.94098 0.26048 0.99747 0.0
C2559 C 0.93729 0.26296 0.94078 0.0
C2560 C 0.92927 0.25 0.94945 0.0
C2561 C 0.93062 0.24951 0.96783 0.0
C2562 C 0.91927 0.23688 0.93969 0.0
C2563 C 0.93685 0.264 0.92093 0.0
C2564 C 0.90814 0.23601 0.93065 0.0
C2565 C 0.89864 0.22363 0.92154 0.0
C2566 C 0.89998 0.2118 0.92146 0.0
C2567 C 0.91112 0.21268 0.93061 0.0
C2568 C 0.92066 0.22511 0.9397 0.0
H2569 H 0.94628 0.27355 0.91597 0.0
H2570 H 0.93582 0.25457 0.91403 0.0
H2571 H 0.92779 0.26469 0.91739 0.0
H2572 H 0.90676 0.2449 0.93072 0.0
H2573 H 0.89027 0.22336 0.91447 0.0
H2574 H 0.68585 0.66569 0.95558 0.0
H2575 H 0.70864 0.6733 0.94326 0.0
H2576 H 0.72032 0.66283 0.9919 0.0
H2577 H 0.69739 0.65485 0.00419 0.0
H2578 H 0.73373 0.69441 0.95536 0.0
H2579 H 0.73134 0.64339 0.95516 0.0
H2580 H 0.71622 0.64458 0.95848 0.0
H2581 H 0.72814 0.64876 0.97641 0.0
C2582 C 0.69321 0.66488 0.96361 0.0
C2583 C 0.6898 0.65962 0.98084 0.0
C2584 C 0.70624 0.66926 0.95656 0.0
C2585 C 0.71612 0.66848 0.96658 0.0
C2586 C 0.71276 0.66323 0.98379 0.0
H2587 H 0.80199 0.69596 0.94147 0.0
H2588 H 0.78042 0.68901 0.95742 0.0
C2589 C 0.69967 0.65874 0.99082 0.0
C2590 C 0.73007 0.67364 0.95913 0.0
H2591 H 0.7528 0.66356 0.94743 0.0
C2592 C 0.73789 0.68766 0.95363 0.0
C2593 C 0.73549 0.66482 0.95694 0.0
C2594 C 0.72733 0.64952 0.9619 0.0
C2595 C 0.75097 0.69307 0.94589 0.0
C2596 C 0.75629 0.68421 0.94355 0.0
C2597 C 0.74864 0.6703 0.94936 0.0
C2598 C 0.76947 0.68898 0.93419 0.0
C2599 C 0.75901 0.7082 0.94023 0.0
C2600 C 0.77035 0.69122 0.91592 0.0
C2601 C 0.78257 0.69511 0.90681 0.0
C2602 C 0.79413 0.69687 0.91585 0.0
C2603 C 0.79328 0.69481 0.93422 0.0
C2604 C 0.78099 0.69078 0.94331 0.0
H2605 H 0.75484 0.71441 0.94626 0.0
H2606 H 0.77009 0.7133 0.94392 0.0
H2607 H 0.7584 0.70851 0.9256 0.0
H2608 H 0.7615 0.68974 0.90866 0.0
H2609 H 0.78298 0.69673 0.89267 0.0
H2610 H 0.96464 0.68031 0.01549 0.0
H2611 H 0.95022 0.68649 0.99908 0.0
H2612 H 0.94483 0.65688 0.9573 0.0
H2613 H 0.95929 0.65068 0.97349 0.0
H2614 H 0.95317 0.68414 0.94563 0.0
H2615 H 0.90789 0.66286 0.99085 0.0
H2616 H 0.92442 0.67436 0.00116 0.0
H2617 H 0.92048 0.65768 0.99179 0.0
C2618 C 0.96028 0.675 0.00289 0.0
C2619 C 0.96311 0.66499 0.99581 0.0
C2620 C 0.952 0.67852 0.99358 0.0
C2621 C 0.94638 0.67205 0.97707 0.0
C2622 C 0.94906 0.66195 0.97006 0.0
H2623 H 0.88374 0.67318 0.91471 0.0
H2624 H 0.8976 0.66686 0.93213 0.0
C2625 C 0.9573 0.65841 0.97935 0.0
C2626 C 0.93818 0.6762 0.96671 0.0
H2627 H 0.9082 0.67629 0.96687 0.0
C2628 C 0.94333 0.68243 0.95025 0.0
C2629 C 0.92532 0.67384 0.97274 0.0
C2630 C 0.9191 0.66672 0.99003 0.0
C2631 C 0.93598 0.68645 0.93967 0.0
C2632 C 0.92324 0.68432 0.94585 0.0
C2633 C 0.91803 0.678 0.96225 0.0
C2634 C 0.91497 0.68826 0.93527 0.0
C2635 C 0.94178 0.69269 0.92184 0.0
C2636 C 0.92014 0.7024 0.93138 0.0
C2637 C 0.91229 0.70604 0.92132 0.0
C2638 C 0.89911 0.69559 0.91503 0.0
C2639 C 0.89394 0.68145 0.9191 0.0
C2640 C 0.90179 0.67783 0.92917 0.0
H2641 H 0.94992 0.69062 0.91735 0.0
H2642 H 0.93348 0.68837 0.91166 0.0
H2643 H 0.94648 0.70427 0.92277 0.0
H2644 H 0.93022 0.71063 0.93618 0.0
H2645 H 0.91659 0.71702 0.91833 0.0
H2646 H 0.323 0.31753 0.97801 0.0
H2647 H 0.31633 0.29499 0.96357 0.0
H2648 H 0.35038 0.29554 0.98895 0.0
H2649 H 0.35702 0.31802 0.00377 0.0
H2650 H 0.33153 0.28929 0.94039 0.0
H2651 H 0.31782 0.25626 -0.00022 0.0
H2652 H 0.32006 0.27352 0.00053 0.0
H2653 H 0.33489 0.27174 0.00056 0.0
C2654 C 0.32904 0.31283 0.98064 0.0
C2655 C 0.34053 0.31955 0.99208 0.0
C2656 C 0.3252 0.29995 0.97236 0.0
C2657 C 0.33274 0.29351 0.97537 0.0
C2658 C 0.34424 0.30018 0.98675 0.0
H2659 H 0.33334 0.22951 0.90883 0.0
H2660 H 0.33869 0.25115 0.92477 0.0
C2661 C 0.34807 0.31307 0.99512 0.0
C2662 C 0.32887 0.28011 0.96598 0.0
H2663 H 0.31909 0.24592 0.97238 0.0
C2664 C 0.32876 0.27978 0.94738 0.0
C2665 C 0.32508 0.26769 0.97514 0.0
C2666 C 0.32432 0.26723 0.9951 0.0
C2667 C 0.32518 0.26743 0.93767 0.0
C2668 C 0.32188 0.25516 0.94682 0.0
C2669 C 0.32175 0.2554 0.96542 0.0
C2670 C 0.31864 0.242 0.93731 0.0
C2671 C 0.32479 0.26758 0.9177 0.0
C2672 C 0.30569 0.22961 0.93942 0.0
C2673 C 0.30265 0.21716 0.93048 0.0
C2674 C 0.31255 0.21689 0.91938 0.0
C2675 C 0.32553 0.22933 0.91741 0.0
C2676 C 0.32856 0.24175 0.92635 0.0
H2677 H 0.32387 0.27641 0.91303 0.0
H2678 H 0.33452 0.26894 0.91225 0.0
H2679 H 0.316 0.25752 0.91224 0.0
H2680 H 0.29793 0.22959 0.94793 0.0
H2681 H 0.29262 0.20771 0.93246 0.0
H2682 H 0.68372 0.01224 0.97306 0.0
H2683 H 0.70587 0.02809 0.95896 0.0
H2684 H 0.71202 0.06204 0.99415 0.0
H2685 H 0.68992 0.04613 0.00864 0.0
H2686 H 0.71358 0.05216 0.9414 0.0
H2687 H 0.74851 0.06359 0.99854 0.0
H2688 H 0.73063 0.04935 0.99839 0.0
H2689 H 0.73506 0.06716 0.00289 0.0
C2690 C 0.6898 0.02305 0.97791 0.0
C2691 C 0.68507 0.02792 0.99202 0.0
C2692 C 0.70246 0.0321 0.96981 0.0
C2693 C 0.71066 0.04618 0.97565 0.0
C2694 C 0.70598 0.05112 0.98969 0.0
H2695 H 0.77667 0.11328 0.91505 0.0
H2696 H 0.75526 0.09759 0.93085 0.0
C2697 C 0.69332 0.04204 0.99788 0.0
C2698 C 0.72384 0.05575 0.96651 0.0
H2699 H 0.7587 0.07708 0.9728 0.0
C2700 C 0.72345 0.05759 0.94825 0.0
C2701 C 0.73671 0.06266 0.97545 0.0
C2702 C 0.73783 0.06052 0.99486 0.0
C2703 C 0.73558 0.06628 0.93871 0.0
C2704 C 0.74839 0.07354 0.94775 0.0
C2705 C 0.74882 0.07158 0.96596 0.0
C2706 C 0.76148 0.08317 0.9385 0.0
C2707 C 0.73457 0.06741 0.91897 0.0
C2708 C 0.77221 0.08045 0.93796 0.0
C2709 C 0.78455 0.0895 0.92913 0.0
C2710 C 0.78639 0.10148 0.92077 0.0
C2711 C 0.77564 0.10422 0.92149 0.0
C2712 C 0.76333 0.09518 0.93034 0.0
H2713 H 0.72476 0.05844 0.91343 0.0
H2714 H 0.73485 0.07728 0.91625 0.0
H2715 H 0.74338 0.06775 0.91193 0.0
H2716 H 0.771 0.07127 0.94429 0.0
H2717 H 0.7927 0.08722 0.92903 0.0
H2718 H 0.643 0.95086 0.01705 0.0
H2719 H 0.64756 0.93421 0.03125 0.0
H2720 H 0.67949 0.96817 0.06317 0.0
H2721 H 0.67491 0.9848 0.04931 0.0
H2722 H 0.67208 0.93406 0.03252 0.0
H2723 H 0.65498 0.93921 0.09992 0.0
H2724 H 0.65095 0.94545 0.08049 0.0
H2725 H 0.6677 0.95578 0.09075 0.0
C2726 C 0.65096 0.95477 0.02714 0.0
C2727 C 0.65852 0.96913 0.03215 0.0
C2728 C 0.65355 0.94525 0.03521 0.0
C2729 C 0.66369 0.94994 0.04846 0.0
C2730 C 0.67141 0.96429 0.05325 0.0
H2731 H 0.70518 0.90978 0.08857 0.0
H2732 H 0.69872 0.92459 0.07341 0.0
C2733 C 0.66881 0.97379 0.04524 0.0
C2734 C 0.66643 0.93992 0.05714 0.0
H2735 H 0.66758 0.92762 0.09756 0.0
C2736 C 0.67101 0.93255 0.04672 0.0
C2737 C 0.66483 0.93786 0.07562 0.0
C2738 C 0.65921 0.94488 0.08734 0.0
C2739 C 0.67441 0.92345 0.05439 0.0
C2740 C 0.67342 0.92189 0.07298 0.0
C2741 C 0.66848 0.92897 0.08332 0.0
C2742 C 0.67737 0.91292 0.08203 0.0
C2743 C 0.6789 0.91548 0.04251 0.0
C2744 C 0.66763 0.90172 0.09231 0.0
C2745 C 0.67134 0.89339 0.10121 0.0
C2746 C 0.6849 0.89612 0.10002 0.0
C2747 C 0.69468 0.90745 0.08984 0.0
C2748 C 0.69096 0.9158 0.08098 0.0
H2749 H 0.67547 0.9148 0.0286 0.0
H2750 H 0.69037 0.92107 0.04254 0.0
H2751 H 0.67474 0.90464 0.04725 0.0
H2752 H 0.65712 0.89941 0.09344 0.0
H2753 H 0.66362 0.88491 0.1092 0.0
H2754 H 0.03451 0.70279 0.99374 0.0
H2755 H 0.05112 0.72537 0.0082 0.0
H2756 H 0.03214 0.70894 0.05879 0.0
H2757 H 0.01576 0.68632 0.04459 0.0
H2758 H 0.04637 0.74363 0.02724 0.0
H2759 H 0.07252 0.72473 0.06954 0.0
H2760 H 0.06125 0.71422 0.05145 0.0
H2761 H 0.05411 0.71507 0.07255 0.0
C2762 C 0.03395 0.70396 0.00796 0.0
C2763 C 0.02388 0.69273 0.01803 0.0
C2764 C 0.04343 0.71686 0.01619 0.0
C2765 C 0.04301 0.71874 0.03461 0.0
C2766 C 0.03288 0.7076 0.04463 0.0
H2767 H 0.08378 0.7878 0.1107 0.0
H2768 H 0.06758 0.7661 0.09418 0.0
C2769 C 0.02347 0.6947 0.03646 0.0
C2770 C 0.05286 0.73248 0.04333 0.0
H2771 H 0.07682 0.7477 0.07653 0.0
C2772 C 0.05312 0.74455 0.03791 0.0
C2773 C 0.06169 0.73365 0.05721 0.0
C2774 C 0.06251 0.72125 0.06292 0.0
C2775 C 0.06171 0.7577 0.04635 0.0
C2776 C 0.07024 0.75876 0.06048 0.0
C2777 C 0.07013 0.74676 0.06577 0.0
C2778 C 0.07948 0.77227 0.06993 0.0
C2779 C 0.06144 0.77034 0.04039 0.0
C2780 C 0.09144 0.78288 0.06166 0.0
C2781 C 0.10071 0.79523 0.07105 0.0
C2782 C 0.09812 0.79718 0.08884 0.0
C2783 C 0.08595 0.78665 0.09695 0.0
C2784 C 0.07674 0.77424 0.08758 0.0
H2785 H 0.05276 0.76736 0.03112 0.0
H2786 H 0.06053 0.77614 0.052 0.0
H2787 H 0.07129 0.77764 0.03356 0.0
H2788 H 0.09375 0.78145 0.04807 0.0
H2789 H 0.10997 0.80321 0.06446 0.0
H2790 H 0.28746 0.32573 0.99758 0.0
H2791 H 0.26556 0.3179 0.01291 0.0
H2792 H 0.28699 0.35065 0.05282 0.0
H2793 H 0.30896 0.35858 0.03763 0.0
H2794 H 0.2604 0.30891 0.04933 0.0
H2795 H 0.25352 0.3538 0.03765 0.0
H2796 H 0.26468 0.35031 0.02413 0.0
H2797 H 0.27031 0.35859 0.04564 0.0
C2798 C 0.28751 0.33139 0.0095 0.0
C2799 C 0.29995 0.34277 0.01641 0.0
C2800 C 0.27499 0.32688 0.01824 0.0
C2801 C 0.27469 0.33377 0.03388 0.0
C2802 C 0.28702 0.34532 0.04061 0.0
H2803 H 0.21726 0.30823 0.12035 0.0
H2804 H 0.23686 0.31489 0.10044 0.0
C2805 C 0.29955 0.34979 0.03196 0.0
C2806 C 0.26162 0.32836 0.04381 0.0
H2807 H 0.23877 0.33728 0.05908 0.0
C2808 C 0.25559 0.31504 0.05136 0.0
C2809 C 0.25537 0.33638 0.04627 0.0
C2810 C 0.2612 0.35052 0.03789 0.0
C2811 C 0.24364 0.3097 0.06181 0.0
C2812 C 0.23768 0.31793 0.06481 0.0
C2813 C 0.24346 0.33106 0.05681 0.0
C2814 C 0.22566 0.31328 0.07664 0.0
C2815 C 0.2375 0.29531 0.06963 0.0
C2816 C 0.21295 0.31026 0.06981 0.0
C2817 C 0.20175 0.30644 0.08113 0.0
C2818 C 0.20317 0.30578 0.09949 0.0
C2819 C 0.21591 0.30873 0.10627 0.0
C2820 C 0.22706 0.31244 0.09492 0.0
H2821 H 0.24143 0.2891 0.06297 0.0
H2822 H 0.24027 0.29653 0.08389 0.0
H2823 H 0.22603 0.2893 0.06862 0.0
H2824 H 0.21174 0.31095 0.05573 0.0
H2825 H 0.19211 0.3044 0.07558 0.0
H2826 H 0.70504 0.68995 0.3772 0.0
H2827 H 0.71972 0.68374 0.39284 0.0
H2828 H 0.71388 0.65424 0.35065 0.0
H2829 H 0.69931 0.6605 0.33478 0.0
H2830 H 0.71197 0.65708 0.40458 0.0
H2831 H 0.75601 0.67732 0.35751 0.0
H2832 H 0.74331 0.68235 0.35678 0.0
H2833 H 0.73933 0.66556 0.34773 0.0
C2834 C 0.70698 0.68224 0.37115 0.0
C2835 C 0.70102 0.67573 0.35472 0.0
C2836 C 0.71535 0.67869 0.38012 0.0
C2837 C 0.71799 0.66864 0.37281 0.0
C2838 C 0.71217 0.66221 0.35636 0.0
H2839 H 0.74847 0.62398 0.43112 0.0
H2840 H 0.73453 0.63013 0.41352 0.0
C2841 C 0.7038 0.66576 0.34735 0.0
C2842 C 0.72635 0.66449 0.38281 0.0
H2843 H 0.75599 0.66377 0.3812 0.0
C2844 C 0.72161 0.65855 0.3995 0.0
C2845 C 0.73895 0.66653 0.37616 0.0
C2846 C 0.74481 0.6734 0.35863 0.0
C2847 C 0.72912 0.65452 0.40972 0.0
C2848 C 0.74157 0.65629 0.40292 0.0
C2849 C 0.74636 0.66231 0.38628 0.0
C2850 C 0.75004 0.65242 0.41317 0.0
C2851 C 0.72381 0.64869 0.42787 0.0
C2852 C 0.76349 0.66285 0.41839 0.0
C2853 C 0.7715 0.65936 0.42828 0.0
C2854 C 0.76624 0.64534 0.43308 0.0
C2855 C 0.75283 0.63486 0.42758 0.0
C2856 C 0.74481 0.63837 0.41768 0.0
H2857 H 0.71598 0.65108 0.43275 0.0
H2858 H 0.71887 0.63706 0.42723 0.0
H2859 H 0.73242 0.65303 0.43761 0.0
H2860 H 0.76774 0.67374 0.41493 0.0
H2861 H 0.78189 0.66764 0.43203 0.0
H2862 H 0.3074 0.02306 0.35085 0.0
H2863 H 0.31632 0.04645 0.36443 0.0
H2864 H 0.34803 0.04353 0.39104 0.0
H2865 H 0.33912 0.02011 0.37773 0.0
H2866 H 0.33402 0.05209 0.41326 0.0
H2867 H 0.35189 0.08361 0.35229 0.0
H2868 H 0.3342 0.0692 0.35143 0.0
H2869 H 0.34788 0.06567 0.35283 0.0
C2870 C 0.31631 0.02742 0.35951 0.0
C2871 C 0.32255 0.01973 0.36319 0.0
C2872 C 0.32144 0.04082 0.36717 0.0
C2873 C 0.33294 0.04678 0.37852 0.0
C2874 C 0.33918 0.03913 0.38223 0.0
H2875 H 0.37887 0.13378 0.41871 0.0
H2876 H 0.37233 0.11104 0.40459 0.0
C2877 C 0.33407 0.02575 0.3746 0.0
C2878 C 0.33814 0.06075 0.38716 0.0
H2879 H 0.35136 0.09546 0.37874 0.0
C2880 C 0.33788 0.06159 0.40573 0.0
C2881 C 0.34334 0.07313 0.37729 0.0
C2882 C 0.34449 0.07294 0.35736 0.0
C2883 C 0.34237 0.07446 0.4147 0.0
C2884 C 0.34705 0.08674 0.40481 0.0
C2885 C 0.34765 0.08598 0.38626 0.0
C2886 C 0.35107 0.10042 0.41347 0.0
C2887 C 0.34214 0.07482 0.4347 0.0
C2888 C 0.34123 0.10195 0.42297 0.0
C2889 C 0.34494 0.11486 0.43107 0.0
C2890 C 0.35853 0.12651 0.42973 0.0
C2891 C 0.36836 0.12495 0.42013 0.0
C2892 C 0.36463 0.11202 0.41199 0.0
H2893 H 0.34181 0.06553 0.44025 0.0
H2894 H 0.35136 0.08455 0.44011 0.0
H2895 H 0.33277 0.07472 0.43929 0.0
H2896 H 0.33066 0.09317 0.42405 0.0
H2897 H 0.33717 0.11568 0.43853 0.0
H2898 H 0.98218 0.29337 0.34847 0.0
H2899 H 0.9597 0.27806 0.36237 0.0
H2900 H 0.96386 0.31372 0.39194 0.0
H2901 H 0.98641 0.32908 0.3783 0.0
H2902 H 0.95591 0.29035 0.4126 0.0
H2903 H 0.92309 0.27571 0.35248 0.0
H2904 H 0.93708 0.27267 0.35035 0.0
H2905 H 0.94079 0.29037 0.35321 0.0
C2906 C 0.97829 0.29797 0.35786 0.0
C2907 C 0.98607 0.31245 0.36225 0.0
C2908 C 0.96541 0.28922 0.36571 0.0
C2909 C 0.96005 0.29481 0.37798 0.0
C2910 C 0.9678 0.30923 0.38242 0.0
H2911 H 0.87587 0.25113 0.41918 0.0
H2912 H 0.89796 0.26813 0.40544 0.0
C2913 C 0.98068 0.31799 0.3746 0.0
C2914 C 0.94659 0.28553 0.38668 0.0
H2915 H 0.91219 0.2628 0.37845 0.0
C2916 C 0.94633 0.28438 0.40516 0.0
C2917 C 0.93411 0.27791 0.37694 0.0
C2918 C 0.9337 0.27929 0.35716 0.0
C2919 C 0.93394 0.27552 0.41415 0.0
C2920 C 0.92156 0.26749 0.40433 0.0
C2921 C 0.92175 0.2689 0.3859 0.0
C2922 C 0.90831 0.25738 0.41292 0.0
C2923 C 0.9342 0.27492 0.43407 0.0
C2924 C 0.90683 0.2457 0.42154 0.0
C2925 C 0.89429 0.23603 0.42944 0.0
C2926 C 0.88295 0.23784 0.42879 0.0
C2927 C 0.88446 0.24955 0.42009 0.0
C2928 C 0.89703 0.25921 0.41215 0.0
H2929 H 0.94357 0.28429 0.43988 0.0
H2930 H 0.92489 0.27422 0.44006 0.0
H2931 H 0.93429 0.26541 0.43774 0.0
H2932 H 0.91537 0.244 0.42204 0.0
H2933 H 0.89349 0.22719 0.43618 0.0
H2934 H -0.00084 0.35765 0.29887 0.0
H2935 H 0.99756 0.3759 0.28401 0.0
H2936 H 0.03105 0.40791 0.31616 0.0
H2937 H 0.03261 0.38969 0.33133 0.0
H2938 H 0.00876 0.41153 0.31411 0.0
H2939 H 0.02429 0.40308 0.24723 0.0
H2940 H 0.01018 0.38731 0.25645 0.0
H2941 H 0.0269 0.39592 0.26691 0.0
C2942 C 0.00623 0.36857 0.30276 0.0
C2943 C 0.01605 0.37223 0.31624 0.0
C2944 C 0.00535 0.37899 0.29417 0.0
C2945 C 0.01434 0.39325 0.29878 0.0
C2946 C 0.02407 0.39695 0.31234 0.0
H2947 H 0.02363 0.4624 0.2368 0.0
H2948 H 0.02778 0.44623 0.25288 0.0
C2949 C 0.02495 0.38653 0.32098 0.0
C2950 C 0.0133 0.40426 0.28975 0.0
H2951 H 0.01441 0.41736 0.24904 0.0
C2952 C 0.01009 0.41289 0.2999 0.0
C2953 C 0.01524 0.40613 0.27126 0.0
C2954 C 0.01948 0.39772 0.25983 0.0
C2955 C 0.00836 0.42308 0.29196 0.0
C2956 C 0.00966 0.42449 0.27336 0.0
C2957 C 0.01327 0.41614 0.26328 0.0
C2958 C 0.0072 0.43447 0.26404 0.0
C2959 C 0.00528 0.43232 0.30357 0.0
C2960 C 0.99422 0.43311 0.26487 0.0
C2961 C 0.99184 0.44239 0.25582 0.0
C2962 C 0.00239 0.45314 0.24566 0.0
C2963 C 0.01536 0.45438 0.24473 0.0
C2964 C 0.01772 0.4451 0.25381 0.0
H2965 H 0.00846 0.43268 0.31753 0.0
H2966 H 0.01063 0.44325 0.29866 0.0
H2967 H 0.99398 0.428 0.30345 0.0
H2968 H 0.98588 0.4248 0.27241 0.0
H2969 H 0.98178 0.44122 0.25692 0.0
H2970 H 0.64905 0.65266 0.30712 0.0
H2971 H 0.6323 0.62983 0.29354 0.0
H2972 H 0.61084 0.61615 0.34337 0.0
H2973 H 0.62757 0.639 0.35717 0.0
H2974 H 0.62536 0.60166 0.30631 0.0
H2975 H 0.58102 0.60976 0.30509 0.0
H2976 H 0.59875 0.62428 0.30678 0.0
H2977 H 0.59036 0.61357 0.32561 0.0
C2978 C 0.64075 0.64483 0.31522 0.0
C2979 C 0.63961 0.64766 0.33323 0.0
C2980 C 0.63123 0.63179 0.30743 0.0
C2981 C 0.62033 0.6214 0.31745 0.0
C2982 C 0.61914 0.62412 0.33542 0.0
H2983 H 0.54994 0.53992 0.28373 0.0
H2984 H 0.5666 0.56067 0.30133 0.0
C2985 C 0.62872 0.63716 0.34327 0.0
C2986 C 0.61028 0.60769 0.30901 0.0
H2987 H 0.57703 0.58801 0.29403 0.0
C2988 C 0.61477 0.59861 0.30366 0.0
C2989 C 0.59649 0.60379 0.30571 0.0
C2990 C 0.5913 0.61335 0.31097 0.0
C2991 C 0.60579 0.58566 0.29503 0.0
C2992 C 0.59208 0.58191 0.29126 0.0
C2993 C 0.58754 0.59091 0.29691 0.0
C2994 C 0.58238 0.56893 0.281 0.0
C2995 C 0.61104 0.57607 0.29022 0.0
C2996 C 0.58571 0.56672 0.26373 0.0
C2997 C 0.57625 0.55486 0.2537 0.0
C2998 C 0.56319 0.54511 0.26067 0.0
C2999 C 0.55989 0.54732 0.27799 0.0
C3000 C 0.5694 0.55913 0.28805 0.0
H3001 H 0.6199 0.57829 0.29874 0.0
H3002 H 0.60276 0.56482 0.29147 0.0
H3003 H 0.61468 0.57783 0.27629 0.0
H3004 H 0.59551 0.57434 0.25783 0.0
H3005 H 0.57897 0.55355 0.24029 0.0
H3006 H 0.35586 0.00661 0.30171 0.0
H3007 H 0.37585 0.00792 0.28727 0.0
H3008 H 0.36929 0.97242 0.31691 0.0
H3009 H 0.34937 0.97115 0.33167 0.0
H3010 H 0.39662 0.99443 0.31684 0.0
H3011 H 0.37519 0.98126 0.24863 0.0
H3012 H 0.37477 0.99575 0.25885 0.0
H3013 H 0.36458 0.97846 0.26794 0.0
C3014 C 0.35862 0.99904 0.30513 0.0
C3015 C 0.35099 0.98873 0.31779 0.0
C3016 C 0.37001 -0.00024 0.29679 0.0
C3017 C 0.37389 0.99011 0.30081 0.0
C3018 C 0.36639 0.9799 0.31355 0.0
H3019 H 0.43263 0.97892 0.23879 0.0
H3020 H 0.41212 0.97531 0.25457 0.0
C3021 C 0.35502 0.97919 0.32195 0.0
C3022 C 0.38601 0.99093 0.29204 0.0
H3023 H 0.39931 0.99022 0.25151 0.0
C3024 C 0.39719 0.99342 0.30256 0.0
C3025 C 0.38662 0.98941 0.27344 0.0
C3026 C 0.3746 0.98593 0.26156 0.0
C3027 C 0.40916 0.99479 0.29494 0.0
C3028 C 0.41001 0.9939 0.27629 0.0
C3029 C 0.39868 0.99105 0.2658 0.0
C3030 C 0.42259 0.99597 0.26733 0.0
C3031 C 0.42071 0.99705 0.30693 0.0
C3032 C 0.43524 0.00881 0.26921 0.0
C3033 C 0.447 0.01087 0.26035 0.0
C3034 C 0.4463 0.00015 0.24932 0.0
C3035 C 0.43358 0.98731 0.24741 0.0
C3036 C 0.42183 0.98526 0.25631 0.0
H3037 H 0.41695 0.99353 0.32059 0.0
H3038 H 0.42561 0.9913 0.30173 0.0
H3039 H 0.42873 0.00845 0.30769 0.0
H3040 H 0.43598 0.01731 0.27738 0.0
H3041 H 0.45666 0.02084 0.2622 0.0
H3042 H 0.62502 0.98316 0.33571 0.0
H3043 H 0.60752 0.98657 0.32233 0.0
H3044 H 0.62025 0.98097 0.27025 0.0
H3045 H 0.6379 0.97781 0.28344 0.0
H3046 H 0.61791 0.00415 0.27294 0.0
H3047 H 0.5709 0.95714 0.29928 0.0
H3048 H 0.5832 0.96835 0.31596 0.0
H3049 H 0.58777 0.95927 0.29992 0.0
C3050 C 0.62403 0.98256 0.32141 0.0
C3051 C 0.63284 0.98019 0.31064 0.0
C3052 C 0.61397 0.98444 0.3138 0.0
C3053 C 0.61247 0.98384 0.29531 0.0
C3054 C 0.62122 0.98143 0.28455 0.0
H3055 H 0.54555 0.97724 0.23368 0.0
H3056 H 0.56224 0.97336 0.24853 0.0
C3057 C 0.63129 0.97961 0.29213 0.0
C3058 C 0.60216 0.98624 0.28705 0.0
H3059 H 0.56757 0.97358 0.28435 0.0
C3060 C 0.6069 0.99747 0.27541 0.0
C3061 C 0.5878 0.9774 0.29017 0.0
C3062 C 0.58207 0.96478 0.30188 0.0
C3063 C 0.59767 0.00015 0.26685 0.0
C3064 C 0.58334 0.99153 0.27032 0.0
C3065 C 0.57858 0.98025 0.28186 0.0
C3066 C 0.57309 0.99385 0.26172 0.0
C3067 C 0.60332 0.01197 0.25387 0.0
C3068 C 0.57355 0.00658 0.26442 0.0
C3069 C 0.56404 0.00883 0.25594 0.0
C3070 C 0.55382 0.99833 0.24475 0.0
C3071 C 0.55323 0.98548 0.24234 0.0
C3072 C 0.56277 0.98327 0.25077 0.0
H3073 H 0.61389 0.01512 0.24932 0.0
H3074 H 0.59648 0.00891 0.24209 0.0
H3075 H 0.60392 0.02131 0.26039 0.0
H3076 H 0.58123 0.01477 0.27314 0.0
H3077 H 0.5646 0.01874 0.2583 0.0
H3078 H 0.03343 0.65862 0.34226 0.0
H3079 H 0.03086 0.63803 0.3261 0.0
H3080 H 0.99743 0.63478 0.29561 0.0
H3081 H 6e-05 0.65543 0.31141 0.0
H3082 H 0.00833 0.6107 0.32302 0.0
H3083 H 0.02347 0.63557 0.25737 0.0
H3084 H 0.02637 0.64562 0.27773 0.0
H3085 H 0.00956 0.63646 0.26746 0.0
C3086 C 0.02554 0.65353 0.33211 0.0
C3087 C 0.01703 0.65873 0.32802 0.0
C3088 C 0.02408 0.64177 0.3229 0.0
C3089 C 0.01413 0.63506 0.30945 0.0
C3090 C 0.0054 0.64002 0.30565 0.0
H3091 H 0.98095 0.55173 0.26252 0.0
H3092 H 0.98503 0.5725 0.27963 0.0
C3093 C 0.00687 0.65178 0.31478 0.0
C3094 C 0.01275 0.62279 0.29944 0.0
H3095 H 0.01329 0.61068 0.25762 0.0
C3096 C 0.0095 0.61071 0.30874 0.0
C3097 C 0.01449 0.62292 0.28084 0.0
C3098 C 0.0188 0.63588 0.27027 0.0
C3099 C 0.00757 0.59859 0.29985 0.0
C3100 C 0.00869 0.5985 0.28116 0.0
C3101 C 0.01229 0.61071 0.27193 0.0
C3102 C 0.0062 0.58588 0.27088 0.0
C3103 C 0.00454 0.58606 0.31058 0.0
C3104 C 0.0166 0.58664 0.25987 0.0
C3105 C 0.01422 0.57487 0.24984 0.0
C3106 C 0.00137 0.5621 0.25059 0.0
C3107 C 0.99093 0.56142 0.26153 0.0
C3108 C 0.9933 0.57322 0.27151 0.0
H3109 H 0.0079 0.58915 0.32458 0.0
H3110 H 0.99322 0.57833 0.31054 0.0
H3111 H 0.00975 0.58077 0.30486 0.0
H3112 H 0.02658 0.59636 0.25906 0.0
H3113 H 0.02241 0.57583 0.24133 0.0
H3114 H 0.3556 0.35452 0.3197 0.0
H3115 H 0.37719 0.37106 0.30482 0.0
H3116 H 0.35757 0.39108 0.28165 0.0
H3117 H 0.33588 0.37461 0.29657 0.0
H3118 H 0.38129 0.37548 0.2673 0.0
H3119 H 0.39315 0.4239 0.30562 0.0
H3120 H 0.38096 0.4064 0.31327 0.0
H3121 H 0.37612 0.41379 0.29607 0.0
C3122 C 0.35586 0.36247 0.31151 0.0
C3123 C 0.34402 0.36328 0.30937 0.0
C3124 C 0.3682 0.37189 0.303 0.0
C3125 C 0.36898 0.38235 0.29231 0.0
C3126 C 0.3572 0.38319 0.29007 0.0
H3127 H 0.43682 0.44941 0.23324 0.0
H3128 H 0.41433 0.43299 0.24645 0.0
C3129 C 0.34482 0.37374 0.29855 0.0
C3130 C 0.38208 0.39218 0.28325 0.0
H3131 H 0.40807 0.42674 0.28185 0.0
C3132 C 0.38717 0.38669 0.27046 0.0
C3133 C 0.38964 0.40678 0.2874 0.0
C3134 C 0.38479 0.41312 0.30143 0.0
C3135 C 0.39963 0.39547 0.26157 0.0
C3136 C 0.40732 0.41005 0.26591 0.0
C3137 C 0.40214 0.41555 0.27858 0.0
C3138 C 0.42086 0.41976 0.25763 0.0
C3139 C 0.40435 0.38908 0.24744 0.0
C3140 C 0.43199 0.41782 0.2597 0.0
C3141 C 0.44484 0.42718 0.25218 0.0
C3142 C 0.44681 0.43873 0.24263 0.0
C3143 C 0.43565 0.44068 0.24067 0.0
C3144 C 0.42279 0.43129 0.24814 0.0
H3145 H 0.39563 0.37882 0.24231 0.0
H3146 H 0.4092 0.39628 0.23617 0.0
H3147 H 0.41214 0.38716 0.25317 0.0
H3148 H 0.4308 0.40918 0.26734 0.0
H3149 H 0.45331 0.42553 0.25416 0.0
H3150 H 0.31802 0.29311 0.35201 0.0
H3151 H 0.32484 0.27776 0.36496 0.0
H3152 H 0.34652 0.30865 0.40677 0.0
H3153 H 0.33977 0.32406 0.394 0.0
H3154 H 0.3532 0.28526 0.37197 0.0
H3155 H 0.32059 0.27094 0.43254 0.0
H3156 H 0.31721 0.27786 0.41322 0.0
H3157 H 0.33093 0.28946 0.42817 0.0
C3158 C 0.32417 0.29661 0.36402 0.0
C3159 C 0.32833 0.30979 0.37201 0.0
C3160 C 0.32807 0.28784 0.37136 0.0
C3161 C 0.33605 0.29204 0.38688 0.0
C3162 C 0.34019 0.30516 0.39491 0.0
H3163 H 0.36882 0.25428 0.45337 0.0
H3164 H 0.36281 0.26999 0.43974 0.0
C3165 C 0.33637 0.31396 0.38755 0.0
C3166 C 0.34038 0.28289 0.39446 0.0
H3167 H 0.3368 0.26375 0.4308 0.0
C3168 C 0.34959 0.28048 0.38479 0.0
C3169 C 0.33568 0.2768 0.41122 0.0
C3170 C 0.32547 0.27877 0.42189 0.0
C3171 C 0.35444 0.27229 0.3916 0.0
C3172 C 0.34969 0.26612 0.40835 0.0
C3173 C 0.34045 0.26853 0.41799 0.0
C3174 C 0.35401 0.25697 0.41606 0.0
C3175 C 0.36485 0.2706 0.381 0.0
C3176 C 0.35105 0.24445 0.40725 0.0
C3177 C 0.35461 0.23554 0.4149 0.0
C3178 C 0.36105 0.23889 0.43162 0.0
C3179 C 0.36406 0.25149 0.44037 0.0
C3180 C 0.36054 0.26042 0.43267 0.0
H3181 H 0.37031 0.27907 0.37121 0.0
H3182 H 0.37266 0.27069 0.38978 0.0
H3183 H 0.35941 0.26036 0.37359 0.0
H3184 H 0.34578 0.24145 0.39458 0.0
H3185 H 0.35225 0.22598 0.40775 0.0
H3186 H 0.69291 0.01299 0.37779 0.0
H3187 H 0.70974 0.03598 0.39091 0.0
H3188 H 0.70541 0.05651 0.34609 0.0
H3189 H 0.68841 0.03355 0.33293 0.0
H3190 H 0.73495 0.0572 0.37725 0.0
H3191 H 0.69866 0.07578 0.3888 0.0
H3192 H 0.6928 0.05757 0.38377 0.0
H3193 H 0.69912 0.07017 0.36639 0.0
C3194 C 0.69551 0.02238 0.37071 0.0
C3195 C 0.68925 0.02144 0.35435 0.0
C3196 C 0.70514 0.03551 0.37823 0.0
C3197 C 0.70866 0.04793 0.36959 0.0
C3198 C 0.70263 0.04705 0.35313 0.0
H3199 H 0.77981 0.1311 0.39617 0.0
H3200 H 0.76285 0.10911 0.3809 0.0
C3201 C 0.69298 0.03391 0.34559 0.0
C3202 C 0.71876 0.06178 0.3778 0.0
H3203 H 0.72236 0.09222 0.39476 0.0
C3204 C 0.73222 0.06488 0.38106 0.0
C3205 C 0.71509 0.07168 0.38293 0.0
C3206 C 0.7006 0.06864 0.38046 0.0
C3207 C 0.74215 0.07766 0.38926 0.0
C3208 C 0.73857 0.08768 0.39406 0.0
C3209 C 0.72509 0.08456 0.39089 0.0
C3210 C 0.74855 0.10127 0.40292 0.0
C3211 C 0.75629 0.08019 0.3931 0.0
C3212 C 0.74592 0.10432 0.42014 0.0
C3213 C 0.75556 0.11687 0.42889 0.0
C3214 C 0.76801 0.12662 0.42052 0.0
C3215 C 0.77044 0.12369 0.40308 0.0
C3216 C 0.76077 0.11114 0.39434 0.0
H3217 H 0.75633 0.07025 0.39244 0.0
H3218 H 0.76375 0.08739 0.38311 0.0
H3219 H 0.75998 0.08521 0.40641 0.0
H3220 H 0.73652 0.09683 0.42697 0.0
H3221 H 0.75345 0.11874 0.44238 0.0
H3222 H 0.96868 0.65261 0.37298 0.0
H3223 H 0.94572 0.64521 0.3845 0.0
H3224 H 0.95182 0.68552 0.3717 0.0
H3225 H 0.97472 0.69293 0.35976 0.0
H3226 H 0.93925 0.65687 0.41193 0.0
H3227 H 0.91395 0.65856 0.35055 0.0
H3228 H 0.93017 0.65923 0.35031 0.0
H3229 H 0.92976 0.67482 0.35565 0.0
C3230 C 0.96511 0.65988 0.37248 0.0
C3231 C 0.97351 0.67336 0.36541 0.0
C3232 C 0.95198 0.65562 0.37906 0.0
C3233 C 0.94697 0.66472 0.3787 0.0
C3234 C 0.95533 0.6782 0.3717 0.0
H3235 H 0.87755 0.66512 0.42507 0.0
H3236 H 0.89872 0.67029 0.40956 0.0
C3237 C 0.96846 0.68245 0.365 0.0
C3238 C 0.9333 0.66036 0.38653 0.0
H3239 H 0.90192 0.65615 0.37767 0.0
C3240 C 0.93104 0.65659 0.4044 0.0
C3241 C 0.92261 0.65999 0.37665 0.0
C3242 C 0.92416 0.66323 0.35718 0.0
C3243 C 0.9185 0.65278 0.41278 0.0
C3244 C 0.90792 0.65263 0.40299 0.0
C3245 C 0.9101 0.65629 0.3851 0.0
C3246 C 0.89469 0.64915 0.41134 0.0
C3247 C 0.91677 0.6493 0.43219 0.0
C3248 C 0.88533 0.63547 0.41712 0.0
C3249 C 0.87324 0.63248 0.42598 0.0
C3250 C 0.87037 0.64316 0.42924 0.0
C3251 C 0.8796 0.65674 0.42296 0.0
C3252 C 0.89163 0.65969 0.41402 0.0
H3253 H 0.92675 0.65235 0.43858 0.0
H3254 H 0.91221 0.65472 0.43938 0.0
H3255 H 0.9096 0.63778 0.43359 0.0
H3256 H 0.8875 0.62717 0.415 0.0
H3257 H 0.86635 0.62194 0.43075 0.0
H3258 H 0.37091 0.03041 0.71036 0.0
H3259 H 0.38728 0.0271 0.72686 0.0
H3260 H 0.3868 -0.00016 0.68486 0.0
H3261 H 0.37053 0.00323 0.66809 0.0
H3262 H 0.38288 0.00176 0.73873 0.0
H3263 H 0.42823 0.02743 0.69374 0.0
H3264 H 0.41383 0.02993 0.69209 0.0
H3265 H 0.41243 0.01411 0.68325 0.0
C3266 C 0.37437 0.02381 0.70452 0.0
C3267 C 0.36943 0.01709 0.68788 0.0
C3268 C 0.38372 0.02192 0.71399 0.0
C3269 C 0.38835 0.01335 0.707 0.0
C3270 C 0.38354 0.00671 0.69034 0.0
H3271 H 0.42529 0.9759 0.76671 0.0
H3272 H 0.41018 0.98024 0.74881 0.0
C3273 C 0.37419 0.00861 0.68082 0.0
C3274 C 0.3977 0.01086 0.71758 0.0
H3275 H 0.42958 0.01478 0.71763 0.0
C3276 C 0.3931 0.00463 0.73415 0.0
C3277 C 0.41108 0.01475 0.71161 0.0
C3278 C 0.41677 0.02204 0.69428 0.0
C3279 C 0.40148 0.00204 0.74487 0.0
C3280 C 0.4147 0.00558 0.7387 0.0
C3281 C 0.41938 0.01197 0.72223 0.0
C3282 C 0.42392 0.00292 0.74929 0.0
C3283 C 0.39619 0.99577 0.76283 0.0
C3284 C 0.43677 0.01421 0.75513 0.0
C3285 C 0.44549 0.01176 0.76521 0.0
C3286 C 0.44153 0.99795 0.76954 0.0
C3287 C 0.42868 0.98665 0.76351 0.0
C3288 C 0.41997 0.98912 0.75343 0.0
H3289 H 0.38749 0.99694 0.76735 0.0
H3290 H 0.39238 0.98435 0.76206 0.0
H3291 H 0.40456 0.0008 0.77291 0.0
H3292 H 0.44003 0.02493 0.75197 0.0
H3293 H 0.4554 0.02067 0.76942 0.0
H3294 H 0.99757 0.34723 0.70981 0.0
H3295 H 0.0004 0.36813 0.72517 0.0
H3296 H 0.98154 0.37563 0.6811 0.0
H3297 H 0.97855 0.35461 0.66561 0.0
H3298 H 0.015 0.39637 0.71338 0.0
H3299 H 0.95913 0.37584 0.7246 0.0
H3300 H 0.96551 0.36449 0.7186 0.0
H3301 H 0.96398 0.37487 0.70208 0.0
C3302 C 0.99399 0.35329 0.70336 0.0
C3303 C 0.98778 0.34923 0.6865 0.0
C3304 C 0.99564 0.36524 0.71216 0.0
C3305 C 0.99103 0.3733 0.70435 0.0
C3306 C 0.98495 0.36939 0.68746 0.0
H3307 H 0.99142 0.44771 0.74304 0.0
H3308 H 0.98877 0.42783 0.72509 0.0
C3309 C 0.98331 0.35743 0.67861 0.0
C3310 C 0.99279 0.38589 0.71388 0.0
H3311 H 0.97492 0.39942 0.73363 0.0
C3312 C 0.00625 0.39707 0.71781 0.0
C3313 C 0.98134 0.38674 0.71956 0.0
C3314 C 0.96666 0.37482 0.71615 0.0
C3315 C 0.00859 0.40913 0.72726 0.0
C3316 C 0.99713 0.40988 0.7332 0.0
C3317 C 0.98367 0.39878 0.72906 0.0
C3318 C 0.99888 0.42197 0.74403 0.0
C3319 C 0.02329 0.42103 0.73059 0.0
C3320 C 0.00529 0.42512 0.76071 0.0
C3321 C 0.00678 0.43643 0.77101 0.0
C3322 C 0.00178 0.44472 0.76487 0.0
C3323 C 0.99525 0.44143 0.74821 0.0
C3324 C 0.99379 0.43014 0.73791 0.0
H3325 H 0.03062 0.42052 0.72118 0.0
H3326 H 0.02428 0.43142 0.72946 0.0
H3327 H 0.02638 0.4203 0.74421 0.0
H3328 H 0.00899 0.41873 0.76585 0.0
H3329 H 0.01164 0.43854 0.7839 0.0
H3330 H 0.6446 0.62348 0.67737 0.0
H3331 H 0.6229 0.60784 0.69276 0.0
H3332 H 0.63581 0.63786 0.73645 0.0
H3333 H 0.65743 0.65365 0.72109 0.0
H3334 H 0.61841 0.59571 0.72605 0.0
H3335 H 0.59796 0.63117 0.72327 0.0
H3336 H 0.61243 0.63377 0.71003 0.0
H3337 H 0.61484 0.63913 0.73304 0.0
C3338 C 0.64284 0.62675 0.69026 0.0
C3339 C 0.6527 0.63985 0.69795 0.0
C3340 C 0.63044 0.6178 0.69903 0.0
C3341 C 0.62767 0.62182 0.71558 0.0
C3342 C 0.63763 0.63471 0.7235 0.0
H3343 H 0.55851 0.58191 0.78868 0.0
H3344 H 0.58063 0.5977 0.77414 0.0
C3345 C 0.65001 0.64368 0.71474 0.0
C3346 C 0.61438 0.61247 0.72461 0.0
H3347 H 0.58526 0.61073 0.74048 0.0
C3348 C 0.61113 0.59896 0.72916 0.0
C3349 C 0.60493 0.61677 0.72863 0.0
C3350 C 0.60762 0.63095 0.72336 0.0
C3351 C 0.59874 0.58967 0.73788 0.0
C3352 C 0.5893 0.59398 0.74189 0.0
C3353 C 0.59256 0.60751 0.7374 0.0
C3354 C 0.57588 0.58452 0.75053 0.0
C3355 C 0.59593 0.57542 0.74298 0.0
C3356 C 0.56584 0.57204 0.74188 0.0
C3357 C 0.55318 0.56306 0.75007 0.0
C3358 C 0.55033 0.56643 0.76704 0.0
C3359 C 0.56034 0.57908 0.77554 0.0
C3360 C 0.573 0.58807 0.76731 0.0
H3361 H 0.60552 0.57507 0.74286 0.0
H3362 H 0.59122 0.57262 0.75637 0.0
H3363 H 0.58855 0.56731 0.73337 0.0
H3364 H 0.56777 0.56928 0.72875 0.0
H3365 H 0.54559 0.55354 0.74303 0.0
H3366 H 0.69005 0.71414 0.6625 0.0
H3367 H 0.68328 0.72945 0.64928 0.0
H3368 H 0.64563 0.69293 0.62972 0.0
H3369 H 0.65226 0.67754 0.64286 0.0
H3370 H 0.6768 0.72964 0.6121 0.0
H3371 H 0.63308 0.71727 0.65749 0.0
H3372 H 0.64645 0.71384 0.66294 0.0
H3373 H 0.63292 0.7023 0.64773 0.0
C3374 C 0.68031 0.70936 0.65543 0.0
C3375 C 0.67167 0.69463 0.65376 0.0
C3376 C 0.67647 0.71812 0.64789 0.0
C3377 C 0.6639 0.71228 0.63873 0.0
C3378 C 0.65529 0.6976 0.63697 0.0
H3379 H 0.63687 0.75205 0.56617 0.0
H3380 H 0.64277 0.73642 0.58046 0.0
C3381 C 0.65913 0.68884 0.64442 0.0
C3382 C 0.65991 0.72154 0.63064 0.0
H3383 H 0.63586 0.73105 0.63261 0.0
C3384 C 0.66787 0.72999 0.61658 0.0
C3385 C 0.64832 0.722 0.63666 0.0
C3386 C 0.63973 0.71347 0.65213 0.0
C3387 C 0.66441 0.73877 0.60816 0.0
C3388 C 0.65264 0.73899 0.61391 0.0
C3389 C 0.6448 0.73072 0.62816 0.0
C3390 C 0.64849 0.74801 0.6055 0.0
C3391 C 0.67344 0.74787 0.59331 0.0
C3392 C 0.64943 0.75944 0.61504 0.0
C3393 C 0.64605 0.76834 0.60695 0.0
C3394 C 0.64153 0.76586 0.58923 0.0
C3395 C 0.64023 0.75416 0.57987 0.0
C3396 C 0.6437 0.74531 0.58795 0.0
H3397 H 0.68355 0.74856 0.59284 0.0
H3398 H 0.66808 0.74331 0.58047 0.0
H3399 H 0.67534 0.75869 0.59477 0.0
H3400 H 0.65303 0.76161 0.62865 0.0
H3401 H 0.64698 0.77718 0.61455 0.0
H3402 H 0.30551 0.98984 0.64351 0.0
H3403 H 0.28853 0.96658 0.63124 0.0
H3404 H 0.29404 0.94705 0.67625 0.0
H3405 H 0.31118 0.97031 0.68861 0.0
H3406 H 0.29481 0.93499 0.6432 0.0
H3407 H 0.24884 0.93999 0.6491 0.0
H3408 H 0.2632 0.95425 0.63782 0.0
H3409 H 0.2648 0.95162 0.66084 0.0
C3410 C 0.30308 0.98062 0.65086 0.0
C3411 C 0.30967 0.98193 0.66708 0.0
C3412 C 0.29332 0.96733 0.64386 0.0
C3413 C 0.28991 0.95513 0.65297 0.0
C3414 C 0.2965 0.95637 0.66909 0.0
H3415 H 0.21982 0.87157 0.62589 0.0
H3416 H 0.23684 0.89323 0.64168 0.0
C3417 C 0.30626 0.96966 0.67613 0.0
C3418 C 0.27971 0.94106 0.64539 0.0
H3419 H 0.24617 0.92061 0.63165 0.0
C3420 C 0.28414 0.93179 0.64077 0.0
C3421 C 0.26579 0.93687 0.64246 0.0
C3422 C 0.2603 0.94614 0.64796 0.0
C3423 C 0.27508 0.91855 0.63282 0.0
C3424 C 0.2613 0.91461 0.62922 0.0
C3425 C 0.25678 0.92372 0.63429 0.0
C3426 C 0.25142 0.90116 0.61996 0.0
C3427 C 0.28029 0.90887 0.62843 0.0
C3428 C 0.25399 0.89847 0.60252 0.0
C3429 C 0.24427 0.88614 0.59344 0.0
C3430 C 0.23176 0.87632 0.60161 0.0
C3431 C 0.22929 0.879 0.61916 0.0
C3432 C 0.23902 0.89132 0.62823 0.0
H3433 H 0.28969 0.91175 0.63623 0.0
H3434 H 0.27222 0.89773 0.63099 0.0
H3435 H 0.28304 0.9097 0.61417 0.0
H3436 H 0.26336 0.90608 0.59577 0.0
H3437 H 0.24637 0.88451 0.57984 0.0
H3438 H 0.02856 0.31467 0.66472 0.0
H3439 H 0.05178 0.32184 0.65418 0.0
H3440 H 0.0519 0.35283 0.62119 0.0
H3441 H 0.02883 0.3459 0.63177 0.0
H3442 H 0.05996 0.32104 0.61978 0.0
H3443 H 0.08882 0.37568 0.64733 0.0
H3444 H 0.07161 0.36267 0.65459 0.0
H3445 H 0.07406 0.37189 0.63439 0.0
C3446 C 0.03356 0.32307 0.6553 0.0
C3447 C 0.02686 0.32975 0.64912 0.0
C3448 C 0.04683 0.32715 0.64931 0.0
C3449 C 0.05364 0.33802 0.63715 0.0
C3450 C 0.04695 0.34464 0.63089 0.0
H3451 H 0.11796 0.35528 0.56288 0.0
H3452 H 0.09655 0.3486 0.57871 0.0
C3453 C 0.03371 0.34059 0.63686 0.0
C3454 C 0.06746 0.34199 0.63027 0.0
H3455 H 0.1004 0.36998 0.62502 0.0
C3456 C 0.06885 0.33171 0.62107 0.0
C3457 C 0.07907 0.35586 0.63221 0.0
C3458 C 0.07839 0.36713 0.64282 0.0
C3459 C 0.08141 0.33505 0.61314 0.0
C3460 C 0.0928 0.3491 0.61423 0.0
C3461 C 0.09159 0.35926 0.62403 0.0
C3462 C 0.10589 0.35351 0.60476 0.0
C3463 C 0.08238 0.32353 0.60363 0.0
C3464 C 0.11832 0.35891 0.61416 0.0
C3465 C 0.1306 0.36275 0.60514 0.0
C3466 C 0.13063 0.36129 0.58657 0.0
C3467 C 0.11821 0.35624 0.57721 0.0
C3468 C 0.10597 0.35242 0.58622 0.0
H3469 H 0.07426 0.31292 0.60816 0.0
H3470 H 0.08092 0.32395 0.58921 0.0
H3471 H 0.09268 0.32489 0.60569 0.0
H3472 H 0.11846 0.35991 0.62849 0.0
H3473 H 0.13998 0.36653 0.61272 0.0
H3474 H 0.30138 0.34324 0.68432 0.0
H3475 H 0.28744 0.35039 0.66863 0.0
H3476 H 0.28186 0.32194 0.62519 0.0
H3477 H 0.29589 0.31483 0.64065 0.0
H3478 H 0.29023 0.34917 0.61471 0.0
H3479 H 0.24537 0.32788 0.66059 0.0
H3480 H 0.26194 0.33917 0.6709 0.0
H3481 H 0.25786 0.32257 0.66107 0.0
C3482 C 0.2971 0.33841 0.6715 0.0
C3483 C 0.29973 0.32845 0.66375 0.0
C3484 C 0.28909 0.34247 0.66259 0.0
C3485 C 0.28351 0.33658 0.64585 0.0
C3486 C 0.28604 0.32658 0.63813 0.0
H3487 H 0.22095 0.33933 0.58595 0.0
H3488 H 0.2348 0.33285 0.60306 0.0
C3489 C 0.29405 0.32251 0.64701 0.0
C3490 C 0.27545 0.34119 0.63602 0.0
H3491 H 0.24584 0.34201 0.63738 0.0
C3492 C 0.28052 0.34762 0.61965 0.0
C3493 C 0.26275 0.33903 0.64247 0.0
C3494 C 0.25656 0.33168 0.65965 0.0
C3495 C 0.27325 0.35199 0.60953 0.0
C3496 C 0.26067 0.35005 0.61612 0.0
C3497 C 0.25556 0.34358 0.63246 0.0
C3498 C 0.25237 0.35417 0.6059 0.0
C3499 C 0.27891 0.35834 0.5917 0.0
C3500 C 0.25763 0.36833 0.602 0.0
C3501 C 0.24978 0.37206 0.5921 0.0
C3502 C 0.23652 0.36169 0.58599 0.0
C3503 C 0.23123 0.34754 0.59018 0.0
C3504 C 0.23907 0.34383 0.60007 0.0
H3505 H 0.28689 0.35616 0.58686 0.0
H3506 H 0.2705 0.35422 0.58169 0.0
H3507 H 0.28375 0.36994 0.59283 0.0
H3508 H 0.26781 0.37649 0.60662 0.0
H3509 H 0.25416 0.38304 0.58904 0.0
H3510 H 0.69078 0.98147 0.67156 0.0
H3511 H 0.68357 0.95852 0.65771 0.0
H3512 H 0.65343 0.96085 0.62635 0.0
H3513 H 0.66067 0.98384 0.6399 0.0
H3514 H 0.65735 0.93358 0.65706 0.0
H3515 H 0.67565 0.95328 0.58932 0.0
H3516 H 0.68088 0.96483 0.60865 0.0
H3517 H 0.66419 0.95824 0.59881 0.0
C3518 C 0.68264 0.97712 0.66169 0.0
C3519 C 0.67637 0.98453 0.65674 0.0
C3520 C 0.67852 0.964 0.65382 0.0
C3521 C 0.66812 0.95811 0.64084 0.0
C3522 C 0.66167 0.96536 0.6361 0.0
H3523 H 0.62358 0.87106 0.6011 0.0
H3524 H 0.62992 0.89368 0.61534 0.0
C3525 C 0.66579 0.97847 0.64392 0.0
C3526 C 0.66395 0.94434 0.63231 0.0
H3527 H 0.66229 0.92848 0.59233 0.0
C3528 C 0.65844 0.93244 0.64292 0.0
C3529 C 0.66553 0.94297 0.61389 0.0
C3530 C 0.672 0.95552 0.60199 0.0
C3531 C 0.65433 0.91911 0.63554 0.0
C3532 C 0.65559 0.91768 0.61705 0.0
C3533 C 0.66122 0.92961 0.60648 0.0
C3534 C 0.65161 0.90398 0.60844 0.0
C3535 C 0.64894 0.90675 0.64762 0.0
C3536 C 0.66163 0.90243 0.59948 0.0
C3537 C 0.65802 0.88962 0.59118 0.0
C3538 C 0.64429 0.8781 0.59164 0.0
C3539 C 0.63422 0.87974 0.60046 0.0
C3540 C 0.63786 0.8926 0.60876 0.0
H3541 H 0.65171 0.9102 0.6617 0.0
H3542 H 0.63749 0.90026 0.64664 0.0
H3543 H 0.65307 0.89999 0.64371 0.0
H3544 H 0.67228 0.91114 0.59897 0.0
H3545 H 0.66596 0.88879 0.58422 0.0
H3546 H 0.01675 0.67808 0.65627 0.0
H3547 H 0.03991 0.69359 0.64428 0.0
H3548 H 0.03297 0.72806 0.64523 0.0
H3549 H 0.00993 0.71273 0.65764 0.0
H3550 H 0.04703 0.70729 0.61334 0.0
H3551 H 0.07022 0.74602 0.66918 0.0
H3552 H 0.05411 0.72938 0.67124 0.0
H3553 H 0.05446 0.74403 0.66129 0.0
C3554 C 0.0202 0.689 0.65408 0.0
C3555 C 0.01153 0.6942 0.65797 0.0
C3556 C 0.03343 0.69784 0.64722 0.0
C3557 C 0.03825 0.71203 0.64414 0.0
C3558 C 0.0296 0.71724 0.64794 0.0
H3559 H 0.10687 0.77956 0.58949 0.0
H3560 H 0.08506 0.76334 0.60418 0.0
C3561 C 0.0164 0.70843 0.65493 0.0
C3562 C 0.05205 0.7212 0.63614 0.0
H3563 H 0.08265 0.75252 0.6418 0.0
C3564 C 0.05488 0.7171 0.61965 0.0
C3565 C 0.06228 0.73398 0.64443 0.0
C3566 C 0.06019 0.73856 0.66259 0.0
C3567 C 0.06751 0.72565 0.611 0.0
C3568 C 0.07754 0.73857 0.61908 0.0
C3569 C 0.07485 0.7426 0.63565 0.0
C3570 C 0.09078 0.74825 0.61028 0.0
C3571 C 0.06997 0.72104 0.59307 0.0
C3572 C 0.10118 0.7451 0.60897 0.0
C3573 C 0.11375 0.75443 0.60077 0.0
C3574 C 0.11608 0.76705 0.59373 0.0
C3575 C 0.10553 0.77007 0.59503 0.0
C3576 C 0.09303 0.76079 0.60331 0.0
H3577 H 0.06049 0.71159 0.58763 0.0
H3578 H 0.07367 0.72972 0.58355 0.0
H3579 H 0.07814 0.7185 0.59423 0.0
H3580 H 0.09962 0.73549 0.61444 0.0
H3581 H 0.12171 0.75187 0.60022 0.0
H3582 H -0.00016 0.62955 0.67134 0.0
H3583 H 0.0023 0.61226 0.68747 0.0
H3584 H 0.96682 0.60275 0.71944 0.0
H3585 H 0.96428 0.62004 0.70346 0.0
H3586 H 0.0055 0.61359 0.72665 0.0
H3587 H 0.96008 0.56356 0.7008 0.0
H3588 H 0.96777 0.57983 0.68891 0.0
H3589 H 0.95705 0.57725 0.70785 0.0
C3590 C 0.99247 0.62368 0.68167 0.0
C3591 C 0.98188 0.62618 0.68615 0.0
C3592 C 0.9939 0.61383 0.69086 0.0
C3593 C 0.98468 0.6062 0.7045 0.0
C3594 C 0.97393 0.60844 0.70879 0.0
H3595 H 0.97753 0.54426 0.77782 0.0
H3596 H 0.97396 0.56018 0.76016 0.0
C3597 C 0.97254 0.61836 0.6997 0.0
C3598 C 0.98678 0.5965 0.71497 0.0
H3599 H 0.97267 0.56182 0.72422 0.0
C3600 C 0.99838 0.60226 0.72609 0.0
C3601 C 0.97737 0.58179 0.71426 0.0
C3602 C 0.96489 0.57515 0.70225 0.0
C3603 C 0.00074 0.59366 0.7368 0.0
C3604 C 0.99143 0.57889 0.73595 0.0
C3605 C 0.9798 0.57314 0.72481 0.0
C3606 C 0.99358 0.56921 0.7465 0.0
C3607 C 0.01298 0.60053 0.74924 0.0
C3608 C 0.0057 0.56889 0.74447 0.0
C3609 C 0.00779 0.55989 0.7546 0.0
C3610 C 0.9977 0.5509 0.76675 0.0
C3611 C 0.98545 0.55103 0.7685 0.0
C3612 C 0.98341 0.56012 0.75846 0.0
H3613 H 0.0166 0.61178 0.75202 0.0
H3614 H 0.01042 0.59498 0.76201 0.0
H3615 H 0.02167 0.60011 0.74305 0.0
H3616 H 0.01352 0.57554 0.73497 0.0
H3617 H 0.01722 0.55981 0.75274 0.0
H3618 H 0.37194 0.36363 0.66478 0.0
H3619 H 0.3885 0.38586 0.67992 0.0
H3620 H 0.36653 0.36998 0.72908 0.0
H3621 H 0.35015 0.34765 0.71419 0.0
H3622 H 0.38383 0.40479 0.69723 0.0
H3623 H 0.40592 0.38408 0.7437 0.0
H3624 H 0.39537 0.37386 0.72496 0.0
H3625 H 0.38743 0.37527 0.74505 0.0
C3626 C 0.3707 0.36483 0.67884 0.0
C3627 C 0.35979 0.35385 0.6883 0.0
C3628 C 0.38016 0.37754 0.68746 0.0
C3629 C 0.37888 0.37948 0.70568 0.0
C3630 C 0.36792 0.36858 0.71511 0.0
H3631 H 0.42056 0.44942 0.78097 0.0
H3632 H 0.40403 0.42755 0.76499 0.0
C3633 C 0.35852 0.35585 0.70654 0.0
C3634 C 0.38872 0.39307 0.71471 0.0
H3635 H 0.41151 0.40764 0.74924 0.0
C3636 C 0.38995 0.40543 0.70852 0.0
C3637 C 0.39671 0.39387 0.72943 0.0
C3638 C 0.39642 0.38108 0.73608 0.0
C3639 C 0.39877 0.41855 0.7169 0.0
C3640 C 0.40657 0.41928 0.73175 0.0
C3641 C 0.4054 0.40696 0.7379 0.0
C3642 C 0.41618 0.43279 0.74097 0.0
C3643 C 0.39954 0.43151 0.71004 0.0
C3644 C 0.42843 0.4429 0.73269 0.0
C3645 C 0.43788 0.45534 0.74177 0.0
C3646 C 0.4352 0.45788 0.75927 0.0
C3647 C 0.42281 0.44781 0.76743 0.0
C3648 C 0.41341 0.43531 0.75838 0.0
H3649 H 0.39104 0.42881 0.70059 0.0
H3650 H 0.3991 0.43797 0.72118 0.0
H3651 H 0.40954 0.43805 0.7031 0.0
H3652 H 0.43078 0.44104 0.71931 0.0
H3653 H 0.44731 0.46296 0.73513 0.0
H3654 H 0.64401 0.02779 0.68509 0.0
H3655 H 0.62298 0.0245 0.69909 0.0
H3656 H 0.62114 0.99284 0.7325 0.0
H3657 H 0.64204 0.99592 0.71851 0.0
H3658 H 0.59568 0.98504 0.71633 0.0
H3659 H 0.62036 0.03781 0.74977 0.0
H3660 H 0.62342 0.03795 0.72633 0.0
H3661 H 0.63023 0.03058 0.7409 0.0
C3662 C 0.63914 0.02014 0.69544 0.0
C3663 C 0.64472 0.01215 0.70074 0.0
C3664 C 0.62717 0.01833 0.70346 0.0
C3665 C 0.62063 0.00855 0.71695 0.0
C3666 C 0.62608 0.00047 0.72214 0.0
H3667 H 0.56 -0.0001 0.79369 0.0
H3668 H 0.58039 0.00331 0.77783 0.0
C3669 C 0.63804 0.00227 0.71415 0.0
C3670 C 0.60802 0.00662 0.72561 0.0
H3671 H 0.596 0.02332 0.75176 0.0
C3672 C 0.59572 0.9934 0.72406 0.0
C3673 C 0.60819 0.01752 0.73581 0.0
C3674 C 0.62127 0.03174 0.73848 0.0
C3675 C 0.58352 0.9908 0.73242 0.0
C3676 C 0.58364 0.00178 0.74239 0.0
C3677 C 0.59595 0.01498 0.74398 0.0
C3678 C 0.5712 -0.00036 0.7518 0.0
C3679 C 0.5707 0.97626 0.73088 0.0
C3680 C 0.55934 0.99656 0.74237 0.0
C3681 C 0.54768 0.99466 0.75139 0.0
C3682 C 0.54774 0.99591 0.76999 0.0
C3683 C 0.55968 0.99905 0.77935 0.0
C3684 C 0.57132 0.00094 0.77033 0.0
H3685 H 0.57313 0.96828 0.72616 0.0
H3686 H 0.56531 0.97296 0.74383 0.0
H3687 H 0.56348 0.97638 0.72124 0.0
H3688 H 0.55915 0.99577 0.72803 0.0
H3689 H 0.53871 0.99246 0.74379 0.0
loop_
_geom_bond_atom_site_label_1
_geom_bond_atom_site_label_2
_geom_bond_distance
_geom_bond_site_symmetry_2
_ccdc_geom_bond_type
C0 O1 1.160 . S
C0 O7 1.185 . S
O1 C0 1.160 . S
O2 Zn3 1.899 1_656 S
O2 C10 1.271 1_556 S
Zn3 O2 1.899 1_454 S
Zn3 O4 2.032 . S
Zn3 O7 2.086 . S
Zn3 O12 1.977 1_554 S
O4 Zn3 2.032 . S
O4 C8 1.278 1_455 S
C5 O6 1.203 1_455 S
C5 O12 1.267 . S
O6 C5 1.203 1_655 S
O7 C0 1.185 . S
O7 Zn3 2.086 . S
C8 O4 1.278 1_655 S
C8 O9 1.211 . S
O9 C8 1.211 . S
C10 O2 1.271 1_554 S
C10 O11 1.306 . S
O11 C10 1.306 . S
O12 Zn3 1.977 1_556 S
O12 C5 1.267 . S
C13 O14 1.160 . S
C13 O20 1.185 1_556 S
O14 C13 1.160 . S
O15 Zn16 1.899 . S
O15 C23 1.284 . S
Zn16 O15 1.899 . S
Zn16 O17 2.032 1_554 S
Zn16 O20 2.086 . S
Zn16 O25 1.977 . S
O17 Zn16 2.032 1_556 S
O17 C21 1.278 . S
C18 O19 1.203 . S
C18 O25 1.267 . S
O19 C18 1.203 . S
O20 C13 1.185 1_554 S
O20 Zn16 2.086 . S
C21 O17 1.278 . S
C21 O22 1.216 1_556 S
O22 C21 1.216 1_554 S
C23 O15 1.284 . S
C23 O24 1.273 . S
O24 C23 1.273 . S
O25 Zn16 1.977 . S
O25 C18 1.267 . S
C26 O27 1.160 1_554 S
C26 O33 1.185 . S
O27 C26 1.160 1_556 S
O28 Zn29 1.896 1_565 S
O28 C36 1.299 . S
Zn29 O28 1.896 1_545 S
Zn29 O30 2.032 1_554 S
Zn29 O33 2.086 . S
Zn29 O38 1.977 . S
O30 Zn29 2.032 1_556 S
O30 C34 1.278 . S
C31 O32 1.132 1_545 S
C31 O38 1.267 . S
O32 C31 1.132 1_565 S
O33 C26 1.185 . S
O33 Zn29 2.086 . S
C34 O30 1.278 . S
C34 O35 1.224 1_545 S
O35 C34 1.224 1_565 S
C36 O28 1.299 . S
C36 O37 1.273 . S
O37 C36 1.273 . S
O38 Zn29 1.977 . S
O38 C31 1.267 . S
C39 O40 1.160 . S
C39 O46 1.185 1_556 S
O40 C39 1.160 . S
O41 Zn42 1.899 1_455 S
O41 C49 1.284 . S
Zn42 O41 1.899 1_655 S
Zn42 O43 2.033 1_654 S
Zn42 O46 2.086 . S
Zn42 O51 1.977 . S
O43 Zn42 2.033 1_456 S
O43 C47 1.275 . S
C44 O45 1.203 1_655 S
C44 O51 1.267 . S
O45 C44 1.203 1_455 S
O46 C39 1.185 1_554 S
O46 Zn42 2.086 . S
C47 O43 1.275 . S
C47 O48 1.211 . S
O48 C47 1.211 . S
C49 O41 1.284 . S
C49 O50 1.273 . S
O50 C49 1.273 . S
O51 Zn42 1.977 . S
O51 C44 1.267 . S
C52 O53 1.160 . S
C52 O59 1.185 . S
O53 C52 1.160 . S
O54 Zn55 1.899 1_556 S
O54 C62 1.284 . S
Zn55 O54 1.899 1_554 S
Zn55 O56 2.032 . S
Zn55 O59 2.086 . S
Zn55 O64 1.977 1_554 S
O56 Zn55 2.032 . S
O56 C60 1.278 . S
C57 O58 1.203 . S
C57 O64 1.267 . S
O58 C57 1.203 . S
O59 C52 1.185 . S
O59 Zn55 2.086 . S
C60 O56 1.278 . S
C60 O61 1.211 . S
O61 C60 1.211 . S
C62 O54 1.284 . S
C62 O63 1.273 1_556 S
O63 C62 1.273 1_554 S
O64 Zn55 1.977 1_556 S
O64 C57 1.267 . S
C65 O66 1.160 . S
C65 O72 1.185 . S
O66 C65 1.160 . S
O67 Zn68 1.899 1_546 S
O67 C75 1.284 . S
Zn68 O67 1.899 1_564 S
Zn68 O69 2.022 1_565 S
Zn68 O72 2.086 . S
Zn68 O77 1.977 1_554 S
O69 Zn68 2.022 1_545 S
O69 C73 1.305 . S
C70 O71 1.203 1_565 S
C70 O77 1.267 . S
O71 C70 1.203 1_545 S
O72 C65 1.185 . S
O72 Zn68 2.086 . S
C73 O69 1.305 . S
C73 O74 1.211 . S
O74 C73 1.211 . S
C75 O67 1.284 . S
C75 O76 1.273 1_556 S
O76 C75 1.273 1_554 S
O77 Zn68 1.977 1_556 S
O77 C70 1.267 . S
C78 O79 1.160 . S
C78 O85 1.185 . S
O79 C78 1.160 . S
O80 Zn81 1.899 . S
O80 C88 1.284 . S
Zn81 O80 1.899 . S
Zn81 O82 2.032 . S
Zn81 O85 2.086 . S
Zn81 O90 1.977 . S
O82 Zn81 2.032 . S
O82 C86 1.278 . S
C83 O84 1.203 . S
C83 O90 1.267 . S
O84 C83 1.203 . S
O85 C78 1.185 . S
O85 Zn81 2.086 . S
C86 O82 1.278 . S
C86 O87 1.211 . S
O87 C86 1.211 . S
C88 O80 1.284 . S
C88 O89 1.273 . S
O89 C88 1.273 . S
O90 Zn81 1.977 . S
O90 C83 1.267 . S
C91 O92 1.158 1_565 S
C91 O98 1.185 . S
O92 C91 1.158 1_545 S
O93 Zn94 1.899 1_545 S
O93 C101 1.284 . S
Zn94 O93 1.899 1_565 S
Zn94 O95 2.032 . S
Zn94 O98 2.086 . S
Zn94 O103 1.977 . S
O95 Zn94 2.032 . S
O95 C99 1.278 . S
C96 O97 1.203 . S
C96 O103 1.267 . S
O97 C96 1.203 . S
O98 C91 1.185 . S
O98 Zn94 2.086 . S
C99 O95 1.278 . S
C99 O100 1.211 . S
O100 C99 1.211 . S
C101 O93 1.284 . S
C101 O102 1.273 . S
O102 C101 1.273 . S
O103 Zn94 1.977 . S
O103 C96 1.267 . S
C104 O105 1.160 . S
C104 O111 1.185 . S
O105 C104 1.160 . S
O106 Zn107 1.899 . S
O106 C114 1.281 . S
Zn107 O106 1.899 . S
Zn107 O108 2.032 . S
Zn107 O111 2.086 . S
Zn107 O116 1.977 . S
O108 Zn107 2.032 . S
O108 C112 1.278 . S
C109 O110 1.203 . S
C109 O116 1.267 . S
O110 C109 1.203 . S
O111 C104 1.185 . S
O111 Zn107 2.086 . S
C112 O108 1.278 . S
C112 O113 1.211 . S
O113 C112 1.211 . S
C114 O106 1.281 . S
C114 O115 1.318 . S
O115 C114 1.318 . S
O116 Zn107 1.977 . S
O116 C109 1.267 . S
C117 O118 1.179 . S
C117 O124 1.185 . S
O118 C117 1.179 . S
O119 Zn120 1.899 1_545 S
O119 C127 1.284 . S
Zn120 O119 1.899 1_565 S
Zn120 O121 2.032 . S
Zn120 O124 2.086 . S
Zn120 O129 1.977 . S
O121 Zn120 2.032 . S
O121 C125 1.278 . S
C122 O123 1.203 . S
C122 O129 1.267 . S
O123 C122 1.203 . S
O124 C117 1.185 . S
O124 Zn120 2.086 . S
C125 O121 1.278 . S
C125 O126 1.211 . S
O126 C125 1.211 . S
C127 O119 1.284 . S
C127 O128 1.273 . S
O128 C127 1.273 . S
O129 Zn120 1.977 . S
O129 C122 1.267 . S
C130 O131 1.160 . S
C130 O137 1.185 . S
O131 C130 1.160 . S
O132 Zn133 1.899 . S
O132 C140 1.284 . S
Zn133 O132 1.899 . S
Zn133 O134 2.032 . S
Zn133 O137 2.086 1_455 S
Zn133 O142 1.977 . S
O134 Zn133 2.032 . S
O134 C138 1.278 . S
C135 O136 1.203 . S
C135 O142 1.267 . S
O136 C135 1.203 . S
O137 C130 1.185 . S
O137 Zn133 2.086 1_655 S
C138 O134 1.278 . S
C138 O139 1.211 . S
O139 C138 1.211 . S
C140 O132 1.284 . S
C140 O141 1.273 . S
O141 C140 1.273 . S
O142 Zn133 1.977 . S
O142 C135 1.267 . S
C143 O144 1.160 . S
C143 O150 1.185 . S
O144 C143 1.160 . S
O145 Zn146 1.899 . S
O145 C153 1.284 . S
Zn146 O145 1.899 . S
Zn146 O147 2.032 . S
Zn146 O150 2.086 . S
Zn146 O155 1.977 . S
O147 Zn146 2.032 . S
O147 C151 1.278 . S
C148 O149 1.203 . S
C148 O155 1.267 . S
O149 C148 1.203 . S
O150 C143 1.185 . S
O150 Zn146 2.086 . S
C151 O147 1.278 . S
C151 O152 1.211 . S
O152 C151 1.211 . S
C153 O145 1.284 . S
C153 O154 1.273 . S
O154 C153 1.273 . S
O155 Zn146 1.977 . S
O155 C148 1.267 . S
C156 O157 1.160 . S
C156 O163 1.185 . S
O157 C156 1.160 . S
O158 Zn159 1.899 . S
O158 C166 1.284 1_545 S
Zn159 O158 1.899 . S
Zn159 O160 2.032 . S
Zn159 O163 2.086 . S
Zn159 O168 1.977 . S
O160 Zn159 2.032 . S
O160 C164 1.278 . S
C161 O162 1.203 . S
C161 O168 1.267 . S
O162 C161 1.203 . S
O163 C156 1.185 . S
O163 Zn159 2.086 . S
C164 O160 1.278 . S
C164 O165 1.211 . S
O165 C164 1.211 . S
C166 O158 1.284 1_565 S
C166 O167 1.273 1_565 S
O167 C166 1.273 1_545 S
O168 Zn159 1.977 . S
O168 C161 1.267 . S
C169 O170 1.160 . S
C169 O176 1.185 . S
O170 C169 1.160 . S
O171 Zn172 1.899 . S
O171 C179 1.284 . S
Zn172 O171 1.899 . S
Zn172 O173 2.032 . S
Zn172 O176 2.086 1_655 S
Zn172 O181 1.977 . S
O173 Zn172 2.032 . S
O173 C177 1.278 . S
C174 O175 1.203 . S
C174 O181 1.267 . S
O175 C174 1.203 . S
O176 C169 1.185 . S
O176 Zn172 2.086 1_455 S
C177 O173 1.278 . S
C177 O178 1.211 . S
O178 C177 1.211 . S
C179 O171 1.284 . S
C179 O180 1.273 . S
O180 C179 1.273 . S
O181 Zn172 1.977 . S
O181 C174 1.267 . S
C182 O183 1.160 . S
C182 O189 1.185 . S
O183 C182 1.160 . S
O184 Zn185 1.899 . S
O184 C192 1.284 . S
Zn185 O184 1.899 . S
Zn185 O186 2.032 . S
Zn185 O189 2.086 . S
Zn185 O194 1.977 . S
O186 Zn185 2.032 . S
O186 C190 1.278 . S
C187 O188 1.203 . S
C187 O194 1.267 . S
O188 C187 1.203 . S
O189 C182 1.185 . S
O189 Zn185 2.086 . S
C190 O186 1.278 . S
C190 O191 1.211 . S
O191 C190 1.211 . S
C192 O184 1.284 . S
C192 O193 1.273 . S
O193 C192 1.273 . S
O194 Zn185 1.977 . S
O194 C187 1.267 . S
C195 O196 1.160 . S
C195 O202 1.185 . S
O196 C195 1.160 . S
O197 Zn198 1.899 . S
O197 C205 1.284 . S
Zn198 O197 1.899 . S
Zn198 O199 2.032 . S
Zn198 O202 2.086 . S
Zn198 O207 1.977 . S
O199 Zn198 2.032 . S
O199 C203 1.278 . S
C200 O201 1.203 . S
C200 O207 1.267 . S
O201 C200 1.203 . S
O202 C195 1.185 . S
O202 Zn198 2.086 . S
C203 O199 1.278 . S
C203 O204 1.211 . S
O204 C203 1.211 . S
C205 O197 1.284 . S
C205 O206 1.273 . S
O206 C205 1.273 . S
O207 Zn198 1.977 . S
O207 C200 1.267 . S
C208 O209 1.160 . S
C208 O215 1.185 . S
O209 C208 1.160 . S
O210 Zn211 1.899 . S
O210 C218 1.284 1_545 S
Zn211 O210 1.899 . S
Zn211 O212 2.032 . S
Zn211 O215 2.086 . S
Zn211 O220 1.977 . S
O212 Zn211 2.032 . S
O212 C216 1.278 . S
C213 O214 1.203 . S
C213 O220 1.267 . S
O214 C213 1.203 . S
O215 C208 1.185 . S
O215 Zn211 2.086 . S
C216 O212 1.278 . S
C216 O217 1.211 . S
O217 C216 1.211 . S
C218 O210 1.284 1_565 S
C218 O219 1.273 1_565 S
O219 C218 1.273 1_545 S
O220 Zn211 1.977 . S
O220 C213 1.267 . S
C221 O222 1.160 . S
C221 O228 1.185 . S
O222 C221 1.160 . S
O223 Zn224 1.899 . S
O223 C231 1.292 1_655 S
Zn224 O223 1.899 . S
Zn224 O225 2.032 . S
Zn224 O228 2.086 . S
Zn224 O233 1.977 . S
O225 Zn224 2.032 . S
O225 C229 1.278 . S
C226 O227 1.203 . S
C226 O233 1.267 . S
O227 C226 1.203 . S
O228 C221 1.185 . S
O228 Zn224 2.086 . S
C229 O225 1.278 . S
C229 O230 1.211 . S
O230 C229 1.211 . S
C231 O223 1.292 1_455 S
C231 O232 1.217 1_455 S
O232 C231 1.217 1_655 S
O233 Zn224 1.977 . S
O233 C226 1.267 . S
H234 C253 0.949 . S
H235 C254 0.950 . S
H236 C256 0.950 . S
H237 C257 0.950 . S
H238 C259 0.950 . S
H239 C262 0.950 . S
H240 C263 0.950 . S
H241 C265 0.951 . S
H242 C266 0.949 . S
H243 C268 0.949 . S
H244 C269 0.950 . S
H245 C271 0.950 . S
H246 C272 0.950 . S
H247 C274 0.950 . S
H248 C277 0.950 . S
H249 C278 0.950 . S
H250 C280 0.951 . S
H251 C281 0.949 . S
C252 C253 1.376 . S
C252 C257 1.386 . S
C252 C258 1.483 . S
C253 H234 0.949 . S
C253 C252 1.376 . S
C253 C254 1.397 . S
C254 H235 0.950 . S
C254 C253 1.397 . S
C254 C255 1.391 . S
C255 C254 1.391 . S
C255 C256 1.405 . S
C256 H236 0.950 . S
C256 C255 1.405 . S
C256 C257 1.367 . S
C257 H237 0.950 . S
C257 C252 1.386 . S
C257 C256 1.367 . S
C258 C252 1.483 . S
C258 C259 1.382 . S
C258 C260 1.403 . S
C259 H238 0.950 . S
C259 C258 1.382 . S
C259 C275 1.411 . S
C260 C258 1.403 . S
C260 C261 1.489 . S
C260 C274 1.411 . S
C261 C260 1.489 . S
C261 C262 1.383 . S
C261 C266 1.382 . S
C262 H239 0.950 . S
C262 C261 1.383 . S
C262 C263 1.395 . S
C263 H240 0.950 . S
C263 C262 1.395 . S
C263 C264 1.288 . S
C264 C263 1.288 . S
C264 C265 1.392 . S
C265 H241 0.951 . S
C265 C264 1.392 . S
C265 C266 1.392 . S
C266 H242 0.949 . S
C266 C261 1.382 . S
C266 C265 1.392 . S
C267 C268 1.376 . S
C267 C272 1.386 . S
C267 C273 1.483 . S
C268 H243 0.949 . S
C268 C267 1.376 . S
C268 C269 1.397 . S
C269 H244 0.950 . S
C269 C268 1.397 . S
C269 C270 1.391 . S
C270 C269 1.391 . S
C270 C271 1.405 . S
C271 H245 0.950 . S
C271 C270 1.405 . S
C271 C272 1.367 . S
C272 H246 0.950 . S
C272 C267 1.386 . S
C272 C271 1.367 . S
C273 C267 1.483 . S
C273 C274 1.382 . S
C273 C275 1.403 . S
C274 H247 0.950 . S
C274 C260 1.411 . S
C274 C273 1.382 . S
C275 C259 1.411 . S
C275 C273 1.403 . S
C275 C276 1.489 . S
C276 C275 1.489 . S
C276 C277 1.383 . S
C276 C281 1.382 . S
C277 H248 0.950 . S
C277 C276 1.383 . S
C277 C278 1.395 . S
C278 H249 0.950 . S
C278 C277 1.395 . S
C278 C279 1.288 . S
C279 C278 1.288 . S
C279 C280 1.392 . S
C280 H250 0.951 . S
C280 C279 1.392 . S
C280 C281 1.392 . S
C281 H251 0.949 . S
C281 C276 1.382 . S
C281 C280 1.392 . S
H282 C301 0.949 . S
H283 C302 0.950 . S
H284 C304 0.950 . S
H285 C305 0.950 . S
H286 C307 0.950 . S
H287 C310 0.950 . S
H288 C311 0.950 . S
H289 C313 0.951 . S
H290 C314 0.949 . S
H291 C316 0.949 . S
H292 C317 0.950 . S
H293 C319 0.950 . S
H294 C320 0.950 . S
H295 C322 0.950 . S
H296 C325 0.950 . S
H297 C326 0.950 . S
H298 C328 0.951 . S
H299 C329 0.949 . S
C300 C301 1.376 . S
C300 C305 1.386 . S
C300 C306 1.483 . S
C301 H282 0.949 . S
C301 C300 1.376 . S
C301 C302 1.397 . S
C302 H283 0.950 . S
C302 C301 1.397 . S
C302 C303 1.391 . S
C303 C302 1.391 . S
C303 C304 1.405 . S
C304 H284 0.950 . S
C304 C303 1.405 . S
C304 C305 1.367 . S
C305 H285 0.950 . S
C305 C300 1.386 . S
C305 C304 1.367 . S
C306 C300 1.483 . S
C306 C307 1.382 . S
C306 C308 1.403 . S
C307 H286 0.950 . S
C307 C306 1.382 . S
C307 C323 1.411 . S
C308 C306 1.403 . S
C308 C309 1.489 . S
C308 C322 1.411 . S
C309 C308 1.489 . S
C309 C310 1.383 . S
C309 C314 1.382 . S
C310 H287 0.950 . S
C310 C309 1.383 . S
C310 C311 1.395 . S
C311 H288 0.950 . S
C311 C310 1.395 . S
C311 C312 1.288 . S
C312 C311 1.288 . S
C312 C313 1.392 . S
C313 H289 0.951 . S
C313 C312 1.392 . S
C313 C314 1.392 . S
C314 H290 0.949 . S
C314 C309 1.382 . S
C314 C313 1.392 . S
C315 C316 1.376 . S
C315 C320 1.386 . S
C315 C321 1.483 . S
C316 H291 0.949 . S
C316 C315 1.376 . S
C316 C317 1.397 . S
C317 H292 0.950 . S
C317 C316 1.397 . S
C317 C318 1.391 . S
C318 C317 1.391 . S
C318 C319 1.405 . S
C319 H293 0.950 . S
C319 C318 1.405 . S
C319 C320 1.367 . S
C320 H294 0.950 . S
C320 C315 1.386 . S
C320 C319 1.367 . S
C321 C315 1.483 . S
C321 C322 1.382 . S
C321 C323 1.403 . S
C322 H295 0.950 . S
C322 C308 1.411 . S
C322 C321 1.382 . S
C323 C307 1.411 . S
C323 C321 1.403 . S
C323 C324 1.489 . S
C324 C323 1.489 . S
C324 C325 1.383 . S
C324 C329 1.382 . S
C325 H296 0.950 . S
C325 C324 1.383 . S
C325 C326 1.395 . S
C326 H297 0.950 . S
C326 C325 1.395 . S
C326 C327 1.288 . S
C327 C326 1.288 . S
C327 C328 1.392 . S
C328 H298 0.951 . S
C328 C327 1.392 . S
C328 C329 1.392 . S
C329 H299 0.949 . S
C329 C324 1.382 . S
C329 C328 1.392 . S
H330 C349 0.949 . S
H331 C350 0.950 . S
H332 C352 0.950 . S
H333 C353 0.950 . S
H334 C355 0.950 . S
H335 C358 0.950 . S
H336 C359 0.950 . S
H337 C361 0.951 . S
H338 C362 0.949 . S
H339 C364 0.949 . S
H340 C365 0.950 . S
H341 C367 0.950 . S
H342 C368 0.950 . S
H343 C370 0.950 . S
H344 C373 0.950 . S
H345 C374 0.950 . S
H346 C376 0.951 . S
H347 C377 0.949 . S
C348 C349 1.376 . S
C348 C353 1.386 . S
C348 C354 1.483 . S
C349 H330 0.949 . S
C349 C348 1.376 . S
C349 C350 1.397 . S
C350 H331 0.950 . S
C350 C349 1.397 . S
C350 C351 1.391 . S
C351 C350 1.391 . S
C351 C352 1.405 . S
C352 H332 0.950 . S
C352 C351 1.405 . S
C352 C353 1.367 . S
C353 H333 0.950 . S
C353 C348 1.386 . S
C353 C352 1.367 . S
C354 C348 1.483 . S
C354 C355 1.382 . S
C354 C356 1.403 . S
C355 H334 0.950 . S
C355 C354 1.382 . S
C355 C371 1.411 . S
C356 C354 1.403 . S
C356 C357 1.489 . S
C356 C370 1.411 . S
C357 C356 1.489 . S
C357 C358 1.383 . S
C357 C362 1.382 . S
C358 H335 0.950 . S
C358 C357 1.383 . S
C358 C359 1.395 . S
C359 H336 0.950 . S
C359 C358 1.395 . S
C359 C360 1.288 . S
C360 C359 1.288 . S
C360 C361 1.392 . S
C361 H337 0.951 . S
C361 C360 1.392 . S
C361 C362 1.392 . S
C362 H338 0.949 . S
C362 C357 1.382 . S
C362 C361 1.392 . S
C363 C364 1.376 . S
C363 C368 1.386 . S
C363 C369 1.483 . S
C364 H339 0.949 . S
C364 C363 1.376 . S
C364 C365 1.397 . S
C365 H340 0.950 . S
C365 C364 1.397 . S
C365 C366 1.391 . S
C366 C365 1.391 . S
C366 C367 1.405 . S
C367 H341 0.950 . S
C367 C366 1.405 . S
C367 C368 1.367 . S
C368 H342 0.950 . S
C368 C363 1.386 . S
C368 C367 1.367 . S
C369 C363 1.483 . S
C369 C370 1.382 . S
C369 C371 1.403 . S
C370 H343 0.950 . S
C370 C356 1.411 . S
C370 C369 1.382 . S
C371 C355 1.411 . S
C371 C369 1.403 . S
C371 C372 1.489 . S
C372 C371 1.489 . S
C372 C373 1.383 . S
C372 C377 1.382 . S
C373 H344 0.950 . S
C373 C372 1.383 . S
C373 C374 1.395 . S
C374 H345 0.950 . S
C374 C373 1.395 . S
C374 C375 1.288 . S
C375 C374 1.288 . S
C375 C376 1.392 . S
C376 H346 0.951 . S
C376 C375 1.392 . S
C376 C377 1.392 . S
C377 H347 0.949 . S
C377 C372 1.382 . S
C377 C376 1.392 . S
H378 C397 0.949 . S
H379 C398 0.950 . S
H380 C400 0.950 . S
H381 C401 0.950 . S
H382 C403 0.950 . S
H383 C406 0.950 . S
H384 C407 0.950 . S
H385 C409 0.951 . S
H386 C410 0.949 . S
H387 C412 0.949 . S
H388 C413 0.950 . S
H389 C415 0.950 . S
H390 C416 0.950 . S
H391 C418 0.950 . S
H392 C421 0.950 . S
H393 C422 0.950 . S
H394 C424 0.951 . S
H395 C425 0.949 . S
C396 C397 1.376 . S
C396 C401 1.386 . S
C396 C402 1.483 . S
C397 H378 0.949 . S
C397 C396 1.376 . S
C397 C398 1.397 . S
C398 H379 0.950 . S
C398 C397 1.397 . S
C398 C399 1.391 . S
C399 C398 1.391 . S
C399 C400 1.405 . S
C400 H380 0.950 . S
C400 C399 1.405 . S
C400 C401 1.367 . S
C401 H381 0.950 . S
C401 C396 1.386 . S
C401 C400 1.367 . S
C402 C396 1.483 . S
C402 C403 1.382 . S
C402 C404 1.403 . S
C403 H382 0.950 . S
C403 C402 1.382 . S
C403 C419 1.411 . S
C404 C402 1.403 . S
C404 C405 1.489 . S
C404 C418 1.411 . S
C405 C404 1.489 . S
C405 C406 1.383 . S
C405 C410 1.382 . S
C406 H383 0.950 . S
C406 C405 1.383 . S
C406 C407 1.395 . S
C407 H384 0.950 . S
C407 C406 1.395 . S
C407 C408 1.288 . S
C408 C407 1.288 . S
C408 C409 1.392 . S
C409 H385 0.951 . S
C409 C408 1.392 . S
C409 C410 1.392 . S
C410 H386 0.949 . S
C410 C405 1.382 . S
C410 C409 1.392 . S
C411 C412 1.376 . S
C411 C416 1.386 . S
C411 C417 1.483 . S
C412 H387 0.949 . S
C412 C411 1.376 . S
C412 C413 1.397 . S
C413 H388 0.950 . S
C413 C412 1.397 . S
C413 C414 1.391 . S
C414 C413 1.391 . S
C414 C415 1.405 . S
C415 H389 0.950 . S
C415 C414 1.405 . S
C415 C416 1.367 . S
C416 H390 0.950 . S
C416 C411 1.386 . S
C416 C415 1.367 . S
C417 C411 1.483 . S
C417 C418 1.382 . S
C417 C419 1.403 . S
C418 H391 0.950 . S
C418 C404 1.411 . S
C418 C417 1.382 . S
C419 C403 1.411 . S
C419 C417 1.403 . S
C419 C420 1.489 . S
C420 C419 1.489 . S
C420 C421 1.383 . S
C420 C425 1.382 . S
C421 H392 0.950 . S
C421 C420 1.383 . S
C421 C422 1.395 . S
C422 H393 0.950 . S
C422 C421 1.395 . S
C422 C423 1.288 . S
C423 C422 1.288 . S
C423 C424 1.392 . S
C424 H394 0.951 . S
C424 C423 1.392 . S
C424 C425 1.392 . S
C425 H395 0.949 . S
C425 C420 1.382 . S
C425 C424 1.392 . S
H426 C445 0.949 . S
H427 C446 0.950 . S
H428 C448 0.950 . S
H429 C449 0.950 . S
H430 C451 0.950 . S
H431 C454 0.950 . S
H432 C455 0.950 . S
H433 C457 0.951 . S
H434 C458 0.949 . S
H435 C460 0.949 . S
H436 C461 0.950 . S
H437 C463 0.950 . S
H438 C464 0.950 . S
H439 C466 0.950 . S
H440 C469 0.950 . S
H441 C470 0.950 . S
H442 C472 0.951 . S
H443 C473 0.949 . S
C444 C445 1.376 . S
C444 C449 1.386 . S
C444 C450 1.483 . S
C445 H426 0.949 . S
C445 C444 1.376 . S
C445 C446 1.397 . S
C446 H427 0.950 . S
C446 C445 1.397 . S
C446 C447 1.391 . S
C447 C446 1.391 . S
C447 C448 1.405 . S
C448 H428 0.950 . S
C448 C447 1.405 . S
C448 C449 1.367 . S
C449 H429 0.950 . S
C449 C444 1.386 . S
C449 C448 1.367 . S
C450 C444 1.483 . S
C450 C451 1.382 . S
C450 C452 1.403 . S
C451 H430 0.950 . S
C451 C450 1.382 . S
C451 C467 1.411 . S
C452 C450 1.403 . S
C452 C453 1.489 . S
C452 C466 1.411 . S
C453 C452 1.489 . S
C453 C454 1.383 . S
C453 C458 1.382 . S
C454 H431 0.950 . S
C454 C453 1.383 . S
C454 C455 1.395 . S
C455 H432 0.950 . S
C455 C454 1.395 . S
C455 C456 1.288 . S
C456 C455 1.288 . S
C456 C457 1.392 . S
C457 H433 0.951 . S
C457 C456 1.392 . S
C457 C458 1.392 . S
C458 H434 0.949 . S
C458 C453 1.382 . S
C458 C457 1.392 . S
C459 C460 1.376 . S
C459 C464 1.386 . S
C459 C465 1.483 . S
C460 H435 0.949 . S
C460 C459 1.376 . S
C460 C461 1.397 . S
C461 H436 0.950 . S
C461 C460 1.397 . S
C461 C462 1.391 . S
C462 C461 1.391 . S
C462 C463 1.405 . S
C463 H437 0.950 . S
C463 C462 1.405 . S
C463 C464 1.367 . S
C464 H438 0.950 . S
C464 C459 1.386 . S
C464 C463 1.367 . S
C465 C459 1.483 . S
C465 C466 1.382 . S
C465 C467 1.403 . S
C466 H439 0.950 . S
C466 C452 1.411 . S
C466 C465 1.382 . S
C467 C451 1.411 . S
C467 C465 1.403 . S
C467 C468 1.489 . S
C468 C467 1.489 . S
C468 C469 1.383 . S
C468 C473 1.382 . S
C469 H440 0.950 . S
C469 C468 1.383 . S
C469 C470 1.395 . S
C470 H441 0.950 . S
C470 C469 1.395 . S
C470 C471 1.288 . S
C471 C470 1.288 . S
C471 C472 1.392 . S
C472 H442 0.951 . S
C472 C471 1.392 . S
C472 C473 1.392 . S
C473 H443 0.949 . S
C473 C468 1.382 . S
C473 C472 1.392 . S
H474 C493 0.949 . S
H475 C494 0.950 . S
H476 C496 0.950 . S
H477 C497 0.950 . S
H478 C499 0.950 . S
H479 C502 0.950 . S
H480 C503 0.950 . S
H481 C505 0.951 . S
H482 C506 0.949 . S
H483 C508 0.949 . S
H484 C509 0.950 . S
H485 C511 0.950 . S
H486 C512 0.950 . S
H487 C514 0.950 . S
H488 C517 0.950 . S
H489 C518 0.950 . S
H490 C520 0.951 . S
H491 C521 0.949 . S
C492 C493 1.376 . S
C492 C497 1.386 . S
C492 C498 1.483 . S
C493 H474 0.949 . S
C493 C492 1.376 . S
C493 C494 1.397 . S
C494 H475 0.950 . S
C494 C493 1.397 . S
C494 C495 1.391 . S
C495 C494 1.391 . S
C495 C496 1.405 . S
C496 H476 0.950 . S
C496 C495 1.405 . S
C496 C497 1.367 . S
C497 H477 0.950 . S
C497 C492 1.386 . S
C497 C496 1.367 . S
C498 C492 1.483 . S
C498 C499 1.382 . S
C498 C500 1.403 . S
C499 H478 0.950 . S
C499 C498 1.382 . S
C499 C515 1.411 . S
C500 C498 1.403 . S
C500 C501 1.489 . S
C500 C514 1.411 . S
C501 C500 1.489 . S
C501 C502 1.383 . S
C501 C506 1.382 . S
C502 H479 0.950 . S
C502 C501 1.383 . S
C502 C503 1.395 . S
C503 H480 0.950 . S
C503 C502 1.395 . S
C503 C504 1.288 . S
C504 C503 1.288 . S
C504 C505 1.392 . S
C505 H481 0.951 . S
C505 C504 1.392 . S
C505 C506 1.392 . S
C506 H482 0.949 . S
C506 C501 1.382 . S
C506 C505 1.392 . S
C507 C508 1.376 . S
C507 C512 1.386 . S
C507 C513 1.483 . S
C508 H483 0.949 . S
C508 C507 1.376 . S
C508 C509 1.397 . S
C509 H484 0.950 . S
C509 C508 1.397 . S
C509 C510 1.391 . S
C510 C509 1.391 . S
C510 C511 1.405 . S
C511 H485 0.950 . S
C511 C510 1.405 . S
C511 C512 1.367 . S
C512 H486 0.950 . S
C512 C507 1.386 . S
C512 C511 1.367 . S
C513 C507 1.483 . S
C513 C514 1.382 . S
C513 C515 1.403 . S
C514 H487 0.950 . S
C514 C500 1.411 . S
C514 C513 1.382 . S
C515 C499 1.411 . S
C515 C513 1.403 . S
C515 C516 1.489 . S
C516 C515 1.489 . S
C516 C517 1.383 . S
C516 C521 1.382 . S
C517 H488 0.950 . S
C517 C516 1.383 . S
C517 C518 1.395 . S
C518 H489 0.950 . S
C518 C517 1.395 . S
C518 C519 1.288 . S
C519 C518 1.288 . S
C519 C520 1.392 . S
C520 H490 0.951 . S
C520 C519 1.392 . S
C520 C521 1.392 . S
C521 H491 0.949 . S
C521 C516 1.382 . S
C521 C520 1.392 . S
H522 C541 0.949 . S
H523 C542 0.950 . S
H524 C544 0.950 . S
H525 C545 0.950 . S
H526 C547 0.950 . S
H527 C550 0.950 . S
H528 C551 0.950 . S
H529 C553 0.951 . S
H530 C554 0.949 . S
H531 C556 0.949 . S
H532 C557 0.950 . S
H533 C559 0.950 . S
H534 C560 0.950 . S
H535 C562 0.950 . S
H536 C565 0.950 . S
H537 C566 0.950 . S
H538 C568 0.951 . S
H539 C569 0.949 . S
C540 C541 1.376 . S
C540 C545 1.386 . S
C540 C546 1.483 . S
C541 H522 0.949 . S
C541 C540 1.376 . S
C541 C542 1.397 . S
C542 H523 0.950 . S
C542 C541 1.397 . S
C542 C543 1.391 . S
C543 C542 1.391 . S
C543 C544 1.405 . S
C544 H524 0.950 . S
C544 C543 1.405 . S
C544 C545 1.367 . S
C545 H525 0.950 . S
C545 C540 1.386 . S
C545 C544 1.367 . S
C546 C540 1.483 . S
C546 C547 1.382 . S
C546 C548 1.403 . S
C547 H526 0.950 . S
C547 C546 1.382 . S
C547 C563 1.411 . S
C548 C546 1.403 . S
C548 C549 1.489 . S
C548 C562 1.411 . S
C549 C548 1.489 . S
C549 C550 1.383 . S
C549 C554 1.382 . S
C550 H527 0.950 . S
C550 C549 1.383 . S
C550 C551 1.395 . S
C551 H528 0.950 . S
C551 C550 1.395 . S
C551 C552 1.288 . S
C552 C551 1.288 . S
C552 C553 1.392 . S
C553 H529 0.951 . S
C553 C552 1.392 . S
C553 C554 1.392 . S
C554 H530 0.949 . S
C554 C549 1.382 . S
C554 C553 1.392 . S
C555 C556 1.376 . S
C555 C560 1.386 . S
C555 C561 1.483 . S
C556 H531 0.949 . S
C556 C555 1.376 . S
C556 C557 1.397 . S
C557 H532 0.950 . S
C557 C556 1.397 . S
C557 C558 1.391 . S
C558 C557 1.391 . S
C558 C559 1.405 . S
C559 H533 0.950 . S
C559 C558 1.405 . S
C559 C560 1.367 . S
C560 H534 0.950 . S
C560 C555 1.386 . S
C560 C559 1.367 . S
C561 C555 1.483 . S
C561 C562 1.382 . S
C561 C563 1.403 . S
C562 H535 0.950 . S
C562 C548 1.411 . S
C562 C561 1.382 . S
C563 C547 1.411 . S
C563 C561 1.403 . S
C563 C564 1.489 . S
C564 C563 1.489 . S
C564 C565 1.383 . S
C564 C569 1.382 . S
C565 H536 0.950 . S
C565 C564 1.383 . S
C565 C566 1.395 . S
C566 H537 0.950 . S
C566 C565 1.395 . S
C566 C567 1.288 . S
C567 C566 1.288 . S
C567 C568 1.392 . S
C568 H538 0.951 . S
C568 C567 1.392 . S
C568 C569 1.392 . S
C569 H539 0.949 . S
C569 C564 1.382 . S
C569 C568 1.392 . S
H570 C589 0.949 . S
H571 C590 0.950 . S
H572 C592 0.950 . S
H573 C593 0.950 . S
H574 C595 0.950 . S
H575 C598 0.950 . S
H576 C599 0.950 . S
H577 C601 0.951 . S
H578 C602 0.949 . S
H579 C604 0.949 . S
H580 C605 0.950 . S
H581 C607 0.950 . S
H582 C608 0.950 . S
H583 C610 0.950 . S
H584 C613 0.950 . S
H585 C614 0.950 . S
H586 C616 0.951 . S
H587 C617 0.949 . S
C588 C589 1.376 . S
C588 C593 1.386 . S
C588 C594 1.483 . S
C589 H570 0.949 . S
C589 C588 1.376 . S
C589 C590 1.397 . S
C590 H571 0.950 . S
C590 C589 1.397 . S
C590 C591 1.391 . S
C591 C590 1.391 . S
C591 C592 1.405 . S
C592 H572 0.950 . S
C592 C591 1.405 . S
C592 C593 1.367 . S
C593 H573 0.950 . S
C593 C588 1.386 . S
C593 C592 1.367 . S
C594 C588 1.483 . S
C594 C595 1.382 . S
C594 C596 1.403 . S
C595 H574 0.950 . S
C595 C594 1.382 . S
C595 C611 1.411 . S
C596 C594 1.403 . S
C596 C597 1.489 . S
C596 C610 1.411 . S
C597 C596 1.489 . S
C597 C598 1.383 . S
C597 C602 1.382 . S
C598 H575 0.950 . S
C598 C597 1.383 . S
C598 C599 1.395 . S
C599 H576 0.950 . S
C599 C598 1.395 . S
C599 C600 1.288 . S
C600 C599 1.288 . S
C600 C601 1.392 . S
C601 H577 0.951 . S
C601 C600 1.392 . S
C601 C602 1.392 . S
C602 H578 0.949 . S
C602 C597 1.382 . S
C602 C601 1.392 . S
C603 C604 1.376 . S
C603 C608 1.386 . S
C603 C609 1.483 . S
C604 H579 0.949 . S
C604 C603 1.376 . S
C604 C605 1.397 . S
C605 H580 0.950 . S
C605 C604 1.397 . S
C605 C606 1.391 . S
C606 C605 1.391 . S
C606 C607 1.405 . S
C607 H581 0.950 . S
C607 C606 1.405 . S
C607 C608 1.367 . S
C608 H582 0.950 . S
C608 C603 1.386 . S
C608 C607 1.367 . S
C609 C603 1.483 . S
C609 C610 1.382 . S
C609 C611 1.403 . S
C610 H583 0.950 . S
C610 C596 1.411 . S
C610 C609 1.382 . S
C611 C595 1.411 . S
C611 C609 1.403 . S
C611 C612 1.489 . S
C612 C611 1.489 . S
C612 C613 1.383 . S
C612 C617 1.382 . S
C613 H584 0.950 . S
C613 C612 1.383 . S
C613 C614 1.395 . S
C614 H585 0.950 . S
C614 C613 1.395 . S
C614 C615 1.288 . S
C615 C614 1.288 . S
C615 C616 1.392 . S
C616 H586 0.951 . S
C616 C615 1.392 . S
C616 C617 1.392 . S
C617 H587 0.949 . S
C617 C612 1.382 . S
C617 C616 1.392 . S
H618 C637 0.949 . S
H619 C638 0.950 . S
H620 C640 0.950 . S
H621 C641 0.950 . S
H622 C643 0.950 . S
H623 C646 0.950 . S
H624 C647 0.950 . S
H625 C649 0.951 . S
H626 C650 0.949 . S
H627 C652 0.949 . S
H628 C653 0.950 . S
H629 C655 0.950 . S
H630 C656 0.950 . S
H631 C658 0.950 . S
H632 C661 0.950 . S
H633 C662 0.950 . S
H634 C664 0.951 . S
H635 C665 0.949 . S
C636 C637 1.376 . S
C636 C641 1.386 . S
C636 C642 1.483 . S
C637 H618 0.949 . S
C637 C636 1.376 . S
C637 C638 1.397 . S
C638 H619 0.950 . S
C638 C637 1.397 . S
C638 C639 1.391 . S
C639 C638 1.391 . S
C639 C640 1.405 . S
C640 H620 0.950 . S
C640 C639 1.405 . S
C640 C641 1.367 . S
C641 H621 0.950 . S
C641 C636 1.386 . S
C641 C640 1.367 . S
C642 C636 1.483 . S
C642 C643 1.382 . S
C642 C644 1.403 . S
C643 H622 0.950 . S
C643 C642 1.382 . S
C643 C659 1.411 . S
C644 C642 1.403 . S
C644 C645 1.489 . S
C644 C658 1.411 . S
C645 C644 1.489 . S
C645 C646 1.383 . S
C645 C650 1.382 . S
C646 H623 0.950 . S
C646 C645 1.383 . S
C646 C647 1.395 . S
C647 H624 0.950 . S
C647 C646 1.395 . S
C647 C648 1.288 . S
C648 C647 1.288 . S
C648 C649 1.392 . S
C649 H625 0.951 . S
C649 C648 1.392 . S
C649 C650 1.392 . S
C650 H626 0.949 . S
C650 C645 1.382 . S
C650 C649 1.392 . S
C651 C652 1.376 . S
C651 C656 1.386 . S
C651 C657 1.483 . S
C652 H627 0.949 . S
C652 C651 1.376 . S
C652 C653 1.397 . S
C653 H628 0.950 . S
C653 C652 1.397 . S
C653 C654 1.391 . S
C654 C653 1.391 . S
C654 C655 1.405 . S
C655 H629 0.950 . S
C655 C654 1.405 . S
C655 C656 1.367 . S
C656 H630 0.950 . S
C656 C651 1.386 . S
C656 C655 1.367 . S
C657 C651 1.483 . S
C657 C658 1.382 . S
C657 C659 1.403 . S
C658 H631 0.950 . S
C658 C644 1.411 . S
C658 C657 1.382 . S
C659 C643 1.411 . S
C659 C657 1.403 . S
C659 C660 1.489 . S
C660 C659 1.489 . S
C660 C661 1.383 . S
C660 C665 1.382 . S
C661 H632 0.950 . S
C661 C660 1.383 . S
C661 C662 1.395 . S
C662 H633 0.950 . S
C662 C661 1.395 . S
C662 C663 1.288 . S
C663 C662 1.288 . S
C663 C664 1.392 . S
C664 H634 0.951 . S
C664 C663 1.392 . S
C664 C665 1.392 . S
C665 H635 0.949 . S
C665 C660 1.382 . S
C665 C664 1.392 . S
H666 C685 0.949 . S
H667 C686 0.950 . S
H668 C688 0.950 . S
H669 C689 0.950 . S
H670 C691 0.950 . S
H671 C694 0.950 . S
H672 C695 0.950 . S
H673 C697 0.951 . S
H674 C698 0.949 . S
H675 C700 0.949 . S
H676 C701 0.950 . S
H677 C703 0.950 . S
H678 C704 0.950 . S
H679 C706 0.950 . S
H680 C709 0.950 . S
H681 C710 0.950 . S
H682 C712 0.951 . S
H683 C713 0.949 . S
C684 C685 1.376 . S
C684 C689 1.386 1_655 S
C684 C690 1.483 . S
C685 H666 0.949 . S
C685 C684 1.376 . S
C685 C686 1.397 . S
C686 H667 0.950 . S
C686 C685 1.397 . S
C686 C687 1.391 . S
C687 C686 1.391 . S
C687 C688 1.405 1_655 S
C688 H668 0.950 . S
C688 C687 1.405 1_455 S
C688 C689 1.367 . S
C689 H669 0.950 . S
C689 C684 1.386 1_455 S
C689 C688 1.367 . S
C690 C684 1.483 . S
C690 C691 1.382 . S
C690 C692 1.403 1_655 S
C691 H670 0.950 . S
C691 C690 1.382 . S
C691 C707 1.411 . S
C692 C690 1.403 1_455 S
C692 C693 1.489 . S
C692 C706 1.411 . S
C693 C692 1.489 . S
C693 C694 1.383 1_455 S
C693 C698 1.382 . S
C694 H671 0.950 . S
C694 C693 1.383 1_655 S
C694 C695 1.395 . S
C695 H672 0.950 . S
C695 C694 1.395 . S
C695 C696 1.288 1_655 S
C696 C695 1.288 1_455 S
C696 C697 1.392 . S
C697 H673 0.951 . S
C697 C696 1.392 . S
C697 C698 1.392 . S
C698 H674 0.949 . S
C698 C693 1.382 . S
C698 C697 1.392 . S
C699 C700 1.376 . S
C699 C704 1.386 1_455 S
C699 C705 1.483 . S
C700 H675 0.949 . S
C700 C699 1.376 . S
C700 C701 1.397 . S
C701 H676 0.950 . S
C701 C700 1.397 . S
C701 C702 1.391 . S
C702 C701 1.391 . S
C702 C703 1.405 1_455 S
C703 H677 0.950 . S
C703 C702 1.405 1_655 S
C703 C704 1.367 . S
C704 H678 0.950 . S
C704 C699 1.386 1_655 S
C704 C703 1.367 . S
C705 C699 1.483 . S
C705 C706 1.382 . S
C705 C707 1.403 1_455 S
C706 H679 0.950 . S
C706 C692 1.411 . S
C706 C705 1.382 . S
C707 C691 1.411 . S
C707 C705 1.403 1_655 S
C707 C708 1.489 . S
C708 C707 1.489 . S
C708 C709 1.383 1_655 S
C708 C713 1.382 . S
C709 H680 0.950 . S
C709 C708 1.383 1_455 S
C709 C710 1.395 . S
C710 H681 0.950 . S
C710 C709 1.395 . S
C710 C711 1.288 1_455 S
C711 C710 1.288 1_655 S
C711 C712 1.392 . S
C712 H682 0.951 . S
C712 C711 1.392 . S
C712 C713 1.392 . S
C713 H683 0.949 . S
C713 C708 1.382 . S
C713 C712 1.392 . S
H714 C733 0.949 . S
H715 C734 0.950 . S
H716 C736 0.950 . S
H717 C737 0.950 . S
H718 C739 0.950 . S
H719 C742 0.950 . S
H720 C743 0.950 . S
H721 C745 0.951 . S
H722 C746 0.949 . S
H723 C748 0.949 . S
H724 C749 0.950 . S
H725 C751 0.950 . S
H726 C752 0.950 . S
H727 C754 0.950 . S
H728 C757 0.950 . S
H729 C758 0.950 . S
H730 C760 0.951 . S
H731 C761 0.949 . S
C732 C733 1.376 . S
C732 C737 1.386 . S
C732 C738 1.483 . S
C733 H714 0.949 . S
C733 C732 1.376 . S
C733 C734 1.397 . S
C734 H715 0.950 . S
C734 C733 1.397 . S
C734 C735 1.391 . S
C735 C734 1.391 . S
C735 C736 1.405 . S
C736 H716 0.950 . S
C736 C735 1.405 . S
C736 C737 1.367 . S
C737 H717 0.950 . S
C737 C732 1.386 . S
C737 C736 1.367 . S
C738 C732 1.483 . S
C738 C739 1.382 . S
C738 C740 1.403 . S
C739 H718 0.950 . S
C739 C738 1.382 . S
C739 C755 1.411 . S
C740 C738 1.403 . S
C740 C741 1.489 . S
C740 C754 1.411 . S
C741 C740 1.489 . S
C741 C742 1.383 . S
C741 C746 1.382 . S
C742 H719 0.950 . S
C742 C741 1.383 . S
C742 C743 1.395 . S
C743 H720 0.950 . S
C743 C742 1.395 . S
C743 C744 1.288 . S
C744 C743 1.288 . S
C744 C745 1.392 . S
C745 H721 0.951 . S
C745 C744 1.392 . S
C745 C746 1.392 . S
C746 H722 0.949 . S
C746 C741 1.382 . S
C746 C745 1.392 . S
C747 C748 1.376 . S
C747 C752 1.386 . S
C747 C753 1.483 . S
C748 H723 0.949 . S
C748 C747 1.376 . S
C748 C749 1.397 . S
C749 H724 0.950 . S
C749 C748 1.397 . S
C749 C750 1.391 . S
C750 C749 1.391 . S
C750 C751 1.405 . S
C751 H725 0.950 . S
C751 C750 1.405 . S
C751 C752 1.367 . S
C752 H726 0.950 . S
C752 C747 1.386 . S
C752 C751 1.367 . S
C753 C747 1.483 . S
C753 C754 1.382 . S
C753 C755 1.403 . S
C754 H727 0.950 . S
C754 C740 1.411 . S
C754 C753 1.382 . S
C755 C739 1.411 . S
C755 C753 1.403 . S
C755 C756 1.489 . S
C756 C755 1.489 . S
C756 C757 1.383 . S
C756 C761 1.382 . S
C757 H728 0.950 . S
C757 C756 1.383 . S
C757 C758 1.395 . S
C758 H729 0.950 . S
C758 C757 1.395 . S
C758 C759 1.288 . S
C759 C758 1.288 . S
C759 C760 1.392 . S
C760 H730 0.951 . S
C760 C759 1.392 . S
C760 C761 1.392 . S
C761 H731 0.949 . S
C761 C756 1.382 . S
C761 C760 1.392 . S
H762 C781 0.949 . S
H763 C782 0.950 . S
H764 C784 0.950 . S
H765 C785 0.950 . S
H766 C787 0.950 . S
H767 C790 0.950 . S
H768 C791 0.950 . S
H769 C793 0.951 . S
H770 C794 0.949 . S
H771 C796 0.949 . S
H772 C797 0.950 . S
H773 C799 0.950 . S
H774 C800 0.950 . S
H775 C802 0.950 . S
H776 C805 0.950 . S
H777 C806 0.950 . S
H778 C808 0.951 . S
H779 C809 0.949 . S
C780 C781 1.376 . S
C780 C785 1.386 1_545 S
C780 C786 1.483 . S
C781 H762 0.949 . S
C781 C780 1.376 . S
C781 C782 1.397 . S
C782 H763 0.950 . S
C782 C781 1.397 . S
C782 C783 1.391 . S
C783 C782 1.391 . S
C783 C784 1.405 1_545 S
C784 H764 0.950 . S
C784 C783 1.405 1_565 S
C784 C785 1.367 . S
C785 H765 0.950 . S
C785 C780 1.386 1_565 S
C785 C784 1.367 . S
C786 C780 1.483 . S
C786 C787 1.382 . S
C786 C788 1.403 1_545 S
C787 H766 0.950 . S
C787 C786 1.382 . S
C787 C803 1.411 . S
C788 C786 1.403 1_565 S
C788 C789 1.489 . S
C788 C802 1.411 . S
C789 C788 1.489 . S
C789 C790 1.383 1_565 S
C789 C794 1.382 . S
C790 H767 0.950 . S
C790 C789 1.383 1_545 S
C790 C791 1.395 . S
C791 H768 0.950 . S
C791 C790 1.395 . S
C791 C792 1.288 1_545 S
C792 C791 1.288 1_565 S
C792 C793 1.392 . S
C793 H769 0.951 . S
C793 C792 1.392 . S
C793 C794 1.392 . S
C794 H770 0.949 . S
C794 C789 1.382 . S
C794 C793 1.392 . S
C795 C796 1.376 . S
C795 C800 1.386 1_565 S
C795 C801 1.483 . S
C796 H771 0.949 . S
C796 C795 1.376 . S
C796 C797 1.397 . S
C797 H772 0.950 . S
C797 C796 1.397 . S
C797 C798 1.391 . S
C798 C797 1.391 . S
C798 C799 1.405 1_565 S
C799 H773 0.950 . S
C799 C798 1.405 1_545 S
C799 C800 1.367 . S
C800 H774 0.950 . S
C800 C795 1.386 1_545 S
C800 C799 1.367 . S
C801 C795 1.483 . S
C801 C802 1.382 . S
C801 C803 1.403 1_565 S
C802 H775 0.950 . S
C802 C788 1.411 . S
C802 C801 1.382 . S
C803 C787 1.411 . S
C803 C801 1.403 1_545 S
C803 C804 1.489 . S
C804 C803 1.489 . S
C804 C805 1.383 1_545 S
C804 C809 1.382 . S
C805 H776 0.950 . S
C805 C804 1.383 1_565 S
C805 C806 1.395 . S
C806 H777 0.950 . S
C806 C805 1.395 . S
C806 C807 1.288 1_565 S
C807 C806 1.288 1_545 S
C807 C808 1.392 . S
C808 H778 0.951 . S
C808 C807 1.392 . S
C808 C809 1.392 . S
C809 H779 0.949 . S
C809 C804 1.382 . S
C809 C808 1.392 . S
H810 C829 0.949 . S
H811 C830 0.950 . S
H812 C832 0.950 . S
H813 C833 0.950 . S
H814 C835 0.950 . S
H815 C838 0.950 . S
H816 C839 0.950 . S
H817 C841 0.951 . S
H818 C842 0.949 . S
H819 C844 0.949 . S
H820 C845 0.950 . S
H821 C847 0.950 . S
H822 C848 0.950 . S
H823 C850 0.950 . S
H824 C853 0.950 . S
H825 C854 0.950 . S
H826 C856 0.951 . S
H827 C857 0.949 . S
C828 C829 1.404 . S
C828 C833 1.374 1_545 S
C828 C834 1.499 . S
C829 H810 0.949 . S
C829 C828 1.404 . S
C829 C830 1.397 . S
C830 H811 0.950 . S
C830 C829 1.397 . S
C830 C831 1.391 1_545 S
C831 C830 1.391 1_565 S
C831 C832 1.405 . S
C832 H812 0.950 . S
C832 C831 1.405 . S
C832 C833 1.367 . S
C833 H813 0.950 . S
C833 C828 1.374 1_565 S
C833 C832 1.367 . S
C834 C828 1.499 . S
C834 C835 1.349 . S
C834 C836 1.401 1_545 S
C835 H814 0.950 . S
C835 C834 1.349 . S
C835 C851 1.437 . S
C836 C834 1.401 1_565 S
C836 C837 1.475 . S
C836 C850 1.426 . S
C837 C836 1.475 . S
C837 C838 1.384 1_565 S
C837 C842 1.381 . S
C838 H815 0.950 . S
C838 C837 1.384 1_545 S
C838 C839 1.395 . S
C839 H816 0.950 . S
C839 C838 1.395 . S
C839 C840 1.288 . S
C840 C839 1.288 . S
C840 C841 1.392 1_545 S
C841 H817 0.951 . S
C841 C840 1.392 1_565 S
C841 C842 1.392 . S
C842 H818 0.949 . S
C842 C837 1.381 . S
C842 C841 1.392 . S
C843 C844 1.388 . S
C843 C848 1.381 1_565 S
C843 C849 1.499 . S
C844 H819 0.949 . S
C844 C843 1.388 . S
C844 C845 1.397 . S
C845 H820 0.950 . S
C845 C844 1.397 . S
C845 C846 1.391 1_565 S
C846 C845 1.391 1_545 S
C846 C847 1.405 . S
C847 H821 0.950 . S
C847 C846 1.405 . S
C847 C848 1.367 . S
C848 H822 0.950 . S
C848 C843 1.381 1_545 S
C848 C847 1.367 . S
C849 C843 1.499 . S
C849 C850 1.358 . S
C849 C851 1.401 1_565 S
C850 H823 0.950 . S
C850 C836 1.426 . S
C850 C849 1.358 . S
C851 C835 1.437 . S
C851 C849 1.401 1_545 S
C851 C852 1.475 . S
C852 C851 1.475 . S
C852 C853 1.363 1_545 S
C852 C857 1.392 . S
C853 H824 0.950 . S
C853 C852 1.363 1_565 S
C853 C854 1.395 . S
C854 H825 0.950 . S
C854 C853 1.395 . S
C854 C855 1.288 . S
C855 C854 1.288 . S
C855 C856 1.392 1_565 S
C856 H826 0.951 . S
C856 C855 1.392 1_545 S
C856 C857 1.392 . S
C857 H827 0.949 . S
C857 C852 1.392 . S
C857 C856 1.392 . S
H858 C877 0.949 . S
H859 C878 0.950 . S
H860 C880 0.950 . S
H861 C881 0.950 . S
H862 C883 0.950 . S
H863 C886 0.950 . S
H864 C887 0.950 . S
H865 C889 0.951 . S
H866 C890 0.949 . S
H867 C892 0.949 . S
H868 C893 0.950 . S
H869 C895 0.950 . S
H870 C896 0.950 . S
H871 C898 0.950 . S
H872 C901 0.950 . S
H873 C902 0.950 . S
H874 C904 0.951 . S
H875 C905 0.949 . S
C876 C877 1.376 . S
C876 C881 1.386 1_455 S
C876 C882 1.483 . S
C877 H858 0.949 . S
C877 C876 1.376 . S
C877 C878 1.397 . S
C878 H859 0.950 . S
C878 C877 1.397 . S
C878 C879 1.391 . S
C879 C878 1.391 . S
C879 C880 1.405 1_455 S
C880 H860 0.950 . S
C880 C879 1.405 1_655 S
C880 C881 1.367 . S
C881 H861 0.950 . S
C881 C876 1.386 1_655 S
C881 C880 1.367 . S
C882 C876 1.483 . S
C882 C883 1.382 . S
C882 C884 1.403 1_455 S
C883 H862 0.950 . S
C883 C882 1.382 . S
C883 C899 1.411 . S
C884 C882 1.403 1_655 S
C884 C885 1.489 . S
C884 C898 1.411 . S
C885 C884 1.489 . S
C885 C886 1.383 1_655 S
C885 C890 1.382 . S
C886 H863 0.950 . S
C886 C885 1.383 1_455 S
C886 C887 1.395 . S
C887 H864 0.950 . S
C887 C886 1.395 . S
C887 C888 1.288 1_455 S
C888 C887 1.288 1_655 S
C888 C889 1.392 . S
C889 H865 0.951 . S
C889 C888 1.392 . S
C889 C890 1.392 . S
C890 H866 0.949 . S
C890 C885 1.382 . S
C890 C889 1.392 . S
C891 C892 1.376 . S
C891 C896 1.386 1_655 S
C891 C897 1.483 . S
C892 H867 0.949 . S
C892 C891 1.376 . S
C892 C893 1.397 . S
C893 H868 0.950 . S
C893 C892 1.397 . S
C893 C894 1.391 . S
C894 C893 1.391 . S
C894 C895 1.405 1_655 S
C895 H869 0.950 . S
C895 C894 1.405 1_455 S
C895 C896 1.367 . S
C896 H870 0.950 . S
C896 C891 1.386 1_455 S
C896 C895 1.367 . S
C897 C891 1.483 . S
C897 C898 1.382 . S
C897 C899 1.403 1_655 S
C898 H871 0.950 . S
C898 C884 1.411 . S
C898 C897 1.382 . S
C899 C883 1.411 . S
C899 C897 1.403 1_455 S
C899 C900 1.489 . S
C900 C899 1.489 . S
C900 C901 1.383 1_455 S
C900 C905 1.382 . S
C901 H872 0.950 . S
C901 C900 1.383 1_655 S
C901 C902 1.395 . S
C902 H873 0.950 . S
C902 C901 1.395 . S
C902 C903 1.288 1_655 S
C903 C902 1.288 1_455 S
C903 C904 1.392 . S
C904 H874 0.951 . S
C904 C903 1.392 . S
C904 C905 1.392 . S
C905 H875 0.949 . S
C905 C900 1.382 . S
C905 C904 1.392 . S
H906 C925 0.949 . S
H907 C926 0.950 . S
H908 C928 0.950 . S
H909 C929 0.950 . S
H910 C931 0.950 . S
H911 C934 0.950 . S
H912 C935 0.950 . S
H913 C937 0.951 . S
H914 C938 0.949 . S
H915 C940 0.949 . S
H916 C941 0.950 . S
H917 C943 0.950 . S
H918 C944 0.950 . S
H919 C946 0.950 . S
H920 C949 0.950 . S
H921 C950 0.950 . S
H922 C952 0.951 . S
H923 C953 0.949 . S
C924 C925 1.376 . S
C924 C929 1.386 . S
C924 C930 1.483 . S
C925 H906 0.949 . S
C925 C924 1.376 . S
C925 C926 1.397 . S
C926 H907 0.950 . S
C926 C925 1.397 . S
C926 C927 1.391 . S
C927 C926 1.391 . S
C927 C928 1.405 . S
C928 H908 0.950 . S
C928 C927 1.405 . S
C928 C929 1.367 . S
C929 H909 0.950 . S
C929 C924 1.386 . S
C929 C928 1.367 . S
C930 C924 1.483 . S
C930 C931 1.382 . S
C930 C932 1.403 . S
C931 H910 0.950 . S
C931 C930 1.382 . S
C931 C947 1.411 . S
C932 C930 1.403 . S
C932 C933 1.489 . S
C932 C946 1.411 . S
C933 C932 1.489 . S
C933 C934 1.383 . S
C933 C938 1.382 . S
C934 H911 0.950 . S
C934 C933 1.383 . S
C934 C935 1.395 . S
C935 H912 0.950 . S
C935 C934 1.395 . S
C935 C936 1.288 . S
C936 C935 1.288 . S
C936 C937 1.392 . S
C937 H913 0.951 . S
C937 C936 1.392 . S
C937 C938 1.392 . S
C938 H914 0.949 . S
C938 C933 1.382 . S
C938 C937 1.392 . S
C939 C940 1.376 . S
C939 C944 1.386 . S
C939 C945 1.483 . S
C940 H915 0.949 . S
C940 C939 1.376 . S
C940 C941 1.397 . S
C941 H916 0.950 . S
C941 C940 1.397 . S
C941 C942 1.391 . S
C942 C941 1.391 . S
C942 C943 1.405 . S
C943 H917 0.950 . S
C943 C942 1.405 . S
C943 C944 1.367 . S
C944 H918 0.950 . S
C944 C939 1.386 . S
C944 C943 1.367 . S
C945 C939 1.483 . S
C945 C946 1.382 . S
C945 C947 1.403 . S
C946 H919 0.950 . S
C946 C932 1.411 . S
C946 C945 1.382 . S
C947 C931 1.411 . S
C947 C945 1.403 . S
C947 C948 1.489 . S
C948 C947 1.489 . S
C948 C949 1.383 . S
C948 C953 1.382 . S
C949 H920 0.950 . S
C949 C948 1.383 . S
C949 C950 1.395 . S
C950 H921 0.950 . S
C950 C949 1.395 . S
C950 C951 1.288 . S
C951 C950 1.288 . S
C951 C952 1.392 . S
C952 H922 0.951 . S
C952 C951 1.392 . S
C952 C953 1.392 . S
C953 H923 0.949 . S
C953 C948 1.382 . S
C953 C952 1.392 . S
H954 C973 0.949 . S
H955 C974 0.950 . S
H956 C976 0.950 . S
H957 C977 0.950 . S
H958 C979 0.950 . S
H959 C982 0.950 . S
H960 C983 0.950 . S
H961 C985 0.951 . S
H962 C986 0.949 . S
H963 C988 0.949 . S
H964 C989 0.950 . S
H965 C991 0.950 . S
H966 C992 0.950 . S
H967 C994 0.950 . S
H968 C997 0.950 . S
H969 C998 0.950 . S
H970 C1000 0.951 . S
H971 C1001 0.949 . S
C972 C973 1.376 . S
C972 C977 1.386 . S
C972 C978 1.483 . S
C973 H954 0.949 . S
C973 C972 1.376 . S
C973 C974 1.397 . S
C974 H955 0.950 . S
C974 C973 1.397 . S
C974 C975 1.391 . S
C975 C974 1.391 . S
C975 C976 1.405 . S
C976 H956 0.950 . S
C976 C975 1.405 . S
C976 C977 1.367 . S
C977 H957 0.950 . S
C977 C972 1.386 . S
C977 C976 1.367 . S
C978 C972 1.483 . S
C978 C979 1.382 . S
C978 C980 1.403 . S
C979 H958 0.950 . S
C979 C978 1.382 . S
C979 C995 1.411 . S
C980 C978 1.403 . S
C980 C981 1.489 . S
C980 C994 1.411 . S
C981 C980 1.489 . S
C981 C982 1.383 . S
C981 C986 1.382 . S
C982 H959 0.950 . S
C982 C981 1.383 . S
C982 C983 1.395 . S
C983 H960 0.950 . S
C983 C982 1.395 . S
C983 C984 1.288 . S
C984 C983 1.288 . S
C984 C985 1.392 . S
C985 H961 0.951 . S
C985 C984 1.392 . S
C985 C986 1.392 . S
C986 H962 0.949 . S
C986 C981 1.382 . S
C986 C985 1.392 . S
C987 C988 1.376 . S
C987 C992 1.386 . S
C987 C993 1.483 . S
C988 H963 0.949 . S
C988 C987 1.376 . S
C988 C989 1.397 . S
C989 H964 0.950 . S
C989 C988 1.397 . S
C989 C990 1.391 . S
C990 C989 1.391 . S
C990 C991 1.405 . S
C991 H965 0.950 . S
C991 C990 1.405 . S
C991 C992 1.367 . S
C992 H966 0.950 . S
C992 C987 1.386 . S
C992 C991 1.367 . S
C993 C987 1.483 . S
C993 C994 1.382 . S
C993 C995 1.403 . S
C994 H967 0.950 . S
C994 C980 1.411 . S
C994 C993 1.382 . S
C995 C979 1.411 . S
C995 C993 1.403 . S
C995 C996 1.489 . S
C996 C995 1.489 . S
C996 C997 1.383 . S
C996 C1001 1.382 . S
C997 H968 0.950 . S
C997 C996 1.383 . S
C997 C998 1.395 . S
C998 H969 0.950 . S
C998 C997 1.395 . S
C998 C999 1.288 . S
C999 C998 1.288 . S
C999 C1000 1.392 . S
C1000 H970 0.951 . S
C1000 C999 1.392 . S
C1000 C1001 1.392 . S
C1001 H971 0.949 . S
C1001 C996 1.382 . S
C1001 C1000 1.392 . S
H1002 C1021 0.949 . S
H1003 C1022 0.950 . S
H1004 C1024 0.950 . S
H1005 C1025 0.950 . S
H1006 C1027 0.950 . S
H1007 C1030 0.950 . S
H1008 C1031 0.950 . S
H1009 C1033 0.951 . S
H1010 C1034 0.949 . S
H1011 C1036 0.949 . S
H1012 C1037 0.950 . S
H1013 C1039 0.950 . S
H1014 C1040 0.950 . S
H1015 C1042 0.950 . S
H1016 C1045 0.950 . S
H1017 C1046 0.950 . S
H1018 C1048 0.951 . S
H1019 C1049 0.949 . S
C1020 C1021 1.376 . S
C1020 C1025 1.386 . S
C1020 C1026 1.483 . S
C1021 H1002 0.949 . S
C1021 C1020 1.376 . S
C1021 C1022 1.397 . S
C1022 H1003 0.950 . S
C1022 C1021 1.397 . S
C1022 C1023 1.391 . S
C1023 C1022 1.391 . S
C1023 C1024 1.405 . S
C1024 H1004 0.950 . S
C1024 C1023 1.405 . S
C1024 C1025 1.367 . S
C1025 H1005 0.950 . S
C1025 C1020 1.386 . S
C1025 C1024 1.367 . S
C1026 C1020 1.483 . S
C1026 C1027 1.382 . S
C1026 C1028 1.403 . S
C1027 H1006 0.950 . S
C1027 C1026 1.382 . S
C1027 C1043 1.411 . S
C1028 C1026 1.403 . S
C1028 C1029 1.489 . S
C1028 C1042 1.411 . S
C1029 C1028 1.489 . S
C1029 C1030 1.383 . S
C1029 C1034 1.382 . S
C1030 H1007 0.950 . S
C1030 C1029 1.383 . S
C1030 C1031 1.395 . S
C1031 H1008 0.950 . S
C1031 C1030 1.395 . S
C1031 C1032 1.288 . S
C1032 C1031 1.288 . S
C1032 C1033 1.392 . S
C1033 H1009 0.951 . S
C1033 C1032 1.392 . S
C1033 C1034 1.392 . S
C1034 H1010 0.949 . S
C1034 C1029 1.382 . S
C1034 C1033 1.392 . S
C1035 C1036 1.376 . S
C1035 C1040 1.386 . S
C1035 C1041 1.483 . S
C1036 H1011 0.949 . S
C1036 C1035 1.376 . S
C1036 C1037 1.397 . S
C1037 H1012 0.950 . S
C1037 C1036 1.397 . S
C1037 C1038 1.391 . S
C1038 C1037 1.391 . S
C1038 C1039 1.405 . S
C1039 H1013 0.950 . S
C1039 C1038 1.405 . S
C1039 C1040 1.367 . S
C1040 H1014 0.950 . S
C1040 C1035 1.386 . S
C1040 C1039 1.367 . S
C1041 C1035 1.483 . S
C1041 C1042 1.382 . S
C1041 C1043 1.403 . S
C1042 H1015 0.950 . S
C1042 C1028 1.411 . S
C1042 C1041 1.382 . S
C1043 C1027 1.411 . S
C1043 C1041 1.403 . S
C1043 C1044 1.489 . S
C1044 C1043 1.489 . S
C1044 C1045 1.383 . S
C1044 C1049 1.382 . S
C1045 H1016 0.950 . S
C1045 C1044 1.383 . S
C1045 C1046 1.395 . S
C1046 H1017 0.950 . S
C1046 C1045 1.395 . S
C1046 C1047 1.288 . S
C1047 C1046 1.288 . S
C1047 C1048 1.392 . S
C1048 H1018 0.951 . S
C1048 C1047 1.392 . S
C1048 C1049 1.392 . S
C1049 H1019 0.949 . S
C1049 C1044 1.382 . S
C1049 C1048 1.392 . S
H1050 C1069 0.949 . S
H1051 C1070 0.950 . S
H1052 C1072 0.950 . S
H1053 C1073 0.950 . S
H1054 C1075 0.950 . S
H1055 C1078 0.950 . S
H1056 C1079 0.950 . S
H1057 C1081 0.951 . S
H1058 C1082 0.949 . S
H1059 C1084 0.949 . S
H1060 C1085 0.950 . S
H1061 C1087 0.950 . S
H1062 C1088 0.950 . S
H1063 C1090 0.950 . S
H1064 C1093 0.950 . S
H1065 C1094 0.950 . S
H1066 C1096 0.951 . S
H1067 C1097 0.949 . S
C1068 C1069 1.376 . S
C1068 C1073 1.386 . S
C1068 C1074 1.483 . S
C1069 H1050 0.949 . S
C1069 C1068 1.376 . S
C1069 C1070 1.397 . S
C1070 H1051 0.950 . S
C1070 C1069 1.397 . S
C1070 C1071 1.391 . S
C1071 C1070 1.391 . S
C1071 C1072 1.405 . S
C1072 H1052 0.950 . S
C1072 C1071 1.405 . S
C1072 C1073 1.367 . S
C1073 H1053 0.950 . S
C1073 C1068 1.386 . S
C1073 C1072 1.367 . S
C1074 C1068 1.483 . S
C1074 C1075 1.382 . S
C1074 C1076 1.403 . S
C1075 H1054 0.950 . S
C1075 C1074 1.382 . S
C1075 C1091 1.411 . S
C1076 C1074 1.403 . S
C1076 C1077 1.489 . S
C1076 C1090 1.411 . S
C1077 C1076 1.489 . S
C1077 C1078 1.383 . S
C1077 C1082 1.382 . S
C1078 H1055 0.950 . S
C1078 C1077 1.383 . S
C1078 C1079 1.395 . S
C1079 H1056 0.950 . S
C1079 C1078 1.395 . S
C1079 C1080 1.288 . S
C1080 C1079 1.288 . S
C1080 C1081 1.392 . S
C1081 H1057 0.951 . S
C1081 C1080 1.392 . S
C1081 C1082 1.392 . S
C1082 H1058 0.949 . S
C1082 C1077 1.382 . S
C1082 C1081 1.392 . S
C1083 C1084 1.376 . S
C1083 C1088 1.386 . S
C1083 C1089 1.483 . S
C1084 H1059 0.949 . S
C1084 C1083 1.376 . S
C1084 C1085 1.397 . S
C1085 H1060 0.950 . S
C1085 C1084 1.397 . S
C1085 C1086 1.391 . S
C1086 C1085 1.391 . S
C1086 C1087 1.405 . S
C1087 H1061 0.950 . S
C1087 C1086 1.405 . S
C1087 C1088 1.367 . S
C1088 H1062 0.950 . S
C1088 C1083 1.386 . S
C1088 C1087 1.367 . S
C1089 C1083 1.483 . S
C1089 C1090 1.382 . S
C1089 C1091 1.403 . S
C1090 H1063 0.950 . S
C1090 C1076 1.411 . S
C1090 C1089 1.382 . S
C1091 C1075 1.411 . S
C1091 C1089 1.403 . S
C1091 C1092 1.489 . S
C1092 C1091 1.489 . S
C1092 C1093 1.383 . S
C1092 C1097 1.382 . S
C1093 H1064 0.950 . S
C1093 C1092 1.383 . S
C1093 C1094 1.395 . S
C1094 H1065 0.950 . S
C1094 C1093 1.395 . S
C1094 C1095 1.288 . S
C1095 C1094 1.288 . S
C1095 C1096 1.392 . S
C1096 H1066 0.951 . S
C1096 C1095 1.392 . S
C1096 C1097 1.392 . S
C1097 H1067 0.949 . S
C1097 C1092 1.382 . S
C1097 C1096 1.392 . S
H1098 C1106 0.929 . S
H1099 C1108 0.930 . S
H1100 C1110 0.930 . S
H1101 C1113 0.929 . S
H1102 C1116 0.930 . S
H1103 C1118 0.960 . S
H1104 C1118 1.020 . S
H1105 C1118 0.960 . S
C1106 H1098 0.929 . S
C1106 C1107 1.377 . S
C1106 C1108 1.384 . S
C1107 C1106 1.377 . S
C1107 C1113 1.390 1_655 S
C1108 H1099 0.930 . S
C1108 C1106 1.384 . S
C1108 C1109 1.372 . S
C1109 C1108 1.372 . S
C1109 C1110 1.400 1_655 S
C1109 C1114 1.490 . S
C1110 H1100 0.930 . S
C1110 C1109 1.400 1_455 S
C1110 C1113 1.386 . S
H1111 C1127 0.930 . S
H1112 C1128 0.931 . S
C1113 H1101 0.929 . S
C1113 C1107 1.390 1_455 S
C1113 C1110 1.386 . S
C1114 C1109 1.490 . S
C1114 C1116 1.395 . S
C1114 C1117 1.403 1_655 S
H1115 C1121 0.930 . S
C1116 H1102 0.930 . S
C1116 C1114 1.395 . S
C1116 C1119 1.403 . S
C1117 C1114 1.403 1_455 S
C1117 C1118 1.524 . S
C1117 C1121 1.400 . S
C1118 H1103 0.960 . S
C1118 H1104 1.020 . S
C1118 H1105 0.960 . S
C1118 C1117 1.524 . S
C1119 C1116 1.403 . S
C1119 C1120 1.392 . S
C1119 C1123 1.495 . S
C1120 C1119 1.392 . S
C1120 C1121 1.385 1_655 S
C1120 C1122 1.478 . S
C1121 H1115 0.930 . S
C1121 C1117 1.400 . S
C1121 C1120 1.385 1_455 S
C1122 C1120 1.478 . S
C1122 C1124 1.381 . S
C1122 C1128 1.383 1_655 S
C1123 C1119 1.495 . S
C1123 H1129 0.959 . S
C1123 H1130 0.961 . S
C1123 H1131 0.960 . S
C1124 C1122 1.381 . S
C1124 C1125 1.394 . S
C1124 H1132 0.930 . S
C1125 C1124 1.394 . S
C1125 C1126 1.383 . S
C1125 H1133 0.929 . S
C1126 C1125 1.383 . S
C1126 C1127 1.377 1_655 S
C1127 H1111 0.930 . S
C1127 C1126 1.377 1_455 S
C1127 C1128 1.379 . S
C1128 H1112 0.931 . S
C1128 C1122 1.383 1_455 S
C1128 C1127 1.379 . S
H1129 C1123 0.959 . S
H1130 C1123 0.961 . S
H1131 C1123 0.960 . S
H1132 C1124 0.930 . S
H1133 C1125 0.929 . S
H1134 C1142 0.929 . S
H1135 C1144 0.930 . S
H1136 C1146 0.930 . S
H1137 C1149 0.929 . S
H1138 C1152 0.930 . S
H1139 C1154 0.960 . S
H1140 C1154 0.960 . S
H1141 C1154 0.960 . S
C1142 H1134 0.929 . S
C1142 C1143 1.377 . S
C1142 C1144 1.384 . S
C1143 C1142 1.377 . S
C1143 C1149 1.390 . S
C1144 H1135 0.930 . S
C1144 C1142 1.384 . S
C1144 C1145 1.372 . S
C1145 C1144 1.372 . S
C1145 C1146 1.400 . S
C1145 C1150 1.490 . S
C1146 H1136 0.930 . S
C1146 C1145 1.400 . S
C1146 C1149 1.386 . S
H1147 C1163 0.930 . S
H1148 C1164 0.931 . S
C1149 H1137 0.929 . S
C1149 C1143 1.390 . S
C1149 C1146 1.386 . S
C1150 C1145 1.490 . S
C1150 C1152 1.395 . S
C1150 C1153 1.403 . S
H1151 C1157 0.930 . S
C1152 H1138 0.930 . S
C1152 C1150 1.395 . S
C1152 C1155 1.403 . S
C1153 C1150 1.403 . S
C1153 C1154 1.524 . S
C1153 C1157 1.400 . S
C1154 H1139 0.960 . S
C1154 H1140 0.960 . S
C1154 H1141 0.960 . S
C1154 C1153 1.524 . S
C1155 C1152 1.403 . S
C1155 C1156 1.392 . S
C1155 C1159 1.495 . S
C1156 C1155 1.392 . S
C1156 C1157 1.385 . S
C1156 C1158 1.478 . S
C1157 H1151 0.930 . S
C1157 C1153 1.400 . S
C1157 C1156 1.385 . S
C1158 C1156 1.478 . S
C1158 C1160 1.381 . S
C1158 C1164 1.383 . S
C1159 C1155 1.495 . S
C1159 H1165 0.959 . S
C1159 H1166 0.961 . S
C1159 H1167 0.960 . S
C1160 C1158 1.381 . S
C1160 C1161 1.394 . S
C1160 H1168 0.930 . S
C1161 C1160 1.394 . S
C1161 C1162 1.383 . S
C1161 H1169 0.929 . S
C1162 C1161 1.383 . S
C1162 C1163 1.377 . S
C1163 H1147 0.930 . S
C1163 C1162 1.377 . S
C1163 C1164 1.379 . S
C1164 H1148 0.931 . S
C1164 C1158 1.383 . S
C1164 C1163 1.379 . S
H1165 C1159 0.959 . S
H1166 C1159 0.961 . S
H1167 C1159 0.960 . S
H1168 C1160 0.930 . S
H1169 C1161 0.929 . S
H1170 C1178 0.929 . S
H1171 C1180 0.930 . S
H1172 C1182 0.930 . S
H1173 C1185 0.929 . S
H1174 C1188 0.930 . S
H1175 C1190 0.960 . S
H1176 C1190 0.960 . S
H1177 C1190 0.960 . S
C1178 H1170 0.929 . S
C1178 C1179 1.377 . S
C1178 C1180 1.384 . S
C1179 C1178 1.377 . S
C1179 C1185 1.390 . S
C1180 H1171 0.930 . S
C1180 C1178 1.384 . S
C1180 C1181 1.372 . S
C1181 C1180 1.372 . S
C1181 C1182 1.400 . S
C1181 C1186 1.490 . S
C1182 H1172 0.930 . S
C1182 C1181 1.400 . S
C1182 C1185 1.386 . S
H1183 C1199 0.918 1_565 S
H1184 C1200 0.931 . S
C1185 H1173 0.929 . S
C1185 C1179 1.390 . S
C1185 C1182 1.386 . S
C1186 C1181 1.490 . S
C1186 C1188 1.395 . S
C1186 C1189 1.403 1_545 S
H1187 C1193 0.930 . S
C1188 H1174 0.930 . S
C1188 C1186 1.395 . S
C1188 C1191 1.403 . S
C1189 C1186 1.403 1_565 S
C1189 C1190 1.524 . S
C1189 C1193 1.400 . S
C1190 H1175 0.960 . S
C1190 H1176 0.960 . S
C1190 H1177 0.960 . S
C1190 C1189 1.524 . S
C1191 C1188 1.403 . S
C1191 C1192 1.392 . S
C1191 C1195 1.495 . S
C1192 C1191 1.392 . S
C1192 C1193 1.385 1_545 S
C1192 C1194 1.478 . S
C1193 H1187 0.930 . S
C1193 C1189 1.400 . S
C1193 C1192 1.385 1_565 S
C1194 C1192 1.478 . S
C1194 C1196 1.381 . S
C1194 C1200 1.383 . S
C1195 C1191 1.495 . S
C1195 H1201 0.959 . S
C1195 H1202 0.961 . S
C1195 H1203 0.960 . S
C1196 C1194 1.381 . S
C1196 C1197 1.394 . S
C1196 H1204 0.930 . S
C1197 C1196 1.394 . S
C1197 C1198 1.383 . S
C1197 H1205 0.929 . S
C1198 C1197 1.383 . S
C1198 C1199 1.377 . S
C1199 H1183 0.918 1_545 S
C1199 C1198 1.377 . S
C1199 C1200 1.379 . S
C1200 H1184 0.931 . S
C1200 C1194 1.383 . S
C1200 C1199 1.379 . S
H1201 C1195 0.959 . S
H1202 C1195 0.961 . S
H1203 C1195 0.960 . S
H1204 C1196 0.930 . S
H1205 C1197 0.929 . S
H1206 C1214 0.929 . S
H1207 C1216 0.930 . S
H1208 C1218 0.930 . S
H1209 C1221 0.929 . S
H1210 C1224 0.930 . S
H1211 C1226 0.960 . S
H1212 C1226 0.960 . S
H1213 C1226 0.960 . S
C1214 H1206 0.929 . S
C1214 C1215 1.365 . S
C1214 C1216 1.384 . S
C1215 C1214 1.365 . S
C1215 C1221 1.377 1_545 S
C1216 H1207 0.930 . S
C1216 C1214 1.384 . S
C1216 C1217 1.380 . S
C1217 C1216 1.380 . S
C1217 C1218 1.409 1_545 S
C1217 C1222 1.471 1_545 S
C1218 H1208 0.930 . S
C1218 C1217 1.409 1_565 S
C1218 C1221 1.386 . S
H1219 C1235 0.930 . S
H1220 C1236 0.931 . S
C1221 H1209 0.929 . S
C1221 C1215 1.377 1_565 S
C1221 C1218 1.386 . S
C1222 C1217 1.471 1_565 S
C1222 C1224 1.401 . S
C1222 C1225 1.400 1_565 S
H1223 C1229 0.930 . S
C1224 H1210 0.930 . S
C1224 C1222 1.401 . S
C1224 C1227 1.403 . S
C1225 C1222 1.400 1_545 S
C1225 C1226 1.524 . S
C1225 C1229 1.400 . S
C1226 H1211 0.960 . S
C1226 H1212 0.960 . S
C1226 H1213 0.960 . S
C1226 C1225 1.524 . S
C1227 C1224 1.403 . S
C1227 C1228 1.392 . S
C1227 C1231 1.495 . S
C1228 C1227 1.392 . S
C1228 C1229 1.385 1_565 S
C1228 C1230 1.478 . S
C1229 H1223 0.930 . S
C1229 C1225 1.400 . S
C1229 C1228 1.385 1_545 S
C1230 C1228 1.478 . S
C1230 C1232 1.381 1_565 S
C1230 C1236 1.383 . S
C1231 C1227 1.495 . S
C1231 H1237 0.959 . S
C1231 H1238 0.961 . S
C1231 H1239 0.960 . S
C1232 C1230 1.381 1_545 S
C1232 C1233 1.394 . S
C1232 H1240 0.930 . S
C1233 C1232 1.394 . S
C1233 C1234 1.383 1_545 S
C1233 H1241 0.929 . S
C1234 C1233 1.383 1_565 S
C1234 C1235 1.377 . S
C1235 H1219 0.930 . S
C1235 C1234 1.377 . S
C1235 C1236 1.379 . S
C1236 H1220 0.931 . S
C1236 C1230 1.383 . S
C1236 C1235 1.379 . S
H1237 C1231 0.959 . S
H1238 C1231 0.961 . S
H1239 C1231 0.960 . S
H1240 C1232 0.930 . S
H1241 C1233 0.929 . S
H1242 C1250 0.929 . S
H1243 C1252 0.930 . S
H1244 C1254 0.930 . S
H1245 C1257 0.929 . S
H1246 C1260 0.930 . S
H1247 C1262 0.960 . S
H1248 C1262 0.960 . S
H1249 C1262 0.960 . S
C1250 H1242 0.929 . S
C1250 C1251 1.377 1_655 S
C1250 C1252 1.384 . S
C1251 C1250 1.377 1_455 S
C1251 C1257 1.390 . S
C1252 H1243 0.930 . S
C1252 C1250 1.384 . S
C1252 C1253 1.372 1_655 S
C1253 C1252 1.372 1_455 S
C1253 C1254 1.400 . S
C1253 C1258 1.490 . S
C1254 H1244 0.930 . S
C1254 C1253 1.400 . S
C1254 C1257 1.386 . S
H1255 C1271 0.930 . S
H1256 C1272 0.931 . S
C1257 H1245 0.929 . S
C1257 C1251 1.390 . S
C1257 C1254 1.386 . S
C1258 C1253 1.490 . S
C1258 C1260 1.395 1_455 S
C1258 C1261 1.403 . S
H1259 C1265 0.930 . S
C1260 H1246 0.930 . S
C1260 C1258 1.395 1_655 S
C1260 C1263 1.403 . S
C1261 C1258 1.403 . S
C1261 C1262 1.524 . S
C1261 C1265 1.400 . S
C1262 H1247 0.960 . S
C1262 H1248 0.960 . S
C1262 H1249 0.960 . S
C1262 C1261 1.524 . S
C1263 C1260 1.403 . S
C1263 C1264 1.392 1_655 S
C1263 C1267 1.495 . S
C1264 C1263 1.392 1_455 S
C1264 C1265 1.385 . S
C1264 C1266 1.478 . S
C1265 H1259 0.930 . S
C1265 C1261 1.400 . S
C1265 C1264 1.385 . S
C1266 C1264 1.478 . S
C1266 C1268 1.381 1_455 S
C1266 C1272 1.383 . S
C1267 C1263 1.495 . S
C1267 H1273 0.959 . S
C1267 H1274 0.961 . S
C1267 H1275 0.960 . S
C1268 C1266 1.381 1_655 S
C1268 C1269 1.394 . S
C1268 H1276 0.930 . S
C1269 C1268 1.394 . S
C1269 C1270 1.383 1_655 S
C1269 H1277 0.929 . S
C1270 C1269 1.383 1_455 S
C1270 C1271 1.377 . S
C1271 H1255 0.930 . S
C1271 C1270 1.377 . S
C1271 C1272 1.379 . S
C1272 H1256 0.931 . S
C1272 C1266 1.383 . S
C1272 C1271 1.379 . S
H1273 C1267 0.959 . S
H1274 C1267 0.961 . S
H1275 C1267 0.960 . S
H1276 C1268 0.930 . S
H1277 C1269 0.929 . S
H1278 C1286 0.929 . S
H1279 C1288 0.930 . S
H1280 C1290 0.930 . S
H1281 C1293 0.929 . S
H1282 C1296 0.930 . S
H1283 C1298 0.960 . S
H1284 C1298 0.960 . S
H1285 C1298 0.960 . S
C1286 H1278 0.929 . S
C1286 C1287 1.377 . S
C1286 C1288 1.384 . S
C1287 C1286 1.377 . S
C1287 C1293 1.390 . S
C1288 H1279 0.930 . S
C1288 C1286 1.384 . S
C1288 C1289 1.372 . S
C1289 C1288 1.372 . S
C1289 C1290 1.400 . S
C1289 C1294 1.490 . S
C1290 H1280 0.930 . S
C1290 C1289 1.400 . S
C1290 C1293 1.386 . S
H1291 C1307 0.930 . S
H1292 C1308 0.931 . S
C1293 H1281 0.929 . S
C1293 C1287 1.390 . S
C1293 C1290 1.386 . S
C1294 C1289 1.490 . S
C1294 C1296 1.395 . S
C1294 C1297 1.403 . S
H1295 C1301 0.930 . S
C1296 H1282 0.930 . S
C1296 C1294 1.395 . S
C1296 C1299 1.403 . S
C1297 C1294 1.403 . S
C1297 C1298 1.524 . S
C1297 C1301 1.400 . S
C1298 H1283 0.960 . S
C1298 H1284 0.960 . S
C1298 H1285 0.960 . S
C1298 C1297 1.524 . S
C1299 C1296 1.403 . S
C1299 C1300 1.392 . S
C1299 C1303 1.495 . S
C1300 C1299 1.392 . S
C1300 C1301 1.385 . S
C1300 C1302 1.478 . S
C1301 H1295 0.930 . S
C1301 C1297 1.400 . S
C1301 C1300 1.385 . S
C1302 C1300 1.478 . S
C1302 C1304 1.381 . S
C1302 C1308 1.383 . S
C1303 C1299 1.495 . S
C1303 H1309 0.959 . S
C1303 H1310 0.961 . S
C1303 H1311 0.960 . S
C1304 C1302 1.381 . S
C1304 C1305 1.394 . S
C1304 H1312 0.930 . S
C1305 C1304 1.394 . S
C1305 C1306 1.383 . S
C1305 H1313 0.929 . S
C1306 C1305 1.383 . S
C1306 C1307 1.377 . S
C1307 H1291 0.930 . S
C1307 C1306 1.377 . S
C1307 C1308 1.379 . S
C1308 H1292 0.931 . S
C1308 C1302 1.383 . S
C1308 C1307 1.379 . S
H1309 C1303 0.959 . S
H1310 C1303 0.961 . S
H1311 C1303 0.960 . S
H1312 C1304 0.930 . S
H1313 C1305 0.929 . S
H1314 C1322 0.929 . S
H1315 C1324 0.930 . S
H1316 C1326 0.930 . S
H1317 C1329 0.920 1_655 S
H1318 C1332 0.930 . S
H1319 C1334 0.960 . S
H1320 C1334 0.960 . S
H1321 C1334 0.960 . S
C1322 H1314 0.929 . S
C1322 C1323 1.377 . S
C1322 C1324 1.384 . S
C1323 C1322 1.377 . S
C1323 C1329 1.388 . S
C1324 H1315 0.930 . S
C1324 C1322 1.384 . S
C1324 C1325 1.372 . S
C1325 C1324 1.372 . S
C1325 C1326 1.399 1_455 S
C1325 C1330 1.490 . S
C1326 H1316 0.930 . S
C1326 C1325 1.399 1_655 S
C1326 C1329 1.398 1_655 S
H1327 C1343 0.930 . S
H1328 C1344 0.924 1_655 S
C1329 H1317 0.920 1_455 S
C1329 C1323 1.388 . S
C1329 C1326 1.398 1_455 S
C1330 C1325 1.490 . S
C1330 C1332 1.395 . S
C1330 C1333 1.403 1_455 S
H1331 C1337 0.930 . S
C1332 H1318 0.930 . S
C1332 C1330 1.395 . S
C1332 C1335 1.403 . S
C1333 C1330 1.403 1_655 S
C1333 C1334 1.524 . S
C1333 C1337 1.400 . S
C1334 H1319 0.960 . S
C1334 H1320 0.960 . S
C1334 H1321 0.960 . S
C1334 C1333 1.524 . S
C1335 C1332 1.403 . S
C1335 C1336 1.392 . S
C1335 C1339 1.495 . S
C1336 C1335 1.392 . S
C1336 C1337 1.385 1_455 S
C1336 C1338 1.478 . S
C1337 H1331 0.930 . S
C1337 C1333 1.400 . S
C1337 C1336 1.385 1_655 S
C1338 C1336 1.478 . S
C1338 C1340 1.381 . S
C1338 C1344 1.378 . S
C1339 C1335 1.495 . S
C1339 H1345 0.959 . S
C1339 H1346 0.961 . S
C1339 H1347 0.960 . S
C1340 C1338 1.381 . S
C1340 C1341 1.394 . S
C1340 H1348 0.930 . S
C1341 C1340 1.394 . S
C1341 C1342 1.383 . S
C1341 H1349 0.929 . S
C1342 C1341 1.383 . S
C1342 C1343 1.377 1_455 S
C1343 H1327 0.930 . S
C1343 C1342 1.377 1_655 S
C1343 C1344 1.394 1_655 S
C1344 H1328 0.924 1_455 S
C1344 C1338 1.378 . S
C1344 C1343 1.394 1_455 S
H1345 C1339 0.959 . S
H1346 C1339 0.961 . S
H1347 C1339 0.960 . S
H1348 C1340 0.930 . S
H1349 C1341 0.929 . S
H1350 C1358 0.929 . S
H1351 C1360 0.930 . S
H1352 C1362 0.930 . S
H1353 C1365 0.929 . S
H1354 C1368 0.930 . S
H1355 C1370 0.960 . S
H1356 C1370 0.960 . S
H1357 C1370 0.960 . S
C1358 H1350 0.929 . S
C1358 C1359 1.377 . S
C1358 C1360 1.384 . S
C1359 C1358 1.377 . S
C1359 C1365 1.390 . S
C1360 H1351 0.930 . S
C1360 C1358 1.384 . S
C1360 C1361 1.372 . S
C1361 C1360 1.372 . S
C1361 C1362 1.400 . S
C1361 C1366 1.490 . S
C1362 H1352 0.930 . S
C1362 C1361 1.400 . S
C1362 C1365 1.386 . S
H1363 C1379 0.930 . S
H1364 C1380 0.931 . S
C1365 H1353 0.929 . S
C1365 C1359 1.390 . S
C1365 C1362 1.386 . S
C1366 C1361 1.490 . S
C1366 C1368 1.395 . S
C1366 C1369 1.403 . S
H1367 C1373 0.930 . S
C1368 H1354 0.930 . S
C1368 C1366 1.395 . S
C1368 C1371 1.403 . S
C1369 C1366 1.403 . S
C1369 C1370 1.524 . S
C1369 C1373 1.400 . S
C1370 H1355 0.960 . S
C1370 H1356 0.960 . S
C1370 H1357 0.960 . S
C1370 C1369 1.524 . S
C1371 C1368 1.403 . S
C1371 C1372 1.392 . S
C1371 C1375 1.495 . S
C1372 C1371 1.392 . S
C1372 C1373 1.385 . S
C1372 C1374 1.478 . S
C1373 H1367 0.930 . S
C1373 C1369 1.400 . S
C1373 C1372 1.385 . S
C1374 C1372 1.478 . S
C1374 C1376 1.381 . S
C1374 C1380 1.383 . S
C1375 C1371 1.495 . S
C1375 H1381 0.959 . S
C1375 H1382 0.961 . S
C1375 H1383 0.960 . S
C1376 C1374 1.381 . S
C1376 C1377 1.394 . S
C1376 H1384 0.930 . S
C1377 C1376 1.394 . S
C1377 C1378 1.383 . S
C1377 H1385 0.929 . S
C1378 C1377 1.383 . S
C1378 C1379 1.377 . S
C1379 H1363 0.930 . S
C1379 C1378 1.377 . S
C1379 C1380 1.379 . S
C1380 H1364 0.931 . S
C1380 C1374 1.383 . S
C1380 C1379 1.379 . S
H1381 C1375 0.959 . S
H1382 C1375 0.961 . S
H1383 C1375 0.960 . S
H1384 C1376 0.930 . S
H1385 C1377 0.929 . S
H1386 C1394 0.929 . S
H1387 C1396 0.930 . S
H1388 C1398 0.930 . S
H1389 C1401 0.929 . S
H1390 C1404 0.930 . S
H1391 C1406 0.960 . S
H1392 C1406 0.960 . S
H1393 C1406 0.960 . S
C1394 H1386 0.929 . S
C1394 C1395 1.377 . S
C1394 C1396 1.384 . S
C1395 C1394 1.377 . S
C1395 C1401 1.390 1_565 S
C1396 H1387 0.930 . S
C1396 C1394 1.384 . S
C1396 C1397 1.372 . S
C1397 C1396 1.372 . S
C1397 C1398 1.400 1_565 S
C1397 C1402 1.490 . S
C1398 H1388 0.930 . S
C1398 C1397 1.400 1_545 S
C1398 C1401 1.386 . S
H1399 C1415 0.930 . S
H1400 C1416 0.931 . S
C1401 H1389 0.929 . S
C1401 C1395 1.390 1_545 S
C1401 C1398 1.386 . S
C1402 C1397 1.490 . S
C1402 C1404 1.395 . S
C1402 C1405 1.403 1_565 S
H1403 C1409 0.930 . S
C1404 H1390 0.930 . S
C1404 C1402 1.395 . S
C1404 C1407 1.403 . S
C1405 C1402 1.403 1_545 S
C1405 C1406 1.524 . S
C1405 C1409 1.400 . S
C1406 H1391 0.960 . S
C1406 H1392 0.960 . S
C1406 H1393 0.960 . S
C1406 C1405 1.524 . S
C1407 C1404 1.403 . S
C1407 C1408 1.392 . S
C1407 C1411 1.495 . S
C1408 C1407 1.392 . S
C1408 C1409 1.385 1_565 S
C1408 C1410 1.478 . S
C1409 H1403 0.930 . S
C1409 C1405 1.400 . S
C1409 C1408 1.385 1_545 S
C1410 C1408 1.478 . S
C1410 C1412 1.381 . S
C1410 C1416 1.383 1_565 S
C1411 C1407 1.495 . S
C1411 H1417 0.959 . S
C1411 H1418 0.961 . S
C1411 H1419 0.960 . S
C1412 C1410 1.381 . S
C1412 C1413 1.394 . S
C1412 H1420 0.930 . S
C1413 C1412 1.394 . S
C1413 C1414 1.383 . S
C1413 H1421 0.929 . S
C1414 C1413 1.383 . S
C1414 C1415 1.377 1_565 S
C1415 H1399 0.930 . S
C1415 C1414 1.377 1_545 S
C1415 C1416 1.379 . S
C1416 H1400 0.931 . S
C1416 C1410 1.383 1_545 S
C1416 C1415 1.379 . S
H1417 C1411 0.959 . S
H1418 C1411 0.961 . S
H1419 C1411 0.960 . S
H1420 C1412 0.930 . S
H1421 C1413 0.929 . S
H1422 C1430 0.929 . S
H1423 C1432 0.930 . S
H1424 C1434 0.930 . S
H1425 C1437 0.929 . S
H1426 C1440 0.930 . S
H1427 C1442 0.960 . S
H1428 C1442 0.960 . S
H1429 C1442 0.960 . S
C1430 H1422 0.929 . S
C1430 C1431 1.377 1_565 S
C1430 C1432 1.384 . S
C1431 C1430 1.377 1_545 S
C1431 C1437 1.390 . S
C1432 H1423 0.930 . S
C1432 C1430 1.384 . S
C1432 C1433 1.372 1_565 S
C1433 C1432 1.372 1_545 S
C1433 C1434 1.400 . S
C1433 C1438 1.490 . S
C1434 H1424 0.930 . S
C1434 C1433 1.400 . S
C1434 C1437 1.386 . S
H1435 C1451 0.930 . S
H1436 C1452 0.931 . S
C1437 H1425 0.929 . S
C1437 C1431 1.390 . S
C1437 C1434 1.386 . S
C1438 C1433 1.490 . S
C1438 C1440 1.395 1_545 S
C1438 C1441 1.403 . S
H1439 C1445 0.930 . S
C1440 H1426 0.930 . S
C1440 C1438 1.395 1_565 S
C1440 C1443 1.403 . S
C1441 C1438 1.403 . S
C1441 C1442 1.524 . S
C1441 C1445 1.400 . S
C1442 H1427 0.960 . S
C1442 H1428 0.960 . S
C1442 H1429 0.960 . S
C1442 C1441 1.524 . S
C1443 C1440 1.403 . S
C1443 C1444 1.392 1_565 S
C1443 C1447 1.495 . S
C1444 C1443 1.392 1_545 S
C1444 C1445 1.385 . S
C1444 C1446 1.478 . S
C1445 H1439 0.930 . S
C1445 C1441 1.400 . S
C1445 C1444 1.385 . S
C1446 C1444 1.478 . S
C1446 C1448 1.381 1_545 S
C1446 C1452 1.383 . S
C1447 C1443 1.495 . S
C1447 H1453 0.959 . S
C1447 H1454 0.961 . S
C1447 H1455 0.960 . S
C1448 C1446 1.381 1_565 S
C1448 C1449 1.394 . S
C1448 H1456 0.930 . S
C1449 C1448 1.394 . S
C1449 C1450 1.383 1_565 S
C1449 H1457 0.929 . S
C1450 C1449 1.383 1_545 S
C1450 C1451 1.377 . S
C1451 H1435 0.930 . S
C1451 C1450 1.377 . S
C1451 C1452 1.379 . S
C1452 H1436 0.931 . S
C1452 C1446 1.383 . S
C1452 C1451 1.379 . S
H1453 C1447 0.959 . S
H1454 C1447 0.961 . S
H1455 C1447 0.960 . S
H1456 C1448 0.930 . S
H1457 C1449 0.929 . S
H1458 C1466 0.929 . S
H1459 C1468 0.930 . S
H1460 C1470 0.930 . S
H1461 C1473 0.929 . S
H1462 C1476 0.930 . S
H1463 C1478 0.960 . S
H1464 C1478 0.960 . S
H1465 C1478 0.960 . S
C1466 H1458 0.929 . S
C1466 C1467 1.377 . S
C1466 C1468 1.384 . S
C1467 C1466 1.377 . S
C1467 C1473 1.390 . S
C1468 H1459 0.930 . S
C1468 C1466 1.384 . S
C1468 C1469 1.372 . S
C1469 C1468 1.372 . S
C1469 C1470 1.400 . S
C1469 C1474 1.490 . S
C1470 H1460 0.930 . S
C1470 C1469 1.400 . S
C1470 C1473 1.386 . S
H1471 C1487 0.930 . S
H1472 C1488 0.931 . S
C1473 H1461 0.929 . S
C1473 C1467 1.390 . S
C1473 C1470 1.386 . S
C1474 C1469 1.490 . S
C1474 C1476 1.395 1_655 S
C1474 C1477 1.403 . S
H1475 C1481 0.930 . S
C1476 H1462 0.930 . S
C1476 C1474 1.395 1_455 S
C1476 C1479 1.403 . S
C1477 C1474 1.403 . S
C1477 C1478 1.524 . S
C1477 C1481 1.400 . S
C1478 H1463 0.960 . S
C1478 H1464 0.960 . S
C1478 H1465 0.960 . S
C1478 C1477 1.524 . S
C1479 C1476 1.403 . S
C1479 C1480 1.392 1_455 S
C1479 C1483 1.495 . S
C1480 C1479 1.392 1_655 S
C1480 C1481 1.385 . S
C1480 C1482 1.478 . S
C1481 H1475 0.930 . S
C1481 C1477 1.400 . S
C1481 C1480 1.385 . S
C1482 C1480 1.478 . S
C1482 C1484 1.381 . S
C1482 C1488 1.383 1_655 S
C1483 C1479 1.495 . S
C1483 H1489 0.959 . S
C1483 H1490 0.961 . S
C1483 H1491 0.960 . S
C1484 C1482 1.381 . S
C1484 C1485 1.394 . S
C1484 H1492 0.930 . S
C1485 C1484 1.394 . S
C1485 C1486 1.383 . S
C1485 H1493 0.929 . S
C1486 C1485 1.383 . S
C1486 C1487 1.377 1_655 S
C1487 H1471 0.930 . S
C1487 C1486 1.377 1_455 S
C1487 C1488 1.379 . S
C1488 H1472 0.931 . S
C1488 C1482 1.383 1_455 S
C1488 C1487 1.379 . S
H1489 C1483 0.959 . S
H1490 C1483 0.961 . S
H1491 C1483 0.960 . S
H1492 C1484 0.930 . S
H1493 C1485 0.929 . S
H1494 C1502 0.929 . S
H1495 C1504 0.930 . S
H1496 C1506 0.930 . S
H1497 C1509 0.929 . S
H1498 C1512 0.930 . S
H1499 C1514 0.960 . S
H1500 C1514 0.960 . S
H1501 C1514 0.960 . S
C1502 H1494 0.929 . S
C1502 C1503 1.377 . S
C1502 C1504 1.384 . S
C1503 C1502 1.377 . S
C1503 C1509 1.390 . S
C1504 H1495 0.930 . S
C1504 C1502 1.384 . S
C1504 C1505 1.372 . S
C1505 C1504 1.372 . S
C1505 C1506 1.400 . S
C1505 C1510 1.490 . S
C1506 H1496 0.930 . S
C1506 C1505 1.400 . S
C1506 C1509 1.386 . S
H1507 C1523 0.930 . S
H1508 C1524 0.931 . S
C1509 H1497 0.929 . S
C1509 C1503 1.390 . S
C1509 C1506 1.386 . S
C1510 C1505 1.490 . S
C1510 C1512 1.395 . S
C1510 C1513 1.403 . S
H1511 C1517 0.930 . S
C1512 H1498 0.930 . S
C1512 C1510 1.395 . S
C1512 C1515 1.403 . S
C1513 C1510 1.403 . S
C1513 C1514 1.524 . S
C1513 C1517 1.400 . S
C1514 H1499 0.960 . S
C1514 H1500 0.960 . S
C1514 H1501 0.960 . S
C1514 C1513 1.524 . S
C1515 C1512 1.403 . S
C1515 C1516 1.392 . S
C1515 C1519 1.495 . S
C1516 C1515 1.392 . S
C1516 C1517 1.385 . S
C1516 C1518 1.478 . S
C1517 H1511 0.930 . S
C1517 C1513 1.400 . S
C1517 C1516 1.385 . S
C1518 C1516 1.478 . S
C1518 C1520 1.381 . S
C1518 C1524 1.383 . S
C1519 C1515 1.495 . S
C1519 H1525 0.959 . S
C1519 H1526 0.961 . S
C1519 H1527 0.960 . S
C1520 C1518 1.381 . S
C1520 C1521 1.394 . S
C1520 H1528 0.930 . S
C1521 C1520 1.394 . S
C1521 C1522 1.383 . S
C1521 H1529 0.929 . S
C1522 C1521 1.383 . S
C1522 C1523 1.377 . S
C1523 H1507 0.930 . S
C1523 C1522 1.377 . S
C1523 C1524 1.379 . S
C1524 H1508 0.931 . S
C1524 C1518 1.383 . S
C1524 C1523 1.379 . S
H1525 C1519 0.959 . S
H1526 C1519 0.961 . S
H1527 C1519 0.960 . S
H1528 C1520 0.930 . S
H1529 C1521 0.929 . S
H1530 C1538 0.929 . S
H1531 C1540 0.930 . S
H1532 C1542 0.930 . S
H1533 C1545 0.929 . S
H1534 C1548 0.930 . S
H1535 C1550 0.960 . S
H1536 C1550 0.960 . S
H1537 C1550 0.960 . S
C1538 H1530 0.929 . S
C1538 C1539 1.377 . S
C1538 C1540 1.384 . S
C1539 C1538 1.377 . S
C1539 C1545 1.390 . S
C1540 H1531 0.930 . S
C1540 C1538 1.384 . S
C1540 C1541 1.372 . S
C1541 C1540 1.372 . S
C1541 C1542 1.400 . S
C1541 C1546 1.490 . S
C1542 H1532 0.930 . S
C1542 C1541 1.400 . S
C1542 C1545 1.386 . S
H1543 C1559 0.930 . S
H1544 C1560 0.931 . S
C1545 H1533 0.929 . S
C1545 C1539 1.390 . S
C1545 C1542 1.386 . S
C1546 C1541 1.490 . S
C1546 C1548 1.395 . S
C1546 C1549 1.403 . S
H1547 C1553 0.930 . S
C1548 H1534 0.930 . S
C1548 C1546 1.395 . S
C1548 C1551 1.403 . S
C1549 C1546 1.403 . S
C1549 C1550 1.524 . S
C1549 C1553 1.400 . S
C1550 H1535 0.960 . S
C1550 H1536 0.960 . S
C1550 H1537 0.960 . S
C1550 C1549 1.524 . S
C1551 C1548 1.403 . S
C1551 C1552 1.392 . S
C1551 C1555 1.495 . S
C1552 C1551 1.392 . S
C1552 C1553 1.385 . S
C1552 C1554 1.478 . S
C1553 H1547 0.930 . S
C1553 C1549 1.400 . S
C1553 C1552 1.385 . S
C1554 C1552 1.478 . S
C1554 C1556 1.381 . S
C1554 C1560 1.383 . S
C1555 C1551 1.495 . S
C1555 H1561 0.959 . S
C1555 H1562 0.961 . S
C1555 H1563 0.960 . S
C1556 C1554 1.381 . S
C1556 C1557 1.394 . S
C1556 H1564 0.930 . S
C1557 C1556 1.394 . S
C1557 C1558 1.383 . S
C1557 H1565 0.929 . S
C1558 C1557 1.383 . S
C1558 C1559 1.377 . S
C1559 H1543 0.930 . S
C1559 C1558 1.377 . S
C1559 C1560 1.379 . S
C1560 H1544 0.931 . S
C1560 C1554 1.383 . S
C1560 C1559 1.379 . S
H1561 C1555 0.959 . S
H1562 C1555 0.961 . S
H1563 C1555 0.960 . S
H1564 C1556 0.930 . S
H1565 C1557 0.929 . S
H1566 C1574 0.929 . S
H1567 C1576 0.930 . S
H1568 C1578 0.930 . S
H1569 C1581 0.929 . S
H1570 C1584 0.930 . S
H1571 C1586 0.960 . S
H1572 C1586 0.960 . S
H1573 C1586 0.960 . S
C1574 H1566 0.929 . S
C1574 C1575 1.377 . S
C1574 C1576 1.384 . S
C1575 C1574 1.377 . S
C1575 C1581 1.390 . S
C1576 H1567 0.930 . S
C1576 C1574 1.384 . S
C1576 C1577 1.372 . S
C1577 C1576 1.372 . S
C1577 C1578 1.400 . S
C1577 C1582 1.490 . S
C1578 H1568 0.930 . S
C1578 C1577 1.400 . S
C1578 C1581 1.386 . S
H1579 C1595 0.930 . S
H1580 C1596 0.931 . S
C1581 H1569 0.929 . S
C1581 C1575 1.390 . S
C1581 C1578 1.386 . S
C1582 C1577 1.490 . S
C1582 C1584 1.395 . S
C1582 C1585 1.403 . S
H1583 C1589 0.930 . S
C1584 H1570 0.930 . S
C1584 C1582 1.395 . S
C1584 C1587 1.403 . S
C1585 C1582 1.403 . S
C1585 C1586 1.524 . S
C1585 C1589 1.400 . S
C1586 H1571 0.960 . S
C1586 H1572 0.960 . S
C1586 H1573 0.960 . S
C1586 C1585 1.524 . S
C1587 C1584 1.403 . S
C1587 C1588 1.392 . S
C1587 C1591 1.495 . S
C1588 C1587 1.392 . S
C1588 C1589 1.385 . S
C1588 C1590 1.478 . S
C1589 H1583 0.930 . S
C1589 C1585 1.400 . S
C1589 C1588 1.385 . S
C1590 C1588 1.478 . S
C1590 C1592 1.381 . S
C1590 C1596 1.383 . S
C1591 C1587 1.495 . S
C1591 H1597 0.959 . S
C1591 H1598 0.961 . S
C1591 H1599 0.960 . S
C1592 C1590 1.381 . S
C1592 C1593 1.394 . S
C1592 H1600 0.930 . S
C1593 C1592 1.394 . S
C1593 C1594 1.383 . S
C1593 H1601 0.929 . S
C1594 C1593 1.383 . S
C1594 C1595 1.377 . S
C1595 H1579 0.930 . S
C1595 C1594 1.377 . S
C1595 C1596 1.379 . S
C1596 H1580 0.931 . S
C1596 C1590 1.383 . S
C1596 C1595 1.379 . S
H1597 C1591 0.959 . S
H1598 C1591 0.961 . S
H1599 C1591 0.960 . S
H1600 C1592 0.930 . S
H1601 C1593 0.929 . S
H1602 C1610 0.929 . S
H1603 C1612 0.930 . S
H1604 C1614 0.930 . S
H1605 C1617 0.929 . S
H1606 C1620 0.930 . S
H1607 C1622 0.960 . S
H1608 C1622 0.960 . S
H1609 C1622 0.960 . S
C1610 H1602 0.929 . S
C1610 C1611 1.377 . S
C1610 C1612 1.384 . S
C1611 C1610 1.377 . S
C1611 C1617 1.390 . S
C1612 H1603 0.930 . S
C1612 C1610 1.384 . S
C1612 C1613 1.372 . S
C1613 C1612 1.372 . S
C1613 C1614 1.400 . S
C1613 C1618 1.490 . S
C1614 H1604 0.930 . S
C1614 C1613 1.400 . S
C1614 C1617 1.386 . S
H1615 C1631 0.930 . S
H1616 C1632 0.931 . S
C1617 H1605 0.929 . S
C1617 C1611 1.390 . S
C1617 C1614 1.386 . S
C1618 C1613 1.490 . S
C1618 C1620 1.395 . S
C1618 C1621 1.403 . S
H1619 C1625 0.930 . S
C1620 H1606 0.930 . S
C1620 C1618 1.395 . S
C1620 C1623 1.403 . S
C1621 C1618 1.403 . S
C1621 C1622 1.524 . S
C1621 C1625 1.400 . S
C1622 H1607 0.960 . S
C1622 H1608 0.960 . S
C1622 H1609 0.960 . S
C1622 C1621 1.524 . S
C1623 C1620 1.403 . S
C1623 C1624 1.392 . S
C1623 C1627 1.495 . S
C1624 C1623 1.392 . S
C1624 C1625 1.385 . S
C1624 C1626 1.478 . S
C1625 H1619 0.930 . S
C1625 C1621 1.400 . S
C1625 C1624 1.385 . S
C1626 C1624 1.478 . S
C1626 C1628 1.381 . S
C1626 C1632 1.383 . S
C1627 C1623 1.495 . S
C1627 H1633 0.959 . S
C1627 H1634 0.961 . S
C1627 H1635 0.960 . S
C1628 C1626 1.381 . S
C1628 C1629 1.394 . S
C1628 H1636 0.930 . S
C1629 C1628 1.394 . S
C1629 C1630 1.383 . S
C1629 H1637 0.929 . S
C1630 C1629 1.383 . S
C1630 C1631 1.377 . S
C1631 H1615 0.930 . S
C1631 C1630 1.377 . S
C1631 C1632 1.379 . S
C1632 H1616 0.931 . S
C1632 C1626 1.383 . S
C1632 C1631 1.379 . S
H1633 C1627 0.959 . S
H1634 C1627 0.961 . S
H1635 C1627 0.960 . S
H1636 C1628 0.930 . S
H1637 C1629 0.929 . S
H1638 C1646 0.929 . S
H1639 C1648 0.930 . S
H1640 C1650 0.930 . S
H1641 C1653 0.929 . S
H1642 C1656 0.930 . S
H1643 C1658 0.960 . S
H1644 C1658 0.960 . S
H1645 C1658 0.960 . S
C1646 H1638 0.929 . S
C1646 C1647 1.377 . S
C1646 C1648 1.384 . S
C1647 C1646 1.377 . S
C1647 C1653 1.390 . S
C1648 H1639 0.930 . S
C1648 C1646 1.384 . S
C1648 C1649 1.372 . S
C1649 C1648 1.372 . S
C1649 C1650 1.400 . S
C1649 C1654 1.490 . S
C1650 H1640 0.930 . S
C1650 C1649 1.400 . S
C1650 C1653 1.386 . S
H1651 C1667 0.930 . S
H1652 C1668 0.931 . S
C1653 H1641 0.929 . S
C1653 C1647 1.390 . S
C1653 C1650 1.386 . S
C1654 C1649 1.490 . S
C1654 C1656 1.395 . S
C1654 C1657 1.403 . S
H1655 C1661 0.930 . S
C1656 H1642 0.930 . S
C1656 C1654 1.395 . S
C1656 C1659 1.403 . S
C1657 C1654 1.403 . S
C1657 C1658 1.524 . S
C1657 C1661 1.400 . S
C1658 H1643 0.960 . S
C1658 H1644 0.960 . S
C1658 H1645 0.960 . S
C1658 C1657 1.524 . S
C1659 C1656 1.403 . S
C1659 C1660 1.392 . S
C1659 C1663 1.495 . S
C1660 C1659 1.392 . S
C1660 C1661 1.385 . S
C1660 C1662 1.478 . S
C1661 H1655 0.930 . S
C1661 C1657 1.400 . S
C1661 C1660 1.385 . S
C1662 C1660 1.478 . S
C1662 C1664 1.381 . S
C1662 C1668 1.383 . S
C1663 C1659 1.495 . S
C1663 H1669 0.959 . S
C1663 H1670 0.961 . S
C1663 H1671 0.960 . S
C1664 C1662 1.381 . S
C1664 C1665 1.394 . S
C1664 H1672 0.930 . S
C1665 C1664 1.394 . S
C1665 C1666 1.383 . S
C1665 H1673 0.929 . S
C1666 C1665 1.383 . S
C1666 C1667 1.377 . S
C1667 H1651 0.930 . S
C1667 C1666 1.377 . S
C1667 C1668 1.379 . S
C1668 H1652 0.931 . S
C1668 C1662 1.383 . S
C1668 C1667 1.379 . S
H1669 C1663 0.959 . S
H1670 C1663 0.961 . S
H1671 C1663 0.960 . S
H1672 C1664 0.930 . S
H1673 C1665 0.929 . S
H1674 C1682 0.929 . S
H1675 C1684 0.930 . S
H1676 C1686 0.930 . S
H1677 C1689 0.929 . S
H1678 C1692 0.930 . S
H1679 C1694 0.960 . S
H1680 C1694 0.960 . S
H1681 C1694 0.960 . S
C1682 H1674 0.929 . S
C1682 C1683 1.377 . S
C1682 C1684 1.384 . S
C1683 C1682 1.377 . S
C1683 C1689 1.390 . S
C1684 H1675 0.930 . S
C1684 C1682 1.384 . S
C1684 C1685 1.372 . S
C1685 C1684 1.372 . S
C1685 C1686 1.400 . S
C1685 C1690 1.490 . S
C1686 H1676 0.930 . S
C1686 C1685 1.400 . S
C1686 C1689 1.386 . S
H1687 C1703 0.930 . S
H1688 C1704 0.931 . S
C1689 H1677 0.929 . S
C1689 C1683 1.390 . S
C1689 C1686 1.386 . S
C1690 C1685 1.490 . S
C1690 C1692 1.395 . S
C1690 C1693 1.403 . S
H1691 C1697 0.930 . S
C1692 H1678 0.930 . S
C1692 C1690 1.395 . S
C1692 C1695 1.403 . S
C1693 C1690 1.403 . S
C1693 C1694 1.524 . S
C1693 C1697 1.400 . S
C1694 H1679 0.960 . S
C1694 H1680 0.960 . S
C1694 H1681 0.960 . S
C1694 C1693 1.524 . S
C1695 C1692 1.403 . S
C1695 C1696 1.392 . S
C1695 C1699 1.495 . S
C1696 C1695 1.392 . S
C1696 C1697 1.385 . S
C1696 C1698 1.478 . S
C1697 H1691 0.930 . S
C1697 C1693 1.400 . S
C1697 C1696 1.385 . S
C1698 C1696 1.478 . S
C1698 C1700 1.381 . S
C1698 C1704 1.383 . S
C1699 C1695 1.495 . S
C1699 H1705 0.959 . S
C1699 H1706 0.961 . S
C1699 H1707 0.960 . S
C1700 C1698 1.381 . S
C1700 C1701 1.394 . S
C1700 H1708 0.930 . S
C1701 C1700 1.394 . S
C1701 C1702 1.383 . S
C1701 H1709 0.929 . S
C1702 C1701 1.383 . S
C1702 C1703 1.377 . S
C1703 H1687 0.930 . S
C1703 C1702 1.377 . S
C1703 C1704 1.379 . S
C1704 H1688 0.931 . S
C1704 C1698 1.383 . S
C1704 C1703 1.379 . S
H1705 C1699 0.959 . S
H1706 C1699 0.961 . S
H1707 C1699 0.960 . S
H1708 C1700 0.930 . S
H1709 C1701 0.929 . S
H1710 C1718 0.929 . S
H1711 C1720 0.930 . S
H1712 C1722 0.930 . S
H1713 C1725 0.929 . S
H1714 C1728 0.930 . S
H1715 C1730 0.960 . S
H1716 C1730 0.960 . S
H1717 C1730 0.960 . S
C1718 H1710 0.929 . S
C1718 C1719 1.377 . S
C1718 C1720 1.384 . S
C1719 C1718 1.377 . S
C1719 C1725 1.390 . S
C1720 H1711 0.930 . S
C1720 C1718 1.384 . S
C1720 C1721 1.372 . S
C1721 C1720 1.372 . S
C1721 C1722 1.400 . S
C1721 C1726 1.490 . S
C1722 H1712 0.930 . S
C1722 C1721 1.400 . S
C1722 C1725 1.386 . S
H1723 C1739 0.930 . S
H1724 C1740 0.931 . S
C1725 H1713 0.929 . S
C1725 C1719 1.390 . S
C1725 C1722 1.386 . S
C1726 C1721 1.490 . S
C1726 C1728 1.395 . S
C1726 C1729 1.403 . S
H1727 C1733 0.930 . S
C1728 H1714 0.930 . S
C1728 C1726 1.395 . S
C1728 C1731 1.403 . S
C1729 C1726 1.403 . S
C1729 C1730 1.524 . S
C1729 C1733 1.400 . S
C1730 H1715 0.960 . S
C1730 H1716 0.960 . S
C1730 H1717 0.960 . S
C1730 C1729 1.524 . S
C1731 C1728 1.403 . S
C1731 C1732 1.392 . S
C1731 C1735 1.495 . S
C1732 C1731 1.392 . S
C1732 C1733 1.385 . S
C1732 C1734 1.478 . S
C1733 H1727 0.930 . S
C1733 C1729 1.400 . S
C1733 C1732 1.385 . S
C1734 C1732 1.478 . S
C1734 C1736 1.381 . S
C1734 C1740 1.383 . S
C1735 C1731 1.495 . S
C1735 H1741 0.959 . S
C1735 H1742 0.961 . S
C1735 H1743 0.960 . S
C1736 C1734 1.381 . S
C1736 C1737 1.394 . S
C1736 H1744 0.930 . S
C1737 C1736 1.394 . S
C1737 C1738 1.383 . S
C1737 H1745 0.929 . S
C1738 C1737 1.383 . S
C1738 C1739 1.377 . S
C1739 H1723 0.930 . S
C1739 C1738 1.377 . S
C1739 C1740 1.379 . S
C1740 H1724 0.931 . S
C1740 C1734 1.383 . S
C1740 C1739 1.379 . S
H1741 C1735 0.959 . S
H1742 C1735 0.961 . S
H1743 C1735 0.960 . S
H1744 C1736 0.930 . S
H1745 C1737 0.929 . S
H1746 C1754 0.929 . S
H1747 C1756 0.930 . S
H1748 C1758 0.930 . S
H1749 C1761 0.929 . S
H1750 C1764 0.930 . S
H1751 C1766 0.960 . S
H1752 C1766 0.960 . S
H1753 C1766 0.960 . S
C1754 H1746 0.929 . S
C1754 C1755 1.377 . S
C1754 C1756 1.384 . S
C1755 C1754 1.377 . S
C1755 C1761 1.390 . S
C1756 H1747 0.930 . S
C1756 C1754 1.384 . S
C1756 C1757 1.372 . S
C1757 C1756 1.372 . S
C1757 C1758 1.400 . S
C1757 C1762 1.490 . S
C1758 H1748 0.930 . S
C1758 C1757 1.400 . S
C1758 C1761 1.386 . S
H1759 C1775 0.930 . S
H1760 C1776 0.931 . S
C1761 H1749 0.929 . S
C1761 C1755 1.390 . S
C1761 C1758 1.386 . S
C1762 C1757 1.490 . S
C1762 C1764 1.395 . S
C1762 C1765 1.403 . S
H1763 C1769 0.930 . S
C1764 H1750 0.930 . S
C1764 C1762 1.395 . S
C1764 C1767 1.403 . S
C1765 C1762 1.403 . S
C1765 C1766 1.524 . S
C1765 C1769 1.400 . S
C1766 H1751 0.960 . S
C1766 H1752 0.960 . S
C1766 H1753 0.960 . S
C1766 C1765 1.524 . S
C1767 C1764 1.403 . S
C1767 C1768 1.392 . S
C1767 C1771 1.495 . S
C1768 C1767 1.392 . S
C1768 C1769 1.385 . S
C1768 C1770 1.478 . S
C1769 H1763 0.930 . S
C1769 C1765 1.400 . S
C1769 C1768 1.385 . S
C1770 C1768 1.478 . S
C1770 C1772 1.381 . S
C1770 C1776 1.383 . S
C1771 C1767 1.495 . S
C1771 H1777 0.959 . S
C1771 H1778 0.961 . S
C1771 H1779 0.960 . S
C1772 C1770 1.381 . S
C1772 C1773 1.394 . S
C1772 H1780 0.930 . S
C1773 C1772 1.394 . S
C1773 C1774 1.383 . S
C1773 H1781 0.929 . S
C1774 C1773 1.383 . S
C1774 C1775 1.377 . S
C1775 H1759 0.930 . S
C1775 C1774 1.377 . S
C1775 C1776 1.379 . S
C1776 H1760 0.931 . S
C1776 C1770 1.383 . S
C1776 C1775 1.379 . S
H1777 C1771 0.959 . S
H1778 C1771 0.961 . S
H1779 C1771 0.960 . S
H1780 C1772 0.930 . S
H1781 C1773 0.929 . S
H1782 C1790 0.929 . S
H1783 C1792 0.930 . S
H1784 C1794 0.930 . S
H1785 C1797 0.929 . S
H1786 C1800 0.930 . S
H1787 C1802 0.960 . S
H1788 C1802 0.960 . S
H1789 C1802 0.960 . S
C1790 H1782 0.929 . S
C1790 C1791 1.377 . S
C1790 C1792 1.384 . S
C1791 C1790 1.377 . S
C1791 C1797 1.390 . S
C1792 H1783 0.930 . S
C1792 C1790 1.384 . S
C1792 C1793 1.372 . S
C1793 C1792 1.372 . S
C1793 C1794 1.400 . S
C1793 C1798 1.490 . S
C1794 H1784 0.930 . S
C1794 C1793 1.400 . S
C1794 C1797 1.386 . S
H1795 C1811 0.930 . S
H1796 C1812 0.931 . S
C1797 H1785 0.929 . S
C1797 C1791 1.390 . S
C1797 C1794 1.386 . S
C1798 C1793 1.490 . S
C1798 C1800 1.395 . S
C1798 C1801 1.403 . S
H1799 C1805 0.930 . S
C1800 H1786 0.930 . S
C1800 C1798 1.395 . S
C1800 C1803 1.403 . S
C1801 C1798 1.403 . S
C1801 C1802 1.524 . S
C1801 C1805 1.400 . S
C1802 H1787 0.960 . S
C1802 H1788 0.960 . S
C1802 H1789 0.960 . S
C1802 C1801 1.524 . S
C1803 C1800 1.403 . S
C1803 C1804 1.392 . S
C1803 C1807 1.495 . S
C1804 C1803 1.392 . S
C1804 C1805 1.385 . S
C1804 C1806 1.478 . S
C1805 H1799 0.930 . S
C1805 C1801 1.400 . S
C1805 C1804 1.385 . S
C1806 C1804 1.478 . S
C1806 C1808 1.381 . S
C1806 C1812 1.383 . S
C1807 C1803 1.495 . S
C1807 H1813 0.959 . S
C1807 H1814 0.961 . S
C1807 H1815 0.960 . S
C1808 C1806 1.381 . S
C1808 C1809 1.394 . S
C1808 H1816 0.930 . S
C1809 C1808 1.394 . S
C1809 C1810 1.383 . S
C1809 H1817 0.929 . S
C1810 C1809 1.383 . S
C1810 C1811 1.377 . S
C1811 H1795 0.930 . S
C1811 C1810 1.377 . S
C1811 C1812 1.379 . S
C1812 H1796 0.931 . S
C1812 C1806 1.383 . S
C1812 C1811 1.379 . S
H1813 C1807 0.959 . S
H1814 C1807 0.961 . S
H1815 C1807 0.960 . S
H1816 C1808 0.930 . S
H1817 C1809 0.929 . S
H1818 C1826 0.929 . S
H1819 C1828 0.930 . S
H1820 C1830 0.930 . S
H1821 C1833 0.929 . S
H1822 C1836 0.930 . S
H1823 C1838 0.960 . S
H1824 C1838 0.960 . S
H1825 C1838 0.960 . S
C1826 H1818 0.929 . S
C1826 C1827 1.377 . S
C1826 C1828 1.384 . S
C1827 C1826 1.377 . S
C1827 C1833 1.390 . S
C1828 H1819 0.930 . S
C1828 C1826 1.384 . S
C1828 C1829 1.372 . S
C1829 C1828 1.372 . S
C1829 C1830 1.400 . S
C1829 C1834 1.490 . S
C1830 H1820 0.930 . S
C1830 C1829 1.400 . S
C1830 C1833 1.386 . S
H1831 C1847 0.930 . S
H1832 C1848 0.931 . S
C1833 H1821 0.929 . S
C1833 C1827 1.390 . S
C1833 C1830 1.386 . S
C1834 C1829 1.490 . S
C1834 C1836 1.395 . S
C1834 C1837 1.403 . S
H1835 C1841 0.930 . S
C1836 H1822 0.930 . S
C1836 C1834 1.395 . S
C1836 C1839 1.403 . S
C1837 C1834 1.403 . S
C1837 C1838 1.524 . S
C1837 C1841 1.400 . S
C1838 H1823 0.960 . S
C1838 H1824 0.960 . S
C1838 H1825 0.960 . S
C1838 C1837 1.524 . S
C1839 C1836 1.403 . S
C1839 C1840 1.392 . S
C1839 C1843 1.495 . S
C1840 C1839 1.392 . S
C1840 C1841 1.385 . S
C1840 C1842 1.478 . S
C1841 H1835 0.930 . S
C1841 C1837 1.400 . S
C1841 C1840 1.385 . S
C1842 C1840 1.478 . S
C1842 C1844 1.381 . S
C1842 C1848 1.383 . S
C1843 C1839 1.495 . S
C1843 H1849 0.959 . S
C1843 H1850 0.961 . S
C1843 H1851 0.960 . S
C1844 C1842 1.381 . S
C1844 C1845 1.394 . S
C1844 H1852 0.930 . S
C1845 C1844 1.394 . S
C1845 C1846 1.383 . S
C1845 H1853 0.929 . S
C1846 C1845 1.383 . S
C1846 C1847 1.377 . S
C1847 H1831 0.930 . S
C1847 C1846 1.377 . S
C1847 C1848 1.379 . S
C1848 H1832 0.931 . S
C1848 C1842 1.383 . S
C1848 C1847 1.379 . S
H1849 C1843 0.959 . S
H1850 C1843 0.961 . S
H1851 C1843 0.960 . S
H1852 C1844 0.930 . S
H1853 C1845 0.929 . S
H1854 C1862 0.929 . S
H1855 C1864 0.930 . S
H1856 C1866 0.930 . S
H1857 C1869 0.929 . S
H1858 C1872 0.930 . S
H1859 C1874 0.960 . S
H1860 C1874 0.960 . S
H1861 C1874 0.960 . S
C1862 H1854 0.929 . S
C1862 C1863 1.377 . S
C1862 C1864 1.384 . S
C1863 C1862 1.377 . S
C1863 C1869 1.390 . S
C1864 H1855 0.930 . S
C1864 C1862 1.384 . S
C1864 C1865 1.372 . S
C1865 C1864 1.372 . S
C1865 C1866 1.400 . S
C1865 C1870 1.490 . S
C1866 H1856 0.930 . S
C1866 C1865 1.400 . S
C1866 C1869 1.386 . S
H1867 C1883 0.930 . S
H1868 C1884 0.931 . S
C1869 H1857 0.929 . S
C1869 C1863 1.390 . S
C1869 C1866 1.386 . S
C1870 C1865 1.490 . S
C1870 C1872 1.395 . S
C1870 C1873 1.403 . S
H1871 C1877 0.930 . S
C1872 H1858 0.930 . S
C1872 C1870 1.395 . S
C1872 C1875 1.403 . S
C1873 C1870 1.403 . S
C1873 C1874 1.524 . S
C1873 C1877 1.400 . S
C1874 H1859 0.960 . S
C1874 H1860 0.960 . S
C1874 H1861 0.960 . S
C1874 C1873 1.524 . S
C1875 C1872 1.403 . S
C1875 C1876 1.392 . S
C1875 C1879 1.495 . S
C1876 C1875 1.392 . S
C1876 C1877 1.385 . S
C1876 C1878 1.478 . S
C1877 H1871 0.930 . S
C1877 C1873 1.400 . S
C1877 C1876 1.385 . S
C1878 C1876 1.478 . S
C1878 C1880 1.381 . S
C1878 C1884 1.383 . S
C1879 C1875 1.495 . S
C1879 H1885 0.959 . S
C1879 H1886 0.961 . S
C1879 H1887 0.960 . S
C1880 C1878 1.381 . S
C1880 C1881 1.394 . S
C1880 H1888 0.930 . S
C1881 C1880 1.394 . S
C1881 C1882 1.383 . S
C1881 H1889 0.929 . S
C1882 C1881 1.383 . S
C1882 C1883 1.377 . S
C1883 H1867 0.930 . S
C1883 C1882 1.377 . S
C1883 C1884 1.379 . S
C1884 H1868 0.931 . S
C1884 C1878 1.383 . S
C1884 C1883 1.379 . S
H1885 C1879 0.959 . S
H1886 C1879 0.961 . S
H1887 C1879 0.960 . S
H1888 C1880 0.930 . S
H1889 C1881 0.929 . S
H1890 C1898 0.929 . S
H1891 C1900 0.930 . S
H1892 C1902 0.930 . S
H1893 C1905 0.929 . S
H1894 C1908 0.930 . S
H1895 C1910 0.960 . S
H1896 C1910 0.960 . S
H1897 C1910 0.960 . S
C1898 H1890 0.929 . S
C1898 C1899 1.377 . S
C1898 C1900 1.384 . S
C1899 C1898 1.377 . S
C1899 C1905 1.390 . S
C1900 H1891 0.930 . S
C1900 C1898 1.384 . S
C1900 C1901 1.372 . S
C1901 C1900 1.372 . S
C1901 C1902 1.400 . S
C1901 C1906 1.490 . S
C1902 H1892 0.930 . S
C1902 C1901 1.400 . S
C1902 C1905 1.386 . S
H1903 C1919 0.930 . S
H1904 C1920 0.931 . S
C1905 H1893 0.929 . S
C1905 C1899 1.390 . S
C1905 C1902 1.386 . S
C1906 C1901 1.490 . S
C1906 C1908 1.395 . S
C1906 C1909 1.403 . S
H1907 C1913 0.930 . S
C1908 H1894 0.930 . S
C1908 C1906 1.395 . S
C1908 C1911 1.403 . S
C1909 C1906 1.403 . S
C1909 C1910 1.524 . S
C1909 C1913 1.400 . S
C1910 H1895 0.960 . S
C1910 H1896 0.960 . S
C1910 H1897 0.960 . S
C1910 C1909 1.524 . S
C1911 C1908 1.403 . S
C1911 C1912 1.392 . S
C1911 C1915 1.495 . S
C1912 C1911 1.392 . S
C1912 C1913 1.385 . S
C1912 C1914 1.478 . S
C1913 H1907 0.930 . S
C1913 C1909 1.400 . S
C1913 C1912 1.385 . S
C1914 C1912 1.478 . S
C1914 C1916 1.381 . S
C1914 C1920 1.383 . S
C1915 C1911 1.495 . S
C1915 H1921 0.959 . S
C1915 H1922 0.961 . S
C1915 H1923 0.960 . S
C1916 C1914 1.381 . S
C1916 C1917 1.394 . S
C1916 H1924 0.930 . S
C1917 C1916 1.394 . S
C1917 C1918 1.383 . S
C1917 H1925 0.929 . S
C1918 C1917 1.383 . S
C1918 C1919 1.377 . S
C1919 H1903 0.930 . S
C1919 C1918 1.377 . S
C1919 C1920 1.379 . S
C1920 H1904 0.931 . S
C1920 C1914 1.383 . S
C1920 C1919 1.379 . S
H1921 C1915 0.959 . S
H1922 C1915 0.961 . S
H1923 C1915 0.960 . S
H1924 C1916 0.930 . S
H1925 C1917 0.929 . S
H1926 C1934 0.929 . S
H1927 C1936 0.930 . S
H1928 C1938 0.930 . S
H1929 C1941 0.929 . S
H1930 C1944 0.930 . S
H1931 C1946 0.960 . S
H1932 C1946 0.960 . S
H1933 C1946 0.960 . S
C1934 H1926 0.929 . S
C1934 C1935 1.377 . S
C1934 C1936 1.384 . S
C1935 C1934 1.377 . S
C1935 C1941 1.390 . S
C1936 H1927 0.930 . S
C1936 C1934 1.384 . S
C1936 C1937 1.372 . S
C1937 C1936 1.372 . S
C1937 C1938 1.400 . S
C1937 C1942 1.490 . S
C1938 H1928 0.930 . S
C1938 C1937 1.400 . S
C1938 C1941 1.386 . S
H1939 C1955 0.930 . S
H1940 C1956 0.931 . S
C1941 H1929 0.929 . S
C1941 C1935 1.390 . S
C1941 C1938 1.386 . S
C1942 C1937 1.490 . S
C1942 C1944 1.395 . S
C1942 C1945 1.403 . S
H1943 C1949 0.930 . S
C1944 H1930 0.930 . S
C1944 C1942 1.395 . S
C1944 C1947 1.403 . S
C1945 C1942 1.403 . S
C1945 C1946 1.524 . S
C1945 C1949 1.400 . S
C1946 H1931 0.960 . S
C1946 H1932 0.960 . S
C1946 H1933 0.960 . S
C1946 C1945 1.524 . S
C1947 C1944 1.403 . S
C1947 C1948 1.392 . S
C1947 C1951 1.495 . S
C1948 C1947 1.392 . S
C1948 C1949 1.385 . S
C1948 C1950 1.478 . S
C1949 H1943 0.930 . S
C1949 C1945 1.400 . S
C1949 C1948 1.385 . S
C1950 C1948 1.478 . S
C1950 C1952 1.381 . S
C1950 C1956 1.383 . S
C1951 C1947 1.495 . S
C1951 H1957 0.959 . S
C1951 H1958 0.961 . S
C1951 H1959 0.960 . S
C1952 C1950 1.381 . S
C1952 C1953 1.394 . S
C1952 H1960 0.930 . S
C1953 C1952 1.394 . S
C1953 C1954 1.383 . S
C1953 H1961 0.929 . S
C1954 C1953 1.383 . S
C1954 C1955 1.377 . S
C1955 H1939 0.930 . S
C1955 C1954 1.377 . S
C1955 C1956 1.379 . S
C1956 H1940 0.931 . S
C1956 C1950 1.383 . S
C1956 C1955 1.379 . S
H1957 C1951 0.959 . S
H1958 C1951 0.961 . S
H1959 C1951 0.960 . S
H1960 C1952 0.930 . S
H1961 C1953 0.929 . S
H1962 C1970 0.929 . S
H1963 C1972 0.930 . S
H1964 C1974 0.930 . S
H1965 C1977 0.929 . S
H1966 C1980 0.930 . S
H1967 C1982 0.960 . S
H1968 C1982 0.960 . S
H1969 C1982 0.960 . S
C1970 H1962 0.929 . S
C1970 C1971 1.377 . S
C1970 C1972 1.384 . S
C1971 C1970 1.377 . S
C1971 C1977 1.390 . S
C1972 H1963 0.930 . S
C1972 C1970 1.384 . S
C1972 C1973 1.372 . S
C1973 C1972 1.372 . S
C1973 C1974 1.400 . S
C1973 C1978 1.490 . S
C1974 H1964 0.930 . S
C1974 C1973 1.400 . S
C1974 C1977 1.386 . S
H1975 C1991 0.930 . S
H1976 C1992 0.931 . S
C1977 H1965 0.929 . S
C1977 C1971 1.390 . S
C1977 C1974 1.386 . S
C1978 C1973 1.490 . S
C1978 C1980 1.395 . S
C1978 C1981 1.403 . S
H1979 C1985 0.930 . S
C1980 H1966 0.930 . S
C1980 C1978 1.395 . S
C1980 C1983 1.403 . S
C1981 C1978 1.403 . S
C1981 C1982 1.524 . S
C1981 C1985 1.400 . S
C1982 H1967 0.960 . S
C1982 H1968 0.960 . S
C1982 H1969 0.960 . S
C1982 C1981 1.524 . S
C1983 C1980 1.403 . S
C1983 C1984 1.392 . S
C1983 C1987 1.495 . S
C1984 C1983 1.392 . S
C1984 C1985 1.385 . S
C1984 C1986 1.478 . S
C1985 H1979 0.930 . S
C1985 C1981 1.400 . S
C1985 C1984 1.385 . S
C1986 C1984 1.478 . S
C1986 C1988 1.381 . S
C1986 C1992 1.383 . S
C1987 C1983 1.495 . S
C1987 H1993 0.959 . S
C1987 H1994 0.961 . S
C1987 H1995 0.960 . S
C1988 C1986 1.381 . S
C1988 C1989 1.394 . S
C1988 H1996 0.930 . S
C1989 C1988 1.394 . S
C1989 C1990 1.383 . S
C1989 H1997 0.929 . S
C1990 C1989 1.383 . S
C1990 C1991 1.377 . S
C1991 H1975 0.930 . S
C1991 C1990 1.377 . S
C1991 C1992 1.379 . S
C1992 H1976 0.931 . S
C1992 C1986 1.383 . S
C1992 C1991 1.379 . S
H1993 C1987 0.959 . S
H1994 C1987 0.961 . S
H1995 C1987 0.960 . S
H1996 C1988 0.930 . S
H1997 C1989 0.929 . S
H1998 C2006 0.929 . S
H1999 C2008 0.930 . S
H2000 C2010 0.930 . S
H2001 C2013 0.929 . S
H2002 C2016 0.930 . S
H2003 C2018 0.960 . S
H2004 C2018 0.960 . S
H2005 C2018 0.960 . S
C2006 H1998 0.929 . S
C2006 C2007 1.377 . S
C2006 C2008 1.384 . S
C2007 C2006 1.377 . S
C2007 C2013 1.390 . S
C2008 H1999 0.930 . S
C2008 C2006 1.384 . S
C2008 C2009 1.372 . S
C2009 C2008 1.372 . S
C2009 C2010 1.400 . S
C2009 C2014 1.490 . S
C2010 H2000 0.930 . S
C2010 C2009 1.400 . S
C2010 C2013 1.386 . S
H2011 C2027 0.930 . S
H2012 C2028 0.931 . S
C2013 H2001 0.929 . S
C2013 C2007 1.390 . S
C2013 C2010 1.386 . S
C2014 C2009 1.490 . S
C2014 C2016 1.395 . S
C2014 C2017 1.403 . S
H2015 C2021 0.930 . S
C2016 H2002 0.930 . S
C2016 C2014 1.395 . S
C2016 C2019 1.403 . S
C2017 C2014 1.403 . S
C2017 C2018 1.524 . S
C2017 C2021 1.400 . S
C2018 H2003 0.960 . S
C2018 H2004 0.960 . S
C2018 H2005 0.960 . S
C2018 C2017 1.524 . S
C2019 C2016 1.403 . S
C2019 C2020 1.392 . S
C2019 C2023 1.495 . S
C2020 C2019 1.392 . S
C2020 C2021 1.385 . S
C2020 C2022 1.478 . S
C2021 H2015 0.930 . S
C2021 C2017 1.400 . S
C2021 C2020 1.385 . S
C2022 C2020 1.478 . S
C2022 C2024 1.381 . S
C2022 C2028 1.383 . S
C2023 C2019 1.495 . S
C2023 H2029 0.959 . S
C2023 H2030 0.961 . S
C2023 H2031 0.960 . S
C2024 C2022 1.381 . S
C2024 C2025 1.394 . S
C2024 H2032 0.930 . S
C2025 C2024 1.394 . S
C2025 C2026 1.383 . S
C2025 H2033 0.929 . S
C2026 C2025 1.383 . S
C2026 C2027 1.377 . S
C2027 H2011 0.930 . S
C2027 C2026 1.377 . S
C2027 C2028 1.379 . S
C2028 H2012 0.931 . S
C2028 C2022 1.383 . S
C2028 C2027 1.379 . S
H2029 C2023 0.959 . S
H2030 C2023 0.961 . S
H2031 C2023 0.960 . S
H2032 C2024 0.930 . S
H2033 C2025 0.929 . S
H2034 C2042 0.929 . S
H2035 C2044 0.930 . S
H2036 C2046 0.930 . S
H2037 C2049 0.929 . S
H2038 C2052 0.930 . S
H2039 C2054 0.960 . S
H2040 C2054 0.960 . S
H2041 C2054 0.960 . S
C2042 H2034 0.929 . S
C2042 C2043 1.377 . S
C2042 C2044 1.384 . S
C2043 C2042 1.377 . S
C2043 C2049 1.390 . S
C2044 H2035 0.930 . S
C2044 C2042 1.384 . S
C2044 C2045 1.372 . S
C2045 C2044 1.372 . S
C2045 C2046 1.400 . S
C2045 C2050 1.490 . S
C2046 H2036 0.930 . S
C2046 C2045 1.400 . S
C2046 C2049 1.386 . S
H2047 C2063 0.930 . S
H2048 C2064 0.931 . S
C2049 H2037 0.929 . S
C2049 C2043 1.390 . S
C2049 C2046 1.386 . S
C2050 C2045 1.490 . S
C2050 C2052 1.395 . S
C2050 C2053 1.403 . S
H2051 C2057 0.930 . S
C2052 H2038 0.930 . S
C2052 C2050 1.395 . S
C2052 C2055 1.403 . S
C2053 C2050 1.403 . S
C2053 C2054 1.524 . S
C2053 C2057 1.400 . S
C2054 H2039 0.960 . S
C2054 H2040 0.960 . S
C2054 H2041 0.960 . S
C2054 C2053 1.524 . S
C2055 C2052 1.403 . S
C2055 C2056 1.392 . S
C2055 C2059 1.495 . S
C2056 C2055 1.392 . S
C2056 C2057 1.385 . S
C2056 C2058 1.478 . S
C2057 H2051 0.930 . S
C2057 C2053 1.400 . S
C2057 C2056 1.385 . S
C2058 C2056 1.478 . S
C2058 C2060 1.381 . S
C2058 C2064 1.383 . S
C2059 C2055 1.495 . S
C2059 H2065 0.959 . S
C2059 H2066 0.961 . S
C2059 H2067 0.960 . S
C2060 C2058 1.381 . S
C2060 C2061 1.394 . S
C2060 H2068 0.930 . S
C2061 C2060 1.394 . S
C2061 C2062 1.383 . S
C2061 H2069 0.929 . S
C2062 C2061 1.383 . S
C2062 C2063 1.377 . S
C2063 H2047 0.930 . S
C2063 C2062 1.377 . S
C2063 C2064 1.379 . S
C2064 H2048 0.931 . S
C2064 C2058 1.383 . S
C2064 C2063 1.379 . S
H2065 C2059 0.959 . S
H2066 C2059 0.961 . S
H2067 C2059 0.960 . S
H2068 C2060 0.930 . S
H2069 C2061 0.929 . S
H2070 C2078 0.929 . S
H2071 C2080 0.930 . S
H2072 C2082 0.930 . S
H2073 C2085 0.929 . S
H2074 C2088 0.930 . S
H2075 C2090 0.960 . S
H2076 C2090 0.960 . S
H2077 C2090 0.960 . S
C2078 H2070 0.929 . S
C2078 C2079 1.377 . S
C2078 C2080 1.384 . S
C2079 C2078 1.377 . S
C2079 C2085 1.390 . S
C2080 H2071 0.930 . S
C2080 C2078 1.384 . S
C2080 C2081 1.372 . S
C2081 C2080 1.372 . S
C2081 C2082 1.400 . S
C2081 C2086 1.490 . S
C2082 H2072 0.930 . S
C2082 C2081 1.400 . S
C2082 C2085 1.386 . S
H2083 C2099 0.930 . S
H2084 C2100 0.931 . S
C2085 H2073 0.929 . S
C2085 C2079 1.390 . S
C2085 C2082 1.386 . S
C2086 C2081 1.490 . S
C2086 C2088 1.395 . S
C2086 C2089 1.403 . S
H2087 C2093 0.930 . S
C2088 H2074 0.930 . S
C2088 C2086 1.395 . S
C2088 C2091 1.403 . S
C2089 C2086 1.403 . S
C2089 C2090 1.524 . S
C2089 C2093 1.400 . S
C2090 H2075 0.960 . S
C2090 H2076 0.960 . S
C2090 H2077 0.960 . S
C2090 C2089 1.524 . S
C2091 C2088 1.403 . S
C2091 C2092 1.392 . S
C2091 C2095 1.495 . S
C2092 C2091 1.392 . S
C2092 C2093 1.385 . S
C2092 C2094 1.478 . S
C2093 H2087 0.930 . S
C2093 C2089 1.400 . S
C2093 C2092 1.385 . S
C2094 C2092 1.478 . S
C2094 C2096 1.381 . S
C2094 C2100 1.383 . S
C2095 C2091 1.495 . S
C2095 H2101 0.959 . S
C2095 H2102 0.961 . S
C2095 H2103 0.960 . S
C2096 C2094 1.381 . S
C2096 C2097 1.394 . S
C2096 H2104 0.930 . S
C2097 C2096 1.394 . S
C2097 C2098 1.383 . S
C2097 H2105 0.929 . S
C2098 C2097 1.383 . S
C2098 C2099 1.377 . S
C2099 H2083 0.930 . S
C2099 C2098 1.377 . S
C2099 C2100 1.379 . S
C2100 H2084 0.931 . S
C2100 C2094 1.383 . S
C2100 C2099 1.379 . S
H2101 C2095 0.959 . S
H2102 C2095 0.961 . S
H2103 C2095 0.960 . S
H2104 C2096 0.930 . S
H2105 C2097 0.929 . S
H2106 C2114 0.929 . S
H2107 C2116 0.930 . S
H2108 C2118 0.930 . S
H2109 C2121 0.929 . S
H2110 C2124 0.930 . S
H2111 C2126 0.960 . S
H2112 C2126 0.960 . S
H2113 C2126 0.960 . S
C2114 H2106 0.929 . S
C2114 C2115 1.377 . S
C2114 C2116 1.384 . S
C2115 C2114 1.377 . S
C2115 C2121 1.390 . S
C2116 H2107 0.930 . S
C2116 C2114 1.384 . S
C2116 C2117 1.372 . S
C2117 C2116 1.372 . S
C2117 C2118 1.400 . S
C2117 C2122 1.490 . S
C2118 H2108 0.930 . S
C2118 C2117 1.400 . S
C2118 C2121 1.386 . S
H2119 C2135 0.930 . S
H2120 C2136 0.931 . S
C2121 H2109 0.929 . S
C2121 C2115 1.390 . S
C2121 C2118 1.386 . S
C2122 C2117 1.490 . S
C2122 C2124 1.395 . S
C2122 C2125 1.403 . S
H2123 C2129 0.930 . S
C2124 H2110 0.930 . S
C2124 C2122 1.395 . S
C2124 C2127 1.403 . S
C2125 C2122 1.403 . S
C2125 C2126 1.524 . S
C2125 C2129 1.400 . S
C2126 H2111 0.960 . S
C2126 H2112 0.960 . S
C2126 H2113 0.960 . S
C2126 C2125 1.524 . S
C2127 C2124 1.403 . S
C2127 C2128 1.392 . S
C2127 C2131 1.495 . S
C2128 C2127 1.392 . S
C2128 C2129 1.385 . S
C2128 C2130 1.478 . S
C2129 H2123 0.930 . S
C2129 C2125 1.400 . S
C2129 C2128 1.385 . S
C2130 C2128 1.478 . S
C2130 C2132 1.381 . S
C2130 C2136 1.383 . S
C2131 C2127 1.495 . S
C2131 H2137 0.959 . S
C2131 H2138 0.961 . S
C2131 H2139 0.960 . S
C2132 C2130 1.381 . S
C2132 C2133 1.394 . S
C2132 H2140 0.930 . S
C2133 C2132 1.394 . S
C2133 C2134 1.383 . S
C2133 H2141 0.929 . S
C2134 C2133 1.383 . S
C2134 C2135 1.377 . S
C2135 H2119 0.930 . S
C2135 C2134 1.377 . S
C2135 C2136 1.379 . S
C2136 H2120 0.931 . S
C2136 C2130 1.383 . S
C2136 C2135 1.379 . S
H2137 C2131 0.959 . S
H2138 C2131 0.961 . S
H2139 C2131 0.960 . S
H2140 C2132 0.930 . S
H2141 C2133 0.929 . S
H2142 C2150 0.929 . S
H2143 C2152 0.930 . S
H2144 C2154 0.930 . S
H2145 C2157 0.929 . S
H2146 C2160 0.930 . S
H2147 C2162 0.960 . S
H2148 C2162 0.960 . S
H2149 C2162 0.960 . S
C2150 H2142 0.929 . S
C2150 C2151 1.377 . S
C2150 C2152 1.384 . S
C2151 C2150 1.377 . S
C2151 C2157 1.390 . S
C2152 H2143 0.930 . S
C2152 C2150 1.384 . S
C2152 C2153 1.372 . S
C2153 C2152 1.372 . S
C2153 C2154 1.400 . S
C2153 C2158 1.490 . S
C2154 H2144 0.930 . S
C2154 C2153 1.400 . S
C2154 C2157 1.386 . S
H2155 C2171 0.930 . S
H2156 C2172 0.931 . S
C2157 H2145 0.929 . S
C2157 C2151 1.390 . S
C2157 C2154 1.386 . S
C2158 C2153 1.490 . S
C2158 C2160 1.395 . S
C2158 C2161 1.403 . S
H2159 C2165 0.930 . S
C2160 H2146 0.930 . S
C2160 C2158 1.395 . S
C2160 C2163 1.403 . S
C2161 C2158 1.403 . S
C2161 C2162 1.524 . S
C2161 C2165 1.400 . S
C2162 H2147 0.960 . S
C2162 H2148 0.960 . S
C2162 H2149 0.960 . S
C2162 C2161 1.524 . S
C2163 C2160 1.403 . S
C2163 C2164 1.392 . S
C2163 C2167 1.495 . S
C2164 C2163 1.392 . S
C2164 C2165 1.385 . S
C2164 C2166 1.478 . S
C2165 H2159 0.930 . S
C2165 C2161 1.400 . S
C2165 C2164 1.385 . S
C2166 C2164 1.478 . S
C2166 C2168 1.381 . S
C2166 C2172 1.383 . S
C2167 C2163 1.495 . S
C2167 H2173 0.959 . S
C2167 H2174 0.961 . S
C2167 H2175 0.960 . S
C2168 C2166 1.381 . S
C2168 C2169 1.394 . S
C2168 H2176 0.930 . S
C2169 C2168 1.394 . S
C2169 C2170 1.383 . S
C2169 H2177 0.929 . S
C2170 C2169 1.383 . S
C2170 C2171 1.377 . S
C2171 H2155 0.930 . S
C2171 C2170 1.377 . S
C2171 C2172 1.379 . S
C2172 H2156 0.931 . S
C2172 C2166 1.383 . S
C2172 C2171 1.379 . S
H2173 C2167 0.959 . S
H2174 C2167 0.961 . S
H2175 C2167 0.960 . S
H2176 C2168 0.930 . S
H2177 C2169 0.929 . S
H2178 C2186 0.929 . S
H2179 C2188 0.930 . S
H2180 C2190 0.930 . S
H2181 C2193 0.929 . S
H2182 C2196 0.930 . S
H2183 C2198 0.960 . S
H2184 C2198 0.960 . S
H2185 C2198 0.960 . S
C2186 H2178 0.929 . S
C2186 C2187 1.377 . S
C2186 C2188 1.384 . S
C2187 C2186 1.377 . S
C2187 C2193 1.390 . S
C2188 H2179 0.930 . S
C2188 C2186 1.384 . S
C2188 C2189 1.372 . S
C2189 C2188 1.372 . S
C2189 C2190 1.400 . S
C2189 C2194 1.490 . S
C2190 H2180 0.930 . S
C2190 C2189 1.400 . S
C2190 C2193 1.386 . S
H2191 C2207 0.930 . S
H2192 C2208 0.931 . S
C2193 H2181 0.929 . S
C2193 C2187 1.390 . S
C2193 C2190 1.386 . S
C2194 C2189 1.490 . S
C2194 C2196 1.395 . S
C2194 C2197 1.403 . S
H2195 C2201 0.930 . S
C2196 H2182 0.930 . S
C2196 C2194 1.395 . S
C2196 C2199 1.403 . S
C2197 C2194 1.403 . S
C2197 C2198 1.524 . S
C2197 C2201 1.400 . S
C2198 H2183 0.960 . S
C2198 H2184 0.960 . S
C2198 H2185 0.960 . S
C2198 C2197 1.524 . S
C2199 C2196 1.403 . S
C2199 C2200 1.392 . S
C2199 C2203 1.495 . S
C2200 C2199 1.392 . S
C2200 C2201 1.385 . S
C2200 C2202 1.478 . S
C2201 H2195 0.930 . S
C2201 C2197 1.400 . S
C2201 C2200 1.385 . S
C2202 C2200 1.478 . S
C2202 C2204 1.381 . S
C2202 C2208 1.383 . S
C2203 C2199 1.495 . S
C2203 H2209 0.959 . S
C2203 H2210 0.961 . S
C2203 H2211 0.960 . S
C2204 C2202 1.381 . S
C2204 C2205 1.394 . S
C2204 H2212 0.930 . S
C2205 C2204 1.394 . S
C2205 C2206 1.383 . S
C2205 H2213 0.929 . S
C2206 C2205 1.383 . S
C2206 C2207 1.377 . S
C2207 H2191 0.930 . S
C2207 C2206 1.377 . S
C2207 C2208 1.379 . S
C2208 H2192 0.931 . S
C2208 C2202 1.383 . S
C2208 C2207 1.379 . S
H2209 C2203 0.959 . S
H2210 C2203 0.961 . S
H2211 C2203 0.960 . S
H2212 C2204 0.930 . S
H2213 C2205 0.929 . S
H2214 C2222 0.929 . S
H2215 C2224 0.930 . S
H2216 C2226 0.930 . S
H2217 C2229 0.929 . S
H2218 C2232 0.930 . S
H2219 C2234 0.960 . S
H2220 C2234 0.960 . S
H2221 C2234 0.960 . S
C2222 H2214 0.929 . S
C2222 C2223 1.377 . S
C2222 C2224 1.384 . S
C2223 C2222 1.377 . S
C2223 C2229 1.390 . S
C2224 H2215 0.930 . S
C2224 C2222 1.384 . S
C2224 C2225 1.372 . S
C2225 C2224 1.372 . S
C2225 C2226 1.400 . S
C2225 C2230 1.490 . S
C2226 H2216 0.930 . S
C2226 C2225 1.400 . S
C2226 C2229 1.386 . S
H2227 C2243 0.930 . S
H2228 C2244 0.931 . S
C2229 H2217 0.929 . S
C2229 C2223 1.390 . S
C2229 C2226 1.386 . S
C2230 C2225 1.490 . S
C2230 C2232 1.395 . S
C2230 C2233 1.403 . S
H2231 C2237 0.930 . S
C2232 H2218 0.930 . S
C2232 C2230 1.395 . S
C2232 C2235 1.403 . S
C2233 C2230 1.403 . S
C2233 C2234 1.524 . S
C2233 C2237 1.400 . S
C2234 H2219 0.960 . S
C2234 H2220 0.960 . S
C2234 H2221 0.960 . S
C2234 C2233 1.524 . S
C2235 C2232 1.403 . S
C2235 C2236 1.392 . S
C2235 C2239 1.495 . S
C2236 C2235 1.392 . S
C2236 C2237 1.385 . S
C2236 C2238 1.478 . S
C2237 H2231 0.930 . S
C2237 C2233 1.400 . S
C2237 C2236 1.385 . S
C2238 C2236 1.478 . S
C2238 C2240 1.381 . S
C2238 C2244 1.383 . S
C2239 C2235 1.495 . S
C2239 H2245 0.959 . S
C2239 H2246 0.961 . S
C2239 H2247 0.960 . S
C2240 C2238 1.381 . S
C2240 C2241 1.394 . S
C2240 H2248 0.930 . S
C2241 C2240 1.394 . S
C2241 C2242 1.383 . S
C2241 H2249 0.929 . S
C2242 C2241 1.383 . S
C2242 C2243 1.377 . S
C2243 H2227 0.930 . S
C2243 C2242 1.377 . S
C2243 C2244 1.379 . S
C2244 H2228 0.931 . S
C2244 C2238 1.383 . S
C2244 C2243 1.379 . S
H2245 C2239 0.959 . S
H2246 C2239 0.961 . S
H2247 C2239 0.960 . S
H2248 C2240 0.930 . S
H2249 C2241 0.929 . S
H2250 C2258 0.929 . S
H2251 C2260 0.930 . S
H2252 C2262 0.930 . S
H2253 C2265 0.929 . S
H2254 C2268 0.930 . S
H2255 C2270 0.960 . S
H2256 C2270 0.960 . S
H2257 C2270 0.960 . S
C2258 H2250 0.929 . S
C2258 C2259 1.377 . S
C2258 C2260 1.384 . S
C2259 C2258 1.377 . S
C2259 C2265 1.390 . S
C2260 H2251 0.930 . S
C2260 C2258 1.384 . S
C2260 C2261 1.372 . S
C2261 C2260 1.372 . S
C2261 C2262 1.400 . S
C2261 C2266 1.490 . S
C2262 H2252 0.930 . S
C2262 C2261 1.400 . S
C2262 C2265 1.386 . S
H2263 C2279 0.930 . S
H2264 C2280 0.931 . S
C2265 H2253 0.929 . S
C2265 C2259 1.390 . S
C2265 C2262 1.386 . S
C2266 C2261 1.490 . S
C2266 C2268 1.395 . S
C2266 C2269 1.403 . S
H2267 C2273 0.930 . S
C2268 H2254 0.930 . S
C2268 C2266 1.395 . S
C2268 C2271 1.403 . S
C2269 C2266 1.403 . S
C2269 C2270 1.524 . S
C2269 C2273 1.400 . S
C2270 H2255 0.960 . S
C2270 H2256 0.960 . S
C2270 H2257 0.960 . S
C2270 C2269 1.524 . S
C2271 C2268 1.403 . S
C2271 C2272 1.392 . S
C2271 C2275 1.495 . S
C2272 C2271 1.392 . S
C2272 C2273 1.385 . S
C2272 C2274 1.478 . S
C2273 H2267 0.930 . S
C2273 C2269 1.400 . S
C2273 C2272 1.385 . S
C2274 C2272 1.478 . S
C2274 C2276 1.381 . S
C2274 C2280 1.383 . S
C2275 C2271 1.495 . S
C2275 H2281 0.959 . S
C2275 H2282 0.961 . S
C2275 H2283 0.960 . S
C2276 C2274 1.381 . S
C2276 C2277 1.394 . S
C2276 H2284 0.930 . S
C2277 C2276 1.394 . S
C2277 C2278 1.383 . S
C2277 H2285 0.929 . S
C2278 C2277 1.383 . S
C2278 C2279 1.377 . S
C2279 H2263 0.930 . S
C2279 C2278 1.377 . S
C2279 C2280 1.379 . S
C2280 H2264 0.931 . S
C2280 C2274 1.383 . S
C2280 C2279 1.379 . S
H2281 C2275 0.959 . S
H2282 C2275 0.961 . S
H2283 C2275 0.960 . S
H2284 C2276 0.930 . S
H2285 C2277 0.929 . S
H2286 C2294 0.929 . S
H2287 C2296 0.930 . S
H2288 C2298 0.930 . S
H2289 C2301 0.929 . S
H2290 C2304 0.930 . S
H2291 C2306 0.960 . S
H2292 C2306 0.960 . S
H2293 C2306 0.960 . S
C2294 H2286 0.929 . S
C2294 C2295 1.377 . S
C2294 C2296 1.384 . S
C2295 C2294 1.377 . S
C2295 C2301 1.390 . S
C2296 H2287 0.930 . S
C2296 C2294 1.384 . S
C2296 C2297 1.372 . S
C2297 C2296 1.372 . S
C2297 C2298 1.400 . S
C2297 C2302 1.490 . S
C2298 H2288 0.930 . S
C2298 C2297 1.400 . S
C2298 C2301 1.386 . S
H2299 C2315 0.930 . S
H2300 C2316 0.931 . S
C2301 H2289 0.929 . S
C2301 C2295 1.390 . S
C2301 C2298 1.386 . S
C2302 C2297 1.490 . S
C2302 C2304 1.395 . S
C2302 C2305 1.403 . S
H2303 C2309 0.930 . S
C2304 H2290 0.930 . S
C2304 C2302 1.395 . S
C2304 C2307 1.403 . S
C2305 C2302 1.403 . S
C2305 C2306 1.524 . S
C2305 C2309 1.400 . S
C2306 H2291 0.960 . S
C2306 H2292 0.960 . S
C2306 H2293 0.960 . S
C2306 C2305 1.524 . S
C2307 C2304 1.403 . S
C2307 C2308 1.392 . S
C2307 C2311 1.495 . S
C2308 C2307 1.392 . S
C2308 C2309 1.385 . S
C2308 C2310 1.478 . S
C2309 H2303 0.930 . S
C2309 C2305 1.400 . S
C2309 C2308 1.385 . S
C2310 C2308 1.478 . S
C2310 C2312 1.381 . S
C2310 C2316 1.383 . S
C2311 C2307 1.495 . S
C2311 H2317 0.959 . S
C2311 H2318 0.961 . S
C2311 H2319 0.960 . S
C2312 C2310 1.381 . S
C2312 C2313 1.394 . S
C2312 H2320 0.930 . S
C2313 C2312 1.394 . S
C2313 C2314 1.383 . S
C2313 H2321 0.929 . S
C2314 C2313 1.383 . S
C2314 C2315 1.377 . S
C2315 H2299 0.930 . S
C2315 C2314 1.377 . S
C2315 C2316 1.379 . S
C2316 H2300 0.931 . S
C2316 C2310 1.383 . S
C2316 C2315 1.379 . S
H2317 C2311 0.959 . S
H2318 C2311 0.961 . S
H2319 C2311 0.960 . S
H2320 C2312 0.930 . S
H2321 C2313 0.929 . S
H2322 C2330 0.929 . S
H2323 C2332 0.930 . S
H2324 C2334 0.930 . S
H2325 C2337 0.929 . S
H2326 C2340 0.930 . S
H2327 C2342 0.960 . S
H2328 C2342 0.960 . S
H2329 C2342 0.960 . S
C2330 H2322 0.929 . S
C2330 C2331 1.377 . S
C2330 C2332 1.384 . S
C2331 C2330 1.377 . S
C2331 C2337 1.390 . S
C2332 H2323 0.930 . S
C2332 C2330 1.384 . S
C2332 C2333 1.372 . S
C2333 C2332 1.372 . S
C2333 C2334 1.400 . S
C2333 C2338 1.490 . S
C2334 H2324 0.930 . S
C2334 C2333 1.400 . S
C2334 C2337 1.386 . S
H2335 C2351 0.930 . S
H2336 C2352 0.931 . S
C2337 H2325 0.929 . S
C2337 C2331 1.390 . S
C2337 C2334 1.386 . S
C2338 C2333 1.490 . S
C2338 C2340 1.395 . S
C2338 C2341 1.403 . S
H2339 C2345 0.930 . S
C2340 H2326 0.930 . S
C2340 C2338 1.395 . S
C2340 C2343 1.403 . S
C2341 C2338 1.403 . S
C2341 C2342 1.524 . S
C2341 C2345 1.400 . S
C2342 H2327 0.960 . S
C2342 H2328 0.960 . S
C2342 H2329 0.960 . S
C2342 C2341 1.524 . S
C2343 C2340 1.403 . S
C2343 C2344 1.392 . S
C2343 C2347 1.495 . S
C2344 C2343 1.392 . S
C2344 C2345 1.385 . S
C2344 C2346 1.478 . S
C2345 H2339 0.930 . S
C2345 C2341 1.400 . S
C2345 C2344 1.385 . S
C2346 C2344 1.478 . S
C2346 C2348 1.381 . S
C2346 C2352 1.383 . S
C2347 C2343 1.495 . S
C2347 H2353 0.959 . S
C2347 H2354 0.961 . S
C2347 H2355 0.960 . S
C2348 C2346 1.381 . S
C2348 C2349 1.394 . S
C2348 H2356 0.930 . S
C2349 C2348 1.394 . S
C2349 C2350 1.383 . S
C2349 H2357 0.929 . S
C2350 C2349 1.383 . S
C2350 C2351 1.377 . S
C2351 H2335 0.930 . S
C2351 C2350 1.377 . S
C2351 C2352 1.379 . S
C2352 H2336 0.931 . S
C2352 C2346 1.383 . S
C2352 C2351 1.379 . S
H2353 C2347 0.959 . S
H2354 C2347 0.961 . S
H2355 C2347 0.960 . S
H2356 C2348 0.930 . S
H2357 C2349 0.929 . S
H2358 C2366 0.929 . S
H2359 C2368 0.930 . S
H2360 C2370 0.930 . S
H2361 C2373 0.929 . S
H2362 C2376 0.930 . S
H2363 C2378 0.960 . S
H2364 C2378 0.960 . S
H2365 C2378 0.960 . S
C2366 H2358 0.929 . S
C2366 C2367 1.377 . S
C2366 C2368 1.384 . S
C2367 C2366 1.377 . S
C2367 C2373 1.390 . S
C2368 H2359 0.930 . S
C2368 C2366 1.384 . S
C2368 C2369 1.372 . S
C2369 C2368 1.372 . S
C2369 C2370 1.400 . S
C2369 C2374 1.490 . S
C2370 H2360 0.930 . S
C2370 C2369 1.400 . S
C2370 C2373 1.386 . S
H2371 C2387 0.930 . S
H2372 C2388 0.931 . S
C2373 H2361 0.929 . S
C2373 C2367 1.390 . S
C2373 C2370 1.386 . S
C2374 C2369 1.490 . S
C2374 C2376 1.395 . S
C2374 C2377 1.403 . S
H2375 C2381 0.930 . S
C2376 H2362 0.930 . S
C2376 C2374 1.395 . S
C2376 C2379 1.403 . S
C2377 C2374 1.403 . S
C2377 C2378 1.524 . S
C2377 C2381 1.400 . S
C2378 H2363 0.960 . S
C2378 H2364 0.960 . S
C2378 H2365 0.960 . S
C2378 C2377 1.524 . S
C2379 C2376 1.403 . S
C2379 C2380 1.392 . S
C2379 C2383 1.495 . S
C2380 C2379 1.392 . S
C2380 C2381 1.385 . S
C2380 C2382 1.478 . S
C2381 H2375 0.930 . S
C2381 C2377 1.400 . S
C2381 C2380 1.385 . S
C2382 C2380 1.478 . S
C2382 C2384 1.381 . S
C2382 C2388 1.383 . S
C2383 C2379 1.495 . S
C2383 H2389 0.959 . S
C2383 H2390 0.961 . S
C2383 H2391 0.960 . S
C2384 C2382 1.381 . S
C2384 C2385 1.394 . S
C2384 H2392 0.930 . S
C2385 C2384 1.394 . S
C2385 C2386 1.383 . S
C2385 H2393 0.929 . S
C2386 C2385 1.383 . S
C2386 C2387 1.377 . S
C2387 H2371 0.930 . S
C2387 C2386 1.377 . S
C2387 C2388 1.379 . S
C2388 H2372 0.931 . S
C2388 C2382 1.383 . S
C2388 C2387 1.379 . S
H2389 C2383 0.959 . S
H2390 C2383 0.961 . S
H2391 C2383 0.960 . S
H2392 C2384 0.930 . S
H2393 C2385 0.929 . S
H2394 C2402 0.929 . S
H2395 C2404 0.930 . S
H2396 C2406 0.930 . S
H2397 C2409 0.929 . S
H2398 C2412 0.930 . S
H2399 C2414 0.960 . S
H2400 C2414 0.960 . S
H2401 C2414 0.960 . S
C2402 H2394 0.929 . S
C2402 C2403 1.377 . S
C2402 C2404 1.384 . S
C2403 C2402 1.377 . S
C2403 C2409 1.390 . S
C2404 H2395 0.930 . S
C2404 C2402 1.384 . S
C2404 C2405 1.372 . S
C2405 C2404 1.372 . S
C2405 C2406 1.400 . S
C2405 C2410 1.490 . S
C2406 H2396 0.930 . S
C2406 C2405 1.400 . S
C2406 C2409 1.386 . S
H2407 C2423 0.930 . S
H2408 C2424 0.931 . S
C2409 H2397 0.929 . S
C2409 C2403 1.390 . S
C2409 C2406 1.386 . S
C2410 C2405 1.490 . S
C2410 C2412 1.395 . S
C2410 C2413 1.403 . S
H2411 C2417 0.930 . S
C2412 H2398 0.930 . S
C2412 C2410 1.395 . S
C2412 C2415 1.403 . S
C2413 C2410 1.403 . S
C2413 C2414 1.524 . S
C2413 C2417 1.400 . S
C2414 H2399 0.960 . S
C2414 H2400 0.960 . S
C2414 H2401 0.960 . S
C2414 C2413 1.524 . S
C2415 C2412 1.403 . S
C2415 C2416 1.392 . S
C2415 C2419 1.495 . S
C2416 C2415 1.392 . S
C2416 C2417 1.385 . S
C2416 C2418 1.478 . S
C2417 H2411 0.930 . S
C2417 C2413 1.400 . S
C2417 C2416 1.385 . S
C2418 C2416 1.478 . S
C2418 C2420 1.381 . S
C2418 C2424 1.383 . S
C2419 C2415 1.495 . S
C2419 H2425 0.959 . S
C2419 H2426 0.961 . S
C2419 H2427 0.960 . S
C2420 C2418 1.381 . S
C2420 C2421 1.394 . S
C2420 H2428 0.930 . S
C2421 C2420 1.394 . S
C2421 C2422 1.383 . S
C2421 H2429 0.929 . S
C2422 C2421 1.383 . S
C2422 C2423 1.377 . S
C2423 H2407 0.930 . S
C2423 C2422 1.377 . S
C2423 C2424 1.379 . S
C2424 H2408 0.931 . S
C2424 C2418 1.383 . S
C2424 C2423 1.379 . S
H2425 C2419 0.959 . S
H2426 C2419 0.961 . S
H2427 C2419 0.960 . S
H2428 C2420 0.930 . S
H2429 C2421 0.929 . S
H2430 C2438 0.929 . S
H2431 C2440 0.930 . S
H2432 C2442 0.930 . S
H2433 C2445 0.929 . S
H2434 C2448 0.930 . S
H2435 C2450 0.960 . S
H2436 C2450 0.960 . S
H2437 C2450 0.960 . S
C2438 H2430 0.929 . S
C2438 C2439 1.377 . S
C2438 C2440 1.384 . S
C2439 C2438 1.377 . S
C2439 C2445 1.390 . S
C2440 H2431 0.930 . S
C2440 C2438 1.384 . S
C2440 C2441 1.372 . S
C2441 C2440 1.372 . S
C2441 C2442 1.400 . S
C2441 C2446 1.490 . S
C2442 H2432 0.930 . S
C2442 C2441 1.400 . S
C2442 C2445 1.386 . S
H2443 C2459 0.930 . S
H2444 C2460 0.931 . S
C2445 H2433 0.929 . S
C2445 C2439 1.390 . S
C2445 C2442 1.386 . S
C2446 C2441 1.490 . S
C2446 C2448 1.395 . S
C2446 C2449 1.403 . S
H2447 C2453 0.930 . S
C2448 H2434 0.930 . S
C2448 C2446 1.395 . S
C2448 C2451 1.403 . S
C2449 C2446 1.403 . S
C2449 C2450 1.524 . S
C2449 C2453 1.400 . S
C2450 H2435 0.960 . S
C2450 H2436 0.960 . S
C2450 H2437 0.960 . S
C2450 C2449 1.524 . S
C2451 C2448 1.403 . S
C2451 C2452 1.392 . S
C2451 C2455 1.495 . S
C2452 C2451 1.392 . S
C2452 C2453 1.385 . S
C2452 C2454 1.478 . S
C2453 H2447 0.930 . S
C2453 C2449 1.400 . S
C2453 C2452 1.385 . S
C2454 C2452 1.478 . S
C2454 C2456 1.381 . S
C2454 C2460 1.383 . S
C2455 C2451 1.495 . S
C2455 H2461 0.959 . S
C2455 H2462 0.961 . S
C2455 H2463 0.960 . S
C2456 C2454 1.381 . S
C2456 C2457 1.394 . S
C2456 H2464 0.930 . S
C2457 C2456 1.394 . S
C2457 C2458 1.383 . S
C2457 H2465 0.929 . S
C2458 C2457 1.383 . S
C2458 C2459 1.377 . S
C2459 H2443 0.930 . S
C2459 C2458 1.377 . S
C2459 C2460 1.379 . S
C2460 H2444 0.931 . S
C2460 C2454 1.383 . S
C2460 C2459 1.379 . S
H2461 C2455 0.959 . S
H2462 C2455 0.961 . S
H2463 C2455 0.960 . S
H2464 C2456 0.930 . S
H2465 C2457 0.929 . S
H2466 C2474 0.929 . S
H2467 C2476 0.930 . S
H2468 C2478 0.930 . S
H2469 C2481 0.929 . S
H2470 C2484 0.930 . S
H2471 C2486 0.960 . S
H2472 C2486 0.960 . S
H2473 C2486 0.960 . S
C2474 H2466 0.929 . S
C2474 C2475 1.377 . S
C2474 C2476 1.384 . S
C2475 C2474 1.377 . S
C2475 C2481 1.390 . S
C2476 H2467 0.930 . S
C2476 C2474 1.384 . S
C2476 C2477 1.372 . S
C2477 C2476 1.372 . S
C2477 C2478 1.400 . S
C2477 C2482 1.490 . S
C2478 H2468 0.930 . S
C2478 C2477 1.400 . S
C2478 C2481 1.386 . S
H2479 C2495 0.930 . S
H2480 C2496 0.931 . S
C2481 H2469 0.929 . S
C2481 C2475 1.390 . S
C2481 C2478 1.386 . S
C2482 C2477 1.490 . S
C2482 C2484 1.395 . S
C2482 C2485 1.403 . S
H2483 C2489 0.930 . S
C2484 H2470 0.930 . S
C2484 C2482 1.395 . S
C2484 C2487 1.403 . S
C2485 C2482 1.403 . S
C2485 C2486 1.524 . S
C2485 C2489 1.400 . S
C2486 H2471 0.960 . S
C2486 H2472 0.960 . S
C2486 H2473 0.960 . S
C2486 C2485 1.524 . S
C2487 C2484 1.403 . S
C2487 C2488 1.392 . S
C2487 C2491 1.495 . S
C2488 C2487 1.392 . S
C2488 C2489 1.385 . S
C2488 C2490 1.478 . S
C2489 H2483 0.930 . S
C2489 C2485 1.400 . S
C2489 C2488 1.385 . S
C2490 C2488 1.478 . S
C2490 C2492 1.381 . S
C2490 C2496 1.383 . S
C2491 C2487 1.495 . S
C2491 H2497 0.959 . S
C2491 H2498 0.961 . S
C2491 H2499 0.960 . S
C2492 C2490 1.381 . S
C2492 C2493 1.394 . S
C2492 H2500 0.930 . S
C2493 C2492 1.394 . S
C2493 C2494 1.383 . S
C2493 H2501 0.929 . S
C2494 C2493 1.383 . S
C2494 C2495 1.377 . S
C2495 H2479 0.930 . S
C2495 C2494 1.377 . S
C2495 C2496 1.379 . S
C2496 H2480 0.931 . S
C2496 C2490 1.383 . S
C2496 C2495 1.379 . S
H2497 C2491 0.959 . S
H2498 C2491 0.961 . S
H2499 C2491 0.960 . S
H2500 C2492 0.930 . S
H2501 C2493 0.929 . S
H2502 C2510 0.929 . S
H2503 C2512 0.930 . S
H2504 C2514 0.930 . S
H2505 C2517 0.929 . S
H2506 C2520 0.930 . S
H2507 C2522 0.960 . S
H2508 C2522 0.960 . S
H2509 C2522 0.960 . S
C2510 H2502 0.929 . S
C2510 C2511 1.377 . S
C2510 C2512 1.384 . S
C2511 C2510 1.377 . S
C2511 C2517 1.390 . S
C2512 H2503 0.930 . S
C2512 C2510 1.384 . S
C2512 C2513 1.372 . S
C2513 C2512 1.372 . S
C2513 C2514 1.400 . S
C2513 C2518 1.490 . S
C2514 H2504 0.930 . S
C2514 C2513 1.400 . S
C2514 C2517 1.386 . S
H2515 C2531 0.930 . S
H2516 C2532 0.931 . S
C2517 H2505 0.929 . S
C2517 C2511 1.390 . S
C2517 C2514 1.386 . S
C2518 C2513 1.490 . S
C2518 C2520 1.395 . S
C2518 C2521 1.403 . S
H2519 C2525 0.930 . S
C2520 H2506 0.930 . S
C2520 C2518 1.395 . S
C2520 C2523 1.403 . S
C2521 C2518 1.403 . S
C2521 C2522 1.524 . S
C2521 C2525 1.400 . S
C2522 H2507 0.960 . S
C2522 H2508 0.960 . S
C2522 H2509 0.960 . S
C2522 C2521 1.524 . S
C2523 C2520 1.403 . S
C2523 C2524 1.392 . S
C2523 C2527 1.495 . S
C2524 C2523 1.392 . S
C2524 C2525 1.385 . S
C2524 C2526 1.478 . S
C2525 H2519 0.930 . S
C2525 C2521 1.400 . S
C2525 C2524 1.385 . S
C2526 C2524 1.478 . S
C2526 C2528 1.381 . S
C2526 C2532 1.383 . S
C2527 C2523 1.495 . S
C2527 H2533 0.959 . S
C2527 H2534 0.961 . S
C2527 H2535 0.960 . S
C2528 C2526 1.381 . S
C2528 C2529 1.394 . S
C2528 H2536 0.930 . S
C2529 C2528 1.394 . S
C2529 C2530 1.383 . S
C2529 H2537 0.929 . S
C2530 C2529 1.383 . S
C2530 C2531 1.377 . S
C2531 H2515 0.930 . S
C2531 C2530 1.377 . S
C2531 C2532 1.379 . S
C2532 H2516 0.931 . S
C2532 C2526 1.383 . S
C2532 C2531 1.379 . S
H2533 C2527 0.959 . S
H2534 C2527 0.961 . S
H2535 C2527 0.960 . S
H2536 C2528 0.930 . S
H2537 C2529 0.929 . S
H2538 C2546 0.929 . S
H2539 C2548 0.930 . S
H2540 C2550 0.930 . S
H2541 C2553 0.929 . S
H2542 C2556 0.930 . S
H2543 C2558 0.960 . S
H2544 C2558 0.960 1_554 S
H2545 C2558 0.960 . S
C2546 H2538 0.929 . S
C2546 C2547 1.377 . S
C2546 C2548 1.384 . S
C2547 C2546 1.377 . S
C2547 C2553 1.390 . S
C2548 H2539 0.930 . S
C2548 C2546 1.384 . S
C2548 C2549 1.372 . S
C2549 C2548 1.372 . S
C2549 C2550 1.400 . S
C2549 C2554 1.490 . S
C2550 H2540 0.930 . S
C2550 C2549 1.400 . S
C2550 C2553 1.386 . S
H2551 C2567 0.930 . S
H2552 C2568 0.931 . S
C2553 H2541 0.929 . S
C2553 C2547 1.390 . S
C2553 C2550 1.386 . S
C2554 C2549 1.490 . S
C2554 C2556 1.395 . S
C2554 C2557 1.403 . S
H2555 C2561 0.930 . S
C2556 H2542 0.930 . S
C2556 C2554 1.395 . S
C2556 C2559 1.403 . S
C2557 C2554 1.403 . S
C2557 C2558 1.524 . S
C2557 C2561 1.400 . S
C2558 H2543 0.960 . S
C2558 H2544 0.960 1_556 S
C2558 H2545 0.960 . S
C2558 C2557 1.524 . S
C2559 C2556 1.403 . S
C2559 C2560 1.392 . S
C2559 C2563 1.495 . S
C2560 C2559 1.392 . S
C2560 C2561 1.385 . S
C2560 C2562 1.478 . S
C2561 H2555 0.930 . S
C2561 C2557 1.400 . S
C2561 C2560 1.385 . S
C2562 C2560 1.478 . S
C2562 C2564 1.381 . S
C2562 C2568 1.383 . S
C2563 C2559 1.495 . S
C2563 H2569 0.959 . S
C2563 H2570 0.961 . S
C2563 H2571 0.960 . S
C2564 C2562 1.381 . S
C2564 C2565 1.394 . S
C2564 H2572 0.930 . S
C2565 C2564 1.394 . S
C2565 C2566 1.383 . S
C2565 H2573 0.929 . S
C2566 C2565 1.383 . S
C2566 C2567 1.377 . S
C2567 H2551 0.930 . S
C2567 C2566 1.377 . S
C2567 C2568 1.379 . S
C2568 H2552 0.931 . S
C2568 C2562 1.383 . S
C2568 C2567 1.379 . S
H2569 C2563 0.959 . S
H2570 C2563 0.961 . S
H2571 C2563 0.960 . S
H2572 C2564 0.930 . S
H2573 C2565 0.929 . S
H2574 C2582 0.929 . S
H2575 C2584 0.930 . S
H2576 C2586 0.930 . S
H2577 C2589 0.934 . S
H2578 C2592 0.930 . S
H2579 C2594 0.960 . S
H2580 C2594 0.960 . S
H2581 C2594 0.960 . S
C2582 H2574 0.929 . S
C2582 C2583 1.377 . S
C2582 C2584 1.384 . S
C2583 C2582 1.377 . S
C2583 C2589 1.387 1_556 S
C2584 H2575 0.930 . S
C2584 C2582 1.384 . S
C2584 C2585 1.372 . S
C2585 C2584 1.372 . S
C2585 C2586 1.400 . S
C2585 C2590 1.490 . S
C2586 H2576 0.930 . S
C2586 C2585 1.400 . S
C2586 C2589 1.384 1_556 S
H2587 C2603 0.930 . S
H2588 C2604 0.931 . S
C2589 H2577 0.934 . S
C2589 C2583 1.387 1_554 S
C2589 C2586 1.384 1_554 S
C2590 C2585 1.490 . S
C2590 C2592 1.395 . S
C2590 C2593 1.403 . S
H2591 C2597 0.930 . S
C2592 H2578 0.930 . S
C2592 C2590 1.395 . S
C2592 C2595 1.403 . S
C2593 C2590 1.403 . S
C2593 C2594 1.524 . S
C2593 C2597 1.400 . S
C2594 H2579 0.960 . S
C2594 H2580 0.960 . S
C2594 H2581 0.960 . S
C2594 C2593 1.524 . S
C2595 C2592 1.403 . S
C2595 C2596 1.392 . S
C2595 C2599 1.495 . S
C2596 C2595 1.392 . S
C2596 C2597 1.385 . S
C2596 C2598 1.478 . S
C2597 H2591 0.930 . S
C2597 C2593 1.400 . S
C2597 C2596 1.385 . S
C2598 C2596 1.478 . S
C2598 C2600 1.381 . S
C2598 C2604 1.383 . S
C2599 C2595 1.495 . S
C2599 H2605 0.959 . S
C2599 H2606 0.961 . S
C2599 H2607 0.960 . S
C2600 C2598 1.381 . S
C2600 C2601 1.394 . S
C2600 H2608 0.930 . S
C2601 C2600 1.394 . S
C2601 C2602 1.383 . S
C2601 H2609 0.929 . S
C2602 C2601 1.383 . S
C2602 C2603 1.377 . S
C2603 H2587 0.930 . S
C2603 C2602 1.377 . S
C2603 C2604 1.379 . S
C2604 H2588 0.931 . S
C2604 C2598 1.383 . S
C2604 C2603 1.379 . S
H2605 C2599 0.959 . S
H2606 C2599 0.961 . S
H2607 C2599 0.960 . S
H2608 C2600 0.930 . S
H2609 C2601 0.929 . S
H2610 C2618 0.929 . S
H2611 C2620 0.930 . S
H2612 C2622 0.930 . S
H2613 C2625 0.929 . S
H2614 C2628 0.930 . S
H2615 C2630 0.960 . S
H2616 C2630 0.960 . S
H2617 C2630 0.960 . S
C2618 H2610 0.929 . S
C2618 C2619 1.377 . S
C2618 C2620 1.384 . S
C2619 C2618 1.377 . S
C2619 C2625 1.390 . S
C2620 H2611 0.930 . S
C2620 C2618 1.384 . S
C2620 C2621 1.372 . S
C2621 C2620 1.372 . S
C2621 C2622 1.400 . S
C2621 C2626 1.490 . S
C2622 H2612 0.930 . S
C2622 C2621 1.400 . S
C2622 C2625 1.386 . S
H2623 C2639 0.930 . S
H2624 C2640 0.931 . S
C2625 H2613 0.929 . S
C2625 C2619 1.390 . S
C2625 C2622 1.386 . S
C2626 C2621 1.490 . S
C2626 C2628 1.395 . S
C2626 C2629 1.403 . S
H2627 C2633 0.930 . S
C2628 H2614 0.930 . S
C2628 C2626 1.395 . S
C2628 C2631 1.403 . S
C2629 C2626 1.403 . S
C2629 C2630 1.524 . S
C2629 C2633 1.400 . S
C2630 H2615 0.960 . S
C2630 H2616 0.960 . S
C2630 H2617 0.960 . S
C2630 C2629 1.524 . S
C2631 C2628 1.403 . S
C2631 C2632 1.392 . S
C2631 C2635 1.495 . S
C2632 C2631 1.392 . S
C2632 C2633 1.385 . S
C2632 C2634 1.478 . S
C2633 H2627 0.930 . S
C2633 C2629 1.400 . S
C2633 C2632 1.385 . S
C2634 C2632 1.478 . S
C2634 C2636 1.381 . S
C2634 C2640 1.383 . S
C2635 C2631 1.495 . S
C2635 H2641 0.959 . S
C2635 H2642 0.961 . S
C2635 H2643 0.960 . S
C2636 C2634 1.381 . S
C2636 C2637 1.394 . S
C2636 H2644 0.930 . S
C2637 C2636 1.394 . S
C2637 C2638 1.383 . S
C2637 H2645 0.929 . S
C2638 C2637 1.383 . S
C2638 C2639 1.377 . S
C2639 H2623 0.930 . S
C2639 C2638 1.377 . S
C2639 C2640 1.379 . S
C2640 H2624 0.931 . S
C2640 C2634 1.383 . S
C2640 C2639 1.379 . S
H2641 C2635 0.959 . S
H2642 C2635 0.961 . S
H2643 C2635 0.960 . S
H2644 C2636 0.930 . S
H2645 C2637 0.929 . S
H2646 C2654 0.902 1_554 S
H2647 C2656 0.930 . S
H2648 C2658 0.930 . S
H2649 C2661 0.929 . S
H2650 C2664 0.930 . S
H2651 C2666 0.960 . S
H2652 C2666 0.960 . S
H2653 C2666 0.960 . S
C2654 H2646 0.902 1_556 S
C2654 C2655 1.377 . S
C2654 C2656 1.384 . S
C2655 C2654 1.377 . S
C2655 C2661 1.390 . S
C2656 H2647 0.930 . S
C2656 C2654 1.384 . S
C2656 C2657 1.372 . S
C2657 C2656 1.372 . S
C2657 C2658 1.400 . S
C2657 C2662 1.490 . S
C2658 H2648 0.930 . S
C2658 C2657 1.400 . S
C2658 C2661 1.386 . S
H2659 C2675 0.930 . S
H2660 C2676 0.931 . S
C2661 H2649 0.929 . S
C2661 C2655 1.390 . S
C2661 C2658 1.386 . S
C2662 C2657 1.490 . S
C2662 C2664 1.395 . S
C2662 C2665 1.403 . S
H2663 C2669 0.930 . S
C2664 H2650 0.930 . S
C2664 C2662 1.395 . S
C2664 C2667 1.403 . S
C2665 C2662 1.403 . S
C2665 C2666 1.524 . S
C2665 C2669 1.400 . S
C2666 H2651 0.960 . S
C2666 H2652 0.960 . S
C2666 H2653 0.960 . S
C2666 C2665 1.524 . S
C2667 C2664 1.403 . S
C2667 C2668 1.392 . S
C2667 C2671 1.495 . S
C2668 C2667 1.392 . S
C2668 C2669 1.385 . S
C2668 C2670 1.478 . S
C2669 H2663 0.930 . S
C2669 C2665 1.400 . S
C2669 C2668 1.385 . S
C2670 C2668 1.478 . S
C2670 C2672 1.381 . S
C2670 C2676 1.383 . S
C2671 C2667 1.495 . S
C2671 H2677 0.959 . S
C2671 H2678 0.961 . S
C2671 H2679 0.960 . S
C2672 C2670 1.381 . S
C2672 C2673 1.394 . S
C2672 H2680 0.930 . S
C2673 C2672 1.394 . S
C2673 C2674 1.383 . S
C2673 H2681 0.929 . S
C2674 C2673 1.383 . S
C2674 C2675 1.377 . S
C2675 H2659 0.930 . S
C2675 C2674 1.377 . S
C2675 C2676 1.379 . S
C2676 H2660 0.931 . S
C2676 C2670 1.383 . S
C2676 C2675 1.379 . S
H2677 C2671 0.959 . S
H2678 C2671 0.961 . S
H2679 C2671 0.960 . S
H2680 C2672 0.930 . S
H2681 C2673 0.929 . S
H2682 C2690 0.929 1_554 S
H2683 C2692 0.930 . S
H2684 C2694 0.930 . S
H2685 C2697 0.929 . S
H2686 C2700 0.930 . S
H2687 C2702 0.960 . S
H2688 C2702 0.960 . S
H2689 C2702 0.960 . S
C2690 H2682 0.929 1_556 S
C2690 C2691 1.377 . S
C2690 C2692 1.384 . S
C2691 C2690 1.377 . S
C2691 C2697 1.390 . S
C2692 H2683 0.930 . S
C2692 C2690 1.384 . S
C2692 C2693 1.372 . S
C2693 C2692 1.372 . S
C2693 C2694 1.400 . S
C2693 C2698 1.490 . S
C2694 H2684 0.930 . S
C2694 C2693 1.400 . S
C2694 C2697 1.386 . S
H2695 C2711 0.930 . S
H2696 C2712 0.931 . S
C2697 H2685 0.929 . S
C2697 C2691 1.390 . S
C2697 C2694 1.386 . S
C2698 C2693 1.490 . S
C2698 C2700 1.395 . S
C2698 C2701 1.403 . S
H2699 C2705 0.930 . S
C2700 H2686 0.930 . S
C2700 C2698 1.395 . S
C2700 C2703 1.403 . S
C2701 C2698 1.403 . S
C2701 C2702 1.524 . S
C2701 C2705 1.400 . S
C2702 H2687 0.960 . S
C2702 H2688 0.960 . S
C2702 H2689 0.960 . S
C2702 C2701 1.524 . S
C2703 C2700 1.403 . S
C2703 C2704 1.392 . S
C2703 C2707 1.495 . S
C2704 C2703 1.392 . S
C2704 C2705 1.385 . S
C2704 C2706 1.478 . S
C2705 H2699 0.930 . S
C2705 C2701 1.400 . S
C2705 C2704 1.385 . S
C2706 C2704 1.478 . S
C2706 C2708 1.381 . S
C2706 C2712 1.383 . S
C2707 C2703 1.495 . S
C2707 H2713 0.959 . S
C2707 H2714 0.961 . S
C2707 H2715 0.960 . S
C2708 C2706 1.381 . S
C2708 C2709 1.394 . S
C2708 H2716 0.930 . S
C2709 C2708 1.394 . S
C2709 C2710 1.383 . S
C2709 H2717 0.929 . S
C2710 C2709 1.383 . S
C2710 C2711 1.377 . S
C2711 H2695 0.930 . S
C2711 C2710 1.377 . S
C2711 C2712 1.379 . S
C2712 H2696 0.931 . S
C2712 C2706 1.383 . S
C2712 C2711 1.379 . S
H2713 C2707 0.959 . S
H2714 C2707 0.961 . S
H2715 C2707 0.960 . S
H2716 C2708 0.930 . S
H2717 C2709 0.929 . S
H2718 C2726 0.929 . S
H2719 C2728 0.930 . S
H2720 C2730 0.930 . S
H2721 C2733 0.929 . S
H2722 C2736 0.930 . S
H2723 C2738 0.960 . S
H2724 C2738 0.960 . S
H2725 C2738 0.960 . S
C2726 H2718 0.929 . S
C2726 C2727 1.377 . S
C2726 C2728 1.384 . S
C2727 C2726 1.377 . S
C2727 C2733 1.390 . S
C2728 H2719 0.930 . S
C2728 C2726 1.384 . S
C2728 C2729 1.372 . S
C2729 C2728 1.372 . S
C2729 C2730 1.400 . S
C2729 C2734 1.490 . S
C2730 H2720 0.930 . S
C2730 C2729 1.400 . S
C2730 C2733 1.386 . S
H2731 C2747 0.930 . S
H2732 C2748 0.931 . S
C2733 H2721 0.929 . S
C2733 C2727 1.390 . S
C2733 C2730 1.386 . S
C2734 C2729 1.490 . S
C2734 C2736 1.395 . S
C2734 C2737 1.403 . S
H2735 C2741 0.930 . S
C2736 H2722 0.930 . S
C2736 C2734 1.395 . S
C2736 C2739 1.403 . S
C2737 C2734 1.403 . S
C2737 C2738 1.524 . S
C2737 C2741 1.400 . S
C2738 H2723 0.960 . S
C2738 H2724 0.960 . S
C2738 H2725 0.960 . S
C2738 C2737 1.524 . S
C2739 C2736 1.403 . S
C2739 C2740 1.392 . S
C2739 C2743 1.495 . S
C2740 C2739 1.392 . S
C2740 C2741 1.385 . S
C2740 C2742 1.478 . S
C2741 H2735 0.930 . S
C2741 C2737 1.400 . S
C2741 C2740 1.385 . S
C2742 C2740 1.478 . S
C2742 C2744 1.381 . S
C2742 C2748 1.383 . S
C2743 C2739 1.495 . S
C2743 H2749 0.959 . S
C2743 H2750 0.961 . S
C2743 H2751 0.960 . S
C2744 C2742 1.381 . S
C2744 C2745 1.394 . S
C2744 H2752 0.930 . S
C2745 C2744 1.394 . S
C2745 C2746 1.383 . S
C2745 H2753 0.929 . S
C2746 C2745 1.383 . S
C2746 C2747 1.377 . S
C2747 H2731 0.930 . S
C2747 C2746 1.377 . S
C2747 C2748 1.379 . S
C2748 H2732 0.931 . S
C2748 C2742 1.383 . S
C2748 C2747 1.379 . S
H2749 C2743 0.959 . S
H2750 C2743 0.961 . S
H2751 C2743 0.960 . S
H2752 C2744 0.930 . S
H2753 C2745 0.929 . S
H2754 C2762 0.929 . S
H2755 C2764 0.930 . S
H2756 C2766 0.930 . S
H2757 C2769 0.929 . S
H2758 C2772 0.930 . S
H2759 C2774 0.960 . S
H2760 C2774 0.960 . S
H2761 C2774 0.960 . S
C2762 H2754 0.929 . S
C2762 C2763 1.377 . S
C2762 C2764 1.384 . S
C2763 C2762 1.377 . S
C2763 C2769 1.390 . S
C2764 H2755 0.930 . S
C2764 C2762 1.384 . S
C2764 C2765 1.372 . S
C2765 C2764 1.372 . S
C2765 C2766 1.400 . S
C2765 C2770 1.490 . S
C2766 H2756 0.930 . S
C2766 C2765 1.400 . S
C2766 C2769 1.386 . S
H2767 C2783 0.930 . S
H2768 C2784 0.931 . S
C2769 H2757 0.929 . S
C2769 C2763 1.390 . S
C2769 C2766 1.386 . S
C2770 C2765 1.490 . S
C2770 C2772 1.395 . S
C2770 C2773 1.403 . S
H2771 C2777 0.930 . S
C2772 H2758 0.930 . S
C2772 C2770 1.395 . S
C2772 C2775 1.403 . S
C2773 C2770 1.403 . S
C2773 C2774 1.524 . S
C2773 C2777 1.400 . S
C2774 H2759 0.960 . S
C2774 H2760 0.960 . S
C2774 H2761 0.960 . S
C2774 C2773 1.524 . S
C2775 C2772 1.403 . S
C2775 C2776 1.392 . S
C2775 C2779 1.495 . S
C2776 C2775 1.392 . S
C2776 C2777 1.385 . S
C2776 C2778 1.478 . S
C2777 H2771 0.930 . S
C2777 C2773 1.400 . S
C2777 C2776 1.385 . S
C2778 C2776 1.478 . S
C2778 C2780 1.381 . S
C2778 C2784 1.383 . S
C2779 C2775 1.495 . S
C2779 H2785 0.959 . S
C2779 H2786 0.961 . S
C2779 H2787 0.960 . S
C2780 C2778 1.381 . S
C2780 C2781 1.394 . S
C2780 H2788 0.930 . S
C2781 C2780 1.394 . S
C2781 C2782 1.383 . S
C2781 H2789 0.929 . S
C2782 C2781 1.383 . S
C2782 C2783 1.377 . S
C2783 H2767 0.930 . S
C2783 C2782 1.377 . S
C2783 C2784 1.379 . S
C2784 H2768 0.931 . S
C2784 C2778 1.383 . S
C2784 C2783 1.379 . S
H2785 C2779 0.959 . S
H2786 C2779 0.961 . S
H2787 C2779 0.960 . S
H2788 C2780 0.930 . S
H2789 C2781 0.929 . S
H2790 C2798 0.929 . S
H2791 C2800 0.930 . S
H2792 C2802 0.930 . S
H2793 C2805 0.929 . S
H2794 C2808 0.930 . S
H2795 C2810 0.960 . S
H2796 C2810 0.960 . S
H2797 C2810 0.960 . S
C2798 H2790 0.929 . S
C2798 C2799 1.377 . S
C2798 C2800 1.384 . S
C2799 C2798 1.377 . S
C2799 C2805 1.390 . S
C2800 H2791 0.930 . S
C2800 C2798 1.384 . S
C2800 C2801 1.372 . S
C2801 C2800 1.372 . S
C2801 C2802 1.400 . S
C2801 C2806 1.490 . S
C2802 H2792 0.930 . S
C2802 C2801 1.400 . S
C2802 C2805 1.386 . S
H2803 C2819 0.930 . S
H2804 C2820 0.931 . S
C2805 H2793 0.929 . S
C2805 C2799 1.390 . S
C2805 C2802 1.386 . S
C2806 C2801 1.490 . S
C2806 C2808 1.395 . S
C2806 C2809 1.403 . S
H2807 C2813 0.930 . S
C2808 H2794 0.930 . S
C2808 C2806 1.395 . S
C2808 C2811 1.403 . S
C2809 C2806 1.403 . S
C2809 C2810 1.524 . S
C2809 C2813 1.400 . S
C2810 H2795 0.960 . S
C2810 H2796 0.960 . S
C2810 H2797 0.960 . S
C2810 C2809 1.524 . S
C2811 C2808 1.403 . S
C2811 C2812 1.392 . S
C2811 C2815 1.495 . S
C2812 C2811 1.392 . S
C2812 C2813 1.385 . S
C2812 C2814 1.478 . S
C2813 H2807 0.930 . S
C2813 C2809 1.400 . S
C2813 C2812 1.385 . S
C2814 C2812 1.478 . S
C2814 C2816 1.381 . S
C2814 C2820 1.383 . S
C2815 C2811 1.495 . S
C2815 H2821 0.959 . S
C2815 H2822 0.961 . S
C2815 H2823 0.960 . S
C2816 C2814 1.381 . S
C2816 C2817 1.394 . S
C2816 H2824 0.930 . S
C2817 C2816 1.394 . S
C2817 C2818 1.383 . S
C2817 H2825 0.929 . S
C2818 C2817 1.383 . S
C2818 C2819 1.377 . S
C2819 H2803 0.930 . S
C2819 C2818 1.377 . S
C2819 C2820 1.379 . S
C2820 H2804 0.931 . S
C2820 C2814 1.383 . S
C2820 C2819 1.379 . S
H2821 C2815 0.959 . S
H2822 C2815 0.961 . S
H2823 C2815 0.960 . S
H2824 C2816 0.930 . S
H2825 C2817 0.929 . S
H2826 C2834 0.929 . S
H2827 C2836 0.930 . S
H2828 C2838 0.930 . S
H2829 C2841 0.929 . S
H2830 C2844 0.930 . S
H2831 C2846 0.960 . S
H2832 C2846 0.960 . S
H2833 C2846 0.960 . S
C2834 H2826 0.929 . S
C2834 C2835 1.377 . S
C2834 C2836 1.384 . S
C2835 C2834 1.377 . S
C2835 C2841 1.390 . S
C2836 H2827 0.930 . S
C2836 C2834 1.384 . S
C2836 C2837 1.372 . S
C2837 C2836 1.372 . S
C2837 C2838 1.400 . S
C2837 C2842 1.490 . S
C2838 H2828 0.930 . S
C2838 C2837 1.400 . S
C2838 C2841 1.386 . S
H2839 C2855 0.930 . S
H2840 C2856 0.931 . S
C2841 H2829 0.929 . S
C2841 C2835 1.390 . S
C2841 C2838 1.386 . S
C2842 C2837 1.490 . S
C2842 C2844 1.395 . S
C2842 C2845 1.403 . S
H2843 C2849 0.930 . S
C2844 H2830 0.930 . S
C2844 C2842 1.395 . S
C2844 C2847 1.403 . S
C2845 C2842 1.403 . S
C2845 C2846 1.524 . S
C2845 C2849 1.400 . S
C2846 H2831 0.960 . S
C2846 H2832 0.960 . S
C2846 H2833 0.960 . S
C2846 C2845 1.524 . S
C2847 C2844 1.403 . S
C2847 C2848 1.392 . S
C2847 C2851 1.495 . S
C2848 C2847 1.392 . S
C2848 C2849 1.385 . S
C2848 C2850 1.478 . S
C2849 H2843 0.930 . S
C2849 C2845 1.400 . S
C2849 C2848 1.385 . S
C2850 C2848 1.478 . S
C2850 C2852 1.381 . S
C2850 C2856 1.383 . S
C2851 C2847 1.495 . S
C2851 H2857 0.959 . S
C2851 H2858 0.961 . S
C2851 H2859 0.960 . S
C2852 C2850 1.381 . S
C2852 C2853 1.394 . S
C2852 H2860 0.930 . S
C2853 C2852 1.394 . S
C2853 C2854 1.383 . S
C2853 H2861 0.929 . S
C2854 C2853 1.383 . S
C2854 C2855 1.377 . S
C2855 H2839 0.930 . S
C2855 C2854 1.377 . S
C2855 C2856 1.379 . S
C2856 H2840 0.931 . S
C2856 C2850 1.383 . S
C2856 C2855 1.379 . S
H2857 C2851 0.959 . S
H2858 C2851 0.961 . S
H2859 C2851 0.960 . S
H2860 C2852 0.930 . S
H2861 C2853 0.929 . S
H2862 C2870 0.929 . S
H2863 C2872 0.930 . S
H2864 C2874 0.930 . S
H2865 C2877 0.929 . S
H2866 C2880 0.930 . S
H2867 C2882 0.960 . S
H2868 C2882 0.960 . S
H2869 C2882 0.960 . S
C2870 H2862 0.929 . S
C2870 C2871 1.377 . S
C2870 C2872 1.384 . S
C2871 C2870 1.377 . S
C2871 C2877 1.390 . S
C2872 H2863 0.930 . S
C2872 C2870 1.384 . S
C2872 C2873 1.372 . S
C2873 C2872 1.372 . S
C2873 C2874 1.400 . S
C2873 C2878 1.490 . S
C2874 H2864 0.930 . S
C2874 C2873 1.400 . S
C2874 C2877 1.386 . S
H2875 C2891 0.930 . S
H2876 C2892 0.931 . S
C2877 H2865 0.929 . S
C2877 C2871 1.390 . S
C2877 C2874 1.386 . S
C2878 C2873 1.490 . S
C2878 C2880 1.395 . S
C2878 C2881 1.403 . S
H2879 C2885 0.930 . S
C2880 H2866 0.930 . S
C2880 C2878 1.395 . S
C2880 C2883 1.403 . S
C2881 C2878 1.403 . S
C2881 C2882 1.524 . S
C2881 C2885 1.400 . S
C2882 H2867 0.960 . S
C2882 H2868 0.960 . S
C2882 H2869 0.960 . S
C2882 C2881 1.524 . S
C2883 C2880 1.403 . S
C2883 C2884 1.392 . S
C2883 C2887 1.495 . S
C2884 C2883 1.392 . S
C2884 C2885 1.385 . S
C2884 C2886 1.478 . S
C2885 H2879 0.930 . S
C2885 C2881 1.400 . S
C2885 C2884 1.385 . S
C2886 C2884 1.478 . S
C2886 C2888 1.381 . S
C2886 C2892 1.383 . S
C2887 C2883 1.495 . S
C2887 H2893 0.959 . S
C2887 H2894 0.961 . S
C2887 H2895 0.960 . S
C2888 C2886 1.381 . S
C2888 C2889 1.394 . S
C2888 H2896 0.930 . S
C2889 C2888 1.394 . S
C2889 C2890 1.383 . S
C2889 H2897 0.929 . S
C2890 C2889 1.383 . S
C2890 C2891 1.377 . S
C2891 H2875 0.930 . S
C2891 C2890 1.377 . S
C2891 C2892 1.379 . S
C2892 H2876 0.931 . S
C2892 C2886 1.383 . S
C2892 C2891 1.379 . S
H2893 C2887 0.959 . S
H2894 C2887 0.961 . S
H2895 C2887 0.960 . S
H2896 C2888 0.930 . S
H2897 C2889 0.929 . S
H2898 C2906 0.929 . S
H2899 C2908 0.930 . S
H2900 C2910 0.930 . S
H2901 C2913 0.929 . S
H2902 C2916 0.930 . S
H2903 C2918 0.960 . S
H2904 C2918 0.960 . S
H2905 C2918 0.960 . S
C2906 H2898 0.929 . S
C2906 C2907 1.377 . S
C2906 C2908 1.384 . S
C2907 C2906 1.377 . S
C2907 C2913 1.390 . S
C2908 H2899 0.930 . S
C2908 C2906 1.384 . S
C2908 C2909 1.372 . S
C2909 C2908 1.372 . S
C2909 C2910 1.400 . S
C2909 C2914 1.490 . S
C2910 H2900 0.930 . S
C2910 C2909 1.400 . S
C2910 C2913 1.386 . S
H2911 C2927 0.930 . S
H2912 C2928 0.931 . S
C2913 H2901 0.929 . S
C2913 C2907 1.390 . S
C2913 C2910 1.386 . S
C2914 C2909 1.490 . S
C2914 C2916 1.395 . S
C2914 C2917 1.403 . S
H2915 C2921 0.930 . S
C2916 H2902 0.930 . S
C2916 C2914 1.395 . S
C2916 C2919 1.403 . S
C2917 C2914 1.403 . S
C2917 C2918 1.524 . S
C2917 C2921 1.400 . S
C2918 H2903 0.960 . S
C2918 H2904 0.960 . S
C2918 H2905 0.960 . S
C2918 C2917 1.524 . S
C2919 C2916 1.403 . S
C2919 C2920 1.392 . S
C2919 C2923 1.495 . S
C2920 C2919 1.392 . S
C2920 C2921 1.385 . S
C2920 C2922 1.478 . S
C2921 H2915 0.930 . S
C2921 C2917 1.400 . S
C2921 C2920 1.385 . S
C2922 C2920 1.478 . S
C2922 C2924 1.381 . S
C2922 C2928 1.383 . S
C2923 C2919 1.495 . S
C2923 H2929 0.959 . S
C2923 H2930 0.961 . S
C2923 H2931 0.960 . S
C2924 C2922 1.381 . S
C2924 C2925 1.394 . S
C2924 H2932 0.930 . S
C2925 C2924 1.394 . S
C2925 C2926 1.383 . S
C2925 H2933 0.929 . S
C2926 C2925 1.383 . S
C2926 C2927 1.377 . S
C2927 H2911 0.930 . S
C2927 C2926 1.377 . S
C2927 C2928 1.379 . S
C2928 H2912 0.931 . S
C2928 C2922 1.383 . S
C2928 C2927 1.379 . S
H2929 C2923 0.959 . S
H2930 C2923 0.961 . S
H2931 C2923 0.960 . S
H2932 C2924 0.930 . S
H2933 C2925 0.929 . S
H2934 C2942 0.929 1_655 S
H2935 C2944 0.930 1_655 S
H2936 C2946 0.930 . S
H2937 C2949 0.929 . S
H2938 C2952 0.930 . S
H2939 C2954 0.960 . S
H2940 C2954 0.960 . S
H2941 C2954 0.960 . S
C2942 H2934 0.929 1_455 S
C2942 C2943 1.377 . S
C2942 C2944 1.384 . S
C2943 C2942 1.377 . S
C2943 C2949 1.390 . S
C2944 H2935 0.930 1_455 S
C2944 C2942 1.384 . S
C2944 C2945 1.372 . S
C2945 C2944 1.372 . S
C2945 C2946 1.400 . S
C2945 C2950 1.490 . S
C2946 H2936 0.930 . S
C2946 C2945 1.400 . S
C2946 C2949 1.386 . S
H2947 C2963 0.930 . S
H2948 C2964 0.931 . S
C2949 H2937 0.929 . S
C2949 C2943 1.390 . S
C2949 C2946 1.386 . S
C2950 C2945 1.490 . S
C2950 C2952 1.395 . S
C2950 C2953 1.403 . S
H2951 C2957 0.930 . S
C2952 H2938 0.930 . S
C2952 C2950 1.395 . S
C2952 C2955 1.403 . S
C2953 C2950 1.403 . S
C2953 C2954 1.524 . S
C2953 C2957 1.400 . S
C2954 H2939 0.960 . S
C2954 H2940 0.960 . S
C2954 H2941 0.960 . S
C2954 C2953 1.524 . S
C2955 C2952 1.403 . S
C2955 C2956 1.392 . S
C2955 C2959 1.495 1_455 S
C2956 C2955 1.392 . S
C2956 C2957 1.385 . S
C2956 C2958 1.478 . S
C2957 H2951 0.930 . S
C2957 C2953 1.400 . S
C2957 C2956 1.385 . S
C2958 C2956 1.478 . S
C2958 C2960 1.381 1_455 S
C2958 C2964 1.383 . S
C2959 C2955 1.495 1_655 S
C2959 H2965 0.959 . S
C2959 H2966 0.961 1_655 S
C2959 H2967 0.960 . S
C2960 C2958 1.381 1_655 S
C2960 C2961 1.394 . S
C2960 H2968 0.930 . S
C2961 C2960 1.394 . S
C2961 C2962 1.383 1_655 S
C2961 H2969 0.929 . S
C2962 C2961 1.383 1_455 S
C2962 C2963 1.377 . S
C2963 H2947 0.930 . S
C2963 C2962 1.377 . S
C2963 C2964 1.379 . S
C2964 H2948 0.931 . S
C2964 C2958 1.383 . S
C2964 C2963 1.379 . S
H2965 C2959 0.959 . S
H2966 C2959 0.961 1_455 S
H2967 C2959 0.960 . S
H2968 C2960 0.930 . S
H2969 C2961 0.929 . S
H2970 C2978 0.929 . S
H2971 C2980 0.930 . S
H2972 C2982 0.930 . S
H2973 C2985 0.929 . S
H2974 C2988 0.930 . S
H2975 C2990 0.960 . S
H2976 C2990 0.960 . S
H2977 C2990 0.960 . S
C2978 H2970 0.929 . S
C2978 C2979 1.377 . S
C2978 C2980 1.384 . S
C2979 C2978 1.377 . S
C2979 C2985 1.390 . S
C2980 H2971 0.930 . S
C2980 C2978 1.384 . S
C2980 C2981 1.372 . S
C2981 C2980 1.372 . S
C2981 C2982 1.400 . S
C2981 C2986 1.490 . S
C2982 H2972 0.930 . S
C2982 C2981 1.400 . S
C2982 C2985 1.386 . S
H2983 C2999 0.930 . S
H2984 C3000 0.931 . S
C2985 H2973 0.929 . S
C2985 C2979 1.390 . S
C2985 C2982 1.386 . S
C2986 C2981 1.490 . S
C2986 C2988 1.395 . S
C2986 C2989 1.403 . S
H2987 C2993 0.930 . S
C2988 H2974 0.930 . S
C2988 C2986 1.395 . S
C2988 C2991 1.403 . S
C2989 C2986 1.403 . S
C2989 C2990 1.524 . S
C2989 C2993 1.400 . S
C2990 H2975 0.960 . S
C2990 H2976 0.960 . S
C2990 H2977 0.960 . S
C2990 C2989 1.524 . S
C2991 C2988 1.403 . S
C2991 C2992 1.392 . S
C2991 C2995 1.495 . S
C2992 C2991 1.392 . S
C2992 C2993 1.385 . S
C2992 C2994 1.478 . S
C2993 H2987 0.930 . S
C2993 C2989 1.400 . S
C2993 C2992 1.385 . S
C2994 C2992 1.478 . S
C2994 C2996 1.381 . S
C2994 C3000 1.383 . S
C2995 C2991 1.495 . S
C2995 H3001 0.959 . S
C2995 H3002 0.961 . S
C2995 H3003 0.960 . S
C2996 C2994 1.381 . S
C2996 C2997 1.394 . S
C2996 H3004 0.930 . S
C2997 C2996 1.394 . S
C2997 C2998 1.383 . S
C2997 H3005 0.929 . S
C2998 C2997 1.383 . S
C2998 C2999 1.377 . S
C2999 H2983 0.930 . S
C2999 C2998 1.377 . S
C2999 C3000 1.379 . S
C3000 H2984 0.931 . S
C3000 C2994 1.383 . S
C3000 C2999 1.379 . S
H3001 C2995 0.959 . S
H3002 C2995 0.961 . S
H3003 C2995 0.960 . S
H3004 C2996 0.930 . S
H3005 C2997 0.929 . S
H3006 C3014 0.987 . S
H3007 C3016 0.930 . S
H3008 C3018 0.930 . S
H3009 C3021 0.929 . S
H3010 C3024 0.930 . S
H3011 C3026 0.960 . S
H3012 C3026 0.960 . S
H3013 C3026 0.960 . S
C3014 H3006 0.987 . S
C3014 C3015 1.346 1_545 S
C3014 C3016 1.361 . S
C3015 C3014 1.346 1_565 S
C3015 C3021 1.390 . S
C3016 H3007 0.930 . S
C3016 C3014 1.361 . S
C3016 C3017 1.372 1_545 S
C3017 C3016 1.372 1_565 S
C3017 C3018 1.400 . S
C3017 C3022 1.490 . S
C3018 H3008 0.930 . S
C3018 C3017 1.400 . S
C3018 C3021 1.386 . S
H3019 C3035 0.930 . S
H3020 C3036 0.931 . S
C3021 H3009 0.929 . S
C3021 C3015 1.390 . S
C3021 C3018 1.386 . S
C3022 C3017 1.490 . S
C3022 C3024 1.395 . S
C3022 C3025 1.403 . S
H3023 C3029 0.930 . S
C3024 H3010 0.930 . S
C3024 C3022 1.395 . S
C3024 C3027 1.403 . S
C3025 C3022 1.403 . S
C3025 C3026 1.524 . S
C3025 C3029 1.400 . S
C3026 H3011 0.960 . S
C3026 H3012 0.960 . S
C3026 H3013 0.960 . S
C3026 C3025 1.524 . S
C3027 C3024 1.403 . S
C3027 C3028 1.392 . S
C3027 C3031 1.495 1_565 S
C3028 C3027 1.392 . S
C3028 C3029 1.385 . S
C3028 C3030 1.478 . S
C3029 H3023 0.930 . S
C3029 C3025 1.400 . S
C3029 C3028 1.385 . S
C3030 C3028 1.478 . S
C3030 C3032 1.381 1_565 S
C3030 C3036 1.383 . S
C3031 C3027 1.495 1_545 S
C3031 H3037 0.959 . S
C3031 H3038 0.961 1_545 S
C3031 H3039 0.960 . S
C3032 C3030 1.381 1_545 S
C3032 C3033 1.394 . S
C3032 H3040 0.930 . S
C3033 C3032 1.394 . S
C3033 C3034 1.383 1_545 S
C3033 H3041 0.929 . S
C3034 C3033 1.383 1_565 S
C3034 C3035 1.377 . S
C3035 H3019 0.930 . S
C3035 C3034 1.377 . S
C3035 C3036 1.379 . S
C3036 H3020 0.931 . S
C3036 C3030 1.383 . S
C3036 C3035 1.379 . S
H3037 C3031 0.959 . S
H3038 C3031 0.961 1_565 S
H3039 C3031 0.960 . S
H3040 C3032 0.930 . S
H3041 C3033 0.929 . S
H3042 C3050 0.915 1_545 S
H3043 C3052 0.930 1_545 S
H3044 C3054 0.930 . S
H3045 C3057 0.929 . S
H3046 C3060 0.930 . S
H3047 C3062 0.960 . S
H3048 C3062 0.960 . S
H3049 C3062 0.960 . S
C3050 H3042 0.915 1_565 S
C3050 C3051 1.377 . S
C3050 C3052 1.384 . S
C3051 C3050 1.377 . S
C3051 C3057 1.390 . S
C3052 H3043 0.930 1_565 S
C3052 C3050 1.384 . S
C3052 C3053 1.372 . S
C3053 C3052 1.372 . S
C3053 C3054 1.400 . S
C3053 C3058 1.490 . S
C3054 H3044 0.930 . S
C3054 C3053 1.400 . S
C3054 C3057 1.386 . S
H3055 C3071 0.930 . S
H3056 C3072 0.931 . S
C3057 H3045 0.929 . S
C3057 C3051 1.390 . S
C3057 C3054 1.386 . S
C3058 C3053 1.490 . S
C3058 C3060 1.395 1_565 S
C3058 C3061 1.403 . S
H3059 C3065 0.930 . S
C3060 H3046 0.930 . S
C3060 C3058 1.395 1_545 S
C3060 C3063 1.403 . S
C3061 C3058 1.403 . S
C3061 C3062 1.524 . S
C3061 C3065 1.400 . S
C3062 H3047 0.960 . S
C3062 H3048 0.960 . S
C3062 H3049 0.960 . S
C3062 C3061 1.524 . S
C3063 C3060 1.403 . S
C3063 C3064 1.392 1_545 S
C3063 C3067 1.495 . S
C3064 C3063 1.392 1_565 S
C3064 C3065 1.385 . S
C3064 C3066 1.478 . S
C3065 H3059 0.930 . S
C3065 C3061 1.400 . S
C3065 C3064 1.385 . S
C3066 C3064 1.478 . S
C3066 C3068 1.381 1_565 S
C3066 C3072 1.383 . S
C3067 C3063 1.495 . S
C3067 H3073 0.959 . S
C3067 H3074 0.961 . S
C3067 H3075 0.960 . S
C3068 C3066 1.381 1_545 S
C3068 C3069 1.394 . S
C3068 H3076 0.930 . S
C3069 C3068 1.394 . S
C3069 C3070 1.383 1_545 S
C3069 H3077 0.929 . S
C3070 C3069 1.383 1_565 S
C3070 C3071 1.377 . S
C3071 H3055 0.930 . S
C3071 C3070 1.377 . S
C3071 C3072 1.379 . S
C3072 H3056 0.931 . S
C3072 C3066 1.383 . S
C3072 C3071 1.379 . S
H3073 C3067 0.959 . S
H3074 C3067 0.961 . S
H3075 C3067 0.960 . S
H3076 C3068 0.930 . S
H3077 C3069 0.929 . S
H3078 C3086 0.929 . S
H3079 C3088 0.930 . S
H3080 C3090 0.967 . S
H3081 C3093 0.936 1_655 S
H3082 C3096 0.930 . S
H3083 C3098 0.960 . S
H3084 C3098 0.960 . S
H3085 C3098 0.960 . S
C3086 H3078 0.929 . S
C3086 C3087 1.377 . S
C3086 C3088 1.384 . S
C3087 C3086 1.377 . S
C3087 C3093 1.387 . S
C3088 H3079 0.930 . S
C3088 C3086 1.384 . S
C3088 C3089 1.372 . S
C3089 C3088 1.372 . S
C3089 C3090 1.332 1_455 S
C3089 C3094 1.490 . S
C3090 H3080 0.967 . S
C3090 C3089 1.332 1_655 S
C3090 C3093 1.421 1_655 S
H3091 C3107 0.930 . S
H3092 C3108 0.931 . S
C3093 H3081 0.936 1_455 S
C3093 C3087 1.387 . S
C3093 C3090 1.421 1_455 S
C3094 C3089 1.490 . S
C3094 C3096 1.395 . S
C3094 C3097 1.403 1_455 S
H3095 C3101 0.930 . S
C3096 H3082 0.930 . S
C3096 C3094 1.395 . S
C3096 C3099 1.403 . S
C3097 C3094 1.403 1_655 S
C3097 C3098 1.524 . S
C3097 C3101 1.400 . S
C3098 H3083 0.960 . S
C3098 H3084 0.960 . S
C3098 H3085 0.960 . S
C3098 C3097 1.524 . S
C3099 C3096 1.403 . S
C3099 C3100 1.392 . S
C3099 C3103 1.495 . S
C3100 C3099 1.392 . S
C3100 C3101 1.385 1_455 S
C3100 C3102 1.478 . S
C3101 H3095 0.930 . S
C3101 C3097 1.400 . S
C3101 C3100 1.385 1_655 S
C3102 C3100 1.478 . S
C3102 C3104 1.381 . S
C3102 C3108 1.383 1_455 S
C3103 C3099 1.495 . S
C3103 H3109 0.959 . S
C3103 H3110 0.961 . S
C3103 H3111 0.960 . S
C3104 C3102 1.381 . S
C3104 C3105 1.394 . S
C3104 H3112 0.930 . S
C3105 C3104 1.394 . S
C3105 C3106 1.383 . S
C3105 H3113 0.929 . S
C3106 C3105 1.383 . S
C3106 C3107 1.377 1_455 S
C3107 H3091 0.930 . S
C3107 C3106 1.377 1_655 S
C3107 C3108 1.379 . S
C3108 H3092 0.931 . S
C3108 C3102 1.383 1_655 S
C3108 C3107 1.379 . S
H3109 C3103 0.959 . S
H3110 C3103 0.961 . S
H3111 C3103 0.960 . S
H3112 C3104 0.930 . S
H3113 C3105 0.929 . S
H3114 C3122 0.929 . S
H3115 C3124 0.930 . S
H3116 C3126 0.930 . S
H3117 C3129 0.929 . S
H3118 C3132 0.930 . S
H3119 C3134 0.960 . S
H3120 C3134 0.960 . S
H3121 C3134 0.960 . S
C3122 H3114 0.929 . S
C3122 C3123 1.377 . S
C3122 C3124 1.384 . S
C3123 C3122 1.377 . S
C3123 C3129 1.390 . S
C3124 H3115 0.930 . S
C3124 C3122 1.384 . S
C3124 C3125 1.372 . S
C3125 C3124 1.372 . S
C3125 C3126 1.400 . S
C3125 C3130 1.490 . S
C3126 H3116 0.930 . S
C3126 C3125 1.400 . S
C3126 C3129 1.386 . S
H3127 C3143 0.930 . S
H3128 C3144 0.931 . S
C3129 H3117 0.929 . S
C3129 C3123 1.390 . S
C3129 C3126 1.386 . S
C3130 C3125 1.490 . S
C3130 C3132 1.395 . S
C3130 C3133 1.403 . S
H3131 C3137 0.930 . S
C3132 H3118 0.930 . S
C3132 C3130 1.395 . S
C3132 C3135 1.403 . S
C3133 C3130 1.403 . S
C3133 C3134 1.524 . S
C3133 C3137 1.400 . S
C3134 H3119 0.960 . S
C3134 H3120 0.960 . S
C3134 H3121 0.960 . S
C3134 C3133 1.524 . S
C3135 C3132 1.403 . S
C3135 C3136 1.392 . S
C3135 C3139 1.495 . S
C3136 C3135 1.392 . S
C3136 C3137 1.385 . S
C3136 C3138 1.478 . S
C3137 H3131 0.930 . S
C3137 C3133 1.400 . S
C3137 C3136 1.385 . S
C3138 C3136 1.478 . S
C3138 C3140 1.381 . S
C3138 C3144 1.383 . S
C3139 C3135 1.495 . S
C3139 H3145 0.959 . S
C3139 H3146 0.961 . S
C3139 H3147 0.960 . S
C3140 C3138 1.381 . S
C3140 C3141 1.394 . S
C3140 H3148 0.930 . S
C3141 C3140 1.394 . S
C3141 C3142 1.383 . S
C3141 H3149 0.929 . S
C3142 C3141 1.383 . S
C3142 C3143 1.377 . S
C3143 H3127 0.930 . S
C3143 C3142 1.377 . S
C3143 C3144 1.379 . S
C3144 H3128 0.931 . S
C3144 C3138 1.383 . S
C3144 C3143 1.379 . S
H3145 C3139 0.959 . S
H3146 C3139 0.961 . S
H3147 C3139 0.960 . S
H3148 C3140 0.930 . S
H3149 C3141 0.929 . S
H3150 C3158 0.929 . S
H3151 C3160 0.930 . S
H3152 C3162 0.930 . S
H3153 C3165 0.929 . S
H3154 C3168 0.930 . S
H3155 C3170 0.960 . S
H3156 C3170 0.960 . S
H3157 C3170 0.960 . S
C3158 H3150 0.929 . S
C3158 C3159 1.377 . S
C3158 C3160 1.384 . S
C3159 C3158 1.377 . S
C3159 C3165 1.390 . S
C3160 H3151 0.930 . S
C3160 C3158 1.384 . S
C3160 C3161 1.372 . S
C3161 C3160 1.372 . S
C3161 C3162 1.400 . S
C3161 C3166 1.490 . S
C3162 H3152 0.930 . S
C3162 C3161 1.400 . S
C3162 C3165 1.386 . S
H3163 C3179 0.930 . S
H3164 C3180 0.931 . S
C3165 H3153 0.929 . S
C3165 C3159 1.390 . S
C3165 C3162 1.386 . S
C3166 C3161 1.490 . S
C3166 C3168 1.395 . S
C3166 C3169 1.403 . S
H3167 C3173 0.930 . S
C3168 H3154 0.930 . S
C3168 C3166 1.395 . S
C3168 C3171 1.403 . S
C3169 C3166 1.403 . S
C3169 C3170 1.524 . S
C3169 C3173 1.400 . S
C3170 H3155 0.960 . S
C3170 H3156 0.960 . S
C3170 H3157 0.960 . S
C3170 C3169 1.524 . S
C3171 C3168 1.403 . S
C3171 C3172 1.392 . S
C3171 C3175 1.495 . S
C3172 C3171 1.392 . S
C3172 C3173 1.385 . S
C3172 C3174 1.478 . S
C3173 H3167 0.930 . S
C3173 C3169 1.400 . S
C3173 C3172 1.385 . S
C3174 C3172 1.478 . S
C3174 C3176 1.381 . S
C3174 C3180 1.383 . S
C3175 C3171 1.495 . S
C3175 H3181 0.959 . S
C3175 H3182 0.961 . S
C3175 H3183 0.960 . S
C3176 C3174 1.381 . S
C3176 C3177 1.394 . S
C3176 H3184 0.930 . S
C3177 C3176 1.394 . S
C3177 C3178 1.383 . S
C3177 H3185 0.929 . S
C3178 C3177 1.383 . S
C3178 C3179 1.377 . S
C3179 H3163 0.930 . S
C3179 C3178 1.377 . S
C3179 C3180 1.379 . S
C3180 H3164 0.931 . S
C3180 C3174 1.383 . S
C3180 C3179 1.379 . S
H3181 C3175 0.959 . S
H3182 C3175 0.961 . S
H3183 C3175 0.960 . S
H3184 C3176 0.930 . S
H3185 C3177 0.929 . S
H3186 C3194 0.929 . S
H3187 C3196 0.930 . S
H3188 C3198 0.930 . S
H3189 C3201 0.929 . S
H3190 C3204 0.930 . S
H3191 C3206 0.960 . S
H3192 C3206 0.960 . S
H3193 C3206 0.960 . S
C3194 H3186 0.929 . S
C3194 C3195 1.377 . S
C3194 C3196 1.384 . S
C3195 C3194 1.377 . S
C3195 C3201 1.390 . S
C3196 H3187 0.930 . S
C3196 C3194 1.384 . S
C3196 C3197 1.372 . S
C3197 C3196 1.372 . S
C3197 C3198 1.400 . S
C3197 C3202 1.490 . S
C3198 H3188 0.930 . S
C3198 C3197 1.400 . S
C3198 C3201 1.386 . S
H3199 C3215 0.930 . S
H3200 C3216 0.931 . S
C3201 H3189 0.929 . S
C3201 C3195 1.390 . S
C3201 C3198 1.386 . S
C3202 C3197 1.490 . S
C3202 C3204 1.395 . S
C3202 C3205 1.403 . S
H3203 C3209 0.930 . S
C3204 H3190 0.930 . S
C3204 C3202 1.395 . S
C3204 C3207 1.403 . S
C3205 C3202 1.403 . S
C3205 C3206 1.524 . S
C3205 C3209 1.400 . S
C3206 H3191 0.960 . S
C3206 H3192 0.960 . S
C3206 H3193 0.960 . S
C3206 C3205 1.524 . S
C3207 C3204 1.403 . S
C3207 C3208 1.392 . S
C3207 C3211 1.495 . S
C3208 C3207 1.392 . S
C3208 C3209 1.385 . S
C3208 C3210 1.478 . S
C3209 H3203 0.930 . S
C3209 C3205 1.400 . S
C3209 C3208 1.385 . S
C3210 C3208 1.478 . S
C3210 C3212 1.381 . S
C3210 C3216 1.383 . S
C3211 C3207 1.495 . S
C3211 H3217 0.959 . S
C3211 H3218 0.961 . S
C3211 H3219 0.960 . S
C3212 C3210 1.381 . S
C3212 C3213 1.394 . S
C3212 H3220 0.930 . S
C3213 C3212 1.394 . S
C3213 C3214 1.383 . S
C3213 H3221 0.929 . S
C3214 C3213 1.383 . S
C3214 C3215 1.377 . S
C3215 H3199 0.930 . S
C3215 C3214 1.377 . S
C3215 C3216 1.379 . S
C3216 H3200 0.931 . S
C3216 C3210 1.383 . S
C3216 C3215 1.379 . S
H3217 C3211 0.959 . S
H3218 C3211 0.961 . S
H3219 C3211 0.960 . S
H3220 C3212 0.930 . S
H3221 C3213 0.929 . S
H3222 C3230 0.929 . S
H3223 C3232 0.930 . S
H3224 C3234 0.930 . S
H3225 C3237 0.929 . S
H3226 C3240 0.930 . S
H3227 C3242 0.960 . S
H3228 C3242 0.960 . S
H3229 C3242 0.960 . S
C3230 H3222 0.929 . S
C3230 C3231 1.377 . S
C3230 C3232 1.384 . S
C3231 C3230 1.377 . S
C3231 C3237 1.390 . S
C3232 H3223 0.930 . S
C3232 C3230 1.384 . S
C3232 C3233 1.372 . S
C3233 C3232 1.372 . S
C3233 C3234 1.400 . S
C3233 C3238 1.490 . S
C3234 H3224 0.930 . S
C3234 C3233 1.400 . S
C3234 C3237 1.386 . S
H3235 C3251 0.930 . S
H3236 C3252 0.931 . S
C3237 H3225 0.929 . S
C3237 C3231 1.390 . S
C3237 C3234 1.386 . S
C3238 C3233 1.490 . S
C3238 C3240 1.395 . S
C3238 C3241 1.403 . S
H3239 C3245 0.930 . S
C3240 H3226 0.930 . S
C3240 C3238 1.395 . S
C3240 C3243 1.403 . S
C3241 C3238 1.403 . S
C3241 C3242 1.524 . S
C3241 C3245 1.400 . S
C3242 H3227 0.960 . S
C3242 H3228 0.960 . S
C3242 H3229 0.960 . S
C3242 C3241 1.524 . S
C3243 C3240 1.403 . S
C3243 C3244 1.392 . S
C3243 C3247 1.495 . S
C3244 C3243 1.392 . S
C3244 C3245 1.385 . S
C3244 C3246 1.478 . S
C3245 H3239 0.930 . S
C3245 C3241 1.400 . S
C3245 C3244 1.385 . S
C3246 C3244 1.478 . S
C3246 C3248 1.381 . S
C3246 C3252 1.383 . S
C3247 C3243 1.495 . S
C3247 H3253 0.959 . S
C3247 H3254 0.961 . S
C3247 H3255 0.960 . S
C3248 C3246 1.381 . S
C3248 C3249 1.394 . S
C3248 H3256 0.930 . S
C3249 C3248 1.394 . S
C3249 C3250 1.383 . S
C3249 H3257 0.929 . S
C3250 C3249 1.383 . S
C3250 C3251 1.377 . S
C3251 H3235 0.930 . S
C3251 C3250 1.377 . S
C3251 C3252 1.379 . S
C3252 H3236 0.931 . S
C3252 C3246 1.383 . S
C3252 C3251 1.379 . S
H3253 C3247 0.959 . S
H3254 C3247 0.961 . S
H3255 C3247 0.960 . S
H3256 C3248 0.930 . S
H3257 C3249 0.929 . S
H3258 C3266 0.929 . S
H3259 C3268 0.930 . S
H3260 C3270 0.930 1_565 S
H3261 C3273 0.905 1_565 S
H3262 C3276 0.930 . S
H3263 C3278 0.960 . S
H3264 C3278 0.960 . S
H3265 C3278 0.960 . S
C3266 H3258 0.929 . S
C3266 C3267 1.377 . S
C3266 C3268 1.384 . S
C3267 C3266 1.377 . S
C3267 C3273 1.390 . S
C3268 H3259 0.930 . S
C3268 C3266 1.384 . S
C3268 C3269 1.372 . S
C3269 C3268 1.372 . S
C3269 C3270 1.400 . S
C3269 C3274 1.490 . S
C3270 H3260 0.930 1_545 S
C3270 C3269 1.400 . S
C3270 C3273 1.386 . S
H3271 C3287 0.930 . S
H3272 C3288 0.931 . S
C3273 H3261 0.905 1_545 S
C3273 C3267 1.390 . S
C3273 C3270 1.386 . S
C3274 C3269 1.490 . S
C3274 C3276 1.395 . S
C3274 C3277 1.403 . S
H3275 C3281 0.930 . S
C3276 H3262 0.930 . S
C3276 C3274 1.395 . S
C3276 C3279 1.403 . S
C3277 C3274 1.403 . S
C3277 C3278 1.524 . S
C3277 C3281 1.400 . S
C3278 H3263 0.960 . S
C3278 H3264 0.960 . S
C3278 H3265 0.960 . S
C3278 C3277 1.524 . S
C3279 C3276 1.403 . S
C3279 C3280 1.392 . S
C3279 C3283 1.495 . S
C3280 C3279 1.392 . S
C3280 C3281 1.385 . S
C3280 C3282 1.478 . S
C3281 H3275 0.930 . S
C3281 C3277 1.400 . S
C3281 C3280 1.385 . S
C3282 C3280 1.478 . S
C3282 C3284 1.381 . S
C3282 C3288 1.383 1_545 S
C3283 C3279 1.495 . S
C3283 H3289 0.959 . S
C3283 H3290 0.961 . S
C3283 H3291 0.960 . S
C3284 C3282 1.381 . S
C3284 C3285 1.394 . S
C3284 H3292 0.930 . S
C3285 C3284 1.394 . S
C3285 C3286 1.383 . S
C3285 H3293 0.929 . S
C3286 C3285 1.383 . S
C3286 C3287 1.377 1_545 S
C3287 H3271 0.930 . S
C3287 C3286 1.377 1_565 S
C3287 C3288 1.379 . S
C3288 H3272 0.931 . S
C3288 C3282 1.383 1_565 S
C3288 C3287 1.379 . S
H3289 C3283 0.959 . S
H3290 C3283 0.961 . S
H3291 C3283 0.960 . S
H3292 C3284 0.930 . S
H3293 C3285 0.929 . S
H3294 C3302 0.929 1_455 S
H3295 C3304 0.899 1_455 S
H3296 C3306 0.930 . S
H3297 C3309 0.929 . S
H3298 C3312 0.930 . S
H3299 C3314 0.960 . S
H3300 C3314 0.960 . S
H3301 C3314 0.960 . S
C3302 H3294 0.929 1_655 S
C3302 C3303 1.377 . S
C3302 C3304 1.357 . S
C3303 C3302 1.377 . S
C3303 C3309 1.390 . S
C3304 H3295 0.899 1_655 S
C3304 C3302 1.357 . S
C3304 C3305 1.434 . S
C3305 C3304 1.434 . S
C3305 C3306 1.400 . S
C3305 C3310 1.490 . S
C3306 H3296 0.930 . S
C3306 C3305 1.400 . S
C3306 C3309 1.386 . S
H3307 C3323 0.930 . S
H3308 C3324 0.931 . S
C3309 H3297 0.929 . S
C3309 C3303 1.390 . S
C3309 C3306 1.386 . S
C3310 C3305 1.490 . S
C3310 C3312 1.395 1_655 S
C3310 C3313 1.403 . S
H3311 C3317 0.930 . S
C3312 H3298 0.930 . S
C3312 C3310 1.395 1_455 S
C3312 C3315 1.403 . S
C3313 C3310 1.403 . S
C3313 C3314 1.524 . S
C3313 C3317 1.400 . S
C3314 H3299 0.960 . S
C3314 H3300 0.960 . S
C3314 H3301 0.960 . S
C3314 C3313 1.524 . S
C3315 C3312 1.403 . S
C3315 C3316 1.392 1_455 S
C3315 C3319 1.495 . S
C3316 C3315 1.392 1_655 S
C3316 C3317 1.385 . S
C3316 C3318 1.478 . S
C3317 H3311 0.930 . S
C3317 C3313 1.400 . S
C3317 C3316 1.385 . S
C3318 C3316 1.478 . S
C3318 C3320 1.381 1_655 S
C3318 C3324 1.383 . S
C3319 C3315 1.495 . S
C3319 H3325 0.959 . S
C3319 H3326 0.961 . S
C3319 H3327 0.960 . S
C3320 C3318 1.381 1_455 S
C3320 C3321 1.394 . S
C3320 H3328 0.930 . S
C3321 C3320 1.394 . S
C3321 C3322 1.383 1_455 S
C3321 H3329 0.929 . S
C3322 C3321 1.383 1_655 S
C3322 C3323 1.377 . S
C3323 H3307 0.930 . S
C3323 C3322 1.377 . S
C3323 C3324 1.379 . S
C3324 H3308 0.931 . S
C3324 C3318 1.383 . S
C3324 C3323 1.379 . S
H3325 C3319 0.959 . S
H3326 C3319 0.961 . S
H3327 C3319 0.960 . S
H3328 C3320 0.930 . S
H3329 C3321 0.929 . S
H3330 C3338 0.929 . S
H3331 C3340 0.930 . S
H3332 C3342 0.930 . S
H3333 C3345 0.929 . S
H3334 C3348 0.930 . S
H3335 C3350 0.960 . S
H3336 C3350 0.960 . S
H3337 C3350 0.960 . S
C3338 H3330 0.929 . S
C3338 C3339 1.377 . S
C3338 C3340 1.384 . S
C3339 C3338 1.377 . S
C3339 C3345 1.390 . S
C3340 H3331 0.930 . S
C3340 C3338 1.384 . S
C3340 C3341 1.372 . S
C3341 C3340 1.372 . S
C3341 C3342 1.400 . S
C3341 C3346 1.490 . S
C3342 H3332 0.930 . S
C3342 C3341 1.400 . S
C3342 C3345 1.386 . S
H3343 C3359 0.930 . S
H3344 C3360 0.931 . S
C3345 H3333 0.929 . S
C3345 C3339 1.390 . S
C3345 C3342 1.386 . S
C3346 C3341 1.490 . S
C3346 C3348 1.395 . S
C3346 C3349 1.403 . S
H3347 C3353 0.930 . S
C3348 H3334 0.930 . S
C3348 C3346 1.395 . S
C3348 C3351 1.403 . S
C3349 C3346 1.403 . S
C3349 C3350 1.524 . S
C3349 C3353 1.400 . S
C3350 H3335 0.960 . S
C3350 H3336 0.960 . S
C3350 H3337 0.960 . S
C3350 C3349 1.524 . S
C3351 C3348 1.403 . S
C3351 C3352 1.392 . S
C3351 C3355 1.495 . S
C3352 C3351 1.392 . S
C3352 C3353 1.385 . S
C3352 C3354 1.478 . S
C3353 H3347 0.930 . S
C3353 C3349 1.400 . S
C3353 C3352 1.385 . S
C3354 C3352 1.478 . S
C3354 C3356 1.381 . S
C3354 C3360 1.383 . S
C3355 C3351 1.495 . S
C3355 H3361 0.959 . S
C3355 H3362 0.961 . S
C3355 H3363 0.960 . S
C3356 C3354 1.381 . S
C3356 C3357 1.394 . S
C3356 H3364 0.930 . S
C3357 C3356 1.394 . S
C3357 C3358 1.383 . S
C3357 H3365 0.929 . S
C3358 C3357 1.383 . S
C3358 C3359 1.377 . S
C3359 H3343 0.930 . S
C3359 C3358 1.377 . S
C3359 C3360 1.379 . S
C3360 H3344 0.931 . S
C3360 C3354 1.383 . S
C3360 C3359 1.379 . S
H3361 C3355 0.959 . S
H3362 C3355 0.961 . S
H3363 C3355 0.960 . S
H3364 C3356 0.930 . S
H3365 C3357 0.929 . S
H3366 C3374 0.929 . S
H3367 C3376 0.930 . S
H3368 C3378 0.930 . S
H3369 C3381 0.929 . S
H3370 C3384 0.930 . S
H3371 C3386 0.960 . S
H3372 C3386 0.960 . S
H3373 C3386 0.960 . S
C3374 H3366 0.929 . S
C3374 C3375 1.377 . S
C3374 C3376 1.384 . S
C3375 C3374 1.377 . S
C3375 C3381 1.390 . S
C3376 H3367 0.930 . S
C3376 C3374 1.384 . S
C3376 C3377 1.372 . S
C3377 C3376 1.372 . S
C3377 C3378 1.400 . S
C3377 C3382 1.490 . S
C3378 H3368 0.930 . S
C3378 C3377 1.400 . S
C3378 C3381 1.386 . S
H3379 C3395 0.930 . S
H3380 C3396 0.931 . S
C3381 H3369 0.929 . S
C3381 C3375 1.390 . S
C3381 C3378 1.386 . S
C3382 C3377 1.490 . S
C3382 C3384 1.395 . S
C3382 C3385 1.403 . S
H3383 C3389 0.930 . S
C3384 H3370 0.930 . S
C3384 C3382 1.395 . S
C3384 C3387 1.403 . S
C3385 C3382 1.403 . S
C3385 C3386 1.524 . S
C3385 C3389 1.400 . S
C3386 H3371 0.960 . S
C3386 H3372 0.960 . S
C3386 H3373 0.960 . S
C3386 C3385 1.524 . S
C3387 C3384 1.403 . S
C3387 C3388 1.392 . S
C3387 C3391 1.495 . S
C3388 C3387 1.392 . S
C3388 C3389 1.385 . S
C3388 C3390 1.478 . S
C3389 H3383 0.930 . S
C3389 C3385 1.400 . S
C3389 C3388 1.385 . S
C3390 C3388 1.478 . S
C3390 C3392 1.381 . S
C3390 C3396 1.383 . S
C3391 C3387 1.495 . S
C3391 H3397 0.959 . S
C3391 H3398 0.961 . S
C3391 H3399 0.960 . S
C3392 C3390 1.381 . S
C3392 C3393 1.394 . S
C3392 H3400 0.930 . S
C3393 C3392 1.394 . S
C3393 C3394 1.383 . S
C3393 H3401 0.929 . S
C3394 C3393 1.383 . S
C3394 C3395 1.377 . S
C3395 H3379 0.930 . S
C3395 C3394 1.377 . S
C3395 C3396 1.379 . S
C3396 H3380 0.931 . S
C3396 C3390 1.383 . S
C3396 C3395 1.379 . S
H3397 C3391 0.959 . S
H3398 C3391 0.961 . S
H3399 C3391 0.960 . S
H3400 C3392 0.930 . S
H3401 C3393 0.929 . S
H3402 C3410 0.929 . S
H3403 C3412 0.930 . S
H3404 C3414 0.930 . S
H3405 C3417 0.929 . S
H3406 C3420 0.930 . S
H3407 C3422 0.960 . S
H3408 C3422 0.960 . S
H3409 C3422 0.960 . S
C3410 H3402 0.929 . S
C3410 C3411 1.377 . S
C3410 C3412 1.384 . S
C3411 C3410 1.377 . S
C3411 C3417 1.390 . S
C3412 H3403 0.930 . S
C3412 C3410 1.384 . S
C3412 C3413 1.372 . S
C3413 C3412 1.372 . S
C3413 C3414 1.400 . S
C3413 C3418 1.490 . S
C3414 H3404 0.930 . S
C3414 C3413 1.400 . S
C3414 C3417 1.386 . S
H3415 C3431 0.930 . S
H3416 C3432 0.931 . S
C3417 H3405 0.929 . S
C3417 C3411 1.390 . S
C3417 C3414 1.386 . S
C3418 C3413 1.490 . S
C3418 C3420 1.395 . S
C3418 C3421 1.403 . S
H3419 C3425 0.930 . S
C3420 H3406 0.930 . S
C3420 C3418 1.395 . S
C3420 C3423 1.403 . S
C3421 C3418 1.403 . S
C3421 C3422 1.524 . S
C3421 C3425 1.400 . S
C3422 H3407 0.960 . S
C3422 H3408 0.960 . S
C3422 H3409 0.960 . S
C3422 C3421 1.524 . S
C3423 C3420 1.403 . S
C3423 C3424 1.392 . S
C3423 C3427 1.495 . S
C3424 C3423 1.392 . S
C3424 C3425 1.385 . S
C3424 C3426 1.478 . S
C3425 H3419 0.930 . S
C3425 C3421 1.400 . S
C3425 C3424 1.385 . S
C3426 C3424 1.478 . S
C3426 C3428 1.381 . S
C3426 C3432 1.383 . S
C3427 C3423 1.495 . S
C3427 H3433 0.959 . S
C3427 H3434 0.961 . S
C3427 H3435 0.960 . S
C3428 C3426 1.381 . S
C3428 C3429 1.394 . S
C3428 H3436 0.930 . S
C3429 C3428 1.394 . S
C3429 C3430 1.383 . S
C3429 H3437 0.929 . S
C3430 C3429 1.383 . S
C3430 C3431 1.377 . S
C3431 H3415 0.930 . S
C3431 C3430 1.377 . S
C3431 C3432 1.379 . S
C3432 H3416 0.931 . S
C3432 C3426 1.383 . S
C3432 C3431 1.379 . S
H3433 C3427 0.959 . S
H3434 C3427 0.961 . S
H3435 C3427 0.960 . S
H3436 C3428 0.930 . S
H3437 C3429 0.929 . S
H3438 C3446 0.929 . S
H3439 C3448 0.930 . S
H3440 C3450 0.930 . S
H3441 C3453 0.929 . S
H3442 C3456 0.930 . S
H3443 C3458 0.960 . S
H3444 C3458 0.960 . S
H3445 C3458 0.960 . S
C3446 H3438 0.929 . S
C3446 C3447 1.377 . S
C3446 C3448 1.384 . S
C3447 C3446 1.377 . S
C3447 C3453 1.390 . S
C3448 H3439 0.930 . S
C3448 C3446 1.384 . S
C3448 C3449 1.372 . S
C3449 C3448 1.372 . S
C3449 C3450 1.400 . S
C3449 C3454 1.490 . S
C3450 H3440 0.930 . S
C3450 C3449 1.400 . S
C3450 C3453 1.386 . S
H3451 C3467 0.930 . S
H3452 C3468 0.931 . S
C3453 H3441 0.929 . S
C3453 C3447 1.390 . S
C3453 C3450 1.386 . S
C3454 C3449 1.490 . S
C3454 C3456 1.395 . S
C3454 C3457 1.403 . S
H3455 C3461 0.930 . S
C3456 H3442 0.930 . S
C3456 C3454 1.395 . S
C3456 C3459 1.403 . S
C3457 C3454 1.403 . S
C3457 C3458 1.524 . S
C3457 C3461 1.400 . S
C3458 H3443 0.960 . S
C3458 H3444 0.960 . S
C3458 H3445 0.960 . S
C3458 C3457 1.524 . S
C3459 C3456 1.403 . S
C3459 C3460 1.392 . S
C3459 C3463 1.495 . S
C3460 C3459 1.392 . S
C3460 C3461 1.385 . S
C3460 C3462 1.478 . S
C3461 H3455 0.930 . S
C3461 C3457 1.400 . S
C3461 C3460 1.385 . S
C3462 C3460 1.478 . S
C3462 C3464 1.381 . S
C3462 C3468 1.383 . S
C3463 C3459 1.495 . S
C3463 H3469 0.959 . S
C3463 H3470 0.961 . S
C3463 H3471 0.960 . S
C3464 C3462 1.381 . S
C3464 C3465 1.394 . S
C3464 H3472 0.930 . S
C3465 C3464 1.394 . S
C3465 C3466 1.383 . S
C3465 H3473 0.929 . S
C3466 C3465 1.383 . S
C3466 C3467 1.377 . S
C3467 H3451 0.930 . S
C3467 C3466 1.377 . S
C3467 C3468 1.379 . S
C3468 H3452 0.931 . S
C3468 C3462 1.383 . S
C3468 C3467 1.379 . S
H3469 C3463 0.959 . S
H3470 C3463 0.961 . S
H3471 C3463 0.960 . S
H3472 C3464 0.930 . S
H3473 C3465 0.929 . S
H3474 C3482 0.929 . S
H3475 C3484 0.930 . S
H3476 C3486 0.930 . S
H3477 C3489 0.929 . S
H3478 C3492 0.930 . S
H3479 C3494 0.960 . S
H3480 C3494 0.960 . S
H3481 C3494 0.960 . S
C3482 H3474 0.929 . S
C3482 C3483 1.377 . S
C3482 C3484 1.384 . S
C3483 C3482 1.377 . S
C3483 C3489 1.390 . S
C3484 H3475 0.930 . S
C3484 C3482 1.384 . S
C3484 C3485 1.372 . S
C3485 C3484 1.372 . S
C3485 C3486 1.400 . S
C3485 C3490 1.490 . S
C3486 H3476 0.930 . S
C3486 C3485 1.400 . S
C3486 C3489 1.386 . S
H3487 C3503 0.930 . S
H3488 C3504 0.931 . S
C3489 H3477 0.929 . S
C3489 C3483 1.390 . S
C3489 C3486 1.386 . S
C3490 C3485 1.490 . S
C3490 C3492 1.395 . S
C3490 C3493 1.403 . S
H3491 C3497 0.930 . S
C3492 H3478 0.930 . S
C3492 C3490 1.395 . S
C3492 C3495 1.403 . S
C3493 C3490 1.403 . S
C3493 C3494 1.524 . S
C3493 C3497 1.400 . S
C3494 H3479 0.960 . S
C3494 H3480 0.960 . S
C3494 H3481 0.960 . S
C3494 C3493 1.524 . S
C3495 C3492 1.403 . S
C3495 C3496 1.392 . S
C3495 C3499 1.495 . S
C3496 C3495 1.392 . S
C3496 C3497 1.385 . S
C3496 C3498 1.478 . S
C3497 H3491 0.930 . S
C3497 C3493 1.400 . S
C3497 C3496 1.385 . S
C3498 C3496 1.478 . S
C3498 C3500 1.381 . S
C3498 C3504 1.383 . S
C3499 C3495 1.495 . S
C3499 H3505 0.959 . S
C3499 H3506 0.961 . S
C3499 H3507 0.960 . S
C3500 C3498 1.381 . S
C3500 C3501 1.394 . S
C3500 H3508 0.930 . S
C3501 C3500 1.394 . S
C3501 C3502 1.383 . S
C3501 H3509 0.929 . S
C3502 C3501 1.383 . S
C3502 C3503 1.377 . S
C3503 H3487 0.930 . S
C3503 C3502 1.377 . S
C3503 C3504 1.379 . S
C3504 H3488 0.931 . S
C3504 C3498 1.383 . S
C3504 C3503 1.379 . S
H3505 C3499 0.959 . S
H3506 C3499 0.961 . S
H3507 C3499 0.960 . S
H3508 C3500 0.930 . S
H3509 C3501 0.929 . S
H3510 C3518 0.929 . S
H3511 C3520 0.930 . S
H3512 C3522 0.930 . S
H3513 C3525 0.929 . S
H3514 C3528 0.930 . S
H3515 C3530 0.960 . S
H3516 C3530 0.960 . S
H3517 C3530 0.960 . S
C3518 H3510 0.929 . S
C3518 C3519 1.377 . S
C3518 C3520 1.384 . S
C3519 C3518 1.377 . S
C3519 C3525 1.390 . S
C3520 H3511 0.930 . S
C3520 C3518 1.384 . S
C3520 C3521 1.372 . S
C3521 C3520 1.372 . S
C3521 C3522 1.400 . S
C3521 C3526 1.490 . S
C3522 H3512 0.930 . S
C3522 C3521 1.400 . S
C3522 C3525 1.386 . S
H3523 C3539 0.930 . S
H3524 C3540 0.931 . S
C3525 H3513 0.929 . S
C3525 C3519 1.390 . S
C3525 C3522 1.386 . S
C3526 C3521 1.490 . S
C3526 C3528 1.395 . S
C3526 C3529 1.403 . S
H3527 C3533 0.930 . S
C3528 H3514 0.930 . S
C3528 C3526 1.395 . S
C3528 C3531 1.403 . S
C3529 C3526 1.403 . S
C3529 C3530 1.524 . S
C3529 C3533 1.400 . S
C3530 H3515 0.960 . S
C3530 H3516 0.960 . S
C3530 H3517 0.960 . S
C3530 C3529 1.524 . S
C3531 C3528 1.403 . S
C3531 C3532 1.392 . S
C3531 C3535 1.495 . S
C3532 C3531 1.392 . S
C3532 C3533 1.385 . S
C3532 C3534 1.478 . S
C3533 H3527 0.930 . S
C3533 C3529 1.400 . S
C3533 C3532 1.385 . S
C3534 C3532 1.478 . S
C3534 C3536 1.381 . S
C3534 C3540 1.383 . S
C3535 C3531 1.495 . S
C3535 H3541 0.959 . S
C3535 H3542 0.961 . S
C3535 H3543 0.960 . S
C3536 C3534 1.381 . S
C3536 C3537 1.394 . S
C3536 H3544 0.930 . S
C3537 C3536 1.394 . S
C3537 C3538 1.383 . S
C3537 H3545 0.929 . S
C3538 C3537 1.383 . S
C3538 C3539 1.377 . S
C3539 H3523 0.930 . S
C3539 C3538 1.377 . S
C3539 C3540 1.379 . S
C3540 H3524 0.931 . S
C3540 C3534 1.383 . S
C3540 C3539 1.379 . S
H3541 C3535 0.959 . S
H3542 C3535 0.961 . S
H3543 C3535 0.960 . S
H3544 C3536 0.930 . S
H3545 C3537 0.929 . S
H3546 C3554 0.929 . S
H3547 C3556 0.930 . S
H3548 C3558 0.930 . S
H3549 C3561 0.929 . S
H3550 C3564 0.930 . S
H3551 C3566 0.960 . S
H3552 C3566 0.960 . S
H3553 C3566 0.960 . S
C3554 H3546 0.929 . S
C3554 C3555 1.377 . S
C3554 C3556 1.384 . S
C3555 C3554 1.377 . S
C3555 C3561 1.390 . S
C3556 H3547 0.930 . S
C3556 C3554 1.384 . S
C3556 C3557 1.372 . S
C3557 C3556 1.372 . S
C3557 C3558 1.400 . S
C3557 C3562 1.490 . S
C3558 H3548 0.930 . S
C3558 C3557 1.400 . S
C3558 C3561 1.386 . S
H3559 C3575 0.930 . S
H3560 C3576 0.931 . S
C3561 H3549 0.929 . S
C3561 C3555 1.390 . S
C3561 C3558 1.386 . S
C3562 C3557 1.490 . S
C3562 C3564 1.395 . S
C3562 C3565 1.403 . S
H3563 C3569 0.930 . S
C3564 H3550 0.930 . S
C3564 C3562 1.395 . S
C3564 C3567 1.403 . S
C3565 C3562 1.403 . S
C3565 C3566 1.524 . S
C3565 C3569 1.400 . S
C3566 H3551 0.960 . S
C3566 H3552 0.960 . S
C3566 H3553 0.960 . S
C3566 C3565 1.524 . S
C3567 C3564 1.403 . S
C3567 C3568 1.392 . S
C3567 C3571 1.495 . S
C3568 C3567 1.392 . S
C3568 C3569 1.385 . S
C3568 C3570 1.478 . S
C3569 H3563 0.930 . S
C3569 C3565 1.400 . S
C3569 C3568 1.385 . S
C3570 C3568 1.478 . S
C3570 C3572 1.381 . S
C3570 C3576 1.383 . S
C3571 C3567 1.495 . S
C3571 H3577 0.959 . S
C3571 H3578 0.961 . S
C3571 H3579 0.960 . S
C3572 C3570 1.381 . S
C3572 C3573 1.394 . S
C3572 H3580 0.930 . S
C3573 C3572 1.394 . S
C3573 C3574 1.383 . S
C3573 H3581 0.929 . S
C3574 C3573 1.383 . S
C3574 C3575 1.377 . S
C3575 H3559 0.930 . S
C3575 C3574 1.377 . S
C3575 C3576 1.379 . S
C3576 H3560 0.931 . S
C3576 C3570 1.383 . S
C3576 C3575 1.379 . S
H3577 C3571 0.959 . S
H3578 C3571 0.961 . S
H3579 C3571 0.960 . S
H3580 C3572 0.930 . S
H3581 C3573 0.929 . S
H3582 C3590 0.930 1_455 S
H3583 C3592 0.930 1_455 S
H3584 C3594 0.930 . S
H3585 C3597 0.929 . S
H3586 C3600 0.924 1_455 S
H3587 C3602 0.960 . S
H3588 C3602 0.960 . S
H3589 C3602 0.960 . S
C3590 H3582 0.930 1_655 S
C3590 C3591 1.377 . S
C3590 C3592 1.384 . S
C3591 C3590 1.377 . S
C3591 C3597 1.390 . S
C3592 H3583 0.930 1_655 S
C3592 C3590 1.384 . S
C3592 C3593 1.372 . S
C3593 C3592 1.372 . S
C3593 C3594 1.400 . S
C3593 C3598 1.490 . S
C3594 H3584 0.930 . S
C3594 C3593 1.400 . S
C3594 C3597 1.386 . S
H3595 C3611 0.930 . S
H3596 C3612 0.931 . S
C3597 H3585 0.929 . S
C3597 C3591 1.390 . S
C3597 C3594 1.386 . S
C3598 C3593 1.490 . S
C3598 C3600 1.445 . S
C3598 C3601 1.403 . S
H3599 C3605 0.930 . S
C3600 H3586 0.924 1_655 S
C3600 C3598 1.445 . S
C3600 C3603 1.363 1_655 S
C3601 C3598 1.403 . S
C3601 C3602 1.524 . S
C3601 C3605 1.400 . S
C3602 H3587 0.960 . S
C3602 H3588 0.960 . S
C3602 H3589 0.960 . S
C3602 C3601 1.524 . S
C3603 C3600 1.363 1_455 S
C3603 C3604 1.392 1_455 S
C3603 C3607 1.495 . S
C3604 C3603 1.392 1_655 S
C3604 C3605 1.385 . S
C3604 C3606 1.478 . S
C3605 H3599 0.930 . S
C3605 C3601 1.400 . S
C3605 C3604 1.385 . S
C3606 C3604 1.478 . S
C3606 C3608 1.381 1_655 S
C3606 C3612 1.383 . S
C3607 C3603 1.495 . S
C3607 H3613 0.959 . S
C3607 H3614 0.961 . S
C3607 H3615 0.960 . S
C3608 C3606 1.381 1_455 S
C3608 C3609 1.394 . S
C3608 H3616 0.930 . S
C3609 C3608 1.394 . S
C3609 C3610 1.383 1_455 S
C3609 H3617 0.929 . S
C3610 C3609 1.383 1_655 S
C3610 C3611 1.377 . S
C3611 H3595 0.930 . S
C3611 C3610 1.377 . S
C3611 C3612 1.379 . S
C3612 H3596 0.931 . S
C3612 C3606 1.383 . S
C3612 C3611 1.379 . S
H3613 C3607 0.959 . S
H3614 C3607 0.961 . S
H3615 C3607 0.960 . S
H3616 C3608 0.930 . S
H3617 C3609 0.929 . S
H3618 C3626 0.929 . S
H3619 C3628 0.930 . S
H3620 C3630 0.930 . S
H3621 C3633 0.929 . S
H3622 C3636 0.930 . S
H3623 C3638 0.960 . S
H3624 C3638 0.960 . S
H3625 C3638 0.960 . S
C3626 H3618 0.929 . S
C3626 C3627 1.377 . S
C3626 C3628 1.384 . S
C3627 C3626 1.377 . S
C3627 C3633 1.390 . S
C3628 H3619 0.930 . S
C3628 C3626 1.384 . S
C3628 C3629 1.372 . S
C3629 C3628 1.372 . S
C3629 C3630 1.400 . S
C3629 C3634 1.490 . S
C3630 H3620 0.930 . S
C3630 C3629 1.400 . S
C3630 C3633 1.386 . S
H3631 C3647 0.930 . S
H3632 C3648 0.931 . S
C3633 H3621 0.929 . S
C3633 C3627 1.390 . S
C3633 C3630 1.386 . S
C3634 C3629 1.490 . S
C3634 C3636 1.395 . S
C3634 C3637 1.403 . S
H3635 C3641 0.930 . S
C3636 H3622 0.930 . S
C3636 C3634 1.395 . S
C3636 C3639 1.403 . S
C3637 C3634 1.403 . S
C3637 C3638 1.524 . S
C3637 C3641 1.400 . S
C3638 H3623 0.960 . S
C3638 H3624 0.960 . S
C3638 H3625 0.960 . S
C3638 C3637 1.524 . S
C3639 C3636 1.403 . S
C3639 C3640 1.392 . S
C3639 C3643 1.495 . S
C3640 C3639 1.392 . S
C3640 C3641 1.385 . S
C3640 C3642 1.478 . S
C3641 H3635 0.930 . S
C3641 C3637 1.400 . S
C3641 C3640 1.385 . S
C3642 C3640 1.478 . S
C3642 C3644 1.381 . S
C3642 C3648 1.383 . S
C3643 C3639 1.495 . S
C3643 H3649 0.959 . S
C3643 H3650 0.961 . S
C3643 H3651 0.960 . S
C3644 C3642 1.381 . S
C3644 C3645 1.394 . S
C3644 H3652 0.930 . S
C3645 C3644 1.394 . S
C3645 C3646 1.383 . S
C3645 H3653 0.929 . S
C3646 C3645 1.383 . S
C3646 C3647 1.377 . S
C3647 H3631 0.930 . S
C3647 C3646 1.377 . S
C3647 C3648 1.379 . S
C3648 H3632 0.931 . S
C3648 C3642 1.383 . S
C3648 C3647 1.379 . S
H3649 C3643 0.959 . S
H3650 C3643 0.961 . S
H3651 C3643 0.960 . S
H3652 C3644 0.930 . S
H3653 C3645 0.929 . S
H3654 C3662 0.929 . S
H3655 C3664 0.930 . S
H3656 C3666 0.930 . S
H3657 C3669 0.929 . S
H3658 C3672 0.934 . S
H3659 C3674 0.960 . S
H3660 C3674 0.960 . S
H3661 C3674 0.960 . S
C3662 H3654 0.929 . S
C3662 C3663 1.377 . S
C3662 C3664 1.384 . S
C3663 C3662 1.377 . S
C3663 C3669 1.390 . S
C3664 H3655 0.930 . S
C3664 C3662 1.384 . S
C3664 C3665 1.372 . S
C3665 C3664 1.372 . S
C3665 C3666 1.400 . S
C3665 C3670 1.490 . S
C3666 H3656 0.930 . S
C3666 C3665 1.400 . S
C3666 C3669 1.386 . S
H3667 C3683 0.928 . S
H3668 C3684 0.934 1_565 S
C3669 H3657 0.929 . S
C3669 C3663 1.390 . S
C3669 C3666 1.386 . S
C3670 C3665 1.490 . S
C3670 C3672 1.392 1_545 S
C3670 C3673 1.403 . S
H3671 C3677 0.930 . S
C3672 H3658 0.934 . S
C3672 C3670 1.392 1_565 S
C3672 C3675 1.402 . S
C3673 C3670 1.403 . S
C3673 C3674 1.524 . S
C3673 C3677 1.400 . S
C3674 H3659 0.960 . S
C3674 H3660 0.960 . S
C3674 H3661 0.960 . S
C3674 C3673 1.524 . S
C3675 C3672 1.402 . S
C3675 C3676 1.392 1_565 S
C3675 C3679 1.495 . S
C3676 C3675 1.392 1_545 S
C3676 C3677 1.385 . S
C3676 C3678 1.478 . S
C3677 H3671 0.930 . S
C3677 C3673 1.400 . S
C3677 C3676 1.385 . S
C3678 C3676 1.478 . S
C3678 C3680 1.381 . S
C3678 C3684 1.383 . S
C3679 C3675 1.495 . S
C3679 H3685 0.959 . S
C3679 H3686 0.961 . S
C3679 H3687 0.960 . S
C3680 C3678 1.381 . S
C3680 C3681 1.394 . S
C3680 H3688 0.930 . S
C3681 C3680 1.394 . S
C3681 C3682 1.383 . S
C3681 H3689 0.929 . S
C3682 C3681 1.383 . S
C3682 C3683 1.382 1_545 S
C3683 H3667 0.928 . S
C3683 C3682 1.382 1_565 S
C3683 C3684 1.376 1_565 S
C3684 H3668 0.934 1_545 S
C3684 C3678 1.383 . S
C3684 C3683 1.376 1_545 S
H3685 C3679 0.959 . S
H3686 C3679 0.961 . S
H3687 C3679 0.960 . S
H3688 C3680 0.930 . S
H3689 C3681 0.929 . S
C1107 C8 1.396 . S
C1126 C711 1.457 . S
C1143 C18 1.473 . S
C1162 C759 1.512 . S
C1198 C807 1.481 . S
C1179 C31 1.425 . S
C1215 C34 1.447 . S
C1234 C831 1.487 . S
C1251 C5 1.424 . S
C1270 C903 1.487 . S
C1287 C21 1.482 . S
C1306 C951 1.526 . S
C1323 C47 1.396 . S
C1342 C879 1.448 . S
C1378 C927 1.523 . S
C1359 C57 1.478 . S
C1414 C855 1.515 . S
C1395 C70 1.462 . S
C1431 C73 1.380 . S
C1450 C783 1.453 . S
C1486 C687 1.512 . S
C1467 C44 1.455 . S
C1503 C60 1.483 . S
C1522 C735 1.527 . S
C1539 C86 1.559 . S
C1558 C999 1.605 . S
C1575 C96 1.534 . S
C1594 C1047 1.555 . S
C1630 C1071 1.615 . S
C1611 C109 1.600 . S
C1647 C112 1.577 . S
C1666 C255 1.610 . S
C1683 C83 1.592 . S
C1702 C327 1.621 . S
C1719 C99 1.539 . S
C1738 C375 1.590 . S
C1755 C125 1.479 . S
C1774 C303 1.534 . S
C1791 C135 1.533 . S
C1810 C351 1.572 . S
C1846 C279 1.621 . S
C1827 C148 1.592 . S
C1882 C1095 1.640 . S
C1863 C151 1.645 . S
C1918 C975 1.595 . S
C1899 C122 1.573 . S
C1954 C1023 1.625 . S
C1935 C138 1.572 . S
C1971 C164 1.491 . S
C1990 C423 1.528 . S
C2007 C174 1.523 . S
C2026 C471 1.563 . S
C2043 C187 1.598 . S
C2062 C495 1.609 . S
C2079 C190 1.645 . S
C2098 C543 1.679 . S
C2134 C615 1.609 . S
C2115 C161 1.589 . S
C2170 C663 1.618 . S
C2151 C177 1.571 . S
C2206 C591 1.636 . S
C2187 C203 1.583 . S
C2242 C639 1.589 . S
C2223 C213 1.552 . S
C2259 C226 1.591 . S
C2278 C567 1.585 . S
C2314 C519 1.594 . S
C2295 C229 1.561 . S
C2331 C200 1.589 . S
C2350 C399 1.635 . S
C2386 C447 1.596 . S
C2367 C216 1.555 . S
C2422 C264 1.425 . S
C2403 C0 1.380 . S
C2439 C23 1.349 . S
C2458 C318 1.313 . S
C2494 C366 1.427 . S
C2475 C36 1.437 . S
C2530 C414 1.459 . S
C2511 C26 1.402 1_556 S
C2566 C462 1.353 . S
C2547 C10 1.376 1_556 S
C2602 C504 1.378 . S
C2583 C13 1.335 . S
C2619 C39 1.389 . S
C2638 C510 1.439 . S
C2655 C62 1.340 . S
C2674 C408 1.323 . S
C2691 C75 1.390 . S
C2710 C456 1.366 . S
C2727 C65 1.446 . S
C2746 C312 1.470 . S
C2782 C360 1.376 . S
C2763 C49 1.391 . S
C2799 C52 1.332 . S
C2818 C270 1.371 . S
C2854 C552 1.392 . S
C2835 C78 1.357 . S
C2871 C101 1.473 . S
C2890 C606 1.441 . S
C2907 C114 1.453 1_655 S
C2926 C654 1.462 . S
C2962 C702 1.267 . S
C2943 C104 1.231 . S
C2979 C88 1.358 . S
C2998 C750 1.337 . S
C3015 C91 1.140 . S
C3034 C798 1.171 . S
C3051 C117 1.184 . S
C3070 C792 1.199 . S
C3087 C140 1.201 . S
C3106 C696 1.192 . S
C3142 C744 1.370 . S
C3123 C153 1.382 . S
C3159 C143 1.390 . S
C3178 C600 1.420 . S
C3195 C127 1.479 . S
C3214 C648 1.422 . S
C3250 C558 1.466 . S
C3231 C130 1.441 . S
C3286 C840 1.216 . S
C3267 C156 1.203 . S
C3303 C179 1.190 . S
C3322 C894 1.200 . S
C3339 C192 1.378 . S
C3358 C942 1.349 . S
C3394 C990 1.365 . S
C3375 C182 1.361 . S
C3430 C1038 1.456 . S
C3411 C166 1.483 . S
C3447 C169 1.444 . S
C3466 C1080 1.479 . S
C3483 C195 1.368 . S
C3502 C1086 1.404 . S
C3519 C218 1.468 . S
C3538 C984 1.444 . S
C3574 C1032 1.449 . S
C3555 C231 1.509 . S
C3610 C888 1.231 . S
C3591 C221 1.207 . S
C3646 C936 1.363 . S
C3627 C205 1.369 . S
C3663 C208 1.171 . S
C3682 C846 1.193 . S
