# Generated by pormake.
# Topology eea, (3,6)-cn, num edge types: 1
# Building blocks:
#     Node 0, Type 0, BuildingBlock: VETTIZ_charged_linker_0, # of connection points: 3
#     Node 1, Type 0, BuildingBlock: VETTIZ_charged_linker_0, # of connection points: 3
#     Node 2, Type 0, BuildingBlock: VETTIZ_charged_linker_0, # of connection points: 3
#     Node 3, Type 0, BuildingBlock: VETTIZ_charged_linker_0, # of connection points: 3
#     Node 4, Type 0, BuildingBlock: VETTIZ_charged_linker_0, # of connection points: 3
#     Node 5, Type 0, BuildingBlock: VETTIZ_charged_linker_0, # of connection points: 3
#     Node 6, Type 0, BuildingBlock: VETTIZ_charged_linker_0, # of connection points: 3
#     Node 7, Type 0, BuildingBlock: VETTIZ_charged_linker_0, # of connection points: 3
#     Node 8, Type 0, BuildingBlock: VETTIZ_charged_linker_0, # of connection points: 3
#     Node 9, Type 0, BuildingBlock: VETTIZ_charged_linker_0, # of connection points: 3
#     Node 10, Type 0, BuildingBlock: VETTIZ_charged_linker_0, # of connection points: 3
#     Node 11, Type 0, BuildingBlock: VETTIZ_charged_linker_0, # of connection points: 3
#     Node 12, Type 0, BuildingBlock: VETTIZ_charged_linker_0, # of connection points: 3
#     Node 13, Type 0, BuildingBlock: VETTIZ_charged_linker_0, # of connection points: 3
#     Node 14, Type 0, BuildingBlock: VETTIZ_charged_linker_0, # of connection points: 3
#     Node 15, Type 0, BuildingBlock: VETTIZ_charged_linker_0, # of connection points: 3
#     Node 16, Type 0, BuildingBlock: VETTIZ_charged_linker_0, # of connection points: 3
#     Node 17, Type 0, BuildingBlock: VETTIZ_charged_linker_0, # of connection points: 3
#     Node 18, Type 1, BuildingBlock: CUWYAW_clean_sbu_0, # of connection points: 6
#     Node 19, Type 1, BuildingBlock: CUWYAW_clean_sbu_0, # of connection points: 6
#     Node 20, Type 1, BuildingBlock: CUWYAW_clean_sbu_0, # of connection points: 6
#     Node 21, Type 1, BuildingBlock: CUWYAW_clean_sbu_0, # of connection points: 6
#     Node 22, Type 1, BuildingBlock: CUWYAW_clean_sbu_0, # of connection points: 6
#     Node 23, Type 1, BuildingBlock: CUWYAW_clean_sbu_0, # of connection points: 6
#     Node 24, Type 1, BuildingBlock: CUWYAW_clean_sbu_0, # of connection points: 6
#     Node 25, Type 1, BuildingBlock: CUWYAW_clean_sbu_0, # of connection points: 6
#     Node 26, Type 1, BuildingBlock: CUWYAW_clean_sbu_0, # of connection points: 6
#     Edge 27, Type (0, 1), BuildingBlock: CIFDUS_clean_linker_0, # of connection points: 2
#     Edge 28, Type (0, 1), BuildingBlock: CIFDUS_clean_linker_0, # of connection points: 2
#     Edge 29, Type (0, 1), BuildingBlock: CIFDUS_clean_linker_0, # of connection points: 2
#     Edge 30, Type (0, 1), BuildingBlock: CIFDUS_clean_linker_0, # of connection points: 2
#     Edge 31, Type (0, 1), BuildingBlock: CIFDUS_clean_linker_0, # of connection points: 2
#     Edge 32, Type (0, 1), BuildingBlock: CIFDUS_clean_linker_0, # of connection points: 2
#     Edge 33, Type (0, 1), BuildingBlock: CIFDUS_clean_linker_0, # of connection points: 2
#     Edge 34, Type (0, 1), BuildingBlock: CIFDUS_clean_linker_0, # of connection points: 2
#     Edge 35, Type (0, 1), BuildingBlock: CIFDUS_clean_linker_0, # of connection points: 2
#     Edge 36, Type (0, 1), BuildingBlock: CIFDUS_clean_linker_0, # of connection points: 2
#     Edge 37, Type (0, 1), BuildingBlock: CIFDUS_clean_linker_0, # of connection points: 2
#     Edge 38, Type (0, 1), BuildingBlock: CIFDUS_clean_linker_0, # of connection points: 2
#     Edge 39, Type (0, 1), BuildingBlock: CIFDUS_clean_linker_0, # of connection points: 2
#     Edge 40, Type (0, 1), BuildingBlock: CIFDUS_clean_linker_0, # of connection points: 2
#     Edge 41, Type (0, 1), BuildingBlock: CIFDUS_clean_linker_0, # of connection points: 2
#     Edge 42, Type (0, 1), BuildingBlock: CIFDUS_clean_linker_0, # of connection points: 2
#     Edge 43, Type (0, 1), BuildingBlock: CIFDUS_clean_linker_0, # of connection points: 2
#     Edge 44, Type (0, 1), BuildingBlock: CIFDUS_clean_linker_0, # of connection points: 2
#     Edge 45, Type (0, 1), BuildingBlock: CIFDUS_clean_linker_0, # of connection points: 2
#     Edge 46, Type (0, 1), BuildingBlock: CIFDUS_clean_linker_0, # of connection points: 2
#     Edge 47, Type (0, 1), BuildingBlock: CIFDUS_clean_linker_0, # of connection points: 2
#     Edge 48, Type (0, 1), BuildingBlock: CIFDUS_clean_linker_0, # of connection points: 2
#     Edge 49, Type (0, 1), BuildingBlock: CIFDUS_clean_linker_0, # of connection points: 2
#     Edge 50, Type (0, 1), BuildingBlock: CIFDUS_clean_linker_0, # of connection points: 2
#     Edge 51, Type (0, 1), BuildingBlock: CIFDUS_clean_linker_0, # of connection points: 2
#     Edge 52, Type (0, 1), BuildingBlock: CIFDUS_clean_linker_0, # of connection points: 2
#     Edge 53, Type (0, 1), BuildingBlock: CIFDUS_clean_linker_0, # of connection points: 2
#     Edge 54, Type (0, 1), BuildingBlock: CIFDUS_clean_linker_0, # of connection points: 2
#     Edge 55, Type (0, 1), BuildingBlock: CIFDUS_clean_linker_0, # of connection points: 2
#     Edge 56, Type (0, 1), BuildingBlock: CIFDUS_clean_linker_0, # of connection points: 2
#     Edge 57, Type (0, 1), BuildingBlock: CIFDUS_clean_linker_0, # of connection points: 2
#     Edge 58, Type (0, 1), BuildingBlock: CIFDUS_clean_linker_0, # of connection points: 2
#     Edge 59, Type (0, 1), BuildingBlock: CIFDUS_clean_linker_0, # of connection points: 2
#     Edge 60, Type (0, 1), BuildingBlock: CIFDUS_clean_linker_0, # of connection points: 2
#     Edge 61, Type (0, 1), BuildingBlock: CIFDUS_clean_linker_0, # of connection points: 2
#     Edge 62, Type (0, 1), BuildingBlock: CIFDUS_clean_linker_0, # of connection points: 2
#     Edge 63, Type (0, 1), BuildingBlock: CIFDUS_clean_linker_0, # of connection points: 2
#     Edge 64, Type (0, 1), BuildingBlock: CIFDUS_clean_linker_0, # of connection points: 2
#     Edge 65, Type (0, 1), BuildingBlock: CIFDUS_clean_linker_0, # of connection points: 2
#     Edge 66, Type (0, 1), BuildingBlock: CIFDUS_clean_linker_0, # of connection points: 2
#     Edge 67, Type (0, 1), BuildingBlock: CIFDUS_clean_linker_0, # of connection points: 2
#     Edge 68, Type (0, 1), BuildingBlock: CIFDUS_clean_linker_0, # of connection points: 2
#     Edge 69, Type (0, 1), BuildingBlock: CIFDUS_clean_linker_0, # of connection points: 2
#     Edge 70, Type (0, 1), BuildingBlock: CIFDUS_clean_linker_0, # of connection points: 2
#     Edge 71, Type (0, 1), BuildingBlock: CIFDUS_clean_linker_0, # of connection points: 2
#     Edge 72, Type (0, 1), BuildingBlock: CIFDUS_clean_linker_0, # of connection points: 2
#     Edge 73, Type (0, 1), BuildingBlock: CIFDUS_clean_linker_0, # of connection points: 2
#     Edge 74, Type (0, 1), BuildingBlock: CIFDUS_clean_linker_0, # of connection points: 2
#     Edge 75, Type (0, 1), BuildingBlock: CIFDUS_clean_linker_0, # of connection points: 2
#     Edge 76, Type (0, 1), BuildingBlock: CIFDUS_clean_linker_0, # of connection points: 2
#     Edge 77, Type (0, 1), BuildingBlock: CIFDUS_clean_linker_0, # of connection points: 2
#     Edge 78, Type (0, 1), BuildingBlock: CIFDUS_clean_linker_0, # of connection points: 2
#     Edge 79, Type (0, 1), BuildingBlock: CIFDUS_clean_linker_0, # of connection points: 2
#     Edge 80, Type (0, 1), BuildingBlock: CIFDUS_clean_linker_0, # of connection points: 2
# Relax obj value: 0.035
# Max RMSD: 0.134
# Mean RMSD: 0.080
data_MOF--net-eea--node1-CUWYAW_clean_sbu_0--node2-VETTIZ_charged_linker_0--edge1-CIFDUS_clean_linker_0
_symmetry_space_group_name_H-M    P1
_symmetry_Int_Tables_number       1
_symmetry_cell_setting            triclinic
loop_
_symmetry_equiv_pos_as_xyz
'x, y, z'
_cell_length_a     55.531128
_cell_length_b     55.279467
_cell_length_c     83.010128
_cell_angle_alpha  93.376167
_cell_angle_beta   93.276044
_cell_angle_gamma 119.88752
loop_
_atom_site_label
_atom_site_type_symbol
_atom_site_fract_x
_atom_site_fract_y
_atom_site_fract_z
_atom_type_partial_charge
C0 C 0.19608 0.16473 0.387 0.0
C1 C 0.19972 0.19045 0.39363 0.0
C2 C 0.2132 0.20123 0.40944 0.0
C3 C 0.21904 0.16083 0.41167 0.0
C4 C 0.20599 0.15046 0.39612 0.0
C5 C 0.20446 0.12331 0.39059 0.0
H6 H 0.23485 0.02209 0.40556 0.0
C7 C 0.22729 0.14109 0.41767 0.0
C8 C 0.21902 0.11922 0.4053 0.0
H9 H 0.18797 0.02611 0.36331 0.0
H10 H 0.19485 0.07031 0.37474 0.0
H11 H 0.28221 0.08669 0.41068 0.0
H12 H 0.20381 0.03973 0.43055 0.0
H13 H 0.22762 0.06335 0.44645 0.0
H14 H 0.23392 0.03725 0.43675 0.0
H15 H 0.27732 0.06345 0.42597 0.0
H16 H 0.28768 0.09974 0.43117 0.0
C17 C 0.22104 0.12792 0.37557 0.0
C18 C 0.17325 0.10018 0.38752 0.0
C19 C 0.27211 0.15692 0.47545 0.0
C20 C 0.28231 0.14217 0.48406 0.0
C21 C 0.28212 0.11891 0.476 0.0
C22 C 0.27135 0.11 0.45976 0.0
C23 C 0.26055 0.12443 0.45142 0.0
C24 C 0.26154 0.14781 0.45913 0.0
C25 C 0.25008 0.16106 0.44801 0.0
C26 C 0.24101 0.14102 0.43264 0.0
C27 C 0.24707 0.11955 0.4348 0.0
C28 C 0.27411 0.19077 0.44559 0.0
C29 C 0.22494 0.16068 0.45539 0.0
C30 C 0.22591 0.03234 0.39876 0.0
C31 C 0.21103 0.02046 0.38339 0.0
C32 C 0.20007 0.0349 0.37499 0.0
C33 C 0.20382 0.06052 0.38173 0.0
C34 C 0.21846 0.07189 0.39716 0.0
C35 C 0.22911 0.05776 0.40542 0.0
C36 C 0.24288 0.07227 0.422 0.0
C37 C 0.23893 0.09757 0.42225 0.0
C38 C 0.22479 0.09731 0.40764 0.0
C39 C 0.27413 0.0809 0.42266 0.0
C40 C 0.22651 0.05224 0.4347 0.0
H41 H 0.23275 0.19569 0.43049 0.0
H42 H 0.18621 0.15613 0.37479 0.0
H43 H 0.16034 0.10451 0.3957 0.0
H44 H 0.16956 0.07931 0.39017 0.0
H45 H 0.16477 0.09883 0.37485 0.0
H46 H 0.24032 0.14892 0.37708 0.0
H47 H 0.20838 0.12679 0.3644 0.0
H48 H 0.22839 0.11284 0.37364 0.0
H49 H 0.27236 0.1751 0.4813 0.0
H50 H 0.28962 0.10705 0.48241 0.0
H51 H 0.2715 0.09195 0.45442 0.0
H52 H 0.29468 0.19182 0.44667 0.0
H53 H 0.27523 0.2068 0.45479 0.0
H54 H 0.27226 0.19687 0.43333 0.0
H55 H 0.21142 0.14008 0.45998 0.0
H56 H 0.21123 0.16352 0.4465 0.0
H57 H 0.23207 0.17718 0.46572 0.0
H58 H 0.21612 0.22096 0.41482 0.0
C59 C 0.22279 0.18651 0.41851 0.0
C60 C 0.97222 0.17903 0.39299 0.0
C61 C 0.99373 0.20402 0.4016 0.0
C62 C 0.99061 0.21057 0.41778 0.0
C63 C 0.94623 0.16722 0.41672 0.0
C64 C 0.94878 0.1611 0.40073 0.0
C65 C 0.9242 0.13369 0.39334 0.0
H66 H 0.80085 0.0173 0.40214 0.0
C67 C 0.9199 0.14379 0.42134 0.0
C68 C 0.90683 0.12411 0.40761 0.0
H69 H 0.84342 0.03955 0.35872 0.0
H70 H 0.88062 0.08247 0.3733 0.0
H71 H 0.85235 0.03299 0.42528 0.0
H72 H 0.81207 0.07973 0.41372 0.0
H73 H 0.82006 0.08469 0.43489 0.0
H74 H 0.79726 0.04981 0.42511 0.0
H75 H 0.8223 0.02822 0.43478 0.0
H76 H 0.8573 0.05404 0.4432 0.0
C77 C 0.93496 0.11369 0.38814 0.0
C78 C 0.90913 0.1399 0.3793 0.0
C79 C 0.89385 0.1429 0.47954 0.0
C80 C 0.87194 0.12246 0.48735 0.0
C81 C 0.85151 0.09749 0.47827 0.0
C82 C 0.85276 0.09273 0.4617 0.0
C83 C 0.87489 0.113 0.45403 0.0
C84 C 0.89508 0.13755 0.46289 0.0
C85 C 0.9177 0.15593 0.45268 0.0
C86 C 0.90758 0.13838 0.43628 0.0
C87 C 0.88237 0.1134 0.4372 0.0
C88 C 0.94561 0.15927 0.45999 0.0
C89 C 0.91774 0.18388 0.45206 0.0
C90 C 0.81796 0.03157 0.39568 0.0
C91 C 0.81904 0.02503 0.37921 0.0
C92 C 0.84213 0.04396 0.37143 0.0
C93 C 0.86365 0.06896 0.37991 0.0
C94 C 0.86222 0.07515 0.39639 0.0
C95 C 0.8396 0.05651 0.40396 0.0
C96 C 0.84163 0.06605 0.42155 0.0
C97 C 0.86894 0.09378 0.42328 0.0
C98 C 0.88101 0.09906 0.40855 0.0
C99 C 0.8433 0.04425 0.43183 0.0
C100 C 0.81642 0.07018 0.42411 0.0
H101 H 0.96615 0.19859 0.43768 0.0
H102 H 0.97382 0.17315 0.38059 0.0
H103 H 0.90981 0.16015 0.38223 0.0
H104 H 0.88669 0.12415 0.37702 0.0
H105 H 0.91914 0.14136 0.3679 0.0
H106 H 0.9516 0.11594 0.39727 0.0
H107 H 0.94391 0.11839 0.37632 0.0
H108 H 0.91867 0.09135 0.38728 0.0
H109 H 0.90995 0.16217 0.48631 0.0
H110 H 0.83441 0.0816 0.48406 0.0
H111 H 0.83647 0.07328 0.45554 0.0
H112 H 0.94228 0.13928 0.46436 0.0
H113 H 0.955 0.17566 0.47046 0.0
H114 H 0.96104 0.1643 0.45109 0.0
H115 H 0.89607 0.18017 0.45143 0.0
H116 H 0.92633 0.19442 0.44117 0.0
H117 H 0.9296 0.19853 0.46305 0.0
H118 H 0.00638 0.2299 0.42465 0.0
C119 C 0.9671 0.19239 0.42535 0.0
C120 C 0.97448 0.78294 0.39745 0.0
C121 C 0.99756 0.78215 0.40475 0.0
C122 C 0.99658 0.77432 0.42071 0.0
C123 C 0.95114 0.77015 0.42211 0.0
C124 C 0.95168 0.77698 0.40631 0.0
C125 C 0.92592 0.77775 0.40048 0.0
H126 H 0.80767 0.77607 0.41798 0.0
C127 C 0.9252 0.76683 0.42824 0.0
C128 C 0.9104 0.77137 0.41556 0.0
H129 H 0.83945 0.78178 0.37106 0.0
H130 H 0.87811 0.77831 0.38298 0.0
H131 H 0.8144 0.72492 0.42554 0.0
H132 H 0.86484 0.81333 0.43938 0.0
H133 H 0.86629 0.797 0.45662 0.0
H134 H 0.83307 0.7914 0.44806 0.0
H135 H 0.80624 0.74241 0.44134 0.0
H136 H 0.82855 0.72795 0.44546 0.0
C137 C 0.9098 0.75435 0.38632 0.0
C138 C 0.935 0.80766 0.39592 0.0
C139 C 0.90382 0.74478 0.48661 0.0
C140 C 0.88243 0.74332 0.49562 0.0
C141 C 0.86205 0.7482 0.48816 0.0
C142 C 0.86266 0.75427 0.47206 0.0
C143 C 0.88399 0.75567 0.46316 0.0
C144 C 0.90435 0.75132 0.47043 0.0
C145 C 0.92611 0.75526 0.45908 0.0
C146 C 0.9147 0.76155 0.44371 0.0
C147 C 0.88997 0.76161 0.44629 0.0
C148 C 0.92631 0.72743 0.45651 0.0
C149 C 0.95439 0.7806 0.46644 0.0
C150 C 0.82259 0.77621 0.41009 0.0
C151 C 0.82025 0.77943 0.39348 0.0
C152 C 0.84079 0.77996 0.38395 0.0
C153 C 0.86317 0.77765 0.39086 0.0
C154 C 0.86504 0.77445 0.40748 0.0
C155 C 0.84464 0.77331 0.41668 0.0
C156 C 0.84874 0.76795 0.43386 0.0
C157 C 0.87518 0.76635 0.43354 0.0
C158 C 0.88499 0.77066 0.41817 0.0
C159 C 0.8232 0.73949 0.43688 0.0
C160 C 0.85329 0.79354 0.44518 0.0
H161 H 0.97419 0.76262 0.44147 0.0
H162 H 0.97449 0.78895 0.38527 0.0
H163 H 0.95091 0.82368 0.40536 0.0
H164 H 0.91772 0.8121 0.39506 0.0
H165 H 0.94433 0.8112 0.38419 0.0
H166 H 0.91347 0.73647 0.38752 0.0
H167 H 0.91643 0.76231 0.37443 0.0
H168 H 0.88692 0.74493 0.38609 0.0
H169 H 0.91991 0.74139 0.49212 0.0
H170 H 0.84528 0.74696 0.4948 0.0
H171 H 0.84639 0.75762 0.4672 0.0
H172 H 0.90462 0.70926 0.45487 0.0
H173 H 0.93747 0.72466 0.46714 0.0
H174 H 0.93588 0.72588 0.44549 0.0
H175 H 0.95129 0.79695 0.47284 0.0
H176 H 0.96848 0.79144 0.45718 0.0
H177 H 0.96523 0.77412 0.47536 0.0
H178 H 0.01372 0.77292 0.42655 0.0
C179 C 0.97356 0.76829 0.42938 0.0
C180 C 0.16283 0.2072 0.61282 0.0
C181 C 0.18472 0.20453 0.60676 0.0
C182 C 0.1885 0.20732 0.59013 0.0
C183 C 0.14981 0.21575 0.58623 0.0
C184 C 0.14547 0.21226 0.60234 0.0
C185 C 0.11995 0.21324 0.60656 0.0
H186 H 0.00707 0.22361 0.58249 0.0
C187 C 0.128 0.22052 0.57862 0.0
C188 C 0.11015 0.21861 0.59039 0.0
H189 H 0.02974 0.20679 0.6295 0.0
H190 H 0.07193 0.21127 0.62024 0.0
H191 H 0.06884 0.2731 0.57785 0.0
H192 H 0.02481 0.18514 0.56086 0.0
H193 H 0.04113 0.20447 0.5447 0.0
H194 H 0.01506 0.20946 0.55378 0.0
H195 H 0.04257 0.25904 0.5609 0.0
H196 H 0.07861 0.27012 0.55843 0.0
C197 C 0.12924 0.23817 0.61965 0.0
C198 C 0.09868 0.18423 0.61181 0.0
C199 C 0.13222 0.2453 0.52048 0.0
C200 C 0.11594 0.25235 0.51036 0.0
C201 C 0.09229 0.25175 0.51618 0.0
C202 C 0.08514 0.24449 0.53184 0.0
C203 C 0.10185 0.23784 0.54187 0.0
C204 C 0.12493 0.23829 0.53612 0.0
C205 C 0.14054 0.23106 0.54851 0.0
C206 C 0.12339 0.22679 0.56278 0.0
C207 C 0.10063 0.23058 0.55881 0.0
C208 C 0.17047 0.25656 0.55221 0.0
C209 C 0.13932 0.20359 0.5419 0.0
C210 C 0.02108 0.22074 0.59074 0.0
C211 C 0.01497 0.21474 0.60675 0.0
C212 C 0.03403 0.21169 0.61718 0.0
C213 C 0.05845 0.21405 0.61173 0.0
C214 C 0.06399 0.21947 0.59563 0.0
C215 C 0.04567 0.22309 0.58548 0.0
C216 C 0.05543 0.22936 0.56887 0.0
C217 C 0.08197 0.2277 0.57057 0.0
C218 C 0.08684 0.22193 0.58629 0.0
C219 C 0.06156 0.25935 0.5662 0.0
C220 C 0.03298 0.20608 0.55628 0.0
H221 H 0.17551 0.21503 0.56746 0.0
H222 H 0.15905 0.20536 0.62545 0.0
H223 H 0.10119 0.16717 0.60585 0.0
H224 H 0.07678 0.17808 0.60813 0.0
H225 H 0.10143 0.18376 0.62512 0.0
H226 H 0.14901 0.25668 0.61695 0.0
H227 H 0.13296 0.23266 0.63184 0.0
H228 H 0.11407 0.24551 0.62019 0.0
H229 H 0.15071 0.24588 0.51648 0.0
H230 H 0.07923 0.25681 0.50858 0.0
H231 H 0.06691 0.2444 0.53555 0.0
H232 H 0.16992 0.27643 0.55353 0.0
H233 H 0.18347 0.25791 0.54224 0.0
H234 H 0.18123 0.25619 0.56369 0.0
H235 H 0.12053 0.19046 0.53316 0.0
H236 H 0.13743 0.18991 0.55154 0.0
H237 H 0.15792 0.20807 0.5355 0.0
H238 H 0.20436 0.20449 0.58479 0.0
C239 C 0.17141 0.21312 0.57993 0.0
C240 C 0.80907 0.83696 0.62288 0.0
C241 C 0.80657 0.81221 0.61547 0.0
C242 C 0.79369 0.80248 0.59947 0.0
C243 C 0.78603 0.84196 0.59859 0.0
C244 C 0.7985 0.85127 0.61432 0.0
C245 C 0.79839 0.87719 0.62077 0.0
H246 H 0.76714 0.97869 0.60857 0.0
C247 C 0.77674 0.86137 0.59333 0.0
C248 C 0.78368 0.88186 0.60637 0.0
H249 H 0.80813 0.96931 0.65165 0.0
H250 H 0.8032 0.92657 0.63885 0.0
H251 H 0.7989 0.9616 0.58325 0.0
H252 H 0.71942 0.91528 0.60202 0.0
H253 H 0.71457 0.90082 0.5819 0.0
H254 H 0.72438 0.93721 0.586 0.0
H255 H 0.76991 0.96663 0.57827 0.0
H256 H 0.77429 0.94064 0.56685 0.0
C257 C 0.82913 0.90118 0.62448 0.0
C258 C 0.78115 0.8702 0.63561 0.0
C259 C 0.7333 0.84944 0.53554 0.0
C260 C 0.72208 0.86399 0.52764 0.0
C261 C 0.72113 0.88602 0.53643 0.0
C262 C 0.73174 0.89395 0.55274 0.0
C263 C 0.74341 0.87969 0.56042 0.0
C264 C 0.74356 0.85745 0.55198 0.0
C265 C 0.75545 0.84388 0.56254 0.0
C266 C 0.76334 0.86236 0.57848 0.0
C267 C 0.75645 0.88343 0.57705 0.0
C268 C 0.78139 0.8462 0.55515 0.0
C269 C 0.73207 0.81338 0.564 0.0
C270 C 0.77471 0.96722 0.61532 0.0
C271 C 0.78815 0.97747 0.63112 0.0
C272 C 0.79804 0.96207 0.63939 0.0
C273 C 0.79508 0.9372 0.63194 0.0
C274 C 0.78216 0.92757 0.61601 0.0
C275 C 0.77203 0.9424 0.60804 0.0
C276 C 0.75918 0.92922 0.59112 0.0
C277 C 0.76344 0.90411 0.59022 0.0
C278 C 0.77696 0.9033 0.6048 0.0
C279 C 0.77618 0.95052 0.57914 0.0
C280 C 0.7278 0.92027 0.59004 0.0
H281 H 0.77403 0.80895 0.57882 0.0
H282 H 0.8184 0.84464 0.63526 0.0
H283 H 0.76359 0.84812 0.63401 0.0
H284 H 0.77107 0.88294 0.63734 0.0
H285 H 0.79428 0.87285 0.64692 0.0
H286 H 0.84233 0.89963 0.61534 0.0
H287 H 0.83806 0.90027 0.6366 0.0
H288 H 0.8317 0.92221 0.62384 0.0
H289 H 0.73389 0.83215 0.5291 0.0
H290 H 0.71272 0.89759 0.53055 0.0
H291 H 0.73069 0.91111 0.55867 0.0
H292 H 0.79462 0.86757 0.55139 0.0
H293 H 0.77514 0.83091 0.54426 0.0
H294 H 0.79507 0.84291 0.56379 0.0
H295 H 0.71112 0.81149 0.56299 0.0
H296 H 0.73384 0.80622 0.57593 0.0
H297 H 0.73189 0.79858 0.55428 0.0
H298 H 0.7916 0.78345 0.59354 0.0
C299 C 0.78353 0.8173 0.59097 0.0
C300 C 0.02674 0.807 0.6092 0.0
C301 C 0.00722 0.78073 0.60099 0.0
C302 C 0.0118 0.7737 0.58527 0.0
C303 C 0.05412 0.81898 0.58611 0.0
C304 C 0.0499 0.82558 0.60162 0.0
C305 C 0.07235 0.85428 0.60876 0.0
H306 H 0.19061 0.97584 0.60101 0.0
C307 C 0.0798 0.84335 0.58164 0.0
C308 C 0.09061 0.864 0.59493 0.0
H309 H 0.14246 0.95221 0.64228 0.0
H310 H 0.11007 0.90709 0.62798 0.0
H311 H 0.18614 0.91468 0.59208 0.0
H312 H 0.13983 0.95308 0.5751 0.0
H313 H 0.1407 0.93305 0.55821 0.0
H314 H 0.17297 0.9618 0.5682 0.0
H315 H 0.20014 0.94383 0.58007 0.0
H316 H 0.18049 0.90818 0.57081 0.0
C317 C 0.08772 0.85088 0.62388 0.0
C318 C 0.0586 0.87228 0.61223 0.0
C319 C 0.11143 0.84244 0.5253 0.0
C320 C 0.13365 0.86268 0.5176 0.0
C321 C 0.15241 0.88881 0.52632 0.0
C322 C 0.14918 0.89475 0.54241 0.0
C323 C 0.12685 0.87443 0.54993 0.0
C324 C 0.10834 0.84882 0.54139 0.0
C325 C 0.08549 0.8301 0.55131 0.0
C326 C 0.09341 0.84871 0.56718 0.0
C327 C 0.11773 0.87459 0.56628 0.0
C328 C 0.08761 0.80355 0.5534 0.0
C329 C 0.05727 0.82415 0.54277 0.0
C330 C 0.17326 0.96075 0.607 0.0
C331 C 0.16904 0.96752 0.62278 0.0
C332 C 0.14597 0.94753 0.63007 0.0
C333 C 0.12724 0.9213 0.62176 0.0
C334 C 0.13145 0.91493 0.6059 0.0
C335 C 0.15417 0.93447 0.59878 0.0
C336 C 0.1548 0.92427 0.58169 0.0
C337 C 0.12889 0.89528 0.57982 0.0
C338 C 0.11538 0.88997 0.59405 0.0
C339 C 0.18183 0.92276 0.58096 0.0
C340 C 0.15215 0.94404 0.57011 0.0
H341 H 0.03733 0.78609 0.56583 0.0
H342 H 0.0238 0.81336 0.62117 0.0
H343 H 0.04107 0.86679 0.60284 0.0
H344 H 0.07299 0.89493 0.61181 0.0
H345 H 0.05002 0.86886 0.62419 0.0
H346 H 0.08864 0.83124 0.62219 0.0
H347 H 0.07688 0.84988 0.63488 0.0
H348 H 0.10977 0.86775 0.62625 0.0
H349 H 0.09656 0.82225 0.51888 0.0
H350 H 0.16989 0.90459 0.52073 0.0
H351 H 0.16425 0.91497 0.54836 0.0
H352 H 0.1098 0.80882 0.55468 0.0
H353 H 0.07683 0.78771 0.54274 0.0
H354 H 0.07911 0.79381 0.56451 0.0
H355 H 0.05946 0.84322 0.53764 0.0
H356 H 0.04086 0.81845 0.55108 0.0
H357 H 0.04968 0.80724 0.53263 0.0
H358 H 0.9974 0.75347 0.57873 0.0
C359 C 0.0351 0.79265 0.57781 0.0
C360 C 0.88773 0.51911 0.71626 0.0
C361 C 0.89162 0.54396 0.72446 0.0
C362 C 0.90207 0.5507 0.74096 0.0
C363 C 0.90266 0.50711 0.74108 0.0
C364 C 0.8935 0.50116 0.72474 0.0
C365 C 0.89031 0.47386 0.7178 0.0
H366 H 0.89663 0.35695 0.72966 0.0
C367 C 0.90537 0.48346 0.7464 0.0
C368 C 0.89845 0.46406 0.73275 0.0
H369 H 0.87369 0.37964 0.68479 0.0
H370 H 0.88123 0.423 0.69863 0.0
H371 H 0.94878 0.41977 0.74326 0.0
H372 H 0.86184 0.37185 0.75012 0.0
H373 H 0.87773 0.39297 0.76846 0.0
H374 H 0.88745 0.36761 0.76175 0.0
H375 H 0.93368 0.38901 0.75395 0.0
H376 H 0.9457 0.42334 0.76414 0.0
C377 C 0.91121 0.48025 0.70488 0.0
C378 C 0.8593 0.45406 0.71126 0.0
C379 C 0.92711 0.47942 0.80628 0.0
C380 C 0.92807 0.45857 0.81473 0.0
C381 C 0.92492 0.4344 0.80599 0.0
C382 C 0.9204 0.43072 0.78907 0.0
C383 C 0.91867 0.45128 0.78076 0.0
C384 C 0.92211 0.4752 0.78931 0.0
C385 C 0.91857 0.49421 0.77835 0.0
C386 C 0.91206 0.4775 0.76189 0.0
C387 C 0.91234 0.4525 0.76344 0.0
C388 C 0.94659 0.5223 0.77951 0.0
C389 C 0.89357 0.49709 0.78333 0.0
C390 C 0.89367 0.3715 0.72278 0.0
C391 C 0.88485 0.36512 0.70612 0.0
C392 C 0.88047 0.38418 0.69766 0.0
C393 C 0.88492 0.40933 0.70571 0.0
C394 C 0.89354 0.41531 0.72245 0.0
C395 C 0.89769 0.39647 0.73067 0.0
C396 C 0.90552 0.40549 0.74851 0.0
C397 C 0.90607 0.43325 0.74961 0.0
C398 C 0.89911 0.43896 0.73434 0.0
C399 C 0.93488 0.4095 0.75285 0.0
C400 C 0.88216 0.3834 0.7578 0.0
H401 H 0.9151 0.53841 0.76193 0.0
H402 H 0.88021 0.51368 0.7035 0.0
H403 H 0.84522 0.45692 0.71918 0.0
H404 H 0.85281 0.43165 0.71113 0.0
H405 H 0.85494 0.45837 0.69885 0.0
H406 H 0.931 0.50031 0.70857 0.0
H407 H 0.90245 0.48219 0.69298 0.0
H408 H 0.91759 0.46434 0.70327 0.0
H409 H 0.92937 0.49814 0.81275 0.0
H410 H 0.92599 0.41829 0.8123 0.0
H411 H 0.91813 0.41184 0.78316 0.0
H412 H 0.96462 0.51888 0.78147 0.0
H413 H 0.94813 0.53699 0.78977 0.0
H414 H 0.94985 0.53267 0.7682 0.0
H415 H 0.8763 0.47655 0.7862 0.0
H416 H 0.88427 0.50355 0.77362 0.0
H417 H 0.8998 0.51226 0.79427 0.0
H418 H 0.90525 0.56978 0.74748 0.0
C419 C 0.90759 0.53238 0.74932 0.0
C420 C 0.62686 0.50517 0.72095 0.0
C421 C 0.64945 0.53142 0.72722 0.0
C422 C 0.64895 0.54268 0.74284 0.0
C423 C 0.6042 0.50144 0.74562 0.0
C424 C 0.60474 0.49065 0.73028 0.0
C425 C 0.57974 0.46223 0.72533 0.0
H426 H 0.45683 0.35446 0.74193 0.0
C427 C 0.57811 0.4807 0.75204 0.0
C428 C 0.56381 0.45775 0.74011 0.0
H429 H 0.50178 0.36091 0.69994 0.0
H430 H 0.53771 0.40716 0.71055 0.0
H431 H 0.50984 0.37775 0.767 0.0
H432 H 0.46846 0.41764 0.74529 0.0
H433 H 0.47838 0.4319 0.76564 0.0
H434 H 0.4545 0.39476 0.76094 0.0
H435 H 0.47778 0.3736 0.77339 0.0
H436 H 0.51129 0.40191 0.78223 0.0
C437 C 0.58997 0.44087 0.72282 0.0
C438 C 0.56362 0.46438 0.71012 0.0
C439 C 0.55495 0.49824 0.80875 0.0
C440 C 0.53181 0.48242 0.81739 0.0
C441 C 0.50965 0.45674 0.80985 0.0
C442 C 0.51039 0.44687 0.79412 0.0
C443 C 0.53361 0.46266 0.78569 0.0
C444 C 0.55532 0.48802 0.79289 0.0
C445 C 0.57799 0.50194 0.78176 0.0
C446 C 0.56642 0.48044 0.76692 0.0
C447 C 0.54045 0.45747 0.76941 0.0
C448 C 0.60531 0.50521 0.78997 0.0
C449 C 0.58 0.52995 0.77802 0.0
C450 C 0.47445 0.36572 0.73502 0.0
C451 C 0.47609 0.35385 0.71993 0.0
C452 C 0.49943 0.36958 0.71139 0.0
C453 C 0.52057 0.39645 0.71767 0.0
C454 C 0.51874 0.40783 0.73281 0.0
C455 C 0.49602 0.39248 0.74124 0.0
C456 C 0.49825 0.40748 0.75746 0.0
C457 C 0.52606 0.43437 0.75732 0.0
C458 C 0.5378 0.43448 0.74282 0.0
C459 C 0.49915 0.38935 0.7708 0.0
C460 C 0.47359 0.41317 0.75751 0.0
H461 H 0.62739 0.53738 0.7639 0.0
H462 H 0.62626 0.496 0.70893 0.0
H463 H 0.56339 0.48443 0.71121 0.0
H464 H 0.54144 0.44778 0.70841 0.0
H465 H 0.57355 0.46377 0.69898 0.0
H466 H 0.60992 0.44777 0.73038 0.0
H467 H 0.59359 0.43826 0.70997 0.0
H468 H 0.57535 0.42009 0.72666 0.0
H469 H 0.57224 0.51813 0.81416 0.0
H470 H 0.49183 0.44385 0.81628 0.0
H471 H 0.49288 0.42711 0.78921 0.0
H472 H 0.601 0.48612 0.79591 0.0
H473 H 0.61536 0.52337 0.79943 0.0
H474 H 0.62051 0.50771 0.78128 0.0
H475 H 0.55889 0.52764 0.77654 0.0
H476 H 0.58898 0.53708 0.76653 0.0
H477 H 0.59253 0.54674 0.78803 0.0
H478 H 0.66619 0.56275 0.74806 0.0
C479 C 0.62647 0.52785 0.75206 0.0
C480 C 0.63721 0.11274 0.73179 0.0
C481 C 0.65957 0.11148 0.73972 0.0
C482 C 0.65785 0.10478 0.75594 0.0
C483 C 0.61303 0.1025 0.75622 0.0
C484 C 0.6144 0.10831 0.74021 0.0
C485 C 0.58963 0.11006 0.73357 0.0
H486 H 0.47731 0.1218 0.74713 0.0
C487 C 0.5873 0.10088 0.76168 0.0
C488 C 0.57365 0.10543 0.7484 0.0
H489 H 0.50921 0.11793 0.70114 0.0
H490 H 0.54396 0.11061 0.71461 0.0
H491 H 0.47626 0.06739 0.75667 0.0
H492 H 0.53534 0.15458 0.77012 0.0
H493 H 0.52999 0.13712 0.78779 0.0
H494 H 0.50092 0.13668 0.77667 0.0
H495 H 0.47106 0.08715 0.7726 0.0
H496 H 0.49014 0.06916 0.77649 0.0
C497 C 0.57319 0.08601 0.71974 0.0
C498 C 0.60037 0.13985 0.72825 0.0
C499 C 0.56261 0.08278 0.81994 0.0
C500 C 0.54119 0.0826 0.82837 0.0
C501 C 0.52191 0.08832 0.82019 0.0
C502 C 0.52369 0.09396 0.80396 0.0
C503 C 0.54507 0.09406 0.79567 0.0
C504 C 0.56428 0.08878 0.80364 0.0
C505 C 0.5862 0.09104 0.79287 0.0
C506 C 0.57611 0.09717 0.77699 0.0
C507 C 0.55201 0.09895 0.77881 0.0
C508 C 0.58512 0.0625 0.79117 0.0
C509 C 0.61476 0.11588 0.80027 0.0
C510 C 0.49148 0.11917 0.7398 0.0
C511 C 0.49064 0.12149 0.72295 0.0
C512 C 0.50978 0.11762 0.71417 0.0
C513 C 0.5299 0.11295 0.72199 0.0
C514 C 0.53086 0.11153 0.73881 0.0
C515 C 0.51128 0.11367 0.74734 0.0
C516 C 0.51372 0.10864 0.76483 0.0
C517 C 0.53862 0.10413 0.76545 0.0
C518 C 0.54894 0.10653 0.75025 0.0
C519 C 0.48642 0.08186 0.76796 0.0
C520 C 0.52015 0.13549 0.77553 0.0
H521 H 0.63474 0.09532 0.77652 0.0
H522 H 0.63782 0.11806 0.71942 0.0
H523 H 0.61616 0.15598 0.73769 0.0
H524 H 0.58387 0.14527 0.7265 0.0
H525 H 0.61038 0.14223 0.71679 0.0
H526 H 0.57743 0.06849 0.72089 0.0
H527 H 0.57887 0.09353 0.70765 0.0
H528 H 0.5503 0.07617 0.71999 0.0
H529 H 0.57792 0.07878 0.82595 0.0
H530 H 0.50509 0.08804 0.82633 0.0
H531 H 0.5083 0.09807 0.79851 0.0
H532 H 0.56311 0.04497 0.78923 0.0
H533 H 0.59508 0.05957 0.8023 0.0
H534 H 0.59522 0.06 0.78064 0.0
H535 H 0.61232 0.13314 0.80601 0.0
H536 H 0.6295 0.12561 0.79111 0.0
H537 H 0.62455 0.10924 0.80975 0.0
H538 H 0.6745 0.10317 0.76231 0.0
C539 C 0.63473 0.10021 0.7642 0.0
C540 C 0.84157 0.552 0.94294 0.0
C541 C 0.86411 0.55281 0.93551 0.0
C542 C 0.86863 0.56148 0.91978 0.0
C543 C 0.82791 0.56692 0.91881 0.0
C544 C 0.82369 0.55896 0.93435 0.0
C545 C 0.7981 0.55827 0.94011 0.0
H546 H 0.68009 0.56299 0.92234 0.0
C547 C 0.80505 0.57157 0.91292 0.0
C548 C 0.78739 0.56644 0.9253 0.0
H549 H 0.71195 0.55257 0.96877 0.0
H550 H 0.75249 0.55743 0.95712 0.0
H551 H 0.73804 0.61591 0.91724 0.0
H552 H 0.70045 0.52918 0.89841 0.0
H553 H 0.71365 0.55047 0.88243 0.0
H554 H 0.68674 0.55134 0.8931 0.0
H555 H 0.71127 0.60097 0.90056 0.0
H556 H 0.74769 0.61555 0.89752 0.0
C557 C 0.80742 0.58048 0.95492 0.0
C558 C 0.7775 0.52792 0.94367 0.0
C559 C 0.80277 0.60077 0.8562 0.0
C560 C 0.7843 0.60645 0.84712 0.0
C561 C 0.76013 0.60287 0.85391 0.0
C562 C 0.75461 0.59403 0.86948 0.0
C563 C 0.77352 0.58884 0.87848 0.0
C564 C 0.79705 0.59214 0.87175 0.0
C565 C 0.81493 0.58584 0.88302 0.0
C566 C 0.79864 0.57886 0.89779 0.0
C567 C 0.77432 0.58049 0.89506 0.0
C568 C 0.84391 0.6128 0.88671 0.0
C569 C 0.81566 0.56016 0.87502 0.0
C570 C 0.69572 0.56196 0.93019 0.0
C571 C 0.69192 0.55664 0.94657 0.0
C572 C 0.71331 0.55552 0.95602 0.0
C573 C 0.73721 0.5587 0.94928 0.0
C574 C 0.74032 0.56357 0.93292 0.0
C575 C 0.72011 0.56585 0.92377 0.0
C576 C 0.7282 0.57375 0.90703 0.0
C577 C 0.75611 0.57482 0.90748 0.0
C578 C 0.76289 0.56836 0.92261 0.0
C579 C 0.73133 0.60295 0.90533 0.0
C580 C 0.70611 0.55012 0.89448 0.0
H581 H 0.85534 0.57482 0.89949 0.0
H582 H 0.83748 0.54534 0.95499 0.0
H583 H 0.77584 0.51261 0.93372 0.0
H584 H 0.75608 0.52383 0.94452 0.0
H585 H 0.7847 0.52301 0.95514 0.0
H586 H 0.82907 0.59809 0.95441 0.0
H587 H 0.80698 0.57119 0.96648 0.0
H588 H 0.79454 0.59059 0.95532 0.0
H589 H 0.82169 0.60359 0.85147 0.0
H590 H 0.74538 0.60678 0.84713 0.0
H591 H 0.73585 0.59163 0.87394 0.0
H592 H 0.84173 0.63176 0.88783 0.0
H593 H 0.85741 0.61514 0.87685 0.0
H594 H 0.85498 0.61356 0.89837 0.0
H595 H 0.79598 0.54587 0.86719 0.0
H596 H 0.81722 0.54684 0.88396 0.0
H597 H 0.83314 0.56678 0.86728 0.0
H598 H 0.88609 0.56277 0.91389 0.0
C599 C 0.85075 0.56855 0.91144 0.0
C600 C 0.442 0.14808 0.95676 0.0
C601 C 0.43853 0.12321 0.94889 0.0
C602 C 0.42759 0.1156 0.93248 0.0
C603 C 0.4254 0.15833 0.93185 0.0
C604 C 0.43528 0.16517 0.94808 0.0
C605 C 0.43796 0.19232 0.95476 0.0
H606 H 0.42789 0.3069 0.94282 0.0
C607 C 0.42154 0.18127 0.92634 0.0
C608 C 0.42871 0.20111 0.93976 0.0
H609 H 0.45189 0.28428 0.98748 0.0
H610 H 0.44521 0.24173 0.97353 0.0
H611 H 0.46305 0.29008 0.92087 0.0
H612 H 0.37671 0.24445 0.92999 0.0
H613 H 0.37827 0.23915 0.90907 0.0
H614 H 0.39071 0.27413 0.9184 0.0
H615 H 0.43755 0.29707 0.91145 0.0
H616 H 0.44417 0.27062 0.90252 0.0
C617 C 0.46908 0.2129 0.96077 0.0
C618 C 0.41758 0.18596 0.96803 0.0
C619 C 0.39093 0.1793 0.86711 0.0
C620 C 0.38726 0.19848 0.8584 0.0
C621 C 0.39209 0.22375 0.86666 0.0
C622 C 0.40027 0.22978 0.88335 0.0
C623 C 0.40384 0.21043 0.89191 0.0
C624 C 0.39938 0.18577 0.88378 0.0
C625 C 0.40505 0.16814 0.89481 0.0
C626 C 0.41337 0.18617 0.91091 0.0
C627 C 0.41248 0.21084 0.90913 0.0
C628 C 0.42953 0.16533 0.8888 0.0
C629 C 0.37762 0.13988 0.89509 0.0
C630 C 0.4318 0.29281 0.94957 0.0
C631 C 0.44025 0.29894 0.96633 0.0
C632 C 0.44488 0.27988 0.97465 0.0
C633 C 0.44117 0.25521 0.96649 0.0
C634 C 0.43281 0.24942 0.94976 0.0
C635 C 0.4282 0.26801 0.94158 0.0
C636 C 0.41944 0.25829 0.9238 0.0
C637 C 0.41931 0.23068 0.92276 0.0
C638 C 0.42727 0.22573 0.93799 0.0
C639 C 0.44198 0.2801 0.91404 0.0
C640 C 0.38981 0.25388 0.91995 0.0
H641 H 0.41316 0.12639 0.91137 0.0
H642 H 0.44986 0.15418 0.96946 0.0
H643 H 0.39899 0.16456 0.96548 0.0
H644 H 0.40884 0.20008 0.9686 0.0
H645 H 0.42784 0.18714 0.98016 0.0
H646 H 0.48297 0.21048 0.95248 0.0
H647 H 0.4744 0.20893 0.97306 0.0
H648 H 0.47489 0.23514 0.96095 0.0
H649 H 0.38767 0.15986 0.86105 0.0
H650 H 0.38913 0.2387 0.86022 0.0
H651 H 0.40346 0.24929 0.88893 0.0
H652 H 0.44547 0.18532 0.88452 0.0
H653 H 0.42208 0.14868 0.87853 0.0
H654 H 0.44097 0.16096 0.89841 0.0
H655 H 0.35927 0.14296 0.89449 0.0
H656 H 0.3767 0.13004 0.90641 0.0
H657 H 0.37453 0.12486 0.88459 0.0
H658 H 0.42474 0.09647 0.9262 0.0
C659 C 0.42106 0.13307 0.92389 0.0
C660 C 0.70166 0.15703 0.94543 0.0
C661 C 0.67956 0.1324 0.93692 0.0
C662 C 0.68206 0.12528 0.92074 0.0
C663 C 0.72767 0.1671 0.92178 0.0
C664 C 0.72539 0.17391 0.93769 0.0
C665 C 0.75067 0.20071 0.94507 0.0
H666 H 0.87707 0.31268 0.93657 0.0
C667 C 0.75481 0.18927 0.9173 0.0
C668 C 0.76843 0.20896 0.93095 0.0
H669 H 0.83231 0.29368 0.97928 0.0
H670 H 0.79488 0.2509 0.96488 0.0
H671 H 0.86437 0.24959 0.92685 0.0
H672 H 0.82577 0.29641 0.91185 0.0
H673 H 0.82441 0.27612 0.8944 0.0
H674 H 0.85787 0.30194 0.90476 0.0
H675 H 0.87988 0.27721 0.9139 0.0
H676 H 0.85574 0.24145 0.90581 0.0
C677 C 0.76447 0.19378 0.95945 0.0
C678 C 0.7413 0.2221 0.94976 0.0
C679 C 0.78207 0.1855 0.85998 0.0
C680 C 0.8058 0.20351 0.8524 0.0
C681 C 0.82742 0.22786 0.86149 0.0
C682 C 0.82564 0.23412 0.87779 0.0
C683 C 0.80191 0.21598 0.88519 0.0
C684 C 0.7806 0.19213 0.87635 0.0
C685 C 0.75695 0.17547 0.88635 0.0
C686 C 0.76763 0.19336 0.90258 0.0
C687 C 0.79397 0.21702 0.90178 0.0
C688 C 0.7542 0.14633 0.88742 0.0
C689 C 0.73042 0.17448 0.87854 0.0
C690 C 0.85941 0.29913 0.9429 0.0
C691 C 0.85769 0.30663 0.9591 0.0
C692 C 0.83402 0.28857 0.96676 0.0
C693 C 0.81234 0.26366 0.95839 0.0
C694 C 0.81423 0.25666 0.94213 0.0
C695 C 0.83757 0.27424 0.93471 0.0
C696 C 0.83595 0.26368 0.91736 0.0
C697 C 0.80781 0.23683 0.91558 0.0
C698 C 0.79515 0.23281 0.9301 0.0
C699 C 0.86028 0.25779 0.91573 0.0
C700 C 0.8362 0.28561 0.90642 0.0
H701 H 0.7065 0.13587 0.90083 0.0
H702 H 0.7004 0.16338 0.95781 0.0
H703 H 0.72481 0.22008 0.9406 0.0
H704 H 0.75825 0.2441 0.95012 0.0
H705 H 0.73261 0.21862 0.96168 0.0
H706 H 0.76248 0.17284 0.95686 0.0
H707 H 0.75447 0.19338 0.97072 0.0
H708 H 0.78716 0.20852 0.9618 0.0
H709 H 0.76514 0.16655 0.85338 0.0
H710 H 0.84567 0.24242 0.85592 0.0
H711 H 0.84281 0.253 0.88394 0.0
H712 H 0.77504 0.14796 0.88793 0.0
H713 H 0.74122 0.13155 0.8767 0.0
H714 H 0.74542 0.13691 0.89857 0.0
H715 H 0.73569 0.19492 0.874 0.0
H716 H 0.71486 0.17085 0.88719 0.0
H717 H 0.72041 0.15806 0.8681 0.0
H718 H 0.66561 0.10624 0.91395 0.0
C719 C 0.70592 0.14246 0.91314 0.0
C720 C 0.53102 0.84228 0.05156 0.0
C721 C 0.53185 0.86591 0.05935 0.0
C722 C 0.54242 0.87424 0.07579 0.0
C723 C 0.55047 0.83496 0.0765 0.0
C724 C 0.54068 0.8274 0.06025 0.0
C725 C 0.54246 0.80265 0.05344 0.0
H726 H 0.57329 0.70079 0.06479 0.0
C727 C 0.55887 0.81494 0.08186 0.0
C728 C 0.55452 0.79622 0.06831 0.0
H729 H 0.54187 0.71731 0.02038 0.0
H730 H 0.54306 0.75733 0.03433 0.0
H731 H 0.61844 0.76444 0.07666 0.0
H732 H 0.53404 0.71107 0.08735 0.0
H733 H 0.55308 0.73062 0.10565 0.0
H734 H 0.5626 0.70738 0.09539 0.0
H735 H 0.60937 0.73751 0.09006 0.0
H736 H 0.61768 0.77251 0.09732 0.0
C737 C 0.56279 0.81223 0.04004 0.0
C738 C 0.51244 0.77866 0.04756 0.0
C739 C 0.59129 0.81924 0.14122 0.0
C740 C 0.60018 0.80309 0.14945 0.0
C741 C 0.60105 0.78099 0.14063 0.0
C742 C 0.59327 0.77503 0.12394 0.0
C743 C 0.58442 0.79126 0.11586 0.0
C744 C 0.58365 0.81304 0.12442 0.0
C745 C 0.57423 0.82831 0.11357 0.0
C746 C 0.56901 0.81168 0.09722 0.0
C747 C 0.57499 0.78999 0.09871 0.0
C748 C 0.59844 0.85897 0.1139 0.0
C749 C 0.54703 0.8255 0.11935 0.0
C750 C 0.56662 0.71302 0.05809 0.0
C751 C 0.55754 0.70588 0.04144 0.0
C752 C 0.54935 0.72257 0.03315 0.0
C753 C 0.54984 0.74571 0.04132 0.0
C754 C 0.55855 0.75233 0.058 0.0
C755 C 0.56695 0.73623 0.06608 0.0
C756 C 0.57555 0.74643 0.08379 0.0
C757 C 0.57092 0.77132 0.08497 0.0
C758 C 0.56084 0.77453 0.06986 0.0
C759 C 0.60681 0.75557 0.0873 0.0
C760 C 0.55554 0.72274 0.09368 0.0
H761 H 0.55923 0.8659 0.09698 0.0
H762 H 0.52354 0.83585 0.03883 0.0
H763 H 0.49741 0.77801 0.05608 0.0
H764 H 0.51024 0.75766 0.04711 0.0
H765 H 0.50547 0.78166 0.03541 0.0
H766 H 0.57898 0.83481 0.04251 0.0
H767 H 0.55152 0.80935 0.02795 0.0
H768 H 0.57481 0.80124 0.03939 0.0
H769 H 0.59065 0.8365 0.14765 0.0
H770 H 0.60742 0.76798 0.14672 0.0
H771 H 0.59436 0.7579 0.118 0.0
H772 H 0.61907 0.86024 0.11562 0.0
H773 H 0.59759 0.87259 0.12397 0.0
H774 H 0.59865 0.868 0.10234 0.0
H775 H 0.53269 0.80363 0.12204 0.0
H776 H 0.5351 0.83002 0.11014 0.0
H777 H 0.55155 0.83961 0.13059 0.0
H778 H 0.54333 0.89256 0.08193 0.0
C779 C 0.55158 0.85875 0.08445 0.0
C780 C 0.2889 0.8559 0.04906 0.0
C781 C 0.31106 0.88159 0.05644 0.0
C782 C 0.31078 0.88944 0.0729 0.0
C783 C 0.26719 0.84614 0.07434 0.0
C784 C 0.26739 0.83861 0.05818 0.0
C785 C 0.24291 0.81028 0.0522 0.0
H786 H 0.12524 0.69346 0.06711 0.0
C787 C 0.24212 0.82309 0.08037 0.0
C788 C 0.22788 0.80204 0.06738 0.0
H789 H 0.16407 0.71161 0.0223 0.0
H790 H 0.2003 0.75683 0.03483 0.0
H791 H 0.18056 0.71613 0.08988 0.0
H792 H 0.13292 0.75453 0.07567 0.0
H793 H 0.14451 0.76589 0.09627 0.0
H794 H 0.12204 0.72893 0.09003 0.0
H795 H 0.14853 0.70812 0.09812 0.0
H796 H 0.18175 0.73663 0.10718 0.0
C797 C 0.25416 0.79066 0.04698 0.0
C798 C 0.22532 0.81417 0.03853 0.0
C799 C 0.22103 0.82919 0.1392 0.0
C800 C 0.19891 0.81078 0.14778 0.0
C801 C 0.17786 0.78503 0.13963 0.0
C802 C 0.17849 0.7778 0.12331 0.0
C803 C 0.20046 0.79638 0.11486 0.0
C804 C 0.2213 0.82161 0.12275 0.0
C805 C 0.24287 0.83858 0.11159 0.0
C806 C 0.23141 0.81932 0.0958 0.0
C807 C 0.20659 0.79464 0.0979 0.0
C808 C 0.27128 0.84256 0.1184 0.0
C809 C 0.24279 0.86632 0.11013 0.0
C810 C 0.14137 0.70732 0.05994 0.0
C811 C 0.14178 0.69893 0.04369 0.0
C812 C 0.16344 0.71745 0.03489 0.0
C813 C 0.18441 0.74376 0.04218 0.0
C814 C 0.18388 0.75171 0.05851 0.0
C815 C 0.16256 0.7336 0.06707 0.0
C816 C 0.16557 0.74531 0.08435 0.0
C817 C 0.19226 0.77343 0.08476 0.0
C818 C 0.20285 0.7771 0.0696 0.0
C819 C 0.1691 0.72558 0.09558 0.0
C820 C 0.13993 0.74874 0.08688 0.0
H821 H 0.29006 0.87907 0.09432 0.0
H822 H 0.28862 0.84897 0.03653 0.0
H823 H 0.22481 0.83384 0.04132 0.0
H824 H 0.20321 0.79735 0.03705 0.0
H825 H 0.23424 0.81549 0.02675 0.0
H826 H 0.2736 0.79602 0.05465 0.0
H827 H 0.25912 0.79245 0.03418 0.0
H828 H 0.23961 0.76844 0.04854 0.0
H829 H 0.2375 0.84917 0.14508 0.0
H830 H 0.16092 0.77017 0.14596 0.0
H831 H 0.16179 0.75788 0.11793 0.0
H832 H 0.26846 0.82312 0.12333 0.0
H833 H 0.28141 0.85985 0.12838 0.0
H834 H 0.28586 0.8467 0.10906 0.0
H835 H 0.22113 0.86261 0.10961 0.0
H836 H 0.25088 0.87583 0.0989 0.0
H837 H 0.2551 0.88184 0.12072 0.0
H838 H 0.32745 0.90924 0.07886 0.0
C839 C 0.289 0.87193 0.08186 0.0
C840 C 0.30196 0.45069 0.06283 0.0
C841 C 0.32485 0.44915 0.06989 0.0
C842 C 0.32555 0.44498 0.08654 0.0
C843 C 0.28108 0.44268 0.0884 0.0
C844 C 0.2807 0.44785 0.07233 0.0
C845 C 0.25596 0.45082 0.06702 0.0
H846 H 0.13935 0.4522 0.08611 0.0
C847 C 0.25596 0.44071 0.09488 0.0
C848 C 0.24134 0.44594 0.08245 0.0
H849 H 0.17587 0.46839 0.04056 0.0
H850 H 0.21201 0.45964 0.05122 0.0
H851 H 0.14519 0.39941 0.09093 0.0
H852 H 0.19627 0.48614 0.10916 0.0
H853 H 0.19491 0.46649 0.12531 0.0
H854 H 0.16306 0.46323 0.11614 0.0
H855 H 0.13654 0.41455 0.10773 0.0
H856 H 0.15856 0.39941 0.11057 0.0
C857 C 0.23795 0.42756 0.05314 0.0
C858 C 0.26701 0.48104 0.06234 0.0
C859 C 0.23243 0.41125 0.15173 0.0
C860 C 0.2097 0.40654 0.16049 0.0
C861 C 0.18946 0.41223 0.15362 0.0
C862 C 0.19122 0.42158 0.13821 0.0
C863 C 0.21351 0.42542 0.12942 0.0
C864 C 0.23383 0.42057 0.13621 0.0
C865 C 0.2561 0.42616 0.12497 0.0
C866 C 0.24517 0.43421 0.11018 0.0
C867 C 0.22028 0.43379 0.11295 0.0
C868 C 0.25643 0.3986 0.12117 0.0
C869 C 0.28421 0.4509 0.13309 0.0
C870 C 0.15528 0.45415 0.07847 0.0
C871 C 0.15489 0.46127 0.06253 0.0
C872 C 0.17564 0.46285 0.05287 0.0
C873 C 0.19673 0.45796 0.05913 0.0
C874 C 0.19708 0.45136 0.07522 0.0
C875 C 0.17637 0.44928 0.08451 0.0
C876 C 0.17946 0.44136 0.10117 0.0
C877 C 0.20593 0.43986 0.10059 0.0
C878 C 0.21625 0.44574 0.08538 0.0
C879 C 0.15362 0.41231 0.10286 0.0
C880 C 0.18345 0.46533 0.11371 0.0
H881 H 0.30567 0.43825 0.10822 0.0
H882 H 0.30036 0.4539 0.05018 0.0
H883 H 0.28633 0.49626 0.07018 0.0
H884 H 0.25228 0.48866 0.06413 0.0
H885 H 0.2721 0.48264 0.04956 0.0
H886 H 0.23664 0.40742 0.05569 0.0
H887 H 0.24708 0.43323 0.04143 0.0
H888 H 0.21613 0.42291 0.05165 0.0
H889 H 0.24837 0.40714 0.15665 0.0
H890 H 0.17212 0.40948 0.16021 0.0
H891 H 0.17499 0.42531 0.13373 0.0
H892 H 0.2348 0.38066 0.11819 0.0
H893 H 0.26604 0.39396 0.13178 0.0
H894 H 0.2677 0.39891 0.1106 0.0
H895 H 0.28088 0.46493 0.1417 0.0
H896 H 0.29719 0.46474 0.12422 0.0
H897 H 0.29638 0.44326 0.14002 0.0
H898 H 0.34314 0.44478 0.0927 0.0
C899 C 0.30382 0.44151 0.09571 0.0
C900 C 0.50812 0.87559 0.27637 0.0
C901 C 0.5326 0.87926 0.27006 0.0
C902 C 0.53966 0.89118 0.25529 0.0
C903 C 0.49784 0.89462 0.25299 0.0
C904 C 0.49094 0.88319 0.26756 0.0
C905 C 0.46337 0.87949 0.27191 0.0
H906 H 0.34925 0.891 0.2523 0.0
C907 C 0.47532 0.89932 0.24654 0.0
C908 C 0.45489 0.89035 0.25748 0.0
H909 H 0.36803 0.85992 0.29504 0.0
H910 H 0.41149 0.86853 0.28546 0.0
H911 H 0.4123 0.94382 0.25152 0.0
H912 H 0.36981 0.86012 0.22682 0.0
H913 H 0.38907 0.88362 0.21295 0.0
H914 H 0.36124 0.88618 0.22158 0.0
H915 H 0.3838 0.93213 0.23603 0.0
H916 H 0.41914 0.94589 0.23105 0.0
C917 C 0.46885 0.89815 0.2879 0.0
C918 C 0.44305 0.84781 0.27279 0.0
C919 C 0.48449 0.94288 0.19358 0.0
C920 C 0.46725 0.94945 0.18404 0.0
C921 C 0.44092 0.94276 0.18897 0.0
C922 C 0.43229 0.93035 0.20345 0.0
C923 C 0.45009 0.92436 0.21302 0.0
C924 C 0.47554 0.93035 0.20786 0.0
C925 C 0.49147 0.92182 0.2191 0.0
C926 C 0.47178 0.9103 0.23215 0.0
C927 C 0.44759 0.91188 0.22863 0.0
C928 C 0.5193 0.94854 0.22573 0.0
C929 C 0.49488 0.89874 0.2097 0.0
C930 C 0.36262 0.88585 0.25953 0.0
C931 C 0.35513 0.87483 0.2745 0.0
C932 C 0.3734 0.86879 0.2836 0.0
C933 C 0.39861 0.87365 0.27796 0.0
C934 C 0.40582 0.88471 0.26302 0.0
C935 C 0.38798 0.89067 0.25408 0.0
C936 C 0.39928 0.90261 0.23855 0.0
C937 C 0.42676 0.90275 0.23966 0.0
C938 C 0.43046 0.89217 0.25403 0.0
C939 C 0.40378 0.93264 0.23915 0.0
C940 C 0.37883 0.88231 0.22414 0.0
H941 H 0.52916 0.9078 0.23561 0.0
H942 H 0.50207 0.86625 0.28764 0.0
H943 H 0.44634 0.83494 0.26331 0.0
H944 H 0.42091 0.84178 0.27041 0.0
H945 H 0.44628 0.84133 0.28476 0.0
H946 H 0.48896 0.91825 0.28828 0.0
H947 H 0.47004 0.8875 0.2986 0.0
H948 H 0.45297 0.90438 0.28924 0.0
H949 H 0.50458 0.94723 0.18993 0.0
H950 H 0.42727 0.94762 0.18179 0.0
H951 H 0.41218 0.92601 0.20668 0.0
H952 H 0.51609 0.96671 0.22809 0.0
H953 H 0.53512 0.95421 0.2169 0.0
H954 H 0.52817 0.94654 0.23749 0.0
H955 H 0.4776 0.88668 0.19988 0.0
H956 H 0.49385 0.88269 0.21744 0.0
H957 H 0.51477 0.90796 0.20397 0.0
H958 H 0.55856 0.89447 0.2503 0.0
C959 C 0.52253 0.89893 0.24678 0.0
C960 C 0.11317 0.47425 0.28708 0.0
C961 C 0.10654 0.44833 0.27899 0.0
C962 C 0.09278 0.44071 0.26316 0.0
C963 C 0.09402 0.48532 0.26352 0.0
C964 C 0.10684 0.49229 0.27919 0.0
C965 C 0.11347 0.52088 0.2861 0.0
H966 H 0.11615 0.64244 0.27599 0.0
C967 C 0.09126 0.5093 0.25877 0.0
C968 C 0.10256 0.53009 0.27201 0.0
H969 H 0.14651 0.61997 0.31841 0.0
H970 H 0.13075 0.57401 0.30494 0.0
H971 H 0.13796 0.61472 0.24998 0.0
H972 H 0.05885 0.58536 0.26911 0.0
H973 H 0.05105 0.57112 0.24878 0.0
H974 H 0.06946 0.60875 0.25354 0.0
H975 H 0.11521 0.62821 0.24527 0.0
H976 H 0.11198 0.59806 0.23359 0.0
C977 C 0.14562 0.5393 0.28985 0.0
C978 C 0.09682 0.51745 0.30099 0.0
C979 C 0.05087 0.50781 0.20176 0.0
C980 C 0.04582 0.52724 0.19423 0.0
C981 C 0.05199 0.55238 0.20326 0.0
C982 C 0.06334 0.55836 0.21943 0.0
C983 C 0.06869 0.53903 0.22674 0.0
C984 C 0.0621 0.51405 0.21805 0.0
C985 C 0.06854 0.49578 0.22812 0.0
C986 C 0.08049 0.51421 0.24415 0.0
C987 C 0.08073 0.5396 0.24315 0.0
C988 C 0.09057 0.49112 0.22009 0.0
C989 C 0.04082 0.46847 0.22973 0.0
C990 C 0.11913 0.62751 0.28244 0.0
C991 C 0.13274 0.63493 0.29826 0.0
C992 C 0.13648 0.61495 0.30613 0.0
C993 C 0.12718 0.5882 0.29831 0.0
C994 C 0.11408 0.58129 0.28239 0.0
C995 C 0.11005 0.60073 0.27478 0.0
C996 C 0.09584 0.58977 0.25786 0.0
C997 C 0.09224 0.5606 0.25651 0.0
C998 C 0.10301 0.55582 0.27088 0.0
C999 C 0.11604 0.60863 0.24595 0.0
C1000 C 0.06739 0.5888 0.25712 0.0
H1001 H 0.0764 0.45236 0.24323 0.0
H1002 H 0.12326 0.48052 0.29937 0.0
H1003 H 0.07604 0.49793 0.29905 0.0
H1004 H 0.09211 0.53448 0.30328 0.0
H1005 H 0.10809 0.51617 0.3121 0.0
H1006 H 0.15656 0.5336 0.28088 0.0
H1007 H 0.15259 0.53656 0.30207 0.0
H1008 H 0.15344 0.56181 0.28897 0.0
H1009 H 0.04604 0.48818 0.19516 0.0
H1010 H 0.04859 0.56781 0.19769 0.0
H1011 H 0.06779 0.57797 0.22555 0.0
H1012 H 0.10672 0.51087 0.21569 0.0
H1013 H 0.08074 0.47495 0.20951 0.0
H1014 H 0.10215 0.48497 0.22853 0.0
H1015 H 0.0233 0.47273 0.23046 0.0
H1016 H 0.04133 0.45888 0.24094 0.0
H1017 H 0.0353 0.45283 0.21911 0.0
H1018 H 0.08748 0.42083 0.25668 0.0
C1019 C 0.08652 0.4591 0.25536 0.0
C1020 C 0.37585 0.48245 0.28342 0.0
C1021 C 0.35219 0.45963 0.27445 0.0
C1022 C 0.3519 0.45694 0.25736 0.0
C1023 C 0.39786 0.49827 0.25867 0.0
C1024 C 0.39805 0.50162 0.27531 0.0
C1025 C 0.42362 0.52811 0.28289 0.0
H1026 H 0.5458 0.64548 0.27324 0.0
C1027 C 0.42387 0.52186 0.25395 0.0
C1028 C 0.43891 0.5397 0.26809 0.0
H1029 H 0.50706 0.62075 0.31767 0.0
H1030 H 0.46888 0.57834 0.3031 0.0
H1031 H 0.53269 0.58298 0.25945 0.0
H1032 H 0.49309 0.63175 0.25206 0.0
H1033 H 0.48768 0.61256 0.23331 0.0
H1034 H 0.52285 0.63743 0.2419 0.0
H1035 H 0.54692 0.61331 0.2484 0.0
H1036 H 0.52263 0.57882 0.23857 0.0
C1037 C 0.44024 0.51992 0.29477 0.0
C1038 C 0.41406 0.54753 0.2909 0.0
C1039 C 0.44674 0.52444 0.19511 0.0
C1040 C 0.46891 0.54446 0.1873 0.0
C1041 C 0.48996 0.56907 0.19637 0.0
C1042 C 0.48926 0.57368 0.21303 0.0
C1043 C 0.4671 0.55357 0.22077 0.0
C1044 C 0.44609 0.5296 0.21183 0.0
C1045 C 0.42344 0.51151 0.22209 0.0
C1046 C 0.43493 0.52816 0.23871 0.0
C1047 C 0.46057 0.55262 0.2378 0.0
C1048 C 0.42168 0.48266 0.22177 0.0
C1049 C 0.39593 0.51006 0.21562 0.0
C1050 C 0.52932 0.63076 0.2799 0.0
C1051 C 0.52954 0.63641 0.29664 0.0
C1052 C 0.50729 0.61695 0.30475 0.0
C1053 C 0.48516 0.59235 0.29627 0.0
C1054 C 0.4851 0.58724 0.27945 0.0
C1055 C 0.50703 0.60633 0.27161 0.0
C1056 C 0.50341 0.59804 0.25371 0.0
C1057 C 0.4756 0.57087 0.25201 0.0
C1058 C 0.46493 0.56448 0.2671 0.0
C1059 C 0.52768 0.59316 0.24966 0.0
C1060 C 0.50185 0.62109 0.24466 0.0
H1061 H 0.37296 0.47242 0.23655 0.0
H1062 H 0.3773 0.48553 0.29651 0.0
H1063 H 0.39502 0.54495 0.28399 0.0
H1064 H 0.42964 0.57002 0.29102 0.0
H1065 H 0.40905 0.54271 0.3035 0.0
H1066 H 0.44096 0.50143 0.28935 0.0
H1067 H 0.43035 0.51436 0.30627 0.0
H1068 H 0.46223 0.53662 0.29763 0.0
H1069 H 0.43011 0.50552 0.18832 0.0
H1070 H 0.50724 0.58467 0.19055 0.0
H1071 H 0.50606 0.59278 0.21922 0.0
H1072 H 0.44291 0.48541 0.22384 0.0
H1073 H 0.41195 0.47024 0.20983 0.0
H1074 H 0.40978 0.47011 0.23133 0.0
H1075 H 0.40006 0.52851 0.20904 0.0
H1076 H 0.3836 0.51064 0.2255 0.0
H1077 H 0.38278 0.49096 0.20709 0.0
H1078 H 0.3339 0.44049 0.24987 0.0
C1079 C 0.37458 0.47584 0.24951 0.0
C1080 C 0.54116 0.03546 0.05261 0.0
Eu1081 Eu 0.52223 0.02557 0.02209 0.0
C1082 C 0.52888 0.024 0.0676 0.0
C1083 C 0.50099 0.01584 0.06966 0.0
C1084 C 0.48943 0.00439 0.08379 0.0
C1085 C 0.50552 0.00087 0.09614 0.0
C1086 C 0.5334 0.00892 0.09394 0.0
C1087 C 0.54494 0.02036 0.0798 0.0
C1088 C 0.50523 0.05561 0.00537 0.0
C1089 C 0.45532 0.97793 0.01916 0.0
C1090 C 0.47072 0.98693 0.95807 0.0
Eu1091 Eu 0.48968 0.99713 0.98866 0.0
C1092 C 0.48205 0.99777 0.94271 0.0
C1093 C 0.47344 0.9792 0.92858 0.0
C1094 C 0.4842 0.98882 0.91394 0.0
C1095 C 0.50387 0.01729 0.91311 0.0
C1096 C 0.51252 0.03588 0.92735 0.0
C1097 C 0.50176 0.02621 0.94201 0.0
C1098 C 0.50735 0.9676 0.00551 0.0
C1099 C 0.55711 0.04371 0.99197 0.0
O1100 O 0.54388 0.01829 0.04236 0.0
O1101 O 0.53198 0.05019 0.04544 0.0
O1102 O 0.52868 0.06675 0.01454 0.0
O1103 O 0.49113 0.02949 0.00617 0.0
O1104 O 0.47998 0.99115 0.02778 0.0
O1105 O 0.45261 0.97965 0.00337 0.0
O1106 O 0.46774 0.00388 0.96838 0.0
O1107 O 0.48073 0.97285 0.96516 0.0
O1108 O 0.48371 0.95602 0.99647 0.0
O1109 O 0.52091 0.99361 0.00445 0.0
O1110 O 0.53263 0.03129 0.98308 0.0
O1111 O 0.55917 0.04161 0.0077 0.0
H1112 H 0.4881 0.01827 0.06035 0.0
H1113 H 0.46798 0.99862 0.08511 0.0
H1114 H 0.54625 0.00603 0.10305 0.0
H1115 H 0.56639 0.02623 0.07836 0.0
H1116 H 0.45829 0.95719 0.92885 0.0
H1117 H 0.47672 0.97398 0.90319 0.0
H1118 H 0.52783 0.05786 0.9272 0.0
H1119 H 0.50888 0.04095 0.95279 0.0
C1120 C 0.00314 0.53083 0.04938 0.0
Eu1121 Eu 0.99752 0.50993 0.01954 0.0
C1122 C 0.00894 0.52493 0.06586 0.0
C1123 C 0.98706 0.5121 0.07571 0.0
C1124 C 0.99228 0.50749 0.09156 0.0
C1125 C 0.01959 0.51593 0.09801 0.0
C1126 C 0.04144 0.52832 0.08805 0.0
C1127 C 0.03619 0.53279 0.07214 0.0
C1128 C 0.95803 0.45736 0.00741 0.0
C1129 C 0.037 0.48163 0.01582 0.0
C1130 C 1.00087 0.47155 0.95653 0.0
Eu1131 Eu 0.00599 0.49202 0.98637 0.0
C1132 C 0.99344 0.47666 0.94024 0.0
C1133 C 0.01328 0.48531 0.92894 0.0
C1134 C 0.00659 0.48951 0.91328 0.0
C1135 C 0.9798 0.48485 0.90858 0.0
C1136 C 0.96004 0.47663 0.91996 0.0
C1137 C 0.96682 0.47268 0.93569 0.0
C1138 C 0.04526 0.54467 0.99874 0.0
C1139 C 0.96662 0.5202 0.98971 0.0
O1140 O 0.0235 0.54022 0.04001 0.0
O1141 O 0.97905 0.51259 0.04152 0.0
O1142 O 0.9529 0.47411 0.01618 0.0
O1143 O 0.98383 0.46825 0.00629 0.0
O1144 O 0.03117 0.49835 0.02478 0.0
O1145 O 0.02556 0.47214 1.00078 0.0
O1146 O 0.98101 0.46066 0.96616 0.0
O1147 O 0.02457 0.49129 0.96407 0.0
O1148 O 0.05072 0.52794 0.9902 0.0
O1149 O 0.0194 0.53361 0.99959 0.0
O1150 O 0.97231 0.5032 0.98098 0.0
O1151 O 0.97794 0.52982 0.00481 0.0
H1152 H 0.96586 0.50587 0.07123 0.0
H1153 H 0.9749 0.49752 0.09881 0.0
H1154 H 0.06278 0.53541 0.09269 0.0
H1155 H 0.05357 0.54285 0.0649 0.0
H1156 H 0.0339 0.48845 0.93216 0.0
H1157 H 0.02208 0.49547 0.90468 0.0
H1158 H 0.93928 0.47305 0.91664 0.0
H1159 H 0.95112 0.46619 0.94417 0.0
C1160 C 0.46875 0.4857 0.95562 0.0
Eu1161 Eu 0.49082 0.50262 0.98546 0.0
C1162 C 0.47776 0.49072 0.9391 0.0
C1163 C 0.46637 0.50222 0.92859 0.0
C1164 C 0.47311 0.50535 0.91257 0.0
C1165 C 0.49122 0.49678 0.90664 0.0
C1166 C 0.50325 0.486 0.91734 0.0
C1167 C 0.49663 0.48303 0.93339 0.0
C1168 C 0.51658 0.55422 0.00247 0.0
C1169 C 0.55589 0.51741 0.99284 0.0
C1170 C 0.53884 0.52136 0.05346 0.0
Eu1171 Eu 0.51762 0.50466 0.02347 0.0
C1172 C 0.52739 0.5197 0.06922 0.0
C1173 C 0.53949 0.51407 0.0827 0.0
C1174 C 0.52875 0.51209 0.09771 0.0
C1175 C 0.50578 0.51588 0.09954 0.0
C1176 C 0.49356 0.52134 0.08596 0.0
C1177 C 0.50416 0.52308 0.07092 0.0
C1178 C 0.49181 0.4531 0.00631 0.0
C1179 C 0.45258 0.48908 0.01627 0.0
O1180 O 0.47776 0.47226 0.96435 0.0
O1181 O 0.46839 0.50628 0.96413 0.0
O1182 O 0.50596 0.54978 0.98747 0.0
O1183 O 0.51341 0.53154 0.00672 0.0
O1184 O 0.53464 0.51173 0.98202 0.0
O1185 O 0.55468 0.51739 0.00884 0.0
O1186 O 0.53593 0.53756 0.04356 0.0
O1187 O 0.53411 0.49757 0.04608 0.0
O1188 O 0.50311 0.45757 0.02115 0.0
O1189 O 0.49455 0.47572 0.00228 0.0
O1190 O 0.47428 0.49624 0.02702 0.0
O1191 O 0.45342 0.48824 1.00022 0.0
H1192 H 0.45183 0.50836 0.93268 0.0
H1193 H 0.46379 0.51413 0.90477 0.0
H1194 H 0.51698 0.47885 0.91317 0.0
H1195 H 0.50583 0.4741 0.94117 0.0
H1196 H 0.55732 0.51127 0.08163 0.0
H1197 H 0.5388 0.50817 0.10798 0.0
H1198 H 0.47568 0.52408 0.08696 0.0
H1199 H 0.49421 0.52708 0.06063 0.0
C1200 C 0.20173 0.36092 0.38556 0.0
Eu1201 Eu 0.18521 0.34929 0.35468 0.0
C1202 C 0.19032 0.34843 0.40048 0.0
C1203 C 0.19646 0.36599 0.41481 0.0
C1204 C 0.18481 0.35479 0.42894 0.0
C1205 C 0.16674 0.32576 0.42902 0.0
C1206 C 0.1608 0.30813 0.41464 0.0
C1207 C 0.17244 0.31938 0.40047 0.0
C1208 C 0.16964 0.37813 0.33581 0.0
C1209 C 0.11918 0.29957 0.34949 0.0
C1210 C 0.13972 0.30696 0.28991 0.0
Eu1211 Eu 0.15771 0.31986 0.32064 0.0
C1212 C 0.14865 0.31731 0.27413 0.0
C1213 C 0.13734 0.29839 0.26012 0.0
C1214 C 0.1442 0.30772 0.24487 0.0
C1215 C 0.1625 0.33627 0.2433 0.0
C1216 C 0.17455 0.35511 0.25745 0.0
C1217 C 0.16765 0.34571 0.27276 0.0
C1218 C 0.1742 0.29171 0.33967 0.0
C1219 C 0.22383 0.3699 0.32595 0.0
O1220 O 0.20892 0.34676 0.37569 0.0
O1221 O 0.18853 0.37164 0.37796 0.0
O1222 O 0.19162 0.38986 0.34624 0.0
O1223 O 0.15577 0.352 0.33661 0.0
O1224 O 0.14261 0.31358 0.35926 0.0
O1225 O 0.1188 0.30125 0.33367 0.0
O1226 O 0.13382 0.32229 0.29972 0.0
O1227 O 0.15351 0.29675 0.29741 0.0
O1228 O 0.15173 0.27945 0.3296 0.0
O1229 O 0.18749 0.31769 0.33853 0.0
O1230 O 0.20077 0.35486 0.31594 0.0
O1231 O 0.22408 0.3692 0.34184 0.0
H1232 H 0.21015 0.38844 0.41503 0.0
H1233 H 0.19011 0.36888 0.43987 0.0
H1234 H 0.14677 0.28572 0.41426 0.0
H1235 H 0.16724 0.30545 0.38948 0.0
H1236 H 0.12283 0.27637 0.26096 0.0
H1237 H 0.13493 0.29257 0.23427 0.0
H1238 H 0.18857 0.37724 0.25666 0.0
H1239 H 0.17672 0.36064 0.28347 0.0
C1240 C 0.68032 0.86604 0.38263 0.0
Eu1241 Eu 0.67151 0.84207 0.35324 0.0
C1242 C 0.68752 0.86161 0.39923 0.0
C1243 C 0.66742 0.84065 0.4077 0.0
C1244 C 0.67415 0.83758 0.42364 0.0
C1245 C 0.70109 0.85537 0.43147 0.0
C1246 C 0.7213 0.87601 0.42291 0.0
C1247 C 0.71454 0.87918 0.40699 0.0
C1248 C 0.63222 0.78836 0.343 0.0
C1249 C 0.71197 0.81517 0.34892 0.0
C1250 C 0.66871 0.79607 0.2907 0.0
Eu1251 Eu 0.67711 0.82144 0.31967 0.0
C1252 C 0.66161 0.79857 0.27385 0.0
C1253 C 0.65495 0.819 0.26981 0.0
C1254 C 0.64988 0.8219 0.25351 0.0
C1255 C 0.65168 0.80457 0.2411 0.0
C1256 C 0.65777 0.78379 0.24532 0.0
C1257 C 0.6627 0.78085 0.26155 0.0
C1258 C 0.71658 0.87513 0.33013 0.0
C1259 C 0.63754 0.84935 0.32359 0.0
O1260 O 0.69973 0.87368 0.37267 0.0
O1261 O 0.65549 0.84789 0.37556 0.0
O1262 O 0.62754 0.80524 0.35198 0.0
O1263 O 0.65773 0.79974 0.34084 0.0
O1264 O 0.70568 0.83121 0.35809 0.0
O1265 O 0.70015 0.80487 0.33403 0.0
O1266 O 0.64913 0.78916 0.30049 0.0
O1267 O 0.6932 0.81572 0.29737 0.0
O1268 O 0.72121 0.85837 0.32099 0.0
O1269 O 0.69104 0.8637 0.33214 0.0
O1270 O 0.64323 0.83243 0.31477 0.0
O1271 O 0.64965 0.8598 0.33849 0.0
H1272 H 0.64637 0.82677 0.40211 0.0
H1273 H 0.6582 0.82136 0.42989 0.0
H1274 H 0.74213 0.8903 0.42869 0.0
H1275 H 0.73038 0.89568 0.40083 0.0
H1276 H 0.65414 0.83293 0.27923 0.0
H1277 H 0.6453 0.83813 0.25061 0.0
H1278 H 0.65878 0.76977 0.23605 0.0
H1279 H 0.66775 0.76494 0.26449 0.0
C1280 C 0.13719 0.80759 0.28745 0.0
Eu1281 Eu 0.15661 0.82619 0.31769 0.0
C1282 C 0.14631 0.81298 0.27095 0.0
C1283 C 0.13358 0.82299 0.26026 0.0
C1284 C 0.13994 0.82593 0.24419 0.0
C1285 C 0.15899 0.81863 0.23832 0.0
C1286 C 0.17251 0.80954 0.2492 0.0
C1287 C 0.16623 0.80673 0.26534 0.0
C1288 C 0.17374 0.87781 0.3321 0.0
C1289 C 0.22447 0.84961 0.32243 0.0
C1290 C 0.20589 0.85286 0.38219 0.0
Eu1291 Eu 0.18685 0.83804 0.35168 0.0
C1292 C 0.1952 0.85596 0.39753 0.0
C1293 C 0.20438 0.84925 0.41175 0.0
C1294 C 0.19417 0.85145 0.42643 0.0
C1295 C 0.17465 0.86053 0.42716 0.0
C1296 C 0.16538 0.86716 0.41285 0.0
C1297 C 0.17546 0.86474 0.39813 0.0
C1298 C 0.16901 0.78662 0.33631 0.0
C1299 C 0.12047 0.8168 0.34758 0.0
O1300 O 0.14811 0.79645 0.29674 0.0
O1301 O 0.13405 0.8268 0.29545 0.0
O1302 O 0.15194 0.86431 0.32165 0.0
O1303 O 0.18728 0.86512 0.33306 0.0
O1304 O 0.20089 0.83737 0.31266 0.0
O1305 O 0.22488 0.85503 0.33818 0.0
O1306 O 0.20921 0.87079 0.37169 0.0
O1307 O 0.19505 0.82721 0.37539 0.0
O1308 O 0.1927 0.80102 0.34518 0.0
O1309 O 0.1556 0.79943 0.33645 0.0
O1310 O 0.14469 0.83259 0.35639 0.0
O1311 O 0.11927 0.80756 0.33229 0.0
H1312 H 0.11818 0.82799 0.26424 0.0
H1313 H 0.12951 0.83349 0.23626 0.0
H1314 H 0.1871 0.8035 0.24509 0.0
H1315 H 0.17647 0.79897 0.27326 0.0
H1316 H 0.21949 0.84231 0.4115 0.0
H1317 H 0.20194 0.84651 0.43728 0.0
H1318 H 0.15015 0.87395 0.41303 0.0
H1319 H 0.16775 0.86963 0.38726 0.0
C1320 C 0.86482 0.68844 0.71561 0.0
Eu1321 Eu 0.84673 0.67753 0.6849 0.0
C1322 C 0.85434 0.67545 0.73061 0.0
C1323 C 0.85997 0.69257 0.74509 0.0
C1324 C 0.85022 0.68069 0.75945 0.0
C1325 C 0.8347 0.65138 0.75963 0.0
C1326 C 0.82895 0.63426 0.74505 0.0
C1327 C 0.83857 0.64617 0.73066 0.0
C1328 C 0.83241 0.7078 0.6663 0.0
C1329 C 0.77932 0.63257 0.68088 0.0
C1330 C 0.79884 0.6375 0.62037 0.0
Eu1331 Eu 0.81577 0.64816 0.65124 0.0
C1332 C 0.81174 0.64938 0.60559 0.0
C1333 C 0.80399 0.63196 0.59103 0.0
C1334 C 0.81671 0.64266 0.57703 0.0
C1335 C 0.8376 0.67102 0.57731 0.0
C1336 C 0.84533 0.68841 0.59199 0.0
C1337 C 0.83251 0.6777 0.60597 0.0
C1338 C 0.82888 0.61723 0.66984 0.0
C1339 C 0.88345 0.69346 0.6554 0.0
O1340 O 0.87142 0.67453 0.70518 0.0
O1341 O 0.85142 0.69954 0.70864 0.0
O1342 O 0.85524 0.71894 0.67607 0.0
O1343 O 0.81776 0.68196 0.6676 0.0
O1344 O 0.80321 0.64495 0.69026 0.0
O1345 O 0.77792 0.63314 0.66497 0.0
O1346 O 0.79408 0.65362 0.63029 0.0
O1347 O 0.80916 0.62411 0.62797 0.0
O1348 O 0.80635 0.60667 0.65987 0.0
O1349 O 0.84426 0.6431 0.66868 0.0
O1350 O 0.85947 0.68071 0.64607 0.0
O1351 O 0.88458 0.69279 0.67129 0.0
H1352 H 0.87205 0.7152 0.74529 0.0
H1353 H 0.85527 0.69445 0.77049 0.0
H1354 H 0.81679 0.61164 0.74474 0.0
H1355 H 0.83369 0.6325 0.7196 0.0
H1356 H 0.78805 0.61004 0.59049 0.0
H1357 H 0.80981 0.62874 0.56591 0.0
H1358 H 0.8615 0.71025 0.59274 0.0
H1359 H 0.83895 0.69153 0.61711 0.0
C1360 C 0.31468 0.1797 0.71422 0.0
Eu1361 Eu 0.32099 0.16403 0.68533 0.0
C1362 C 0.32712 0.184 0.731 0.0
C1363 C 0.30975 0.177 0.74359 0.0
C1364 C 0.32091 0.18084 0.75965 0.0
C1365 C 0.34972 0.19194 0.76342 0.0
C1366 C 0.36712 0.19886 0.75077 0.0
C1367 C 0.35587 0.19471 0.73466 0.0
C1368 C 0.28813 0.11369 0.6683 0.0
C1369 C 0.36719 0.14379 0.68655 0.0
C1370 C 0.34698 0.13612 0.62515 0.0
Eu1371 Eu 0.34285 0.15427 0.65394 0.0
C1372 C 0.34401 0.14121 0.60823 0.0
C1373 C 0.34795 0.12535 0.59601 0.0
C1374 C 0.345 0.12953 0.57978 0.0
C1375 C 0.33809 0.14973 0.57547 0.0
C1376 C 0.33418 0.16567 0.58781 0.0
C1377 C 0.33717 0.16145 0.60409 0.0
C1378 C 0.37549 0.2052 0.67044 0.0
C1379 C 0.29817 0.17691 0.6526 0.0
O1380 O 0.33005 0.19731 0.70419 0.0
O1381 O 0.30069 0.15373 0.70764 0.0
O1382 O 0.2786 0.12763 0.67614 0.0
O1383 O 0.31443 0.1261 0.6705 0.0
O1384 O 0.35614 0.15679 0.69442 0.0
O1385 O 0.3618 0.13668 0.67076 0.0
O1386 O 0.32402 0.12446 0.63236 0.0
O1387 O 0.36814 0.15643 0.63439 0.0
O1388 O 0.3851 0.19259 0.66146 0.0
O1389 O 0.34923 0.19209 0.6687 0.0
O1390 O 0.31214 0.16727 0.64463 0.0
O1391 O 0.29946 0.17952 0.6686 0.0
H1392 H 0.28751 0.16863 0.74098 0.0
H1393 H 0.30707 0.17558 0.76917 0.0
H1394 H 0.38935 0.20721 0.75333 0.0
H1395 H 0.36961 0.19984 0.72511 0.0
H1396 H 0.35312 0.10956 0.59903 0.0
H1397 H 0.34761 0.11652 0.57058 0.0
H1398 H 0.329 0.18148 0.58488 0.0
H1399 H 0.3341 0.1739 0.61344 0.0
C1400 C 0.79851 0.13665 0.62163 0.0
Eu1401 Eu 0.817 0.15989 0.65131 0.0
C1402 C 0.81052 0.13957 0.6059 0.0
C1403 C 0.79807 0.14507 0.5925 0.0
C1404 C 0.80909 0.14812 0.57752 0.0
C1405 C 0.83275 0.14556 0.57558 0.0
C1406 C 0.84529 0.14014 0.58903 0.0
C1407 C 0.83435 0.13726 0.60405 0.0
C1408 C 0.8285 0.21189 0.66226 0.0
C1409 C 0.88562 0.19292 0.65431 0.0
C1410 C 0.87093 0.20726 0.71366 0.0
Eu1411 Eu 0.85076 0.18274 0.68441 0.0
C1412 C 0.86254 0.20299 0.73034 0.0
C1413 C 0.87425 0.19191 0.74098 0.0
C1414 C 0.86772 0.18911 0.75701 0.0
C1415 C 0.84957 0.19766 0.76287 0.0
C1416 C 0.8374 0.20822 0.75213 0.0
C1417 C 0.84382 0.21088 0.73604 0.0
C1418 C 0.83988 0.13096 0.67344 0.0
C1419 C 0.78207 0.14894 0.68195 0.0
O1420 O 0.80669 0.12571 0.63274 0.0
O1421 O 0.79653 0.15794 0.62761 0.0
O1422 O 0.80509 0.19349 0.6541 0.0
O1423 O 0.84506 0.20264 0.66351 0.0
O1424 O 0.86179 0.17389 0.64603 0.0
O1425 O 0.88624 0.20355 0.66909 0.0
O1426 O 0.85716 0.21456 0.70362 0.0
O1427 O 0.87669 0.18912 0.70672 0.0
O1428 O 0.8629 0.14936 0.68192 0.0
O1429 O 0.82306 0.13992 0.67215 0.0
O1430 O 0.80618 0.16685 0.69038 0.0
O1431 O 0.78075 0.14003 0.66657 0.0
H1432 H 0.77969 0.14692 0.59361 0.0
H1433 H 0.79872 0.15191 0.56736 0.0
H1434 H 0.86367 0.13829 0.58797 0.0
H1435 H 0.84457 0.13323 0.61419 0.0
H1436 H 0.88879 0.18571 0.73697 0.0
H1437 H 0.87715 0.1805 0.76488 0.0
H1438 H 0.82362 0.21534 0.75627 0.0
H1439 H 0.83452 0.21964 0.7282 0.0
H1440 H 0.36633 0.90856 0.06676 0.0
H1441 H 0.3092 0.89454 0.02513 0.0
H1442 H 0.34848 0.92271 0.00969 0.0
H1443 H 0.39948 0.95153 0.00806 0.0
H1444 H 0.45572 0.96448 0.0501 0.0
H1445 H 0.41654 0.93702 0.06525 0.0
C1446 C 0.36242 0.91195 0.05438 0.0
C1447 C 0.33484 0.89954 0.04717 0.0
C1448 C 0.38505 0.92807 0.04558 0.0
C1449 C 0.33024 0.90368 0.03097 0.0
C1450 C 0.3527 0.91987 0.02214 0.0
C1451 C 0.40313 0.9483 0.02051 0.0
C1452 C 0.43066 0.9604 0.02788 0.0
C1453 C 0.38027 0.93213 0.0293 0.0
C1454 C 0.43489 0.95586 0.04407 0.0
C1455 C 0.41243 0.93999 0.05281 0.0
H1456 H 0.12447 0.44319 0.03297 0.0
H1457 H 0.13619 0.49285 0.0779 0.0
H1458 H 0.10009 0.50264 0.06774 0.0
H1459 H 0.06582 0.4979 0.0459 0.0
H1460 H 0.05422 0.4483 1.00088 0.0
H1461 H 0.08958 0.43779 0.01127 0.0
C1462 C 0.11925 0.45632 0.04048 0.0
C1463 C 0.13305 0.46729 0.05615 0.0
C1464 C 0.09843 0.46185 0.03457 0.0
C1465 C 0.12572 0.48392 0.06584 0.0
C1466 C 0.10514 0.48962 0.06002 0.0
C1467 C 0.07089 0.48467 0.03837 0.0
C1468 C 0.05733 0.47398 0.02261 0.0
C1469 C 0.09138 0.47874 0.04439 0.0
C1470 C 0.06425 0.45686 0.01306 0.0
C1471 C 0.08456 0.45085 0.01897 0.0
H1472 H 0.53784 0.65445 0.05223 0.0
H1473 H 0.57222 0.70032 0.01117 0.0
H1474 H 0.56433 0.65748 0.99586 0.0
H1475 H 0.54464 0.60639 0.99351 0.0
H1476 H 0.50893 0.56038 0.03415 0.0
H1477 H 0.52112 0.60393 0.0505 0.0
C1478 C 0.54413 0.65519 0.04006 0.0
C1479 C 0.55538 0.68049 0.0328 0.0
C1480 C 0.53946 0.63048 0.03131 0.0
C1481 C 0.56307 0.68101 0.01693 0.0
C1482 C 0.55868 0.65656 0.00819 0.0
C1483 C 0.54004 0.6061 0.00605 0.0
C1484 C 0.52679 0.58052 0.01287 0.0
C1485 C 0.54641 0.6311 0.01516 0.0
C1486 C 0.52038 0.58007 0.02898 0.0
C1487 C 0.52687 0.6049 0.0382 0.0
H1488 H 0.85149 0.34404 0.97853 0.0
H1489 H 0.91425 0.32993 0.95891 0.0
H1490 H 0.95099 0.37523 0.97222 0.0
H1491 H 0.96525 0.41922 0.98925 0.0
H1492 H 0.90216 0.43295 0.00871 0.0
H1493 H 0.86565 0.38728 0.99587 0.0
C1494 C 0.87322 0.35068 0.97734 0.0
C1495 C 0.88009 0.33359 0.96776 0.0
C1496 C 0.8942 0.37671 0.98501 0.0
C1497 C 0.90836 0.3428 0.9661 0.0
C1498 C 0.92939 0.36865 0.97375 0.0
C1499 C 0.9435 0.41214 0.99067 0.0
C1500 C 0.93637 0.42938 0.99988 0.0
C1501 C 0.92255 0.38586 0.98317 0.0
C1502 C 0.90815 0.42 1.00168 0.0
C1503 C 0.88726 0.39391 0.99433 0.0
H1504 H 0.66654 0.52547 0.97158 0.0
H1505 H 0.65839 0.57868 0.9381 0.0
H1506 H 0.6154 0.57017 0.94886 0.0
H1507 H 0.57982 0.54785 0.96791 0.0
H1508 H 0.59138 0.50007 0.00364 0.0
H1509 H 0.63387 0.50718 0.99224 0.0
C1510 C 0.65594 0.53585 0.96677 0.0
C1511 C 0.66603 0.55247 0.95376 0.0
C1512 C 0.63175 0.53199 0.97353 0.0
C1513 C 0.65109 0.56502 0.94769 0.0
C1514 C 0.6265 0.56047 0.95399 0.0
C1515 C 0.59175 0.53911 0.97321 0.0
C1516 C 0.58247 0.52334 0.98653 0.0
C1517 C 0.61657 0.54392 0.96686 0.0
C1518 C 0.59823 0.5124 0.99343 0.0
C1519 C 0.62243 0.51635 0.98686 0.0
H1520 H 0.48735 0.14117 0.96699 0.0
H1521 H 0.40894 0.06653 0.95069 0.0
H1522 H 0.42252 0.03871 0.96686 0.0
H1523 H 0.45614 0.0363 0.98657 0.0
H1524 H 0.53516 0.11105 1.00184 0.0
H1525 H 0.52163 0.13836 0.98545 0.0
C1526 C 0.47323 0.1188 0.96702 0.0
C1527 C 0.44712 0.1059 0.95782 0.0
C1528 C 0.48119 0.10309 0.97626 0.0
C1529 C 0.42919 0.07685 0.95767 0.0
C1530 C 0.43688 0.06102 0.96697 0.0
C1531 C 0.47049 0.05847 0.98611 0.0
C1532 C 0.49664 0.07163 0.99531 0.0
C1533 C 0.46275 0.07398 0.97643 0.0
C1534 C 0.51488 0.10047 0.99487 0.0
C1535 C 0.50721 0.11609 0.98548 0.0
H1536 H 0.67609 0.11877 0.96811 0.0
H1537 H 0.62525 0.10552 0.9235 0.0
H1538 H 0.58315 0.07641 0.93645 0.0
H1539 H 0.56071 0.05558 0.96053 0.0
H1540 H 0.61136 0.07 0.00542 0.0
H1541 H 0.65355 0.09819 0.99229 0.0
C1542 C 0.65581 0.10976 0.96125 0.0
C1543 C 0.65394 0.11439 0.94483 0.0
C1544 C 0.63161 0.09334 0.96883 0.0
C1545 C 0.62742 0.10204 0.93607 0.0
C1546 C 0.60328 0.08553 0.9435 0.0
C1547 C 0.58094 0.06483 0.96748 0.0
C1548 C 0.58276 0.06064 0.98397 0.0
C1549 C 0.60513 0.08112 0.95988 0.0
C1550 C 0.60925 0.07287 0.99273 0.0
C1551 C 0.63343 0.089 0.98523 0.0
H1552 H 0.88737 0.56625 0.96702 0.0
H1553 H 0.88195 0.51899 0.92233 0.0
H1554 H 0.91318 0.50504 0.9351 0.0
H1555 H 0.94217 0.50636 0.95874 0.0
H1556 H 0.94817 0.55349 0.00364 0.0
H1557 H 0.91649 0.56724 0.99102 0.0
C1558 C 0.89287 0.55272 0.96014 0.0
C1559 C 0.88246 0.54383 0.94371 0.0
C1560 C 0.91098 0.54478 0.96757 0.0
C1561 C 0.88999 0.52649 0.93492 0.0
C1562 C 0.90775 0.51838 0.94222 0.0
C1563 C 0.93661 0.51965 0.96582 0.0
C1564 C 0.94762 0.52887 0.98214 0.0
C1565 C 0.91846 0.5275 0.9585 0.0
C1566 C 0.94009 0.5461 0.99105 0.0
C1567 C 0.92193 0.55395 0.98385 0.0
H1568 H 0.46551 0.35128 0.95619 0.0
H1569 H 0.42556 0.30581 0.99637 0.0
H1570 H 0.43692 0.34958 0.01199 0.0
H1571 H 0.4605 0.40106 0.01482 0.0
H1572 H 0.50105 0.44661 0.975 0.0
H1573 H 0.48651 0.40257 0.95842 0.0
C1574 C 0.45883 0.35089 0.96824 0.0
C1575 C 0.44495 0.32532 0.97515 0.0
C1576 C 0.46538 0.37615 0.97716 0.0
C1577 C 0.43675 0.32525 0.99087 0.0
C1578 C 0.4431 0.35025 0.99979 0.0
C1579 C 0.46572 0.40118 0.00242 0.0
C1580 C 0.48096 0.42677 0.99586 0.0
C1581 C 0.45779 0.37584 0.99316 0.0
C1582 C 0.48812 0.42698 0.97993 0.0
C1583 C 0.48025 0.40184 0.97059 0.0
H1584 H 0.14942 0.66193 0.02486 0.0
H1585 H 0.08544 0.67261 0.0456 0.0
H1586 H 0.0498 0.62582 0.03349 0.0
H1587 H 0.03685 0.5818 0.01695 0.0
H1588 H 0.1011 0.57116 0.99654 0.0
H1589 H 0.13656 0.61812 0.00839 0.0
C1590 C 0.12764 0.65413 0.02658 0.0
C1591 C 0.12009 0.67076 0.03606 0.0
C1592 C 0.10732 0.62723 0.01963 0.0
C1593 C 0.09183 0.66014 0.03845 0.0
C1594 C 0.07143 0.63344 0.03148 0.0
C1595 C 0.05862 0.58982 0.01512 0.0
C1596 C 0.06639 0.57313 0.00589 0.0
C1597 C 0.07894 0.61678 0.02207 0.0
C1598 C 0.09463 0.58368 0.00359 0.0
C1599 C 0.11492 0.61051 0.01037 0.0
H1600 H 0.34472 0.4793 0.0435 0.0
H1601 H 0.35744 0.42497 0.07398 0.0
H1602 H 0.39768 0.43277 0.06023 0.0
H1603 H 0.43053 0.45609 0.04019 0.0
H1604 H 0.4153 0.50576 0.00749 0.0
H1605 H 0.37418 0.49783 0.02109 0.0
C1606 C 0.35578 0.46861 0.04701 0.0
C1607 C 0.34808 0.45213 0.06023 0.0
C1608 C 0.37848 0.47221 0.03855 0.0
C1609 C 0.36321 0.43875 0.06442 0.0
C1610 C 0.38618 0.44288 0.05639 0.0
C1611 C 0.41799 0.46493 0.03595 0.0
C1612 C 0.42592 0.48161 0.02296 0.0
C1613 C 0.39422 0.45984 0.04361 0.0
C1614 C 0.40944 0.49273 0.01744 0.0
C1615 C 0.38608 0.48833 0.02528 0.0
H1616 H 0.56149 0.92083 0.05449 0.0
H1617 H 0.48094 0.84636 0.04299 0.0
H1618 H 0.4659 0.87149 0.0255 0.0
H1619 H 0.47635 0.91416 0.01271 0.0
H1620 H 0.55793 0.98786 0.02279 0.0
H1621 H 0.57198 0.96368 0.04162 0.0
C1622 C 0.54056 0.91034 0.0483 0.0
C1623 C 0.52222 0.88196 0.05003 0.0
C1624 C 0.53237 0.92472 0.03794 0.0
C1625 C 0.49529 0.86827 0.04179 0.0
C1626 C 0.48676 0.88259 0.03178 0.0
C1627 C 0.49721 0.92488 0.01903 0.0
C1628 C 0.51601 0.95278 0.01653 0.0
C1629 C 0.50524 0.9107 0.0296 0.0
C1630 C 0.54298 0.96646 0.02472 0.0
C1631 C 0.55104 0.95263 0.03544 0.0
H1632 H 0.9987 0.21774 0.37018 0.0
H1633 H 0.04747 0.2326 0.41591 0.0
H1634 H 0.08995 0.26371 0.40398 0.0
H1635 H 0.11354 0.28634 0.38065 0.0
H1636 H 0.06561 0.27065 0.33453 0.0
H1637 H 0.0227 0.23994 0.3465 0.0
C1638 C 0.01862 0.22756 0.37752 0.0
C1639 C 0.01964 0.22286 0.39401 0.0
C1640 C 0.04322 0.24526 0.37051 0.0
C1641 C 0.04577 0.23615 0.40331 0.0
C1642 C 0.07021 0.25383 0.39646 0.0
C1643 C 0.09375 0.2763 0.37316 0.0
C1644 C 0.09293 0.28095 0.35668 0.0
C1645 C 0.06919 0.25856 0.38009 0.0
C1646 C 0.06697 0.26752 0.34723 0.0
C1647 C 0.04238 0.24994 0.35408 0.0
H1648 H 0.82003 0.80983 0.36857 0.0
H1649 H 0.76645 0.75501 0.40201 0.0
H1650 H 0.72887 0.76227 0.3918 0.0
H1651 H 0.71092 0.78452 0.37343 0.0
H1652 H 0.76249 0.83472 0.33804 0.0
H1653 H 0.80089 0.82844 0.34868 0.0
C1654 C 0.80005 0.79897 0.37347 0.0
C1655 C 0.79655 0.78226 0.3863 0.0
C1656 C 0.77802 0.80239 0.36715 0.0
C1657 C 0.77034 0.76875 0.39252 0.0
C1658 C 0.7486 0.77264 0.38657 0.0
C1659 C 0.73059 0.79391 0.36808 0.0
C1660 C 0.73419 0.81012 0.3551 0.0
C1661 C 0.75225 0.78957 0.37398 0.0
C1662 C 0.75949 0.82211 0.34806 0.0
C1663 C 0.78138 0.81856 0.35415 0.0
H1664 H 0.20962 0.00355 0.3516 0.0
H1665 H 0.20108 0.97471 0.39934 0.0
H1666 H 0.19142 0.92886 0.38774 0.0
H1667 H 0.18218 0.89584 0.3638 0.0
H1668 H 0.18639 0.92321 0.31608 0.0
H1669 H 0.20025 0.97062 0.32781 0.0
C1670 C 0.20541 0.98722 0.3595 0.0
C1671 C 0.20612 0.99276 0.37635 0.0
C1672 C 0.19894 0.96058 0.35271 0.0
C1673 C 0.20118 0.97136 0.38636 0.0
C1674 C 0.19538 0.94498 0.37974 0.0
C1675 C 0.1868 0.91243 0.35609 0.0
C1676 C 0.18396 0.90652 0.33923 0.0
C1677 C 0.19394 0.93928 0.36292 0.0
C1678 C 0.18879 0.92764 0.32915 0.0
C1679 C 0.19664 0.95462 0.33584 0.0
H1680 H 0.52492 0.67241 0.31827 0.0
H1681 H 0.58559 0.66047 0.29423 0.0
H1682 H 0.62298 0.70609 0.30678 0.0
H1683 H 0.63826 0.75022 0.32393 0.0
H1684 H 0.57719 0.76231 0.3474 0.0
H1685 H 0.54029 0.71577 0.33594 0.0
C1686 C 0.54638 0.6796 0.31599 0.0
C1687 C 0.55244 0.66306 0.30534 0.0
C1688 C 0.56773 0.70597 0.32311 0.0
C1689 C 0.58033 0.67292 0.30229 0.0
C1690 C 0.60173 0.69897 0.30947 0.0
C1691 C 0.61688 0.74258 0.32655 0.0
C1692 C 0.61043 0.75969 0.33644 0.0
C1693 C 0.59565 0.71584 0.31977 0.0
C1694 C 0.58267 0.74954 0.33979 0.0
C1695 C 0.56154 0.72293 0.33324 0.0
H1696 H 0.34667 0.88593 0.30538 0.0
H1697 H 0.3035 0.85199 0.2575 0.0
H1698 H 0.25945 0.84202 0.2679 0.0
H1699 H 0.2329 0.8415 0.29083 0.0
H1700 H 0.27658 0.87508 0.33872 0.0
H1701 H 0.32051 0.88629 0.32806 0.0
C1702 C 0.32761 0.87617 0.29722 0.0
C1703 C 0.32843 0.86959 0.2807 0.0
C1704 C 0.30235 0.87033 0.30329 0.0
C1705 C 0.30357 0.8575 0.27025 0.0
C1706 C 0.27832 0.85163 0.27621 0.0
C1707 C 0.25202 0.85137 0.29894 0.0
C1708 C 0.25126 0.85732 0.3156 0.0
C1709 C 0.27741 0.85778 0.29274 0.0
C1710 C 0.27636 0.87016 0.32587 0.0
C1711 C 0.30159 0.87661 0.31979 0.0
H1712 H 0.15622 0.46402 0.29546 0.0
H1713 H 0.07536 0.3915 0.2807 0.0
H1714 H 0.0881 0.36261 0.29641 0.0
H1715 H 0.12136 0.35904 0.31601 0.0
H1716 H 0.20163 0.43253 0.33084 0.0
H1717 H 0.18982 0.46009 0.31366 0.0
C1718 C 0.14134 0.44189 0.2957 0.0
C1719 C 0.11477 0.42998 0.28713 0.0
C1720 C 0.14863 0.42567 0.30491 0.0
C1721 C 0.09597 0.40114 0.2872 0.0
C1722 C 0.10318 0.38468 0.29627 0.0
C1723 C 0.13628 0.38101 0.31532 0.0
C1724 C 0.16224 0.39381 0.32474 0.0
C1725 C 0.1293 0.39686 0.30541 0.0
C1726 C 0.18141 0.42229 0.32382 0.0
C1727 C 0.17472 0.43806 0.31397 0.0
H1728 H 0.33351 0.46814 0.30322 0.0
H1729 H 0.31534 0.40373 0.2645 0.0
H1730 H 0.27389 0.37118 0.27654 0.0
H1731 H 0.24215 0.36061 0.29796 0.0
H1732 H 0.26351 0.42257 0.33843 0.0
H1733 H 0.30481 0.45603 0.32607 0.0
C1734 C 0.32103 0.44689 0.29749 0.0
C1735 C 0.32774 0.439 0.28265 0.0
C1736 C 0.29769 0.4276 0.30488 0.0
C1737 C 0.31055 0.41117 0.27553 0.0
C1738 C 0.28685 0.39222 0.28253 0.0
C1739 C 0.256 0.3814 0.30409 0.0
C1740 C 0.24982 0.38921 0.31903 0.0
C1741 C 0.28008 0.40025 0.29712 0.0
C1742 C 0.26799 0.41607 0.32696 0.0
C1743 C 0.29151 0.43523 0.31986 0.0
H1744 H 0.55437 0.89134 0.30177 0.0
H1745 H 0.55118 0.84649 0.25665 0.0
H1746 H 0.58309 0.83317 0.26926 0.0
H1747 H 0.61263 0.83513 0.29275 0.0
H1748 H 0.61735 0.88078 0.33797 0.0
H1749 H 0.58415 0.89293 0.32569 0.0
C1750 C 0.5605 0.87843 0.29481 0.0
C1751 C 0.55053 0.86995 0.27831 0.0
C1752 C 0.57923 0.87115 0.3021 0.0
C1753 C 0.55879 0.85344 0.26933 0.0
C1754 C 0.577 0.8458 0.27653 0.0
C1755 C 0.60647 0.84774 0.29998 0.0
C1756 C 0.61759 0.85706 0.31627 0.0
C1757 C 0.58754 0.85475 0.29285 0.0
C1758 C 0.60924 0.87339 0.32539 0.0
C1759 C 0.59019 0.8803 0.31838 0.0
H1760 H 0.10673 0.66562 0.29865 0.0
H1761 H 0.18289 0.66848 0.31613 0.0
H1762 H 0.20083 0.71567 0.32942 0.0
H1763 H 0.19503 0.75628 0.33593 0.0
H1764 H 0.11898 0.75354 0.31843 0.0
H1765 H 0.10101 0.70632 0.30504 0.0
C1766 C 0.12734 0.67666 0.30526 0.0
C1767 C 0.14342 0.66352 0.30642 0.0
C1768 C 0.13758 0.70384 0.3128 0.0
C1769 C 0.16993 0.67796 0.31524 0.0
C1770 C 0.18028 0.70502 0.32275 0.0
C1771 C 0.17454 0.74532 0.32917 0.0
C1772 C 0.15835 0.75829 0.32812 0.0
C1773 C 0.1643 0.71815 0.32161 0.0
C1774 C 0.13183 0.74393 0.31936 0.0
C1775 C 0.12154 0.71695 0.31173 0.0
H1776 H 0.82427 0.98857 0.35817 0.0
H1777 H 0.76271 0.00133 0.38054 0.0
H1778 H 0.72548 0.95641 0.36717 0.0
H1779 H 0.71037 0.91293 0.3494 0.0
H1780 H 0.77215 0.90017 0.32733 0.0
H1781 H 0.80917 0.94574 0.34004 0.0
C1782 C 0.80269 0.98171 0.35994 0.0
C1783 C 0.79635 0.99832 0.37037 0.0
C1784 C 0.78136 0.9558 0.35225 0.0
C1785 C 0.76824 0.98884 0.37273 0.0
C1786 C 0.7469 0.96318 0.36504 0.0
C1787 C 0.73194 0.9202 0.34737 0.0
C1788 C 0.73853 0.90322 0.33747 0.0
C1789 C 0.75321 0.94638 0.35485 0.0
C1790 C 0.76654 0.91289 0.33489 0.0
C1791 C 0.78774 0.93893 0.34218 0.0
H1792 H 1.00076 0.77001 0.37263 0.0
H1793 H 0.05199 0.81386 0.41742 0.0
H1794 H 0.094 0.82837 0.40369 0.0
H1795 H 0.11635 0.8289 0.37915 0.0
H1796 H 0.06596 0.78557 0.33408 0.0
H1797 H 0.02353 0.77099 0.3477 0.0
C1798 C 0.02111 0.78289 0.37936 0.0
C1799 C 0.02306 0.79061 0.39611 0.0
C1800 C 0.04537 0.7914 0.37134 0.0
C1801 C 0.04971 0.8071 0.40463 0.0
C1802 C 0.07382 0.81563 0.39675 0.0
C1803 C 0.09615 0.81635 0.37221 0.0
C1804 C 0.09447 0.80842 0.35555 0.0
C1805 C 0.07191 0.8079 0.38013 0.0
C1806 C 0.06797 0.79203 0.34689 0.0
C1807 C 0.04367 0.78365 0.35469 0.0
H1808 H 0.22821 0.24592 0.38935 0.0
H1809 H 0.14951 0.16987 0.37584 0.0
H1810 H 0.13445 0.19469 0.35818 0.0
H1811 H 0.14424 0.23761 0.34591 0.0
H1812 H 0.22336 0.3134 0.35878 0.0
H1813 H 0.23758 0.28924 0.37753 0.0
C1814 C 0.20763 0.23492 0.3827 0.0
C1815 C 0.19002 0.20612 0.38386 0.0
C1816 C 0.19924 0.24925 0.37244 0.0
C1817 C 0.16354 0.19199 0.37501 0.0
C1818 C 0.1549 0.20617 0.36494 0.0
C1819 C 0.16458 0.2488 0.35284 0.0
C1820 C 0.18271 0.27721 0.35104 0.0
C1821 C 0.1727 0.2347 0.36342 0.0
C1822 C 0.20897 0.29155 0.36009 0.0
C1823 C 0.21713 0.27773 0.37076 0.0
H1824 H 0.67882 0.58756 0.72387 0.0
H1825 H 0.67412 0.50917 0.70861 0.0
H1826 H 0.71219 0.53317 0.6918 0.0
H1827 H 0.74798 0.57675 0.6819 0.0
H1828 H 0.75478 0.65541 0.69837 0.0
H1829 H 0.7149 0.63117 0.71423 0.0
C1830 C 0.68628 0.57576 0.71699 0.0
C1831 C 0.67343 0.54655 0.71747 0.0
C1832 C 0.70849 0.58976 0.70745 0.0
C1833 C 0.68323 0.53159 0.70829 0.0
C1834 C 0.70513 0.5453 0.6987 0.0
C1835 C 0.74029 0.58836 0.68878 0.0
C1836 C 0.75363 0.61757 0.68881 0.0
C1837 C 0.7179 0.57436 0.69817 0.0
C1838 C 0.7443 0.63277 0.69804 0.0
C1839 C 0.72168 0.61896 0.70716 0.0
H1840 H 0.43824 0.10881 0.73097 0.0
H1841 H 0.49684 0.14967 0.69582 0.0
H1842 H 0.46322 0.1581 0.68113 0.0
H1843 H 0.41731 0.1545 0.67812 0.0
H1844 H 0.36153 0.12054 0.71516 0.0
H1845 H 0.39431 0.10962 0.72952 0.0
C1846 C 0.4441 0.12004 0.7203 0.0
C1847 C 0.47019 0.12791 0.71448 0.0
C1848 C 0.42512 0.12621 0.71222 0.0
C1849 C 0.47673 0.14219 0.70041 0.0
C1850 C 0.45759 0.14744 0.69202 0.0
C1851 C 0.41239 0.14466 0.68933 0.0
C1852 C 0.38703 0.1379 0.69551 0.0
C1853 C 0.4317 0.13943 0.69776 0.0
C1854 C 0.38098 0.12575 0.7102 0.0
C1855 C 0.39967 0.11951 0.71836 0.0
H1856 H 0.8387 0.32718 0.68662 0.0
H1857 H 0.91862 0.34256 0.70743 0.0
H1858 H 0.90852 0.29668 0.69529 0.0
H1859 H 0.87647 0.25177 0.67937 0.0
H1860 H 0.79574 0.23546 0.65942 0.0
H1861 H 0.8067 0.28224 0.67046 0.0
C1862 C 0.854 0.32057 0.68829 0.0
C1863 C 0.87937 0.33816 0.69784 0.0
C1864 C 0.84786 0.29401 0.6815 0.0
C1865 C 0.89889 0.32925 0.70017 0.0
C1866 C 0.89315 0.30308 0.69323 0.0
C1867 C 0.86129 0.25848 0.67745 0.0
C1868 C 0.83532 0.24025 0.66867 0.0
C1869 C 0.8676 0.28519 0.68401 0.0
C1870 C 0.81587 0.24917 0.66619 0.0
C1871 C 0.82212 0.27589 0.67249 0.0
H1872 H 0.22593 0.996 0.62637 0.0
H1873 H 0.15449 0.00189 0.63873 0.0
H1874 H 0.18516 0.04776 0.65369 0.0
H1875 H 0.23204 0.08588 0.66348 0.0
H1876 H 0.3039 0.08011 0.65202 0.0
H1877 H 0.27337 0.0346 0.63633 0.0
C1878 C 0.21717 0.00747 0.63226 0.0
C1879 C 0.18802 0.99559 0.63152 0.0
C1880 C 0.23497 0.03378 0.64097 0.0
C1881 C 0.17686 0.01049 0.63931 0.0
C1882 C 0.19437 0.03674 0.6478 0.0
C1883 C 0.24103 0.07466 0.65755 0.0
C1884 C 0.27012 0.0863 0.65882 0.0
C1885 C 0.22341 0.0485 0.64878 0.0
C1886 C 0.28152 0.07157 0.65111 0.0
C1887 C 0.26409 0.04556 0.64218 0.0
H1888 H 0.00795 0.23487 0.63571 0.0
H1889 H 0.96245 0.18541 0.59078 0.0
H1890 H 0.91843 0.17552 0.60116 0.0
H1891 H 0.89275 0.17857 0.62365 0.0
H1892 H 0.93855 0.22763 0.6687 0.0
H1893 H 0.98248 0.23987 0.65764 0.0
C1894 C 0.98839 0.22191 0.62819 0.0
C1895 C 0.98849 0.21073 0.61255 0.0
C1896 C 0.96318 0.21609 0.63429 0.0
C1897 C 0.963 0.19444 0.60283 0.0
C1898 C 0.9378 0.18861 0.6088 0.0
C1899 C 0.91232 0.19205 0.63103 0.0
C1900 C 0.91224 0.20195 0.64705 0.0
C1901 C 0.93761 0.19898 0.62461 0.0
C1902 C 0.93788 0.21961 0.65636 0.0
C1903 C 0.96308 0.22661 0.65006 0.0
H1904 H 0.77815 0.75662 0.61899 0.0
H1905 H 0.85704 0.83216 0.63289 0.0
H1906 H 0.87244 0.80638 0.64957 0.0
H1907 H 0.86283 0.76253 0.66085 0.0
H1908 H 0.78289 0.6877 0.648 0.0
H1909 H 0.76864 0.71283 0.63014 0.0
C1910 C 0.79884 0.7673 0.62552 0.0
C1911 C 0.81649 0.79617 0.6247 0.0
C1912 C 0.80732 0.75247 0.63529 0.0
C1913 C 0.84307 0.80993 0.63342 0.0
C1914 C 0.85187 0.79522 0.64293 0.0
C1915 C 0.84233 0.75178 0.65411 0.0
C1916 C 0.82404 0.72326 0.65559 0.0
C1917 C 0.83406 0.76654 0.6441 0.0
C1918 C 0.79749 0.70955 0.64685 0.0
C1919 C 0.78927 0.72394 0.6367 0.0
H1920 H 0.00309 0.7702 0.63276 0.0
H1921 H 0.954 0.74759 0.58638 0.0
H1922 H 0.91188 0.7176 0.59902 0.0
H1923 H 0.88867 0.69962 0.62332 0.0
H1924 H 0.93712 0.72374 0.66998 0.0
H1925 H 0.97976 0.75168 0.65713 0.0
C1926 C 0.98316 0.75888 0.62541 0.0
C1927 C 0.98182 0.76128 0.60862 0.0
C1928 C 0.95886 0.74211 0.63282 0.0
C1929 C 0.95583 0.74593 0.59927 0.0
C1930 C 0.93163 0.72894 0.60652 0.0
C1931 C 0.9085 0.71094 0.63073 0.0
C1932 C 0.90956 0.70966 0.64764 0.0
C1933 C 0.93288 0.72714 0.6233 0.0
C1934 C 0.93559 0.72437 0.65697 0.0
C1935 C 0.96001 0.74038 0.64962 0.0
H1936 H 0.23967 0.22019 0.60459 0.0
H1937 H 0.17136 0.1743 0.63342 0.0
H1938 H 0.20118 0.16422 0.65091 0.0
H1939 H 0.24617 0.16642 0.65747 0.0
H1940 H 0.3118 0.20622 0.62631 0.0
H1941 H 0.28324 0.21991 0.61002 0.0
C1942 C 0.23093 0.20753 0.61447 0.0
C1943 C 0.20308 0.19827 0.61755 0.0
C1944 C 0.24777 0.20053 0.62408 0.0
C1945 C 0.19278 0.18249 0.63082 0.0
C1946 C 0.20977 0.17636 0.6408 0.0
C1947 C 0.25418 0.17827 0.64717 0.0
C1948 C 0.28104 0.1856 0.64313 0.0
C1949 C 0.23724 0.18513 0.6375 0.0
C1950 C 0.29114 0.20043 0.62961 0.0
C1951 C 0.27484 0.20826 0.62032 0.0
H1952 H 0.83549 0.01919 0.64799 0.0
H1953 H 0.75145 0.99694 0.63095 0.0
H1954 H 0.75994 0.04253 0.64258 0.0
H1955 H 0.79145 0.08886 0.65754 0.0
H1956 H 0.87545 0.11077 0.67444 0.0
H1957 H 0.86663 0.06497 0.66315 0.0
C1958 C 0.8189 0.02416 0.64701 0.0
C1959 C 0.79287 0.00468 0.63867 0.0
C1960 C 0.82393 0.05033 0.6537 0.0
C1961 C 0.77177 0.01167 0.63721 0.0
C1962 C 0.77657 0.03768 0.6439 0.0
C1963 C 0.80779 0.08356 0.65871 0.0
C1964 C 0.83406 0.10309 0.66675 0.0
C1965 C 0.80261 0.05721 0.65213 0.0
C1966 C 0.85504 0.09601 0.66829 0.0
C1967 C 0.85003 0.06986 0.66183 0.0
H1968 H 0.45607 0.3343 0.68828 0.0
H1969 H 0.44677 0.30802 0.73664 0.0
H1970 H 0.41283 0.26013 0.7256 0.0
H1971 H 0.38822 0.22488 0.70198 0.0
H1972 H 0.40108 0.25044 0.65377 0.0
H1973 H 0.43178 0.2994 0.66489 0.0
C1974 C 0.4469 0.31813 0.69645 0.0
C1975 C 0.45421 0.32493 0.71329 0.0
C1976 C 0.42817 0.29043 0.69 0.0
C1977 C 0.44137 0.30365 0.72365 0.0
C1978 C 0.42211 0.27613 0.71734 0.0
C1979 C 0.39754 0.24135 0.69402 0.0
C1980 C 0.39246 0.23451 0.67719 0.0
C1981 C 0.41566 0.26921 0.70053 0.0
C1982 C 0.40485 0.25559 0.6668 0.0
C1983 C 0.42233 0.28345 0.67315 0.0
H1984 H 0.66282 0.09749 0.70797 0.0
H1985 H 0.71406 0.14226 0.7526 0.0
H1986 H 0.75607 0.15695 0.73879 0.0
H1987 H 0.77833 0.15884 0.71395 0.0
H1988 H 0.7276 0.11498 0.66903 0.0
H1989 H 0.68537 0.09856 0.68303 0.0
C1990 C 0.68316 0.11053 0.71468 0.0
C1991 C 0.68512 0.11871 0.73136 0.0
C1992 C 0.70736 0.11928 0.70659 0.0
C1993 C 0.71177 0.13525 0.73986 0.0
C1994 C 0.73587 0.1439 0.73193 0.0
C1995 C 0.75808 0.14566 0.70715 0.0
C1996 C 0.75625 0.13831 0.69038 0.0
C1997 C 0.73391 0.13628 0.71527 0.0
C1998 C 0.72972 0.12105 0.68191 0.0
C1999 C 0.70553 0.11164 0.68992 0.0
H2000 H 0.84335 0.52788 0.7062 0.0
H2001 H 0.92239 0.60083 0.72371 0.0
H2002 H 0.90984 0.63038 0.70855 0.0
H2003 H 0.87696 0.63485 0.68933 0.0
H2004 H 0.79741 0.5617 0.67271 0.0
H2005 H 0.80972 0.53271 0.68833 0.0
C2006 C 0.85784 0.55025 0.70664 0.0
C2007 C 0.88384 0.56218 0.71588 0.0
C2008 C 0.85044 0.56698 0.698 0.0
C2009 C 0.90224 0.59124 0.71666 0.0
C2010 C 0.89512 0.60808 0.70796 0.0
C2011 C 0.86224 0.61265 0.68931 0.0
C2012 C 0.83636 0.6004 0.67989 0.0
C2013 C 0.86935 0.59612 0.69847 0.0
C2014 C 0.81753 0.57156 0.67982 0.0
C2015 C 0.82452 0.55498 0.68875 0.0
H2016 H 0.43943 0.93533 0.15372 0.0
H2017 H 0.51764 0.99504 0.18102 0.0
H2018 H 0.53604 0.0166 0.15639 0.0
H2019 H 0.53051 0.01775 0.12705 0.0
H2020 H 0.45309 0.95713 0.09929 0.0
H2021 H 0.43364 0.93705 0.12411 0.0
C2022 C 0.46036 0.95326 0.15425 0.0
C2023 C 0.4772 0.96352 0.16914 0.0
C2024 C 0.47098 0.96537 0.13996 0.0
C2025 C 0.50439 0.9866 0.16967 0.0
C2026 C 0.51491 0.99896 0.1556 0.0
C2027 C 0.50945 0.99999 0.12638 0.0
C2028 C 0.49339 0.98893 0.11128 0.0
C2029 C 0.49854 0.98831 0.14066 0.0
C2030 C 0.46589 0.96628 0.11074 0.0
C2031 C 0.45478 0.95466 0.12494 0.0
H2032 H 0.06347 0.50926 0.16869 0.0
H2033 H 0.00402 0.53424 0.18097 0.0
H2034 H 0.98978 0.5316 0.15226 0.0
H2035 H 0.99675 0.52581 0.12384 0.0
H2036 H 0.0559 0.50058 0.11117 0.0
H2037 H 0.06788 0.49989 0.13989 0.0
C2038 C 0.04705 0.5136 0.16505 0.0
C2039 C 0.03495 0.52213 0.1769 0.0
C2040 C 0.03918 0.51236 0.14849 0.0
C2041 C 0.01388 0.52799 0.17205 0.0
C2042 C 0.00572 0.52646 0.15565 0.0
C2043 C 0.01185 0.51958 0.12729 0.0
C2044 C 0.02545 0.51334 0.11534 0.0
C2045 C 0.01861 0.51922 0.14377 0.0
C2046 C 0.0454 0.50588 0.12013 0.0
C2047 C 0.05216 0.50534 0.13654 0.0
H2048 H 0.4717 0.50182 0.17131 0.0
H2049 H 0.47133 0.57824 0.16431 0.0
H2050 H 0.48061 0.57498 0.13603 0.0
H2051 H 0.49269 0.55255 0.11405 0.0
H2052 H 0.49565 0.47744 0.12133 0.0
H2053 H 0.48166 0.47801 0.14871 0.0
C2054 C 0.47316 0.5174 0.16344 0.0
C2055 C 0.47076 0.54016 0.16976 0.0
C2056 C 0.47934 0.51581 0.14734 0.0
C2057 C 0.47311 0.56054 0.15962 0.0
C2058 C 0.4785 0.55873 0.14351 0.0
C2059 C 0.48984 0.53606 0.12154 0.0
C2060 C 0.49528 0.51504 0.11569 0.0
C2061 C 0.48223 0.53678 0.13734 0.0
C2062 C 0.49188 0.49404 0.12563 0.0
C2063 C 0.48379 0.49429 0.14126 0.0
H2064 H 0.96907 0.50226 0.83464 0.0
H2065 H 0.89565 0.4209 0.83471 0.0
H2066 H 0.90386 0.42308 0.86414 0.0
H2067 H 0.93386 0.4464 0.88944 0.0
H2068 H 0.00872 0.52666 0.88943 0.0
H2069 H 0.99806 0.52681 0.86041 0.0
C2070 C 0.95473 0.48527 0.84119 0.0
C2071 C 0.9319 0.46142 0.83262 0.0
C2072 C 0.95995 0.48641 0.85806 0.0
C2073 C 0.91351 0.43934 0.84112 0.0
C2074 C 0.91817 0.44059 0.85791 0.0
C2075 C 0.94754 0.46415 0.88313 0.0
C2076 C 0.97199 0.48648 0.8915 0.0
C2077 C 0.9416 0.46377 0.86645 0.0
C2078 C 0.98984 0.50916 0.88316 0.0
C2079 C 0.98375 0.50925 0.8666 0.0
H2080 H 0.48739 0.4807 0.83048 0.0
H2081 H 0.57347 0.50459 0.84252 0.0
H2082 H 0.56924 0.51339 0.87119 0.0
H2083 H 0.53977 0.51028 0.89307 0.0
H2084 H 0.45289 0.4835 0.88067 0.0
H2085 H 0.45884 0.48001 0.85198 0.0
C2086 C 0.50527 0.48791 0.83937 0.0
C2087 C 0.5306 0.49163 0.83439 0.0
C2088 C 0.5025 0.49228 0.85582 0.0
C2089 C 0.55375 0.50164 0.84601 0.0
C2090 C 0.55127 0.50644 0.86243 0.0
C2091 C 0.52214 0.50369 0.8841 0.0
C2092 C 0.49589 0.4971 0.88912 0.0
C2093 C 0.52553 0.50115 0.86752 0.0
C2094 C 0.47343 0.48908 0.87725 0.0
C2095 C 0.47673 0.48684 0.86079 0.0
H2096 H 0.54145 0.03904 0.84215 0.0
H2097 H 0.53381 0.11198 0.85316 0.0
H2098 H 0.52316 0.09914 0.88059 0.0
H2099 H 0.51253 0.06539 0.90078 0.0
H2100 H 0.51946 0.99196 0.88985 0.0
H2101 H 0.53372 0.00667 0.86315 0.0
C2102 C 0.53793 0.05233 0.85066 0.0
C2103 C 0.53827 0.07634 0.84559 0.0
C2104 C 0.53132 0.04455 0.8664 0.0
C2105 C 0.53338 0.09323 0.85671 0.0
C2106 C 0.52729 0.08591 0.87241 0.0
C2107 C 0.5176 0.05281 0.89269 0.0
C2108 C 0.51468 0.02747 0.89734 0.0
C2109 C 0.52565 0.06132 0.87729 0.0
C2110 C 0.52104 0.01132 0.88653 0.0
C2111 C 0.52935 0.01979 0.87126 0.0
H2112 H 0.11666 0.29591 0.49629 0.0
H2113 H 0.13407 0.22864 0.48779 0.0
H2114 H 0.1504 0.24476 0.46164 0.0
H2115 H 0.16149 0.27913 0.44167 0.0
H2116 H 0.14399 0.34633 0.45027 0.0
H2117 H 0.1258 0.32898 0.47582 0.0
C2118 C 0.12363 0.28452 0.48861 0.0
C2119 C 0.12419 0.26114 0.49402 0.0
C2120 C 0.13313 0.29399 0.47364 0.0
C2121 C 0.13373 0.2469 0.48401 0.0
C2122 C 0.14297 0.25604 0.46903 0.0
C2123 C 0.15337 0.28976 0.44904 0.0
C2124 C 0.15428 0.3141 0.4441 0.0
C2125 C 0.14304 0.27974 0.46379 0.0
C2126 C 0.14394 0.3278 0.4539 0.0
C2127 C 0.13342 0.31783 0.46849 0.0
H2128 H 0.75 0.85967 0.50289 0.0
H2129 H 0.6723 0.85402 0.51332 0.0
H2130 H 0.65808 0.84883 0.48432 0.0
H2131 H 0.66942 0.84982 0.45619 0.0
H2132 H 0.74781 0.85718 0.44558 0.0
H2133 H 0.76019 0.85787 0.47444 0.0
C2134 C 0.72976 0.85677 0.49875 0.0
C2135 C 0.7122 0.85725 0.51015 0.0
C2136 C 0.72204 0.85446 0.48206 0.0
C2137 C 0.68618 0.85387 0.50471 0.0
C2138 C 0.67808 0.85094 0.48816 0.0
C2139 C 0.68899 0.85106 0.46016 0.0
C2140 C 0.70769 0.85351 0.44878 0.0
C2141 C 0.69609 0.8518 0.47675 0.0
C2142 C 0.73319 0.85559 0.45414 0.0
C2143 C 0.74023 0.85589 0.47062 0.0
H2144 H 0.14464 0.89631 0.49324 0.0
H2145 H 0.1318 0.81555 0.50396 0.0
H2146 H 0.14201 0.8071 0.4766 0.0
H2147 H 0.15709 0.82384 0.45013 0.0
H2148 H 0.17009 0.90472 0.43952 0.0
H2149 H 0.15716 0.91191 0.46629 0.0
C2150 C 0.14408 0.87687 0.48956 0.0
C2151 C 0.13773 0.85669 0.50064 0.0
C2152 C 0.15004 0.87221 0.47386 0.0
C2153 C 0.13653 0.83135 0.49563 0.0
C2154 C 0.14251 0.82658 0.48003 0.0
C2155 C 0.15706 0.84302 0.4537 0.0
C2156 C 0.16474 0.86381 0.44292 0.0
C2157 C 0.14969 0.84704 0.46912 0.0
C2158 C 0.16412 0.88834 0.44757 0.0
C2159 C 0.15689 0.89253 0.4629 0.0
H2160 H 0.64564 0.8061 0.16527 0.0
H2161 H 0.57282 0.81228 0.17335 0.0
H2162 H 0.58347 0.81554 0.20274 0.0
H2163 H 0.61127 0.81217 0.22595 0.0
H2164 H 0.68356 0.80515 0.21731 0.0
H2165 H 0.67514 0.80633 0.18831 0.0
C2166 C 0.63216 0.80825 0.17348 0.0
C2167 C 0.60831 0.8086 0.16718 0.0
C2168 C 0.63814 0.80963 0.19024 0.0
C2169 C 0.59134 0.81203 0.17793 0.0
C2170 C 0.59731 0.81368 0.19471 0.0
C2171 C 0.62538 0.81133 0.21773 0.0
C2172 C 0.64775 0.80813 0.22374 0.0
C2173 C 0.62034 0.81188 0.20099 0.0
C2174 C 0.66585 0.807 0.21294 0.0
C2175 C 0.66114 0.80781 0.19637 0.0
H2176 H 0.15317 0.8032 0.16195 0.0
H2177 H 0.24112 0.83387 0.17269 0.0
H2178 H 0.23702 0.84046 0.20166 0.0
H2179 H 0.20759 0.83463 0.2241 0.0
H2180 H 0.11919 0.80171 0.21277 0.0
H2181 H 0.12439 0.79891 0.18396 0.0
C2182 C 0.17147 0.8113 0.17062 0.0
C2183 C 0.19734 0.81771 0.16516 0.0
C2184 C 0.16886 0.81455 0.18721 0.0
C2185 C 0.22097 0.82885 0.17654 0.0
C2186 C 0.21858 0.83241 0.19313 0.0
C2187 C 0.18947 0.82681 0.21533 0.0
C2188 C 0.16304 0.81848 0.2207 0.0
C2189 C 0.1925 0.82484 0.19863 0.0
C2190 C 0.13987 0.80874 0.20909 0.0
C2191 C 0.14276 0.8069 0.19255 0.0
H2192 H 0.16214 0.36629 0.17111 0.0
H2193 H 0.24983 0.42127 0.18601 0.0
H2194 H 0.24327 0.40419 0.21292 0.0
H2195 H 0.21202 0.37446 0.2325 0.0
H2196 H 0.12416 0.32076 0.21719 0.0
H2197 H 0.1314 0.3367 0.19025 0.0
C2198 C 0.17983 0.37473 0.18027 0.0
C2199 C 0.20638 0.39525 0.17658 0.0
C2200 C 0.17585 0.36506 0.19568 0.0
C2201 C 0.22918 0.40538 0.18849 0.0
C2202 C 0.2254 0.39575 0.20391 0.0
C2203 C 0.19447 0.36637 0.22327 0.0
C2204 C 0.16759 0.34631 0.22689 0.0
C2205 C 0.19874 0.37576 0.2077 0.0
C2206 C 0.14513 0.33584 0.21472 0.0
C2207 C 0.1492 0.34506 0.19931 0.0
H2208 H 0.80401 0.58778 0.82289 0.0
H2209 H 0.77916 0.64867 0.83486 0.0
H2210 H 0.79174 0.66737 0.80876 0.0
H2211 H 0.8112 0.66744 0.78284 0.0
H2212 H 0.83663 0.60695 0.77105 0.0
H2213 H 0.82243 0.58712 0.79671 0.0
C2214 C 0.80144 0.60521 0.81981 0.0
C2215 C 0.79072 0.61683 0.83087 0.0
C2216 C 0.80886 0.61597 0.8048 0.0
C2217 C 0.78708 0.63911 0.82654 0.0
C2218 C 0.79445 0.64996 0.81165 0.0
C2219 C 0.81374 0.64999 0.78592 0.0
C2220 C 0.82507 0.63879 0.77504 0.0
C2221 C 0.80559 0.63872 0.80074 0.0
C2222 C 0.82775 0.61584 0.77911 0.0
C2223 C 0.81977 0.60458 0.79384 0.0
H2224 H 0.40927 0.23292 0.83475 0.0
H2225 H 0.34472 0.1498 0.84265 0.0
H2226 H 0.32794 0.14005 0.81381 0.0
H2227 H 0.33056 0.15586 0.78655 0.0
H2228 H 0.39529 0.23887 0.77862 0.0
H2229 H 0.41319 0.24797 0.80725 0.0
C2230 C 0.3915 0.2127 0.83013 0.0
C2231 C 0.37811 0.19217 0.84079 0.0
C2232 C 0.38203 0.20725 0.81356 0.0
C2233 C 0.35544 0.16587 0.83464 0.0
C2234 C 0.34576 0.16035 0.81818 0.0
C2235 C 0.34857 0.17593 0.79113 0.0
C2236 C 0.3615 0.19673 0.78055 0.0
C2237 C 0.35873 0.18098 0.80757 0.0
C2238 C 0.38511 0.22248 0.78653 0.0
C2239 C 0.39524 0.22774 0.8029 0.0
H2240 H 0.85168 0.20944 0.83905 0.0
H2241 H 0.76527 0.18418 0.82675 0.0
H2242 H 0.77063 0.17838 0.79797 0.0
H2243 H 0.80077 0.18331 0.7762 0.0
H2244 H 0.88787 0.21136 0.7889 0.0
H2245 H 0.88126 0.21319 0.81757 0.0
C2246 C 0.83402 0.20277 0.83008 0.0
C2247 C 0.80821 0.19756 0.83505 0.0
C2248 C 0.83739 0.20003 0.81359 0.0
C2249 C 0.78535 0.18821 0.82328 0.0
C2250 C 0.78846 0.18509 0.8068 0.0
C2251 C 0.81832 0.1899 0.78524 0.0
C2252 C 0.84478 0.19718 0.78033 0.0
C2253 C 0.81452 0.19142 0.8018 0.0
C2254 C 0.86717 0.20522 0.79226 0.0
C2255 C 0.86349 0.2065 0.8087 0.0
H2256 H 0.32942 0.14766 0.4994 0.0
H2257 H 0.25644 0.15329 0.50799 0.0
H2258 H 0.26866 0.15877 0.5373 0.0
H2259 H 0.2973 0.15663 0.56034 0.0
H2260 H 0.37017 0.15075 0.55151 0.0
H2261 H 0.3606 0.15039 0.52243 0.0
C2262 C 0.31635 0.15034 0.50772 0.0
C2263 C 0.29193 0.14977 0.50159 0.0
C2264 C 0.32327 0.15304 0.52449 0.0
C2265 C 0.27541 0.15376 0.51244 0.0
C2266 C 0.28227 0.15666 0.52919 0.0
C2267 C 0.31141 0.15585 0.55209 0.0
C2268 C 0.33416 0.15326 0.55808 0.0
C2269 C 0.30576 0.1556 0.53534 0.0
C2270 C 0.35215 0.15211 0.54719 0.0
C2271 C 0.34678 0.15203 0.53056 0.0
H2272 H 0.86651 0.16329 0.50376 0.0
H2273 H 0.87203 0.08936 0.51008 0.0
H2274 H 0.86254 0.09121 0.53841 0.0
H2275 H 0.8487 0.11143 0.56064 0.0
H2276 H 0.84082 0.18409 0.55412 0.0
H2277 H 0.85502 0.18516 0.52669 0.0
C2278 C 0.86612 0.14797 0.51148 0.0
C2279 C 0.87003 0.12628 0.50495 0.0
C2280 C 0.85984 0.14872 0.52765 0.0
C2281 C 0.86909 0.10623 0.51493 0.0
C2282 C 0.86357 0.10724 0.53108 0.0
C2283 C 0.85054 0.12778 0.55332 0.0
C2284 C 0.84359 0.14757 0.55941 0.0
C2285 C 0.85832 0.12802 0.53748 0.0
C2286 C 0.84571 0.16839 0.54965 0.0
C2287 C 0.85393 0.16908 0.53398 0.0
H2288 H 0.88042 0.69771 0.50782 0.0
H2289 H 0.87879 0.77329 0.52145 0.0
H2290 H 0.86669 0.75851 0.54841 0.0
H2291 H 0.85165 0.72196 0.56698 0.0
H2292 H 0.85264 0.64588 0.55354 0.0
H2293 H 0.86959 0.66281 0.52766 0.0
C2294 C 0.87805 0.71117 0.51686 0.0
C2295 C 0.8804 0.73649 0.51268 0.0
C2296 C 0.87042 0.70219 0.53226 0.0
C2297 C 0.87696 0.75364 0.52441 0.0
C2298 C 0.86993 0.74515 0.53979 0.0
C2299 C 0.8561 0.70927 0.55857 0.0
C2300 C 0.8505 0.6825 0.5622 0.0
C2301 C 0.86583 0.71912 0.54369 0.0
C2302 C 0.85613 0.6663 0.55097 0.0
C2303 C 0.86602 0.67605 0.53618 0.0
loop_
_geom_bond_atom_site_label_1
_geom_bond_atom_site_label_2
_geom_bond_distance
_geom_bond_site_symmetry_2
_ccdc_geom_bond_type
C0 C1 1.391 . S
C0 C4 1.391 . S
C0 H42 0.948 . S
C1 C0 1.391 . S
C1 C2 1.391 . S
C2 C1 1.391 . S
C2 H58 0.947 . S
C2 C59 1.392 . S
C3 C4 1.391 . S
C3 C7 1.397 . S
C3 C59 1.419 . S
C4 C0 1.391 . S
C4 C3 1.391 . S
C4 C5 1.399 . S
C5 C4 1.399 . S
C5 C8 1.396 . S
C5 C17 1.453 . S
C5 C18 1.684 . S
H6 C30 0.948 . S
C7 C3 1.397 . S
C7 C8 1.394 . S
C7 C26 1.723 . S
C8 C5 1.396 . S
C8 C7 1.394 . S
C8 C38 1.723 . S
H9 C32 0.947 . S
H10 C33 0.948 . S
H11 C39 0.982 . S
H12 C40 0.979 . S
H13 C40 0.980 . S
H14 C40 0.983 . S
H15 C39 0.979 . S
H16 C39 0.977 . S
C17 C5 1.453 . S
C17 H46 0.982 . S
C17 H47 0.979 . S
C17 H48 0.977 . S
C18 C5 1.684 . S
C18 H43 0.979 . S
C18 H44 0.980 . S
C18 H45 0.983 . S
C19 C20 1.391 . S
C19 C24 1.391 . S
C19 H49 0.948 . S
C20 C19 1.391 . S
C20 C21 1.391 . S
C21 C20 1.391 . S
C21 C22 1.392 . S
C21 H50 0.947 . S
C22 C21 1.392 . S
C22 C23 1.419 . S
C22 H51 0.948 . S
C23 C22 1.419 . S
C23 C24 1.391 . S
C23 C27 1.397 . S
C24 C19 1.391 . S
C24 C23 1.391 . S
C24 C25 1.399 . S
C25 C24 1.399 . S
C25 C26 1.396 . S
C25 C28 1.453 . S
C25 C29 1.684 . S
C26 C7 1.723 . S
C26 C25 1.396 . S
C26 C27 1.394 . S
C27 C23 1.397 . S
C27 C26 1.394 . S
C27 C37 1.723 . S
C28 C25 1.453 . S
C28 H52 0.982 . S
C28 H53 0.979 . S
C28 H54 0.977 . S
C29 C25 1.684 . S
C29 H55 0.979 . S
C29 H56 0.980 . S
C29 H57 0.983 . S
C30 H6 0.948 . S
C30 C31 1.391 . S
C30 C35 1.391 . S
C31 C30 1.391 . S
C31 C32 1.391 . S
C32 H9 0.947 . S
C32 C31 1.391 . S
C32 C33 1.392 . S
C33 H10 0.948 . S
C33 C32 1.392 . S
C33 C34 1.419 . S
C34 C33 1.419 . S
C34 C35 1.391 . S
C34 C38 1.397 . S
C35 C30 1.391 . S
C35 C34 1.391 . S
C35 C36 1.399 . S
C36 C35 1.399 . S
C36 C37 1.396 . S
C36 C39 1.453 . S
C36 C40 1.684 . S
C37 C27 1.723 . S
C37 C36 1.396 . S
C37 C38 1.394 . S
C38 C8 1.723 . S
C38 C34 1.397 . S
C38 C37 1.394 . S
C39 H11 0.982 . S
C39 H15 0.979 . S
C39 H16 0.977 . S
C39 C36 1.453 . S
C40 H12 0.979 . S
C40 H13 0.980 . S
C40 H14 0.983 . S
C40 C36 1.684 . S
H41 C59 0.948 . S
H42 C0 0.948 . S
H43 C18 0.979 . S
H44 C18 0.980 . S
H45 C18 0.983 . S
H46 C17 0.982 . S
H47 C17 0.979 . S
H48 C17 0.977 . S
H49 C19 0.948 . S
H50 C21 0.947 . S
H51 C22 0.948 . S
H52 C28 0.982 . S
H53 C28 0.979 . S
H54 C28 0.977 . S
H55 C29 0.979 . S
H56 C29 0.980 . S
H57 C29 0.983 . S
H58 C2 0.947 . S
C59 C2 1.392 . S
C59 C3 1.419 . S
C59 H41 0.948 . S
C60 C61 1.391 . S
C60 C64 1.391 . S
C60 H102 0.948 . S
C61 C60 1.391 . S
C61 C62 1.391 . S
C62 C61 1.391 . S
C62 H118 0.947 . S
C62 C119 1.392 . S
C63 C64 1.391 . S
C63 C67 1.397 . S
C63 C119 1.419 . S
C64 C60 1.391 . S
C64 C63 1.391 . S
C64 C65 1.399 . S
C65 C64 1.399 . S
C65 C68 1.396 . S
C65 C77 1.453 . S
C65 C78 1.684 . S
H66 C90 0.948 . S
C67 C63 1.397 . S
C67 C68 1.394 . S
C67 C86 1.723 . S
C68 C65 1.396 . S
C68 C67 1.394 . S
C68 C98 1.723 . S
H69 C92 0.947 . S
H70 C93 0.948 . S
H71 C99 0.982 . S
H72 C100 0.979 . S
H73 C100 0.980 . S
H74 C100 0.983 . S
H75 C99 0.979 . S
H76 C99 0.977 . S
C77 C65 1.453 . S
C77 H106 0.982 . S
C77 H107 0.979 . S
C77 H108 0.977 . S
C78 C65 1.684 . S
C78 H103 0.979 . S
C78 H104 0.980 . S
C78 H105 0.983 . S
C79 C80 1.391 . S
C79 C84 1.391 . S
C79 H109 0.948 . S
C80 C79 1.391 . S
C80 C81 1.391 . S
C81 C80 1.391 . S
C81 C82 1.392 . S
C81 H110 0.947 . S
C82 C81 1.392 . S
C82 C83 1.419 . S
C82 H111 0.948 . S
C83 C82 1.419 . S
C83 C84 1.391 . S
C83 C87 1.397 . S
C84 C79 1.391 . S
C84 C83 1.391 . S
C84 C85 1.399 . S
C85 C84 1.399 . S
C85 C86 1.396 . S
C85 C88 1.453 . S
C85 C89 1.684 . S
C86 C67 1.723 . S
C86 C85 1.396 . S
C86 C87 1.394 . S
C87 C83 1.397 . S
C87 C86 1.394 . S
C87 C97 1.723 . S
C88 C85 1.453 . S
C88 H112 0.982 . S
C88 H113 0.979 . S
C88 H114 0.977 . S
C89 C85 1.684 . S
C89 H115 0.979 . S
C89 H116 0.980 . S
C89 H117 0.983 . S
C90 H66 0.948 . S
C90 C91 1.391 . S
C90 C95 1.391 . S
C91 C90 1.391 . S
C91 C92 1.391 . S
C92 H69 0.947 . S
C92 C91 1.391 . S
C92 C93 1.392 . S
C93 H70 0.948 . S
C93 C92 1.392 . S
C93 C94 1.419 . S
C94 C93 1.419 . S
C94 C95 1.391 . S
C94 C98 1.397 . S
C95 C90 1.391 . S
C95 C94 1.391 . S
C95 C96 1.399 . S
C96 C95 1.399 . S
C96 C97 1.396 . S
C96 C99 1.453 . S
C96 C100 1.684 . S
C97 C87 1.723 . S
C97 C96 1.396 . S
C97 C98 1.394 . S
C98 C68 1.723 . S
C98 C94 1.397 . S
C98 C97 1.394 . S
C99 H71 0.982 . S
C99 H75 0.979 . S
C99 H76 0.977 . S
C99 C96 1.453 . S
C100 H72 0.979 . S
C100 H73 0.980 . S
C100 H74 0.983 . S
C100 C96 1.684 . S
H101 C119 0.948 . S
H102 C60 0.948 . S
H103 C78 0.979 . S
H104 C78 0.980 . S
H105 C78 0.983 . S
H106 C77 0.982 . S
H107 C77 0.979 . S
H108 C77 0.977 . S
H109 C79 0.948 . S
H110 C81 0.947 . S
H111 C82 0.948 . S
H112 C88 0.982 . S
H113 C88 0.979 . S
H114 C88 0.977 . S
H115 C89 0.979 . S
H116 C89 0.980 . S
H117 C89 0.983 . S
H118 C62 0.947 . S
C119 C62 1.392 . S
C119 C63 1.419 . S
C119 H101 0.948 . S
C120 C121 1.391 . S
C120 C124 1.391 . S
C120 H162 0.948 . S
C121 C120 1.391 . S
C121 C122 1.391 . S
C122 C121 1.391 . S
C122 H178 0.947 . S
C122 C179 1.392 . S
C123 C124 1.391 . S
C123 C127 1.397 . S
C123 C179 1.419 . S
C124 C120 1.391 . S
C124 C123 1.391 . S
C124 C125 1.399 . S
C125 C124 1.399 . S
C125 C128 1.396 . S
C125 C137 1.453 . S
C125 C138 1.684 . S
H126 C150 0.948 . S
C127 C123 1.397 . S
C127 C128 1.394 . S
C127 C146 1.723 . S
C128 C125 1.396 . S
C128 C127 1.394 . S
C128 C158 1.723 . S
H129 C152 0.947 . S
H130 C153 0.948 . S
H131 C159 0.982 . S
H132 C160 0.979 . S
H133 C160 0.980 . S
H134 C160 0.983 . S
H135 C159 0.979 . S
H136 C159 0.977 . S
C137 C125 1.453 . S
C137 H166 0.982 . S
C137 H167 0.979 . S
C137 H168 0.977 . S
C138 C125 1.684 . S
C138 H163 0.979 . S
C138 H164 0.980 . S
C138 H165 0.983 . S
C139 C140 1.391 . S
C139 C144 1.391 . S
C139 H169 0.948 . S
C140 C139 1.391 . S
C140 C141 1.391 . S
C141 C140 1.391 . S
C141 C142 1.392 . S
C141 H170 0.947 . S
C142 C141 1.392 . S
C142 C143 1.419 . S
C142 H171 0.948 . S
C143 C142 1.419 . S
C143 C144 1.391 . S
C143 C147 1.397 . S
C144 C139 1.391 . S
C144 C143 1.391 . S
C144 C145 1.399 . S
C145 C144 1.399 . S
C145 C146 1.396 . S
C145 C148 1.453 . S
C145 C149 1.684 . S
C146 C127 1.723 . S
C146 C145 1.396 . S
C146 C147 1.394 . S
C147 C143 1.397 . S
C147 C146 1.394 . S
C147 C157 1.723 . S
C148 C145 1.453 . S
C148 H172 0.982 . S
C148 H173 0.979 . S
C148 H174 0.977 . S
C149 C145 1.684 . S
C149 H175 0.979 . S
C149 H176 0.980 . S
C149 H177 0.983 . S
C150 H126 0.948 . S
C150 C151 1.391 . S
C150 C155 1.391 . S
C151 C150 1.391 . S
C151 C152 1.391 . S
C152 H129 0.947 . S
C152 C151 1.391 . S
C152 C153 1.392 . S
C153 H130 0.948 . S
C153 C152 1.392 . S
C153 C154 1.419 . S
C154 C153 1.419 . S
C154 C155 1.391 . S
C154 C158 1.397 . S
C155 C150 1.391 . S
C155 C154 1.391 . S
C155 C156 1.399 . S
C156 C155 1.399 . S
C156 C157 1.396 . S
C156 C159 1.453 . S
C156 C160 1.684 . S
C157 C147 1.723 . S
C157 C156 1.396 . S
C157 C158 1.394 . S
C158 C128 1.723 . S
C158 C154 1.397 . S
C158 C157 1.394 . S
C159 H131 0.982 . S
C159 H135 0.979 . S
C159 H136 0.977 . S
C159 C156 1.453 . S
C160 H132 0.979 . S
C160 H133 0.980 . S
C160 H134 0.983 . S
C160 C156 1.684 . S
H161 C179 0.948 . S
H162 C120 0.948 . S
H163 C138 0.979 . S
H164 C138 0.980 . S
H165 C138 0.983 . S
H166 C137 0.982 . S
H167 C137 0.979 . S
H168 C137 0.977 . S
H169 C139 0.948 . S
H170 C141 0.947 . S
H171 C142 0.948 . S
H172 C148 0.982 . S
H173 C148 0.979 . S
H174 C148 0.977 . S
H175 C149 0.979 . S
H176 C149 0.980 . S
H177 C149 0.983 . S
H178 C122 0.947 . S
C179 C122 1.392 . S
C179 C123 1.419 . S
C179 H161 0.948 . S
C180 C181 1.391 . S
C180 C184 1.391 . S
C180 H222 0.948 . S
C181 C180 1.391 . S
C181 C182 1.391 . S
C182 C181 1.391 . S
C182 H238 0.947 . S
C182 C239 1.392 . S
C183 C184 1.391 . S
C183 C187 1.397 . S
C183 C239 1.419 . S
C184 C180 1.391 . S
C184 C183 1.391 . S
C184 C185 1.399 . S
C185 C184 1.399 . S
C185 C188 1.396 . S
C185 C197 1.453 . S
C185 C198 1.684 . S
H186 C210 0.948 . S
C187 C183 1.397 . S
C187 C188 1.394 . S
C187 C206 1.723 . S
C188 C185 1.396 . S
C188 C187 1.394 . S
C188 C218 1.723 . S
H189 C212 0.947 . S
H190 C213 0.948 . S
H191 C219 0.982 . S
H192 C220 0.979 . S
H193 C220 0.980 . S
H194 C220 0.983 . S
H195 C219 0.979 . S
H196 C219 0.977 . S
C197 C185 1.453 . S
C197 H226 0.982 . S
C197 H227 0.979 . S
C197 H228 0.977 . S
C198 C185 1.684 . S
C198 H223 0.979 . S
C198 H224 0.980 . S
C198 H225 0.983 . S
C199 C200 1.391 . S
C199 C204 1.391 . S
C199 H229 0.948 . S
C200 C199 1.391 . S
C200 C201 1.391 . S
C201 C200 1.391 . S
C201 C202 1.392 . S
C201 H230 0.947 . S
C202 C201 1.392 . S
C202 C203 1.419 . S
C202 H231 0.948 . S
C203 C202 1.419 . S
C203 C204 1.391 . S
C203 C207 1.397 . S
C204 C199 1.391 . S
C204 C203 1.391 . S
C204 C205 1.399 . S
C205 C204 1.399 . S
C205 C206 1.396 . S
C205 C208 1.453 . S
C205 C209 1.684 . S
C206 C187 1.723 . S
C206 C205 1.396 . S
C206 C207 1.394 . S
C207 C203 1.397 . S
C207 C206 1.394 . S
C207 C217 1.723 . S
C208 C205 1.453 . S
C208 H232 0.982 . S
C208 H233 0.979 . S
C208 H234 0.977 . S
C209 C205 1.684 . S
C209 H235 0.979 . S
C209 H236 0.980 . S
C209 H237 0.983 . S
C210 H186 0.948 . S
C210 C211 1.391 . S
C210 C215 1.391 . S
C211 C210 1.391 . S
C211 C212 1.391 . S
C212 H189 0.947 . S
C212 C211 1.391 . S
C212 C213 1.392 . S
C213 H190 0.948 . S
C213 C212 1.392 . S
C213 C214 1.419 . S
C214 C213 1.419 . S
C214 C215 1.391 . S
C214 C218 1.397 . S
C215 C210 1.391 . S
C215 C214 1.391 . S
C215 C216 1.399 . S
C216 C215 1.399 . S
C216 C217 1.396 . S
C216 C219 1.453 . S
C216 C220 1.684 . S
C217 C207 1.723 . S
C217 C216 1.396 . S
C217 C218 1.394 . S
C218 C188 1.723 . S
C218 C214 1.397 . S
C218 C217 1.394 . S
C219 H191 0.982 . S
C219 H195 0.979 . S
C219 H196 0.977 . S
C219 C216 1.453 . S
C220 H192 0.979 . S
C220 H193 0.980 . S
C220 H194 0.983 . S
C220 C216 1.684 . S
H221 C239 0.948 . S
H222 C180 0.948 . S
H223 C198 0.979 . S
H224 C198 0.980 . S
H225 C198 0.983 . S
H226 C197 0.982 . S
H227 C197 0.979 . S
H228 C197 0.977 . S
H229 C199 0.948 . S
H230 C201 0.947 . S
H231 C202 0.948 . S
H232 C208 0.982 . S
H233 C208 0.979 . S
H234 C208 0.977 . S
H235 C209 0.979 . S
H236 C209 0.980 . S
H237 C209 0.983 . S
H238 C182 0.947 . S
C239 C182 1.392 . S
C239 C183 1.419 . S
C239 H221 0.948 . S
C240 C241 1.391 . S
C240 C244 1.391 . S
C240 H282 0.948 . S
C241 C240 1.391 . S
C241 C242 1.391 . S
C242 C241 1.391 . S
C242 H298 0.947 . S
C242 C299 1.392 . S
C243 C244 1.391 . S
C243 C247 1.397 . S
C243 C299 1.419 . S
C244 C240 1.391 . S
C244 C243 1.391 . S
C244 C245 1.399 . S
C245 C244 1.399 . S
C245 C248 1.396 . S
C245 C257 1.453 . S
C245 C258 1.684 . S
H246 C270 0.948 . S
C247 C243 1.397 . S
C247 C248 1.394 . S
C247 C266 1.723 . S
C248 C245 1.396 . S
C248 C247 1.394 . S
C248 C278 1.723 . S
H249 C272 0.947 . S
H250 C273 0.948 . S
H251 C279 0.982 . S
H252 C280 0.979 . S
H253 C280 0.980 . S
H254 C280 0.983 . S
H255 C279 0.979 . S
H256 C279 0.977 . S
C257 C245 1.453 . S
C257 H286 0.982 . S
C257 H287 0.979 . S
C257 H288 0.977 . S
C258 C245 1.684 . S
C258 H283 0.979 . S
C258 H284 0.980 . S
C258 H285 0.983 . S
C259 C260 1.391 . S
C259 C264 1.391 . S
C259 H289 0.948 . S
C260 C259 1.391 . S
C260 C261 1.391 . S
C261 C260 1.391 . S
C261 C262 1.392 . S
C261 H290 0.947 . S
C262 C261 1.392 . S
C262 C263 1.419 . S
C262 H291 0.948 . S
C263 C262 1.419 . S
C263 C264 1.391 . S
C263 C267 1.397 . S
C264 C259 1.391 . S
C264 C263 1.391 . S
C264 C265 1.399 . S
C265 C264 1.399 . S
C265 C266 1.396 . S
C265 C268 1.453 . S
C265 C269 1.684 . S
C266 C247 1.723 . S
C266 C265 1.396 . S
C266 C267 1.394 . S
C267 C263 1.397 . S
C267 C266 1.394 . S
C267 C277 1.723 . S
C268 C265 1.453 . S
C268 H292 0.982 . S
C268 H293 0.979 . S
C268 H294 0.977 . S
C269 C265 1.684 . S
C269 H295 0.979 . S
C269 H296 0.980 . S
C269 H297 0.983 . S
C270 H246 0.948 . S
C270 C271 1.391 . S
C270 C275 1.391 . S
C271 C270 1.391 . S
C271 C272 1.391 . S
C272 H249 0.947 . S
C272 C271 1.391 . S
C272 C273 1.392 . S
C273 H250 0.948 . S
C273 C272 1.392 . S
C273 C274 1.419 . S
C274 C273 1.419 . S
C274 C275 1.391 . S
C274 C278 1.397 . S
C275 C270 1.391 . S
C275 C274 1.391 . S
C275 C276 1.399 . S
C276 C275 1.399 . S
C276 C277 1.396 . S
C276 C279 1.453 . S
C276 C280 1.684 . S
C277 C267 1.723 . S
C277 C276 1.396 . S
C277 C278 1.394 . S
C278 C248 1.723 . S
C278 C274 1.397 . S
C278 C277 1.394 . S
C279 H251 0.982 . S
C279 H255 0.979 . S
C279 H256 0.977 . S
C279 C276 1.453 . S
C280 H252 0.979 . S
C280 H253 0.980 . S
C280 H254 0.983 . S
C280 C276 1.684 . S
H281 C299 0.948 . S
H282 C240 0.948 . S
H283 C258 0.979 . S
H284 C258 0.980 . S
H285 C258 0.983 . S
H286 C257 0.982 . S
H287 C257 0.979 . S
H288 C257 0.977 . S
H289 C259 0.948 . S
H290 C261 0.947 . S
H291 C262 0.948 . S
H292 C268 0.982 . S
H293 C268 0.979 . S
H294 C268 0.977 . S
H295 C269 0.979 . S
H296 C269 0.980 . S
H297 C269 0.983 . S
H298 C242 0.947 . S
C299 C242 1.392 . S
C299 C243 1.419 . S
C299 H281 0.948 . S
C300 C301 1.391 . S
C300 C304 1.391 . S
C300 H342 0.948 . S
C301 C300 1.391 . S
C301 C302 1.391 . S
C302 C301 1.391 . S
C302 H358 0.947 . S
C302 C359 1.392 . S
C303 C304 1.391 . S
C303 C307 1.397 . S
C303 C359 1.419 . S
C304 C300 1.391 . S
C304 C303 1.391 . S
C304 C305 1.399 . S
C305 C304 1.399 . S
C305 C308 1.396 . S
C305 C317 1.453 . S
C305 C318 1.684 . S
H306 C330 0.948 . S
C307 C303 1.397 . S
C307 C308 1.394 . S
C307 C326 1.723 . S
C308 C305 1.396 . S
C308 C307 1.394 . S
C308 C338 1.723 . S
H309 C332 0.947 . S
H310 C333 0.948 . S
H311 C339 0.982 . S
H312 C340 0.979 . S
H313 C340 0.980 . S
H314 C340 0.983 . S
H315 C339 0.979 . S
H316 C339 0.977 . S
C317 C305 1.453 . S
C317 H346 0.982 . S
C317 H347 0.979 . S
C317 H348 0.977 . S
C318 C305 1.684 . S
C318 H343 0.979 . S
C318 H344 0.980 . S
C318 H345 0.983 . S
C319 C320 1.391 . S
C319 C324 1.391 . S
C319 H349 0.948 . S
C320 C319 1.391 . S
C320 C321 1.391 . S
C321 C320 1.391 . S
C321 C322 1.392 . S
C321 H350 0.947 . S
C322 C321 1.392 . S
C322 C323 1.419 . S
C322 H351 0.948 . S
C323 C322 1.419 . S
C323 C324 1.391 . S
C323 C327 1.397 . S
C324 C319 1.391 . S
C324 C323 1.391 . S
C324 C325 1.399 . S
C325 C324 1.399 . S
C325 C326 1.396 . S
C325 C328 1.453 . S
C325 C329 1.684 . S
C326 C307 1.723 . S
C326 C325 1.396 . S
C326 C327 1.394 . S
C327 C323 1.397 . S
C327 C326 1.394 . S
C327 C337 1.723 . S
C328 C325 1.453 . S
C328 H352 0.982 . S
C328 H353 0.979 . S
C328 H354 0.977 . S
C329 C325 1.684 . S
C329 H355 0.979 . S
C329 H356 0.980 . S
C329 H357 0.983 . S
C330 H306 0.948 . S
C330 C331 1.391 . S
C330 C335 1.391 . S
C331 C330 1.391 . S
C331 C332 1.391 . S
C332 H309 0.947 . S
C332 C331 1.391 . S
C332 C333 1.392 . S
C333 H310 0.948 . S
C333 C332 1.392 . S
C333 C334 1.419 . S
C334 C333 1.419 . S
C334 C335 1.391 . S
C334 C338 1.397 . S
C335 C330 1.391 . S
C335 C334 1.391 . S
C335 C336 1.399 . S
C336 C335 1.399 . S
C336 C337 1.396 . S
C336 C339 1.453 . S
C336 C340 1.684 . S
C337 C327 1.723 . S
C337 C336 1.396 . S
C337 C338 1.394 . S
C338 C308 1.723 . S
C338 C334 1.397 . S
C338 C337 1.394 . S
C339 H311 0.982 . S
C339 H315 0.979 . S
C339 H316 0.977 . S
C339 C336 1.453 . S
C340 H312 0.979 . S
C340 H313 0.980 . S
C340 H314 0.983 . S
C340 C336 1.684 . S
H341 C359 0.948 . S
H342 C300 0.948 . S
H343 C318 0.979 . S
H344 C318 0.980 . S
H345 C318 0.983 . S
H346 C317 0.982 . S
H347 C317 0.979 . S
H348 C317 0.977 . S
H349 C319 0.948 . S
H350 C321 0.947 . S
H351 C322 0.948 . S
H352 C328 0.982 . S
H353 C328 0.979 . S
H354 C328 0.977 . S
H355 C329 0.979 . S
H356 C329 0.980 . S
H357 C329 0.983 . S
H358 C302 0.947 . S
C359 C302 1.392 . S
C359 C303 1.419 . S
C359 H341 0.948 . S
C360 C361 1.391 . S
C360 C364 1.391 . S
C360 H402 0.948 . S
C361 C360 1.391 . S
C361 C362 1.391 . S
C362 C361 1.391 . S
C362 H418 0.947 . S
C362 C419 1.392 . S
C363 C364 1.391 . S
C363 C367 1.397 . S
C363 C419 1.419 . S
C364 C360 1.391 . S
C364 C363 1.391 . S
C364 C365 1.399 . S
C365 C364 1.399 . S
C365 C368 1.396 . S
C365 C377 1.453 . S
C365 C378 1.684 . S
H366 C390 0.948 . S
C367 C363 1.397 . S
C367 C368 1.394 . S
C367 C386 1.723 . S
C368 C365 1.396 . S
C368 C367 1.394 . S
C368 C398 1.723 . S
H369 C392 0.947 . S
H370 C393 0.948 . S
H371 C399 0.974 1_455 S
H372 C400 0.979 . S
H373 C400 0.980 . S
H374 C400 0.983 . S
H375 C399 0.979 . S
H376 C399 0.977 . S
C377 C365 1.453 . S
C377 H406 0.982 . S
C377 H407 0.979 . S
C377 H408 0.977 . S
C378 C365 1.684 . S
C378 H403 0.979 . S
C378 H404 0.980 . S
C378 H405 0.983 . S
C379 C380 1.391 . S
C379 C384 1.391 . S
C379 H409 0.948 . S
C380 C379 1.391 . S
C380 C381 1.391 . S
C381 C380 1.391 . S
C381 C382 1.392 . S
C381 H410 0.947 . S
C382 C381 1.392 . S
C382 C383 1.419 . S
C382 H411 0.948 . S
C383 C382 1.419 . S
C383 C384 1.391 . S
C383 C387 1.397 . S
C384 C379 1.391 . S
C384 C383 1.391 . S
C384 C385 1.399 . S
C385 C384 1.399 . S
C385 C386 1.396 . S
C385 C388 1.453 . S
C385 C389 1.684 . S
C386 C367 1.723 . S
C386 C385 1.396 . S
C386 C387 1.394 . S
C387 C383 1.397 . S
C387 C386 1.394 . S
C387 C397 1.723 . S
C388 C385 1.453 . S
C388 H412 0.982 1_655 S
C388 H413 0.979 . S
C388 H414 0.977 . S
C389 C385 1.684 . S
C389 H415 0.979 . S
C389 H416 0.980 . S
C389 H417 0.983 . S
C390 H366 0.948 . S
C390 C391 1.391 . S
C390 C395 1.391 . S
C391 C390 1.391 . S
C391 C392 1.391 . S
C392 H369 0.947 . S
C392 C391 1.391 . S
C392 C393 1.392 . S
C393 H370 0.948 . S
C393 C392 1.392 . S
C393 C394 1.419 . S
C394 C393 1.419 . S
C394 C395 1.391 . S
C394 C398 1.397 . S
C395 C390 1.391 . S
C395 C394 1.391 . S
C395 C396 1.399 . S
C396 C395 1.399 . S
C396 C397 1.396 . S
C396 C399 1.453 . S
C396 C400 1.684 . S
C397 C387 1.723 . S
C397 C396 1.396 . S
C397 C398 1.394 . S
C398 C368 1.723 . S
C398 C394 1.397 . S
C398 C397 1.394 . S
C399 H371 0.974 1_655 S
C399 H375 0.979 . S
C399 H376 0.977 . S
C399 C396 1.453 . S
C400 H372 0.979 . S
C400 H373 0.980 . S
C400 H374 0.983 . S
C400 C396 1.684 . S
H401 C419 0.948 . S
H402 C360 0.948 . S
H403 C378 0.979 . S
H404 C378 0.980 . S
H405 C378 0.983 . S
H406 C377 0.982 . S
H407 C377 0.979 . S
H408 C377 0.977 . S
H409 C379 0.948 . S
H410 C381 0.947 . S
H411 C382 0.948 . S
H412 C388 0.982 1_455 S
H413 C388 0.979 . S
H414 C388 0.977 . S
H415 C389 0.979 . S
H416 C389 0.980 . S
H417 C389 0.983 . S
H418 C362 0.947 . S
C419 C362 1.392 . S
C419 C363 1.419 . S
C419 H401 0.948 . S
C420 C421 1.391 . S
C420 C424 1.391 . S
C420 H462 0.948 . S
C421 C420 1.391 . S
C421 C422 1.391 . S
C422 C421 1.391 . S
C422 H478 0.947 . S
C422 C479 1.392 . S
C423 C424 1.391 . S
C423 C427 1.397 . S
C423 C479 1.419 . S
C424 C420 1.391 . S
C424 C423 1.391 . S
C424 C425 1.399 . S
C425 C424 1.399 . S
C425 C428 1.396 . S
C425 C437 1.453 . S
C425 C438 1.684 . S
H426 C450 0.948 . S
C427 C423 1.397 . S
C427 C428 1.394 . S
C427 C446 1.723 . S
C428 C425 1.396 . S
C428 C427 1.394 . S
C428 C458 1.723 . S
H429 C452 0.947 . S
H430 C453 0.948 . S
H431 C459 0.982 . S
H432 C460 0.979 . S
H433 C460 0.980 . S
H434 C460 0.983 . S
H435 C459 0.979 . S
H436 C459 0.977 . S
C437 C425 1.453 . S
C437 H466 0.982 . S
C437 H467 0.979 . S
C437 H468 0.977 . S
C438 C425 1.684 . S
C438 H463 0.979 . S
C438 H464 0.980 . S
C438 H465 0.983 . S
C439 C440 1.391 . S
C439 C444 1.391 . S
C439 H469 0.948 . S
C440 C439 1.391 . S
C440 C441 1.391 . S
C441 C440 1.391 . S
C441 C442 1.392 . S
C441 H470 0.947 . S
C442 C441 1.392 . S
C442 C443 1.419 . S
C442 H471 0.948 . S
C443 C442 1.419 . S
C443 C444 1.391 . S
C443 C447 1.397 . S
C444 C439 1.391 . S
C444 C443 1.391 . S
C444 C445 1.399 . S
C445 C444 1.399 . S
C445 C446 1.396 . S
C445 C448 1.453 . S
C445 C449 1.684 . S
C446 C427 1.723 . S
C446 C445 1.396 . S
C446 C447 1.394 . S
C447 C443 1.397 . S
C447 C446 1.394 . S
C447 C457 1.723 . S
C448 C445 1.453 . S
C448 H472 0.982 . S
C448 H473 0.979 . S
C448 H474 0.977 . S
C449 C445 1.684 . S
C449 H475 0.979 . S
C449 H476 0.980 . S
C449 H477 0.983 . S
C450 H426 0.948 . S
C450 C451 1.391 . S
C450 C455 1.391 . S
C451 C450 1.391 . S
C451 C452 1.391 . S
C452 H429 0.947 . S
C452 C451 1.391 . S
C452 C453 1.392 . S
C453 H430 0.948 . S
C453 C452 1.392 . S
C453 C454 1.419 . S
C454 C453 1.419 . S
C454 C455 1.391 . S
C454 C458 1.397 . S
C455 C450 1.391 . S
C455 C454 1.391 . S
C455 C456 1.399 . S
C456 C455 1.399 . S
C456 C457 1.396 . S
C456 C459 1.453 . S
C456 C460 1.684 . S
C457 C447 1.723 . S
C457 C456 1.396 . S
C457 C458 1.394 . S
C458 C428 1.723 . S
C458 C454 1.397 . S
C458 C457 1.394 . S
C459 H431 0.982 . S
C459 H435 0.979 . S
C459 H436 0.977 . S
C459 C456 1.453 . S
C460 H432 0.979 . S
C460 H433 0.980 . S
C460 H434 0.983 . S
C460 C456 1.684 . S
H461 C479 0.948 . S
H462 C420 0.948 . S
H463 C438 0.979 . S
H464 C438 0.980 . S
H465 C438 0.983 . S
H466 C437 0.982 . S
H467 C437 0.979 . S
H468 C437 0.977 . S
H469 C439 0.948 . S
H470 C441 0.947 . S
H471 C442 0.948 . S
H472 C448 0.982 . S
H473 C448 0.979 . S
H474 C448 0.977 . S
H475 C449 0.979 . S
H476 C449 0.980 . S
H477 C449 0.983 . S
H478 C422 0.947 . S
C479 C422 1.392 . S
C479 C423 1.419 . S
C479 H461 0.948 . S
C480 C481 1.391 . S
C480 C484 1.391 . S
C480 H522 0.948 . S
C481 C480 1.391 . S
C481 C482 1.391 . S
C482 C481 1.391 . S
C482 H538 0.947 . S
C482 C539 1.392 . S
C483 C484 1.391 . S
C483 C487 1.397 . S
C483 C539 1.419 . S
C484 C480 1.391 . S
C484 C483 1.391 . S
C484 C485 1.399 . S
C485 C484 1.399 . S
C485 C488 1.396 . S
C485 C497 1.453 . S
C485 C498 1.684 . S
H486 C510 0.948 . S
C487 C483 1.397 . S
C487 C488 1.394 . S
C487 C506 1.723 . S
C488 C485 1.396 . S
C488 C487 1.394 . S
C488 C518 1.723 . S
H489 C512 0.947 . S
H490 C513 0.948 . S
H491 C519 0.982 . S
H492 C520 0.979 . S
H493 C520 0.980 . S
H494 C520 0.983 . S
H495 C519 0.979 . S
H496 C519 0.977 . S
C497 C485 1.453 . S
C497 H526 0.982 . S
C497 H527 0.979 . S
C497 H528 0.977 . S
C498 C485 1.684 . S
C498 H523 0.979 . S
C498 H524 0.980 . S
C498 H525 0.983 . S
C499 C500 1.391 . S
C499 C504 1.391 . S
C499 H529 0.948 . S
C500 C499 1.391 . S
C500 C501 1.391 . S
C501 C500 1.391 . S
C501 C502 1.392 . S
C501 H530 0.947 . S
C502 C501 1.392 . S
C502 C503 1.419 . S
C502 H531 0.948 . S
C503 C502 1.419 . S
C503 C504 1.391 . S
C503 C507 1.397 . S
C504 C499 1.391 . S
C504 C503 1.391 . S
C504 C505 1.399 . S
C505 C504 1.399 . S
C505 C506 1.396 . S
C505 C508 1.453 . S
C505 C509 1.684 . S
C506 C487 1.723 . S
C506 C505 1.396 . S
C506 C507 1.394 . S
C507 C503 1.397 . S
C507 C506 1.394 . S
C507 C517 1.723 . S
C508 C505 1.453 . S
C508 H532 0.982 . S
C508 H533 0.979 . S
C508 H534 0.977 . S
C509 C505 1.684 . S
C509 H535 0.979 . S
C509 H536 0.980 . S
C509 H537 0.983 . S
C510 H486 0.948 . S
C510 C511 1.391 . S
C510 C515 1.391 . S
C511 C510 1.391 . S
C511 C512 1.391 . S
C512 H489 0.947 . S
C512 C511 1.391 . S
C512 C513 1.392 . S
C513 H490 0.948 . S
C513 C512 1.392 . S
C513 C514 1.419 . S
C514 C513 1.419 . S
C514 C515 1.391 . S
C514 C518 1.397 . S
C515 C510 1.391 . S
C515 C514 1.391 . S
C515 C516 1.399 . S
C516 C515 1.399 . S
C516 C517 1.396 . S
C516 C519 1.453 . S
C516 C520 1.684 . S
C517 C507 1.723 . S
C517 C516 1.396 . S
C517 C518 1.394 . S
C518 C488 1.723 . S
C518 C514 1.397 . S
C518 C517 1.394 . S
C519 H491 0.982 . S
C519 H495 0.979 . S
C519 H496 0.977 . S
C519 C516 1.453 . S
C520 H492 0.979 . S
C520 H493 0.980 . S
C520 H494 0.983 . S
C520 C516 1.684 . S
H521 C539 0.948 . S
H522 C480 0.948 . S
H523 C498 0.979 . S
H524 C498 0.980 . S
H525 C498 0.983 . S
H526 C497 0.982 . S
H527 C497 0.979 . S
H528 C497 0.977 . S
H529 C499 0.948 . S
H530 C501 0.947 . S
H531 C502 0.948 . S
H532 C508 0.982 . S
H533 C508 0.979 . S
H534 C508 0.977 . S
H535 C509 0.979 . S
H536 C509 0.980 . S
H537 C509 0.983 . S
H538 C482 0.947 . S
C539 C482 1.392 . S
C539 C483 1.419 . S
C539 H521 0.948 . S
C540 C541 1.391 . S
C540 C544 1.391 . S
C540 H582 0.948 . S
C541 C540 1.391 . S
C541 C542 1.391 . S
C542 C541 1.391 . S
C542 H598 0.947 . S
C542 C599 1.392 . S
C543 C544 1.391 . S
C543 C547 1.397 . S
C543 C599 1.419 . S
C544 C540 1.391 . S
C544 C543 1.391 . S
C544 C545 1.399 . S
C545 C544 1.399 . S
C545 C548 1.396 . S
C545 C557 1.453 . S
C545 C558 1.684 . S
H546 C570 0.948 . S
C547 C543 1.397 . S
C547 C548 1.394 . S
C547 C566 1.723 . S
C548 C545 1.396 . S
C548 C547 1.394 . S
C548 C578 1.723 . S
H549 C572 0.947 . S
H550 C573 0.948 . S
H551 C579 0.982 . S
H552 C580 0.979 . S
H553 C580 0.980 . S
H554 C580 0.983 . S
H555 C579 0.979 . S
H556 C579 0.977 . S
C557 C545 1.453 . S
C557 H586 0.982 . S
C557 H587 0.979 . S
C557 H588 0.977 . S
C558 C545 1.684 . S
C558 H583 0.979 . S
C558 H584 0.980 . S
C558 H585 0.983 . S
C559 C560 1.391 . S
C559 C564 1.391 . S
C559 H589 0.948 . S
C560 C559 1.391 . S
C560 C561 1.391 . S
C561 C560 1.391 . S
C561 C562 1.392 . S
C561 H590 0.947 . S
C562 C561 1.392 . S
C562 C563 1.419 . S
C562 H591 0.948 . S
C563 C562 1.419 . S
C563 C564 1.391 . S
C563 C567 1.397 . S
C564 C559 1.391 . S
C564 C563 1.391 . S
C564 C565 1.399 . S
C565 C564 1.399 . S
C565 C566 1.396 . S
C565 C568 1.453 . S
C565 C569 1.684 . S
C566 C547 1.723 . S
C566 C565 1.396 . S
C566 C567 1.394 . S
C567 C563 1.397 . S
C567 C566 1.394 . S
C567 C577 1.723 . S
C568 C565 1.453 . S
C568 H592 0.982 . S
C568 H593 0.979 . S
C568 H594 0.977 . S
C569 C565 1.684 . S
C569 H595 0.979 . S
C569 H596 0.980 . S
C569 H597 0.983 . S
C570 H546 0.948 . S
C570 C571 1.391 . S
C570 C575 1.391 . S
C571 C570 1.391 . S
C571 C572 1.391 . S
C572 H549 0.947 . S
C572 C571 1.391 . S
C572 C573 1.392 . S
C573 H550 0.948 . S
C573 C572 1.392 . S
C573 C574 1.419 . S
C574 C573 1.419 . S
C574 C575 1.391 . S
C574 C578 1.397 . S
C575 C570 1.391 . S
C575 C574 1.391 . S
C575 C576 1.399 . S
C576 C575 1.399 . S
C576 C577 1.396 . S
C576 C579 1.453 . S
C576 C580 1.684 . S
C577 C567 1.723 . S
C577 C576 1.396 . S
C577 C578 1.394 . S
C578 C548 1.723 . S
C578 C574 1.397 . S
C578 C577 1.394 . S
C579 H551 0.982 . S
C579 H555 0.979 . S
C579 H556 0.977 . S
C579 C576 1.453 . S
C580 H552 0.979 . S
C580 H553 0.980 . S
C580 H554 0.983 . S
C580 C576 1.684 . S
H581 C599 0.948 . S
H582 C540 0.948 . S
H583 C558 0.979 . S
H584 C558 0.980 . S
H585 C558 0.983 . S
H586 C557 0.982 . S
H587 C557 0.979 . S
H588 C557 0.977 . S
H589 C559 0.948 . S
H590 C561 0.947 . S
H591 C562 0.948 . S
H592 C568 0.982 . S
H593 C568 0.979 . S
H594 C568 0.977 . S
H595 C569 0.979 . S
H596 C569 0.980 . S
H597 C569 0.983 . S
H598 C542 0.947 . S
C599 C542 1.392 . S
C599 C543 1.419 . S
C599 H581 0.948 . S
C600 C601 1.391 . S
C600 C604 1.391 . S
C600 H642 0.948 . S
C601 C600 1.391 . S
C601 C602 1.391 . S
C602 C601 1.391 . S
C602 H658 0.947 . S
C602 C659 1.392 . S
C603 C604 1.391 . S
C603 C607 1.397 . S
C603 C659 1.419 . S
C604 C600 1.391 . S
C604 C603 1.391 . S
C604 C605 1.399 . S
C605 C604 1.399 . S
C605 C608 1.396 . S
C605 C617 1.453 . S
C605 C618 1.684 . S
H606 C630 0.948 . S
C607 C603 1.397 . S
C607 C608 1.394 . S
C607 C626 1.723 . S
C608 C605 1.396 . S
C608 C607 1.394 . S
C608 C638 1.723 . S
H609 C632 0.947 . S
H610 C633 0.948 . S
H611 C639 0.982 . S
H612 C640 0.979 . S
H613 C640 0.980 . S
H614 C640 0.983 . S
H615 C639 0.979 . S
H616 C639 0.977 . S
C617 C605 1.453 . S
C617 H646 0.982 . S
C617 H647 0.979 . S
C617 H648 0.977 . S
C618 C605 1.684 . S
C618 H643 0.979 . S
C618 H644 0.980 . S
C618 H645 0.983 . S
C619 C620 1.391 . S
C619 C624 1.391 . S
C619 H649 0.948 . S
C620 C619 1.391 . S
C620 C621 1.391 . S
C621 C620 1.391 . S
C621 C622 1.392 . S
C621 H650 0.947 . S
C622 C621 1.392 . S
C622 C623 1.419 . S
C622 H651 0.948 . S
C623 C622 1.419 . S
C623 C624 1.391 . S
C623 C627 1.397 . S
C624 C619 1.391 . S
C624 C623 1.391 . S
C624 C625 1.399 . S
C625 C624 1.399 . S
C625 C626 1.396 . S
C625 C628 1.453 . S
C625 C629 1.684 . S
C626 C607 1.723 . S
C626 C625 1.396 . S
C626 C627 1.394 . S
C627 C623 1.397 . S
C627 C626 1.394 . S
C627 C637 1.723 . S
C628 C625 1.453 . S
C628 H652 0.982 . S
C628 H653 0.979 . S
C628 H654 0.977 . S
C629 C625 1.684 . S
C629 H655 0.979 . S
C629 H656 0.980 . S
C629 H657 0.983 . S
C630 H606 0.948 . S
C630 C631 1.391 . S
C630 C635 1.391 . S
C631 C630 1.391 . S
C631 C632 1.391 . S
C632 H609 0.947 . S
C632 C631 1.391 . S
C632 C633 1.392 . S
C633 H610 0.948 . S
C633 C632 1.392 . S
C633 C634 1.419 . S
C634 C633 1.419 . S
C634 C635 1.391 . S
C634 C638 1.397 . S
C635 C630 1.391 . S
C635 C634 1.391 . S
C635 C636 1.399 . S
C636 C635 1.399 . S
C636 C637 1.396 . S
C636 C639 1.453 . S
C636 C640 1.684 . S
C637 C627 1.723 . S
C637 C636 1.396 . S
C637 C638 1.394 . S
C638 C608 1.723 . S
C638 C634 1.397 . S
C638 C637 1.394 . S
C639 H611 0.982 . S
C639 H615 0.979 . S
C639 H616 0.977 . S
C639 C636 1.453 . S
C640 H612 0.979 . S
C640 H613 0.980 . S
C640 H614 0.983 . S
C640 C636 1.684 . S
H641 C659 0.948 . S
H642 C600 0.948 . S
H643 C618 0.979 . S
H644 C618 0.980 . S
H645 C618 0.983 . S
H646 C617 0.982 . S
H647 C617 0.979 . S
H648 C617 0.977 . S
H649 C619 0.948 . S
H650 C621 0.947 . S
H651 C622 0.948 . S
H652 C628 0.982 . S
H653 C628 0.979 . S
H654 C628 0.977 . S
H655 C629 0.979 . S
H656 C629 0.980 . S
H657 C629 0.983 . S
H658 C602 0.947 . S
C659 C602 1.392 . S
C659 C603 1.419 . S
C659 H641 0.948 . S
C660 C661 1.391 . S
C660 C664 1.391 . S
C660 H702 0.948 . S
C661 C660 1.391 . S
C661 C662 1.391 . S
C662 C661 1.391 . S
C662 H718 0.947 . S
C662 C719 1.392 . S
C663 C664 1.391 . S
C663 C667 1.397 . S
C663 C719 1.419 . S
C664 C660 1.391 . S
C664 C663 1.391 . S
C664 C665 1.399 . S
C665 C664 1.399 . S
C665 C668 1.396 . S
C665 C677 1.453 . S
C665 C678 1.684 . S
H666 C690 0.948 . S
C667 C663 1.397 . S
C667 C668 1.394 . S
C667 C686 1.723 . S
C668 C665 1.396 . S
C668 C667 1.394 . S
C668 C698 1.723 . S
H669 C692 0.947 . S
H670 C693 0.948 . S
H671 C699 0.982 . S
H672 C700 0.979 . S
H673 C700 0.980 . S
H674 C700 0.983 . S
H675 C699 0.979 . S
H676 C699 0.977 . S
C677 C665 1.453 . S
C677 H706 0.982 . S
C677 H707 0.979 . S
C677 H708 0.977 . S
C678 C665 1.684 . S
C678 H703 0.979 . S
C678 H704 0.980 . S
C678 H705 0.983 . S
C679 C680 1.391 . S
C679 C684 1.391 . S
C679 H709 0.948 . S
C680 C679 1.391 . S
C680 C681 1.391 . S
C681 C680 1.391 . S
C681 C682 1.392 . S
C681 H710 0.947 . S
C682 C681 1.392 . S
C682 C683 1.419 . S
C682 H711 0.948 . S
C683 C682 1.419 . S
C683 C684 1.391 . S
C683 C687 1.397 . S
C684 C679 1.391 . S
C684 C683 1.391 . S
C684 C685 1.399 . S
C685 C684 1.399 . S
C685 C686 1.396 . S
C685 C688 1.453 . S
C685 C689 1.684 . S
C686 C667 1.723 . S
C686 C685 1.396 . S
C686 C687 1.394 . S
C687 C683 1.397 . S
C687 C686 1.394 . S
C687 C697 1.723 . S
C688 C685 1.453 . S
C688 H712 0.982 . S
C688 H713 0.979 . S
C688 H714 0.977 . S
C689 C685 1.684 . S
C689 H715 0.979 . S
C689 H716 0.980 . S
C689 H717 0.983 . S
C690 H666 0.948 . S
C690 C691 1.391 . S
C690 C695 1.391 . S
C691 C690 1.391 . S
C691 C692 1.391 . S
C692 H669 0.947 . S
C692 C691 1.391 . S
C692 C693 1.392 . S
C693 H670 0.948 . S
C693 C692 1.392 . S
C693 C694 1.419 . S
C694 C693 1.419 . S
C694 C695 1.391 . S
C694 C698 1.397 . S
C695 C690 1.391 . S
C695 C694 1.391 . S
C695 C696 1.399 . S
C696 C695 1.399 . S
C696 C697 1.396 . S
C696 C699 1.453 . S
C696 C700 1.684 . S
C697 C687 1.723 . S
C697 C696 1.396 . S
C697 C698 1.394 . S
C698 C668 1.723 . S
C698 C694 1.397 . S
C698 C697 1.394 . S
C699 H671 0.982 . S
C699 H675 0.979 . S
C699 H676 0.977 . S
C699 C696 1.453 . S
C700 H672 0.979 . S
C700 H673 0.980 . S
C700 H674 0.983 . S
C700 C696 1.684 . S
H701 C719 0.948 . S
H702 C660 0.948 . S
H703 C678 0.979 . S
H704 C678 0.980 . S
H705 C678 0.983 . S
H706 C677 0.982 . S
H707 C677 0.979 . S
H708 C677 0.977 . S
H709 C679 0.948 . S
H710 C681 0.947 . S
H711 C682 0.948 . S
H712 C688 0.982 . S
H713 C688 0.979 . S
H714 C688 0.977 . S
H715 C689 0.979 . S
H716 C689 0.980 . S
H717 C689 0.983 . S
H718 C662 0.947 . S
C719 C662 1.392 . S
C719 C663 1.419 . S
C719 H701 0.948 . S
C720 C721 1.391 . S
C720 C724 1.391 . S
C720 H762 0.948 . S
C721 C720 1.391 . S
C721 C722 1.391 . S
C722 C721 1.391 . S
C722 H778 0.947 . S
C722 C779 1.392 . S
C723 C724 1.391 . S
C723 C727 1.397 . S
C723 C779 1.419 . S
C724 C720 1.391 . S
C724 C723 1.391 . S
C724 C725 1.399 . S
C725 C724 1.399 . S
C725 C728 1.396 . S
C725 C737 1.453 . S
C725 C738 1.684 . S
H726 C750 0.948 . S
C727 C723 1.397 . S
C727 C728 1.394 . S
C727 C746 1.723 . S
C728 C725 1.396 . S
C728 C727 1.394 . S
C728 C758 1.723 . S
H729 C752 0.947 . S
H730 C753 0.948 . S
H731 C759 0.982 . S
H732 C760 0.979 . S
H733 C760 0.980 . S
H734 C760 0.983 . S
H735 C759 0.979 . S
H736 C759 0.977 . S
C737 C725 1.453 . S
C737 H766 0.982 . S
C737 H767 0.979 . S
C737 H768 0.977 . S
C738 C725 1.684 . S
C738 H763 0.979 . S
C738 H764 0.980 . S
C738 H765 0.983 . S
C739 C740 1.391 . S
C739 C744 1.391 . S
C739 H769 0.948 . S
C740 C739 1.391 . S
C740 C741 1.391 . S
C741 C740 1.391 . S
C741 C742 1.392 . S
C741 H770 0.947 . S
C742 C741 1.392 . S
C742 C743 1.419 . S
C742 H771 0.948 . S
C743 C742 1.419 . S
C743 C744 1.391 . S
C743 C747 1.397 . S
C744 C739 1.391 . S
C744 C743 1.391 . S
C744 C745 1.399 . S
C745 C744 1.399 . S
C745 C746 1.396 . S
C745 C748 1.453 . S
C745 C749 1.684 . S
C746 C727 1.723 . S
C746 C745 1.396 . S
C746 C747 1.394 . S
C747 C743 1.397 . S
C747 C746 1.394 . S
C747 C757 1.723 . S
C748 C745 1.453 . S
C748 H772 0.982 . S
C748 H773 0.979 . S
C748 H774 0.977 . S
C749 C745 1.684 . S
C749 H775 0.979 . S
C749 H776 0.980 . S
C749 H777 0.983 . S
C750 H726 0.948 . S
C750 C751 1.391 . S
C750 C755 1.391 . S
C751 C750 1.391 . S
C751 C752 1.391 . S
C752 H729 0.947 . S
C752 C751 1.391 . S
C752 C753 1.392 . S
C753 H730 0.948 . S
C753 C752 1.392 . S
C753 C754 1.419 . S
C754 C753 1.419 . S
C754 C755 1.391 . S
C754 C758 1.397 . S
C755 C750 1.391 . S
C755 C754 1.391 . S
C755 C756 1.399 . S
C756 C755 1.399 . S
C756 C757 1.396 . S
C756 C759 1.453 . S
C756 C760 1.684 . S
C757 C747 1.723 . S
C757 C756 1.396 . S
C757 C758 1.394 . S
C758 C728 1.723 . S
C758 C754 1.397 . S
C758 C757 1.394 . S
C759 H731 0.982 . S
C759 H735 0.979 . S
C759 H736 0.977 . S
C759 C756 1.453 . S
C760 H732 0.979 . S
C760 H733 0.980 . S
C760 H734 0.983 . S
C760 C756 1.684 . S
H761 C779 0.948 . S
H762 C720 0.948 . S
H763 C738 0.979 . S
H764 C738 0.980 . S
H765 C738 0.983 . S
H766 C737 0.982 . S
H767 C737 0.979 . S
H768 C737 0.977 . S
H769 C739 0.948 . S
H770 C741 0.947 . S
H771 C742 0.948 . S
H772 C748 0.982 . S
H773 C748 0.979 . S
H774 C748 0.977 . S
H775 C749 0.979 . S
H776 C749 0.980 . S
H777 C749 0.983 . S
H778 C722 0.947 . S
C779 C722 1.392 . S
C779 C723 1.419 . S
C779 H761 0.948 . S
C780 C781 1.391 . S
C780 C784 1.391 . S
C780 H822 0.948 . S
C781 C780 1.391 . S
C781 C782 1.391 . S
C782 C781 1.391 . S
C782 H838 0.947 . S
C782 C839 1.392 . S
C783 C784 1.391 . S
C783 C787 1.397 . S
C783 C839 1.419 . S
C784 C780 1.391 . S
C784 C783 1.391 . S
C784 C785 1.399 . S
C785 C784 1.399 . S
C785 C788 1.396 . S
C785 C797 1.453 . S
C785 C798 1.684 . S
H786 C810 0.948 . S
C787 C783 1.397 . S
C787 C788 1.394 . S
C787 C806 1.723 . S
C788 C785 1.396 . S
C788 C787 1.394 . S
C788 C818 1.723 . S
H789 C812 0.947 . S
H790 C813 0.948 . S
H791 C819 0.982 . S
H792 C820 0.979 . S
H793 C820 0.980 . S
H794 C820 0.983 . S
H795 C819 0.979 . S
H796 C819 0.977 . S
C797 C785 1.453 . S
C797 H826 0.982 . S
C797 H827 0.979 . S
C797 H828 0.977 . S
C798 C785 1.684 . S
C798 H823 0.979 . S
C798 H824 0.980 . S
C798 H825 0.983 . S
C799 C800 1.391 . S
C799 C804 1.391 . S
C799 H829 0.948 . S
C800 C799 1.391 . S
C800 C801 1.391 . S
C801 C800 1.391 . S
C801 C802 1.392 . S
C801 H830 0.947 . S
C802 C801 1.392 . S
C802 C803 1.419 . S
C802 H831 0.948 . S
C803 C802 1.419 . S
C803 C804 1.391 . S
C803 C807 1.397 . S
C804 C799 1.391 . S
C804 C803 1.391 . S
C804 C805 1.399 . S
C805 C804 1.399 . S
C805 C806 1.396 . S
C805 C808 1.453 . S
C805 C809 1.684 . S
C806 C787 1.723 . S
C806 C805 1.396 . S
C806 C807 1.394 . S
C807 C803 1.397 . S
C807 C806 1.394 . S
C807 C817 1.723 . S
C808 C805 1.453 . S
C808 H832 0.982 . S
C808 H833 0.979 . S
C808 H834 0.977 . S
C809 C805 1.684 . S
C809 H835 0.979 . S
C809 H836 0.980 . S
C809 H837 0.983 . S
C810 H786 0.948 . S
C810 C811 1.391 . S
C810 C815 1.391 . S
C811 C810 1.391 . S
C811 C812 1.391 . S
C812 H789 0.947 . S
C812 C811 1.391 . S
C812 C813 1.392 . S
C813 H790 0.948 . S
C813 C812 1.392 . S
C813 C814 1.419 . S
C814 C813 1.419 . S
C814 C815 1.391 . S
C814 C818 1.397 . S
C815 C810 1.391 . S
C815 C814 1.391 . S
C815 C816 1.399 . S
C816 C815 1.399 . S
C816 C817 1.396 . S
C816 C819 1.453 . S
C816 C820 1.684 . S
C817 C807 1.723 . S
C817 C816 1.396 . S
C817 C818 1.394 . S
C818 C788 1.723 . S
C818 C814 1.397 . S
C818 C817 1.394 . S
C819 H791 0.982 . S
C819 H795 0.979 . S
C819 H796 0.977 . S
C819 C816 1.453 . S
C820 H792 0.979 . S
C820 H793 0.980 . S
C820 H794 0.983 . S
C820 C816 1.684 . S
H821 C839 0.948 . S
H822 C780 0.948 . S
H823 C798 0.979 . S
H824 C798 0.980 . S
H825 C798 0.983 . S
H826 C797 0.982 . S
H827 C797 0.979 . S
H828 C797 0.977 . S
H829 C799 0.948 . S
H830 C801 0.947 . S
H831 C802 0.948 . S
H832 C808 0.982 . S
H833 C808 0.979 . S
H834 C808 0.977 . S
H835 C809 0.979 . S
H836 C809 0.980 . S
H837 C809 0.983 . S
H838 C782 0.947 . S
C839 C782 1.392 . S
C839 C783 1.419 . S
C839 H821 0.948 . S
C840 C841 1.391 . S
C840 C844 1.391 . S
C840 H882 0.948 . S
C841 C840 1.391 . S
C841 C842 1.391 . S
C842 C841 1.391 . S
C842 H898 0.947 . S
C842 C899 1.392 . S
C843 C844 1.391 . S
C843 C847 1.397 . S
C843 C899 1.419 . S
C844 C840 1.391 . S
C844 C843 1.391 . S
C844 C845 1.399 . S
C845 C844 1.399 . S
C845 C848 1.396 . S
C845 C857 1.453 . S
C845 C858 1.684 . S
H846 C870 0.948 . S
C847 C843 1.397 . S
C847 C848 1.394 . S
C847 C866 1.723 . S
C848 C845 1.396 . S
C848 C847 1.394 . S
C848 C878 1.723 . S
H849 C872 0.947 . S
H850 C873 0.948 . S
H851 C879 0.982 . S
H852 C880 0.979 . S
H853 C880 0.980 . S
H854 C880 0.983 . S
H855 C879 0.979 . S
H856 C879 0.977 . S
C857 C845 1.453 . S
C857 H886 0.982 . S
C857 H887 0.979 . S
C857 H888 0.977 . S
C858 C845 1.684 . S
C858 H883 0.979 . S
C858 H884 0.980 . S
C858 H885 0.983 . S
C859 C860 1.391 . S
C859 C864 1.391 . S
C859 H889 0.948 . S
C860 C859 1.391 . S
C860 C861 1.391 . S
C861 C860 1.391 . S
C861 C862 1.392 . S
C861 H890 0.947 . S
C862 C861 1.392 . S
C862 C863 1.419 . S
C862 H891 0.948 . S
C863 C862 1.419 . S
C863 C864 1.391 . S
C863 C867 1.397 . S
C864 C859 1.391 . S
C864 C863 1.391 . S
C864 C865 1.399 . S
C865 C864 1.399 . S
C865 C866 1.396 . S
C865 C868 1.453 . S
C865 C869 1.684 . S
C866 C847 1.723 . S
C866 C865 1.396 . S
C866 C867 1.394 . S
C867 C863 1.397 . S
C867 C866 1.394 . S
C867 C877 1.723 . S
C868 C865 1.453 . S
C868 H892 0.982 . S
C868 H893 0.979 . S
C868 H894 0.977 . S
C869 C865 1.684 . S
C869 H895 0.979 . S
C869 H896 0.980 . S
C869 H897 0.983 . S
C870 H846 0.948 . S
C870 C871 1.391 . S
C870 C875 1.391 . S
C871 C870 1.391 . S
C871 C872 1.391 . S
C872 H849 0.947 . S
C872 C871 1.391 . S
C872 C873 1.392 . S
C873 H850 0.948 . S
C873 C872 1.392 . S
C873 C874 1.419 . S
C874 C873 1.419 . S
C874 C875 1.391 . S
C874 C878 1.397 . S
C875 C870 1.391 . S
C875 C874 1.391 . S
C875 C876 1.399 . S
C876 C875 1.399 . S
C876 C877 1.396 . S
C876 C879 1.453 . S
C876 C880 1.684 . S
C877 C867 1.723 . S
C877 C876 1.396 . S
C877 C878 1.394 . S
C878 C848 1.723 . S
C878 C874 1.397 . S
C878 C877 1.394 . S
C879 H851 0.982 . S
C879 H855 0.979 . S
C879 H856 0.977 . S
C879 C876 1.453 . S
C880 H852 0.979 . S
C880 H853 0.980 . S
C880 H854 0.983 . S
C880 C876 1.684 . S
H881 C899 0.948 . S
H882 C840 0.948 . S
H883 C858 0.979 . S
H884 C858 0.980 . S
H885 C858 0.983 . S
H886 C857 0.982 . S
H887 C857 0.979 . S
H888 C857 0.977 . S
H889 C859 0.948 . S
H890 C861 0.947 . S
H891 C862 0.948 . S
H892 C868 0.982 . S
H893 C868 0.979 . S
H894 C868 0.977 . S
H895 C869 0.979 . S
H896 C869 0.980 . S
H897 C869 0.983 . S
H898 C842 0.947 . S
C899 C842 1.392 . S
C899 C843 1.419 . S
C899 H881 0.948 . S
C900 C901 1.391 . S
C900 C904 1.391 . S
C900 H942 0.948 . S
C901 C900 1.391 . S
C901 C902 1.391 . S
C902 C901 1.391 . S
C902 H958 0.947 . S
C902 C959 1.392 . S
C903 C904 1.391 . S
C903 C907 1.397 . S
C903 C959 1.419 . S
C904 C900 1.391 . S
C904 C903 1.391 . S
C904 C905 1.399 . S
C905 C904 1.399 . S
C905 C908 1.396 . S
C905 C917 1.453 . S
C905 C918 1.684 . S
H906 C930 0.948 . S
C907 C903 1.397 . S
C907 C908 1.394 . S
C907 C926 1.723 . S
C908 C905 1.396 . S
C908 C907 1.394 . S
C908 C938 1.723 . S
H909 C932 0.947 . S
H910 C933 0.948 . S
H911 C939 0.982 . S
H912 C940 0.979 . S
H913 C940 0.980 . S
H914 C940 0.983 . S
H915 C939 0.979 . S
H916 C939 0.977 . S
C917 C905 1.453 . S
C917 H946 0.982 . S
C917 H947 0.979 . S
C917 H948 0.977 . S
C918 C905 1.684 . S
C918 H943 0.979 . S
C918 H944 0.980 . S
C918 H945 0.983 . S
C919 C920 1.391 . S
C919 C924 1.391 . S
C919 H949 0.948 . S
C920 C919 1.391 . S
C920 C921 1.391 . S
C921 C920 1.391 . S
C921 C922 1.392 . S
C921 H950 0.947 . S
C922 C921 1.392 . S
C922 C923 1.419 . S
C922 H951 0.948 . S
C923 C922 1.419 . S
C923 C924 1.391 . S
C923 C927 1.397 . S
C924 C919 1.391 . S
C924 C923 1.391 . S
C924 C925 1.399 . S
C925 C924 1.399 . S
C925 C926 1.396 . S
C925 C928 1.453 . S
C925 C929 1.684 . S
C926 C907 1.723 . S
C926 C925 1.396 . S
C926 C927 1.394 . S
C927 C923 1.397 . S
C927 C926 1.394 . S
C927 C937 1.723 . S
C928 C925 1.453 . S
C928 H952 0.982 . S
C928 H953 0.979 . S
C928 H954 0.977 . S
C929 C925 1.684 . S
C929 H955 0.979 . S
C929 H956 0.980 . S
C929 H957 0.983 . S
C930 H906 0.948 . S
C930 C931 1.391 . S
C930 C935 1.391 . S
C931 C930 1.391 . S
C931 C932 1.391 . S
C932 H909 0.947 . S
C932 C931 1.391 . S
C932 C933 1.392 . S
C933 H910 0.948 . S
C933 C932 1.392 . S
C933 C934 1.419 . S
C934 C933 1.419 . S
C934 C935 1.391 . S
C934 C938 1.397 . S
C935 C930 1.391 . S
C935 C934 1.391 . S
C935 C936 1.399 . S
C936 C935 1.399 . S
C936 C937 1.396 . S
C936 C939 1.453 . S
C936 C940 1.684 . S
C937 C927 1.723 . S
C937 C936 1.396 . S
C937 C938 1.394 . S
C938 C908 1.723 . S
C938 C934 1.397 . S
C938 C937 1.394 . S
C939 H911 0.982 . S
C939 H915 0.979 . S
C939 H916 0.977 . S
C939 C936 1.453 . S
C940 H912 0.979 . S
C940 H913 0.980 . S
C940 H914 0.983 . S
C940 C936 1.684 . S
H941 C959 0.948 . S
H942 C900 0.948 . S
H943 C918 0.979 . S
H944 C918 0.980 . S
H945 C918 0.983 . S
H946 C917 0.982 . S
H947 C917 0.979 . S
H948 C917 0.977 . S
H949 C919 0.948 . S
H950 C921 0.947 . S
H951 C922 0.948 . S
H952 C928 0.982 . S
H953 C928 0.979 . S
H954 C928 0.977 . S
H955 C929 0.979 . S
H956 C929 0.980 . S
H957 C929 0.983 . S
H958 C902 0.947 . S
C959 C902 1.392 . S
C959 C903 1.419 . S
C959 H941 0.948 . S
C960 C961 1.391 . S
C960 C964 1.391 . S
C960 H1002 0.948 . S
C961 C960 1.391 . S
C961 C962 1.391 . S
C962 C961 1.391 . S
C962 H1018 0.947 . S
C962 C1019 1.392 . S
C963 C964 1.391 . S
C963 C967 1.397 . S
C963 C1019 1.419 . S
C964 C960 1.391 . S
C964 C963 1.391 . S
C964 C965 1.399 . S
C965 C964 1.399 . S
C965 C968 1.396 . S
C965 C977 1.453 . S
C965 C978 1.684 . S
H966 C990 0.948 . S
C967 C963 1.397 . S
C967 C968 1.394 . S
C967 C986 1.723 . S
C968 C965 1.396 . S
C968 C967 1.394 . S
C968 C998 1.723 . S
H969 C992 0.947 . S
H970 C993 0.948 . S
H971 C999 0.982 . S
H972 C1000 0.979 1_655 S
H973 C1000 0.980 . S
H974 C1000 0.983 . S
H975 C999 0.979 . S
H976 C999 0.977 . S
C977 C965 1.453 . S
C977 H1006 0.982 . S
C977 H1007 0.979 . S
C977 H1008 0.977 . S
C978 C965 1.684 . S
C978 H1003 0.979 . S
C978 H1004 0.980 . S
C978 H1005 0.983 . S
C979 C980 1.391 . S
C979 C984 1.391 . S
C979 H1009 0.948 . S
C980 C979 1.391 . S
C980 C981 1.391 . S
C981 C980 1.391 . S
C981 C982 1.392 . S
C981 H1010 0.947 . S
C982 C981 1.392 . S
C982 C983 1.419 . S
C982 H1011 0.948 . S
C983 C982 1.419 . S
C983 C984 1.391 . S
C983 C987 1.397 . S
C984 C979 1.391 . S
C984 C983 1.391 . S
C984 C985 1.399 . S
C985 C984 1.399 . S
C985 C986 1.396 . S
C985 C988 1.453 . S
C985 C989 1.680 1_455 S
C986 C967 1.723 . S
C986 C985 1.396 . S
C986 C987 1.394 . S
C987 C983 1.397 . S
C987 C986 1.394 . S
C987 C997 1.723 . S
C988 C985 1.453 . S
C988 H1012 0.982 . S
C988 H1013 0.979 . S
C988 H1014 0.977 . S
C989 C985 1.680 1_655 S
C989 H1015 1.005 . S
C989 H1016 0.964 1_655 S
C989 H1017 0.977 . S
C990 H966 0.948 . S
C990 C991 1.391 . S
C990 C995 1.391 . S
C991 C990 1.391 . S
C991 C992 1.391 . S
C992 H969 0.947 . S
C992 C991 1.391 . S
C992 C993 1.392 . S
C993 H970 0.948 . S
C993 C992 1.392 . S
C993 C994 1.419 . S
C994 C993 1.419 . S
C994 C995 1.391 . S
C994 C998 1.397 . S
C995 C990 1.391 . S
C995 C994 1.391 . S
C995 C996 1.399 . S
C996 C995 1.399 . S
C996 C997 1.396 . S
C996 C999 1.453 . S
C996 C1000 1.684 . S
C997 C987 1.723 . S
C997 C996 1.396 . S
C997 C998 1.394 . S
C998 C968 1.723 . S
C998 C994 1.397 . S
C998 C997 1.394 . S
C999 H971 0.982 . S
C999 H975 0.979 . S
C999 H976 0.977 . S
C999 C996 1.453 . S
C1000 H972 0.979 1_455 S
C1000 H973 0.980 . S
C1000 H974 0.983 . S
C1000 C996 1.684 . S
H1001 C1019 0.948 . S
H1002 C960 0.948 . S
H1003 C978 0.979 . S
H1004 C978 0.980 . S
H1005 C978 0.983 . S
H1006 C977 0.982 . S
H1007 C977 0.979 . S
H1008 C977 0.977 . S
H1009 C979 0.948 . S
H1010 C981 0.947 . S
H1011 C982 0.948 . S
H1012 C988 0.982 . S
H1013 C988 0.979 . S
H1014 C988 0.977 . S
H1015 C989 1.005 . S
H1016 C989 0.964 1_455 S
H1017 C989 0.977 . S
H1018 C962 0.947 . S
C1019 C962 1.392 . S
C1019 C963 1.419 . S
C1019 H1001 0.948 . S
C1020 C1021 1.391 . S
C1020 C1024 1.391 . S
C1020 H1062 0.948 . S
C1021 C1020 1.391 . S
C1021 C1022 1.391 . S
C1022 C1021 1.391 . S
C1022 H1078 0.947 . S
C1022 C1079 1.392 . S
C1023 C1024 1.391 . S
C1023 C1027 1.397 . S
C1023 C1079 1.419 . S
C1024 C1020 1.391 . S
C1024 C1023 1.391 . S
C1024 C1025 1.399 . S
C1025 C1024 1.399 . S
C1025 C1028 1.396 . S
C1025 C1037 1.453 . S
C1025 C1038 1.684 . S
H1026 C1050 0.948 . S
C1027 C1023 1.397 . S
C1027 C1028 1.394 . S
C1027 C1046 1.723 . S
C1028 C1025 1.396 . S
C1028 C1027 1.394 . S
C1028 C1058 1.723 . S
H1029 C1052 0.947 . S
H1030 C1053 0.948 . S
H1031 C1059 0.982 . S
H1032 C1060 0.979 . S
H1033 C1060 0.980 . S
H1034 C1060 0.983 . S
H1035 C1059 0.979 . S
H1036 C1059 0.977 . S
C1037 C1025 1.453 . S
C1037 H1066 0.982 . S
C1037 H1067 0.979 . S
C1037 H1068 0.977 . S
C1038 C1025 1.684 . S
C1038 H1063 0.979 . S
C1038 H1064 0.980 . S
C1038 H1065 0.983 . S
C1039 C1040 1.391 . S
C1039 C1044 1.391 . S
C1039 H1069 0.948 . S
C1040 C1039 1.391 . S
C1040 C1041 1.391 . S
C1041 C1040 1.391 . S
C1041 C1042 1.392 . S
C1041 H1070 0.947 . S
C1042 C1041 1.392 . S
C1042 C1043 1.419 . S
C1042 H1071 0.948 . S
C1043 C1042 1.419 . S
C1043 C1044 1.391 . S
C1043 C1047 1.397 . S
C1044 C1039 1.391 . S
C1044 C1043 1.391 . S
C1044 C1045 1.399 . S
C1045 C1044 1.399 . S
C1045 C1046 1.396 . S
C1045 C1048 1.453 . S
C1045 C1049 1.684 . S
C1046 C1027 1.723 . S
C1046 C1045 1.396 . S
C1046 C1047 1.394 . S
C1047 C1043 1.397 . S
C1047 C1046 1.394 . S
C1047 C1057 1.723 . S
C1048 C1045 1.453 . S
C1048 H1072 0.982 . S
C1048 H1073 0.979 . S
C1048 H1074 0.977 . S
C1049 C1045 1.684 . S
C1049 H1075 0.979 . S
C1049 H1076 0.980 . S
C1049 H1077 0.983 . S
C1050 H1026 0.948 . S
C1050 C1051 1.391 . S
C1050 C1055 1.391 . S
C1051 C1050 1.391 . S
C1051 C1052 1.391 . S
C1052 H1029 0.947 . S
C1052 C1051 1.391 . S
C1052 C1053 1.392 . S
C1053 H1030 0.948 . S
C1053 C1052 1.392 . S
C1053 C1054 1.419 . S
C1054 C1053 1.419 . S
C1054 C1055 1.391 . S
C1054 C1058 1.397 . S
C1055 C1050 1.391 . S
C1055 C1054 1.391 . S
C1055 C1056 1.399 . S
C1056 C1055 1.399 . S
C1056 C1057 1.396 . S
C1056 C1059 1.453 . S
C1056 C1060 1.684 . S
C1057 C1047 1.723 . S
C1057 C1056 1.396 . S
C1057 C1058 1.394 . S
C1058 C1028 1.723 . S
C1058 C1054 1.397 . S
C1058 C1057 1.394 . S
C1059 H1031 0.982 . S
C1059 H1035 0.979 . S
C1059 H1036 0.977 . S
C1059 C1056 1.453 . S
C1060 H1032 0.979 . S
C1060 H1033 0.980 . S
C1060 H1034 0.983 . S
C1060 C1056 1.684 . S
H1061 C1079 0.948 . S
H1062 C1020 0.948 . S
H1063 C1038 0.979 . S
H1064 C1038 0.980 . S
H1065 C1038 0.983 . S
H1066 C1037 0.982 . S
H1067 C1037 0.979 . S
H1068 C1037 0.977 . S
H1069 C1039 0.948 . S
H1070 C1041 0.947 . S
H1071 C1042 0.948 . S
H1072 C1048 0.982 . S
H1073 C1048 0.979 . S
H1074 C1048 0.977 . S
H1075 C1049 0.979 . S
H1076 C1049 0.980 . S
H1077 C1049 0.983 . S
H1078 C1022 0.947 . S
C1079 C1022 1.392 . S
C1079 C1023 1.419 . S
C1079 H1061 0.948 . S
C1080 Eu1081 2.835 . S
C1080 C1082 1.500 . S
C1080 O1100 1.257 1_545 S
C1080 O1101 1.260 . S
Eu1081 C1080 2.835 . S
Eu1081 O1100 2.473 1_545 S
Eu1081 O1101 2.480 . S
Eu1081 O1102 2.430 . S
Eu1081 O1103 2.670 1_554 S
Eu1081 O1104 2.394 1_545 S
Eu1081 O1109 2.355 1_545 S
Eu1081 O1111 2.374 . S
C1082 C1080 1.500 . S
C1082 C1083 1.377 . S
C1082 C1087 1.377 1_545 S
C1083 C1082 1.377 . S
C1083 C1084 1.395 . S
C1083 H1112 0.931 . S
C1084 C1083 1.395 . S
C1084 C1085 1.383 1_545 S
C1084 H1113 0.931 . S
C1085 C1084 1.383 1_565 S
C1085 C1086 1.394 . S
C1086 C1085 1.394 . S
C1086 C1087 1.378 . S
C1086 H1114 0.931 . S
C1087 C1082 1.377 1_565 S
C1087 C1086 1.378 . S
C1087 H1115 0.931 . S
C1088 O1102 1.259 1_556 S
C1088 O1103 1.270 . S
C1089 O1104 1.251 . S
C1089 O1105 1.251 1_554 S
C1090 Eu1091 2.835 . S
C1090 C1092 1.500 . S
C1090 O1106 1.257 1_565 S
C1090 O1107 1.260 . S
Eu1091 C1090 2.835 . S
Eu1091 O1103 2.355 1_565 S
Eu1091 O1105 2.374 . S
Eu1091 O1106 2.473 1_565 S
Eu1091 O1107 2.480 . S
Eu1091 O1108 2.430 . S
Eu1091 O1109 2.670 1_556 S
Eu1091 O1110 2.394 1_565 S
C1092 C1090 1.500 . S
C1092 C1093 1.377 . S
C1092 C1097 1.377 1_565 S
C1093 C1092 1.377 . S
C1093 C1094 1.395 . S
C1093 H1116 0.931 . S
C1094 C1093 1.395 . S
C1094 C1095 1.383 1_565 S
C1094 H1117 0.931 . S
C1095 C1094 1.383 1_545 S
C1095 C1096 1.394 . S
C1096 C1095 1.394 . S
C1096 C1097 1.378 . S
C1096 H1118 0.931 . S
C1097 C1092 1.377 1_545 S
C1097 C1096 1.378 . S
C1097 H1119 0.931 . S
C1098 O1108 1.259 1_554 S
C1098 O1109 1.270 . S
C1099 O1110 1.251 . S
C1099 O1111 1.251 1_556 S
O1100 C1080 1.257 1_565 S
O1100 Eu1081 2.473 1_565 S
O1101 C1080 1.260 . S
O1101 Eu1081 2.480 . S
O1102 Eu1081 2.430 . S
O1102 C1088 1.259 1_554 S
O1103 Eu1081 2.670 1_556 S
O1103 C1088 1.270 . S
O1103 Eu1091 2.355 1_545 S
O1104 Eu1081 2.394 1_565 S
O1104 C1089 1.251 . S
O1105 C1089 1.251 1_556 S
O1105 Eu1091 2.374 . S
O1106 C1090 1.257 1_545 S
O1106 Eu1091 2.473 1_545 S
O1107 C1090 1.260 . S
O1107 Eu1091 2.480 . S
O1108 Eu1091 2.430 . S
O1108 C1098 1.259 1_556 S
O1109 Eu1081 2.355 1_565 S
O1109 Eu1091 2.670 1_554 S
O1109 C1098 1.270 . S
O1110 Eu1091 2.394 1_545 S
O1110 C1099 1.251 . S
O1111 Eu1081 2.374 . S
O1111 C1099 1.251 1_554 S
H1112 C1083 0.931 . S
H1113 C1084 0.931 . S
H1114 C1086 0.931 . S
H1115 C1087 0.931 . S
H1116 C1093 0.931 . S
H1117 C1094 0.931 . S
H1118 C1096 0.931 . S
H1119 C1097 0.931 . S
C1120 Eu1121 2.835 . S
C1120 C1122 1.500 1_655 S
C1120 O1140 1.257 1_655 S
C1120 O1141 1.260 . S
Eu1121 C1120 2.835 . S
Eu1121 O1140 2.473 1_655 S
Eu1121 O1141 2.480 . S
Eu1121 O1142 2.430 . S
Eu1121 O1143 2.670 1_554 S
Eu1121 O1144 2.394 1_655 S
Eu1121 O1149 2.355 1_655 S
Eu1121 O1151 2.374 . S
C1122 C1120 1.500 1_455 S
C1122 C1123 1.377 1_455 S
C1122 C1127 1.377 . S
C1123 C1122 1.377 1_655 S
C1123 C1124 1.395 . S
C1123 H1152 0.931 . S
C1124 C1123 1.395 . S
C1124 C1125 1.383 1_655 S
C1124 H1153 0.931 . S
C1125 C1124 1.383 1_455 S
C1125 C1126 1.394 . S
C1126 C1125 1.394 . S
C1126 C1127 1.378 . S
C1126 H1154 0.931 . S
C1127 C1122 1.377 . S
C1127 C1126 1.378 . S
C1127 H1155 0.931 . S
C1128 O1142 1.259 1_556 S
C1128 O1143 1.270 . S
C1129 O1144 1.251 . S
C1129 O1145 1.251 . S
C1130 Eu1131 2.835 . S
C1130 C1132 1.500 1_455 S
C1130 O1146 1.257 1_455 S
C1130 O1147 1.260 . S
Eu1131 C1130 2.835 . S
Eu1131 O1143 2.355 1_455 S
Eu1131 O1145 2.374 1_556 S
Eu1131 O1146 2.473 1_455 S
Eu1131 O1147 2.480 . S
Eu1131 O1148 2.430 . S
Eu1131 O1149 2.670 1_556 S
Eu1131 O1150 2.394 1_455 S
C1132 C1130 1.500 1_655 S
C1132 C1133 1.377 1_655 S
C1132 C1137 1.377 . S
C1133 C1132 1.377 1_455 S
C1133 C1134 1.395 . S
C1133 H1156 0.931 . S
C1134 C1133 1.395 . S
C1134 C1135 1.383 1_455 S
C1134 H1157 0.931 . S
C1135 C1134 1.383 1_655 S
C1135 C1136 1.394 . S
C1136 C1135 1.394 . S
C1136 C1137 1.378 . S
C1136 H1158 0.931 . S
C1137 C1132 1.377 . S
C1137 C1136 1.378 . S
C1137 H1159 0.931 . S
C1138 O1148 1.259 1_554 S
C1138 O1149 1.270 . S
C1139 O1150 1.251 . S
C1139 O1151 1.251 1_556 S
O1140 C1120 1.257 1_455 S
O1140 Eu1121 2.473 1_455 S
O1141 C1120 1.260 . S
O1141 Eu1121 2.480 . S
O1142 Eu1121 2.430 . S
O1142 C1128 1.259 1_554 S
O1143 Eu1121 2.670 1_556 S
O1143 C1128 1.270 . S
O1143 Eu1131 2.355 1_655 S
O1144 Eu1121 2.394 1_455 S
O1144 C1129 1.251 . S
O1145 C1129 1.251 . S
O1145 Eu1131 2.374 1_554 S
O1146 C1130 1.257 1_655 S
O1146 Eu1131 2.473 1_655 S
O1147 C1130 1.260 . S
O1147 Eu1131 2.480 . S
O1148 Eu1131 2.430 . S
O1148 C1138 1.259 1_556 S
O1149 Eu1121 2.355 1_455 S
O1149 Eu1131 2.670 1_554 S
O1149 C1138 1.270 . S
O1150 Eu1131 2.394 1_655 S
O1150 C1139 1.251 . S
O1151 Eu1121 2.374 . S
O1151 C1139 1.251 1_554 S
H1152 C1123 0.931 . S
H1153 C1124 0.931 . S
H1154 C1126 0.931 . S
H1155 C1127 0.931 . S
H1156 C1133 0.931 . S
H1157 C1134 0.931 . S
H1158 C1136 0.931 . S
H1159 C1137 0.931 . S
C1160 Eu1161 2.835 . S
C1160 C1162 1.500 . S
C1160 O1180 1.257 . S
C1160 O1181 1.260 . S
Eu1161 C1160 2.835 . S
Eu1161 O1180 2.473 . S
Eu1161 O1181 2.480 . S
Eu1161 O1182 2.430 . S
Eu1161 O1183 2.670 1_556 S
Eu1161 O1184 2.394 . S
Eu1161 O1189 2.355 . S
Eu1161 O1191 2.408 . S
C1162 C1160 1.500 . S
C1162 C1163 1.377 . S
C1162 C1167 1.377 . S
C1163 C1162 1.377 . S
C1163 C1164 1.395 . S
C1163 H1192 0.931 . S
C1164 C1163 1.395 . S
C1164 C1165 1.383 . S
C1164 H1193 0.931 . S
C1165 C1164 1.383 . S
C1165 C1166 1.394 . S
C1166 C1165 1.394 . S
C1166 C1167 1.378 . S
C1166 H1194 0.931 . S
C1167 C1162 1.377 . S
C1167 C1166 1.378 . S
C1167 H1195 0.931 . S
C1168 O1182 1.259 1_554 S
C1168 O1183 1.270 . S
C1169 O1184 1.251 . S
C1169 O1185 1.251 1_556 S
C1170 Eu1171 2.835 . S
C1170 C1172 1.500 . S
C1170 O1186 1.257 . S
C1170 O1187 1.260 . S
Eu1171 C1170 2.835 . S
Eu1171 O1183 2.355 . S
Eu1171 O1185 2.374 . S
Eu1171 O1186 2.473 . S
Eu1171 O1187 2.480 . S
Eu1171 O1188 2.430 . S
Eu1171 O1189 2.670 1_554 S
Eu1171 O1190 2.394 . S
C1172 C1170 1.500 . S
C1172 C1173 1.377 . S
C1172 C1177 1.377 . S
C1173 C1172 1.377 . S
C1173 C1174 1.395 . S
C1173 H1196 0.931 . S
C1174 C1173 1.395 . S
C1174 C1175 1.383 . S
C1174 H1197 0.931 . S
C1175 C1174 1.383 . S
C1175 C1176 1.394 . S
C1176 C1175 1.394 . S
C1176 C1177 1.378 . S
C1176 H1198 0.931 . S
C1177 C1172 1.377 . S
C1177 C1176 1.378 . S
C1177 H1199 0.931 . S
C1178 O1188 1.259 1_556 S
C1178 O1189 1.270 . S
C1179 O1190 1.251 . S
C1179 O1191 1.207 1_554 S
O1180 C1160 1.257 . S
O1180 Eu1161 2.473 . S
O1181 C1160 1.260 . S
O1181 Eu1161 2.480 . S
O1182 Eu1161 2.430 . S
O1182 C1168 1.259 1_556 S
O1183 Eu1161 2.670 1_554 S
O1183 C1168 1.270 . S
O1183 Eu1171 2.355 . S
O1184 Eu1161 2.394 . S
O1184 C1169 1.251 . S
O1185 C1169 1.251 1_554 S
O1185 Eu1171 2.374 . S
O1186 C1170 1.257 . S
O1186 Eu1171 2.473 . S
O1187 C1170 1.260 . S
O1187 Eu1171 2.480 . S
O1188 Eu1171 2.430 . S
O1188 C1178 1.259 1_554 S
O1189 Eu1161 2.355 . S
O1189 Eu1171 2.670 1_556 S
O1189 C1178 1.270 . S
O1190 Eu1171 2.394 . S
O1190 C1179 1.251 . S
O1191 Eu1161 2.408 . S
O1191 C1179 1.207 1_556 S
H1192 C1163 0.931 . S
H1193 C1164 0.931 . S
H1194 C1166 0.931 . S
H1195 C1167 0.931 . S
H1196 C1173 0.931 . S
H1197 C1174 0.931 . S
H1198 C1176 0.931 . S
H1199 C1177 0.931 . S
C1200 Eu1201 2.835 . S
C1200 C1202 1.500 . S
C1200 O1220 1.257 . S
C1200 O1221 1.260 . S
Eu1201 C1200 2.835 . S
Eu1201 O1220 2.473 . S
Eu1201 O1221 2.480 . S
Eu1201 O1222 2.430 . S
Eu1201 O1223 2.670 . S
Eu1201 O1224 2.394 . S
Eu1201 O1229 2.355 . S
Eu1201 O1231 2.374 . S
C1202 C1200 1.500 . S
C1202 C1203 1.377 . S
C1202 C1207 1.377 . S
C1203 C1202 1.377 . S
C1203 C1204 1.395 . S
C1203 H1232 0.931 . S
C1204 C1203 1.395 . S
C1204 C1205 1.383 . S
C1204 H1233 0.931 . S
C1205 C1204 1.383 . S
C1205 C1206 1.394 . S
C1206 C1205 1.394 . S
C1206 C1207 1.378 . S
C1206 H1234 0.931 . S
C1207 C1202 1.377 . S
C1207 C1206 1.378 . S
C1207 H1235 0.931 . S
C1208 O1222 1.259 . S
C1208 O1223 1.270 . S
C1209 O1224 1.251 . S
C1209 O1225 1.251 . S
C1210 Eu1211 2.835 . S
C1210 C1212 1.500 . S
C1210 O1226 1.257 . S
C1210 O1227 1.260 . S
Eu1211 C1210 2.835 . S
Eu1211 O1223 2.355 . S
Eu1211 O1225 2.374 . S
Eu1211 O1226 2.473 . S
Eu1211 O1227 2.480 . S
Eu1211 O1228 2.430 . S
Eu1211 O1229 2.670 . S
Eu1211 O1230 2.394 . S
C1212 C1210 1.500 . S
C1212 C1213 1.377 . S
C1212 C1217 1.377 . S
C1213 C1212 1.377 . S
C1213 C1214 1.395 . S
C1213 H1236 0.931 . S
C1214 C1213 1.395 . S
C1214 C1215 1.383 . S
C1214 H1237 0.931 . S
C1215 C1214 1.383 . S
C1215 C1216 1.394 . S
C1216 C1215 1.394 . S
C1216 C1217 1.378 . S
C1216 H1238 0.931 . S
C1217 C1212 1.377 . S
C1217 C1216 1.378 . S
C1217 H1239 0.931 . S
C1218 O1228 1.259 . S
C1218 O1229 1.270 . S
C1219 O1230 1.251 . S
C1219 O1231 1.251 . S
O1220 C1200 1.257 . S
O1220 Eu1201 2.473 . S
O1221 C1200 1.260 . S
O1221 Eu1201 2.480 . S
O1222 Eu1201 2.430 . S
O1222 C1208 1.259 . S
O1223 Eu1201 2.670 . S
O1223 C1208 1.270 . S
O1223 Eu1211 2.355 . S
O1224 Eu1201 2.394 . S
O1224 C1209 1.251 . S
O1225 C1209 1.251 . S
O1225 Eu1211 2.374 . S
O1226 C1210 1.257 . S
O1226 Eu1211 2.473 . S
O1227 C1210 1.260 . S
O1227 Eu1211 2.480 . S
O1228 Eu1211 2.430 . S
O1228 C1218 1.259 . S
O1229 Eu1201 2.355 . S
O1229 Eu1211 2.670 . S
O1229 C1218 1.270 . S
O1230 Eu1211 2.394 . S
O1230 C1219 1.251 . S
O1231 Eu1201 2.374 . S
O1231 C1219 1.251 . S
H1232 C1203 0.931 . S
H1233 C1204 0.931 . S
H1234 C1206 0.931 . S
H1235 C1207 0.931 . S
H1236 C1213 0.931 . S
H1237 C1214 0.931 . S
H1238 C1216 0.931 . S
H1239 C1217 0.931 . S
C1240 Eu1241 2.835 . S
C1240 C1242 1.500 . S
C1240 O1260 1.257 . S
C1240 O1261 1.260 . S
Eu1241 C1240 2.835 . S
Eu1241 O1260 2.473 . S
Eu1241 O1261 2.480 . S
Eu1241 O1262 2.430 . S
Eu1241 O1263 2.670 . S
Eu1241 O1264 2.394 . S
Eu1241 O1269 2.355 . S
Eu1241 O1271 2.374 . S
C1242 C1240 1.500 . S
C1242 C1243 1.377 . S
C1242 C1247 1.377 . S
C1243 C1242 1.377 . S
C1243 C1244 1.395 . S
C1243 H1272 0.931 . S
C1244 C1243 1.395 . S
C1244 C1245 1.383 . S
C1244 H1273 0.931 . S
C1245 C1244 1.383 . S
C1245 C1246 1.394 . S
C1246 C1245 1.394 . S
C1246 C1247 1.378 . S
C1246 H1274 0.931 . S
C1247 C1242 1.377 . S
C1247 C1246 1.378 . S
C1247 H1275 0.931 . S
C1248 O1262 1.259 . S
C1248 O1263 1.270 . S
C1249 O1264 1.251 . S
C1249 O1265 1.251 . S
C1250 Eu1251 2.835 . S
C1250 C1252 1.500 . S
C1250 O1266 1.257 . S
C1250 O1267 1.260 . S
Eu1251 C1250 2.835 . S
Eu1251 O1263 2.355 . S
Eu1251 O1265 2.374 . S
Eu1251 O1266 2.473 . S
Eu1251 O1267 2.480 . S
Eu1251 O1268 2.430 . S
Eu1251 O1269 2.670 . S
Eu1251 O1270 2.394 . S
C1252 C1250 1.500 . S
C1252 C1253 1.377 . S
C1252 C1257 1.377 . S
C1253 C1252 1.377 . S
C1253 C1254 1.395 . S
C1253 H1276 0.931 . S
C1254 C1253 1.395 . S
C1254 C1255 1.383 . S
C1254 H1277 0.931 . S
C1255 C1254 1.383 . S
C1255 C1256 1.394 . S
C1256 C1255 1.394 . S
C1256 C1257 1.378 . S
C1256 H1278 0.931 . S
C1257 C1252 1.377 . S
C1257 C1256 1.378 . S
C1257 H1279 0.931 . S
C1258 O1268 1.259 . S
C1258 O1269 1.270 . S
C1259 O1270 1.251 . S
C1259 O1271 1.251 . S
O1260 C1240 1.257 . S
O1260 Eu1241 2.473 . S
O1261 C1240 1.260 . S
O1261 Eu1241 2.480 . S
O1262 Eu1241 2.430 . S
O1262 C1248 1.259 . S
O1263 Eu1241 2.670 . S
O1263 C1248 1.270 . S
O1263 Eu1251 2.355 . S
O1264 Eu1241 2.394 . S
O1264 C1249 1.251 . S
O1265 C1249 1.251 . S
O1265 Eu1251 2.374 . S
O1266 C1250 1.257 . S
O1266 Eu1251 2.473 . S
O1267 C1250 1.260 . S
O1267 Eu1251 2.480 . S
O1268 Eu1251 2.430 . S
O1268 C1258 1.259 . S
O1269 Eu1241 2.355 . S
O1269 Eu1251 2.670 . S
O1269 C1258 1.270 . S
O1270 Eu1251 2.394 . S
O1270 C1259 1.251 . S
O1271 Eu1241 2.374 . S
O1271 C1259 1.251 . S
H1272 C1243 0.931 . S
H1273 C1244 0.931 . S
H1274 C1246 0.931 . S
H1275 C1247 0.931 . S
H1276 C1253 0.931 . S
H1277 C1254 0.931 . S
H1278 C1256 0.931 . S
H1279 C1257 0.931 . S
C1280 Eu1281 2.835 . S
C1280 C1282 1.500 . S
C1280 O1300 1.257 . S
C1280 O1301 1.260 . S
Eu1281 C1280 2.835 . S
Eu1281 O1300 2.473 . S
Eu1281 O1301 2.480 . S
Eu1281 O1302 2.430 . S
Eu1281 O1303 2.670 . S
Eu1281 O1304 2.394 . S
Eu1281 O1309 2.355 . S
Eu1281 O1311 2.374 . S
C1282 C1280 1.500 . S
C1282 C1283 1.377 . S
C1282 C1287 1.377 . S
C1283 C1282 1.377 . S
C1283 C1284 1.395 . S
C1283 H1312 0.931 . S
C1284 C1283 1.395 . S
C1284 C1285 1.383 . S
C1284 H1313 0.931 . S
C1285 C1284 1.383 . S
C1285 C1286 1.394 . S
C1286 C1285 1.394 . S
C1286 C1287 1.378 . S
C1286 H1314 0.931 . S
C1287 C1282 1.377 . S
C1287 C1286 1.378 . S
C1287 H1315 0.931 . S
C1288 O1302 1.259 . S
C1288 O1303 1.270 . S
C1289 O1304 1.251 . S
C1289 O1305 1.251 . S
C1290 Eu1291 2.835 . S
C1290 C1292 1.500 . S
C1290 O1306 1.257 . S
C1290 O1307 1.260 . S
Eu1291 C1290 2.835 . S
Eu1291 O1303 2.355 . S
Eu1291 O1305 2.374 . S
Eu1291 O1306 2.473 . S
Eu1291 O1307 2.480 . S
Eu1291 O1308 2.430 . S
Eu1291 O1309 2.670 . S
Eu1291 O1310 2.394 . S
C1292 C1290 1.500 . S
C1292 C1293 1.377 . S
C1292 C1297 1.377 . S
C1293 C1292 1.377 . S
C1293 C1294 1.395 . S
C1293 H1316 0.931 . S
C1294 C1293 1.395 . S
C1294 C1295 1.383 . S
C1294 H1317 0.931 . S
C1295 C1294 1.383 . S
C1295 C1296 1.394 . S
C1296 C1295 1.394 . S
C1296 C1297 1.378 . S
C1296 H1318 0.931 . S
C1297 C1292 1.377 . S
C1297 C1296 1.378 . S
C1297 H1319 0.931 . S
C1298 O1308 1.259 . S
C1298 O1309 1.270 . S
C1299 O1310 1.251 . S
C1299 O1311 1.251 . S
O1300 C1280 1.257 . S
O1300 Eu1281 2.473 . S
O1301 C1280 1.260 . S
O1301 Eu1281 2.480 . S
O1302 Eu1281 2.430 . S
O1302 C1288 1.259 . S
O1303 Eu1281 2.670 . S
O1303 C1288 1.270 . S
O1303 Eu1291 2.355 . S
O1304 Eu1281 2.394 . S
O1304 C1289 1.251 . S
O1305 C1289 1.251 . S
O1305 Eu1291 2.374 . S
O1306 C1290 1.257 . S
O1306 Eu1291 2.473 . S
O1307 C1290 1.260 . S
O1307 Eu1291 2.480 . S
O1308 Eu1291 2.430 . S
O1308 C1298 1.259 . S
O1309 Eu1281 2.355 . S
O1309 Eu1291 2.670 . S
O1309 C1298 1.270 . S
O1310 Eu1291 2.394 . S
O1310 C1299 1.251 . S
O1311 Eu1281 2.374 . S
O1311 C1299 1.251 . S
H1312 C1283 0.931 . S
H1313 C1284 0.931 . S
H1314 C1286 0.931 . S
H1315 C1287 0.931 . S
H1316 C1293 0.931 . S
H1317 C1294 0.931 . S
H1318 C1296 0.931 . S
H1319 C1297 0.931 . S
C1320 Eu1321 2.835 . S
C1320 C1322 1.500 . S
C1320 O1340 1.257 . S
C1320 O1341 1.260 . S
Eu1321 C1320 2.835 . S
Eu1321 O1340 2.473 . S
Eu1321 O1341 2.480 . S
Eu1321 O1342 2.430 . S
Eu1321 O1343 2.670 . S
Eu1321 O1344 2.394 . S
Eu1321 O1349 2.355 . S
Eu1321 O1351 2.374 . S
C1322 C1320 1.500 . S
C1322 C1323 1.377 . S
C1322 C1327 1.377 . S
C1323 C1322 1.377 . S
C1323 C1324 1.395 . S
C1323 H1352 0.931 . S
C1324 C1323 1.395 . S
C1324 C1325 1.383 . S
C1324 H1353 0.931 . S
C1325 C1324 1.383 . S
C1325 C1326 1.394 . S
C1326 C1325 1.394 . S
C1326 C1327 1.378 . S
C1326 H1354 0.931 . S
C1327 C1322 1.377 . S
C1327 C1326 1.378 . S
C1327 H1355 0.931 . S
C1328 O1342 1.259 . S
C1328 O1343 1.270 . S
C1329 O1344 1.251 . S
C1329 O1345 1.251 . S
C1330 Eu1331 2.835 . S
C1330 C1332 1.500 . S
C1330 O1346 1.257 . S
C1330 O1347 1.260 . S
Eu1331 C1330 2.835 . S
Eu1331 O1343 2.355 . S
Eu1331 O1345 2.374 . S
Eu1331 O1346 2.473 . S
Eu1331 O1347 2.480 . S
Eu1331 O1348 2.430 . S
Eu1331 O1349 2.670 . S
Eu1331 O1350 2.394 . S
C1332 C1330 1.500 . S
C1332 C1333 1.377 . S
C1332 C1337 1.377 . S
C1333 C1332 1.377 . S
C1333 C1334 1.395 . S
C1333 H1356 0.931 . S
C1334 C1333 1.395 . S
C1334 C1335 1.383 . S
C1334 H1357 0.931 . S
C1335 C1334 1.383 . S
C1335 C1336 1.394 . S
C1336 C1335 1.394 . S
C1336 C1337 1.378 . S
C1336 H1358 0.931 . S
C1337 C1332 1.377 . S
C1337 C1336 1.378 . S
C1337 H1359 0.931 . S
C1338 O1348 1.259 . S
C1338 O1349 1.270 . S
C1339 O1350 1.251 . S
C1339 O1351 1.251 . S
O1340 C1320 1.257 . S
O1340 Eu1321 2.473 . S
O1341 C1320 1.260 . S
O1341 Eu1321 2.480 . S
O1342 Eu1321 2.430 . S
O1342 C1328 1.259 . S
O1343 Eu1321 2.670 . S
O1343 C1328 1.270 . S
O1343 Eu1331 2.355 . S
O1344 Eu1321 2.394 . S
O1344 C1329 1.251 . S
O1345 C1329 1.251 . S
O1345 Eu1331 2.374 . S
O1346 C1330 1.257 . S
O1346 Eu1331 2.473 . S
O1347 C1330 1.260 . S
O1347 Eu1331 2.480 . S
O1348 Eu1331 2.430 . S
O1348 C1338 1.259 . S
O1349 Eu1321 2.355 . S
O1349 Eu1331 2.670 . S
O1349 C1338 1.270 . S
O1350 Eu1331 2.394 . S
O1350 C1339 1.251 . S
O1351 Eu1321 2.374 . S
O1351 C1339 1.251 . S
H1352 C1323 0.931 . S
H1353 C1324 0.931 . S
H1354 C1326 0.931 . S
H1355 C1327 0.931 . S
H1356 C1333 0.931 . S
H1357 C1334 0.931 . S
H1358 C1336 0.931 . S
H1359 C1337 0.931 . S
C1360 Eu1361 2.835 . S
C1360 C1362 1.500 . S
C1360 O1380 1.257 . S
C1360 O1381 1.260 . S
Eu1361 C1360 2.835 . S
Eu1361 O1380 2.473 . S
Eu1361 O1381 2.480 . S
Eu1361 O1382 2.430 . S
Eu1361 O1383 2.670 . S
Eu1361 O1384 2.394 . S
Eu1361 O1389 2.355 . S
Eu1361 O1391 2.374 . S
C1362 C1360 1.500 . S
C1362 C1363 1.377 . S
C1362 C1367 1.377 . S
C1363 C1362 1.377 . S
C1363 C1364 1.395 . S
C1363 H1392 0.931 . S
C1364 C1363 1.395 . S
C1364 C1365 1.383 . S
C1364 H1393 0.931 . S
C1365 C1364 1.383 . S
C1365 C1366 1.394 . S
C1366 C1365 1.394 . S
C1366 C1367 1.378 . S
C1366 H1394 0.931 . S
C1367 C1362 1.377 . S
C1367 C1366 1.378 . S
C1367 H1395 0.931 . S
C1368 O1382 1.259 . S
C1368 O1383 1.270 . S
C1369 O1384 1.251 . S
C1369 O1385 1.251 . S
C1370 Eu1371 2.835 . S
C1370 C1372 1.500 . S
C1370 O1386 1.257 . S
C1370 O1387 1.260 . S
Eu1371 C1370 2.835 . S
Eu1371 O1383 2.355 . S
Eu1371 O1385 2.374 . S
Eu1371 O1386 2.473 . S
Eu1371 O1387 2.480 . S
Eu1371 O1388 2.430 . S
Eu1371 O1389 2.670 . S
Eu1371 O1390 2.394 . S
C1372 C1370 1.500 . S
C1372 C1373 1.377 . S
C1372 C1377 1.377 . S
C1373 C1372 1.377 . S
C1373 C1374 1.395 . S
C1373 H1396 0.931 . S
C1374 C1373 1.395 . S
C1374 C1375 1.383 . S
C1374 H1397 0.931 . S
C1375 C1374 1.383 . S
C1375 C1376 1.394 . S
C1376 C1375 1.394 . S
C1376 C1377 1.378 . S
C1376 H1398 0.931 . S
C1377 C1372 1.377 . S
C1377 C1376 1.378 . S
C1377 H1399 0.931 . S
C1378 O1388 1.259 . S
C1378 O1389 1.270 . S
C1379 O1390 1.251 . S
C1379 O1391 1.251 . S
O1380 C1360 1.257 . S
O1380 Eu1361 2.473 . S
O1381 C1360 1.260 . S
O1381 Eu1361 2.480 . S
O1382 Eu1361 2.430 . S
O1382 C1368 1.259 . S
O1383 Eu1361 2.670 . S
O1383 C1368 1.270 . S
O1383 Eu1371 2.355 . S
O1384 Eu1361 2.394 . S
O1384 C1369 1.251 . S
O1385 C1369 1.251 . S
O1385 Eu1371 2.374 . S
O1386 C1370 1.257 . S
O1386 Eu1371 2.473 . S
O1387 C1370 1.260 . S
O1387 Eu1371 2.480 . S
O1388 Eu1371 2.430 . S
O1388 C1378 1.259 . S
O1389 Eu1361 2.355 . S
O1389 Eu1371 2.670 . S
O1389 C1378 1.270 . S
O1390 Eu1371 2.394 . S
O1390 C1379 1.251 . S
O1391 Eu1361 2.374 . S
O1391 C1379 1.251 . S
H1392 C1363 0.931 . S
H1393 C1364 0.931 . S
H1394 C1366 0.931 . S
H1395 C1367 0.931 . S
H1396 C1373 0.931 . S
H1397 C1374 0.931 . S
H1398 C1376 0.931 . S
H1399 C1377 0.931 . S
C1400 Eu1401 2.835 . S
C1400 C1402 1.500 . S
C1400 O1420 1.257 . S
C1400 O1421 1.260 . S
Eu1401 C1400 2.835 . S
Eu1401 O1420 2.473 . S
Eu1401 O1421 2.480 . S
Eu1401 O1422 2.430 . S
Eu1401 O1423 2.670 . S
Eu1401 O1424 2.394 . S
Eu1401 O1429 2.355 . S
Eu1401 O1431 2.374 . S
C1402 C1400 1.500 . S
C1402 C1403 1.377 . S
C1402 C1407 1.377 . S
C1403 C1402 1.377 . S
C1403 C1404 1.395 . S
C1403 H1432 0.931 . S
C1404 C1403 1.395 . S
C1404 C1405 1.383 . S
C1404 H1433 0.931 . S
C1405 C1404 1.383 . S
C1405 C1406 1.394 . S
C1406 C1405 1.394 . S
C1406 C1407 1.378 . S
C1406 H1434 0.931 . S
C1407 C1402 1.377 . S
C1407 C1406 1.378 . S
C1407 H1435 0.931 . S
C1408 O1422 1.259 . S
C1408 O1423 1.270 . S
C1409 O1424 1.251 . S
C1409 O1425 1.251 . S
C1410 Eu1411 2.835 . S
C1410 C1412 1.500 . S
C1410 O1426 1.257 . S
C1410 O1427 1.260 . S
Eu1411 C1410 2.835 . S
Eu1411 O1423 2.355 . S
Eu1411 O1425 2.374 . S
Eu1411 O1426 2.473 . S
Eu1411 O1427 2.480 . S
Eu1411 O1428 2.430 . S
Eu1411 O1429 2.670 . S
Eu1411 O1430 2.394 . S
C1412 C1410 1.500 . S
C1412 C1413 1.377 . S
C1412 C1417 1.377 . S
C1413 C1412 1.377 . S
C1413 C1414 1.395 . S
C1413 H1436 0.931 . S
C1414 C1413 1.395 . S
C1414 C1415 1.383 . S
C1414 H1437 0.931 . S
C1415 C1414 1.383 . S
C1415 C1416 1.394 . S
C1416 C1415 1.394 . S
C1416 C1417 1.378 . S
C1416 H1438 0.931 . S
C1417 C1412 1.377 . S
C1417 C1416 1.378 . S
C1417 H1439 0.931 . S
C1418 O1428 1.259 . S
C1418 O1429 1.270 . S
C1419 O1430 1.251 . S
C1419 O1431 1.251 . S
O1420 C1400 1.257 . S
O1420 Eu1401 2.473 . S
O1421 C1400 1.260 . S
O1421 Eu1401 2.480 . S
O1422 Eu1401 2.430 . S
O1422 C1408 1.259 . S
O1423 Eu1401 2.670 . S
O1423 C1408 1.270 . S
O1423 Eu1411 2.355 . S
O1424 Eu1401 2.394 . S
O1424 C1409 1.251 . S
O1425 C1409 1.251 . S
O1425 Eu1411 2.374 . S
O1426 C1410 1.257 . S
O1426 Eu1411 2.473 . S
O1427 C1410 1.260 . S
O1427 Eu1411 2.480 . S
O1428 Eu1411 2.430 . S
O1428 C1418 1.259 . S
O1429 Eu1401 2.355 . S
O1429 Eu1411 2.670 . S
O1429 C1418 1.270 . S
O1430 Eu1411 2.394 . S
O1430 C1419 1.251 . S
O1431 Eu1401 2.374 . S
O1431 C1419 1.251 . S
H1432 C1403 0.931 . S
H1433 C1404 0.931 . S
H1434 C1406 0.931 . S
H1435 C1407 0.931 . S
H1436 C1413 0.931 . S
H1437 C1414 0.931 . S
H1438 C1416 0.931 . S
H1439 C1417 0.931 . S
H1440 C1446 0.930 . S
H1441 C1449 0.930 . S
H1442 C1450 0.930 1_556 S
H1443 C1451 0.922 1_556 S
H1444 C1454 0.930 . S
H1445 C1455 0.930 . S
C1446 H1440 0.930 . S
C1446 C1447 1.355 . S
C1446 C1448 1.415 . S
C1447 C1446 1.355 . S
C1447 C1449 1.419 . S
C1448 C1446 1.415 . S
C1448 C1453 1.425 . S
C1448 C1455 1.409 . S
C1449 H1441 0.930 . S
C1449 C1447 1.419 . S
C1449 C1450 1.362 . S
C1450 H1442 0.930 1_554 S
C1450 C1449 1.362 . S
C1450 C1453 1.409 . S
C1451 H1443 0.922 1_554 S
C1451 C1452 1.355 . S
C1451 C1453 1.415 . S
C1452 C1451 1.355 . S
C1452 C1454 1.419 . S
C1453 C1448 1.425 . S
C1453 C1450 1.409 . S
C1453 C1451 1.415 . S
C1454 H1444 0.930 . S
C1454 C1452 1.419 . S
C1454 C1455 1.362 . S
C1455 H1445 0.930 . S
C1455 C1448 1.409 . S
C1455 C1454 1.362 . S
H1456 C1462 0.930 . S
H1457 C1465 0.930 . S
H1458 C1466 0.930 . S
H1459 C1467 0.930 . S
H1460 C1470 0.930 . S
H1461 C1471 0.930 . S
C1462 H1456 0.930 . S
C1462 C1463 1.355 . S
C1462 C1464 1.415 . S
C1463 C1462 1.355 . S
C1463 C1465 1.419 . S
C1464 C1462 1.415 . S
C1464 C1469 1.425 . S
C1464 C1471 1.409 . S
C1465 H1457 0.930 . S
C1465 C1463 1.419 . S
C1465 C1466 1.362 . S
C1466 H1458 0.930 . S
C1466 C1465 1.362 . S
C1466 C1469 1.409 . S
C1467 H1459 0.930 . S
C1467 C1468 1.355 . S
C1467 C1469 1.415 . S
C1468 C1467 1.355 . S
C1468 C1470 1.419 . S
C1469 C1464 1.425 . S
C1469 C1466 1.409 . S
C1469 C1467 1.415 . S
C1470 H1460 0.930 . S
C1470 C1468 1.419 . S
C1470 C1471 1.362 . S
C1471 H1461 0.930 . S
C1471 C1464 1.409 . S
C1471 C1470 1.362 . S
H1472 C1478 0.930 . S
H1473 C1481 0.930 . S
H1474 C1482 0.936 . S
H1475 C1483 0.963 . S
H1476 C1486 0.930 . S
H1477 C1487 0.930 . S
C1478 H1472 0.930 . S
C1478 C1479 1.355 . S
C1478 C1480 1.415 . S
C1479 C1478 1.355 . S
C1479 C1481 1.419 . S
C1480 C1478 1.415 . S
C1480 C1485 1.425 . S
C1480 C1487 1.409 . S
C1481 H1473 0.930 . S
C1481 C1479 1.419 . S
C1481 C1482 1.362 . S
C1482 H1474 0.936 . S
C1482 C1481 1.362 . S
C1482 C1485 1.409 . S
C1483 H1475 0.963 . S
C1483 C1484 1.355 . S
C1483 C1485 1.415 . S
C1484 C1483 1.355 . S
C1484 C1486 1.419 . S
C1485 C1480 1.425 . S
C1485 C1482 1.409 . S
C1485 C1483 1.415 . S
C1486 H1476 0.930 . S
C1486 C1484 1.419 . S
C1486 C1487 1.362 . S
C1487 H1477 0.930 . S
C1487 C1480 1.409 . S
C1487 C1486 1.362 . S
H1488 C1494 0.930 . S
H1489 C1497 0.930 . S
H1490 C1498 0.930 . S
H1491 C1499 0.930 . S
H1492 C1502 0.930 . S
H1493 C1503 0.930 . S
C1494 H1488 0.930 . S
C1494 C1495 1.355 . S
C1494 C1496 1.415 . S
C1495 C1494 1.355 . S
C1495 C1497 1.419 . S
C1496 C1494 1.415 . S
C1496 C1501 1.425 . S
C1496 C1503 1.409 1_556 S
C1497 H1489 0.930 . S
C1497 C1495 1.419 . S
C1497 C1498 1.362 . S
C1498 H1490 0.930 . S
C1498 C1497 1.362 . S
C1498 C1501 1.409 . S
C1499 H1491 0.930 . S
C1499 C1500 1.355 . S
C1499 C1501 1.415 . S
C1500 C1499 1.355 . S
C1500 C1502 1.419 1_556 S
C1501 C1496 1.425 . S
C1501 C1498 1.409 . S
C1501 C1499 1.415 . S
C1502 H1492 0.930 . S
C1502 C1500 1.419 1_554 S
C1502 C1503 1.362 . S
C1503 H1493 0.930 . S
C1503 C1496 1.409 1_554 S
C1503 C1502 1.362 . S
H1504 C1510 0.930 . S
H1505 C1513 0.930 . S
H1506 C1514 0.930 . S
H1507 C1515 0.930 . S
H1508 C1518 0.930 . S
H1509 C1519 0.930 . S
C1510 H1504 0.930 . S
C1510 C1511 1.355 . S
C1510 C1512 1.415 . S
C1511 C1510 1.355 . S
C1511 C1513 1.419 . S
C1512 C1510 1.415 . S
C1512 C1517 1.425 . S
C1512 C1519 1.409 . S
C1513 H1505 0.930 . S
C1513 C1511 1.419 . S
C1513 C1514 1.362 . S
C1514 H1506 0.930 . S
C1514 C1513 1.362 . S
C1514 C1517 1.409 . S
C1515 H1507 0.930 . S
C1515 C1516 1.355 . S
C1515 C1517 1.415 . S
C1516 C1515 1.355 . S
C1516 C1518 1.419 . S
C1517 C1512 1.425 . S
C1517 C1514 1.409 . S
C1517 C1515 1.415 . S
C1518 H1508 0.930 . S
C1518 C1516 1.419 . S
C1518 C1519 1.362 . S
C1519 H1509 0.930 . S
C1519 C1512 1.409 . S
C1519 C1518 1.362 . S
H1520 C1526 0.930 . S
H1521 C1529 0.930 . S
H1522 C1530 0.930 . S
H1523 C1531 0.930 . S
H1524 C1534 0.930 . S
H1525 C1535 0.918 1_554 S
C1526 H1520 0.930 . S
C1526 C1527 1.355 . S
C1526 C1528 1.415 . S
C1527 C1526 1.355 . S
C1527 C1529 1.419 . S
C1528 C1526 1.415 . S
C1528 C1533 1.425 . S
C1528 C1535 1.424 . S
C1529 H1521 0.930 . S
C1529 C1527 1.419 . S
C1529 C1530 1.362 . S
C1530 H1522 0.930 . S
C1530 C1529 1.362 . S
C1530 C1533 1.409 . S
C1531 H1523 0.930 . S
C1531 C1532 1.355 . S
C1531 C1533 1.415 . S
C1532 C1531 1.355 . S
C1532 C1534 1.419 1_556 S
C1533 C1528 1.425 . S
C1533 C1530 1.409 . S
C1533 C1531 1.415 . S
C1534 H1524 0.930 . S
C1534 C1532 1.419 1_554 S
C1534 C1535 1.360 1_554 S
C1535 H1525 0.918 1_556 S
C1535 C1528 1.424 . S
C1535 C1534 1.360 1_556 S
H1536 C1542 0.930 . S
H1537 C1545 0.930 . S
H1538 C1546 0.930 . S
H1539 C1547 0.930 . S
H1540 C1550 0.930 1_554 S
H1541 C1551 0.930 1_554 S
C1542 H1536 0.930 . S
C1542 C1543 1.355 . S
C1542 C1544 1.415 . S
C1543 C1542 1.355 . S
C1543 C1545 1.419 . S
C1544 C1542 1.415 . S
C1544 C1549 1.425 . S
C1544 C1551 1.409 . S
C1545 H1537 0.930 . S
C1545 C1543 1.419 . S
C1545 C1546 1.362 . S
C1546 H1538 0.930 . S
C1546 C1545 1.362 . S
C1546 C1549 1.409 . S
C1547 H1539 0.930 . S
C1547 C1548 1.355 . S
C1547 C1549 1.415 . S
C1548 C1547 1.355 . S
C1548 C1550 1.419 . S
C1549 C1544 1.425 . S
C1549 C1546 1.409 . S
C1549 C1547 1.415 . S
C1550 H1540 0.930 1_556 S
C1550 C1548 1.419 . S
C1550 C1551 1.362 . S
C1551 H1541 0.930 1_556 S
C1551 C1544 1.409 . S
C1551 C1550 1.362 . S
H1552 C1558 0.930 . S
H1553 C1561 0.930 . S
H1554 C1562 0.930 . S
H1555 C1563 0.930 . S
H1556 C1566 0.930 . S
H1557 C1567 0.930 . S
C1558 H1552 0.930 . S
C1558 C1559 1.355 . S
C1558 C1560 1.415 . S
C1559 C1558 1.355 . S
C1559 C1561 1.419 . S
C1560 C1558 1.415 . S
C1560 C1565 1.425 . S
C1560 C1567 1.409 . S
C1561 H1553 0.930 . S
C1561 C1559 1.419 . S
C1561 C1562 1.362 . S
C1562 H1554 0.930 . S
C1562 C1561 1.362 . S
C1562 C1565 1.409 . S
C1563 H1555 0.930 . S
C1563 C1564 1.355 . S
C1563 C1565 1.415 . S
C1564 C1563 1.355 . S
C1564 C1566 1.419 . S
C1565 C1560 1.425 . S
C1565 C1562 1.409 . S
C1565 C1563 1.415 . S
C1566 H1556 0.930 . S
C1566 C1564 1.419 . S
C1566 C1567 1.362 . S
C1567 H1557 0.930 . S
C1567 C1560 1.409 . S
C1567 C1566 1.362 . S
H1568 C1574 0.930 . S
H1569 C1577 0.930 . S
H1570 C1578 0.930 . S
H1571 C1579 0.930 . S
H1572 C1582 0.930 . S
H1573 C1583 0.930 . S
C1574 H1568 0.930 . S
C1574 C1575 1.355 . S
C1574 C1576 1.415 . S
C1575 C1574 1.355 . S
C1575 C1577 1.419 . S
C1576 C1574 1.415 . S
C1576 C1581 1.425 . S
C1576 C1583 1.409 . S
C1577 H1569 0.930 . S
C1577 C1575 1.419 . S
C1577 C1578 1.362 . S
C1578 H1570 0.930 . S
C1578 C1577 1.362 . S
C1578 C1581 1.409 . S
C1579 H1571 0.930 . S
C1579 C1580 1.355 . S
C1579 C1581 1.415 . S
C1580 C1579 1.355 . S
C1580 C1582 1.419 . S
C1581 C1576 1.425 . S
C1581 C1578 1.409 . S
C1581 C1579 1.415 . S
C1582 H1572 0.930 . S
C1582 C1580 1.419 . S
C1582 C1583 1.362 . S
C1583 H1573 0.930 . S
C1583 C1576 1.409 . S
C1583 C1582 1.362 . S
H1584 C1590 0.930 . S
H1585 C1593 0.930 . S
H1586 C1594 0.930 . S
H1587 C1595 0.930 . S
H1588 C1598 0.930 1_556 S
H1589 C1599 0.892 1_556 S
C1590 H1584 0.930 . S
C1590 C1591 1.355 . S
C1590 C1592 1.415 . S
C1591 C1590 1.355 . S
C1591 C1593 1.419 . S
C1592 C1590 1.415 . S
C1592 C1597 1.425 . S
C1592 C1599 1.409 . S
C1593 H1585 0.930 . S
C1593 C1591 1.419 . S
C1593 C1594 1.362 . S
C1594 H1586 0.930 . S
C1594 C1593 1.362 . S
C1594 C1597 1.409 . S
C1595 H1587 0.930 . S
C1595 C1596 1.355 . S
C1595 C1597 1.415 . S
C1596 C1595 1.355 . S
C1596 C1598 1.419 . S
C1597 C1592 1.425 . S
C1597 C1594 1.409 . S
C1597 C1595 1.415 . S
C1598 H1588 0.930 1_554 S
C1598 C1596 1.419 . S
C1598 C1599 1.362 . S
C1599 H1589 0.892 1_554 S
C1599 C1592 1.409 . S
C1599 C1598 1.362 . S
H1600 C1606 0.930 . S
H1601 C1609 0.930 . S
H1602 C1610 0.930 . S
H1603 C1611 0.930 . S
H1604 C1614 0.930 . S
H1605 C1615 0.930 . S
C1606 H1600 0.930 . S
C1606 C1607 1.355 . S
C1606 C1608 1.415 . S
C1607 C1606 1.355 . S
C1607 C1609 1.419 . S
C1608 C1606 1.415 . S
C1608 C1613 1.425 . S
C1608 C1615 1.409 . S
C1609 H1601 0.930 . S
C1609 C1607 1.419 . S
C1609 C1610 1.362 . S
C1610 H1602 0.930 . S
C1610 C1609 1.362 . S
C1610 C1613 1.409 . S
C1611 H1603 0.930 . S
C1611 C1612 1.355 . S
C1611 C1613 1.415 . S
C1612 C1611 1.355 . S
C1612 C1614 1.419 . S
C1613 C1608 1.425 . S
C1613 C1610 1.409 . S
C1613 C1611 1.415 . S
C1614 H1604 0.930 . S
C1614 C1612 1.419 . S
C1614 C1615 1.362 . S
C1615 H1605 0.930 . S
C1615 C1608 1.409 . S
C1615 C1614 1.362 . S
H1616 C1622 0.930 . S
H1617 C1625 0.930 . S
H1618 C1626 0.930 . S
H1619 C1627 0.930 . S
H1620 C1630 0.930 . S
H1621 C1631 0.930 . S
C1622 H1616 0.930 . S
C1622 C1623 1.355 . S
C1622 C1624 1.415 . S
C1623 C1622 1.355 . S
C1623 C1625 1.419 . S
C1624 C1622 1.415 . S
C1624 C1629 1.425 . S
C1624 C1631 1.409 1_554 S
C1625 H1617 0.930 . S
C1625 C1623 1.419 . S
C1625 C1626 1.362 . S
C1626 H1618 0.930 . S
C1626 C1625 1.362 . S
C1626 C1629 1.409 . S
C1627 H1619 0.930 . S
C1627 C1628 1.355 . S
C1627 C1629 1.415 . S
C1628 C1627 1.355 . S
C1628 C1630 1.419 1_554 S
C1629 C1624 1.425 . S
C1629 C1626 1.409 . S
C1629 C1627 1.415 . S
C1630 H1620 0.930 . S
C1630 C1628 1.419 1_556 S
C1630 C1631 1.362 . S
C1631 H1621 0.930 . S
C1631 C1624 1.409 1_556 S
C1631 C1630 1.362 . S
H1632 C1638 0.906 1_655 S
H1633 C1641 0.930 1_655 S
H1634 C1642 0.930 . S
H1635 C1643 0.930 . S
H1636 C1646 0.930 . S
H1637 C1647 0.930 . S
C1638 H1632 0.906 1_455 S
C1638 C1639 1.346 1_455 S
C1638 C1640 1.447 . S
C1639 C1638 1.346 1_655 S
C1639 C1641 1.419 1_655 S
C1640 C1638 1.447 . S
C1640 C1645 1.425 . S
C1640 C1647 1.409 . S
C1641 H1633 0.930 1_455 S
C1641 C1639 1.419 1_455 S
C1641 C1642 1.362 . S
C1642 H1634 0.930 . S
C1642 C1641 1.362 . S
C1642 C1645 1.409 . S
C1643 H1635 0.930 . S
C1643 C1644 1.355 . S
C1643 C1645 1.415 . S
C1644 C1643 1.355 . S
C1644 C1646 1.419 . S
C1645 C1640 1.425 . S
C1645 C1642 1.409 . S
C1645 C1643 1.415 . S
C1646 H1636 0.930 . S
C1646 C1644 1.419 . S
C1646 C1647 1.362 . S
C1647 H1637 0.930 . S
C1647 C1640 1.409 . S
C1647 C1646 1.362 . S
H1648 C1654 0.930 . S
H1649 C1657 0.930 . S
H1650 C1658 0.930 . S
H1651 C1659 0.930 . S
H1652 C1662 0.930 . S
H1653 C1663 0.930 . S
C1654 H1648 0.930 . S
C1654 C1655 1.355 . S
C1654 C1656 1.415 . S
C1655 C1654 1.355 . S
C1655 C1657 1.419 . S
C1656 C1654 1.415 . S
C1656 C1661 1.425 . S
C1656 C1663 1.409 . S
C1657 H1649 0.930 . S
C1657 C1655 1.419 . S
C1657 C1658 1.362 . S
C1658 H1650 0.930 . S
C1658 C1657 1.362 . S
C1658 C1661 1.409 . S
C1659 H1651 0.930 . S
C1659 C1660 1.355 . S
C1659 C1661 1.415 . S
C1660 C1659 1.355 . S
C1660 C1662 1.419 . S
C1661 C1656 1.425 . S
C1661 C1658 1.409 . S
C1661 C1659 1.415 . S
C1662 H1652 0.930 . S
C1662 C1660 1.419 . S
C1662 C1663 1.362 . S
C1663 H1653 0.930 . S
C1663 C1656 1.409 . S
C1663 C1662 1.362 . S
H1664 C1670 0.930 . S
H1665 C1673 0.930 . S
H1666 C1674 0.930 . S
H1667 C1675 0.930 . S
H1668 C1678 0.930 . S
H1669 C1679 0.930 . S
C1670 H1664 0.930 . S
C1670 C1671 1.355 . S
C1670 C1672 1.415 1_545 S
C1671 C1670 1.355 . S
C1671 C1673 1.419 . S
C1672 C1670 1.415 1_565 S
C1672 C1677 1.425 . S
C1672 C1679 1.409 . S
C1673 H1665 0.930 . S
C1673 C1671 1.419 . S
C1673 C1674 1.362 1_545 S
C1674 H1666 0.930 . S
C1674 C1673 1.362 1_565 S
C1674 C1677 1.409 . S
C1675 H1667 0.930 . S
C1675 C1676 1.355 . S
C1675 C1677 1.415 . S
C1676 C1675 1.355 . S
C1676 C1678 1.419 . S
C1677 C1672 1.425 . S
C1677 C1674 1.409 . S
C1677 C1675 1.415 . S
C1678 H1668 0.930 . S
C1678 C1676 1.419 . S
C1678 C1679 1.362 . S
C1679 H1669 0.930 . S
C1679 C1672 1.409 . S
C1679 C1678 1.362 . S
H1680 C1686 0.930 . S
H1681 C1689 0.930 . S
H1682 C1690 0.930 . S
H1683 C1691 0.930 . S
H1684 C1694 0.930 . S
H1685 C1695 0.930 . S
C1686 H1680 0.930 . S
C1686 C1687 1.355 . S
C1686 C1688 1.415 . S
C1687 C1686 1.355 . S
C1687 C1689 1.419 . S
C1688 C1686 1.415 . S
C1688 C1693 1.425 . S
C1688 C1695 1.409 . S
C1689 H1681 0.930 . S
C1689 C1687 1.419 . S
C1689 C1690 1.362 . S
C1690 H1682 0.930 . S
C1690 C1689 1.362 . S
C1690 C1693 1.409 . S
C1691 H1683 0.930 . S
C1691 C1692 1.355 . S
C1691 C1693 1.415 . S
C1692 C1691 1.355 . S
C1692 C1694 1.419 . S
C1693 C1688 1.425 . S
C1693 C1690 1.409 . S
C1693 C1691 1.415 . S
C1694 H1684 0.930 . S
C1694 C1692 1.419 . S
C1694 C1695 1.362 . S
C1695 H1685 0.930 . S
C1695 C1688 1.409 . S
C1695 C1694 1.362 . S
H1696 C1702 0.930 . S
H1697 C1705 0.930 . S
H1698 C1706 0.930 . S
H1699 C1707 0.930 . S
H1700 C1710 0.930 . S
H1701 C1711 0.930 . S
C1702 H1696 0.930 . S
C1702 C1703 1.355 . S
C1702 C1704 1.415 . S
C1703 C1702 1.355 . S
C1703 C1705 1.419 . S
C1704 C1702 1.415 . S
C1704 C1709 1.425 . S
C1704 C1711 1.409 . S
C1705 H1697 0.930 . S
C1705 C1703 1.419 . S
C1705 C1706 1.362 . S
C1706 H1698 0.930 . S
C1706 C1705 1.362 . S
C1706 C1709 1.409 . S
C1707 H1699 0.930 . S
C1707 C1708 1.355 . S
C1707 C1709 1.415 . S
C1708 C1707 1.355 . S
C1708 C1710 1.419 . S
C1709 C1704 1.425 . S
C1709 C1706 1.409 . S
C1709 C1707 1.415 . S
C1710 H1700 0.930 . S
C1710 C1708 1.419 . S
C1710 C1711 1.362 . S
C1711 H1701 0.930 . S
C1711 C1704 1.409 . S
C1711 C1710 1.362 . S
H1712 C1718 0.930 . S
H1713 C1721 0.930 . S
H1714 C1722 0.930 . S
H1715 C1723 0.930 . S
H1716 C1726 0.930 . S
H1717 C1727 0.930 . S
C1718 H1712 0.930 . S
C1718 C1719 1.355 . S
C1718 C1720 1.415 . S
C1719 C1718 1.355 . S
C1719 C1721 1.419 . S
C1720 C1718 1.415 . S
C1720 C1725 1.425 . S
C1720 C1727 1.409 . S
C1721 H1713 0.930 . S
C1721 C1719 1.419 . S
C1721 C1722 1.362 . S
C1722 H1714 0.930 . S
C1722 C1721 1.362 . S
C1722 C1725 1.409 . S
C1723 H1715 0.930 . S
C1723 C1724 1.355 . S
C1723 C1725 1.415 . S
C1724 C1723 1.355 . S
C1724 C1726 1.419 . S
C1725 C1720 1.425 . S
C1725 C1722 1.409 . S
C1725 C1723 1.415 . S
C1726 H1716 0.930 . S
C1726 C1724 1.419 . S
C1726 C1727 1.362 . S
C1727 H1717 0.930 . S
C1727 C1720 1.409 . S
C1727 C1726 1.362 . S
H1728 C1734 0.930 . S
H1729 C1737 0.930 . S
H1730 C1738 0.930 . S
H1731 C1739 0.930 . S
H1732 C1742 0.930 . S
H1733 C1743 0.930 . S
C1734 H1728 0.930 . S
C1734 C1735 1.355 . S
C1734 C1736 1.415 . S
C1735 C1734 1.355 . S
C1735 C1737 1.419 . S
C1736 C1734 1.415 . S
C1736 C1741 1.425 . S
C1736 C1743 1.409 . S
C1737 H1729 0.930 . S
C1737 C1735 1.419 . S
C1737 C1738 1.362 . S
C1738 H1730 0.930 . S
C1738 C1737 1.362 . S
C1738 C1741 1.409 . S
C1739 H1731 0.930 . S
C1739 C1740 1.355 . S
C1739 C1741 1.415 . S
C1740 C1739 1.355 . S
C1740 C1742 1.419 . S
C1741 C1736 1.425 . S
C1741 C1738 1.409 . S
C1741 C1739 1.415 . S
C1742 H1732 0.930 . S
C1742 C1740 1.419 . S
C1742 C1743 1.362 . S
C1743 H1733 0.930 . S
C1743 C1736 1.409 . S
C1743 C1742 1.362 . S
H1744 C1750 0.930 . S
H1745 C1753 0.930 . S
H1746 C1754 0.930 . S
H1747 C1755 0.930 . S
H1748 C1758 0.930 . S
H1749 C1759 0.930 . S
C1750 H1744 0.930 . S
C1750 C1751 1.355 . S
C1750 C1752 1.415 . S
C1751 C1750 1.355 . S
C1751 C1753 1.419 . S
C1752 C1750 1.415 . S
C1752 C1757 1.425 . S
C1752 C1759 1.409 . S
C1753 H1745 0.930 . S
C1753 C1751 1.419 . S
C1753 C1754 1.362 . S
C1754 H1746 0.930 . S
C1754 C1753 1.362 . S
C1754 C1757 1.409 . S
C1755 H1747 0.930 . S
C1755 C1756 1.355 . S
C1755 C1757 1.415 . S
C1756 C1755 1.355 . S
C1756 C1758 1.419 . S
C1757 C1752 1.425 . S
C1757 C1754 1.409 . S
C1757 C1755 1.415 . S
C1758 H1748 0.930 . S
C1758 C1756 1.419 . S
C1758 C1759 1.362 . S
C1759 H1749 0.930 . S
C1759 C1752 1.409 . S
C1759 C1758 1.362 . S
H1760 C1766 0.930 . S
H1761 C1769 0.930 . S
H1762 C1770 0.930 . S
H1763 C1771 0.930 . S
H1764 C1774 0.930 . S
H1765 C1775 0.930 . S
C1766 H1760 0.930 . S
C1766 C1767 1.355 . S
C1766 C1768 1.415 . S
C1767 C1766 1.355 . S
C1767 C1769 1.419 . S
C1768 C1766 1.415 . S
C1768 C1773 1.425 . S
C1768 C1775 1.409 . S
C1769 H1761 0.930 . S
C1769 C1767 1.419 . S
C1769 C1770 1.362 . S
C1770 H1762 0.930 . S
C1770 C1769 1.362 . S
C1770 C1773 1.409 . S
C1771 H1763 0.930 . S
C1771 C1772 1.355 . S
C1771 C1773 1.415 . S
C1772 C1771 1.355 . S
C1772 C1774 1.419 . S
C1773 C1768 1.425 . S
C1773 C1770 1.409 . S
C1773 C1771 1.415 . S
C1774 H1764 0.930 . S
C1774 C1772 1.419 . S
C1774 C1775 1.362 . S
C1775 H1765 0.930 . S
C1775 C1768 1.409 . S
C1775 C1774 1.362 . S
H1776 C1782 0.930 . S
H1777 C1785 0.930 . S
H1778 C1786 0.930 . S
H1779 C1787 0.930 . S
H1780 C1790 0.930 . S
H1781 C1791 0.930 . S
C1782 H1776 0.930 . S
C1782 C1783 1.355 . S
C1782 C1784 1.415 1_545 S
C1783 C1782 1.355 . S
C1783 C1785 1.419 . S
C1784 C1782 1.415 1_565 S
C1784 C1789 1.425 . S
C1784 C1791 1.409 . S
C1785 H1777 0.930 . S
C1785 C1783 1.419 . S
C1785 C1786 1.362 1_545 S
C1786 H1778 0.930 . S
C1786 C1785 1.362 1_565 S
C1786 C1789 1.409 . S
C1787 H1779 0.930 . S
C1787 C1788 1.355 . S
C1787 C1789 1.415 . S
C1788 C1787 1.355 . S
C1788 C1790 1.419 . S
C1789 C1784 1.425 . S
C1789 C1786 1.409 . S
C1789 C1787 1.415 . S
C1790 H1780 0.930 . S
C1790 C1788 1.419 . S
C1790 C1791 1.362 . S
C1791 H1781 0.930 . S
C1791 C1784 1.409 . S
C1791 C1790 1.362 . S
H1792 C1798 0.930 1_655 S
H1793 C1801 0.930 . S
H1794 C1802 0.930 . S
H1795 C1803 0.930 . S
H1796 C1806 0.930 . S
H1797 C1807 0.930 . S
C1798 H1792 0.930 1_455 S
C1798 C1799 1.355 . S
C1798 C1800 1.415 . S
C1799 C1798 1.355 . S
C1799 C1801 1.419 . S
C1800 C1798 1.415 . S
C1800 C1805 1.425 . S
C1800 C1807 1.409 . S
C1801 H1793 0.930 . S
C1801 C1799 1.419 . S
C1801 C1802 1.362 . S
C1802 H1794 0.930 . S
C1802 C1801 1.362 . S
C1802 C1805 1.409 . S
C1803 H1795 0.930 . S
C1803 C1804 1.355 . S
C1803 C1805 1.415 . S
C1804 C1803 1.355 . S
C1804 C1806 1.419 . S
C1805 C1800 1.425 . S
C1805 C1802 1.409 . S
C1805 C1803 1.415 . S
C1806 H1796 0.930 . S
C1806 C1804 1.419 . S
C1806 C1807 1.362 . S
C1807 H1797 0.930 . S
C1807 C1800 1.409 . S
C1807 C1806 1.362 . S
H1808 C1814 0.930 . S
H1809 C1817 0.930 . S
H1810 C1818 0.930 . S
H1811 C1819 0.930 . S
H1812 C1822 0.930 . S
H1813 C1823 0.930 . S
C1814 H1808 0.930 . S
C1814 C1815 1.355 . S
C1814 C1816 1.415 . S
C1815 C1814 1.355 . S
C1815 C1817 1.419 . S
C1816 C1814 1.415 . S
C1816 C1821 1.425 . S
C1816 C1823 1.409 . S
C1817 H1809 0.930 . S
C1817 C1815 1.419 . S
C1817 C1818 1.362 . S
C1818 H1810 0.930 . S
C1818 C1817 1.362 . S
C1818 C1821 1.409 . S
C1819 H1811 0.930 . S
C1819 C1820 1.355 . S
C1819 C1821 1.415 . S
C1820 C1819 1.355 . S
C1820 C1822 1.419 . S
C1821 C1816 1.425 . S
C1821 C1818 1.409 . S
C1821 C1819 1.415 . S
C1822 H1812 0.930 . S
C1822 C1820 1.419 . S
C1822 C1823 1.362 . S
C1823 H1813 0.930 . S
C1823 C1816 1.409 . S
C1823 C1822 1.362 . S
H1824 C1830 0.930 . S
H1825 C1833 0.930 . S
H1826 C1834 0.930 . S
H1827 C1835 0.930 . S
H1828 C1838 0.930 . S
H1829 C1839 0.930 . S
C1830 H1824 0.930 . S
C1830 C1831 1.355 . S
C1830 C1832 1.415 . S
C1831 C1830 1.355 . S
C1831 C1833 1.419 . S
C1832 C1830 1.415 . S
C1832 C1837 1.425 . S
C1832 C1839 1.409 . S
C1833 H1825 0.930 . S
C1833 C1831 1.419 . S
C1833 C1834 1.362 . S
C1834 H1826 0.930 . S
C1834 C1833 1.362 . S
C1834 C1837 1.409 . S
C1835 H1827 0.930 . S
C1835 C1836 1.355 . S
C1835 C1837 1.415 . S
C1836 C1835 1.355 . S
C1836 C1838 1.419 . S
C1837 C1832 1.425 . S
C1837 C1834 1.409 . S
C1837 C1835 1.415 . S
C1838 H1828 0.930 . S
C1838 C1836 1.419 . S
C1838 C1839 1.362 . S
C1839 H1829 0.930 . S
C1839 C1832 1.409 . S
C1839 C1838 1.362 . S
H1840 C1846 0.930 . S
H1841 C1849 0.930 . S
H1842 C1850 0.930 . S
H1843 C1851 0.930 . S
H1844 C1854 0.930 . S
H1845 C1855 0.930 . S
C1846 H1840 0.930 . S
C1846 C1847 1.355 . S
C1846 C1848 1.415 . S
C1847 C1846 1.355 . S
C1847 C1849 1.419 . S
C1848 C1846 1.415 . S
C1848 C1853 1.425 . S
C1848 C1855 1.409 . S
C1849 H1841 0.930 . S
C1849 C1847 1.419 . S
C1849 C1850 1.362 . S
C1850 H1842 0.930 . S
C1850 C1849 1.362 . S
C1850 C1853 1.409 . S
C1851 H1843 0.930 . S
C1851 C1852 1.355 . S
C1851 C1853 1.415 . S
C1852 C1851 1.355 . S
C1852 C1854 1.419 . S
C1853 C1848 1.425 . S
C1853 C1850 1.409 . S
C1853 C1851 1.415 . S
C1854 H1844 0.930 . S
C1854 C1852 1.419 . S
C1854 C1855 1.362 . S
C1855 H1845 0.930 . S
C1855 C1848 1.409 . S
C1855 C1854 1.362 . S
H1856 C1862 0.930 . S
H1857 C1865 0.930 . S
H1858 C1866 0.930 . S
H1859 C1867 0.930 . S
H1860 C1870 0.930 . S
H1861 C1871 0.930 . S
C1862 H1856 0.930 . S
C1862 C1863 1.355 . S
C1862 C1864 1.415 . S
C1863 C1862 1.355 . S
C1863 C1865 1.419 . S
C1864 C1862 1.415 . S
C1864 C1869 1.425 . S
C1864 C1871 1.409 . S
C1865 H1857 0.930 . S
C1865 C1863 1.419 . S
C1865 C1866 1.362 . S
C1866 H1858 0.930 . S
C1866 C1865 1.362 . S
C1866 C1869 1.409 . S
C1867 H1859 0.930 . S
C1867 C1868 1.355 . S
C1867 C1869 1.415 . S
C1868 C1867 1.355 . S
C1868 C1870 1.419 . S
C1869 C1864 1.425 . S
C1869 C1866 1.409 . S
C1869 C1867 1.415 . S
C1870 H1860 0.930 . S
C1870 C1868 1.419 . S
C1870 C1871 1.362 . S
C1871 H1861 0.930 . S
C1871 C1864 1.409 . S
C1871 C1870 1.362 . S
H1872 C1878 0.930 . S
H1873 C1881 0.930 . S
H1874 C1882 0.930 . S
H1875 C1883 0.930 . S
H1876 C1886 0.930 . S
H1877 C1887 0.930 . S
C1878 H1872 0.930 . S
C1878 C1879 1.355 . S
C1878 C1880 1.415 1_565 S
C1879 C1878 1.355 . S
C1879 C1881 1.419 . S
C1880 C1878 1.415 1_545 S
C1880 C1885 1.425 . S
C1880 C1887 1.409 . S
C1881 H1873 0.930 . S
C1881 C1879 1.419 . S
C1881 C1882 1.362 1_565 S
C1882 H1874 0.930 . S
C1882 C1881 1.362 1_545 S
C1882 C1885 1.409 . S
C1883 H1875 0.930 . S
C1883 C1884 1.355 . S
C1883 C1885 1.415 . S
C1884 C1883 1.355 . S
C1884 C1886 1.419 . S
C1885 C1880 1.425 . S
C1885 C1882 1.409 . S
C1885 C1883 1.415 . S
C1886 H1876 0.930 . S
C1886 C1884 1.419 . S
C1886 C1887 1.362 . S
C1887 H1877 0.930 . S
C1887 C1880 1.409 . S
C1887 C1886 1.362 . S
H1888 C1894 0.930 1_455 S
H1889 C1897 0.930 . S
H1890 C1898 0.930 . S
H1891 C1899 0.930 . S
H1892 C1902 0.930 . S
H1893 C1903 0.930 . S
C1894 H1888 0.930 1_655 S
C1894 C1895 1.355 . S
C1894 C1896 1.415 . S
C1895 C1894 1.355 . S
C1895 C1897 1.419 . S
C1896 C1894 1.415 . S
C1896 C1901 1.425 . S
C1896 C1903 1.409 . S
C1897 H1889 0.930 . S
C1897 C1895 1.419 . S
C1897 C1898 1.362 . S
C1898 H1890 0.930 . S
C1898 C1897 1.362 . S
C1898 C1901 1.409 . S
C1899 H1891 0.930 . S
C1899 C1900 1.355 . S
C1899 C1901 1.415 . S
C1900 C1899 1.355 . S
C1900 C1902 1.419 . S
C1901 C1896 1.425 . S
C1901 C1898 1.409 . S
C1901 C1899 1.415 . S
C1902 H1892 0.930 . S
C1902 C1900 1.419 . S
C1902 C1903 1.362 . S
C1903 H1893 0.930 . S
C1903 C1896 1.409 . S
C1903 C1902 1.362 . S
H1904 C1910 0.930 . S
H1905 C1913 0.930 . S
H1906 C1914 0.930 . S
H1907 C1915 0.930 . S
H1908 C1918 0.930 . S
H1909 C1919 0.930 . S
C1910 H1904 0.930 . S
C1910 C1911 1.355 . S
C1910 C1912 1.415 . S
C1911 C1910 1.355 . S
C1911 C1913 1.419 . S
C1912 C1910 1.415 . S
C1912 C1917 1.425 . S
C1912 C1919 1.409 . S
C1913 H1905 0.930 . S
C1913 C1911 1.419 . S
C1913 C1914 1.362 . S
C1914 H1906 0.930 . S
C1914 C1913 1.362 . S
C1914 C1917 1.409 . S
C1915 H1907 0.930 . S
C1915 C1916 1.355 . S
C1915 C1917 1.415 . S
C1916 C1915 1.355 . S
C1916 C1918 1.419 . S
C1917 C1912 1.425 . S
C1917 C1914 1.409 . S
C1917 C1915 1.415 . S
C1918 H1908 0.930 . S
C1918 C1916 1.419 . S
C1918 C1919 1.362 . S
C1919 H1909 0.930 . S
C1919 C1912 1.409 . S
C1919 C1918 1.362 . S
H1920 C1926 0.930 . S
H1921 C1929 0.930 . S
H1922 C1930 0.930 . S
H1923 C1931 0.930 . S
H1924 C1934 0.930 . S
H1925 C1935 0.930 . S
C1926 H1920 0.930 . S
C1926 C1927 1.355 1_655 S
C1926 C1928 1.415 . S
C1927 C1926 1.355 1_455 S
C1927 C1929 1.419 . S
C1928 C1926 1.415 . S
C1928 C1933 1.425 . S
C1928 C1935 1.409 . S
C1929 H1921 0.930 . S
C1929 C1927 1.419 . S
C1929 C1930 1.362 1_455 S
C1930 H1922 0.930 . S
C1930 C1929 1.362 1_655 S
C1930 C1933 1.409 . S
C1931 H1923 0.930 . S
C1931 C1932 1.355 . S
C1931 C1933 1.415 . S
C1932 C1931 1.355 . S
C1932 C1934 1.419 . S
C1933 C1928 1.425 . S
C1933 C1930 1.409 . S
C1933 C1931 1.415 . S
C1934 H1924 0.930 . S
C1934 C1932 1.419 . S
C1934 C1935 1.362 . S
C1935 H1925 0.930 . S
C1935 C1928 1.409 . S
C1935 C1934 1.362 . S
H1936 C1942 0.930 . S
H1937 C1945 0.930 . S
H1938 C1946 0.930 . S
H1939 C1947 0.930 . S
H1940 C1950 0.930 . S
H1941 C1951 0.930 . S
C1942 H1936 0.930 . S
C1942 C1943 1.355 . S
C1942 C1944 1.415 . S
C1943 C1942 1.355 . S
C1943 C1945 1.419 . S
C1944 C1942 1.415 . S
C1944 C1949 1.425 . S
C1944 C1951 1.409 . S
C1945 H1937 0.930 . S
C1945 C1943 1.419 . S
C1945 C1946 1.362 . S
C1946 H1938 0.930 . S
C1946 C1945 1.362 . S
C1946 C1949 1.409 . S
C1947 H1939 0.930 . S
C1947 C1948 1.355 . S
C1947 C1949 1.415 . S
C1948 C1947 1.355 . S
C1948 C1950 1.419 . S
C1949 C1944 1.425 . S
C1949 C1946 1.409 . S
C1949 C1947 1.415 . S
C1950 H1940 0.930 . S
C1950 C1948 1.419 . S
C1950 C1951 1.362 . S
C1951 H1941 0.930 . S
C1951 C1944 1.409 . S
C1951 C1950 1.362 . S
H1952 C1958 0.930 . S
H1953 C1961 0.930 . S
H1954 C1962 0.930 . S
H1955 C1963 0.930 . S
H1956 C1966 0.930 . S
H1957 C1967 0.930 . S
C1958 H1952 0.930 . S
C1958 C1959 1.355 . S
C1958 C1960 1.415 1_565 S
C1959 C1958 1.355 . S
C1959 C1961 1.419 . S
C1960 C1958 1.415 1_545 S
C1960 C1965 1.425 . S
C1960 C1967 1.409 . S
C1961 H1953 0.930 . S
C1961 C1959 1.419 . S
C1961 C1962 1.362 1_565 S
C1962 H1954 0.930 . S
C1962 C1961 1.362 1_545 S
C1962 C1965 1.409 . S
C1963 H1955 0.930 . S
C1963 C1964 1.355 . S
C1963 C1965 1.415 . S
C1964 C1963 1.355 . S
C1964 C1966 1.419 . S
C1965 C1960 1.425 . S
C1965 C1962 1.409 . S
C1965 C1963 1.415 . S
C1966 H1956 0.930 . S
C1966 C1964 1.419 . S
C1966 C1967 1.362 . S
C1967 H1957 0.930 . S
C1967 C1960 1.409 . S
C1967 C1966 1.362 . S
H1968 C1974 0.930 . S
H1969 C1977 0.930 . S
H1970 C1978 0.930 . S
H1971 C1979 0.930 . S
H1972 C1982 0.930 . S
H1973 C1983 0.930 . S
C1974 H1968 0.930 . S
C1974 C1975 1.355 . S
C1974 C1976 1.415 . S
C1975 C1974 1.355 . S
C1975 C1977 1.419 . S
C1976 C1974 1.415 . S
C1976 C1981 1.425 . S
C1976 C1983 1.409 . S
C1977 H1969 0.930 . S
C1977 C1975 1.419 . S
C1977 C1978 1.362 . S
C1978 H1970 0.930 . S
C1978 C1977 1.362 . S
C1978 C1981 1.409 . S
C1979 H1971 0.930 . S
C1979 C1980 1.355 . S
C1979 C1981 1.415 . S
C1980 C1979 1.355 . S
C1980 C1982 1.419 . S
C1981 C1976 1.425 . S
C1981 C1978 1.409 . S
C1981 C1979 1.415 . S
C1982 H1972 0.930 . S
C1982 C1980 1.419 . S
C1982 C1983 1.362 . S
C1983 H1973 0.930 . S
C1983 C1976 1.409 . S
C1983 C1982 1.362 . S
H1984 C1990 0.930 . S
H1985 C1993 0.930 . S
H1986 C1994 0.930 . S
H1987 C1995 0.930 . S
H1988 C1998 0.930 . S
H1989 C1999 0.930 . S
C1990 H1984 0.930 . S
C1990 C1991 1.355 . S
C1990 C1992 1.415 . S
C1991 C1990 1.355 . S
C1991 C1993 1.419 . S
C1992 C1990 1.415 . S
C1992 C1997 1.425 . S
C1992 C1999 1.409 . S
C1993 H1985 0.930 . S
C1993 C1991 1.419 . S
C1993 C1994 1.362 . S
C1994 H1986 0.930 . S
C1994 C1993 1.362 . S
C1994 C1997 1.409 . S
C1995 H1987 0.930 . S
C1995 C1996 1.355 . S
C1995 C1997 1.415 . S
C1996 C1995 1.355 . S
C1996 C1998 1.419 . S
C1997 C1992 1.425 . S
C1997 C1994 1.409 . S
C1997 C1995 1.415 . S
C1998 H1988 0.930 . S
C1998 C1996 1.419 . S
C1998 C1999 1.362 . S
C1999 H1989 0.930 . S
C1999 C1992 1.409 . S
C1999 C1998 1.362 . S
H2000 C2006 0.930 . S
H2001 C2009 0.930 . S
H2002 C2010 0.930 . S
H2003 C2011 0.930 . S
H2004 C2014 0.930 . S
H2005 C2015 0.930 . S
C2006 H2000 0.930 . S
C2006 C2007 1.355 . S
C2006 C2008 1.415 . S
C2007 C2006 1.355 . S
C2007 C2009 1.419 . S
C2008 C2006 1.415 . S
C2008 C2013 1.425 . S
C2008 C2015 1.409 . S
C2009 H2001 0.930 . S
C2009 C2007 1.419 . S
C2009 C2010 1.362 . S
C2010 H2002 0.930 . S
C2010 C2009 1.362 . S
C2010 C2013 1.409 . S
C2011 H2003 0.930 . S
C2011 C2012 1.355 . S
C2011 C2013 1.415 . S
C2012 C2011 1.355 . S
C2012 C2014 1.419 . S
C2013 C2008 1.425 . S
C2013 C2010 1.409 . S
C2013 C2011 1.415 . S
C2014 H2004 0.930 . S
C2014 C2012 1.419 . S
C2014 C2015 1.362 . S
C2015 H2005 0.930 . S
C2015 C2008 1.409 . S
C2015 C2014 1.362 . S
H2016 C2022 0.930 . S
H2017 C2025 0.930 . S
H2018 C2026 0.930 . S
H2019 C2027 0.924 . S
H2020 C2030 0.930 . S
H2021 C2031 0.930 . S
C2022 H2016 0.930 . S
C2022 C2023 1.355 . S
C2022 C2024 1.415 . S
C2023 C2022 1.355 . S
C2023 C2025 1.419 . S
C2024 C2022 1.415 . S
C2024 C2029 1.425 . S
C2024 C2031 1.409 . S
C2025 H2017 0.930 . S
C2025 C2023 1.419 . S
C2025 C2026 1.362 . S
C2026 H2018 0.930 . S
C2026 C2025 1.362 . S
C2026 C2029 1.409 . S
C2027 H2019 0.924 . S
C2027 C2028 1.355 . S
C2027 C2029 1.415 . S
C2028 C2027 1.355 . S
C2028 C2030 1.419 . S
C2029 C2024 1.425 . S
C2029 C2026 1.409 . S
C2029 C2027 1.415 . S
C2030 H2020 0.930 . S
C2030 C2028 1.419 . S
C2030 C2031 1.362 . S
C2031 H2021 0.930 . S
C2031 C2024 1.409 . S
C2031 C2030 1.362 . S
H2032 C2038 0.930 . S
H2033 C2041 0.930 . S
H2034 C2042 0.930 . S
H2035 C2043 0.930 . S
H2036 C2046 0.930 . S
H2037 C2047 0.930 . S
C2038 H2032 0.930 . S
C2038 C2039 1.355 . S
C2038 C2040 1.415 . S
C2039 C2038 1.355 . S
C2039 C2041 1.419 1_455 S
C2040 C2038 1.415 . S
C2040 C2045 1.425 1_455 S
C2040 C2047 1.409 . S
C2041 H2033 0.930 . S
C2041 C2039 1.419 1_655 S
C2041 C2042 1.362 . S
C2042 H2034 0.930 . S
C2042 C2041 1.362 . S
C2042 C2045 1.409 . S
C2043 H2035 0.930 . S
C2043 C2044 1.355 1_655 S
C2043 C2045 1.415 . S
C2044 C2043 1.355 1_455 S
C2044 C2046 1.419 . S
C2045 C2040 1.425 1_655 S
C2045 C2042 1.409 . S
C2045 C2043 1.415 . S
C2046 H2036 0.930 . S
C2046 C2044 1.419 . S
C2046 C2047 1.362 . S
C2047 H2037 0.930 . S
C2047 C2040 1.409 . S
C2047 C2046 1.362 . S
H2048 C2054 0.930 . S
H2049 C2057 0.930 . S
H2050 C2058 0.930 . S
H2051 C2059 0.930 . S
H2052 C2062 0.930 . S
H2053 C2063 0.930 . S
C2054 H2048 0.930 . S
C2054 C2055 1.355 . S
C2054 C2056 1.415 . S
C2055 C2054 1.355 . S
C2055 C2057 1.419 . S
C2056 C2054 1.415 . S
C2056 C2061 1.425 . S
C2056 C2063 1.409 . S
C2057 H2049 0.930 . S
C2057 C2055 1.419 . S
C2057 C2058 1.362 . S
C2058 H2050 0.930 . S
C2058 C2057 1.362 . S
C2058 C2061 1.409 . S
C2059 H2051 0.930 . S
C2059 C2060 1.355 . S
C2059 C2061 1.415 . S
C2060 C2059 1.355 . S
C2060 C2062 1.419 . S
C2061 C2056 1.425 . S
C2061 C2058 1.409 . S
C2061 C2059 1.415 . S
C2062 H2052 0.930 . S
C2062 C2060 1.419 . S
C2062 C2063 1.362 . S
C2063 H2053 0.930 . S
C2063 C2056 1.409 . S
C2063 C2062 1.362 . S
H2064 C2070 0.930 . S
H2065 C2073 0.930 . S
H2066 C2074 0.930 . S
H2067 C2075 0.930 . S
H2068 C2078 0.927 . S
H2069 C2079 0.927 . S
C2070 H2064 0.930 . S
C2070 C2071 1.355 1_455 S
C2070 C2072 1.415 1_455 S
C2071 C2070 1.355 1_655 S
C2071 C2073 1.419 . S
C2072 C2070 1.415 1_655 S
C2072 C2077 1.425 . S
C2072 C2079 1.415 1_655 S
C2073 H2065 0.930 . S
C2073 C2071 1.419 . S
C2073 C2074 1.362 . S
C2074 H2066 0.930 . S
C2074 C2073 1.362 . S
C2074 C2077 1.409 . S
C2075 H2067 0.930 . S
C2075 C2076 1.355 . S
C2075 C2077 1.415 . S
C2076 C2075 1.355 . S
C2076 C2078 1.419 . S
C2077 C2072 1.425 . S
C2077 C2074 1.409 . S
C2077 C2075 1.415 . S
C2078 H2068 0.927 . S
C2078 C2076 1.419 . S
C2078 C2079 1.360 1_655 S
C2079 H2069 0.927 . S
C2079 C2072 1.415 1_455 S
C2079 C2078 1.360 1_455 S
H2080 C2086 0.930 . S
H2081 C2089 0.930 . S
H2082 C2090 0.930 . S
H2083 C2091 0.930 . S
H2084 C2094 0.930 . S
H2085 C2095 0.930 . S
C2086 H2080 0.930 . S
C2086 C2087 1.355 . S
C2086 C2088 1.415 . S
C2087 C2086 1.355 . S
C2087 C2089 1.419 . S
C2088 C2086 1.415 . S
C2088 C2093 1.425 . S
C2088 C2095 1.409 . S
C2089 H2081 0.930 . S
C2089 C2087 1.419 . S
C2089 C2090 1.362 . S
C2090 H2082 0.930 . S
C2090 C2089 1.362 . S
C2090 C2093 1.409 . S
C2091 H2083 0.930 . S
C2091 C2092 1.355 . S
C2091 C2093 1.415 . S
C2092 C2091 1.355 . S
C2092 C2094 1.419 . S
C2093 C2088 1.425 . S
C2093 C2090 1.409 . S
C2093 C2091 1.415 . S
C2094 H2084 0.930 . S
C2094 C2092 1.419 . S
C2094 C2095 1.362 . S
C2095 H2085 0.930 . S
C2095 C2088 1.409 . S
C2095 C2094 1.362 . S
H2096 C2102 0.930 . S
H2097 C2105 0.930 . S
H2098 C2106 0.930 . S
H2099 C2107 0.930 . S
H2100 C2110 0.930 . S
H2101 C2111 0.930 . S
C2102 H2096 0.930 . S
C2102 C2103 1.355 . S
C2102 C2104 1.415 . S
C2103 C2102 1.355 . S
C2103 C2105 1.419 . S
C2104 C2102 1.415 . S
C2104 C2109 1.425 . S
C2104 C2111 1.409 1_545 S
C2105 H2097 0.930 . S
C2105 C2103 1.419 . S
C2105 C2106 1.362 . S
C2106 H2098 0.930 . S
C2106 C2105 1.362 . S
C2106 C2109 1.409 . S
C2107 H2099 0.930 . S
C2107 C2108 1.355 . S
C2107 C2109 1.415 . S
C2108 C2107 1.355 . S
C2108 C2110 1.419 1_545 S
C2109 C2104 1.425 . S
C2109 C2106 1.409 . S
C2109 C2107 1.415 . S
C2110 H2100 0.930 . S
C2110 C2108 1.419 1_565 S
C2110 C2111 1.362 . S
C2111 H2101 0.930 . S
C2111 C2104 1.409 1_565 S
C2111 C2110 1.362 . S
H2112 C2118 0.930 . S
H2113 C2121 0.930 . S
H2114 C2122 0.930 . S
H2115 C2123 0.930 . S
H2116 C2126 0.930 . S
H2117 C2127 0.930 . S
C2118 H2112 0.930 . S
C2118 C2119 1.355 . S
C2118 C2120 1.415 . S
C2119 C2118 1.355 . S
C2119 C2121 1.419 . S
C2120 C2118 1.415 . S
C2120 C2125 1.425 . S
C2120 C2127 1.409 . S
C2121 H2113 0.930 . S
C2121 C2119 1.419 . S
C2121 C2122 1.362 . S
C2122 H2114 0.930 . S
C2122 C2121 1.362 . S
C2122 C2125 1.409 . S
C2123 H2115 0.930 . S
C2123 C2124 1.355 . S
C2123 C2125 1.415 . S
C2124 C2123 1.355 . S
C2124 C2126 1.419 . S
C2125 C2120 1.425 . S
C2125 C2122 1.409 . S
C2125 C2123 1.415 . S
C2126 H2116 0.930 . S
C2126 C2124 1.419 . S
C2126 C2127 1.362 . S
C2127 H2117 0.930 . S
C2127 C2120 1.409 . S
C2127 C2126 1.362 . S
H2128 C2134 0.930 . S
H2129 C2137 0.930 . S
H2130 C2138 0.930 . S
H2131 C2139 0.930 . S
H2132 C2142 0.930 . S
H2133 C2143 0.930 . S
C2134 H2128 0.930 . S
C2134 C2135 1.355 . S
C2134 C2136 1.415 . S
C2135 C2134 1.355 . S
C2135 C2137 1.419 . S
C2136 C2134 1.415 . S
C2136 C2141 1.425 . S
C2136 C2143 1.409 . S
C2137 H2129 0.930 . S
C2137 C2135 1.419 . S
C2137 C2138 1.362 . S
C2138 H2130 0.930 . S
C2138 C2137 1.362 . S
C2138 C2141 1.409 . S
C2139 H2131 0.930 . S
C2139 C2140 1.355 . S
C2139 C2141 1.415 . S
C2140 C2139 1.355 . S
C2140 C2142 1.419 . S
C2141 C2136 1.425 . S
C2141 C2138 1.409 . S
C2141 C2139 1.415 . S
C2142 H2132 0.930 . S
C2142 C2140 1.419 . S
C2142 C2143 1.362 . S
C2143 H2133 0.930 . S
C2143 C2136 1.409 . S
C2143 C2142 1.362 . S
H2144 C2150 0.930 . S
H2145 C2153 0.930 . S
H2146 C2154 0.930 . S
H2147 C2155 0.930 . S
H2148 C2158 0.930 . S
H2149 C2159 0.930 . S
C2150 H2144 0.930 . S
C2150 C2151 1.355 . S
C2150 C2152 1.415 . S
C2151 C2150 1.355 . S
C2151 C2153 1.419 . S
C2152 C2150 1.415 . S
C2152 C2157 1.425 . S
C2152 C2159 1.409 . S
C2153 H2145 0.930 . S
C2153 C2151 1.419 . S
C2153 C2154 1.362 . S
C2154 H2146 0.930 . S
C2154 C2153 1.362 . S
C2154 C2157 1.409 . S
C2155 H2147 0.930 . S
C2155 C2156 1.355 . S
C2155 C2157 1.415 . S
C2156 C2155 1.355 . S
C2156 C2158 1.419 . S
C2157 C2152 1.425 . S
C2157 C2154 1.409 . S
C2157 C2155 1.415 . S
C2158 H2148 0.930 . S
C2158 C2156 1.419 . S
C2158 C2159 1.362 . S
C2159 H2149 0.930 . S
C2159 C2152 1.409 . S
C2159 C2158 1.362 . S
H2160 C2166 0.930 . S
H2161 C2169 0.930 . S
H2162 C2170 0.930 . S
H2163 C2171 0.930 . S
H2164 C2174 0.930 . S
H2165 C2175 0.930 . S
C2166 H2160 0.930 . S
C2166 C2167 1.355 . S
C2166 C2168 1.415 . S
C2167 C2166 1.355 . S
C2167 C2169 1.419 . S
C2168 C2166 1.415 . S
C2168 C2173 1.425 . S
C2168 C2175 1.409 . S
C2169 H2161 0.930 . S
C2169 C2167 1.419 . S
C2169 C2170 1.362 . S
C2170 H2162 0.930 . S
C2170 C2169 1.362 . S
C2170 C2173 1.409 . S
C2171 H2163 0.930 . S
C2171 C2172 1.355 . S
C2171 C2173 1.415 . S
C2172 C2171 1.355 . S
C2172 C2174 1.419 . S
C2173 C2168 1.425 . S
C2173 C2170 1.409 . S
C2173 C2171 1.415 . S
C2174 H2164 0.930 . S
C2174 C2172 1.419 . S
C2174 C2175 1.362 . S
C2175 H2165 0.930 . S
C2175 C2168 1.409 . S
C2175 C2174 1.362 . S
H2176 C2182 0.930 . S
H2177 C2185 0.930 . S
H2178 C2186 0.930 . S
H2179 C2187 0.930 . S
H2180 C2190 0.930 . S
H2181 C2191 0.930 . S
C2182 H2176 0.930 . S
C2182 C2183 1.355 . S
C2182 C2184 1.415 . S
C2183 C2182 1.355 . S
C2183 C2185 1.419 . S
C2184 C2182 1.415 . S
C2184 C2189 1.425 . S
C2184 C2191 1.409 . S
C2185 H2177 0.930 . S
C2185 C2183 1.419 . S
C2185 C2186 1.362 . S
C2186 H2178 0.930 . S
C2186 C2185 1.362 . S
C2186 C2189 1.409 . S
C2187 H2179 0.930 . S
C2187 C2188 1.355 . S
C2187 C2189 1.415 . S
C2188 C2187 1.355 . S
C2188 C2190 1.419 . S
C2189 C2184 1.425 . S
C2189 C2186 1.409 . S
C2189 C2187 1.415 . S
C2190 H2180 0.930 . S
C2190 C2188 1.419 . S
C2190 C2191 1.362 . S
C2191 H2181 0.930 . S
C2191 C2184 1.409 . S
C2191 C2190 1.362 . S
H2192 C2198 0.930 . S
H2193 C2201 0.930 . S
H2194 C2202 0.930 . S
H2195 C2203 0.930 . S
H2196 C2206 0.930 . S
H2197 C2207 0.930 . S
C2198 H2192 0.930 . S
C2198 C2199 1.355 . S
C2198 C2200 1.415 . S
C2199 C2198 1.355 . S
C2199 C2201 1.419 . S
C2200 C2198 1.415 . S
C2200 C2205 1.425 . S
C2200 C2207 1.409 . S
C2201 H2193 0.930 . S
C2201 C2199 1.419 . S
C2201 C2202 1.362 . S
C2202 H2194 0.930 . S
C2202 C2201 1.362 . S
C2202 C2205 1.409 . S
C2203 H2195 0.930 . S
C2203 C2204 1.355 . S
C2203 C2205 1.415 . S
C2204 C2203 1.355 . S
C2204 C2206 1.419 . S
C2205 C2200 1.425 . S
C2205 C2202 1.409 . S
C2205 C2203 1.415 . S
C2206 H2196 0.930 . S
C2206 C2204 1.419 . S
C2206 C2207 1.362 . S
C2207 H2197 0.930 . S
C2207 C2200 1.409 . S
C2207 C2206 1.362 . S
H2208 C2214 0.930 . S
H2209 C2217 0.930 . S
H2210 C2218 0.930 . S
H2211 C2219 0.930 . S
H2212 C2222 0.930 . S
H2213 C2223 0.930 . S
C2214 H2208 0.930 . S
C2214 C2215 1.355 . S
C2214 C2216 1.415 . S
C2215 C2214 1.355 . S
C2215 C2217 1.419 . S
C2216 C2214 1.415 . S
C2216 C2221 1.425 . S
C2216 C2223 1.409 . S
C2217 H2209 0.930 . S
C2217 C2215 1.419 . S
C2217 C2218 1.362 . S
C2218 H2210 0.930 . S
C2218 C2217 1.362 . S
C2218 C2221 1.409 . S
C2219 H2211 0.930 . S
C2219 C2220 1.355 . S
C2219 C2221 1.415 . S
C2220 C2219 1.355 . S
C2220 C2222 1.419 . S
C2221 C2216 1.425 . S
C2221 C2218 1.409 . S
C2221 C2219 1.415 . S
C2222 H2212 0.930 . S
C2222 C2220 1.419 . S
C2222 C2223 1.362 . S
C2223 H2213 0.930 . S
C2223 C2216 1.409 . S
C2223 C2222 1.362 . S
H2224 C2230 0.930 . S
H2225 C2233 0.930 . S
H2226 C2234 0.930 . S
H2227 C2235 0.930 . S
H2228 C2238 0.930 . S
H2229 C2239 0.930 . S
C2230 H2224 0.930 . S
C2230 C2231 1.355 . S
C2230 C2232 1.415 . S
C2231 C2230 1.355 . S
C2231 C2233 1.419 . S
C2232 C2230 1.415 . S
C2232 C2237 1.425 . S
C2232 C2239 1.409 . S
C2233 H2225 0.930 . S
C2233 C2231 1.419 . S
C2233 C2234 1.362 . S
C2234 H2226 0.930 . S
C2234 C2233 1.362 . S
C2234 C2237 1.409 . S
C2235 H2227 0.930 . S
C2235 C2236 1.355 . S
C2235 C2237 1.415 . S
C2236 C2235 1.355 . S
C2236 C2238 1.419 . S
C2237 C2232 1.425 . S
C2237 C2234 1.409 . S
C2237 C2235 1.415 . S
C2238 H2228 0.930 . S
C2238 C2236 1.419 . S
C2238 C2239 1.362 . S
C2239 H2229 0.930 . S
C2239 C2232 1.409 . S
C2239 C2238 1.362 . S
H2240 C2246 0.930 . S
H2241 C2249 0.930 . S
H2242 C2250 0.930 . S
H2243 C2251 0.930 . S
H2244 C2254 0.930 . S
H2245 C2255 0.930 . S
C2246 H2240 0.930 . S
C2246 C2247 1.355 . S
C2246 C2248 1.415 . S
C2247 C2246 1.355 . S
C2247 C2249 1.419 . S
C2248 C2246 1.415 . S
C2248 C2253 1.425 . S
C2248 C2255 1.409 . S
C2249 H2241 0.930 . S
C2249 C2247 1.419 . S
C2249 C2250 1.362 . S
C2250 H2242 0.930 . S
C2250 C2249 1.362 . S
C2250 C2253 1.409 . S
C2251 H2243 0.930 . S
C2251 C2252 1.355 . S
C2251 C2253 1.415 . S
C2252 C2251 1.355 . S
C2252 C2254 1.419 . S
C2253 C2248 1.425 . S
C2253 C2250 1.409 . S
C2253 C2251 1.415 . S
C2254 H2244 0.930 . S
C2254 C2252 1.419 . S
C2254 C2255 1.362 . S
C2255 H2245 0.930 . S
C2255 C2248 1.409 . S
C2255 C2254 1.362 . S
H2256 C2262 0.930 . S
H2257 C2265 0.930 . S
H2258 C2266 0.930 . S
H2259 C2267 0.930 . S
H2260 C2270 0.930 . S
H2261 C2271 0.930 . S
C2262 H2256 0.930 . S
C2262 C2263 1.355 . S
C2262 C2264 1.415 . S
C2263 C2262 1.355 . S
C2263 C2265 1.419 . S
C2264 C2262 1.415 . S
C2264 C2269 1.425 . S
C2264 C2271 1.409 . S
C2265 H2257 0.930 . S
C2265 C2263 1.419 . S
C2265 C2266 1.362 . S
C2266 H2258 0.930 . S
C2266 C2265 1.362 . S
C2266 C2269 1.409 . S
C2267 H2259 0.930 . S
C2267 C2268 1.355 . S
C2267 C2269 1.415 . S
C2268 C2267 1.355 . S
C2268 C2270 1.419 . S
C2269 C2264 1.425 . S
C2269 C2266 1.409 . S
C2269 C2267 1.415 . S
C2270 H2260 0.930 . S
C2270 C2268 1.419 . S
C2270 C2271 1.362 . S
C2271 H2261 0.930 . S
C2271 C2264 1.409 . S
C2271 C2270 1.362 . S
H2272 C2278 0.930 . S
H2273 C2281 0.930 . S
H2274 C2282 0.930 . S
H2275 C2283 0.930 . S
H2276 C2286 0.930 . S
H2277 C2287 0.930 . S
C2278 H2272 0.930 . S
C2278 C2279 1.355 . S
C2278 C2280 1.415 . S
C2279 C2278 1.355 . S
C2279 C2281 1.419 . S
C2280 C2278 1.415 . S
C2280 C2285 1.425 . S
C2280 C2287 1.409 . S
C2281 H2273 0.930 . S
C2281 C2279 1.419 . S
C2281 C2282 1.362 . S
C2282 H2274 0.930 . S
C2282 C2281 1.362 . S
C2282 C2285 1.409 . S
C2283 H2275 0.930 . S
C2283 C2284 1.355 . S
C2283 C2285 1.415 . S
C2284 C2283 1.355 . S
C2284 C2286 1.419 . S
C2285 C2280 1.425 . S
C2285 C2282 1.409 . S
C2285 C2283 1.415 . S
C2286 H2276 0.930 . S
C2286 C2284 1.419 . S
C2286 C2287 1.362 . S
C2287 H2277 0.930 . S
C2287 C2280 1.409 . S
C2287 C2286 1.362 . S
H2288 C2294 0.930 . S
H2289 C2297 0.930 . S
H2290 C2298 0.930 . S
H2291 C2299 0.930 . S
H2292 C2302 0.930 . S
H2293 C2303 0.930 . S
C2294 H2288 0.930 . S
C2294 C2295 1.355 . S
C2294 C2296 1.415 . S
C2295 C2294 1.355 . S
C2295 C2297 1.419 . S
C2296 C2294 1.415 . S
C2296 C2301 1.425 . S
C2296 C2303 1.409 . S
C2297 H2289 0.930 . S
C2297 C2295 1.419 . S
C2297 C2298 1.362 . S
C2298 H2290 0.930 . S
C2298 C2297 1.362 . S
C2298 C2301 1.409 . S
C2299 H2291 0.930 . S
C2299 C2300 1.355 . S
C2299 C2301 1.415 . S
C2300 C2299 1.355 . S
C2300 C2302 1.419 . S
C2301 C2296 1.425 . S
C2301 C2298 1.409 . S
C2301 C2299 1.415 . S
C2302 H2292 0.930 . S
C2302 C2300 1.419 . S
C2302 C2303 1.362 . S
C2303 H2293 0.930 . S
C2303 C2296 1.409 . S
C2303 C2302 1.362 . S
C1447 C781 1.719 . S
C1452 C1089 1.679 . S
C1463 C871 1.692 . S
C1468 C1129 1.714 . S
C1479 C751 1.748 . S
C1484 C1168 1.768 . S
C1495 C691 1.521 . S
C1500 C1128 1.570 . S
C1516 C1169 1.488 . S
C1511 C571 1.465 . S
C1527 C601 1.455 . S
C1532 C1088 1.478 . S
C1548 C1099 1.661 . S
C1543 C661 1.605 . S
C1564 C1139 1.712 . S
C1559 C541 1.665 . S
C1575 C631 1.815 . S
C1580 C1178 1.776 . S
C1591 C811 1.636 . S
C1596 C1138 1.568 . S
C1607 C841 1.449 . S
C1612 C1179 1.479 . S
C1628 C1098 1.476 . S
C1623 C721 1.350 . S
C1644 C1209 1.623 . S
C1639 C61 1.674 . S
C1655 C151 1.748 . S
C1660 C1249 1.744 . S
C1671 C31 1.689 . S
C1676 C1288 1.738 . S
C1687 C1051 1.546 . S
C1692 C1248 1.559 . S
C1703 C931 1.376 . S
C1708 C1289 1.438 . S
C1719 C961 1.511 . S
C1724 C1208 1.524 . S
C1735 C1021 1.651 . S
C1740 C1219 1.690 . S
C1751 C901 1.675 . S
C1756 C1259 1.713 . S
C1772 C1298 1.742 . S
C1767 C991 1.782 . S
C1783 C91 1.637 . S
C1788 C1258 1.593 . S
C1804 C1299 1.460 . S
C1799 C121 1.428 1_455 S
C1815 C1 1.342 . S
C1820 C1218 1.477 . S
C1836 C1329 1.658 . S
C1831 C421 1.713 . S
C1847 C511 1.710 . S
C1852 C1369 1.746 . S
C1868 C1408 1.737 . S
C1863 C391 1.718 . S
C1884 C1368 1.595 . S
C1879 C331 1.510 . S
C1900 C1409 1.452 . S
C1895 C211 1.430 1_655 S
C1911 C241 1.470 . S
C1916 C1328 1.505 . S
C1927 C301 1.579 . S
C1932 C1339 1.622 . S
C1943 C181 1.681 . S
C1948 C1379 1.716 . S
C1964 C1418 1.748 . S
C1959 C271 1.812 . S
C1975 C451 1.629 . S
C1980 C1378 1.559 . S
C1991 C481 1.422 . S
C1996 C1419 1.434 . S
C2007 C361 1.416 . S
C2012 C1338 1.498 . S
C2023 C920 1.358 . S
C2028 C1085 1.370 . S
C2044 C1125 1.849 . S
C2039 C980 1.818 . S
C2055 C1040 1.493 . S
C2060 C1175 1.579 . S
C2071 C380 1.750 . S
C2076 C1135 1.845 . S
C2087 C440 1.556 . S
C2092 C1165 1.575 . S
C2108 C1095 1.372 . S
C2103 C500 1.315 . S
C2119 C200 1.330 . S
C2124 C1205 1.371 . S
C2135 C260 1.812 . S
C2140 C1245 1.847 . S
C2151 C320 1.535 . S
C2156 C1295 1.577 . S
C2167 C740 1.765 . S
C2172 C1255 1.825 . S
C2188 C1285 1.577 . S
C2183 C800 1.572 . S
C2199 C860 1.350 . S
C2204 C1215 1.351 . S
C2215 C560 1.338 . S
C2220 C1325 1.341 . S
C2231 C620 1.841 . S
C2236 C1365 1.842 . S
C2252 C1415 1.575 . S
C2247 C680 1.501 . S
C2263 C20 1.738 . S
C2268 C1375 1.840 . S
C2279 C80 1.525 . S
C2284 C1405 1.577 . S
C2295 C140 1.315 . S
C2300 C1335 1.372 . S
