# Generated by pormake.
# Topology nom, (4,4)-cn, num edge types: 1
# Building blocks:
#     Node 0, Type 0, BuildingBlock: AZAVOO_clean_linker_0, # of connection points: 4
#     Node 1, Type 0, BuildingBlock: AZAVOO_clean_linker_0, # of connection points: 4
#     Node 2, Type 0, BuildingBlock: AZAVOO_clean_linker_0, # of connection points: 4
#     Node 3, Type 0, BuildingBlock: AZAVOO_clean_linker_0, # of connection points: 4
#     Node 4, Type 0, BuildingBlock: AZAVOO_clean_linker_0, # of connection points: 4
#     Node 5, Type 0, BuildingBlock: AZAVOO_clean_linker_0, # of connection points: 4
#     Node 6, Type 1, BuildingBlock: GALJAG_clean_sbu_0, # of connection points: 4
#     Node 7, Type 1, BuildingBlock: GALJAG_clean_sbu_0, # of connection points: 4
#     Node 8, Type 1, BuildingBlock: GALJAG_clean_sbu_0, # of connection points: 4
#     Node 9, Type 1, BuildingBlock: GALJAG_clean_sbu_0, # of connection points: 4
#     Node 10, Type 1, BuildingBlock: GALJAG_clean_sbu_0, # of connection points: 4
#     Node 11, Type 1, BuildingBlock: GALJAG_clean_sbu_0, # of connection points: 4
#     Edge 12, Type (0, 1), BuildingBlock: EZIPEK_clean_linker_0, # of connection points: 2
#     Edge 13, Type (0, 1), BuildingBlock: EZIPEK_clean_linker_0, # of connection points: 2
#     Edge 14, Type (0, 1), BuildingBlock: EZIPEK_clean_linker_0, # of connection points: 2
#     Edge 15, Type (0, 1), BuildingBlock: EZIPEK_clean_linker_0, # of connection points: 2
#     Edge 16, Type (0, 1), BuildingBlock: EZIPEK_clean_linker_0, # of connection points: 2
#     Edge 17, Type (0, 1), BuildingBlock: EZIPEK_clean_linker_0, # of connection points: 2
#     Edge 18, Type (0, 1), BuildingBlock: EZIPEK_clean_linker_0, # of connection points: 2
#     Edge 19, Type (0, 1), BuildingBlock: EZIPEK_clean_linker_0, # of connection points: 2
#     Edge 20, Type (0, 1), BuildingBlock: EZIPEK_clean_linker_0, # of connection points: 2
#     Edge 21, Type (0, 1), BuildingBlock: EZIPEK_clean_linker_0, # of connection points: 2
#     Edge 22, Type (0, 1), BuildingBlock: EZIPEK_clean_linker_0, # of connection points: 2
#     Edge 23, Type (0, 1), BuildingBlock: EZIPEK_clean_linker_0, # of connection points: 2
#     Edge 24, Type (0, 1), BuildingBlock: EZIPEK_clean_linker_0, # of connection points: 2
#     Edge 25, Type (0, 1), BuildingBlock: EZIPEK_clean_linker_0, # of connection points: 2
#     Edge 26, Type (0, 1), BuildingBlock: EZIPEK_clean_linker_0, # of connection points: 2
#     Edge 27, Type (0, 1), BuildingBlock: EZIPEK_clean_linker_0, # of connection points: 2
#     Edge 28, Type (0, 1), BuildingBlock: EZIPEK_clean_linker_0, # of connection points: 2
#     Edge 29, Type (0, 1), BuildingBlock: EZIPEK_clean_linker_0, # of connection points: 2
#     Edge 30, Type (0, 1), BuildingBlock: EZIPEK_clean_linker_0, # of connection points: 2
#     Edge 31, Type (0, 1), BuildingBlock: EZIPEK_clean_linker_0, # of connection points: 2
#     Edge 32, Type (0, 1), BuildingBlock: EZIPEK_clean_linker_0, # of connection points: 2
#     Edge 33, Type (0, 1), BuildingBlock: EZIPEK_clean_linker_0, # of connection points: 2
#     Edge 34, Type (0, 1), BuildingBlock: EZIPEK_clean_linker_0, # of connection points: 2
#     Edge 35, Type (0, 1), BuildingBlock: EZIPEK_clean_linker_0, # of connection points: 2
# Relax obj value: 0.124
# Max RMSD: 0.221
# Mean RMSD: 0.143
data_MOF--net-nom--node1-GALJAG_clean_sbu_0--node2-AZAVOO_clean_linker_0--edge1-EZIPEK_clean_linker_0
_symmetry_space_group_name_H-M    P1
_symmetry_Int_Tables_number       1
_symmetry_cell_setting            triclinic
loop_
_symmetry_equiv_pos_as_xyz
'x, y, z'
_cell_length_a     37.479182
_cell_length_b     38.177339
_cell_length_c     47.110723
_cell_angle_alpha  90.077031
_cell_angle_beta   89.989846
_cell_angle_gamma 122.30984
loop_
_atom_site_label
_atom_site_type_symbol
_atom_site_fract_x
_atom_site_fract_y
_atom_site_fract_z
_atom_type_partial_charge
H0 H 0.11537 0.62936 0.11524 0.0
H1 H 0.31674 0.81711 0.3926 0.0
H2 H 0.02217 0.53777 0.2681 0.0
H3 H 0.97804 0.49859 0.22734 0.0
H4 H 0.93907 0.58581 0.21865 0.0
H5 H 0.98433 0.6258 0.25919 0.0
H6 H 0.09672 0.59263 0.2368 0.0
H7 H 0.10673 0.59863 0.18527 0.0
H8 H 0.08581 0.69962 0.18497 0.0
H9 H 0.07572 0.69308 0.23651 0.0
H10 H 0.17161 0.6441 0.26786 0.0
H11 H 0.24416 0.69136 0.25104 0.0
H12 H 0.2287 0.79486 0.26088 0.0
H13 H 0.15608 0.74747 0.27798 0.0
H14 H 0.17304 0.64103 0.32845 0.0
H15 H 0.24233 0.68369 0.35097 0.0
H16 H 0.21637 0.77972 0.36623 0.0
H17 H 0.14753 0.73699 0.34314 0.0
H18 H 0.07646 0.57145 0.35486 0.0
H19 H 0.09981 0.56876 0.40297 0.0
H20 H 0.10278 0.67995 0.42488 0.0
H21 H 0.07994 0.68299 0.37643 0.0
H22 H 0.97466 0.53061 0.31811 0.0
H23 H 0.90253 0.5031 0.33592 0.0
H24 H 0.93754 0.62645 0.36017 0.0
H25 H 0.00918 0.65395 0.34226 0.0
O26 O 0.11131 0.62752 0.1356 0.0
O27 O 0.10158 0.68009 0.1367 0.0
O28 O 0.30096 0.74894 0.37573 0.0
O29 O 0.28938 0.79945 0.38384 0.0
C30 C 0.04221 0.6135 0.28492 0.0
C31 C 0.08151 0.64004 0.27161 0.0
C32 C 0.11774 0.66495 0.28807 0.0
C33 C 0.11556 0.66195 0.31787 0.0
C34 C 0.07635 0.63561 0.33141 0.0
C35 C 0.03911 0.61293 0.31494 0.0
C36 C 0.00605 0.58433 0.26676 0.0
C37 C 0.0029 0.5476 0.2581 0.0
C38 C 0.97812 0.52552 0.23474 0.0
C39 C 0.95575 0.53961 0.21993 0.0
C40 C 0.95621 0.57457 0.2299 0.0
C41 C 0.9816 0.59709 0.25311 0.0
C42 C 0.08515 0.64218 0.24022 0.0
C43 C 0.09398 0.61577 0.22548 0.0
C44 C 0.0999 0.61943 0.1961 0.0
C45 C 0.09726 0.64974 0.18101 0.0
C46 C 0.08818 0.67604 0.19594 0.0
C47 C 0.08221 0.67227 0.22533 0.0
C48 C 0.15894 0.69257 0.27415 0.0
C49 C 0.18361 0.67684 0.26579 0.0
C50 C 0.22476 0.70366 0.25621 0.0
C51 C 0.24148 0.74639 0.25482 0.0
C52 C 0.21603 0.76189 0.26176 0.0
C53 C 0.1749 0.73503 0.27151 0.0
C54 C 0.15518 0.68577 0.33453 0.0
C55 C 0.18225 0.6711 0.33697 0.0
C56 C 0.22189 0.69565 0.34965 0.0
C57 C 0.23492 0.73518 0.36039 0.0
C58 C 0.20732 0.74944 0.35824 0.0
C59 C 0.16786 0.72499 0.3453 0.0
C60 C 0.07632 0.6273 0.36218 0.0
C61 C 0.0803 0.59422 0.37037 0.0
C62 C 0.09381 0.59278 0.39774 0.0
C63 C 0.10313 0.62421 0.41736 0.0
C64 C 0.09541 0.65526 0.41004 0.0
C65 C 0.08228 0.65693 0.38249 0.0
C66 C 0.99718 0.59435 0.32874 0.0
C67 C 0.9669 0.55162 0.32753 0.0
C68 C 0.92594 0.53595 0.33775 0.0
C69 C 0.91491 0.56286 0.34928 0.0
C70 C 0.94558 0.60527 0.35142 0.0
C71 C 0.98638 0.62086 0.34128 0.0
C72 C 0.10354 0.65354 0.14979 0.0
C73 C 0.27707 0.76146 0.37376 0.0
H74 H 0.59086 0.13228 0.30507 0.0
H75 H 0.55888 0.28757 0.5867 0.0
H76 H 0.56719 0.01924 0.45686 0.0
H77 H 0.56732 0.97934 0.41604 0.0
H78 H 0.43978 0.94332 0.39603 0.0
H79 H 0.43925 0.98226 0.43753 0.0
H80 H 0.5963 0.11241 0.4278 0.0
H81 H 0.6069 0.12678 0.37683 0.0
H82 H 0.47224 0.06927 0.36595 0.0
H83 H 0.46228 0.05598 0.41706 0.0
H84 H 0.61266 0.1766 0.471 0.0
H85 H 0.63605 0.24563 0.45202 0.0
H86 H 0.50744 0.20352 0.43015 0.0
H87 H 0.4839 0.13462 0.44969 0.0
H88 H 0.60673 0.15922 0.52686 0.0
H89 H 0.629 0.2236 0.55253 0.0
H90 H 0.5016 0.19705 0.54752 0.0
H91 H 0.48001 0.13312 0.52143 0.0
H92 H 0.58098 0.07204 0.54434 0.0
H93 H 0.59855 0.08968 0.59455 0.0
H94 H 0.47659 0.07264 0.60876 0.0
H95 H 0.45956 0.05637 0.55808 0.0
H96 H 0.5279 0.9755 0.50402 0.0
H97 H 0.48388 0.90232 0.51867 0.0
H98 H 0.38008 0.91805 0.53503 0.0
H99 H 0.42366 0.99072 0.52009 0.0
O100 O 0.586 0.12661 0.32519 0.0
O101 O 0.51659 0.09705 0.32077 0.0
O102 O 0.61733 0.27847 0.5738 0.0
O103 O 0.55109 0.2628 0.57602 0.0
C104 C 0.50818 0.03679 0.46906 0.0
C105 C 0.52256 0.07615 0.45709 0.0
C106 C 0.53223 0.10986 0.47472 0.0
C107 C 0.52943 0.10492 0.50442 0.0
C108 C 0.5151 0.06564 0.51653 0.0
C109 C 0.50259 0.031 0.49879 0.0
C110 C 0.50315 0.00345 0.45015 0.0
C111 C 0.53862 0.0012 0.44444 0.0
C112 C 0.53879 0.97872 0.42112 0.0
C113 C 0.50375 0.9589 0.40294 0.0
C114 C 0.46708 0.95847 0.40988 0.0
C115 C 0.4667 0.98048 0.43353 0.0
C116 C 0.5285 0.0827 0.42597 0.0
C117 C 0.56917 0.10282 0.41431 0.0
C118 C 0.57512 0.11112 0.38523 0.0
C119 C 0.5404 0.0991 0.3673 0.0
C120 C 0.49964 0.07884 0.37914 0.0
C121 C 0.49381 0.07095 0.40827 0.0
C122 C 0.54657 0.15091 0.46202 0.0
C123 C 0.58956 0.1823 0.46213 0.0
C124 C 0.60288 0.22141 0.4512 0.0
C125 C 0.5734 0.22939 0.43971 0.0
C126 C 0.53053 0.1977 0.43887 0.0
C127 C 0.51717 0.15864 0.45003 0.0
C128 C 0.54171 0.14143 0.52261 0.0
C129 C 0.58365 0.16723 0.53158 0.0
C130 C 0.59634 0.20414 0.54598 0.0
C131 C 0.56707 0.21553 0.552 0.0
C132 C 0.5249 0.18919 0.54327 0.0
C133 C 0.5124 0.15253 0.52857 0.0
C134 C 0.519 0.06288 0.54762 0.0
C135 C 0.55734 0.07043 0.55848 0.0
C136 C 0.56739 0.08053 0.58708 0.0
C137 C 0.53894 0.08259 0.60525 0.0
C138 C 0.49876 0.07085 0.59504 0.0
C139 C 0.48904 0.06157 0.56622 0.0
C140 C 0.47892 0.98842 0.5108 0.0
C141 C 0.49581 0.96326 0.51098 0.0
C142 C 0.47083 0.92168 0.51943 0.0
C143 C 0.42877 0.9049 0.52789 0.0
C144 C 0.41247 0.93049 0.52865 0.0
C145 C 0.43735 0.97189 0.5202 0.0
C146 C 0.54676 0.10748 0.33636 0.0
C147 C 0.58019 0.25427 0.56782 0.0
H148 H 0.48323 0.39743 0.82193 0.0
H149 H 0.51316 0.28484 0.53039 0.0
H150 H 0.49366 0.53247 0.67624 0.0
H151 H 0.48958 0.56412 0.72044 0.0
H152 H 0.36224 0.46082 0.73352 0.0
H153 H 0.36656 0.42871 0.68934 0.0
H154 H 0.51331 0.46559 0.7071 0.0
H155 H 0.51297 0.44628 0.75668 0.0
H156 H 0.3817 0.34789 0.74835 0.0
H157 H 0.38281 0.36714 0.69862 0.0
H158 H 0.54602 0.43567 0.6625 0.0
H159 H 0.57241 0.39565 0.68471 0.0
H160 H 0.44584 0.28763 0.68647 0.0
H161 H 0.41941 0.32778 0.66391 0.0
H162 H 0.55253 0.44935 0.60673 0.0
H163 H 0.57842 0.41386 0.57811 0.0
H164 H 0.44985 0.3119 0.56486 0.0
H165 H 0.42445 0.34797 0.59328 0.0
H166 H 0.53962 0.51183 0.5983 0.0
H167 H 0.57396 0.52401 0.55215 0.0
H168 H 0.45315 0.44035 0.5131 0.0
H169 H 0.41902 0.42602 0.56 0.0
H170 H 0.48256 0.54106 0.60176 0.0
H171 H 0.45007 0.57858 0.58459 0.0
H172 H 0.32965 0.48177 0.61734 0.0
H173 H 0.36132 0.44322 0.63292 0.0
O174 O 0.48261 0.40466 0.80233 0.0
O175 O 0.41513 0.35456 0.79698 0.0
O176 O 0.56932 0.35393 0.54772 0.0
O177 O 0.50388 0.29989 0.54148 0.0
C178 C 0.43843 0.45476 0.65855 0.0
C179 C 0.44967 0.42713 0.6687 0.0
C180 C 0.46529 0.40987 0.6499 0.0
C181 C 0.47089 0.42099 0.62108 0.0
C182 C 0.46117 0.44988 0.61093 0.0
C183 C 0.44266 0.4652 0.62937 0.0
C184 C 0.43037 0.47843 0.67965 0.0
C185 C 0.4643 0.51743 0.68804 0.0
C186 C 0.46213 0.53526 0.71328 0.0
C187 C 0.42583 0.51444 0.73019 0.0
C188 C 0.39046 0.47715 0.72061 0.0
C189 C 0.39281 0.45905 0.69544 0.0
C190 C 0.44797 0.418 0.69947 0.0
C191 C 0.48444 0.44014 0.71615 0.0
C192 C 0.48421 0.42887 0.74438 0.0
C193 C 0.44732 0.39547 0.75647 0.0
C194 C 0.41063 0.37375 0.7397 0.0
C195 C 0.41105 0.38484 0.71139 0.0
C196 C 0.48097 0.38436 0.66131 0.0
C197 C 0.5241 0.40321 0.66728 0.0
C198 C 0.53903 0.38058 0.68008 0.0
C199 C 0.51098 0.33888 0.68716 0.0
C200 C 0.46781 0.31983 0.68106 0.0
C201 C 0.45285 0.34253 0.66815 0.0
C202 C 0.4866 0.4015 0.60164 0.0
C203 C 0.53001 0.41966 0.59724 0.0
C204 C 0.54472 0.39915 0.58111 0.0
C205 C 0.51619 0.35992 0.56929 0.0
C206 C 0.47267 0.34199 0.57369 0.0
C207 C 0.45804 0.36264 0.58973 0.0
C208 C 0.47693 0.46783 0.58247 0.0
C209 C 0.52026 0.4973 0.57964 0.0
C210 C 0.53989 0.50415 0.55335 0.0
C211 C 0.51623 0.48243 0.52935 0.0
C212 C 0.47194 0.4571 0.53149 0.0
C213 C 0.45242 0.44912 0.55813 0.0
C214 C 0.42434 0.48897 0.61839 0.0
C215 C 0.44902 0.52744 0.60471 0.0
C216 C 0.43059 0.54907 0.59517 0.0
C217 C 0.38742 0.53304 0.59977 0.0
C218 C 0.36295 0.49477 0.61357 0.0
C219 C 0.38111 0.47286 0.62254 0.0
C220 C 0.44721 0.38353 0.78645 0.0
C221 C 0.53158 0.33788 0.55222 0.0
H222 H 0.11091 0.60198 0.99986 0.0
H223 H 0.2944 0.60112 0.7331 0.0
H224 H 0.98376 0.56566 0.85403 0.0
H225 H 0.93847 0.54614 0.89621 0.0
H226 H 0.92715 0.42764 0.89783 0.0
H227 H 0.9708 0.4465 0.8549 0.0
H228 H 0.08646 0.61239 0.8782 0.0
H229 H 0.10066 0.62033 0.92931 0.0
H230 H 0.05608 0.49011 0.93512 0.0
H231 H 0.04257 0.4828 0.88401 0.0
H232 H 0.16541 0.63555 0.83405 0.0
H233 H 0.23552 0.65328 0.85066 0.0
H234 H 0.18376 0.5253 0.87289 0.0
H235 H 0.11455 0.50738 0.85522 0.0
H236 H 0.14289 0.63129 0.7756 0.0
H237 H 0.21106 0.65741 0.75241 0.0
H238 H 0.19695 0.53839 0.76477 0.0
H239 H 0.12859 0.51258 0.78756 0.0
H240 H 0.06507 0.60028 0.75289 0.0
H241 H 0.09218 0.61268 0.70428 0.0
H242 H 0.06494 0.48785 0.69995 0.0
H243 H 0.04081 0.47656 0.74945 0.0
H244 H 0.95166 0.53451 0.79508 0.0
H245 H 0.87789 0.48299 0.78182 0.0
H246 H 0.90978 0.39072 0.77103 0.0
H247 H 0.98295 0.44177 0.78448 0.0
O248 O 0.10482 0.59813 0.97974 0.0
O249 O 0.08161 0.53102 0.98155 0.0
O250 O 0.27221 0.6515 0.73474 0.0
O251 O 0.26715 0.59137 0.74162 0.0
C252 C 0.01824 0.5241 0.83301 0.0
C253 C 0.05827 0.54329 0.84615 0.0
C254 C 0.09462 0.55768 0.82955 0.0
C255 C 0.09172 0.55556 0.79973 0.0
C256 C 0.05188 0.53712 0.78631 0.0
C257 C 0.01481 0.51967 0.80307 0.0
C258 C 0.98057 0.5075 0.8515 0.0
C259 C 0.96979 0.53474 0.86266 0.0
C260 C 0.94433 0.52376 0.88681 0.0
C261 C 0.93038 0.48587 0.90047 0.0
C262 C 0.93794 0.45715 0.88773 0.0
C263 C 0.96254 0.46775 0.86317 0.0
C264 C 0.06269 0.54688 0.87755 0.0
C265 C 0.07929 0.58555 0.89065 0.0
C266 C 0.08765 0.59003 0.91979 0.0
C267 C 0.07962 0.55587 0.9363 0.0
C268 C 0.06263 0.51705 0.92305 0.0
C269 C 0.0544 0.51267 0.89392 0.0
C270 C 0.13516 0.57022 0.84343 0.0
C271 C 0.1692 0.61157 0.84291 0.0
C272 C 0.20888 0.62166 0.85248 0.0
C273 C 0.2144 0.59051 0.86302 0.0
C274 C 0.17977 0.54965 0.865 0.0
C275 C 0.14046 0.5395 0.85501 0.0
C276 C 0.13065 0.56993 0.78287 0.0
C277 C 0.15426 0.61073 0.77278 0.0
C278 C 0.19334 0.62565 0.7598 0.0
C279 C 0.20963 0.60008 0.75696 0.0
C280 C 0.18548 0.55898 0.76677 0.0
C281 C 0.14629 0.54403 0.77957 0.0
C282 C 0.05075 0.53746 0.75479 0.0
C283 C 0.06325 0.57497 0.74111 0.0
C284 C 0.07902 0.58215 0.71343 0.0
C285 C 0.08143 0.55149 0.6987 0.0
C286 C 0.06368 0.51203 0.71104 0.0
C287 C 0.04936 0.50537 0.73918 0.0
C288 C 0.97276 0.49202 0.7902 0.0
C289 C 0.94291 0.5035 0.78907 0.0
C290 C 0.90101 0.47422 0.78162 0.0
C291 C 0.88872 0.43327 0.77538 0.0
C292 C 0.91891 0.4223 0.77554 0.0
C293 C 0.96062 0.45145 0.78296 0.0
C294 C 0.08871 0.56076 0.96721 0.0
C295 C 0.25154 0.61602 0.74376 0.0
H296 H 0.57488 0.93703 0.80456 0.0
H297 H 0.61558 0.79895 0.09312 0.0
H298 H 0.57856 0.03363 0.94834 0.0
H299 H 0.57491 0.07409 0.90928 0.0
H300 H 0.71083 0.14612 0.9041 0.0
H301 H 0.71448 0.10559 0.94343 0.0
H302 H 0.56639 0.94886 0.9279 0.0
H303 H 0.5572 0.9357 0.87674 0.0
H304 H 0.69164 0.01939 0.8648 0.0
H305 H 0.70037 0.03195 0.91605 0.0
H306 H 0.56242 0.89334 0.97372 0.0
H307 H 0.5492 0.83015 0.95003 0.0
H308 H 0.67997 0.89335 0.92482 0.0
H309 H 0.6932 0.95687 0.9485 0.0
H310 H 0.56824 0.92994 0.03761 0.0
H311 H 0.55001 0.87145 0.06873 0.0
H312 H 0.66617 0.88033 0.04534 0.0
H313 H 0.68423 0.93915 0.01446 0.0
H314 H 0.59473 0.02266 0.0486 0.0
H315 H 0.59112 0.02285 0.09963 0.0
H316 H 0.70157 0.01346 0.10366 0.0
H317 H 0.70374 0.0131 0.05304 0.0
H318 H 0.61829 0.09048 0.00121 0.0
H319 H 0.65299 0.16299 0.01735 0.0
H320 H 0.76705 0.16489 0.03459 0.0
H321 H 0.73279 0.09297 0.01817 0.0
O322 O 0.57926 0.94248 0.82474 0.0
O323 O 0.6485 0.98616 0.8197 0.0
O324 O 0.56153 0.81711 0.09046 0.0
O325 O 0.62235 0.8223 0.08114 0.0
C326 C 0.64771 0.03677 0.96796 0.0
C327 C 0.63945 0.99895 0.95669 0.0
C328 C 0.63582 0.96807 0.97499 0.0
C329 C 0.63776 0.97374 0.00464 0.0
C330 C 0.64776 0.01227 0.01588 0.0
C331 C 0.65435 0.0443 0.99739 0.0
C332 C 0.64678 0.06688 0.9487 0.0
C333 C 0.60759 0.05893 0.93933 0.0
C334 C 0.60548 0.08179 0.91706 0.0
C335 C 0.64258 0.11279 0.90384 0.0
C336 C 0.68195 0.12229 0.91418 0.0
C337 C 0.68405 0.09942 0.93658 0.0
C338 C 0.63401 0.99136 0.92559 0.0
C339 C 0.59379 0.96422 0.91417 0.0
C340 C 0.58865 0.9568 0.88496 0.0
C341 C 0.62369 0.97648 0.86667 0.0
C342 C 0.664 0.0037 0.87828 0.0
C343 C 0.66907 0.01104 0.9075 0.0
C344 C 0.6287 0.9293 0.9628 0.0
C345 C 0.58826 0.89337 0.96337 0.0
C346 C 0.58077 0.85765 0.94984 0.0
C347 C 0.61366 0.8576 0.9357 0.0
C348 C 0.6544 0.89322 0.93564 0.0
C349 C 0.66186 0.9291 0.9491 0.0
C350 C 0.62754 0.93876 0.02384 0.0
C351 C 0.58981 0.91934 0.03937 0.0
C352 C 0.57942 0.88587 0.05705 0.0
C353 C 0.60662 0.87116 0.05948 0.0
C354 C 0.64454 0.89087 0.04395 0.0
C355 C 0.65491 0.92441 0.02627 0.0
C356 C 0.64981 0.01845 0.04711 0.0
C357 C 0.61901 0.02227 0.06081 0.0
C358 C 0.6176 0.02301 0.0904 0.0
C359 C 0.64777 0.0212 0.10742 0.0
C360 C 0.67876 0.01748 0.09295 0.0
C361 C 0.67999 0.01665 0.06333 0.0
C362 C 0.67321 0.08679 0.00844 0.0
C363 C 0.65069 0.10658 0.00853 0.0
C364 C 0.6703 0.14761 0.01778 0.0
C365 C 0.71239 0.16883 0.02705 0.0
C366 C 0.73452 0.14872 0.02751 0.0
C367 C 0.71503 0.10792 0.01821 0.0
C368 C 0.61808 0.96876 0.83563 0.0
C369 C 0.59536 0.83527 0.07799 0.0
H370 H 0.51629 0.42858 0.9872 0.0
H371 H 0.71878 0.51594 0.28409 0.0
H372 H 0.46895 0.5263 0.11759 0.0
H373 H 0.44299 0.53644 0.07235 0.0
H374 H 0.56662 0.64377 0.05527 0.0
H375 H 0.5919 0.63461 0.10103 0.0
H376 H 0.50586 0.4638 0.1068 0.0
H377 H 0.50003 0.43748 0.05847 0.0
H378 H 0.60781 0.55623 0.03337 0.0
H379 H 0.61348 0.58192 0.08181 0.0
H380 H 0.5583 0.44752 0.1552 0.0
H381 H 0.59748 0.41501 0.14068 0.0
H382 H 0.69598 0.53165 0.10571 0.0
H383 H 0.65727 0.56391 0.12022 0.0
H384 H 0.54681 0.48373 0.21709 0.0
H385 H 0.57871 0.46753 0.25614 0.0
H386 H 0.70277 0.55535 0.2226 0.0
H387 H 0.67043 0.57178 0.18396 0.0
H388 H 0.51552 0.53883 0.22493 0.0
H389 H 0.52956 0.54219 0.27452 0.0
H390 H 0.66215 0.63291 0.2576 0.0
H391 H 0.64628 0.62843 0.2083 0.0
H392 H 0.48117 0.57658 0.16877 0.0
H393 H 0.46992 0.63232 0.18252 0.0
H394 H 0.60467 0.71864 0.18639 0.0
H395 H 0.61587 0.66327 0.17237 0.0
O396 O 0.5192 0.43955 0.00617 0.0
O397 O 0.57471 0.5012 0.99437 0.0
O398 O 0.64089 0.47677 0.28505 0.0
O399 O 0.70539 0.52125 0.26858 0.0
C400 C 0.55054 0.56699 0.13477 0.0
C401 C 0.56406 0.54007 0.12725 0.0
C402 C 0.58335 0.52861 0.14767 0.0
C403 C 0.58694 0.54181 0.17594 0.0
C404 C 0.57397 0.5692 0.1834 0.0
C405 C 0.55683 0.58275 0.16267 0.0
C406 C 0.53217 0.57985 0.11249 0.0
C407 C 0.48984 0.55301 0.10463 0.0
C408 C 0.47523 0.55853 0.0788 0.0
C409 C 0.50318 0.59034 0.06034 0.0
C410 C 0.54472 0.61891 0.0692 0.0
C411 C 0.55902 0.61393 0.09531 0.0
C412 C 0.55968 0.52488 0.09763 0.0
C413 C 0.528 0.48408 0.09076 0.0
C414 C 0.52485 0.46913 0.06318 0.0
C415 C 0.55346 0.49475 0.04205 0.0
C416 C 0.58524 0.53569 0.04911 0.0
C417 C 0.58837 0.55054 0.07669 0.0
C418 C 0.60508 0.50784 0.13854 0.0
C419 C 0.5882 0.46578 0.14425 0.0
C420 C 0.6103 0.44738 0.13599 0.0
C421 C 0.64926 0.47116 0.12211 0.0
C422 C 0.66581 0.51304 0.11629 0.0
C423 C 0.64384 0.5313 0.1245 0.0
C424 C 0.60631 0.5288 0.1977 0.0
C425 C 0.58084 0.49911 0.21808 0.0
C426 C 0.59916 0.49003 0.2404 0.0
C427 C 0.64333 0.51029 0.24256 0.0
C428 C 0.66868 0.53926 0.22162 0.0
C429 C 0.65031 0.54848 0.1994 0.0
C430 C 0.5797 0.5838 0.21311 0.0
C431 C 0.547 0.56151 0.23245 0.0
C432 C 0.55561 0.56397 0.26146 0.0
C433 C 0.59723 0.5899 0.27217 0.0
C434 C 0.62922 0.61436 0.25206 0.0
C435 C 0.6204 0.61178 0.22313 0.0
C436 C 0.5493 0.61601 0.16969 0.0
C437 C 0.50817 0.60759 0.17238 0.0
C438 C 0.5018 0.63918 0.18025 0.0
C439 C 0.53654 0.67933 0.18553 0.0
C440 C 0.5776 0.68777 0.18245 0.0
C441 C 0.58393 0.65631 0.17451 0.0
C442 C 0.54993 0.47885 0.01275 0.0
C443 C 0.66295 0.50163 0.26669 0.0
In444 In 0.66166 0.47739 0.39369 0.0
O445 O 0.73237 0.51746 0.40312 0.0
O446 O 0.71218 0.48202 0.36466 0.0
C447 C 0.61632 0.48217 0.43577 0.0
C448 C 0.64657 0.52093 0.35663 0.0
C449 C 0.63464 0.39783 0.40448 0.0
O450 O 0.65585 0.49827 0.43821 0.0
O451 O 0.60062 0.46472 0.41235 0.0
O452 O 0.61832 0.4078 0.38504 0.0
O453 O 0.6654 0.42791 0.41723 0.0
C454 C 0.74262 0.5068 0.38054 0.0
O455 O 0.63388 0.48321 0.35218 0.0
O456 O 0.66795 0.53658 0.37899 0.0
In457 In 0.2522 0.64921 0.56049 0.0
O458 O 0.28345 0.61424 0.54599 0.0
O459 O 0.29012 0.63234 0.58918 0.0
C460 C 0.20047 0.63639 0.51655 0.0
C461 C 0.19329 0.61464 0.60165 0.0
C462 C 0.31222 0.73046 0.5527 0.0
O463 O 0.21834 0.61637 0.5193 0.0
O464 O 0.20852 0.66259 0.53579 0.0
O465 O 0.28776 0.71784 0.57386 0.0
O466 O 0.30709 0.7023 0.53602 0.0
C467 C 0.29823 0.6144 0.57011 0.0
O468 O 0.22404 0.6518 0.60288 0.0
O469 O 0.19232 0.59475 0.57995 0.0
In470 In 0.63824 0.22964 0.75235 0.0
O471 O 0.70772 0.26973 0.73967 0.0
O472 O 0.68622 0.29077 0.7736 0.0
C473 C 0.60945 0.17336 0.71002 0.0
C474 C 0.63363 0.18943 0.8005 0.0
C475 C 0.59373 0.26317 0.73701 0.0
O476 O 0.64812 0.2008 0.713 0.0
O477 O 0.58571 0.17271 0.72925 0.0
O478 O 0.58393 0.24007 0.75853 0.0
O479 O 0.62616 0.27001 0.72389 0.0
C480 C 0.7167 0.29709 0.75826 0.0
O481 O 0.61436 0.20801 0.79754 0.0
O482 O 0.65384 0.18986 0.77897 0.0
In483 In 0.45114 0.6222 0.89142 0.0
O484 O 0.38009 0.58534 0.89576 0.0
O485 O 0.41044 0.64755 0.88027 0.0
C486 C 0.46002 0.60174 0.94426 0.0
C487 C 0.44643 0.58538 0.84178 0.0
C488 C 0.52061 0.69756 0.89444 0.0
O489 O 0.43761 0.61623 0.93846 0.0
O490 O 0.47597 0.59468 0.92305 0.0
O491 O 0.52234 0.66612 0.88903 0.0
O492 O 0.48402 0.69111 0.89692 0.0
C493 C 0.37644 0.6143 0.88653 0.0
O494 O 0.46516 0.62408 0.84455 0.0
O495 O 0.43219 0.56493 0.86451 0.0
In496 In 0.82974 0.42157 0.067 0.0
O497 O 0.86086 0.42119 0.10856 0.0
O498 O 0.87392 0.47928 0.09332 0.0
C499 C 0.79605 0.34084 0.05752 0.0
C500 C 0.76687 0.4298 0.08407 0.0
C501 C 0.86363 0.44893 0.01503 0.0
O502 O 0.83361 0.36402 0.06603 0.0
O503 O 0.77563 0.35808 0.05415 0.0
O504 O 0.828 0.44207 0.02192 0.0
O505 O 0.88346 0.44415 0.03475 0.0
C506 C 0.87819 0.4595 0.11306 0.0
O507 O 0.7931 0.45325 0.0655 0.0
O508 O 0.77202 0.40209 0.09386 0.0
In509 In 0.50408 0.87282 0.23777 0.0
O510 O 0.5326 0.83335 0.24349 0.0
O511 O 0.49302 0.82139 0.20763 0.0
C512 C 0.51254 0.90159 0.29102 0.0
C513 C 0.56105 0.93468 0.20417 0.0
C514 C 0.42022 0.83788 0.23675 0.0
O515 O 0.51783 0.87245 0.28496 0.0
O516 O 0.50524 0.91752 0.27014 0.0
O517 O 0.44467 0.87032 0.22278 0.0
O518 O 0.4379 0.82305 0.25059 0.0
C519 C 0.51557 0.81203 0.22142 0.0
O520 O 0.52243 0.91247 0.19784 0.0
O521 O 0.57082 0.92667 0.22782 0.0
C522 C 0.30256 0.77887 0.22101 0.0
C523 C 0.28702 0.77498 0.24903 0.0
C524 C 0.35881 0.82186 0.26659 0.0
C525 C 0.37462 0.82059 0.23957 0.0
N526 N 0.36276 0.79698 0.19103 0.0
N527 N 0.30005 0.78911 0.29924 0.0
C528 C 0.34686 0.7993 0.21659 0.0
C529 C 0.31502 0.79581 0.27203 0.0
N530 N 0.27492 0.76332 0.19873 0.0
N531 N 0.38572 0.84863 0.28688 0.0
H532 H 0.26811 0.77042 0.30426 0.0
H533 H 0.31955 0.79948 0.31705 0.0
H534 H 0.41797 0.86881 0.28331 0.0
H535 H 0.37562 0.85388 0.30611 0.0
H536 H 0.28427 0.76843 0.17756 0.0
H537 H 0.24229 0.74805 0.20143 0.0
H538 H 0.34412 0.778 0.17441 0.0
H539 H 0.39507 0.81226 0.18697 0.0
C540 C 0.60092 0.28396 0.40173 0.0
C541 C 0.58735 0.27186 0.43013 0.0
C542 C 0.60577 0.34221 0.4419 0.0
C543 C 0.61773 0.35418 0.41307 0.0
N544 N 0.62465 0.33643 0.36502 0.0
N545 N 0.57101 0.28659 0.47636 0.0
C546 C 0.6144 0.32492 0.39278 0.0
C547 C 0.58816 0.30021 0.44995 0.0
N548 N 0.6022 0.25656 0.38366 0.0
N549 N 0.6117 0.37103 0.46179 0.0
H550 H 0.55914 0.25644 0.48347 0.0
H551 H 0.56563 0.30405 0.49067 0.0
H552 H 0.62106 0.40136 0.457 0.0
H553 H 0.60945 0.3657 0.48357 0.0
H554 H 0.61605 0.26431 0.36365 0.0
H555 H 0.5913 0.226 0.38927 0.0
H556 H 0.61801 0.31568 0.34851 0.0
H557 H 0.63858 0.36689 0.35803 0.0
C558 C 0.33415 0.53747 0.56995 0.0
C559 C 0.36724 0.55585 0.59027 0.0
C560 C 0.36025 0.61616 0.59262 0.0
C561 C 0.32294 0.59483 0.57588 0.0
N562 N 0.26978 0.53079 0.55335 0.0
N563 N 0.40679 0.6099 0.62489 0.0
C564 C 0.3087 0.55435 0.56564 0.0
C565 C 0.37904 0.59453 0.60267 0.0
N566 N 0.32742 0.50425 0.55437 0.0
N567 N 0.37882 0.65753 0.59806 0.0
H568 H 0.42059 0.59469 0.63339 0.0
H569 H 0.41293 0.63574 0.6366 0.0
H570 H 0.36743 0.67511 0.5899 0.0
H571 H 0.40814 0.67531 0.60792 0.0
H572 H 0.30641 0.49216 0.53736 0.0
H573 H 0.34599 0.49156 0.5565 0.0
H574 H 0.25637 0.49965 0.54819 0.0
H575 H 0.24885 0.54067 0.55114 0.0
C576 C 0.8205 0.37445 0.79436 0.0
C577 C 0.84361 0.40056 0.77122 0.0
C578 C 0.78165 0.36179 0.7404 0.0
C579 C 0.76021 0.33301 0.7627 0.0
N580 N 0.76169 0.30762 0.80933 0.0
N581 N 0.84858 0.41721 0.72149 0.0
C582 C 0.78017 0.33828 0.78935 0.0
C583 C 0.82483 0.39378 0.74401 0.0
N584 N 0.83696 0.38452 0.82119 0.0
N585 N 0.76031 0.35946 0.71621 0.0
H586 H 0.87995 0.44164 0.72356 0.0
H587 H 0.83821 0.41073 0.70053 0.0
H588 H 0.72856 0.33675 0.71296 0.0
H589 H 0.7729 0.38201 0.70044 0.0
H590 H 0.81975 0.36921 0.83931 0.0
H591 H 0.86669 0.41054 0.82566 0.0
H592 H 0.77672 0.30779 0.82797 0.0
H593 H 0.7329 0.27989 0.80611 0.0
C594 C 0.58866 0.81326 0.89258 0.0
C595 C 0.60419 0.81968 0.92073 0.0
C596 C 0.58128 0.7468 0.92482 0.0
C597 C 0.55811 0.73909 0.89933 0.0
N598 N 0.54385 0.76343 0.85644 0.0
N599 N 0.61976 0.79527 0.96313 0.0
C600 C 0.56384 0.7721 0.88213 0.0
C601 C 0.60281 0.78738 0.93644 0.0
N602 N 0.59681 0.84651 0.87644 0.0
N603 N 0.58155 0.71519 0.93819 0.0
H604 H 0.63728 0.82515 0.97159 0.0
H605 H 0.61542 0.77244 0.97732 0.0
H606 H 0.56557 0.68499 0.93038 0.0
H607 H 0.60019 0.71924 0.95577 0.0
H608 H 0.58849 0.84462 0.85519 0.0
H609 H 0.61466 0.87692 0.88393 0.0
H610 H 0.54277 0.78515 0.8438 0.0
H611 H 0.52754 0.73358 0.84784 0.0
C612 C 0.66879 0.43458 0.08744 0.0
C613 C 0.67446 0.45343 0.1144 0.0
C614 C 0.74027 0.45597 0.12161 0.0
C615 C 0.73412 0.43615 0.095 0.0
N616 N 0.68976 0.39947 0.05486 0.0
N617 N 0.70951 0.47395 0.15977 0.0
C618 C 0.69741 0.42315 0.0786 0.0
C619 C 0.70821 0.46129 0.13241 0.0
N620 N 0.63713 0.42922 0.06995 0.0
N621 N 0.77771 0.47176 0.13575 0.0
H622 H 0.68657 0.47855 0.16821 0.0
H623 H 0.73106 0.47634 0.17482 0.0
H624 H 0.8024 0.46934 0.12809 0.0
H625 H 0.78583 0.4903 0.15378 0.0
H626 H 0.63434 0.42028 0.04877 0.0
H627 H 0.61471 0.43595 0.07619 0.0
H628 H 0.66156 0.38554 0.04354 0.0
H629 H 0.71049 0.39103 0.04767 0.0
C630 C 0.37087 0.83344 0.51328 0.0
C631 C 0.40051 0.85985 0.53409 0.0
C632 C 0.37496 0.80053 0.56632 0.0
C633 C 0.34256 0.77512 0.54659 0.0
N634 N 0.30463 0.76936 0.50362 0.0
N635 N 0.42778 0.8703 0.58174 0.0
C636 C 0.33923 0.79205 0.52062 0.0
C637 C 0.40176 0.84388 0.56101 0.0
N638 N 0.37347 0.8477 0.48626 0.0
N639 N 0.38123 0.78299 0.58952 0.0
H640 H 0.44839 0.90202 0.57841 0.0
H641 H 0.42676 0.86138 0.60275 0.0
H642 H 0.36258 0.75137 0.59394 0.0
H643 H 0.40704 0.79904 0.60307 0.0
H644 H 0.35576 0.82863 0.46939 0.0
H645 H 0.39607 0.8779 0.48007 0.0
H646 H 0.29829 0.78154 0.48595 0.0
H647 H 0.2799 0.73948 0.50866 0.0
C648 C 0.53885 0.32277 0.73023 0.0
C649 C 0.52733 0.31548 0.70112 0.0
C650 C 0.55 0.26626 0.69844 0.0
C651 C 0.56739 0.27833 0.7261 0.0
N652 N 0.58146 0.32024 0.76795 0.0
N653 N 0.52563 0.28372 0.65638 0.0
C654 C 0.56226 0.30684 0.7421 0.0
C655 C 0.53367 0.28796 0.68491 0.0
N656 N 0.52694 0.3445 0.74651 0.0
N657 N 0.54785 0.2331 0.68553 0.0
H658 H 0.51317 0.29874 0.64568 0.0
H659 H 0.53432 0.26785 0.64293 0.0
H660 H 0.55788 0.21541 0.69544 0.0
H661 H 0.53216 0.22045 0.66642 0.0
H662 H 0.53071 0.34741 0.76846 0.0
H663 H 0.50988 0.35668 0.73841 0.0
H664 H 0.58292 0.34449 0.77917 0.0
H665 H 0.59865 0.3091 0.77739 0.0
C666 C 0.27926 0.62078 0.89358 0.0
C667 C 0.25711 0.59914 0.86871 0.0
C668 C 0.3112 0.58413 0.85742 0.0
C669 C 0.33506 0.6085 0.881 0.0
N670 N 0.34529 0.65439 0.91972 0.0
N671 N 0.2562 0.56867 0.82359 0.0
C672 C 0.32024 0.62838 0.89849 0.0
C673 C 0.27434 0.58328 0.84962 0.0
N674 N 0.26045 0.63256 0.91296 0.0
N675 N 0.32328 0.56122 0.84271 0.0
H676 H 0.22937 0.56809 0.81697 0.0
H677 H 0.26999 0.56099 0.80756 0.0
H678 H 0.35042 0.5612 0.84743 0.0
H679 H 0.30452 0.53948 0.8273 0.0
H680 H 0.27305 0.64446 0.93292 0.0
H681 H 0.23055 0.62767 0.90989 0.0
H682 H 0.33825 0.6733 0.93116 0.0
H683 H 0.37461 0.65901 0.92481 0.0
C684 C 0.76242 0.24355 0.01574 0.0
C685 C 0.73425 0.21288 0.03526 0.0
C686 C 0.74724 0.26635 0.06981 0.0
C687 C 0.77723 0.29677 0.05093 0.0
N688 N 0.81875 0.31503 0.00812 0.0
N689 N 0.70421 0.19348 0.08217 0.0
C690 C 0.78661 0.28555 0.02458 0.0
C691 C 0.72784 0.2238 0.06271 0.0
N692 N 0.76479 0.23262 0.98845 0.0
N693 N 0.73693 0.27824 0.09429 0.0
H694 H 0.68907 0.16194 0.07754 0.0
H695 H 0.70202 0.19938 0.10347 0.0
H696 H 0.75216 0.30906 0.10091 0.0
H697 H 0.71178 0.25796 0.10728 0.0
H698 H 0.78113 0.25397 0.97234 0.0
H699 H 0.74755 0.20207 0.98118 0.0
H700 H 0.83003 0.3082 0.99012 0.0
H701 H 0.83659 0.34634 0.01363 0.0
C702 C 0.53816 0.74451 0.1752 0.0
C703 C 0.53021 0.71279 0.19462 0.0
C704 C 0.50931 0.74437 0.23093 0.0
C705 C 0.52116 0.77817 0.21241 0.0
N706 N 0.55424 0.81444 0.16889 0.0
N707 N 0.51523 0.68582 0.24236 0.0
C708 C 0.53753 0.77935 0.18502 0.0
C709 C 0.51776 0.71363 0.22292 0.0
N710 N 0.54528 0.74081 0.14721 0.0
N711 N 0.48827 0.74059 0.25559 0.0
H712 H 0.52095 0.66264 0.23728 0.0
H713 H 0.51096 0.68786 0.26401 0.0
H714 H 0.48069 0.762 0.26202 0.0
H715 H 0.47485 0.71432 0.26838 0.0
H716 H 0.54671 0.76068 0.13151 0.0
H717 H 0.54605 0.71572 0.13921 0.0
H718 H 0.57094 0.81877 0.15019 0.0
H719 H 0.55504 0.84094 0.17548 0.0
C720 C 0.84383 0.55049 0.3375 0.0
C721 C 0.87053 0.54744 0.35732 0.0
C722 C 0.81257 0.5152 0.39185 0.0
C723 C 0.78708 0.52178 0.373 0.0
N724 N 0.78085 0.55209 0.32982 0.0
N725 N 0.88292 0.53238 0.40462 0.0
C726 C 0.80333 0.54106 0.34629 0.0
C727 C 0.85566 0.53143 0.38491 0.0
N728 N 0.85691 0.56167 0.31006 0.0
N729 N 0.7951 0.49161 0.41566 0.0
H730 H 0.91433 0.5429 0.40001 0.0
H731 H 0.87535 0.52565 0.42601 0.0
H732 H 0.7635 0.47833 0.42122 0.0
H733 H 0.81083 0.482 0.42858 0.0
H734 H 0.83712 0.55983 0.29382 0.0
H735 H 0.88667 0.5696 0.3029 0.0
H736 H 0.79302 0.57044 0.31174 0.0
H737 H 0.75126 0.54611 0.33555 0.0
C738 C 0.10627 0.60652 0.46855 0.0
C739 C 0.12745 0.62818 0.44346 0.0
C740 C 0.19606 0.65203 0.46571 0.0
C741 C 0.17505 0.6324 0.49131 0.0
N742 N 0.11109 0.59469 0.51875 0.0
N743 N 0.19214 0.67656 0.41919 0.0
C744 C 0.13035 0.61076 0.49323 0.0
C745 C 0.17227 0.65236 0.44237 0.0
N746 N 0.06323 0.58129 0.46852 0.0
N747 N 0.2388 0.66986 0.46357 0.0
H748 H 0.17594 0.67682 0.40132 0.0
H749 H 0.22432 0.6988 0.41847 0.0
H750 H 0.2577 0.6718 0.4805 0.0
H751 H 0.25538 0.68025 0.44455 0.0
H752 H 0.04587 0.56113 0.48497 0.0
H753 H 0.04475 0.57876 0.45112 0.0
H754 H 0.0792 0.58252 0.52253 0.0
H755 H 0.12762 0.59555 0.53683 0.0
C756 C 0.55582 0.08339 0.65727 0.0
C757 C 0.55452 0.10448 0.6329 0.0
C758 C 0.59307 0.17071 0.65841 0.0
C759 C 0.59208 0.14944 0.68339 0.0
N760 N 0.5688 0.08547 0.70804 0.0
N761 N 0.5644 0.16662 0.61178 0.0
C762 C 0.57219 0.10566 0.68328 0.0
C763 C 0.57097 0.14766 0.63394 0.0
N764 N 0.54207 0.04233 0.65535 0.0
N765 N 0.61557 0.21312 0.6578 0.0
H766 H 0.54968 0.15148 0.59296 0.0
H767 H 0.57007 0.19641 0.61304 0.0
H768 H 0.63021 0.23172 0.6755 0.0
H769 H 0.62219 0.2302 0.63918 0.0
H770 H 0.5462 0.02597 0.6713 0.0
H771 H 0.52839 0.02495 0.63695 0.0
H772 H 0.55083 0.05338 0.71019 0.0
H773 H 0.58228 0.10102 0.72706 0.0
C774 C 0.41834 0.56122 0.7636 0.0
C775 C 0.42704 0.52985 0.75923 0.0
C776 C 0.45021 0.53597 0.80863 0.0
C777 C 0.43909 0.5656 0.81356 0.0
N778 N 0.40448 0.60034 0.79732 0.0
N779 N 0.44362 0.48158 0.77829 0.0
C780 C 0.42093 0.57662 0.79148 0.0
C781 C 0.44041 0.51529 0.78204 0.0
N782 N 0.40836 0.57686 0.74099 0.0
N783 N 0.47241 0.52937 0.82866 0.0
H784 H 0.43762 0.46621 0.75893 0.0
H785 H 0.44864 0.46668 0.79487 0.0
H786 H 0.48147 0.54484 0.8481 0.0
H787 H 0.48542 0.51154 0.82503 0.0
H788 H 0.40691 0.60331 0.74218 0.0
H789 H 0.40419 0.56492 0.72048 0.0
H790 H 0.38657 0.60525 0.78287 0.0
H791 H 0.40518 0.61215 0.81739 0.0
C792 C 0.93794 0.50226 0.95279 0.0
C793 C 0.91217 0.47804 0.92959 0.0
C794 C 0.85538 0.43316 0.9627 0.0
C795 C 0.87985 0.45954 0.98556 0.0
N796 N 0.94066 0.52399 0.00149 0.0
N797 N 0.84367 0.42553 0.91184 0.0
C798 C 0.92007 0.49551 0.98035 0.0
C799 C 0.87001 0.44501 0.93437 0.0
N800 N 0.98001 0.53053 0.94881 0.0
N801 N 0.81927 0.39574 0.96805 0.0
H802 H 0.85329 0.43364 0.8908 0.0
H803 H 0.8114 0.40411 0.91401 0.0
H804 H 0.80773 0.38521 0.98844 0.0
H805 H 0.80285 0.37334 0.95247 0.0
H806 H 0.0011 0.54568 0.96545 0.0
H807 H 0.9947 0.53622 0.92912 0.0
H808 H 0.96796 0.55293 0.99811 0.0
H809 H 0.92828 0.52051 0.02186 0.0
C810 C 0.6141 0.02587 0.15308 0.0
C811 C 0.64206 0.01698 0.13946 0.0
C812 C 0.6277 0.96534 0.17537 0.0
C813 C 0.59254 0.96689 0.18477 0.0
N814 N 0.55638 0.00359 0.18641 0.0
N815 N 0.69716 0.00734 0.15533 0.0
C816 C 0.58735 0.9992 0.17511 0.0
C817 C 0.65574 0.99507 0.15549 0.0
N818 N 0.6156 0.06127 0.14599 0.0
N819 N 0.63372 0.93482 0.18418 0.0
H820 H 0.71992 0.03522 0.14585 0.0
H821 H 0.70924 0.99404 0.16841 0.0
H822 H 0.61364 0.91149 0.19828 0.0
H823 H 0.65711 0.93111 0.1755 0.0
H824 H 0.59853 0.07181 0.15633 0.0
H825 H 0.63742 0.08196 0.13115 0.0
H826 H 0.54787 0.02337 0.1781 0.0
H827 H 0.53832 0.98645 0.20384 0.0
C828 C 0.57828 0.55384 0.32043 0.0
C829 C 0.60848 0.58523 0.30236 0.0
C830 C 0.66444 0.58321 0.32721 0.0
C831 C 0.63352 0.54424 0.33896 0.0
N832 N 0.55992 0.49509 0.3502 0.0
N833 N 0.67668 0.64737 0.30775 0.0
C834 C 0.59002 0.53032 0.33673 0.0
C835 C 0.65098 0.60562 0.31131 0.0
N836 N 0.54102 0.55113 0.32521 0.0
N837 N 0.70646 0.59817 0.33008 0.0
H838 H 0.66514 0.66464 0.29912 0.0
H839 H 0.70702 0.66483 0.31625 0.0
H840 H 0.71786 0.5829 0.3416 0.0
H841 H 0.7297 0.62434 0.31928 0.0
H842 H 0.51908 0.53155 0.34032 0.0
H843 H 0.53503 0.57257 0.31631 0.0
H844 H 0.52773 0.48156 0.3465 0.0
H845 H 0.56703 0.47841 0.36407 0.0
C846 C 0.48474 0.90035 0.36909 0.0
C847 C 0.50749 0.94345 0.37483 0.0
C848 C 0.53928 0.95772 0.32743 0.0
C849 C 0.51278 0.91517 0.32051 0.0
N850 N 0.45504 0.84652 0.33325 0.0
N851 N 0.55077 0.01385 0.35786 0.0
C852 C 0.48424 0.88645 0.34098 0.0
C853 C 0.53333 0.97237 0.35357 0.0
N854 N 0.46421 0.8727 0.39061 0.0
N855 N 0.57103 0.98396 0.30939 0.0
H856 H 0.54677 0.02593 0.37657 0.0
H857 H 0.56592 0.03594 0.34196 0.0
H858 H 0.57699 0.97414 0.29029 0.0
H859 H 0.59404 0.01444 0.31464 0.0
H860 H 0.45079 0.8409 0.38839 0.0
H861 H 0.46374 0.88188 0.41141 0.0
H862 H 0.43037 0.82572 0.34639 0.0
H863 H 0.45294 0.83501 0.31285 0.0
C864 C 0.53588 0.44453 0.49536 0.0
C865 C 0.53882 0.48185 0.50349 0.0
C866 C 0.59446 0.52013 0.46794 0.0
C867 C 0.58944 0.48229 0.45877 0.0
N868 N 0.54779 0.40723 0.45906 0.0
N869 N 0.56442 0.55345 0.49387 0.0
C870 C 0.55758 0.44411 0.47085 0.0
C871 C 0.56633 0.51924 0.48871 0.0
N872 N 0.51458 0.40993 0.51196 0.0
N873 N 0.62585 0.55685 0.45669 0.0
H874 H 0.54343 0.55339 0.50845 0.0
H875 H 0.58065 0.58057 0.48198 0.0
H876 H 0.64525 0.55862 0.44015 0.0
H877 H 0.63426 0.58567 0.4648 0.0
H878 H 0.51545 0.38343 0.50861 0.0
H879 H 0.49943 0.40879 0.53076 0.0
H880 H 0.52139 0.37884 0.46498 0.0
H881 H 0.56357 0.40483 0.44173 0.0
C882 C 0.09561 0.57611 0.64786 0.0
C883 C 0.10746 0.56288 0.67228 0.0
C884 C 0.17146 0.57636 0.64761 0.0
C885 C 0.16246 0.59488 0.62504 0.0
N886 N 0.11778 0.6152 0.60381 0.0
N887 N 0.16 0.5558 0.69683 0.0
C888 C 0.12491 0.59541 0.62512 0.0
C889 C 0.14609 0.56402 0.67245 0.0
N890 N 0.05593 0.56919 0.64616 0.0
N891 N 0.20422 0.57038 0.64526 0.0
H892 H 0.14333 0.54777 0.71581 0.0
H893 H 0.18987 0.56043 0.699 0.0
H894 H 0.22412 0.57991 0.62764 0.0
H895 H 0.2094 0.55274 0.65953 0.0
H896 H 0.04384 0.57452 0.62793 0.0
H897 H 0.0336 0.55447 0.66225 0.0
H898 H 0.0934 0.62069 0.60414 0.0
H899 H 0.13806 0.62866 0.58651 0.0
C900 C 0.648 0.17337 0.87857 0.0
C901 C 0.63982 0.13261 0.87759 0.0
C902 C 0.62141 0.12729 0.82717 0.0
C903 C 0.63378 0.16949 0.82742 0.0
N904 N 0.66524 0.23494 0.85226 0.0
N905 N 0.62515 0.07274 0.85032 0.0
C906 C 0.6486 0.19316 0.85286 0.0
C907 C 0.62831 0.11009 0.85169 0.0
N908 N 0.65432 0.19282 0.90415 0.0
N909 N 0.60149 0.10319 0.80389 0.0
H910 H 0.62977 0.05896 0.86785 0.0
H911 H 0.62152 0.05705 0.83138 0.0
H912 H 0.59487 0.1144 0.78577 0.0
H913 H 0.58784 0.07121 0.80353 0.0
H914 H 0.65573 0.22065 0.90659 0.0
H915 H 0.65477 0.17949 0.92336 0.0
H916 H 0.68102 0.2545 0.86938 0.0
H917 H 0.66659 0.25088 0.83396 0.0
C918 C 0.48116 0.56004 0.01125 0.0
C919 C 0.49019 0.59211 0.03088 0.0
C920 C 0.48483 0.63232 0.99272 0.0
C921 C 0.47059 0.59813 0.97394 0.0
N922 N 0.44768 0.52643 0.96689 0.0
N923 N 0.49213 0.65491 0.04153 0.0
C924 C 0.46663 0.56108 0.98361 0.0
C925 C 0.48939 0.62708 0.02199 0.0
N926 N 0.4881 0.52952 0.01851 0.0
N927 N 0.4964 0.6705 0.9825 0.0
H928 H 0.49486 0.65174 0.06329 0.0
H929 H 0.48748 0.67874 0.03642 0.0
H930 H 0.49598 0.67663 0.96099 0.0
H931 H 0.51105 0.69719 0.99497 0.0
H932 H 0.48636 0.50803 0.00401 0.0
H933 H 0.4995 0.52796 0.03833 0.0
H934 H 0.44013 0.49745 0.9741 0.0
H935 H 0.43573 0.52564 0.94675 0.0
C936 C 0.95693 0.53688 0.1667 0.0
C937 C 0.93503 0.51962 0.19258 0.0
C938 C 0.87499 0.46376 0.16627 0.0
C939 C 0.89835 0.47916 0.14056 0.0
N940 N 0.96409 0.5259 0.11684 0.0
N941 N 0.8758 0.46419 0.21778 0.0
C942 C 0.93998 0.51464 0.1409 0.0
C943 C 0.89485 0.48225 0.19258 0.0
N944 N 0.99384 0.57479 0.16674 0.0
N945 N 0.83315 0.43295 0.16553 0.0
H946 H 0.88823 0.47796 0.23744 0.0
H947 H 0.84915 0.43435 0.21934 0.0
H948 H 0.8169 0.41852 0.14691 0.0
H949 H 0.81333 0.42403 0.18311 0.0
H950 H 0.00863 0.59129 0.14834 0.0
H951 H 0.0081 0.59137 0.18527 0.0
H952 H 0.99615 0.54871 0.11642 0.0
H953 H 0.9531 0.50979 0.09771 0.0
loop_
_geom_bond_atom_site_label_1
_geom_bond_atom_site_label_2
_geom_bond_distance
_geom_bond_site_symmetry_2
_ccdc_geom_bond_type
H0 O26 0.856 . S
H1 O29 0.854 . S
H2 C37 0.930 . S
H3 C38 0.930 . S
H4 C40 0.930 . S
H5 C41 0.930 . S
H6 C43 0.931 . S
H7 C44 0.930 . S
H8 C46 0.930 . S
H9 C47 0.929 . S
H10 C49 0.930 . S
H11 C50 0.931 . S
H12 C52 0.930 . S
H13 C53 0.929 . S
H14 C55 0.931 . S
H15 C56 0.930 . S
H16 C58 0.930 . S
H17 C59 0.932 . S
H18 C61 0.930 . S
H19 C62 0.929 . S
H20 C64 0.931 . S
H21 C65 0.930 . S
H22 C67 0.929 . S
H23 C68 0.931 . S
H24 C70 0.930 . S
H25 C71 0.929 1_455 S
O26 H0 0.856 . S
O26 C72 1.300 . S
O27 C72 1.209 . S
O28 C73 1.199 . S
O29 H1 0.854 . S
O29 C73 1.297 . S
C30 C31 1.404 . S
C30 C35 1.397 . S
C30 C36 1.492 . S
C31 C30 1.404 . S
C31 C32 1.396 . S
C31 C42 1.492 . S
C32 C31 1.396 . S
C32 C33 1.397 . S
C32 C48 1.509 . S
C33 C32 1.397 . S
C33 C34 1.412 . S
C33 C54 1.485 . S
C34 C33 1.412 . S
C34 C35 1.388 . S
C34 C60 1.490 . S
C35 C30 1.397 . S
C35 C34 1.388 . S
C35 C66 1.519 . S
C36 C30 1.492 . S
C36 C37 1.363 . S
C36 C41 1.390 1_455 S
C37 H2 0.930 . S
C37 C36 1.363 . S
C37 C38 1.372 1_455 S
C38 H3 0.930 . S
C38 C37 1.372 1_655 S
C38 C39 1.383 . S
C39 C38 1.383 . S
C39 C40 1.395 . S
C40 H4 0.930 . S
C40 C39 1.395 . S
C40 C41 1.362 . S
C41 H5 0.930 . S
C41 C36 1.390 1_655 S
C41 C40 1.362 . S
C42 C31 1.492 . S
C42 C43 1.377 . S
C42 C47 1.397 . S
C43 H6 0.931 . S
C43 C42 1.377 . S
C43 C44 1.376 . S
C44 H7 0.930 . S
C44 C43 1.376 . S
C44 C45 1.376 . S
C45 C44 1.376 . S
C45 C46 1.378 . S
C45 C72 1.486 . S
C46 H8 0.930 . S
C46 C45 1.378 . S
C46 C47 1.376 . S
C47 H9 0.929 . S
C47 C42 1.397 . S
C47 C46 1.376 . S
C48 C32 1.509 . S
C48 C49 1.391 . S
C48 C53 1.386 . S
C49 H10 0.930 . S
C49 C48 1.391 . S
C49 C50 1.375 . S
C50 H11 0.931 . S
C50 C49 1.375 . S
C50 C51 1.375 . S
C51 C50 1.375 . S
C51 C52 1.361 . S
C52 H12 0.930 . S
C52 C51 1.361 . S
C52 C53 1.399 . S
C53 H13 0.929 . S
C53 C48 1.386 . S
C53 C52 1.399 . S
C54 C33 1.485 . S
C54 C55 1.394 . S
C54 C59 1.360 . S
C55 H14 0.931 . S
C55 C54 1.394 . S
C55 C56 1.372 . S
C56 H15 0.930 . S
C56 C55 1.372 . S
C56 C57 1.397 . S
C57 C56 1.397 . S
C57 C58 1.390 . S
C57 C73 1.476 . S
C58 H16 0.930 . S
C58 C57 1.390 . S
C58 C59 1.366 . S
C59 H17 0.932 . S
C59 C54 1.360 . S
C59 C58 1.366 . S
C60 C34 1.490 . S
C60 C61 1.380 . S
C60 C65 1.386 . S
C61 H18 0.930 . S
C61 C60 1.380 . S
C61 C62 1.381 . S
C62 H19 0.929 . S
C62 C61 1.381 . S
C62 C63 1.371 . S
C63 C62 1.371 . S
C63 C64 1.380 . S
C64 H20 0.931 . S
C64 C63 1.380 . S
C64 C65 1.387 . S
C65 H21 0.930 . S
C65 C60 1.386 . S
C65 C64 1.387 . S
C66 C35 1.519 . S
C66 C67 1.377 1_455 S
C66 C71 1.361 1_455 S
C67 H22 0.929 . S
C67 C66 1.377 1_655 S
C67 C68 1.386 . S
C68 H23 0.931 . S
C68 C67 1.386 . S
C68 C69 1.363 . S
C69 C68 1.363 . S
C69 C70 1.385 . S
C70 H24 0.930 . S
C70 C69 1.385 . S
C70 C71 1.396 . S
C71 H25 0.929 1_655 S
C71 C66 1.361 1_655 S
C71 C70 1.396 . S
C72 O26 1.300 . S
C72 O27 1.209 . S
C72 C45 1.486 . S
C73 O28 1.199 . S
C73 O29 1.297 . S
C73 C57 1.476 . S
H74 O100 0.856 . S
H75 O103 0.854 . S
H76 C111 0.930 . S
H77 C112 0.930 . S
H78 C114 0.930 . S
H79 C115 0.930 . S
H80 C117 0.931 . S
H81 C118 0.930 . S
H82 C120 0.930 . S
H83 C121 0.929 . S
H84 C123 0.930 . S
H85 C124 0.931 . S
H86 C126 0.930 . S
H87 C127 0.929 . S
H88 C129 0.931 . S
H89 C130 0.930 . S
H90 C132 0.930 . S
H91 C133 0.932 . S
H92 C135 0.930 . S
H93 C136 0.929 . S
H94 C138 0.931 . S
H95 C139 0.930 . S
H96 C141 0.930 . S
H97 C142 0.931 . S
H98 C144 0.930 . S
H99 C145 0.929 1_545 S
O100 H74 0.856 . S
O100 C146 1.300 . S
O101 C146 1.209 . S
O102 C147 1.199 . S
O103 H75 0.854 . S
O103 C147 1.297 . S
C104 C105 1.404 . S
C104 C109 1.397 . S
C104 C110 1.492 . S
C105 C104 1.404 . S
C105 C106 1.396 . S
C105 C116 1.492 . S
C106 C105 1.396 . S
C106 C107 1.397 . S
C106 C122 1.509 . S
C107 C106 1.397 . S
C107 C108 1.412 . S
C107 C128 1.485 . S
C108 C107 1.412 . S
C108 C109 1.388 . S
C108 C134 1.490 . S
C109 C104 1.397 . S
C109 C108 1.388 . S
C109 C140 1.519 . S
C110 C104 1.492 . S
C110 C111 1.363 . S
C110 C115 1.390 1_545 S
C111 H76 0.930 . S
C111 C110 1.363 . S
C111 C112 1.372 1_545 S
C112 H77 0.930 . S
C112 C111 1.372 1_565 S
C112 C113 1.383 . S
C113 C112 1.383 . S
C113 C114 1.395 . S
C114 H78 0.930 . S
C114 C113 1.395 . S
C114 C115 1.362 . S
C115 H79 0.930 . S
C115 C110 1.390 1_565 S
C115 C114 1.362 . S
C116 C105 1.492 . S
C116 C117 1.377 . S
C116 C121 1.397 . S
C117 H80 0.931 . S
C117 C116 1.377 . S
C117 C118 1.376 . S
C118 H81 0.930 . S
C118 C117 1.376 . S
C118 C119 1.376 . S
C119 C118 1.376 . S
C119 C120 1.378 . S
C119 C146 1.486 . S
C120 H82 0.930 . S
C120 C119 1.378 . S
C120 C121 1.376 . S
C121 H83 0.929 . S
C121 C116 1.397 . S
C121 C120 1.376 . S
C122 C106 1.509 . S
C122 C123 1.391 . S
C122 C127 1.386 . S
C123 H84 0.930 . S
C123 C122 1.391 . S
C123 C124 1.375 . S
C124 H85 0.931 . S
C124 C123 1.375 . S
C124 C125 1.375 . S
C125 C124 1.375 . S
C125 C126 1.361 . S
C126 H86 0.930 . S
C126 C125 1.361 . S
C126 C127 1.399 . S
C127 H87 0.929 . S
C127 C122 1.386 . S
C127 C126 1.399 . S
C128 C107 1.485 . S
C128 C129 1.394 . S
C128 C133 1.360 . S
C129 H88 0.931 . S
C129 C128 1.394 . S
C129 C130 1.372 . S
C130 H89 0.930 . S
C130 C129 1.372 . S
C130 C131 1.397 . S
C131 C130 1.397 . S
C131 C132 1.390 . S
C131 C147 1.476 . S
C132 H90 0.930 . S
C132 C131 1.390 . S
C132 C133 1.366 . S
C133 H91 0.932 . S
C133 C128 1.360 . S
C133 C132 1.366 . S
C134 C108 1.490 . S
C134 C135 1.380 . S
C134 C139 1.386 . S
C135 H92 0.930 . S
C135 C134 1.380 . S
C135 C136 1.381 . S
C136 H93 0.929 . S
C136 C135 1.381 . S
C136 C137 1.371 . S
C137 C136 1.371 . S
C137 C138 1.380 . S
C138 H94 0.931 . S
C138 C137 1.380 . S
C138 C139 1.387 . S
C139 H95 0.930 . S
C139 C134 1.386 . S
C139 C138 1.387 . S
C140 C109 1.519 . S
C140 C141 1.377 1_545 S
C140 C145 1.361 1_545 S
C141 H96 0.930 . S
C141 C140 1.377 1_565 S
C141 C142 1.386 . S
C142 H97 0.931 . S
C142 C141 1.386 . S
C142 C143 1.363 . S
C143 C142 1.363 . S
C143 C144 1.385 . S
C144 H98 0.930 . S
C144 C143 1.385 . S
C144 C145 1.396 . S
C145 H99 0.929 1_565 S
C145 C140 1.361 1_565 S
C145 C144 1.396 . S
C146 O100 1.300 . S
C146 O101 1.209 . S
C146 C119 1.486 . S
C147 O102 1.199 . S
C147 O103 1.297 . S
C147 C131 1.476 . S
H148 O174 0.856 . S
H149 O177 0.854 . S
H150 C185 0.930 . S
H151 C186 0.930 . S
H152 C188 0.930 . S
H153 C189 0.930 . S
H154 C191 0.931 . S
H155 C192 0.930 . S
H156 C194 0.930 . S
H157 C195 0.929 . S
H158 C197 0.930 . S
H159 C198 0.931 . S
H160 C200 0.930 . S
H161 C201 0.929 . S
H162 C203 0.931 . S
H163 C204 0.930 . S
H164 C206 0.930 . S
H165 C207 0.932 . S
H166 C209 0.930 . S
H167 C210 0.929 . S
H168 C212 0.931 . S
H169 C213 0.930 . S
H170 C215 0.929 . S
H171 C216 0.931 . S
H172 C218 0.930 . S
H173 C219 0.929 . S
O174 H148 0.856 . S
O174 C220 1.300 . S
O175 C220 1.209 . S
O176 C221 1.199 . S
O177 H149 0.854 . S
O177 C221 1.297 . S
C178 C179 1.404 . S
C178 C183 1.397 . S
C178 C184 1.492 . S
C179 C178 1.404 . S
C179 C180 1.396 . S
C179 C190 1.492 . S
C180 C179 1.396 . S
C180 C181 1.397 . S
C180 C196 1.509 . S
C181 C180 1.397 . S
C181 C182 1.412 . S
C181 C202 1.485 . S
C182 C181 1.412 . S
C182 C183 1.388 . S
C182 C208 1.490 . S
C183 C178 1.397 . S
C183 C182 1.388 . S
C183 C214 1.519 . S
C184 C178 1.492 . S
C184 C185 1.363 . S
C184 C189 1.390 . S
C185 H150 0.930 . S
C185 C184 1.363 . S
C185 C186 1.372 . S
C186 H151 0.930 . S
C186 C185 1.372 . S
C186 C187 1.383 . S
C187 C186 1.383 . S
C187 C188 1.395 . S
C188 H152 0.930 . S
C188 C187 1.395 . S
C188 C189 1.362 . S
C189 H153 0.930 . S
C189 C184 1.390 . S
C189 C188 1.362 . S
C190 C179 1.492 . S
C190 C191 1.377 . S
C190 C195 1.397 . S
C191 H154 0.931 . S
C191 C190 1.377 . S
C191 C192 1.376 . S
C192 H155 0.930 . S
C192 C191 1.376 . S
C192 C193 1.376 . S
C193 C192 1.376 . S
C193 C194 1.378 . S
C193 C220 1.486 . S
C194 H156 0.930 . S
C194 C193 1.378 . S
C194 C195 1.376 . S
C195 H157 0.929 . S
C195 C190 1.397 . S
C195 C194 1.376 . S
C196 C180 1.509 . S
C196 C197 1.391 . S
C196 C201 1.386 . S
C197 H158 0.930 . S
C197 C196 1.391 . S
C197 C198 1.375 . S
C198 H159 0.931 . S
C198 C197 1.375 . S
C198 C199 1.375 . S
C199 C198 1.375 . S
C199 C200 1.361 . S
C200 H160 0.930 . S
C200 C199 1.361 . S
C200 C201 1.399 . S
C201 H161 0.929 . S
C201 C196 1.386 . S
C201 C200 1.399 . S
C202 C181 1.485 . S
C202 C203 1.394 . S
C202 C207 1.360 . S
C203 H162 0.931 . S
C203 C202 1.394 . S
C203 C204 1.372 . S
C204 H163 0.930 . S
C204 C203 1.372 . S
C204 C205 1.397 . S
C205 C204 1.397 . S
C205 C206 1.390 . S
C205 C221 1.476 . S
C206 H164 0.930 . S
C206 C205 1.390 . S
C206 C207 1.366 . S
C207 H165 0.932 . S
C207 C202 1.360 . S
C207 C206 1.366 . S
C208 C182 1.490 . S
C208 C209 1.380 . S
C208 C213 1.386 . S
C209 H166 0.930 . S
C209 C208 1.380 . S
C209 C210 1.381 . S
C210 H167 0.929 . S
C210 C209 1.381 . S
C210 C211 1.371 . S
C211 C210 1.371 . S
C211 C212 1.380 . S
C212 H168 0.931 . S
C212 C211 1.380 . S
C212 C213 1.387 . S
C213 H169 0.930 . S
C213 C208 1.386 . S
C213 C212 1.387 . S
C214 C183 1.519 . S
C214 C215 1.377 . S
C214 C219 1.361 . S
C215 H170 0.929 . S
C215 C214 1.377 . S
C215 C216 1.386 . S
C216 H171 0.931 . S
C216 C215 1.386 . S
C216 C217 1.363 . S
C217 C216 1.363 . S
C217 C218 1.385 . S
C218 H172 0.930 . S
C218 C217 1.385 . S
C218 C219 1.396 . S
C219 H173 0.929 . S
C219 C214 1.361 . S
C219 C218 1.396 . S
C220 O174 1.300 . S
C220 O175 1.209 . S
C220 C193 1.486 . S
C221 O176 1.199 . S
C221 O177 1.297 . S
C221 C205 1.476 . S
H222 O248 0.856 1_554 S
H223 O251 0.854 . S
H224 C259 0.930 1_455 S
H225 C260 0.930 . S
H226 C262 0.930 . S
H227 C263 0.930 . S
H228 C265 0.931 . S
H229 C266 0.930 . S
H230 C268 0.930 . S
H231 C269 0.929 . S
H232 C271 0.930 . S
H233 C272 0.931 . S
H234 C274 0.930 . S
H235 C275 0.929 . S
H236 C277 0.931 . S
H237 C278 0.930 . S
H238 C280 0.930 . S
H239 C281 0.932 . S
H240 C283 0.930 . S
H241 C284 0.929 . S
H242 C286 0.931 . S
H243 C287 0.930 . S
H244 C289 0.929 . S
H245 C290 0.931 . S
H246 C292 0.930 . S
H247 C293 0.929 . S
O248 H222 0.856 1_556 S
O248 C294 1.300 . S
O249 C294 1.209 . S
O250 C295 1.199 . S
O251 H223 0.854 . S
O251 C295 1.297 . S
C252 C253 1.404 . S
C252 C257 1.397 . S
C252 C258 1.492 . S
C253 C252 1.404 . S
C253 C254 1.396 . S
C253 C264 1.492 . S
C254 C253 1.396 . S
C254 C255 1.397 . S
C254 C270 1.509 . S
C255 C254 1.397 . S
C255 C256 1.412 . S
C255 C276 1.485 . S
C256 C255 1.412 . S
C256 C257 1.388 . S
C256 C282 1.490 . S
C257 C252 1.397 . S
C257 C256 1.388 . S
C257 C288 1.519 1_455 S
C258 C252 1.492 . S
C258 C259 1.363 1_455 S
C258 C263 1.390 1_455 S
C259 H224 0.930 1_655 S
C259 C258 1.363 1_655 S
C259 C260 1.372 . S
C260 H225 0.930 . S
C260 C259 1.372 . S
C260 C261 1.383 . S
C261 C260 1.383 . S
C261 C262 1.395 . S
C262 H226 0.930 . S
C262 C261 1.395 . S
C262 C263 1.362 . S
C263 H227 0.930 . S
C263 C258 1.390 1_655 S
C263 C262 1.362 . S
C264 C253 1.492 . S
C264 C265 1.377 . S
C264 C269 1.397 . S
C265 H228 0.931 . S
C265 C264 1.377 . S
C265 C266 1.376 . S
C266 H229 0.930 . S
C266 C265 1.376 . S
C266 C267 1.376 . S
C267 C266 1.376 . S
C267 C268 1.378 . S
C267 C294 1.486 . S
C268 H230 0.930 . S
C268 C267 1.378 . S
C268 C269 1.376 . S
C269 H231 0.929 . S
C269 C264 1.397 . S
C269 C268 1.376 . S
C270 C254 1.509 . S
C270 C271 1.391 . S
C270 C275 1.386 . S
C271 H232 0.930 . S
C271 C270 1.391 . S
C271 C272 1.375 . S
C272 H233 0.931 . S
C272 C271 1.375 . S
C272 C273 1.375 . S
C273 C272 1.375 . S
C273 C274 1.361 . S
C274 H234 0.930 . S
C274 C273 1.361 . S
C274 C275 1.399 . S
C275 H235 0.929 . S
C275 C270 1.386 . S
C275 C274 1.399 . S
C276 C255 1.485 . S
C276 C277 1.394 . S
C276 C281 1.360 . S
C277 H236 0.931 . S
C277 C276 1.394 . S
C277 C278 1.372 . S
C278 H237 0.930 . S
C278 C277 1.372 . S
C278 C279 1.397 . S
C279 C278 1.397 . S
C279 C280 1.390 . S
C279 C295 1.476 . S
C280 H238 0.930 . S
C280 C279 1.390 . S
C280 C281 1.366 . S
C281 H239 0.932 . S
C281 C276 1.360 . S
C281 C280 1.366 . S
C282 C256 1.490 . S
C282 C283 1.380 . S
C282 C287 1.386 . S
C283 H240 0.930 . S
C283 C282 1.380 . S
C283 C284 1.381 . S
C284 H241 0.929 . S
C284 C283 1.381 . S
C284 C285 1.371 . S
C285 C284 1.371 . S
C285 C286 1.380 . S
C286 H242 0.931 . S
C286 C285 1.380 . S
C286 C287 1.387 . S
C287 H243 0.930 . S
C287 C282 1.386 . S
C287 C286 1.387 . S
C288 C257 1.519 1_655 S
C288 C289 1.377 . S
C288 C293 1.361 . S
C289 H244 0.929 . S
C289 C288 1.377 . S
C289 C290 1.386 . S
C290 H245 0.931 . S
C290 C289 1.386 . S
C290 C291 1.363 . S
C291 C290 1.363 . S
C291 C292 1.385 . S
C292 H246 0.930 . S
C292 C291 1.385 . S
C292 C293 1.396 . S
C293 H247 0.929 . S
C293 C288 1.361 . S
C293 C292 1.396 . S
C294 O248 1.300 . S
C294 O249 1.209 . S
C294 C267 1.486 . S
C295 O250 1.199 . S
C295 O251 1.297 . S
C295 C279 1.476 . S
H296 O322 0.856 . S
H297 O325 0.854 . S
H298 C333 0.930 . S
H299 C334 0.930 . S
H300 C336 0.930 . S
H301 C337 0.930 . S
H302 C339 0.931 . S
H303 C340 0.930 . S
H304 C342 0.930 . S
H305 C343 0.929 . S
H306 C345 0.930 . S
H307 C346 0.931 . S
H308 C348 0.930 . S
H309 C349 0.929 . S
H310 C351 0.931 . S
H311 C352 0.930 . S
H312 C354 0.930 . S
H313 C355 0.932 . S
H314 C357 0.930 . S
H315 C358 0.929 . S
H316 C360 0.931 . S
H317 C361 0.930 . S
H318 C363 0.936 . S
H319 C364 0.931 . S
H320 C366 0.930 . S
H321 C367 0.929 . S
O322 H296 0.856 . S
O322 C368 1.300 . S
O323 C368 1.209 . S
O324 C369 1.199 . S
O325 H297 0.854 . S
O325 C369 1.297 . S
C326 C327 1.404 1_545 S
C326 C331 1.397 . S
C326 C332 1.492 . S
C327 C326 1.404 1_565 S
C327 C328 1.396 . S
C327 C338 1.492 . S
C328 C327 1.396 . S
C328 C329 1.397 . S
C328 C344 1.509 . S
C329 C328 1.397 . S
C329 C330 1.412 1_566 S
C329 C350 1.485 1_556 S
C330 C329 1.412 1_544 S
C330 C331 1.388 1_554 S
C330 C356 1.490 . S
C331 C326 1.397 . S
C331 C330 1.388 1_556 S
C331 C362 1.519 1_556 S
C332 C326 1.492 . S
C332 C333 1.363 . S
C332 C337 1.390 . S
C333 H298 0.930 . S
C333 C332 1.363 . S
C333 C334 1.372 . S
C334 H299 0.930 . S
C334 C333 1.372 . S
C334 C335 1.383 . S
C335 C334 1.383 . S
C335 C336 1.395 . S
C336 H300 0.930 . S
C336 C335 1.395 . S
C336 C337 1.362 . S
C337 H301 0.930 . S
C337 C332 1.390 . S
C337 C336 1.362 . S
C338 C327 1.492 . S
C338 C339 1.377 . S
C338 C343 1.397 1_565 S
C339 H302 0.931 . S
C339 C338 1.377 . S
C339 C340 1.376 . S
C340 H303 0.930 . S
C340 C339 1.376 . S
C340 C341 1.376 . S
C341 C340 1.376 . S
C341 C342 1.378 1_565 S
C341 C368 1.486 . S
C342 H304 0.930 . S
C342 C341 1.378 1_545 S
C342 C343 1.376 . S
C343 H305 0.929 . S
C343 C338 1.397 1_545 S
C343 C342 1.376 . S
C344 C328 1.509 . S
C344 C345 1.391 . S
C344 C349 1.386 . S
C345 H306 0.930 . S
C345 C344 1.391 . S
C345 C346 1.375 . S
C346 H307 0.931 . S
C346 C345 1.375 . S
C346 C347 1.375 . S
C347 C346 1.375 . S
C347 C348 1.361 . S
C348 H308 0.930 . S
C348 C347 1.361 . S
C348 C349 1.399 . S
C349 H309 0.929 . S
C349 C344 1.386 . S
C349 C348 1.399 . S
C350 C329 1.485 1_554 S
C350 C351 1.394 . S
C350 C355 1.360 . S
C351 H310 0.931 . S
C351 C350 1.394 . S
C351 C352 1.372 . S
C352 H311 0.930 . S
C352 C351 1.372 . S
C352 C353 1.397 . S
C353 C352 1.397 . S
C353 C354 1.390 . S
C353 C369 1.476 . S
C354 H312 0.930 . S
C354 C353 1.390 . S
C354 C355 1.366 . S
C355 H313 0.932 . S
C355 C350 1.360 . S
C355 C354 1.366 . S
C356 C330 1.490 . S
C356 C357 1.380 . S
C356 C361 1.386 . S
C357 H314 0.930 . S
C357 C356 1.380 . S
C357 C358 1.381 . S
C358 H315 0.929 . S
C358 C357 1.381 . S
C358 C359 1.371 . S
C359 C358 1.371 . S
C359 C360 1.380 . S
C360 H316 0.931 . S
C360 C359 1.380 . S
C360 C361 1.387 . S
C361 H317 0.930 . S
C361 C356 1.386 . S
C361 C360 1.387 . S
C362 C331 1.519 1_554 S
C362 C363 1.376 1_554 S
C362 C367 1.361 . S
C363 H318 0.936 . S
C363 C362 1.376 1_556 S
C363 C364 1.380 1_556 S
C364 H319 0.931 . S
C364 C363 1.380 1_554 S
C364 C365 1.363 . S
C365 C364 1.363 . S
C365 C366 1.385 . S
C366 H320 0.930 . S
C366 C365 1.385 . S
C366 C367 1.396 . S
C367 H321 0.929 . S
C367 C362 1.361 . S
C367 C366 1.396 . S
C368 O322 1.300 . S
C368 O323 1.209 . S
C368 C341 1.486 . S
C369 O324 1.199 . S
C369 O325 1.297 . S
C369 C353 1.476 . S
H370 O396 0.856 . S
H371 O399 0.854 . S
H372 C407 0.930 . S
H373 C408 0.930 . S
H374 C410 0.930 . S
H375 C411 0.930 . S
H376 C413 0.931 . S
H377 C414 0.930 . S
H378 C416 0.930 . S
H379 C417 0.929 . S
H380 C419 0.930 . S
H381 C420 0.931 . S
H382 C422 0.930 . S
H383 C423 0.929 . S
H384 C425 0.931 . S
H385 C426 0.930 . S
H386 C428 0.930 . S
H387 C429 0.932 . S
H388 C431 0.930 . S
H389 C432 0.929 . S
H390 C434 0.931 . S
H391 C435 0.930 . S
H392 C437 0.929 . S
H393 C438 0.931 . S
H394 C440 0.930 . S
H395 C441 0.929 . S
O396 H370 0.856 . S
O396 C442 1.300 . S
O397 C442 1.209 . S
O398 C443 1.199 . S
O399 H371 0.854 . S
O399 C443 1.297 . S
C400 C401 1.404 . S
C400 C405 1.397 . S
C400 C406 1.492 . S
C401 C400 1.404 . S
C401 C402 1.396 . S
C401 C412 1.492 . S
C402 C401 1.396 . S
C402 C403 1.397 . S
C402 C418 1.509 . S
C403 C402 1.397 . S
C403 C404 1.412 . S
C403 C424 1.485 . S
C404 C403 1.412 . S
C404 C405 1.388 . S
C404 C430 1.490 . S
C405 C400 1.397 . S
C405 C404 1.388 . S
C405 C436 1.519 . S
C406 C400 1.492 . S
C406 C407 1.363 . S
C406 C411 1.390 . S
C407 H372 0.930 . S
C407 C406 1.363 . S
C407 C408 1.372 . S
C408 H373 0.930 . S
C408 C407 1.372 . S
C408 C409 1.383 . S
C409 C408 1.383 . S
C409 C410 1.395 . S
C410 H374 0.930 . S
C410 C409 1.395 . S
C410 C411 1.362 . S
C411 H375 0.930 . S
C411 C406 1.390 . S
C411 C410 1.362 . S
C412 C401 1.492 . S
C412 C413 1.377 . S
C412 C417 1.397 . S
C413 H376 0.931 . S
C413 C412 1.377 . S
C413 C414 1.376 . S
C414 H377 0.930 . S
C414 C413 1.376 . S
C414 C415 1.376 . S
C415 C414 1.376 . S
C415 C416 1.378 . S
C415 C442 1.486 1_554 S
C416 H378 0.930 . S
C416 C415 1.378 . S
C416 C417 1.376 . S
C417 H379 0.929 . S
C417 C412 1.397 . S
C417 C416 1.376 . S
C418 C402 1.509 . S
C418 C419 1.391 . S
C418 C423 1.386 . S
C419 H380 0.930 . S
C419 C418 1.391 . S
C419 C420 1.375 . S
C420 H381 0.931 . S
C420 C419 1.375 . S
C420 C421 1.375 . S
C421 C420 1.375 . S
C421 C422 1.361 . S
C422 H382 0.930 . S
C422 C421 1.361 . S
C422 C423 1.399 . S
C423 H383 0.929 . S
C423 C418 1.386 . S
C423 C422 1.399 . S
C424 C403 1.485 . S
C424 C425 1.394 . S
C424 C429 1.360 . S
C425 H384 0.931 . S
C425 C424 1.394 . S
C425 C426 1.372 . S
C426 H385 0.930 . S
C426 C425 1.372 . S
C426 C427 1.397 . S
C427 C426 1.397 . S
C427 C428 1.390 . S
C427 C443 1.476 . S
C428 H386 0.930 . S
C428 C427 1.390 . S
C428 C429 1.366 . S
C429 H387 0.932 . S
C429 C424 1.360 . S
C429 C428 1.366 . S
C430 C404 1.490 . S
C430 C431 1.380 . S
C430 C435 1.386 . S
C431 H388 0.930 . S
C431 C430 1.380 . S
C431 C432 1.381 . S
C432 H389 0.929 . S
C432 C431 1.381 . S
C432 C433 1.371 . S
C433 C432 1.371 . S
C433 C434 1.380 . S
C434 H390 0.931 . S
C434 C433 1.380 . S
C434 C435 1.387 . S
C435 H391 0.930 . S
C435 C430 1.386 . S
C435 C434 1.387 . S
C436 C405 1.519 . S
C436 C437 1.377 . S
C436 C441 1.361 . S
C437 H392 0.929 . S
C437 C436 1.377 . S
C437 C438 1.386 . S
C438 H393 0.931 . S
C438 C437 1.386 . S
C438 C439 1.363 . S
C439 C438 1.363 . S
C439 C440 1.385 . S
C440 H394 0.930 . S
C440 C439 1.385 . S
C440 C441 1.396 . S
C441 H395 0.929 . S
C441 C436 1.361 . S
C441 C440 1.396 . S
C442 O396 1.300 . S
C442 O397 1.209 . S
C442 C415 1.486 1_556 S
C443 O398 1.199 . S
C443 O399 1.297 . S
C443 C427 1.476 . S
In444 O445 2.294 . S
In444 O446 2.326 . S
In444 O450 2.266 . S
In444 O451 2.326 . S
In444 O452 2.266 . S
In444 O453 2.326 . S
In444 O455 2.294 . S
In444 O456 2.326 . S
O445 In444 2.294 . S
O445 C454 1.240 . S
O446 In444 2.326 . S
O446 C454 1.252 . S
C447 O450 1.252 . S
C447 O451 1.260 . S
C448 O455 1.240 . S
C448 O456 1.252 . S
C449 O452 1.252 . S
C449 O453 1.260 . S
O450 In444 2.266 . S
O450 C447 1.252 . S
O451 In444 2.326 . S
O451 C447 1.260 . S
O452 In444 2.266 . S
O452 C449 1.252 . S
O453 In444 2.326 . S
O453 C449 1.260 . S
C454 O445 1.240 . S
C454 O446 1.252 . S
O455 In444 2.294 . S
O455 C448 1.240 . S
O456 In444 2.326 . S
O456 C448 1.252 . S
In457 O458 2.294 . S
In457 O459 2.326 . S
In457 O463 2.266 . S
In457 O464 2.326 . S
In457 O465 2.266 . S
In457 O466 2.326 . S
In457 O468 2.294 . S
In457 O469 2.326 . S
O458 In457 2.294 . S
O458 C467 1.240 . S
O459 In457 2.326 . S
O459 C467 1.252 . S
C460 O463 1.252 . S
C460 O464 1.260 . S
C461 O468 1.240 . S
C461 O469 1.252 . S
C462 O465 1.252 . S
C462 O466 1.260 . S
O463 In457 2.266 . S
O463 C460 1.252 . S
O464 In457 2.326 . S
O464 C460 1.260 . S
O465 In457 2.266 . S
O465 C462 1.252 . S
O466 In457 2.326 . S
O466 C462 1.260 . S
C467 O458 1.240 . S
C467 O459 1.252 . S
O468 In457 2.294 . S
O468 C461 1.240 . S
O469 In457 2.326 . S
O469 C461 1.252 . S
In470 O471 2.294 . S
In470 O472 2.326 . S
In470 O476 2.266 . S
In470 O477 2.326 . S
In470 O478 2.266 . S
In470 O479 2.326 . S
In470 O481 2.294 . S
In470 O482 2.326 . S
O471 In470 2.294 . S
O471 C480 1.240 . S
O472 In470 2.326 . S
O472 C480 1.252 . S
C473 O476 1.252 . S
C473 O477 1.260 . S
C474 O481 1.240 . S
C474 O482 1.252 . S
C475 O478 1.252 . S
C475 O479 1.260 . S
O476 In470 2.266 . S
O476 C473 1.252 . S
O477 In470 2.326 . S
O477 C473 1.260 . S
O478 In470 2.266 . S
O478 C475 1.252 . S
O479 In470 2.326 . S
O479 C475 1.260 . S
C480 O471 1.240 . S
C480 O472 1.252 . S
O481 In470 2.294 . S
O481 C474 1.240 . S
O482 In470 2.326 . S
O482 C474 1.252 . S
In483 O484 2.294 . S
In483 O485 2.326 . S
In483 O489 2.266 . S
In483 O490 2.326 . S
In483 O491 2.266 . S
In483 O492 2.326 . S
In483 O494 2.294 . S
In483 O495 2.326 . S
O484 In483 2.294 . S
O484 C493 1.240 . S
O485 In483 2.326 . S
O485 C493 1.252 . S
C486 O489 1.252 . S
C486 O490 1.260 . S
C487 O494 1.240 . S
C487 O495 1.252 . S
C488 O491 1.252 . S
C488 O492 1.260 . S
O489 In483 2.266 . S
O489 C486 1.252 . S
O490 In483 2.326 . S
O490 C486 1.260 . S
O491 In483 2.266 . S
O491 C488 1.252 . S
O492 In483 2.326 . S
O492 C488 1.260 . S
C493 O484 1.240 . S
C493 O485 1.252 . S
O494 In483 2.294 . S
O494 C487 1.240 . S
O495 In483 2.326 . S
O495 C487 1.252 . S
In496 O497 2.294 . S
In496 O498 2.326 . S
In496 O502 2.266 . S
In496 O503 2.326 . S
In496 O504 2.266 . S
In496 O505 2.326 . S
In496 O507 2.294 . S
In496 O508 2.326 . S
O497 In496 2.294 . S
O497 C506 1.240 . S
O498 In496 2.326 . S
O498 C506 1.252 . S
C499 O502 1.252 . S
C499 O503 1.260 . S
C500 O507 1.240 . S
C500 O508 1.252 . S
C501 O504 1.252 . S
C501 O505 1.260 . S
O502 In496 2.266 . S
O502 C499 1.252 . S
O503 In496 2.326 . S
O503 C499 1.260 . S
O504 In496 2.266 . S
O504 C501 1.252 . S
O505 In496 2.326 . S
O505 C501 1.260 . S
C506 O497 1.240 . S
C506 O498 1.252 . S
O507 In496 2.294 . S
O507 C500 1.240 . S
O508 In496 2.326 . S
O508 C500 1.252 . S
In509 O510 2.294 . S
In509 O511 2.326 . S
In509 O515 2.266 . S
In509 O516 2.326 . S
In509 O517 2.266 . S
In509 O518 2.326 . S
In509 O520 2.294 . S
In509 O521 2.326 . S
O510 In509 2.294 . S
O510 C519 1.240 . S
O511 In509 2.326 . S
O511 C519 1.252 . S
C512 O515 1.252 . S
C512 O516 1.260 . S
C513 O520 1.240 . S
C513 O521 1.252 . S
C514 O517 1.252 . S
C514 O518 1.260 . S
O515 In509 2.266 . S
O515 C512 1.252 . S
O516 In509 2.326 . S
O516 C512 1.260 . S
O517 In509 2.266 . S
O517 C514 1.252 . S
O518 In509 2.326 . S
O518 C514 1.260 . S
C519 O510 1.240 . S
C519 O511 1.252 . S
O520 In509 2.294 . S
O520 C513 1.240 . S
O521 In509 2.326 . S
O521 C513 1.252 . S
C522 C523 1.363 . S
C522 C528 1.379 . S
C522 N530 1.356 . S
C523 C522 1.363 . S
C523 C529 1.363 . S
C524 C525 1.363 . S
C524 C529 1.379 . S
C524 N531 1.356 . S
C525 C524 1.363 . S
C525 C528 1.363 . S
N526 C528 1.356 . S
N526 H538 0.984 . S
N526 H539 0.985 . S
N527 C529 1.356 . S
N527 H532 0.984 . S
N527 H533 0.985 . S
C528 C522 1.379 . S
C528 C525 1.363 . S
C528 N526 1.356 . S
C529 C523 1.363 . S
C529 C524 1.379 . S
C529 N527 1.356 . S
N530 C522 1.356 . S
N530 H536 0.984 . S
N530 H537 0.984 . S
N531 C524 1.356 . S
N531 H534 0.984 . S
N531 H535 0.985 . S
H532 N527 0.984 . S
H533 N527 0.985 . S
H534 N531 0.984 . S
H535 N531 0.985 . S
H536 N530 0.984 . S
H537 N530 0.984 . S
H538 N526 0.984 . S
H539 N526 0.985 . S
C540 C541 1.363 . S
C540 C546 1.379 . S
C540 N548 1.356 . S
C541 C540 1.363 . S
C541 C547 1.363 . S
C542 C543 1.363 . S
C542 C547 1.379 . S
C542 N549 1.356 . S
C543 C542 1.363 . S
C543 C546 1.363 . S
N544 C546 1.356 . S
N544 H556 0.984 . S
N544 H557 0.985 . S
N545 C547 1.356 . S
N545 H550 0.984 . S
N545 H551 0.985 . S
C546 C540 1.379 . S
C546 C543 1.363 . S
C546 N544 1.356 . S
C547 C541 1.363 . S
C547 C542 1.379 . S
C547 N545 1.356 . S
N548 C540 1.356 . S
N548 H554 0.984 . S
N548 H555 0.984 . S
N549 C542 1.356 . S
N549 H552 0.984 . S
N549 H553 0.985 . S
H550 N545 0.984 . S
H551 N545 0.985 . S
H552 N549 0.984 . S
H553 N549 0.985 . S
H554 N548 0.984 . S
H555 N548 0.984 . S
H556 N544 0.984 . S
H557 N544 0.985 . S
C558 C559 1.363 . S
C558 C564 1.379 . S
C558 N566 1.356 . S
C559 C558 1.363 . S
C559 C565 1.363 . S
C560 C561 1.363 . S
C560 C565 1.379 . S
C560 N567 1.356 . S
C561 C560 1.363 . S
C561 C564 1.363 . S
N562 C564 1.356 . S
N562 H574 0.984 . S
N562 H575 0.985 . S
N563 C565 1.356 . S
N563 H568 0.984 . S
N563 H569 0.985 . S
C564 C558 1.379 . S
C564 C561 1.363 . S
C564 N562 1.356 . S
C565 C559 1.363 . S
C565 C560 1.379 . S
C565 N563 1.356 . S
N566 C558 1.356 . S
N566 H572 0.984 . S
N566 H573 0.984 . S
N567 C560 1.356 . S
N567 H570 0.984 . S
N567 H571 0.985 . S
H568 N563 0.984 . S
H569 N563 0.985 . S
H570 N567 0.984 . S
H571 N567 0.985 . S
H572 N566 0.984 . S
H573 N566 0.984 . S
H574 N562 0.984 . S
H575 N562 0.985 . S
C576 C577 1.363 . S
C576 C582 1.379 . S
C576 N584 1.356 . S
C577 C576 1.363 . S
C577 C583 1.363 . S
C578 C579 1.363 . S
C578 C583 1.379 . S
C578 N585 1.356 . S
C579 C578 1.363 . S
C579 C582 1.363 . S
N580 C582 1.356 . S
N580 H592 0.984 . S
N580 H593 0.985 . S
N581 C583 1.356 . S
N581 H586 0.984 . S
N581 H587 0.985 . S
C582 C576 1.379 . S
C582 C579 1.363 . S
C582 N580 1.356 . S
C583 C577 1.363 . S
C583 C578 1.379 . S
C583 N581 1.356 . S
N584 C576 1.356 . S
N584 H590 0.984 . S
N584 H591 0.984 . S
N585 C578 1.356 . S
N585 H588 0.984 . S
N585 H589 0.985 . S
H586 N581 0.984 . S
H587 N581 0.985 . S
H588 N585 0.984 . S
H589 N585 0.985 . S
H590 N584 0.984 . S
H591 N584 0.984 . S
H592 N580 0.984 . S
H593 N580 0.985 . S
C594 C595 1.363 . S
C594 C600 1.379 . S
C594 N602 1.356 . S
C595 C594 1.363 . S
C595 C601 1.363 . S
C596 C597 1.363 . S
C596 C601 1.379 . S
C596 N603 1.356 . S
C597 C596 1.363 . S
C597 C600 1.363 . S
N598 C600 1.356 . S
N598 H610 0.984 . S
N598 H611 0.985 . S
N599 C601 1.356 . S
N599 H604 0.984 . S
N599 H605 0.985 . S
C600 C594 1.379 . S
C600 C597 1.363 . S
C600 N598 1.356 . S
C601 C595 1.363 . S
C601 C596 1.379 . S
C601 N599 1.356 . S
N602 C594 1.356 . S
N602 H608 0.984 . S
N602 H609 0.984 . S
N603 C596 1.356 . S
N603 H606 0.984 . S
N603 H607 0.985 . S
H604 N599 0.984 . S
H605 N599 0.985 . S
H606 N603 0.984 . S
H607 N603 0.985 . S
H608 N602 0.984 . S
H609 N602 0.984 . S
H610 N598 0.984 . S
H611 N598 0.985 . S
C612 C613 1.363 . S
C612 C618 1.379 . S
C612 N620 1.356 . S
C613 C612 1.363 . S
C613 C619 1.363 . S
C614 C615 1.363 . S
C614 C619 1.379 . S
C614 N621 1.356 . S
C615 C614 1.363 . S
C615 C618 1.363 . S
N616 C618 1.356 . S
N616 H628 0.984 . S
N616 H629 0.985 . S
N617 C619 1.356 . S
N617 H622 0.984 . S
N617 H623 0.985 . S
C618 C612 1.379 . S
C618 C615 1.363 . S
C618 N616 1.356 . S
C619 C613 1.363 . S
C619 C614 1.379 . S
C619 N617 1.356 . S
N620 C612 1.356 . S
N620 H626 0.984 . S
N620 H627 0.984 . S
N621 C614 1.356 . S
N621 H624 0.984 . S
N621 H625 0.985 . S
H622 N617 0.984 . S
H623 N617 0.985 . S
H624 N621 0.984 . S
H625 N621 0.985 . S
H626 N620 0.984 . S
H627 N620 0.984 . S
H628 N616 0.984 . S
H629 N616 0.985 . S
C630 C631 1.363 . S
C630 C636 1.379 . S
C630 N638 1.356 . S
C631 C630 1.363 . S
C631 C637 1.363 . S
C632 C633 1.363 . S
C632 C637 1.379 . S
C632 N639 1.356 . S
C633 C632 1.363 . S
C633 C636 1.363 . S
N634 C636 1.356 . S
N634 H646 0.984 . S
N634 H647 0.985 . S
N635 C637 1.356 . S
N635 H640 0.984 . S
N635 H641 0.985 . S
C636 C630 1.379 . S
C636 C633 1.363 . S
C636 N634 1.356 . S
C637 C631 1.363 . S
C637 C632 1.379 . S
C637 N635 1.356 . S
N638 C630 1.356 . S
N638 H644 0.984 . S
N638 H645 0.984 . S
N639 C632 1.356 . S
N639 H642 0.984 . S
N639 H643 0.985 . S
H640 N635 0.984 . S
H641 N635 0.985 . S
H642 N639 0.984 . S
H643 N639 0.985 . S
H644 N638 0.984 . S
H645 N638 0.984 . S
H646 N634 0.984 . S
H647 N634 0.985 . S
C648 C649 1.363 . S
C648 C654 1.379 . S
C648 N656 1.356 . S
C649 C648 1.363 . S
C649 C655 1.363 . S
C650 C651 1.363 . S
C650 C655 1.379 . S
C650 N657 1.356 . S
C651 C650 1.363 . S
C651 C654 1.363 . S
N652 C654 1.356 . S
N652 H664 0.984 . S
N652 H665 0.985 . S
N653 C655 1.356 . S
N653 H658 0.984 . S
N653 H659 0.985 . S
C654 C648 1.379 . S
C654 C651 1.363 . S
C654 N652 1.356 . S
C655 C649 1.363 . S
C655 C650 1.379 . S
C655 N653 1.356 . S
N656 C648 1.356 . S
N656 H662 0.984 . S
N656 H663 0.984 . S
N657 C650 1.356 . S
N657 H660 0.984 . S
N657 H661 0.985 . S
H658 N653 0.984 . S
H659 N653 0.985 . S
H660 N657 0.984 . S
H661 N657 0.985 . S
H662 N656 0.984 . S
H663 N656 0.984 . S
H664 N652 0.984 . S
H665 N652 0.985 . S
C666 C667 1.363 . S
C666 C672 1.379 . S
C666 N674 1.356 . S
C667 C666 1.363 . S
C667 C673 1.363 . S
C668 C669 1.363 . S
C668 C673 1.379 . S
C668 N675 1.356 . S
C669 C668 1.363 . S
C669 C672 1.363 . S
N670 C672 1.356 . S
N670 H682 0.984 . S
N670 H683 0.985 . S
N671 C673 1.356 . S
N671 H676 0.984 . S
N671 H677 0.985 . S
C672 C666 1.379 . S
C672 C669 1.363 . S
C672 N670 1.356 . S
C673 C667 1.363 . S
C673 C668 1.379 . S
C673 N671 1.356 . S
N674 C666 1.356 . S
N674 H680 0.984 . S
N674 H681 0.984 . S
N675 C668 1.356 . S
N675 H678 0.984 . S
N675 H679 0.985 . S
H676 N671 0.984 . S
H677 N671 0.985 . S
H678 N675 0.984 . S
H679 N675 0.985 . S
H680 N674 0.984 . S
H681 N674 0.984 . S
H682 N670 0.984 . S
H683 N670 0.985 . S
C684 C685 1.363 . S
C684 C690 1.379 . S
C684 N692 1.356 . S
C685 C684 1.363 . S
C685 C691 1.363 . S
C686 C687 1.363 . S
C686 C691 1.379 . S
C686 N693 1.356 . S
C687 C686 1.363 . S
C687 C690 1.363 . S
N688 C690 1.356 . S
N688 H700 0.984 . S
N688 H701 0.985 . S
N689 C691 1.356 . S
N689 H694 0.984 . S
N689 H695 0.985 . S
C690 C684 1.379 . S
C690 C687 1.363 . S
C690 N688 1.356 . S
C691 C685 1.363 . S
C691 C686 1.379 . S
C691 N689 1.356 . S
N692 C684 1.356 . S
N692 H698 0.997 . S
N692 H699 0.984 . S
N693 C686 1.356 . S
N693 H696 0.984 . S
N693 H697 0.985 . S
H694 N689 0.984 . S
H695 N689 0.985 . S
H696 N693 0.984 . S
H697 N693 0.985 . S
H698 N692 0.997 . S
H699 N692 0.984 . S
H700 N688 0.984 . S
H701 N688 0.985 . S
C702 C703 1.363 . S
C702 C708 1.379 . S
C702 N710 1.356 . S
C703 C702 1.363 . S
C703 C709 1.363 . S
C704 C705 1.363 . S
C704 C709 1.379 . S
C704 N711 1.356 . S
C705 C704 1.363 . S
C705 C708 1.363 . S
N706 C708 1.356 . S
N706 H718 0.984 . S
N706 H719 0.985 . S
N707 C709 1.356 . S
N707 H712 0.984 . S
N707 H713 0.985 . S
C708 C702 1.379 . S
C708 C705 1.363 . S
C708 N706 1.356 . S
C709 C703 1.363 . S
C709 C704 1.379 . S
C709 N707 1.356 . S
N710 C702 1.356 . S
N710 H716 0.984 . S
N710 H717 0.984 . S
N711 C704 1.356 . S
N711 H714 0.984 . S
N711 H715 0.985 . S
H712 N707 0.984 . S
H713 N707 0.985 . S
H714 N711 0.984 . S
H715 N711 0.985 . S
H716 N710 0.984 . S
H717 N710 0.984 . S
H718 N706 0.984 . S
H719 N706 0.985 . S
C720 C721 1.363 . S
C720 C726 1.379 . S
C720 N728 1.356 . S
C721 C720 1.363 . S
C721 C727 1.363 . S
C722 C723 1.363 . S
C722 C727 1.379 . S
C722 N729 1.356 . S
C723 C722 1.363 . S
C723 C726 1.363 . S
N724 C726 1.356 . S
N724 H736 0.984 . S
N724 H737 0.985 . S
N725 C727 1.356 . S
N725 H730 0.984 . S
N725 H731 0.985 . S
C726 C720 1.379 . S
C726 C723 1.363 . S
C726 N724 1.356 . S
C727 C721 1.363 . S
C727 C722 1.379 . S
C727 N725 1.356 . S
N728 C720 1.356 . S
N728 H734 0.984 . S
N728 H735 0.984 . S
N729 C722 1.356 . S
N729 H732 0.984 . S
N729 H733 0.985 . S
H730 N725 0.984 . S
H731 N725 0.985 . S
H732 N729 0.984 . S
H733 N729 0.985 . S
H734 N728 0.984 . S
H735 N728 0.984 . S
H736 N724 0.984 . S
H737 N724 0.985 . S
C738 C739 1.363 . S
C738 C744 1.379 . S
C738 N746 1.356 . S
C739 C738 1.363 . S
C739 C745 1.363 . S
C740 C741 1.363 . S
C740 C745 1.379 . S
C740 N747 1.356 . S
C741 C740 1.363 . S
C741 C744 1.363 . S
N742 C744 1.356 . S
N742 H754 0.984 . S
N742 H755 0.985 . S
N743 C745 1.356 . S
N743 H748 0.984 . S
N743 H749 0.985 . S
C744 C738 1.379 . S
C744 C741 1.363 . S
C744 N742 1.356 . S
C745 C739 1.363 . S
C745 C740 1.379 . S
C745 N743 1.356 . S
N746 C738 1.356 . S
N746 H752 0.984 . S
N746 H753 0.984 . S
N747 C740 1.356 . S
N747 H750 0.984 . S
N747 H751 0.985 . S
H748 N743 0.984 . S
H749 N743 0.985 . S
H750 N747 0.984 . S
H751 N747 0.985 . S
H752 N746 0.984 . S
H753 N746 0.984 . S
H754 N742 0.984 . S
H755 N742 0.985 . S
C756 C757 1.363 . S
C756 C762 1.379 . S
C756 N764 1.356 . S
C757 C756 1.363 . S
C757 C763 1.363 . S
C758 C759 1.363 . S
C758 C763 1.379 . S
C758 N765 1.356 . S
C759 C758 1.363 . S
C759 C762 1.363 . S
N760 C762 1.356 . S
N760 H772 0.984 . S
N760 H773 0.985 . S
N761 C763 1.356 . S
N761 H766 0.984 . S
N761 H767 0.985 . S
C762 C756 1.379 . S
C762 C759 1.363 . S
C762 N760 1.356 . S
C763 C757 1.363 . S
C763 C758 1.379 . S
C763 N761 1.356 . S
N764 C756 1.356 . S
N764 H770 0.984 . S
N764 H771 0.984 . S
N765 C758 1.356 . S
N765 H768 0.984 . S
N765 H769 0.985 . S
H766 N761 0.984 . S
H767 N761 0.985 . S
H768 N765 0.984 . S
H769 N765 0.985 . S
H770 N764 0.984 . S
H771 N764 0.984 . S
H772 N760 0.984 . S
H773 N760 0.985 . S
C774 C775 1.363 . S
C774 C780 1.379 . S
C774 N782 1.356 . S
C775 C774 1.363 . S
C775 C781 1.363 . S
C776 C777 1.363 . S
C776 C781 1.379 . S
C776 N783 1.356 . S
C777 C776 1.363 . S
C777 C780 1.363 . S
N778 C780 1.356 . S
N778 H790 0.984 . S
N778 H791 0.985 . S
N779 C781 1.356 . S
N779 H784 0.984 . S
N779 H785 0.985 . S
C780 C774 1.379 . S
C780 C777 1.363 . S
C780 N778 1.356 . S
C781 C775 1.363 . S
C781 C776 1.379 . S
C781 N779 1.356 . S
N782 C774 1.356 . S
N782 H788 0.984 . S
N782 H789 0.984 . S
N783 C776 1.356 . S
N783 H786 0.984 . S
N783 H787 0.985 . S
H784 N779 0.984 . S
H785 N779 0.985 . S
H786 N783 0.984 . S
H787 N783 0.985 . S
H788 N782 0.984 . S
H789 N782 0.984 . S
H790 N778 0.984 . S
H791 N778 0.985 . S
C792 C793 1.363 . S
C792 C798 1.379 . S
C792 N800 1.356 . S
C793 C792 1.363 . S
C793 C799 1.363 . S
C794 C795 1.363 . S
C794 C799 1.379 . S
C794 N801 1.356 . S
C795 C794 1.363 . S
C795 C798 1.363 . S
N796 C798 1.356 1_554 S
N796 H808 0.983 1_554 S
N796 H809 0.985 . S
N797 C799 1.356 . S
N797 H802 0.984 . S
N797 H803 0.985 . S
C798 C792 1.379 . S
C798 C795 1.363 . S
C798 N796 1.356 1_556 S
C799 C793 1.363 . S
C799 C794 1.379 . S
C799 N797 1.356 . S
N800 C792 1.356 . S
N800 H806 0.974 1_655 S
N800 H807 0.984 . S
N801 C794 1.356 . S
N801 H804 0.984 1_556 S
N801 H805 0.985 . S
H802 N797 0.984 . S
H803 N797 0.985 . S
H804 N801 0.984 1_554 S
H805 N801 0.985 . S
H806 N800 0.974 1_455 S
H807 N800 0.984 . S
H808 N796 0.983 1_556 S
H809 N796 0.985 . S
C810 C811 1.363 . S
C810 C816 1.379 1_545 S
C810 N818 1.356 . S
C811 C810 1.363 . S
C811 C817 1.363 1_545 S
C812 C813 1.363 . S
C812 C817 1.379 . S
C812 N819 1.356 . S
C813 C812 1.363 . S
C813 C816 1.363 . S
N814 C816 1.356 . S
N814 H826 0.984 . S
N814 H827 0.985 . S
N815 C817 1.356 1_545 S
N815 H820 0.984 . S
N815 H821 0.985 . S
C816 C810 1.379 1_565 S
C816 C813 1.363 . S
C816 N814 1.356 . S
C817 C811 1.363 1_565 S
C817 C812 1.379 . S
C817 N815 1.356 1_565 S
N818 C810 1.356 . S
N818 H824 0.984 . S
N818 H825 0.984 . S
N819 C812 1.356 . S
N819 H822 0.984 . S
N819 H823 0.985 . S
H820 N815 0.984 . S
H821 N815 0.985 . S
H822 N819 0.984 . S
H823 N819 0.985 . S
H824 N818 0.984 . S
H825 N818 0.984 . S
H826 N814 0.984 . S
H827 N814 0.985 . S
C828 C829 1.363 . S
C828 C834 1.379 . S
C828 N836 1.356 . S
C829 C828 1.363 . S
C829 C835 1.363 . S
C830 C831 1.363 . S
C830 C835 1.379 . S
C830 N837 1.356 . S
C831 C830 1.363 . S
C831 C834 1.363 . S
N832 C834 1.356 . S
N832 H844 0.984 . S
N832 H845 0.985 . S
N833 C835 1.356 . S
N833 H838 0.984 . S
N833 H839 0.985 . S
C834 C828 1.379 . S
C834 C831 1.363 . S
C834 N832 1.356 . S
C835 C829 1.363 . S
C835 C830 1.379 . S
C835 N833 1.356 . S
N836 C828 1.356 . S
N836 H842 0.984 . S
N836 H843 0.984 . S
N837 C830 1.356 . S
N837 H840 0.984 . S
N837 H841 0.985 . S
H838 N833 0.984 . S
H839 N833 0.985 . S
H840 N837 0.984 . S
H841 N837 0.985 . S
H842 N836 0.984 . S
H843 N836 0.984 . S
H844 N832 0.984 . S
H845 N832 0.985 . S
C846 C847 1.363 . S
C846 C852 1.379 . S
C846 N854 1.356 . S
C847 C846 1.363 . S
C847 C853 1.363 . S
C848 C849 1.363 . S
C848 C853 1.379 . S
C848 N855 1.356 . S
C849 C848 1.363 . S
C849 C852 1.363 . S
N850 C852 1.356 . S
N850 H862 0.984 . S
N850 H863 0.985 . S
N851 C853 1.379 . S
N851 H856 0.987 . S
N851 H857 0.960 1_565 S
C852 C846 1.379 . S
C852 C849 1.363 . S
C852 N850 1.356 . S
C853 C847 1.363 . S
C853 C848 1.379 . S
C853 N851 1.379 . S
N854 C846 1.356 . S
N854 H860 0.984 . S
N854 H861 0.984 . S
N855 C848 1.356 . S
N855 H858 0.984 . S
N855 H859 0.985 1_565 S
H856 N851 0.987 . S
H857 N851 0.960 1_545 S
H858 N855 0.984 . S
H859 N855 0.985 1_545 S
H860 N854 0.984 . S
H861 N854 0.984 . S
H862 N850 0.984 . S
H863 N850 0.985 . S
C864 C865 1.363 . S
C864 C870 1.379 . S
C864 N872 1.356 . S
C865 C864 1.363 . S
C865 C871 1.363 . S
C866 C867 1.363 . S
C866 C871 1.379 . S
C866 N873 1.356 . S
C867 C866 1.363 . S
C867 C870 1.363 . S
N868 C870 1.356 . S
N868 H880 0.984 . S
N868 H881 0.985 . S
N869 C871 1.356 . S
N869 H874 0.984 . S
N869 H875 0.985 . S
C870 C864 1.379 . S
C870 C867 1.363 . S
C870 N868 1.356 . S
C871 C865 1.363 . S
C871 C866 1.379 . S
C871 N869 1.356 . S
N872 C864 1.356 . S
N872 H878 0.984 . S
N872 H879 0.984 . S
N873 C866 1.356 . S
N873 H876 0.984 . S
N873 H877 0.985 . S
H874 N869 0.984 . S
H875 N869 0.985 . S
H876 N873 0.984 . S
H877 N873 0.985 . S
H878 N872 0.984 . S
H879 N872 0.984 . S
H880 N868 0.984 . S
H881 N868 0.985 . S
C882 C883 1.363 . S
C882 C888 1.379 . S
C882 N890 1.356 . S
C883 C882 1.363 . S
C883 C889 1.363 . S
C884 C885 1.363 . S
C884 C889 1.379 . S
C884 N891 1.356 . S
C885 C884 1.363 . S
C885 C888 1.363 . S
N886 C888 1.356 . S
N886 H898 0.984 . S
N886 H899 0.985 . S
N887 C889 1.356 . S
N887 H892 0.984 . S
N887 H893 0.985 . S
C888 C882 1.379 . S
C888 C885 1.363 . S
C888 N886 1.356 . S
C889 C883 1.363 . S
C889 C884 1.379 . S
C889 N887 1.356 . S
N890 C882 1.356 . S
N890 H896 0.984 . S
N890 H897 0.984 . S
N891 C884 1.356 . S
N891 H894 0.984 . S
N891 H895 0.985 . S
H892 N887 0.984 . S
H893 N887 0.985 . S
H894 N891 0.984 . S
H895 N891 0.985 . S
H896 N890 0.984 . S
H897 N890 0.984 . S
H898 N886 0.984 . S
H899 N886 0.985 . S
C900 C901 1.363 . S
C900 C906 1.379 . S
C900 N908 1.356 . S
C901 C900 1.363 . S
C901 C907 1.363 . S
C902 C903 1.363 . S
C902 C907 1.379 . S
C902 N909 1.356 . S
C903 C902 1.363 . S
C903 C906 1.363 . S
N904 C906 1.356 . S
N904 H916 0.984 . S
N904 H917 0.985 . S
N905 C907 1.356 . S
N905 H910 0.984 . S
N905 H911 0.985 . S
C906 C900 1.379 . S
C906 C903 1.363 . S
C906 N904 1.356 . S
C907 C901 1.363 . S
C907 C902 1.379 . S
C907 N905 1.356 . S
N908 C900 1.356 . S
N908 H914 0.984 . S
N908 H915 0.984 . S
N909 C902 1.356 . S
N909 H912 0.984 . S
N909 H913 0.985 . S
H910 N905 0.984 . S
H911 N905 0.985 . S
H912 N909 0.984 . S
H913 N909 0.985 . S
H914 N908 0.984 . S
H915 N908 0.984 . S
H916 N904 0.984 . S
H917 N904 0.985 . S
C918 C919 1.363 . S
C918 C924 1.379 1_554 S
C918 N926 1.356 . S
C919 C918 1.363 . S
C919 C925 1.363 . S
C920 C921 1.363 . S
C920 C925 1.379 1_556 S
C920 N927 1.356 . S
C921 C920 1.363 . S
C921 C924 1.363 . S
N922 C924 1.356 . S
N922 H934 0.984 . S
N922 H935 0.985 . S
N923 C925 1.356 . S
N923 H928 0.984 . S
N923 H929 0.985 . S
C924 C918 1.379 1_556 S
C924 C921 1.363 . S
C924 N922 1.356 . S
C925 C919 1.363 . S
C925 C920 1.379 1_554 S
C925 N923 1.356 . S
N926 C918 1.356 . S
N926 H932 0.984 . S
N926 H933 0.984 . S
N927 C920 1.356 . S
N927 H930 0.984 . S
N927 H931 0.985 . S
H928 N923 0.984 . S
H929 N923 0.985 . S
H930 N927 0.984 . S
H931 N927 0.985 . S
H932 N926 0.984 . S
H933 N926 0.984 . S
H934 N922 0.984 . S
H935 N922 0.985 . S
C936 C937 1.363 . S
C936 C942 1.379 . S
C936 N944 1.356 . S
C937 C936 1.363 . S
C937 C943 1.363 . S
C938 C939 1.363 . S
C938 C943 1.379 . S
C938 N945 1.356 . S
C939 C938 1.363 . S
C939 C942 1.363 . S
N940 C942 1.356 . S
N940 H952 0.984 . S
N940 H953 0.985 . S
N941 C943 1.356 . S
N941 H946 0.984 . S
N941 H947 0.985 . S
C942 C936 1.379 . S
C942 C939 1.363 . S
C942 N940 1.356 . S
C943 C937 1.363 . S
C943 C938 1.379 . S
C943 N941 1.356 . S
N944 C936 1.356 . S
N944 H950 0.984 . S
N944 H951 0.984 . S
N945 C938 1.356 . S
N945 H948 0.984 . S
N945 H949 0.985 . S
H946 N941 0.984 . S
H947 N941 0.985 . S
H948 N945 0.984 . S
H949 N945 0.985 . S
H950 N944 0.984 . S
H951 N944 0.984 . S
H952 N940 0.984 . S
H953 N940 0.985 . S
C525 C514 1.272 . S
C523 C51 1.252 . S
C541 C125 1.615 . S
C543 C449 1.626 . S
C559 C217 2.290 . S
C561 C467 2.293 . S
C577 C291 1.790 . S
C579 C480 1.816 . S
C597 C488 0.886 . S
C595 C347 0.877 . S
C613 C421 1.077 . S
C615 C500 1.085 . S
C631 C143 2.375 . S
C633 C462 2.397 . S
C649 C199 1.337 . S
C651 C475 1.341 . S
C667 C273 0.917 . S
C669 C493 0.925 . S
C687 C499 1.412 . S
C685 C365 1.409 . S
C705 C519 1.988 . S
C703 C439 1.977 . S
C723 C454 2.105 . S
C721 C69 2.114 . S
C739 C63 1.647 . S
C741 C460 1.795 . S
C757 C137 1.531 . S
C759 C473 1.645 . S
C777 C487 1.647 . S
C775 C187 1.586 . S
C793 C261 1.529 . S
C795 C501 1.595 1_556 S
C813 C513 1.595 . S
C811 C359 1.459 . S
C831 C448 1.357 . S
C829 C433 1.252 . S
C849 C512 1.702 . S
C847 C113 1.654 . S
C865 C211 1.579 . S
C867 C447 1.679 . S
C885 C461 1.642 . S
C883 C285 1.483 . S
C901 C335 1.520 . S
C903 C474 1.571 . S
C919 C409 1.469 . S
C921 C486 1.544 . S
C937 C39 1.817 . S
C939 C506 1.873 . S
