# Generated by pormake.
# Topology pto, (3,4)-cn, num edge types: 1
# Building blocks:
#     Node 0, Type 0, BuildingBlock: CUQRIR_clean_linker_1, # of connection points: 3
#     Node 1, Type 0, BuildingBlock: CUQRIR_clean_linker_1, # of connection points: 3
#     Node 2, Type 0, BuildingBlock: CUQRIR_clean_linker_1, # of connection points: 3
#     Node 3, Type 0, BuildingBlock: CUQRIR_clean_linker_1, # of connection points: 3
#     Node 4, Type 0, BuildingBlock: CUQRIR_clean_linker_1, # of connection points: 3
#     Node 5, Type 0, BuildingBlock: CUQRIR_clean_linker_1, # of connection points: 3
#     Node 6, Type 0, BuildingBlock: CUQRIR_clean_linker_1, # of connection points: 3
#     Node 7, Type 0, BuildingBlock: CUQRIR_clean_linker_1, # of connection points: 3
#     Node 8, Type 1, BuildingBlock: KOZSID_clean_sbu_0, # of connection points: 4
#     Node 9, Type 1, BuildingBlock: KOZSID_clean_sbu_0, # of connection points: 4
#     Node 10, Type 1, BuildingBlock: KOZSID_clean_sbu_0, # of connection points: 4
#     Node 11, Type 1, BuildingBlock: KOZSID_clean_sbu_0, # of connection points: 4
#     Node 12, Type 1, BuildingBlock: KOZSID_clean_sbu_0, # of connection points: 4
#     Node 13, Type 1, BuildingBlock: KOZSID_clean_sbu_0, # of connection points: 4
#     Edge 14, Type (0, 1), None
#     Edge 15, Type (0, 1), None
#     Edge 16, Type (0, 1), None
#     Edge 17, Type (0, 1), None
#     Edge 18, Type (0, 1), None
#     Edge 19, Type (0, 1), None
#     Edge 20, Type (0, 1), None
#     Edge 21, Type (0, 1), None
#     Edge 22, Type (0, 1), None
#     Edge 23, Type (0, 1), None
#     Edge 24, Type (0, 1), None
#     Edge 25, Type (0, 1), None
#     Edge 26, Type (0, 1), None
#     Edge 27, Type (0, 1), None
#     Edge 28, Type (0, 1), None
#     Edge 29, Type (0, 1), None
#     Edge 30, Type (0, 1), None
#     Edge 31, Type (0, 1), None
#     Edge 32, Type (0, 1), None
#     Edge 33, Type (0, 1), None
#     Edge 34, Type (0, 1), None
#     Edge 35, Type (0, 1), None
#     Edge 36, Type (0, 1), None
#     Edge 37, Type (0, 1), None
# Relax obj value: 0.023
# Max RMSD: 0.201
# Mean RMSD: 0.075
data_MOF--net-pto--node1-KOZSID_clean_sbu_0--node2-CUQRIR_clean_linker_1--edge1-none
_symmetry_space_group_name_H-M    P1
_symmetry_Int_Tables_number       1
_symmetry_cell_setting            triclinic
loop_
_symmetry_equiv_pos_as_xyz
'x, y, z'
_cell_length_a     17.07908
_cell_length_b     19.968363
_cell_length_c     18.237255
_cell_angle_alpha  74.47724
_cell_angle_beta   90.846766
_cell_angle_gamma 103.7595
loop_
_atom_site_label
_atom_site_type_symbol
_atom_site_fract_x
_atom_site_fract_y
_atom_site_fract_z
_atom_type_partial_charge
C0 C 0.3912 0.34076 0.35971 0.0
N1 N 0.42103 0.28963 0.34148 0.0
N2 N 0.34039 0.36534 0.30764 0.0
C3 C 0.41785 0.37184 0.42534 0.0
C4 C 0.34311 0.32963 0.25473 0.0
N5 N 0.39689 0.28774 0.27188 0.0
C6 C 0.29249 0.33402 0.18621 0.0
H7 H 0.37256 0.34747 0.47351 0.0
H8 H 0.42307 0.43047 0.40828 0.0
H9 H 0.47665 0.36271 0.44528 0.0
H10 H 0.32064 0.38196 0.13961 0.0
H11 H 0.23148 0.33858 0.20086 0.0
H12 H 0.28729 0.28588 0.16528 0.0
C13 C 0.35732 0.81227 0.71648 0.0
N14 N 0.39872 0.85895 0.75403 0.0
N15 N 0.31381 0.75059 0.76481 0.0
C16 C 0.39146 0.8129 0.64078 0.0
C17 C 0.34516 0.75579 0.83234 0.0
N18 N 0.3913 0.82235 0.82768 0.0
C19 C 0.34297 0.69141 0.89921 0.0
H20 H 0.38141 0.85961 0.59647 0.0
H21 H 0.36478 0.76251 0.62518 0.0
H22 H 0.4578 0.8196 0.64318 0.0
H23 H 0.40524 0.68458 0.90908 0.0
H24 H 0.30532 0.64167 0.88868 0.0
H25 H 0.32012 0.69984 0.95184 0.0
C26 C 0.97208 0.86439 0.36708 0.0
N27 N 0.94106 0.80853 0.3375 0.0
N28 N 0.91531 0.87646 0.40927 0.0
C29 C 0.05679 0.91042 0.34909 0.0
C30 C 0.84916 0.82504 0.40484 0.0
N31 N 0.86174 0.78918 0.35424 0.0
C32 C 0.76821 0.81371 0.44387 0.0
H33 H 0.09338 0.89882 0.39959 0.0
H34 H 0.0563 0.96793 0.335 0.0
H35 H 0.08561 0.89985 0.30056 0.0
H36 H 0.73161 0.84571 0.40559 0.0
H37 H 0.77509 0.83015 0.4976 0.0
H38 H 0.73533 0.75651 0.45607 0.0
C39 C 0.80949 0.28054 0.83555 0.0
N40 N 0.86163 0.31246 0.77404 0.0
N41 N 0.75025 0.31529 0.83515 0.0
C42 C 0.82421 0.21996 0.89936 0.0
C43 C 0.77059 0.36972 0.77082 0.0
N44 N 0.84536 0.37596 0.74263 0.0
C45 C 0.70986 0.40165 0.72183 0.0
H46 H 0.79625 0.16816 0.88731 0.0
H47 H 0.79932 0.22048 0.95495 0.0
H48 H 0.89004 0.22385 0.90271 0.0
H49 H 0.73047 0.46097 0.70445 0.0
H50 H 0.64901 0.38424 0.75113 0.0
H51 H 0.70589 0.3841 0.66877 0.0
C52 C 0.86451 0.80445 0.88349 0.0
N53 N 0.88037 0.82875 0.80754 0.0
N54 N 0.81926 0.8423 0.90737 0.0
C55 C 0.90664 0.75293 0.93523 0.0
C56 C 0.81269 0.89411 0.84298 0.0
N57 N 0.85238 0.88726 0.78264 0.0
C58 C 0.76858 0.95263 0.83773 0.0
H59 H 0.89136 0.7005 0.92174 0.0
H60 H 0.89143 0.7453 0.9963 0.0
H61 H 0.97287 0.7742 0.92443 0.0
H62 H 0.81306 1.00328 0.83735 0.0
H63 H 0.72232 0.93938 0.88398 0.0
H64 H 0.73592 0.96348 0.78513 0.0
C65 C 0.89161 0.28423 0.27728 0.0
N66 N 0.93589 0.30799 0.33201 0.0
N67 N 0.84661 0.33009 0.24182 0.0
C68 C 0.88961 0.21307 0.26305 0.0
C69 C 0.87038 0.3855 0.27321 0.0
N70 N 0.92871 0.37485 0.32254 0.0
C71 C 0.83178 0.44761 0.2636 0.0
H72 H 0.87524 0.21394 0.20332 0.0
H73 H 0.84353 0.17034 0.30233 0.0
H74 H 0.9489 0.19982 0.27497 0.0
H75 H 0.76557 0.43028 0.25926 0.0
H76 H 0.85791 0.49036 0.21144 0.0
H77 H 0.84371 0.47082 0.31279 0.0
C78 C 0.24945 0.33964 0.82922 0.0
N79 N 0.2811 0.28543 0.82316 0.0
N80 N 0.2051 0.35913 0.76922 0.0
C81 C 0.27888 0.38567 0.8832 0.0
C82 C 0.21664 0.31871 0.72279 0.0
N83 N 0.26477 0.27414 0.7551 0.0
C84 C 0.18076 0.32264 0.64651 0.0
H85 H 0.24288 0.3624 0.93814 0.0
H86 H 0.27425 0.44171 0.85929 0.0
H87 H 0.34334 0.38862 0.89483 0.0
H88 H 0.2219 0.36466 0.6019 0.0
H89 H 0.12201 0.33717 0.64541 0.0
H90 H 0.17285 0.27087 0.6327 0.0
C91 C 0.36215 0.83028 0.38516 0.0
N92 N 0.37641 0.79105 0.33885 0.0
N93 N 0.43177 0.87139 0.40231 0.0
C94 C 0.27904 0.82887 0.41303 0.0
C95 C 0.4894 0.85355 0.36621 0.0
N96 N 0.45616 0.80678 0.32496 0.0
C97 C 0.57827 0.88749 0.36514 0.0
H98 H 0.25015 0.86163 0.36668 0.0
H99 H 0.28195 0.84992 0.46355 0.0
H100 H 0.2397 0.77425 0.42846 0.0
H101 H 0.59953 0.87164 0.4235 0.0
H102 H 0.58903 0.94674 0.34766 0.0
H103 H 0.61428 0.87015 0.32683 0.0
C104 C 0.28884 0.66817 0.39812 0.0
C105 C 0.3226 0.66513 0.46831 0.0
C106 C 0.26891 0.61445 0.52136 0.0
C107 C 0.20658 0.58841 0.48044 0.0
N108 N 0.21764 0.61872 0.40479 0.0
Co109 Co 0.1472 0.58861 0.32503 0.0
N110 N 0.07205 0.51016 0.40268 0.0
C111 C 0.07035 0.50169 0.47844 0.0
C112 C 0.01303 0.44301 0.51837 0.0
C113 C 0.97522 0.41267 0.46449 0.0
C114 C 0.01374 0.4535 0.39495 0.0
N115 N 0.08282 0.55265 0.24553 0.0
C116 C 0.03415 0.48645 0.2517 0.0
C117 C 0.01931 0.47575 0.17998 0.0
C118 C 0.05658 0.53796 0.12764 0.0
C119 C 0.09418 0.58267 0.16964 0.0
N120 N 0.21913 0.6708 0.24828 0.0
C121 C 0.20564 0.69258 0.17366 0.0
C122 C 0.2557 0.75721 0.13633 0.0
C123 C 0.30336 0.77854 0.19089 0.0
C124 C 0.28048 0.72495 0.25819 0.0
N125 N 0.21594 0.52359 0.31898 0.0
C126 C 0.29595 0.41813 0.30951 0.0
C127 C 0.29326 0.47476 0.24553 0.0
C128 C 0.25292 0.52684 0.25143 0.0
C129 C 0.25896 0.41638 0.37783 0.0
C130 C 0.22127 0.46965 0.38186 0.0
N131 N 0.07617 0.65436 0.3301 0.0
C132 C 0.97242 0.71731 0.27916 0.0
C133 C 0.98658 0.75682 0.33277 0.0
C134 C 0.04341 0.7416 0.38641 0.0
C135 C 0.08629 0.69081 0.38475 0.0
C136 C 0.01769 0.66672 0.27862 0.0
H137 H 0.12682 0.6821 0.42925 0.0
H138 H 0.00378 0.6384 0.23597 0.0
H139 H 0.25159 0.56907 0.20097 0.0
H140 H 0.19545 0.46541 0.43638 0.0
C141 C 0.13528 0.53817 0.5104 0.0
C142 C 0.31887 0.72728 0.3301 0.0
C143 C -0.00339 0.43423 0.32393 0.0
C144 C 0.14831 0.64906 0.14022 0.0
H145 H 0.37797 0.69906 0.48041 0.0
H146 H 0.27416 0.59989 0.58244 0.0
H147 H 0.00361 0.42193 0.57962 0.0
H148 H 0.92723 0.36438 0.47568 0.0
H149 H 0.9861 0.4278 0.16622 0.0
H150 H 0.05974 0.54776 0.06642 0.0
H151 H 0.2569 0.78564 0.07669 0.0
H152 H 0.3491 0.82812 0.18236 0.0
H153 H 0.32353 0.47992 0.19192 0.0
H154 H 0.25897 0.37402 0.42866 0.0
H155 H 0.92749 0.72584 0.23747 0.0
H156 H 0.05385 0.76833 0.43096 0.0
C157 C 0.17046 0.68771 0.82366 0.0
C158 C 0.1738 0.71872 0.88413 0.0
C159 C 0.10663 0.68358 0.931 0.0
C160 C 0.06354 0.63572 0.89528 0.0
N161 N 0.09935 0.63816 0.82897 0.0
Co162 Co 0.03737 0.6041 0.748 0.0
N163 N 0.95465 0.53263 0.82153 0.0
C164 C 0.94152 0.53349 0.89373 0.0
C165 C 0.90129 0.46777 0.93825 0.0
C166 C 0.88818 0.42364 0.89092 0.0
C167 C 0.91718 0.46523 0.81792 0.0
N168 N 0.97286 0.56861 0.66964 0.0
C169 C 0.92313 0.50311 0.67445 0.0
C170 C 0.88962 0.50197 0.60493 0.0
C171 C 0.92081 0.56866 0.55542 0.0
C172 C 0.97095 0.60693 0.59761 0.0
N173 N 0.11947 0.67429 0.67188 0.0
C174 C 0.09931 0.70418 0.60108 0.0
C175 C 0.15122 0.76814 0.56733 0.0
C176 C 0.20864 0.77804 0.619 0.0
C177 C 0.19132 0.718 0.68174 0.0
N178 N 0.09719 0.53114 0.75517 0.0
C179 C 0.16048 0.4134 0.76046 0.0
C180 C 0.16579 0.46765 0.69271 0.0
C181 C 0.13151 0.52513 0.69095 0.0
C182 C 0.12212 0.41936 0.82508 0.0
C183 C 0.09723 0.48112 0.82269 0.0
N184 N 0.97851 0.68038 0.74115 0.0
C185 C 0.98902 0.80174 0.74768 0.0
C186 C 0.90744 0.78762 0.76371 0.0
C187 C 0.85961 0.71969 0.76235 0.0
C188 C 0.89635 0.66676 0.75033 0.0
C189 C 0.02302 0.74871 0.73629 0.0
H190 H 0.85934 0.6138 0.75382 0.0
H191 H 0.08703 0.76305 0.73142 0.0
H192 H 0.13264 0.5653 0.63831 0.0
H193 H 0.07474 0.48693 0.87497 0.0
C194 C 0.99008 0.58657 0.92247 0.0
C195 C 0.22921 0.71412 0.75673 0.0
C196 C 0.9037 0.44293 0.74488 0.0
C197 C 0.02897 0.67168 0.57024 0.0
H198 H 0.21698 0.76502 0.8922 0.0
H199 H 0.08959 0.69397 0.98305 0.0
H200 H 0.89087 0.45161 0.99955 0.0
H201 H 0.86265 0.36728 0.91088 0.0
H202 H 0.84843 0.45725 0.59117 0.0
H203 H 0.9116 0.58554 0.49505 0.0
H204 H 0.14406 0.80651 0.51488 0.0
H205 H 0.2492 0.82915 0.61438 0.0
H206 H 0.19764 0.46656 0.64249 0.0
H207 H 0.11634 0.37843 0.87872 0.0
H208 H 0.02775 0.85025 0.75489 0.0
H209 H 0.79561 0.70563 0.77762 0.0
C210 C 0.46857 0.99487 0.71099 0.0
C211 C 0.53571 0.99721 0.75461 0.0
C212 C 0.58568 0.06414 0.72844 0.0
C213 C 0.54679 0.09946 0.67002 0.0
N214 N 0.47546 0.05892 0.65752 0.0
Co215 Co 0.40019 0.09288 0.57917 0.0
N216 N 0.48673 0.17538 0.52103 0.0
C217 C 0.55637 0.20298 0.54948 0.0
C218 C 0.60259 0.26325 0.49956 0.0
C219 C 0.5603 0.27345 0.43469 0.0
C220 C 0.48868 0.22068 0.45 0.0
N221 N 0.3244 0.12961 0.50348 0.0
C222 C 0.33946 0.17762 0.43345 0.0
C223 C 0.26797 0.1796 0.39634 0.0
C224 C 0.20692 0.13275 0.44471 0.0
C225 C 0.2435 0.10498 0.50905 0.0
N226 N 0.31516 1.00971 0.63687 0.0
C227 C 0.2356 1.00039 0.62769 0.0
C228 C 0.19038 0.93979 0.67691 0.0
C229 C 0.24451 0.90901 0.72139 0.0
C230 C 0.32061 0.95186 0.69474 0.0
N231 N 0.37205 0.15224 0.64205 0.0
C232 C 0.30298 0.23266 0.71825 0.0
C233 C 0.30851 0.16269 0.75548 0.0
C234 C 0.34387 0.12373 0.71675 0.0
C235 C 0.33785 0.26262 0.64418 0.0
C236 C 0.37102 0.22177 0.60739 0.0
N237 N 0.42456 1.03248 0.51442 0.0
C238 C 0.38515 0.97551 0.41333 0.0
C239 C 0.43895 0.93213 0.43392 0.0
C240 C 0.49365 0.94668 0.4893 0.0
C241 C 0.48694 0.99872 0.52708 0.0
C242 C 0.37525 1.02066 0.45658 0.0
H243 H 0.53045 1.00869 0.56842 0.0
H244 H 0.32404 0.04228 0.44279 0.0
H245 H 0.34606 0.06985 0.74677 0.0
H246 H 0.39343 0.24591 0.54958 0.0
C247 C 0.57992 0.16639 0.61947 0.0
C248 C 0.39631 0.9345 0.72509 0.0
C249 C 0.41934 0.22416 0.40144 0.0
C250 C 0.20643 0.04602 0.56807 0.0
H251 H 0.54763 0.95692 0.80191 0.0
H252 H 0.6441 0.08397 0.74886 0.0
H253 H 0.66142 0.29445 0.50815 0.0
H254 H 0.57787 0.31719 0.38348 0.0
H255 H 0.25958 0.20933 0.33946 0.0
H256 H 0.14384 0.1181 0.43271 0.0
H257 H 0.12606 0.9199 0.67775 0.0
H258 H 0.22985 0.86002 0.76702 0.0
H259 H 0.2841 0.13769 0.81343 0.0
H260 H 0.33903 0.31749 0.61427 0.0
H261 H 0.34552 0.97045 0.36725 0.0
H262 H 0.53828 0.91599 0.50635 0.0
C263 C 0.5235 0.87681 0.19601 0.0
C264 C 0.50949 0.94112 0.2013 0.0
C265 C 0.5598 0.99396 0.14733 0.0
C266 C 0.59658 0.95962 0.10784 0.0
N267 N 0.57595 0.88788 0.1366 0.0
Co268 Co 0.6171 0.81738 0.09951 0.0
N269 N 0.70688 0.89359 0.03833 0.0
C270 C 0.7199 0.96476 0.02844 0.0
C271 C 0.79752 1.0013 1.00257 0.0
C272 C 0.83477 0.95015 0.99344 0.0
C273 C 0.77692 0.88555 0.01292 0.0
N274 N 0.65735 0.74668 0.06103 0.0
C275 C 0.72182 0.75664 0.01314 0.0
C276 C 0.71682 0.69593 0.98783 0.0
C277 C 0.64948 0.6462 0.023 0.0
C278 C 0.61515 0.67943 0.06574 0.0
N279 N 0.52883 0.7417 0.16474 0.0
C280 C 0.50597 0.67283 0.16334 0.0
C281 C 0.46084 0.62924 0.22747 0.0
C282 C 0.45402 0.6735 0.27156 0.0
C283 C 0.49318 0.74221 0.23069 0.0
N284 N 0.54635 0.82978 0.01171 0.0
C285 C 0.44612 0.83653 0.88613 0.0
C286 C 0.52543 0.83119 0.87971 0.0
C287 C 0.57488 0.83114 0.94134 0.0
C288 C 0.41727 0.8377 0.9575 0.0
C289 C 0.468 0.83363 0.01969 0.0
N290 N 0.68892 0.80467 0.18484 0.0
C291 C 0.75754 0.73098 0.2787 0.0
C292 C 0.80705 0.79231 0.29293 0.0
C293 C 0.79596 0.85931 0.25221 0.0
C294 C 0.73514 0.86403 0.20145 0.0
C295 C 0.6995 0.73842 0.22327 0.0
H296 H 0.72677 0.9164 0.17514 0.0
H297 H 0.66355 0.69064 0.21158 0.0
H298 H 0.63576 0.8299 0.93154 0.0
H299 H 0.4433 0.83164 0.07453 0.0
C300 C 0.66414 0.9929 0.05784 0.0
C301 C 0.49339 0.80762 0.25325 0.0
C302 C 0.78066 0.82605 0.98229 0.0
C303 C 0.5458 0.64855 0.11354 0.0
H304 H 0.47192 0.94997 0.24319 0.0
H305 H 0.57551 0.05025 0.14404 0.0
H306 H 0.8242 0.05805 0.99254 0.0
H307 H 0.89483 0.96004 0.96817 0.0
H308 H 0.75401 0.68797 0.94545 0.0
H309 H 0.62754 0.59291 0.01631 0.0
H310 H 0.44292 0.57134 0.24406 0.0
H311 H 0.42738 0.65618 0.3288 0.0
H312 H 0.54912 0.82698 0.82676 0.0
H313 H 0.35483 0.83813 0.96588 0.0
H314 H 0.76354 0.67827 0.30999 0.0
H315 H 0.83217 0.90808 0.26249 0.0
C316 C 0.95029 0.99898 0.70362 0.0
C317 C 0.01508 0.99069 0.7489 0.0
C318 C 0.07817 0.0482 0.71767 0.0
C319 C 0.04797 0.08913 0.65619 0.0
N320 N 0.96921 0.06215 0.64794 0.0
Co321 Co 0.90017 0.10905 0.57121 0.0
N322 N -0.00615 0.18599 0.51489 0.0
C323 C 0.07181 0.19159 0.53189 0.0
C324 C 0.12374 0.24716 0.48125 0.0
C325 C 0.07618 0.27803 0.42781 0.0
C326 C -0.00263 0.24002 0.44969 0.0
N327 N 0.82872 0.15718 0.49879 0.0
C328 C 0.84605 0.21952 0.44257 0.0
C329 C 0.77548 0.23651 0.41291 0.0
C330 C 0.71315 0.1809 0.44702 0.0
C331 C 0.74736 0.13614 0.50006 0.0
N332 N 0.80691 1.028 0.62237 0.0
C333 C 0.72941 1.01844 0.60228 0.0
C334 C 0.68362 0.94967 0.62986 0.0
C335 C 0.73526 0.91217 0.66859 0.0
C336 C 0.80918 0.96089 0.66378 0.0
N337 N 0.88691 0.17042 0.63964 0.0
C338 C 0.87027 0.26654 0.72611 0.0
C339 C 0.8025 0.22115 0.70458 0.0
C340 C 0.81213 0.17342 0.66265 0.0
C341 C 0.94584 0.26246 0.70377 0.0
C342 C 0.9528 0.21498 0.6609 0.0
N343 N 0.91538 0.0492 0.50396 0.0
C344 C 0.85857 0.97607 0.42115 0.0
C345 C 0.91863 0.93807 0.4374 0.0
C346 C 0.98146 0.96151 0.4811 0.0
C347 C 0.97997 1.01839 0.51159 0.0
C348 C 0.85738 1.03046 0.4555 0.0
H349 H 0.03046 1.03471 0.54348 0.0
H350 H 0.80772 0.05502 0.44372 0.0
H351 H 0.75858 0.13959 0.6488 0.0
H352 H 0.01278 0.21608 0.64568 0.0
C353 C 0.09313 0.14667 0.5987 0.0
C354 C 0.87448 0.94303 0.71135 0.0
C355 C 0.92748 0.2583 0.40841 0.0
C356 C 0.70517 0.07106 0.5472 0.0
H357 H 0.01741 0.94643 0.79766 0.0
H358 H 0.13963 0.05719 0.73553 0.0
H359 H 0.18857 0.26261 0.48342 0.0
H360 H 0.09661 0.32361 0.37886 0.0
H361 H 0.76817 0.2827 0.3696 0.0
H362 H 0.65041 0.17283 0.43342 0.0
H363 H 0.62111 0.92847 0.62014 0.0
H364 H 0.71996 0.85595 0.69951 0.0
H365 H 0.74209 0.22196 0.7209 0.0
H366 H -0.00059 0.29549 0.72011 0.0
H367 H 0.81153 0.96289 0.38336 0.0
H368 H 0.03035 0.93495 0.49359 0.0
C369 C 0.48892 0.35634 0.15543 0.0
C370 C 0.48538 0.42248 0.16456 0.0
C371 C 0.49642 0.46931 0.09372 0.0
C372 C 0.51233 0.4314 0.0459 0.0
N373 N 0.51064 0.36287 0.08218 0.0
Co374 Co 0.55138 0.29501 0.04035 0.0
N375 N 0.61417 0.37391 0.95608 0.0
C376 C 0.60384 0.4412 0.93376 0.0
C377 C 0.66189 0.48698 0.88168 0.0
C378 C 0.70996 0.44564 0.8684 0.0
C379 C 0.67696 0.37519 0.91096 0.0
N380 N 0.59086 0.22638 0.99873 0.0
C381 C 0.64381 0.23891 0.93882 0.0
C382 C 0.63358 0.17829 0.91253 0.0
C383 C 0.57393 0.12609 0.95834 0.0
C384 C 0.54952 0.1578 0.00899 0.0
N385 N 0.48655 0.21777 0.12558 0.0
C386 C 0.45995 0.14914 0.12474 0.0
C387 C 0.41122 0.10792 0.18787 0.0
C388 C 0.40575 0.15417 0.2305 0.0
C389 C 0.45161 0.22107 0.1909 0.0
N390 N 0.4613 0.28405 0.97359 0.0
C391 C 0.33891 0.26114 0.87424 0.0
C392 C 0.32105 0.2447 0.95302 0.0
C393 C 0.38296 0.25992 1.00131 0.0
C394 C 0.41873 0.28125 0.84769 0.0
C395 C 0.47854 0.29207 0.89794 0.0
N396 N 0.64429 0.30464 0.10433 0.0
C397 C 0.72565 0.25275 0.202 0.0
C398 C 0.78076 0.3195 0.19189 0.0
C399 C 0.76648 0.37779 0.13567 0.0
C400 C 0.69625 0.3702 0.09595 0.0
C401 C 0.65985 0.24594 0.1555 0.0
H402 H 0.68475 0.41796 0.05834 0.0
H403 H 0.62098 0.19333 0.16187 0.0
H404 H 0.36726 0.25402 0.06013 0.0
H405 H 0.5387 0.30894 0.87342 0.0
C406 C 0.55266 0.46359 0.97527 0.0
C407 C 0.45301 0.28756 0.2122 0.0
C408 C 0.69483 0.30978 0.89765 0.0
C409 C 0.48738 0.12577 0.06618 0.0
H410 H 0.47297 0.4355 0.21631 0.0
H411 H 0.49759 0.52548 0.07941 0.0
H412 H 0.67111 0.54442 0.8592 0.0
H413 H 0.76195 0.4674 0.82969 0.0
H414 H 0.66189 0.1736 0.86212 0.0
H415 H 0.54898 0.07252 0.95309 0.0
H416 H 0.38318 0.05112 0.2015 0.0
H417 H 0.37022 0.14073 0.28333 0.0
H418 H 0.25894 0.23029 0.97491 0.0
H419 H 0.43486 0.29615 0.78729 0.0
H420 H 0.73181 0.20624 0.24608 0.0
H421 H 0.80816 0.42985 0.12362 0.0
loop_
_geom_bond_atom_site_label_1
_geom_bond_atom_site_label_2
_geom_bond_distance
_geom_bond_site_symmetry_2
_ccdc_geom_bond_type
C0 N1 1.317 . S
C0 N2 1.348 . S
C0 C3 1.485 . S
N1 C0 1.317 . S
N1 N5 1.370 . S
N2 C0 1.348 . S
N2 C4 1.346 . S
C3 C0 1.485 . S
C3 H7 0.960 . S
C3 H8 0.961 . S
C3 H9 0.960 . S
C4 N2 1.346 . S
C4 N5 1.307 . S
C4 C6 1.486 . S
N5 N1 1.370 . S
N5 C4 1.307 . S
C6 C4 1.486 . S
C6 H10 0.960 . S
C6 H11 0.960 . S
C6 H12 0.959 . S
H7 C3 0.960 . S
H8 C3 0.961 . S
H9 C3 0.960 . S
H10 C6 0.960 . S
H11 C6 0.960 . S
H12 C6 0.959 . S
C13 N14 1.317 . S
C13 N15 1.348 . S
C13 C16 1.485 . S
N14 C13 1.317 . S
N14 N18 1.370 . S
N15 C13 1.348 . S
N15 C17 1.346 . S
C16 C13 1.485 . S
C16 H20 0.960 . S
C16 H21 0.961 . S
C16 H22 0.960 . S
C17 N15 1.346 . S
C17 N18 1.307 . S
C17 C19 1.486 . S
N18 N14 1.370 . S
N18 C17 1.307 . S
C19 C17 1.486 . S
C19 H23 0.960 . S
C19 H24 0.960 . S
C19 H25 0.959 . S
H20 C16 0.960 . S
H21 C16 0.961 . S
H22 C16 0.960 . S
H23 C19 0.960 . S
H24 C19 0.960 . S
H25 C19 0.959 . S
C26 N27 1.317 . S
C26 N28 1.348 . S
C26 C29 1.485 1_655 S
N27 C26 1.317 . S
N27 N31 1.370 . S
N28 C26 1.348 . S
N28 C30 1.346 . S
C29 C26 1.485 1_455 S
C29 H33 0.960 . S
C29 H34 0.961 . S
C29 H35 0.960 . S
C30 N28 1.346 . S
C30 N31 1.307 . S
C30 C32 1.486 . S
N31 N27 1.370 . S
N31 C30 1.307 . S
C32 C30 1.486 . S
C32 H36 0.960 . S
C32 H37 0.960 . S
C32 H38 0.959 . S
H33 C29 0.960 . S
H34 C29 0.961 . S
H35 C29 0.960 . S
H36 C32 0.960 . S
H37 C32 0.960 . S
H38 C32 0.959 . S
C39 N40 1.317 . S
C39 N41 1.348 . S
C39 C42 1.485 . S
N40 C39 1.317 . S
N40 N44 1.370 . S
N41 C39 1.348 . S
N41 C43 1.346 . S
C42 C39 1.485 . S
C42 H46 0.960 . S
C42 H47 0.961 . S
C42 H48 0.960 . S
C43 N41 1.346 . S
C43 N44 1.307 . S
C43 C45 1.486 . S
N44 N40 1.370 . S
N44 C43 1.307 . S
C45 C43 1.486 . S
C45 H49 0.960 . S
C45 H50 0.960 . S
C45 H51 0.959 . S
H46 C42 0.960 . S
H47 C42 0.961 . S
H48 C42 0.960 . S
H49 C45 0.960 . S
H50 C45 0.960 . S
H51 C45 0.959 . S
C52 N53 1.317 . S
C52 N54 1.348 . S
C52 C55 1.485 . S
N53 C52 1.317 . S
N53 N57 1.370 . S
N54 C52 1.348 . S
N54 C56 1.346 . S
C55 C52 1.485 . S
C55 H59 0.960 . S
C55 H60 0.961 . S
C55 H61 0.960 . S
C56 N54 1.346 . S
C56 N57 1.307 . S
C56 C58 1.486 . S
N57 N53 1.370 . S
N57 C56 1.307 . S
C58 C56 1.486 . S
C58 H62 0.960 . S
C58 H63 0.960 . S
C58 H64 0.959 . S
H59 C55 0.960 . S
H60 C55 0.961 . S
H61 C55 0.960 . S
H62 C58 0.960 . S
H63 C58 0.960 . S
H64 C58 0.959 . S
C65 N66 1.317 . S
C65 N67 1.348 . S
C65 C68 1.485 . S
N66 C65 1.317 . S
N66 N70 1.370 . S
N67 C65 1.348 . S
N67 C69 1.346 . S
C68 C65 1.485 . S
C68 H72 0.960 . S
C68 H73 0.961 . S
C68 H74 0.960 . S
C69 N67 1.346 . S
C69 N70 1.307 . S
C69 C71 1.486 . S
N70 N66 1.370 . S
N70 C69 1.307 . S
C71 C69 1.486 . S
C71 H75 0.960 . S
C71 H76 0.960 . S
C71 H77 0.959 . S
H72 C68 0.960 . S
H73 C68 0.961 . S
H74 C68 0.960 . S
H75 C71 0.960 . S
H76 C71 0.960 . S
H77 C71 0.959 . S
C78 N79 1.317 . S
C78 N80 1.348 . S
C78 C81 1.485 . S
N79 C78 1.317 . S
N79 N83 1.370 . S
N80 C78 1.348 . S
N80 C82 1.346 . S
C81 C78 1.485 . S
C81 H85 0.960 . S
C81 H86 0.961 . S
C81 H87 0.960 . S
C82 N80 1.346 . S
C82 N83 1.307 . S
C82 C84 1.486 . S
N83 N79 1.370 . S
N83 C82 1.307 . S
C84 C82 1.486 . S
C84 H88 0.960 . S
C84 H89 0.960 . S
C84 H90 0.959 . S
H85 C81 0.960 . S
H86 C81 0.961 . S
H87 C81 0.960 . S
H88 C84 0.960 . S
H89 C84 0.960 . S
H90 C84 0.959 . S
C91 N92 1.317 . S
C91 N93 1.348 . S
C91 C94 1.485 . S
N92 C91 1.317 . S
N92 N96 1.370 . S
N93 C91 1.348 . S
N93 C95 1.346 . S
C94 C91 1.485 . S
C94 H98 0.960 . S
C94 H99 0.961 . S
C94 H100 0.960 . S
C95 N93 1.346 . S
C95 N96 1.307 . S
C95 C97 1.486 . S
N96 N92 1.370 . S
N96 C95 1.307 . S
C97 C95 1.486 . S
C97 H101 0.960 . S
C97 H102 0.960 . S
C97 H103 0.959 . S
H98 C94 0.960 . S
H99 C94 0.961 . S
H100 C94 0.960 . S
H101 C97 0.960 . S
H102 C97 0.960 . S
H103 C97 0.959 . S
C104 C105 1.443 . S
C104 N108 1.376 . S
C104 C142 1.389 . S
C105 C104 1.443 . S
C105 C106 1.340 . S
C105 H145 0.951 . S
C106 C105 1.340 . S
C106 C107 1.439 . S
C106 H146 0.950 . S
C107 C106 1.439 . S
C107 N108 1.374 . S
C107 C141 1.395 . S
N108 C104 1.376 . S
N108 C107 1.374 . S
N108 Co109 2.008 . S
Co109 N108 2.008 . S
Co109 N110 1.995 . S
Co109 N115 2.008 . S
Co109 N120 1.995 . S
Co109 N125 2.282 . S
Co109 N131 2.282 . S
N110 Co109 1.995 . S
N110 C111 1.376 . S
N110 C114 1.383 . S
C111 N110 1.376 . S
C111 C112 1.446 . S
C111 C141 1.391 . S
C112 C111 1.446 . S
C112 C113 1.339 1_455 S
C112 H147 0.950 1_455 S
C113 C112 1.339 1_655 S
C113 C114 1.439 1_655 S
C113 H148 0.950 . S
C114 N110 1.383 . S
C114 C113 1.439 1_455 S
C114 C143 1.392 1_455 S
N115 Co109 2.008 . S
N115 C116 1.376 . S
N115 C119 1.374 . S
C116 N115 1.376 . S
C116 C117 1.442 1_455 S
C116 C143 1.389 1_455 S
C117 C116 1.442 1_655 S
C117 C118 1.338 1_655 S
C117 H149 0.954 . S
C118 C117 1.338 1_455 S
C118 C119 1.439 . S
C118 H150 0.950 . S
C119 N115 1.374 . S
C119 C118 1.439 . S
C119 C144 1.395 . S
N120 Co109 1.995 . S
N120 C121 1.376 . S
N120 C124 1.383 . S
C121 N120 1.376 . S
C121 C122 1.446 . S
C121 C144 1.391 . S
C122 C121 1.446 . S
C122 C123 1.339 . S
C122 H151 0.949 . S
C123 C122 1.339 . S
C123 C124 1.439 . S
C123 H152 0.950 . S
C124 N120 1.383 . S
C124 C123 1.439 . S
C124 C142 1.392 . S
N125 Co109 2.282 . S
N125 C128 1.332 . S
N125 C130 1.332 . S
C126 C127 1.386 . S
C126 C129 1.388 . S
C127 C126 1.386 . S
C127 C128 1.382 . S
C127 H153 0.950 . S
C128 N125 1.332 . S
C128 C127 1.382 . S
C128 H139 0.952 . S
C129 C126 1.388 . S
C129 C130 1.382 . S
C129 H154 0.950 . S
C130 N125 1.332 . S
C130 C129 1.382 . S
C130 H140 0.948 . S
N131 Co109 2.282 . S
N131 C135 1.332 . S
N131 C136 1.332 . S
C132 C133 1.388 1_455 S
C132 C136 1.382 . S
C132 H155 0.950 . S
C133 C132 1.388 1_655 S
C133 C134 1.386 . S
C134 C133 1.386 . S
C134 C135 1.382 1_655 S
C134 H156 0.950 . S
C135 N131 1.332 . S
C135 C134 1.382 1_455 S
C135 H137 0.952 . S
C136 N131 1.332 . S
C136 C132 1.382 . S
C136 H138 0.948 . S
H137 C135 0.952 . S
H138 C136 0.948 . S
H139 C128 0.952 . S
H140 C130 0.948 . S
C141 C107 1.395 . S
C141 C111 1.391 . S
C142 C104 1.389 . S
C142 C124 1.392 . S
C143 C114 1.392 1_655 S
C143 C116 1.389 1_655 S
C144 C119 1.395 . S
C144 C121 1.391 . S
H145 C105 0.951 . S
H146 C106 0.950 . S
H147 C112 0.950 1_655 S
H148 C113 0.950 . S
H149 C117 0.954 . S
H150 C118 0.950 . S
H151 C122 0.949 . S
H152 C123 0.950 . S
H153 C127 0.950 . S
H154 C129 0.950 . S
H155 C132 0.950 . S
H156 C134 0.950 . S
C157 C158 1.443 . S
C157 N161 1.376 . S
C157 C195 1.389 . S
C158 C157 1.443 . S
C158 C159 1.340 . S
C158 H198 0.951 . S
C159 C158 1.340 . S
C159 C160 1.439 . S
C159 H199 0.950 . S
C160 C159 1.439 . S
C160 N161 1.374 . S
C160 C194 1.395 . S
N161 C157 1.376 . S
N161 C160 1.374 . S
N161 Co162 2.008 . S
Co162 N161 2.008 . S
Co162 N163 1.995 1_455 S
Co162 N168 2.008 1_455 S
Co162 N173 1.995 . S
Co162 N178 2.282 . S
Co162 N184 2.282 1_455 S
N163 Co162 1.995 1_655 S
N163 C164 1.376 . S
N163 C167 1.383 . S
C164 N163 1.376 . S
C164 C165 1.446 . S
C164 C194 1.391 1_655 S
C165 C164 1.446 . S
C165 C166 1.339 . S
C165 H200 0.949 . S
C166 C165 1.339 . S
C166 C167 1.439 . S
C166 H201 0.950 . S
C167 N163 1.383 . S
C167 C166 1.439 . S
C167 C196 1.392 . S
N168 Co162 2.008 1_655 S
N168 C169 1.376 . S
N168 C172 1.374 1_655 S
C169 N168 1.376 . S
C169 C170 1.443 . S
C169 C196 1.389 . S
C170 C169 1.443 . S
C170 C171 1.340 . S
C170 H202 0.951 . S
C171 C170 1.340 . S
C171 C172 1.439 1_655 S
C171 H203 0.950 . S
C172 N168 1.374 1_455 S
C172 C171 1.439 1_455 S
C172 C197 1.395 . S
N173 Co162 1.995 . S
N173 C174 1.376 . S
N173 C177 1.383 . S
C174 N173 1.376 . S
C174 C175 1.446 . S
C174 C197 1.391 . S
C175 C174 1.446 . S
C175 C176 1.339 . S
C175 H204 0.949 . S
C176 C175 1.339 . S
C176 C177 1.439 . S
C176 H205 0.950 . S
C177 N173 1.383 . S
C177 C176 1.439 . S
C177 C195 1.392 . S
N178 Co162 2.282 . S
N178 C181 1.332 . S
N178 C183 1.332 . S
C179 C180 1.386 . S
C179 C182 1.388 . S
C180 C179 1.386 . S
C180 C181 1.382 . S
C180 H206 0.950 . S
C181 N178 1.332 . S
C181 C180 1.382 . S
C181 H192 0.952 . S
C182 C179 1.388 . S
C182 C183 1.382 . S
C182 H207 0.950 . S
C183 N178 1.332 . S
C183 C182 1.382 . S
C183 H193 0.948 . S
N184 Co162 2.282 1_655 S
N184 C188 1.332 . S
N184 C189 1.332 . S
C185 C186 1.388 . S
C185 C189 1.382 . S
C185 H208 0.950 . S
C186 C185 1.388 . S
C186 C187 1.386 . S
C187 C186 1.386 . S
C187 C188 1.382 . S
C187 H209 0.950 . S
C188 N184 1.332 . S
C188 C187 1.382 . S
C188 H190 0.952 . S
C189 N184 1.332 . S
C189 C185 1.382 . S
C189 H191 0.948 . S
H190 C188 0.952 . S
H191 C189 0.948 . S
H192 C181 0.952 . S
H193 C183 0.948 . S
C194 C160 1.395 . S
C194 C164 1.391 1_455 S
C195 C157 1.389 . S
C195 C177 1.392 . S
C196 C167 1.392 . S
C196 C169 1.389 . S
C197 C172 1.395 . S
C197 C174 1.391 . S
H198 C158 0.951 . S
H199 C159 0.950 . S
H200 C165 0.949 . S
H201 C166 0.950 . S
H202 C170 0.951 . S
H203 C171 0.950 . S
H204 C175 0.949 . S
H205 C176 0.950 . S
H206 C180 0.950 . S
H207 C182 0.950 . S
H208 C185 0.950 . S
H209 C187 0.950 . S
C210 C211 1.443 . S
C210 N214 1.376 1_565 S
C210 C248 1.389 . S
C211 C210 1.443 . S
C211 C212 1.340 . S
C211 H251 0.951 . S
C212 C211 1.340 . S
C212 C213 1.439 1_565 S
C212 H252 0.950 . S
C213 C212 1.439 1_545 S
C213 N214 1.374 . S
C213 C247 1.395 . S
N214 C210 1.376 1_545 S
N214 C213 1.374 . S
N214 Co215 2.008 . S
Co215 N214 2.008 . S
Co215 N216 1.995 . S
Co215 N221 2.008 . S
Co215 N226 1.995 1_545 S
Co215 N231 2.282 . S
Co215 N237 2.282 1_545 S
N216 Co215 1.995 . S
N216 C217 1.376 . S
N216 C220 1.383 . S
C217 N216 1.376 . S
C217 C218 1.446 . S
C217 C247 1.391 . S
C218 C217 1.446 . S
C218 C219 1.339 . S
C218 H253 0.949 . S
C219 C218 1.339 . S
C219 C220 1.439 . S
C219 H254 0.950 . S
C220 N216 1.383 . S
C220 C219 1.439 . S
C220 C249 1.392 . S
N221 Co215 2.008 . S
N221 C222 1.376 . S
N221 C225 1.374 . S
C222 N221 1.376 . S
C222 C223 1.443 . S
C222 C249 1.389 . S
C223 C222 1.443 . S
C223 C224 1.340 . S
C223 H255 0.951 . S
C224 C223 1.340 . S
C224 C225 1.439 . S
C224 H256 0.950 . S
C225 N221 1.374 . S
C225 C224 1.439 . S
C225 C250 1.395 . S
N226 Co215 1.995 1_565 S
N226 C227 1.376 . S
N226 C230 1.383 . S
C227 N226 1.376 . S
C227 C228 1.446 . S
C227 C250 1.391 1_565 S
C228 C227 1.446 . S
C228 C229 1.339 . S
C228 H257 0.949 . S
C229 C228 1.339 . S
C229 C230 1.439 . S
C229 H258 0.950 . S
C230 N226 1.383 . S
C230 C229 1.439 . S
C230 C248 1.392 . S
N231 Co215 2.282 . S
N231 C234 1.332 . S
N231 C236 1.332 . S
C232 C233 1.386 . S
C232 C235 1.388 . S
C233 C232 1.386 . S
C233 C234 1.382 . S
C233 H259 0.950 . S
C234 N231 1.332 . S
C234 C233 1.382 . S
C234 H245 0.952 . S
C235 C232 1.388 . S
C235 C236 1.382 . S
C235 H260 0.950 . S
C236 N231 1.332 . S
C236 C235 1.382 . S
C236 H246 0.948 . S
N237 Co215 2.282 1_565 S
N237 C241 1.332 . S
N237 C242 1.332 . S
C238 C239 1.388 . S
C238 C242 1.382 . S
C238 H261 0.950 . S
C239 C238 1.388 . S
C239 C240 1.386 . S
C240 C239 1.386 . S
C240 C241 1.382 . S
C240 H262 0.950 . S
C241 N237 1.332 . S
C241 C240 1.382 . S
C241 H243 0.952 1_565 S
C242 N237 1.332 . S
C242 C238 1.382 . S
C242 H244 0.948 . S
H243 C241 0.952 1_545 S
H244 C242 0.948 . S
H245 C234 0.952 . S
H246 C236 0.948 . S
C247 C213 1.395 . S
C247 C217 1.391 . S
C248 C210 1.389 . S
C248 C230 1.392 . S
C249 C220 1.392 . S
C249 C222 1.389 . S
C250 C225 1.395 . S
C250 C227 1.391 1_545 S
H251 C211 0.951 . S
H252 C212 0.950 . S
H253 C218 0.949 . S
H254 C219 0.950 . S
H255 C223 0.951 . S
H256 C224 0.950 . S
H257 C228 0.949 . S
H258 C229 0.950 . S
H259 C233 0.950 . S
H260 C235 0.950 . S
H261 C238 0.950 . S
H262 C240 0.950 . S
C263 C264 1.443 . S
C263 N267 1.376 . S
C263 C301 1.389 . S
C264 C263 1.443 . S
C264 C265 1.340 . S
C264 H304 0.951 . S
C265 C264 1.340 . S
C265 C266 1.439 . S
C265 H305 0.950 . S
C266 C265 1.439 . S
C266 N267 1.374 . S
C266 C300 1.395 . S
N267 C263 1.376 . S
N267 C266 1.374 . S
N267 Co268 2.008 . S
Co268 N267 2.008 . S
Co268 N269 1.995 . S
Co268 N274 2.008 . S
Co268 N279 1.995 . S
Co268 N284 2.282 . S
Co268 N290 2.282 . S
N269 Co268 1.995 . S
N269 C270 1.376 1_554 S
N269 C273 1.383 1_554 S
C270 N269 1.376 1_556 S
C270 C271 1.446 . S
C270 C300 1.391 1_556 S
C271 C270 1.446 . S
C271 C272 1.339 . S
C271 H306 0.949 . S
C272 C271 1.339 . S
C272 C273 1.439 . S
C272 H307 0.950 . S
C273 N269 1.383 1_556 S
C273 C272 1.439 . S
C273 C302 1.392 . S
N274 Co268 2.008 . S
N274 C275 1.376 1_554 S
N274 C278 1.374 . S
C275 N274 1.376 1_556 S
C275 C276 1.443 . S
C275 C302 1.389 . S
C276 C275 1.443 . S
C276 C277 1.340 1_556 S
C276 H308 0.951 . S
C277 C276 1.340 1_554 S
C277 C278 1.439 . S
C277 H309 0.950 . S
C278 N274 1.374 . S
C278 C277 1.439 . S
C278 C303 1.395 . S
N279 Co268 1.995 . S
N279 C280 1.376 . S
N279 C283 1.383 . S
C280 N279 1.376 . S
C280 C281 1.446 . S
C280 C303 1.391 . S
C281 C280 1.446 . S
C281 C282 1.339 . S
C281 H310 0.949 . S
C282 C281 1.339 . S
C282 C283 1.439 . S
C282 H311 0.950 . S
C283 N279 1.383 . S
C283 C282 1.439 . S
C283 C301 1.392 . S
N284 Co268 2.282 . S
N284 C287 1.332 . S
N284 C289 1.332 1_554 S
C285 C286 1.386 . S
C285 C288 1.388 . S
C286 C285 1.386 . S
C286 C287 1.382 1_556 S
C286 H312 0.950 . S
C287 N284 1.332 . S
C287 C286 1.382 1_554 S
C287 H298 0.952 . S
C288 C285 1.388 . S
C288 C289 1.382 . S
C288 H313 0.950 . S
C289 N284 1.332 1_556 S
C289 C288 1.382 . S
C289 H299 0.948 . S
N290 Co268 2.282 . S
N290 C294 1.332 . S
N290 C295 1.332 . S
C291 C292 1.388 . S
C291 C295 1.382 . S
C291 H314 0.950 . S
C292 C291 1.388 . S
C292 C293 1.386 . S
C293 C292 1.386 . S
C293 C294 1.382 . S
C293 H315 0.950 . S
C294 N290 1.332 . S
C294 C293 1.382 . S
C294 H296 0.952 . S
C295 N290 1.332 . S
C295 C291 1.382 . S
C295 H297 0.948 . S
H296 C294 0.952 . S
H297 C295 0.948 . S
H298 C287 0.952 . S
H299 C289 0.948 . S
C300 C266 1.395 . S
C300 C270 1.391 1_554 S
C301 C263 1.389 . S
C301 C283 1.392 . S
C302 C273 1.392 . S
C302 C275 1.389 . S
C303 C278 1.395 . S
C303 C280 1.391 . S
H304 C264 0.951 . S
H305 C265 0.950 . S
H306 C271 0.949 . S
H307 C272 0.950 . S
H308 C276 0.951 . S
H309 C277 0.950 . S
H310 C281 0.949 . S
H311 C282 0.950 . S
H312 C286 0.950 . S
H313 C288 0.950 . S
H314 C291 0.950 . S
H315 C293 0.950 . S
C316 C317 1.443 . S
C316 N320 1.376 1_565 S
C316 C354 1.389 1_455 S
C317 C316 1.443 . S
C317 C318 1.340 1_565 S
C317 H357 0.951 . S
C318 C317 1.340 1_545 S
C318 C319 1.439 . S
C318 H358 0.950 . S
C319 C318 1.439 . S
C319 N320 1.374 . S
C319 C353 1.395 . S
N320 C316 1.376 1_545 S
N320 C319 1.374 . S
N320 Co321 2.008 1_455 S
Co321 N320 2.008 1_655 S
Co321 N322 1.995 1_655 S
Co321 N327 2.008 . S
Co321 N332 1.995 . S
Co321 N337 2.282 . S
Co321 N343 2.282 1_655 S
N322 Co321 1.995 1_455 S
N322 C323 1.376 . S
N322 C326 1.383 . S
C323 N322 1.376 . S
C323 C324 1.446 . S
C323 C353 1.391 . S
C324 C323 1.446 . S
C324 C325 1.339 . S
C324 H359 0.949 . S
C325 C324 1.339 . S
C325 C326 1.439 . S
C325 H360 0.950 . S
C326 N322 1.383 . S
C326 C325 1.439 . S
C326 C355 1.392 . S
N327 Co321 2.008 . S
N327 C328 1.376 . S
N327 C331 1.374 . S
C328 N327 1.376 . S
C328 C329 1.443 . S
C328 C355 1.389 1_655 S
C329 C328 1.443 . S
C329 C330 1.340 . S
C329 H361 0.951 . S
C330 C329 1.340 . S
C330 C331 1.439 . S
C330 H362 0.950 . S
C331 N327 1.374 . S
C331 C330 1.439 . S
C331 C356 1.395 . S
N332 Co321 1.995 . S
N332 C333 1.376 . S
N332 C336 1.383 1_545 S
C333 N332 1.376 . S
C333 C334 1.446 1_545 S
C333 C356 1.391 . S
C334 C333 1.446 1_565 S
C334 C335 1.339 . S
C334 H363 0.949 . S
C335 C334 1.339 . S
C335 C336 1.439 . S
C335 H364 0.950 . S
C336 N332 1.383 1_565 S
C336 C335 1.439 . S
C336 C354 1.392 . S
N337 Co321 2.282 . S
N337 C340 1.332 . S
N337 C342 1.332 1_655 S
C338 C339 1.386 . S
C338 C341 1.388 1_655 S
C339 C338 1.386 . S
C339 C340 1.382 . S
C339 H365 0.950 . S
C340 N337 1.332 . S
C340 C339 1.382 . S
C340 H351 0.952 . S
C341 C338 1.388 1_455 S
C341 C342 1.382 . S
C341 H366 0.950 . S
C342 N337 1.332 1_455 S
C342 C341 1.382 . S
C342 H352 0.948 . S
N343 Co321 2.282 1_455 S
N343 C347 1.332 . S
N343 C348 1.332 1_445 S
C344 C345 1.388 1_655 S
C344 C348 1.382 . S
C344 H367 0.950 . S
C345 C344 1.388 1_455 S
C345 C346 1.386 . S
C346 C345 1.386 . S
C346 C347 1.382 1_565 S
C346 H368 0.950 . S
C347 N343 1.332 . S
C347 C346 1.382 1_545 S
C347 H349 0.952 . S
C348 N343 1.332 1_665 S
C348 C344 1.382 . S
C348 H350 0.948 . S
H349 C347 0.952 . S
H350 C348 0.948 . S
H351 C340 0.952 . S
H352 C342 0.948 . S
C353 C319 1.395 . S
C353 C323 1.391 . S
C354 C316 1.389 1_655 S
C354 C336 1.392 . S
C355 C326 1.392 . S
C355 C328 1.389 1_455 S
C356 C331 1.395 . S
C356 C333 1.391 . S
H357 C317 0.951 . S
H358 C318 0.950 . S
H359 C324 0.949 . S
H360 C325 0.950 . S
H361 C329 0.951 . S
H362 C330 0.950 . S
H363 C334 0.949 . S
H364 C335 0.950 . S
H365 C339 0.950 . S
H366 C341 0.950 . S
H367 C344 0.950 . S
H368 C346 0.950 . S
C369 C370 1.443 . S
C369 N373 1.376 . S
C369 C407 1.389 . S
C370 C369 1.443 . S
C370 C371 1.340 . S
C370 H410 0.951 . S
C371 C370 1.340 . S
C371 C372 1.439 . S
C371 H411 0.950 . S
C372 C371 1.439 . S
C372 N373 1.374 . S
C372 C406 1.395 . S
N373 C369 1.376 . S
N373 C372 1.374 . S
N373 Co374 2.008 . S
Co374 N373 2.008 . S
Co374 N375 1.995 1_554 S
Co374 N380 2.008 . S
Co374 N385 1.995 . S
Co374 N390 2.282 1_554 S
Co374 N396 2.282 . S
N375 Co374 1.995 1_556 S
N375 C376 1.376 . S
N375 C379 1.383 . S
C376 N375 1.376 . S
C376 C377 1.446 . S
C376 C406 1.391 1_556 S
C377 C376 1.446 . S
C377 C378 1.339 . S
C377 H412 0.949 . S
C378 C377 1.339 . S
C378 C379 1.439 . S
C378 H413 0.950 . S
C379 N375 1.383 . S
C379 C378 1.439 . S
C379 C408 1.392 . S
N380 Co374 2.008 . S
N380 C381 1.376 1_554 S
N380 C384 1.374 . S
C381 N380 1.376 1_556 S
C381 C382 1.443 . S
C381 C408 1.389 . S
C382 C381 1.443 . S
C382 C383 1.340 1_556 S
C382 H414 0.951 . S
C383 C382 1.340 1_554 S
C383 C384 1.439 . S
C383 H415 0.950 . S
C384 N380 1.374 . S
C384 C383 1.439 . S
C384 C409 1.395 . S
N385 Co374 1.995 . S
N385 C386 1.376 . S
N385 C389 1.383 . S
C386 N385 1.376 . S
C386 C387 1.446 . S
C386 C409 1.391 . S
C387 C386 1.446 . S
C387 C388 1.339 . S
C387 H416 0.949 1_545 S
C388 C387 1.339 . S
C388 C389 1.439 . S
C388 H417 0.950 . S
C389 N385 1.383 . S
C389 C388 1.439 . S
C389 C407 1.392 . S
N390 Co374 2.282 1_556 S
N390 C393 1.332 . S
N390 C395 1.332 . S
C391 C392 1.386 . S
C391 C394 1.388 . S
C392 C391 1.386 . S
C392 C393 1.382 . S
C392 H418 0.950 . S
C393 N390 1.332 . S
C393 C392 1.382 . S
C393 H404 0.952 1_556 S
C394 C391 1.388 . S
C394 C395 1.382 . S
C394 H419 0.950 . S
C395 N390 1.332 . S
C395 C394 1.382 . S
C395 H405 0.948 . S
N396 Co374 2.282 . S
N396 C400 1.332 . S
N396 C401 1.332 . S
C397 C398 1.388 . S
C397 C401 1.382 . S
C397 H420 0.950 . S
C398 C397 1.388 . S
C398 C399 1.386 . S
C399 C398 1.386 . S
C399 C400 1.382 . S
C399 H421 0.950 . S
C400 N396 1.332 . S
C400 C399 1.382 . S
C400 H402 0.952 . S
C401 N396 1.332 . S
C401 C397 1.382 . S
C401 H403 0.948 . S
H402 C400 0.952 . S
H403 C401 0.948 . S
H404 C393 0.952 1_554 S
H405 C395 0.948 . S
C406 C372 1.395 . S
C406 C376 1.391 1_554 S
C407 C369 1.389 . S
C407 C389 1.392 . S
C408 C379 1.392 . S
C408 C381 1.389 . S
C409 C384 1.395 . S
C409 C386 1.391 . S
H410 C370 0.951 . S
H411 C371 0.950 . S
H412 C377 0.949 . S
H413 C378 0.950 . S
H414 C382 0.951 . S
H415 C383 0.950 . S
H416 C387 0.949 1_565 S
H417 C388 0.950 . S
H418 C392 0.950 . S
H419 C394 0.950 . S
H420 C397 0.950 . S
H421 C399 0.950 . S
C126 N2 1.411 . S
C195 N15 2.047 . S
C133 N27 1.559 . S
C196 N44 2.217 . S
C249 N1 2.038 . S
C285 N18 1.830 . S
N28 C345 2.112 1_655 S
C408 N41 1.848 . S
C248 N14 2.022 . S
N31 C292 1.832 . S
C338 N40 2.439 . S
C407 N5 2.040 . S
N53 C186 2.314 . S
C143 N70 1.637 . S
N80 C179 1.991 . S
N92 C142 1.679 . S
C354 N57 2.461 . S
C398 N67 1.930 . S
C232 N83 2.211 . S
N96 C301 1.740 . S
C355 N66 2.271 1_455 S
C391 N79 1.981 . S
C239 N93 1.945 . S
N54 C302 1.498 . S
