# Generated by pormake.
# Topology pto, (3,4)-cn, num edge types: 1
# Building blocks:
#     Node 0, Type 0, BuildingBlock: OLANEW_clean_sbu_2, # of connection points: 3
#     Node 1, Type 0, BuildingBlock: OLANEW_clean_sbu_2, # of connection points: 3
#     Node 2, Type 0, BuildingBlock: OLANEW_clean_sbu_2, # of connection points: 3
#     Node 3, Type 0, BuildingBlock: OLANEW_clean_sbu_2, # of connection points: 3
#     Node 4, Type 0, BuildingBlock: OLANEW_clean_sbu_2, # of connection points: 3
#     Node 5, Type 0, BuildingBlock: OLANEW_clean_sbu_2, # of connection points: 3
#     Node 6, Type 0, BuildingBlock: OLANEW_clean_sbu_2, # of connection points: 3
#     Node 7, Type 0, BuildingBlock: OLANEW_clean_sbu_2, # of connection points: 3
#     Node 8, Type 1, BuildingBlock: GIZVER_clean_linker_0, # of connection points: 4
#     Node 9, Type 1, BuildingBlock: GIZVER_clean_linker_0, # of connection points: 4
#     Node 10, Type 1, BuildingBlock: GIZVER_clean_linker_0, # of connection points: 4
#     Node 11, Type 1, BuildingBlock: GIZVER_clean_linker_0, # of connection points: 4
#     Node 12, Type 1, BuildingBlock: GIZVER_clean_linker_0, # of connection points: 4
#     Node 13, Type 1, BuildingBlock: GIZVER_clean_linker_0, # of connection points: 4
#     Edge 14, Type (0, 1), BuildingBlock: AJUNOK_clean_linker_0, # of connection points: 2
#     Edge 15, Type (0, 1), BuildingBlock: AJUNOK_clean_linker_0, # of connection points: 2
#     Edge 16, Type (0, 1), BuildingBlock: AJUNOK_clean_linker_0, # of connection points: 2
#     Edge 17, Type (0, 1), BuildingBlock: AJUNOK_clean_linker_0, # of connection points: 2
#     Edge 18, Type (0, 1), BuildingBlock: AJUNOK_clean_linker_0, # of connection points: 2
#     Edge 19, Type (0, 1), BuildingBlock: AJUNOK_clean_linker_0, # of connection points: 2
#     Edge 20, Type (0, 1), BuildingBlock: AJUNOK_clean_linker_0, # of connection points: 2
#     Edge 21, Type (0, 1), BuildingBlock: AJUNOK_clean_linker_0, # of connection points: 2
#     Edge 22, Type (0, 1), BuildingBlock: AJUNOK_clean_linker_0, # of connection points: 2
#     Edge 23, Type (0, 1), BuildingBlock: AJUNOK_clean_linker_0, # of connection points: 2
#     Edge 24, Type (0, 1), BuildingBlock: AJUNOK_clean_linker_0, # of connection points: 2
#     Edge 25, Type (0, 1), BuildingBlock: AJUNOK_clean_linker_0, # of connection points: 2
#     Edge 26, Type (0, 1), BuildingBlock: AJUNOK_clean_linker_0, # of connection points: 2
#     Edge 27, Type (0, 1), BuildingBlock: AJUNOK_clean_linker_0, # of connection points: 2
#     Edge 28, Type (0, 1), BuildingBlock: AJUNOK_clean_linker_0, # of connection points: 2
#     Edge 29, Type (0, 1), BuildingBlock: AJUNOK_clean_linker_0, # of connection points: 2
#     Edge 30, Type (0, 1), BuildingBlock: AJUNOK_clean_linker_0, # of connection points: 2
#     Edge 31, Type (0, 1), BuildingBlock: AJUNOK_clean_linker_0, # of connection points: 2
#     Edge 32, Type (0, 1), BuildingBlock: AJUNOK_clean_linker_0, # of connection points: 2
#     Edge 33, Type (0, 1), BuildingBlock: AJUNOK_clean_linker_0, # of connection points: 2
#     Edge 34, Type (0, 1), BuildingBlock: AJUNOK_clean_linker_0, # of connection points: 2
#     Edge 35, Type (0, 1), BuildingBlock: AJUNOK_clean_linker_0, # of connection points: 2
#     Edge 36, Type (0, 1), BuildingBlock: AJUNOK_clean_linker_0, # of connection points: 2
#     Edge 37, Type (0, 1), BuildingBlock: AJUNOK_clean_linker_0, # of connection points: 2
# Relax obj value: 0.018
# Max RMSD: 0.159
# Mean RMSD: 0.071
data_MOF--net-pto--node1-OLANEW_clean_sbu_2--node2-GIZVER_clean_linker_0--edge1-AJUNOK_clean_linker_0
_symmetry_space_group_name_H-M    P1
_symmetry_Int_Tables_number       1
_symmetry_cell_setting            triclinic
loop_
_symmetry_equiv_pos_as_xyz
'x, y, z'
_cell_length_a     39.226171
_cell_length_b     33.383716
_cell_length_c     23.668289
_cell_angle_alpha  94.299612
_cell_angle_beta   89.943485
_cell_angle_gamma 100.80897
loop_
_atom_site_label
_atom_site_type_symbol
_atom_site_fract_x
_atom_site_fract_y
_atom_site_fract_z
_atom_type_partial_charge
O0 O 0.29687 0.29052 0.08893 0.0
Cd1 Cd 0.23574 0.26454 0.10673 0.0
O2 O 0.29414 0.34341 0.14879 0.0
Cd3 Cd 0.23813 0.34069 0.13892 0.0
O4 O 0.19452 0.37144 0.12403 0.0
C5 C 0.18401 0.37494 0.07411 0.0
O6 O 0.19813 0.35716 0.03113 0.0
C7 C 0.31213 0.32153 0.1198 0.0
C8 C 0.23852 0.23819 0.21489 0.0
O9 O 0.23699 0.21264 0.17136 0.0
O10 O 0.23625 0.27517 0.20721 0.0
O11 O 0.2854 0.00415 0.94984 0.0
Cd12 Cd 0.23837 0.03821 0.92415 0.0
O13 O 0.2498 0.94579 0.95615 0.0
Cd14 Cd 0.23297 0.88096 0.97079 0.0
O15 O 0.21186 0.81525 0.96372 0.0
C16 C 0.18206 0.79991 0.98183 0.0
O17 O 0.16347 0.82423 0.00816 0.0
C18 C 0.28066 0.96633 0.95786 0.0
C19 C 0.24894 0.05373 0.81095 0.0
O20 O 0.26285 0.07967 0.85087 0.0
O21 O 0.22857 0.02134 0.82478 0.0
O22 O 0.84281 0.7978 0.24605 0.0
Cd23 Cd 0.82922 0.73652 0.17971 0.0
O24 O 0.78798 0.80058 0.23546 0.0
Cd25 Cd 0.73997 0.82516 0.24342 0.0
O26 O 0.69104 0.84133 0.21765 0.0
C27 C 0.66539 0.81295 0.20364 0.0
O28 O 0.66857 0.77485 0.2084 0.0
C29 C 0.81738 0.81538 0.25854 0.0
C30 C 0.88178 0.69302 0.14885 0.0
O31 O 0.87465 0.7206 0.11835 0.0
O32 O 0.86518 0.68738 0.19516 0.0
O33 O 0.8567 0.36875 0.82548 0.0
Cd34 Cd 0.806 0.31476 0.80234 0.0
O35 O 0.82555 0.41181 0.86429 0.0
Cd36 Cd 0.77384 0.37417 0.85087 0.0
O37 O 0.71858 0.36367 0.87088 0.0
C38 C 0.70228 0.39313 0.86928 0.0
O39 O 0.71859 0.42783 0.85133 0.0
C40 C 0.85488 0.40332 0.8506 0.0
C41 C 0.81973 0.25984 0.71393 0.0
O42 O 0.81157 0.29415 0.70443 0.0
O43 O 0.82113 0.25094 0.76551 0.0
O44 O 0.85624 0.85734 0.76199 0.0
Cd45 Cd 0.8554 0.81601 0.84391 0.0
O46 O 0.8007 0.85718 0.77164 0.0
Cd47 Cd 0.74894 0.87199 0.75957 0.0
O48 O 0.69592 0.87721 0.78493 0.0
C49 C 0.67203 0.84554 0.7832 0.0
O50 O 0.6792 0.81063 0.76192 0.0
C51 C 0.82889 0.86878 0.74573 0.0
C52 C 0.8966 0.75555 0.83665 0.0
O53 O 0.86532 0.74839 0.81746 0.0
O54 O 0.90886 0.7918 0.85809 0.0
O55 O 0.85794 0.31813 0.11165 0.0
Cd56 Cd 0.81086 0.25906 0.1232 0.0
O57 O 0.84871 0.35805 0.18632 0.0
Cd58 Cd 0.79942 0.32086 0.20936 0.0
O59 O 0.74299 0.31561 0.2124 0.0
C60 C 0.73055 0.3426 0.24231 0.0
O61 O 0.75187 0.36984 0.2747 0.0
C62 C 0.86643 0.35132 0.14274 0.0
C63 C 0.81574 0.21255 0.21558 0.0
O64 O 0.83326 0.20774 0.17067 0.0
O65 O 0.79671 0.23987 0.21727 0.0
O66 O 0.3579 0.47576 0.8703 0.0
Cd67 Cd 0.30707 0.44251 0.81256 0.0
O68 O 0.39611 0.47293 0.80282 0.0
Cd69 Cd 0.35684 0.44163 0.74182 0.0
O70 O 0.33723 0.38712 0.68657 0.0
C71 C 0.3584 0.36276 0.67887 0.0
O72 O 0.38888 0.37224 0.70442 0.0
C73 C 0.38923 0.48275 0.85386 0.0
C74 C 0.24832 0.4779 0.82858 0.0
O75 O 0.25532 0.4523 0.86251 0.0
O76 O 0.26939 0.48722 0.78814 0.0
O77 O 0.37585 0.77129 0.30989 0.0
Cd78 Cd 0.34678 0.76593 0.40059 0.0
O79 O 0.32529 0.76022 0.2667 0.0
Cd80 Cd 0.28684 0.75655 0.19813 0.0
O81 O 0.24847 0.72063 0.13816 0.0
C82 C 0.21662 0.72331 0.13488 0.0
O83 O 0.20518 0.75141 0.16749 0.0
C84 C 0.35828 0.76856 0.26427 0.0
C85 C 0.33674 0.84429 0.43654 0.0
O86 O 0.36504 0.83237 0.44766 0.0
O87 O 0.3126 0.8186 0.40999 0.0
H88 H 0.99641 0.47169 0.02078 0.0
H89 H 1.00157 0.60179 0.0221 0.0
H90 H 0.92476 0.52923 0.12047 0.0
H91 H 0.02548 0.51273 0.9426 0.0
H92 H 0.03226 0.56733 0.95015 0.0
H93 H 0.06066 0.47492 -0.00126 0.0
H94 H 0.15489 0.54339 0.07553 0.0
H95 H 0.07919 0.60664 0.01044 0.0
C96 C 0.98688 0.49892 0.03595 0.0
C97 C 0.95895 0.49584 0.07366 0.0
C98 C 1.00245 0.53707 0.01722 0.0
C99 C 0.98989 0.5724 0.03674 0.0
C100 C 0.96204 0.56976 0.07457 0.0
C101 C 0.94706 0.53151 0.09296 0.0
C102 C 0.03108 0.53966 0.97408 0.0
C103 C 0.06585 0.54074 0.00209 0.0
C104 C 0.077 0.50408 0.01166 0.0
C105 C 0.10917 0.50506 0.03812 0.0
C106 C 0.13022 0.54283 0.05455 0.0
C107 C 0.12025 0.57971 0.0434 0.0
C108 C 0.08753 0.57844 0.01841 0.0
H109 H 0.07825 0.64927 0.86642 0.0
H110 H 0.09557 0.52989 0.80711 0.0
H111 H 0.16953 0.60754 0.91896 0.0
H112 H 0.05888 0.60994 0.76525 0.0
H113 H 0.0512 0.55573 0.76402 0.0
H114 H 0.01887 0.64789 0.80947 0.0
H115 H 0.92306 0.58038 0.86822 0.0
H116 H 0.00912 0.51971 0.83262 0.0
C117 C 0.09292 0.62496 0.86862 0.0
C118 C 0.12422 0.63209 0.89993 0.0
C119 C 0.08221 0.588 0.83535 0.0
C120 C 0.10279 0.55773 0.8345 0.0
C121 C 0.13428 0.56472 0.86484 0.0
C122 C 0.1444 0.60147 0.8981 0.0
C123 C 0.05292 0.584 0.79279 0.0
C124 C 0.01822 0.58413 0.8202 0.0
C125 C 0.00396 0.61985 0.82376 0.0
C126 C 0.96964 0.61872 0.84134 0.0
C127 C 0.94998 0.58162 0.85683 0.0
C128 C 0.96394 0.54571 0.85427 0.0
C129 C 0.99831 0.54737 0.83641 0.0
H130 H 0.3051 0.13985 0.38908 0.0
H131 H 0.35203 0.18096 0.55193 0.0
H132 H 0.28797 0.25295 0.47394 0.0
H133 H 0.35167 0.10997 0.42404 0.0
H134 H 0.37274 0.12806 0.49072 0.0
H135 H 0.34458 0.03903 0.43733 0.0
H136 H 0.28913 0.98771 0.57925 0.0
H137 H 0.30773 0.11756 0.56684 0.0
C138 C 0.30801 0.16154 0.42594 0.0
C139 C 0.29311 0.19677 0.42623 0.0
C140 C 0.32881 0.15539 0.4716 0.0
C141 C 0.33532 0.18523 0.51731 0.0
C142 C 0.32086 0.22064 0.51821 0.0
C143 C 0.29898 0.22548 0.47342 0.0
C144 C 0.34697 0.11916 0.46914 0.0
C145 C 0.32707 0.08268 0.49722 0.0
C146 C 0.33028 0.04312 0.47591 0.0
C147 C 0.31614 0.00884 0.50492 0.0
C148 C 0.29875 0.01413 0.55581 0.0
C149 C 0.2961 0.0534 0.57878 0.0
C150 C 0.30985 0.08743 0.54887 0.0
H151 H 0.43901 0.92944 0.96422 0.0
H152 H 0.47065 0.84713 0.07681 0.0
H153 H 0.36265 0.84626 0.04871 0.0
H154 H 0.49897 0.93191 0.97627 0.0
H155 H 0.50299 0.93191 0.05067 0.0
H156 H 0.52731 0.88737 0.9136 0.0
H157 H 0.59947 0.8242 0.98883 0.0
H158 H 0.52978 0.87984 0.0947 0.0
C159 C 0.4327 0.90392 0.99054 0.0
C160 C 0.39772 0.88856 0.00201 0.0
C161 C 0.45955 0.88864 0.01613 0.0
C162 C 0.45067 0.85751 0.05356 0.0
C163 C 0.41572 0.8415 0.06447 0.0
C164 C 0.38952 0.85655 0.03746 0.0
C165 C 0.49671 0.91129 0.01147 0.0
C166 C 0.52362 0.88419 0.00457 0.0
C167 C 0.53701 0.87559 0.9506 0.0
C168 C 0.56432 0.85378 0.94487 0.0
C169 C 0.57749 0.83966 0.99298 0.0
C170 C 0.56528 0.84896 0.047 0.0
C171 C 0.53843 0.87136 0.05273 0.0
H172 H 0.85456 0.08021 0.38567 0.0
H173 H 0.86476 0.10625 0.56651 0.0
H174 H 0.8162 0.18234 0.4662 0.0
H175 H 0.89894 0.05555 0.44149 0.0
H176 H 0.90062 0.06337 0.51667 0.0
H177 H 0.85825 0.99846 0.39359 0.0
H178 H 0.8188 0.8994 0.49602 0.0
H179 H 0.86036 0.01868 0.5754 0.0
C180 C 0.84944 0.09809 0.42379 0.0
C181 C 0.83325 0.13196 0.41965 0.0
C182 C 0.86046 0.08827 0.47677 0.0
C183 C 0.8551 0.1127 0.52592 0.0
C184 C 0.83955 0.14709 0.52222 0.0
C185 C 0.82797 0.15569 0.4692 0.0
C186 C 0.88242 0.05581 0.47973 0.0
C187 C 0.86096 0.01353 0.484 0.0
C188 C 0.85199 0.98722 0.43485 0.0
C189 C 0.83657 0.94599 0.43892 0.0
C190 C 0.82926 0.93158 0.49264 0.0
C191 C 0.83796 0.95736 0.54214 0.0
C192 C 0.85316 0.99861 0.53745 0.0
H193 H 0.52368 0.49003 0.04578 0.0
H194 H 0.48846 0.39167 0.15347 0.0
H195 H 0.41971 0.42132 0.02882 0.0
H196 H 0.55901 0.48185 0.12595 0.0
H197 H 0.54008 0.44972 0.17943 0.0
H198 H 0.56662 0.4319 0.02579 0.0
H199 H 0.63773 0.356 0.07022 0.0
H200 H 0.57902 0.40729 0.20025 0.0
C201 C 0.50371 0.46549 0.05867 0.0
C202 C 0.47079 0.45857 0.03288 0.0
C203 C 0.5104 0.44122 0.10227 0.0
C204 C 0.48386 0.40983 0.11916 0.0
C205 C 0.4513 0.40244 0.09199 0.0
C206 C 0.44517 0.42674 0.04912 0.0
C207 C 0.54496 0.45052 0.13317 0.0
C208 C 0.5681 0.42058 0.11465 0.0
C209 C 0.57732 0.4156 0.05727 0.0
C210 C 0.60161 0.3911 0.04092 0.0
C211 C 0.61704 0.37228 0.08234 0.0
C212 C 0.60956 0.37832 0.13981 0.0
C213 C 0.58452 0.40192 0.15574 0.0
C214 C 0.15147 0.4292 0.11029 0.0
C215 C 0.16002 0.40354 0.06455 0.0
C216 C 0.13323 0.46057 0.10172 0.0
C217 C 0.12229 0.46716 0.04724 0.0
H218 H 0.16027 0.42636 0.15292 0.0
H219 H 0.1287 0.48081 0.13777 0.0
S220 S 0.13483 0.40662 0.91376 0.0
N221 N 0.15376 0.38537 0.96289 0.0
N222 N 0.11905 0.44414 0.94738 0.0
C223 C 0.12871 0.44041 0.00157 0.0
C224 C 0.14768 0.40866 0.01006 0.0
C225 C 0.1875 0.73143 0.93653 0.0
C226 C 0.16738 0.7559 0.96751 0.0
C227 C 0.17354 0.69126 0.91646 0.0
C228 C 0.13882 0.67355 0.92666 0.0
H229 H 0.2141 0.74369 0.92599 0.0
H230 H 0.18986 0.67455 0.89078 0.0
S231 S 0.07604 0.72246 0.01128 0.0
N232 N 0.11151 0.75809 0.01162 0.0
N233 N 0.08536 0.68233 0.97369 0.0
C234 C 0.11874 0.69689 0.95968 0.0
C235 C 0.13302 0.73799 0.98035 0.0
C236 C 0.91998 0.64331 0.16866 0.0
C237 C 0.90651 0.66626 0.1296 0.0
C238 C 0.93966 0.61381 0.15075 0.0
C239 C 0.94657 0.60593 0.09303 0.0
H240 H 0.91449 0.64731 0.21338 0.0
H241 H 0.94859 0.59602 0.18219 0.0
S242 S 0.91736 0.65748 0.97368 0.0
N243 N 0.90214 0.67957 0.03048 0.0
N244 N 0.9388 0.62379 0.99693 0.0
C245 C 0.93439 0.62963 0.05369 0.0
C246 C 0.91443 0.65985 0.07194 0.0
C247 C 0.91283 0.4386 0.8188 0.0
C248 C 0.88632 0.43559 0.85914 0.0
C249 C 0.93941 0.47323 0.81982 0.0
C250 C 0.94069 0.50581 0.86168 0.0
H251 H 0.91178 0.41539 0.78398 0.0
H252 H 0.95772 0.47558 0.78539 0.0
S253 S 0.88186 0.50835 0.98413 0.0
N254 N 0.86581 0.46514 0.9468 0.0
N255 N 0.91644 0.52952 0.94976 0.0
C256 C 0.91621 0.50126 0.90529 0.0
C257 C 0.88884 0.46635 0.90374 0.0
C258 C 0.26911 0.25695 0.3073 0.0
C259 C 0.2479 0.22717 0.27129 0.0
C260 C 0.28292 0.24681 0.35749 0.0
C261 C 0.27543 0.20662 0.37471 0.0
H262 H 0.27664 0.28803 0.29526 0.0
H263 H 0.30074 0.27057 0.38179 0.0
S264 S 0.21746 0.11845 0.29848 0.0
N265 N 0.21812 0.15644 0.25736 0.0
N266 N 0.24247 0.13765 0.3538 0.0
C267 C 0.25276 0.1769 0.34033 0.0
C268 C 0.23935 0.18712 0.28823 0.0
C269 C 0.31059 0.90591 0.94958 0.0
C270 C 0.31104 0.94709 0.96799 0.0
C271 C 0.33927 0.88748 0.95865 0.0
C272 C 0.36969 0.90979 0.98545 0.0
H273 H 0.28818 0.88783 0.92731 0.0
H274 H 0.33756 0.85543 0.94509 0.0
S275 S 0.38439 0.0185 0.0413 0.0
N276 N 0.34476 0.00967 0.01393 0.0
N277 N 0.3986 0.97508 0.03046 0.0
C278 C 0.37082 0.95118 0.00285 0.0
C279 C 0.34157 0.96984 0.99411 0.0
C280 C 0.79457 0.85741 0.3367 0.0
C281 C 0.82184 0.85149 0.30024 0.0
C282 C 0.79908 0.88918 0.37985 0.0
C283 C 0.83102 0.91638 0.38815 0.0
H284 H 0.77 0.83624 0.33377 0.0
H285 H 0.77768 0.89183 0.40799 0.0
S286 S 0.91047 0.91469 0.30352 0.0
N287 N 0.88169 0.87615 0.27442 0.0
N288 N 0.89028 0.9356 0.35589 0.0
C289 C 0.85826 0.91146 0.35115 0.0
C290 C 0.8537 0.87899 0.30731 0.0
C291 C 0.6596 0.42817 0.92228 0.0
C292 C 0.66899 0.39156 0.8996 0.0
C293 C 0.63402 0.42776 0.96381 0.0
C294 C 0.61681 0.39074 0.98355 0.0
H295 H 0.67413 0.45751 0.91178 0.0
H296 H 0.63023 0.45667 0.98441 0.0
S297 S 0.6252 0.2865 0.92719 0.0
N298 N 0.65426 0.31723 0.89211 0.0
N299 N 0.60591 0.31663 0.96968 0.0
C300 C 0.62273 0.35397 0.9559 0.0
C301 C 0.64896 0.35432 0.91409 0.0
C302 C 0.23973 0.03266 0.70765 0.0
C303 C 0.25845 0.05891 0.75092 0.0
C304 C 0.25112 0.03255 0.65153 0.0
C305 C 0.28177 0.05853 0.63648 0.0
H306 H 0.21664 0.01107 0.71741 0.0
H307 H 0.23635 0.01108 0.61993 0.0
S308 S 0.33956 0.13443 0.73322 0.0
N309 N 0.30825 0.11321 0.77418 0.0
N310 N 0.33014 0.11212 0.66911 0.0
C311 C 0.29998 0.08615 0.67883 0.0
C312 C 0.2882 0.08656 0.73593 0.0
C313 C 0.61369 0.7905 0.13939 0.0
C314 C 0.63502 0.82201 0.173 0.0
C315 C 0.58905 0.7991 0.10155 0.0
C316 C 0.58435 0.8394 0.09667 0.0
H317 H 0.61744 0.75918 0.13957 0.0
H318 H 0.57484 0.77433 0.07373 0.0
S319 S 0.6299 0.93222 0.1804 0.0
N320 N 0.64706 0.89469 0.20306 0.0
N321 N 0.60054 0.91063 0.13197 0.0
C322 C 0.60345 0.87077 0.13306 0.0
C323 C 0.62885 0.86213 0.17123 0.0
C324 C 0.81876 0.18876 0.67013 0.0
C325 C 0.8271 0.23138 0.66644 0.0
C326 C 0.82357 0.16147 0.62387 0.0
C327 C 0.83724 0.17593 0.57261 0.0
H328 H 0.80743 0.1764 0.70838 0.0
H329 H 0.81563 0.12893 0.62769 0.0
S330 S 0.86852 0.28468 0.54492 0.0
N331 N 0.85271 0.28662 0.60952 0.0
N332 N 0.86303 0.23564 0.52369 0.0
C333 C 0.84746 0.21849 0.56973 0.0
C334 C 0.84204 0.24613 0.61631 0.0
C335 C 0.36687 0.36496 0.16047 0.0
C336 C 0.35051 0.33444 0.11965 0.0
C337 C 0.40177 0.38357 0.15551 0.0
C338 C 0.42151 0.37229 0.10964 0.0
H339 H 0.35212 0.37633 0.19477 0.0
H340 H 0.4124 0.40938 0.18483 0.0
S341 S 0.39314 0.29037 0.99607 0.0
N342 N 0.35845 0.29049 0.03566 0.0
N343 N 0.4239 0.32614 0.02629 0.0
C344 C 0.40658 0.33949 0.07151 0.0
C345 C 0.37109 0.32034 0.07655 0.0
C346 C 0.90285 0.68335 0.81004 0.0
C347 C 0.91719 0.72228 0.8357 0.0
C348 C 0.92029 0.65047 0.81131 0.0
C349 C 0.95288 0.65498 0.83827 0.0
H350 H 0.87764 0.67792 0.78926 0.0
H351 H 0.90802 0.62112 0.79112 0.0
S352 S 1.00217 0.75018 0.91184 0.0
N353 N 0.96648 0.76342 0.88854 0.0
N354 N 0.99908 0.70131 0.89096 0.0
C355 C 0.96802 0.69382 0.86303 0.0
C356 C 0.9502 0.72747 0.8619 0.0
C357 C 0.90847 0.41695 0.16498 0.0
C358 C 0.89465 0.38435 0.12543 0.0
C359 C 0.93092 0.45174 0.14832 0.0
C360 C 0.94036 0.45565 0.09131 0.0
H361 H 0.90102 0.41624 0.20903 0.0
H362 H 0.94003 0.47647 0.18016 0.0
S363 S 0.9132 0.3781 0.97134 0.0
N364 N 0.8939 0.35723 0.02691 0.0
N365 N 0.93553 0.42302 0.99559 0.0
C366 C 0.9282 0.42249 0.05169 0.0
C367 C 0.90549 0.3868 0.06873 0.0
C368 C 0.20249 0.50081 0.89031 0.0
C369 C 0.2171 0.49669 0.83627 0.0
C370 C 0.17466 0.5215 0.89913 0.0
C371 C 0.15993 0.53775 0.85399 0.0
H372 H 0.21337 0.48926 0.92643 0.0
H373 H 0.16501 0.5255 0.94166 0.0
S374 S 0.18706 0.53297 0.70393 0.0
N375 N 0.21363 0.50911 0.73664 0.0
N376 N 0.16114 0.54735 0.75327 0.0
C377 C 0.17337 0.53244 0.7995 0.0
C378 C 0.20201 0.51207 0.79064 0.0
C379 C 0.15582 0.68656 0.11061 0.0
C380 C 0.19186 0.69044 0.10238 0.0
C381 C 0.13247 0.65158 0.08895 0.0
C382 C 0.14434 0.61915 0.05854 0.0
H383 H 0.14561 0.70972 0.13628 0.0
H384 H 0.10519 0.64905 0.09863 0.0
S385 S 0.23528 0.61761 0.01591 0.0
N386 N 0.2375 0.66148 0.05405 0.0
N387 N 0.19397 0.59553 0.01514 0.0
C388 C 0.17998 0.62405 0.04648 0.0
C389 C 0.20361 0.65978 0.06779 0.0
C390 C 0.80159 0.89168 0.66081 0.0
C391 C 0.8304 0.89491 0.69737 0.0
C392 C 0.80373 0.91339 0.61195 0.0
C393 C 0.8347 0.93935 0.59796 0.0
H394 H 0.77767 0.87083 0.66841 0.0
H395 H 0.78125 0.909 0.58404 0.0
S396 S 0.91726 0.95955 0.68065 0.0
N397 N 0.89051 0.92727 0.71722 0.0
N398 N 0.89462 0.96749 0.62518 0.0
C399 C 0.86338 0.94375 0.63501 0.0
C400 C 0.86123 0.92158 0.68461 0.0
C401 C 0.67185 0.31808 0.19761 0.0
C402 C 0.6946 0.3484 0.23081 0.0
C403 C 0.64154 0.32647 0.17366 0.0
C404 C 0.63294 0.36558 0.18158 0.0
H405 H 0.67863 0.28848 0.18681 0.0
H406 H 0.62626 0.30324 0.14479 0.0
S407 S 0.68023 0.45331 0.27336 0.0
N408 N 0.70337 0.41711 0.27776 0.0
N409 N 0.64698 0.43309 0.23121 0.0
C410 C 0.65338 0.39472 0.21958 0.0
C411 C 0.68413 0.38609 0.24451 0.0
C412 C 0.31442 0.30907 0.62598 0.0
C413 C 0.34934 0.32501 0.64064 0.0
C414 C 0.30531 0.27439 0.58803 0.0
C415 C 0.33079 0.2545 0.56295 0.0
H416 H 0.29391 0.3236 0.6437 0.0
H417 H 0.27812 0.26337 0.57765 0.0
S418 S 0.42604 0.28468 0.58591 0.0
N419 N 0.40956 0.31817 0.62708 0.0
N420 N 0.39248 0.2538 0.55461 0.0
C421 C 0.36578 0.26986 0.57769 0.0
C422 C 0.37504 0.30492 0.61675 0.0
C423 C 0.4049 0.81351 0.21544 0.0
C424 C 0.37628 0.7809 0.21164 0.0
C425 C 0.41948 0.83082 0.16689 0.0
C426 C 0.40605 0.81606 0.11273 0.0
H427 H 0.41482 0.82748 0.25642 0.0
H428 H 0.43983 0.85774 0.17214 0.0
S429 S 0.33682 0.7253 0.07908 0.0
N430 N 0.33935 0.72972 0.14903 0.0
N431 N 0.36601 0.76326 0.05745 0.0
C432 C 0.37939 0.78131 0.10803 0.0
C433 C 0.36467 0.76346 0.15759 0.0
C434 C 0.84784 0.17147 0.27352 0.0
C435 C 0.81797 0.18796 0.26462 0.0
C436 C 0.8518 0.15125 0.32235 0.0
C437 C 0.82583 0.14634 0.36371 0.0
H438 H 0.869 0.17572 0.24379 0.0
H439 H 0.87609 0.1412 0.329 0.0
S440 S 0.74019 0.17772 0.35567 0.0
N441 N 0.76042 0.19411 0.29819 0.0
N442 N 0.76744 0.1551 0.38893 0.0
C443 C 0.79488 0.16027 0.35335 0.0
C444 C 0.79106 0.18134 0.30413 0.0
C445 C 0.44865 0.47806 0.88672 0.0
C446 C 0.41773 0.49318 0.89657 0.0
C447 C 0.47004 0.47273 0.93196 0.0
C448 C 0.46138 0.48301 0.988 0.0
H449 H 0.45429 0.46577 0.84481 0.0
H450 H 0.49088 0.456 0.92355 0.0
S451 S 0.38946 0.53482 0.03466 0.0
N452 N 0.3841 0.5267 0.96525 0.0
N453 N 0.42464 0.51704 0.05002 0.0
C454 C 0.43388 0.50414 -0.00263 0.0
C455 C 0.41186 0.5091 0.9516 0.0
C456 C 0.29857 0.89566 0.45773 0.0
C457 C 0.33216 0.88661 0.4532 0.0
C458 C 0.29355 0.9354 0.47397 0.0
C459 C 0.32193 0.96761 0.48501 0.0
H460 H 0.27594 0.87177 0.44957 0.0
H461 H 0.26729 0.94101 0.47793 0.0
S462 S 0.41503 0.96063 0.47829 0.0
N463 N 0.39427 0.91357 0.46068 0.0
N464 N 0.38463 0.98823 0.49042 0.0
C465 C 0.35559 0.95923 0.47994 0.0
C466 C 0.36076 0.91872 0.46427 0.0
C467 C 0.6313 0.88477 0.83478 0.0
C468 C 0.63893 0.84688 0.81355 0.0
C469 C 0.60418 0.88683 0.873 0.0
C470 C 0.58382 0.85111 0.89155 0.0
H471 H 0.64759 0.91313 0.82437 0.0
H472 H 0.60096 0.91653 0.8916 0.0
S473 S 0.58917 0.7445 0.8428 0.0
N474 N 0.62057 0.77274 0.80886 0.0
N475 N 0.57022 0.77705 0.88153 0.0
C476 C 0.58919 0.81319 0.86728 0.0
C477 C 0.61655 0.81096 0.82798 0.0
loop_
_geom_bond_atom_site_label_1
_geom_bond_atom_site_label_2
_geom_bond_distance
_geom_bond_site_symmetry_2
_ccdc_geom_bond_type
O0 Cd1 2.300 . S
O0 C7 1.275 . S
Cd1 O0 2.300 . S
Cd1 O9 2.381 . S
Cd1 O10 2.378 . S
O2 Cd3 2.385 . S
O2 C7 1.255 . S
Cd3 O2 2.385 . S
Cd3 O4 2.317 . S
O4 Cd3 2.317 . S
O4 C5 1.232 . S
C5 O4 1.232 . S
C5 O6 1.218 . S
O6 C5 1.218 . S
C7 O0 1.275 . S
C7 O2 1.255 . S
C8 O9 1.258 . S
C8 O10 1.256 . S
O9 Cd1 2.381 . S
O9 C8 1.258 . S
O10 Cd1 2.378 . S
O10 C8 1.256 . S
O11 Cd12 2.300 . S
O11 C18 1.275 . S
Cd12 O11 2.300 . S
Cd12 O20 2.381 . S
Cd12 O21 2.378 . S
O13 Cd14 2.385 . S
O13 C18 1.255 . S
Cd14 O13 2.385 . S
Cd14 O15 2.317 . S
O15 Cd14 2.317 . S
O15 C16 1.232 . S
C16 O15 1.232 . S
C16 O17 1.218 . S
O17 C16 1.218 . S
C18 O11 1.275 . S
C18 O13 1.255 . S
C19 O20 1.258 . S
C19 O21 1.256 . S
O20 Cd12 2.381 . S
O20 C19 1.258 . S
O21 Cd12 2.378 . S
O21 C19 1.256 . S
O22 Cd23 2.300 . S
O22 C29 1.275 . S
Cd23 O22 2.300 . S
Cd23 O31 2.381 . S
Cd23 O32 2.378 . S
O24 Cd25 2.385 . S
O24 C29 1.255 . S
Cd25 O24 2.385 . S
Cd25 O26 2.317 . S
O26 Cd25 2.317 . S
O26 C27 1.232 . S
C27 O26 1.232 . S
C27 O28 1.218 . S
O28 C27 1.218 . S
C29 O22 1.275 . S
C29 O24 1.255 . S
C30 O31 1.258 . S
C30 O32 1.256 . S
O31 Cd23 2.381 . S
O31 C30 1.258 . S
O32 Cd23 2.378 . S
O32 C30 1.256 . S
O33 Cd34 2.300 . S
O33 C40 1.275 . S
Cd34 O33 2.300 . S
Cd34 O42 2.381 . S
Cd34 O43 2.378 . S
O35 Cd36 2.385 . S
O35 C40 1.255 . S
Cd36 O35 2.385 . S
Cd36 O37 2.317 . S
O37 Cd36 2.317 . S
O37 C38 1.232 . S
C38 O37 1.232 . S
C38 O39 1.218 . S
O39 C38 1.218 . S
C40 O33 1.275 . S
C40 O35 1.255 . S
C41 O42 1.258 . S
C41 O43 1.256 . S
O42 Cd34 2.381 . S
O42 C41 1.258 . S
O43 Cd34 2.378 . S
O43 C41 1.256 . S
O44 Cd45 2.300 . S
O44 C51 1.275 . S
Cd45 O44 2.300 . S
Cd45 O53 2.381 . S
Cd45 O54 2.378 . S
O46 Cd47 2.385 . S
O46 C51 1.255 . S
Cd47 O46 2.385 . S
Cd47 O48 2.317 . S
O48 Cd47 2.317 . S
O48 C49 1.232 . S
C49 O48 1.232 . S
C49 O50 1.218 . S
O50 C49 1.218 . S
C51 O44 1.275 . S
C51 O46 1.255 . S
C52 O53 1.258 . S
C52 O54 1.256 . S
O53 Cd45 2.381 . S
O53 C52 1.258 . S
O54 Cd45 2.378 . S
O54 C52 1.256 . S
O55 Cd56 2.300 . S
O55 C62 1.275 . S
Cd56 O55 2.300 . S
Cd56 O64 2.381 . S
Cd56 O65 2.378 . S
O57 Cd58 2.385 . S
O57 C62 1.255 . S
Cd58 O57 2.385 . S
Cd58 O59 2.317 . S
O59 Cd58 2.317 . S
O59 C60 1.232 . S
C60 O59 1.232 . S
C60 O61 1.218 . S
O61 C60 1.218 . S
C62 O55 1.275 . S
C62 O57 1.255 . S
C63 O64 1.258 . S
C63 O65 1.256 . S
O64 Cd56 2.381 . S
O64 C63 1.258 . S
O65 Cd56 2.378 . S
O65 C63 1.256 . S
O66 Cd67 2.300 . S
O66 C73 1.275 . S
Cd67 O66 2.300 . S
Cd67 O75 2.381 . S
Cd67 O76 2.378 . S
O68 Cd69 2.385 . S
O68 C73 1.255 . S
Cd69 O68 2.385 . S
Cd69 O70 2.317 . S
O70 Cd69 2.317 . S
O70 C71 1.232 . S
C71 O70 1.232 . S
C71 O72 1.218 . S
O72 C71 1.218 . S
C73 O66 1.275 . S
C73 O68 1.255 . S
C74 O75 1.258 . S
C74 O76 1.256 . S
O75 Cd67 2.381 . S
O75 C74 1.258 . S
O76 Cd67 2.378 . S
O76 C74 1.256 . S
O77 Cd78 2.300 . S
O77 C84 1.275 . S
Cd78 O77 2.300 . S
Cd78 O86 2.381 . S
Cd78 O87 2.378 . S
O79 Cd80 2.385 . S
O79 C84 1.255 . S
Cd80 O79 2.385 . S
Cd80 O81 2.317 . S
O81 Cd80 2.317 . S
O81 C82 1.232 . S
C82 O81 1.232 . S
C82 O83 1.218 . S
O83 C82 1.218 . S
C84 O77 1.275 . S
C84 O79 1.255 . S
C85 O86 1.258 . S
C85 O87 1.256 . S
O86 Cd78 2.381 . S
O86 C85 1.258 . S
O87 Cd78 2.378 . S
O87 C85 1.256 . S
H88 C96 0.930 1_455 S
H89 C99 0.930 1_455 S
H90 C101 0.930 . S
H91 C102 0.970 . S
H92 C102 0.970 . S
H93 C104 0.930 . S
H94 C106 0.930 . S
H95 C108 0.930 . S
C96 H88 0.930 1_655 S
C96 C97 1.382 . S
C96 C98 1.426 1_655 S
C97 C96 1.382 . S
C97 C101 1.389 . S
C98 C96 1.426 1_455 S
C98 C99 1.375 1_455 S
C98 C102 1.532 . S
C99 H89 0.930 1_655 S
C99 C98 1.375 1_655 S
C99 C100 1.416 . S
C100 C99 1.416 . S
C100 C101 1.371 . S
C101 H90 0.930 . S
C101 C97 1.389 . S
C101 C100 1.371 . S
C102 H91 0.970 . S
C102 H92 0.970 . S
C102 C98 1.532 . S
C102 C103 1.499 . S
C103 C102 1.499 . S
C103 C104 1.370 . S
C103 C108 1.415 . S
C104 H93 0.930 . S
C104 C103 1.370 . S
C104 C105 1.407 . S
C105 C104 1.407 . S
C105 C106 1.365 . S
C106 H94 0.930 . S
C106 C105 1.365 . S
C106 C107 1.393 . S
C107 C106 1.393 . S
C107 C108 1.387 . S
C108 H95 0.930 . S
C108 C103 1.415 . S
C108 C107 1.387 . S
H109 C117 0.930 . S
H110 C120 0.930 . S
H111 C122 0.930 . S
H112 C123 0.970 . S
H113 C123 0.970 . S
H114 C125 0.930 . S
H115 C127 0.930 . S
H116 C129 0.930 . S
C117 H109 0.930 . S
C117 C118 1.382 . S
C117 C119 1.426 . S
C118 C117 1.382 . S
C118 C122 1.389 . S
C119 C117 1.426 . S
C119 C120 1.375 . S
C119 C123 1.532 . S
C120 H110 0.930 . S
C120 C119 1.375 . S
C120 C121 1.416 . S
C121 C120 1.416 . S
C121 C122 1.371 . S
C122 H111 0.930 . S
C122 C118 1.389 . S
C122 C121 1.371 . S
C123 H112 0.970 . S
C123 H113 0.970 . S
C123 C119 1.532 . S
C123 C124 1.499 1_455 S
C124 C123 1.499 1_655 S
C124 C125 1.370 . S
C124 C129 1.415 . S
C125 H114 0.930 . S
C125 C124 1.370 . S
C125 C126 1.407 . S
C126 C125 1.407 . S
C126 C127 1.365 . S
C127 H115 0.930 . S
C127 C126 1.365 . S
C127 C128 1.393 . S
C128 C127 1.393 . S
C128 C129 1.387 . S
C129 H116 0.930 . S
C129 C124 1.415 . S
C129 C128 1.387 . S
H130 C138 0.930 . S
H131 C141 0.930 . S
H132 C143 0.930 . S
H133 C144 0.970 . S
H134 C144 0.970 . S
H135 C146 0.930 . S
H136 C148 0.930 . S
H137 C150 0.930 . S
C138 H130 0.930 . S
C138 C139 1.382 . S
C138 C140 1.426 . S
C139 C138 1.382 . S
C139 C143 1.389 . S
C140 C138 1.426 . S
C140 C141 1.375 . S
C140 C144 1.532 . S
C141 H131 0.930 . S
C141 C140 1.375 . S
C141 C142 1.416 . S
C142 C141 1.416 . S
C142 C143 1.371 . S
C143 H132 0.930 . S
C143 C139 1.389 . S
C143 C142 1.371 . S
C144 H133 0.970 . S
C144 H134 0.970 . S
C144 C140 1.532 . S
C144 C145 1.499 . S
C145 C144 1.499 . S
C145 C146 1.370 . S
C145 C150 1.415 . S
C146 H135 0.930 . S
C146 C145 1.370 . S
C146 C147 1.407 . S
C147 C146 1.407 . S
C147 C148 1.365 . S
C148 H136 0.930 . S
C148 C147 1.365 . S
C148 C149 1.393 . S
C149 C148 1.393 . S
C149 C150 1.387 . S
C150 H137 0.930 . S
C150 C145 1.415 . S
C150 C149 1.387 . S
H151 C159 0.930 . S
H152 C162 0.930 . S
H153 C164 0.930 . S
H154 C165 0.970 1_556 S
H155 C165 0.970 . S
H156 C167 0.930 . S
H157 C169 0.930 . S
H158 C171 0.930 . S
C159 H151 0.930 . S
C159 C160 1.382 . S
C159 C161 1.426 1_556 S
C160 C159 1.382 . S
C160 C164 1.389 1_556 S
C161 C159 1.426 1_554 S
C161 C162 1.375 . S
C161 C165 1.532 . S
C162 H152 0.930 . S
C162 C161 1.375 . S
C162 C163 1.416 . S
C163 C162 1.416 . S
C163 C164 1.371 . S
C164 H153 0.930 . S
C164 C160 1.389 1_554 S
C164 C163 1.371 . S
C165 H154 0.970 1_554 S
C165 H155 0.970 . S
C165 C161 1.532 . S
C165 C166 1.499 . S
C166 C165 1.499 . S
C166 C167 1.370 1_554 S
C166 C171 1.415 . S
C167 H156 0.930 . S
C167 C166 1.370 1_556 S
C167 C168 1.407 . S
C168 C167 1.407 . S
C168 C169 1.365 . S
C169 H157 0.930 . S
C169 C168 1.365 . S
C169 C170 1.393 1_556 S
C170 C169 1.393 1_554 S
C170 C171 1.387 . S
C171 H158 0.930 . S
C171 C166 1.415 . S
C171 C170 1.387 . S
H172 C180 0.930 . S
H173 C183 0.930 . S
H174 C185 0.930 . S
H175 C186 0.970 . S
H176 C186 0.970 . S
H177 C188 0.930 . S
H178 C190 0.930 . S
H179 C192 0.930 . S
C180 H172 0.930 . S
C180 C181 1.382 . S
C180 C182 1.426 . S
C181 C180 1.382 . S
C181 C185 1.389 . S
C182 C180 1.426 . S
C182 C183 1.375 . S
C182 C186 1.532 . S
C183 H173 0.930 . S
C183 C182 1.375 . S
C183 C184 1.416 . S
C184 C183 1.416 . S
C184 C185 1.371 . S
C185 H174 0.930 . S
C185 C181 1.389 . S
C185 C184 1.371 . S
C186 H175 0.970 . S
C186 H176 0.970 . S
C186 C182 1.532 . S
C186 C187 1.499 1_545 S
C187 C186 1.499 1_565 S
C187 C188 1.370 . S
C187 C192 1.415 . S
C188 H177 0.930 . S
C188 C187 1.370 . S
C188 C189 1.407 . S
C189 C188 1.407 . S
C189 C190 1.365 . S
C190 H178 0.930 . S
C190 C189 1.365 . S
C190 C191 1.393 . S
C191 C190 1.393 . S
C191 C192 1.387 . S
C192 H179 0.930 . S
C192 C187 1.415 . S
C192 C191 1.387 . S
H193 C201 0.930 . S
H194 C204 0.930 . S
H195 C206 0.930 . S
H196 C207 0.970 1_556 S
H197 C207 0.970 . S
H198 C209 0.930 . S
H199 C211 0.930 . S
H200 C213 0.930 . S
C201 H193 0.930 . S
C201 C202 1.382 . S
C201 C203 1.426 1_556 S
C202 C201 1.382 . S
C202 C206 1.389 1_556 S
C203 C201 1.426 1_554 S
C203 C204 1.375 . S
C203 C207 1.532 . S
C204 H194 0.930 . S
C204 C203 1.375 . S
C204 C205 1.416 . S
C205 C204 1.416 . S
C205 C206 1.371 . S
C206 H195 0.930 . S
C206 C202 1.389 1_554 S
C206 C205 1.371 . S
C207 H196 0.970 1_554 S
C207 H197 0.970 . S
C207 C203 1.532 . S
C207 C208 1.499 . S
C208 C207 1.499 . S
C208 C209 1.370 1_554 S
C208 C213 1.415 . S
C209 H198 0.930 . S
C209 C208 1.370 1_556 S
C209 C210 1.407 . S
C210 C209 1.407 . S
C210 C211 1.365 1_556 S
C211 H199 0.930 . S
C211 C210 1.365 1_554 S
C211 C212 1.393 . S
C212 C211 1.393 . S
C212 C213 1.387 . S
C213 H200 0.930 . S
C213 C208 1.415 . S
C213 C212 1.387 . S
C214 C215 1.369 . S
C214 C216 1.419 . S
C214 H218 0.930 . S
C215 C214 1.369 . S
C215 C224 1.429 . S
C216 C214 1.419 . S
C216 C217 1.363 . S
C216 H219 0.929 . S
C217 C216 1.363 . S
C217 C223 1.428 . S
H218 C214 0.930 . S
H219 C216 0.929 . S
S220 N221 1.613 . S
S220 N222 1.610 . S
N221 S220 1.613 . S
N221 C224 1.350 . S
N222 S220 1.610 . S
N222 C223 1.351 . S
C223 C217 1.428 . S
C223 N222 1.351 . S
C223 C224 1.434 . S
C224 C215 1.429 . S
C224 N221 1.350 . S
C224 C223 1.434 . S
C225 C226 1.369 . S
C225 C227 1.419 . S
C225 H229 0.930 . S
C226 C225 1.369 . S
C226 C235 1.429 . S
C227 C225 1.419 . S
C227 C228 1.363 . S
C227 H230 0.929 . S
C228 C227 1.363 . S
C228 C234 1.428 . S
H229 C225 0.930 . S
H230 C227 0.929 . S
S231 N232 1.613 . S
S231 N233 1.610 . S
N232 S231 1.613 . S
N232 C235 1.350 . S
N233 S231 1.610 . S
N233 C234 1.351 . S
C234 C228 1.428 . S
C234 N233 1.351 . S
C234 C235 1.434 . S
C235 C226 1.429 . S
C235 N232 1.350 . S
C235 C234 1.434 . S
C236 C237 1.369 . S
C236 C238 1.419 . S
C236 H240 0.930 . S
C237 C236 1.369 . S
C237 C246 1.429 . S
C238 C236 1.419 . S
C238 C239 1.363 . S
C238 H241 0.929 . S
C239 C238 1.363 . S
C239 C245 1.428 . S
H240 C236 0.930 . S
H241 C238 0.929 . S
S242 N243 1.613 . S
S242 N244 1.610 . S
N243 S242 1.613 . S
N243 C246 1.350 . S
N244 S242 1.610 . S
N244 C245 1.351 . S
C245 C239 1.428 . S
C245 N244 1.351 . S
C245 C246 1.434 . S
C246 C237 1.429 . S
C246 N243 1.350 . S
C246 C245 1.434 . S
C247 C248 1.369 . S
C247 C249 1.419 . S
C247 H251 0.930 . S
C248 C247 1.369 . S
C248 C257 1.429 . S
C249 C247 1.419 . S
C249 C250 1.363 . S
C249 H252 0.929 . S
C250 C249 1.363 . S
C250 C256 1.428 . S
H251 C247 0.930 . S
H252 C249 0.929 . S
S253 N254 1.613 . S
S253 N255 1.610 . S
N254 S253 1.613 . S
N254 C257 1.350 . S
N255 S253 1.610 . S
N255 C256 1.351 . S
C256 C250 1.428 . S
C256 N255 1.351 . S
C256 C257 1.434 . S
C257 C248 1.429 . S
C257 N254 1.350 . S
C257 C256 1.434 . S
C258 C259 1.369 . S
C258 C260 1.419 . S
C258 H262 0.930 . S
C259 C258 1.369 . S
C259 C268 1.429 . S
C260 C258 1.419 . S
C260 C261 1.363 . S
C260 H263 0.929 . S
C261 C260 1.363 . S
C261 C267 1.428 . S
H262 C258 0.930 . S
H263 C260 0.929 . S
S264 N265 1.613 . S
S264 N266 1.610 . S
N265 S264 1.613 . S
N265 C268 1.350 . S
N266 S264 1.610 . S
N266 C267 1.351 . S
C267 C261 1.428 . S
C267 N266 1.351 . S
C267 C268 1.434 . S
C268 C259 1.429 . S
C268 N265 1.350 . S
C268 C267 1.434 . S
C269 C270 1.369 . S
C269 C271 1.419 . S
C269 H273 0.930 . S
C270 C269 1.369 . S
C270 C279 1.429 . S
C271 C269 1.419 . S
C271 C272 1.363 . S
C271 H274 0.929 . S
C272 C271 1.363 . S
C272 C278 1.428 . S
H273 C269 0.930 . S
H274 C271 0.929 . S
S275 N276 1.613 1_554 S
S275 N277 1.610 . S
N276 S275 1.613 1_556 S
N276 C279 1.350 . S
N277 S275 1.610 . S
N277 C278 1.351 1_554 S
C278 C272 1.428 . S
C278 N277 1.351 1_556 S
C278 C279 1.434 . S
C279 C270 1.429 . S
C279 N276 1.350 . S
C279 C278 1.434 . S
C280 C281 1.369 . S
C280 C282 1.419 . S
C280 H284 0.930 . S
C281 C280 1.369 . S
C281 C290 1.429 . S
C282 C280 1.419 . S
C282 C283 1.363 . S
C282 H285 0.929 . S
C283 C282 1.363 . S
C283 C289 1.428 . S
H284 C280 0.930 . S
H285 C282 0.929 . S
S286 N287 1.613 . S
S286 N288 1.610 . S
N287 S286 1.613 . S
N287 C290 1.350 . S
N288 S286 1.610 . S
N288 C289 1.351 . S
C289 C283 1.428 . S
C289 N288 1.351 . S
C289 C290 1.434 . S
C290 C281 1.429 . S
C290 N287 1.350 . S
C290 C289 1.434 . S
C291 C292 1.369 . S
C291 C293 1.419 . S
C291 H295 0.930 . S
C292 C291 1.369 . S
C292 C301 1.429 . S
C293 C291 1.419 . S
C293 C294 1.363 . S
C293 H296 0.929 . S
C294 C293 1.363 . S
C294 C300 1.428 . S
H295 C291 0.930 . S
H296 C293 0.929 . S
S297 N298 1.613 . S
S297 N299 1.610 . S
N298 S297 1.613 . S
N298 C301 1.350 . S
N299 S297 1.610 . S
N299 C300 1.351 . S
C300 C294 1.428 . S
C300 N299 1.351 . S
C300 C301 1.434 . S
C301 C292 1.429 . S
C301 N298 1.350 . S
C301 C300 1.434 . S
C302 C303 1.369 . S
C302 C304 1.419 1_565 S
C302 H306 0.930 . S
C303 C302 1.369 . S
C303 C312 1.429 1_565 S
C304 C302 1.419 1_545 S
C304 C305 1.363 . S
C304 H307 0.929 . S
C305 C304 1.363 . S
C305 C311 1.428 . S
H306 C302 0.930 . S
H307 C304 0.929 . S
S308 N309 1.613 . S
S308 N310 1.610 . S
N309 S308 1.613 . S
N309 C312 1.350 . S
N310 S308 1.610 . S
N310 C311 1.351 . S
C311 C305 1.428 . S
C311 N310 1.351 . S
C311 C312 1.434 . S
C312 C303 1.429 1_545 S
C312 N309 1.350 . S
C312 C311 1.434 . S
C313 C314 1.369 . S
C313 C315 1.419 . S
C313 H317 0.930 . S
C314 C313 1.369 . S
C314 C323 1.429 . S
C315 C313 1.419 . S
C315 C316 1.363 . S
C315 H318 0.929 . S
C316 C315 1.363 . S
C316 C322 1.428 . S
H317 C313 0.930 . S
H318 C315 0.929 . S
S319 N320 1.613 1_556 S
S319 N321 1.610 1_556 S
N320 S319 1.613 1_554 S
N320 C323 1.350 . S
N321 S319 1.610 1_554 S
N321 C322 1.351 . S
C322 C316 1.428 . S
C322 N321 1.351 . S
C322 C323 1.434 . S
C323 C314 1.429 . S
C323 N320 1.350 . S
C323 C322 1.434 . S
C324 C325 1.369 . S
C324 C326 1.419 . S
C324 H328 0.930 . S
C325 C324 1.369 . S
C325 C334 1.429 . S
C326 C324 1.419 . S
C326 C327 1.363 . S
C326 H329 0.929 . S
C327 C326 1.363 . S
C327 C333 1.428 . S
H328 C324 0.930 . S
H329 C326 0.929 . S
S330 N331 1.613 . S
S330 N332 1.610 . S
N331 S330 1.613 . S
N331 C334 1.350 . S
N332 S330 1.610 . S
N332 C333 1.351 . S
C333 C327 1.428 . S
C333 N332 1.351 . S
C333 C334 1.434 . S
C334 C325 1.429 . S
C334 N331 1.350 . S
C334 C333 1.434 . S
C335 C336 1.369 . S
C335 C337 1.419 . S
C335 H339 0.930 . S
C336 C335 1.369 . S
C336 C345 1.429 . S
C337 C335 1.419 . S
C337 C338 1.363 . S
C337 H340 0.929 . S
C338 C337 1.363 . S
C338 C344 1.428 . S
H339 C335 0.930 . S
H340 C337 0.929 . S
S341 N342 1.613 . S
S341 N343 1.610 . S
N342 S341 1.613 . S
N342 C345 1.350 . S
N343 S341 1.610 . S
N343 C344 1.351 . S
C344 C338 1.428 . S
C344 N343 1.351 . S
C344 C345 1.434 . S
C345 C336 1.429 . S
C345 N342 1.350 . S
C345 C344 1.434 . S
C346 C347 1.369 . S
C346 C348 1.419 . S
C346 H350 0.930 . S
C347 C346 1.369 . S
C347 C356 1.429 . S
C348 C346 1.419 . S
C348 C349 1.363 . S
C348 H351 0.929 . S
C349 C348 1.363 . S
C349 C355 1.428 . S
H350 C346 0.930 . S
H351 C348 0.929 . S
S352 N353 1.613 . S
S352 N354 1.610 . S
N353 S352 1.613 . S
N353 C356 1.350 . S
N354 S352 1.610 . S
N354 C355 1.351 . S
C355 C349 1.428 . S
C355 N354 1.351 . S
C355 C356 1.434 . S
C356 C347 1.429 . S
C356 N353 1.350 . S
C356 C355 1.434 . S
C357 C358 1.369 . S
C357 C359 1.419 . S
C357 H361 0.930 . S
C358 C357 1.369 . S
C358 C367 1.429 . S
C359 C357 1.419 . S
C359 C360 1.363 . S
C359 H362 0.929 . S
C360 C359 1.363 . S
C360 C366 1.428 . S
H361 C357 0.930 . S
H362 C359 0.929 . S
S363 N364 1.613 . S
S363 N365 1.610 . S
N364 S363 1.613 . S
N364 C367 1.350 . S
N365 S363 1.610 . S
N365 C366 1.351 . S
C366 C360 1.428 . S
C366 N365 1.351 . S
C366 C367 1.434 . S
C367 C358 1.429 . S
C367 N364 1.350 . S
C367 C366 1.434 . S
C368 C369 1.369 . S
C368 C370 1.419 . S
C368 H372 0.930 . S
C369 C368 1.369 . S
C369 C378 1.429 . S
C370 C368 1.419 . S
C370 C371 1.363 . S
C370 H373 0.929 . S
C371 C370 1.363 . S
C371 C377 1.428 . S
H372 C368 0.930 . S
H373 C370 0.929 . S
S374 N375 1.613 . S
S374 N376 1.610 . S
N375 S374 1.613 . S
N375 C378 1.350 . S
N376 S374 1.610 . S
N376 C377 1.351 . S
C377 C371 1.428 . S
C377 N376 1.351 . S
C377 C378 1.434 . S
C378 C369 1.429 . S
C378 N375 1.350 . S
C378 C377 1.434 . S
C379 C380 1.369 . S
C379 C381 1.419 . S
C379 H383 0.930 . S
C380 C379 1.369 . S
C380 C389 1.429 . S
C381 C379 1.419 . S
C381 C382 1.363 . S
C381 H384 0.929 . S
C382 C381 1.363 . S
C382 C388 1.428 . S
H383 C379 0.930 . S
H384 C381 0.929 . S
S385 N386 1.613 . S
S385 N387 1.610 . S
N386 S385 1.613 . S
N386 C389 1.350 . S
N387 S385 1.610 . S
N387 C388 1.351 . S
C388 C382 1.428 . S
C388 N387 1.351 . S
C388 C389 1.434 . S
C389 C380 1.429 . S
C389 N386 1.350 . S
C389 C388 1.434 . S
C390 C391 1.369 . S
C390 C392 1.419 . S
C390 H394 0.930 . S
C391 C390 1.369 . S
C391 C400 1.429 . S
C392 C390 1.419 . S
C392 C393 1.363 . S
C392 H395 0.929 . S
C393 C392 1.363 . S
C393 C399 1.428 . S
H394 C390 0.930 . S
H395 C392 0.929 . S
S396 N397 1.613 . S
S396 N398 1.610 . S
N397 S396 1.613 . S
N397 C400 1.350 . S
N398 S396 1.610 . S
N398 C399 1.351 . S
C399 C393 1.428 . S
C399 N398 1.351 . S
C399 C400 1.434 . S
C400 C391 1.429 . S
C400 N397 1.350 . S
C400 C399 1.434 . S
C401 C402 1.369 . S
C401 C403 1.419 . S
C401 H405 0.930 . S
C402 C401 1.369 . S
C402 C411 1.429 . S
C403 C401 1.419 . S
C403 C404 1.363 . S
C403 H406 0.929 . S
C404 C403 1.363 . S
C404 C410 1.428 . S
H405 C401 0.930 . S
H406 C403 0.929 . S
S407 N408 1.613 . S
S407 N409 1.610 . S
N408 S407 1.613 . S
N408 C411 1.350 . S
N409 S407 1.610 . S
N409 C410 1.351 . S
C410 C404 1.428 . S
C410 N409 1.351 . S
C410 C411 1.434 . S
C411 C402 1.429 . S
C411 N408 1.350 . S
C411 C410 1.434 . S
C412 C413 1.369 . S
C412 C414 1.419 . S
C412 H416 0.930 . S
C413 C412 1.369 . S
C413 C422 1.429 . S
C414 C412 1.419 . S
C414 C415 1.363 . S
C414 H417 0.929 . S
C415 C414 1.363 . S
C415 C421 1.428 . S
H416 C412 0.930 . S
H417 C414 0.929 . S
S418 N419 1.613 . S
S418 N420 1.610 . S
N419 S418 1.613 . S
N419 C422 1.350 . S
N420 S418 1.610 . S
N420 C421 1.351 . S
C421 C415 1.428 . S
C421 N420 1.351 . S
C421 C422 1.434 . S
C422 C413 1.429 . S
C422 N419 1.350 . S
C422 C421 1.434 . S
C423 C424 1.369 . S
C423 C425 1.419 . S
C423 H427 0.930 . S
C424 C423 1.369 . S
C424 C433 1.429 . S
C425 C423 1.419 . S
C425 C426 1.363 . S
C425 H428 0.929 . S
C426 C425 1.363 . S
C426 C432 1.428 . S
H427 C423 0.930 . S
H428 C425 0.929 . S
S429 N430 1.613 . S
S429 N431 1.610 . S
N430 S429 1.613 . S
N430 C433 1.350 . S
N431 S429 1.610 . S
N431 C432 1.351 . S
C432 C426 1.428 . S
C432 N431 1.351 . S
C432 C433 1.434 . S
C433 C424 1.429 . S
C433 N430 1.350 . S
C433 C432 1.434 . S
C434 C435 1.369 . S
C434 C436 1.419 . S
C434 H438 0.930 . S
C435 C434 1.369 . S
C435 C444 1.429 . S
C436 C434 1.419 . S
C436 C437 1.363 . S
C436 H439 0.929 . S
C437 C436 1.363 . S
C437 C443 1.428 . S
H438 C434 0.930 . S
H439 C436 0.929 . S
S440 N441 1.613 . S
S440 N442 1.610 . S
N441 S440 1.613 . S
N441 C444 1.350 . S
N442 S440 1.610 . S
N442 C443 1.351 . S
C443 C437 1.428 . S
C443 N442 1.351 . S
C443 C444 1.434 . S
C444 C435 1.429 . S
C444 N441 1.350 . S
C444 C443 1.434 . S
C445 C446 1.369 . S
C445 C447 1.419 . S
C445 H449 0.930 . S
C446 C445 1.369 . S
C446 C455 1.429 . S
C447 C445 1.419 . S
C447 C448 1.363 . S
C447 H450 0.929 . S
C448 C447 1.363 . S
C448 C454 1.428 . S
H449 C445 0.930 . S
H450 C447 0.929 . S
S451 N452 1.613 . S
S451 N453 1.610 . S
N452 S451 1.613 . S
N452 C455 1.350 . S
N453 S451 1.610 . S
N453 C454 1.351 . S
C454 C448 1.428 . S
C454 N453 1.351 . S
C454 C455 1.434 . S
C455 C446 1.429 . S
C455 N452 1.350 . S
C455 C454 1.434 . S
C456 C457 1.369 . S
C456 C458 1.419 1_565 S
C456 H460 0.930 . S
C457 C456 1.369 . S
C457 C466 1.429 . S
C458 C456 1.419 1_545 S
C458 C459 1.363 . S
C458 H461 0.929 . S
C459 C458 1.363 . S
C459 C465 1.428 . S
H460 C456 0.930 . S
H461 C458 0.929 . S
S462 N463 1.613 1_545 S
S462 N464 1.610 . S
N463 S462 1.613 1_565 S
N463 C466 1.350 . S
N464 S462 1.610 . S
N464 C465 1.351 . S
C465 C459 1.428 . S
C465 N464 1.351 . S
C465 C466 1.434 1_545 S
C466 C457 1.429 . S
C466 N463 1.350 . S
C466 C465 1.434 1_565 S
C467 C468 1.369 . S
C467 C469 1.419 . S
C467 H471 0.930 . S
C468 C467 1.369 . S
C468 C477 1.429 . S
C469 C467 1.419 . S
C469 C470 1.363 . S
C469 H472 0.929 . S
C470 C469 1.363 . S
C470 C476 1.428 . S
H471 C467 0.930 . S
H472 C469 0.929 . S
S473 N474 1.613 . S
S473 N475 1.610 . S
N474 S473 1.613 . S
N474 C477 1.350 . S
N475 S473 1.610 . S
N475 C476 1.351 . S
C476 C470 1.428 . S
C476 N475 1.351 . S
C476 C477 1.434 . S
C477 C468 1.429 . S
C477 N474 1.350 . S
C477 C476 1.434 . S
C217 C105 1.698 . S
C215 C5 1.762 . S
C228 C118 1.384 . S
C226 C16 1.297 . S
C239 C100 1.648 . S
C237 C30 1.711 . S
C250 C128 1.558 . S
C248 C40 1.629 . S
C261 C139 1.461 . S
C259 C8 1.538 . S
C272 C160 1.302 . S
C270 C18 1.402 . S
C281 C29 1.661 . S
C283 C189 1.588 . S
C294 C210 1.617 . S
C292 C38 1.471 . S
C305 C149 1.444 . S
C303 C19 1.459 . S
C314 C27 1.418 . S
C316 C170 1.465 . S
C327 C184 1.446 . S
C325 C41 1.564 . S
C338 C205 1.778 . S
C336 C7 1.764 . S
C347 C52 1.689 . S
C349 C126 1.534 . S
C360 C97 1.830 . S
C358 C62 1.884 . S
C369 C74 1.686 . S
C371 C121 1.410 . S
C380 C82 1.243 . S
C382 C107 1.552 . S
C393 C191 1.702 . S
C391 C51 1.663 . S
C404 C212 1.804 . S
C402 C60 1.571 . S
C415 C142 1.389 . S
C413 C71 1.369 . S
C424 C84 1.506 . S
C426 C163 1.433 . S
C437 C181 1.586 . S
C435 C63 1.662 . S
C448 C202 1.643 . S
C446 C73 1.657 . S
C459 C147 1.458 . S
C457 C85 1.522 . S
C468 C49 1.365 . S
C470 C168 1.506 . S
