# Generated by pormake.
# Topology wbl, (4,4)-cn, num edge types: 1
# Building blocks:
#     Node 0, Type 0, BuildingBlock: NAWXER_clean_linker_0, # of connection points: 4
#     Node 1, Type 0, BuildingBlock: NAWXER_clean_linker_0, # of connection points: 4
#     Node 2, Type 0, BuildingBlock: NAWXER_clean_linker_0, # of connection points: 4
#     Node 3, Type 0, BuildingBlock: NAWXER_clean_linker_0, # of connection points: 4
#     Node 4, Type 0, BuildingBlock: NAWXER_clean_linker_0, # of connection points: 4
#     Node 5, Type 0, BuildingBlock: NAWXER_clean_linker_0, # of connection points: 4
#     Node 6, Type 0, BuildingBlock: NAWXER_clean_linker_0, # of connection points: 4
#     Node 7, Type 0, BuildingBlock: NAWXER_clean_linker_0, # of connection points: 4
#     Node 8, Type 1, BuildingBlock: KUFVIS_clean_sbu_0, # of connection points: 4
#     Node 9, Type 1, BuildingBlock: KUFVIS_clean_sbu_0, # of connection points: 4
#     Node 10, Type 1, BuildingBlock: KUFVIS_clean_sbu_0, # of connection points: 4
#     Node 11, Type 1, BuildingBlock: KUFVIS_clean_sbu_0, # of connection points: 4
#     Node 12, Type 1, BuildingBlock: KUFVIS_clean_sbu_0, # of connection points: 4
#     Node 13, Type 1, BuildingBlock: KUFVIS_clean_sbu_0, # of connection points: 4
#     Node 14, Type 1, BuildingBlock: KUFVIS_clean_sbu_0, # of connection points: 4
#     Node 15, Type 1, BuildingBlock: KUFVIS_clean_sbu_0, # of connection points: 4
#     Edge 16, Type (0, 1), BuildingBlock: AJUNOK_clean_linker_0, # of connection points: 2
#     Edge 17, Type (0, 1), BuildingBlock: AJUNOK_clean_linker_0, # of connection points: 2
#     Edge 18, Type (0, 1), BuildingBlock: AJUNOK_clean_linker_0, # of connection points: 2
#     Edge 19, Type (0, 1), BuildingBlock: AJUNOK_clean_linker_0, # of connection points: 2
#     Edge 20, Type (0, 1), BuildingBlock: AJUNOK_clean_linker_0, # of connection points: 2
#     Edge 21, Type (0, 1), BuildingBlock: AJUNOK_clean_linker_0, # of connection points: 2
#     Edge 22, Type (0, 1), BuildingBlock: AJUNOK_clean_linker_0, # of connection points: 2
#     Edge 23, Type (0, 1), BuildingBlock: AJUNOK_clean_linker_0, # of connection points: 2
#     Edge 24, Type (0, 1), BuildingBlock: AJUNOK_clean_linker_0, # of connection points: 2
#     Edge 25, Type (0, 1), BuildingBlock: AJUNOK_clean_linker_0, # of connection points: 2
#     Edge 26, Type (0, 1), BuildingBlock: AJUNOK_clean_linker_0, # of connection points: 2
#     Edge 27, Type (0, 1), BuildingBlock: AJUNOK_clean_linker_0, # of connection points: 2
#     Edge 28, Type (0, 1), BuildingBlock: AJUNOK_clean_linker_0, # of connection points: 2
#     Edge 29, Type (0, 1), BuildingBlock: AJUNOK_clean_linker_0, # of connection points: 2
#     Edge 30, Type (0, 1), BuildingBlock: AJUNOK_clean_linker_0, # of connection points: 2
#     Edge 31, Type (0, 1), BuildingBlock: AJUNOK_clean_linker_0, # of connection points: 2
#     Edge 32, Type (0, 1), BuildingBlock: AJUNOK_clean_linker_0, # of connection points: 2
#     Edge 33, Type (0, 1), BuildingBlock: AJUNOK_clean_linker_0, # of connection points: 2
#     Edge 34, Type (0, 1), BuildingBlock: AJUNOK_clean_linker_0, # of connection points: 2
#     Edge 35, Type (0, 1), BuildingBlock: AJUNOK_clean_linker_0, # of connection points: 2
#     Edge 36, Type (0, 1), BuildingBlock: AJUNOK_clean_linker_0, # of connection points: 2
#     Edge 37, Type (0, 1), BuildingBlock: AJUNOK_clean_linker_0, # of connection points: 2
#     Edge 38, Type (0, 1), BuildingBlock: AJUNOK_clean_linker_0, # of connection points: 2
#     Edge 39, Type (0, 1), BuildingBlock: AJUNOK_clean_linker_0, # of connection points: 2
#     Edge 40, Type (0, 1), BuildingBlock: AJUNOK_clean_linker_0, # of connection points: 2
#     Edge 41, Type (0, 1), BuildingBlock: AJUNOK_clean_linker_0, # of connection points: 2
#     Edge 42, Type (0, 1), BuildingBlock: AJUNOK_clean_linker_0, # of connection points: 2
#     Edge 43, Type (0, 1), BuildingBlock: AJUNOK_clean_linker_0, # of connection points: 2
#     Edge 44, Type (0, 1), BuildingBlock: AJUNOK_clean_linker_0, # of connection points: 2
#     Edge 45, Type (0, 1), BuildingBlock: AJUNOK_clean_linker_0, # of connection points: 2
#     Edge 46, Type (0, 1), BuildingBlock: AJUNOK_clean_linker_0, # of connection points: 2
#     Edge 47, Type (0, 1), BuildingBlock: AJUNOK_clean_linker_0, # of connection points: 2
# Relax obj value: 0.159
# Max RMSD: 0.160
# Mean RMSD: 0.141
data_MOF--net-wbl--node1-KUFVIS_clean_sbu_0--node2-NAWXER_clean_linker_0--edge1-AJUNOK_clean_linker_0
_symmetry_space_group_name_H-M    P1
_symmetry_Int_Tables_number       1
_symmetry_cell_setting            triclinic
loop_
_symmetry_equiv_pos_as_xyz
'x, y, z'
_cell_length_a     35.235723
_cell_length_b     35.222394
_cell_length_c     60.700597
_cell_angle_alpha  90.011322
_cell_angle_beta   90.530448
_cell_angle_gamma 89.96575
loop_
_atom_site_label
_atom_site_type_symbol
_atom_site_fract_x
_atom_site_fract_y
_atom_site_fract_z
_atom_type_partial_charge
C0 C 0.08022 0.91429 0.36869 0.0
C1 C 0.10516 0.9312 0.38404 0.0
C2 C 0.06285 0.93616 0.35223 0.0
C3 C 0.06943 0.97538 0.35116 0.0
C4 C 0.11336 0.97016 0.38197 0.0
C5 C 0.09513 0.99216 0.36593 0.0
C6 C 0.04495 0.99941 0.33714 0.0
C7 C 0.14214 0.96896 0.29547 0.0
C8 C 0.1346 0.94273 0.27856 0.0
C9 C 0.11259 0.98635 0.30674 0.0
C10 C 0.07463 0.97759 0.30166 0.0
C11 C 0.09662 0.93404 0.27328 0.0
C12 C 0.0668 0.95171 0.28459 0.0
C13 C 0.04377 0.99652 0.314 0.0
C14 C 0.91894 0.10778 0.28986 0.0
C15 C 0.89157 0.0835 0.28038 0.0
C16 C 0.95163 0.09287 0.29987 0.0
C17 C 0.95782 0.05351 0.30019 0.0
C18 C 0.89903 0.04425 0.27979 0.0
C19 C 0.93201 0.02947 0.28941 0.0
C20 C 0.98913 0.03674 0.31324 0.0
C21 C 0.90289 0.07766 0.36411 0.0
C22 C 0.91863 0.09832 0.38183 0.0
C23 C 0.92638 0.06056 0.34848 0.0
C24 C 0.966 0.06495 0.34982 0.0
C25 C 0.95803 0.10433 0.38241 0.0
C26 C 0.98138 0.08784 0.36661 0.0
C27 C 0.99218 0.04169 0.33633 0.0
H28 H 0.07229 0.88472 0.37016 0.0
H29 H 0.04238 0.92292 0.34124 0.0
H30 H 0.13271 0.98401 0.39337 0.0
H31 H 0.10025 0.02248 0.36544 0.0
H32 H 0.17107 0.97573 0.30022 0.0
H33 H 0.1195 0.00691 0.31942 0.0
H34 H 0.09006 0.91381 0.26036 0.0
H35 H 0.03774 0.94476 0.28026 0.0
H36 H 0.91476 0.13824 0.28994 0.0
H37 H 0.97157 0.11192 0.30787 0.0
H38 H 0.87858 0.02468 0.27272 0.0
H39 H 0.93632 0.99901 0.2895 0.0
H40 H 0.87254 0.07316 0.36292 0.0
H41 H 0.91358 0.04225 0.33619 0.0
H42 H 0.97115 0.11986 0.39587 0.0
H43 H 0.01183 0.0915 0.36814 0.0
N44 N 0.01971 0.02232 0.34734 0.0
N45 N 0.01532 0.01466 0.30284 0.0
C46 C 0.91711 0.42494 0.61776 0.0
C47 C 0.93581 0.40869 0.63601 0.0
C48 C 0.9379 0.44345 0.60137 0.0
C49 C 0.97763 0.44628 0.60315 0.0
C50 C 0.97559 0.41075 0.63738 0.0
C51 C 0.99622 0.42947 0.62119 0.0
C52 C 0.99953 0.47095 0.58816 0.0
C53 C 0.9658 0.37111 0.54835 0.0
C54 C 0.9409 0.3781 0.53059 0.0
C55 C 0.98371 0.40099 0.5593 0.0
C56 C 0.97674 0.43878 0.55306 0.0
C57 C 0.93472 0.41585 0.52386 0.0
C58 C 0.95265 0.44594 0.53496 0.0
C59 C 0.99603 0.47029 0.56492 0.0
C60 C 0.10792 0.59201 0.53801 0.0
C61 C 0.08402 0.61951 0.52838 0.0
C62 C 0.09254 0.56028 0.54853 0.0
C63 C 0.05306 0.55526 0.54937 0.0
C64 C 0.04454 0.61337 0.52842 0.0
C65 C 0.02924 0.58143 0.53872 0.0
C66 C 0.03631 0.52471 0.56281 0.0
C67 C 0.0681 0.60622 0.62167 0.0
C68 C 0.1035 0.5944 0.63009 0.0
C69 C 0.04917 0.58454 0.60572 0.0
C70 C 0.06531 0.55071 0.59809 0.0
C71 C 0.12068 0.56186 0.62123 0.0
C72 C 0.10149 0.53992 0.60554 0.0
C73 C 0.04181 0.52337 0.58578 0.0
H74 H 0.88645 0.42402 0.61646 0.0
H75 H 0.92282 0.457 0.58788 0.0
H76 H 0.9907 0.39928 0.65152 0.0
H77 H 0.02675 0.43175 0.62309 0.0
H78 H 0.97116 0.34239 0.55396 0.0
H79 H 0.00326 0.39442 0.57264 0.0
H80 H 0.91627 0.42208 0.50996 0.0
H81 H 0.94739 0.4748 0.52956 0.0
H82 H 0.13846 0.5953 0.53772 0.0
H83 H 0.11144 0.54002 0.55639 0.0
H84 H 0.02531 0.63404 0.52125 0.0
H85 H 0.9987 0.57808 0.53923 0.0
H86 H 0.05428 0.63121 0.62823 0.0
H87 H 0.02099 0.59294 0.60034 0.0
H88 H 0.14775 0.55196 0.62749 0.0
H89 H 0.11404 0.51352 0.60003 0.0
N90 N 0.02282 0.49705 0.59759 0.0
N91 N 0.01382 0.4979 0.55307 0.0
C92 C 0.59693 0.41654 0.86457 0.0
C93 C 0.59923 0.42882 0.88669 0.0
C94 C 0.5769 0.43778 0.8487 0.0
C95 C 0.56132 0.47343 0.85404 0.0
C96 C 0.58306 0.46427 0.89184 0.0
C97 C 0.56555 0.48645 0.8758 0.0
C98 C 0.53649 0.49597 0.83875 0.0
C99 C 0.63709 0.46934 0.79774 0.0
C100 C 0.63008 0.44325 0.78063 0.0
C101 C 0.60713 0.48691 0.80866 0.0
C102 C 0.56937 0.47848 0.80294 0.0
C103 C 0.59226 0.43592 0.77431 0.0
C104 C 0.56215 0.45358 0.7853 0.0
C105 C 0.53776 0.4958 0.81539 0.0
C106 C 0.41452 0.61141 0.79299 0.0
C107 C 0.39101 0.58969 0.77906 0.0
C108 C 0.44588 0.59482 0.80353 0.0
C109 C 0.45388 0.55604 0.8006 0.0
C110 C 0.40035 0.55142 0.77525 0.0
C111 C 0.43164 0.53484 0.78581 0.0
C112 C 0.48321 0.53662 0.8141 0.0
C113 C 0.39515 0.57375 0.86586 0.0
C114 C 0.41136 0.59443 0.88345 0.0
C115 C 0.41825 0.55734 0.84974 0.0
C116 C 0.45781 0.56206 0.85078 0.0
C117 C 0.45066 0.60099 0.88354 0.0
C118 C 0.47357 0.58492 0.86744 0.0
C119 C 0.48383 0.53887 0.83728 0.0
H120 H 0.61012 0.39049 0.85926 0.0
H121 H 0.57301 0.42545 0.83255 0.0
H122 H 0.58273 0.47505 0.90851 0.0
H123 H 0.5539 0.51352 0.88087 0.0
H124 H 0.66586 0.47559 0.80304 0.0
H125 H 0.61347 0.50668 0.82186 0.0
H126 H 0.58598 0.41658 0.7609 0.0
H127 H 0.53324 0.44714 0.78038 0.0
H128 H 0.40815 0.64101 0.79611 0.0
H129 H 0.46315 0.61198 0.81451 0.0
H130 H 0.38241 0.53374 0.76492 0.0
H131 H 0.43728 0.50491 0.78331 0.0
H132 H 0.36484 0.56879 0.86512 0.0
H133 H 0.40543 0.53936 0.83727 0.0
H134 H 0.46412 0.61652 0.89689 0.0
H135 H 0.50404 0.58877 0.86865 0.0
N136 N 0.50988 0.51805 0.84842 0.0
N137 N 0.51039 0.51533 0.80398 0.0
C138 C 0.47844 0.88058 0.0367 0.0
C139 C 0.43908 0.87791 0.03294 0.0
C140 C 0.49397 0.91257 0.04688 0.0
C141 C 0.47066 0.94293 0.05299 0.0
C142 C 0.41608 0.90946 0.03777 0.0
C143 C 0.43188 0.94196 0.04757 0.0
C144 C 0.48732 0.97415 0.06604 0.0
C145 C 0.41503 0.91704 0.11913 0.0
C146 C 0.43638 0.89868 0.13568 0.0
C147 C 0.43305 0.93873 0.10295 0.0
C148 C 0.47279 0.94203 0.10281 0.0
C149 C 0.47622 0.90118 0.13507 0.0
C150 C 0.49415 0.92251 0.11881 0.0
C151 C 0.49177 0.97107 0.08911 0.0
C152 C 0.56375 0.10792 0.12402 0.0
C153 C 0.59567 0.09244 0.13486 0.0
C154 C 0.54441 0.08695 0.10787 0.0
C155 C 0.55664 0.05023 0.10252 0.0
C156 C 0.60935 0.05688 0.12819 0.0
C157 C 0.58962 0.03565 0.11244 0.0
C158 C 0.53262 0.02489 0.08908 0.0
C159 C 0.59962 0.09901 0.04452 0.0
C160 C 0.57652 0.12408 0.03237 0.0
C161 C 0.58385 0.06742 0.05497 0.0
C162 C 0.5446 0.06053 0.05368 0.0
C163 C 0.53742 0.11641 0.03054 0.0
C164 C 0.52169 0.08477 0.04095 0.0
C165 C 0.52702 0.02914 0.06619 0.0
H166 H 0.4971 0.85729 0.03248 0.0
H167 H 0.52412 0.91316 0.05058 0.0
H168 H 0.38571 0.90835 0.03491 0.0
H169 H 0.41361 0.96555 0.05179 0.0
H170 H 0.38432 0.91597 0.11925 0.0
H171 H 0.41573 0.9549 0.09154 0.0
H172 H 0.4936 0.88856 0.14792 0.0
H173 H 0.52477 0.92532 0.1194 0.0
H174 H 0.55295 0.13555 0.12868 0.0
H175 H 0.51884 0.09851 0.10042 0.0
H176 H 0.63403 0.04452 0.13607 0.0
H177 H 0.59935 0.00727 0.10852 0.0
H178 H 0.62986 0.10402 0.04608 0.0
H179 H 0.60229 0.04859 0.06426 0.0
H180 H 0.5187 0.13559 0.0217 0.0
H181 H 0.49137 0.08002 0.03974 0.0
N182 N 0.50493 0.00322 0.05537 0.0
N183 N 0.51465 0.99629 0.09964 0.0
C184 C 0.08094 0.59562 0.88503 0.0
C185 C 0.0972 0.57525 0.86757 0.0
C186 C 0.06015 0.57667 0.90127 0.0
C187 C 0.05528 0.53705 0.90024 0.0
C188 C 0.09237 0.53567 0.86672 0.0
C189 C 0.07165 0.51685 0.88282 0.0
C190 C 0.0303 0.51658 0.91579 0.0
C191 C 0.12903 0.55684 0.95473 0.0
C192 C 0.121 0.58176 0.97205 0.0
C193 C 0.09989 0.53698 0.94423 0.0
C194 C 0.06191 0.5425 0.95037 0.0
C195 C 0.08335 0.58652 0.97885 0.0
C196 C 0.05391 0.56702 0.96802 0.0
C197 C 0.03111 0.52136 0.93893 0.0
C198 C 0.90789 0.40824 0.96554 0.0
C199 C 0.8864 0.43145 0.97955 0.0
C200 C 0.93917 0.42293 0.95439 0.0
C201 C 0.94902 0.46146 0.95646 0.0
C202 C 0.89883 0.46888 0.98342 0.0
C203 C 0.92964 0.4838 0.97187 0.0
C204 C 0.97814 0.47913 0.94212 0.0
C205 C 0.89619 0.44156 0.88437 0.0
C206 C 0.91075 0.40809 0.87502 0.0
C207 C 0.91706 0.46129 0.90039 0.0
C208 C 0.95286 0.44798 0.90701 0.0
C209 C 0.9454 0.39356 0.88289 0.0
C210 C 0.96659 0.4137 0.89849 0.0
C211 C 0.97907 0.47299 0.91914 0.0
H212 H 0.08387 0.62619 0.88594 0.0
H213 H 0.04698 0.59306 0.91422 0.0
H214 H 0.10356 0.5193 0.85313 0.0
H215 H 0.06787 0.48641 0.88146 0.0
H216 H 0.15806 0.55215 0.94964 0.0
H217 H 0.10723 0.51693 0.93143 0.0
H218 H 0.07682 0.60523 0.99247 0.0
H219 H 0.02494 0.57121 0.97334 0.0
H220 H 0.89958 0.37912 0.96241 0.0
H221 H 0.95498 0.40425 0.94371 0.0
H222 H 0.88396 0.4871 0.99483 0.0
H223 H 0.93727 0.5133 0.97431 0.0
H224 H 0.86957 0.45336 0.87849 0.0
H225 H 0.90643 0.48812 0.90652 0.0
H226 H 0.95743 0.3681 0.87584 0.0
H227 H 0.99453 0.40344 0.90316 0.0
N228 N 0.0047 0.49214 0.90696 0.0
N229 N 0.00442 0.5031 0.9512 0.0
C230 C 0.408 0.56777 0.13502 0.0
C231 C 0.42531 0.59365 0.12059 0.0
C232 C 0.42935 0.54958 0.15143 0.0
C233 C 0.46849 0.55614 0.15328 0.0
C234 C 0.4643 0.60134 0.12327 0.0
C235 C 0.48581 0.5822 0.13917 0.0
C236 C 0.49193 0.53252 0.1681 0.0
C237 C 0.45259 0.62997 0.207 0.0
C238 C 0.42853 0.62209 0.22464 0.0
C239 C 0.47203 0.60078 0.19652 0.0
C240 C 0.46691 0.56272 0.20289 0.0
C241 C 0.42428 0.58437 0.23175 0.0
C242 C 0.44329 0.55481 0.22087 0.0
C243 C 0.4876 0.53201 0.19118 0.0
C244 C 0.59956 0.41779 0.22479 0.0
C245 C 0.57817 0.38471 0.22883 0.0
C246 C 0.58345 0.44867 0.21356 0.0
C247 C 0.54542 0.44744 0.20667 0.0
C248 C 0.5398 0.38412 0.22206 0.0
C249 C 0.52343 0.41549 0.21156 0.0
C250 C 0.52888 0.47819 0.1932 0.0
C251 C 0.57541 0.39531 0.14101 0.0
C252 C 0.59711 0.41305 0.12459 0.0
C253 C 0.5574 0.41695 0.15722 0.0
C254 C 0.56187 0.45656 0.15775 0.0
C255 C 0.60388 0.45223 0.12623 0.0
C256 C 0.58646 0.4737 0.14262 0.0
C257 C 0.53584 0.48129 0.17037 0.0
H258 H 0.37843 0.5601 0.13301 0.0
H259 H 0.41572 0.52888 0.16192 0.0
H260 H 0.47848 0.62137 0.1126 0.0
H261 H 0.51607 0.58737 0.1403 0.0
H262 H 0.4571 0.65897 0.20168 0.0
H263 H 0.49168 0.60823 0.18363 0.0
H264 H 0.40627 0.57786 0.2456 0.0
H265 H 0.4394 0.52586 0.2264 0.0
H266 H 0.62902 0.41956 0.2299 0.0
H267 H 0.60078 0.47325 0.20996 0.0
H268 H 0.52265 0.35889 0.22392 0.0
H269 H 0.49408 0.41398 0.20614 0.0
H270 H 0.57035 0.365 0.1405 0.0
H271 H 0.53779 0.40291 0.16811 0.0
H272 H 0.62033 0.46686 0.11386 0.0
H273 H 0.59019 0.50424 0.14256 0.0
N274 N 0.51647 0.50793 0.15872 0.0
N275 N 0.50554 0.50412 0.20292 0.0
C276 C 0.44191 0.90852 0.38256 0.0
C277 C 0.40756 0.92156 0.37348 0.0
C278 C 0.46062 0.92955 0.39882 0.0
C279 C 0.44467 0.96327 0.40683 0.0
C280 C 0.39074 0.95449 0.38219 0.0
C281 C 0.40922 0.97524 0.39878 0.0
C282 C 0.46853 0.98891 0.42014 0.0
C283 C 0.38914 0.97767 0.48466 0.0
C284 C 0.37629 0.94077 0.47986 0.0
C285 C 0.41969 0.99327 0.47322 0.0
C286 C 0.43837 0.97223 0.45691 0.0
C287 C 0.39675 0.91877 0.4647 0.0
C288 C 0.42772 0.93418 0.45354 0.0
C289 C 0.46789 0.99107 0.44338 0.0
C290 C 0.58892 0.11172 0.46065 0.0
C291 C 0.61248 0.09107 0.47513 0.0
C292 C 0.55717 0.0945 0.45086 0.0
C293 C 0.54901 0.05612 0.45505 0.0
C294 C 0.60281 0.05342 0.48029 0.0
C295 C 0.57128 0.03622 0.47044 0.0
C296 C 0.51955 0.03528 0.4424 0.0
C297 C 0.60598 0.07351 0.3908 0.0
C298 C 0.58931 0.09247 0.37271 0.0
C299 C 0.58327 0.05552 0.40648 0.0
C300 C 0.54351 0.05718 0.4047 0.0
C301 C 0.54958 0.09519 0.37149 0.0
C302 C 0.52699 0.07768 0.38727 0.0
C303 C 0.51854 0.03446 0.41912 0.0
H304 H 0.45543 0.88331 0.37616 0.0
H305 H 0.48833 0.9203 0.40458 0.0
H306 H 0.36409 0.96494 0.37553 0.0
H307 H 0.39688 1.0016 0.40449 0.0
H308 H 0.37496 0.99491 0.49685 0.0
H309 H 0.42782 0.02237 0.4766 0.0
H310 H 0.38798 0.89004 0.46083 0.0
H311 H 0.44291 0.91636 0.44213 0.0
H312 H 0.59563 0.14084 0.45649 0.0
H313 H 0.53987 0.1107 0.4394 0.0
H314 H 0.62077 0.03656 0.49107 0.0
H315 H 0.5655 0.00663 0.47396 0.0
H316 H 0.63654 0.07142 0.39239 0.0
H317 H 0.5968 0.03923 0.41949 0.0
H318 H 0.53581 0.10919 0.35768 0.0
H319 H 0.4964 0.0791 0.38543 0.0
N320 N 0.49332 0.01101 0.40903 0.0
N321 N 0.49383 0.01395 0.45362 0.0
C322 C 0.0786 0.91396 0.63716 0.0
C323 C 0.05924 0.89866 0.61885 0.0
C324 C 0.05873 0.93372 0.65345 0.0
C325 C 0.01919 0.93856 0.65163 0.0
C326 C 0.01959 0.90261 0.61748 0.0
C327 C 0.99985 0.92235 0.63366 0.0
C328 C 0.99858 0.9651 0.66624 0.0
C329 C 0.03056 0.86754 0.70816 0.0
C330 C 0.05771 0.87497 0.7247 0.0
C331 C 0.01256 0.8972 0.69703 0.0
C332 C 0.02176 0.93512 0.70181 0.0
C333 C 0.0666 0.91293 0.72978 0.0
C334 C 0.04844 0.94281 0.71857 0.0
C335 C 0.00289 0.96626 0.6894 0.0
C336 C 0.89892 0.10018 0.71121 0.0
C337 C 0.92371 0.12118 0.72478 0.0
C338 C 0.91124 0.06676 0.70105 0.0
C339 C 0.94895 0.05426 0.7037 0.0
C340 C 0.9605 0.10697 0.72873 0.0
C341 C 0.97296 0.07388 0.71831 0.0
C342 C 0.96434 0.02227 0.69053 0.0
C343 C 0.9321 0.10417 0.63285 0.0
C344 C 0.90007 0.09019 0.62145 0.0
C345 C 0.94971 0.08229 0.64927 0.0
C346 C 0.93554 0.04619 0.65437 0.0
C347 C 0.8844 0.05535 0.62789 0.0
C348 C 0.90237 0.03323 0.64393 0.0
C349 C 0.9583 0.01933 0.66756 0.0
H350 H 0.10918 0.9116 0.63851 0.0
H351 H 0.0745 0.94682 0.66683 0.0
H352 H 0.00395 0.89208 0.60331 0.0
H353 H 0.96948 0.92616 0.6317 0.0
H354 H 0.02362 0.83865 0.70353 0.0
H355 H 0.99144 0.89039 0.68457 0.0
H356 H 0.08749 0.91944 0.74243 0.0
H357 H 0.05575 0.97184 0.72267 0.0
H358 H 0.87053 0.11036 0.70761 0.0
H359 H 0.89151 0.05134 0.69063 0.0
H360 H 0.98012 0.12216 0.73937 0.0
H361 H 0.00197 0.06459 0.72094 0.0
H362 H 0.94442 0.13124 0.62839 0.0
H363 H 0.97554 0.09255 0.65704 0.0
H364 H 0.8596 0.04413 0.61957 0.0
H365 H 0.89123 0.00528 0.64758 0.0
N366 N 0.97593 0.99125 0.65638 0.0
N367 N 0.98628 0.99534 0.70067 0.0
Mn368 Mn 0.33719 0.67642 0.00884 0.0
Mn369 Mn 0.33787 0.58096 0.01268 0.0
C370 C 0.34495 0.64677 0.04259 0.0
C371 C 0.36981 0.73396 0.00742 0.0
C372 C 0.26605 0.62659 0.00577 0.0
O373 O 0.34818 0.66079 0.97716 0.0
O374 O 0.34686 0.59716 0.98172 0.0
C375 C 0.41869 0.56737 0.00224 0.0
N376 N 0.38908 0.56391 0.01637 0.0
C377 C 0.42809 0.53059 0.04278 0.0
C378 C 0.45895 0.53365 0.02846 0.0
C379 C 0.45421 0.55211 0.00811 0.0
C380 C 0.39325 0.54593 0.03592 0.0
H381 H 0.41525 0.58168 0.98662 0.0
C382 C 0.35024 0.62689 0.96965 0.0
O383 O 0.33423 0.73204 0.00161 0.0
O384 O 0.3867 0.70222 0.01181 0.0
N385 N 0.33016 0.5622 0.04191 0.0
C386 C 0.29829 0.56386 0.05441 0.0
C387 C 0.29869 0.5479 0.07562 0.0
C388 C 0.33181 0.5304 0.08373 0.0
C389 C 0.36422 0.5289 0.07052 0.0
C390 C 0.36204 0.54501 0.04945 0.0
H391 H 0.27295 0.57774 0.04837 0.0
O392 O 0.33123 0.68086 0.04155 0.0
O393 O 0.35219 0.63074 0.02386 0.0
O394 O 0.28177 0.65922 0.00477 0.0
O395 O 0.28424 0.59581 0.00937 0.0
C396 C 0.39886 0.51287 0.07765 0.0
C397 C 0.43075 0.51365 0.06377 0.0
H398 H 0.48647 0.5222 0.03299 0.0
H399 H 0.47792 0.55468 0.997 0.0
H400 H 0.27365 0.54942 0.08577 0.0
H401 H 0.33217 0.51858 0.1002 0.0
H402 H 0.40144 0.50038 0.0939 0.0
H403 H 0.45736 0.50167 0.06955 0.0
Mn404 Mn 0.33142 0.83754 0.25843 0.0
Mn405 Mn 0.42653 0.84041 0.26478 0.0
C406 C 0.35868 0.84709 0.29287 0.0
C407 C 0.273 0.86802 0.25339 0.0
C408 C 0.38342 0.76712 0.25857 0.0
O409 O 0.34872 0.84795 0.22705 0.0
O410 O 0.41207 0.84576 0.23312 0.0
C411 C 0.43783 0.92056 0.25151 0.0
N412 N 0.44146 0.89254 0.26686 0.0
C413 C 0.47309 0.93494 0.29214 0.0
C414 C 0.46987 0.96417 0.27654 0.0
C415 C 0.45207 0.95695 0.25617 0.0
C416 C 0.45838 0.89924 0.28655 0.0
H417 H 0.42426 0.91518 0.2358 0.0
C418 C 0.383 0.84887 0.22037 0.0
O419 O 0.27684 0.83199 0.24933 0.0
O420 O 0.30329 0.88628 0.25931 0.0
N421 N 0.44439 0.83622 0.29457 0.0
C422 C 0.44506 0.80509 0.30785 0.0
C423 C 0.46217 0.8074 0.32878 0.0
C424 C 0.47839 0.84175 0.33585 0.0
C425 C 0.47715 0.87355 0.32197 0.0
C426 C 0.46014 0.86936 0.30117 0.0
H427 H 0.43227 0.77885 0.30259 0.0
O428 O 0.32493 0.83272 0.29109 0.0
O429 O 0.37575 0.85431 0.27448 0.0
O430 O 0.35083 0.78248 0.25579 0.0
O431 O 0.41352 0.78589 0.26314 0.0
C432 C 0.49214 0.90921 0.32795 0.0
C433 C 0.49002 0.93991 0.31306 0.0
H434 H 0.48078 0.99229 0.28008 0.0
H435 H 0.44939 0.97939 0.24407 0.0
H436 H 0.46276 0.78281 0.33946 0.0
H437 H 0.49172 0.84335 0.35197 0.0
H438 H 0.50525 0.91337 0.34398 0.0
H439 H 0.50149 0.96724 0.31788 0.0
Mn440 Mn 0.17414 0.84201 0.4985 0.0
Mn441 Mn 0.07942 0.84149 0.49 0.0
C442 C 0.14882 0.84979 0.46349 0.0
C443 C 0.23141 0.87462 0.50368 0.0
C444 C 0.1245 0.7702 0.49864 0.0
O445 O 0.15442 0.85291 0.52933 0.0
O446 O 0.09147 0.8492 0.52181 0.0
C447 C 0.06385 0.92184 0.50113 0.0
N448 N 0.06251 0.89273 0.48637 0.0
C449 C 0.03253 0.93253 0.45906 0.0
C450 C 0.03342 0.96287 0.47402 0.0
C451 C 0.04915 0.95749 0.49515 0.0
C452 C 0.04719 0.89754 0.46605 0.0
H453 H 0.07606 0.91789 0.51735 0.0
C454 C 0.11963 0.85329 0.53517 0.0
O455 O 0.2284 0.83882 0.50862 0.0
O456 O 0.20062 0.89155 0.4973 0.0
N457 N 0.06449 0.83469 0.45984 0.0
C458 C 0.06764 0.80314 0.447 0.0
C459 C 0.05435 0.80415 0.42513 0.0
C460 C 0.03791 0.83753 0.41671 0.0
C461 C 0.03473 0.86957 0.43028 0.0
C462 C 0.0482 0.86678 0.452 0.0
H463 H 0.08062 0.77756 0.45334 0.0
O464 O 0.18278 0.83623 0.46607 0.0
O465 O 0.13036 0.85675 0.48144 0.0
O466 O 0.15657 0.7865 0.5015 0.0
O467 O 0.09419 0.78783 0.49317 0.0
C468 C 0.01948 0.9044 0.42297 0.0
C469 C 0.01833 0.93584 0.43736 0.0
H470 H 0.02237 0.99049 0.46942 0.0
H471 H 0.05002 0.9808 0.50676 0.0
H472 H 0.05708 0.77937 0.41472 0.0
H473 H 0.02813 0.83835 0.39974 0.0
H474 H 0.00904 0.90746 0.40623 0.0
H475 H 0.00694 0.96258 0.43147 0.0
Mn476 Mn 0.16881 0.68046 0.7469 0.0
Mn477 Mn 0.16825 0.58501 0.74188 0.0
C478 C 0.16408 0.65211 0.71255 0.0
C479 C 0.13649 0.73811 0.75024 0.0
C480 C 0.23997 0.62993 0.74986 0.0
O481 O 0.15577 0.66383 0.77809 0.0
O482 O 0.15947 0.60048 0.77294 0.0
C483 C 0.0868 0.57416 0.75185 0.0
N484 N 0.11658 0.56949 0.73795 0.0
C485 C 0.07705 0.537 0.71146 0.0
C486 C 0.04602 0.54131 0.72554 0.0
C487 C 0.05092 0.56002 0.74581 0.0
C488 C 0.11211 0.5517 0.71837 0.0
H489 H 0.09036 0.58857 0.76743 0.0
C490 C 0.15472 0.62973 0.78517 0.0
O491 O 0.1722 0.7353 0.75555 0.0
O492 O 0.11959 0.70733 0.74385 0.0
N493 N 0.17582 0.56564 0.71277 0.0
C494 C 0.20859 0.56362 0.70112 0.0
C495 C 0.20872 0.54532 0.68058 0.0
C496 C 0.17519 0.52894 0.6723 0.0
C497 C 0.14183 0.53104 0.68465 0.0
C498 C 0.14359 0.54926 0.70515 0.0
H499 H 0.23437 0.57586 0.70748 0.0
O500 O 0.17694 0.68643 0.71446 0.0
O501 O 0.15484 0.63532 0.73077 0.0
O502 O 0.22391 0.66231 0.75175 0.0
O503 O 0.22223 0.59921 0.74532 0.0
C504 C 0.10692 0.51578 0.67743 0.0
C505 C 0.0745 0.51892 0.69078 0.0
H506 H 0.0183 0.53046 0.72095 0.0
H507 H 0.02709 0.56353 0.75675 0.0
H508 H 0.23461 0.54378 0.67117 0.0
H509 H 0.17548 0.51463 0.65652 0.0
H510 H 0.10463 0.50178 0.66158 0.0
H511 H 0.04775 0.50731 0.68498 0.0
Mn512 Mn 0.83532 0.1811 0.50539 0.0
Mn513 Mn 0.83781 0.08544 0.50877 0.0
C514 C 0.84113 0.1511 0.53929 0.0
C515 C 0.86593 0.23974 0.50304 0.0
C516 C 0.76528 0.12983 0.50138 0.0
O517 O 0.84803 0.16609 0.47379 0.0
O518 O 0.84784 0.10259 0.47821 0.0
C519 C 0.9196 0.075 0.49956 0.0
N520 N 0.88944 0.0701 0.51315 0.0
C521 C 0.92789 0.03565 0.53934 0.0
C522 C 0.95931 0.0402 0.52558 0.0
C523 C 0.95516 0.06007 0.50564 0.0
C524 C 0.89322 0.05132 0.53246 0.0
H525 H 0.91655 0.09009 0.48416 0.0
C526 C 0.85121 0.13235 0.46626 0.0
O527 O 0.83038 0.23604 0.4976 0.0
O528 O 0.88393 0.20908 0.50865 0.0
N529 N 0.82921 0.06471 0.53744 0.0
C530 C 0.79581 0.06134 0.54837 0.0
C531 C 0.79483 0.04152 0.56841 0.0
C532 C 0.82812 0.02488 0.57685 0.0
C533 C 0.86214 0.02837 0.56523 0.0
C534 C 0.86127 0.04821 0.54524 0.0
H535 H 0.77009 0.07336 0.54173 0.0
O536 O 0.82772 0.18531 0.53801 0.0
O537 O 0.85029 0.13539 0.52075 0.0
O538 O 0.78056 0.16263 0.50064 0.0
O539 O 0.7837 0.09909 0.50479 0.0
C540 C 0.89674 0.01248 0.57253 0.0
C541 C 0.92964 0.01628 0.55964 0.0
H542 H 0.98676 0.02865 0.53018 0.0
H543 H 0.97928 0.06375 0.49494 0.0
H544 H 0.76841 0.03875 0.57721 0.0
H545 H 0.82708 0.00908 0.59213 0.0
H546 H 0.89835 0.99722 0.588 0.0
H547 H 0.9561 0.00399 0.56543 0.0
Mn548 Mn 0.82895 0.34073 0.75752 0.0
Mn549 Mn 0.92388 0.35049 0.76278 0.0
C550 C 0.85679 0.34704 0.79202 0.0
C551 C 0.7691 0.36926 0.75424 0.0
C552 C 0.88573 0.27518 0.75271 0.0
O553 O 0.84469 0.35501 0.72627 0.0
O554 O 0.90769 0.3626 0.73222 0.0
C555 C 0.9284 0.4338 0.75705 0.0
N556 N 0.93533 0.40228 0.76943 0.0
C557 C 0.96559 0.43941 0.79786 0.0
C558 C 0.95894 0.47228 0.78536 0.0
C559 C 0.94019 0.46946 0.76489 0.0
C560 C 0.95317 0.40469 0.78919 0.0
H561 H 0.914 0.43171 0.74131 0.0
C562 C 0.87819 0.36267 0.71973 0.0
O563 O 0.77421 0.33392 0.74878 0.0
O564 O 0.79892 0.38804 0.76036 0.0
N565 N 0.94351 0.33949 0.79156 0.0
C566 C 0.94722 0.30514 0.80167 0.0
C567 C 0.9654 0.30295 0.82231 0.0
C568 C 0.97983 0.33601 0.83224 0.0
C569 C 0.9759 0.37101 0.82145 0.0
C570 C 0.9578 0.37138 0.80083 0.0
H571 H 0.93641 0.27961 0.79402 0.0
O572 O 0.82349 0.33182 0.78994 0.0
O573 O 0.8727 0.35788 0.77388 0.0
O574 O 0.85138 0.28707 0.75306 0.0
O575 O 0.91442 0.29656 0.75633 0.0
C576 C 0.98915 0.40556 0.83036 0.0
C577 C 0.98381 0.43976 0.81863 0.0
H578 H 0.96798 0.49983 0.79135 0.0
H579 H 0.93489 0.4947 0.75518 0.0
H580 H 0.96832 0.27584 0.83054 0.0
H581 H 0.99393 0.33413 0.84813 0.0
H582 H 0.00325 0.40619 0.84629 0.0
H583 H 0.99377 0.46618 0.82575 0.0
Mn584 Mn 0.67931 0.3389 0.99857 0.0
Mn585 Mn 0.58445 0.34759 0.99354 0.0
C586 C 0.65085 0.34571 0.96412 0.0
C587 C 0.73889 0.3683 0.00155 0.0
C588 C 0.62323 0.27212 0.00129 0.0
O589 O 0.66438 0.35268 0.02997 0.0
O590 O 0.60117 0.35479 0.0246 0.0
C591 C 0.58183 0.4297 0.00406 0.0
N592 N 0.57437 0.40063 0.98985 0.0
C593 C 0.54721 0.44362 0.96321 0.0
C594 C 0.5545 0.47396 0.97759 0.0
C595 C 0.57195 0.46696 0.99809 0.0
C596 C 0.55798 0.40714 0.96999 0.0
H597 H 0.59523 0.42453 0.01984 0.0
C598 C 0.63061 0.35653 0.03709 0.0
O599 O 0.73442 0.33285 0.00701 0.0
O600 O 0.70864 0.38639 0.99553 0.0
N601 N 0.56385 0.34206 0.9644 0.0
C602 C 0.5559 0.30947 0.95324 0.0
C603 C 0.53691 0.31129 0.93283 0.0
C604 C 0.52609 0.34664 0.92413 0.0
C605 C 0.53345 0.37976 0.93623 0.0
C606 C 0.55195 0.37607 0.95664 0.0
H607 H 0.56378 0.28233 0.95994 0.0
O608 O 0.68414 0.33039 0.96599 0.0
O609 O 0.63531 0.35597 0.98246 0.0
O610 O 0.65696 0.28539 0.00316 0.0
O611 O 0.59397 0.29238 0.99673 0.0
C612 C 0.52246 0.41619 0.92903 0.0
C613 C 0.52948 0.44813 0.94248 0.0
H614 H 0.54674 0.50272 0.97309 0.0
H615 H 0.57769 0.49023 0.00928 0.0
H616 H 0.53076 0.2855 0.92379 0.0
H617 H 0.51175 0.34797 0.90829 0.0
H618 H 0.50844 0.41996 0.91322 0.0
H619 H 0.52088 0.47601 0.93677 0.0
Mn620 Mn 0.6714 0.17944 0.24971 0.0
Mn621 Mn 0.66389 0.08405 0.2459 0.0
C622 C 0.66221 0.15027 0.2158 0.0
C623 C 0.64493 0.23982 0.25287 0.0
C624 C 0.73868 0.12425 0.25304 0.0
O625 O 0.65926 0.16458 0.28143 0.0
O626 O 0.65554 0.10114 0.27662 0.0
C627 C 0.58202 0.07694 0.25574 0.0
N628 N 0.6116 0.07105 0.24186 0.0
C629 C 0.57137 0.03791 0.21601 0.0
C630 C 0.54051 0.04348 0.23008 0.0
C631 C 0.54584 0.06321 0.24999 0.0
C632 C 0.60671 0.05239 0.22258 0.0
H633 H 0.58602 0.09186 0.27113 0.0
C634 C 0.65448 0.13089 0.28876 0.0
O635 O 0.68044 0.2337 0.25753 0.0
O636 O 0.62442 0.21068 0.24744 0.0
N637 N 0.67097 0.06367 0.21701 0.0
C638 C 0.70382 0.05997 0.20555 0.0
C639 C 0.70355 0.04032 0.18543 0.0
C640 C 0.66961 0.02443 0.1774 0.0
C641 C 0.63612 0.02863 0.18946 0.0
C642 C 0.6382 0.04823 0.2095 0.0
H643 H 0.73002 0.07183 0.21174 0.0
O644 O 0.67765 0.1836 0.21698 0.0
O645 O 0.65321 0.13482 0.23444 0.0
O646 O 0.72513 0.15782 0.25364 0.0
O647 O 0.71859 0.09465 0.24961 0.0
C648 C 0.60085 0.01382 0.18251 0.0
C649 C 0.56846 0.01861 0.19573 0.0
H650 H 0.51258 0.03284 0.22573 0.0
H651 H 0.52215 0.06766 0.26091 0.0
H652 H 0.7295 0.03722 0.1762 0.0
H653 H 0.6697 0.00883 0.16204 0.0
H654 H 0.59831 0.99867 0.16704 0.0
H655 H 0.54148 0.00719 0.19018 0.0
C656 C 0.16932 0.88392 0.26675 0.0
C657 C 0.16688 0.9238 0.26737 0.0
C658 C 0.20302 0.86566 0.26039 0.0
C659 C 0.23537 0.88673 0.25456 0.0
H660 H 0.14595 0.86677 0.27256 0.0
H661 H 0.20451 0.835 0.26155 0.0
S662 S 0.24094 0.99151 0.24934 0.0
N663 N 0.19763 0.98347 0.25838 0.0
N664 N 0.26095 0.94935 0.24683 0.0
C665 C 0.23212 0.92645 0.25337 0.0
C666 C 0.19788 0.94494 0.25967 0.0
C667 C 0.08501 0.67036 0.49942 0.0
C668 C 0.09956 0.65558 0.51933 0.0
C669 C 0.09504 0.70671 0.4921 0.0
C670 C 0.1205 0.72951 0.5042 0.0
H671 H 0.06472 0.65417 0.48974 0.0
H672 H 0.08179 0.71754 0.4772 0.0
S673 S 0.16712 0.70425 0.55722 0.0
N674 N 0.14106 0.66677 0.55094 0.0
N675 N 0.16075 0.73456 0.53677 0.0
C676 C 0.13671 0.71449 0.52357 0.0
C677 C 0.12606 0.67766 0.53123 0.0
C678 C 0.32941 0.62398 0.78435 0.0
C679 C 0.35496 0.60565 0.77013 0.0
C680 C 0.29284 0.63424 0.77716 0.0
C681 C 0.2806 0.62645 0.75553 0.0
H682 H 0.33696 0.62858 0.80149 0.0
H683 H 0.2733 0.64631 0.78893 0.0
S684 S 0.3385 0.58513 0.71088 0.0
N685 N 0.36691 0.58462 0.73268 0.0
N686 N 0.29812 0.60375 0.71929 0.0
C687 C 0.30656 0.61044 0.74081 0.0
C688 C 0.34379 0.6001 0.74807 0.0
C689 C 0.39441 0.83944 0.00895 0.0
C690 C 0.42205 0.84114 0.02587 0.0
C691 C 0.37785 0.80464 0.00262 0.0
C692 C 0.38872 0.77042 0.01284 0.0
H693 H 0.38558 0.86513 1.00054 0.0
H694 H 0.35647 0.80454 0.98968 0.0
S695 S 0.45646 0.76021 0.05978 0.0
N696 N 0.45678 0.80595 0.05399 0.0
N697 N 0.4269 0.74093 0.04178 0.0
C698 C 0.41598 0.77194 0.02995 0.0
C699 C 0.4323 0.80718 0.03654 0.0
C700 C 0.16783 0.58404 0.0028 0.0
C701 C 0.1529 0.6005 0.98354 0.0
C702 C 0.20356 0.59482 0.01096 0.0
C703 C 0.22528 0.62275 1.00027 0.0
H704 H 0.15298 0.56089 0.0107 0.0
H705 H 0.21511 0.57976 0.02505 0.0
S706 S 0.19689 0.67637 0.9502 0.0
N707 N 0.16095 0.64736 0.9547 0.0
N708 N 0.22787 0.66841 0.97028 0.0
C709 C 0.20931 0.6413 0.98189 0.0
C710 C 0.17317 0.62987 0.97341 0.0
C711 C 0.38385 0.67711 0.22475 0.0
C712 C 0.41028 0.65425 0.2361 0.0
C713 C 0.37257 0.71241 0.23324 0.0
C714 C 0.38814 0.72642 0.25307 0.0
H715 H 0.37333 0.66849 0.20868 0.0
H716 H 0.35377 0.73003 0.22338 0.0
S717 S 0.45573 0.67563 0.28989 0.0
N718 N 0.44922 0.64639 0.26892 0.0
N719 N 0.42887 0.71307 0.28466 0.0
C720 C 0.41298 0.70279 0.2651 0.0
C721 C 0.42384 0.66658 0.25666 0.0
C722 C 0.33762 0.88842 0.49689 0.0
C723 C 0.34016 0.92609 0.48925 0.0
C724 C 0.30266 0.87261 0.50306 0.0
C725 C 0.26883 0.89383 0.50174 0.0
H726 H 0.3627 0.87064 0.49752 0.0
H727 H 0.30197 0.84302 0.50787 0.0
S728 S 0.26037 0.9946 0.4842 0.0
N729 N 0.30587 0.98465 0.48161 0.0
N730 N 0.24067 0.95551 0.49373 0.0
C731 C 0.27135 0.93218 0.49529 0.0
C732 C 0.30683 0.94816 0.4889 0.0
C733 C 0.11755 0.8413 0.7363 0.0
C734 C 0.07761 0.84271 0.73565 0.0
C735 C 0.13679 0.80805 0.74275 0.0
C736 C 0.11668 0.7751 0.74861 0.0
H737 H 0.13402 0.86522 0.73052 0.0
H738 H 0.16746 0.80742 0.7417 0.0
S739 S 0.01222 0.76658 0.75374 0.0
N740 N 0.01893 0.81022 0.74465 0.0
N741 N 0.05493 0.74766 0.75625 0.0
C742 C 0.07691 0.77719 0.74967 0.0
C743 C 0.05741 0.81101 0.74332 0.0
C744 C 0.69479 0.4447 0.76396 0.0
C745 C 0.66263 0.42362 0.77 0.0
C746 C 0.72828 0.42674 0.75734 0.0
C747 C 0.73103 0.38691 0.75634 0.0
H748 H 0.69455 0.4754 0.76516 0.0
H749 H 0.75276 0.44428 0.75386 0.0
S750 S 0.65407 0.31861 0.76882 0.0
N751 N 0.63493 0.36068 0.77334 0.0
N752 N 0.6978 0.32692 0.76052 0.0
C753 C 0.69837 0.36548 0.76093 0.0
C754 C 0.66419 0.38383 0.76785 0.0
C755 C 0.6159 0.18319 0.03583 0.0
C756 C 0.59259 0.15945 0.02282 0.0
C757 C 0.62775 0.21881 0.02813 0.0
C758 C 0.61655 0.23201 0.00721 0.0
H759 H 0.6236 0.17497 0.05248 0.0
H760 H 0.64407 0.23696 0.03908 0.0
S761 S 0.56129 0.17836 0.96534 0.0
N762 N 0.56292 0.14985 0.98692 0.0
N763 N 0.58485 0.21693 0.97266 0.0
C764 C 0.59519 0.20774 0.99358 0.0
C765 C 0.58331 0.17142 0.00133 0.0
C766 C 0.83811 0.08341 0.25271 0.0
C767 C 0.85436 0.09826 0.27218 0.0
C768 C 0.80109 0.09303 0.24613 0.0
C769 C 0.77921 0.11855 0.25846 0.0
H770 H 0.85377 0.06342 0.24273 0.0
H771 H 0.78932 0.07988 0.23147 0.0
S772 S 0.80781 0.16538 0.3107 0.0
N773 N 0.84498 0.1395 0.30389 0.0
N774 N 0.77614 0.15881 0.29085 0.0
C775 C 0.79543 0.13478 0.27746 0.0
C776 C 0.83284 0.1244 0.28447 0.0
C777 C 0.94227 0.31267 0.51455 0.0
C778 C 0.92143 0.34555 0.51967 0.0
C779 C 0.92412 0.27924 0.50777 0.0
C780 C 0.88437 0.27734 0.50567 0.0
H781 H 0.97285 0.31233 0.51659 0.0
H782 H 0.94135 0.25423 0.505 0.0
S783 S 0.81689 0.35643 0.51537 0.0
N784 N 0.85899 0.37481 0.52095 0.0
N785 N 0.82485 0.31214 0.50775 0.0
C786 C 0.86332 0.3107 0.50933 0.0
C787 C 0.88185 0.34477 0.51643 0.0
C788 C 0.67481 0.12259 0.46795 0.0
C789 C 0.6491 0.10704 0.48312 0.0
C790 C 0.71196 0.13211 0.47436 0.0
C791 C 0.72458 0.12638 0.49612 0.0
H792 H 0.66684 0.12548 0.45075 0.0
H793 H 0.73152 0.14213 0.46198 0.0
S794 S 0.66687 0.09256 0.54286 0.0
N795 N 0.6377 0.09072 0.52142 0.0
N796 N 0.70759 0.10862 0.53335 0.0
C797 C 0.69862 0.11319 0.51171 0.0
C798 C 0.66081 0.10355 0.50524 0.0
C799 C 0.93878 0.18968 0.73074 0.0
C800 C 0.91292 0.15958 0.73297 0.0
C801 C 0.92959 0.22652 0.73737 0.0
C802 C 0.89394 0.23522 0.74642 0.0
H803 H 0.96625 0.18496 0.72335 0.0
H804 H 0.95058 0.24856 0.73492 0.0
S805 S 0.81647 0.16639 0.7568 0.0
N806 N 0.85049 0.14056 0.74573 0.0
N807 N 0.83286 0.2103 0.75782 0.0
C808 C 0.86771 0.20544 0.74886 0.0
C809 C 0.87725 0.16759 0.74223 0.0
C810 C 0.84591 0.3802 0.99647 0.0
C811 C 0.84946 0.41752 0.98832 0.0
C812 C 0.8103 0.36498 0.00194 0.0
C813 C 0.77684 0.38647 0.99947 0.0
H814 H 0.87074 0.36224 0.99808 0.0
H815 H 0.8089 0.33569 0.0073 0.0
S816 S 0.77076 0.48637 0.97988 0.0
N817 N 0.8163 0.47584 0.97866 0.0
N818 N 0.75 0.44801 0.98962 0.0
C819 C 0.78028 0.42446 0.99239 0.0
C820 C 0.81638 0.43977 0.98665 0.0
C821 C 0.63356 0.33977 0.23147 0.0
C822 C 0.59663 0.34984 0.23813 0.0
C823 C 0.64997 0.30506 0.23766 0.0
C824 C 0.62983 0.27863 0.2503 0.0
H825 H 0.64939 0.35795 0.2205 0.0
H826 H 0.67777 0.29792 0.23137 0.0
S827 S 0.53507 0.2926 0.27483 0.0
N828 N 0.54279 0.33207 0.26089 0.0
N829 N 0.57282 0.26566 0.27101 0.0
C830 C 0.59376 0.28867 0.2579 0.0
C831 C 0.57739 0.32454 0.2522 0.0
C832 C 0.11765 0.9272 0.42452 0.0
C833 C 0.11893 0.90974 0.40367 0.0
C834 C 0.12774 0.90742 0.44362 0.0
C835 C 0.13865 0.86914 0.44278 0.0
H836 H 0.10771 0.95613 0.42626 0.0
H837 H 0.12643 0.92216 0.45927 0.0
S838 S 0.15073 0.8111 0.39252 0.0
N839 N 0.1354 0.85255 0.38329 0.0
N840 N 0.1535 0.81517 0.41961 0.0
C841 C 0.14171 0.85161 0.42216 0.0
C842 C 0.13166 0.87183 0.40253 0.0
C843 C 0.0964 0.61628 0.66883 0.0
C844 C 0.11954 0.61236 0.6502 0.0
C845 C 0.11126 0.62928 0.68888 0.0
C846 C 0.1498 0.63873 0.69108 0.0
H847 H 0.06681 0.60795 0.66813 0.0
H848 H 0.09254 0.63146 0.70289 0.0
S849 S 0.22169 0.63683 0.64703 0.0
N850 N 0.18251 0.62113 0.63494 0.0
N851 N 0.21027 0.64629 0.6728 0.0
C852 C 0.17293 0.63675 0.67244 0.0
C853 C 0.15791 0.62305 0.652 0.0
C854 C 0.39429 0.64074 0.91329 0.0
C855 C 0.38901 0.60505 0.90323 0.0
C856 C 0.37969 0.64857 0.93426 0.0
C857 C 0.35951 0.62085 0.94605 0.0
H858 H 0.41121 0.66228 0.90527 0.0
H859 H 0.38606 0.67579 0.94173 0.0
S860 S 0.33412 0.52438 0.92599 0.0
N861 N 0.35963 0.54281 0.90601 0.0
N862 N 0.33148 0.55769 0.94503 0.0
C863 C 0.35186 0.58597 0.93552 0.0
C864 C 0.36673 0.57804 0.91422 0.0
C865 C 0.38841 0.90081 0.16603 0.0
C866 C 0.41754 0.88108 0.15506 0.0
C867 C 0.37505 0.88855 0.18657 0.0
C868 C 0.39064 0.8564 0.19692 0.0
H869 H 0.37745 0.92721 0.15939 0.0
H870 H 0.35427 0.90575 0.19505 0.0
S871 S 0.46219 0.79097 0.1736 0.0
N872 N 0.45726 0.82454 0.15479 0.0
N873 N 0.43316 0.8025 0.19374 0.0
C874 C 0.41777 0.83501 0.18554 0.0
C875 C 0.43095 0.84708 0.16452 0.0
C876 C 0.09853 0.6248 0.83785 0.0
C877 C 0.1167 0.59487 0.84919 0.0
C878 C 0.11272 0.63842 0.81777 0.0
C879 C 0.14535 0.62234 0.80841 0.0
H880 H 0.07189 0.63606 0.84376 0.0
H881 H 0.09663 0.6597 0.8088 0.0
S882 S 0.20718 0.54872 0.83355 0.0
N883 N 0.17211 0.55381 0.85118 0.0
N884 N 0.19812 0.57871 0.81326 0.0
C885 C 0.1653 0.5946 0.82042 0.0
C886 C 0.15116 0.58105 0.84087 0.0
C887 C 0.42179 0.61077 0.08071 0.0
C888 C 0.40408 0.60955 0.1014 0.0
C889 C 0.40231 0.62327 0.06195 0.0
C890 C 0.36403 0.63406 0.06293 0.0
H891 H 0.45071 0.60101 0.07877 0.0
H892 H 0.41725 0.62395 0.04643 0.0
S893 S 0.30549 0.6405 0.11307 0.0
N894 N 0.34676 0.62396 0.12196 0.0
N895 N 0.30985 0.64633 0.08621 0.0
C896 C 0.34626 0.63469 0.08347 0.0
C897 C 0.36622 0.6223 0.10277 0.0
C898 C 0.38524 0.86373 0.35285 0.0
C899 C 0.39201 0.90314 0.35337 0.0
C900 C 0.37365 0.84555 0.3333 0.0
C901 C 0.37004 0.86602 0.31354 0.0
H902 H 0.38921 0.84688 0.36762 0.0
H903 H 0.3687 0.81521 0.33346 0.0
S904 S 0.38145 0.96988 0.30646 0.0
N905 N 0.39203 0.96218 0.33263 0.0
N906 N 0.37071 0.92794 0.29598 0.0
C907 C 0.37553 0.90547 0.31399 0.0
C908 C 0.3866 0.92404 0.33388 0.0
C909 C 0.10993 0.90262 0.59017 0.0
C910 C 0.08013 0.88214 0.59995 0.0
C911 C 0.12486 0.89156 0.56975 0.0
C912 C 0.11022 0.8599 0.55847 0.0
H913 H 0.12014 0.92866 0.59763 0.0
H914 H 0.14613 0.90929 0.56211 0.0
S915 S 0.03753 0.79285 0.57884 0.0
N916 N 0.04071 0.82557 0.59826 0.0
N917 N 0.06808 0.80545 0.55971 0.0
C918 C 0.08254 0.83766 0.56882 0.0
C919 C 0.06768 0.84861 0.58962 0.0
C920 C 0.63196 0.42413 0.9236 0.0
C921 C 0.61689 0.40544 0.90485 0.0
C922 C 0.64242 0.40429 0.94259 0.0
C923 C 0.64043 0.36467 0.94339 0.0
H924 H 0.63524 0.45465 0.92399 0.0
H925 H 0.65221 0.4202 0.95684 0.0
S926 S 0.61213 0.30028 0.89804 0.0
N927 N 0.60462 0.34332 0.88812 0.0
N928 N 0.62936 0.30641 0.92318 0.0
C929 C 0.62978 0.34493 0.92431 0.0
C930 C 0.61691 0.36517 0.90517 0.0
C931 C 0.65157 0.11673 0.15666 0.0
C932 C 0.61214 0.11082 0.15474 0.0
C933 C 0.66782 0.13048 0.17633 0.0
C934 C 0.64527 0.13728 0.19487 0.0
H935 H 0.66996 0.11024 0.14296 0.0
H936 H 0.69827 0.1345 0.17731 0.0
S937 S 0.54059 0.12946 0.19787 0.0
N938 N 0.5509 0.11515 0.17272 0.0
N939 N 0.58155 0.14061 0.20961 0.0
C940 C 0.60582 0.13283 0.19292 0.0
C941 C 0.58923 0.11952 0.17289 0.0
C942 C 0.90067 0.14508 0.41137 0.0
C943 C 0.89536 0.10948 0.40117 0.0
C944 C 0.88424 0.15345 0.43182 0.0
C945 C 0.86213 0.12638 0.44292 0.0
H946 H 0.91885 0.16613 0.40386 0.0
H947 H 0.89066 0.18048 0.4395 0.0
S948 S 0.83624 0.03042 0.42229 0.0
N949 N 0.86417 0.04799 0.40317 0.0
N950 N 0.83256 0.06401 0.4411 0.0
C951 C 0.8546 0.09165 0.43222 0.0
C952 C 0.87135 0.08313 0.41148 0.0
C953 C 0.88703 0.41471 0.66565 0.0
C954 C 0.91437 0.39253 0.65474 0.0
C955 C 0.87257 0.40348 0.68617 0.0
C956 C 0.88505 0.36977 0.69624 0.0
H957 H 0.87874 0.44209 0.65905 0.0
H958 H 0.85363 0.42244 0.69484 0.0
S959 S 0.95123 0.29892 0.67292 0.0
N960 N 0.9494 0.33308 0.65429 0.0
N961 N 0.9227 0.31239 0.69289 0.0
C962 C 0.91007 0.34611 0.68475 0.0
C963 C 0.9246 0.35736 0.66395 0.0
C964 C 0.60453 0.14072 0.34352 0.0
C965 C 0.61236 0.10556 0.35372 0.0
C966 C 0.62057 0.15031 0.32314 0.0
C967 C 0.6447 0.12489 0.31219 0.0
H968 H 0.58457 0.16026 0.35088 0.0
H969 H 0.6121 0.17667 0.31531 0.0
S970 S 0.67784 0.03135 0.33299 0.0
N971 N 0.64843 0.04674 0.35202 0.0
N972 N 0.67904 0.06506 0.31414 0.0
C973 C 0.65486 0.09093 0.32296 0.0
C974 C 0.63862 0.08119 0.34363 0.0
C975 C 0.84658 0.11664 0.59846 0.0
C976 C 0.88562 0.10915 0.60123 0.0
C977 C 0.83214 0.13105 0.57848 0.0
C978 C 0.85614 0.137 0.56047 0.0
H979 H 0.82708 0.11093 0.61174 0.0
H980 H 0.80196 0.13635 0.57685 0.0
S981 S 0.96054 0.12474 0.55966 0.0
N982 N 0.94808 0.11087 0.58455 0.0
N983 N 0.92083 0.13763 0.54709 0.0
C984 C 0.89523 0.13088 0.56324 0.0
C985 C 0.90999 0.11686 0.58359 0.0
C986 C 0.8871 0.41551 0.83653 0.0
C987 C 0.89328 0.39182 0.85487 0.0
C988 C 0.87524 0.40056 0.81627 0.0
C989 C 0.86927 0.36142 0.81362 0.0
H990 H 0.89286 0.44567 0.83761 0.0
H991 H 0.87124 0.41971 0.80247 0.0
S992 S 0.87776 0.28779 0.85686 0.0
N993 N 0.89022 0.32759 0.86941 0.0
N994 N 0.86705 0.29962 0.8312 0.0
C995 C 0.87338 0.33763 0.83199 0.0
C996 C 0.88594 0.35277 0.85262 0.0
C997 C 0.6437 0.39831 0.0945 0.0
C998 C 0.60784 0.39259 0.10407 0.0
C999 C 0.65183 0.38474 0.07327 0.0
C1000 C 0.62425 0.36527 0.06073 0.0
H1001 H 0.66521 0.41456 0.10319 0.0
H1002 H 0.67922 0.39122 0.06624 0.0
S1003 S 0.5271 0.33986 0.07892 0.0
N1004 N 0.54532 0.36414 0.0997 0.0
N1005 N 0.56084 0.33784 0.0603 0.0
C1006 C 0.58908 0.35748 0.07063 0.0
C1007 C 0.58082 0.37129 0.09215 0.0
loop_
_geom_bond_atom_site_label_1
_geom_bond_atom_site_label_2
_geom_bond_distance
_geom_bond_site_symmetry_2
_ccdc_geom_bond_type
C0 C1 1.384 . S
C0 C2 1.384 . S
C0 H28 0.931 . S
C1 C0 1.384 . S
C1 C4 1.382 . S
C2 C0 1.384 . S
C2 C3 1.381 . S
C2 H29 0.930 . S
C3 C2 1.381 . S
C3 C5 1.381 . S
C3 C6 1.487 . S
C4 C1 1.382 . S
C4 C5 1.387 . S
C4 H30 0.930 . S
C5 C3 1.381 . S
C5 C4 1.387 . S
C5 H31 0.931 1_565 S
C6 C3 1.487 . S
C6 C13 1.399 . S
C6 N44 1.343 1_565 S
C7 C8 1.384 . S
C7 C9 1.384 . S
C7 H32 0.931 . S
C8 C7 1.384 . S
C8 C11 1.382 . S
C9 C7 1.384 . S
C9 C10 1.381 . S
C9 H33 0.930 . S
C10 C9 1.381 . S
C10 C12 1.381 . S
C10 C13 1.487 . S
C11 C8 1.382 . S
C11 C12 1.387 . S
C11 H34 0.930 . S
C12 C10 1.381 . S
C12 C11 1.387 . S
C12 H35 0.931 . S
C13 C6 1.399 . S
C13 C10 1.487 . S
C13 N45 1.341 1_465 S
C14 C15 1.384 . S
C14 C16 1.384 . S
C14 H36 0.931 . S
C15 C14 1.384 . S
C15 C18 1.382 . S
C16 C14 1.384 . S
C16 C17 1.381 . S
C16 H37 0.930 . S
C17 C16 1.381 . S
C17 C19 1.381 . S
C17 C20 1.487 . S
C18 C15 1.382 . S
C18 C19 1.387 . S
C18 H38 0.930 . S
C19 C17 1.381 . S
C19 C18 1.387 . S
C19 H39 0.931 1_545 S
C20 C17 1.487 . S
C20 C27 1.399 . S
C20 N45 1.345 . S
C21 C22 1.384 . S
C21 C23 1.384 . S
C21 H40 0.931 . S
C22 C21 1.384 . S
C22 C25 1.382 . S
C23 C21 1.384 . S
C23 C24 1.381 . S
C23 H41 0.930 . S
C24 C23 1.381 . S
C24 C26 1.381 . S
C24 C27 1.487 . S
C25 C22 1.382 . S
C25 C26 1.387 . S
C25 H42 0.930 . S
C26 C24 1.381 . S
C26 C25 1.387 . S
C26 H43 0.931 . S
C27 C20 1.399 . S
C27 C24 1.487 . S
C27 N44 1.343 1_655 S
H28 C0 0.931 . S
H29 C2 0.930 . S
H30 C4 0.930 . S
H31 C5 0.931 1_545 S
H32 C7 0.931 . S
H33 C9 0.930 . S
H34 C11 0.930 . S
H35 C12 0.931 . S
H36 C14 0.931 . S
H37 C16 0.930 . S
H38 C18 0.930 . S
H39 C19 0.931 1_565 S
H40 C21 0.931 . S
H41 C23 0.930 . S
H42 C25 0.930 . S
H43 C26 0.931 . S
N44 C6 1.343 1_545 S
N44 C27 1.343 1_455 S
N45 C13 1.341 1_645 S
N45 C20 1.345 . S
C46 C47 1.384 . S
C46 C48 1.384 . S
C46 H74 0.931 . S
C47 C46 1.384 . S
C47 C50 1.382 . S
C48 C46 1.384 . S
C48 C49 1.381 . S
C48 H75 0.930 . S
C49 C48 1.381 . S
C49 C51 1.381 . S
C49 C52 1.487 . S
C50 C47 1.382 . S
C50 C51 1.387 . S
C50 H76 0.930 . S
C51 C49 1.381 . S
C51 C50 1.387 . S
C51 H77 0.931 1_655 S
C52 C49 1.487 . S
C52 C59 1.399 . S
C52 N90 1.343 1_655 S
C53 C54 1.384 . S
C53 C55 1.384 . S
C53 H78 0.931 . S
C54 C53 1.384 . S
C54 C57 1.382 . S
C55 C53 1.384 . S
C55 C56 1.381 . S
C55 H79 0.930 . S
C56 C55 1.381 . S
C56 C58 1.381 . S
C56 C59 1.487 . S
C57 C54 1.382 . S
C57 C58 1.387 . S
C57 H80 0.930 . S
C58 C56 1.381 . S
C58 C57 1.387 . S
C58 H81 0.931 . S
C59 C52 1.399 . S
C59 C56 1.487 . S
C59 N91 1.343 . S
C60 C61 1.384 . S
C60 C62 1.384 . S
C60 H82 0.931 . S
C61 C60 1.384 . S
C61 C64 1.382 . S
C62 C60 1.384 . S
C62 C63 1.381 . S
C62 H83 0.930 . S
C63 C62 1.381 . S
C63 C65 1.381 . S
C63 C66 1.487 . S
C64 C61 1.382 . S
C64 C65 1.387 . S
C64 H84 0.930 . S
C65 C63 1.381 . S
C65 C64 1.387 . S
C65 H85 0.931 1_455 S
C66 C63 1.487 . S
C66 C73 1.399 . S
C66 N91 1.343 1_455 S
C67 C68 1.384 . S
C67 C69 1.384 . S
C67 H86 0.931 . S
C68 C67 1.384 . S
C68 C71 1.382 . S
C69 C67 1.384 . S
C69 C70 1.381 . S
C69 H87 0.930 . S
C70 C69 1.381 . S
C70 C72 1.381 . S
C70 C73 1.487 . S
C71 C68 1.382 . S
C71 C72 1.387 . S
C71 H88 0.930 . S
C72 C70 1.381 . S
C72 C71 1.387 . S
C72 H89 0.931 . S
C73 C66 1.399 . S
C73 C70 1.487 . S
C73 N90 1.343 . S
H74 C46 0.931 . S
H75 C48 0.930 . S
H76 C50 0.930 . S
H77 C51 0.931 1_455 S
H78 C53 0.931 . S
H79 C55 0.930 . S
H80 C57 0.930 . S
H81 C58 0.931 . S
H82 C60 0.931 . S
H83 C62 0.930 . S
H84 C64 0.930 . S
H85 C65 0.931 1_655 S
H86 C67 0.931 . S
H87 C69 0.930 . S
H88 C71 0.930 . S
H89 C72 0.931 . S
N90 C52 1.343 1_455 S
N90 C73 1.343 . S
N91 C59 1.343 . S
N91 C66 1.343 1_655 S
C92 C93 1.384 . S
C92 C94 1.384 . S
C92 H120 0.931 . S
C93 C92 1.384 . S
C93 C96 1.382 . S
C94 C92 1.384 . S
C94 C95 1.381 . S
C94 H121 0.930 . S
C95 C94 1.381 . S
C95 C97 1.381 . S
C95 C98 1.487 . S
C96 C93 1.382 . S
C96 C97 1.387 . S
C96 H122 0.930 . S
C97 C95 1.381 . S
C97 C96 1.387 . S
C97 H123 0.931 . S
C98 C95 1.487 . S
C98 C105 1.399 . S
C98 N136 1.343 . S
C99 C100 1.384 . S
C99 C101 1.384 . S
C99 H124 0.931 . S
C100 C99 1.384 . S
C100 C103 1.382 . S
C101 C99 1.384 . S
C101 C102 1.381 . S
C101 H125 0.930 . S
C102 C101 1.381 . S
C102 C104 1.381 . S
C102 C105 1.487 . S
C103 C100 1.382 . S
C103 C104 1.387 . S
C103 H126 0.930 . S
C104 C102 1.381 . S
C104 C103 1.387 . S
C104 H127 0.931 . S
C105 C98 1.399 . S
C105 C102 1.487 . S
C105 N137 1.343 . S
C106 C107 1.384 . S
C106 C108 1.384 . S
C106 H128 0.931 . S
C107 C106 1.384 . S
C107 C110 1.382 . S
C108 C106 1.384 . S
C108 C109 1.381 . S
C108 H129 0.930 . S
C109 C108 1.381 . S
C109 C111 1.381 . S
C109 C112 1.487 . S
C110 C107 1.382 . S
C110 C111 1.387 . S
C110 H130 0.930 . S
C111 C109 1.381 . S
C111 C110 1.387 . S
C111 H131 0.931 . S
C112 C109 1.487 . S
C112 C119 1.399 . S
C112 N137 1.343 . S
C113 C114 1.384 . S
C113 C115 1.384 . S
C113 H132 0.931 . S
C114 C113 1.384 . S
C114 C117 1.382 . S
C115 C113 1.384 . S
C115 C116 1.381 . S
C115 H133 0.930 . S
C116 C115 1.381 . S
C116 C118 1.381 . S
C116 C119 1.487 . S
C117 C114 1.382 . S
C117 C118 1.387 . S
C117 H134 0.930 . S
C118 C116 1.381 . S
C118 C117 1.387 . S
C118 H135 0.931 . S
C119 C112 1.399 . S
C119 C116 1.487 . S
C119 N136 1.343 . S
H120 C92 0.931 . S
H121 C94 0.930 . S
H122 C96 0.930 . S
H123 C97 0.931 . S
H124 C99 0.931 . S
H125 C101 0.930 . S
H126 C103 0.930 . S
H127 C104 0.931 . S
H128 C106 0.931 . S
H129 C108 0.930 . S
H130 C110 0.930 . S
H131 C111 0.931 . S
H132 C113 0.931 . S
H133 C115 0.930 . S
H134 C117 0.930 . S
H135 C118 0.931 . S
N136 C98 1.343 . S
N136 C119 1.343 . S
N137 C105 1.343 . S
N137 C112 1.343 . S
C138 C139 1.384 . S
C138 C140 1.384 . S
C138 H166 0.931 . S
C139 C138 1.384 . S
C139 C142 1.382 . S
C140 C138 1.384 . S
C140 C141 1.381 . S
C140 H167 0.930 . S
C141 C140 1.381 . S
C141 C143 1.381 . S
C141 C144 1.487 . S
C142 C139 1.382 . S
C142 C143 1.387 . S
C142 H168 0.930 . S
C143 C141 1.381 . S
C143 C142 1.387 . S
C143 H169 0.931 . S
C144 C141 1.487 . S
C144 C151 1.399 . S
C144 N182 1.343 1_565 S
C145 C146 1.384 . S
C145 C147 1.384 . S
C145 H170 0.931 . S
C146 C145 1.384 . S
C146 C149 1.382 . S
C147 C145 1.384 . S
C147 C148 1.381 . S
C147 H171 0.930 . S
C148 C147 1.381 . S
C148 C150 1.381 . S
C148 C151 1.487 . S
C149 C146 1.382 . S
C149 C150 1.387 . S
C149 H172 0.930 . S
C150 C148 1.381 . S
C150 C149 1.387 . S
C150 H173 0.931 . S
C151 C144 1.399 . S
C151 C148 1.487 . S
C151 N183 1.343 1_565 S
C152 C153 1.384 . S
C152 C154 1.384 . S
C152 H174 0.931 . S
C153 C152 1.384 . S
C153 C156 1.382 . S
C154 C152 1.384 . S
C154 C155 1.381 . S
C154 H175 0.930 . S
C155 C154 1.381 . S
C155 C157 1.381 . S
C155 C158 1.487 . S
C156 C153 1.382 . S
C156 C157 1.387 . S
C156 H176 0.930 . S
C157 C155 1.381 . S
C157 C156 1.387 . S
C157 H177 0.931 . S
C158 C155 1.487 . S
C158 C165 1.399 . S
C158 N183 1.343 . S
C159 C160 1.384 . S
C159 C161 1.384 . S
C159 H178 0.931 . S
C160 C159 1.384 . S
C160 C163 1.382 . S
C161 C159 1.384 . S
C161 C162 1.381 . S
C161 H179 0.930 . S
C162 C161 1.381 . S
C162 C164 1.381 . S
C162 C165 1.487 . S
C163 C160 1.382 . S
C163 C164 1.387 . S
C163 H180 0.930 . S
C164 C162 1.381 . S
C164 C163 1.387 . S
C164 H181 0.931 . S
C165 C158 1.399 . S
C165 C162 1.487 . S
C165 N182 1.343 . S
H166 C138 0.931 . S
H167 C140 0.930 . S
H168 C142 0.930 . S
H169 C143 0.931 . S
H170 C145 0.931 . S
H171 C147 0.930 . S
H172 C149 0.930 . S
H173 C150 0.931 . S
H174 C152 0.931 . S
H175 C154 0.930 . S
H176 C156 0.930 . S
H177 C157 0.931 . S
H178 C159 0.931 . S
H179 C161 0.930 . S
H180 C163 0.930 . S
H181 C164 0.931 . S
N182 C144 1.343 1_545 S
N182 C165 1.343 . S
N183 C151 1.343 1_545 S
N183 C158 1.343 . S
C184 C185 1.384 . S
C184 C186 1.384 . S
C184 H212 0.931 . S
C185 C184 1.384 . S
C185 C188 1.382 . S
C186 C184 1.384 . S
C186 C187 1.381 . S
C186 H213 0.930 . S
C187 C186 1.381 . S
C187 C189 1.381 . S
C187 C190 1.487 . S
C188 C185 1.382 . S
C188 C189 1.387 . S
C188 H214 0.930 . S
C189 C187 1.381 . S
C189 C188 1.387 . S
C189 H215 0.931 . S
C190 C187 1.487 . S
C190 C197 1.399 . S
C190 N228 1.343 . S
C191 C192 1.384 . S
C191 C193 1.384 . S
C191 H216 0.931 . S
C192 C191 1.384 . S
C192 C195 1.382 . S
C193 C191 1.384 . S
C193 C194 1.381 . S
C193 H217 0.930 . S
C194 C193 1.381 . S
C194 C196 1.381 . S
C194 C197 1.487 . S
C195 C192 1.382 . S
C195 C196 1.387 . S
C195 H218 0.930 . S
C196 C194 1.381 . S
C196 C195 1.387 . S
C196 H219 0.931 . S
C197 C190 1.399 . S
C197 C194 1.487 . S
C197 N229 1.343 . S
C198 C199 1.384 . S
C198 C200 1.384 . S
C198 H220 0.931 . S
C199 C198 1.384 . S
C199 C202 1.382 . S
C200 C198 1.384 . S
C200 C201 1.381 . S
C200 H221 0.930 . S
C201 C200 1.381 . S
C201 C203 1.381 . S
C201 C204 1.487 . S
C202 C199 1.382 . S
C202 C203 1.387 . S
C202 H222 0.930 . S
C203 C201 1.381 . S
C203 C202 1.387 . S
C203 H223 0.931 . S
C204 C201 1.487 . S
C204 C211 1.399 . S
C204 N229 1.343 1_655 S
C205 C206 1.384 . S
C205 C207 1.384 . S
C205 H224 0.931 . S
C206 C205 1.384 . S
C206 C209 1.382 . S
C207 C205 1.384 . S
C207 C208 1.381 . S
C207 H225 0.930 . S
C208 C207 1.381 . S
C208 C210 1.381 . S
C208 C211 1.487 . S
C209 C206 1.382 . S
C209 C210 1.387 . S
C209 H226 0.930 . S
C210 C208 1.381 . S
C210 C209 1.387 . S
C210 H227 0.931 . S
C211 C204 1.399 . S
C211 C208 1.487 . S
C211 N228 1.343 1_655 S
H212 C184 0.931 . S
H213 C186 0.930 . S
H214 C188 0.930 . S
H215 C189 0.931 . S
H216 C191 0.931 . S
H217 C193 0.930 . S
H218 C195 0.930 . S
H219 C196 0.931 . S
H220 C198 0.931 . S
H221 C200 0.930 . S
H222 C202 0.930 . S
H223 C203 0.931 . S
H224 C205 0.931 . S
H225 C207 0.930 . S
H226 C209 0.930 . S
H227 C210 0.931 . S
N228 C190 1.343 . S
N228 C211 1.343 1_455 S
N229 C197 1.343 . S
N229 C204 1.343 1_455 S
C230 C231 1.384 . S
C230 C232 1.384 . S
C230 H258 0.931 . S
C231 C230 1.384 . S
C231 C234 1.382 . S
C232 C230 1.384 . S
C232 C233 1.381 . S
C232 H259 0.930 . S
C233 C232 1.381 . S
C233 C235 1.381 . S
C233 C236 1.487 . S
C234 C231 1.382 . S
C234 C235 1.387 . S
C234 H260 0.930 . S
C235 C233 1.381 . S
C235 C234 1.387 . S
C235 H261 0.931 . S
C236 C233 1.487 . S
C236 C243 1.399 . S
C236 N274 1.343 . S
C237 C238 1.384 . S
C237 C239 1.384 . S
C237 H262 0.931 . S
C238 C237 1.384 . S
C238 C241 1.382 . S
C239 C237 1.384 . S
C239 C240 1.381 . S
C239 H263 0.930 . S
C240 C239 1.381 . S
C240 C242 1.381 . S
C240 C243 1.487 . S
C241 C238 1.382 . S
C241 C242 1.387 . S
C241 H264 0.930 . S
C242 C240 1.381 . S
C242 C241 1.387 . S
C242 H265 0.931 . S
C243 C236 1.399 . S
C243 C240 1.487 . S
C243 N275 1.343 . S
C244 C245 1.384 . S
C244 C246 1.384 . S
C244 H266 0.931 . S
C245 C244 1.384 . S
C245 C248 1.382 . S
C246 C244 1.384 . S
C246 C247 1.381 . S
C246 H267 0.930 . S
C247 C246 1.381 . S
C247 C249 1.381 . S
C247 C250 1.487 . S
C248 C245 1.382 . S
C248 C249 1.387 . S
C248 H268 0.930 . S
C249 C247 1.381 . S
C249 C248 1.387 . S
C249 H269 0.931 . S
C250 C247 1.487 . S
C250 C257 1.399 . S
C250 N275 1.343 . S
C251 C252 1.384 . S
C251 C253 1.384 . S
C251 H270 0.931 . S
C252 C251 1.384 . S
C252 C255 1.382 . S
C253 C251 1.384 . S
C253 C254 1.381 . S
C253 H271 0.930 . S
C254 C253 1.381 . S
C254 C256 1.381 . S
C254 C257 1.487 . S
C255 C252 1.382 . S
C255 C256 1.387 . S
C255 H272 0.930 . S
C256 C254 1.381 . S
C256 C255 1.387 . S
C256 H273 0.931 . S
C257 C250 1.399 . S
C257 C254 1.487 . S
C257 N274 1.343 . S
H258 C230 0.931 . S
H259 C232 0.930 . S
H260 C234 0.930 . S
H261 C235 0.931 . S
H262 C237 0.931 . S
H263 C239 0.930 . S
H264 C241 0.930 . S
H265 C242 0.931 . S
H266 C244 0.931 . S
H267 C246 0.930 . S
H268 C248 0.930 . S
H269 C249 0.931 . S
H270 C251 0.931 . S
H271 C253 0.930 . S
H272 C255 0.930 . S
H273 C256 0.931 . S
N274 C236 1.343 . S
N274 C257 1.343 . S
N275 C243 1.343 . S
N275 C250 1.343 . S
C276 C277 1.384 . S
C276 C278 1.384 . S
C276 H304 0.931 . S
C277 C276 1.384 . S
C277 C280 1.382 . S
C278 C276 1.384 . S
C278 C279 1.381 . S
C278 H305 0.930 . S
C279 C278 1.381 . S
C279 C281 1.381 . S
C279 C282 1.487 . S
C280 C277 1.382 . S
C280 C281 1.387 . S
C280 H306 0.930 . S
C281 C279 1.381 . S
C281 C280 1.387 . S
C281 H307 0.931 1_565 S
C282 C279 1.487 . S
C282 C289 1.399 . S
C282 N320 1.343 1_565 S
C283 C284 1.384 . S
C283 C285 1.384 . S
C283 H308 0.931 . S
C284 C283 1.384 . S
C284 C287 1.382 . S
C285 C283 1.384 . S
C285 C286 1.381 . S
C285 H309 0.930 . S
C286 C285 1.381 . S
C286 C288 1.381 . S
C286 C289 1.487 . S
C287 C284 1.382 . S
C287 C288 1.387 . S
C287 H310 0.930 . S
C288 C286 1.381 . S
C288 C287 1.387 . S
C288 H311 0.931 . S
C289 C282 1.399 . S
C289 C286 1.487 . S
C289 N321 1.343 1_565 S
C290 C291 1.384 . S
C290 C292 1.384 . S
C290 H312 0.931 . S
C291 C290 1.384 . S
C291 C294 1.382 . S
C292 C290 1.384 . S
C292 C293 1.381 . S
C292 H313 0.930 . S
C293 C292 1.381 . S
C293 C295 1.381 . S
C293 C296 1.487 . S
C294 C291 1.382 . S
C294 C295 1.387 . S
C294 H314 0.930 . S
C295 C293 1.381 . S
C295 C294 1.387 . S
C295 H315 0.931 . S
C296 C293 1.487 . S
C296 C303 1.399 . S
C296 N321 1.343 . S
C297 C298 1.384 . S
C297 C299 1.384 . S
C297 H316 0.931 . S
C298 C297 1.384 . S
C298 C301 1.382 . S
C299 C297 1.384 . S
C299 C300 1.381 . S
C299 H317 0.930 . S
C300 C299 1.381 . S
C300 C302 1.381 . S
C300 C303 1.487 . S
C301 C298 1.382 . S
C301 C302 1.387 . S
C301 H318 0.930 . S
C302 C300 1.381 . S
C302 C301 1.387 . S
C302 H319 0.931 . S
C303 C296 1.399 . S
C303 C300 1.487 . S
C303 N320 1.343 . S
H304 C276 0.931 . S
H305 C278 0.930 . S
H306 C280 0.930 . S
H307 C281 0.931 1_545 S
H308 C283 0.931 . S
H309 C285 0.930 . S
H310 C287 0.930 . S
H311 C288 0.931 . S
H312 C290 0.931 . S
H313 C292 0.930 . S
H314 C294 0.930 . S
H315 C295 0.931 . S
H316 C297 0.931 . S
H317 C299 0.930 . S
H318 C301 0.930 . S
H319 C302 0.931 . S
N320 C282 1.343 1_545 S
N320 C303 1.343 . S
N321 C289 1.343 1_545 S
N321 C296 1.343 . S
C322 C323 1.384 . S
C322 C324 1.384 . S
C322 H350 0.931 . S
C323 C322 1.384 . S
C323 C326 1.382 . S
C324 C322 1.384 . S
C324 C325 1.381 . S
C324 H351 0.930 . S
C325 C324 1.381 . S
C325 C327 1.381 . S
C325 C328 1.487 . S
C326 C323 1.382 . S
C326 C327 1.387 . S
C326 H352 0.930 . S
C327 C325 1.381 . S
C327 C326 1.387 . S
C327 H353 0.931 1_455 S
C328 C325 1.487 . S
C328 C335 1.399 . S
C328 N366 1.343 1_465 S
C329 C330 1.384 . S
C329 C331 1.384 . S
C329 H354 0.931 . S
C330 C329 1.384 . S
C330 C333 1.382 . S
C331 C329 1.384 . S
C331 C332 1.381 . S
C331 H355 0.930 . S
C332 C331 1.381 . S
C332 C334 1.381 . S
C332 C335 1.487 . S
C333 C330 1.382 . S
C333 C334 1.387 . S
C333 H356 0.930 . S
C334 C332 1.381 . S
C334 C333 1.387 . S
C334 H357 0.931 . S
C335 C328 1.399 . S
C335 C332 1.487 . S
C335 N367 1.343 1_565 S
C336 C337 1.384 . S
C336 C338 1.384 . S
C336 H358 0.931 . S
C337 C336 1.384 . S
C337 C340 1.382 . S
C338 C336 1.384 . S
C338 C339 1.381 . S
C338 H359 0.930 . S
C339 C338 1.381 . S
C339 C341 1.381 . S
C339 C342 1.487 . S
C340 C337 1.382 . S
C340 C341 1.387 . S
C340 H360 0.930 . S
C341 C339 1.381 . S
C341 C340 1.387 . S
C341 H361 0.931 1_655 S
C342 C339 1.487 . S
C342 C349 1.399 . S
C342 N367 1.343 1_655 S
C343 C344 1.384 . S
C343 C345 1.384 . S
C343 H362 0.931 . S
C344 C343 1.384 . S
C344 C347 1.382 . S
C345 C343 1.384 . S
C345 C346 1.381 . S
C345 H363 0.930 . S
C346 C345 1.381 . S
C346 C348 1.381 . S
C346 C349 1.487 . S
C347 C344 1.382 . S
C347 C348 1.387 . S
C347 H364 0.930 . S
C348 C346 1.381 . S
C348 C347 1.387 . S
C348 H365 0.931 . S
C349 C342 1.399 . S
C349 C346 1.487 . S
C349 N366 1.343 . S
H350 C322 0.931 . S
H351 C324 0.930 . S
H352 C326 0.930 . S
H353 C327 0.931 1_655 S
H354 C329 0.931 . S
H355 C331 0.930 . S
H356 C333 0.930 . S
H357 C334 0.931 . S
H358 C336 0.931 . S
H359 C338 0.930 . S
H360 C340 0.930 . S
H361 C341 0.931 1_455 S
H362 C343 0.931 . S
H363 C345 0.930 . S
H364 C347 0.930 . S
H365 C348 0.931 . S
N366 C328 1.343 1_645 S
N366 C349 1.343 . S
N367 C335 1.343 1_545 S
N367 C342 1.343 1_455 S
Mn368 O373 2.095 1_554 S
Mn368 O383 2.162 . S
Mn368 O384 2.297 . S
Mn368 O392 2.385 . S
Mn368 O393 2.209 . S
Mn368 O394 2.094 1_554 S
Mn369 O374 2.121 . S
Mn369 N376 2.257 1_556 S
Mn369 N385 2.282 1_556 S
Mn369 O393 2.215 1_556 S
Mn369 O395 2.117 . S
C370 O392 1.234 . S
C370 O393 1.283 . S
C371 O383 1.281 . S
C371 O384 1.236 . S
C372 O394 1.240 . S
C372 O395 1.264 . S
O373 Mn368 2.095 1_556 S
O373 C382 1.250 . S
O374 Mn369 2.121 . S
O374 C382 1.258 . S
C375 N376 1.326 1_556 S
C375 C379 1.460 1_556 S
C375 H381 0.929 . S
N376 Mn369 2.257 1_554 S
N376 C375 1.326 1_554 S
N376 C380 1.362 . S
C377 C378 1.258 . S
C377 C380 1.431 . S
C377 C397 1.449 . S
C378 C377 1.258 . S
C378 C379 1.477 . S
C378 H398 0.931 . S
C379 C375 1.460 1_554 S
C379 C378 1.477 . S
C379 H399 0.930 1_554 S
C380 N376 1.362 . S
C380 C377 1.431 . S
C380 C390 1.476 . S
H381 C375 0.929 . S
C382 O373 1.250 . S
C382 O374 1.258 . S
O383 Mn368 2.162 . S
O383 C371 1.281 . S
O384 Mn368 2.297 . S
O384 C371 1.236 . S
N385 Mn369 2.282 1_554 S
N385 C386 1.328 . S
N385 C390 1.318 . S
C386 N385 1.328 . S
C386 C387 1.457 . S
C386 H391 0.929 . S
C387 C386 1.457 . S
C387 C388 1.291 . S
C387 H400 0.931 . S
C388 C387 1.291 . S
C388 C389 1.373 . S
C388 H401 0.929 . S
C389 C388 1.373 . S
C389 C390 1.396 . S
C389 C396 1.403 . S
C390 C380 1.476 . S
C390 N385 1.318 . S
C390 C389 1.396 . S
H391 C386 0.929 . S
O392 Mn368 2.385 . S
O392 C370 1.234 . S
O393 Mn368 2.209 . S
O393 Mn369 2.215 1_554 S
O393 C370 1.283 . S
O394 Mn368 2.094 1_556 S
O394 C372 1.240 . S
O395 Mn369 2.117 . S
O395 C372 1.264 . S
C396 C389 1.403 . S
C396 C397 1.399 . S
C396 H402 0.929 . S
C397 C377 1.449 . S
C397 C396 1.399 . S
C397 H403 0.930 . S
H398 C378 0.931 . S
H399 C379 0.930 1_556 S
H400 C387 0.931 . S
H401 C388 0.929 . S
H402 C396 0.929 . S
H403 C397 0.930 . S
Mn404 O409 2.095 . S
Mn404 O419 2.162 . S
Mn404 O420 2.297 . S
Mn404 O428 2.385 . S
Mn404 O429 2.209 . S
Mn404 O430 2.094 . S
Mn405 O410 2.121 . S
Mn405 N412 2.257 . S
Mn405 N421 2.282 . S
Mn405 O429 2.215 . S
Mn405 O431 2.117 . S
C406 O428 1.234 . S
C406 O429 1.283 . S
C407 O419 1.281 . S
C407 O420 1.236 . S
C408 O430 1.240 . S
C408 O431 1.264 . S
O409 Mn404 2.095 . S
O409 C418 1.250 . S
O410 Mn405 2.121 . S
O410 C418 1.258 . S
C411 N412 1.326 . S
C411 C415 1.460 . S
C411 H417 0.929 . S
N412 Mn405 2.257 . S
N412 C411 1.326 . S
N412 C416 1.362 . S
C413 C414 1.258 . S
C413 C416 1.431 . S
C413 C433 1.449 . S
C414 C413 1.258 . S
C414 C415 1.477 . S
C414 H434 0.931 . S
C415 C411 1.460 . S
C415 C414 1.477 . S
C415 H435 0.930 . S
C416 N412 1.362 . S
C416 C413 1.431 . S
C416 C426 1.476 . S
H417 C411 0.929 . S
C418 O409 1.250 . S
C418 O410 1.258 . S
O419 Mn404 2.162 . S
O419 C407 1.281 . S
O420 Mn404 2.297 . S
O420 C407 1.236 . S
N421 Mn405 2.282 . S
N421 C422 1.328 . S
N421 C426 1.318 . S
C422 N421 1.328 . S
C422 C423 1.457 . S
C422 H427 0.929 . S
C423 C422 1.457 . S
C423 C424 1.291 . S
C423 H436 0.931 . S
C424 C423 1.291 . S
C424 C425 1.373 . S
C424 H437 0.929 . S
C425 C424 1.373 . S
C425 C426 1.396 . S
C425 C432 1.403 . S
C426 C416 1.476 . S
C426 N421 1.318 . S
C426 C425 1.396 . S
H427 C422 0.929 . S
O428 Mn404 2.385 . S
O428 C406 1.234 . S
O429 Mn404 2.209 . S
O429 Mn405 2.215 . S
O429 C406 1.283 . S
O430 Mn404 2.094 . S
O430 C408 1.240 . S
O431 Mn405 2.117 . S
O431 C408 1.264 . S
C432 C425 1.403 . S
C432 C433 1.399 . S
C432 H438 0.929 . S
C433 C413 1.449 . S
C433 C432 1.399 . S
C433 H439 0.930 . S
H434 C414 0.931 . S
H435 C415 0.930 . S
H436 C423 0.931 . S
H437 C424 0.929 . S
H438 C432 0.929 . S
H439 C433 0.930 . S
Mn440 O445 2.095 . S
Mn440 O455 2.162 . S
Mn440 O456 2.297 . S
Mn440 O464 2.385 . S
Mn440 O465 2.209 . S
Mn440 O466 2.094 . S
Mn441 O446 2.121 . S
Mn441 N448 2.257 . S
Mn441 N457 2.282 . S
Mn441 O465 2.215 . S
Mn441 O467 2.117 . S
C442 O464 1.234 . S
C442 O465 1.283 . S
C443 O455 1.281 . S
C443 O456 1.236 . S
C444 O466 1.240 . S
C444 O467 1.264 . S
O445 Mn440 2.095 . S
O445 C454 1.250 . S
O446 Mn441 2.121 . S
O446 C454 1.258 . S
C447 N448 1.326 . S
C447 C451 1.460 . S
C447 H453 0.929 . S
N448 Mn441 2.257 . S
N448 C447 1.326 . S
N448 C452 1.362 . S
C449 C450 1.258 . S
C449 C452 1.431 . S
C449 C469 1.449 1_455 S
C450 C449 1.258 . S
C450 C451 1.477 . S
C450 H470 0.931 1_455 S
C451 C447 1.460 . S
C451 C450 1.477 . S
C451 H471 0.930 . S
C452 N448 1.362 . S
C452 C449 1.431 . S
C452 C462 1.476 . S
H453 C447 0.929 . S
C454 O445 1.250 . S
C454 O446 1.258 . S
O455 Mn440 2.162 . S
O455 C443 1.281 . S
O456 Mn440 2.297 . S
O456 C443 1.236 . S
N457 Mn441 2.282 . S
N457 C458 1.328 . S
N457 C462 1.318 . S
C458 N457 1.328 . S
C458 C459 1.457 . S
C458 H463 0.929 . S
C459 C458 1.457 . S
C459 C460 1.291 . S
C459 H472 0.931 . S
C460 C459 1.291 . S
C460 C461 1.373 . S
C460 H473 0.929 . S
C461 C460 1.373 . S
C461 C462 1.396 . S
C461 C468 1.414 . S
C462 C452 1.476 . S
C462 N457 1.318 . S
C462 C461 1.396 . S
H463 C458 0.929 . S
O464 Mn440 2.385 . S
O464 C442 1.234 . S
O465 Mn440 2.209 . S
O465 Mn441 2.215 . S
O465 C442 1.283 . S
O466 Mn440 2.094 . S
O466 C444 1.240 . S
O467 Mn441 2.117 . S
O467 C444 1.264 . S
C468 C461 1.414 . S
C468 C469 1.397 1_455 S
C468 H474 0.920 1_455 S
C469 C449 1.449 1_655 S
C469 C468 1.397 1_655 S
C469 H475 0.930 . S
H470 C450 0.931 1_655 S
H471 C451 0.930 . S
H472 C459 0.931 . S
H473 C460 0.929 . S
H474 C468 0.920 1_655 S
H475 C469 0.930 . S
Mn476 O481 2.095 . S
Mn476 O491 2.162 . S
Mn476 O492 2.297 . S
Mn476 O500 2.385 . S
Mn476 O501 2.209 . S
Mn476 O502 2.094 . S
Mn477 O482 2.121 . S
Mn477 N484 2.257 . S
Mn477 N493 2.282 . S
Mn477 O501 2.215 . S
Mn477 O503 2.117 . S
C478 O500 1.234 . S
C478 O501 1.283 . S
C479 O491 1.281 . S
C479 O492 1.236 . S
C480 O502 1.240 . S
C480 O503 1.264 . S
O481 Mn476 2.095 . S
O481 C490 1.250 . S
O482 Mn477 2.121 . S
O482 C490 1.258 . S
C483 N484 1.326 . S
C483 C487 1.460 . S
C483 H489 0.929 . S
N484 Mn477 2.257 . S
N484 C483 1.326 . S
N484 C488 1.362 . S
C485 C486 1.258 . S
C485 C488 1.431 . S
C485 C505 1.449 . S
C486 C485 1.258 . S
C486 C487 1.477 . S
C486 H506 0.931 . S
C487 C483 1.460 . S
C487 C486 1.477 . S
C487 H507 0.930 . S
C488 N484 1.362 . S
C488 C485 1.431 . S
C488 C498 1.476 . S
H489 C483 0.929 . S
C490 O481 1.250 . S
C490 O482 1.258 . S
O491 Mn476 2.162 . S
O491 C479 1.281 . S
O492 Mn476 2.297 . S
O492 C479 1.236 . S
N493 Mn477 2.282 . S
N493 C494 1.328 . S
N493 C498 1.318 . S
C494 N493 1.328 . S
C494 C495 1.457 . S
C494 H499 0.929 . S
C495 C494 1.457 . S
C495 C496 1.291 . S
C495 H508 0.931 . S
C496 C495 1.291 . S
C496 C497 1.373 . S
C496 H509 0.929 . S
C497 C496 1.373 . S
C497 C498 1.396 . S
C497 C504 1.403 . S
C498 C488 1.476 . S
C498 N493 1.318 . S
C498 C497 1.396 . S
H499 C494 0.929 . S
O500 Mn476 2.385 . S
O500 C478 1.234 . S
O501 Mn476 2.209 . S
O501 Mn477 2.215 . S
O501 C478 1.283 . S
O502 Mn476 2.094 . S
O502 C480 1.240 . S
O503 Mn477 2.117 . S
O503 C480 1.264 . S
C504 C497 1.403 . S
C504 C505 1.399 . S
C504 H510 0.929 . S
C505 C485 1.449 . S
C505 C504 1.399 . S
C505 H511 0.930 . S
H506 C486 0.931 . S
H507 C487 0.930 . S
H508 C495 0.931 . S
H509 C496 0.929 . S
H510 C504 0.929 . S
H511 C505 0.930 . S
Mn512 O517 2.095 . S
Mn512 O527 2.162 . S
Mn512 O528 2.297 . S
Mn512 O536 2.385 . S
Mn512 O537 2.209 . S
Mn512 O538 2.094 . S
Mn513 O518 2.121 . S
Mn513 N520 2.257 . S
Mn513 N529 2.282 . S
Mn513 O537 2.215 . S
Mn513 O539 2.117 . S
C514 O536 1.234 . S
C514 O537 1.283 . S
C515 O527 1.281 . S
C515 O528 1.236 . S
C516 O538 1.240 . S
C516 O539 1.264 . S
O517 Mn512 2.095 . S
O517 C526 1.250 . S
O518 Mn513 2.121 . S
O518 C526 1.258 . S
C519 N520 1.326 . S
C519 C523 1.460 . S
C519 H525 0.929 . S
N520 Mn513 2.257 . S
N520 C519 1.326 . S
N520 C524 1.362 . S
C521 C522 1.258 . S
C521 C524 1.431 . S
C521 C541 1.449 1_545 S
C522 C521 1.258 . S
C522 C523 1.477 . S
C522 H542 0.931 1_545 S
C523 C519 1.460 . S
C523 C522 1.477 . S
C523 H543 0.930 . S
C524 N520 1.362 . S
C524 C521 1.431 . S
C524 C534 1.476 . S
H525 C519 0.929 . S
C526 O517 1.250 . S
C526 O518 1.258 . S
O527 Mn512 2.162 . S
O527 C515 1.281 . S
O528 Mn512 2.297 . S
O528 C515 1.236 . S
N529 Mn513 2.282 . S
N529 C530 1.328 . S
N529 C534 1.318 . S
C530 N529 1.328 . S
C530 C531 1.457 . S
C530 H535 0.929 . S
C531 C530 1.457 . S
C531 C532 1.291 . S
C531 H544 0.931 . S
C532 C531 1.291 . S
C532 C533 1.373 . S
C532 H545 0.929 . S
C533 C532 1.373 . S
C533 C534 1.396 . S
C533 C540 1.403 . S
C534 C524 1.476 . S
C534 N529 1.318 . S
C534 C533 1.396 . S
H535 C530 0.929 . S
O536 Mn512 2.385 . S
O536 C514 1.234 . S
O537 Mn512 2.209 . S
O537 Mn513 2.215 . S
O537 C514 1.283 . S
O538 Mn512 2.094 . S
O538 C516 1.240 . S
O539 Mn513 2.117 . S
O539 C516 1.264 . S
C540 C533 1.403 . S
C540 C541 1.399 1_545 S
C540 H546 0.929 1_545 S
C541 C521 1.449 1_565 S
C541 C540 1.399 1_565 S
C541 H547 0.930 . S
H542 C522 0.931 1_565 S
H543 C523 0.930 . S
H544 C531 0.931 . S
H545 C532 0.929 . S
H546 C540 0.929 1_565 S
H547 C541 0.930 . S
Mn548 O553 2.095 . S
Mn548 O563 2.162 . S
Mn548 O564 2.297 . S
Mn548 O572 2.385 . S
Mn548 O573 2.209 . S
Mn548 O574 2.094 . S
Mn549 O554 2.121 . S
Mn549 N556 2.257 . S
Mn549 N565 2.282 . S
Mn549 O573 2.215 . S
Mn549 O575 2.117 . S
C550 O572 1.234 . S
C550 O573 1.283 . S
C551 O563 1.281 . S
C551 O564 1.236 . S
C552 O574 1.240 . S
C552 O575 1.264 . S
O553 Mn548 2.095 . S
O553 C562 1.250 . S
O554 Mn549 2.121 . S
O554 C562 1.258 . S
C555 N556 1.326 . S
C555 C559 1.460 . S
C555 H561 0.929 . S
N556 Mn549 2.257 . S
N556 C555 1.326 . S
N556 C560 1.362 . S
C557 C558 1.258 . S
C557 C560 1.431 . S
C557 C577 1.449 1_655 S
C558 C557 1.258 . S
C558 C559 1.477 . S
C558 H578 0.931 1_655 S
C559 C555 1.460 . S
C559 C558 1.477 . S
C559 H579 0.930 . S
C560 N556 1.362 . S
C560 C557 1.431 . S
C560 C570 1.476 . S
H561 C555 0.929 . S
C562 O553 1.250 . S
C562 O554 1.258 . S
O563 Mn548 2.162 . S
O563 C551 1.281 . S
O564 Mn548 2.297 . S
O564 C551 1.236 . S
N565 Mn549 2.282 . S
N565 C566 1.328 . S
N565 C570 1.318 . S
C566 N565 1.328 . S
C566 C567 1.457 . S
C566 H571 0.929 . S
C567 C566 1.457 . S
C567 C568 1.291 . S
C567 H580 0.931 . S
C568 C567 1.291 . S
C568 C569 1.373 . S
C568 H581 0.929 . S
C569 C568 1.373 . S
C569 C570 1.396 . S
C569 C576 1.403 1_655 S
C570 C560 1.476 . S
C570 N565 1.318 . S
C570 C569 1.396 . S
H571 C566 0.929 . S
O572 Mn548 2.385 . S
O572 C550 1.234 . S
O573 Mn548 2.209 . S
O573 Mn549 2.215 . S
O573 C550 1.283 . S
O574 Mn548 2.094 . S
O574 C552 1.240 . S
O575 Mn549 2.117 . S
O575 C552 1.264 . S
C576 C569 1.403 1_455 S
C576 C577 1.399 . S
C576 H582 0.929 . S
C577 C557 1.449 1_455 S
C577 C576 1.399 . S
C577 H583 0.930 . S
H578 C558 0.931 1_455 S
H579 C559 0.930 . S
H580 C567 0.931 . S
H581 C568 0.929 . S
H582 C576 0.929 . S
H583 C577 0.930 . S
Mn584 O589 2.095 . S
Mn584 O599 2.158 1_554 S
Mn584 O600 2.297 1_554 S
Mn584 O608 2.385 1_554 S
Mn584 O609 2.209 1_554 S
Mn584 O610 2.094 . S
Mn585 O590 2.121 . S
Mn585 N592 2.257 1_554 S
Mn585 N601 2.282 1_554 S
Mn585 O609 2.215 1_554 S
Mn585 O611 2.117 . S
C586 O608 1.234 . S
C586 O609 1.283 . S
C587 O599 1.291 . S
C587 O600 1.236 . S
C588 O610 1.240 . S
C588 O611 1.264 . S
O589 Mn584 2.095 . S
O589 C598 1.250 . S
O590 Mn585 2.121 . S
O590 C598 1.258 . S
C591 N592 1.326 1_554 S
C591 C595 1.471 . S
C591 H597 0.929 . S
N592 Mn585 2.257 1_556 S
N592 C591 1.326 1_556 S
N592 C596 1.362 . S
C593 C594 1.258 . S
C593 C596 1.431 . S
C593 C613 1.449 . S
C594 C593 1.258 . S
C594 C595 1.448 1_556 S
C594 H614 0.931 . S
C595 C591 1.471 . S
C595 C594 1.448 1_554 S
C595 H615 0.949 . S
C596 N592 1.362 . S
C596 C593 1.431 . S
C596 C606 1.476 . S
H597 C591 0.929 . S
C598 O589 1.250 . S
C598 O590 1.258 . S
O599 Mn584 2.158 1_556 S
O599 C587 1.291 . S
O600 Mn584 2.297 1_556 S
O600 C587 1.236 . S
N601 Mn585 2.282 1_556 S
N601 C602 1.328 . S
N601 C606 1.318 . S
C602 N601 1.328 . S
C602 C603 1.457 . S
C602 H607 0.929 . S
C603 C602 1.457 . S
C603 C604 1.291 . S
C603 H616 0.931 . S
C604 C603 1.291 . S
C604 C605 1.373 . S
C604 H617 0.929 . S
C605 C604 1.373 . S
C605 C606 1.396 . S
C605 C612 1.403 . S
C606 C596 1.476 . S
C606 N601 1.318 . S
C606 C605 1.396 . S
H607 C602 0.929 . S
O608 Mn584 2.385 1_556 S
O608 C586 1.234 . S
O609 Mn584 2.209 1_556 S
O609 Mn585 2.215 1_556 S
O609 C586 1.283 . S
O610 Mn584 2.094 . S
O610 C588 1.240 . S
O611 Mn585 2.117 . S
O611 C588 1.264 . S
C612 C605 1.403 . S
C612 C613 1.399 . S
C612 H618 0.929 . S
C613 C593 1.449 . S
C613 C612 1.399 . S
C613 H619 0.930 . S
H614 C594 0.931 . S
H615 C595 0.949 . S
H616 C603 0.931 . S
H617 C604 0.929 . S
H618 C612 0.929 . S
H619 C613 0.930 . S
Mn620 O625 2.095 . S
Mn620 O635 2.162 . S
Mn620 O636 2.297 . S
Mn620 O644 2.385 . S
Mn620 O645 2.209 . S
Mn620 O646 2.094 . S
Mn621 O626 2.121 . S
Mn621 N628 2.257 . S
Mn621 N637 2.282 . S
Mn621 O645 2.215 . S
Mn621 O647 2.117 . S
C622 O644 1.234 . S
C622 O645 1.283 . S
C623 O635 1.281 . S
C623 O636 1.236 . S
C624 O646 1.240 . S
C624 O647 1.264 . S
O625 Mn620 2.095 . S
O625 C634 1.250 . S
O626 Mn621 2.121 . S
O626 C634 1.258 . S
C627 N628 1.326 . S
C627 C631 1.460 . S
C627 H633 0.929 . S
N628 Mn621 2.257 . S
N628 C627 1.326 . S
N628 C632 1.362 . S
C629 C630 1.258 . S
C629 C632 1.431 . S
C629 C649 1.452 . S
C630 C629 1.258 . S
C630 C631 1.477 . S
C630 H650 0.931 1_545 S
C631 C627 1.460 . S
C631 C630 1.477 . S
C631 H651 0.930 . S
C632 N628 1.362 . S
C632 C629 1.431 . S
C632 C642 1.476 . S
H633 C627 0.929 . S
C634 O625 1.250 . S
C634 O626 1.258 . S
O635 Mn620 2.162 . S
O635 C623 1.281 . S
O636 Mn620 2.297 . S
O636 C623 1.236 . S
N637 Mn621 2.282 . S
N637 C638 1.328 . S
N637 C642 1.318 . S
C638 N637 1.328 . S
C638 C639 1.457 . S
C638 H643 0.929 . S
C639 C638 1.457 . S
C639 C640 1.291 . S
C639 H652 0.931 . S
C640 C639 1.291 . S
C640 C641 1.373 . S
C640 H653 0.929 . S
C641 C640 1.373 . S
C641 C642 1.396 . S
C641 C648 1.403 . S
C642 C632 1.476 . S
C642 N637 1.318 . S
C642 C641 1.396 . S
H643 C638 0.929 . S
O644 Mn620 2.385 . S
O644 C622 1.234 . S
O645 Mn620 2.209 . S
O645 Mn621 2.215 . S
O645 C622 1.283 . S
O646 Mn620 2.094 . S
O646 C624 1.240 . S
O647 Mn621 2.117 . S
O647 C624 1.264 . S
C648 C641 1.403 . S
C648 C649 1.400 . S
C648 H654 0.929 1_545 S
C649 C629 1.452 . S
C649 C648 1.400 . S
C649 H655 0.926 1_545 S
H650 C630 0.931 1_565 S
H651 C631 0.930 . S
H652 C639 0.931 . S
H653 C640 0.929 . S
H654 C648 0.929 1_565 S
H655 C649 0.926 1_565 S
C656 C657 1.369 . S
C656 C658 1.419 . S
C656 H660 0.930 . S
C657 C656 1.369 . S
C657 C666 1.429 . S
C658 C656 1.419 . S
C658 C659 1.363 . S
C658 H661 0.929 . S
C659 C658 1.363 . S
C659 C665 1.428 . S
H660 C656 0.930 . S
H661 C658 0.929 . S
S662 N663 1.613 . S
S662 N664 1.610 . S
N663 S662 1.613 . S
N663 C666 1.350 . S
N664 S662 1.610 . S
N664 C665 1.351 . S
C665 C659 1.428 . S
C665 N664 1.351 . S
C665 C666 1.434 . S
C666 C657 1.429 . S
C666 N663 1.350 . S
C666 C665 1.434 . S
C667 C668 1.369 . S
C667 C669 1.419 . S
C667 H671 0.930 . S
C668 C667 1.369 . S
C668 C677 1.429 . S
C669 C667 1.419 . S
C669 C670 1.363 . S
C669 H672 0.929 . S
C670 C669 1.363 . S
C670 C676 1.428 . S
H671 C667 0.930 . S
H672 C669 0.929 . S
S673 N674 1.613 . S
S673 N675 1.610 . S
N674 S673 1.613 . S
N674 C677 1.350 . S
N675 S673 1.610 . S
N675 C676 1.351 . S
C676 C670 1.428 . S
C676 N675 1.351 . S
C676 C677 1.434 . S
C677 C668 1.429 . S
C677 N674 1.350 . S
C677 C676 1.434 . S
C678 C679 1.369 . S
C678 C680 1.419 . S
C678 H682 0.930 . S
C679 C678 1.369 . S
C679 C688 1.429 . S
C680 C678 1.419 . S
C680 C681 1.363 . S
C680 H683 0.929 . S
C681 C680 1.363 . S
C681 C687 1.428 . S
H682 C678 0.930 . S
H683 C680 0.929 . S
S684 N685 1.613 . S
S684 N686 1.610 . S
N685 S684 1.613 . S
N685 C688 1.350 . S
N686 S684 1.610 . S
N686 C687 1.351 . S
C687 C681 1.428 . S
C687 N686 1.351 . S
C687 C688 1.434 . S
C688 C679 1.429 . S
C688 N685 1.350 . S
C688 C687 1.434 . S
C689 C690 1.364 1_556 S
C689 C691 1.419 . S
C689 H693 0.935 . S
C690 C689 1.364 1_554 S
C690 C699 1.429 . S
C691 C689 1.419 . S
C691 C692 1.363 1_556 S
C691 H694 0.929 . S
C692 C691 1.363 1_554 S
C692 C698 1.428 . S
H693 C689 0.935 . S
H694 C691 0.929 . S
S695 N696 1.613 . S
S695 N697 1.610 . S
N696 S695 1.613 . S
N696 C699 1.350 . S
N697 S695 1.610 . S
N697 C698 1.351 . S
C698 C692 1.428 . S
C698 N697 1.351 . S
C698 C699 1.434 . S
C699 C690 1.429 . S
C699 N696 1.350 . S
C699 C698 1.434 . S
C700 C701 1.369 . S
C700 C702 1.416 1_556 S
C700 H704 0.930 1_556 S
C701 C700 1.369 . S
C701 C710 1.429 . S
C702 C700 1.416 1_554 S
C702 C703 1.346 1_554 S
C702 H705 0.951 . S
C703 C702 1.346 1_556 S
C703 C709 1.428 . S
H704 C700 0.930 1_554 S
H705 C702 0.951 . S
S706 N707 1.613 . S
S706 N708 1.610 . S
N707 S706 1.613 . S
N707 C710 1.350 . S
N708 S706 1.610 . S
N708 C709 1.351 . S
C709 C703 1.428 . S
C709 N708 1.351 . S
C709 C710 1.434 . S
C710 C701 1.429 . S
C710 N707 1.350 . S
C710 C709 1.434 . S
C711 C712 1.369 . S
C711 C713 1.419 . S
C711 H715 0.930 . S
C712 C711 1.369 . S
C712 C721 1.429 . S
C713 C711 1.419 . S
C713 C714 1.363 . S
C713 H716 0.929 . S
C714 C713 1.363 . S
C714 C720 1.428 . S
H715 C711 0.930 . S
H716 C713 0.929 . S
S717 N718 1.613 . S
S717 N719 1.610 . S
N718 S717 1.613 . S
N718 C721 1.350 . S
N719 S717 1.610 . S
N719 C720 1.351 . S
C720 C714 1.428 . S
C720 N719 1.351 . S
C720 C721 1.434 . S
C721 C712 1.429 . S
C721 N718 1.350 . S
C721 C720 1.434 . S
C722 C723 1.369 . S
C722 C724 1.419 . S
C722 H726 0.930 . S
C723 C722 1.369 . S
C723 C732 1.429 . S
C724 C722 1.419 . S
C724 C725 1.363 . S
C724 H727 0.929 . S
C725 C724 1.363 . S
C725 C731 1.428 . S
H726 C722 0.930 . S
H727 C724 0.929 . S
S728 N729 1.613 . S
S728 N730 1.610 . S
N729 S728 1.613 . S
N729 C732 1.350 . S
N730 S728 1.610 . S
N730 C731 1.351 . S
C731 C725 1.428 . S
C731 N730 1.351 . S
C731 C732 1.434 . S
C732 C723 1.429 . S
C732 N729 1.350 . S
C732 C731 1.434 . S
C733 C734 1.369 . S
C733 C735 1.419 . S
C733 H737 0.930 . S
C734 C733 1.369 . S
C734 C743 1.429 . S
C735 C733 1.419 . S
C735 C736 1.363 . S
C735 H738 0.929 . S
C736 C735 1.363 . S
C736 C742 1.428 . S
H737 C733 0.930 . S
H738 C735 0.929 . S
S739 N740 1.613 . S
S739 N741 1.610 . S
N740 S739 1.613 . S
N740 C743 1.350 . S
N741 S739 1.610 . S
N741 C742 1.351 . S
C742 C736 1.428 . S
C742 N741 1.351 . S
C742 C743 1.434 . S
C743 C734 1.429 . S
C743 N740 1.350 . S
C743 C742 1.434 . S
C744 C745 1.369 . S
C744 C746 1.419 . S
C744 H748 0.930 . S
C745 C744 1.369 . S
C745 C754 1.429 . S
C746 C744 1.419 . S
C746 C747 1.363 . S
C746 H749 0.929 . S
C747 C746 1.363 . S
C747 C753 1.428 . S
H748 C744 0.930 . S
H749 C746 0.929 . S
S750 N751 1.613 . S
S750 N752 1.610 . S
N751 S750 1.613 . S
N751 C754 1.350 . S
N752 S750 1.610 . S
N752 C753 1.351 . S
C753 C747 1.428 . S
C753 N752 1.351 . S
C753 C754 1.434 . S
C754 C745 1.429 . S
C754 N751 1.350 . S
C754 C753 1.434 . S
C755 C756 1.369 . S
C755 C757 1.419 . S
C755 H759 0.930 . S
C756 C755 1.369 . S
C756 C765 1.431 . S
C757 C755 1.419 . S
C757 C758 1.363 . S
C757 H760 0.929 . S
C758 C757 1.363 . S
C758 C764 1.428 1_554 S
H759 C755 0.930 . S
H760 C757 0.929 . S
S761 N762 1.613 . S
S761 N763 1.610 . S
N762 S761 1.613 . S
N762 C765 1.348 1_556 S
N763 S761 1.610 . S
N763 C764 1.351 . S
C764 C758 1.428 1_556 S
C764 N763 1.351 . S
C764 C765 1.434 1_556 S
C765 C756 1.431 . S
C765 N762 1.348 1_554 S
C765 C764 1.434 1_554 S
C766 C767 1.369 . S
C766 C768 1.419 . S
C766 H770 0.930 . S
C767 C766 1.369 . S
C767 C776 1.429 . S
C768 C766 1.419 . S
C768 C769 1.363 . S
C768 H771 0.929 . S
C769 C768 1.363 . S
C769 C775 1.428 . S
H770 C766 0.930 . S
H771 C768 0.929 . S
S772 N773 1.613 . S
S772 N774 1.610 . S
N773 S772 1.613 . S
N773 C776 1.350 . S
N774 S772 1.610 . S
N774 C775 1.351 . S
C775 C769 1.428 . S
C775 N774 1.351 . S
C775 C776 1.434 . S
C776 C767 1.429 . S
C776 N773 1.350 . S
C776 C775 1.434 . S
C777 C778 1.369 . S
C777 C779 1.419 . S
C777 H781 0.930 . S
C778 C777 1.369 . S
C778 C787 1.429 . S
C779 C777 1.419 . S
C779 C780 1.363 . S
C779 H782 0.929 . S
C780 C779 1.363 . S
C780 C786 1.428 . S
H781 C777 0.930 . S
H782 C779 0.929 . S
S783 N784 1.613 . S
S783 N785 1.610 . S
N784 S783 1.613 . S
N784 C787 1.350 . S
N785 S783 1.610 . S
N785 C786 1.351 . S
C786 C780 1.428 . S
C786 N785 1.351 . S
C786 C787 1.434 . S
C787 C778 1.429 . S
C787 N784 1.350 . S
C787 C786 1.434 . S
C788 C789 1.369 . S
C788 C790 1.419 . S
C788 H792 0.930 . S
C789 C788 1.369 . S
C789 C798 1.429 . S
C790 C788 1.419 . S
C790 C791 1.363 . S
C790 H793 0.929 . S
C791 C790 1.363 . S
C791 C797 1.428 . S
H792 C788 0.930 . S
H793 C790 0.929 . S
S794 N795 1.613 . S
S794 N796 1.610 . S
N795 S794 1.613 . S
N795 C798 1.350 . S
N796 S794 1.610 . S
N796 C797 1.351 . S
C797 C791 1.428 . S
C797 N796 1.351 . S
C797 C798 1.434 . S
C798 C789 1.429 . S
C798 N795 1.350 . S
C798 C797 1.434 . S
C799 C800 1.369 . S
C799 C801 1.419 . S
C799 H803 0.930 . S
C800 C799 1.369 . S
C800 C809 1.429 . S
C801 C799 1.419 . S
C801 C802 1.363 . S
C801 H804 0.929 . S
C802 C801 1.363 . S
C802 C808 1.428 . S
H803 C799 0.930 . S
H804 C801 0.929 . S
S805 N806 1.613 . S
S805 N807 1.610 . S
N806 S805 1.613 . S
N806 C809 1.350 . S
N807 S805 1.610 . S
N807 C808 1.351 . S
C808 C802 1.428 . S
C808 N807 1.351 . S
C808 C809 1.434 . S
C809 C800 1.429 . S
C809 N806 1.350 . S
C809 C808 1.434 . S
C810 C811 1.369 . S
C810 C812 1.419 1_556 S
C810 H814 0.930 1_556 S
C811 C810 1.369 . S
C811 C820 1.429 . S
C812 C810 1.419 1_554 S
C812 C813 1.363 1_554 S
C812 H815 0.929 . S
C813 C812 1.363 1_556 S
C813 C819 1.428 . S
H814 C810 0.930 1_554 S
H815 C812 0.929 . S
S816 N817 1.613 . S
S816 N818 1.610 . S
N817 S816 1.613 . S
N817 C820 1.350 . S
N818 S816 1.610 . S
N818 C819 1.351 . S
C819 C813 1.428 . S
C819 N818 1.351 . S
C819 C820 1.434 . S
C820 C811 1.429 . S
C820 N817 1.350 . S
C820 C819 1.434 . S
C821 C822 1.369 . S
C821 C823 1.419 . S
C821 H825 0.930 . S
C822 C821 1.369 . S
C822 C831 1.429 . S
C823 C821 1.419 . S
C823 C824 1.363 . S
C823 H826 0.929 . S
C824 C823 1.363 . S
C824 C830 1.428 . S
H825 C821 0.930 . S
H826 C823 0.929 . S
S827 N828 1.613 . S
S827 N829 1.610 . S
N828 S827 1.613 . S
N828 C831 1.350 . S
N829 S827 1.610 . S
N829 C830 1.351 . S
C830 C824 1.428 . S
C830 N829 1.351 . S
C830 C831 1.434 . S
C831 C822 1.429 . S
C831 N828 1.350 . S
C831 C830 1.434 . S
C832 C833 1.369 . S
C832 C834 1.419 . S
C832 H836 0.930 . S
C833 C832 1.369 . S
C833 C842 1.429 . S
C834 C832 1.419 . S
C834 C835 1.363 . S
C834 H837 0.929 . S
C835 C834 1.363 . S
C835 C841 1.428 . S
H836 C832 0.930 . S
H837 C834 0.929 . S
S838 N839 1.613 . S
S838 N840 1.610 . S
N839 S838 1.613 . S
N839 C842 1.350 . S
N840 S838 1.610 . S
N840 C841 1.351 . S
C841 C835 1.428 . S
C841 N840 1.351 . S
C841 C842 1.434 . S
C842 C833 1.429 . S
C842 N839 1.350 . S
C842 C841 1.434 . S
C843 C844 1.369 . S
C843 C845 1.419 . S
C843 H847 0.930 . S
C844 C843 1.369 . S
C844 C853 1.429 . S
C845 C843 1.419 . S
C845 C846 1.363 . S
C845 H848 0.929 . S
C846 C845 1.363 . S
C846 C852 1.428 . S
H847 C843 0.930 . S
H848 C845 0.929 . S
S849 N850 1.613 . S
S849 N851 1.610 . S
N850 S849 1.613 . S
N850 C853 1.350 . S
N851 S849 1.610 . S
N851 C852 1.351 . S
C852 C846 1.428 . S
C852 N851 1.351 . S
C852 C853 1.434 . S
C853 C844 1.429 . S
C853 N850 1.350 . S
C853 C852 1.434 . S
C854 C855 1.369 . S
C854 C856 1.419 . S
C854 H858 0.930 . S
C855 C854 1.369 . S
C855 C864 1.429 . S
C856 C854 1.419 . S
C856 C857 1.363 . S
C856 H859 0.929 . S
C857 C856 1.363 . S
C857 C863 1.428 . S
H858 C854 0.930 . S
H859 C856 0.929 . S
S860 N861 1.613 . S
S860 N862 1.610 . S
N861 S860 1.613 . S
N861 C864 1.350 . S
N862 S860 1.610 . S
N862 C863 1.351 . S
C863 C857 1.428 . S
C863 N862 1.351 . S
C863 C864 1.434 . S
C864 C855 1.429 . S
C864 N861 1.350 . S
C864 C863 1.434 . S
C865 C866 1.369 . S
C865 C867 1.419 . S
C865 H869 0.930 . S
C866 C865 1.369 . S
C866 C875 1.429 . S
C867 C865 1.419 . S
C867 C868 1.363 . S
C867 H870 0.929 . S
C868 C867 1.363 . S
C868 C874 1.428 . S
H869 C865 0.930 . S
H870 C867 0.929 . S
S871 N872 1.613 . S
S871 N873 1.610 . S
N872 S871 1.613 . S
N872 C875 1.350 . S
N873 S871 1.610 . S
N873 C874 1.351 . S
C874 C868 1.428 . S
C874 N873 1.351 . S
C874 C875 1.434 . S
C875 C866 1.429 . S
C875 N872 1.350 . S
C875 C874 1.434 . S
C876 C877 1.369 . S
C876 C878 1.419 . S
C876 H880 0.930 . S
C877 C876 1.369 . S
C877 C886 1.429 . S
C878 C876 1.419 . S
C878 C879 1.363 . S
C878 H881 0.929 . S
C879 C878 1.363 . S
C879 C885 1.428 . S
H880 C876 0.930 . S
H881 C878 0.929 . S
S882 N883 1.613 . S
S882 N884 1.610 . S
N883 S882 1.613 . S
N883 C886 1.350 . S
N884 S882 1.610 . S
N884 C885 1.351 . S
C885 C879 1.428 . S
C885 N884 1.351 . S
C885 C886 1.434 . S
C886 C877 1.429 . S
C886 N883 1.350 . S
C886 C885 1.434 . S
C887 C888 1.369 . S
C887 C889 1.419 . S
C887 H891 0.930 . S
C888 C887 1.369 . S
C888 C897 1.429 . S
C889 C887 1.419 . S
C889 C890 1.363 . S
C889 H892 0.929 . S
C890 C889 1.363 . S
C890 C896 1.428 . S
H891 C887 0.930 . S
H892 C889 0.929 . S
S893 N894 1.613 . S
S893 N895 1.610 . S
N894 S893 1.613 . S
N894 C897 1.350 . S
N895 S893 1.610 . S
N895 C896 1.351 . S
C896 C890 1.428 . S
C896 N895 1.351 . S
C896 C897 1.434 . S
C897 C888 1.429 . S
C897 N894 1.350 . S
C897 C896 1.434 . S
C898 C899 1.369 . S
C898 C900 1.419 . S
C898 H902 0.930 . S
C899 C898 1.369 . S
C899 C908 1.429 . S
C900 C898 1.419 . S
C900 C901 1.363 . S
C900 H903 0.929 . S
C901 C900 1.363 . S
C901 C907 1.428 . S
H902 C898 0.930 . S
H903 C900 0.929 . S
S904 N905 1.613 . S
S904 N906 1.610 . S
N905 S904 1.613 . S
N905 C908 1.350 . S
N906 S904 1.610 . S
N906 C907 1.351 . S
C907 C901 1.428 . S
C907 N906 1.351 . S
C907 C908 1.434 . S
C908 C899 1.429 . S
C908 N905 1.350 . S
C908 C907 1.434 . S
C909 C910 1.369 . S
C909 C911 1.419 . S
C909 H913 0.930 . S
C910 C909 1.369 . S
C910 C919 1.429 . S
C911 C909 1.419 . S
C911 C912 1.363 . S
C911 H914 0.929 . S
C912 C911 1.363 . S
C912 C918 1.428 . S
H913 C909 0.930 . S
H914 C911 0.929 . S
S915 N916 1.613 . S
S915 N917 1.610 . S
N916 S915 1.613 . S
N916 C919 1.350 . S
N917 S915 1.610 . S
N917 C918 1.351 . S
C918 C912 1.428 . S
C918 N917 1.351 . S
C918 C919 1.434 . S
C919 C910 1.429 . S
C919 N916 1.350 . S
C919 C918 1.434 . S
C920 C921 1.369 . S
C920 C922 1.419 . S
C920 H924 0.930 . S
C921 C920 1.369 . S
C921 C930 1.429 . S
C922 C920 1.419 . S
C922 C923 1.363 . S
C922 H925 0.929 . S
C923 C922 1.363 . S
C923 C929 1.428 . S
H924 C920 0.930 . S
H925 C922 0.929 . S
S926 N927 1.613 . S
S926 N928 1.610 . S
N927 S926 1.613 . S
N927 C930 1.350 . S
N928 S926 1.610 . S
N928 C929 1.351 . S
C929 C923 1.428 . S
C929 N928 1.351 . S
C929 C930 1.434 . S
C930 C921 1.429 . S
C930 N927 1.350 . S
C930 C929 1.434 . S
C931 C932 1.369 . S
C931 C933 1.419 . S
C931 H935 0.930 . S
C932 C931 1.369 . S
C932 C941 1.429 . S
C933 C931 1.419 . S
C933 C934 1.363 . S
C933 H936 0.929 . S
C934 C933 1.363 . S
C934 C940 1.428 . S
H935 C931 0.930 . S
H936 C933 0.929 . S
S937 N938 1.613 . S
S937 N939 1.610 . S
N938 S937 1.613 . S
N938 C941 1.350 . S
N939 S937 1.610 . S
N939 C940 1.351 . S
C940 C934 1.428 . S
C940 N939 1.351 . S
C940 C941 1.434 . S
C941 C932 1.429 . S
C941 N938 1.350 . S
C941 C940 1.434 . S
C942 C943 1.369 . S
C942 C944 1.419 . S
C942 H946 0.930 . S
C943 C942 1.369 . S
C943 C952 1.429 . S
C944 C942 1.419 . S
C944 C945 1.363 . S
C944 H947 0.929 . S
C945 C944 1.363 . S
C945 C951 1.428 . S
H946 C942 0.930 . S
H947 C944 0.929 . S
S948 N949 1.613 . S
S948 N950 1.610 . S
N949 S948 1.613 . S
N949 C952 1.350 . S
N950 S948 1.610 . S
N950 C951 1.351 . S
C951 C945 1.428 . S
C951 N950 1.351 . S
C951 C952 1.434 . S
C952 C943 1.429 . S
C952 N949 1.350 . S
C952 C951 1.434 . S
C953 C954 1.369 . S
C953 C955 1.419 . S
C953 H957 0.930 . S
C954 C953 1.369 . S
C954 C963 1.429 . S
C955 C953 1.419 . S
C955 C956 1.363 . S
C955 H958 0.929 . S
C956 C955 1.363 . S
C956 C962 1.428 . S
H957 C953 0.930 . S
H958 C955 0.929 . S
S959 N960 1.613 . S
S959 N961 1.610 . S
N960 S959 1.613 . S
N960 C963 1.350 . S
N961 S959 1.610 . S
N961 C962 1.351 . S
C962 C956 1.428 . S
C962 N961 1.351 . S
C962 C963 1.434 . S
C963 C954 1.429 . S
C963 N960 1.350 . S
C963 C962 1.434 . S
C964 C965 1.369 . S
C964 C966 1.419 . S
C964 H968 0.930 . S
C965 C964 1.369 . S
C965 C974 1.429 . S
C966 C964 1.419 . S
C966 C967 1.363 . S
C966 H969 0.929 . S
C967 C966 1.363 . S
C967 C973 1.428 . S
H968 C964 0.930 . S
H969 C966 0.929 . S
S970 N971 1.613 . S
S970 N972 1.610 . S
N971 S970 1.613 . S
N971 C974 1.350 . S
N972 S970 1.610 . S
N972 C973 1.351 . S
C973 C967 1.428 . S
C973 N972 1.351 . S
C973 C974 1.434 . S
C974 C965 1.429 . S
C974 N971 1.350 . S
C974 C973 1.434 . S
C975 C976 1.369 . S
C975 C977 1.419 . S
C975 H979 0.930 . S
C976 C975 1.369 . S
C976 C985 1.429 . S
C977 C975 1.419 . S
C977 C978 1.363 . S
C977 H980 0.929 . S
C978 C977 1.363 . S
C978 C984 1.428 . S
H979 C975 0.930 . S
H980 C977 0.929 . S
S981 N982 1.613 . S
S981 N983 1.610 . S
N982 S981 1.613 . S
N982 C985 1.350 . S
N983 S981 1.610 . S
N983 C984 1.351 . S
C984 C978 1.428 . S
C984 N983 1.351 . S
C984 C985 1.434 . S
C985 C976 1.429 . S
C985 N982 1.350 . S
C985 C984 1.434 . S
C986 C987 1.369 . S
C986 C988 1.419 . S
C986 H990 0.930 . S
C987 C986 1.369 . S
C987 C996 1.429 . S
C988 C986 1.419 . S
C988 C989 1.363 . S
C988 H991 0.929 . S
C989 C988 1.363 . S
C989 C995 1.428 . S
H990 C986 0.930 . S
H991 C988 0.929 . S
S992 N993 1.613 . S
S992 N994 1.610 . S
N993 S992 1.613 . S
N993 C996 1.350 . S
N994 S992 1.610 . S
N994 C995 1.351 . S
C995 C989 1.428 . S
C995 N994 1.351 . S
C995 C996 1.434 . S
C996 C987 1.429 . S
C996 N993 1.350 . S
C996 C995 1.434 . S
C997 C998 1.369 . S
C997 C999 1.419 . S
C997 H1001 0.930 . S
C998 C997 1.369 . S
C998 C1007 1.429 . S
C999 C997 1.419 . S
C999 C1000 1.363 . S
C999 H1002 0.929 . S
C1000 C999 1.363 . S
C1000 C1006 1.428 . S
H1001 C997 0.930 . S
H1002 C999 0.929 . S
S1003 N1004 1.613 . S
S1003 N1005 1.610 . S
N1004 S1003 1.613 . S
N1004 C1007 1.350 . S
N1005 S1003 1.610 . S
N1005 C1006 1.351 . S
C1006 C1000 1.428 . S
C1006 N1005 1.351 . S
C1006 C1007 1.434 . S
C1007 C998 1.429 . S
C1007 N1004 1.350 . S
C1007 C1006 1.434 . S
C659 C407 1.420 . S
C657 C8 1.375 . S
C670 C444 1.400 . S
C668 C61 1.373 . S
C681 C480 1.418 . S
C679 C107 1.393 . S
C690 C139 1.383 . S
C692 C371 1.441 . S
C701 C192 1.392 . S
C703 C372 1.418 . S
C712 C238 1.388 . S
C714 C408 1.400 . S
C725 C443 1.423 . S
C723 C284 1.374 . S
C736 C479 1.441 . S
C734 C330 1.390 . S
C745 C100 1.376 . S
C747 C551 1.424 . S
C758 C588 1.400 . S
C756 C160 1.387 . S
C767 C15 1.386 . S
C769 C624 1.421 . S
C780 C515 1.444 . S
C778 C54 1.387 . S
C789 C291 1.391 . S
C791 C516 1.421 . S
C800 C337 1.379 . S
C802 C552 1.401 . S
C813 C587 1.420 . S
C811 C199 1.369 . S
C822 C245 1.388 . S
C824 C623 1.439 . S
C835 C442 1.674 . S
C833 C1 1.678 . S
C846 C478 1.668 . S
C844 C68 1.650 . S
C855 C114 1.619 . S
C857 C382 1.471 . S
C866 C146 1.640 . S
C868 C418 1.489 . S
C877 C185 1.641 . S
C879 C490 1.480 . S
C890 C370 1.677 . S
C888 C231 1.678 . S
C901 C406 1.686 . S
C899 C277 1.685 . S
C912 C454 1.495 . S
C910 C323 1.649 . S
C923 C586 1.688 . S
C921 C93 1.683 . S
C934 C622 1.676 . S
C932 C153 1.663 . S
C943 C22 1.629 . S
C945 C526 1.479 . S
C956 C562 1.488 . S
C954 C47 1.651 . S
C967 C634 1.469 . S
C965 C298 1.619 . S
C976 C344 1.656 . S
C978 C514 1.664 . S
C989 C550 1.677 . S
C987 C206 1.662 . S
C1000 C598 1.481 . S
C998 C252 1.628 . S
