# Generated by pormake.
# Topology zzz, (3,6)-cn, num edge types: 1
# Building blocks:
#     Node 0, Type 0, BuildingBlock: ESEHIV_clean_linker_0, # of connection points: 3
#     Node 1, Type 0, BuildingBlock: ESEHIV_clean_linker_0, # of connection points: 3
#     Node 2, Type 0, BuildingBlock: ESEHIV_clean_linker_0, # of connection points: 3
#     Node 3, Type 0, BuildingBlock: ESEHIV_clean_linker_0, # of connection points: 3
#     Node 4, Type 0, BuildingBlock: ESEHIV_clean_linker_0, # of connection points: 3
#     Node 5, Type 0, BuildingBlock: ESEHIV_clean_linker_0, # of connection points: 3
#     Node 6, Type 0, BuildingBlock: ESEHIV_clean_linker_0, # of connection points: 3
#     Node 7, Type 0, BuildingBlock: ESEHIV_clean_linker_0, # of connection points: 3
#     Node 8, Type 1, BuildingBlock: BETFEN_clean_sbu_0, # of connection points: 6
#     Node 9, Type 1, BuildingBlock: BETFEN_clean_sbu_0, # of connection points: 6
#     Node 10, Type 1, BuildingBlock: BETFEN_clean_sbu_0, # of connection points: 6
#     Node 11, Type 1, BuildingBlock: BETFEN_clean_sbu_0, # of connection points: 6
#     Edge 12, Type (0, 1), BuildingBlock: MIFKUJ_clean_linker_0, # of connection points: 2
#     Edge 13, Type (0, 1), BuildingBlock: MIFKUJ_clean_linker_0, # of connection points: 2
#     Edge 14, Type (0, 1), BuildingBlock: MIFKUJ_clean_linker_0, # of connection points: 2
#     Edge 15, Type (0, 1), BuildingBlock: MIFKUJ_clean_linker_0, # of connection points: 2
#     Edge 16, Type (0, 1), BuildingBlock: MIFKUJ_clean_linker_0, # of connection points: 2
#     Edge 17, Type (0, 1), BuildingBlock: MIFKUJ_clean_linker_0, # of connection points: 2
#     Edge 18, Type (0, 1), BuildingBlock: MIFKUJ_clean_linker_0, # of connection points: 2
#     Edge 19, Type (0, 1), BuildingBlock: MIFKUJ_clean_linker_0, # of connection points: 2
#     Edge 20, Type (0, 1), BuildingBlock: MIFKUJ_clean_linker_0, # of connection points: 2
#     Edge 21, Type (0, 1), BuildingBlock: MIFKUJ_clean_linker_0, # of connection points: 2
#     Edge 22, Type (0, 1), BuildingBlock: MIFKUJ_clean_linker_0, # of connection points: 2
#     Edge 23, Type (0, 1), BuildingBlock: MIFKUJ_clean_linker_0, # of connection points: 2
#     Edge 24, Type (0, 1), BuildingBlock: MIFKUJ_clean_linker_0, # of connection points: 2
#     Edge 25, Type (0, 1), BuildingBlock: MIFKUJ_clean_linker_0, # of connection points: 2
#     Edge 26, Type (0, 1), BuildingBlock: MIFKUJ_clean_linker_0, # of connection points: 2
#     Edge 27, Type (0, 1), BuildingBlock: MIFKUJ_clean_linker_0, # of connection points: 2
#     Edge 28, Type (0, 1), BuildingBlock: MIFKUJ_clean_linker_0, # of connection points: 2
#     Edge 29, Type (0, 1), BuildingBlock: MIFKUJ_clean_linker_0, # of connection points: 2
#     Edge 30, Type (0, 1), BuildingBlock: MIFKUJ_clean_linker_0, # of connection points: 2
#     Edge 31, Type (0, 1), BuildingBlock: MIFKUJ_clean_linker_0, # of connection points: 2
#     Edge 32, Type (0, 1), BuildingBlock: MIFKUJ_clean_linker_0, # of connection points: 2
#     Edge 33, Type (0, 1), BuildingBlock: MIFKUJ_clean_linker_0, # of connection points: 2
#     Edge 34, Type (0, 1), BuildingBlock: MIFKUJ_clean_linker_0, # of connection points: 2
#     Edge 35, Type (0, 1), BuildingBlock: MIFKUJ_clean_linker_0, # of connection points: 2
# Relax obj value: 0.449
# Max RMSD: 0.269
# Mean RMSD: 0.253
data_MOF--net-zzz--node1-BETFEN_clean_sbu_0--node2-ESEHIV_clean_linker_0--edge1-MIFKUJ_clean_linker_0
_symmetry_space_group_name_H-M    P1
_symmetry_Int_Tables_number       1
_symmetry_cell_setting            triclinic
loop_
_symmetry_equiv_pos_as_xyz
'x, y, z'
_cell_length_a     61.187524
_cell_length_b     61.071148
_cell_length_c     18.741485
_cell_angle_alpha  89.884649
_cell_angle_beta   90.132918
_cell_angle_gamma 89.995587
loop_
_atom_site_label
_atom_site_type_symbol
_atom_site_fract_x
_atom_site_fract_y
_atom_site_fract_z
_atom_type_partial_charge
H0 H 0.76645 0.48311 0.31103 0.0
H1 H 0.70535 0.48755 0.2001 0.0
H2 H 0.71865 0.53094 0.37667 0.0
C3 C 0.75027 0.49028 0.30618 0.0
C4 C 0.74429 0.50746 0.35167 0.0
C5 C 0.7364 0.48328 0.25138 0.0
C6 C 0.71592 0.49295 0.24323 0.0
C7 C 0.70907 0.50987 0.28836 0.0
C8 C 0.72345 0.51745 0.34275 0.0
H9 H 0.9762 0.77095 0.31406 0.0
H10 H 0.97623 0.70961 0.20482 0.0
H11 H 0.01535 0.71766 0.3948 0.0
C12 C 0.98094 0.75386 0.31254 0.0
C13 C 0.99561 0.74583 0.36394 0.0
C14 C 0.97443 0.74103 0.25458 0.0
C15 C 0.98094 0.71922 0.25104 0.0
C16 C 0.99549 0.71039 0.30118 0.0
C17 C 1.00323 0.72388 0.35779 0.0
H18 H 0.74123 0.97251 0.29035 0.0
H19 H 0.80594 0.96871 0.20407 0.0
H20 H 0.79236 0.01244 0.3789 0.0
C21 C 0.75838 0.97685 0.29278 0.0
C22 C 0.76504 0.99218 0.34415 0.0
C23 C 0.77271 0.96901 0.24025 0.0
C24 C 0.79473 0.97489 0.24403 0.0
C25 C 0.80207 0.99075 0.29234 0.0
C26 C 0.78713 0.99958 0.34303 0.0
H27 H 0.52778 0.74096 0.28853 0.0
H28 H 0.50569 0.80104 0.38369 0.0
H29 H 0.52468 0.79938 0.162 0.0
C30 C 0.52522 0.75851 0.28466 0.0
C31 C 0.5275 0.76895 0.21849 0.0
C32 C 0.51753 0.76965 0.3448 0.0
C33 C 0.51225 0.79225 0.33845 0.0
C34 C 0.51537 0.80318 0.27209 0.0
C35 C 0.5231 0.79131 0.2133 0.0
H36 H 0.23945 0.52569 0.10757 0.0
H37 H 0.30099 0.52142 0.21617 0.0
H38 H 0.29313 0.49134 0.00955 0.0
C39 C 0.25638 0.52041 0.10842 0.0
C40 C 0.26462 0.50854 0.05031 0.0
C41 C 0.26928 0.52508 0.16823 0.0
C42 C 0.29081 0.51758 0.17038 0.0
C43 C 0.29962 0.50537 0.11409 0.0
C44 C 0.28644 0.50062 0.05356 0.0
H45 H 0.97284 0.25063 0.05725 0.0
H46 H 0.97967 0.30753 0.18774 0.0
H47 H 0.02644 0.29499 0.02056 0.0
C48 C 0.98102 0.26601 0.06809 0.0
C49 C 0.99992 0.27138 0.02982 0.0
C50 C 0.97411 0.2786 0.12594 0.0
C51 C 0.98492 0.29805 0.14192 0.0
C52 C 1.00343 0.30455 0.10338 0.0
C53 C 0.01147 0.2908 0.04812 0.0
H54 H 0.27717 0.03486 0.10374 0.0
H55 H 0.2218 0.02205 0.23587 0.0
H56 H 0.21383 0.02529 0.0075 0.0
C57 C 0.25967 0.03255 0.1092 0.0
C58 C 0.24681 0.03116 0.04753 0.0
C59 C 0.25111 0.02745 0.17622 0.0
C60 C 0.22852 0.02538 0.18354 0.0
C61 C 0.21458 0.02489 0.12386 0.0
C62 C 0.22392 0.02728 0.05458 0.0
H63 H 0.51301 0.27929 0.10245 0.0
H64 H 0.4912 0.21883 0.00654 0.0
H65 H 0.51596 0.21982 0.22277 0.0
C66 C 0.51031 0.26174 0.10555 0.0
C67 C 0.51547 0.25065 0.16849 0.0
C68 C 0.5013 0.2507 0.047 0.0
C69 C 0.49787 0.22768 0.05162 0.0
C70 C 0.50353 0.21631 0.11546 0.0
C71 C 0.51187 0.22821 0.17338 0.0
Pr72 Pr 0.0288 1.00191 0.77522 0.0
Pr73 Pr 0.9933 0.01052 0.64988 0.0
C74 C 0.04683 0.98986 0.89922 0.0
C75 C 0.04313 0.96891 0.93656 0.0
C76 C 0.05811 0.95166 0.92726 0.0
C77 C 0.05147 0.93 0.93717 0.0
C78 C 0.02984 0.92548 0.9566 0.0
C79 C 0.01574 0.94271 0.97422 0.0
C80 C 0.02243 0.96429 0.96519 0.0
C81 C 0.05071 0.01019 0.64531 0.0
C82 C 0.00897 0.95878 0.68256 0.0
C83 C 0.97471 0.01873 0.52269 0.0
C84 C 0.97218 0.03814 0.47791 0.0
C85 C 0.95224 0.04168 0.4429 0.0
C86 C 0.94778 0.06198 0.41205 0.0
C87 C 0.96332 0.07884 0.41552 0.0
C88 C 0.98376 0.07485 0.44708 0.0
C89 C 0.98811 0.05465 0.47868 0.0
C90 C 0.97058 1.00301 0.77861 0.0
C91 C 0.01302 0.05363 0.74338 0.0
O92 O 0.03019 1.0034 0.89592 0.0
O93 O 0.057 0.98798 0.83821 0.0
O94 O 0.03034 0.01 0.65618 0.0
O95 O 0.06067 0.00672 0.70547 0.0
O96 O 0.99871 0.97254 0.6393 0.0
O97 O 0.01976 0.96565 0.73987 0.0
O98 O 0.99445 0.01069 0.52924 0.0
O99 O 0.96406 0.01959 0.58293 0.0
O100 O 0.99123 1.00282 0.7708 0.0
O101 O 0.96137 0.00631 0.71717 0.0
O102 O 0.02361 0.03987 0.78609 0.0
O103 O 1.00184 0.04684 0.68647 0.0
H104 H 0.07428 0.95478 0.90609 0.0
H105 H 0.06269 0.91684 0.92478 0.0
H106 H 0.99919 0.93946 0.99174 0.0
H107 H 0.01073 0.97719 0.97511 0.0
H108 H 0.93972 0.02913 0.4426 0.0
H109 H 0.93198 0.06475 0.38741 0.0
H110 H 0.9959 0.08772 0.45079 0.0
H111 H 1.00345 0.05233 0.50669 0.0
Pr112 Pr 0.51073 0.0281 0.76177 0.0
Pr113 Pr 0.49757 0.99582 0.62687 0.0
C114 C 0.52642 0.04181 0.88713 0.0
C115 C 0.54773 0.03593 0.91701 0.0
C116 C 0.56025 0.05139 0.95426 0.0
C117 C 0.5825 0.04751 0.96675 0.0
C118 C 0.59232 0.02827 0.94101 0.0
C119 C 0.5794 0.01238 0.9074 0.0
C120 C 0.55738 0.01623 0.89513 0.0
C121 C 0.50447 0.05231 0.63433 0.0
C122 C 0.55013 0.00881 0.65422 0.0
C123 C 0.4842 0.97965 0.50149 0.0
C124 C 0.46648 0.9647 0.48217 0.0
C125 C 0.45849 0.94963 0.53238 0.0
C126 C 0.43817 0.93973 0.52206 0.0
C127 C 0.42544 0.94507 0.46199 0.0
C128 C 0.43447 0.95874 0.409 0.0
C129 C 0.45485 0.96845 0.41908 0.0
C130 C 0.50243 0.97098 0.75353 0.0
C131 C 0.45783 0.01641 0.73417 0.0
O132 O 0.51217 0.02583 0.88229 0.0
O133 O 0.52771 0.05361 0.829 0.0
O134 O 0.50275 0.03199 0.64394 0.0
O135 O 0.50912 0.06138 0.6952 0.0
O136 O 0.53495 1.00329 0.60684 0.0
O137 O 0.54498 0.01526 0.71969 0.0
O138 O 0.47752 0.99852 0.52645 0.0
O139 O 0.50062 0.97124 0.53736 0.0
O140 O 0.50514 0.99139 0.7458 0.0
O141 O 0.49713 0.96266 0.69217 0.0
O142 O 0.47256 0.02586 0.7762 0.0
O143 O 0.46297 1.00543 0.67522 0.0
H144 H 0.55312 0.06686 0.97003 0.0
H145 H 0.5922 0.05994 0.99314 0.0
H146 H 0.58651 0.99723 0.88837 0.0
H147 H 0.54825 1.00432 0.86452 0.0
H148 H 0.46722 0.94665 0.58181 0.0
H149 H 0.43185 0.92902 0.56326 0.0
H150 H 0.42508 0.96352 0.36246 0.0
H151 H 0.4607 0.98023 0.38022 0.0
Pr152 Pr 0.48336 0.51508 0.75363 0.0
Pr153 Pr 0.51825 0.50723 0.66608 0.0
C154 C 0.45572 0.5177 0.86502 0.0
C155 C 0.45333 0.53374 0.92288 0.0
C156 C 0.4344 0.54666 0.92619 0.0
C157 C 0.43432 0.56587 0.96637 0.0
C158 C 0.45316 0.57227 0.00391 0.0
C159 C 0.47108 0.55793 0.00737 0.0
C160 C 0.4712 0.53884 0.96703 0.0
C161 C 0.4677 0.50965 0.61406 0.0
C162 C 0.50208 0.55912 0.67947 0.0
C163 C 0.54878 0.50096 0.56567 0.0
C164 C 0.55468 0.47999 0.53267 0.0
C165 C 0.57613 0.47197 0.53922 0.0
C166 C 0.58046 0.44972 0.52835 0.0
C167 C 0.56329 0.43543 0.5115 0.0
C168 C 0.54228 0.44377 0.49923 0.0
C169 C 0.538 0.46585 0.50954 0.0
C170 C 0.53184 0.51191 0.80863 0.0
C171 C 0.49864 0.46281 0.73354 0.0
O172 O 0.47346 0.5058 0.86579 0.0
O173 O 0.45085 0.52492 0.80132 0.0
O174 O 0.48228 0.49757 0.64212 0.0
O175 O 0.4612 0.5246 0.65794 0.0
O176 O 0.51278 0.54478 0.64051 0.0
O177 O 0.49076 0.55242 0.735 0.0
O178 O 0.5293 0.50856 0.55084 0.0
O179 O 0.55347 0.50222 0.63344 0.0
O180 O 0.51918 0.52502 0.77629 0.0
O181 O 0.53655 0.49526 0.76898 0.0
O182 O 0.48822 0.47702 0.77381 0.0
O183 O 0.51017 0.46994 0.67925 0.0
H184 H 0.42035 0.54288 0.89312 0.0
H185 H 0.42021 0.57656 0.96364 0.0
H186 H 0.4859 0.56248 0.03541 0.0
H187 H 0.48601 0.52913 0.96608 0.0
H188 H 0.58917 0.48255 0.55776 0.0
H189 H 0.59679 0.44347 0.53751 0.0
H190 H 0.52892 0.43295 0.48512 0.0
H191 H 0.52126 0.47143 0.50451 0.0
Pr192 Pr 1.00022 0.49004 0.75876 0.0
Pr193 Pr 0.01188 0.5219 0.64156 0.0
C194 C 0.98177 0.46721 0.8652 0.0
C195 C 0.95898 0.46028 0.87729 0.0
C196 C 0.953 0.4383 0.86691 0.0
C197 C 0.93111 0.43198 0.87089 0.0
C198 C 0.91481 0.44751 0.88572 0.0
C199 C 0.92087 0.46939 0.89762 0.0
C200 C 0.9427 0.47572 0.89336 0.0
C201 C 0.01222 0.46993 0.63083 0.0
C202 C 0.95925 0.51184 0.66017 0.0
C203 C 0.02967 0.53822 0.52278 0.0
C204 C 0.05177 0.54747 0.51427 0.0
C205 C 0.05475 0.56892 0.489 0.0
C206 C 0.07561 0.57839 0.4892 0.0
C207 C 0.09365 0.56659 0.51565 0.0
C208 C 0.09061 0.54504 0.53968 0.0
C209 C 0.06998 0.53559 0.53882 0.0
C210 C 0.01082 0.54687 0.76815 0.0
C211 C 0.05168 0.50221 0.74607 0.0
O212 O 0.98584 0.4882 0.86956 0.0
O213 O 0.9917 0.45786 0.81169 0.0
O214 O 0.99949 0.48626 0.63592 0.0
O215 O 0.01963 0.46405 0.693 0.0
O216 O 0.9741 0.52168 0.62032 0.0
O217 O 0.96498 0.49998 0.71639 0.0
O218 O 0.02885 0.51718 0.53617 0.0
O219 O 0.0162 0.54967 0.56211 0.0
O220 O 0.00705 0.52656 0.76422 0.0
O221 O 0.01501 0.55482 0.70562 0.0
O222 O 0.03646 0.49683 0.79269 0.0
O223 O 0.04625 0.50879 0.68121 0.0
H224 H 0.96523 0.42608 0.85427 0.0
H225 H 0.92692 0.41499 0.86162 0.0
H226 H 0.90877 0.48163 0.91118 0.0
H227 H 0.94671 0.4928 0.90181 0.0
H228 H 0.04092 0.57843 0.47038 0.0
H229 H 0.07761 0.59497 0.46964 0.0
H230 H 0.10428 0.5353 0.55836 0.0
H231 H 0.06834 0.51901 0.5585 0.0
H232 H 0.17663 0.04774 0.08898 0.0
H233 H 0.14106 0.04382 0.14841 0.0
H234 H 0.16583 0.98766 0.26364 0.0
H235 H 0.19949 0.98977 0.19718 0.0
H236 H 0.12858 0.98103 0.2661 0.0
H237 H 0.16383 0.0519 0.31916 0.0
H238 H 0.17755 0.08861 0.28663 0.0
H239 H 0.11436 0.10581 0.20344 0.0
H240 H 0.10036 0.06915 0.23507 0.0
H241 H 0.09254 0.99851 0.61943 0.0
H242 H 0.11298 1.00009 0.50801 0.0
H243 H 0.05676 0.02717 0.40075 0.0
H244 H 0.03584 0.02525 0.51332 0.0
H245 H 0.10096 0.04936 0.37594 0.0
H246 H 0.06618 0.97858 0.36119 0.0
H247 H 0.05554 0.94253 0.40949 0.0
H248 H 0.1231 0.92565 0.43844 0.0
H249 H 0.13415 0.96172 0.39134 0.0
C250 C 0.17397 0.03398 0.12444 0.0
C251 C 0.19112 0.01928 0.13897 0.0
C252 C 0.15377 0.03208 0.16052 0.0
C253 C 0.15069 0.01617 0.21474 0.0
C254 C 0.16724 1.00036 0.22352 0.0
C255 C 0.18677 1.00159 0.18516 0.0
C256 C 0.13143 0.01631 0.2659 0.0
C257 C 0.12288 0.99613 0.29002 0.0
C258 C 0.12279 0.03576 0.29692 0.0
C259 C 0.13116 0.05778 0.27866 0.0
C260 C 0.15292 0.06353 0.29379 0.0
C261 C 0.16073 0.0843 0.27548 0.0
C262 C 0.14685 0.09951 0.24278 0.0
C263 C 0.1251 0.09401 0.2286 0.0
C264 C 0.11722 0.07325 0.24671 0.0
C265 C 0.08439 1.0048 0.57229 0.0
C266 C 0.06244 0.01166 0.57551 0.0
C267 C 0.09616 0.00565 0.50837 0.0
C268 C 0.08649 0.01365 0.44557 0.0
C269 C 0.06462 0.02088 0.44839 0.0
C270 C 0.05262 0.01968 0.51265 0.0
C271 C 0.09961 0.01423 0.378 0.0
C272 C 0.10675 0.03444 0.35099 0.0
C273 C 0.10761 0.99482 0.3462 0.0
C274 C 0.10098 0.97291 0.37293 0.0
C275 C 0.07876 0.96722 0.37816 0.0
C276 C 0.07266 0.94678 0.40532 0.0
C277 C 0.08863 0.93182 0.42707 0.0
C278 C 0.11075 0.93725 0.42152 0.0
C279 C 0.11694 0.95767 0.39448 0.0
H280 H 0.08387 0.91601 0.44817 0.0
H281 H 0.15294 0.11557 0.22858 0.0
H282 H 0.5364 0.18808 0.14317 0.0
H283 H 0.53349 0.15419 0.2097 0.0
H284 H 0.46335 0.15551 0.1838 0.0
H285 H 0.46637 0.19088 0.12185 0.0
H286 H 0.46882 0.14768 0.30935 0.0
H287 H 0.50214 0.11192 0.11463 0.0
H288 H 0.52805 0.10491 0.01668 0.0
H289 H 0.581 0.10141 0.16695 0.0
H290 H 0.55549 0.10864 0.26573 0.0
H291 H 0.48404 0.04007 0.50856 0.0
H292 H 0.48072 0.06176 0.39781 0.0
H293 H 0.51813 0.11364 0.49431 0.0
H294 H 0.52097 0.09244 0.6048 0.0
H295 H 0.52346 0.08774 0.31878 0.0
H296 H 0.48407 0.13769 0.50037 0.0
H297 H 0.45523 0.13991 0.59204 0.0
H298 H 0.40971 0.10928 0.4488 0.0
H299 H 0.43845 0.10659 0.35686 0.0
C300 C 0.5204 0.18067 0.14893 0.0
C301 C 0.50164 0.19215 0.12655 0.0
C302 C 0.5187 0.16106 0.18725 0.0
C303 C 0.49818 0.15173 0.20225 0.0
C304 C 0.47946 0.16219 0.17387 0.0
C305 C 0.48115 0.18226 0.13695 0.0
C306 C 0.49635 0.13307 0.25498 0.0
C307 C 0.48063 0.13445 0.30971 0.0
C308 C 0.5114 0.11526 0.25698 0.0
C309 C 0.52686 0.11095 0.19764 0.0
C310 C 0.51932 0.10979 0.12678 0.0
C311 C 0.53395 0.10576 0.07109 0.0
C312 C 0.55616 0.10278 0.08558 0.0
C313 C 0.56379 0.10373 0.15581 0.0
C314 C 0.54924 0.10775 0.21169 0.0
C315 C 0.49162 0.05603 0.50588 0.0
C316 C 0.50271 0.06453 0.56559 0.0
C317 C 0.4897 0.06843 0.44265 0.0
C318 C 0.49907 0.08942 0.43787 0.0
C319 C 0.51058 0.09761 0.49687 0.0
C320 C 0.51218 0.08545 0.56009 0.0
C321 C 0.4967 0.10327 0.37251 0.0
C322 C 0.51156 0.10089 0.31622 0.0
C323 C 0.48059 0.11974 0.36763 0.0
C324 C 0.46338 0.12176 0.42232 0.0
C325 C 0.46795 0.13131 0.48877 0.0
C326 C 0.45163 0.13266 0.54069 0.0
C327 C 0.43066 0.12469 0.52633 0.0
C328 C 0.42596 0.1154 0.45994 0.0
C329 C 0.44225 0.11394 0.40798 0.0
H330 H 0.41805 0.12575 0.56656 0.0
H331 H 0.56747 0.09972 0.04242 0.0
H332 H 0.33561 0.52945 0.08382 0.0
H333 H 0.37065 0.52648 0.1464 0.0
H334 H 0.35037 0.4648 0.2368 0.0
H335 H 0.31528 0.46788 0.17415 0.0
H336 H 0.37113 0.52841 0.28681 0.0
H337 H 0.39677 0.43608 0.29389 0.0
H338 H 0.39931 0.40492 0.21078 0.0
H339 H 0.40257 0.44933 0.03323 0.0
H340 H 0.40039 0.48074 0.1152 0.0
H341 H 0.42362 0.51005 0.60729 0.0
H342 H 0.4002 0.50478 0.50352 0.0
H343 H 0.45685 0.49152 0.374 0.0
H344 H 0.48048 0.49568 0.48019 0.0
H345 H 0.42335 0.46745 0.32684 0.0
H346 H 0.43244 0.54347 0.37782 0.0
H347 H 0.43291 0.5765 0.45334 0.0
H348 H 0.36456 0.56832 0.49739 0.0
H349 H 0.36374 0.53507 0.42296 0.0
C350 C 0.33915 0.51465 0.11363 0.0
C351 C 0.32285 0.49867 0.12276 0.0
C352 C 0.35909 0.51311 0.15043 0.0
C353 C 0.36324 0.4955 0.19706 0.0
C354 C 0.3478 0.47845 0.20077 0.0
C355 C 0.32777 0.48008 0.16422 0.0
C356 C 0.38163 0.49675 0.25001 0.0
C357 C 0.3826 0.51509 0.295 0.0
C358 C 0.39699 0.47964 0.26044 0.0
C359 C 0.39816 0.46078 0.21079 0.0
C360 C 0.39807 0.43921 0.23714 0.0
C361 C 0.39945 0.42149 0.1902 0.0
C362 C 0.40102 0.42514 0.11676 0.0
C363 C 0.40125 0.44652 0.09009 0.0
C364 C 0.39988 0.46428 0.13678 0.0
C365 C 0.43112 0.50569 0.55696 0.0
C366 C 0.45392 0.50349 0.55177 0.0
C367 C 0.41769 0.50281 0.49733 0.0
C368 C 0.42667 0.49845 0.42988 0.0
C369 C 0.44943 0.49508 0.42509 0.0
C370 C 0.46295 0.49745 0.48572 0.0
C371 C 0.41221 0.49876 0.36495 0.0
C372 C 0.41196 0.48079 0.31802 0.0
C373 C 0.39774 0.51646 0.35136 0.0
C374 C 0.39807 0.53671 0.39507 0.0
C375 C 0.41753 0.54868 0.40382 0.0
C376 C 0.41786 0.56743 0.44646 0.0
C377 C 0.39878 0.57449 0.48021 0.0
C378 C 0.37932 0.56284 0.47121 0.0
C379 C 0.37891 0.54405 0.42872 0.0
H380 H 0.39908 0.589 0.51326 0.0
H381 H 0.40211 0.41141 0.08053 0.0
H382 H 0.99348 0.34678 0.07016 0.0
H383 H 0.99966 0.37835 0.1483 0.0
H384 H 0.04161 0.33891 0.28165 0.0
H385 H 0.03546 0.30742 0.20324 0.0
H386 H 0.00747 0.35586 0.35537 0.0
H387 H 0.06118 0.38387 0.19224 0.0
H388 H 0.07552 0.39636 0.07633 0.0
H389 H 0.02649 0.44659 0.06696 0.0
H390 H 0.01161 0.43417 0.18237 0.0
H391 H 0.03549 0.43216 0.61907 0.0
H392 H 0.03755 0.40717 0.5179 0.0
H393 H 0.99633 0.45028 0.39457 0.0
H394 H 0.99424 0.4756 0.49654 0.0
H395 H 0.02947 0.43288 0.31182 0.0
H396 H 0.97465 0.40552 0.46681 0.0
H397 H 0.95797 0.3936 0.58001 0.0
H398 H 0.00583 0.34251 0.6001 0.0
H399 H 0.02302 0.35436 0.48748 0.0
C400 C 0.00504 0.34524 0.11375 0.0
C401 C 0.01445 0.32474 0.12939 0.0
C402 C 0.00838 0.36326 0.15906 0.0
C403 C 0.02104 0.36111 0.22144 0.0
C404 C 0.03178 0.34108 0.23399 0.0
C405 C 0.02858 0.32314 0.18842 0.0
C406 C 0.0206 0.37842 0.27818 0.0
C407 C 0.01271 0.37259 0.34599 0.0
C408 C 0.02635 0.40059 0.26547 0.0
C409 C 0.03512 0.40792 0.19566 0.0
C410 C 0.05329 0.39742 0.16513 0.0
C411 C 0.06156 0.40453 0.09958 0.0
C412 C 0.05189 0.42223 0.06419 0.0
C413 C 0.03395 0.43287 0.09437 0.0
C414 C 0.0256 0.4258 0.15988 0.0
C415 C 0.02694 0.43647 0.57037 0.0
C416 C 0.01454 0.45584 0.56628 0.0
C417 C 0.0281 0.42208 0.51241 0.0
C418 C 0.01686 0.42657 0.44854 0.0
C419 C 0.00511 0.44635 0.44317 0.0
C420 C 1.00387 0.4608 0.50157 0.0
C421 C 0.01684 0.4101 0.38921 0.0
C422 C 0.0244 0.4161 0.32107 0.0
C423 C 0.01043 0.38808 0.40097 0.0
C424 C 1.00028 0.38099 0.46908 0.0
C425 C 0.98176 0.39189 0.49572 0.0
C426 C 0.97218 0.38512 0.55971 0.0
C427 C 0.98087 0.36735 0.59734 0.0
C428 C 0.99914 0.3563 0.57096 0.0
C429 C 0.0088 0.36303 0.50703 0.0
H430 H 0.97342 0.36212 0.64683 0.0
H431 H 0.05832 0.42772 0.01347 0.0
H432 H 0.8124 0.02551 0.20891 0.0
H433 H 0.84621 0.02928 0.13997 0.0
H434 H 0.87563 0.97755 0.26345 0.0
H435 H 0.84155 0.97335 0.33117 0.0
H436 H 0.90233 0.02556 0.19438 0.0
H437 H 0.86812 0.95165 0.15414 0.0
H438 H 0.83503 0.92909 0.13744 0.0
H439 H 0.81352 0.97184 0.96917 0.0
H440 H 0.84642 0.99477 0.98557 0.0
H441 H 0.98387 0.99916 0.92166 0.0
H442 H 0.96011 0.99831 0.02827 0.0
H443 H 0.90355 0.00595 0.89255 0.0
H444 H 0.92673 0.00554 0.78836 0.0
H445 H 0.8931 0.97815 0.98196 0.0
H446 H 0.92997 0.04795 0.00421 0.0
H447 H 0.96119 0.07301 0.02068 0.0
H448 H 0.97625 0.04253 0.22143 0.0
H449 H 0.94547 0.01692 0.20543 0.0
C450 C 0.82649 0.01585 0.22432 0.0
C451 C 0.82439 0.99956 0.2772 0.0
C452 C 0.84579 0.01782 0.18412 0.0
C453 C 0.86359 1.00372 0.19626 0.0
C454 C 0.86228 0.98878 0.25333 0.0
C455 C 0.84284 0.98659 0.29286 0.0
C456 C 0.88161 1.00211 0.14219 0.0
C457 C 0.90057 0.01498 0.14832 0.0
C458 C 0.87924 0.98866 0.08142 0.0
C459 C 0.85958 0.97492 0.07133 0.0
C460 C 0.85625 0.95627 0.11389 0.0
C461 C 0.83758 0.94341 0.10436 0.0
C462 C 0.82223 0.94898 0.05207 0.0
C463 C 0.82548 0.96749 0.00941 0.0
C464 C 0.84412 0.98043 0.01881 0.0
C465 C 0.96637 1.0003 0.91501 0.0
C466 C 0.95734 1.00209 0.84605 0.0
C467 C 0.9527 1.00012 0.97609 0.0
C468 C 0.92973 1.00217 0.9695 0.0
C469 C 0.921 1.00411 0.90036 0.0
C470 C 0.93446 1.00395 0.84016 0.0
C471 C 0.91424 1.00187 0.0325 0.0
C472 C 0.8954 0.98862 0.02806 0.0
C473 C 0.91683 0.01516 0.09435 0.0
C474 C 0.93561 0.03027 0.10305 0.0
C475 C 0.94011 0.04639 0.05142 0.0
C476 C 0.9577 0.06073 0.06073 0.0
C477 C 0.97073 0.05931 0.12189 0.0
C478 C 0.96621 0.04355 0.17391 0.0
C479 C 0.94872 0.02909 0.16468 0.0
H480 H 0.98429 0.07048 0.12908 0.0
H481 H 0.80779 0.939 0.04477 0.0
H482 H 0.47836 0.81811 0.2095 0.0
H483 H 0.47521 0.85192 0.13968 0.0
H484 H 0.53714 0.87382 0.22251 0.0
H485 H 0.54051 0.83968 0.29157 0.0
H486 H 0.49529 0.90858 0.18591 0.0
H487 H 0.54938 0.85512 0.09104 0.0
H488 H 0.55921 0.81675 0.06516 0.0
H489 H 0.50082 0.80943 0.93993 0.0
H490 H 0.49063 0.84776 0.96547 0.0
H491 H 0.51853 0.98149 0.88877 0.0
H492 H 0.52038 0.95735 0.994 0.0
H493 H 0.48708 0.90676 0.87561 0.0
H494 H 0.48647 0.93014 0.77084 0.0
H495 H 0.51677 0.88788 0.94003 0.0
H496 H 0.46364 0.94047 0.0177 0.0
H497 H 0.44903 0.97695 0.04751 0.0
H498 H 0.49893 0.98504 0.20679 0.0
H499 H 0.51405 0.94872 0.17713 0.0
C500 C 0.49069 0.83069 0.21611 0.0
C501 C 0.50942 0.82643 0.25759 0.0
C502 C 0.48898 0.84995 0.17555 0.0
C503 C 0.5059 0.86551 0.17579 0.0
C504 C 0.52373 0.86224 0.22212 0.0
C505 C 0.52555 0.8428 0.26222 0.0
C506 C 0.50675 0.8826 0.11847 0.0
C507 C 0.5003 0.90426 0.13229 0.0
C508 C 0.51269 0.87688 0.04813 0.0
C509 C 0.51924 0.85421 0.03028 0.0
C510 C 0.53866 0.8453 0.05798 0.0
C511 C 0.54431 0.82359 0.0433 0.0
C512 C 0.53065 0.81066 1.00091 0.0
C513 C 0.51139 0.81947 0.9727 0.0
C514 C 0.50571 0.8412 0.98706 0.0
C515 C 0.51171 0.96522 0.88541 0.0
C516 C 0.50263 0.95775 0.82086 0.0
C517 C 0.51256 0.95139 0.94594 0.0
C518 C 0.50382 0.92997 0.94375 0.0
C519 C 0.49424 0.92294 0.87951 0.0
C520 C 0.4938 0.93648 0.81923 0.0
C521 C 0.50509 0.91434 0.0062 0.0
C522 C 0.51193 0.89266 0.99343 0.0
C523 C 0.49909 0.9201 0.07707 0.0
C524 C 0.49015 0.942 0.09453 0.0
C525 C 0.47163 0.95012 0.0586 0.0
C526 C 0.46323 0.97075 0.07555 0.0
C527 C 0.47309 0.98334 0.12884 0.0
C528 C 0.49134 0.9753 0.16539 0.0
C529 C 0.49984 0.95469 0.14852 0.0
H530 H 0.46655 0.99929 0.14195 0.0
H531 H 0.53498 0.79381 0.98998 0.0
H532 H 0.699 0.54596 0.20852 0.0
H533 H 0.66463 0.55148 0.14291 0.0
H534 H 0.6356 0.49784 0.25856 0.0
H535 H 0.66986 0.49243 0.324 0.0
H536 H 0.63472 0.49121 0.11566 0.0
H537 H 0.61551 0.54991 0.27358 0.0
H538 H 0.62075 0.58487 0.33693 0.0
H539 H 0.62647 0.61869 0.13676 0.0
H540 H 0.62156 0.58387 0.07216 0.0
H541 H 0.53677 0.48617 0.92529 0.0
H542 H 0.56237 0.49087 0.02443 0.0
H543 H 0.58369 0.55233 0.93419 0.0
H544 H 0.55657 0.54837 0.83804 0.0
H545 H 0.58817 0.55607 0.06774 0.0
H546 H 0.61123 0.49895 0.90923 0.0
H547 H 0.60778 0.46465 0.84082 0.0
H548 H 0.598 0.42863 0.03516 0.0
H549 H 0.60113 0.46277 0.10466 0.0
C550 C 0.68488 0.5362 0.2228 0.0
C551 C 0.68701 0.51911 0.27283 0.0
C552 C 0.66525 0.53919 0.18459 0.0
C553 C 0.6474 0.52501 0.19521 0.0
C554 C 0.64903 0.50902 0.24912 0.0
C555 C 0.66855 0.50614 0.28746 0.0
C556 C 0.6284 0.52471 0.14421 0.0
C557 C 0.62431 0.50532 0.10626 0.0
C558 C 0.61529 0.54331 0.12925 0.0
C559 C 0.61839 0.56423 0.16803 0.0
C560 C 0.6181 0.56476 0.24305 0.0
C561 C 0.62096 0.58456 0.27919 0.0
C562 C 0.624 0.60398 0.2409 0.0
C563 C 0.62414 0.60363 0.16636 0.0
C564 C 0.6213 0.58387 0.12996 0.0
C565 C 0.54655 0.50095 0.92772 0.0
C566 C 0.54466 0.5169 0.87405 0.0
C567 C 0.56149 0.50351 0.98395 0.0
C568 C 0.57586 0.52154 0.986 0.0
C569 C 0.57312 0.53812 0.93415 0.0
C570 C 0.55755 0.53589 0.87907 0.0
C571 C 0.59432 0.52243 0.03953 0.0
C572 C 0.59847 0.54191 0.07745 0.0
C573 C 0.60789 0.50401 0.05368 0.0
C574 C 0.60621 0.48344 0.01204 0.0
C575 C 0.60824 0.48373 0.93731 0.0
C576 C 0.60635 0.46432 0.89836 0.0
C577 C 0.60262 0.44448 0.93361 0.0
C578 C 0.60086 0.44401 0.00792 0.0
C579 C 0.60271 0.46338 0.04712 0.0
H580 H 0.60114 0.42948 0.90336 0.0
H581 H 0.62619 0.61929 0.26899 0.0
H582 H 0.03361 0.70059 0.23452 0.0
H583 H 0.03926 0.66873 0.15741 0.0
H584 H 0.98061 0.63919 0.24033 0.0
H585 H 0.97494 0.67113 0.31721 0.0
H586 H 0.01296 0.6074 0.20232 0.0
H587 H 0.97536 0.66911 0.09682 0.0
H588 H 0.97065 0.70788 0.063 0.0
H589 H 0.03057 0.70586 0.94436 0.0
H590 H 0.03562 0.66703 0.9775 0.0
H591 H 0.98873 0.54044 0.89504 0.0
H592 H 0.98813 0.56479 0.99927 0.0
H593 H 0.03489 0.60725 0.89621 0.0
H594 H 0.03418 0.58388 0.79099 0.0
H595 H 0.00795 0.63179 0.95028 0.0
H596 H 0.0451 0.56899 0.05075 0.0
H597 H 0.04916 0.53001 0.08296 0.0
H598 H 0.99125 0.53351 0.21139 0.0
H599 H 0.98669 0.57245 0.17923 0.0
C600 C 0.02265 0.68674 0.23947 0.0
C601 C 1.00409 0.68823 0.28333 0.0
C602 C 0.02566 0.66864 0.19432 0.0
C603 C 0.01017 0.6516 0.19191 0.0
C604 C 0.99284 0.65201 0.241 0.0
C605 C 0.98975 0.67019 0.28579 0.0
C606 C 0.01036 0.63521 0.13224 0.0
C607 C 0.01179 0.61268 0.14716 0.0
C608 C 0.00893 0.64194 0.06001 0.0
C609 C 0.00596 0.66526 0.04013 0.0
C610 C 0.9876 0.67698 0.06388 0.0
C611 C 0.98484 0.69894 0.0447 0.0
C612 C 1.00035 0.70935 1.00179 0.0
C613 C 0.01859 0.69778 0.97768 0.0
C614 C 0.02138 0.67579 0.99646 0.0
C615 C 0.99894 0.55493 0.8951 0.0
C616 C 0.01145 0.56025 0.83464 0.0
C617 C 0.99876 0.56884 0.9551 0.0
C618 C 0.01171 0.58799 0.95709 0.0
C619 C 0.02458 0.59283 0.89689 0.0
C620 C 0.02426 0.57935 0.8365 0.0
C621 C 0.01131 0.60368 0.01938 0.0
C622 C 0.00951 0.62626 0.0051 0.0
C623 C 0.01255 0.59689 0.09196 0.0
C624 C 0.01545 0.57358 0.11207 0.0
C625 C 0.03318 0.56142 0.08558 0.0
C626 C 0.03557 0.53933 0.10385 0.0
C627 C 0.02045 0.52928 0.14905 0.0
C628 C 1.00294 0.54131 0.17631 0.0
C629 C 1.00045 0.56339 0.15815 0.0
H630 H 0.02231 0.51218 0.16306 0.0
H631 H 0.9982 0.72637 0.98707 0.0
H632 H 0.98468 0.26956 0.26191 0.0
H633 H 0.97004 0.23914 0.32978 0.0
H634 H 0.91657 0.23345 0.18011 0.0
H635 H 0.93243 0.26302 0.10842 0.0
H636 H 0.94025 0.21922 0.39412 0.0
H637 H 0.90916 0.18549 0.13193 0.0
H638 H 0.91294 0.19017 1.00152 0.0
H639 H 0.9795 0.21079 0.02945 0.0
H640 H 0.97588 0.20678 0.16002 0.0
H641 H 0.9276 0.10267 0.452 0.0
H642 H 0.91924 0.14054 0.41729 0.0
H643 H 0.97832 0.14273 0.29209 0.0
H644 H 0.98673 0.10498 0.32674 0.0
H645 H 0.94219 0.15805 0.22032 0.0
H646 H 0.97919 0.16644 0.4428 0.0
H647 H 0.98607 0.16052 0.57103 0.0
H648 H 0.92381 0.18893 0.62115 0.0
H649 H 0.91638 0.19472 0.49286 0.0
C650 C 0.96925 0.26249 0.24519 0.0
C651 C 0.95989 0.26818 0.17933 0.0
C652 C 0.96083 0.24503 0.28416 0.0
C653 C 0.94272 0.23336 0.25827 0.0
C654 C 0.93107 0.2417 0.19944 0.0
C655 C 0.93995 0.25872 0.15893 0.0
C656 C 0.93956 0.21047 0.28261 0.0
C657 C 0.94014 0.20583 0.35617 0.0
C658 C 0.94009 0.19289 0.23327 0.0
C659 C 0.94213 0.19615 0.15537 0.0
C660 C 0.92451 0.1912 0.11007 0.0
C661 C 0.92662 0.1938 0.03627 0.0
C662 C 0.94638 0.201 0.00727 0.0
C663 C 0.96413 0.20548 0.05199 0.0
C664 C 0.96202 0.20319 0.12589 0.0
C665 C 0.93861 0.11123 0.41642 0.0
C666 C 0.95771 0.10104 0.3914 0.0
C667 C 0.93393 0.13281 0.39725 0.0
C668 C 0.9482 0.14428 0.35241 0.0
C669 C 0.96712 0.13401 0.3267 0.0
C670 C 0.97193 0.11257 0.34647 0.0
C671 C 0.94351 0.16699 0.33116 0.0
C672 C 0.94137 0.17142 0.25833 0.0
C673 C 0.94281 0.1843 0.38103 0.0
C674 C 0.94705 0.18065 0.45814 0.0
C675 C 0.96682 0.17116 0.48106 0.0
C676 C 0.97086 0.16789 0.55375 0.0
C677 C 0.95534 0.17425 0.60416 0.0
C678 C 0.93577 0.18394 0.58197 0.0
C679 C 0.93163 0.18722 0.50926 0.0
H680 H 0.95853 0.17174 0.66037 0.0
H681 H 0.94792 0.20307 0.95016 0.0
H682 H 0.24713 0.02999 0.32361 0.0
H683 H 0.26647 0.0071 0.41101 0.0
H684 H 0.30755 0.98197 0.24313 0.0
H685 H 0.28742 1.00267 0.15606 0.0
H686 H 0.29139 0.94934 0.32196 0.0
H687 H 0.32249 0.02421 0.37029 0.0
H688 H 0.31626 0.06186 0.41351 0.0
H689 H 0.29175 0.03657 0.61179 0.0
H690 H 0.29763 0.99879 0.5693 0.0
H691 H 0.40051 0.93425 0.34583 0.0
H692 H 0.36132 0.93856 0.33643 0.0
H693 H 0.35694 0.94734 0.5646 0.0
H694 H 0.39653 0.94504 0.57338 0.0
H695 H 0.33992 0.97991 0.50836 0.0
H696 H 0.32601 0.90534 0.46794 0.0
H697 H 0.33136 0.86797 0.4216 0.0
H698 H 0.32317 0.8915 0.20719 0.0
H699 H 0.31811 0.92902 0.25188 0.0
C700 C 0.26033 0.01962 0.3055 0.0
C701 C 0.26567 0.01835 0.23246 0.0
C702 C 0.27136 0.00659 0.35554 0.0
C703 C 0.28819 0.99258 0.33326 0.0
C704 C 0.29433 0.99236 0.26137 0.0
C705 C 0.28309 1.00479 0.21159 0.0
C706 C 0.30003 0.97792 0.38272 0.0
C707 C 0.302 0.95583 0.36326 0.0
C708 C 0.3126 0.98607 0.43991 0.0
C709 C 0.31017 0.00875 0.4663 0.0
C710 C 0.31571 0.02672 0.42299 0.0
C711 C 0.31217 0.04807 0.44724 0.0
C712 C 0.30335 0.0516 0.515 0.0
C713 C 0.29833 0.03381 0.55902 0.0
C714 C 0.3018 0.01244 0.53494 0.0
C715 C 0.39119 0.93659 0.39429 0.0
C716 C 0.40176 0.93986 0.45993 0.0
C717 C 0.36858 0.93863 0.38915 0.0
C718 C 0.35597 0.94323 0.44998 0.0
C719 C 0.36627 0.94383 0.51691 0.0
C720 C 0.38899 0.9423 0.52186 0.0
C721 C 0.33352 0.952 0.44069 0.0
C722 C 0.32904 0.97285 0.46908 0.0
C723 C 0.31877 0.94272 0.39101 0.0
C724 C 0.32154 0.92005 0.36356 0.0
C725 C 0.32539 0.90257 0.41091 0.0
C726 C 0.32839 0.88135 0.38487 0.0
C727 C 0.32756 0.87736 0.31153 0.0
C728 C 0.32372 0.89459 0.26402 0.0
C729 C 0.3207 0.91584 0.28973 0.0
H730 H 0.32992 0.86092 0.2915 0.0
H731 H 0.30066 0.06813 0.53374 0.0
H732 H 0.55109 0.27702 0.16958 0.0
H733 H 0.56395 0.29995 0.26799 0.0
H734 H 0.51274 0.27452 0.40269 0.0
H735 H 0.49996 0.25129 0.30426 0.0
H736 H 0.51252 0.31988 0.38422 0.0
H737 H 0.56138 0.26508 0.45786 0.0
H738 H 0.58896 0.23591 0.44651 0.0
H739 H 0.63531 0.28245 0.36548 0.0
H740 H 0.6079 0.31188 0.37521 0.0
H741 H 0.54349 0.40628 0.59794 0.0
H742 H 0.54074 0.3668 0.57916 0.0
H743 H 0.58629 0.37168 0.40432 0.0
H744 H 0.58931 0.41129 0.42406 0.0
H745 H 0.58785 0.33056 0.47684 0.0
H746 H 0.53519 0.38146 0.37197 0.0
H747 H 0.50708 0.41036 0.37617 0.0
H748 H 0.46711 0.36973 0.51001 0.0
H749 H 0.49527 0.34086 0.50831 0.0
C750 C 0.54288 0.27608 0.22066 0.0
C751 C 0.5245 0.26266 0.22969 0.0
C752 C 0.55035 0.28893 0.27691 0.0
C753 C 0.5394 0.28866 0.3426 0.0
C754 C 0.5215 0.27466 0.35254 0.0
C755 C 0.51421 0.26154 0.29649 0.0
C756 C 0.54455 0.30566 0.39554 0.0
C757 C 0.52877 0.32187 0.40668 0.0
C758 C 0.56587 0.30829 0.42329 0.0
C759 C 0.58251 0.2907 0.417 0.0
C760 C 0.57739 0.26909 0.43705 0.0
C761 C 0.59301 0.2525 0.43102 0.0
C762 C 0.61387 0.25732 0.40523 0.0
C763 C 0.61915 0.27875 0.38549 0.0
C764 C 0.60358 0.29541 0.39138 0.0
C765 C 0.55351 0.39873 0.55731 0.0
C766 C 0.56634 0.4116 0.51156 0.0
C767 C 0.552 0.37624 0.54684 0.0
C768 C 0.56303 0.36651 0.48968 0.0
C769 C 0.57769 0.37899 0.44878 0.0
C770 C 0.57934 0.40154 0.45971 0.0
C771 C 0.55599 0.34493 0.46333 0.0
C772 C 0.57139 0.32808 0.4568 0.0
C773 C 0.53429 0.34165 0.43918 0.0
C774 C 0.5175 0.35917 0.44107 0.0
C775 C 0.52054 0.37883 0.40314 0.0
C776 C 0.50459 0.39521 0.40506 0.0
C777 C 0.48538 0.39198 0.44388 0.0
C778 C 0.48207 0.37233 0.48065 0.0
C779 C 0.49804 0.35597 0.47932 0.0
H780 H 0.47301 0.40464 0.44511 0.0
H781 H 0.62595 0.24446 0.40062 0.0
H782 H 0.24245 0.56074 0.163 0.0
H783 H 0.22243 0.57709 0.26106 0.0
H784 H 0.25575 0.53459 0.41018 0.0
H785 H 0.27489 0.51712 0.31114 0.0
H786 H 0.2149 0.53105 0.42884 0.0
H787 H 0.26063 0.59246 0.42012 0.0
H788 H 0.28289 0.62187 0.36696 0.0
H789 H 0.22527 0.65078 0.2757 0.0
H790 H 0.20267 0.62139 0.32729 0.0
H791 H 0.12478 0.56503 0.62031 0.0
H792 H 0.16417 0.56909 0.60252 0.0
H793 H 0.15248 0.59199 0.38788 0.0
H794 H 0.11322 0.58785 0.40514 0.0
H795 H 0.1917 0.60867 0.44818 0.0
H796 H 0.15191 0.53844 0.41919 0.0
H797 H 0.1295 0.50823 0.46712 0.0
H798 H 0.17772 0.49605 0.62931 0.0
H799 H 0.20037 0.5262 0.58195 0.0
C800 C 0.24565 0.55497 0.2167 0.0
C801 C 0.25994 0.53737 0.22913 0.0
C802 C 0.23452 0.56466 0.2731 0.0
C803 C 0.23777 0.5573 0.3434 0.0
C804 C 0.25308 0.54064 0.35648 0.0
C805 C 0.26406 0.53072 0.29981 0.0
C806 C 0.22246 0.56443 0.39997 0.0
C807 C 0.21044 0.54813 0.43525 0.0
C808 C 0.2165 0.58669 0.40843 0.0
C809 C 0.22992 0.60467 0.3778 0.0
C810 C 0.25269 0.60503 0.3885 0.0
C811 C 0.26538 0.62171 0.35862 0.0
C812 C 0.2555 0.63819 0.31803 0.0
C813 C 0.2329 0.63804 0.30732 0.0
C814 C 0.22012 0.6214 0.33707 0.0
C815 C 0.13062 0.57167 0.57021 0.0
C816 C 0.11606 0.5756 0.51336 0.0
C817 C 0.15308 0.57413 0.5604 0.0
C818 C 0.16116 0.58042 0.49349 0.0
C819 C 0.14652 0.5871 0.43994 0.0
C820 C 0.12406 0.58468 0.44975 0.0
C821 C 0.18384 0.5752 0.47296 0.0
C822 C 0.19707 0.59178 0.44455 0.0
C823 C 0.19106 0.55319 0.4708 0.0
C824 C 0.17761 0.53482 0.49813 0.0
C825 C 0.15765 0.52939 0.46532 0.0
C826 C 0.14494 0.51225 0.4922 0.0
C827 C 0.15214 0.50027 0.55137 0.0
C828 C 0.17212 0.50537 0.58363 0.0
C829 C 0.18489 0.52249 0.55683 0.0
H830 H 0.14231 0.48696 0.57192 0.0
H831 H 0.26536 0.65108 0.29486 0.0
H832 H 0.99481 0.74118 0.12838 0.0
H833 H 0.99191 0.7695 0.03878 0.0
H834 H 0.93408 0.79467 0.14197 0.0
H835 H 0.93801 0.76681 0.23569 0.0
H836 H 0.97217 0.79178 0.94629 0.0
H837 H 0.93672 0.84635 0.15693 0.0
H838 H 0.92975 0.84904 0.28646 0.0
H839 H 0.98692 0.81048 0.32934 0.0
H840 H 0.99404 0.80727 0.20007 0.0
H841 H 0.99475 0.91051 0.88271 0.0
H842 H 0.97701 0.87467 0.89594 0.0
H843 H 0.02811 0.85446 0.0407 0.0
H844 H 0.04598 0.89015 0.02722 0.0
H845 H 0.98267 0.85822 0.09413 0.0
H846 H 0.02741 0.8289 0.90765 0.0
H847 H 0.04237 0.82496 0.78649 0.0
H848 H 0.97819 0.8113 0.70509 0.0
H849 H 0.96269 0.81585 0.82562 0.0
C850 C 0.98087 0.7521 0.13023 0.0
C851 C 0.96685 0.75214 0.18932 0.0
C852 C 0.97916 0.76836 0.07864 0.0
C853 C 0.9633 0.78482 0.08523 0.0
C854 C 0.94695 0.78258 0.13742 0.0
C855 C 0.94907 0.76663 0.19063 0.0
C856 C 0.96765 0.80618 0.05033 0.0
C857 C 0.97395 0.8065 0.97807 0.0
C858 C 0.9703 0.82539 0.09183 0.0
C859 C 0.96568 0.82634 0.16919 0.0
C860 C 0.94767 0.83831 0.19415 0.0
C861 C 0.94371 0.83989 0.26741 0.0
C862 C 0.95783 0.82979 0.31609 0.0
C863 C 0.97593 0.8181 0.29156 0.0
C864 C 0.9799 0.81632 0.21836 0.0
C865 C 1.00235 0.89817 0.91617 0.0
C866 C 0.02139 0.90299 0.9553 0.0
C867 C 0.99236 0.87776 0.923 0.0
C868 C 1.00129 0.86216 0.96932 0.0
C869 C 0.02113 0.86643 0.00445 0.0
C870 C 0.03125 0.88672 0.99702 0.0
C871 C 0.98823 0.84326 0.992 0.0
C872 C 0.98004 0.84377 0.06149 0.0
C873 C 0.98473 0.82472 0.94871 0.0
C874 C 0.99381 0.8231 0.87558 0.0
C875 C 0.01638 0.82555 0.86375 0.0
C876 C 0.02499 0.82311 0.79522 0.0
C877 C 0.01124 0.81792 0.73818 0.0
C878 C 0.98881 0.81536 0.74937 0.0
C879 C 0.9801 0.81794 0.81775 0.0
H880 H 0.01803 0.8157 0.68554 0.0
H881 H 0.95481 0.83111 0.37282 0.0
H882 H 0.7866 0.97702 0.1034 0.0
H883 H 0.7624 0.97902 1.00198 0.0
H884 H 0.71231 0.94582 0.12192 0.0
H885 H 0.73743 0.94132 0.22157 0.0
H886 H 0.70165 0.94693 0.98216 0.0
H887 H 0.72739 1.00127 0.16525 0.0
H888 H 0.75729 0.02287 0.21983 0.0
H889 H 0.77395 0.04917 0.01467 0.0
H890 H 0.74441 0.02757 0.95878 0.0
H891 H 0.61817 0.03257 0.05891 0.0
H892 H 0.65593 0.01977 0.07191 0.0
H893 H 0.65743 1.00275 0.84857 0.0
H894 H 0.61976 0.01556 0.83538 0.0
H895 H 0.69636 0.02774 0.00758 0.0
H896 H 0.6804 0.95204 0.84097 0.0
H897 H 0.64919 0.93113 0.7925 0.0
H898 H 0.61057 0.94854 0.97487 0.0
H899 H 0.64163 0.9693 0.02468 0.0
C900 C 0.77116 0.96847 0.10706 0.0
C901 C 0.7635 0.9601 0.17263 0.0
C902 C 0.75714 0.96991 0.04855 0.0
C903 C 0.73518 0.96394 0.05645 0.0
C904 C 0.72905 0.95127 0.11566 0.0
C905 C 0.74338 0.94898 0.1732 0.0
C906 C 0.71796 0.9762 0.01789 0.0
C907 C 0.70076 0.96463 0.98595 0.0
C908 C 0.71659 0.99936 0.02373 0.0
C909 C 0.73389 0.01272 0.05787 0.0
C910 C 0.73744 0.01169 0.13194 0.0
C911 C 0.75432 0.02387 0.16304 0.0
C912 C 0.76748 0.03732 0.12078 0.0
C913 C 0.76377 0.0387 0.04731 0.0
C914 C 0.74699 0.0265 0.01588 0.0
C915 C 0.6268 0.02665 0.01236 0.0
C916 C 0.61605 0.02459 0.94659 0.0
C917 C 0.6483 0.01937 0.0197 0.0
C918 C 0.65922 0.01002 0.96136 0.0
C919 C 0.64911 0.00965 0.89429 0.0
C920 C 0.62764 0.01686 0.88699 0.0
C921 C 0.68002 0.99841 0.97325 0.0
C922 C 0.69772 0.01015 1.00073 0.0
C923 C 0.6817 0.97547 0.96399 0.0
C924 C 0.66325 0.9623 0.93616 0.0
C925 C 0.66529 0.95125 0.87087 0.0
C926 C 0.64762 0.93947 0.84314 0.0
C927 C 0.6279 0.93854 0.88052 0.0
C928 C 0.62583 0.94929 0.94592 0.0
C929 C 0.64346 0.96106 0.97392 0.0
H930 H 0.61422 0.92947 0.85886 0.0
H931 H 0.78052 0.04671 0.14497 0.0
H932 H 0.50469 0.7725 0.09355 0.0
H933 H 0.49516 0.74125 0.01982 0.0
H934 H 0.54458 0.70257 0.12533 0.0
H935 H 0.55497 0.73409 0.1971 0.0
H936 H 0.53189 0.68386 0.99869 0.0
H937 H 0.49637 0.71496 0.21447 0.0
H938 H 0.47756 0.74495 0.27691 0.0
H939 H 0.42831 0.74663 0.11364 0.0
H940 H 0.4471 0.71682 0.04945 0.0
H941 H 0.47153 0.58789 0.12725 0.0
H942 H 0.48584 0.62505 0.14496 0.0
H943 H 0.45681 0.64548 0.94637 0.0
H944 H 0.44278 0.60854 0.92703 0.0
H945 H 0.45839 0.67359 0.10611 0.0
H946 H 0.51617 0.66048 0.87638 0.0
H947 H 0.53345 0.63025 0.80976 0.0
H948 H 0.53754 0.59213 1.00208 0.0
H949 H 0.52059 0.62224 0.06976 0.0
C950 C 0.51456 0.75784 0.09799 0.0
C951 C 0.52983 0.75532 0.15367 0.0
C952 C 0.50896 0.73989 0.05586 0.0
C953 C 0.51832 0.71939 0.07036 0.0
C954 C 0.53671 0.71816 0.11495 0.0
C955 C 0.54256 0.73617 0.15629 0.0
C956 C 0.50574 0.69917 0.05711 0.0
C957 C 0.51576 0.68168 0.02154 0.0
C958 C 0.48471 0.69625 0.08754 0.0
C959 C 0.47325 0.71384 0.12691 0.0
C960 C 0.48158 0.72175 0.19186 0.0
C961 C 0.47093 0.73873 0.22753 0.0
C962 C 0.45177 0.74773 0.19932 0.0
C963 C 0.44318 0.73969 0.13538 0.0
C964 C 0.45383 0.72277 0.09929 0.0
C965 C 0.4678 0.60045 0.08817 0.0
C966 C 0.45627 0.59529 0.02547 0.0
C967 C 0.47603 0.62153 0.09815 0.0
C968 C 0.47303 0.63745 0.04511 0.0
C969 C 0.4598 0.63298 0.98614 0.0
C970 C 0.45149 0.61201 0.97612 0.0
C971 C 0.4847 0.65838 0.04891 0.0
C972 C 0.47441 0.67592 0.08252 0.0
C973 C 0.50543 0.66125 0.01693 0.0
C974 C 0.51644 0.64333 0.9776 0.0
C975 C 0.5207 0.6456 0.90433 0.0
C976 C 0.53048 0.62852 0.8664 0.0
C977 C 0.53639 0.60919 0.90152 0.0
C978 C 0.53272 0.60701 0.97476 0.0
C979 C 0.52292 0.62404 0.01284 0.0
H980 H 0.54393 0.59597 0.87211 0.0
H981 H 0.44358 0.76089 0.22707 0.0
H982 H 0.7381 0.48997 0.10874 0.0
H983 H 0.76064 0.47005 0.02398 0.0
H984 H 0.77591 0.42215 0.18648 0.0
H985 H 0.75409 0.44281 0.2725 0.0
H986 H 0.81029 0.44168 0.14702 0.0
H987 H 0.75291 0.40807 0.01693 0.0
H988 H 0.71763 0.40568 0.95366 0.0
H989 H 0.74027 0.45175 0.79708 0.0
H990 H 0.77557 0.4547 0.85991 0.0
H991 H 0.89903 0.41114 0.95275 0.0
H992 H 0.86137 0.40453 0.98898 0.0
H993 H 0.84071 0.46256 0.87602 0.0
H994 H 0.87834 0.46898 0.83748 0.0
H995 H 0.80725 0.42873 0.88615 0.0
H996 H 0.85602 0.47195 0.03057 0.0
H997 H 0.89034 0.4802 0.09422 0.0
H998 H 0.88197 0.42284 0.2242 0.0
H999 H 0.84775 0.41404 0.1602 0.0
C1000 C 0.74559 0.47471 0.12548 0.0
C1001 C 0.7447 0.468 0.19708 0.0
C1002 C 0.75832 0.46318 0.07674 0.0
C1003 C 0.77001 0.44455 0.0987 0.0
C1004 C 0.76705 0.4365 0.16837 0.0
C1005 C 0.75471 0.4483 0.21753 0.0
C1006 C 0.78907 0.43724 0.05636 0.0
C1007 C 0.80946 0.43819 0.09046 0.0
C1008 C 0.7881 0.43347 0.98182 0.0
C1009 C 0.76692 0.43165 0.94339 0.0
C1010 C 0.75034 0.41781 0.96926 0.0
C1011 C 0.73033 0.41634 0.93341 0.0
C1012 C 0.72671 0.42856 0.87142 0.0
C1013 C 0.74311 0.44226 0.84507 0.0
C1014 C 0.76315 0.4438 0.88071 0.0
C1015 C 0.88638 0.422 0.93304 0.0
C1016 C 0.89168 0.44087 0.89372 0.0
C1017 C 0.86486 0.41816 0.95368 0.0
C1018 C 0.84841 0.43322 0.93584 0.0
C1019 C 0.85321 0.45075 0.89016 0.0
C1020 C 0.87476 0.45458 0.86925 0.0
C1021 C 0.82802 0.43357 0.97756 0.0
C1022 C 0.80772 0.43156 0.94324 0.0
C1023 C 0.82885 0.43713 0.05192 0.0
C1024 C 0.84958 0.44212 0.0898 0.0
C1025 C 0.86166 0.46094 0.07207 0.0
C1026 C 0.88106 0.46575 0.1083 0.0
C1027 C 0.88839 0.452 0.16301 0.0
C1028 C 0.87631 0.43342 0.1816 0.0
C1029 C 0.85694 0.42848 0.14528 0.0
H1030 H 0.90337 0.45578 0.19119 0.0
H1031 H 0.7112 0.42741 0.84378 0.0
H1032 H 0.03488 0.24374 0.04305 0.0
H1033 H 0.03959 0.20861 0.98175 0.0
H1034 H 0.98548 0.22425 0.84285 0.0
H1035 H 0.98056 0.25906 0.90536 0.0
H1036 H 0.97899 0.1859 0.89376 0.0
H1037 H 0.04077 0.21894 0.78312 0.0
H1038 H 0.07566 0.23902 0.77644 0.0
H1039 H 0.10698 0.18915 0.90202 0.0
H1040 H 0.07219 0.1689 0.91029 0.0
H1041 H 0.9888 0.08769 0.68541 0.0
H1042 H 0.98877 0.12637 0.72111 0.0
H1043 H 0.0382 0.11269 0.8792 0.0
H1044 H 0.03836 0.07424 0.84403 0.0
H1045 H 0.04728 0.15068 0.81111 0.0
H1046 H 0.98427 0.11804 0.92138 0.0
H1047 H 0.94898 0.09859 0.92563 0.0
H1048 H 0.91935 0.14898 0.7981 0.0
H1049 H 0.95452 0.16858 0.7921 0.0
C1050 C 0.0247 0.24013 0.99721 0.0
C1051 C 0.00774 0.25453 0.97789 0.0
C1052 C 0.02724 0.21985 0.96238 0.0
C1053 C 0.01293 0.21349 0.907 0.0
C1054 C 0.99678 0.22852 0.88516 0.0
C1055 C 0.99418 0.24866 0.92019 0.0
C1056 C 0.01342 0.19063 0.87646 0.0
C1057 C 0.9939 0.17843 0.87455 0.0
C1058 C 0.03287 0.18037 0.85254 0.0
C1059 C 0.05381 0.19251 0.8479 0.0
C1060 C 0.05505 0.21234 0.80983 0.0
C1061 C 0.07482 0.22374 0.80566 0.0
C1062 C 0.09351 0.2154 0.83894 0.0
C1063 C 0.09248 0.19561 0.87635 0.0
C1064 C 0.07274 0.18415 0.88074 0.0
C1065 C 0.99976 0.09289 0.72753 0.0
C1066 C 0.01351 0.07759 0.76183 0.0
C1067 C 0.99966 0.11509 0.7482 0.0
C1068 C 0.01336 0.12263 0.80357 0.0
C1069 C 0.02746 0.10748 0.83647 0.0
C1070 C 0.02745 0.08534 0.81629 0.0
C1071 C 0.01282 0.14608 0.82852 0.0
C1072 C 0.03235 0.1583 0.82978 0.0
C1073 C 0.99332 0.15644 0.8515 0.0
C1074 C 0.97218 0.14457 0.85502 0.0
C1075 C 0.97031 0.12484 0.89345 0.0
C1076 C 0.95031 0.11382 0.89642 0.0
C1077 C 0.93197 0.12248 0.86192 0.0
C1078 C 0.93358 0.14223 0.82455 0.0
C1079 C 0.95356 0.15329 0.82127 0.0
H1080 H 0.9165 0.11393 0.86437 0.0
H1081 H 0.1088 0.22424 0.83562 0.0
H1082 H 0.2632 0.99428 0.98897 0.0
H1083 H 0.29713 0.99224 0.92021 0.0
H1084 H 0.29596 0.06216 0.89116 0.0
H1085 H 0.26238 0.06432 0.96268 0.0
H1086 H 0.31374 0.02801 0.76319 0.0
H1087 H 0.32406 0.05736 0.00355 0.0
H1088 H 0.31901 0.05796 0.13404 0.0
H1089 H 0.34412 0.99247 0.14935 0.0
H1090 H 0.349 0.99138 0.01857 0.0
H1091 H 0.42743 0.04704 0.69498 0.0
H1092 H 0.38926 0.0499 0.73433 0.0
H1093 H 0.39729 0.99144 0.86135 0.0
H1094 H 0.43564 0.98902 0.82325 0.0
H1095 H 0.37502 0.0203 0.93557 0.0
H1096 H 0.36628 0.99091 0.69831 0.0
H1097 H 0.37559 0.99112 0.57033 0.0
H1098 H 0.35012 0.05633 0.55001 0.0
H1099 H 0.34045 0.05643 0.67785 0.0
C1100 C 0.26942 0.00909 0.96439 0.0
C1101 C 0.25959 0.0294 0.97981 0.0
C1102 C 0.28909 0.00794 0.9259 0.0
C1103 C 0.29928 0.02704 0.90049 0.0
C1104 C 0.28841 0.04715 0.90961 0.0
C1105 C 0.26896 0.04836 0.94965 0.0
C1106 C 0.32249 0.0262 0.87448 0.0
C1107 C 0.32712 0.02658 0.80094 0.0
C1108 C 0.34013 0.02387 0.92308 0.0
C1109 C 0.3366 0.02418 1.00127 0.0
C1110 C 0.3282 0.04297 0.03461 0.0
C1111 C 0.3255 0.04346 0.10864 0.0
C1112 C 0.3313 0.02529 0.14996 0.0
C1113 C 0.33967 0.00654 0.11725 0.0
C1114 C 0.3424 0.00598 0.04319 0.0
C1115 C 0.42095 0.03476 0.73096 0.0
C1116 C 0.43443 0.01771 0.75559 0.0
C1117 C 0.39905 0.03631 0.75329 0.0
C1118 C 0.38998 0.02069 0.80025 0.0
C1119 C 0.40364 1.00372 0.8251 0.0
C1120 C 0.42556 1.00225 0.80305 0.0
C1121 C 0.36646 0.02217 0.82419 0.0
C1122 C 0.3617 0.02174 0.89756 0.0
C1123 C 0.34878 0.02439 0.7754 0.0
C1124 C 0.35262 0.02366 0.69746 0.0
C1125 C 0.36244 1.0052 0.6663 0.0
C1126 C 0.3678 1.00527 0.59386 0.0
C1127 C 0.36324 0.02365 0.55189 0.0
C1128 C 0.35338 0.04201 0.5824 0.0
C1129 C 0.34784 0.04198 0.65476 0.0
H1130 H 0.36741 0.02369 0.4958 0.0
H1131 H 0.3293 0.02574 0.20731 0.0
H1132 H 0.52714 0.25918 0.9318 0.0
H1133 H 0.52546 0.29234 0.85781 0.0
H1134 H 0.46375 0.30929 0.9536 0.0
H1135 H 0.46529 0.27592 0.02616 0.0
H1136 H 0.46426 0.32441 0.82046 0.0
H1137 H 0.51264 0.3279 0.02109 0.0
H1138 H 0.54327 0.31576 0.0972 0.0
H1139 H 0.58801 0.326 0.92409 0.0
H1140 H 0.55755 0.33786 0.84651 0.0
H1141 H 0.46969 0.4415 0.82109 0.0
H1142 H 0.46906 0.40272 0.85445 0.0
H1143 H 0.52536 0.39094 0.72226 0.0
H1144 H 0.52591 0.42983 0.6879 0.0
H1145 H 0.52865 0.37214 0.86195 0.0
H1146 H 0.47775 0.37407 0.66716 0.0
H1147 H 0.44562 0.38804 0.60167 0.0
H1148 H 0.40387 0.36906 0.77474 0.0
H1149 H 0.43579 0.35568 0.84253 0.0
C1150 C 0.51266 0.26936 0.9341 0.0
C1151 C 0.49609 0.2646 0.98367 0.0
C1152 C 0.51189 0.28861 0.89277 0.0
C1153 C 0.49472 0.30379 0.90103 0.0
C1154 C 0.47722 0.29804 0.94592 0.0
C1155 C 0.47797 0.27875 0.98696 0.0
C1156 C 0.49603 0.32648 0.86949 0.0
C1157 C 0.47833 0.33482 0.82983 0.0
C1158 C 0.51439 0.3403 0.88099 0.0
C1159 C 0.53279 0.33353 0.92776 0.0
C1160 C 0.529 0.32744 0.99912 0.0
C1161 C 0.54632 0.3206 0.04253 0.0
C1162 C 0.56756 0.32004 0.01543 0.0
C1163 C 0.57153 0.32639 0.94494 0.0
C1164 C 0.55425 0.33318 0.90121 0.0
C1165 C 0.48188 0.43068 0.79864 0.0
C1166 C 0.4978 0.43888 0.75141 0.0
C1167 C 0.48147 0.40842 0.81773 0.0
C1168 C 0.4971 0.39372 0.79083 0.0
C1169 C 0.51309 0.40185 0.74382 0.0
C1170 C 0.51331 0.4241 0.72384 0.0
C1171 C 0.49687 0.37005 0.81308 0.0
C1172 C 0.51475 0.3616 0.85151 0.0
C1173 C 0.47849 0.35632 0.8016 0.0
C1174 C 0.45923 0.36403 0.76028 0.0
C1175 C 0.46175 0.37304 0.69161 0.0
C1176 C 0.44358 0.38083 0.65401 0.0
C1177 C 0.42274 0.37938 0.68393 0.0
C1178 C 0.42003 0.37017 0.75161 0.0
C1179 C 0.43816 0.36251 0.78972 0.0
H1180 H 0.4087 0.3854 0.65466 0.0
H1181 H 0.58096 0.31474 0.04911 0.0
H1182 H 0.25029 0.46968 0.99151 0.0
H1183 H 0.2177 0.4648 0.91605 0.0
H1184 H 0.21019 0.53497 0.90321 0.0
H1185 H 0.24305 0.53968 0.97461 0.0
H1186 H 0.17904 0.47214 0.94477 0.0
H1187 H 0.17721 0.55252 0.76884 0.0
H1188 H 0.20275 0.57453 0.69693 0.0
H1189 H 0.24665 0.51987 0.68366 0.0
H1190 H 0.22112 0.49728 0.75372 0.0
H1191 H 0.06982 0.50107 0.88017 0.0
H1192 H 0.10848 0.49924 0.91258 0.0
H1193 H 0.12585 0.49709 0.68976 0.0
H1194 H 0.08727 0.49996 0.65723 0.0
H1195 H 0.15422 0.51973 0.74594 0.0
H1196 H 0.12813 0.45018 0.80849 0.0
H1197 H 0.1042 0.42212 0.86177 0.0
H1198 H 0.11959 0.44586 0.0714 0.0
H1199 H 0.14343 0.47428 0.01934 0.0
C1200 C 0.24222 0.484 0.96967 0.0
C1201 C 0.24938 0.50506 0.98873 0.0
C1202 C 0.22333 0.48125 0.92735 0.0
C1203 C 0.21114 0.4995 0.90332 0.0
C1204 C 0.21921 0.52051 0.91904 0.0
C1205 C 0.23812 0.52322 0.96033 0.0
C1206 C 0.18893 0.49687 0.86925 0.0
C1207 C 0.17379 0.48251 0.90096 0.0
C1208 C 0.18185 0.50973 0.81017 0.0
C1209 C 0.19733 0.52325 0.76767 0.0
C1210 C 0.19227 0.54513 0.75045 0.0
C1211 C 0.20676 0.55773 0.70997 0.0
C1212 C 0.22641 0.54867 0.68633 0.0
C1213 C 0.23152 0.52693 0.70259 0.0
C1214 C 0.21702 0.51421 0.74266 0.0
C1215 C 0.08186 0.50013 0.83801 0.0
C1216 C 0.07531 0.50059 0.76603 0.0
C1217 C 0.10408 0.49892 0.85661 0.0
C1218 C 0.12042 0.4975 0.80385 0.0
C1219 C 0.11383 0.49811 0.73185 0.0
C1220 C 0.09163 0.49972 0.71322 0.0
C1221 C 0.14424 0.49582 0.82391 0.0
C1222 C 0.15962 0.50931 0.78944 0.0
C1223 C 0.15184 0.48143 0.8781 0.0
C1224 C 0.13745 0.46446 0.90994 0.0
C1225 C 0.1263 0.44952 0.86593 0.0
C1226 C 0.11277 0.43354 0.89591 0.0
C1227 C 0.11037 0.43223 0.9699 0.0
C1228 C 0.12148 0.44691 0.01409 0.0
C1229 C 0.13503 0.46294 0.98438 0.0
H1230 H 0.09997 0.41978 0.99299 0.0
H1231 H 0.23759 0.55845 0.65492 0.0
H1232 H 0.02448 0.77856 0.33851 0.0
H1233 H 0.0294 0.812 0.40761 0.0
H1234 H 0.98942 0.78505 0.57558 0.0
H1235 H 0.98371 0.75183 0.50399 0.0
H1236 H 0.97616 0.82295 0.55839 0.0
H1237 H 0.04841 0.79715 0.59056 0.0
H1238 H 0.08436 0.78199 0.55782 0.0
H1239 H 0.09702 0.83817 0.42612 0.0
H1240 H 0.06102 0.85354 0.45733 0.0
H1241 H 0.03338 0.92485 0.74098 0.0
H1242 H 0.03395 0.88617 0.70462 0.0
H1243 H 0.98461 0.89952 0.54602 0.0
H1244 H 0.98403 0.93794 0.58135 0.0
H1245 H 0.04437 0.86634 0.57884 0.0
H1246 H 0.95021 0.85588 0.53282 0.0
H1247 H 0.91582 0.8678 0.58926 0.0
H1248 H 0.94974 0.87883 0.78679 0.0
H1249 H 0.98424 0.86678 0.73192 0.0
C1250 C 0.0175 0.77938 0.39153 0.0
C1251 C 1.00419 0.7622 0.41645 0.0
C1252 C 0.02025 0.79868 0.43129 0.0
C1253 C 0.00997 0.8014 0.49789 0.0
C1254 C 0.99755 0.78369 0.52451 0.0
C1255 C 0.99459 0.76442 0.48416 0.0
C1256 C 0.01072 0.82321 0.53628 0.0
C1257 C 0.99116 0.83229 0.5626 0.0
C1258 C 0.03027 0.83556 0.54484 0.0
C1259 C 0.05193 0.8264 0.52582 0.0
C1260 C 0.05879 0.8062 0.55421 0.0
C1261 C 0.07919 0.79758 0.53599 0.0
C1262 C 0.09294 0.80908 0.48978 0.0
C1263 C 0.08634 0.82926 0.46184 0.0
C1264 C 0.06595 0.83795 0.47985 0.0
C1265 C 0.02256 0.91956 0.69857 0.0
C1266 C 0.00869 0.93477 0.66419 0.0
C1267 C 0.02298 0.89737 0.67753 0.0
C1268 C 0.0093 0.88968 0.62241 0.0
C1269 C 0.99524 0.90479 0.58898 0.0
C1270 C 0.99498 0.92692 0.6093 0.0
C1271 C 0.00976 0.86613 0.59834 0.0
C1272 C 0.02946 0.85685 0.57448 0.0
C1273 C 0.99056 0.85318 0.59487 0.0
C1274 C 0.96986 0.86066 0.62789 0.0
C1275 C 0.95032 0.86083 0.5883 0.0
C1276 C 0.93081 0.86761 0.62005 0.0
C1277 C 0.93061 0.87414 0.69147 0.0
C1278 C 0.94993 0.87388 0.73138 0.0
C1279 C 0.96947 0.86714 0.6999 0.0
H1280 H 0.91548 0.87936 0.71595 0.0
H1281 H 0.10873 0.80238 0.47575 0.0
H1282 H 0.76064 0.99025 0.49155 0.0
H1283 H 0.72692 0.99652 0.56019 0.0
H1284 H 0.69448 0.0183 0.36809 0.0
H1285 H 0.72808 0.01324 0.30164 0.0
H1286 H 0.67766 0.03992 0.46402 0.0
H1287 H 0.69292 0.9622 0.44974 0.0
H1288 H 0.71392 0.92832 0.47095 0.0
H1289 H 0.71037 0.93878 0.69718 0.0
H1290 H 0.68961 0.9729 0.67723 0.0
H1291 H 0.56697 0.0085 0.51851 0.0
H1292 H 0.6053 0.00894 0.48148 0.0
H1293 H 0.62568 0.00812 0.70157 0.0
H1294 H 0.58718 0.00818 0.73936 0.0
H1295 H 0.64986 0.97815 0.60993 0.0
H1296 H 0.6303 0.05393 0.62001 0.0
H1297 H 0.60716 0.08608 0.59466 0.0
H1298 H 0.6171 0.07727 0.36981 0.0
H1299 H 0.64005 0.04485 0.39378 0.0
C1300 C 0.74654 0.99718 0.46479 0.0
C1301 C 0.74728 1.0014 0.39094 0.0
C1302 C 0.72699 1.00034 0.50378 0.0
C1303 C 0.70754 0.00731 0.46956 0.0
C1304 C 0.70888 0.01284 0.39678 0.0
C1305 C 0.72833 0.01004 0.35845 0.0
C1306 C 0.68554 0.00807 0.50691 0.0
C1307 C 0.6717 0.02623 0.49536 0.0
C1308 C 0.67741 0.99065 0.54997 0.0
C1309 C 0.69002 0.97026 0.56193 0.0
C1310 C 0.69679 0.95736 0.50396 0.0
C1311 C 0.70863 0.93811 0.51577 0.0
C1312 C 0.71356 0.93145 0.58535 0.0
C1313 C 0.70661 0.944 0.6433 0.0
C1314 C 0.69483 0.96331 0.63178 0.0
C1315 C 0.57953 0.00834 0.55933 0.0
C1316 C 0.57377 0.00833 0.63213 0.0
C1317 C 0.60155 0.00866 0.53793 0.0
C1318 C 0.61858 0.00866 0.58851 0.0
C1319 C 0.61295 0.00815 0.66132 0.0
C1320 C 0.59086 0.00825 0.68287 0.0
C1321 C 0.64209 0.00956 0.5647 0.0
C1322 C 0.65608 0.99181 0.57898 0.0
C1323 C 0.65028 0.02717 0.5233 0.0
C1324 C 0.63676 0.04685 0.50869 0.0
C1325 C 0.62743 0.05876 0.56513 0.0
C1326 C 0.61437 0.07705 0.55102 0.0
C1327 C 0.61063 0.08369 0.48066 0.0
C1328 C 0.62 0.0721 0.42428 0.0
C1329 C 0.63306 0.05377 0.43811 0.0
H1330 H 0.60049 0.09785 0.46984 0.0
H1331 H 0.7227 0.91652 0.59437 0.0
H1332 H 0.54852 0.7509 0.42872 0.0
H1333 H 0.54413 0.71745 0.49914 0.0
H1334 H 0.47432 0.72105 0.47041 0.0
H1335 H 0.47874 0.75504 0.40135 0.0
H1336 H 0.48429 0.7025 0.60008 0.0
H1337 H 0.50482 0.68981 0.35679 0.0
H1338 H 0.52708 0.69396 0.24807 0.0
H1339 H 0.58375 0.6711 0.36092 0.0
H1340 H 0.56184 0.66667 0.47043 0.0
H1341 H 0.46756 0.58748 0.66593 0.0
H1342 H 0.46795 0.62497 0.61905 0.0
H1343 H 0.53826 0.62197 0.60204 0.0
H1344 H 0.53746 0.58385 0.64257 0.0
H1345 H 0.52597 0.64105 0.49402 0.0
H1346 H 0.50291 0.65174 0.73912 0.0
H1347 H 0.47837 0.64543 0.8411 0.0
H1348 H 0.42462 0.67244 0.72265 0.0
H1349 H 0.44864 0.6781 0.61878 0.0
C1350 C 0.53215 0.7452 0.44046 0.0
C1351 C 0.51398 0.75584 0.40981 0.0
C1352 C 0.52966 0.72575 0.47965 0.0
C1353 C 0.50893 0.71617 0.48864 0.0
C1354 C 0.49054 0.72787 0.46398 0.0
C1355 C 0.49305 0.74749 0.42495 0.0
C1356 C 0.50683 0.69323 0.5177 0.0
C1357 C 0.4933 0.68902 0.57667 0.0
C1358 C 0.51853 0.67545 0.48767 0.0
C1359 C 0.53174 0.6781 0.42196 0.0
C1360 C 0.52206 0.6858 0.35855 0.0
C1361 C 0.5346 0.68819 0.29678 0.0
C1362 C 0.55682 0.68298 0.29768 0.0
C1363 C 0.56654 0.67519 0.36032 0.0
C1364 C 0.55406 0.67266 0.42221 0.0
C1365 C 0.48309 0.59496 0.65276 0.0
C1366 C 0.5025 0.58274 0.65854 0.0
C1367 C 0.48337 0.61657 0.62628 0.0
C1368 C 0.50321 0.62698 0.60797 0.0
C1369 C 0.52264 0.6147 0.61526 0.0
C1370 C 0.52224 0.59285 0.63906 0.0
C1371 C 0.50395 0.65013 0.57863 0.0
C1372 C 0.51712 0.65443 0.51863 0.0
C1373 C 0.49176 0.66789 0.60765 0.0
C1374 C 0.47755 0.66517 0.67099 0.0
C1375 C 0.48585 0.65626 0.73476 0.0
C1376 C 0.47201 0.65278 0.79289 0.0
C1377 C 0.44996 0.6586 0.78855 0.0
C1378 C 0.4417 0.66792 0.72597 0.0
C1379 C 0.4554 0.67121 0.66736 0.0
H1380 H 0.43925 0.65588 0.83354 0.0
H1381 H 0.56648 0.6849 0.24977 0.0
H1382 H 0.77844 0.5342 0.32283 0.0
H1383 H 0.81296 0.53626 0.38884 0.0
H1384 H 0.78508 0.49766 0.55843 0.0
H1385 H 0.75044 0.49539 0.4915 0.0
H1386 H 0.81512 0.52971 0.6106 0.0
H1387 H 0.81292 0.47227 0.44343 0.0
H1388 H 0.80767 0.45313 0.32899 0.0
H1389 H 0.85808 0.49225 0.23362 0.0
H1390 H 0.86324 0.51209 0.34692 0.0
H1391 H 0.92313 0.4954 0.7308 0.0
H1392 H 0.88479 0.49632 0.69247 0.0
H1393 H 0.90318 0.53223 0.50368 0.0
H1394 H 0.94141 0.53131 0.54128 0.0
H1395 H 0.87643 0.4985 0.47102 0.0
H1396 H 0.87605 0.55689 0.6482 0.0
H1397 H 0.88214 0.57123 0.7696 0.0
H1398 H 0.83721 0.52388 0.85425 0.0
H1399 H 0.83099 0.50914 0.73336 0.0
C1400 C 0.77933 0.52701 0.37565 0.0
C1401 C 0.76147 0.51511 0.40265 0.0
C1402 C 0.79922 0.52792 0.41305 0.0
C1403 C 0.80187 0.51691 0.47852 0.0
C1404 C 0.78354 0.50637 0.50827 0.0
C1405 C 0.76363 0.50527 0.47033 0.0
C1406 C 0.82425 0.51466 0.51121 0.0
C1407 C 0.82845 0.5227 0.58023 0.0
C1408 C 0.84181 0.50526 0.47257 0.0
C1409 C 0.83825 0.4939 0.40352 0.0
C1410 C 0.82265 0.47706 0.39778 0.0
C1411 C 0.81973 0.46603 0.33317 0.0
C1412 C 0.83252 0.47153 0.27416 0.0
C1413 C 0.84817 0.48808 0.27943 0.0
C1414 C 0.85106 0.49925 0.34378 0.0
C1415 C 0.91904 0.50366 0.68133 0.0
C1416 C 0.93557 0.5133 0.6393 0.0
C1417 C 0.89699 0.50424 0.65955 0.0
C1418 C 0.89085 0.51448 0.59514 0.0
C1419 C 0.90732 0.52422 0.55353 0.0
C1420 C 0.92929 0.52374 0.57535 0.0
C1421 C 0.86757 0.51442 0.56896 0.0
C1422 C 0.86313 0.50567 0.5012 0.0
C1423 C 0.84981 0.52266 0.60955 0.0
C1424 C 0.85317 0.53184 0.68186 0.0
C1425 C 0.86753 0.5495 0.69276 0.0
C1426 C 0.871 0.5577 0.76145 0.0
C1427 C 0.8601 0.54845 0.81961 0.0
C1428 C 0.84564 0.53103 0.80915 0.0
C1429 C 0.84211 0.52278 0.74055 0.0
H1430 H 0.86283 0.5548 0.87277 0.0
H1431 H 0.8304 0.46295 0.22437 0.0
loop_
_geom_bond_atom_site_label_1
_geom_bond_atom_site_label_2
_geom_bond_distance
_geom_bond_site_symmetry_2
_ccdc_geom_bond_type
H0 C3 0.931 . S
H1 C6 0.928 . S
H2 C8 0.930 . S
C3 H0 0.931 . S
C3 C4 1.413 . S
C3 C5 1.360 . S
C4 C3 1.413 . S
C4 C8 1.429 . S
C5 C3 1.360 . S
C5 C6 1.372 . S
C6 H1 0.928 . S
C6 C5 1.372 . S
C6 C7 1.404 . S
C7 C6 1.404 . S
C7 C8 1.391 . S
C8 H2 0.930 . S
C8 C4 1.429 . S
C8 C7 1.391 . S
H9 C12 0.931 . S
H10 C15 0.928 . S
H11 C17 0.930 . S
C12 H9 0.931 . S
C12 C13 1.413 . S
C12 C14 1.360 . S
C13 C12 1.413 . S
C13 C17 1.429 1_655 S
C14 C12 1.360 . S
C14 C15 1.372 . S
C15 H10 0.928 . S
C15 C14 1.372 . S
C15 C16 1.404 . S
C16 C15 1.404 . S
C16 C17 1.390 1_655 S
C17 H11 0.930 . S
C17 C13 1.429 1_455 S
C17 C16 1.390 1_455 S
H18 C21 0.931 . S
H19 C24 0.928 . S
H20 C26 0.930 . S
C21 H18 0.931 . S
C21 C22 1.413 . S
C21 C23 1.360 . S
C22 C21 1.413 . S
C22 C26 1.429 1_565 S
C23 C21 1.360 . S
C23 C24 1.372 . S
C24 H19 0.928 . S
C24 C23 1.372 . S
C24 C25 1.404 . S
C25 C24 1.404 . S
C25 C26 1.390 1_565 S
C26 H20 0.930 . S
C26 C22 1.429 1_545 S
C26 C25 1.390 1_545 S
H27 C30 0.931 . S
H28 C33 0.928 . S
H29 C35 0.930 . S
C30 H27 0.931 . S
C30 C31 1.413 . S
C30 C32 1.360 . S
C31 C30 1.413 . S
C31 C35 1.429 . S
C32 C30 1.360 . S
C32 C33 1.372 . S
C33 H28 0.928 . S
C33 C32 1.372 . S
C33 C34 1.404 . S
C34 C33 1.404 . S
C34 C35 1.391 . S
C35 H29 0.930 . S
C35 C31 1.429 . S
C35 C34 1.391 . S
H36 C39 0.931 . S
H37 C42 0.928 . S
H38 C44 0.930 . S
C39 H36 0.931 . S
C39 C40 1.413 1_554 S
C39 C41 1.360 . S
C40 C39 1.413 1_556 S
C40 C44 1.429 . S
C41 C39 1.360 . S
C41 C42 1.372 . S
C42 H37 0.928 . S
C42 C41 1.372 . S
C42 C43 1.404 . S
C43 C42 1.404 . S
C43 C44 1.391 1_554 S
C44 H38 0.930 . S
C44 C40 1.429 . S
C44 C43 1.391 1_556 S
H45 C48 0.931 . S
H46 C51 0.928 . S
H47 C53 0.930 . S
C48 H45 0.931 . S
C48 C49 1.413 1_554 S
C48 C50 1.360 . S
C49 C48 1.413 1_556 S
C49 C53 1.429 1_655 S
C50 C48 1.360 . S
C50 C51 1.372 . S
C51 H46 0.928 . S
C51 C50 1.372 . S
C51 C52 1.404 . S
C52 C51 1.404 . S
C52 C53 1.391 1_654 S
C53 H47 0.930 . S
C53 C49 1.429 1_455 S
C53 C52 1.391 1_456 S
H54 C57 0.931 . S
H55 C60 0.928 . S
H56 C62 0.930 . S
C57 H54 0.931 . S
C57 C58 1.413 1_554 S
C57 C59 1.360 . S
C58 C57 1.413 1_556 S
C58 C62 1.429 1_565 S
C59 C57 1.360 . S
C59 C60 1.372 . S
C60 H55 0.928 . S
C60 C59 1.372 . S
C60 C61 1.404 . S
C61 C60 1.404 . S
C61 C62 1.391 1_564 S
C62 H56 0.930 . S
C62 C58 1.429 1_545 S
C62 C61 1.391 1_546 S
H63 C66 0.931 . S
H64 C69 0.928 . S
H65 C71 0.930 . S
C66 H63 0.931 . S
C66 C67 1.413 . S
C66 C68 1.360 1_554 S
C67 C66 1.413 . S
C67 C71 1.429 . S
C68 C66 1.360 1_556 S
C68 C69 1.372 . S
C69 H64 0.928 . S
C69 C68 1.372 . S
C69 C70 1.404 1_556 S
C70 C69 1.404 1_554 S
C70 C71 1.391 . S
C71 H65 0.930 . S
C71 C67 1.429 . S
C71 C70 1.391 . S
Pr72 C74 2.880 . S
Pr72 O92 2.562 . S
Pr72 O93 2.490 . S
Pr72 O94 2.695 1_565 S
Pr72 O95 2.512 . S
Pr72 O97 2.437 . S
Pr72 O100 2.436 1_455 S
Pr72 O102 2.438 1_565 S
Pr73 C83 2.880 . S
Pr73 O94 2.436 1_655 S
Pr73 O96 2.438 1_545 S
Pr73 O98 2.562 . S
Pr73 O99 2.490 . S
Pr73 O100 2.695 1_545 S
Pr73 O101 2.512 . S
Pr73 O103 2.437 . S
C74 Pr72 2.880 . S
C74 C75 1.491 . S
C74 O92 1.254 . S
C74 O93 1.225 . S
C75 C74 1.491 . S
C75 C76 1.392 . S
C75 C80 1.356 . S
C76 C75 1.392 . S
C76 C77 1.368 . S
C76 H104 0.929 . S
C77 C76 1.368 . S
C77 C78 1.386 . S
C77 H105 0.929 . S
C78 C77 1.386 . S
C78 C79 1.373 . S
C79 C78 1.373 . S
C79 C80 1.409 . S
C79 H106 0.911 1_455 S
C80 C75 1.356 . S
C80 C79 1.409 . S
C80 H107 0.930 1_455 S
C81 O94 1.270 1_565 S
C81 O95 1.248 . S
C82 O96 1.267 . S
C82 O97 1.278 1_655 S
C83 Pr73 2.880 . S
C83 C84 1.491 . S
C83 O98 1.254 . S
C83 O99 1.225 . S
C84 C83 1.491 . S
C84 C85 1.392 . S
C84 C89 1.356 . S
C85 C84 1.392 . S
C85 C86 1.368 . S
C85 H108 0.929 . S
C86 C85 1.368 . S
C86 C87 1.386 . S
C86 H109 0.929 . S
C87 C86 1.386 . S
C87 C88 1.373 . S
C88 C87 1.373 . S
C88 C89 1.409 . S
C88 H110 0.901 1_655 S
C89 C84 1.356 . S
C89 C88 1.409 . S
C89 H111 0.930 1_655 S
C90 O100 1.270 1_545 S
C90 O101 1.248 . S
C91 O102 1.267 . S
C91 O103 1.278 1_455 S
O92 Pr72 2.562 . S
O92 C74 1.254 . S
O93 Pr72 2.490 . S
O93 C74 1.225 . S
O94 Pr72 2.695 1_545 S
O94 Pr73 2.436 1_455 S
O94 C81 1.270 1_545 S
O95 Pr72 2.512 . S
O95 C81 1.248 . S
O96 Pr73 2.438 1_565 S
O96 C82 1.267 . S
O97 Pr72 2.437 . S
O97 C82 1.278 1_455 S
O98 Pr73 2.562 . S
O98 C83 1.254 . S
O99 Pr73 2.490 . S
O99 C83 1.225 . S
O100 Pr72 2.436 1_655 S
O100 Pr73 2.695 1_565 S
O100 C90 1.270 1_565 S
O101 Pr73 2.512 . S
O101 C90 1.248 . S
O102 Pr72 2.438 1_545 S
O102 C91 1.267 . S
O103 Pr73 2.437 . S
O103 C91 1.278 1_655 S
H104 C76 0.929 . S
H105 C77 0.929 . S
H106 C79 0.911 1_655 S
H107 C80 0.930 1_655 S
H108 C85 0.929 . S
H109 C86 0.929 . S
H110 C88 0.901 1_455 S
H111 C89 0.930 1_455 S
Pr112 C114 2.880 . S
Pr112 O132 2.562 . S
Pr112 O133 2.490 . S
Pr112 O134 2.695 . S
Pr112 O135 2.512 . S
Pr112 O137 2.437 . S
Pr112 O140 2.436 1_545 S
Pr112 O142 2.438 . S
Pr113 C123 2.880 . S
Pr113 O134 2.436 1_565 S
Pr113 O136 2.438 . S
Pr113 O138 2.562 . S
Pr113 O139 2.490 . S
Pr113 O140 2.695 . S
Pr113 O141 2.512 . S
Pr113 O143 2.437 . S
C114 Pr112 2.880 . S
C114 C115 1.491 . S
C114 O132 1.254 . S
C114 O133 1.225 . S
C115 C114 1.491 . S
C115 C116 1.392 . S
C115 C120 1.356 . S
C116 C115 1.392 . S
C116 C117 1.368 . S
C116 H144 0.929 . S
C117 C116 1.368 . S
C117 C118 1.386 . S
C117 H145 0.929 . S
C118 C117 1.386 . S
C118 C119 1.373 . S
C119 C118 1.373 . S
C119 C120 1.409 . S
C119 H146 0.931 1_545 S
C120 C115 1.356 . S
C120 C119 1.409 . S
C120 H147 0.930 1_545 S
C121 O134 1.270 . S
C121 O135 1.248 . S
C122 O136 1.267 . S
C122 O137 1.278 1_565 S
C123 Pr113 2.880 . S
C123 C124 1.491 . S
C123 O138 1.254 . S
C123 O139 1.225 . S
C124 C123 1.491 . S
C124 C125 1.392 . S
C124 C129 1.356 . S
C125 C124 1.392 . S
C125 C126 1.368 . S
C125 H148 0.929 . S
C126 C125 1.368 . S
C126 C127 1.386 . S
C126 H149 0.929 . S
C127 C126 1.386 . S
C127 C128 1.373 . S
C128 C127 1.373 . S
C128 C129 1.409 . S
C128 H150 0.931 1_565 S
C129 C124 1.356 . S
C129 C128 1.409 . S
C129 H151 0.930 1_565 S
C130 O140 1.270 . S
C130 O141 1.248 . S
C131 O142 1.267 . S
C131 O143 1.278 1_545 S
O132 Pr112 2.562 . S
O132 C114 1.254 . S
O133 Pr112 2.490 . S
O133 C114 1.225 . S
O134 Pr112 2.695 . S
O134 Pr113 2.436 1_545 S
O134 C121 1.270 . S
O135 Pr112 2.512 . S
O135 C121 1.248 . S
O136 Pr113 2.438 . S
O136 C122 1.267 . S
O137 Pr112 2.437 . S
O137 C122 1.278 1_545 S
O138 Pr113 2.562 . S
O138 C123 1.254 . S
O139 Pr113 2.490 . S
O139 C123 1.225 . S
O140 Pr112 2.436 1_565 S
O140 Pr113 2.695 . S
O140 C130 1.270 . S
O141 Pr113 2.512 . S
O141 C130 1.248 . S
O142 Pr112 2.438 . S
O142 C131 1.267 . S
O143 Pr113 2.437 . S
O143 C131 1.278 1_565 S
H144 C116 0.929 . S
H145 C117 0.929 . S
H146 C119 0.931 1_565 S
H147 C120 0.930 1_565 S
H148 C125 0.929 . S
H149 C126 0.929 . S
H150 C128 0.931 1_545 S
H151 C129 0.930 1_545 S
Pr152 C154 2.880 . S
Pr152 O172 2.562 . S
Pr152 O173 2.490 . S
Pr152 O174 2.695 . S
Pr152 O175 2.512 . S
Pr152 O177 2.437 . S
Pr152 O180 2.436 . S
Pr152 O182 2.438 . S
Pr153 C163 2.880 . S
Pr153 O174 2.436 . S
Pr153 O176 2.438 . S
Pr153 O178 2.562 . S
Pr153 O179 2.490 . S
Pr153 O180 2.695 . S
Pr153 O181 2.512 . S
Pr153 O183 2.437 . S
C154 Pr152 2.880 . S
C154 C155 1.491 . S
C154 O172 1.254 . S
C154 O173 1.225 . S
C155 C154 1.491 . S
C155 C156 1.392 . S
C155 C160 1.356 . S
C156 C155 1.392 . S
C156 C157 1.368 . S
C156 H184 0.929 . S
C157 C156 1.368 . S
C157 C158 1.386 . S
C157 H185 0.929 . S
C158 C157 1.386 . S
C158 C159 1.373 . S
C159 C158 1.373 . S
C159 C160 1.409 . S
C159 H186 0.931 . S
C160 C155 1.356 . S
C160 C159 1.409 . S
C160 H187 0.930 . S
C161 O174 1.270 . S
C161 O175 1.248 . S
C162 O176 1.267 . S
C162 O177 1.278 . S
C163 Pr153 2.880 . S
C163 C164 1.491 . S
C163 O178 1.254 . S
C163 O179 1.225 . S
C164 C163 1.491 . S
C164 C165 1.392 . S
C164 C169 1.356 . S
C165 C164 1.392 . S
C165 C166 1.368 . S
C165 H188 0.929 . S
C166 C165 1.368 . S
C166 C167 1.386 . S
C166 H189 0.929 . S
C167 C166 1.386 . S
C167 C168 1.373 . S
C168 C167 1.373 . S
C168 C169 1.409 . S
C168 H190 0.931 . S
C169 C164 1.356 . S
C169 C168 1.409 . S
C169 H191 0.930 . S
C170 O180 1.270 . S
C170 O181 1.248 . S
C171 O182 1.267 . S
C171 O183 1.278 . S
O172 Pr152 2.562 . S
O172 C154 1.254 . S
O173 Pr152 2.490 . S
O173 C154 1.225 . S
O174 Pr152 2.695 . S
O174 Pr153 2.436 . S
O174 C161 1.270 . S
O175 Pr152 2.512 . S
O175 C161 1.248 . S
O176 Pr153 2.438 . S
O176 C162 1.267 . S
O177 Pr152 2.437 . S
O177 C162 1.278 . S
O178 Pr153 2.562 . S
O178 C163 1.254 . S
O179 Pr153 2.490 . S
O179 C163 1.225 . S
O180 Pr152 2.436 . S
O180 Pr153 2.695 . S
O180 C170 1.270 . S
O181 Pr153 2.512 . S
O181 C170 1.248 . S
O182 Pr152 2.438 . S
O182 C171 1.267 . S
O183 Pr153 2.437 . S
O183 C171 1.278 . S
H184 C156 0.929 . S
H185 C157 0.929 . S
H186 C159 0.931 . S
H187 C160 0.930 . S
H188 C165 0.929 . S
H189 C166 0.929 . S
H190 C168 0.931 . S
H191 C169 0.930 . S
Pr192 C194 2.880 . S
Pr192 O212 2.562 . S
Pr192 O213 2.490 . S
Pr192 O214 2.695 1_655 S
Pr192 O215 2.512 . S
Pr192 O217 2.437 . S
Pr192 O220 2.436 . S
Pr192 O222 2.438 1_655 S
Pr193 C203 2.880 . S
Pr193 O214 2.436 . S
Pr193 O216 2.438 1_455 S
Pr193 O218 2.562 . S
Pr193 O219 2.490 . S
Pr193 O220 2.695 1_455 S
Pr193 O221 2.512 . S
Pr193 O223 2.437 . S
C194 Pr192 2.880 . S
C194 C195 1.491 . S
C194 O212 1.254 . S
C194 O213 1.225 . S
C195 C194 1.491 . S
C195 C196 1.392 . S
C195 C200 1.356 . S
C196 C195 1.392 . S
C196 C197 1.368 . S
C196 H224 0.929 . S
C197 C196 1.368 . S
C197 C198 1.386 . S
C197 H225 0.929 . S
C198 C197 1.386 . S
C198 C199 1.373 . S
C199 C198 1.373 . S
C199 C200 1.409 . S
C199 H226 0.931 . S
C200 C195 1.356 . S
C200 C199 1.409 . S
C200 H227 0.930 . S
C201 O214 1.259 1_655 S
C201 O215 1.268 . S
C202 O216 1.267 . S
C202 O217 1.278 . S
C203 Pr193 2.880 . S
C203 C204 1.491 . S
C203 O218 1.254 . S
C203 O219 1.225 . S
C204 C203 1.491 . S
C204 C205 1.392 . S
C204 C209 1.356 . S
C205 C204 1.392 . S
C205 C206 1.368 . S
C205 H228 0.929 . S
C206 C205 1.368 . S
C206 C207 1.386 . S
C206 H229 0.929 . S
C207 C206 1.386 . S
C207 C208 1.373 . S
C208 C207 1.373 . S
C208 C209 1.409 . S
C208 H230 0.931 . S
C209 C204 1.356 . S
C209 C208 1.409 . S
C209 H231 0.930 . S
C210 O220 1.255 1_455 S
C210 O221 1.274 . S
C211 O222 1.267 . S
C211 O223 1.278 . S
O212 Pr192 2.562 . S
O212 C194 1.254 . S
O213 Pr192 2.490 . S
O213 C194 1.225 . S
O214 Pr192 2.695 1_455 S
O214 Pr193 2.436 . S
O214 C201 1.259 1_455 S
O215 Pr192 2.512 . S
O215 C201 1.268 . S
O216 Pr193 2.438 1_655 S
O216 C202 1.267 . S
O217 Pr192 2.437 . S
O217 C202 1.278 . S
O218 Pr193 2.562 . S
O218 C203 1.254 . S
O219 Pr193 2.490 . S
O219 C203 1.225 . S
O220 Pr192 2.436 . S
O220 Pr193 2.695 1_655 S
O220 C210 1.255 1_655 S
O221 Pr193 2.512 . S
O221 C210 1.274 . S
O222 Pr192 2.438 1_455 S
O222 C211 1.267 . S
O223 Pr193 2.437 . S
O223 C211 1.278 . S
H224 C196 0.929 . S
H225 C197 0.929 . S
H226 C199 0.931 . S
H227 C200 0.930 . S
H228 C205 0.929 . S
H229 C206 0.929 . S
H230 C208 0.931 . S
H231 C209 0.930 . S
H232 C250 0.951 . S
H233 C252 0.951 . S
H234 C254 0.950 . S
H235 C255 0.950 . S
H236 C257 0.950 . S
H237 C260 0.950 . S
H238 C261 0.950 . S
H239 C263 0.950 . S
H240 C264 0.950 . S
H241 C265 0.956 . S
H242 C267 0.951 . S
H243 C269 0.950 . S
H244 C270 0.950 . S
H245 C272 0.950 . S
H246 C275 0.950 . S
H247 C276 0.950 . S
H248 C278 0.950 . S
H249 C279 0.950 . S
C250 H232 0.951 . S
C250 C251 1.366 . S
C250 C252 1.388 . S
C251 C250 1.366 . S
C251 C255 1.384 1_545 S
C252 H233 0.951 . S
C252 C250 1.388 . S
C252 C253 1.366 . S
C253 C252 1.366 . S
C253 C254 1.414 1_545 S
C253 C256 1.499 . S
C254 H234 0.950 . S
C254 C253 1.414 1_565 S
C254 C255 1.374 . S
C255 H235 0.950 . S
C255 C251 1.384 1_565 S
C255 C254 1.374 . S
C256 C253 1.499 . S
C256 C257 1.373 1_545 S
C256 C258 1.389 . S
C257 H236 0.950 . S
C257 C256 1.373 1_565 S
C257 C273 1.377 . S
C258 C256 1.389 . S
C258 C259 1.524 . S
C258 C272 1.377 . S
C259 C258 1.524 . S
C259 C260 1.397 . S
C259 C264 1.363 . S
C260 H237 0.950 . S
C260 C259 1.397 . S
C260 C261 1.334 . S
C261 H238 0.950 . S
C261 C260 1.334 . S
C261 C262 1.287 . S
C262 C261 1.287 . S
C262 C263 1.524 . S
C262 H281 0.913 . S
C263 H239 0.950 . S
C263 C262 1.524 . S
C263 C264 1.415 . S
C264 H240 0.950 . S
C264 C259 1.363 . S
C264 C263 1.415 . S
C265 H241 0.956 . S
C265 C266 1.362 1_565 S
C265 C267 1.390 . S
C266 C265 1.362 1_545 S
C266 C270 1.385 . S
C267 H242 0.951 . S
C267 C265 1.390 . S
C267 C268 1.366 . S
C268 C267 1.366 . S
C268 C269 1.413 1_565 S
C268 C271 1.499 . S
C269 H243 0.950 . S
C269 C268 1.413 1_545 S
C269 C270 1.374 . S
C270 H244 0.950 . S
C270 C266 1.385 . S
C270 C269 1.374 . S
C271 C268 1.499 . S
C271 C272 1.361 1_565 S
C271 C273 1.401 . S
C272 H245 0.950 . S
C272 C258 1.377 . S
C272 C271 1.361 1_545 S
C273 C257 1.377 . S
C273 C271 1.401 . S
C273 C274 1.524 . S
C274 C273 1.524 . S
C274 C275 1.397 . S
C274 C279 1.363 . S
C275 H246 0.950 . S
C275 C274 1.397 . S
C275 C276 1.334 . S
C276 H247 0.950 . S
C276 C275 1.334 . S
C276 C277 1.287 . S
C277 C276 1.287 . S
C277 C278 1.524 . S
C277 H280 0.999 . S
C278 H248 0.950 . S
C278 C277 1.524 . S
C278 C279 1.415 . S
C279 H249 0.950 . S
C279 C274 1.363 . S
C279 C278 1.415 . S
H280 C277 0.999 . S
H281 C262 0.913 . S
H282 C300 0.951 . S
H283 C302 0.951 . S
H284 C304 0.950 . S
H285 C305 0.950 . S
H286 C307 0.950 . S
H287 C310 0.950 . S
H288 C311 0.950 . S
H289 C313 0.950 . S
H290 C314 0.950 . S
H291 C315 0.951 . S
H292 C317 0.951 . S
H293 C319 0.950 . S
H294 C320 0.950 . S
H295 C322 0.950 . S
H296 C325 0.950 . S
H297 C326 0.950 . S
H298 C328 0.950 . S
H299 C329 0.950 . S
C300 H282 0.951 . S
C300 C301 1.366 . S
C300 C302 1.388 . S
C301 C300 1.366 . S
C301 C305 1.385 . S
C302 H283 0.951 . S
C302 C300 1.388 . S
C302 C303 1.366 . S
C303 C302 1.366 . S
C303 C304 1.414 . S
C303 C306 1.499 . S
C304 H284 0.950 . S
C304 C303 1.414 . S
C304 C305 1.374 . S
C305 H285 0.950 . S
C305 C301 1.385 . S
C305 C304 1.374 . S
C306 C303 1.499 . S
C306 C307 1.373 . S
C306 C308 1.389 . S
C307 H286 0.950 . S
C307 C306 1.373 . S
C307 C323 1.377 . S
C308 C306 1.389 . S
C308 C309 1.524 . S
C308 C322 1.377 . S
C309 C308 1.524 . S
C309 C310 1.397 . S
C309 C314 1.363 . S
C310 H287 0.950 . S
C310 C309 1.397 . S
C310 C311 1.334 . S
C311 H288 0.950 . S
C311 C310 1.334 . S
C311 C312 1.287 . S
C312 C311 1.287 . S
C312 C313 1.524 . S
C312 H331 0.913 . S
C313 H289 0.950 . S
C313 C312 1.524 . S
C313 C314 1.415 . S
C314 H290 0.950 . S
C314 C309 1.363 . S
C314 C313 1.415 . S
C315 H291 0.951 . S
C315 C316 1.366 . S
C315 C317 1.388 . S
C316 C315 1.366 . S
C316 C320 1.385 . S
C317 H292 0.951 . S
C317 C315 1.388 . S
C317 C318 1.366 . S
C318 C317 1.366 . S
C318 C319 1.414 . S
C318 C321 1.499 . S
C319 H293 0.950 . S
C319 C318 1.414 . S
C319 C320 1.374 . S
C320 H294 0.950 . S
C320 C316 1.385 . S
C320 C319 1.374 . S
C321 C318 1.499 . S
C321 C322 1.373 . S
C321 C323 1.389 . S
C322 H295 0.950 . S
C322 C308 1.377 . S
C322 C321 1.373 . S
C323 C307 1.377 . S
C323 C321 1.389 . S
C323 C324 1.524 . S
C324 C323 1.524 . S
C324 C325 1.397 . S
C324 C329 1.363 . S
C325 H296 0.950 . S
C325 C324 1.397 . S
C325 C326 1.334 . S
C326 H297 0.950 . S
C326 C325 1.334 . S
C326 C327 1.287 . S
C327 C326 1.287 . S
C327 C328 1.524 . S
C327 H330 0.999 . S
C328 H298 0.950 . S
C328 C327 1.524 . S
C328 C329 1.415 . S
C329 H299 0.950 . S
C329 C324 1.363 . S
C329 C328 1.415 . S
H330 C327 0.999 . S
H331 C312 0.913 . S
H332 C350 0.951 . S
H333 C352 0.951 . S
H334 C354 0.950 . S
H335 C355 0.950 . S
H336 C357 0.950 . S
H337 C360 0.950 . S
H338 C361 0.950 . S
H339 C363 0.950 . S
H340 C364 0.950 . S
H341 C365 0.951 . S
H342 C367 0.951 . S
H343 C369 0.950 . S
H344 C370 0.950 . S
H345 C372 0.950 . S
H346 C375 0.950 . S
H347 C376 0.950 . S
H348 C378 0.950 . S
H349 C379 0.950 . S
C350 H332 0.951 . S
C350 C351 1.366 . S
C350 C352 1.388 . S
C351 C350 1.366 . S
C351 C355 1.385 . S
C352 H333 0.951 . S
C352 C350 1.388 . S
C352 C353 1.366 . S
C353 C352 1.366 . S
C353 C354 1.414 . S
C353 C356 1.499 . S
C354 H334 0.950 . S
C354 C353 1.414 . S
C354 C355 1.374 . S
C355 H335 0.950 . S
C355 C351 1.385 . S
C355 C354 1.374 . S
C356 C353 1.499 . S
C356 C357 1.373 . S
C356 C358 1.389 . S
C357 H336 0.950 . S
C357 C356 1.373 . S
C357 C373 1.377 . S
C358 C356 1.389 . S
C358 C359 1.524 . S
C358 C372 1.377 . S
C359 C358 1.524 . S
C359 C360 1.397 . S
C359 C364 1.363 . S
C360 H337 0.950 . S
C360 C359 1.397 . S
C360 C361 1.334 . S
C361 H338 0.950 . S
C361 C360 1.334 . S
C361 C362 1.287 . S
C362 C361 1.287 . S
C362 C363 1.524 . S
C362 H381 0.913 . S
C363 H339 0.950 . S
C363 C362 1.524 . S
C363 C364 1.415 . S
C364 H340 0.950 . S
C364 C359 1.363 . S
C364 C363 1.415 . S
C365 H341 0.951 . S
C365 C366 1.366 . S
C365 C367 1.388 . S
C366 C365 1.366 . S
C366 C370 1.385 . S
C367 H342 0.951 . S
C367 C365 1.388 . S
C367 C368 1.366 . S
C368 C367 1.366 . S
C368 C369 1.414 . S
C368 C371 1.499 . S
C369 H343 0.950 . S
C369 C368 1.414 . S
C369 C370 1.374 . S
C370 H344 0.950 . S
C370 C366 1.385 . S
C370 C369 1.374 . S
C371 C368 1.499 . S
C371 C372 1.373 . S
C371 C373 1.389 . S
C372 H345 0.950 . S
C372 C358 1.377 . S
C372 C371 1.373 . S
C373 C357 1.377 . S
C373 C371 1.389 . S
C373 C374 1.524 . S
C374 C373 1.524 . S
C374 C375 1.397 . S
C374 C379 1.363 . S
C375 H346 0.950 . S
C375 C374 1.397 . S
C375 C376 1.334 . S
C376 H347 0.950 . S
C376 C375 1.334 . S
C376 C377 1.287 . S
C377 C376 1.287 . S
C377 C378 1.524 . S
C377 H380 0.999 . S
C378 H348 0.950 . S
C378 C377 1.524 . S
C378 C379 1.415 . S
C379 H349 0.950 . S
C379 C374 1.363 . S
C379 C378 1.415 . S
H380 C377 0.999 . S
H381 C362 0.913 . S
H382 C400 0.951 . S
H383 C402 0.951 . S
H384 C404 0.950 . S
H385 C405 0.950 . S
H386 C407 0.950 . S
H387 C410 0.950 . S
H388 C411 0.950 . S
H389 C413 0.950 . S
H390 C414 0.950 . S
H391 C415 0.951 . S
H392 C417 0.951 . S
H393 C419 0.950 . S
H394 C420 0.950 . S
H395 C422 0.950 . S
H396 C425 0.950 . S
H397 C426 0.950 . S
H398 C428 0.950 . S
H399 C429 0.957 . S
C400 H382 0.951 . S
C400 C401 1.364 1_655 S
C400 C402 1.388 . S
C401 C400 1.364 1_455 S
C401 C405 1.387 . S
C402 H383 0.951 . S
C402 C400 1.388 . S
C402 C403 1.366 1_655 S
C403 C402 1.366 1_455 S
C403 C404 1.414 . S
C403 C406 1.499 . S
C404 H384 0.950 . S
C404 C403 1.414 . S
C404 C405 1.374 . S
C405 H385 0.950 . S
C405 C401 1.387 . S
C405 C404 1.374 . S
C406 C403 1.499 . S
C406 C407 1.373 1_455 S
C406 C408 1.389 . S
C407 H386 0.950 . S
C407 C406 1.373 1_655 S
C407 C423 1.377 . S
C408 C406 1.389 . S
C408 C409 1.524 . S
C408 C422 1.377 . S
C409 C408 1.524 . S
C409 C410 1.397 . S
C409 C414 1.363 . S
C410 H387 0.950 . S
C410 C409 1.397 . S
C410 C411 1.334 . S
C411 H388 0.950 . S
C411 C410 1.334 . S
C411 C412 1.287 . S
C412 C411 1.287 . S
C412 C413 1.524 . S
C412 H431 0.913 . S
C413 H389 0.950 . S
C413 C412 1.524 . S
C413 C414 1.415 . S
C414 H390 0.950 . S
C414 C409 1.363 . S
C414 C413 1.415 . S
C415 H391 0.951 . S
C415 C416 1.366 . S
C415 C417 1.388 . S
C416 C415 1.366 . S
C416 C420 1.385 1_455 S
C417 H392 0.951 . S
C417 C415 1.388 . S
C417 C418 1.367 . S
C418 C417 1.367 . S
C418 C419 1.413 1_455 S
C418 C421 1.498 1_455 S
C419 H393 0.950 . S
C419 C418 1.413 1_655 S
C419 C420 1.374 . S
C420 H394 0.950 . S
C420 C416 1.385 1_655 S
C420 C419 1.374 . S
C421 C418 1.498 1_655 S
C421 C422 1.367 1_655 S
C421 C423 1.395 . S
C422 H395 0.950 . S
C422 C408 1.377 . S
C422 C421 1.367 1_455 S
C423 C407 1.377 . S
C423 C421 1.395 . S
C423 C424 1.524 . S
C424 C423 1.524 . S
C424 C425 1.397 . S
C424 C429 1.363 . S
C425 H396 0.950 . S
C425 C424 1.397 . S
C425 C426 1.334 . S
C426 H397 0.950 . S
C426 C425 1.334 . S
C426 C427 1.287 . S
C427 C426 1.287 . S
C427 C428 1.524 . S
C427 H430 0.999 . S
C428 H398 0.950 . S
C428 C427 1.524 . S
C428 C429 1.415 . S
C429 H399 0.957 . S
C429 C424 1.363 . S
C429 C428 1.415 . S
H430 C427 0.999 . S
H431 C412 0.913 . S
H432 C450 0.951 . S
H433 C452 0.951 . S
H434 C454 0.950 . S
H435 C455 0.950 . S
H436 C457 0.950 . S
H437 C460 0.950 . S
H438 C461 0.950 . S
H439 C463 0.950 . S
H440 C464 0.950 . S
H441 C465 0.951 . S
H442 C467 0.966 . S
H443 C469 0.950 . S
H444 C470 0.950 . S
H445 C472 0.950 . S
H446 C475 0.950 1_556 S
H447 C476 0.950 1_556 S
H448 C478 0.950 . S
H449 C479 0.950 . S
C450 H432 0.951 . S
C450 C451 1.365 . S
C450 C452 1.388 . S
C451 C450 1.365 . S
C451 C455 1.385 1_545 S
C452 H433 0.951 . S
C452 C450 1.388 . S
C452 C453 1.366 1_545 S
C453 C452 1.366 1_565 S
C453 C454 1.414 . S
C453 C456 1.499 . S
C454 H434 0.950 . S
C454 C453 1.414 . S
C454 C455 1.374 . S
C455 H435 0.950 . S
C455 C451 1.385 1_565 S
C455 C454 1.374 . S
C456 C453 1.499 . S
C456 C457 1.373 1_565 S
C456 C458 1.389 . S
C457 H436 0.950 . S
C457 C456 1.373 1_545 S
C457 C473 1.377 . S
C458 C456 1.389 . S
C458 C459 1.524 . S
C458 C472 1.377 1_554 S
C459 C458 1.524 . S
C459 C460 1.397 . S
C459 C464 1.363 1_554 S
C460 H437 0.950 . S
C460 C459 1.397 . S
C460 C461 1.334 . S
C461 H438 0.950 . S
C461 C460 1.334 . S
C461 C462 1.287 . S
C462 C461 1.287 . S
C462 C463 1.524 1_554 S
C462 H481 0.913 . S
C463 H439 0.950 . S
C463 C462 1.524 1_556 S
C463 C464 1.415 . S
C464 H440 0.950 . S
C464 C459 1.363 1_556 S
C464 C463 1.415 . S
C465 H441 0.951 . S
C465 C466 1.366 . S
C465 C467 1.388 . S
C466 C465 1.366 . S
C466 C470 1.385 1_565 S
C467 H442 0.966 . S
C467 C465 1.388 . S
C467 C468 1.361 1_565 S
C468 C467 1.361 1_545 S
C468 C469 1.417 . S
C468 C471 1.498 1_556 S
C469 H443 0.950 . S
C469 C468 1.417 . S
C469 C470 1.374 . S
C470 H444 0.950 . S
C470 C466 1.385 1_545 S
C470 C469 1.374 . S
C471 C468 1.498 1_554 S
C471 C472 1.352 1_544 S
C471 C473 1.410 . S
C472 H445 0.950 . S
C472 C458 1.377 1_556 S
C472 C471 1.352 1_566 S
C473 C457 1.377 . S
C473 C471 1.410 . S
C473 C474 1.524 . S
C474 C473 1.524 . S
C474 C475 1.397 . S
C474 C479 1.363 . S
C475 H446 0.950 1_554 S
C475 C474 1.397 . S
C475 C476 1.334 . S
C476 H447 0.950 1_554 S
C476 C475 1.334 . S
C476 C477 1.287 . S
C477 C476 1.287 . S
C477 C478 1.524 . S
C477 H480 0.999 . S
C478 H448 0.950 . S
C478 C477 1.524 . S
C478 C479 1.415 . S
C479 H449 0.950 . S
C479 C474 1.363 . S
C479 C478 1.415 . S
H480 C477 0.999 . S
H481 C462 0.913 . S
H482 C500 0.951 . S
H483 C502 0.951 . S
H484 C504 0.950 . S
H485 C505 0.950 . S
H486 C507 0.950 . S
H487 C510 0.950 . S
H488 C511 0.950 . S
H489 C513 0.950 . S
H490 C514 0.950 . S
H491 C515 0.951 . S
H492 C517 0.951 . S
H493 C519 0.950 . S
H494 C520 0.950 . S
H495 C522 0.950 . S
H496 C525 0.950 . S
H497 C526 0.950 . S
H498 C528 0.950 . S
H499 C529 0.950 . S
C500 H482 0.951 . S
C500 C501 1.366 . S
C500 C502 1.388 . S
C501 C500 1.366 . S
C501 C505 1.385 . S
C502 H483 0.951 . S
C502 C500 1.388 . S
C502 C503 1.366 . S
C503 C502 1.366 . S
C503 C504 1.414 . S
C503 C506 1.499 . S
C504 H484 0.950 . S
C504 C503 1.414 . S
C504 C505 1.374 . S
C505 H485 0.950 . S
C505 C501 1.385 . S
C505 C504 1.374 . S
C506 C503 1.499 . S
C506 C507 1.373 . S
C506 C508 1.389 . S
C507 H486 0.950 . S
C507 C506 1.373 . S
C507 C523 1.377 . S
C508 C506 1.389 . S
C508 C509 1.524 . S
C508 C522 1.377 1_554 S
C509 C508 1.524 . S
C509 C510 1.397 . S
C509 C514 1.363 1_554 S
C510 H487 0.950 . S
C510 C509 1.397 . S
C510 C511 1.334 . S
C511 H488 0.950 . S
C511 C510 1.334 . S
C511 C512 1.287 1_554 S
C512 C511 1.287 1_556 S
C512 C513 1.524 . S
C512 H531 0.913 . S
C513 H489 0.950 . S
C513 C512 1.524 . S
C513 C514 1.415 . S
C514 H490 0.950 . S
C514 C509 1.363 1_556 S
C514 C513 1.415 . S
C515 H491 0.951 . S
C515 C516 1.366 . S
C515 C517 1.388 . S
C516 C515 1.366 . S
C516 C520 1.385 . S
C517 H492 0.951 . S
C517 C515 1.388 . S
C517 C518 1.366 . S
C518 C517 1.366 . S
C518 C519 1.414 . S
C518 C521 1.499 1_556 S
C519 H493 0.950 . S
C519 C518 1.414 . S
C519 C520 1.374 . S
C520 H494 0.950 . S
C520 C516 1.385 . S
C520 C519 1.374 . S
C521 C518 1.499 1_554 S
C521 C522 1.373 1_554 S
C521 C523 1.389 . S
C522 H495 0.950 . S
C522 C508 1.377 1_556 S
C522 C521 1.373 1_556 S
C523 C507 1.377 . S
C523 C521 1.389 . S
C523 C524 1.524 . S
C524 C523 1.524 . S
C524 C525 1.397 . S
C524 C529 1.363 . S
C525 H496 0.950 . S
C525 C524 1.397 . S
C525 C526 1.334 . S
C526 H497 0.950 . S
C526 C525 1.334 . S
C526 C527 1.287 . S
C527 C526 1.287 . S
C527 C528 1.524 . S
C527 H530 0.999 . S
C528 H498 0.950 . S
C528 C527 1.524 . S
C528 C529 1.415 . S
C529 H499 0.950 . S
C529 C524 1.363 . S
C529 C528 1.415 . S
H530 C527 0.999 . S
H531 C512 0.913 . S
H532 C550 0.951 . S
H533 C552 0.951 . S
H534 C554 0.950 . S
H535 C555 0.950 . S
H536 C557 0.950 . S
H537 C560 0.950 . S
H538 C561 0.950 . S
H539 C563 0.950 . S
H540 C564 0.950 . S
H541 C565 0.951 . S
H542 C567 0.951 . S
H543 C569 0.950 . S
H544 C570 0.950 . S
H545 C572 0.950 . S
H546 C575 0.950 . S
H547 C576 0.950 . S
H548 C578 0.950 . S
H549 C579 0.950 . S
C550 H532 0.951 . S
C550 C551 1.366 . S
C550 C552 1.388 . S
C551 C550 1.366 . S
C551 C555 1.385 . S
C552 H533 0.951 . S
C552 C550 1.388 . S
C552 C553 1.366 . S
C553 C552 1.366 . S
C553 C554 1.414 . S
C553 C556 1.499 . S
C554 H534 0.950 . S
C554 C553 1.414 . S
C554 C555 1.374 . S
C555 H535 0.950 . S
C555 C551 1.385 . S
C555 C554 1.374 . S
C556 C553 1.499 . S
C556 C557 1.373 . S
C556 C558 1.389 . S
C557 H536 0.950 . S
C557 C556 1.373 . S
C557 C573 1.377 . S
C558 C556 1.389 . S
C558 C559 1.524 . S
C558 C572 1.377 . S
C559 C558 1.524 . S
C559 C560 1.397 . S
C559 C564 1.363 . S
C560 H537 0.950 . S
C560 C559 1.397 . S
C560 C561 1.334 . S
C561 H538 0.950 . S
C561 C560 1.334 . S
C561 C562 1.287 . S
C562 C561 1.287 . S
C562 C563 1.524 . S
C562 H581 0.913 . S
C563 H539 0.950 . S
C563 C562 1.524 . S
C563 C564 1.415 . S
C564 H540 0.950 . S
C564 C559 1.363 . S
C564 C563 1.415 . S
C565 H541 0.951 . S
C565 C566 1.366 . S
C565 C567 1.388 . S
C566 C565 1.366 . S
C566 C570 1.385 . S
C567 H542 0.951 . S
C567 C565 1.388 . S
C567 C568 1.366 . S
C568 C567 1.366 . S
C568 C569 1.414 . S
C568 C571 1.498 1_556 S
C569 H543 0.950 . S
C569 C568 1.414 . S
C569 C570 1.374 . S
C570 H544 0.950 . S
C570 C566 1.385 . S
C570 C569 1.374 . S
C571 C568 1.498 1_554 S
C571 C572 1.374 . S
C571 C573 1.390 . S
C572 H545 0.950 . S
C572 C558 1.377 . S
C572 C571 1.374 . S
C573 C557 1.377 . S
C573 C571 1.390 . S
C573 C574 1.524 . S
C574 C573 1.524 . S
C574 C575 1.397 1_554 S
C574 C579 1.363 . S
C575 H546 0.950 . S
C575 C574 1.397 1_556 S
C575 C576 1.334 . S
C576 H547 0.950 . S
C576 C575 1.334 . S
C576 C577 1.287 . S
C577 C576 1.287 . S
C577 C578 1.524 1_556 S
C577 H580 0.999 . S
C578 H548 0.950 . S
C578 C577 1.524 1_554 S
C578 C579 1.415 . S
C579 H549 0.950 . S
C579 C574 1.363 . S
C579 C578 1.415 . S
H580 C577 0.999 . S
H581 C562 0.913 . S
H582 C600 0.951 . S
H583 C602 0.951 . S
H584 C604 0.950 . S
H585 C605 0.950 . S
H586 C607 0.950 . S
H587 C610 0.950 . S
H588 C611 0.950 . S
H589 C613 0.950 . S
H590 C614 0.950 . S
H591 C615 0.951 . S
H592 C617 0.951 . S
H593 C619 0.950 . S
H594 C620 0.950 . S
H595 C622 0.950 . S
H596 C625 0.950 . S
H597 C626 0.950 . S
H598 C628 0.950 . S
H599 C629 0.950 . S
C600 H582 0.951 . S
C600 C601 1.360 1_455 S
C600 C602 1.388 . S
C601 C600 1.360 1_655 S
C601 C605 1.390 . S
C602 H583 0.951 . S
C602 C600 1.388 . S
C602 C603 1.366 1_455 S
C603 C602 1.366 1_655 S
C603 C604 1.414 . S
C603 C606 1.499 . S
C604 H584 0.950 . S
C604 C603 1.414 . S
C604 C605 1.374 . S
C605 H585 0.950 . S
C605 C601 1.390 . S
C605 C604 1.374 . S
C606 C603 1.499 . S
C606 C607 1.373 . S
C606 C608 1.389 1_655 S
C607 H586 0.950 . S
C607 C606 1.373 . S
C607 C623 1.377 . S
C608 C606 1.389 1_455 S
C608 C609 1.524 . S
C608 C622 1.377 1_554 S
C609 C608 1.524 . S
C609 C610 1.397 1_455 S
C609 C614 1.363 1_554 S
C610 H587 0.950 . S
C610 C609 1.397 1_655 S
C610 C611 1.334 . S
C611 H588 0.950 . S
C611 C610 1.334 . S
C611 C612 1.287 1_654 S
C612 C611 1.287 1_456 S
C612 C613 1.524 . S
C612 H631 0.913 . S
C613 H589 0.950 . S
C613 C612 1.524 . S
C613 C614 1.415 . S
C614 H590 0.950 . S
C614 C609 1.363 1_556 S
C614 C613 1.415 . S
C615 H591 0.951 . S
C615 C616 1.366 . S
C615 C617 1.388 . S
C616 C615 1.366 . S
C616 C620 1.385 1_655 S
C617 H592 0.951 . S
C617 C615 1.388 . S
C617 C618 1.397 . S
C618 C617 1.397 . S
C618 C619 1.384 1_655 S
C618 C621 1.498 1_656 S
C619 H593 0.950 . S
C619 C618 1.384 1_455 S
C619 C620 1.374 . S
C620 H594 0.950 . S
C620 C616 1.385 1_455 S
C620 C619 1.374 . S
C621 C618 1.498 1_454 S
C621 C622 1.373 1_554 S
C621 C623 1.389 1_455 S
C622 H595 0.950 . S
C622 C608 1.377 1_556 S
C622 C621 1.373 1_556 S
C623 C607 1.377 . S
C623 C621 1.389 1_655 S
C623 C624 1.524 . S
C624 C623 1.524 . S
C624 C625 1.397 1_655 S
C624 C629 1.363 . S
C625 H596 0.950 . S
C625 C624 1.397 1_455 S
C625 C626 1.334 . S
C626 H597 0.950 . S
C626 C625 1.334 . S
C626 C627 1.287 1_455 S
C627 C626 1.287 1_655 S
C627 C628 1.524 . S
C627 H630 0.999 . S
C628 H598 0.950 . S
C628 C627 1.524 . S
C628 C629 1.415 . S
C629 H599 0.950 . S
C629 C624 1.363 . S
C629 C628 1.415 . S
H630 C627 0.999 . S
H631 C612 0.913 . S
H632 C650 0.951 . S
H633 C652 0.951 . S
H634 C654 0.950 . S
H635 C655 0.950 . S
H636 C657 0.970 . S
H637 C660 0.950 . S
H638 C661 0.950 . S
H639 C663 0.950 1_556 S
H640 C664 0.950 . S
H641 C665 0.951 . S
H642 C667 0.951 . S
H643 C669 0.950 . S
H644 C670 0.950 . S
H645 C672 0.950 . S
H646 C675 0.950 . S
H647 C676 0.950 . S
H648 C678 0.961 . S
H649 C679 0.950 . S
C650 H632 0.951 . S
C650 C651 1.366 . S
C650 C652 1.388 . S
C651 C650 1.366 . S
C651 C655 1.385 1_455 S
C652 H633 0.951 . S
C652 C650 1.388 . S
C652 C653 1.366 1_455 S
C653 C652 1.366 1_655 S
C653 C654 1.414 . S
C653 C656 1.499 . S
C654 H634 0.950 . S
C654 C653 1.414 . S
C654 C655 1.374 . S
C655 H635 0.950 . S
C655 C651 1.385 1_655 S
C655 C654 1.374 . S
C656 C653 1.499 . S
C656 C657 1.373 . S
C656 C658 1.389 . S
C657 H636 0.970 . S
C657 C656 1.373 . S
C657 C673 1.377 . S
C658 C656 1.389 . S
C658 C659 1.524 . S
C658 C672 1.377 . S
C659 C658 1.524 . S
C659 C660 1.397 . S
C659 C664 1.363 . S
C660 H637 0.950 . S
C660 C659 1.397 . S
C660 C661 1.334 . S
C661 H638 0.950 . S
C661 C660 1.334 . S
C661 C662 1.287 . S
C662 C661 1.287 . S
C662 C663 1.524 . S
C662 H681 0.913 1_554 S
C663 H639 0.950 1_554 S
C663 C662 1.524 . S
C663 C664 1.415 . S
C664 H640 0.950 . S
C664 C659 1.363 . S
C664 C663 1.415 . S
C665 H641 0.951 . S
C665 C666 1.366 . S
C665 C667 1.388 . S
C666 C665 1.366 . S
C666 C670 1.385 . S
C667 H642 0.951 . S
C667 C665 1.388 . S
C667 C668 1.366 . S
C668 C667 1.366 . S
C668 C669 1.414 . S
C668 C671 1.499 . S
C669 H643 0.950 . S
C669 C668 1.414 . S
C669 C670 1.374 . S
C670 H644 0.950 . S
C670 C666 1.385 . S
C670 C669 1.374 . S
C671 C668 1.499 . S
C671 C672 1.373 . S
C671 C673 1.389 . S
C672 H645 0.950 . S
C672 C658 1.377 . S
C672 C671 1.373 . S
C673 C657 1.377 . S
C673 C671 1.389 . S
C673 C674 1.524 . S
C674 C673 1.524 . S
C674 C675 1.397 1_655 S
C674 C679 1.363 . S
C675 H646 0.950 . S
C675 C674 1.397 1_455 S
C675 C676 1.334 . S
C676 H647 0.950 . S
C676 C675 1.334 . S
C676 C677 1.287 . S
C677 C676 1.287 . S
C677 C678 1.524 . S
C677 H680 0.999 . S
C678 H648 0.961 . S
C678 C677 1.524 . S
C678 C679 1.415 1_455 S
C679 H649 0.950 . S
C679 C674 1.363 . S
C679 C678 1.415 1_655 S
H680 C677 0.999 . S
H681 C662 0.913 1_556 S
H682 C700 0.950 1_545 S
H683 C702 0.951 . S
H684 C704 0.950 . S
H685 C705 0.950 1_545 S
H686 C707 0.950 . S
H687 C710 0.950 . S
H688 C711 0.950 . S
H689 C713 0.950 . S
H690 C714 0.950 . S
H691 C715 0.951 . S
H692 C717 0.951 . S
H693 C719 0.950 . S
H694 C720 0.950 . S
H695 C722 0.950 1_545 S
H696 C725 0.950 . S
H697 C726 0.950 . S
H698 C728 0.950 . S
H699 C729 0.950 . S
C700 H682 0.950 1_565 S
C700 C701 1.365 1_565 S
C700 C702 1.389 . S
C701 C700 1.365 1_545 S
C701 C705 1.385 1_545 S
C702 H683 0.951 . S
C702 C700 1.389 . S
C702 C703 1.366 . S
C703 C702 1.366 . S
C703 C704 1.414 . S
C703 C706 1.499 . S
C704 H684 0.950 . S
C704 C703 1.414 . S
C704 C705 1.373 . S
C705 H685 0.950 1_565 S
C705 C701 1.385 1_565 S
C705 C704 1.373 . S
C706 C703 1.499 . S
C706 C707 1.373 . S
C706 C708 1.382 1_565 S
C707 H686 0.950 . S
C707 C706 1.373 . S
C707 C723 1.377 . S
C708 C706 1.382 1_545 S
C708 C709 1.536 . S
C708 C722 1.373 1_545 S
C709 C708 1.536 . S
C709 C710 1.397 . S
C709 C714 1.363 . S
C710 H687 0.950 . S
C710 C709 1.397 . S
C710 C711 1.334 . S
C711 H688 0.950 . S
C711 C710 1.334 . S
C711 C712 1.287 . S
C712 C711 1.287 . S
C712 C713 1.524 . S
C712 H731 0.913 . S
C713 H689 0.950 . S
C713 C712 1.524 . S
C713 C714 1.415 . S
C714 H690 0.950 . S
C714 C709 1.363 . S
C714 C713 1.415 . S
C715 H691 0.951 . S
C715 C716 1.366 . S
C715 C717 1.388 . S
C716 C715 1.366 . S
C716 C720 1.385 . S
C717 H692 0.951 . S
C717 C715 1.388 . S
C717 C718 1.366 . S
C718 C717 1.366 . S
C718 C719 1.414 . S
C718 C721 1.499 . S
C719 H693 0.950 . S
C719 C718 1.414 . S
C719 C720 1.374 . S
C720 H694 0.950 . S
C720 C716 1.385 . S
C720 C719 1.374 . S
C721 C718 1.499 . S
C721 C722 1.373 . S
C721 C723 1.389 . S
C722 H695 0.950 1_565 S
C722 C708 1.373 1_565 S
C722 C721 1.373 . S
C723 C707 1.377 . S
C723 C721 1.389 . S
C723 C724 1.524 . S
C724 C723 1.524 . S
C724 C725 1.397 . S
C724 C729 1.363 . S
C725 H696 0.950 . S
C725 C724 1.397 . S
C725 C726 1.334 . S
C726 H697 0.950 . S
C726 C725 1.334 . S
C726 C727 1.287 . S
C727 C726 1.287 . S
C727 C728 1.524 . S
C727 H730 0.999 . S
C728 H698 0.950 . S
C728 C727 1.524 . S
C728 C729 1.415 . S
C729 H699 0.950 . S
C729 C724 1.363 . S
C729 C728 1.415 . S
H730 C727 0.999 . S
H731 C712 0.913 . S
H732 C750 0.951 . S
H733 C752 0.951 . S
H734 C754 0.950 . S
H735 C755 0.950 . S
H736 C757 0.950 . S
H737 C760 0.950 . S
H738 C761 0.950 . S
H739 C763 0.950 . S
H740 C764 0.950 . S
H741 C765 0.951 . S
H742 C767 0.951 . S
H743 C769 0.950 . S
H744 C770 0.950 . S
H745 C772 0.950 . S
H746 C775 0.950 . S
H747 C776 0.950 . S
H748 C778 0.950 . S
H749 C779 0.950 . S
C750 H732 0.951 . S
C750 C751 1.366 . S
C750 C752 1.388 . S
C751 C750 1.366 . S
C751 C755 1.385 . S
C752 H733 0.951 . S
C752 C750 1.388 . S
C752 C753 1.366 . S
C753 C752 1.366 . S
C753 C754 1.414 . S
C753 C756 1.499 . S
C754 H734 0.950 . S
C754 C753 1.414 . S
C754 C755 1.374 . S
C755 H735 0.950 . S
C755 C751 1.385 . S
C755 C754 1.374 . S
C756 C753 1.499 . S
C756 C757 1.373 . S
C756 C758 1.389 . S
C757 H736 0.950 . S
C757 C756 1.373 . S
C757 C773 1.377 . S
C758 C756 1.389 . S
C758 C759 1.524 . S
C758 C772 1.377 . S
C759 C758 1.524 . S
C759 C760 1.397 . S
C759 C764 1.363 . S
C760 H737 0.950 . S
C760 C759 1.397 . S
C760 C761 1.334 . S
C761 H738 0.950 . S
C761 C760 1.334 . S
C761 C762 1.287 . S
C762 C761 1.287 . S
C762 C763 1.524 . S
C762 H781 0.913 . S
C763 H739 0.950 . S
C763 C762 1.524 . S
C763 C764 1.415 . S
C764 H740 0.950 . S
C764 C759 1.363 . S
C764 C763 1.415 . S
C765 H741 0.951 . S
C765 C766 1.366 . S
C765 C767 1.388 . S
C766 C765 1.366 . S
C766 C770 1.385 . S
C767 H742 0.951 . S
C767 C765 1.388 . S
C767 C768 1.366 . S
C768 C767 1.366 . S
C768 C769 1.414 . S
C768 C771 1.499 . S
C769 H743 0.950 . S
C769 C768 1.414 . S
C769 C770 1.374 . S
C770 H744 0.950 . S
C770 C766 1.385 . S
C770 C769 1.374 . S
C771 C768 1.499 . S
C771 C772 1.373 . S
C771 C773 1.389 . S
C772 H745 0.950 . S
C772 C758 1.377 . S
C772 C771 1.373 . S
C773 C757 1.377 . S
C773 C771 1.389 . S
C773 C774 1.524 . S
C774 C773 1.524 . S
C774 C775 1.397 . S
C774 C779 1.363 . S
C775 H746 0.950 . S
C775 C774 1.397 . S
C775 C776 1.334 . S
C776 H747 0.950 . S
C776 C775 1.334 . S
C776 C777 1.287 . S
C777 C776 1.287 . S
C777 C778 1.524 . S
C777 H780 0.999 . S
C778 H748 0.950 . S
C778 C777 1.524 . S
C778 C779 1.415 . S
C779 H749 0.950 . S
C779 C774 1.363 . S
C779 C778 1.415 . S
H780 C777 0.999 . S
H781 C762 0.913 . S
H782 C800 0.951 . S
H783 C802 0.951 . S
H784 C804 0.950 . S
H785 C805 0.950 . S
H786 C807 0.950 . S
H787 C810 0.950 . S
H788 C811 0.950 . S
H789 C813 0.950 . S
H790 C814 0.950 . S
H791 C815 0.951 . S
H792 C817 0.951 . S
H793 C819 0.950 . S
H794 C820 0.950 . S
H795 C822 0.950 . S
H796 C825 0.950 . S
H797 C826 0.950 . S
H798 C828 0.950 . S
H799 C829 0.950 . S
C800 H782 0.951 . S
C800 C801 1.366 . S
C800 C802 1.388 . S
C801 C800 1.366 . S
C801 C805 1.385 . S
C802 H783 0.951 . S
C802 C800 1.388 . S
C802 C803 1.366 . S
C803 C802 1.366 . S
C803 C804 1.414 . S
C803 C806 1.499 . S
C804 H784 0.950 . S
C804 C803 1.414 . S
C804 C805 1.374 . S
C805 H785 0.950 . S
C805 C801 1.385 . S
C805 C804 1.374 . S
C806 C803 1.499 . S
C806 C807 1.373 . S
C806 C808 1.389 . S
C807 H786 0.950 . S
C807 C806 1.373 . S
C807 C823 1.377 . S
C808 C806 1.389 . S
C808 C809 1.524 . S
C808 C822 1.377 . S
C809 C808 1.524 . S
C809 C810 1.397 . S
C809 C814 1.363 . S
C810 H787 0.950 . S
C810 C809 1.397 . S
C810 C811 1.334 . S
C811 H788 0.950 . S
C811 C810 1.334 . S
C811 C812 1.287 . S
C812 C811 1.287 . S
C812 C813 1.524 . S
C812 H831 0.913 . S
C813 H789 0.950 . S
C813 C812 1.524 . S
C813 C814 1.415 . S
C814 H790 0.950 . S
C814 C809 1.363 . S
C814 C813 1.415 . S
C815 H791 0.951 . S
C815 C816 1.366 . S
C815 C817 1.388 . S
C816 C815 1.366 . S
C816 C820 1.385 . S
C817 H792 0.951 . S
C817 C815 1.388 . S
C817 C818 1.366 . S
C818 C817 1.366 . S
C818 C819 1.414 . S
C818 C821 1.499 . S
C819 H793 0.950 . S
C819 C818 1.414 . S
C819 C820 1.374 . S
C820 H794 0.950 . S
C820 C816 1.385 . S
C820 C819 1.374 . S
C821 C818 1.499 . S
C821 C822 1.373 . S
C821 C823 1.389 . S
C822 H795 0.950 . S
C822 C808 1.377 . S
C822 C821 1.373 . S
C823 C807 1.377 . S
C823 C821 1.389 . S
C823 C824 1.524 . S
C824 C823 1.524 . S
C824 C825 1.397 . S
C824 C829 1.363 . S
C825 H796 0.950 . S
C825 C824 1.397 . S
C825 C826 1.334 . S
C826 H797 0.950 . S
C826 C825 1.334 . S
C826 C827 1.287 . S
C827 C826 1.287 . S
C827 C828 1.524 . S
C827 H830 0.999 . S
C828 H798 0.950 . S
C828 C827 1.524 . S
C828 C829 1.415 . S
C829 H799 0.950 . S
C829 C824 1.363 . S
C829 C828 1.415 . S
H830 C827 0.999 . S
H831 C812 0.913 . S
H832 C850 0.951 . S
H833 C852 0.951 . S
H834 C854 0.950 . S
H835 C855 0.950 . S
H836 C857 0.950 . S
H837 C860 0.950 . S
H838 C861 0.950 . S
H839 C863 0.950 . S
H840 C864 0.950 . S
H841 C865 0.951 . S
H842 C867 0.951 . S
H843 C869 0.950 . S
H844 C870 0.950 . S
H845 C872 0.950 . S
H846 C875 0.950 . S
H847 C876 0.950 . S
H848 C878 0.950 . S
H849 C879 0.950 . S
C850 H832 0.951 . S
C850 C851 1.366 1_455 S
C850 C852 1.388 . S
C851 C850 1.366 1_655 S
C851 C855 1.385 . S
C852 H833 0.951 . S
C852 C850 1.388 . S
C852 C853 1.366 . S
C853 C852 1.366 . S
C853 C854 1.414 1_455 S
C853 C856 1.499 . S
C854 H834 0.950 . S
C854 C853 1.414 1_655 S
C854 C855 1.374 . S
C855 H835 0.950 . S
C855 C851 1.385 . S
C855 C854 1.374 . S
C856 C853 1.499 . S
C856 C857 1.373 . S
C856 C858 1.389 . S
C857 H836 0.950 . S
C857 C856 1.373 . S
C857 C873 1.377 . S
C858 C856 1.389 . S
C858 C859 1.524 . S
C858 C872 1.377 . S
C859 C858 1.524 . S
C859 C860 1.397 1_455 S
C859 C864 1.363 . S
C860 H837 0.950 . S
C860 C859 1.397 1_655 S
C860 C861 1.334 . S
C861 H838 0.950 . S
C861 C860 1.334 . S
C861 C862 1.287 . S
C862 C861 1.287 . S
C862 C863 1.524 1_655 S
C862 H881 0.913 . S
C863 H839 0.950 . S
C863 C862 1.524 1_455 S
C863 C864 1.415 . S
C864 H840 0.950 . S
C864 C859 1.363 . S
C864 C863 1.415 . S
C865 H841 0.951 . S
C865 C866 1.366 . S
C865 C867 1.388 . S
C866 C865 1.366 . S
C866 C870 1.385 1_556 S
C867 H842 0.951 . S
C867 C865 1.388 . S
C867 C868 1.366 1_556 S
C868 C867 1.366 1_554 S
C868 C869 1.414 . S
C868 C871 1.499 . S
C869 H843 0.950 . S
C869 C868 1.414 . S
C869 C870 1.374 . S
C870 H844 0.950 . S
C870 C866 1.385 1_554 S
C870 C869 1.374 . S
C871 C868 1.499 . S
C871 C872 1.373 . S
C871 C873 1.389 . S
C872 H845 0.950 . S
C872 C858 1.377 . S
C872 C871 1.373 . S
C873 C857 1.377 . S
C873 C871 1.389 . S
C873 C874 1.524 1_554 S
C874 C873 1.524 1_556 S
C874 C875 1.397 . S
C874 C879 1.363 . S
C875 H846 0.950 . S
C875 C874 1.397 . S
C875 C876 1.334 . S
C876 H847 0.950 . S
C876 C875 1.334 . S
C876 C877 1.287 . S
C877 C876 1.287 . S
C877 C878 1.524 . S
C877 H880 0.999 . S
C878 H848 0.950 . S
C878 C877 1.524 . S
C878 C879 1.415 . S
C879 H849 0.950 . S
C879 C874 1.363 . S
C879 C878 1.415 . S
H880 C877 0.999 . S
H881 C862 0.913 . S
H882 C900 0.951 . S
H883 C902 0.951 . S
H884 C904 0.953 . S
H885 C905 0.950 . S
H886 C907 0.950 . S
H887 C910 0.950 . S
H888 C911 0.950 . S
H889 C913 0.950 . S
H890 C914 0.950 . S
H891 C915 0.951 . S
H892 C917 0.951 . S
H893 C919 0.950 . S
H894 C920 0.950 . S
H895 C922 0.950 . S
H896 C925 0.950 1_556 S
H897 C926 0.950 1_556 S
H898 C928 0.950 . S
H899 C929 0.950 . S
C900 H882 0.951 . S
C900 C901 1.366 1_545 S
C900 C902 1.388 . S
C901 C900 1.366 1_565 S
C901 C905 1.385 . S
C902 H883 0.951 . S
C902 C900 1.388 . S
C902 C903 1.366 . S
C903 C902 1.366 . S
C903 C904 1.409 1_545 S
C903 C906 1.499 . S
C904 H884 0.953 . S
C904 C903 1.409 1_565 S
C904 C905 1.376 . S
C905 H885 0.950 . S
C905 C901 1.385 . S
C905 C904 1.376 . S
C906 C903 1.499 . S
C906 C907 1.373 1_545 S
C906 C908 1.389 . S
C907 H886 0.950 . S
C907 C906 1.373 1_565 S
C907 C923 1.377 1_565 S
C908 C906 1.389 . S
C908 C909 1.524 . S
C908 C922 1.377 . S
C909 C908 1.524 . S
C909 C910 1.397 . S
C909 C914 1.363 . S
C910 H887 0.950 . S
C910 C909 1.397 . S
C910 C911 1.334 . S
C911 H888 0.950 . S
C911 C910 1.334 . S
C911 C912 1.287 . S
C912 C911 1.287 . S
C912 C913 1.524 . S
C912 H931 0.913 . S
C913 H889 0.950 . S
C913 C912 1.524 . S
C913 C914 1.415 . S
C914 H890 0.950 . S
C914 C909 1.363 . S
C914 C913 1.415 . S
C915 H891 0.951 . S
C915 C916 1.366 1_554 S
C915 C917 1.388 . S
C916 C915 1.366 1_556 S
C916 C920 1.385 . S
C917 H892 0.951 . S
C917 C915 1.388 . S
C917 C918 1.366 . S
C918 C917 1.366 . S
C918 C919 1.414 1_554 S
C918 C921 1.499 . S
C919 H893 0.950 . S
C919 C918 1.414 1_556 S
C919 C920 1.374 . S
C920 H894 0.950 . S
C920 C916 1.385 . S
C920 C919 1.374 . S
C921 C918 1.499 . S
C921 C922 1.373 . S
C921 C923 1.389 . S
C922 H895 0.950 . S
C922 C908 1.377 . S
C922 C921 1.373 . S
C923 C907 1.377 1_545 S
C923 C921 1.389 . S
C923 C924 1.524 1_545 S
C924 C923 1.524 1_565 S
C924 C925 1.397 . S
C924 C929 1.363 . S
C925 H896 0.950 1_554 S
C925 C924 1.397 . S
C925 C926 1.334 . S
C926 H897 0.950 1_554 S
C926 C925 1.334 . S
C926 C927 1.287 . S
C927 C926 1.287 . S
C927 C928 1.524 . S
C927 H930 0.999 . S
C928 H898 0.950 . S
C928 C927 1.524 . S
C928 C929 1.415 . S
C929 H899 0.950 . S
C929 C924 1.363 . S
C929 C928 1.415 . S
H930 C927 0.999 . S
H931 C912 0.913 . S
H932 C950 0.951 . S
H933 C952 0.951 . S
H934 C954 0.950 . S
H935 C955 0.950 . S
H936 C957 0.950 . S
H937 C960 0.950 . S
H938 C961 0.950 . S
H939 C963 0.950 . S
H940 C964 0.950 . S
H941 C965 0.951 . S
H942 C967 0.951 . S
H943 C969 0.950 . S
H944 C970 0.950 . S
H945 C972 0.950 . S
H946 C975 0.950 1_556 S
H947 C976 0.950 1_556 S
H948 C978 0.950 . S
H949 C979 0.950 . S
C950 H932 0.951 . S
C950 C951 1.366 . S
C950 C952 1.388 . S
C951 C950 1.366 . S
C951 C955 1.385 . S
C952 H933 0.951 . S
C952 C950 1.388 . S
C952 C953 1.366 . S
C953 C952 1.366 . S
C953 C954 1.414 . S
C953 C956 1.499 . S
C954 H934 0.950 . S
C954 C953 1.414 . S
C954 C955 1.374 . S
C955 H935 0.950 . S
C955 C951 1.385 . S
C955 C954 1.374 . S
C956 C953 1.499 . S
C956 C957 1.373 . S
C956 C958 1.389 . S
C957 H936 0.950 . S
C957 C956 1.373 . S
C957 C973 1.377 . S
C958 C956 1.389 . S
C958 C959 1.524 . S
C958 C972 1.377 . S
C959 C958 1.524 . S
C959 C960 1.397 . S
C959 C964 1.363 . S
C960 H937 0.950 . S
C960 C959 1.397 . S
C960 C961 1.334 . S
C961 H938 0.950 . S
C961 C960 1.334 . S
C961 C962 1.287 . S
C962 C961 1.287 . S
C962 C963 1.524 . S
C962 H981 0.913 . S
C963 H939 0.950 . S
C963 C962 1.524 . S
C963 C964 1.415 . S
C964 H940 0.950 . S
C964 C959 1.363 . S
C964 C963 1.415 . S
C965 H941 0.951 . S
C965 C966 1.366 1_554 S
C965 C967 1.388 . S
C966 C965 1.366 1_556 S
C966 C970 1.385 . S
C967 H942 0.951 . S
C967 C965 1.388 . S
C967 C968 1.366 . S
C968 C967 1.366 . S
C968 C969 1.414 1_554 S
C968 C971 1.499 . S
C969 H943 0.950 . S
C969 C968 1.414 1_556 S
C969 C970 1.374 . S
C970 H944 0.950 . S
C970 C966 1.385 . S
C970 C969 1.374 . S
C971 C968 1.499 . S
C971 C972 1.373 . S
C971 C973 1.389 . S
C972 H945 0.950 . S
C972 C958 1.377 . S
C972 C971 1.373 . S
C973 C957 1.377 . S
C973 C971 1.389 . S
C973 C974 1.524 . S
C974 C973 1.524 . S
C974 C975 1.397 . S
C974 C979 1.363 . S
C975 H946 0.950 1_554 S
C975 C974 1.397 . S
C975 C976 1.334 . S
C976 H947 0.950 1_554 S
C976 C975 1.334 . S
C976 C977 1.287 . S
C977 C976 1.287 . S
C977 C978 1.524 . S
C977 H980 0.999 . S
C978 H948 0.950 . S
C978 C977 1.524 . S
C978 C979 1.415 . S
C979 H949 0.950 . S
C979 C974 1.363 . S
C979 C978 1.415 . S
H980 C977 0.999 . S
H981 C962 0.913 . S
H982 C1000 0.951 . S
H983 C1002 0.951 . S
H984 C1004 0.950 . S
H985 C1005 0.950 . S
H986 C1007 0.950 . S
H987 C1010 0.950 . S
H988 C1011 0.950 . S
H989 C1013 0.950 . S
H990 C1014 0.950 . S
H991 C1015 0.951 . S
H992 C1017 0.951 . S
H993 C1019 0.950 . S
H994 C1020 0.950 . S
H995 C1022 0.950 1_556 S
H996 C1025 0.950 . S
H997 C1026 0.950 . S
H998 C1028 0.950 . S
H999 C1029 0.950 . S
C1000 H982 0.951 . S
C1000 C1001 1.366 . S
C1000 C1002 1.388 . S
C1001 C1000 1.366 . S
C1001 C1005 1.385 . S
C1002 H983 0.951 . S
C1002 C1000 1.388 . S
C1002 C1003 1.366 . S
C1003 C1002 1.366 . S
C1003 C1004 1.414 . S
C1003 C1006 1.499 . S
C1004 H984 0.950 . S
C1004 C1003 1.414 . S
C1004 C1005 1.374 . S
C1005 H985 0.950 . S
C1005 C1001 1.385 . S
C1005 C1004 1.374 . S
C1006 C1003 1.499 . S
C1006 C1007 1.373 . S
C1006 C1008 1.389 . S
C1007 H986 0.950 . S
C1007 C1006 1.373 . S
C1007 C1023 1.377 . S
C1008 C1006 1.389 . S
C1008 C1009 1.524 . S
C1008 C1022 1.377 . S
C1009 C1008 1.524 . S
C1009 C1010 1.397 . S
C1009 C1014 1.363 1_554 S
C1010 H987 0.950 . S
C1010 C1009 1.397 . S
C1010 C1011 1.334 . S
C1011 H988 0.950 . S
C1011 C1010 1.334 . S
C1011 C1012 1.287 1_554 S
C1012 C1011 1.287 1_556 S
C1012 C1013 1.524 . S
C1012 H1031 0.913 . S
C1013 H989 0.950 . S
C1013 C1012 1.524 . S
C1013 C1014 1.415 . S
C1014 H990 0.950 . S
C1014 C1009 1.363 1_556 S
C1014 C1013 1.415 . S
C1015 H991 0.951 . S
C1015 C1016 1.366 1_554 S
C1015 C1017 1.388 . S
C1016 C1015 1.366 1_556 S
C1016 C1020 1.385 . S
C1017 H992 0.951 . S
C1017 C1015 1.388 . S
C1017 C1018 1.366 . S
C1018 C1017 1.366 . S
C1018 C1019 1.414 1_554 S
C1018 C1021 1.499 . S
C1019 H993 0.950 . S
C1019 C1018 1.414 1_556 S
C1019 C1020 1.374 . S
C1020 H994 0.950 . S
C1020 C1016 1.385 . S
C1020 C1019 1.374 . S
C1021 C1018 1.499 . S
C1021 C1022 1.373 . S
C1021 C1023 1.389 . S
C1022 H995 0.950 1_554 S
C1022 C1008 1.377 . S
C1022 C1021 1.373 . S
C1023 C1007 1.377 . S
C1023 C1021 1.389 . S
C1023 C1024 1.524 . S
C1024 C1023 1.524 . S
C1024 C1025 1.397 . S
C1024 C1029 1.363 . S
C1025 H996 0.950 . S
C1025 C1024 1.397 . S
C1025 C1026 1.334 . S
C1026 H997 0.950 . S
C1026 C1025 1.334 . S
C1026 C1027 1.287 . S
C1027 C1026 1.287 . S
C1027 C1028 1.524 . S
C1027 H1030 0.999 . S
C1028 H998 0.950 . S
C1028 C1027 1.524 . S
C1028 C1029 1.415 . S
C1029 H999 0.950 . S
C1029 C1024 1.363 . S
C1029 C1028 1.415 . S
H1030 C1027 0.999 . S
H1031 C1012 0.913 . S
H1032 C1050 0.951 . S
H1033 C1052 0.951 . S
H1034 C1054 0.950 . S
H1035 C1055 0.950 . S
H1036 C1057 0.950 . S
H1037 C1060 0.950 . S
H1038 C1061 0.950 . S
H1039 C1063 0.950 . S
H1040 C1064 0.950 . S
H1041 C1065 0.951 . S
H1042 C1067 0.951 . S
H1043 C1069 0.950 . S
H1044 C1070 0.950 . S
H1045 C1072 0.950 . S
H1046 C1075 0.950 . S
H1047 C1076 0.950 . S
H1048 C1078 0.950 . S
H1049 C1079 0.950 . S
C1050 H1032 0.951 . S
C1050 C1051 1.366 . S
C1050 C1052 1.388 . S
C1051 C1050 1.366 . S
C1051 C1055 1.385 1_455 S
C1052 H1033 0.951 . S
C1052 C1050 1.388 . S
C1052 C1053 1.366 . S
C1053 C1052 1.366 . S
C1053 C1054 1.414 1_455 S
C1053 C1056 1.499 . S
C1054 H1034 0.950 . S
C1054 C1053 1.414 1_655 S
C1054 C1055 1.374 . S
C1055 H1035 0.950 . S
C1055 C1051 1.385 1_655 S
C1055 C1054 1.374 . S
C1056 C1053 1.499 . S
C1056 C1057 1.373 1_455 S
C1056 C1058 1.389 . S
C1057 H1036 0.950 . S
C1057 C1056 1.373 1_655 S
C1057 C1073 1.377 . S
C1058 C1056 1.389 . S
C1058 C1059 1.524 . S
C1058 C1072 1.377 . S
C1059 C1058 1.524 . S
C1059 C1060 1.397 . S
C1059 C1064 1.363 . S
C1060 H1037 0.950 . S
C1060 C1059 1.397 . S
C1060 C1061 1.334 . S
C1061 H1038 0.950 . S
C1061 C1060 1.334 . S
C1061 C1062 1.287 . S
C1062 C1061 1.287 . S
C1062 C1063 1.524 . S
C1062 H1081 0.913 . S
C1063 H1039 0.950 . S
C1063 C1062 1.524 . S
C1063 C1064 1.415 . S
C1064 H1040 0.950 . S
C1064 C1059 1.363 . S
C1064 C1063 1.415 . S
C1065 H1041 0.951 . S
C1065 C1066 1.366 1_655 S
C1065 C1067 1.388 . S
C1066 C1065 1.366 1_455 S
C1066 C1070 1.385 . S
C1067 H1042 0.951 . S
C1067 C1065 1.388 . S
C1067 C1068 1.366 1_655 S
C1068 C1067 1.366 1_455 S
C1068 C1069 1.414 . S
C1068 C1071 1.499 . S
C1069 H1043 0.950 . S
C1069 C1068 1.414 . S
C1069 C1070 1.374 . S
C1070 H1044 0.950 . S
C1070 C1066 1.385 . S
C1070 C1069 1.374 . S
C1071 C1068 1.499 . S
C1071 C1072 1.373 . S
C1071 C1073 1.389 1_455 S
C1072 H1045 0.950 . S
C1072 C1058 1.377 . S
C1072 C1071 1.373 . S
C1073 C1057 1.377 . S
C1073 C1071 1.389 1_655 S
C1073 C1074 1.524 . S
C1074 C1073 1.524 . S
C1074 C1075 1.397 . S
C1074 C1079 1.363 . S
C1075 H1046 0.950 . S
C1075 C1074 1.397 . S
C1075 C1076 1.334 . S
C1076 H1047 0.950 . S
C1076 C1075 1.334 . S
C1076 C1077 1.287 . S
C1077 C1076 1.287 . S
C1077 C1078 1.524 . S
C1077 H1080 0.999 . S
C1078 H1048 0.950 . S
C1078 C1077 1.524 . S
C1078 C1079 1.415 . S
C1079 H1049 0.950 . S
C1079 C1074 1.363 . S
C1079 C1078 1.415 . S
H1080 C1077 0.999 . S
H1081 C1062 0.913 . S
H1082 C1100 0.951 . S
H1083 C1102 0.951 . S
H1084 C1104 0.950 . S
H1085 C1105 0.950 . S
H1086 C1107 0.950 . S
H1087 C1110 0.950 1_556 S
H1088 C1111 0.950 . S
H1089 C1113 0.950 1_565 S
H1090 C1114 0.950 . S
H1091 C1115 0.951 . S
H1092 C1117 0.951 . S
H1093 C1119 0.950 . S
H1094 C1120 0.950 . S
H1095 C1122 0.950 . S
H1096 C1125 0.950 . S
H1097 C1126 0.950 . S
H1098 C1128 0.950 . S
H1099 C1129 0.950 . S
C1100 H1082 0.951 . S
C1100 C1101 1.366 1_565 S
C1100 C1102 1.388 . S
C1101 C1100 1.366 1_545 S
C1101 C1105 1.385 . S
C1102 H1083 0.951 . S
C1102 C1100 1.388 . S
C1102 C1103 1.366 1_565 S
C1103 C1102 1.366 1_545 S
C1103 C1104 1.414 . S
C1103 C1106 1.499 . S
C1104 H1084 0.950 . S
C1104 C1103 1.414 . S
C1104 C1105 1.374 . S
C1105 H1085 0.950 . S
C1105 C1101 1.385 . S
C1105 C1104 1.374 . S
C1106 C1103 1.499 . S
C1106 C1107 1.373 . S
C1106 C1108 1.389 . S
C1107 H1086 0.950 . S
C1107 C1106 1.373 . S
C1107 C1123 1.377 . S
C1108 C1106 1.389 . S
C1108 C1109 1.524 . S
C1108 C1122 1.377 . S
C1109 C1108 1.524 . S
C1109 C1110 1.397 1_556 S
C1109 C1114 1.363 1_546 S
C1110 H1087 0.950 1_554 S
C1110 C1109 1.397 1_554 S
C1110 C1111 1.334 . S
C1111 H1088 0.950 . S
C1111 C1110 1.334 . S
C1111 C1112 1.287 . S
C1112 C1111 1.287 . S
C1112 C1113 1.524 . S
C1112 H1131 0.913 . S
C1113 H1089 0.950 1_545 S
C1113 C1112 1.524 . S
C1113 C1114 1.415 1_545 S
C1114 H1090 0.950 . S
C1114 C1109 1.363 1_564 S
C1114 C1113 1.415 1_565 S
C1115 H1091 0.951 . S
C1115 C1116 1.366 . S
C1115 C1117 1.388 . S
C1116 C1115 1.366 . S
C1116 C1120 1.385 1_545 S
C1117 H1092 0.951 . S
C1117 C1115 1.388 . S
C1117 C1118 1.366 . S
C1118 C1117 1.366 . S
C1118 C1119 1.414 1_545 S
C1118 C1121 1.499 . S
C1119 H1093 0.950 . S
C1119 C1118 1.414 1_565 S
C1119 C1120 1.374 . S
C1120 H1094 0.950 . S
C1120 C1116 1.385 1_565 S
C1120 C1119 1.374 . S
C1121 C1118 1.499 . S
C1121 C1122 1.373 . S
C1121 C1123 1.389 . S
C1122 H1095 0.950 . S
C1122 C1108 1.377 . S
C1122 C1121 1.373 . S
C1123 C1107 1.377 . S
C1123 C1121 1.389 . S
C1123 C1124 1.524 . S
C1124 C1123 1.524 . S
C1124 C1125 1.397 1_545 S
C1124 C1129 1.363 . S
C1125 H1096 0.950 . S
C1125 C1124 1.397 1_565 S
C1125 C1126 1.334 . S
C1126 H1097 0.950 . S
C1126 C1125 1.334 . S
C1126 C1127 1.287 . S
C1127 C1126 1.287 . S
C1127 C1128 1.524 1_565 S
C1127 H1130 0.999 . S
C1128 H1098 0.950 . S
C1128 C1127 1.524 1_545 S
C1128 C1129 1.415 . S
C1129 H1099 0.950 . S
C1129 C1124 1.363 . S
C1129 C1128 1.415 . S
H1130 C1127 0.999 . S
H1131 C1112 0.913 . S
H1132 C1150 0.951 . S
H1133 C1152 0.951 . S
H1134 C1154 0.950 . S
H1135 C1155 0.950 . S
H1136 C1157 0.950 . S
H1137 C1160 0.950 . S
H1138 C1161 0.950 1_554 S
H1139 C1163 0.950 . S
H1140 C1164 0.950 . S
H1141 C1165 0.951 . S
H1142 C1167 0.951 . S
H1143 C1169 0.950 . S
H1144 C1170 0.950 . S
H1145 C1172 0.950 . S
H1146 C1175 0.950 . S
H1147 C1176 0.950 . S
H1148 C1178 0.950 . S
H1149 C1179 0.950 . S
C1150 H1132 0.951 . S
C1150 C1151 1.366 . S
C1150 C1152 1.388 . S
C1151 C1150 1.366 . S
C1151 C1155 1.385 . S
C1152 H1133 0.951 . S
C1152 C1150 1.388 . S
C1152 C1153 1.366 . S
C1153 C1152 1.366 . S
C1153 C1154 1.414 . S
C1153 C1156 1.499 . S
C1154 H1134 0.950 . S
C1154 C1153 1.414 . S
C1154 C1155 1.374 . S
C1155 H1135 0.950 . S
C1155 C1151 1.385 . S
C1155 C1154 1.374 . S
C1156 C1153 1.499 . S
C1156 C1157 1.373 . S
C1156 C1158 1.389 . S
C1157 H1136 0.950 . S
C1157 C1156 1.373 . S
C1157 C1173 1.377 . S
C1158 C1156 1.389 . S
C1158 C1159 1.524 . S
C1158 C1172 1.377 . S
C1159 C1158 1.524 . S
C1159 C1160 1.397 . S
C1159 C1164 1.363 . S
C1160 H1137 0.950 . S
C1160 C1159 1.397 . S
C1160 C1161 1.334 . S
C1161 H1138 0.950 1_556 S
C1161 C1160 1.334 . S
C1161 C1162 1.287 . S
C1162 C1161 1.287 . S
C1162 C1163 1.524 . S
C1162 H1181 0.913 . S
C1163 H1139 0.950 . S
C1163 C1162 1.524 . S
C1163 C1164 1.415 . S
C1164 H1140 0.950 . S
C1164 C1159 1.363 . S
C1164 C1163 1.415 . S
C1165 H1141 0.951 . S
C1165 C1166 1.366 . S
C1165 C1167 1.388 . S
C1166 C1165 1.366 . S
C1166 C1170 1.385 . S
C1167 H1142 0.951 . S
C1167 C1165 1.388 . S
C1167 C1168 1.366 . S
C1168 C1167 1.366 . S
C1168 C1169 1.414 . S
C1168 C1171 1.499 . S
C1169 H1143 0.950 . S
C1169 C1168 1.414 . S
C1169 C1170 1.374 . S
C1170 H1144 0.950 . S
C1170 C1166 1.385 . S
C1170 C1169 1.374 . S
C1171 C1168 1.499 . S
C1171 C1172 1.373 . S
C1171 C1173 1.389 . S
C1172 H1145 0.950 . S
C1172 C1158 1.377 . S
C1172 C1171 1.373 . S
C1173 C1157 1.377 . S
C1173 C1171 1.389 . S
C1173 C1174 1.524 . S
C1174 C1173 1.524 . S
C1174 C1175 1.397 . S
C1174 C1179 1.363 . S
C1175 H1146 0.950 . S
C1175 C1174 1.397 . S
C1175 C1176 1.334 . S
C1176 H1147 0.950 . S
C1176 C1175 1.334 . S
C1176 C1177 1.287 . S
C1177 C1176 1.287 . S
C1177 C1178 1.524 . S
C1177 H1180 0.999 . S
C1178 H1148 0.950 . S
C1178 C1177 1.524 . S
C1178 C1179 1.415 . S
C1179 H1149 0.950 . S
C1179 C1174 1.363 . S
C1179 C1178 1.415 . S
H1180 C1177 0.999 . S
H1181 C1162 0.913 . S
H1182 C1200 0.951 . S
H1183 C1202 0.951 . S
H1184 C1204 0.950 . S
H1185 C1205 0.950 1_554 S
H1186 C1207 0.950 . S
H1187 C1210 0.950 . S
H1188 C1211 0.950 . S
H1189 C1213 0.950 . S
H1190 C1214 0.950 . S
H1191 C1215 0.951 . S
H1192 C1217 0.951 . S
H1193 C1219 0.950 . S
H1194 C1220 0.950 . S
H1195 C1222 0.950 . S
H1196 C1225 0.950 . S
H1197 C1226 0.950 . S
H1198 C1228 0.950 . S
H1199 C1229 0.950 1_554 S
C1200 H1182 0.951 . S
C1200 C1201 1.366 . S
C1200 C1202 1.388 . S
C1201 C1200 1.366 . S
C1201 C1205 1.385 . S
C1202 H1183 0.951 . S
C1202 C1200 1.388 . S
C1202 C1203 1.366 . S
C1203 C1202 1.366 . S
C1203 C1204 1.414 . S
C1203 C1206 1.499 . S
C1204 H1184 0.950 . S
C1204 C1203 1.414 . S
C1204 C1205 1.374 . S
C1205 H1185 0.950 1_556 S
C1205 C1201 1.385 . S
C1205 C1204 1.374 . S
C1206 C1203 1.499 . S
C1206 C1207 1.373 . S
C1206 C1208 1.389 . S
C1207 H1186 0.950 . S
C1207 C1206 1.373 . S
C1207 C1223 1.377 . S
C1208 C1206 1.389 . S
C1208 C1209 1.524 . S
C1208 C1222 1.377 . S
C1209 C1208 1.524 . S
C1209 C1210 1.397 . S
C1209 C1214 1.363 . S
C1210 H1187 0.950 . S
C1210 C1209 1.397 . S
C1210 C1211 1.334 . S
C1211 H1188 0.950 . S
C1211 C1210 1.334 . S
C1211 C1212 1.287 . S
C1212 C1211 1.287 . S
C1212 C1213 1.524 . S
C1212 H1231 0.913 . S
C1213 H1189 0.950 . S
C1213 C1212 1.524 . S
C1213 C1214 1.415 . S
C1214 H1190 0.950 . S
C1214 C1209 1.363 . S
C1214 C1213 1.415 . S
C1215 H1191 0.951 . S
C1215 C1216 1.366 . S
C1215 C1217 1.388 . S
C1216 C1215 1.366 . S
C1216 C1220 1.385 . S
C1217 H1192 0.951 . S
C1217 C1215 1.388 . S
C1217 C1218 1.366 . S
C1218 C1217 1.366 . S
C1218 C1219 1.414 . S
C1218 C1221 1.499 . S
C1219 H1193 0.950 . S
C1219 C1218 1.414 . S
C1219 C1220 1.374 . S
C1220 H1194 0.950 . S
C1220 C1216 1.385 . S
C1220 C1219 1.374 . S
C1221 C1218 1.499 . S
C1221 C1222 1.373 . S
C1221 C1223 1.389 . S
C1222 H1195 0.950 . S
C1222 C1208 1.377 . S
C1222 C1221 1.373 . S
C1223 C1207 1.377 . S
C1223 C1221 1.389 . S
C1223 C1224 1.524 . S
C1224 C1223 1.524 . S
C1224 C1225 1.397 . S
C1224 C1229 1.363 . S
C1225 H1196 0.950 . S
C1225 C1224 1.397 . S
C1225 C1226 1.334 . S
C1226 H1197 0.950 . S
C1226 C1225 1.334 . S
C1226 C1227 1.287 . S
C1227 C1226 1.287 . S
C1227 C1228 1.524 1_556 S
C1227 H1230 0.999 . S
C1228 H1198 0.950 . S
C1228 C1227 1.524 1_554 S
C1228 C1229 1.415 1_554 S
C1229 H1199 0.950 1_556 S
C1229 C1224 1.363 . S
C1229 C1228 1.415 1_556 S
H1230 C1227 0.999 . S
H1231 C1212 0.913 . S
H1232 C1250 0.952 . S
H1233 C1252 0.951 . S
H1234 C1254 0.950 . S
H1235 C1255 0.950 . S
H1236 C1257 0.950 . S
H1237 C1260 0.950 . S
H1238 C1261 0.950 . S
H1239 C1263 0.950 . S
H1240 C1264 0.950 . S
H1241 C1265 0.951 . S
H1242 C1267 0.951 . S
H1243 C1269 0.950 . S
H1244 C1270 0.950 . S
H1245 C1272 0.950 . S
H1246 C1275 0.950 . S
H1247 C1276 0.950 . S
H1248 C1278 0.950 . S
H1249 C1279 0.950 . S
C1250 H1232 0.952 . S
C1250 C1251 1.366 . S
C1250 C1252 1.388 . S
C1251 C1250 1.366 . S
C1251 C1255 1.385 . S
C1252 H1233 0.951 . S
C1252 C1250 1.388 . S
C1252 C1253 1.366 . S
C1253 C1252 1.366 . S
C1253 C1254 1.414 . S
C1253 C1256 1.499 . S
C1254 H1234 0.950 . S
C1254 C1253 1.414 . S
C1254 C1255 1.374 . S
C1255 H1235 0.950 . S
C1255 C1251 1.385 . S
C1255 C1254 1.374 . S
C1256 C1253 1.499 . S
C1256 C1257 1.373 . S
C1256 C1258 1.389 1_655 S
C1257 H1236 0.950 . S
C1257 C1256 1.373 . S
C1257 C1273 1.377 . S
C1258 C1256 1.389 1_455 S
C1258 C1259 1.524 . S
C1258 C1272 1.377 . S
C1259 C1258 1.524 . S
C1259 C1260 1.397 . S
C1259 C1264 1.363 . S
C1260 H1237 0.950 . S
C1260 C1259 1.397 . S
C1260 C1261 1.334 . S
C1261 H1238 0.950 . S
C1261 C1260 1.334 . S
C1261 C1262 1.287 . S
C1262 C1261 1.287 . S
C1262 C1263 1.524 . S
C1262 H1281 0.913 . S
C1263 H1239 0.950 . S
C1263 C1262 1.524 . S
C1263 C1264 1.415 . S
C1264 H1240 0.950 . S
C1264 C1259 1.363 . S
C1264 C1263 1.415 . S
C1265 H1241 0.951 . S
C1265 C1266 1.366 . S
C1265 C1267 1.388 . S
C1266 C1265 1.366 . S
C1266 C1270 1.385 . S
C1267 H1242 0.951 . S
C1267 C1265 1.388 . S
C1267 C1268 1.366 . S
C1268 C1267 1.366 . S
C1268 C1269 1.414 . S
C1268 C1271 1.499 . S
C1269 H1243 0.950 . S
C1269 C1268 1.414 . S
C1269 C1270 1.374 . S
C1270 H1244 0.950 . S
C1270 C1266 1.385 . S
C1270 C1269 1.374 . S
C1271 C1268 1.499 . S
C1271 C1272 1.373 1_655 S
C1271 C1273 1.389 . S
C1272 H1245 0.950 . S
C1272 C1258 1.377 . S
C1272 C1271 1.373 1_455 S
C1273 C1257 1.377 . S
C1273 C1271 1.389 . S
C1273 C1274 1.524 . S
C1274 C1273 1.524 . S
C1274 C1275 1.397 . S
C1274 C1279 1.363 . S
C1275 H1246 0.950 . S
C1275 C1274 1.397 . S
C1275 C1276 1.334 . S
C1276 H1247 0.950 . S
C1276 C1275 1.334 . S
C1276 C1277 1.287 . S
C1277 C1276 1.287 . S
C1277 C1278 1.524 . S
C1277 H1280 0.999 . S
C1278 H1248 0.950 . S
C1278 C1277 1.524 . S
C1278 C1279 1.415 . S
C1279 H1249 0.950 . S
C1279 C1274 1.363 . S
C1279 C1278 1.415 . S
H1280 C1277 0.999 . S
H1281 C1262 0.913 . S
H1282 C1300 0.951 . S
H1283 C1302 0.951 . S
H1284 C1304 0.950 1_545 S
H1285 C1305 0.950 . S
H1286 C1307 0.950 . S
H1287 C1310 0.950 . S
H1288 C1311 0.950 . S
H1289 C1313 0.950 . S
H1290 C1314 0.950 . S
H1291 C1315 0.951 . S
H1292 C1317 0.951 . S
H1293 C1319 0.950 . S
H1294 C1320 0.950 . S
H1295 C1322 0.950 . S
H1296 C1325 0.950 . S
H1297 C1326 0.950 . S
H1298 C1328 0.950 . S
H1299 C1329 0.950 . S
C1300 H1282 0.951 . S
C1300 C1301 1.376 . S
C1300 C1302 1.388 . S
C1301 C1300 1.376 . S
C1301 C1305 1.380 1_565 S
C1302 H1283 0.951 . S
C1302 C1300 1.388 . S
C1302 C1303 1.366 . S
C1303 C1302 1.366 . S
C1303 C1304 1.415 . S
C1303 C1306 1.499 . S
C1304 H1284 0.950 1_565 S
C1304 C1303 1.415 . S
C1304 C1305 1.373 1_565 S
C1305 H1285 0.950 . S
C1305 C1301 1.380 1_545 S
C1305 C1304 1.373 1_545 S
C1306 C1303 1.499 . S
C1306 C1307 1.373 1_565 S
C1306 C1308 1.389 . S
C1307 H1286 0.950 . S
C1307 C1306 1.373 1_545 S
C1307 C1323 1.377 . S
C1308 C1306 1.389 . S
C1308 C1309 1.524 . S
C1308 C1322 1.377 . S
C1309 C1308 1.524 . S
C1309 C1310 1.397 . S
C1309 C1314 1.363 . S
C1310 H1287 0.950 . S
C1310 C1309 1.397 . S
C1310 C1311 1.334 . S
C1311 H1288 0.950 . S
C1311 C1310 1.334 . S
C1311 C1312 1.287 . S
C1312 C1311 1.287 . S
C1312 C1313 1.524 . S
C1312 H1331 0.913 . S
C1313 H1289 0.950 . S
C1313 C1312 1.524 . S
C1313 C1314 1.415 . S
C1314 H1290 0.950 . S
C1314 C1309 1.363 . S
C1314 C1313 1.415 . S
C1315 H1291 0.951 . S
C1315 C1316 1.366 . S
C1315 C1317 1.388 . S
C1316 C1315 1.366 . S
C1316 C1320 1.385 . S
C1317 H1292 0.951 . S
C1317 C1315 1.388 . S
C1317 C1318 1.366 . S
C1318 C1317 1.366 . S
C1318 C1319 1.414 . S
C1318 C1321 1.499 . S
C1319 H1293 0.950 . S
C1319 C1318 1.414 . S
C1319 C1320 1.374 . S
C1320 H1294 0.950 . S
C1320 C1316 1.385 . S
C1320 C1319 1.374 . S
C1321 C1318 1.499 . S
C1321 C1322 1.373 . S
C1321 C1323 1.389 1_565 S
C1322 H1295 0.950 . S
C1322 C1308 1.377 . S
C1322 C1321 1.373 . S
C1323 C1307 1.377 . S
C1323 C1321 1.389 1_545 S
C1323 C1324 1.524 . S
C1324 C1323 1.524 . S
C1324 C1325 1.397 . S
C1324 C1329 1.363 . S
C1325 H1296 0.950 . S
C1325 C1324 1.397 . S
C1325 C1326 1.334 . S
C1326 H1297 0.950 . S
C1326 C1325 1.334 . S
C1326 C1327 1.287 . S
C1327 C1326 1.287 . S
C1327 C1328 1.524 . S
C1327 H1330 0.999 . S
C1328 H1298 0.950 . S
C1328 C1327 1.524 . S
C1328 C1329 1.415 . S
C1329 H1299 0.950 . S
C1329 C1324 1.363 . S
C1329 C1328 1.415 . S
H1330 C1327 0.999 . S
H1331 C1312 0.913 . S
H1332 C1350 0.951 . S
H1333 C1352 0.951 . S
H1334 C1354 0.950 . S
H1335 C1355 0.950 . S
H1336 C1357 0.950 . S
H1337 C1360 0.950 . S
H1338 C1361 0.950 . S
H1339 C1363 0.950 . S
H1340 C1364 0.950 . S
H1341 C1365 0.951 . S
H1342 C1367 0.951 . S
H1343 C1369 0.950 . S
H1344 C1370 0.950 . S
H1345 C1372 0.950 . S
H1346 C1375 0.950 . S
H1347 C1376 0.950 . S
H1348 C1378 0.950 . S
H1349 C1379 0.950 . S
C1350 H1332 0.951 . S
C1350 C1351 1.366 . S
C1350 C1352 1.388 . S
C1351 C1350 1.366 . S
C1351 C1355 1.385 . S
C1352 H1333 0.951 . S
C1352 C1350 1.388 . S
C1352 C1353 1.366 . S
C1353 C1352 1.366 . S
C1353 C1354 1.414 . S
C1353 C1356 1.499 . S
C1354 H1334 0.950 . S
C1354 C1353 1.414 . S
C1354 C1355 1.374 . S
C1355 H1335 0.950 . S
C1355 C1351 1.385 . S
C1355 C1354 1.374 . S
C1356 C1353 1.499 . S
C1356 C1357 1.373 . S
C1356 C1358 1.389 . S
C1357 H1336 0.950 . S
C1357 C1356 1.373 . S
C1357 C1373 1.377 . S
C1358 C1356 1.389 . S
C1358 C1359 1.524 . S
C1358 C1372 1.377 . S
C1359 C1358 1.524 . S
C1359 C1360 1.397 . S
C1359 C1364 1.363 . S
C1360 H1337 0.950 . S
C1360 C1359 1.397 . S
C1360 C1361 1.334 . S
C1361 H1338 0.950 . S
C1361 C1360 1.334 . S
C1361 C1362 1.287 . S
C1362 C1361 1.287 . S
C1362 C1363 1.524 . S
C1362 H1381 0.913 . S
C1363 H1339 0.950 . S
C1363 C1362 1.524 . S
C1363 C1364 1.415 . S
C1364 H1340 0.950 . S
C1364 C1359 1.363 . S
C1364 C1363 1.415 . S
C1365 H1341 0.951 . S
C1365 C1366 1.366 . S
C1365 C1367 1.388 . S
C1366 C1365 1.366 . S
C1366 C1370 1.385 . S
C1367 H1342 0.951 . S
C1367 C1365 1.388 . S
C1367 C1368 1.366 . S
C1368 C1367 1.366 . S
C1368 C1369 1.414 . S
C1368 C1371 1.499 . S
C1369 H1343 0.950 . S
C1369 C1368 1.414 . S
C1369 C1370 1.374 . S
C1370 H1344 0.950 . S
C1370 C1366 1.385 . S
C1370 C1369 1.374 . S
C1371 C1368 1.499 . S
C1371 C1372 1.373 . S
C1371 C1373 1.389 . S
C1372 H1345 0.950 . S
C1372 C1358 1.377 . S
C1372 C1371 1.373 . S
C1373 C1357 1.377 . S
C1373 C1371 1.389 . S
C1373 C1374 1.524 . S
C1374 C1373 1.524 . S
C1374 C1375 1.397 . S
C1374 C1379 1.363 . S
C1375 H1346 0.950 . S
C1375 C1374 1.397 . S
C1375 C1376 1.334 . S
C1376 H1347 0.950 . S
C1376 C1375 1.334 . S
C1376 C1377 1.287 . S
C1377 C1376 1.287 . S
C1377 C1378 1.524 . S
C1377 H1380 0.999 . S
C1378 H1348 0.950 . S
C1378 C1377 1.524 . S
C1378 C1379 1.415 . S
C1379 H1349 0.950 . S
C1379 C1374 1.363 . S
C1379 C1378 1.415 . S
H1380 C1377 0.999 . S
H1381 C1362 0.913 . S
H1382 C1400 0.951 . S
H1383 C1402 0.951 . S
H1384 C1404 0.950 . S
H1385 C1405 0.950 . S
H1386 C1407 0.950 . S
H1387 C1410 0.950 . S
H1388 C1411 0.950 . S
H1389 C1413 0.950 . S
H1390 C1414 0.950 . S
H1391 C1415 0.951 . S
H1392 C1417 0.951 . S
H1393 C1419 0.950 . S
H1394 C1420 0.950 . S
H1395 C1422 0.950 . S
H1396 C1425 0.950 . S
H1397 C1426 0.950 . S
H1398 C1428 0.950 . S
H1399 C1429 0.950 . S
C1400 H1382 0.951 . S
C1400 C1401 1.366 . S
C1400 C1402 1.388 . S
C1401 C1400 1.366 . S
C1401 C1405 1.385 . S
C1402 H1383 0.951 . S
C1402 C1400 1.388 . S
C1402 C1403 1.366 . S
C1403 C1402 1.366 . S
C1403 C1404 1.414 . S
C1403 C1406 1.499 . S
C1404 H1384 0.950 . S
C1404 C1403 1.414 . S
C1404 C1405 1.374 . S
C1405 H1385 0.950 . S
C1405 C1401 1.385 . S
C1405 C1404 1.374 . S
C1406 C1403 1.499 . S
C1406 C1407 1.373 . S
C1406 C1408 1.389 . S
C1407 H1386 0.950 . S
C1407 C1406 1.373 . S
C1407 C1423 1.377 . S
C1408 C1406 1.389 . S
C1408 C1409 1.524 . S
C1408 C1422 1.377 . S
C1409 C1408 1.524 . S
C1409 C1410 1.397 . S
C1409 C1414 1.363 . S
C1410 H1387 0.950 . S
C1410 C1409 1.397 . S
C1410 C1411 1.334 . S
C1411 H1388 0.950 . S
C1411 C1410 1.334 . S
C1411 C1412 1.287 . S
C1412 C1411 1.287 . S
C1412 C1413 1.524 . S
C1412 H1431 0.913 . S
C1413 H1389 0.950 . S
C1413 C1412 1.524 . S
C1413 C1414 1.415 . S
C1414 H1390 0.950 . S
C1414 C1409 1.363 . S
C1414 C1413 1.415 . S
C1415 H1391 0.951 . S
C1415 C1416 1.366 . S
C1415 C1417 1.388 . S
C1416 C1415 1.366 . S
C1416 C1420 1.385 . S
C1417 H1392 0.951 . S
C1417 C1415 1.388 . S
C1417 C1418 1.366 . S
C1418 C1417 1.366 . S
C1418 C1419 1.414 . S
C1418 C1421 1.499 . S
C1419 H1393 0.950 . S
C1419 C1418 1.414 . S
C1419 C1420 1.374 . S
C1420 H1394 0.950 . S
C1420 C1416 1.385 . S
C1420 C1419 1.374 . S
C1421 C1418 1.499 . S
C1421 C1422 1.373 . S
C1421 C1423 1.389 . S
C1422 H1395 0.950 . S
C1422 C1408 1.377 . S
C1422 C1421 1.373 . S
C1423 C1407 1.377 . S
C1423 C1421 1.389 . S
C1423 C1424 1.524 . S
C1424 C1423 1.524 . S
C1424 C1425 1.397 . S
C1424 C1429 1.363 . S
C1425 H1396 0.950 . S
C1425 C1424 1.397 . S
C1425 C1426 1.334 . S
C1426 H1397 0.950 . S
C1426 C1425 1.334 . S
C1426 C1427 1.287 . S
C1427 C1426 1.287 . S
C1427 C1428 1.524 . S
C1427 H1430 0.999 . S
C1428 H1398 0.950 . S
C1428 C1427 1.524 . S
C1428 C1429 1.415 . S
C1429 H1399 0.950 . S
C1429 C1424 1.363 . S
C1429 C1428 1.415 . S
H1430 C1427 0.999 . S
H1431 C1412 0.913 . S
C251 C61 1.639 1_545 S
C266 C81 1.719 1_545 S
C316 C121 1.729 . S
C301 C70 1.650 . S
C366 C161 1.733 . S
C351 C43 1.650 . S
C416 C201 1.727 1_455 S
C401 C52 1.646 1_455 S
C466 C90 1.723 1_565 S
C451 C25 1.645 1_545 S
C501 C34 1.656 . S
C516 C130 1.733 . S
C551 C7 1.650 . S
C566 C170 1.733 . S
C601 C16 1.647 . S
C616 C210 1.726 1_655 S
C666 C87 0.314 . S
C651 C50 0.260 1_455 S
C716 C127 0.311 . S
C701 C59 0.263 1_545 S
C766 C167 0.314 . S
C751 C67 0.252 . S
C801 C41 0.264 . S
C816 C207 0.311 . S
C851 C14 0.254 . S
C866 C78 0.305 . S
C916 C118 0.315 . S
C901 C23 0.255 . S
C966 C158 0.314 . S
C951 C31 0.262 . S
C1001 C5 0.245 . S
C1016 C198 0.318 . S
C1051 C49 1.803 1_455 S
C1066 C91 1.978 . S
C1101 C58 1.782 1_545 S
C1116 C131 1.960 . S
C1166 C171 1.950 . S
C1151 C68 1.770 . S
C1216 C211 1.969 . S
C1201 C40 1.785 . S
C1251 C13 1.803 . S
C1266 C82 1.990 . S
C1316 C122 1.960 . S
C1301 C22 1.780 . S
C1366 C162 1.950 . S
C1351 C32 1.773 . S
C1401 C4 1.790 . S
C1416 C202 1.975 . S
