# Generated by pormake.
# Topology pyr, (3,6)-cn, num edge types: 1
# Building blocks:
#     Node 0, Type 0, BuildingBlock: BETDAH_clean_linker_0, # of connection points: 3
#     Node 1, Type 0, BuildingBlock: BETDAH_clean_linker_0, # of connection points: 3
#     Node 2, Type 0, BuildingBlock: BETDAH_clean_linker_0, # of connection points: 3
#     Node 3, Type 0, BuildingBlock: BETDAH_clean_linker_0, # of connection points: 3
#     Node 4, Type 0, BuildingBlock: BETDAH_clean_linker_0, # of connection points: 3
#     Node 5, Type 0, BuildingBlock: BETDAH_clean_linker_0, # of connection points: 3
#     Node 6, Type 0, BuildingBlock: BETDAH_clean_linker_0, # of connection points: 3
#     Node 7, Type 0, BuildingBlock: BETDAH_clean_linker_0, # of connection points: 3
#     Node 8, Type 1, BuildingBlock: GEDQOX_clean_sbu_0, # of connection points: 6
#     Node 9, Type 1, BuildingBlock: GEDQOX_clean_sbu_0, # of connection points: 6
#     Node 10, Type 1, BuildingBlock: GEDQOX_clean_sbu_0, # of connection points: 6
#     Node 11, Type 1, BuildingBlock: GEDQOX_clean_sbu_0, # of connection points: 6
#     Edge 12, Type (0, 1), BuildingBlock: ZUJKAS_clean_linker_0, # of connection points: 2
#     Edge 13, Type (0, 1), BuildingBlock: ZUJKAS_clean_linker_0, # of connection points: 2
#     Edge 14, Type (0, 1), BuildingBlock: ZUJKAS_clean_linker_0, # of connection points: 2
#     Edge 15, Type (0, 1), BuildingBlock: ZUJKAS_clean_linker_0, # of connection points: 2
#     Edge 16, Type (0, 1), BuildingBlock: ZUJKAS_clean_linker_0, # of connection points: 2
#     Edge 17, Type (0, 1), BuildingBlock: ZUJKAS_clean_linker_0, # of connection points: 2
#     Edge 18, Type (0, 1), BuildingBlock: ZUJKAS_clean_linker_0, # of connection points: 2
#     Edge 19, Type (0, 1), BuildingBlock: ZUJKAS_clean_linker_0, # of connection points: 2
#     Edge 20, Type (0, 1), BuildingBlock: ZUJKAS_clean_linker_0, # of connection points: 2
#     Edge 21, Type (0, 1), BuildingBlock: ZUJKAS_clean_linker_0, # of connection points: 2
#     Edge 22, Type (0, 1), BuildingBlock: ZUJKAS_clean_linker_0, # of connection points: 2
#     Edge 23, Type (0, 1), BuildingBlock: ZUJKAS_clean_linker_0, # of connection points: 2
#     Edge 24, Type (0, 1), BuildingBlock: ZUJKAS_clean_linker_0, # of connection points: 2
#     Edge 25, Type (0, 1), BuildingBlock: ZUJKAS_clean_linker_0, # of connection points: 2
#     Edge 26, Type (0, 1), BuildingBlock: ZUJKAS_clean_linker_0, # of connection points: 2
#     Edge 27, Type (0, 1), BuildingBlock: ZUJKAS_clean_linker_0, # of connection points: 2
#     Edge 28, Type (0, 1), BuildingBlock: ZUJKAS_clean_linker_0, # of connection points: 2
#     Edge 29, Type (0, 1), BuildingBlock: ZUJKAS_clean_linker_0, # of connection points: 2
#     Edge 30, Type (0, 1), BuildingBlock: ZUJKAS_clean_linker_0, # of connection points: 2
#     Edge 31, Type (0, 1), BuildingBlock: ZUJKAS_clean_linker_0, # of connection points: 2
#     Edge 32, Type (0, 1), BuildingBlock: ZUJKAS_clean_linker_0, # of connection points: 2
#     Edge 33, Type (0, 1), BuildingBlock: ZUJKAS_clean_linker_0, # of connection points: 2
#     Edge 34, Type (0, 1), BuildingBlock: ZUJKAS_clean_linker_0, # of connection points: 2
#     Edge 35, Type (0, 1), BuildingBlock: ZUJKAS_clean_linker_0, # of connection points: 2
# Relax obj value: 0.156
# Max RMSD: 0.204
# Mean RMSD: 0.148
data_MOF--net-pyr--node1-GEDQOX_clean_sbu_0--node2-BETDAH_clean_linker_0--edge1-ZUJKAS_clean_linker_0
_symmetry_space_group_name_H-M    P1
_symmetry_Int_Tables_number       1
_symmetry_cell_setting            triclinic
loop_
_symmetry_equiv_pos_as_xyz
'x, y, z'
_cell_length_a     49.635512
_cell_length_b     49.94759
_cell_length_c     46.821402
_cell_angle_alpha  88.671729
_cell_angle_beta   92.335465
_cell_angle_gamma 94.215053
loop_
_atom_site_label
_atom_site_type_symbol
_atom_site_fract_x
_atom_site_fract_y
_atom_site_fract_z
_atom_type_partial_charge
H0 H 0.24355 0.16532 0.20154 0.0
H1 H 0.2512 0.22211 0.13162 0.0
H2 H 0.18911 0.22976 0.19161 0.0
C3 C 0.23704 0.1831 0.19058 0.0
C4 C 0.2144 0.19605 0.20088 0.0
C5 C 0.2509 0.19197 0.16553 0.0
C6 C 0.24109 0.21461 0.15058 0.0
C7 C 0.21887 0.2285 0.15941 0.0
C8 C 0.20576 0.21905 0.18466 0.0
N9 N 0.21132 0.25126 0.14137 0.0
C10 C 0.19224 0.27137 0.14151 0.0
H11 H 0.4101 0.79036 0.79913 0.0
H12 H 0.33537 0.81388 0.83123 0.0
H13 H 0.3335 0.75971 0.76158 0.0
C14 C 0.3882 0.78961 0.79808 0.0
C15 C 0.37356 0.77291 0.77812 0.0
C16 C 0.37466 0.8045 0.81748 0.0
C17 C 0.34626 0.80243 0.81671 0.0
C18 C 0.33154 0.78671 0.79641 0.0
C19 C 0.34513 0.77205 0.77709 0.0
N20 N 0.30298 0.78554 0.79608 0.0
C21 C 0.28782 0.79177 0.7716 0.0
H22 H 0.71986 0.44093 0.95047 0.0
H23 H 0.71441 0.52563 0.93484 0.0
H24 H 0.64205 0.47331 0.93712 0.0
C25 C 0.70768 0.45789 0.94672 0.0
C26 C 0.67931 0.4539 0.94512 0.0
C27 C 0.72046 0.4837 0.94308 0.0
C28 C 0.70474 0.50568 0.93819 0.0
C29 C 0.67661 0.50178 0.93535 0.0
C30 C 0.66392 0.47598 0.93888 0.0
N31 N 0.66138 0.5237 0.92713 0.0
C32 C 0.64566 0.52267 0.90196 0.0
H33 H 0.9193 0.74701 0.4523 0.0
H34 H 0.99293 0.76042 0.40695 0.0
H35 H 0.94931 0.68318 0.405 0.0
C36 C 0.93474 0.73943 0.43959 0.0
C37 C 0.93196 0.71267 0.43052 0.0
C38 C 0.95649 0.7569 0.43099 0.0
C39 C 0.976 0.74723 0.41383 0.0
C40 C 0.97327 0.72083 0.40444 0.0
C41 C 0.95127 0.70358 0.41262 0.0
N42 N 0.99155 0.71246 0.38479 0.0
C43 C 0.98312 0.70997 0.35637 0.0
H44 H 0.92363 0.86717 0.82629 0.0
H45 H 0.85885 0.86515 0.88656 0.0
H46 H 0.86632 0.92739 0.82181 0.0
C47 C 0.90563 0.87496 0.83406 0.0
C48 C 0.89675 0.89876 0.82044 0.0
C49 C 0.8925 0.86177 0.85797 0.0
C50 C 0.86952 0.87421 0.8687 0.0
C51 C 0.86014 0.89831 0.85578 0.0
C52 C 0.87399 0.90963 0.83189 0.0
N53 N 0.83729 0.91281 0.86439 0.0
C54 C 0.8172 0.91121 0.88551 0.0
H55 H 0.70855 0.22666 0.31026 0.0
H56 H 0.70121 0.296 0.36171 0.0
H57 H 0.65019 0.28349 0.28628 0.0
C58 C 0.69925 0.24517 0.31398 0.0
C59 C 0.67824 0.25301 0.2953 0.0
C60 C 0.70777 0.26053 0.33801 0.0
C61 C 0.6947 0.28391 0.34345 0.0
C62 C 0.67388 0.29212 0.32468 0.0
C63 C 0.66602 0.27675 0.30075 0.0
N64 N 0.66057 0.3159 0.3286 0.0
C65 C 0.66209 0.33101 0.35326 0.0
H66 H 0.30646 0.69783 0.18885 0.0
H67 H 0.28087 0.62563 0.23499 0.0
H68 H 0.35801 0.66668 0.25589 0.0
C69 C 0.31042 0.6826 0.20506 0.0
C70 C 0.33479 0.68463 0.2215 0.0
C71 C 0.29077 0.66149 0.20974 0.0
C72 C 0.29562 0.64233 0.23136 0.0
C73 C 0.31957 0.64414 0.2482 0.0
C74 C 0.33921 0.66538 0.24329 0.0
N75 N 0.32322 0.62398 0.26958 0.0
C76 C 0.34492 0.62416 0.28925 0.0
H77 H 0.22019 0.28258 0.7254 0.0
H78 H 0.25085 0.30497 0.80932 0.0
H79 H 0.20874 0.22754 0.79664 0.0
C80 C 0.2226 0.27806 0.74808 0.0
C81 C 0.21238 0.25306 0.75885 0.0
C82 C 0.23677 0.29682 0.76605 0.0
C83 C 0.24023 0.29046 0.79528 0.0
C84 C 0.23009 0.26544 0.80639 0.0
C85 C 0.21669 0.24669 0.78799 0.0
N86 N 0.23266 0.25894 0.83603 0.0
C87 C 0.23597 0.27871 0.85652 0.0
Nd88 Nd 0.06941 0.0341 0.51327 0.0
Nd89 Nd 0.03359 0.08022 0.51362 0.0
C90 C 0.09704 0.9917 0.50612 0.0
C91 C 0.10914 0.97178 0.52521 0.0
C92 C 0.12705 0.95444 0.51453 0.0
C93 C 0.13988 0.93649 0.53295 0.0
C94 C 0.13496 0.93563 0.56236 0.0
C95 C 0.11657 0.95281 0.57283 0.0
C96 C 0.1038 0.97076 0.55441 0.0
C97 C 0.08381 0.07103 0.55478 0.0
C98 C 1.02418 0.03204 0.56337 0.0
C99 C 1.00963 0.12598 0.51223 0.0
C100 C 0.9825 0.13605 0.51064 0.0
C101 C 0.98012 0.16374 0.50758 0.0
C102 C 0.95505 0.1737 0.50056 0.0
C103 C 0.9318 0.1561 0.49642 0.0
C104 C 0.9341 0.12835 0.50095 0.0
C105 C 0.95927 0.1184 0.5079 0.0
C106 C 1.00965 0.03444 0.48958 0.0
C107 C 0.07957 0.0814 0.46253 0.0
O108 O 0.07056 0.99078 0.50474 0.0
O109 O 0.10829 1.01619 0.5078 0.0
O110 O 0.08475 0.04536 0.55855 0.0
O111 O 0.07654 0.07678 0.52941 0.0
O112 O 0.03747 1.01738 0.54604 0.0
O113 O 1.02308 0.05831 0.5577 0.0
O114 O 1.01607 0.11356 0.48953 0.0
O115 O 1.01788 0.11444 0.53611 0.0
O116 O 0.99686 0.05005 0.50511 0.0
O117 O 0.03341 0.04403 0.48609 0.0
O118 O 0.06105 0.09438 0.47527 0.0
O119 O 0.08588 0.05752 0.47275 0.0
H120 H 0.13138 0.95502 0.49202 0.0
H121 H 0.15367 0.92331 0.52416 0.0
H122 H 0.1126 0.95292 0.5954 0.0
H123 H 0.09012 0.98418 0.56302 0.0
H124 H 0.99792 0.17763 0.50922 0.0
H125 H 0.95423 0.19511 0.4969 0.0
H126 H 0.91658 0.11423 0.49838 0.0
H127 H 0.96078 0.09691 0.50996 0.0
Nd128 Nd 0.53675 0.02799 0.05907 0.0
Nd129 Nd 0.536 0.06029 1.01441 0.0
C130 C 0.53987 0.98786 0.09701 0.0
C131 C 0.52295 0.9658 0.10993 0.0
C132 C 0.50171 0.9522 0.09422 0.0
C133 C 0.48717 0.93004 0.10633 0.0
C134 C 0.49353 0.92119 0.13441 0.0
C135 C 0.51437 0.93541 0.15027 0.0
C136 C 0.52897 0.95747 0.13809 0.0
C137 C 0.49515 0.06315 0.06671 0.0
C138 C 0.50127 1.00615 1.00312 0.0
C139 C 0.53625 0.10122 0.97704 0.0
C140 C 0.54194 0.13044 0.97716 0.0
C141 C 0.54392 0.14449 1.00284 0.0
C142 C 0.55167 0.17197 1.00274 0.0
C143 C 0.55748 0.1858 0.97694 0.0
C144 C 0.5548 0.17165 0.95121 0.0
C145 C 0.54713 0.1442 0.95136 0.0
C146 C 0.57598 0.02378 1.0066 0.0
C147 C 0.5711 0.08071 0.06964 0.0
O148 O 0.54468 0.9859 0.06999 0.0
O149 O 0.53535 1.01221 0.1039 0.0
O150 O 0.5135 0.0569 0.08563 0.0
O151 O 0.49964 0.05163 0.04337 0.0
O152 O 0.5136 0.99936 0.02724 0.0
O153 O 0.50425 0.03099 0.99361 0.0
O154 O 0.51471 0.09154 0.98982 0.0
O155 O 0.55694 0.08718 0.98272 0.0
O156 O 0.55646 0.02882 0.9885 0.0
O157 O 0.57272 0.0364 0.0296 0.0
O158 O 0.55309 0.08839 0.05048 0.0
O159 O 0.57336 0.055 0.07329 0.0
H160 H 0.4967 0.95837 0.07243 0.0
H161 H 0.47145 0.91941 0.0934 0.0
H162 H 0.51948 0.92945 0.17209 0.0
H163 H 0.54524 0.96782 0.15055 0.0
H164 H 0.53991 0.13414 0.02296 0.0
H165 H 0.55328 0.18236 0.02286 0.0
H166 H 0.5595 0.18161 0.93104 0.0
H167 H 0.54587 0.13357 0.93138 0.0
Nd168 Nd 0.50897 0.54044 0.56663 0.0
Nd169 Nd 0.56122 0.57553 0.57383 0.0
C170 C 0.45904 0.51966 0.5567 0.0
C171 C 0.4359 0.51253 0.57452 0.0
C172 C 0.41296 0.49816 0.56282 0.0
C173 C 0.39226 0.48836 0.58045 0.0
C174 C 0.3943 0.49271 0.61008 0.0
C175 C 0.4169 0.50812 0.62147 0.0
C176 C 0.43756 0.51794 0.60382 0.0
C177 C 0.53938 0.5291 0.61533 0.0
C178 C 0.50923 0.59698 0.60167 0.0
C179 C 0.61105 0.59575 0.58529 0.0
C180 C 0.63682 0.59826 0.571 0.0
C181 C 0.65852 0.61411 0.58315 0.0
C182 C 0.6827 0.61815 0.56895 0.0
C183 C 0.68552 0.60643 0.5423 0.0
C184 C 0.66388 0.58993 0.53053 0.0
C185 C 0.63964 0.58594 0.54477 0.0
C186 C 0.52987 0.58773 0.52625 0.0
C187 C 0.56093 0.51969 0.53768 0.0
O188 O 0.46609 0.5453 0.55364 0.0
O189 O 0.4797 0.5052 0.56155 0.0
O190 O 0.525 0.51092 0.601 0.0
O191 O 0.5356 0.55202 0.60516 0.0
O192 O 0.49496 0.57967 0.58503 0.0
O193 O 0.53571 0.59635 0.60488 0.0
O194 O 0.60224 0.57144 0.59309 0.0
O195 O 0.59205 0.60981 0.57382 0.0
O196 O 0.54402 0.60576 0.54105 0.0
O197 O 0.53416 0.56453 0.5354 0.0
O198 O 0.57535 0.53701 0.55413 0.0
O199 O 0.53439 0.52017 0.53496 0.0
H200 H 0.41151 0.49369 0.54025 0.0
H201 H 0.37528 0.4763 0.57107 0.0
H202 H 0.41891 0.51204 0.64414 0.0
H203 H 0.45523 0.52901 0.61315 0.0
H204 H 0.65663 0.62368 0.60344 0.0
H205 H 0.69916 0.6306 0.57877 0.0
H206 H 0.66539 0.58081 0.50995 0.0
H207 H 0.62294 0.57368 0.5351 0.0
Nd208 Nd 1.01321 0.55781 0.01974 0.0
Nd209 Nd 0.05592 0.5644 0.97529 0.0
C210 C 0.97131 0.54669 0.05175 0.0
C211 C 0.9536 0.56392 0.06623 0.0
C212 C 0.94534 0.58765 0.05294 0.0
C213 C 0.93313 0.60651 0.06868 0.0
C214 C 0.92937 0.60215 0.09807 0.0
C215 C 0.93599 0.57748 0.11073 0.0
C216 C 0.94794 0.55855 0.0949 0.0
C217 C 0.05617 0.59358 0.03398 0.0
C218 C 1.01175 0.61136 0.97571 0.0
C219 C 0.10041 0.56841 0.9459 0.0
C220 C 0.12621 0.5558 0.94763 0.0
C221 C 0.1428 0.55751 0.92411 0.0
C222 C 0.16451 0.5413 0.92312 0.0
C223 C 0.16962 0.52271 0.94544 0.0
C224 C 0.15405 0.52258 0.96992 0.0
C225 C 0.13263 0.53912 0.97104 0.0
C226 C 1.00635 0.54225 0.95622 0.0
C227 C 0.05845 0.51123 0.02131 0.0
O228 O 0.96948 0.54712 0.02375 0.0
O229 O 0.99632 0.54749 0.06197 0.0
O230 O 0.03141 0.59719 0.03989 0.0
O231 O 0.0574 0.57137 0.02225 0.0
O232 O 0.99728 0.59362 0.99163 0.0
O233 O 0.03692 0.60635 0.96962 0.0
O234 O 0.096 0.58488 0.96633 0.0
O235 O 0.07935 0.55207 0.93938 0.0
O236 O 1.02058 0.56001 0.94146 0.0
O237 O 1.01863 0.5367 0.97931 0.0
O238 O 0.06974 0.5253 0.99974 0.0
O239 O 0.03599 0.51916 0.03212 0.0
H240 H 0.94955 0.59232 0.03078 0.0
H241 H 0.92792 0.62507 0.05817 0.0
H242 H 0.93383 0.57351 0.13338 0.0
H243 H 0.95431 0.54044 0.10554 0.0
H244 H 0.1382 0.57042 0.90591 0.0
H245 H 0.17649 0.54243 0.90426 0.0
H246 H 0.1572 0.50851 0.98746 0.0
H247 H 0.1202 0.53782 0.98955 0.0
H248 H 0.23365 0.16458 0.24729 0.0
H249 H 0.21052 0.14581 0.28872 0.0
H250 H 0.13946 0.18556 0.26195 0.0
H251 H 0.16159 0.20257 0.21905 0.0
H252 H 0.19282 0.1602 0.33434 0.0
H253 H 0.0991 0.11846 0.2797 0.0
H254 H 0.12756 0.132 0.26 0.0
H255 H 0.1038 0.15393 0.27332 0.0
C256 C 0.21283 0.16899 0.24931 0.0
C257 C 0.19995 0.18517 0.22824 0.0
C258 C 0.19947 0.15827 0.27385 0.0
C259 C 0.17241 0.16314 0.27916 0.0
C260 C 0.15975 0.18004 0.25874 0.0
H261 H 0.06579 0.12492 0.42766 0.0
H262 H 0.08758 0.14406 0.38474 0.0
C263 C 0.17297 0.19047 0.23392 0.0
C264 C 0.15816 0.15121 0.30608 0.0
H265 H 0.09847 0.12016 0.33041 0.0
C266 C 0.17223 0.15131 0.33306 0.0
C267 C 0.13108 0.13916 0.3057 0.0
C268 C 0.11461 0.13558 0.2781 0.0
C269 C 0.16039 0.1406 0.35864 0.0
C270 C 0.13327 0.12905 0.35824 0.0
C271 C 0.11909 0.129 0.33145 0.0
C272 C 0.11955 0.11687 0.38512 0.0
C273 C 0.17703 0.14226 0.38628 0.0
C274 C 0.12946 0.09465 0.40045 0.0
C275 C 0.11666 0.08329 0.42507 0.0
C276 C 0.09344 0.09377 0.43591 0.0
C277 C 0.08357 0.11606 0.42058 0.0
C278 C 0.09613 0.12713 0.39566 0.0
H279 H 0.19489 0.15691 0.3847 0.0
H280 H 0.16465 0.14808 0.40405 0.0
H281 H 0.18438 0.12224 0.3917 0.0
H282 H 0.1471 0.08569 0.39316 0.0
H283 H 0.12516 0.06621 0.43574 0.0
H284 H 0.41886 0.83927 0.80795 0.0
H285 H 0.44091 0.87222 0.84089 0.0
H286 H 0.3864 0.84439 0.90641 0.0
H287 H 0.36442 0.81129 0.87376 0.0
H288 H 0.38961 0.90014 0.89765 0.0
H289 H 0.49163 0.86174 0.91132 0.0
H290 H 0.48012 0.86647 0.87479 0.0
H291 H 0.46272 0.84158 0.89701 0.0
C292 C 0.41194 0.83979 0.82956 0.0
C293 C 0.38982 0.82271 0.83819 0.0
C294 C 0.42453 0.85866 0.84834 0.0
C295 C 0.41538 0.86065 0.87615 0.0
C296 C 0.39374 0.84322 0.88503 0.0
H297 H 0.49346 0.95248 1.0156 0.0
H298 H 0.47141 0.91747 0.98531 0.0
C299 C 0.38115 0.82438 0.8663 0.0
C300 C 0.42738 0.88177 0.89555 0.0
H301 H 0.48617 0.90466 0.93018 0.0
C302 C 0.41071 0.9011 0.90484 0.0
C303 C 0.45483 0.88282 0.9051 0.0
C304 C 0.47337 0.86193 0.89679 0.0
C305 C 0.42083 0.92169 0.92313 0.0
C306 C 0.44845 0.92315 0.93206 0.0
C307 C 0.46504 0.9036 0.92312 0.0
C308 C 0.46054 0.94471 0.95087 0.0
C309 C 0.40182 0.94145 0.93307 0.0
C310 C 0.46163 0.97168 0.9416 0.0
C311 C 0.47419 0.9918 0.95889 0.0
C312 C 0.486 0.98528 0.98573 0.0
C313 C 0.48451 0.95825 0.9951 0.0
C314 C 0.47199 0.93817 0.97778 0.0
H315 H 0.38032 0.93375 0.93015 0.0
H316 H 0.40601 0.94613 0.95596 0.0
H317 H 0.40471 0.96042 0.9204 0.0
H318 H 0.45329 0.97712 0.92071 0.0
H319 H 0.47512 1.01238 0.95095 0.0
H320 H 0.63871 0.56335 0.86455 0.0
H321 H 0.62018 0.55976 0.81522 0.0
H322 H 0.60548 0.4741 0.82738 0.0
H323 H 0.6239 0.47777 0.87684 0.0
H324 H 0.6414 0.52736 0.77267 0.0
H325 H 0.533 0.49876 0.7919 0.0
H326 H 0.55568 0.51414 0.81894 0.0
H327 H 0.55744 0.4794 0.8108 0.0
C328 C 0.63104 0.54389 0.85673 0.0
C329 C 0.63227 0.52087 0.8742 0.0
C330 C 0.62062 0.54182 0.82864 0.0
C331 C 0.61126 0.51671 0.8178 0.0
C332 C 0.61218 0.4937 0.83552 0.0
H333 H 0.54088 0.48203 0.64628 0.0
H334 H 0.56036 0.47598 0.69491 0.0
C335 C 0.62266 0.49578 0.86363 0.0
C336 C 0.6019 0.51462 0.78749 0.0
H337 H 0.54588 0.50154 0.74396 0.0
C338 C 0.62055 0.5216 0.76635 0.0
C339 C 0.57478 0.50678 0.7794 0.0
C340 C 0.55393 0.49948 0.80136 0.0
C341 C 0.61267 0.52144 0.73726 0.0
C342 C 0.5853 0.51464 0.72918 0.0
C343 C 0.56684 0.50676 0.75026 0.0
C344 C 0.57502 0.51764 0.69925 0.0
C345 C 0.6337 0.52863 0.71545 0.0
C346 C 0.57681 0.54302 0.68571 0.0
C347 C 0.56579 0.54648 0.65812 0.0
C348 C 0.55256 0.52466 0.64363 0.0
C349 C 0.55104 0.49915 0.65699 0.0
C350 C 0.56209 0.49569 0.68471 0.0
H351 H 0.65433 0.52493 0.72403 0.0
H352 H 0.62951 0.51698 0.69564 0.0
H353 H 0.6335 0.55031 0.70976 0.0
H354 H 0.58619 0.56032 0.69675 0.0
H355 H 0.56719 0.56638 0.64835 0.0
H356 H 1.0013 0.73957 0.31146 0.0
H357 H 0.98455 0.73576 0.26146 0.0
H358 H 0.92521 0.67301 0.28667 0.0
H359 H 0.9417 0.6772 0.33657 0.0
H360 H 0.98681 0.69072 0.23179 0.0
H361 H 0.88069 0.71692 0.23102 0.0
H362 H 0.90476 0.72588 0.25985 0.0
H363 H 0.88759 0.69284 0.25888 0.0
C364 C 0.98447 0.72525 0.30617 0.0
C365 C 0.97281 0.70845 0.32735 0.0
C366 C 0.97481 0.72323 0.27779 0.0
C367 C 0.95329 0.70448 0.27044 0.0
C368 C 0.94129 0.68814 0.29195 0.0
H369 H 0.89808 0.59957 0.14527 0.0
H370 H 0.90031 0.63247 0.18317 0.0
C371 C 0.95093 0.69022 0.32029 0.0
C372 C 0.94599 0.69907 0.24009 0.0
H373 H 0.89194 0.68706 0.19354 0.0
C374 C 0.96621 0.69062 0.22309 0.0
C375 C 0.91909 0.699 0.22887 0.0
C376 C 0.89686 0.70944 0.24555 0.0
C377 C 0.95997 0.67995 0.19605 0.0
C378 C 0.93275 0.67831 0.18548 0.0
C379 C 0.91275 0.68837 0.20171 0.0
C380 C 0.92458 0.66262 0.15978 0.0
C381 C 0.9823 0.66864 0.18009 0.0
C382 C 0.9358 0.66948 0.13338 0.0
C383 C 0.93519 0.65045 0.11195 0.0
C384 C 0.92289 0.62445 0.11651 0.0
C385 C 0.90844 0.61909 0.14147 0.0
C386 C 0.90943 0.638 0.16303 0.0
H387 H 1.00117 0.66748 0.19352 0.0
H388 H 0.9759 0.64819 0.17241 0.0
H389 H 0.98705 0.68171 0.16121 0.0
H390 H 0.9471 0.68865 0.1303 0.0
H391 H 0.94649 0.65542 0.09302 0.0
H392 H 0.29213 0.16623 0.19627 0.0
H393 H 0.33143 0.14536 0.17881 0.0
H394 H 0.30519 0.16301 0.09214 0.0
H395 H 0.26649 0.18437 0.10943 0.0
H396 H 0.34323 0.10505 0.15075 0.0
H397 H 0.37977 0.18887 0.08056 0.0
H398 H 0.35278 0.19216 0.1045 0.0
H399 H 0.34599 0.17698 0.07009 0.0
C400 C 0.29453 0.16582 0.17341 0.0
C401 C 0.27544 0.17781 0.15468 0.0
C402 C 0.31747 0.15372 0.16325 0.0
C403 C 0.32279 0.15279 0.13372 0.0
C404 C 0.30324 0.16401 0.115 0.0
H405 H 0.45003 0.0788 0.03274 0.0
H406 H 0.40931 0.09954 0.04799 0.0
C407 C 0.28049 0.17633 0.12513 0.0
C408 C 0.34798 0.1397 0.12275 0.0
H409 H 0.39984 0.14759 0.07509 0.0
C410 C 0.35551 0.11472 0.13431 0.0
C411 C 0.36499 0.15145 0.1011 0.0
C412 C 0.36068 0.17895 0.08856 0.0
C413 C 0.37818 0.10149 0.12494 0.0
C414 C 0.39497 0.11314 0.10318 0.0
C415 C 0.38746 0.13801 0.09149 0.0
C416 C 0.42057 0.10033 0.09316 0.0
C417 C 0.38348 0.0745 0.13821 0.0
C418 C 0.44168 0.09378 0.1127 0.0
C419 C 0.46521 0.08207 0.10388 0.0
C420 C 0.46916 0.07602 0.07496 0.0
C421 C 0.4482 0.08274 0.05519 0.0
C422 C 0.42463 0.09481 0.06405 0.0
H423 H 0.36501 0.06456 0.14755 0.0
H424 H 0.39092 0.06097 0.12226 0.0
H425 H 0.39914 0.07729 0.1557 0.0
H426 H 0.44023 0.09804 0.13512 0.0
H427 H 0.48052 0.07768 0.1201 0.0
H428 H 0.23376 0.79264 0.76888 0.0
H429 H 0.20621 0.81314 0.73071 0.0
H430 H 0.27803 0.8335 0.68353 0.0
H431 H 0.3055 0.81271 0.72164 0.0
H432 H 0.21276 0.86705 0.71395 0.0
H433 H 0.22466 0.80106 0.6222 0.0
H434 H 0.23241 0.79098 0.65873 0.0
H435 H 0.25589 0.8132 0.63974 0.0
C436 C 0.24346 0.80102 0.75002 0.0
C437 C 0.27151 0.80102 0.74778 0.0
C438 C 0.2278 0.81276 0.72834 0.0
C439 C 0.24003 0.82454 0.70413 0.0
C440 C 0.26812 0.82402 0.70172 0.0
H441 H 0.18836 0.92523 0.56258 0.0
H442 H 0.21294 0.89725 0.5967 0.0
C443 C 0.28377 0.81227 0.72344 0.0
C444 C 0.22374 0.8393 0.68265 0.0
H445 H 0.2046 0.84221 0.61182 0.0
C446 C 0.21077 0.86149 0.69166 0.0
C447 C 0.22136 0.83209 0.65358 0.0
C448 C 0.23411 0.80789 0.64294 0.0
C449 C 0.19591 0.87704 0.67227 0.0
C450 C 0.19354 0.86987 0.64318 0.0
C451 C 0.20642 0.84761 0.63416 0.0
C452 C 0.17817 0.88559 0.62174 0.0
C453 C 0.18353 0.90146 0.68296 0.0
C454 C 0.15035 0.88784 0.62419 0.0
C455 C 0.13621 0.90376 0.60469 0.0
C456 C 0.14962 0.91758 0.58225 0.0
C457 C 0.17736 0.91466 0.57943 0.0
C458 C 0.19147 0.89877 0.59897 0.0
H459 H 0.19269 0.90787 0.70398 0.0
H460 H 0.18598 0.91854 0.66745 0.0
H461 H 0.16158 0.89665 0.6856 0.0
H462 H 0.13959 0.87738 0.64128 0.0
H463 H 0.11477 0.90521 0.60716 0.0
H464 H 0.75404 0.51779 0.97506 0.0
H465 H 0.80319 0.52551 0.97242 0.0
H466 H 0.80261 0.46708 0.90583 0.0
H467 H 0.75363 0.45842 0.90951 0.0
H468 H 0.84334 0.46086 0.94062 0.0
H469 H 0.8433 0.56907 0.91389 0.0
H470 H 0.82739 0.56168 0.94711 0.0
H471 H 0.81255 0.5475 0.91453 0.0
C472 C 0.76452 0.50659 0.95997 0.0
C473 C 0.75022 0.48757 0.94246 0.0
C474 C 0.79251 0.51119 0.95823 0.0
C475 C 0.80654 0.49745 0.93834 0.0
C476 C 0.79224 0.47807 0.9212 0.0
H477 H 0.97437 0.55632 0.91015 0.0
H478 H 0.92628 0.54282 0.90131 0.0
C479 C 0.76433 0.47308 0.92335 0.0
C480 C 0.83619 0.50281 0.93592 0.0
H481 H 0.88591 0.5534 0.93069 0.0
C482 C 0.85262 0.48108 0.93808 0.0
C483 C 0.84835 0.52908 0.93175 0.0
C484 C 0.83192 0.55308 0.92635 0.0
C485 C 0.88087 0.485 0.93747 0.0
C486 C 0.8931 0.51148 0.93583 0.0
C487 C 0.87663 0.5331 0.93238 0.0
C488 C 0.92279 0.51743 0.93934 0.0
C489 C 0.89718 0.46063 0.93838 0.0
C490 C 0.9369 0.5075 0.96343 0.0
C491 C 0.96437 0.51467 0.96809 0.0
C492 C 0.97811 0.53269 0.94931 0.0
C493 C 0.96421 0.54241 0.92498 0.0
C494 C 0.93675 0.53478 0.91999 0.0
H495 H 0.8855 0.44316 0.92849 0.0
H496 H 0.91638 0.46447 0.92713 0.0
H497 H 0.90196 0.45501 0.96099 0.0
H498 H 0.92653 0.49479 0.97917 0.0
H499 H 0.97465 0.50675 0.98695 0.0
H500 H 0.89998 0.67804 0.39682 0.0
H501 H 0.85871 0.65147 0.41014 0.0
H502 H 0.86879 0.6812 0.49596 0.0
H503 H 0.91035 0.70711 0.4831 0.0
H504 H 0.85278 0.62551 0.49294 0.0
H505 H 0.78852 0.68848 0.42258 0.0
H506 H 0.8151 0.67269 0.40598 0.0
H507 H 0.82344 0.69847 0.43161 0.0
C508 C 0.89364 0.67851 0.41865 0.0
C509 C 0.90825 0.69485 0.43888 0.0
C510 C 0.86997 0.66352 0.42614 0.0
C511 C 0.86057 0.66471 0.4539 0.0
C512 C 0.8757 0.68011 0.47438 0.0
H513 H 0.71349 0.65493 0.53541 0.0
H514 H 0.75552 0.66493 0.51077 0.0
C515 C 0.8993 0.69506 0.46695 0.0
C516 C 0.83425 0.65126 0.46161 0.0
H517 H 0.76625 0.6563 0.45224 0.0
C518 C 0.8338 0.63184 0.48375 0.0
C519 C 0.80963 0.65979 0.4496 0.0
C520 C 0.80898 0.68111 0.42625 0.0
C521 C 0.80935 0.62152 0.4951 0.0
C522 C 0.7848 0.63074 0.48374 0.0
C523 C 0.78518 0.64924 0.46074 0.0
C524 C 0.75891 0.62409 0.4977 0.0
C525 C 0.81 0.60204 0.5202 0.0
C526 C 0.7468 0.59782 0.49823 0.0
C527 C 0.72277 0.59198 0.51252 0.0
C528 C 0.71062 0.61235 0.52649 0.0
C529 C 0.72263 0.63871 0.52535 0.0
C530 C 0.7465 0.6445 0.51107 0.0
H531 H 0.83089 0.59977 0.52888 0.0
H532 H 0.79767 0.60877 0.53757 0.0
H533 H 0.80117 0.58204 0.51337 0.0
H534 H 0.75597 0.58187 0.48773 0.0
H535 H 0.71398 0.57148 0.51308 0.0
H536 H 0.13989 0.28587 0.15178 0.0
H537 H 0.11718 0.32524 0.13237 0.0
H538 H 0.18926 0.35224 0.08888 0.0
H539 H 0.21164 0.31311 0.10795 0.0
H540 H 0.12478 0.38005 0.13588 0.0
H541 H 0.13693 0.35779 0.02243 0.0
H542 H 0.14397 0.3339 0.05073 0.0
H543 H 0.16862 0.36091 0.04226 0.0
C544 C 0.151 0.30022 0.13817 0.0
C545 C 0.17792 0.29587 0.13171 0.0
C546 C 0.13786 0.32299 0.12687 0.0
C547 C 0.15083 0.34226 0.1082 0.0
C548 C 0.17792 0.33795 0.10231 0.0
H549 H 0.10788 0.49072 1.00973 0.0
H550 H 0.12906 0.45164 0.03087 0.0
C551 C 0.19101 0.31539 0.11365 0.0
C552 C 0.13654 0.36669 0.09524 0.0
H553 H 0.12222 0.40074 0.03186 0.0
C554 C 0.12416 0.38429 0.11306 0.0
C555 C 0.13536 0.37326 0.06536 0.0
C556 C 0.14668 0.35537 0.04402 0.0
C557 C 0.1118 0.40781 0.10243 0.0
C558 C 0.11047 0.41435 0.07249 0.0
C559 C 0.12278 0.39661 0.05469 0.0
C560 C 0.09689 0.4392 0.05927 0.0
C561 C 0.10135 0.42605 0.12399 0.0
C562 C 0.07103 0.44629 0.06701 0.0
C563 C 0.05886 0.46921 0.05497 0.0
C564 C 0.07155 0.48616 0.03402 0.0
C565 C 0.09708 0.47874 0.02572 0.0
C566 C 0.10937 0.45596 0.03797 0.0
H567 H 0.11182 0.4238 0.14525 0.0
H568 H 0.10402 0.44744 0.11704 0.0
H569 H 0.07952 0.42061 0.12671 0.0
H570 H 0.05978 0.43386 0.08227 0.0
H571 H 0.03917 0.47351 0.06207 0.0
H572 H 0.63645 0.42967 0.9145 0.0
H573 H 0.6142 0.38495 0.92263 0.0
H574 H 0.66944 0.37197 0.99427 0.0
H575 H 0.69178 0.4167 0.98633 0.0
H576 H 0.66373 0.3295 0.95691 0.0
H577 H 0.56343 0.36022 0.98621 0.0
H578 H 0.57476 0.37433 0.95278 0.0
H579 H 0.59309 0.3834 0.98547 0.0
C580 C 0.64366 0.41742 0.93219 0.0
C581 C 0.66582 0.42674 0.94984 0.0
C582 C 0.63089 0.39191 0.93684 0.0
C583 C 0.63989 0.37537 0.95935 0.0
C584 C 0.66212 0.38451 0.97686 0.0
H585 H 0.59456 0.2108 1.01414 0.0
H586 H 0.61379 0.25729 1.01166 0.0
C587 C 0.67494 0.40998 0.9722 0.0
C588 C 0.62684 0.34808 0.96394 0.0
H589 H 0.56654 0.31375 0.97771 0.0
C590 C 0.64254 0.32604 0.96168 0.0
C591 C 0.59918 0.34369 0.97014 0.0
C592 C 0.58165 0.36665 0.97407 0.0
C593 C 0.63116 0.29964 0.96476 0.0
C594 C 0.60346 0.29524 0.97069 0.0
C595 C 0.58778 0.31726 0.97316 0.0
C596 C 0.5903 0.26783 0.97365 0.0
C597 C 0.6487 0.27665 0.96086 0.0
C598 C 0.57002 0.25874 0.95373 0.0
C599 C 0.5588 0.23229 0.95523 0.0
C600 C 0.5676 0.21451 0.9768 0.0
C601 C 0.58721 0.22403 0.99738 0.0
C602 C 0.59843 0.25048 0.99583 0.0
H603 H 0.66769 0.28329 0.95014 0.0
H604 H 0.65423 0.26791 0.98211 0.0
H605 H 0.63768 0.26059 0.94805 0.0
H606 H 0.56335 0.27194 0.93658 0.0
H607 H 0.54343 0.22568 0.93933 0.0
H608 H 0.94906 0.77844 0.48304 0.0
H609 H 0.9521 0.82618 0.49503 0.0
H610 H 0.97061 0.84751 0.40784 0.0
H611 H 0.96714 0.80006 0.39561 0.0
H612 H 0.9985 0.86221 0.48859 0.0
H613 H 0.90968 0.89596 0.42562 0.0
H614 H 0.9137 0.86107 0.43466 0.0
H615 H 0.93145 0.87706 0.40543 0.0
C616 C 0.95347 0.79337 0.46641 0.0
C617 C 0.95801 0.7856 0.43845 0.0
C618 C 0.95523 0.82053 0.47327 0.0
C619 C 0.96119 0.84026 0.4522 0.0
C620 C 0.96552 0.83256 0.42426 0.0
H621 H 0.03459 0.9995 0.45789 0.0
H622 H 1.02068 0.9521 0.45014 0.0
C623 C 0.96389 0.80547 0.41741 0.0
C624 C 0.96471 0.86887 0.45963 0.0
H625 H 0.94259 0.9304 0.44181 0.0
C626 C 0.98608 0.8771 0.47868 0.0
C627 C 0.94828 0.88813 0.4468 0.0
C628 C 0.92432 0.88014 0.42718 0.0
C629 C 0.99223 0.90434 0.48428 0.0
C630 C 0.97671 0.92367 0.47026 0.0
C631 C 0.95458 0.91541 0.45222 0.0
C632 C 0.98393 0.9526 0.47336 0.0
C633 C 1.01551 0.91233 0.50481 0.0
C634 C 0.96736 0.96855 0.48822 0.0
C635 C 0.97529 0.99558 0.49275 0.0
C636 C 0.9998 1.0069 0.4823 0.0
C637 C 1.01574 0.99113 0.46638 0.0
C638 C 1.00787 0.96413 0.46199 0.0
H639 H 1.02149 0.89509 0.51847 0.0
H640 H 0.03324 0.9199 0.49251 0.0
H641 H 1.01024 0.92868 0.51879 0.0
H642 H 0.94873 0.9599 0.49698 0.0
H643 H 0.96265 1.00738 0.50507 0.0
H644 H 0.36063 0.72022 0.76592 0.0
H645 H 0.38408 0.69148 0.73504 0.0
H646 H 0.44222 0.7574 0.71666 0.0
H647 H 0.41864 0.78648 0.74736 0.0
H648 H 0.41908 0.72652 0.6671 0.0
H649 H 0.46022 0.66305 0.75526 0.0
H650 H 0.42461 0.66751 0.75579 0.0
H651 H 0.44857 0.69584 0.76111 0.0
C652 C 0.37828 0.72869 0.75513 0.0
C653 C 0.38778 0.75565 0.75907 0.0
C654 C 0.39177 0.71217 0.73769 0.0
C655 C 0.41499 0.72226 0.7238 0.0
C656 C 0.42437 0.74923 0.72732 0.0
H657 H 0.53163 0.63189 0.64162 0.0
H658 H 0.50866 0.66292 0.67015 0.0
C659 C 0.41099 0.76575 0.74496 0.0
C660 C 0.42942 0.70457 0.70561 0.0
H661 H 0.46578 0.64906 0.70802 0.0
C662 C 0.42936 0.70961 0.67599 0.0
C663 C 0.44296 0.68269 0.71736 0.0
C664 C 0.44438 0.67695 0.74915 0.0
C665 C 0.44214 0.69301 0.65772 0.0
C666 C 0.45515 0.67076 0.66942 0.0
C667 C 0.4556 0.66601 0.6991 0.0
C668 C 0.4689 0.65239 0.65133 0.0
C669 C 0.44194 0.69955 0.62611 0.0
C670 C 0.45411 0.63605 0.63136 0.0
C671 C 0.46717 0.61816 0.61501 0.0
C672 C 0.49528 0.61631 0.61837 0.0
C673 C 0.50999 0.63281 0.63837 0.0
C674 C 0.49691 0.65056 0.65476 0.0
H675 H 0.4362 0.72032 0.62134 0.0
H676 H 0.4621 0.69723 0.6174 0.0
H677 H 0.42706 0.68542 0.61483 0.0
H678 H 0.4324 0.63686 0.6287 0.0
H679 H 0.4552 0.60568 0.5999 0.0
H680 H 0.92428 0.87639 0.77624 0.0
H681 H 0.94569 0.89844 0.73468 0.0
H682 H 0.92217 0.97477 0.76173 0.0
H683 H 0.90193 0.95325 0.80372 0.0
H684 H 0.92966 0.92481 0.68827 0.0
H685 H 0.99757 0.99916 0.74624 0.0
H686 H 0.97899 0.97205 0.76459 0.0
H687 H 0.96291 1.00217 0.7541 0.0
C688 C 0.92394 0.89796 0.77386 0.0
C689 C 0.91094 0.91253 0.79433 0.0
C690 C 0.93619 0.91073 0.74954 0.0
C691 C 0.93647 0.93884 0.74442 0.0
C692 C 0.92337 0.95335 0.76472 0.0
H693 H 0.9964 0.05445 0.60699 0.0
H694 H 0.9756 0.03232 0.64904 0.0
C695 C 0.91114 0.94064 0.78897 0.0
C696 C 0.94966 0.95269 0.71789 0.0
H697 H 0.99281 1.0061 0.69589 0.0
C698 C 0.94361 0.94247 0.69024 0.0
C699 C 0.96808 0.97606 0.71931 0.0
C700 C 0.97751 0.98786 0.74766 0.0
C701 C 0.95446 0.95481 0.66487 0.0
C702 C 0.9728 0.97821 0.66629 0.0
C703 C 0.97887 0.98843 0.69393 0.0
C704 C 0.98588 0.99213 0.63975 0.0
C705 C 0.94521 0.94293 0.6365 0.0
C706 C 0.99946 0.97777 0.61968 0.0
C707 C 1.01149 0.99056 0.59536 0.0
C708 C 1.01079 0.01851 0.58972 0.0
C709 C 0.99751 0.033 0.60995 0.0
C710 C 0.98551 0.02017 0.63438 0.0
H711 H 0.92535 0.93128 0.63789 0.0
H712 H 0.94345 0.95876 0.61963 0.0
H713 H 0.96012 0.92897 0.62998 0.0
H714 H 1.00122 0.95645 0.62295 0.0
H715 H 1.02156 0.97832 0.5809 0.0
H716 H 0.70857 0.2271 0.2582 0.0
H717 H 0.69229 0.19916 0.21784 0.0
H718 H 0.61006 0.21362 0.23539 0.0
H719 H 0.62604 0.24078 0.27623 0.0
H720 H 0.61699 0.16032 0.22718 0.0
H721 H 0.66195 0.22317 0.13948 0.0
H722 H 0.68571 0.21427 0.16745 0.0
H723 H 0.65931 0.23548 0.17515 0.0
C724 C 0.68701 0.22424 0.25354 0.0
C725 C 0.66862 0.23631 0.27042 0.0
C726 C 0.67776 0.20854 0.23024 0.0
C727 C 0.64997 0.20467 0.22329 0.0
C728 C 0.6316 0.21653 0.24019 0.0
H729 H 0.56652 0.135 0.07237 0.0
H730 H 0.58682 0.16553 0.10884 0.0
C731 C 0.6408 0.2322 0.26344 0.0
C732 C 0.63983 0.18734 0.19922 0.0
H733 H 0.64171 0.18022 0.12688 0.0
C734 C 0.62239 0.16469 0.20526 0.0
C735 C 0.64661 0.19326 0.17057 0.0
C736 C 0.66422 0.21799 0.16262 0.0
C737 C 0.6118 0.14763 0.18352 0.0
C738 C 0.6192 0.15308 0.15498 0.0
C739 C 0.63632 0.17593 0.14882 0.0
C740 C 0.60902 0.13529 0.13133 0.0
C741 C 0.59238 0.12413 0.19123 0.0
C742 C 0.61549 0.10842 0.13135 0.0
C743 C 0.60393 0.09096 0.11062 0.0
C744 C 0.58577 0.10006 0.08933 0.0
C745 C 0.58035 0.12733 0.08852 0.0
C746 C 0.59193 0.14481 0.10933 0.0
H747 H 0.58368 0.12656 0.21243 0.0
H748 H 0.57557 0.12156 0.17492 0.0
H749 H 0.60329 0.1055 0.19216 0.0
H750 H 0.62903 0.1008 0.14782 0.0
H751 H 0.60872 0.07014 0.11175 0.0
H752 H 0.3629 0.57888 0.31212 0.0
H753 H 0.39616 0.5751 0.35199 0.0
H754 H 0.40689 0.66149 0.35569 0.0
H755 H 0.37365 0.66523 0.31551 0.0
H756 H 0.45627 0.63377 0.36015 0.0
H757 H 0.37917 0.59251 0.43515 0.0
H758 H 0.37925 0.57489 0.40215 0.0
H759 H 0.37038 0.60915 0.40177 0.0
C760 C 0.3726 0.59699 0.32137 0.0
C761 C 0.36594 0.62231 0.31111 0.0
C762 C 0.39141 0.59484 0.34414 0.0
C763 C 0.40361 0.61802 0.35702 0.0
C764 C 0.39756 0.6434 0.34609 0.0
H765 H 0.51971 0.63657 0.5025 0.0
H766 H 0.48961 0.64552 0.46104 0.0
C767 C 0.37868 0.64553 0.32326 0.0
C768 C 0.42222 0.61557 0.38229 0.0
H769 H 0.42514 0.5908 0.45079 0.0
C770 C 0.44951 0.6246 0.38008 0.0
C771 C 0.4132 0.60366 0.40821 0.0
C772 C 0.38386 0.5947 0.41217 0.0
C773 C 0.46829 0.62112 0.40289 0.0
C774 C 0.45933 0.60872 0.42863 0.0
C775 C 0.43194 0.6002 0.43097 0.0
C776 C 0.47811 0.6036 0.4532 0.0
C777 C 0.49766 0.62992 0.39898 0.0
C778 C 0.48118 0.57714 0.4628 0.0
C779 C 0.49817 0.57202 0.48647 0.0
C780 C 0.5123 0.59331 0.50103 0.0
C781 C 0.50917 0.61981 0.49151 0.0
C782 C 0.49213 0.62493 0.46777 0.0
H783 H 0.50213 0.63347 0.37608 0.0
H784 H 0.50276 0.64896 0.41039 0.0
H785 H 0.51094 0.61466 0.40809 0.0
H786 H 0.47039 0.56043 0.45193 0.0
H787 H 0.50012 0.5514 0.49345 0.0
H788 H 0.28052 0.30628 0.879 0.0
H789 H 0.28141 0.34808 0.90603 0.0
H790 H 0.19416 0.34415 0.90069 0.0
H791 H 0.1934 0.30235 0.87443 0.0
H792 H 0.26359 0.39417 0.88636 0.0
H793 H 0.20779 0.36441 0.98268 0.0
H794 H 0.2213 0.34007 0.96028 0.0
H795 H 0.18877 0.35267 0.95154 0.0
C796 C 0.26163 0.31413 0.88439 0.0
C797 C 0.23688 0.30124 0.87519 0.0
C798 C 0.26212 0.33792 0.89971 0.0
C799 C 0.23783 0.34896 0.90596 0.0
C800 C 0.21312 0.33561 0.89703 0.0
H801 H 0.17752 0.49614 0.89658 0.0
H802 H 0.20254 0.45679 0.89135 0.0
C803 C 0.21267 0.31187 0.88186 0.0
C804 C 0.23793 0.37592 0.9186 0.0
H805 H 0.20404 0.41083 0.96563 0.0
C806 C 0.25117 0.39777 0.90422 0.0
C807 C 0.22231 0.38072 0.94233 0.0
C808 C 0.20952 0.35813 0.96026 0.0
C809 C 0.247 0.42428 0.91114 0.0
C810 C 0.22875 0.42899 0.93256 0.0
C811 C 0.21769 0.40723 0.94884 0.0
C812 C 0.21758 0.45546 0.93536 0.0
C813 C 0.26128 0.44698 0.89458 0.0
C814 C 0.21769 0.46796 0.96191 0.0
C815 C 0.2034 0.49081 0.965 0.0
C816 C 0.18846 0.50131 0.94164 0.0
C817 C 0.18927 0.48918 0.9149 0.0
C818 C 0.20362 0.46654 0.91184 0.0
H819 H 0.28118 0.44127 0.88762 0.0
H820 H 0.24888 0.45159 0.87508 0.0
H821 H 0.26448 0.46542 0.90747 0.0
H822 H 0.22817 0.45959 0.9804 0.0
H823 H 0.20343 0.49977 0.98583 0.0
H824 H 0.76362 0.90833 0.86747 0.0
H825 H 0.72493 0.92622 0.88985 0.0
H826 H 0.77654 0.95062 0.96216 0.0
H827 H 0.81534 0.93334 0.9393 0.0
H828 H 0.69561 0.91779 0.93401 0.0
H829 H 0.74369 0.0195 0.95186 0.0
H830 H 0.75943 0.99522 0.93147 0.0
H831 H 0.76203 0.99413 0.96999 0.0
C832 C 0.76679 0.9172 0.88834 0.0
C833 C 0.79304 0.91878 0.90145 0.0
C834 C 0.74437 0.92773 0.90128 0.0
C835 C 0.74697 0.94081 0.92792 0.0
C836 C 0.7732 0.94171 0.94137 0.0
H837 H 0.62743 0.02003 0.03462 0.0
H838 H 0.66771 1.0001 1.01712 0.0
C839 C 0.79567 0.93123 0.92837 0.0
C840 C 0.72244 0.95298 0.94128 0.0
H841 H 0.70122 1.00962 0.97262 0.0
C842 C 0.69713 0.93796 0.94226 0.0
C843 C 0.72325 0.97943 0.95258 0.0
C844 C 0.74844 0.99813 0.95121 0.0
C845 C 0.67373 0.94797 0.95405 0.0
C846 C 0.6745 0.97445 0.96516 0.0
C847 C 0.69983 0.98941 0.96447 0.0
C848 C 0.64933 0.987 0.97657 0.0
C849 C 0.6484 0.92942 0.95513 0.0
C850 C 0.62477 0.98722 0.96018 0.0
C851 C 0.60163 0.9987 0.97025 0.0
C852 C 0.60152 1.01082 0.99732 0.0
C853 C 0.6261 1.01088 1.01382 0.0
C854 C 0.64946 0.99942 1.00361 0.0
H855 H 0.65312 0.90802 0.95522 0.0
H856 H 0.63687 0.93284 0.97437 0.0
H857 H 0.63534 0.93306 0.93584 0.0
H858 H 0.62344 0.9788 0.93903 0.0
H859 H 0.58358 0.99819 0.95642 0.0
H860 H 0.71098 0.25913 0.3967 0.0
H861 H 0.74791 0.2437 0.42792 0.0
H862 H 0.79214 0.22675 0.35387 0.0
H863 H 0.75564 0.24247 0.32263 0.0
H864 H 0.76887 0.19156 0.42855 0.0
H865 H 0.84733 0.27286 0.40412 0.0
H866 H 0.81174 0.27601 0.39634 0.0
H867 H 0.83102 0.25736 0.3731 0.0
C868 C 0.72873 0.25244 0.3871 0.0
C869 C 0.73038 0.25202 0.35718 0.0
C870 C 0.74972 0.2435 0.40494 0.0
C871 C 0.77287 0.23434 0.39321 0.0
C872 C 0.77463 0.23407 0.36339 0.0
H873 H 0.89559 0.13351 0.45655 0.0
H874 H 0.85555 0.15257 0.43485 0.0
C875 C 0.75364 0.24283 0.34556 0.0
C876 C 0.79486 0.22417 0.41196 0.0
H877 H 0.86245 0.23399 0.4286 0.0
C878 C 0.78928 0.20096 0.4288 0.0
C879 C 0.8214 0.23663 0.41246 0.0
C880 C 0.82828 0.26224 0.39576 0.0
C881 C 0.80979 0.18932 0.44534 0.0
C882 C 0.83657 0.2011 0.44484 0.0
C883 C 0.84193 0.22487 0.42881 0.0
C884 C 0.85954 0.1886 0.45988 0.0
C885 C 0.80267 0.16445 0.46316 0.0
C886 C 0.87515 0.20253 0.48118 0.0
C887 C 0.89801 0.19157 0.49385 0.0
C888 C 0.90592 0.16658 0.48523 0.0
C889 C 0.88988 0.1525 0.4642 0.0
C890 C 0.86698 0.16342 0.45166 0.0
H891 H 0.78071 0.16209 0.46719 0.0
H892 H 0.80798 0.14654 0.45161 0.0
H893 H 0.81418 0.16499 0.48401 0.0
H894 H 0.86979 0.22202 0.4878 0.0
H895 H 0.90966 0.20285 0.51018 0.0
H896 H 0.28492 0.66896 0.15184 0.0
H897 H 0.24337 0.66345 0.12205 0.0
H898 H 0.19784 0.64305 0.19699 0.0
H899 H 0.23932 0.64868 0.22702 0.0
H900 H 0.18854 0.60652 0.1537 0.0
H901 H 0.17908 0.71031 0.1117 0.0
H902 H 0.21163 0.69795 0.10689 0.0
H903 H 0.20063 0.70273 0.14241 0.0
C904 C 0.26599 0.66379 0.16205 0.0
C905 C 0.26539 0.65925 0.19179 0.0
C906 C 0.24226 0.66072 0.145 0.0
C907 C 0.2175 0.65326 0.15738 0.0
C908 C 0.21676 0.64897 0.18707 0.0
H909 H 0.05713 0.63351 0.07319 0.0
H910 H 0.09636 0.65065 0.10279 0.0
C911 C 0.24048 0.65201 0.20414 0.0
C912 C 0.19276 0.64777 0.13913 0.0
H913 H 0.15129 0.67551 0.08835 0.0
C914 C 0.18026 0.62167 0.1396 0.0
C915 C 0.18191 0.66765 0.12094 0.0
C916 C 0.19383 0.69631 0.12057 0.0
C917 C 0.15764 0.61467 0.12177 0.0
C918 C 0.14748 0.63422 0.10271 0.0
C919 C 0.1594 0.66055 0.1028 0.0
C920 C 0.12474 0.62719 0.08231 0.0
C921 C 0.14478 0.58635 0.12335 0.0
C922 C 0.12808 0.60922 0.06041 0.0
C923 C 0.10585 0.59943 0.0436 0.0
C924 C 0.07993 0.60753 0.04842 0.0
C925 C 0.07689 0.62689 0.06913 0.0
C926 C 0.09922 0.63668 0.08601 0.0
H927 H 0.15108 0.57565 0.14331 0.0
H928 H 0.12239 0.58631 0.12221 0.0
H929 H 0.15101 0.57498 0.10493 0.0
H930 H 0.14772 0.60196 0.05707 0.0
H931 H 0.10879 0.58466 0.02765 0.0
H932 H 0.28697 0.32125 0.77786 0.0
H933 H 0.30825 0.3611 0.7544 0.0
H934 H 0.23532 0.37007 0.70289 0.0
H935 H 0.21376 0.33028 0.72643 0.0
H936 H 0.28106 0.36904 0.6714 0.0
H937 H 0.29895 0.4415 0.75914 0.0
H938 H 0.31098 0.40916 0.76787 0.0
H939 H 0.27535 0.41229 0.76152 0.0
C940 C 0.27521 0.33208 0.76206 0.0
C941 C 0.2487 0.32255 0.75393 0.0
C942 C 0.28739 0.3549 0.74871 0.0
C943 C 0.27324 0.36873 0.72716 0.0
C944 C 0.24653 0.35973 0.71957 0.0
H945 H 0.33908 0.48769 0.60232 0.0
H946 H 0.30676 0.46069 0.63133 0.0
C947 C 0.23433 0.33692 0.7329 0.0
C948 C 0.2873 0.39075 0.71057 0.0
H949 H 0.32452 0.4507 0.71715 0.0
C950 C 0.29018 0.38713 0.68126 0.0
C951 C 0.29923 0.41424 0.72357 0.0
C952 C 0.29578 0.41971 0.75471 0.0
C953 C 0.30578 0.40575 0.66483 0.0
C954 C 0.31836 0.4289 0.67799 0.0
C955 C 0.3148 0.43295 0.70713 0.0
C956 C 0.337 0.44793 0.66231 0.0
C957 C 0.30975 0.39978 0.63387 0.0
C958 C 0.36445 0.4506 0.67085 0.0
C959 C 0.38287 0.46606 0.65446 0.0
C960 C 0.37417 0.47917 0.6292 0.0
C961 C 0.34643 0.47748 0.62143 0.0
C962 C 0.32797 0.46209 0.63795 0.0
H963 H 0.30343 0.37857 0.62876 0.0
H964 H 0.2974 0.41288 0.62002 0.0
H965 H 0.33126 0.40391 0.62846 0.0
H966 H 0.37181 0.43982 0.68959 0.0
H967 H 0.40412 0.4667 0.66088 0.0
H968 H 0.88675 0.83746 0.91316 0.0
H969 H 0.90525 0.79643 0.93326 0.0
H970 H 0.94255 0.78392 0.85395 0.0
H971 H 0.92319 0.82354 0.83316 0.0
H972 H 0.90039 0.73831 0.91142 0.0
H973 H 1.0068 0.78075 0.91633 0.0
H974 H 0.97864 0.80178 0.91501 0.0
H975 H 0.98787 0.78581 0.88327 0.0
C976 C 0.8986 0.8261 0.89958 0.0
C977 C 0.90335 0.83534 0.87113 0.0
C978 C 0.90948 0.80229 0.9114 0.0
C979 C 0.92607 0.78656 0.89566 0.0
C980 C 0.9305 0.79541 0.86727 0.0
H981 H 0.0287 0.64793 0.93252 0.0
H982 H 1.00782 0.68825 0.91396 0.0
C983 C 0.91933 0.81881 0.85531 0.0
C984 C 0.93856 0.76109 0.90837 0.0
H985 H 0.99934 0.73465 0.92738 0.0
C986 C 0.92204 0.73772 0.91506 0.0
C987 C 0.96694 0.75927 0.91297 0.0
C988 C 0.98625 0.78319 0.90676 0.0
C989 C 0.93274 0.71319 0.92525 0.0
C990 C 0.96122 0.71143 0.93054 0.0
C991 C 0.97766 0.735 0.92384 0.0
C992 C 0.97431 0.68571 0.9424 0.0
C993 C 0.91304 0.689 0.92879 0.0
C994 C 0.96357 0.66976 0.96533 0.0
C995 C 0.97539 0.64604 0.9757 0.0
C996 C 0.99918 0.6372 0.96439 0.0
C997 C 1.01048 0.65351 0.9421 0.0
C998 C 0.99836 0.677 0.93136 0.0
H999 H 0.89465 0.69061 0.91469 0.0
H1000 H 0.92223 0.67015 0.92379 0.0
H1001 H 0.90645 0.68774 0.95117 0.0
H1002 H 0.946 0.67573 0.97578 0.0
H1003 H 0.96593 0.63475 0.99308 0.0
H1004 H 0.36531 0.71575 0.26016 0.0
H1005 H 0.39652 0.75481 0.24979 0.0
H1006 H 0.38118 0.74345 0.15938 0.0
H1007 H 0.35092 0.70395 0.16949 0.0
H1008 H 0.43487 0.75597 0.17306 0.0
H1009 H 0.37008 0.82693 0.22251 0.0
H1010 H 0.38083 0.80027 0.2457 0.0
H1011 H 0.35853 0.79256 0.21535 0.0
C1012 C 0.36893 0.72135 0.23808 0.0
C1013 C 0.35535 0.707 0.21563 0.0
C1014 C 0.38653 0.74382 0.2322 0.0
C1015 C 0.39069 0.75234 0.20383 0.0
C1016 C 0.37806 0.73736 0.18144 0.0
H1017 H 0.43949 0.90553 0.12903 0.0
H1018 H 0.41623 0.86427 0.14747 0.0
C1019 C 0.3606 0.71492 0.18726 0.0
C1020 C 0.40751 0.77724 0.19709 0.0
H1021 H 0.41044 0.84543 0.20289 0.0
C1022 C 0.42969 0.77554 0.17974 0.0
C1023 C 0.40042 0.80274 0.20556 0.0
C1024 C 0.37605 0.80591 0.2231 0.0
C1025 C 0.44476 0.79867 0.17022 0.0
C1026 C 0.43776 0.82415 0.1788 0.0
C1027 C 0.41584 0.82584 0.19652 0.0
C1028 C 0.452 0.84938 0.16838 0.0
C1029 C 0.46735 0.79565 0.15016 0.0
C1030 C 0.47975 0.85486 0.17437 0.0
C1031 C 0.49317 0.87826 0.16356 0.0
C1032 C 0.47903 0.89679 0.14678 0.0
C1033 C 0.45108 0.89151 0.14145 0.0
C1034 C 0.43771 0.86804 0.15217 0.0
H1035 H 0.46585 0.77555 0.1403 0.0
H1036 H 0.46728 0.81121 0.13284 0.0
H1037 H 0.48703 0.79811 0.16228 0.0
H1038 H 0.49106 0.84095 0.18727 0.0
H1039 H 0.51474 0.88155 0.16789 0.0
H1040 H 0.17182 0.26354 0.72016 0.0
H1041 H 0.1478 0.23244 0.68654 0.0
H1042 H 0.19431 0.16836 0.71998 0.0
H1043 H 0.21852 0.19941 0.75375 0.0
H1044 H 0.19115 0.17938 0.65524 0.0
H1045 H 0.0923 0.16567 0.70786 0.0
H1046 H 0.10767 0.19936 0.70459 0.0
H1047 H 0.12355 0.17531 0.72738 0.0
C1048 C 0.17689 0.2428 0.72037 0.0
C1049 C 0.19706 0.23386 0.7395 0.0
C1050 C 0.16306 0.22508 0.70131 0.0
C1051 C 0.16924 0.19817 0.70097 0.0
C1052 C 0.18923 0.18908 0.7201 0.0
H1053 H 0.0971 0.06097 0.61053 0.0
H1054 H 0.11692 0.09282 0.64586 0.0
C1055 C 0.20292 0.20675 0.7394 0.0
C1056 C 0.15551 0.17982 0.67984 0.0
H1057 H 0.09497 0.14592 0.66274 0.0
C1058 C 0.17014 0.17203 0.65682 0.0
C1059 C 0.12814 0.17034 0.68214 0.0
C1060 C 0.11189 0.17788 0.70687 0.0
C1061 C 0.15796 0.15506 0.63579 0.0
C1062 C 0.13052 0.14578 0.63793 0.0
C1063 C 0.11595 0.15335 0.66111 0.0
C1064 C 0.11705 0.12716 0.61689 0.0
C1065 C 0.17452 0.14682 0.61159 0.0
C1066 C 0.11016 0.13617 0.58911 0.0
C1067 C 0.09867 0.11805 0.56891 0.0
C1068 C 0.09418 0.0907 0.57625 0.0
C1069 C 0.10053 0.08193 0.60428 0.0
C1070 C 0.11177 0.10005 0.62447 0.0
H1071 H 0.19636 0.15298 0.61499 0.0
H1072 H 0.17207 0.12471 0.60905 0.0
H1073 H 0.1672 0.15629 0.59132 0.0
H1074 H 0.11397 0.15712 0.58301 0.0
H1075 H 0.09385 0.12531 0.54746 0.0
H1076 H 0.63245 0.32106 0.39971 0.0
H1077 H 0.62074 0.35422 0.43426 0.0
H1078 H 0.67285 0.41478 0.39271 0.0
H1079 H 0.6843 0.38164 0.35798 0.0
H1080 H 0.6513 0.38982 0.47283 0.0
H1081 H 0.59704 0.44392 0.38551 0.0
H1082 H 0.60803 0.41064 0.38133 0.0
H1083 H 0.63195 0.43937 0.37967 0.0
C1084 C 0.64184 0.34131 0.39848 0.0
C1085 C 0.6593 0.34896 0.37648 0.0
C1086 C 0.63514 0.36022 0.41811 0.0
C1087 C 0.64563 0.38704 0.41579 0.0
C1088 C 0.66426 0.39428 0.39465 0.0
H1089 H 0.61544 0.51388 0.53538 0.0
H1090 H 0.63775 0.48219 0.50673 0.0
C1091 C 0.67095 0.37536 0.37501 0.0
C1092 C 0.63543 0.40771 0.43404 0.0
H1093 H 0.59776 0.46233 0.43138 0.0
C1094 C 0.63975 0.4058 0.46382 0.0
C1095 C 0.62004 0.42831 0.4222 0.0
C1096 C 0.61373 0.43068 0.39046 0.0
C1097 C 0.62902 0.42394 0.48209 0.0
C1098 C 0.61376 0.4446 0.47019 0.0
C1099 C 0.60961 0.44658 0.44042 0.0
C1100 C 0.60056 0.46352 0.48821 0.0
C1101 C 0.63333 0.42034 0.51398 0.0
C1102 C 0.5723 0.46385 0.48697 0.0
C1103 C 0.55951 0.48195 0.50316 0.0
C1104 C 0.57472 0.50028 0.52088 0.0
C1105 C 0.60309 0.49996 0.52208 0.0
C1106 C 0.61589 0.48176 0.50584 0.0
H1107 H 0.64066 0.40038 0.51984 0.0
H1108 H 0.64867 0.43599 0.52191 0.0
H1109 H 0.61431 0.42266 0.52506 0.0
H1110 H 0.56009 0.45001 0.47344 0.0
H1111 H 0.53766 0.48161 0.50166 0.0
loop_
_geom_bond_atom_site_label_1
_geom_bond_atom_site_label_2
_geom_bond_distance
_geom_bond_site_symmetry_2
_ccdc_geom_bond_type
H0 C3 0.929 . S
H1 C6 0.929 . S
H2 C8 0.930 . S
C3 H0 0.929 . S
C3 C4 1.398 . S
C3 C5 1.396 . S
C4 C3 1.398 . S
C4 C8 1.407 . S
C5 C3 1.396 . S
C5 C6 1.394 . S
C6 H1 0.929 . S
C6 C5 1.394 . S
C6 C7 1.382 . S
C7 C6 1.382 . S
C7 C8 1.392 . S
C7 N9 1.420 . S
C8 H2 0.930 . S
C8 C4 1.407 . S
C8 C7 1.392 . S
N9 C7 1.420 . S
N9 C10 1.244 . S
C10 N9 1.244 . S
H11 C14 0.929 . S
H12 C17 0.929 . S
H13 C19 0.930 . S
C14 H11 0.929 . S
C14 C15 1.398 . S
C14 C16 1.396 . S
C15 C14 1.398 . S
C15 C19 1.407 . S
C16 C14 1.396 . S
C16 C17 1.394 . S
C17 H12 0.929 . S
C17 C16 1.394 . S
C17 C18 1.382 . S
C18 C17 1.382 . S
C18 C19 1.392 . S
C18 N20 1.420 . S
C19 H13 0.930 . S
C19 C15 1.407 . S
C19 C18 1.392 . S
N20 C18 1.420 . S
N20 C21 1.244 . S
C21 N20 1.244 . S
H22 C25 0.929 . S
H23 C28 0.929 . S
H24 C30 0.930 . S
C25 H22 0.929 . S
C25 C26 1.398 . S
C25 C27 1.396 . S
C26 C25 1.398 . S
C26 C30 1.407 . S
C27 C25 1.396 . S
C27 C28 1.394 . S
C28 H23 0.929 . S
C28 C27 1.394 . S
C28 C29 1.382 . S
C29 C28 1.382 . S
C29 C30 1.392 . S
C29 N31 1.420 . S
C30 H24 0.930 . S
C30 C26 1.407 . S
C30 C29 1.392 . S
N31 C29 1.420 . S
N31 C32 1.244 . S
C32 N31 1.244 . S
H33 C36 0.929 . S
H34 C39 0.929 . S
H35 C41 0.930 . S
C36 H33 0.929 . S
C36 C37 1.398 . S
C36 C38 1.396 . S
C37 C36 1.398 . S
C37 C41 1.407 . S
C38 C36 1.396 . S
C38 C39 1.394 . S
C39 H34 0.929 . S
C39 C38 1.394 . S
C39 C40 1.382 . S
C40 C39 1.382 . S
C40 C41 1.392 . S
C40 N42 1.420 . S
C41 H35 0.930 . S
C41 C37 1.407 . S
C41 C40 1.392 . S
N42 C40 1.420 . S
N42 C43 1.244 . S
C43 N42 1.244 . S
H44 C47 0.929 . S
H45 C50 0.929 . S
H46 C52 0.930 . S
C47 H44 0.929 . S
C47 C48 1.398 . S
C47 C49 1.396 . S
C48 C47 1.398 . S
C48 C52 1.407 . S
C49 C47 1.396 . S
C49 C50 1.394 . S
C50 H45 0.929 . S
C50 C49 1.394 . S
C50 C51 1.382 . S
C51 C50 1.382 . S
C51 C52 1.392 . S
C51 N53 1.420 . S
C52 H46 0.930 . S
C52 C48 1.407 . S
C52 C51 1.392 . S
N53 C51 1.420 . S
N53 C54 1.244 . S
C54 N53 1.244 . S
H55 C58 0.929 . S
H56 C61 0.929 . S
H57 C63 0.930 . S
C58 H55 0.929 . S
C58 C59 1.398 . S
C58 C60 1.396 . S
C59 C58 1.398 . S
C59 C63 1.407 . S
C60 C58 1.396 . S
C60 C61 1.394 . S
C61 H56 0.929 . S
C61 C60 1.394 . S
C61 C62 1.382 . S
C62 C61 1.382 . S
C62 C63 1.392 . S
C62 N64 1.420 . S
C63 H57 0.930 . S
C63 C59 1.407 . S
C63 C62 1.392 . S
N64 C62 1.420 . S
N64 C65 1.244 . S
C65 N64 1.244 . S
H66 C69 0.929 . S
H67 C72 0.929 . S
H68 C74 0.930 . S
C69 H66 0.929 . S
C69 C70 1.398 . S
C69 C71 1.396 . S
C70 C69 1.398 . S
C70 C74 1.407 . S
C71 C69 1.396 . S
C71 C72 1.394 . S
C72 H67 0.929 . S
C72 C71 1.394 . S
C72 C73 1.382 . S
C73 C72 1.382 . S
C73 C74 1.392 . S
C73 N75 1.420 . S
C74 H68 0.930 . S
C74 C70 1.407 . S
C74 C73 1.392 . S
N75 C73 1.420 . S
N75 C76 1.244 . S
C76 N75 1.244 . S
H77 C80 0.929 . S
H78 C83 0.929 . S
H79 C85 0.930 . S
C80 H77 0.929 . S
C80 C81 1.398 . S
C80 C82 1.396 . S
C81 C80 1.398 . S
C81 C85 1.407 . S
C82 C80 1.396 . S
C82 C83 1.394 . S
C83 H78 0.929 . S
C83 C82 1.394 . S
C83 C84 1.382 . S
C84 C83 1.382 . S
C84 C85 1.392 . S
C84 N86 1.420 . S
C85 H79 0.930 . S
C85 C81 1.407 . S
C85 C84 1.392 . S
N86 C84 1.420 . S
N86 C87 1.244 . S
C87 N86 1.244 . S
Nd88 C90 2.836 1_545 S
Nd88 O108 2.500 1_545 S
Nd88 O109 2.492 1_545 S
Nd88 O110 2.487 . S
Nd88 O111 2.682 . S
Nd88 O112 2.410 . S
Nd88 O117 2.414 1_445 S
Nd88 O119 2.424 . S
Nd89 C99 2.836 . S
Nd89 O111 2.414 1_655 S
Nd89 O113 2.424 . S
Nd89 O114 2.500 . S
Nd89 O115 2.492 . S
Nd89 O116 2.487 1_545 S
Nd89 O117 2.682 1_545 S
Nd89 O118 2.410 . S
C90 Nd88 2.836 1_565 S
C90 C91 1.498 . S
C90 O108 1.258 . S
C90 O109 1.239 . S
C91 C90 1.498 . S
C91 C92 1.366 . S
C91 C96 1.407 . S
C92 C91 1.366 . S
C92 C93 1.392 . S
C92 H120 0.930 . S
C93 C92 1.392 . S
C93 C94 1.398 . S
C93 H121 0.929 . S
C94 C93 1.398 . S
C94 C95 1.352 . S
C95 C94 1.352 . S
C95 C96 1.384 . S
C95 H122 0.930 . S
C96 C91 1.407 . S
C96 C95 1.384 . S
C96 H123 0.929 . S
C97 O110 1.241 . S
C97 O111 1.273 . S
C98 O112 1.251 1_665 S
C98 O113 1.268 1_565 S
C99 Nd89 2.836 . S
C99 C100 1.498 . S
C99 O114 1.258 . S
C99 O115 1.239 . S
C100 C99 1.498 . S
C100 C101 1.366 . S
C100 C105 1.407 . S
C101 C100 1.366 . S
C101 C102 1.392 . S
C101 H124 0.930 . S
C102 C101 1.392 . S
C102 C103 1.398 . S
C102 H125 0.929 . S
C103 C102 1.398 . S
C103 C104 1.352 . S
C104 C103 1.352 . S
C104 C105 1.384 . S
C104 H126 0.930 . S
C105 C100 1.407 . S
C105 C104 1.384 . S
C105 H127 0.929 . S
C106 O116 1.241 . S
C106 O117 1.273 . S
C107 O118 1.251 1_455 S
C107 O119 1.268 . S
O108 Nd88 2.500 1_565 S
O108 C90 1.258 . S
O109 Nd88 2.492 1_565 S
O109 C90 1.239 . S
O110 Nd88 2.487 . S
O110 C97 1.241 . S
O111 Nd88 2.682 . S
O111 Nd89 2.414 1_455 S
O111 C97 1.273 . S
O112 Nd88 2.410 . S
O112 C98 1.251 1_445 S
O113 Nd89 2.424 . S
O113 C98 1.268 1_545 S
O114 Nd89 2.500 . S
O114 C99 1.258 . S
O115 Nd89 2.492 . S
O115 C99 1.239 . S
O116 Nd89 2.487 1_565 S
O116 C106 1.241 . S
O117 Nd88 2.414 1_665 S
O117 Nd89 2.682 1_565 S
O117 C106 1.273 . S
O118 Nd89 2.410 . S
O118 C107 1.251 1_655 S
O119 Nd88 2.424 . S
O119 C107 1.268 . S
H120 C92 0.930 . S
H121 C93 0.929 . S
H122 C95 0.930 . S
H123 C96 0.929 . S
H124 C101 0.930 . S
H125 C102 0.929 . S
H126 C104 0.930 . S
H127 C105 0.929 . S
Nd128 C130 2.836 1_545 S
Nd128 O148 2.500 1_545 S
Nd128 O149 2.492 1_545 S
Nd128 O150 2.487 . S
Nd128 O151 2.682 . S
Nd128 O152 2.410 1_545 S
Nd128 O157 2.414 . S
Nd128 O159 2.424 . S
Nd129 C139 2.836 . S
Nd129 O151 2.414 . S
Nd129 O153 2.424 1_554 S
Nd129 O154 2.500 . S
Nd129 O155 2.492 1_554 S
Nd129 O156 2.487 . S
Nd129 O157 2.682 . S
Nd129 O158 2.410 . S
C130 Nd128 2.836 1_565 S
C130 C131 1.498 . S
C130 O148 1.258 . S
C130 O149 1.239 . S
C131 C130 1.498 . S
C131 C132 1.366 . S
C131 C136 1.407 . S
C132 C131 1.366 . S
C132 C133 1.392 . S
C132 H160 0.930 . S
C133 C132 1.392 . S
C133 C134 1.398 . S
C133 H161 0.929 . S
C134 C133 1.398 . S
C134 C135 1.352 . S
C135 C134 1.352 . S
C135 C136 1.384 . S
C135 H162 0.930 . S
C136 C131 1.407 . S
C136 C135 1.384 . S
C136 H163 0.929 . S
C137 O150 1.241 . S
C137 O151 1.273 . S
C138 O152 1.251 . S
C138 O153 1.268 1_564 S
C139 Nd129 2.836 . S
C139 C140 1.498 . S
C139 O154 1.258 . S
C139 O155 1.239 1_554 S
C140 C139 1.498 . S
C140 C141 1.366 . S
C140 C145 1.407 1_554 S
C141 C140 1.366 . S
C141 C142 1.392 . S
C141 H164 0.930 . S
C142 C141 1.392 . S
C142 C143 1.398 1_554 S
C142 H165 0.929 . S
C143 C142 1.398 1_556 S
C143 C144 1.352 . S
C144 C143 1.352 . S
C144 C145 1.384 . S
C144 H166 0.930 . S
C145 C140 1.407 1_556 S
C145 C144 1.384 . S
C145 H167 0.929 . S
C146 O156 1.241 . S
C146 O157 1.273 . S
C147 O158 1.251 . S
C147 O159 1.268 . S
O148 Nd128 2.500 1_565 S
O148 C130 1.258 . S
O149 Nd128 2.492 1_565 S
O149 C130 1.239 . S
O150 Nd128 2.487 . S
O150 C137 1.241 . S
O151 Nd128 2.682 . S
O151 Nd129 2.414 . S
O151 C137 1.273 . S
O152 Nd128 2.410 1_565 S
O152 C138 1.251 . S
O153 Nd129 2.424 1_556 S
O153 C138 1.268 1_546 S
O154 Nd129 2.500 . S
O154 C139 1.258 . S
O155 Nd129 2.492 1_556 S
O155 C139 1.239 1_556 S
O156 Nd129 2.487 . S
O156 C146 1.241 . S
O157 Nd128 2.414 . S
O157 Nd129 2.682 . S
O157 C146 1.273 . S
O158 Nd129 2.410 . S
O158 C147 1.251 . S
O159 Nd128 2.424 . S
O159 C147 1.268 . S
H160 C132 0.930 . S
H161 C133 0.929 . S
H162 C135 0.930 . S
H163 C136 0.929 . S
H164 C141 0.930 . S
H165 C142 0.929 . S
H166 C144 0.930 . S
H167 C145 0.929 . S
Nd168 C170 2.836 . S
Nd168 O188 2.500 . S
Nd168 O189 2.492 . S
Nd168 O190 2.487 . S
Nd168 O191 2.682 . S
Nd168 O192 2.410 . S
Nd168 O197 2.414 . S
Nd168 O199 2.424 . S
Nd169 C179 2.836 . S
Nd169 O191 2.414 . S
Nd169 O193 2.424 . S
Nd169 O194 2.500 . S
Nd169 O195 2.492 . S
Nd169 O196 2.487 . S
Nd169 O197 2.682 . S
Nd169 O198 2.410 . S
C170 Nd168 2.836 . S
C170 C171 1.498 . S
C170 O188 1.258 . S
C170 O189 1.239 . S
C171 C170 1.498 . S
C171 C172 1.366 . S
C171 C176 1.407 . S
C172 C171 1.366 . S
C172 C173 1.392 . S
C172 H200 0.930 . S
C173 C172 1.392 . S
C173 C174 1.398 . S
C173 H201 0.929 . S
C174 C173 1.398 . S
C174 C175 1.352 . S
C175 C174 1.352 . S
C175 C176 1.384 . S
C175 H202 0.930 . S
C176 C171 1.407 . S
C176 C175 1.384 . S
C176 H203 0.929 . S
C177 O190 1.241 . S
C177 O191 1.273 . S
C178 O192 1.251 . S
C178 O193 1.268 . S
C179 Nd169 2.836 . S
C179 C180 1.498 . S
C179 O194 1.258 . S
C179 O195 1.239 . S
C180 C179 1.498 . S
C180 C181 1.366 . S
C180 C185 1.407 . S
C181 C180 1.366 . S
C181 C182 1.392 . S
C181 H204 0.930 . S
C182 C181 1.392 . S
C182 C183 1.398 . S
C182 H205 0.929 . S
C183 C182 1.398 . S
C183 C184 1.352 . S
C184 C183 1.352 . S
C184 C185 1.384 . S
C184 H206 0.930 . S
C185 C180 1.407 . S
C185 C184 1.384 . S
C185 H207 0.929 . S
C186 O196 1.241 . S
C186 O197 1.273 . S
C187 O198 1.251 . S
C187 O199 1.268 . S
O188 Nd168 2.500 . S
O188 C170 1.258 . S
O189 Nd168 2.492 . S
O189 C170 1.239 . S
O190 Nd168 2.487 . S
O190 C177 1.241 . S
O191 Nd168 2.682 . S
O191 Nd169 2.414 . S
O191 C177 1.273 . S
O192 Nd168 2.410 . S
O192 C178 1.251 . S
O193 Nd169 2.424 . S
O193 C178 1.268 . S
O194 Nd169 2.500 . S
O194 C179 1.258 . S
O195 Nd169 2.492 . S
O195 C179 1.239 . S
O196 Nd169 2.487 . S
O196 C186 1.241 . S
O197 Nd168 2.414 . S
O197 Nd169 2.682 . S
O197 C186 1.273 . S
O198 Nd169 2.410 . S
O198 C187 1.251 . S
O199 Nd168 2.424 . S
O199 C187 1.268 . S
H200 C172 0.930 . S
H201 C173 0.929 . S
H202 C175 0.930 . S
H203 C176 0.929 . S
H204 C181 0.930 . S
H205 C182 0.929 . S
H206 C184 0.930 . S
H207 C185 0.929 . S
Nd208 C210 2.836 1_455 S
Nd208 O228 2.500 1_455 S
Nd208 O229 2.492 . S
Nd208 O230 2.487 . S
Nd208 O231 2.682 . S
Nd208 O232 2.410 . S
Nd208 O237 2.414 1_455 S
Nd208 O239 2.424 . S
Nd209 C219 2.836 . S
Nd209 O231 2.414 1_556 S
Nd209 O233 2.424 . S
Nd209 O234 2.500 . S
Nd209 O235 2.492 . S
Nd209 O236 2.487 1_455 S
Nd209 O237 2.682 1_456 S
Nd209 O238 2.410 . S
C210 Nd208 2.836 1_655 S
C210 C211 1.498 . S
C210 O228 1.258 . S
C210 O229 1.239 1_655 S
C211 C210 1.498 . S
C211 C212 1.366 . S
C211 C216 1.407 . S
C212 C211 1.366 . S
C212 C213 1.392 . S
C212 H240 0.930 . S
C213 C212 1.392 . S
C213 C214 1.398 . S
C213 H241 0.929 . S
C214 C213 1.398 . S
C214 C215 1.352 . S
C215 C214 1.352 . S
C215 C216 1.384 . S
C215 H242 0.930 . S
C216 C211 1.407 . S
C216 C215 1.384 . S
C216 H243 0.929 1_655 S
C217 O230 1.241 . S
C217 O231 1.273 . S
C218 O232 1.251 . S
C218 O233 1.268 1_554 S
C219 Nd209 2.836 . S
C219 C220 1.498 . S
C219 O234 1.258 . S
C219 O235 1.239 . S
C220 C219 1.498 . S
C220 C221 1.366 . S
C220 C225 1.407 . S
C221 C220 1.366 . S
C221 C222 1.392 . S
C221 H244 0.930 . S
C222 C221 1.392 . S
C222 C223 1.398 . S
C222 H245 0.929 . S
C223 C222 1.398 . S
C223 C224 1.352 . S
C224 C223 1.352 . S
C224 C225 1.384 . S
C224 H246 0.930 . S
C225 C220 1.407 . S
C225 C224 1.384 . S
C225 H247 0.929 . S
C226 O236 1.241 . S
C226 O237 1.273 1_556 S
C227 O238 1.251 1_554 S
C227 O239 1.268 . S
O228 Nd208 2.500 1_655 S
O228 C210 1.258 . S
O229 Nd208 2.492 . S
O229 C210 1.239 1_455 S
O230 Nd208 2.487 . S
O230 C217 1.241 . S
O231 Nd208 2.682 . S
O231 Nd209 2.414 1_554 S
O231 C217 1.273 . S
O232 Nd208 2.410 . S
O232 C218 1.251 . S
O233 Nd209 2.424 . S
O233 C218 1.268 1_556 S
O234 Nd209 2.500 . S
O234 C219 1.258 . S
O235 Nd209 2.492 . S
O235 C219 1.239 . S
O236 Nd209 2.487 1_655 S
O236 C226 1.241 . S
O237 Nd208 2.414 1_655 S
O237 Nd209 2.682 1_654 S
O237 C226 1.273 1_554 S
O238 Nd209 2.410 . S
O238 C227 1.251 1_556 S
O239 Nd208 2.424 . S
O239 C227 1.268 . S
H240 C212 0.930 . S
H241 C213 0.929 . S
H242 C215 0.930 . S
H243 C216 0.929 1_455 S
H244 C221 0.930 . S
H245 C222 0.929 . S
H246 C224 0.930 . S
H247 C225 0.929 . S
H248 C256 0.929 . S
H249 C258 0.930 . S
H250 C260 0.930 . S
H251 C263 0.929 . S
H252 C266 0.930 . S
H253 C268 0.960 . S
H254 C268 0.960 . S
H255 C268 0.960 . S
C256 H248 0.929 . S
C256 C257 1.377 . S
C256 C258 1.384 . S
C257 C256 1.377 . S
C257 C263 1.390 . S
C258 H249 0.930 . S
C258 C256 1.384 . S
C258 C259 1.372 . S
C259 C258 1.372 . S
C259 C260 1.400 . S
C259 C264 1.490 . S
C260 H250 0.930 . S
C260 C259 1.400 . S
C260 C263 1.386 . S
H261 C277 0.930 . S
H262 C278 0.931 . S
C263 H251 0.929 . S
C263 C257 1.390 . S
C263 C260 1.386 . S
C264 C259 1.490 . S
C264 C266 1.395 . S
C264 C267 1.403 . S
H265 C271 0.930 . S
C266 H252 0.930 . S
C266 C264 1.395 . S
C266 C269 1.403 . S
C267 C264 1.403 . S
C267 C268 1.524 . S
C267 C271 1.400 . S
C268 H253 0.960 . S
C268 H254 0.960 . S
C268 H255 0.960 . S
C268 C267 1.524 . S
C269 C266 1.403 . S
C269 C270 1.392 . S
C269 C273 1.495 . S
C270 C269 1.392 . S
C270 C271 1.385 . S
C270 C272 1.478 . S
C271 H265 0.930 . S
C271 C267 1.400 . S
C271 C270 1.385 . S
C272 C270 1.478 . S
C272 C274 1.381 . S
C272 C278 1.383 . S
C273 C269 1.495 . S
C273 H279 0.959 . S
C273 H280 0.961 . S
C273 H281 0.960 . S
C274 C272 1.381 . S
C274 C275 1.394 . S
C274 H282 0.930 . S
C275 C274 1.394 . S
C275 C276 1.383 . S
C275 H283 0.929 . S
C276 C275 1.383 . S
C276 C277 1.377 . S
C277 H261 0.930 . S
C277 C276 1.377 . S
C277 C278 1.379 . S
C278 H262 0.931 . S
C278 C272 1.383 . S
C278 C277 1.379 . S
H279 C273 0.959 . S
H280 C273 0.961 . S
H281 C273 0.960 . S
H282 C274 0.930 . S
H283 C275 0.929 . S
H284 C292 0.929 . S
H285 C294 0.930 . S
H286 C296 0.930 . S
H287 C299 0.929 . S
H288 C302 0.930 . S
H289 C304 0.960 . S
H290 C304 0.960 . S
H291 C304 0.960 . S
C292 H284 0.929 . S
C292 C293 1.377 . S
C292 C294 1.384 . S
C293 C292 1.377 . S
C293 C299 1.390 . S
C294 H285 0.930 . S
C294 C292 1.384 . S
C294 C295 1.372 . S
C295 C294 1.372 . S
C295 C296 1.400 . S
C295 C300 1.490 . S
C296 H286 0.930 . S
C296 C295 1.400 . S
C296 C299 1.386 . S
H297 C313 0.930 1_554 S
H298 C314 0.931 . S
C299 H287 0.929 . S
C299 C293 1.390 . S
C299 C296 1.386 . S
C300 C295 1.490 . S
C300 C302 1.395 . S
C300 C303 1.403 . S
H301 C307 0.930 . S
C302 H288 0.930 . S
C302 C300 1.395 . S
C302 C305 1.403 . S
C303 C300 1.403 . S
C303 C304 1.524 . S
C303 C307 1.400 . S
C304 H289 0.960 . S
C304 H290 0.960 . S
C304 H291 0.960 . S
C304 C303 1.524 . S
C305 C302 1.403 . S
C305 C306 1.392 . S
C305 C309 1.495 . S
C306 C305 1.392 . S
C306 C307 1.385 . S
C306 C308 1.478 . S
C307 H301 0.930 . S
C307 C303 1.400 . S
C307 C306 1.385 . S
C308 C306 1.478 . S
C308 C310 1.381 . S
C308 C314 1.383 . S
C309 C305 1.495 . S
C309 H315 0.959 . S
C309 H316 0.961 . S
C309 H317 0.960 . S
C310 C308 1.381 . S
C310 C311 1.394 . S
C310 H318 0.930 . S
C311 C310 1.394 . S
C311 C312 1.383 . S
C311 H319 0.929 . S
C312 C311 1.383 . S
C312 C313 1.377 . S
C313 H297 0.930 1_556 S
C313 C312 1.377 . S
C313 C314 1.379 . S
C314 H298 0.931 . S
C314 C308 1.383 . S
C314 C313 1.379 . S
H315 C309 0.959 . S
H316 C309 0.961 . S
H317 C309 0.960 . S
H318 C310 0.930 . S
H319 C311 0.929 . S
H320 C328 0.929 . S
H321 C330 0.930 . S
H322 C332 0.930 . S
H323 C335 0.929 . S
H324 C338 0.930 . S
H325 C340 0.960 . S
H326 C340 0.960 . S
H327 C340 0.960 . S
C328 H320 0.929 . S
C328 C329 1.377 . S
C328 C330 1.384 . S
C329 C328 1.377 . S
C329 C335 1.390 . S
C330 H321 0.930 . S
C330 C328 1.384 . S
C330 C331 1.372 . S
C331 C330 1.372 . S
C331 C332 1.400 . S
C331 C336 1.490 . S
C332 H322 0.930 . S
C332 C331 1.400 . S
C332 C335 1.386 . S
H333 C349 0.930 . S
H334 C350 0.931 . S
C335 H323 0.929 . S
C335 C329 1.390 . S
C335 C332 1.386 . S
C336 C331 1.490 . S
C336 C338 1.395 . S
C336 C339 1.403 . S
H337 C343 0.930 . S
C338 H324 0.930 . S
C338 C336 1.395 . S
C338 C341 1.403 . S
C339 C336 1.403 . S
C339 C340 1.524 . S
C339 C343 1.400 . S
C340 H325 0.960 . S
C340 H326 0.960 . S
C340 H327 0.960 . S
C340 C339 1.524 . S
C341 C338 1.403 . S
C341 C342 1.392 . S
C341 C345 1.495 . S
C342 C341 1.392 . S
C342 C343 1.385 . S
C342 C344 1.478 . S
C343 H337 0.930 . S
C343 C339 1.400 . S
C343 C342 1.385 . S
C344 C342 1.478 . S
C344 C346 1.381 . S
C344 C350 1.383 . S
C345 C341 1.495 . S
C345 H351 0.959 . S
C345 H352 0.961 . S
C345 H353 0.960 . S
C346 C344 1.381 . S
C346 C347 1.394 . S
C346 H354 0.930 . S
C347 C346 1.394 . S
C347 C348 1.383 . S
C347 H355 0.929 . S
C348 C347 1.383 . S
C348 C349 1.377 . S
C349 H333 0.930 . S
C349 C348 1.377 . S
C349 C350 1.379 . S
C350 H334 0.931 . S
C350 C344 1.383 . S
C350 C349 1.379 . S
H351 C345 0.959 . S
H352 C345 0.961 . S
H353 C345 0.960 . S
H354 C346 0.930 . S
H355 C347 0.929 . S
H356 C364 0.929 . S
H357 C366 0.930 . S
H358 C368 0.930 . S
H359 C371 0.929 . S
H360 C374 0.930 . S
H361 C376 0.960 . S
H362 C376 0.960 . S
H363 C376 0.960 . S
C364 H356 0.929 . S
C364 C365 1.377 . S
C364 C366 1.384 . S
C365 C364 1.377 . S
C365 C371 1.390 . S
C366 H357 0.930 . S
C366 C364 1.384 . S
C366 C367 1.372 . S
C367 C366 1.372 . S
C367 C368 1.400 . S
C367 C372 1.490 . S
C368 H358 0.930 . S
C368 C367 1.400 . S
C368 C371 1.386 . S
H369 C385 0.930 . S
H370 C386 0.931 . S
C371 H359 0.929 . S
C371 C365 1.390 . S
C371 C368 1.386 . S
C372 C367 1.490 . S
C372 C374 1.395 . S
C372 C375 1.403 . S
H373 C379 0.930 . S
C374 H360 0.930 . S
C374 C372 1.395 . S
C374 C377 1.403 . S
C375 C372 1.403 . S
C375 C376 1.524 . S
C375 C379 1.400 . S
C376 H361 0.960 . S
C376 H362 0.960 . S
C376 H363 0.960 . S
C376 C375 1.524 . S
C377 C374 1.403 . S
C377 C378 1.392 . S
C377 C381 1.495 . S
C378 C377 1.392 . S
C378 C379 1.385 . S
C378 C380 1.478 . S
C379 H373 0.930 . S
C379 C375 1.400 . S
C379 C378 1.385 . S
C380 C378 1.478 . S
C380 C382 1.381 . S
C380 C386 1.383 . S
C381 C377 1.495 . S
C381 H387 0.959 . S
C381 H388 0.961 . S
C381 H389 0.960 . S
C382 C380 1.381 . S
C382 C383 1.394 . S
C382 H390 0.930 . S
C383 C382 1.394 . S
C383 C384 1.383 . S
C383 H391 0.929 . S
C384 C383 1.383 . S
C384 C385 1.377 . S
C385 H369 0.930 . S
C385 C384 1.377 . S
C385 C386 1.379 . S
C386 H370 0.931 . S
C386 C380 1.383 . S
C386 C385 1.379 . S
H387 C381 0.959 . S
H388 C381 0.961 . S
H389 C381 0.960 . S
H390 C382 0.930 . S
H391 C383 0.929 . S
H392 C400 0.929 . S
H393 C402 0.930 . S
H394 C404 0.930 . S
H395 C407 0.929 . S
H396 C410 0.930 . S
H397 C412 0.960 . S
H398 C412 0.960 . S
H399 C412 0.960 . S
C400 H392 0.929 . S
C400 C401 1.377 . S
C400 C402 1.384 . S
C401 C400 1.377 . S
C401 C407 1.390 . S
C402 H393 0.930 . S
C402 C400 1.384 . S
C402 C403 1.372 . S
C403 C402 1.372 . S
C403 C404 1.400 . S
C403 C408 1.490 . S
C404 H394 0.930 . S
C404 C403 1.400 . S
C404 C407 1.386 . S
H405 C421 0.930 . S
H406 C422 0.931 . S
C407 H395 0.929 . S
C407 C401 1.390 . S
C407 C404 1.386 . S
C408 C403 1.490 . S
C408 C410 1.395 . S
C408 C411 1.403 . S
H409 C415 0.930 . S
C410 H396 0.930 . S
C410 C408 1.395 . S
C410 C413 1.403 . S
C411 C408 1.403 . S
C411 C412 1.524 . S
C411 C415 1.400 . S
C412 H397 0.960 . S
C412 H398 0.960 . S
C412 H399 0.960 . S
C412 C411 1.524 . S
C413 C410 1.403 . S
C413 C414 1.392 . S
C413 C417 1.495 . S
C414 C413 1.392 . S
C414 C415 1.385 . S
C414 C416 1.478 . S
C415 H409 0.930 . S
C415 C411 1.400 . S
C415 C414 1.385 . S
C416 C414 1.478 . S
C416 C418 1.381 . S
C416 C422 1.383 . S
C417 C413 1.495 . S
C417 H423 0.959 . S
C417 H424 0.961 . S
C417 H425 0.960 . S
C418 C416 1.381 . S
C418 C419 1.394 . S
C418 H426 0.930 . S
C419 C418 1.394 . S
C419 C420 1.383 . S
C419 H427 0.929 . S
C420 C419 1.383 . S
C420 C421 1.377 . S
C421 H405 0.930 . S
C421 C420 1.377 . S
C421 C422 1.379 . S
C422 H406 0.931 . S
C422 C416 1.383 . S
C422 C421 1.379 . S
H423 C417 0.959 . S
H424 C417 0.961 . S
H425 C417 0.960 . S
H426 C418 0.930 . S
H427 C419 0.929 . S
H428 C436 0.929 . S
H429 C438 0.930 . S
H430 C440 0.930 . S
H431 C443 0.929 . S
H432 C446 0.930 . S
H433 C448 0.960 . S
H434 C448 0.960 . S
H435 C448 0.960 . S
C436 H428 0.929 . S
C436 C437 1.377 . S
C436 C438 1.384 . S
C437 C436 1.377 . S
C437 C443 1.390 . S
C438 H429 0.930 . S
C438 C436 1.384 . S
C438 C439 1.372 . S
C439 C438 1.372 . S
C439 C440 1.400 . S
C439 C444 1.490 . S
C440 H430 0.930 . S
C440 C439 1.400 . S
C440 C443 1.386 . S
H441 C457 0.930 . S
H442 C458 0.931 . S
C443 H431 0.929 . S
C443 C437 1.390 . S
C443 C440 1.386 . S
C444 C439 1.490 . S
C444 C446 1.395 . S
C444 C447 1.403 . S
H445 C451 0.930 . S
C446 H432 0.930 . S
C446 C444 1.395 . S
C446 C449 1.403 . S
C447 C444 1.403 . S
C447 C448 1.524 . S
C447 C451 1.400 . S
C448 H433 0.960 . S
C448 H434 0.960 . S
C448 H435 0.960 . S
C448 C447 1.524 . S
C449 C446 1.403 . S
C449 C450 1.392 . S
C449 C453 1.495 . S
C450 C449 1.392 . S
C450 C451 1.385 . S
C450 C452 1.478 . S
C451 H445 0.930 . S
C451 C447 1.400 . S
C451 C450 1.385 . S
C452 C450 1.478 . S
C452 C454 1.381 . S
C452 C458 1.383 . S
C453 C449 1.495 . S
C453 H459 0.959 . S
C453 H460 0.961 . S
C453 H461 0.960 . S
C454 C452 1.381 . S
C454 C455 1.394 . S
C454 H462 0.930 . S
C455 C454 1.394 . S
C455 C456 1.383 . S
C455 H463 0.929 . S
C456 C455 1.383 . S
C456 C457 1.377 . S
C457 H441 0.930 . S
C457 C456 1.377 . S
C457 C458 1.379 . S
C458 H442 0.931 . S
C458 C452 1.383 . S
C458 C457 1.379 . S
H459 C453 0.959 . S
H460 C453 0.961 . S
H461 C453 0.960 . S
H462 C454 0.930 . S
H463 C455 0.929 . S
H464 C472 0.929 . S
H465 C474 0.930 . S
H466 C476 0.930 . S
H467 C479 0.929 . S
H468 C482 0.930 . S
H469 C484 0.960 . S
H470 C484 0.960 . S
H471 C484 0.960 . S
C472 H464 0.929 . S
C472 C473 1.377 . S
C472 C474 1.384 . S
C473 C472 1.377 . S
C473 C479 1.390 . S
C474 H465 0.930 . S
C474 C472 1.384 . S
C474 C475 1.372 . S
C475 C474 1.372 . S
C475 C476 1.400 . S
C475 C480 1.490 . S
C476 H466 0.930 . S
C476 C475 1.400 . S
C476 C479 1.386 . S
H477 C493 0.930 . S
H478 C494 0.931 . S
C479 H467 0.929 . S
C479 C473 1.390 . S
C479 C476 1.386 . S
C480 C475 1.490 . S
C480 C482 1.395 . S
C480 C483 1.403 . S
H481 C487 0.930 . S
C482 H468 0.930 . S
C482 C480 1.395 . S
C482 C485 1.403 . S
C483 C480 1.403 . S
C483 C484 1.524 . S
C483 C487 1.400 . S
C484 H469 0.960 . S
C484 H470 0.960 . S
C484 H471 0.960 . S
C484 C483 1.524 . S
C485 C482 1.403 . S
C485 C486 1.392 . S
C485 C489 1.495 . S
C486 C485 1.392 . S
C486 C487 1.385 . S
C486 C488 1.478 . S
C487 H481 0.930 . S
C487 C483 1.400 . S
C487 C486 1.385 . S
C488 C486 1.478 . S
C488 C490 1.381 . S
C488 C494 1.383 . S
C489 C485 1.495 . S
C489 H495 0.959 1_556 S
C489 H496 0.961 1_556 S
C489 H497 0.961 . S
C490 C488 1.381 . S
C490 C491 1.394 . S
C490 H498 0.930 . S
C491 C490 1.394 . S
C491 C492 1.383 . S
C491 H499 0.929 . S
C492 C491 1.383 . S
C492 C493 1.377 . S
C493 H477 0.930 . S
C493 C492 1.377 . S
C493 C494 1.379 . S
C494 H478 0.931 . S
C494 C488 1.383 . S
C494 C493 1.379 . S
H495 C489 0.959 1_554 S
H496 C489 0.961 1_554 S
H497 C489 0.961 . S
H498 C490 0.930 . S
H499 C491 0.929 . S
H500 C508 0.929 . S
H501 C510 0.930 . S
H502 C512 0.930 . S
H503 C515 0.929 . S
H504 C518 0.930 . S
H505 C520 0.960 . S
H506 C520 0.960 . S
H507 C520 0.960 . S
C508 H500 0.929 . S
C508 C509 1.377 . S
C508 C510 1.384 . S
C509 C508 1.377 . S
C509 C515 1.390 . S
C510 H501 0.930 . S
C510 C508 1.384 . S
C510 C511 1.372 . S
C511 C510 1.372 . S
C511 C512 1.400 . S
C511 C516 1.490 . S
C512 H502 0.930 . S
C512 C511 1.400 . S
C512 C515 1.386 . S
H513 C529 0.930 . S
H514 C530 0.931 . S
C515 H503 0.929 . S
C515 C509 1.390 . S
C515 C512 1.386 . S
C516 C511 1.490 . S
C516 C518 1.395 . S
C516 C519 1.403 . S
H517 C523 0.930 . S
C518 H504 0.930 . S
C518 C516 1.395 . S
C518 C521 1.403 . S
C519 C516 1.403 . S
C519 C520 1.524 . S
C519 C523 1.400 . S
C520 H505 0.960 . S
C520 H506 0.960 . S
C520 H507 0.960 . S
C520 C519 1.524 . S
C521 C518 1.403 . S
C521 C522 1.392 . S
C521 C525 1.495 . S
C522 C521 1.392 . S
C522 C523 1.385 . S
C522 C524 1.478 . S
C523 H517 0.930 . S
C523 C519 1.400 . S
C523 C522 1.385 . S
C524 C522 1.478 . S
C524 C526 1.381 . S
C524 C530 1.383 . S
C525 C521 1.495 . S
C525 H531 0.959 . S
C525 H532 0.961 . S
C525 H533 0.960 . S
C526 C524 1.381 . S
C526 C527 1.394 . S
C526 H534 0.930 . S
C527 C526 1.394 . S
C527 C528 1.383 . S
C527 H535 0.929 . S
C528 C527 1.383 . S
C528 C529 1.377 . S
C529 H513 0.930 . S
C529 C528 1.377 . S
C529 C530 1.379 . S
C530 H514 0.931 . S
C530 C524 1.383 . S
C530 C529 1.379 . S
H531 C525 0.959 . S
H532 C525 0.961 . S
H533 C525 0.960 . S
H534 C526 0.930 . S
H535 C527 0.929 . S
H536 C544 0.929 . S
H537 C546 0.930 . S
H538 C548 0.930 . S
H539 C551 0.929 . S
H540 C554 0.930 . S
H541 C556 0.960 . S
H542 C556 0.960 . S
H543 C556 0.960 . S
C544 H536 0.929 . S
C544 C545 1.377 . S
C544 C546 1.384 . S
C545 C544 1.377 . S
C545 C551 1.390 . S
C546 H537 0.930 . S
C546 C544 1.384 . S
C546 C547 1.372 . S
C547 C546 1.372 . S
C547 C548 1.400 . S
C547 C552 1.490 . S
C548 H538 0.930 . S
C548 C547 1.400 . S
C548 C551 1.386 . S
H549 C565 0.930 . S
H550 C566 0.931 . S
C551 H539 0.929 . S
C551 C545 1.390 . S
C551 C548 1.386 . S
C552 C547 1.490 . S
C552 C554 1.395 . S
C552 C555 1.403 . S
H553 C559 0.930 . S
C554 H540 0.930 . S
C554 C552 1.395 . S
C554 C557 1.403 . S
C555 C552 1.403 . S
C555 C556 1.524 . S
C555 C559 1.400 . S
C556 H541 0.960 . S
C556 H542 0.960 . S
C556 H543 0.960 . S
C556 C555 1.524 . S
C557 C554 1.403 . S
C557 C558 1.392 . S
C557 C561 1.495 . S
C558 C557 1.392 . S
C558 C559 1.385 . S
C558 C560 1.478 . S
C559 H553 0.930 . S
C559 C555 1.400 . S
C559 C558 1.385 . S
C560 C558 1.478 . S
C560 C562 1.381 . S
C560 C566 1.383 . S
C561 C557 1.495 . S
C561 H567 0.959 . S
C561 H568 0.961 . S
C561 H569 0.960 . S
C562 C560 1.381 . S
C562 C563 1.394 . S
C562 H570 0.930 . S
C563 C562 1.394 . S
C563 C564 1.383 . S
C563 H571 0.929 . S
C564 C563 1.383 . S
C564 C565 1.377 . S
C565 H549 0.930 . S
C565 C564 1.377 . S
C565 C566 1.379 . S
C566 H550 0.931 . S
C566 C560 1.383 . S
C566 C565 1.379 . S
H567 C561 0.959 . S
H568 C561 0.961 . S
H569 C561 0.960 . S
H570 C562 0.930 . S
H571 C563 0.929 . S
H572 C580 0.929 . S
H573 C582 0.930 . S
H574 C584 0.930 . S
H575 C587 0.929 . S
H576 C590 0.930 . S
H577 C592 0.960 . S
H578 C592 0.960 . S
H579 C592 0.960 . S
C580 H572 0.929 . S
C580 C581 1.377 . S
C580 C582 1.384 . S
C581 C580 1.377 . S
C581 C587 1.390 . S
C582 H573 0.930 . S
C582 C580 1.384 . S
C582 C583 1.372 . S
C583 C582 1.372 . S
C583 C584 1.400 . S
C583 C588 1.490 . S
C584 H574 0.930 . S
C584 C583 1.400 . S
C584 C587 1.386 . S
H585 C601 0.930 1_554 S
H586 C602 0.931 . S
C587 H575 0.929 . S
C587 C581 1.390 . S
C587 C584 1.386 . S
C588 C583 1.490 . S
C588 C590 1.395 . S
C588 C591 1.403 . S
H589 C595 0.930 . S
C590 H576 0.930 . S
C590 C588 1.395 . S
C590 C593 1.403 . S
C591 C588 1.403 . S
C591 C592 1.524 . S
C591 C595 1.400 . S
C592 H577 0.960 . S
C592 H578 0.960 . S
C592 H579 0.960 . S
C592 C591 1.524 . S
C593 C590 1.403 . S
C593 C594 1.392 . S
C593 C597 1.495 . S
C594 C593 1.392 . S
C594 C595 1.385 . S
C594 C596 1.478 . S
C595 H589 0.930 . S
C595 C591 1.400 . S
C595 C594 1.385 . S
C596 C594 1.478 . S
C596 C598 1.381 . S
C596 C602 1.383 . S
C597 C593 1.495 . S
C597 H603 0.959 . S
C597 H604 0.961 . S
C597 H605 0.960 . S
C598 C596 1.381 . S
C598 C599 1.394 . S
C598 H606 0.930 . S
C599 C598 1.394 . S
C599 C600 1.383 . S
C599 H607 0.929 . S
C600 C599 1.383 . S
C600 C601 1.377 . S
C601 H585 0.930 1_556 S
C601 C600 1.377 . S
C601 C602 1.379 . S
C602 H586 0.931 . S
C602 C596 1.383 . S
C602 C601 1.379 . S
H603 C597 0.959 . S
H604 C597 0.961 . S
H605 C597 0.960 . S
H606 C598 0.930 . S
H607 C599 0.929 . S
H608 C616 0.929 . S
H609 C618 0.930 . S
H610 C620 0.930 . S
H611 C623 0.929 . S
H612 C626 0.930 . S
H613 C628 0.960 . S
H614 C628 0.960 . S
H615 C628 0.960 . S
C616 H608 0.929 . S
C616 C617 1.377 . S
C616 C618 1.384 . S
C617 C616 1.377 . S
C617 C623 1.390 . S
C618 H609 0.930 . S
C618 C616 1.384 . S
C618 C619 1.372 . S
C619 C618 1.372 . S
C619 C620 1.400 . S
C619 C624 1.490 . S
C620 H610 0.930 . S
C620 C619 1.400 . S
C620 C623 1.386 . S
H621 C637 0.930 1_455 S
H622 C638 0.931 . S
C623 H611 0.929 . S
C623 C617 1.390 . S
C623 C620 1.386 . S
C624 C619 1.490 . S
C624 C626 1.395 . S
C624 C627 1.403 . S
H625 C631 0.930 . S
C626 H612 0.930 . S
C626 C624 1.395 . S
C626 C629 1.403 . S
C627 C624 1.403 . S
C627 C628 1.524 . S
C627 C631 1.400 . S
C628 H613 0.960 . S
C628 H614 0.960 . S
C628 H615 0.960 . S
C628 C627 1.524 . S
C629 C626 1.403 . S
C629 C630 1.392 . S
C629 C633 1.495 . S
C630 C629 1.392 . S
C630 C631 1.385 . S
C630 C632 1.478 . S
C631 H625 0.930 . S
C631 C627 1.400 . S
C631 C630 1.385 . S
C632 C630 1.478 . S
C632 C634 1.381 . S
C632 C638 1.383 . S
C633 C629 1.495 . S
C633 H639 0.959 . S
C633 H640 0.961 . S
C633 H641 0.960 . S
C634 C632 1.381 . S
C634 C635 1.394 . S
C634 H642 0.930 . S
C635 C634 1.394 . S
C635 C636 1.383 . S
C635 H643 0.929 . S
C636 C635 1.383 . S
C636 C637 1.377 . S
C637 H621 0.930 1_655 S
C637 C636 1.377 . S
C637 C638 1.379 . S
C638 H622 0.931 . S
C638 C632 1.383 . S
C638 C637 1.379 . S
H639 C633 0.959 . S
H640 C633 0.961 . S
H641 C633 0.960 . S
H642 C634 0.930 . S
H643 C635 0.929 . S
H644 C652 0.929 . S
H645 C654 0.930 . S
H646 C656 0.930 . S
H647 C659 0.929 . S
H648 C662 0.930 . S
H649 C664 0.960 . S
H650 C664 0.960 . S
H651 C664 0.960 . S
C652 H644 0.929 . S
C652 C653 1.377 . S
C652 C654 1.384 . S
C653 C652 1.377 . S
C653 C659 1.390 . S
C654 H645 0.930 . S
C654 C652 1.384 . S
C654 C655 1.372 . S
C655 C654 1.372 . S
C655 C656 1.400 . S
C655 C660 1.490 . S
C656 H646 0.930 . S
C656 C655 1.400 . S
C656 C659 1.386 . S
H657 C673 0.930 . S
H658 C674 0.931 . S
C659 H647 0.929 . S
C659 C653 1.390 . S
C659 C656 1.386 . S
C660 C655 1.490 . S
C660 C662 1.395 . S
C660 C663 1.403 . S
H661 C667 0.930 . S
C662 H648 0.930 . S
C662 C660 1.395 . S
C662 C665 1.403 . S
C663 C660 1.403 . S
C663 C664 1.524 . S
C663 C667 1.400 . S
C664 H649 0.960 . S
C664 H650 0.960 . S
C664 H651 0.960 . S
C664 C663 1.524 . S
C665 C662 1.403 . S
C665 C666 1.392 . S
C665 C669 1.495 . S
C666 C665 1.392 . S
C666 C667 1.385 . S
C666 C668 1.478 . S
C667 H661 0.930 . S
C667 C663 1.400 . S
C667 C666 1.385 . S
C668 C666 1.478 . S
C668 C670 1.381 . S
C668 C674 1.383 . S
C669 C665 1.495 . S
C669 H675 0.959 . S
C669 H676 0.961 . S
C669 H677 0.960 . S
C670 C668 1.381 . S
C670 C671 1.394 . S
C670 H678 0.930 . S
C671 C670 1.394 . S
C671 C672 1.383 . S
C671 H679 0.929 . S
C672 C671 1.383 . S
C672 C673 1.377 . S
C673 H657 0.930 . S
C673 C672 1.377 . S
C673 C674 1.379 . S
C674 H658 0.931 . S
C674 C668 1.383 . S
C674 C673 1.379 . S
H675 C669 0.959 . S
H676 C669 0.961 . S
H677 C669 0.960 . S
H678 C670 0.930 . S
H679 C671 0.929 . S
H680 C688 0.929 . S
H681 C690 0.930 . S
H682 C692 0.930 . S
H683 C695 0.929 . S
H684 C698 0.930 . S
H685 C700 0.960 . S
H686 C700 0.960 . S
H687 C700 0.960 . S
C688 H680 0.929 . S
C688 C689 1.377 . S
C688 C690 1.384 . S
C689 C688 1.377 . S
C689 C695 1.390 . S
C690 H681 0.930 . S
C690 C688 1.384 . S
C690 C691 1.372 . S
C691 C690 1.372 . S
C691 C692 1.400 . S
C691 C696 1.490 . S
C692 H682 0.930 . S
C692 C691 1.400 . S
C692 C695 1.386 . S
H693 C709 0.930 . S
H694 C710 0.931 . S
C695 H683 0.929 . S
C695 C689 1.390 . S
C695 C692 1.386 . S
C696 C691 1.490 . S
C696 C698 1.395 . S
C696 C699 1.403 . S
H697 C703 0.930 . S
C698 H684 0.930 . S
C698 C696 1.395 . S
C698 C701 1.403 . S
C699 C696 1.403 . S
C699 C700 1.524 . S
C699 C703 1.400 . S
C700 H685 0.960 . S
C700 H686 0.960 . S
C700 H687 0.960 . S
C700 C699 1.524 . S
C701 C698 1.403 . S
C701 C702 1.392 . S
C701 C705 1.495 . S
C702 C701 1.392 . S
C702 C703 1.385 . S
C702 C704 1.478 . S
C703 H697 0.930 . S
C703 C699 1.400 . S
C703 C702 1.385 . S
C704 C702 1.478 . S
C704 C706 1.381 . S
C704 C710 1.383 . S
C705 C701 1.495 . S
C705 H711 0.959 . S
C705 H712 0.961 . S
C705 H713 0.960 . S
C706 C704 1.381 . S
C706 C707 1.394 . S
C706 H714 0.930 . S
C707 C706 1.394 . S
C707 C708 1.383 . S
C707 H715 0.929 . S
C708 C707 1.383 . S
C708 C709 1.377 . S
C709 H693 0.930 . S
C709 C708 1.377 . S
C709 C710 1.379 . S
C710 H694 0.931 . S
C710 C704 1.383 . S
C710 C709 1.379 . S
H711 C705 0.959 . S
H712 C705 0.961 . S
H713 C705 0.960 . S
H714 C706 0.930 . S
H715 C707 0.929 . S
H716 C724 0.929 . S
H717 C726 0.930 . S
H718 C728 0.930 . S
H719 C731 0.929 . S
H720 C734 0.930 . S
H721 C736 0.960 . S
H722 C736 0.960 . S
H723 C736 0.960 . S
C724 H716 0.929 . S
C724 C725 1.377 . S
C724 C726 1.384 . S
C725 C724 1.377 . S
C725 C731 1.390 . S
C726 H717 0.930 . S
C726 C724 1.384 . S
C726 C727 1.372 . S
C727 C726 1.372 . S
C727 C728 1.400 . S
C727 C732 1.490 . S
C728 H718 0.930 . S
C728 C727 1.400 . S
C728 C731 1.386 . S
H729 C745 0.930 . S
H730 C746 0.931 . S
C731 H719 0.929 . S
C731 C725 1.390 . S
C731 C728 1.386 . S
C732 C727 1.490 . S
C732 C734 1.395 . S
C732 C735 1.403 . S
H733 C739 0.930 . S
C734 H720 0.930 . S
C734 C732 1.395 . S
C734 C737 1.403 . S
C735 C732 1.403 . S
C735 C736 1.524 . S
C735 C739 1.400 . S
C736 H721 0.960 . S
C736 H722 0.960 . S
C736 H723 0.960 . S
C736 C735 1.524 . S
C737 C734 1.403 . S
C737 C738 1.392 . S
C737 C741 1.495 . S
C738 C737 1.392 . S
C738 C739 1.385 . S
C738 C740 1.478 . S
C739 H733 0.930 . S
C739 C735 1.400 . S
C739 C738 1.385 . S
C740 C738 1.478 . S
C740 C742 1.381 . S
C740 C746 1.383 . S
C741 C737 1.495 . S
C741 H747 0.959 . S
C741 H748 0.961 . S
C741 H749 0.960 . S
C742 C740 1.381 . S
C742 C743 1.394 . S
C742 H750 0.930 . S
C743 C742 1.394 . S
C743 C744 1.383 . S
C743 H751 0.929 . S
C744 C743 1.383 . S
C744 C745 1.377 . S
C745 H729 0.930 . S
C745 C744 1.377 . S
C745 C746 1.379 . S
C746 H730 0.931 . S
C746 C740 1.383 . S
C746 C745 1.379 . S
H747 C741 0.959 . S
H748 C741 0.961 . S
H749 C741 0.960 . S
H750 C742 0.930 . S
H751 C743 0.929 . S
H752 C760 0.929 . S
H753 C762 0.930 . S
H754 C764 0.930 . S
H755 C767 0.929 . S
H756 C770 0.930 . S
H757 C772 0.960 . S
H758 C772 0.960 . S
H759 C772 0.960 . S
C760 H752 0.929 . S
C760 C761 1.377 . S
C760 C762 1.384 . S
C761 C760 1.377 . S
C761 C767 1.390 . S
C762 H753 0.930 . S
C762 C760 1.384 . S
C762 C763 1.372 . S
C763 C762 1.372 . S
C763 C764 1.400 . S
C763 C768 1.490 . S
C764 H754 0.930 . S
C764 C763 1.400 . S
C764 C767 1.386 . S
H765 C781 0.930 . S
H766 C782 0.931 . S
C767 H755 0.929 . S
C767 C761 1.390 . S
C767 C764 1.386 . S
C768 C763 1.490 . S
C768 C770 1.395 . S
C768 C771 1.403 . S
H769 C775 0.930 . S
C770 H756 0.930 . S
C770 C768 1.395 . S
C770 C773 1.403 . S
C771 C768 1.403 . S
C771 C772 1.524 . S
C771 C775 1.400 . S
C772 H757 0.960 . S
C772 H758 0.960 . S
C772 H759 0.960 . S
C772 C771 1.524 . S
C773 C770 1.403 . S
C773 C774 1.392 . S
C773 C777 1.495 . S
C774 C773 1.392 . S
C774 C775 1.385 . S
C774 C776 1.478 . S
C775 H769 0.930 . S
C775 C771 1.400 . S
C775 C774 1.385 . S
C776 C774 1.478 . S
C776 C778 1.381 . S
C776 C782 1.383 . S
C777 C773 1.495 . S
C777 H783 0.959 . S
C777 H784 0.961 . S
C777 H785 0.960 . S
C778 C776 1.381 . S
C778 C779 1.394 . S
C778 H786 0.930 . S
C779 C778 1.394 . S
C779 C780 1.383 . S
C779 H787 0.929 . S
C780 C779 1.383 . S
C780 C781 1.377 . S
C781 H765 0.930 . S
C781 C780 1.377 . S
C781 C782 1.379 . S
C782 H766 0.931 . S
C782 C776 1.383 . S
C782 C781 1.379 . S
H783 C777 0.959 . S
H784 C777 0.961 . S
H785 C777 0.960 . S
H786 C778 0.930 . S
H787 C779 0.929 . S
H788 C796 0.929 . S
H789 C798 0.930 . S
H790 C800 0.930 . S
H791 C803 0.929 . S
H792 C806 0.930 . S
H793 C808 0.960 . S
H794 C808 0.960 . S
H795 C808 0.960 . S
C796 H788 0.929 . S
C796 C797 1.377 . S
C796 C798 1.384 . S
C797 C796 1.377 . S
C797 C803 1.390 . S
C798 H789 0.930 . S
C798 C796 1.384 . S
C798 C799 1.372 . S
C799 C798 1.372 . S
C799 C800 1.400 . S
C799 C804 1.490 . S
C800 H790 0.930 . S
C800 C799 1.400 . S
C800 C803 1.386 . S
H801 C817 0.930 . S
H802 C818 0.931 . S
C803 H791 0.929 . S
C803 C797 1.390 . S
C803 C800 1.386 . S
C804 C799 1.490 . S
C804 C806 1.395 . S
C804 C807 1.403 . S
H805 C811 0.930 . S
C806 H792 0.930 . S
C806 C804 1.395 . S
C806 C809 1.403 . S
C807 C804 1.403 . S
C807 C808 1.524 . S
C807 C811 1.400 . S
C808 H793 0.960 . S
C808 H794 0.960 . S
C808 H795 0.960 . S
C808 C807 1.524 . S
C809 C806 1.403 . S
C809 C810 1.392 . S
C809 C813 1.495 . S
C810 C809 1.392 . S
C810 C811 1.385 . S
C810 C812 1.478 . S
C811 H805 0.930 . S
C811 C807 1.400 . S
C811 C810 1.385 . S
C812 C810 1.478 . S
C812 C814 1.381 . S
C812 C818 1.383 . S
C813 C809 1.495 . S
C813 H819 0.959 . S
C813 H820 0.961 . S
C813 H821 0.960 . S
C814 C812 1.381 . S
C814 C815 1.394 . S
C814 H822 0.930 . S
C815 C814 1.394 . S
C815 C816 1.383 . S
C815 H823 0.929 . S
C816 C815 1.383 . S
C816 C817 1.377 . S
C817 H801 0.930 . S
C817 C816 1.377 . S
C817 C818 1.379 . S
C818 H802 0.931 . S
C818 C812 1.383 . S
C818 C817 1.379 . S
H819 C813 0.959 . S
H820 C813 0.961 . S
H821 C813 0.960 . S
H822 C814 0.930 . S
H823 C815 0.929 . S
H824 C832 0.929 . S
H825 C834 0.930 . S
H826 C836 0.930 . S
H827 C839 0.929 . S
H828 C842 0.930 . S
H829 C844 0.960 . S
H830 C844 0.960 1_556 S
H831 C844 0.960 . S
C832 H824 0.929 . S
C832 C833 1.377 . S
C832 C834 1.384 . S
C833 C832 1.377 . S
C833 C839 1.390 . S
C834 H825 0.930 . S
C834 C832 1.384 . S
C834 C835 1.372 . S
C835 C834 1.372 . S
C835 C836 1.400 . S
C835 C840 1.490 . S
C836 H826 0.930 . S
C836 C835 1.400 . S
C836 C839 1.386 . S
H837 C853 0.930 . S
H838 C854 0.931 . S
C839 H827 0.929 . S
C839 C833 1.390 . S
C839 C836 1.386 . S
C840 C835 1.490 . S
C840 C842 1.395 . S
C840 C843 1.403 . S
H841 C847 0.930 1_554 S
C842 H828 0.930 . S
C842 C840 1.395 . S
C842 C845 1.403 . S
C843 C840 1.403 . S
C843 C844 1.524 1_556 S
C843 C847 1.400 . S
C844 H829 0.960 . S
C844 H830 0.960 1_554 S
C844 H831 0.960 . S
C844 C843 1.524 1_554 S
C845 C842 1.403 . S
C845 C846 1.392 . S
C845 C849 1.495 . S
C846 C845 1.392 . S
C846 C847 1.385 . S
C846 C848 1.478 . S
C847 H841 0.930 1_556 S
C847 C843 1.400 . S
C847 C846 1.385 . S
C848 C846 1.478 . S
C848 C850 1.381 . S
C848 C854 1.383 1_556 S
C849 C845 1.495 . S
C849 H855 0.959 . S
C849 H856 0.961 . S
C849 H857 0.960 . S
C850 C848 1.381 . S
C850 C851 1.394 . S
C850 H858 0.930 . S
C851 C850 1.394 . S
C851 C852 1.383 1_556 S
C851 H859 0.929 . S
C852 C851 1.383 1_554 S
C852 C853 1.377 . S
C853 H837 0.930 . S
C853 C852 1.377 . S
C853 C854 1.379 . S
C854 H838 0.931 . S
C854 C848 1.383 1_554 S
C854 C853 1.379 . S
H855 C849 0.959 . S
H856 C849 0.961 . S
H857 C849 0.960 . S
H858 C850 0.930 . S
H859 C851 0.929 . S
H860 C868 0.929 . S
H861 C870 0.930 . S
H862 C872 0.930 . S
H863 C875 0.929 . S
H864 C878 0.930 . S
H865 C880 0.960 . S
H866 C880 0.960 . S
H867 C880 0.960 . S
C868 H860 0.929 . S
C868 C869 1.377 . S
C868 C870 1.384 . S
C869 C868 1.377 . S
C869 C875 1.390 . S
C870 H861 0.930 . S
C870 C868 1.384 . S
C870 C871 1.372 . S
C871 C870 1.372 . S
C871 C872 1.400 . S
C871 C876 1.490 . S
C872 H862 0.930 . S
C872 C871 1.400 . S
C872 C875 1.386 . S
H873 C889 0.930 . S
H874 C890 0.931 . S
C875 H863 0.929 . S
C875 C869 1.390 . S
C875 C872 1.386 . S
C876 C871 1.490 . S
C876 C878 1.395 . S
C876 C879 1.403 . S
H877 C883 0.930 . S
C878 H864 0.930 . S
C878 C876 1.395 . S
C878 C881 1.403 . S
C879 C876 1.403 . S
C879 C880 1.524 . S
C879 C883 1.400 . S
C880 H865 0.960 . S
C880 H866 0.960 . S
C880 H867 0.960 . S
C880 C879 1.524 . S
C881 C878 1.403 . S
C881 C882 1.392 . S
C881 C885 1.495 . S
C882 C881 1.392 . S
C882 C883 1.385 . S
C882 C884 1.478 . S
C883 H877 0.930 . S
C883 C879 1.400 . S
C883 C882 1.385 . S
C884 C882 1.478 . S
C884 C886 1.381 . S
C884 C890 1.383 . S
C885 C881 1.495 . S
C885 H891 0.959 . S
C885 H892 0.961 . S
C885 H893 0.960 . S
C886 C884 1.381 . S
C886 C887 1.394 . S
C886 H894 0.930 . S
C887 C886 1.394 . S
C887 C888 1.383 . S
C887 H895 0.929 . S
C888 C887 1.383 . S
C888 C889 1.377 . S
C889 H873 0.930 . S
C889 C888 1.377 . S
C889 C890 1.379 . S
C890 H874 0.931 . S
C890 C884 1.383 . S
C890 C889 1.379 . S
H891 C885 0.959 . S
H892 C885 0.961 . S
H893 C885 0.960 . S
H894 C886 0.930 . S
H895 C887 0.929 . S
H896 C904 0.929 . S
H897 C906 0.930 . S
H898 C908 0.930 . S
H899 C911 0.929 . S
H900 C914 0.930 . S
H901 C916 0.960 . S
H902 C916 0.960 . S
H903 C916 0.960 . S
C904 H896 0.929 . S
C904 C905 1.377 . S
C904 C906 1.384 . S
C905 C904 1.377 . S
C905 C911 1.390 . S
C906 H897 0.930 . S
C906 C904 1.384 . S
C906 C907 1.372 . S
C907 C906 1.372 . S
C907 C908 1.400 . S
C907 C912 1.490 . S
C908 H898 0.930 . S
C908 C907 1.400 . S
C908 C911 1.386 . S
H909 C925 0.930 . S
H910 C926 0.931 . S
C911 H899 0.929 . S
C911 C905 1.390 . S
C911 C908 1.386 . S
C912 C907 1.490 . S
C912 C914 1.395 . S
C912 C915 1.403 . S
H913 C919 0.930 . S
C914 H900 0.930 . S
C914 C912 1.395 . S
C914 C917 1.403 . S
C915 C912 1.403 . S
C915 C916 1.524 . S
C915 C919 1.400 . S
C916 H901 0.960 . S
C916 H902 0.960 . S
C916 H903 0.960 . S
C916 C915 1.524 . S
C917 C914 1.403 . S
C917 C918 1.392 . S
C917 C921 1.495 . S
C918 C917 1.392 . S
C918 C919 1.385 . S
C918 C920 1.478 . S
C919 H913 0.930 . S
C919 C915 1.400 . S
C919 C918 1.385 . S
C920 C918 1.478 . S
C920 C922 1.381 . S
C920 C926 1.383 . S
C921 C917 1.495 . S
C921 H927 0.959 . S
C921 H928 0.961 . S
C921 H929 0.960 . S
C922 C920 1.381 . S
C922 C923 1.394 . S
C922 H930 0.930 . S
C923 C922 1.394 . S
C923 C924 1.383 . S
C923 H931 0.929 . S
C924 C923 1.383 . S
C924 C925 1.377 . S
C925 H909 0.930 . S
C925 C924 1.377 . S
C925 C926 1.379 . S
C926 H910 0.931 . S
C926 C920 1.383 . S
C926 C925 1.379 . S
H927 C921 0.959 . S
H928 C921 0.961 . S
H929 C921 0.960 . S
H930 C922 0.930 . S
H931 C923 0.929 . S
H932 C940 0.929 . S
H933 C942 0.930 . S
H934 C944 0.930 . S
H935 C947 0.929 . S
H936 C950 0.930 . S
H937 C952 0.960 . S
H938 C952 0.960 . S
H939 C952 0.960 . S
C940 H932 0.929 . S
C940 C941 1.377 . S
C940 C942 1.384 . S
C941 C940 1.377 . S
C941 C947 1.390 . S
C942 H933 0.930 . S
C942 C940 1.384 . S
C942 C943 1.372 . S
C943 C942 1.372 . S
C943 C944 1.400 . S
C943 C948 1.490 . S
C944 H934 0.930 . S
C944 C943 1.400 . S
C944 C947 1.386 . S
H945 C961 0.930 . S
H946 C962 0.931 . S
C947 H935 0.929 . S
C947 C941 1.390 . S
C947 C944 1.386 . S
C948 C943 1.490 . S
C948 C950 1.395 . S
C948 C951 1.403 . S
H949 C955 0.930 . S
C950 H936 0.930 . S
C950 C948 1.395 . S
C950 C953 1.403 . S
C951 C948 1.403 . S
C951 C952 1.524 . S
C951 C955 1.400 . S
C952 H937 0.960 . S
C952 H938 0.960 . S
C952 H939 0.960 . S
C952 C951 1.524 . S
C953 C950 1.403 . S
C953 C954 1.392 . S
C953 C957 1.495 . S
C954 C953 1.392 . S
C954 C955 1.385 . S
C954 C956 1.478 . S
C955 H949 0.930 . S
C955 C951 1.400 . S
C955 C954 1.385 . S
C956 C954 1.478 . S
C956 C958 1.381 . S
C956 C962 1.383 . S
C957 C953 1.495 . S
C957 H963 0.959 . S
C957 H964 0.961 . S
C957 H965 0.960 . S
C958 C956 1.381 . S
C958 C959 1.394 . S
C958 H966 0.930 . S
C959 C958 1.394 . S
C959 C960 1.383 . S
C959 H967 0.929 . S
C960 C959 1.383 . S
C960 C961 1.377 . S
C961 H945 0.930 . S
C961 C960 1.377 . S
C961 C962 1.379 . S
C962 H946 0.931 . S
C962 C956 1.383 . S
C962 C961 1.379 . S
H963 C957 0.959 . S
H964 C957 0.961 . S
H965 C957 0.960 . S
H966 C958 0.930 . S
H967 C959 0.929 . S
H968 C976 0.929 . S
H969 C978 0.930 . S
H970 C980 0.930 . S
H971 C983 0.929 . S
H972 C986 0.930 . S
H973 C988 0.960 . S
H974 C988 0.960 . S
H975 C988 0.960 . S
C976 H968 0.929 . S
C976 C977 1.377 . S
C976 C978 1.384 . S
C977 C976 1.377 . S
C977 C983 1.390 . S
C978 H969 0.930 . S
C978 C976 1.384 . S
C978 C979 1.372 . S
C979 C978 1.372 . S
C979 C980 1.400 . S
C979 C984 1.490 . S
C980 H970 0.930 . S
C980 C979 1.400 . S
C980 C983 1.386 . S
H981 C997 0.930 . S
H982 C998 0.931 . S
C983 H971 0.929 . S
C983 C977 1.390 . S
C983 C980 1.386 . S
C984 C979 1.490 . S
C984 C986 1.395 . S
C984 C987 1.403 . S
H985 C991 0.930 . S
C986 H972 0.930 . S
C986 C984 1.395 . S
C986 C989 1.403 . S
C987 C984 1.403 . S
C987 C988 1.524 . S
C987 C991 1.400 . S
C988 H973 0.960 . S
C988 H974 0.960 . S
C988 H975 0.960 . S
C988 C987 1.524 . S
C989 C986 1.403 . S
C989 C990 1.392 . S
C989 C993 1.495 1_556 S
C990 C989 1.392 . S
C990 C991 1.385 . S
C990 C992 1.478 . S
C991 H985 0.930 . S
C991 C987 1.400 . S
C991 C990 1.385 . S
C992 C990 1.478 . S
C992 C994 1.381 1_556 S
C992 C998 1.383 . S
C993 C989 1.495 1_554 S
C993 H999 0.959 . S
C993 H1000 0.961 1_554 S
C993 H1001 0.960 . S
C994 C992 1.381 1_554 S
C994 C995 1.394 . S
C994 H1002 0.930 . S
C995 C994 1.394 . S
C995 C996 1.383 1_554 S
C995 H1003 0.929 . S
C996 C995 1.383 1_556 S
C996 C997 1.377 . S
C997 H981 0.930 . S
C997 C996 1.377 . S
C997 C998 1.379 . S
C998 H982 0.931 . S
C998 C992 1.383 . S
C998 C997 1.379 . S
H999 C993 0.959 . S
H1000 C993 0.961 1_556 S
H1001 C993 0.960 . S
H1002 C994 0.930 . S
H1003 C995 0.929 . S
H1004 C1012 0.929 . S
H1005 C1014 0.930 . S
H1006 C1016 0.930 . S
H1007 C1019 0.929 . S
H1008 C1022 0.930 . S
H1009 C1024 0.960 . S
H1010 C1024 0.960 . S
H1011 C1024 0.960 . S
C1012 H1004 0.929 . S
C1012 C1013 1.377 . S
C1012 C1014 1.384 . S
C1013 C1012 1.377 . S
C1013 C1019 1.390 . S
C1014 H1005 0.930 . S
C1014 C1012 1.384 . S
C1014 C1015 1.372 . S
C1015 C1014 1.372 . S
C1015 C1016 1.400 . S
C1015 C1020 1.490 . S
C1016 H1006 0.930 . S
C1016 C1015 1.400 . S
C1016 C1019 1.386 . S
H1017 C1033 0.930 . S
H1018 C1034 0.931 . S
C1019 H1007 0.929 . S
C1019 C1013 1.390 . S
C1019 C1016 1.386 . S
C1020 C1015 1.490 . S
C1020 C1022 1.395 . S
C1020 C1023 1.403 . S
H1021 C1027 0.930 . S
C1022 H1008 0.930 . S
C1022 C1020 1.395 . S
C1022 C1025 1.403 . S
C1023 C1020 1.403 . S
C1023 C1024 1.524 . S
C1023 C1027 1.400 . S
C1024 H1009 0.960 . S
C1024 H1010 0.960 . S
C1024 H1011 0.960 . S
C1024 C1023 1.524 . S
C1025 C1022 1.403 . S
C1025 C1026 1.392 . S
C1025 C1029 1.495 . S
C1026 C1025 1.392 . S
C1026 C1027 1.385 . S
C1026 C1028 1.478 . S
C1027 H1021 0.930 . S
C1027 C1023 1.400 . S
C1027 C1026 1.385 . S
C1028 C1026 1.478 . S
C1028 C1030 1.381 . S
C1028 C1034 1.383 . S
C1029 C1025 1.495 . S
C1029 H1035 0.959 . S
C1029 H1036 0.961 . S
C1029 H1037 0.960 . S
C1030 C1028 1.381 . S
C1030 C1031 1.394 . S
C1030 H1038 0.930 . S
C1031 C1030 1.394 . S
C1031 C1032 1.383 . S
C1031 H1039 0.929 . S
C1032 C1031 1.383 . S
C1032 C1033 1.377 . S
C1033 H1017 0.930 . S
C1033 C1032 1.377 . S
C1033 C1034 1.379 . S
C1034 H1018 0.931 . S
C1034 C1028 1.383 . S
C1034 C1033 1.379 . S
H1035 C1029 0.959 . S
H1036 C1029 0.961 . S
H1037 C1029 0.960 . S
H1038 C1030 0.930 . S
H1039 C1031 0.929 . S
H1040 C1048 0.929 . S
H1041 C1050 0.930 . S
H1042 C1052 0.930 . S
H1043 C1055 0.929 . S
H1044 C1058 0.930 . S
H1045 C1060 0.960 . S
H1046 C1060 0.960 . S
H1047 C1060 0.960 . S
C1048 H1040 0.929 . S
C1048 C1049 1.377 . S
C1048 C1050 1.384 . S
C1049 C1048 1.377 . S
C1049 C1055 1.390 . S
C1050 H1041 0.930 . S
C1050 C1048 1.384 . S
C1050 C1051 1.372 . S
C1051 C1050 1.372 . S
C1051 C1052 1.400 . S
C1051 C1056 1.490 . S
C1052 H1042 0.930 . S
C1052 C1051 1.400 . S
C1052 C1055 1.386 . S
H1053 C1069 0.930 . S
H1054 C1070 0.931 . S
C1055 H1043 0.929 . S
C1055 C1049 1.390 . S
C1055 C1052 1.386 . S
C1056 C1051 1.490 . S
C1056 C1058 1.395 . S
C1056 C1059 1.403 . S
H1057 C1063 0.930 . S
C1058 H1044 0.930 . S
C1058 C1056 1.395 . S
C1058 C1061 1.403 . S
C1059 C1056 1.403 . S
C1059 C1060 1.524 . S
C1059 C1063 1.400 . S
C1060 H1045 0.960 . S
C1060 H1046 0.960 . S
C1060 H1047 0.960 . S
C1060 C1059 1.524 . S
C1061 C1058 1.403 . S
C1061 C1062 1.392 . S
C1061 C1065 1.495 . S
C1062 C1061 1.392 . S
C1062 C1063 1.385 . S
C1062 C1064 1.478 . S
C1063 H1057 0.930 . S
C1063 C1059 1.400 . S
C1063 C1062 1.385 . S
C1064 C1062 1.478 . S
C1064 C1066 1.381 . S
C1064 C1070 1.383 . S
C1065 C1061 1.495 . S
C1065 H1071 0.959 . S
C1065 H1072 0.961 . S
C1065 H1073 0.960 . S
C1066 C1064 1.381 . S
C1066 C1067 1.394 . S
C1066 H1074 0.930 . S
C1067 C1066 1.394 . S
C1067 C1068 1.383 . S
C1067 H1075 0.929 . S
C1068 C1067 1.383 . S
C1068 C1069 1.377 . S
C1069 H1053 0.930 . S
C1069 C1068 1.377 . S
C1069 C1070 1.379 . S
C1070 H1054 0.931 . S
C1070 C1064 1.383 . S
C1070 C1069 1.379 . S
H1071 C1065 0.959 . S
H1072 C1065 0.961 . S
H1073 C1065 0.960 . S
H1074 C1066 0.930 . S
H1075 C1067 0.929 . S
H1076 C1084 0.929 . S
H1077 C1086 0.930 . S
H1078 C1088 0.930 . S
H1079 C1091 0.929 . S
H1080 C1094 0.930 . S
H1081 C1096 0.960 . S
H1082 C1096 0.960 . S
H1083 C1096 0.960 . S
C1084 H1076 0.929 . S
C1084 C1085 1.377 . S
C1084 C1086 1.384 . S
C1085 C1084 1.377 . S
C1085 C1091 1.390 . S
C1086 H1077 0.930 . S
C1086 C1084 1.384 . S
C1086 C1087 1.372 . S
C1087 C1086 1.372 . S
C1087 C1088 1.400 . S
C1087 C1092 1.490 . S
C1088 H1078 0.930 . S
C1088 C1087 1.400 . S
C1088 C1091 1.386 . S
H1089 C1105 0.930 . S
H1090 C1106 0.931 . S
C1091 H1079 0.929 . S
C1091 C1085 1.390 . S
C1091 C1088 1.386 . S
C1092 C1087 1.490 . S
C1092 C1094 1.395 . S
C1092 C1095 1.403 . S
H1093 C1099 0.930 . S
C1094 H1080 0.930 . S
C1094 C1092 1.395 . S
C1094 C1097 1.403 . S
C1095 C1092 1.403 . S
C1095 C1096 1.524 . S
C1095 C1099 1.400 . S
C1096 H1081 0.960 . S
C1096 H1082 0.960 . S
C1096 H1083 0.960 . S
C1096 C1095 1.524 . S
C1097 C1094 1.403 . S
C1097 C1098 1.392 . S
C1097 C1101 1.495 . S
C1098 C1097 1.392 . S
C1098 C1099 1.385 . S
C1098 C1100 1.478 . S
C1099 H1093 0.930 . S
C1099 C1095 1.400 . S
C1099 C1098 1.385 . S
C1100 C1098 1.478 . S
C1100 C1102 1.381 . S
C1100 C1106 1.383 . S
C1101 C1097 1.495 . S
C1101 H1107 0.959 . S
C1101 H1108 0.961 . S
C1101 H1109 0.960 . S
C1102 C1100 1.381 . S
C1102 C1103 1.394 . S
C1102 H1110 0.930 . S
C1103 C1102 1.394 . S
C1103 C1104 1.383 . S
C1103 H1111 0.929 . S
C1104 C1103 1.383 . S
C1104 C1105 1.377 . S
C1105 H1089 0.930 . S
C1105 C1104 1.377 . S
C1105 C1106 1.379 . S
C1106 H1090 0.931 . S
C1106 C1100 1.383 . S
C1106 C1105 1.379 . S
H1107 C1101 0.959 . S
H1108 C1101 0.961 . S
H1109 C1101 0.960 . S
H1110 C1102 0.930 . S
H1111 C1103 0.929 . S
C257 C4 3.126 . S
C276 C107 3.086 . S
C293 C16 2.511 . S
C312 C138 2.536 1_556 S
C348 C177 0.761 . S
C329 C32 0.737 . S
C365 C43 0.245 . S
C384 C214 0.241 . S
C420 C137 3.385 . S
C401 C5 3.464 . S
C456 C94 1.255 . S
C437 C21 1.258 . S
C492 C226 1.102 . S
C473 C27 1.093 . S
C528 C183 0.815 . S
C509 C37 0.783 . S
C545 C10 2.463 . S
C564 C227 2.452 . S
C600 C143 1.464 . S
C581 C26 1.473 . S
C617 C38 0.197 . S
C636 C106 0.484 . S
C653 C15 2.563 . S
C672 C178 2.593 . S
C708 C98 3.148 . S
C689 C48 3.186 . S
C725 C59 2.241 . S
C744 C147 2.262 . S
C761 C76 1.063 . S
C780 C186 0.994 . S
C797 C87 0.322 . S
C816 C223 0.337 . S
C833 C54 2.795 . S
C852 C146 2.693 1_565 S
C888 C103 1.837 . S
C869 C60 1.840 . S
C924 C217 1.112 . S
C905 C71 1.139 . S
C960 C174 0.814 . S
C941 C82 0.829 . S
C977 C49 2.577 . S
C996 C218 2.586 1_656 S
C1032 C134 1.209 . S
C1013 C70 1.215 . S
C1068 C97 0.681 . S
C1049 C81 0.631 . S
C1085 C65 2.393 . S
C1104 C187 2.427 . S
