# Generated by pormake.
# Topology ssc, (4,4)-cn, num edge types: 1
# Building blocks:
#     Node 0, Type 0, BuildingBlock: ESEHIV_clean_sbu_0, # of connection points: 4
#     Node 1, Type 0, BuildingBlock: ESEHIV_clean_sbu_0, # of connection points: 4
#     Node 2, Type 0, BuildingBlock: ESEHIV_clean_sbu_0, # of connection points: 4
#     Node 3, Type 0, BuildingBlock: ESEHIV_clean_sbu_0, # of connection points: 4
#     Node 4, Type 0, BuildingBlock: ESEHIV_clean_sbu_0, # of connection points: 4
#     Node 5, Type 0, BuildingBlock: ESEHIV_clean_sbu_0, # of connection points: 4
#     Node 6, Type 0, BuildingBlock: ESEHIV_clean_sbu_0, # of connection points: 4
#     Node 7, Type 0, BuildingBlock: ESEHIV_clean_sbu_0, # of connection points: 4
#     Node 8, Type 0, BuildingBlock: ESEHIV_clean_sbu_0, # of connection points: 4
#     Node 9, Type 0, BuildingBlock: ESEHIV_clean_sbu_0, # of connection points: 4
#     Node 10, Type 0, BuildingBlock: ESEHIV_clean_sbu_0, # of connection points: 4
#     Node 11, Type 0, BuildingBlock: ESEHIV_clean_sbu_0, # of connection points: 4
#     Node 12, Type 1, BuildingBlock: KUFVIS_clean_linker_0, # of connection points: 4
#     Node 13, Type 1, BuildingBlock: KUFVIS_clean_linker_0, # of connection points: 4
#     Node 14, Type 1, BuildingBlock: KUFVIS_clean_linker_0, # of connection points: 4
#     Node 15, Type 1, BuildingBlock: KUFVIS_clean_linker_0, # of connection points: 4
#     Node 16, Type 1, BuildingBlock: KUFVIS_clean_linker_0, # of connection points: 4
#     Node 17, Type 1, BuildingBlock: KUFVIS_clean_linker_0, # of connection points: 4
#     Node 18, Type 1, BuildingBlock: KUFVIS_clean_linker_0, # of connection points: 4
#     Node 19, Type 1, BuildingBlock: KUFVIS_clean_linker_0, # of connection points: 4
#     Node 20, Type 1, BuildingBlock: KUFVIS_clean_linker_0, # of connection points: 4
#     Node 21, Type 1, BuildingBlock: KUFVIS_clean_linker_0, # of connection points: 4
#     Node 22, Type 1, BuildingBlock: KUFVIS_clean_linker_0, # of connection points: 4
#     Node 23, Type 1, BuildingBlock: KUFVIS_clean_linker_0, # of connection points: 4
#     Edge 24, Type (0, 1), BuildingBlock: OJICUG_clean_linker_0, # of connection points: 2
#     Edge 25, Type (0, 1), BuildingBlock: OJICUG_clean_linker_0, # of connection points: 2
#     Edge 26, Type (0, 1), BuildingBlock: OJICUG_clean_linker_0, # of connection points: 2
#     Edge 27, Type (0, 1), BuildingBlock: OJICUG_clean_linker_0, # of connection points: 2
#     Edge 28, Type (0, 1), BuildingBlock: OJICUG_clean_linker_0, # of connection points: 2
#     Edge 29, Type (0, 1), BuildingBlock: OJICUG_clean_linker_0, # of connection points: 2
#     Edge 30, Type (0, 1), BuildingBlock: OJICUG_clean_linker_0, # of connection points: 2
#     Edge 31, Type (0, 1), BuildingBlock: OJICUG_clean_linker_0, # of connection points: 2
#     Edge 32, Type (0, 1), BuildingBlock: OJICUG_clean_linker_0, # of connection points: 2
#     Edge 33, Type (0, 1), BuildingBlock: OJICUG_clean_linker_0, # of connection points: 2
#     Edge 34, Type (0, 1), BuildingBlock: OJICUG_clean_linker_0, # of connection points: 2
#     Edge 35, Type (0, 1), BuildingBlock: OJICUG_clean_linker_0, # of connection points: 2
#     Edge 36, Type (0, 1), BuildingBlock: OJICUG_clean_linker_0, # of connection points: 2
#     Edge 37, Type (0, 1), BuildingBlock: OJICUG_clean_linker_0, # of connection points: 2
#     Edge 38, Type (0, 1), BuildingBlock: OJICUG_clean_linker_0, # of connection points: 2
#     Edge 39, Type (0, 1), BuildingBlock: OJICUG_clean_linker_0, # of connection points: 2
#     Edge 40, Type (0, 1), BuildingBlock: OJICUG_clean_linker_0, # of connection points: 2
#     Edge 41, Type (0, 1), BuildingBlock: OJICUG_clean_linker_0, # of connection points: 2
#     Edge 42, Type (0, 1), BuildingBlock: OJICUG_clean_linker_0, # of connection points: 2
#     Edge 43, Type (0, 1), BuildingBlock: OJICUG_clean_linker_0, # of connection points: 2
#     Edge 44, Type (0, 1), BuildingBlock: OJICUG_clean_linker_0, # of connection points: 2
#     Edge 45, Type (0, 1), BuildingBlock: OJICUG_clean_linker_0, # of connection points: 2
#     Edge 46, Type (0, 1), BuildingBlock: OJICUG_clean_linker_0, # of connection points: 2
#     Edge 47, Type (0, 1), BuildingBlock: OJICUG_clean_linker_0, # of connection points: 2
#     Edge 48, Type (0, 1), BuildingBlock: OJICUG_clean_linker_0, # of connection points: 2
#     Edge 49, Type (0, 1), BuildingBlock: OJICUG_clean_linker_0, # of connection points: 2
#     Edge 50, Type (0, 1), BuildingBlock: OJICUG_clean_linker_0, # of connection points: 2
#     Edge 51, Type (0, 1), BuildingBlock: OJICUG_clean_linker_0, # of connection points: 2
#     Edge 52, Type (0, 1), BuildingBlock: OJICUG_clean_linker_0, # of connection points: 2
#     Edge 53, Type (0, 1), BuildingBlock: OJICUG_clean_linker_0, # of connection points: 2
#     Edge 54, Type (0, 1), BuildingBlock: OJICUG_clean_linker_0, # of connection points: 2
#     Edge 55, Type (0, 1), BuildingBlock: OJICUG_clean_linker_0, # of connection points: 2
#     Edge 56, Type (0, 1), BuildingBlock: OJICUG_clean_linker_0, # of connection points: 2
#     Edge 57, Type (0, 1), BuildingBlock: OJICUG_clean_linker_0, # of connection points: 2
#     Edge 58, Type (0, 1), BuildingBlock: OJICUG_clean_linker_0, # of connection points: 2
#     Edge 59, Type (0, 1), BuildingBlock: OJICUG_clean_linker_0, # of connection points: 2
#     Edge 60, Type (0, 1), BuildingBlock: OJICUG_clean_linker_0, # of connection points: 2
#     Edge 61, Type (0, 1), BuildingBlock: OJICUG_clean_linker_0, # of connection points: 2
#     Edge 62, Type (0, 1), BuildingBlock: OJICUG_clean_linker_0, # of connection points: 2
#     Edge 63, Type (0, 1), BuildingBlock: OJICUG_clean_linker_0, # of connection points: 2
#     Edge 64, Type (0, 1), BuildingBlock: OJICUG_clean_linker_0, # of connection points: 2
#     Edge 65, Type (0, 1), BuildingBlock: OJICUG_clean_linker_0, # of connection points: 2
#     Edge 66, Type (0, 1), BuildingBlock: OJICUG_clean_linker_0, # of connection points: 2
#     Edge 67, Type (0, 1), BuildingBlock: OJICUG_clean_linker_0, # of connection points: 2
#     Edge 68, Type (0, 1), BuildingBlock: OJICUG_clean_linker_0, # of connection points: 2
#     Edge 69, Type (0, 1), BuildingBlock: OJICUG_clean_linker_0, # of connection points: 2
#     Edge 70, Type (0, 1), BuildingBlock: OJICUG_clean_linker_0, # of connection points: 2
#     Edge 71, Type (0, 1), BuildingBlock: OJICUG_clean_linker_0, # of connection points: 2
# Relax obj value: 0.051
# Max RMSD: 0.299
# Mean RMSD: 0.194
data_MOF--net-ssc--node1-ESEHIV_clean_sbu_0--node2-KUFVIS_clean_linker_0--edge1-OJICUG_clean_linker_0
_symmetry_space_group_name_H-M    P1
_symmetry_Int_Tables_number       1
_symmetry_cell_setting            triclinic
loop_
_symmetry_equiv_pos_as_xyz
'x, y, z'
_cell_length_a     24.843021
_cell_length_b     24.653413
_cell_length_c     24.532451
_cell_angle_alpha  89.486038
_cell_angle_beta   93.9961
_cell_angle_gamma 96.959034
loop_
_atom_site_label
_atom_site_type_symbol
_atom_site_fract_x
_atom_site_fract_y
_atom_site_fract_z
_atom_type_partial_charge
Cu0 Cu 0.03304 0.25849 0.14696 0.0
N1 N 0.96068 0.24071 0.16227 0.0
N2 N 0.88886 0.22044 0.21207 0.0
C3 C 0.93914 0.24803 0.2102 0.0
C4 C 0.87875 0.19479 0.16331 0.0
C5 C 0.92282 0.2078 0.13256 0.0
O6 O 0.07344 0.26799 0.21833 0.0
C7 C 0.07905 0.20803 0.0593 0.0
O8 O 0.10785 0.25568 0.05292 0.0
H9 H 0.96168 0.26933 0.24459 0.0
H10 H 0.92854 0.19124 0.09297 0.0
N11 N 0.04027 0.3232 0.10651 0.0
N12 N 0.03687 0.38149 0.03617 0.0
C13 C 0.01447 0.33415 0.05799 0.0
C14 C 0.08056 0.36428 0.11512 0.0
C15 C 0.07884 0.39981 0.07171 0.0
C16 C 0.12245 0.26103 0.23228 0.0
O17 O 0.15328 0.2451 0.19567 0.0
H18 H 0.98226 0.30647 0.0377 0.0
H19 H 0.11156 0.36594 0.14851 0.0
O20 O 0.05119 0.20005 0.10109 0.0
H21 H 0.84315 0.16652 0.15151 0.0
H22 H 0.10932 0.43365 0.06411 0.0
Cu23 Cu 0.00942 0.77149 0.40164 0.0
N24 N 0.02884 0.83537 0.44214 0.0
N25 N 0.03235 0.89686 0.5089 0.0
C26 C 0.02263 0.84366 0.49543 0.0
C27 C 0.04772 0.92284 0.46298 0.0
C28 C 0.04567 0.88488 0.42183 0.0
O29 O 0.98921 0.71141 0.4506 0.0
C30 C 0.94873 0.76076 0.2971 0.0
O31 O 0.97585 0.71928 0.28922 0.0
H32 H 0.00805 0.81231 0.52341 0.0
H33 H 0.05286 0.8931 0.37938 0.0
N34 N 0.07212 0.75337 0.37331 0.0
N35 N 0.13624 0.73935 0.31748 0.0
C36 C 0.09264 0.7658 0.3248 0.0
C37 C 0.10395 0.71882 0.39785 0.0
C38 C 0.14318 0.70981 0.36357 0.0
C39 C 0.96263 0.71288 0.49289 0.0
O40 O 0.92852 0.74932 0.49613 0.0
H41 H 0.07461 0.79196 0.29491 0.0
H42 H 0.09735 0.69939 0.43693 0.0
O43 O 0.95504 0.78517 0.34313 0.0
H44 H 0.05671 0.96637 0.459 0.0
H45 H 0.17204 0.68063 0.37077 0.0
Cu46 Cu 0.51403 0.7667 0.65074 0.0
N47 N 0.49855 0.82632 0.60668 0.0
N48 N 0.4876 0.88108 0.53432 0.0
C49 C 0.50323 0.8331 0.55248 0.0
C50 C 0.47118 0.90483 0.57859 0.0
C51 C 0.47769 0.87088 0.62298 0.0
O52 O 0.5399 0.71056 0.60711 0.0
C53 C 0.60335 0.77613 0.7359 0.0
O54 O 0.62919 0.74578 0.70543 0.0
H55 H 0.51877 0.80413 0.52681 0.0
H56 H 0.46811 0.87821 0.66441 0.0
N57 N 0.44805 0.73331 0.67254 0.0
N58 N 0.37999 0.70277 0.72395 0.0
C59 C 0.42433 0.73978 0.7194 0.0
C60 C 0.41784 0.69137 0.64641 0.0
C61 C 0.37646 0.67192 0.67828 0.0
C62 C 0.57084 0.71611 0.56763 0.0
O63 O 0.60186 0.76256 0.56157 0.0
H64 H 0.44105 0.76889 0.75071 0.0
H65 H 0.42687 0.67451 0.608 0.0
O66 O 0.55739 0.7897 0.71825 0.0
H67 H 0.4561 0.94418 0.57893 0.0
H68 H 0.34652 0.63716 0.66856 0.0
Cu69 Cu 0.52468 0.28625 0.90649 0.0
N70 N 0.54175 0.35176 0.94612 0.0
N71 N 0.54248 0.41246 0.01383 0.0
C72 C 0.53201 0.35958 0.99864 0.0
C73 C 0.56159 0.43897 0.96944 0.0
C74 C 0.56109 0.40145 0.92776 0.0
O75 O 0.50582 0.22773 0.95745 0.0
C76 C 0.45886 0.26318 0.80643 0.0
O77 O 0.48319 0.21889 0.80421 0.0
H78 H 0.51518 0.32766 0.02482 0.0
H79 H 0.57211 0.41013 0.88643 0.0
N80 N 0.58715 0.26721 0.87774 0.0
N81 N 0.64517 0.24271 0.81918 0.0
C82 C 0.60174 0.26985 0.82585 0.0
C83 C 0.62217 0.23764 0.90498 0.0
C84 C 0.65754 0.22223 0.86921 0.0
C85 C 0.47348 0.22676 0.99547 0.0
O86 O 0.4375 0.26172 0.99486 0.0
H87 H 0.57913 0.28912 0.79349 0.0
H88 H 0.61993 0.22527 0.94726 0.0
O89 O 0.46906 0.29467 0.84782 0.0
H90 H 0.5736 0.48247 0.96674 0.0
H91 H 0.68778 0.19519 0.87928 0.0
Cu92 Cu 0.15565 0.04737 0.27681 0.0
N93 N 0.12174 0.05234 0.34136 0.0
N94 N 0.06217 0.05814 0.40445 0.0
C95 C 0.06873 0.05026 0.35094 0.0
C96 C 0.11277 0.06469 0.42896 0.0
C97 C 0.14928 0.06095 0.39017 0.0
O98 O 0.10572 0.04958 0.21303 0.0
C99 C 0.2532 0.11101 0.24711 0.0
O100 O 0.25342 0.07602 0.20713 0.0
H101 H 0.03589 0.04436 0.31939 0.0
H102 H 0.19307 0.06449 0.39686 0.0
N103 N 0.18122 0.97942 0.27615 0.0
N104 N 0.23118 0.91161 0.2639 0.0
C105 C 0.2317 0.96597 0.27092 0.0
C106 C 0.1482 0.93203 0.27371 0.0
C107 C 0.17876 0.89033 0.26592 0.0
C108 C 0.06933 0.08122 0.20372 0.0
O109 O 0.0647 0.12022 0.23862 0.0
H110 H 0.26761 0.99532 0.2696 0.0
H111 H 0.10449 0.92847 0.27518 0.0
O112 O 0.21437 0.1061 0.27844 0.0
H113 H 0.12257 0.07058 0.47196 0.0
H114 H 0.16342 0.84788 0.26085 0.0
Cu115 Cu 0.27406 0.9226 0.55324 0.0
N116 N 0.26042 0.88063 0.48921 0.0
N117 N 0.26431 0.8145 0.42807 0.0
C118 C 0.26795 0.82794 0.48153 0.0
C119 C 0.25238 0.85992 0.40127 0.0
C120 C 0.24982 0.90051 0.4389 0.0
O121 O 0.28652 0.87518 0.61539 0.0
C122 C 0.34045 0.02678 0.56412 0.0
O123 O 0.30642 0.03899 0.59937 0.0
H124 H 0.27922 0.80075 0.51383 0.0
H125 H 0.24398 0.94255 0.43006 0.0
N126 N 0.2111 0.95207 0.56888 0.0
N127 N 0.15015 0.00849 0.58652 0.0
C128 C 0.19316 1.00083 0.55746 0.0
C129 C 0.17796 0.92796 0.60516 0.0
C130 C 0.14123 0.96253 0.61665 0.0
C131 C 0.31597 0.83648 0.61947 0.0
O132 O 0.35165 0.83188 0.58324 0.0
H133 H 0.21278 0.03078 0.53047 0.0
H134 H 0.18264 0.88924 0.62489 0.0
O135 O 0.33439 0.9793 0.54276 0.0
H136 H 0.24872 0.86414 0.35756 0.0
H137 H 0.11295 0.9554 0.64813 0.0
Cu138 Cu 0.40286 0.05481 0.76712 0.0
N139 N 0.4427 0.07431 0.83262 0.0
N140 N 0.50907 0.07926 0.89942 0.0
C141 C 0.49592 0.07169 0.84538 0.0
C142 C 0.46215 0.08698 0.92121 0.0
C143 C 0.42149 0.08434 0.87992 0.0
O144 O 0.45121 0.04611 0.70887 0.0
C145 C 0.30995 0.97506 0.75244 0.0
O146 O 0.29676 1.0053 0.71044 0.0
H147 H 0.52339 0.05985 0.8165 0.0
H148 H 0.37871 0.08569 0.88458 0.0
N149 N 0.3622 0.11125 0.74512 0.0
N150 N 0.30521 0.17535 0.73703 0.0
C151 C 0.32653 0.13798 0.77046 0.0
C152 C 0.36343 0.13223 0.69468 0.0
C153 C 0.32809 0.1708 0.68917 0.0
C154 C 0.48185 0.00893 0.70312 0.0
O155 O 0.48302 0.96959 0.7395 0.0
H156 H 0.31617 0.12981 0.81208 0.0
H157 H 0.38832 0.11957 0.664 0.0
O158 O 0.35473 0.98837 0.78022 0.0
H159 H 0.45668 0.09079 0.96422 0.0
H160 H 0.31926 0.19285 0.65198 0.0
Cu161 Cu 0.28345 0.18639 0.02841 0.0
N162 N 0.29966 0.2253 0.96454 0.0
N163 N 0.30124 0.29534 0.90535 0.0
C164 C 0.28622 0.27594 0.9544 0.0
C165 C 0.32504 0.25477 0.88366 0.0
C166 C 0.32438 0.2118 0.92042 0.0
O167 O 0.27426 0.24466 0.0794 0.0
C168 C 0.20692 0.09521 0.04814 0.0
O169 O 0.23844 0.0919 0.09292 0.0
H170 H 0.26362 0.29722 0.98176 0.0
H171 H 0.33985 0.17321 0.91494 0.0
N172 N 0.34036 0.14657 0.05453 0.0
N173 N 0.39532 0.08072 0.0693 0.0
C174 C 0.35943 0.10243 0.03346 0.0
C175 C 0.36435 0.15224 0.10519 0.0
C176 C 0.39752 0.11199 0.11446 0.0
C177 C 0.26229 0.24094 0.12889 0.0
O178 O 0.25344 0.19271 0.15169 0.0
H179 H 0.34597 0.08573 0.9935 0.0
H180 H 0.35714 0.18283 0.13417 0.0
O181 O 0.21776 0.13495 0.01545 0.0
H182 H 0.34058 0.25525 0.84362 0.0
H183 H 0.42038 0.10556 0.15258 0.0
Cu184 Cu 0.78984 0.41487 0.05173 0.0
N185 N 0.77271 0.37556 0.98734 0.0
N186 N 0.7738 0.30766 0.92832 0.0
C187 C 0.79069 0.3274 0.9783 0.0
C188 C 0.74385 0.34464 0.90474 0.0
C189 C 0.74289 0.38666 0.94154 0.0
O190 O 0.81225 0.35945 0.10226 0.0
C191 C 0.858 0.51867 0.06445 0.0
O192 O 0.82945 0.52803 0.1057 0.0
H193 H 0.81735 0.30804 1.00714 0.0
H194 H 0.72253 0.42281 0.93519 0.0
N195 N 0.72637 0.43814 0.0759 0.0
N196 N 0.66209 0.48682 0.10214 0.0
C197 C 0.70729 0.48727 0.07405 0.0
C198 C 0.69143 0.40564 0.10481 0.0
C199 C 0.6527 0.43551 0.12178 0.0
C200 C 0.80565 0.35969 0.1531 0.0
O201 O 0.79918 0.40603 0.17615 0.0
H202 H 0.7273 0.52301 0.0546 0.0
H203 H 0.69512 0.36337 0.1147 0.0
O204 O 0.84765 0.47356 0.03873 0.0
H205 H 0.72423 0.34119 0.86407 0.0
H206 H 0.62136 0.42079 0.14843 0.0
Cu207 Cu 0.90449 0.55524 0.27735 0.0
N208 N 0.94469 0.57059 0.34337 0.0
N209 N 0.01056 0.56447 0.40929 0.0
C210 C 0.99768 0.56571 0.35486 0.0
C211 C 0.9636 0.56904 0.43254 0.0
C212 C 0.92332 0.57336 0.39193 0.0
O213 O 0.95199 0.5389 0.22101 0.0
C214 C 0.80322 0.48742 0.26661 0.0
O215 O 0.79068 0.52065 0.22683 0.0
H216 H 0.02489 0.55772 0.32412 0.0
H217 H 0.88049 0.57357 0.39733 0.0
N218 N 0.8697 0.61503 0.25335 0.0
N219 N 0.81294 0.679 0.24129 0.0
C220 C 0.83483 0.64402 0.27713 0.0
C221 C 0.86987 0.632 0.20141 0.0
C222 C 0.83456 0.6704 0.19349 0.0
C223 C 0.98261 0.50094 0.22155 0.0
O224 O 0.98274 0.46653 0.26275 0.0
H225 H 0.82452 0.63815 0.31906 0.0
H226 H 0.89273 0.61552 0.17105 0.0
O227 O 0.85053 0.4941 0.29073 0.0
H228 H 0.95786 0.56612 0.47568 0.0
H229 H 0.82448 0.68903 0.15465 0.0
Cu230 Cu 0.7655 0.69302 0.53473 0.0
N231 N 0.78363 0.73186 0.47121 0.0
N232 N 0.78977 0.80271 0.41301 0.0
C233 C 0.77053 0.78245 0.46016 0.0
C234 C 0.81607 0.76297 0.39343 0.0
C235 C 0.81255 0.71942 0.42964 0.0
O236 O 0.75127 0.74971 0.58457 0.0
C237 C 0.69411 0.59784 0.55437 0.0
O238 O 0.72572 0.59617 0.59938 0.0
H239 H 0.74587 0.80346 0.48569 0.0
H240 H 0.82971 0.68145 0.4258 0.0
N241 N 0.82366 0.65745 0.56407 0.0
N242 N 0.87876 0.59277 0.58194 0.0
C243 C 0.84396 0.61353 0.54452 0.0
C244 C 0.84619 0.66446 0.61526 0.0
C245 C 0.87927 0.62453 0.62662 0.0
C246 C 0.73936 0.74428 0.63395 0.0
O247 O 0.73258 0.69537 0.65579 0.0
H248 H 0.83191 0.59616 0.50454 0.0
H249 H 0.83752 0.69513 0.6434 0.0
O250 O 0.70286 0.63782 0.5214 0.0
H251 H 0.8357 0.76475 0.35541 0.0
H252 H 0.90072 0.61865 0.66571 0.0
Cu253 Cu 0.65541 0.55441 0.78247 0.0
N254 N 0.62609 0.57276 0.84702 0.0
N255 N 0.56849 0.58244 0.91146 0.0
C256 C 0.57489 0.56065 0.8622 0.0
C257 C 0.61773 0.60885 0.92767 0.0
C258 C 0.65315 0.6022 0.88836 0.0
O259 O 0.60401 0.55329 0.71922 0.0
C260 C 0.72797 0.65245 0.78081 0.0
O261 O 0.68615 0.67668 0.7931 0.0
H262 H 0.54282 0.5375 0.83697 0.0
H263 H 0.69569 0.61828 0.88957 0.0
N264 N 0.6756 0.48464 0.78906 0.0
N265 N 0.72611 0.41671 0.78053 0.0
C266 C 0.72629 0.47102 0.78682 0.0
C267 C 0.64223 0.43756 0.78456 0.0
C268 C 0.6733 0.39568 0.77891 0.0
C269 C 0.56327 0.57985 0.71189 0.0
O270 O 0.55435 0.61567 0.74851 0.0
H271 H 0.76199 0.5007 0.78496 0.0
H272 H 0.59831 0.4345 0.78153 0.0
O273 O 0.72159 0.60149 0.77158 0.0
H274 H 0.62767 0.63178 0.96507 0.0
H275 H 0.65814 0.35352 0.77107 0.0
H276 H 0.87026 0.40499 0.64227 0.0
H277 H 0.94778 0.28287 0.73237 0.0
H278 H 0.02671 0.36852 0.59928 0.0
H279 H 0.99945 0.23016 0.60208 0.0
H280 H 0.13268 0.17312 0.69654 0.0
H281 H 0.0831 0.32861 0.73473 0.0
C282 C 0.90338 0.37987 0.64718 0.0
C283 C 0.94761 0.39075 0.61521 0.0
C284 C 0.90409 0.34317 0.69048 0.0
C285 C 0.94763 0.31214 0.69913 0.0
C286 C 0.99087 0.31899 0.66428 0.0
C287 C 0.99177 0.35999 0.62344 0.0
C288 C 0.03374 0.28207 0.67025 0.0
C289 C 0.03037 0.23604 0.63561 0.0
C290 C 0.06717 0.19759 0.64514 0.0
C291 C 0.10454 0.20351 0.68991 0.0
C292 C 0.11286 0.2513 0.72056 0.0
C293 C 0.07705 0.29111 0.7112 0.0
H294 H 0.90535 0.64879 0.90087 0.0
H295 H 0.04668 0.73388 0.987 0.0
H296 H 0.98304 0.79669 0.83355 0.0
H297 H 0.10295 0.78623 0.83948 0.0
H298 H 0.17952 0.93823 0.90762 0.0
H299 H 0.03898 0.85597 0.97919 0.0
C300 C 0.93884 0.68163 0.90253 0.0
C301 C 0.94031 0.72166 0.8621 0.0
C302 C 0.97605 0.6859 0.9479 0.0
C303 C 0.01783 0.73002 0.95163 0.0
C304 C 0.022 0.76905 0.90895 0.0
C305 C 0.98222 0.76522 0.86475 0.0
C306 C 0.06677 0.81471 0.91042 0.0
C307 C 0.10522 0.81785 0.87027 0.0
C308 C 0.14656 0.862 0.87018 0.0
C309 C 0.14819 0.90349 0.90868 0.0
C310 C 0.10938 0.90232 0.94729 0.0
C311 C 0.06918 0.85715 0.94925 0.0
H312 H 0.37728 0.8913 0.12528 0.0
H313 H 0.44548 0.7664 0.21991 0.0
H314 H 0.53548 0.85049 0.09313 0.0
H315 H 0.50037 0.6975 0.11435 0.0
H316 H 0.6414 0.66576 0.21423 0.0
H317 H 0.58798 0.8247 0.21819 0.0
C318 C 0.40915 0.86487 0.13193 0.0
C319 C 0.4556 0.87466 0.10291 0.0
C320 C 0.40631 0.82827 0.17533 0.0
C321 C 0.44785 0.79504 0.18612 0.0
C322 C 0.49343 0.8003 0.1542 0.0
C323 C 0.49843 0.8423 0.11416 0.0
C324 C 0.53712 0.76468 0.16685 0.0
C325 C 0.53291 0.71117 0.14456 0.0
C326 C 0.57101 0.67556 0.16224 0.0
C327 C 0.61123 0.69295 0.20234 0.0
C328 C 0.61899 0.74641 0.22156 0.0
C329 C 0.58196 0.78285 0.20373 0.0
H330 H 0.402 0.14633 0.39537 0.0
H331 H 0.52768 0.24409 0.49212 0.0
H332 H 0.48164 0.29252 0.32683 0.0
H333 H 0.5936 0.296 0.34174 0.0
H334 H 0.66554 0.44561 0.41808 0.0
H335 H 0.52466 0.35708 0.48325 0.0
C336 C 0.43341 0.18115 0.39901 0.0
C337 C 0.43838 0.21813 0.35601 0.0
C338 C 0.46458 0.19021 0.44814 0.0
C339 C 0.50349 0.23665 0.45385 0.0
C340 C 0.51147 0.27285 0.40916 0.0
C341 C 0.47792 0.26371 0.3604 0.0
C342 C 0.55448 0.32024 0.41275 0.0
C343 C 0.59402 0.32625 0.37361 0.0
C344 C 0.63463 0.37107 0.37649 0.0
C345 C 0.63459 0.41037 0.41677 0.0
C346 C 0.5951 0.40626 0.45466 0.0
C347 C 0.55536 0.36051 0.4537 0.0
H348 H 0.62672 0.90672 0.37528 0.0
H349 H 0.70803 0.02662 0.2722 0.0
H350 H 0.5426 0.03836 0.3123 0.0
H351 H 0.5425 0.06866 0.21355 0.0
H352 H 0.62352 0.2253 0.17012 0.0
H353 H 0.7056 0.12136 0.27906 0.0
C354 C 0.6254 0.94233 0.34902 0.0
C355 C 0.57884 0.96893 0.34535 0.0
C356 C 0.67236 0.96359 0.32444 0.0
C357 C 0.67156 0.01065 0.29162 0.0
C358 C 0.62398 0.03754 0.2853 0.0
C359 C 0.57804 0.0166 0.31344 0.0
C360 C 0.62333 0.08951 0.25297 0.0
C361 C 0.57726 0.09966 0.21874 0.0
C362 C 0.57736 0.14914 0.18936 0.0
C363 C 0.62272 0.18823 0.19456 0.0
C364 C 0.66955 0.17772 0.22508 0.0
C365 C 0.66964 0.12895 0.25495 0.0
H366 H 0.13644 0.41043 0.40834 0.0
H367 H 0.24249 0.48385 0.53946 0.0
H368 H 0.27408 0.33151 0.46858 0.0
H369 H 0.29116 0.3279 0.5827 0.0
H370 H 0.44272 0.41271 0.64763 0.0
H371 H 0.34608 0.49106 0.52631 0.0
C372 C 0.17157 0.40868 0.43696 0.0
C373 C 0.20255 0.36517 0.43442 0.0
C374 C 0.18566 0.45126 0.47421 0.0
C375 C 0.23175 0.45066 0.51054 0.0
C376 C 0.26398 0.4072 0.50936 0.0
C377 C 0.24917 0.36448 0.47078 0.0
C378 C 0.31393 0.40792 0.54717 0.0
C379 C 0.32191 0.36303 0.5822 0.0
C380 C 0.36855 0.36536 0.61872 0.0
C381 C 0.4074 0.41089 0.61861 0.0
C382 C 0.39941 0.45638 0.58644 0.0
C383 C 0.35249 0.45533 0.55084 0.0
H384 H 0.93639 0.17677 0.91205 0.0
H385 H 0.82996 0.08813 0.78984 0.0
H386 H 0.98791 0.03743 0.8358 0.0
H387 H 0.97324 0.03591 0.72697 0.0
H388 H 0.86635 0.90554 0.64953 0.0
H389 H 0.82042 0.97815 0.79518 0.0
C390 C 0.92891 0.14397 0.88215 0.0
C391 C 0.96802 0.10862 0.87711 0.0
C392 C 0.87921 0.13631 0.85178 0.0
C393 C 0.86855 0.09353 0.81385 0.0
C394 C 0.90805 0.058 0.80684 0.0
C395 C 0.95792 0.06547 0.83923 0.0
C396 C 0.89719 0.01401 0.76505 0.0
C397 C 0.93521 0.00913 0.72569 0.0
C398 C 0.92344 0.96988 0.6842 0.0
C399 C 0.87443 0.93633 0.68149 0.0
C400 C 0.83781 0.93798 0.72166 0.0
C401 C 0.84863 0.97717 0.76355 0.0
H402 H 0.38609 0.63672 0.90785 0.0
H403 H 0.33571 0.57238 0.06165 0.0
H404 H 0.22579 0.65477 0.95371 0.0
H405 H 0.27341 0.69251 0.08679 0.0
H406 H 0.14002 0.61689 0.17286 0.0
H407 H 0.19098 0.53399 0.03563 0.0
C408 C 0.35519 0.63019 0.93739 0.0
C409 C 0.30506 0.64832 0.92515 0.0
C410 C 0.36594 0.60122 0.98475 0.0
C411 C 0.32665 0.59302 0.02352 0.0
C412 C 0.27588 0.6132 0.01291 0.0
C413 C 0.26479 0.64002 0.96281 0.0
C414 C 0.23752 0.61271 0.05656 0.0
C415 C 0.24227 0.65834 0.09167 0.0
C416 C 0.20628 0.65963 0.13281 0.0
C417 C 0.16718 0.61557 0.14005 0.0
C418 C 0.1608 0.57059 0.10571 0.0
C419 C 0.19596 0.56865 0.06313 0.0
H420 H 0.63194 0.9361 0.90675 0.0
H421 H 0.74225 1.00396 0.03713 0.0
H422 H 0.76208 0.847 0.9679 0.0
H423 H 0.78165 0.84362 0.0809 0.0
H424 H 0.93472 0.92323 0.14811 0.0
H425 H 0.84507 1.00387 0.02275 0.0
C426 C 0.66672 0.93215 0.93526 0.0
C427 C 0.6937 0.88582 0.93338 0.0
C428 C 0.68381 0.97442 0.97205 0.0
C429 C 0.72936 0.971 1.00841 0.0
C430 C 0.75818 0.9249 1.00762 0.0
C431 C 0.74005 0.88221 0.96963 0.0
C432 C 0.80787 0.92299 0.04549 0.0
C433 C 0.81346 0.87782 0.08096 0.0
C434 C 0.85946 0.87858 0.11828 0.0
C435 C 0.89973 0.9228 0.11881 0.0
C436 C 0.89508 0.96773 0.08488 0.0
C437 C 0.8489 0.96842 0.04855 0.0
H438 H 0.42229 0.67684 0.42322 0.0
H439 H 0.32486 0.59187 0.29203 0.0
H440 H 0.48262 0.5439 0.34432 0.0
H441 H 0.47306 0.54903 0.23512 0.0
H442 H 0.37908 0.41536 0.14908 0.0
H443 H 0.32051 0.47677 0.29428 0.0
C444 C 0.4169 0.64484 0.39243 0.0
C445 C 0.45771 0.61142 0.3878 0.0
C446 C 0.3692 0.63798 0.35875 0.0
C447 C 0.36165 0.59652 0.31889 0.0
C448 C 0.40267 0.56225 0.31282 0.0
C449 C 0.45097 0.57005 0.34781 0.0
C450 C 0.39612 0.5203 0.26842 0.0
C451 C 0.43679 0.51999 0.23081 0.0
C452 C 0.43051 0.48156 0.18819 0.0
C453 C 0.38335 0.44514 0.18203 0.0
C454 C 0.3446 0.44161 0.22055 0.0
C455 C 0.35029 0.47967 0.26382 0.0
H456 H 0.89345 0.14583 0.40083 0.0
H457 H 0.82824 0.07287 0.54518 0.0
H458 H 0.73486 0.1766 0.44214 0.0
H459 H 0.77783 0.19703 0.5836 0.0
H460 H 0.63868 0.11844 0.65899 0.0
H461 H 0.68513 0.05213 0.51024 0.0
C462 C 0.86098 0.1406 0.42872 0.0
C463 C 0.81394 0.16441 0.41587 0.0
C464 C 0.86536 0.10565 0.47294 0.0
C465 C 0.82404 0.09876 0.50959 0.0
C466 C 0.77729 0.12608 0.49989 0.0
C467 C 0.77154 0.15767 0.4516 0.0
C468 C 0.73681 0.12436 0.542 0.0
C469 C 0.74423 0.16458 0.58358 0.0
C470 C 0.70805 0.1623 0.62519 0.0
C471 C 0.66596 0.12004 0.626 0.0
C472 C 0.65637 0.08101 0.5849 0.0
C473 C 0.69202 0.08257 0.54235 0.0
H474 H 0.13556 0.39882 0.8668 0.0
H475 H 0.21618 0.51486 0.76007 0.0
H476 H 0.05139 0.52928 0.80133 0.0
H477 H 0.04765 0.56134 0.70722 0.0
H478 H 0.12949 0.71581 0.65891 0.0
H479 H 0.21689 0.60599 0.75489 0.0
C480 C 0.13392 0.43362 0.83949 0.0
C481 C 0.08734 0.46018 0.8353 0.0
C482 C 0.18088 0.45442 0.81484 0.0
C483 C 0.1798 0.50011 0.78015 0.0
C484 C 0.13225 0.52712 0.77306 0.0
C485 C 0.08654 0.50714 0.80224 0.0
C486 C 0.13152 0.57866 0.73958 0.0
C487 C 0.08362 0.59094 0.70966 0.0
C488 C 0.08323 0.6405 0.68052 0.0
C489 C 0.12954 0.67845 0.68277 0.0
C490 C 0.178 0.66583 0.70859 0.0
C491 C 0.17912 0.61592 0.7364 0.0
C492 C 0.03843 0.45974 0.9731 0.0
C493 C 0.02776 0.40317 0.98191 0.0
H494 H 0.06316 0.52333 0.91708 0.0
C495 C 0.01862 0.36839 0.9363 0.0
H496 H 0.04463 0.48743 1.00734 0.0
C497 C 0.02833 0.38915 0.88399 0.0
C498 C 0.04766 0.4448 0.87689 0.0
H499 H 0.01016 0.32462 0.94167 0.0
H500 H 0.02805 0.36065 0.85056 0.0
C501 C 0.04794 0.4805 0.92104 0.0
C502 C 0.92417 0.76932 0.19635 0.0
C503 C 0.91719 0.78392 0.25057 0.0
H504 H 0.90853 0.78637 0.11101 0.0
C505 C 0.88364 0.82451 0.25947 0.0
H506 H 0.95058 0.73899 0.18788 0.0
C507 C 0.85895 0.85086 0.2154 0.0
C508 C 0.86722 0.83736 0.1613 0.0
H509 H 0.87849 0.83784 0.30049 0.0
H510 H 0.83635 0.8845 0.22354 0.0
C511 C 0.89942 0.79575 0.15219 0.0
C512 C 0.57164 0.69281 0.46773 0.0
C513 C 0.55774 0.67751 0.52087 0.0
H514 H 0.55096 0.68152 0.38168 0.0
C515 C 0.52138 0.62992 0.52722 0.0
H516 H 0.59913 0.72946 0.4611 0.0
C517 C 0.49554 0.60134 0.4819 0.0
C518 C 0.50428 0.62056 0.42892 0.0
H519 H 0.50852 0.61802 0.5671 0.0
H520 H 0.46343 0.56855 0.48841 0.0
C521 C 0.54464 0.66485 0.42207 0.0
C522 C 0.714 0.20182 0.76906 0.0
C523 C 0.66971 0.23258 0.76883 0.0
H524 H 0.76512 0.15934 0.72218 0.0
C525 C 0.64827 0.25045 0.71803 0.0
H526 H 0.73068 0.18531 0.8064 0.0
C527 C 0.66877 0.23567 0.66933 0.0
C528 C 0.71041 0.20182 0.67005 0.0
H529 H 0.6141 0.27378 0.71515 0.0
H530 H 0.64798 0.24561 0.63088 0.0
C531 C 0.73467 0.18743 0.72045 0.0
C532 C 0.97692 0.70658 0.59535 0.0
C533 C 0.98448 0.6868 0.5431 0.0
H534 H 1.00181 0.70618 0.68121 0.0
C535 C 0.02108 0.6481 0.5387 0.0
H536 H 0.95094 0.73821 0.60014 0.0
C537 C 0.0486 0.6288 0.58479 0.0
C538 C 0.04175 0.6491 0.63662 0.0
H539 H 0.03147 0.63534 0.49926 0.0
H540 H 0.07839 0.60089 0.57955 0.0
C541 C 0.00571 0.68815 0.64178 0.0
C542 C 0.59402 0.80597 0.83196 0.0
C543 C 0.62755 0.79561 0.7905 0.0
H544 H 0.58928 0.83906 0.91162 0.0
C545 C 0.68409 0.80628 0.80114 0.0
H546 H 0.55023 0.79726 0.82564 0.0
C547 C 0.70677 0.83149 0.85 0.0
C548 C 0.67303 0.8449 0.89008 0.0
H549 H 0.71057 0.79742 0.77057 0.0
H550 H 0.75025 0.84345 0.85487 0.0
C551 C 0.61652 0.82941 0.88144 0.0
C552 C 0.50918 0.48815 0.06276 0.0
C553 C 0.52529 0.43542 0.06287 0.0
H554 H 0.46541 0.54482 0.10263 0.0
C555 C 0.51846 0.40311 0.10993 0.0
H556 H 0.51547 0.51452 0.02833 0.0
C557 C 0.49396 0.42208 0.15431 0.0
C558 C 0.47339 0.47278 0.15177 0.0
H559 H 0.53113 0.36263 0.11217 0.0
H560 H 0.48683 0.39511 0.18888 0.0
C561 C 0.48184 0.50609 0.10595 0.0
C562 C 0.86168 0.25153 0.30109 0.0
C563 C 0.85785 0.21168 0.25974 0.0
H564 H 0.84581 0.2691 0.38372 0.0
C565 C 0.82679 0.16117 0.26782 0.0
H566 H 0.88499 0.29103 0.29588 0.0
C567 C 0.80398 0.14917 0.31753 0.0
C568 C 0.81051 0.18746 0.36021 0.0
H569 H 0.82366 0.12916 0.23748 0.0
H570 H 0.78665 0.10747 0.32498 0.0
C571 C 0.83788 0.23964 0.35077 0.0
C572 C 0.01149 0.09539 0.47571 0.0
C573 C 0.01229 0.06106 0.43037 0.0
H574 H 0.96241 0.13412 0.5284 0.0
C575 C 0.96361 0.03071 0.41028 0.0
H576 H 0.04821 0.11982 0.49134 0.0
C577 C 0.91466 0.03742 0.43285 0.0
C578 C 0.91331 0.07591 0.47469 0.0
H579 H 0.96317 1.0031 0.37615 0.0
H580 H 0.87707 0.01737 0.41335 0.0
C581 C 0.96248 0.10278 0.49772 0.0
C582 C 0.27173 0.79598 0.70107 0.0
C583 C 0.29517 0.78853 0.65162 0.0
H584 H 0.21673 0.76152 0.75948 0.0
C585 C 0.28696 0.7367 0.62708 0.0
H586 H 0.27657 0.8358 0.71993 0.0
C587 C 0.25324 0.69412 0.64985 0.0
C588 C 0.22734 0.7026 0.69754 0.0
H589 H 0.30326 0.73007 0.58819 0.0
H590 H 0.24403 0.65583 0.62785 0.0
C591 C 0.23785 0.75348 0.72377 0.0
C592 C 0.60858 0.07878 0.90379 0.0
C593 C 0.55896 0.06758 0.92821 0.0
H594 H 0.6903 0.05975 0.90166 0.0
C595 C 0.55776 0.03812 0.97756 0.0
H596 H 0.61074 0.1019 0.8661 0.0
C597 C 0.60348 0.01481 0.99843 0.0
C598 C 0.65101 0.02047 0.97013 0.0
H599 H 0.52013 0.02869 0.99717 0.0
H600 H 0.59946 0.98689 0.03269 0.0
C601 C 0.65439 0.05562 0.92475 0.0
C602 C 0.31232 0.29383 0.20594 0.0
C603 C 0.2718 0.29056 0.16312 0.0
H604 H 0.36298 0.34509 0.26338 0.0
C605 C 0.24612 0.33706 0.14947 0.0
H606 H 0.33482 0.25957 0.21469 0.0
C607 C 0.26319 0.3869 0.17637 0.0
C608 C 0.30622 0.39085 0.21719 0.0
H609 H 0.21533 0.33568 0.11581 0.0
H610 H 0.24709 0.42347 0.16107 0.0
C611 C 0.32812 0.3429 0.23397 0.0
C612 C 0.97436 0.08239 0.16147 0.0
C613 C 0.02653 0.06605 0.15967 0.0
H614 H 0.88978 0.06444 0.13554 0.0
C615 C 0.03534 0.02799 0.11988 0.0
H616 H 0.96632 0.11149 0.19179 0.0
C617 C 0.99199 1.00272 0.08645 0.0
C618 C 0.93869 0.01366 0.09339 0.0
H619 H 0.0751 0.01496 0.11707 0.0
H620 H 0.99918 0.96963 0.06013 0.0
C621 C 0.9306 0.05617 0.12857 0.0
C622 C 0.27325 0.71548 0.42936 0.0
C623 C 0.28284 0.76713 0.40477 0.0
H624 H 0.29125 0.63236 0.43161 0.0
C625 C 0.31517 0.77297 0.35979 0.0
H626 H 0.24894 0.71 0.4644 0.0
C627 C 0.33893 0.72878 0.34084 0.0
C628 C 0.33025 0.67751 0.36611 0.0
H629 H 0.32469 0.81249 0.34136 0.0
H630 H 0.36665 0.73544 0.30855 0.0
C631 C 0.29658 0.67097 0.41004 0.0
C632 C 0.51574 0.05384 0.6179 0.0
C633 C 0.52062 0.01447 0.65912 0.0
H634 H 0.55516 0.10235 0.55623 0.0
C635 C 0.56568 0.98474 0.66059 0.0
H636 H 0.48166 0.07745 0.61541 0.0
C637 C 0.60799 0.99899 0.62602 0.0
C638 C 0.60593 0.04317 0.58952 0.0
H639 H 0.57053 0.95369 0.69144 0.0
H640 H 0.64527 0.98051 0.63312 0.0
C641 C 0.55739 0.06725 0.58285 0.0
C642 C 0.27587 0.38928 0.91117 0.0
C643 C 0.28636 0.345 0.87946 0.0
H644 H 0.23618 0.46155 0.91394 0.0
C645 C 0.27528 0.34756 0.82263 0.0
H646 H 0.28543 0.38981 0.9549 0.0
C647 C 0.24719 0.38891 0.79887 0.0
C648 C 0.23059 0.42904 0.83178 0.0
H649 H 0.28437 0.31507 0.79732 0.0
H650 H 0.23387 0.38651 0.75591 0.0
C651 C 0.24859 0.43102 0.88751 0.0
C652 C 0.40203 0.98965 0.02776 0.0
C653 C 0.42219 0.03182 0.06474 0.0
H654 H 0.39961 0.9044 0.00884 0.0
C655 C 0.46639 0.02286 0.10162 0.0
H656 H 0.3683 0.9946 0.99856 0.0
C657 C 0.48661 0.97243 0.10505 0.0
C658 C 0.46098 0.92805 0.07409 0.0
H659 H 0.48301 0.0533 0.13123 0.0
H660 H 0.51658 0.96605 0.13802 0.0
C661 C 0.421 0.93812 0.03267 0.0
C662 C 0.89545 0.61751 0.05596 0.0
C663 C 0.89816 0.56229 0.04393 0.0
H664 H 0.92189 0.70113 0.03694 0.0
C665 C 0.93684 0.54949 0.00842 0.0
H666 H 0.86468 0.62891 0.08121 0.0
C667 C 0.96942 0.59105 0.98276 0.0
C668 C 0.9641 0.6462 0.99215 0.0
H669 H 0.93987 0.50739 0.9982 0.0
H670 H 0.99504 0.58017 0.95165 0.0
C671 C 0.92855 0.65904 0.03082 0.0
C672 C 0.7593 0.75312 0.20922 0.0
C673 C 0.77099 0.71383 0.24898 0.0
H674 H 0.7019 0.80362 0.1747 0.0
C675 C 0.73743 0.70613 0.29303 0.0
H676 H 0.78367 0.76077 0.17474 0.0
C677 C 0.68985 0.73163 0.29303 0.0
C678 C 0.67386 0.76271 0.24746 0.0
H679 H 0.74492 0.67683 0.32486 0.0
H680 H 0.66094 0.71866 0.32305 0.0
C681 C 0.71256 0.7792 0.2099 0.0
C682 C 0.6186 0.5514 0.49221 0.0
C683 C 0.65533 0.54931 0.53802 0.0
H684 H 0.5656 0.50592 0.43202 0.0
C685 C 0.65909 0.4987 0.56426 0.0
H686 H 0.61548 0.58942 0.47066 0.0
C687 C 0.6308 0.45059 0.54175 0.0
C688 C 0.5982 0.45244 0.49291 0.0
H689 H 0.68698 0.49558 0.59978 0.0
H690 H 0.63928 0.41165 0.559 0.0
C691 C 0.58944 0.50356 0.47051 0.0
C692 C 0.3289 0.89906 0.27099 0.0
C693 C 0.27548 0.88303 0.24958 0.0
H694 H 0.41337 0.89013 0.26655 0.0
C695 C 0.26607 0.84039 0.21131 0.0
H696 H 0.33726 0.93179 0.30064 0.0
C697 C 0.30917 0.81592 0.19269 0.0
C698 C 0.36274 0.83362 0.21198 0.0
H699 H 0.22576 0.82912 0.1925 0.0
H700 H 0.30123 0.78711 0.15916 0.0
C701 C 0.37216 0.87419 0.25266 0.0
C702 C 0.14448 0.10786 0.57073 0.0
C703 C 0.12239 0.05666 0.59012 0.0
H704 H 0.14026 0.1942 0.56926 0.0
C705 C 0.07392 0.05391 0.6169 0.0
H706 H 0.18244 0.11247 0.55116 0.0
C707 C 0.04851 0.1002 0.6252 0.0
C708 C 0.07251 0.15146 0.60927 0.0
H709 H 0.05737 0.01653 0.63512 0.0
H710 H 0.01403 0.09682 0.65029 0.0
C711 C 0.1195 0.15467 0.57981 0.0
C712 C 0.7075 0.44074 0.26363 0.0
C713 C 0.76104 0.44645 0.2875 0.0
H714 H 0.62427 0.40897 0.27255 0.0
C715 C 0.77299 0.41555 0.33429 0.0
H716 H 0.69709 0.46422 0.22782 0.0
C717 C 0.73163 0.38275 0.35877 0.0
C718 C 0.67742 0.3812 0.33777 0.0
H719 H 0.81383 0.41856 0.35352 0.0
H720 H 0.74117 0.36307 0.39733 0.0
C721 C 0.66595 0.40831 0.28859 0.0
C722 C 0.82754 0.65877 0.76798 0.0
C723 C 0.78378 0.68038 0.78983 0.0
H724 H 0.91396 0.65783 0.7722 0.0
C725 C 0.79459 0.72475 0.82598 0.0
H726 H 0.82036 0.62437 0.74016 0.0
C727 C 0.848 0.74515 0.8425 0.0
C728 C 0.89149 0.72034 0.82452 0.0
H729 H 0.76194 0.74074 0.84501 0.0
H730 H 0.85502 0.77595 0.8743 0.0
C731 C 0.88107 0.67863 0.78527 0.0
C732 C 0.49554 0.87319 0.43463 0.0
C733 C 0.49661 0.90568 0.48158 0.0
H734 H 0.5189 0.86893 0.35234 0.0
C735 C 0.51345 0.96196 0.47758 0.0
H736 H 0.48223 0.82976 0.43621 0.0
C737 C 0.53348 0.98458 0.42949 0.0
C738 C 0.53733 0.95116 0.38437 0.0
H739 H 0.5154 0.98767 0.51307 0.0
H740 H 0.55141 0.0269 0.42969 0.0
C741 C 0.51564 0.89576 0.3864 0.0
C742 C 0.39281 0.32233 0.76313 0.0
C743 C 0.42615 0.28089 0.75798 0.0
H744 H 0.34496 0.37889 0.72211 0.0
C745 C 0.43231 0.26097 0.70541 0.0
H746 H 0.38829 0.33952 0.80277 0.0
C747 C 0.40793 0.28423 0.6589 0.0
C748 C 0.37598 0.32683 0.66432 0.0
H749 H 0.45854 0.2297 0.69991 0.0
H750 H 0.41705 0.27153 0.61876 0.0
C751 C 0.36749 0.3445 0.71697 0.0
C752 C 0.02922 0.12319 0.01669 0.0
C753 C 0.06614 0.17043 0.01183 0.0
H754 H 0.97204 0.06256 0.97597 0.0
C755 C 0.0817 0.18633 0.95934 0.0
H756 H 0.01458 0.11157 0.05579 0.0
C757 C 0.0555 0.1594 0.91281 0.0
C758 C 0.01455 0.11542 0.91823 0.0
H759 H 0.10987 0.22275 0.95382 0.0
H760 H 0.06274 0.1768 0.87289 0.0
C761 C 0.00471 0.09511 0.97059 0.0
C762 C 0.21346 0.71301 0.27 0.0
C763 C 0.16391 0.73521 0.26815 0.0
H764 H 0.26988 0.67527 0.2256 0.0
C765 C 0.13931 0.74743 0.21684 0.0
H766 H 0.23283 0.70227 0.3084 0.0
C767 C 0.16117 0.73274 0.16897 0.0
C768 C 0.20706 0.70436 0.17172 0.0
H769 H 0.10103 0.76431 0.21338 0.0
H770 H 0.13797 0.73657 0.13033 0.0
C771 C 0.23532 0.69835 0.22231 0.0
C772 C 0.52287 0.15707 0.0448 0.0
C773 C 0.4892 0.19871 0.04669 0.0
H774 H 0.57522 0.10706 0.0893 0.0
C775 C 0.47954 0.21938 0.09795 0.0
H776 H 0.53396 0.14288 1.00614 0.0
C777 C 0.50389 0.19914 0.14603 0.0
C778 C 0.53775 0.15762 0.14353 0.0
H779 H 0.45558 0.25302 0.10078 0.0
H780 H 0.49885 0.21796 0.18479 0.0
C781 C 0.54669 0.13668 0.09249 0.0
C782 C 0.20132 0.29234 0.29945 0.0
C783 C 0.14538 0.27645 0.28849 0.0
H784 H 0.26424 0.33236 0.35497 0.0
C785 C 0.1107 0.28018 0.33077 0.0
H786 H 0.22881 0.28928 0.26802 0.0
C787 C 0.13091 0.3033 0.38109 0.0
C788 C 0.18613 0.32426 0.39011 0.0
H789 H 0.06744 0.2675 0.32418 0.0
H790 H 0.10251 0.30861 0.41164 0.0
C791 C 0.22165 0.31628 0.34963 0.0
C792 C 0.98238 0.96505 0.54874 0.0
C793 C 0.01281 0.92085 0.55572 0.0
H794 H 0.93021 0.01591 0.58469 0.0
C795 C 0.01753 0.89624 0.60737 0.0
H796 H 0.97608 0.98254 0.50896 0.0
C797 C 0.99243 0.91594 0.65119 0.0
C798 C 0.96148 0.95983 0.64356 0.0
H799 H 0.03975 0.86125 0.61342 0.0
H800 H 0.99472 0.89515 0.69023 0.0
C801 C 0.95621 0.98396 0.59195 0.0
C802 C 0.34505 0.73492 0.80904 0.0
C803 C 0.34756 0.69342 0.77052 0.0
H804 H 0.32445 0.75381 0.88973 0.0
C805 C 0.32026 0.64129 0.77992 0.0
H806 H 0.36469 0.77588 0.80263 0.0
C807 C 0.29476 0.62972 0.82821 0.0
C808 C 0.29749 0.66929 0.86924 0.0
H809 H 0.32131 0.60806 0.75171 0.0
H810 H 0.27921 0.58764 0.8365 0.0
C811 C 0.32023 0.7229 0.85809 0.0
C812 C 0.47606 0.53836 0.92904 0.0
C813 C 0.51926 0.58012 0.93997 0.0
H814 H 0.39285 0.50917 0.94072 0.0
C815 C 0.51315 0.62032 0.97871 0.0
H816 H 0.4795 0.50616 0.90028 0.0
C817 C 0.46424 0.62063 1.0035 0.0
C818 C 0.41971 0.58167 0.98901 0.0
H819 H 0.54463 0.65401 0.98696 0.0
H820 H 0.45893 0.65545 0.02833 0.0
C821 C 0.42707 0.53875 0.95392 0.0
C822 C 0.775 0.25919 0.14784 0.0
C823 C 0.78509 0.30731 0.17914 0.0
H824 H 0.73176 0.17878 0.13988 0.0
C825 C 0.76569 0.30685 0.23162 0.0
H826 H 0.78905 0.25775 0.10712 0.0
C827 C 0.73223 0.26164 0.2502 0.0
C828 C 0.71901 0.21541 0.21697 0.0
H829 H 0.7735 0.34269 0.25677 0.0
H830 H 0.71367 0.26431 0.28861 0.0
C831 C 0.74248 0.21368 0.16671 0.0
C832 C 0.10925 0.55858 0.40988 0.0
C833 C 0.06008 0.54826 0.4354 0.0
H834 H 0.1897 0.53691 0.40434 0.0
C835 C 0.05885 0.51613 0.48317 0.0
H836 H 0.11179 0.58389 0.37366 0.0
C837 C 0.10374 0.48982 0.50111 0.0
C838 C 0.15072 0.49569 0.47197 0.0
H839 H 0.02181 0.50737 0.50395 0.0
H840 H 0.09973 0.46071 0.53439 0.0
C841 C 0.15416 0.53249 0.42799 0.0
C842 C 0.79367 0.79321 0.71029 0.0
C843 C 0.75149 0.79261 0.66937 0.0
H844 H 0.84975 0.84121 0.76556 0.0
C845 C 0.72865 0.84104 0.65706 0.0
H846 H 0.81464 0.75773 0.71725 0.0
C847 C 0.75054 0.89008 0.68305 0.0
C848 C 0.79531 0.89095 0.72161 0.0
H849 H 0.69691 0.84173 0.62455 0.0
H850 H 0.73698 0.92804 0.66827 0.0
C851 C 0.81372 0.84131 0.73796 0.0
C852 C 0.46712 0.57136 0.67087 0.0
C853 C 0.52153 0.56222 0.66748 0.0
H854 H 0.38393 0.54577 0.64406 0.0
C855 C 0.53444 0.52893 0.62531 0.0
H856 H 0.45586 0.59608 0.7035 0.0
C857 C 0.49354 0.50135 0.59048 0.0
C858 C 0.43869 0.5054 0.59809 0.0
H859 H 0.57585 0.52108 0.62184 0.0
H860 H 0.50435 0.4716 0.5622 0.0
C861 C 0.42594 0.54319 0.63628 0.0
C862 C 0.79138 0.21168 0.93378 0.0
C863 C 0.79083 0.26045 0.90398 0.0
H864 H 0.8176 0.13198 0.93824 0.0
C865 C 0.81244 0.26431 0.85266 0.0
H866 H 0.77508 0.20805 0.97364 0.0
C867 C 0.83739 0.22141 0.83266 0.0
C868 C 0.83932 0.17332 0.86324 0.0
H869 H 0.81274 0.30166 0.82975 0.0
H870 H 0.85754 0.22685 0.79487 0.0
C871 C 0.81491 0.16817 0.91326 0.0
C872 C 0.07373 0.48108 0.1933 0.0
C873 C 0.02428 0.50233 0.18078 0.0
H874 H 0.15768 0.4847 0.17615 0.0
C875 C 0.01825 0.53242 0.13236 0.0
H876 H 0.07979 0.45776 0.23038 0.0
C877 C 0.06218 0.54589 0.10018 0.0
C878 C 0.11356 0.53051 0.11625 0.0
H879 H 0.98092 0.54969 0.12199 0.0
H880 H 0.05789 0.57458 0.06689 0.0
C881 C 0.11821 0.49565 0.16166 0.0
C882 C 0.76542 0.85519 0.32998 0.0
C883 C 0.77709 0.85287 0.3868 0.0
H884 H 0.72233 0.89361 0.26413 0.0
C885 C 0.76807 0.89762 0.41856 0.0
H886 H 0.77369 0.82232 0.30443 0.0
C887 C 0.74131 0.93981 0.39526 0.0
C888 C 0.72195 0.93751 0.33996 0.0
H889 H 0.77808 0.89796 0.46223 0.0
H890 H 0.73003 0.97082 0.42186 0.0
C891 C 0.73704 0.89662 0.30674 0.0
C892 C 0.95107 0.53748 0.61514 0.0
C893 C 0.90663 0.54469 0.5782 0.0
H894 H 0.00471 0.4833 0.65023 0.0
C895 C 0.88768 0.50208 0.54129 0.0
H896 H 0.96575 0.56804 0.64533 0.0
C897 C 0.90901 0.45182 0.54569 0.0
C898 C 0.95018 0.44375 0.58642 0.0
H899 H 0.85346 0.50571 0.51229 0.0
H900 H 0.88887 0.41743 0.52197 0.0
C901 C 0.9741 0.48866 0.61756 0.0
C902 C 0.37764 0.12544 0.55329 0.0
C903 C 0.38137 0.06982 0.54404 0.0
H904 H 0.40484 0.20843 0.53244 0.0
C905 C 0.42146 0.05594 0.51096 0.0
H906 H 0.3456 0.1376 0.57637 0.0
C907 C 0.4554 0.09661 0.48579 0.0
C908 C 0.44969 0.15206 0.4928 0.0
H909 H 0.4244 0.01359 0.50202 0.0
H910 H 0.48256 0.08473 0.45664 0.0
C911 C 0.41196 0.16619 0.52851 0.0
C912 C 0.25409 0.25288 0.71051 0.0
C913 C 0.26358 0.20989 0.7468 0.0
H914 H 0.19921 0.30779 0.67988 0.0
C915 C 0.22835 0.19869 0.78914 0.0
H916 H 0.28027 0.2639 0.67797 0.0
C917 C 0.18101 0.22456 0.7901 0.0
C918 C 0.16781 0.26113 0.74813 0.0
H919 H 0.23438 0.16655 0.8184 0.0
H920 H 0.15072 0.20926 0.81795 0.0
C921 C 0.20796 0.27967 0.71263 0.0
C922 C 0.1667 0.99759 0.05893 0.0
C923 C 0.16709 0.0477 0.03072 0.0
H924 H 0.1456 0.91056 0.05455 0.0
C925 C 0.13485 0.0495 0.98159 0.0
H926 H 0.19073 0.99476 0.09719 0.0
C927 C 0.10749 1.0015 0.95835 0.0
C928 C 0.11296 0.95063 0.98313 0.0
H929 H 0.13434 0.0872 0.9588 0.0
H930 H 0.08738 1.00342 0.91784 0.0
C931 C 0.14007 0.94932 0.03509 0.0
C932 C 0.76348 0.34734 0.72765 0.0
C933 C 0.77125 0.38906 0.76694 0.0
H934 H 0.80072 0.29666 0.67474 0.0
C935 C 0.82419 0.40619 0.78916 0.0
H936 H 0.72374 0.33578 0.70782 0.0
C937 C 0.86865 0.38409 0.76989 0.0
C938 C 0.86074 0.34467 0.72809 0.0
H939 H 0.83128 0.43828 0.81957 0.0
H940 H 0.90939 0.40142 0.78391 0.0
C941 C 0.80762 0.32487 0.70884 0.0
C942 C 0.63068 0.57625 0.07683 0.0
C943 C 0.63214 0.53188 0.11307 0.0
H944 H 0.60789 0.65691 0.06345 0.0
C945 C 0.60427 0.53248 0.16097 0.0
H946 H 0.65222 0.57711 0.04001 0.0
C947 C 0.57695 0.57673 0.17294 0.0
C948 C 0.57679 0.62201 0.1377 0.0
H949 H 0.60531 0.49982 0.1906 0.0
H950 H 0.56027 0.57795 0.21243 0.0
C951 C 0.60358 0.62098 0.08919 0.0
C952 C 0.2828 0.8998 0.81832 0.0
C953 C 0.26906 0.93252 0.77342 0.0
H954 H 0.25326 0.84845 0.88343 0.0
C955 C 0.2144 0.92876 0.75302 0.0
H956 H 0.32458 0.90114 0.83467 0.0
C957 C 0.17372 0.89763 0.78037 0.0
C958 C 0.18707 0.86996 0.82871 0.0
H959 H 0.20245 0.95365 0.71885 0.0
H960 H 0.13154 0.90022 0.76724 0.0
C961 C 0.2421 0.86877 0.8457 0.0
C962 C 0.29759 0.19288 0.29853 0.0
C963 C 0.30162 0.15004 0.26231 0.0
H964 H 0.34014 0.2523 0.35392 0.0
C965 C 0.35312 0.14046 0.24725 0.0
H966 H 0.25846 0.20069 0.31136 0.0
C967 C 0.40008 0.17018 0.27157 0.0
C968 C 0.39587 0.20981 0.31127 0.0
H969 H 0.35723 0.10652 0.22089 0.0
H970 H 0.43935 0.15789 0.26413 0.0
C971 C 0.34432 0.22304 0.32223 0.0
loop_
_geom_bond_atom_site_label_1
_geom_bond_atom_site_label_2
_geom_bond_distance
_geom_bond_site_symmetry_2
_ccdc_geom_bond_type
Cu0 N1 1.999 1_455 S
Cu0 O6 1.974 . S
Cu0 N11 1.985 . S
Cu0 O20 1.959 1_455 S
N1 Cu0 1.999 1_655 S
N1 C3 1.263 . S
N1 C5 1.389 . S
N2 C3 1.358 . S
N2 C4 1.400 . S
C3 N1 1.263 . S
C3 N2 1.358 . S
C3 H9 0.930 1_655 S
C4 N2 1.400 . S
C4 C5 1.351 . S
C4 H21 0.930 . S
C5 N1 1.389 . S
C5 C4 1.351 . S
C5 H10 0.930 . S
O6 Cu0 1.974 . S
O6 C16 1.282 . S
C7 O8 1.261 1_655 S
C7 O20 1.251 . S
O8 C7 1.261 1_455 S
H9 C3 0.930 1_455 S
H10 C5 0.930 . S
N11 Cu0 1.985 . S
N11 C13 1.335 . S
N11 C14 1.390 . S
N12 C13 1.345 . S
N12 C15 1.336 . S
C13 N11 1.335 . S
C13 N12 1.345 . S
C13 H18 0.930 . S
C14 N11 1.390 . S
C14 C15 1.346 . S
C14 H19 0.930 . S
C15 N12 1.336 . S
C15 C14 1.346 . S
C15 H22 0.929 . S
C16 O6 1.282 . S
C16 O17 1.216 . S
O17 C16 1.216 . S
H18 C13 0.930 . S
H19 C14 0.930 . S
O20 Cu0 1.959 1_655 S
O20 C7 1.251 . S
H21 C4 0.930 . S
H22 C15 0.929 . S
Cu23 N24 2.007 . S
Cu23 O29 1.974 . S
Cu23 N34 1.985 . S
Cu23 O43 1.959 . S
N24 Cu23 2.007 . S
N24 C26 1.258 1_455 S
N24 C28 1.385 1_455 S
N25 C26 1.358 . S
N25 C27 1.400 . S
C26 N24 1.258 1_655 S
C26 N25 1.358 . S
C26 H32 0.930 . S
C27 N25 1.400 . S
C27 C28 1.351 . S
C27 H44 0.930 . S
C28 N24 1.385 1_655 S
C28 C27 1.351 . S
C28 H33 0.930 . S
O29 Cu23 1.974 . S
O29 C39 1.282 . S
C30 O31 1.261 . S
C30 O43 1.251 1_655 S
O31 C30 1.261 . S
H32 C26 0.930 . S
H33 C28 0.930 . S
N34 Cu23 1.985 . S
N34 C36 1.335 . S
N34 C37 1.390 . S
N35 C36 1.345 . S
N35 C38 1.336 . S
C36 N34 1.335 . S
C36 N35 1.345 . S
C36 H41 0.930 . S
C37 N34 1.390 . S
C37 C38 1.346 . S
C37 H42 0.930 . S
C38 N35 1.336 . S
C38 C37 1.346 . S
C38 H45 0.929 . S
C39 O29 1.282 . S
C39 O40 1.216 . S
O40 C39 1.216 . S
H41 C36 0.930 . S
H42 C37 0.930 . S
O43 Cu23 1.959 . S
O43 C30 1.251 1_455 S
H44 C27 0.930 . S
H45 C38 0.929 . S
Cu46 N47 1.999 . S
Cu46 O52 1.974 . S
Cu46 N57 1.985 . S
Cu46 O66 1.959 . S
N47 Cu46 1.999 . S
N47 C49 1.263 . S
N47 C51 1.389 . S
N48 C49 1.358 . S
N48 C50 1.400 . S
C49 N47 1.263 . S
C49 N48 1.358 . S
C49 H55 0.930 . S
C50 N48 1.400 . S
C50 C51 1.351 . S
C50 H67 0.930 . S
C51 N47 1.389 . S
C51 C50 1.351 . S
C51 H56 0.930 . S
O52 Cu46 1.974 . S
O52 C62 1.282 . S
C53 O54 1.261 . S
C53 O66 1.251 . S
O54 C53 1.261 . S
H55 C49 0.930 . S
H56 C51 0.930 . S
N57 Cu46 1.985 . S
N57 C59 1.335 . S
N57 C60 1.390 . S
N58 C59 1.345 . S
N58 C61 1.336 . S
C59 N57 1.335 . S
C59 N58 1.345 . S
C59 H64 0.930 . S
C60 N57 1.390 . S
C60 C61 1.346 . S
C60 H65 0.930 . S
C61 N58 1.336 . S
C61 C60 1.346 . S
C61 H68 0.929 . S
C62 O52 1.282 . S
C62 O63 1.216 . S
O63 C62 1.216 . S
H64 C59 0.930 . S
H65 C60 0.930 . S
O66 Cu46 1.959 . S
O66 C53 1.251 . S
H67 C50 0.930 . S
H68 C61 0.929 . S
Cu69 N70 1.999 . S
Cu69 O75 1.974 . S
Cu69 N80 1.985 . S
Cu69 O89 1.959 . S
N70 Cu69 1.999 . S
N70 C72 1.263 . S
N70 C74 1.389 . S
N71 C72 1.358 1_554 S
N71 C73 1.400 1_554 S
C72 N70 1.263 . S
C72 N71 1.358 1_556 S
C72 H78 0.930 1_556 S
C73 N71 1.400 1_556 S
C73 C74 1.351 . S
C73 H90 0.930 . S
C74 N70 1.389 . S
C74 C73 1.351 . S
C74 H79 0.930 . S
O75 Cu69 1.974 . S
O75 C85 1.282 . S
C76 O77 1.261 . S
C76 O89 1.251 . S
O77 C76 1.261 . S
H78 C72 0.930 1_554 S
H79 C74 0.930 . S
N80 Cu69 1.985 . S
N80 C82 1.335 . S
N80 C83 1.390 . S
N81 C82 1.345 . S
N81 C84 1.336 . S
C82 N80 1.335 . S
C82 N81 1.345 . S
C82 H87 0.930 . S
C83 N80 1.390 . S
C83 C84 1.346 . S
C83 H88 0.930 . S
C84 N81 1.336 . S
C84 C83 1.346 . S
C84 H91 0.929 . S
C85 O75 1.282 . S
C85 O86 1.216 . S
O86 C85 1.216 . S
H87 C82 0.930 . S
H88 C83 0.930 . S
O89 Cu69 1.959 . S
O89 C76 1.251 . S
H90 C73 0.930 . S
H91 C84 0.929 . S
Cu92 N93 1.999 1_565 S
Cu92 O98 1.974 . S
Cu92 N103 1.985 . S
Cu92 O112 1.959 1_565 S
N93 Cu92 1.999 1_545 S
N93 C95 1.263 . S
N93 C97 1.389 . S
N94 C95 1.358 . S
N94 C96 1.400 . S
C95 N93 1.263 . S
C95 N94 1.358 . S
C95 H101 0.930 . S
C96 N94 1.400 . S
C96 C97 1.351 . S
C96 H113 0.930 . S
C97 N93 1.389 . S
C97 C96 1.351 . S
C97 H102 0.930 . S
O98 Cu92 1.974 . S
O98 C108 1.282 . S
C99 O100 1.261 . S
C99 O112 1.251 . S
O100 C99 1.261 . S
H101 C95 0.930 . S
H102 C97 0.930 . S
N103 Cu92 1.985 . S
N103 C105 1.335 . S
N103 C106 1.390 . S
N104 C105 1.345 . S
N104 C107 1.336 . S
C105 N103 1.335 . S
C105 N104 1.345 . S
C105 H110 0.930 . S
C106 N103 1.390 . S
C106 C107 1.346 . S
C106 H111 0.930 . S
C107 N104 1.336 . S
C107 C106 1.346 . S
C107 H114 0.929 . S
C108 O98 1.282 . S
C108 O109 1.216 . S
O109 C108 1.216 . S
H110 C105 0.930 . S
H111 C106 0.930 . S
O112 Cu92 1.959 1_545 S
O112 C99 1.251 . S
H113 C96 0.930 . S
H114 C107 0.929 . S
Cu115 N116 1.999 . S
Cu115 O121 1.974 . S
Cu115 N126 1.985 . S
Cu115 O135 1.959 . S
N116 Cu115 1.999 . S
N116 C118 1.263 . S
N116 C120 1.389 . S
N117 C118 1.358 . S
N117 C119 1.400 . S
C118 N116 1.263 . S
C118 N117 1.358 . S
C118 H124 0.930 . S
C119 N117 1.400 . S
C119 C120 1.351 . S
C119 H136 0.930 . S
C120 N116 1.389 . S
C120 C119 1.351 . S
C120 H125 0.930 . S
O121 Cu115 1.974 . S
O121 C131 1.282 . S
C122 O123 1.263 . S
C122 O135 1.251 1_545 S
O123 C122 1.263 . S
H124 C118 0.930 . S
H125 C120 0.930 . S
N126 Cu115 1.985 . S
N126 C128 1.335 1_565 S
N126 C129 1.390 . S
N127 C128 1.345 . S
N127 C130 1.336 . S
C128 N126 1.335 1_545 S
C128 N127 1.345 . S
C128 H133 0.930 . S
C129 N126 1.390 . S
C129 C130 1.346 1_565 S
C129 H134 0.930 . S
C130 N127 1.336 . S
C130 C129 1.346 1_545 S
C130 H137 0.929 . S
C131 O121 1.282 . S
C131 O132 1.216 . S
O132 C131 1.216 . S
H133 C128 0.930 . S
H134 C129 0.930 . S
O135 Cu115 1.959 . S
O135 C122 1.251 1_565 S
H136 C119 0.930 . S
H137 C130 0.929 . S
Cu138 N139 1.999 . S
Cu138 O144 1.974 . S
Cu138 N149 1.985 . S
Cu138 O158 1.959 . S
N139 Cu138 1.999 . S
N139 C141 1.263 1_545 S
N139 C143 1.389 1_545 S
N140 C141 1.358 . S
N140 C142 1.400 . S
C141 N139 1.263 1_565 S
C141 N140 1.358 . S
C141 H147 0.930 . S
C142 N140 1.400 . S
C142 C143 1.351 . S
C142 H159 0.930 . S
C143 N139 1.389 1_565 S
C143 C142 1.351 . S
C143 H148 0.931 . S
O144 Cu138 1.974 . S
O144 C154 1.282 . S
C145 O146 1.261 . S
C145 O158 1.251 1_565 S
O146 C145 1.261 . S
H147 C141 0.930 . S
H148 C143 0.931 . S
N149 Cu138 1.985 . S
N149 C151 1.335 . S
N149 C152 1.390 . S
N150 C151 1.345 . S
N150 C153 1.336 . S
C151 N149 1.335 . S
C151 N150 1.345 . S
C151 H156 0.930 . S
C152 N149 1.390 . S
C152 C153 1.346 . S
C152 H157 0.930 . S
C153 N150 1.336 . S
C153 C152 1.346 . S
C153 H160 0.929 . S
C154 O144 1.282 . S
C154 O155 1.216 . S
O155 C154 1.216 . S
H156 C151 0.930 . S
H157 C152 0.930 . S
O158 Cu138 1.959 . S
O158 C145 1.251 1_545 S
H159 C142 0.930 . S
H160 C153 0.929 . S
Cu161 N162 1.999 . S
Cu161 O167 1.974 1_556 S
Cu161 N172 1.985 1_556 S
Cu161 O181 1.959 . S
N162 Cu161 1.999 . S
N162 C164 1.263 . S
N162 C166 1.389 . S
N163 C164 1.358 . S
N163 C165 1.400 . S
C164 N162 1.263 . S
C164 N163 1.358 . S
C164 H170 0.930 . S
C165 N163 1.400 . S
C165 C166 1.351 . S
C165 H182 0.930 . S
C166 N162 1.389 . S
C166 C165 1.351 . S
C166 H171 0.930 . S
O167 Cu161 1.974 1_554 S
O167 C177 1.282 . S
C168 O169 1.261 1_556 S
C168 O181 1.251 . S
O169 C168 1.261 1_554 S
H170 C164 0.930 . S
H171 C166 0.930 . S
N172 Cu161 1.985 1_554 S
N172 C174 1.335 . S
N172 C175 1.390 . S
N173 C174 1.345 . S
N173 C176 1.336 . S
C174 N172 1.335 . S
C174 N173 1.345 . S
C174 H179 0.929 1_554 S
C175 N172 1.390 . S
C175 C176 1.346 . S
C175 H180 0.930 . S
C176 N173 1.336 . S
C176 C175 1.346 . S
C176 H183 0.929 . S
C177 O167 1.282 . S
C177 O178 1.216 . S
O178 C177 1.216 . S
H179 C174 0.929 1_556 S
H180 C175 0.930 . S
O181 Cu161 1.959 . S
O181 C168 1.251 . S
H182 C165 0.930 . S
H183 C176 0.929 . S
Cu184 N185 1.999 . S
Cu184 O190 1.974 1_556 S
Cu184 N195 1.985 1_556 S
Cu184 O204 1.959 . S
N185 Cu184 1.999 . S
N185 C187 1.263 . S
N185 C189 1.389 . S
N186 C187 1.358 . S
N186 C188 1.400 . S
C187 N185 1.263 . S
C187 N186 1.358 . S
C187 H193 0.930 . S
C188 N186 1.400 . S
C188 C189 1.351 . S
C188 H205 0.930 . S
C189 N185 1.389 . S
C189 C188 1.351 . S
C189 H194 0.930 . S
O190 Cu184 1.974 1_554 S
O190 C200 1.282 . S
C191 O192 1.261 1_556 S
C191 O204 1.251 . S
O192 C191 1.261 1_554 S
H193 C187 0.930 . S
H194 C189 0.930 . S
N195 Cu184 1.985 1_554 S
N195 C197 1.335 . S
N195 C198 1.390 . S
N196 C197 1.345 . S
N196 C199 1.336 . S
C197 N195 1.335 . S
C197 N196 1.345 . S
C197 H202 0.930 1_554 S
C198 N195 1.390 . S
C198 C199 1.346 . S
C198 H203 0.930 . S
C199 N196 1.336 . S
C199 C198 1.346 . S
C199 H206 0.929 . S
C200 O190 1.282 . S
C200 O201 1.216 . S
O201 C200 1.216 . S
H202 C197 0.930 1_556 S
H203 C198 0.930 . S
O204 Cu184 1.959 . S
O204 C191 1.251 . S
H205 C188 0.930 . S
H206 C199 0.929 . S
Cu207 N208 1.999 . S
Cu207 O213 1.974 . S
Cu207 N218 1.985 . S
Cu207 O227 1.959 . S
N208 Cu207 1.999 . S
N208 C210 1.263 . S
N208 C212 1.389 . S
N209 C210 1.358 1_455 S
N209 C211 1.400 1_455 S
C210 N208 1.263 . S
C210 N209 1.358 1_655 S
C210 H216 0.930 . S
C211 N209 1.400 1_655 S
C211 C212 1.351 . S
C211 H228 0.930 . S
C212 N208 1.389 . S
C212 C211 1.351 . S
C212 H217 0.930 . S
O213 Cu207 1.974 . S
O213 C223 1.282 . S
C214 O215 1.261 . S
C214 O227 1.251 . S
O215 C214 1.261 . S
H216 C210 0.930 . S
H217 C212 0.930 . S
N218 Cu207 1.985 . S
N218 C220 1.335 . S
N218 C221 1.390 . S
N219 C220 1.345 . S
N219 C222 1.336 . S
C220 N218 1.335 . S
C220 N219 1.345 . S
C220 H225 0.930 . S
C221 N218 1.390 . S
C221 C222 1.346 . S
C221 H226 0.930 . S
C222 N219 1.336 . S
C222 C221 1.346 . S
C222 H229 0.929 . S
C223 O213 1.282 . S
C223 O224 1.216 . S
O224 C223 1.216 . S
H225 C220 0.930 . S
H226 C221 0.930 . S
O227 Cu207 1.959 . S
O227 C214 1.251 . S
H228 C211 0.930 . S
H229 C222 0.929 . S
Cu230 N231 1.999 . S
Cu230 O236 1.974 . S
Cu230 N241 1.985 . S
Cu230 O250 1.959 . S
N231 Cu230 1.999 . S
N231 C233 1.263 . S
N231 C235 1.389 . S
N232 C233 1.358 . S
N232 C234 1.400 . S
C233 N231 1.263 . S
C233 N232 1.358 . S
C233 H239 0.930 . S
C234 N232 1.400 . S
C234 C235 1.351 . S
C234 H251 0.930 . S
C235 N231 1.389 . S
C235 C234 1.351 . S
C235 H240 0.930 . S
O236 Cu230 1.974 . S
O236 C246 1.282 . S
C237 O238 1.261 . S
C237 O250 1.251 . S
O238 C237 1.261 . S
H239 C233 0.930 . S
H240 C235 0.930 . S
N241 Cu230 1.985 . S
N241 C243 1.335 . S
N241 C244 1.390 . S
N242 C243 1.345 . S
N242 C245 1.336 . S
C243 N241 1.335 . S
C243 N242 1.345 . S
C243 H248 0.930 . S
C244 N241 1.390 . S
C244 C245 1.346 . S
C244 H249 0.930 . S
C245 N242 1.336 . S
C245 C244 1.346 . S
C245 H252 0.929 . S
C246 O236 1.282 . S
C246 O247 1.216 . S
O247 C246 1.216 . S
H248 C243 0.930 . S
H249 C244 0.930 . S
O250 Cu230 1.959 . S
O250 C237 1.251 . S
H251 C234 0.930 . S
H252 C245 0.929 . S
Cu253 N254 1.999 . S
Cu253 O259 1.974 . S
Cu253 N264 1.985 . S
Cu253 O273 1.959 . S
N254 Cu253 1.999 . S
N254 C256 1.263 . S
N254 C258 1.389 . S
N255 C256 1.358 . S
N255 C257 1.400 . S
C256 N254 1.263 . S
C256 N255 1.358 . S
C256 H262 0.930 . S
C257 N255 1.400 . S
C257 C258 1.351 . S
C257 H274 0.930 . S
C258 N254 1.389 . S
C258 C257 1.351 . S
C258 H263 0.930 . S
O259 Cu253 1.974 . S
O259 C269 1.282 . S
C260 O261 1.261 . S
C260 O273 1.251 . S
O261 C260 1.261 . S
H262 C256 0.930 . S
H263 C258 0.930 . S
N264 Cu253 1.985 . S
N264 C266 1.335 . S
N264 C267 1.390 . S
N265 C266 1.345 . S
N265 C268 1.336 . S
C266 N264 1.335 . S
C266 N265 1.345 . S
C266 H271 0.930 . S
C267 N264 1.390 . S
C267 C268 1.346 . S
C267 H272 0.930 . S
C268 N265 1.336 . S
C268 C267 1.346 . S
C268 H275 0.929 . S
C269 O259 1.282 . S
C269 O270 1.216 . S
O270 C269 1.216 . S
H271 C266 0.930 . S
H272 C267 0.930 . S
O273 Cu253 1.959 . S
O273 C260 1.251 . S
H274 C257 0.930 . S
H275 C268 0.929 . S
H276 C282 0.930 . S
H277 C285 0.932 . S
H278 C287 0.931 . S
H279 C289 0.930 . S
H280 C291 0.930 . S
H281 C293 0.931 . S
C282 H276 0.930 . S
C282 C283 1.380 . S
C282 C284 1.394 . S
C283 C282 1.380 . S
C283 C287 1.382 1_655 S
C284 C282 1.394 . S
C284 C285 1.400 . S
C285 H277 0.932 . S
C285 C284 1.400 . S
C285 C286 1.375 1_655 S
C286 C285 1.375 1_455 S
C286 C287 1.415 . S
C286 C288 1.501 . S
C287 H278 0.931 . S
C287 C283 1.382 1_455 S
C287 C286 1.415 . S
C288 C286 1.501 . S
C288 C289 1.384 . S
C288 C293 1.408 . S
C289 H279 0.930 . S
C289 C288 1.384 . S
C289 C290 1.389 . S
C290 C289 1.389 . S
C290 C291 1.405 . S
C291 H280 0.930 . S
C291 C290 1.405 . S
C291 C292 1.364 . S
C292 C291 1.364 . S
C292 C293 1.400 . S
C293 H281 0.931 . S
C293 C288 1.408 . S
C293 C292 1.400 . S
H294 C300 0.930 . S
H295 C303 0.931 . S
H296 C305 0.931 . S
H297 C307 0.930 . S
H298 C309 0.930 . S
H299 C311 0.931 . S
C300 H294 0.930 . S
C300 C301 1.380 . S
C300 C302 1.394 . S
C301 C300 1.380 . S
C301 C305 1.382 . S
C302 C300 1.394 . S
C302 C303 1.400 . S
C303 H295 0.931 . S
C303 C302 1.400 . S
C303 C304 1.375 . S
C304 C303 1.375 . S
C304 C305 1.415 . S
C304 C306 1.501 1_655 S
C305 H296 0.931 . S
C305 C301 1.382 . S
C305 C304 1.415 . S
C306 C304 1.501 1_455 S
C306 C307 1.384 . S
C306 C311 1.408 . S
C307 H297 0.930 . S
C307 C306 1.384 . S
C307 C308 1.389 . S
C308 C307 1.389 . S
C308 C309 1.405 . S
C309 H298 0.930 . S
C309 C308 1.405 . S
C309 C310 1.364 . S
C310 C309 1.364 . S
C310 C311 1.400 . S
C311 H299 0.931 . S
C311 C306 1.408 . S
C311 C310 1.400 . S
H312 C318 0.930 . S
H313 C321 0.931 . S
H314 C323 0.931 . S
H315 C325 0.930 . S
H316 C327 0.930 . S
H317 C329 0.931 . S
C318 H312 0.930 . S
C318 C319 1.380 . S
C318 C320 1.394 . S
C319 C318 1.380 . S
C319 C323 1.382 . S
C320 C318 1.394 . S
C320 C321 1.400 . S
C321 H313 0.931 . S
C321 C320 1.400 . S
C321 C322 1.375 . S
C322 C321 1.375 . S
C322 C323 1.415 . S
C322 C324 1.501 . S
C323 H314 0.931 . S
C323 C319 1.382 . S
C323 C322 1.415 . S
C324 C322 1.501 . S
C324 C325 1.384 . S
C324 C329 1.408 . S
C325 H315 0.930 . S
C325 C324 1.384 . S
C325 C326 1.389 . S
C326 C325 1.389 . S
C326 C327 1.405 . S
C327 H316 0.930 . S
C327 C326 1.405 . S
C327 C328 1.364 . S
C328 C327 1.364 . S
C328 C329 1.400 . S
C329 H317 0.931 . S
C329 C324 1.408 . S
C329 C328 1.400 . S
H330 C336 0.930 . S
H331 C339 0.931 . S
H332 C341 0.931 . S
H333 C343 0.930 . S
H334 C345 0.930 . S
H335 C347 0.931 . S
C336 H330 0.930 . S
C336 C337 1.380 . S
C336 C338 1.394 . S
C337 C336 1.380 . S
C337 C341 1.382 . S
C338 C336 1.394 . S
C338 C339 1.400 . S
C339 H331 0.931 . S
C339 C338 1.400 . S
C339 C340 1.375 . S
C340 C339 1.375 . S
C340 C341 1.415 . S
C340 C342 1.501 . S
C341 H332 0.931 . S
C341 C337 1.382 . S
C341 C340 1.415 . S
C342 C340 1.501 . S
C342 C343 1.384 . S
C342 C347 1.408 . S
C343 H333 0.930 . S
C343 C342 1.384 . S
C343 C344 1.389 . S
C344 C343 1.389 . S
C344 C345 1.405 . S
C345 H334 0.930 . S
C345 C344 1.405 . S
C345 C346 1.364 . S
C346 C345 1.364 . S
C346 C347 1.400 . S
C347 H335 0.931 . S
C347 C342 1.408 . S
C347 C346 1.400 . S
H348 C354 0.930 . S
H349 C357 0.931 . S
H350 C359 0.931 . S
H351 C361 0.930 . S
H352 C363 0.930 . S
H353 C365 0.931 . S
C354 H348 0.930 . S
C354 C355 1.380 1_565 S
C354 C356 1.394 1_565 S
C355 C354 1.380 1_545 S
C355 C359 1.382 . S
C356 C354 1.394 1_545 S
C356 C357 1.400 . S
C357 H349 0.931 . S
C357 C356 1.400 . S
C357 C358 1.375 . S
C358 C357 1.375 . S
C358 C359 1.415 . S
C358 C360 1.501 . S
C359 H350 0.931 . S
C359 C355 1.382 . S
C359 C358 1.415 . S
C360 C358 1.501 . S
C360 C361 1.384 . S
C360 C365 1.408 . S
C361 H351 0.930 . S
C361 C360 1.384 . S
C361 C362 1.389 . S
C362 C361 1.389 . S
C362 C363 1.405 . S
C363 H352 0.930 . S
C363 C362 1.405 . S
C363 C364 1.364 . S
C364 C363 1.364 . S
C364 C365 1.400 . S
C365 H353 0.931 . S
C365 C360 1.408 . S
C365 C364 1.400 . S
H366 C372 0.930 . S
H367 C375 0.931 . S
H368 C377 0.931 . S
H369 C379 0.930 . S
H370 C381 0.930 . S
H371 C383 0.931 . S
C372 H366 0.930 . S
C372 C373 1.380 . S
C372 C374 1.394 . S
C373 C372 1.380 . S
C373 C377 1.382 . S
C374 C372 1.394 . S
C374 C375 1.400 . S
C375 H367 0.931 . S
C375 C374 1.400 . S
C375 C376 1.375 . S
C376 C375 1.375 . S
C376 C377 1.415 . S
C376 C378 1.501 . S
C377 H368 0.931 . S
C377 C373 1.382 . S
C377 C376 1.415 . S
C378 C376 1.501 . S
C378 C379 1.384 . S
C378 C383 1.408 . S
C379 H369 0.930 . S
C379 C378 1.384 . S
C379 C380 1.389 . S
C380 C379 1.389 . S
C380 C381 1.405 . S
C381 H370 0.930 . S
C381 C380 1.405 . S
C381 C382 1.364 . S
C382 C381 1.364 . S
C382 C383 1.400 . S
C383 H371 0.931 . S
C383 C378 1.408 . S
C383 C382 1.400 . S
H384 C390 0.930 . S
H385 C393 0.931 . S
H386 C395 0.931 . S
H387 C397 0.930 . S
H388 C399 0.930 . S
H389 C401 0.931 1_545 S
C390 H384 0.930 . S
C390 C391 1.380 . S
C390 C392 1.394 . S
C391 C390 1.380 . S
C391 C395 1.382 . S
C392 C390 1.394 . S
C392 C393 1.400 . S
C393 H385 0.931 . S
C393 C392 1.400 . S
C393 C394 1.375 . S
C394 C393 1.375 . S
C394 C395 1.415 . S
C394 C396 1.501 . S
C395 H386 0.931 . S
C395 C391 1.382 . S
C395 C394 1.415 . S
C396 C394 1.501 . S
C396 C397 1.384 . S
C396 C401 1.408 1_545 S
C397 H387 0.930 . S
C397 C396 1.384 . S
C397 C398 1.389 1_545 S
C398 C397 1.389 1_565 S
C398 C399 1.405 . S
C399 H388 0.930 . S
C399 C398 1.405 . S
C399 C400 1.364 . S
C400 C399 1.364 . S
C400 C401 1.400 . S
C401 H389 0.931 1_565 S
C401 C396 1.408 1_565 S
C401 C400 1.400 . S
H402 C408 0.930 . S
H403 C411 0.931 1_554 S
H404 C413 0.931 . S
H405 C415 0.930 . S
H406 C417 0.930 . S
H407 C419 0.931 . S
C408 H402 0.930 . S
C408 C409 1.380 . S
C408 C410 1.394 . S
C409 C408 1.380 . S
C409 C413 1.382 . S
C410 C408 1.394 . S
C410 C411 1.400 . S
C411 H403 0.931 1_556 S
C411 C410 1.400 . S
C411 C412 1.375 1_556 S
C412 C411 1.375 1_554 S
C412 C413 1.415 1_554 S
C412 C414 1.501 . S
C413 H404 0.931 . S
C413 C409 1.382 . S
C413 C412 1.415 1_556 S
C414 C412 1.501 . S
C414 C415 1.384 . S
C414 C419 1.408 . S
C415 H405 0.930 . S
C415 C414 1.384 . S
C415 C416 1.389 . S
C416 C415 1.389 . S
C416 C417 1.405 . S
C417 H406 0.930 . S
C417 C416 1.405 . S
C417 C418 1.364 . S
C418 C417 1.364 . S
C418 C419 1.400 . S
C419 H407 0.931 . S
C419 C414 1.408 . S
C419 C418 1.400 . S
H420 C426 0.930 . S
H421 C429 0.931 1_554 S
H422 C431 0.931 . S
H423 C433 0.930 . S
H424 C435 0.930 . S
H425 C437 0.931 . S
C426 H420 0.930 . S
C426 C427 1.380 . S
C426 C428 1.394 . S
C427 C426 1.380 . S
C427 C431 1.382 . S
C428 C426 1.394 . S
C428 C429 1.400 . S
C429 H421 0.931 1_556 S
C429 C428 1.400 . S
C429 C430 1.375 1_556 S
C430 C429 1.375 1_554 S
C430 C431 1.415 1_554 S
C430 C432 1.501 . S
C431 H422 0.931 . S
C431 C427 1.382 . S
C431 C430 1.415 1_556 S
C432 C430 1.501 . S
C432 C433 1.384 . S
C432 C437 1.408 . S
C433 H423 0.930 . S
C433 C432 1.384 . S
C433 C434 1.389 . S
C434 C433 1.389 . S
C434 C435 1.405 . S
C435 H424 0.930 . S
C435 C434 1.405 . S
C435 C436 1.364 . S
C436 C435 1.364 . S
C436 C437 1.400 . S
C437 H425 0.931 . S
C437 C432 1.408 . S
C437 C436 1.400 . S
H438 C444 0.930 . S
H439 C447 0.931 . S
H440 C449 0.931 . S
H441 C451 0.930 . S
H442 C453 0.930 . S
H443 C455 0.931 . S
C444 H438 0.930 . S
C444 C445 1.380 . S
C444 C446 1.394 . S
C445 C444 1.380 . S
C445 C449 1.382 . S
C446 C444 1.394 . S
C446 C447 1.400 . S
C447 H439 0.931 . S
C447 C446 1.400 . S
C447 C448 1.375 . S
C448 C447 1.375 . S
C448 C449 1.415 . S
C448 C450 1.501 . S
C449 H440 0.931 . S
C449 C445 1.382 . S
C449 C448 1.415 . S
C450 C448 1.501 . S
C450 C451 1.384 . S
C450 C455 1.408 . S
C451 H441 0.930 . S
C451 C450 1.384 . S
C451 C452 1.389 . S
C452 C451 1.389 . S
C452 C453 1.405 . S
C453 H442 0.930 . S
C453 C452 1.405 . S
C453 C454 1.364 . S
C454 C453 1.364 . S
C454 C455 1.400 . S
C455 H443 0.931 . S
C455 C450 1.408 . S
C455 C454 1.400 . S
H456 C462 0.930 . S
H457 C465 0.931 . S
H458 C467 0.931 . S
H459 C469 0.930 . S
H460 C471 0.930 . S
H461 C473 0.931 . S
C462 H456 0.930 . S
C462 C463 1.380 . S
C462 C464 1.394 . S
C463 C462 1.380 . S
C463 C467 1.382 . S
C464 C462 1.394 . S
C464 C465 1.400 . S
C465 H457 0.931 . S
C465 C464 1.400 . S
C465 C466 1.375 . S
C466 C465 1.375 . S
C466 C467 1.415 . S
C466 C468 1.501 . S
C467 H458 0.931 . S
C467 C463 1.382 . S
C467 C466 1.415 . S
C468 C466 1.501 . S
C468 C469 1.384 . S
C468 C473 1.408 . S
C469 H459 0.930 . S
C469 C468 1.384 . S
C469 C470 1.389 . S
C470 C469 1.389 . S
C470 C471 1.405 . S
C471 H460 0.930 . S
C471 C470 1.405 . S
C471 C472 1.364 . S
C472 C471 1.364 . S
C472 C473 1.400 . S
C473 H461 0.931 . S
C473 C468 1.408 . S
C473 C472 1.400 . S
H474 C480 0.930 . S
H475 C483 0.931 . S
H476 C485 0.931 . S
H477 C487 0.930 . S
H478 C489 0.930 . S
H479 C491 0.931 . S
C480 H474 0.930 . S
C480 C481 1.380 . S
C480 C482 1.394 . S
C481 C480 1.380 . S
C481 C485 1.382 . S
C482 C480 1.394 . S
C482 C483 1.400 . S
C483 H475 0.931 . S
C483 C482 1.400 . S
C483 C484 1.375 . S
C484 C483 1.375 . S
C484 C485 1.415 . S
C484 C486 1.501 . S
C485 H476 0.931 . S
C485 C481 1.382 . S
C485 C484 1.415 . S
C486 C484 1.501 . S
C486 C487 1.384 . S
C486 C491 1.408 . S
C487 H477 0.930 . S
C487 C486 1.384 . S
C487 C488 1.389 . S
C488 C487 1.389 . S
C488 C489 1.405 . S
C489 H478 0.930 . S
C489 C488 1.405 . S
C489 C490 1.364 . S
C490 C489 1.364 . S
C490 C491 1.400 . S
C491 H479 0.931 . S
C491 C486 1.408 . S
C491 C490 1.400 . S
C492 C493 1.387 . S
C492 H496 0.950 . S
C492 C501 1.390 . S
C493 C492 1.387 . S
C493 C495 1.387 . S
H494 C501 0.950 . S
C495 C493 1.387 . S
C495 C497 1.390 . S
C495 H499 0.950 . S
H496 C492 0.950 . S
C497 C495 1.390 . S
C497 C498 1.387 . S
C497 H500 0.950 . S
C498 C497 1.387 . S
C498 C501 1.387 . S
H499 C495 0.950 . S
H500 C497 0.950 . S
C501 C492 1.390 . S
C501 H494 0.950 . S
C501 C498 1.387 . S
C502 C503 1.387 . S
C502 H506 0.950 . S
C502 C511 1.390 . S
C503 C502 1.387 . S
C503 C505 1.387 . S
H504 C511 0.950 . S
C505 C503 1.387 . S
C505 C507 1.390 . S
C505 H509 0.950 . S
H506 C502 0.950 . S
C507 C505 1.390 . S
C507 C508 1.387 . S
C507 H510 0.950 . S
C508 C507 1.387 . S
C508 C511 1.387 . S
H509 C505 0.950 . S
H510 C507 0.950 . S
C511 C502 1.390 . S
C511 H504 0.950 . S
C511 C508 1.387 . S
C512 C513 1.387 . S
C512 H516 0.950 . S
C512 C521 1.390 . S
C513 C512 1.387 . S
C513 C515 1.387 . S
H514 C521 0.950 . S
C515 C513 1.387 . S
C515 C517 1.390 . S
C515 H519 0.950 . S
H516 C512 0.950 . S
C517 C515 1.390 . S
C517 C518 1.387 . S
C517 H520 0.950 . S
C518 C517 1.387 . S
C518 C521 1.387 . S
H519 C515 0.950 . S
H520 C517 0.950 . S
C521 C512 1.390 . S
C521 H514 0.950 . S
C521 C518 1.387 . S
C522 C523 1.387 . S
C522 H526 0.950 . S
C522 C531 1.390 . S
C523 C522 1.387 . S
C523 C525 1.387 . S
H524 C531 0.950 . S
C525 C523 1.387 . S
C525 C527 1.390 . S
C525 H529 0.950 . S
H526 C522 0.950 . S
C527 C525 1.390 . S
C527 C528 1.387 . S
C527 H530 0.950 . S
C528 C527 1.387 . S
C528 C531 1.387 . S
H529 C525 0.950 . S
H530 C527 0.950 . S
C531 C522 1.390 . S
C531 H524 0.950 . S
C531 C528 1.387 . S
C532 C533 1.387 . S
C532 H536 0.950 1_455 S
C532 C541 1.390 . S
C533 C532 1.387 . S
C533 C535 1.387 . S
H534 C541 0.950 1_655 S
C535 C533 1.387 . S
C535 C537 1.390 . S
C535 H539 0.950 . S
H536 C532 0.950 1_655 S
C537 C535 1.390 . S
C537 C538 1.387 . S
C537 H540 0.950 . S
C538 C537 1.387 . S
C538 C541 1.387 . S
H539 C535 0.950 . S
H540 C537 0.950 . S
C541 C532 1.390 . S
C541 H534 0.950 1_455 S
C541 C538 1.387 . S
C542 C543 1.387 . S
C542 H546 0.950 . S
C542 C551 1.390 . S
C543 C542 1.387 . S
C543 C545 1.387 . S
H544 C551 0.950 . S
C545 C543 1.387 . S
C545 C547 1.390 . S
C545 H549 0.950 . S
H546 C542 0.950 . S
C547 C545 1.390 . S
C547 C548 1.387 . S
C547 H550 0.950 . S
C548 C547 1.387 . S
C548 C551 1.387 . S
H549 C545 0.950 . S
H550 C547 0.950 . S
C551 C542 1.390 . S
C551 H544 0.950 . S
C551 C548 1.387 . S
C552 C553 1.387 . S
C552 H556 0.950 . S
C552 C561 1.390 . S
C553 C552 1.387 . S
C553 C555 1.387 . S
H554 C561 0.950 . S
C555 C553 1.387 . S
C555 C557 1.390 . S
C555 H559 0.950 . S
H556 C552 0.950 . S
C557 C555 1.390 . S
C557 C558 1.387 . S
C557 H560 0.950 . S
C558 C557 1.387 . S
C558 C561 1.387 . S
H559 C555 0.950 . S
H560 C557 0.950 . S
C561 C552 1.390 . S
C561 H554 0.950 . S
C561 C558 1.387 . S
C562 C563 1.387 . S
C562 H566 0.950 . S
C562 C571 1.390 . S
C563 C562 1.387 . S
C563 C565 1.387 . S
H564 C571 0.950 . S
C565 C563 1.387 . S
C565 C567 1.390 . S
C565 H569 0.950 . S
H566 C562 0.950 . S
C567 C565 1.390 . S
C567 C568 1.387 . S
C567 H570 0.950 . S
C568 C567 1.387 . S
C568 C571 1.387 . S
H569 C565 0.950 . S
H570 C567 0.950 . S
C571 C562 1.390 . S
C571 H564 0.950 . S
C571 C568 1.387 . S
C572 C573 1.387 . S
C572 H576 0.950 . S
C572 C581 1.390 . S
C573 C572 1.387 . S
C573 C575 1.387 1_545 S
H574 C581 0.950 . S
C575 C573 1.387 1_565 S
C575 C577 1.390 . S
C575 H579 0.950 . S
H576 C572 0.950 . S
C577 C575 1.390 . S
C577 C578 1.387 1_565 S
C577 H580 0.950 . S
C578 C577 1.387 1_545 S
C578 C581 1.387 . S
H579 C575 0.950 . S
H580 C577 0.950 . S
C581 C572 1.390 . S
C581 H574 0.950 . S
C581 C578 1.387 . S
C582 C583 1.387 . S
C582 H586 0.950 . S
C582 C591 1.390 . S
C583 C582 1.387 . S
C583 C585 1.387 . S
H584 C591 0.950 . S
C585 C583 1.387 . S
C585 C587 1.390 . S
C585 H589 0.950 . S
H586 C582 0.950 . S
C587 C585 1.390 . S
C587 C588 1.387 . S
C587 H590 0.950 . S
C588 C587 1.387 . S
C588 C591 1.387 . S
H589 C585 0.950 . S
H590 C587 0.950 . S
C591 C582 1.390 . S
C591 H584 0.950 . S
C591 C588 1.387 . S
C592 C593 1.387 . S
C592 H596 0.950 1_565 S
C592 C601 1.390 . S
C593 C592 1.387 . S
C593 C595 1.387 . S
H594 C601 0.950 1_545 S
C595 C593 1.387 . S
C595 C597 1.390 . S
C595 H599 0.950 . S
H596 C592 0.950 1_545 S
C597 C595 1.390 . S
C597 C598 1.387 . S
C597 H600 0.950 . S
C598 C597 1.387 . S
C598 C601 1.387 . S
H599 C595 0.950 . S
H600 C597 0.950 . S
C601 C592 1.390 . S
C601 H594 0.950 1_565 S
C601 C598 1.387 . S
C602 C603 1.387 . S
C602 H606 0.950 . S
C602 C611 1.390 . S
C603 C602 1.387 . S
C603 C605 1.387 . S
H604 C611 0.950 . S
C605 C603 1.387 . S
C605 C607 1.390 . S
C605 H609 0.950 . S
H606 C602 0.950 . S
C607 C605 1.390 . S
C607 C608 1.387 . S
C607 H610 0.950 . S
C608 C607 1.387 . S
C608 C611 1.387 . S
H609 C605 0.950 . S
H610 C607 0.950 . S
C611 C602 1.390 . S
C611 H604 0.950 . S
C611 C608 1.387 . S
C612 C613 1.387 1_655 S
C612 H616 0.950 1_565 S
C612 C621 1.390 . S
C613 C612 1.387 1_455 S
C613 C615 1.387 1_455 S
H614 C621 0.950 1_545 S
C615 C613 1.387 1_655 S
C615 C617 1.390 . S
C615 H619 0.950 . S
H616 C612 0.950 1_545 S
C617 C615 1.390 . S
C617 C618 1.387 . S
C617 H620 0.950 . S
C618 C617 1.387 . S
C618 C621 1.387 . S
H619 C615 0.950 . S
H620 C617 0.950 . S
C621 C612 1.390 . S
C621 H614 0.950 1_565 S
C621 C618 1.387 . S
C622 C623 1.387 . S
C622 H626 0.950 . S
C622 C631 1.390 . S
C623 C622 1.387 . S
C623 C625 1.387 . S
H624 C631 0.950 . S
C625 C623 1.387 . S
C625 C627 1.390 . S
C625 H629 0.950 . S
H626 C622 0.950 . S
C627 C625 1.390 . S
C627 C628 1.387 . S
C627 H630 0.950 . S
C628 C627 1.387 . S
C628 C631 1.387 . S
H629 C625 0.950 . S
H630 C627 0.950 . S
C631 C622 1.390 . S
C631 H624 0.950 . S
C631 C628 1.387 . S
C632 C633 1.387 . S
C632 H636 0.950 . S
C632 C641 1.390 . S
C633 C632 1.387 . S
C633 C635 1.387 . S
H634 C641 0.950 . S
C635 C633 1.387 . S
C635 C637 1.390 . S
C635 H639 0.950 1_545 S
H636 C632 0.950 . S
C637 C635 1.390 . S
C637 C638 1.387 . S
C637 H640 0.950 1_545 S
C638 C637 1.387 . S
C638 C641 1.387 . S
H639 C635 0.950 1_565 S
H640 C637 0.950 1_565 S
C641 C632 1.390 . S
C641 H634 0.950 . S
C641 C638 1.387 . S
C642 C643 1.387 . S
C642 H646 0.950 . S
C642 C651 1.390 . S
C643 C642 1.387 . S
C643 C645 1.387 . S
H644 C651 0.950 . S
C645 C643 1.387 . S
C645 C647 1.390 . S
C645 H649 0.950 . S
H646 C642 0.950 . S
C647 C645 1.390 . S
C647 C648 1.387 . S
C647 H650 0.950 . S
C648 C647 1.387 . S
C648 C651 1.387 . S
H649 C645 0.950 . S
H650 C647 0.950 . S
C651 C642 1.390 . S
C651 H644 0.950 . S
C651 C648 1.387 . S
C652 C653 1.381 1_565 S
C652 H656 0.944 1_564 S
C652 C661 1.402 . S
C653 C652 1.381 1_545 S
C653 C655 1.387 . S
H654 C661 0.950 . S
C655 C653 1.387 . S
C655 C657 1.390 1_545 S
C655 H659 0.950 . S
H656 C652 0.944 1_546 S
C657 C655 1.390 1_565 S
C657 C658 1.387 . S
C657 H660 0.950 . S
C658 C657 1.387 . S
C658 C661 1.387 . S
H659 C655 0.950 . S
H660 C657 0.950 . S
C661 C652 1.402 . S
C661 H654 0.950 . S
C661 C658 1.387 . S
C662 C663 1.387 . S
C662 H666 0.950 . S
C662 C671 1.390 . S
C663 C662 1.387 . S
C663 C665 1.387 1_556 S
H664 C671 0.950 . S
C665 C663 1.387 1_554 S
C665 C667 1.390 . S
C665 H669 0.950 . S
H666 C662 0.950 . S
C667 C665 1.390 . S
C667 C668 1.387 1_554 S
C667 H670 0.950 . S
C668 C667 1.387 1_556 S
C668 C671 1.387 . S
H669 C665 0.950 . S
H670 C667 0.950 . S
C671 C662 1.390 . S
C671 H664 0.950 . S
C671 C668 1.387 . S
C672 C673 1.387 . S
C672 H676 0.950 . S
C672 C681 1.390 . S
C673 C672 1.387 . S
C673 C675 1.387 . S
H674 C681 0.950 . S
C675 C673 1.387 . S
C675 C677 1.390 . S
C675 H679 0.950 . S
H676 C672 0.950 . S
C677 C675 1.390 . S
C677 C678 1.387 . S
C677 H680 0.950 . S
C678 C677 1.387 . S
C678 C681 1.387 . S
H679 C675 0.950 . S
H680 C677 0.950 . S
C681 C672 1.390 . S
C681 H674 0.950 . S
C681 C678 1.387 . S
C682 C683 1.387 . S
C682 H686 0.950 . S
C682 C691 1.390 . S
C683 C682 1.387 . S
C683 C685 1.387 . S
H684 C691 0.950 . S
C685 C683 1.387 . S
C685 C687 1.390 . S
C685 H689 0.950 . S
H686 C682 0.950 . S
C687 C685 1.390 . S
C687 C688 1.387 . S
C687 H690 0.950 . S
C688 C687 1.387 . S
C688 C691 1.387 . S
H689 C685 0.950 . S
H690 C687 0.950 . S
C691 C682 1.390 . S
C691 H684 0.950 . S
C691 C688 1.387 . S
C692 C693 1.387 . S
C692 H696 0.950 . S
C692 C701 1.390 . S
C693 C692 1.387 . S
C693 C695 1.387 . S
H694 C701 0.950 . S
C695 C693 1.387 . S
C695 C697 1.390 . S
C695 H699 0.950 . S
H696 C692 0.950 . S
C697 C695 1.390 . S
C697 C698 1.387 . S
C697 H700 0.950 . S
C698 C697 1.387 . S
C698 C701 1.387 . S
H699 C695 0.950 . S
H700 C697 0.950 . S
C701 C692 1.390 . S
C701 H694 0.950 . S
C701 C698 1.387 . S
C702 C703 1.387 . S
C702 H706 0.950 . S
C702 C711 1.390 . S
C703 C702 1.387 . S
C703 C705 1.387 . S
H704 C711 0.950 . S
C705 C703 1.387 . S
C705 C707 1.390 . S
C705 H709 0.950 . S
H706 C702 0.950 . S
C707 C705 1.390 . S
C707 C708 1.387 . S
C707 H710 0.950 . S
C708 C707 1.387 . S
C708 C711 1.387 . S
H709 C705 0.950 . S
H710 C707 0.950 . S
C711 C702 1.390 . S
C711 H704 0.950 . S
C711 C708 1.387 . S
C712 C713 1.387 . S
C712 H716 0.950 . S
C712 C721 1.390 . S
C713 C712 1.387 . S
C713 C715 1.387 . S
H714 C721 0.950 . S
C715 C713 1.387 . S
C715 C717 1.390 . S
C715 H719 0.950 . S
H716 C712 0.950 . S
C717 C715 1.390 . S
C717 C718 1.387 . S
C717 H720 0.950 . S
C718 C717 1.387 . S
C718 C721 1.387 . S
H719 C715 0.950 . S
H720 C717 0.950 . S
C721 C712 1.390 . S
C721 H714 0.950 . S
C721 C718 1.387 . S
C722 C723 1.387 . S
C722 H726 0.950 . S
C722 C731 1.390 . S
C723 C722 1.387 . S
C723 C725 1.387 . S
H724 C731 0.950 . S
C725 C723 1.387 . S
C725 C727 1.390 . S
C725 H729 0.950 . S
H726 C722 0.950 . S
C727 C725 1.390 . S
C727 C728 1.387 . S
C727 H730 0.950 . S
C728 C727 1.387 . S
C728 C731 1.387 . S
H729 C725 0.950 . S
H730 C727 0.950 . S
C731 C722 1.390 . S
C731 H724 0.950 . S
C731 C728 1.387 . S
C732 C733 1.387 . S
C732 H736 0.950 . S
C732 C741 1.390 . S
C733 C732 1.387 . S
C733 C735 1.387 . S
H734 C741 0.950 . S
C735 C733 1.387 . S
C735 C737 1.390 . S
C735 H739 0.950 . S
H736 C732 0.950 . S
C737 C735 1.390 . S
C737 C738 1.387 . S
C737 H740 0.950 . S
C738 C737 1.387 . S
C738 C741 1.387 . S
H739 C735 0.950 . S
H740 C737 0.950 . S
C741 C732 1.390 . S
C741 H734 0.950 . S
C741 C738 1.387 . S
C742 C743 1.387 . S
C742 H746 0.950 . S
C742 C751 1.390 . S
C743 C742 1.387 . S
C743 C745 1.387 . S
H744 C751 0.950 . S
C745 C743 1.387 . S
C745 C747 1.390 . S
C745 H749 0.950 . S
H746 C742 0.950 . S
C747 C745 1.390 . S
C747 C748 1.387 . S
C747 H750 0.950 . S
C748 C747 1.387 . S
C748 C751 1.387 . S
H749 C745 0.950 . S
H750 C747 0.950 . S
C751 C742 1.390 . S
C751 H744 0.950 . S
C751 C748 1.387 . S
C752 C753 1.387 1_556 S
C752 H756 0.950 . S
C752 C761 1.390 . S
C753 C752 1.387 1_554 S
C753 C755 1.387 1_654 S
H754 C761 0.950 . S
C755 C753 1.387 1_456 S
C755 C757 1.390 . S
C755 H759 0.950 1_556 S
H756 C752 0.950 . S
C757 C755 1.390 . S
C757 C758 1.387 1_455 S
C757 H760 0.950 . S
C758 C757 1.387 1_655 S
C758 C761 1.387 . S
H759 C755 0.950 1_554 S
H760 C757 0.950 . S
C761 C752 1.390 . S
C761 H754 0.950 . S
C761 C758 1.387 . S
C762 C763 1.387 . S
C762 H766 0.950 . S
C762 C771 1.390 . S
C763 C762 1.387 . S
C763 C765 1.387 . S
H764 C771 0.950 . S
C765 C763 1.387 . S
C765 C767 1.390 . S
C765 H769 0.950 . S
H766 C762 0.950 . S
C767 C765 1.390 . S
C767 C768 1.387 . S
C767 H770 0.950 . S
C768 C767 1.387 . S
C768 C771 1.387 . S
H769 C765 0.950 . S
H770 C767 0.950 . S
C771 C762 1.390 . S
C771 H764 0.950 . S
C771 C768 1.387 . S
C772 C773 1.387 . S
C772 H776 0.950 . S
C772 C781 1.390 . S
C773 C772 1.387 . S
C773 C775 1.387 . S
H774 C781 0.950 . S
C775 C773 1.387 . S
C775 C777 1.390 . S
C775 H779 0.950 . S
H776 C772 0.950 . S
C777 C775 1.390 . S
C777 C778 1.387 . S
C777 H780 0.950 . S
C778 C777 1.387 . S
C778 C781 1.387 . S
H779 C775 0.950 . S
H780 C777 0.950 . S
C781 C772 1.390 . S
C781 H774 0.950 . S
C781 C778 1.387 . S
C782 C783 1.387 . S
C782 H786 0.950 . S
C782 C791 1.390 . S
C783 C782 1.387 . S
C783 C785 1.387 . S
H784 C791 0.950 . S
C785 C783 1.387 . S
C785 C787 1.390 . S
C785 H789 0.950 . S
H786 C782 0.950 . S
C787 C785 1.390 . S
C787 C788 1.387 . S
C787 H790 0.950 . S
C788 C787 1.387 . S
C788 C791 1.387 . S
H789 C785 0.950 . S
H790 C787 0.950 . S
C791 C782 1.390 . S
C791 H784 0.950 . S
C791 C788 1.387 . S
C792 C793 1.387 . S
C792 H796 0.950 . S
C792 C801 1.390 . S
C793 C792 1.387 . S
C793 C795 1.387 1_655 S
H794 C801 0.950 . S
C795 C793 1.387 1_455 S
C795 C797 1.390 . S
C795 H799 0.950 . S
H796 C792 0.950 . S
C797 C795 1.390 . S
C797 C798 1.387 1_455 S
C797 H800 0.950 . S
C798 C797 1.387 1_655 S
C798 C801 1.387 . S
H799 C795 0.950 . S
H800 C797 0.950 . S
C801 C792 1.390 . S
C801 H794 0.950 . S
C801 C798 1.387 . S
C802 C803 1.387 . S
C802 H806 0.950 . S
C802 C811 1.390 . S
C803 C802 1.387 . S
C803 C805 1.387 . S
H804 C811 0.950 . S
C805 C803 1.387 . S
C805 C807 1.390 . S
C805 H809 0.950 . S
H806 C802 0.950 . S
C807 C805 1.390 . S
C807 C808 1.387 . S
C807 H810 0.950 . S
C808 C807 1.387 . S
C808 C811 1.387 . S
H809 C805 0.950 . S
H810 C807 0.950 . S
C811 C802 1.390 . S
C811 H804 0.950 . S
C811 C808 1.387 . S
C812 C813 1.387 . S
C812 H816 0.950 . S
C812 C821 1.390 . S
C813 C812 1.387 . S
C813 C815 1.387 . S
H814 C821 0.950 . S
C815 C813 1.387 . S
C815 C817 1.390 . S
C815 H819 0.950 . S
H816 C812 0.950 . S
C817 C815 1.390 . S
C817 C818 1.387 . S
C817 H820 0.950 . S
C818 C817 1.387 . S
C818 C821 1.387 . S
H819 C815 0.950 . S
H820 C817 0.950 . S
C821 C812 1.390 . S
C821 H814 0.950 . S
C821 C818 1.387 . S
C822 C823 1.387 . S
C822 H826 0.950 . S
C822 C831 1.390 . S
C823 C822 1.387 . S
C823 C825 1.387 . S
H824 C831 0.950 . S
C825 C823 1.387 . S
C825 C827 1.390 . S
C825 H829 0.950 . S
H826 C822 0.950 . S
C827 C825 1.390 . S
C827 C828 1.387 . S
C827 H830 0.950 . S
C828 C827 1.387 . S
C828 C831 1.387 . S
H829 C825 0.950 . S
H830 C827 0.950 . S
C831 C822 1.390 . S
C831 H824 0.950 . S
C831 C828 1.387 . S
C832 C833 1.387 . S
C832 H836 0.950 . S
C832 C841 1.390 . S
C833 C832 1.387 . S
C833 C835 1.387 . S
H834 C841 0.950 . S
C835 C833 1.387 . S
C835 C837 1.390 . S
C835 H839 0.950 . S
H836 C832 0.950 . S
C837 C835 1.390 . S
C837 C838 1.387 . S
C837 H840 0.950 . S
C838 C837 1.387 . S
C838 C841 1.387 . S
H839 C835 0.950 . S
H840 C837 0.950 . S
C841 C832 1.390 . S
C841 H834 0.950 . S
C841 C838 1.387 . S
C842 C843 1.387 . S
C842 H846 0.950 . S
C842 C851 1.390 . S
C843 C842 1.387 . S
C843 C845 1.387 . S
H844 C851 0.950 . S
C845 C843 1.387 . S
C845 C847 1.390 . S
C845 H849 0.950 . S
H846 C842 0.950 . S
C847 C845 1.390 . S
C847 C848 1.387 . S
C847 H850 0.950 . S
C848 C847 1.387 . S
C848 C851 1.387 . S
H849 C845 0.950 . S
H850 C847 0.950 . S
C851 C842 1.390 . S
C851 H844 0.950 . S
C851 C848 1.387 . S
C852 C853 1.387 . S
C852 H856 0.950 . S
C852 C861 1.390 . S
C853 C852 1.387 . S
C853 C855 1.387 . S
H854 C861 0.950 . S
C855 C853 1.387 . S
C855 C857 1.390 . S
C855 H859 0.950 . S
H856 C852 0.950 . S
C857 C855 1.390 . S
C857 C858 1.387 . S
C857 H860 0.950 . S
C858 C857 1.387 . S
C858 C861 1.387 . S
H859 C855 0.950 . S
H860 C857 0.950 . S
C861 C852 1.390 . S
C861 H854 0.950 . S
C861 C858 1.387 . S
C862 C863 1.387 . S
C862 H866 0.950 . S
C862 C871 1.390 . S
C863 C862 1.387 . S
C863 C865 1.387 . S
H864 C871 0.950 . S
C865 C863 1.387 . S
C865 C867 1.390 . S
C865 H869 0.950 . S
H866 C862 0.950 . S
C867 C865 1.390 . S
C867 C868 1.387 . S
C867 H870 0.950 . S
C868 C867 1.387 . S
C868 C871 1.387 . S
H869 C865 0.950 . S
H870 C867 0.950 . S
C871 C862 1.390 . S
C871 H864 0.950 . S
C871 C868 1.387 . S
C872 C873 1.387 . S
C872 H876 0.950 . S
C872 C881 1.390 . S
C873 C872 1.387 . S
C873 C875 1.387 . S
H874 C881 0.950 . S
C875 C873 1.387 . S
C875 C877 1.390 . S
C875 H879 0.950 1_455 S
H876 C872 0.950 . S
C877 C875 1.390 . S
C877 C878 1.387 . S
C877 H880 0.950 . S
C878 C877 1.387 . S
C878 C881 1.387 . S
H879 C875 0.950 1_655 S
H880 C877 0.950 . S
C881 C872 1.390 . S
C881 H874 0.950 . S
C881 C878 1.387 . S
C882 C883 1.387 . S
C882 H886 0.950 . S
C882 C891 1.390 . S
C883 C882 1.387 . S
C883 C885 1.387 . S
H884 C891 0.950 . S
C885 C883 1.387 . S
C885 C887 1.390 . S
C885 H889 0.950 . S
H886 C882 0.950 . S
C887 C885 1.390 . S
C887 C888 1.387 . S
C887 H890 0.950 . S
C888 C887 1.387 . S
C888 C891 1.387 . S
H889 C885 0.950 . S
H890 C887 0.950 . S
C891 C882 1.390 . S
C891 H884 0.950 . S
C891 C888 1.387 . S
C892 C893 1.387 . S
C892 H896 0.950 . S
C892 C901 1.390 . S
C893 C892 1.387 . S
C893 C895 1.387 . S
H894 C901 0.950 . S
C895 C893 1.387 . S
C895 C897 1.390 . S
C895 H899 0.950 . S
H896 C892 0.950 . S
C897 C895 1.390 . S
C897 C898 1.387 . S
C897 H900 0.950 . S
C898 C897 1.387 . S
C898 C901 1.387 . S
H899 C895 0.950 . S
H900 C897 0.950 . S
C901 C892 1.390 . S
C901 H894 0.950 . S
C901 C898 1.387 . S
C902 C903 1.387 . S
C902 H906 0.950 . S
C902 C911 1.390 . S
C903 C902 1.387 . S
C903 C905 1.387 . S
H904 C911 0.950 . S
C905 C903 1.387 . S
C905 C907 1.390 . S
C905 H909 0.950 . S
H906 C902 0.950 . S
C907 C905 1.390 . S
C907 C908 1.387 . S
C907 H910 0.950 . S
C908 C907 1.387 . S
C908 C911 1.387 . S
H909 C905 0.950 . S
H910 C907 0.950 . S
C911 C902 1.390 . S
C911 H904 0.950 . S
C911 C908 1.387 . S
C912 C913 1.387 . S
C912 H916 0.950 . S
C912 C921 1.390 . S
C913 C912 1.387 . S
C913 C915 1.387 . S
H914 C921 0.950 . S
C915 C913 1.387 . S
C915 C917 1.390 . S
C915 H919 0.950 . S
H916 C912 0.950 . S
C917 C915 1.390 . S
C917 C918 1.387 . S
C917 H920 0.950 . S
C918 C917 1.387 . S
C918 C921 1.387 . S
H919 C915 0.950 . S
H920 C917 0.950 . S
C921 C912 1.390 . S
C921 H914 0.950 . S
C921 C918 1.387 . S
C922 C923 1.387 1_554 S
C922 H926 0.950 . S
C922 C931 1.390 1_545 S
C923 C922 1.387 1_556 S
C923 C925 1.387 . S
H924 C931 0.950 . S
C925 C923 1.387 . S
C925 C927 1.390 1_545 S
C925 H929 0.950 . S
H926 C922 0.950 . S
C927 C925 1.390 1_565 S
C927 C928 1.387 . S
C927 H930 0.950 . S
C928 C927 1.387 . S
C928 C931 1.387 1_556 S
H929 C925 0.950 . S
H930 C927 0.950 . S
C931 C922 1.390 1_565 S
C931 H924 0.950 . S
C931 C928 1.387 1_554 S
C932 C933 1.387 . S
C932 H936 0.950 . S
C932 C941 1.390 . S
C933 C932 1.387 . S
C933 C935 1.387 . S
H934 C941 0.950 . S
C935 C933 1.387 . S
C935 C937 1.390 . S
C935 H939 0.950 . S
H936 C932 0.950 . S
C937 C935 1.390 . S
C937 C938 1.387 . S
C937 H940 0.950 . S
C938 C937 1.387 . S
C938 C941 1.387 . S
H939 C935 0.950 . S
H940 C937 0.950 . S
C941 C932 1.390 . S
C941 H934 0.950 . S
C941 C938 1.387 . S
C942 C943 1.387 . S
C942 H946 0.950 1_554 S
C942 C951 1.390 . S
C943 C942 1.387 . S
C943 C945 1.387 . S
H944 C951 0.950 1_556 S
C945 C943 1.387 . S
C945 C947 1.390 . S
C945 H949 0.950 . S
H946 C942 0.950 1_556 S
C947 C945 1.390 . S
C947 C948 1.387 . S
C947 H950 0.950 . S
C948 C947 1.387 . S
C948 C951 1.387 . S
H949 C945 0.950 . S
H950 C947 0.950 . S
C951 C942 1.390 . S
C951 H944 0.950 1_554 S
C951 C948 1.387 . S
C952 C953 1.387 . S
C952 H956 0.950 . S
C952 C961 1.390 . S
C953 C952 1.387 . S
C953 C955 1.387 . S
H954 C961 0.950 . S
C955 C953 1.387 . S
C955 C957 1.390 . S
C955 H959 0.950 . S
H956 C952 0.950 . S
C957 C955 1.390 . S
C957 C958 1.387 . S
C957 H960 0.950 . S
C958 C957 1.387 . S
C958 C961 1.387 . S
H959 C955 0.950 . S
H960 C957 0.950 . S
C961 C952 1.390 . S
C961 H954 0.950 . S
C961 C958 1.387 . S
C962 C963 1.387 . S
C962 H966 0.950 . S
C962 C971 1.390 . S
C963 C962 1.387 . S
C963 C965 1.387 . S
H964 C971 0.950 . S
C965 C963 1.387 . S
C965 C967 1.390 . S
C965 H969 0.950 . S
H966 C962 0.950 . S
C967 C965 1.390 . S
C967 C968 1.387 . S
C967 H970 0.950 . S
C968 C967 1.387 . S
C968 C971 1.387 . S
H969 C965 0.950 . S
H970 C967 0.950 . S
C971 C962 1.390 . S
C971 H964 0.950 . S
C971 C968 1.387 . S
C498 C481 1.314 . S
C493 N12 1.529 1_556 S
C503 C30 1.580 . S
C508 C434 1.295 . S
C513 C62 1.408 . S
C518 C445 1.293 . S
C528 C470 1.268 . S
C523 N81 1.457 . S
C533 C39 1.444 . S
C538 C488 1.262 . S
C548 C427 1.337 . S
C543 C53 1.556 . S
C558 C452 1.257 . S
C553 N71 1.450 . S
C568 C463 1.299 . S
C563 N2 1.362 . S
C573 N94 1.519 1_655 S
C578 C464 1.325 . S
C588 C490 1.306 . S
C583 C131 1.453 . S
C598 C428 1.302 . S
C593 N140 1.394 . S
C608 C454 1.272 . S
C603 C177 1.441 . S
C613 C108 1.415 . S
C618 C436 1.307 . S
C623 N117 1.421 . S
C628 C446 1.312 . S
C633 C154 1.484 . S
C638 C472 1.279 . S
C648 C482 1.291 . S
C643 N163 1.454 . S
C658 C319 1.294 . S
C653 N173 1.446 . S
C668 C302 1.280 . S
C663 C191 1.528 . S
C678 C328 1.267 . S
C673 N219 1.487 . S
C688 C346 1.360 . S
C683 C237 1.510 . S
C693 N104 1.466 . S
C698 C320 1.300 . S
C703 N127 1.475 . S
C708 C290 1.241 . S
C713 C214 1.501 . S
C718 C344 1.319 . S
C723 C260 1.568 . S
C728 C301 1.339 . S
C738 C355 1.327 1_565 S
C733 N48 1.438 . S
C748 C380 1.273 . S
C743 C76 1.558 . S
C753 C7 1.452 . S
C758 C391 1.302 . S
C763 N35 1.431 . S
C768 C416 1.249 . S
C778 C362 1.284 . S
C773 C85 1.468 1_554 S
C788 C373 1.325 . S
C783 C16 1.505 . S
C793 N25 1.475 . S
C798 C398 1.276 . S
C808 C409 1.289 . S
C803 N58 1.435 . S
C813 N255 1.510 . S
C818 C410 1.323 . S
C823 C200 1.448 . S
C828 C364 1.300 . S
C838 C374 1.303 . S
C833 N209 1.388 . S
C843 C246 1.433 . S
C848 C400 1.263 . S
C858 C382 1.317 . S
C853 C269 1.425 . S
C863 N186 1.428 . S
C868 C392 1.314 . S
C878 C418 1.288 . S
C873 C223 1.490 1_455 S
C888 C356 1.295 1_565 S
C883 N232 1.462 . S
C898 C283 1.294 . S
C893 N242 1.447 . S
C908 C338 1.282 . S
C903 C122 1.533 . S
C913 N150 1.489 . S
C918 C292 1.269 . S
C928 C310 1.367 . S
C923 C168 1.516 . S
C938 C284 1.298 . S
C933 N265 1.461 . S
C943 N196 1.478 . S
C948 C326 1.240 . S
C953 C145 1.496 . S
C958 C308 1.316 . S
C963 C99 1.559 . S
C968 C337 1.329 . S
