# Generated by pormake.
# Topology bwt, (3,3)-cn, num edge types: 1
# Building blocks:
#     Node 0, Type 0, BuildingBlock: OLANEW_clean_sbu_2, # of connection points: 3
#     Node 1, Type 0, BuildingBlock: OLANEW_clean_sbu_2, # of connection points: 3
#     Node 2, Type 0, BuildingBlock: OLANEW_clean_sbu_2, # of connection points: 3
#     Node 3, Type 0, BuildingBlock: OLANEW_clean_sbu_2, # of connection points: 3
#     Node 4, Type 0, BuildingBlock: OLANEW_clean_sbu_2, # of connection points: 3
#     Node 5, Type 0, BuildingBlock: OLANEW_clean_sbu_2, # of connection points: 3
#     Node 6, Type 0, BuildingBlock: OLANEW_clean_sbu_2, # of connection points: 3
#     Node 7, Type 0, BuildingBlock: OLANEW_clean_sbu_2, # of connection points: 3
#     Node 8, Type 0, BuildingBlock: OLANEW_clean_sbu_2, # of connection points: 3
#     Node 9, Type 0, BuildingBlock: OLANEW_clean_sbu_2, # of connection points: 3
#     Node 10, Type 0, BuildingBlock: OLANEW_clean_sbu_2, # of connection points: 3
#     Node 11, Type 0, BuildingBlock: OLANEW_clean_sbu_2, # of connection points: 3
#     Node 12, Type 0, BuildingBlock: OLANEW_clean_sbu_2, # of connection points: 3
#     Node 13, Type 0, BuildingBlock: OLANEW_clean_sbu_2, # of connection points: 3
#     Node 14, Type 0, BuildingBlock: OLANEW_clean_sbu_2, # of connection points: 3
#     Node 15, Type 0, BuildingBlock: OLANEW_clean_sbu_2, # of connection points: 3
#     Node 16, Type 0, BuildingBlock: OLANEW_clean_sbu_2, # of connection points: 3
#     Node 17, Type 0, BuildingBlock: OLANEW_clean_sbu_2, # of connection points: 3
#     Node 18, Type 0, BuildingBlock: OLANEW_clean_sbu_2, # of connection points: 3
#     Node 19, Type 0, BuildingBlock: OLANEW_clean_sbu_2, # of connection points: 3
#     Node 20, Type 0, BuildingBlock: OLANEW_clean_sbu_2, # of connection points: 3
#     Node 21, Type 0, BuildingBlock: OLANEW_clean_sbu_2, # of connection points: 3
#     Node 22, Type 0, BuildingBlock: OLANEW_clean_sbu_2, # of connection points: 3
#     Node 23, Type 0, BuildingBlock: OLANEW_clean_sbu_2, # of connection points: 3
#     Node 24, Type 1, BuildingBlock: PAMTOO_clean_linker_0, # of connection points: 3
#     Node 25, Type 1, BuildingBlock: PAMTOO_clean_linker_0, # of connection points: 3
#     Node 26, Type 1, BuildingBlock: PAMTOO_clean_linker_0, # of connection points: 3
#     Node 27, Type 1, BuildingBlock: PAMTOO_clean_linker_0, # of connection points: 3
#     Node 28, Type 1, BuildingBlock: PAMTOO_clean_linker_0, # of connection points: 3
#     Node 29, Type 1, BuildingBlock: PAMTOO_clean_linker_0, # of connection points: 3
#     Node 30, Type 1, BuildingBlock: PAMTOO_clean_linker_0, # of connection points: 3
#     Node 31, Type 1, BuildingBlock: PAMTOO_clean_linker_0, # of connection points: 3
#     Node 32, Type 1, BuildingBlock: PAMTOO_clean_linker_0, # of connection points: 3
#     Node 33, Type 1, BuildingBlock: PAMTOO_clean_linker_0, # of connection points: 3
#     Node 34, Type 1, BuildingBlock: PAMTOO_clean_linker_0, # of connection points: 3
#     Node 35, Type 1, BuildingBlock: PAMTOO_clean_linker_0, # of connection points: 3
#     Node 36, Type 1, BuildingBlock: PAMTOO_clean_linker_0, # of connection points: 3
#     Node 37, Type 1, BuildingBlock: PAMTOO_clean_linker_0, # of connection points: 3
#     Node 38, Type 1, BuildingBlock: PAMTOO_clean_linker_0, # of connection points: 3
#     Node 39, Type 1, BuildingBlock: PAMTOO_clean_linker_0, # of connection points: 3
#     Node 40, Type 1, BuildingBlock: PAMTOO_clean_linker_0, # of connection points: 3
#     Node 41, Type 1, BuildingBlock: PAMTOO_clean_linker_0, # of connection points: 3
#     Node 42, Type 1, BuildingBlock: PAMTOO_clean_linker_0, # of connection points: 3
#     Node 43, Type 1, BuildingBlock: PAMTOO_clean_linker_0, # of connection points: 3
#     Node 44, Type 1, BuildingBlock: PAMTOO_clean_linker_0, # of connection points: 3
#     Node 45, Type 1, BuildingBlock: PAMTOO_clean_linker_0, # of connection points: 3
#     Node 46, Type 1, BuildingBlock: PAMTOO_clean_linker_0, # of connection points: 3
#     Node 47, Type 1, BuildingBlock: PAMTOO_clean_linker_0, # of connection points: 3
#     Edge 48, Type (0, 1), None
#     Edge 49, Type (0, 1), None
#     Edge 50, Type (0, 1), None
#     Edge 51, Type (0, 1), None
#     Edge 52, Type (0, 1), None
#     Edge 53, Type (0, 1), None
#     Edge 54, Type (0, 1), None
#     Edge 55, Type (0, 1), None
#     Edge 56, Type (0, 1), None
#     Edge 57, Type (0, 1), None
#     Edge 58, Type (0, 1), None
#     Edge 59, Type (0, 1), None
#     Edge 60, Type (0, 1), None
#     Edge 61, Type (0, 1), None
#     Edge 62, Type (0, 1), None
#     Edge 63, Type (0, 1), None
#     Edge 64, Type (0, 1), None
#     Edge 65, Type (0, 1), None
#     Edge 66, Type (0, 1), None
#     Edge 67, Type (0, 1), None
#     Edge 68, Type (0, 1), None
#     Edge 69, Type (0, 1), None
#     Edge 70, Type (0, 1), None
#     Edge 71, Type (0, 1), None
#     Edge 72, Type (0, 1), None
#     Edge 73, Type (0, 1), None
#     Edge 74, Type (0, 1), None
#     Edge 75, Type (0, 1), None
#     Edge 76, Type (0, 1), None
#     Edge 77, Type (0, 1), None
#     Edge 78, Type (0, 1), None
#     Edge 79, Type (0, 1), None
#     Edge 80, Type (0, 1), None
#     Edge 81, Type (0, 1), None
#     Edge 82, Type (0, 1), None
#     Edge 83, Type (0, 1), None
#     Edge 84, Type (0, 1), None
#     Edge 85, Type (0, 1), None
#     Edge 86, Type (0, 1), None
#     Edge 87, Type (0, 1), None
#     Edge 88, Type (0, 1), None
#     Edge 89, Type (0, 1), None
#     Edge 90, Type (0, 1), None
#     Edge 91, Type (0, 1), None
#     Edge 92, Type (0, 1), None
#     Edge 93, Type (0, 1), None
#     Edge 94, Type (0, 1), None
#     Edge 95, Type (0, 1), None
#     Edge 96, Type (0, 1), None
#     Edge 97, Type (0, 1), None
#     Edge 98, Type (0, 1), None
#     Edge 99, Type (0, 1), None
#     Edge 100, Type (0, 1), None
#     Edge 101, Type (0, 1), None
#     Edge 102, Type (0, 1), None
#     Edge 103, Type (0, 1), None
#     Edge 104, Type (0, 1), None
#     Edge 105, Type (0, 1), None
#     Edge 106, Type (0, 1), None
#     Edge 107, Type (0, 1), None
#     Edge 108, Type (0, 1), None
#     Edge 109, Type (0, 1), None
#     Edge 110, Type (0, 1), None
#     Edge 111, Type (0, 1), None
#     Edge 112, Type (0, 1), None
#     Edge 113, Type (0, 1), None
#     Edge 114, Type (0, 1), None
#     Edge 115, Type (0, 1), None
#     Edge 116, Type (0, 1), None
#     Edge 117, Type (0, 1), None
#     Edge 118, Type (0, 1), None
#     Edge 119, Type (0, 1), None
# Relax obj value: 0.037
# Max RMSD: 0.115
# Mean RMSD: 0.069
data_MOF--net-bwt--node1-OLANEW_clean_sbu_2--node2-PAMTOO_clean_linker_0--edge1-none
_symmetry_space_group_name_H-M    P1
_symmetry_Int_Tables_number       1
_symmetry_cell_setting            triclinic
loop_
_symmetry_equiv_pos_as_xyz
'x, y, z'
_cell_length_a     28.102015
_cell_length_b     28.111465
_cell_length_c     28.108537
_cell_angle_alpha  92.567602
_cell_angle_beta   92.627486
_cell_angle_gamma 92.630554
loop_
_atom_site_label
_atom_site_type_symbol
_atom_site_fract_x
_atom_site_fract_y
_atom_site_fract_z
_atom_type_partial_charge
O0 O 0.22973 0.64093 0.40499 0.0
Cd1 Cd 0.20794 0.66026 0.32329 0.0
O2 O 0.28665 0.60318 0.37141 0.0
Cd3 Cd 0.34988 0.56091 0.37099 0.0
O4 O 0.41916 0.53218 0.35859 0.0
C5 C 0.44417 0.51415 0.39135 0.0
O6 O 0.4286 0.51289 0.43453 0.0
C7 C 0.26451 0.61381 0.40856 0.0
C8 C 0.13647 0.59389 0.28901 0.0
O9 O 0.12626 0.63596 0.30336 0.0
O10 O 0.18043 0.58367 0.28952 0.0
O11 O 0.22202 0.44525 0.8564 0.0
Cd12 Cd 0.19441 0.42835 0.77299 0.0
O13 O 0.20214 0.37537 0.88361 0.0
Cd14 Cd 0.15194 0.36511 0.82194 0.0
O15 O 0.08259 0.38793 0.79509 0.0
C16 C 0.07306 0.43082 0.80561 0.0
O17 O 0.10521 0.45886 0.82965 0.0
C18 C 0.22303 0.41634 0.88995 0.0
C19 C 0.26208 0.46971 0.71566 0.0
O20 O 0.26347 0.42564 0.72527 0.0
O21 O 0.22788 0.49342 0.73169 0.0
O22 O 0.65755 0.9183 0.6106 0.0
Cd23 Cd 0.65052 0.91981 0.69716 0.0
O24 O 0.72414 0.96088 0.62576 0.0
Cd25 Cd 0.79403 0.98979 0.60738 0.0
O26 O 0.87111 0.00437 0.60995 0.0
C27 C 0.88893 0.04112 0.63335 0.0
O28 O 0.86071 0.06999 0.65521 0.0
C29 C 0.69453 0.93945 0.59568 0.0
C30 C 0.62075 0.00623 0.7349 0.0
O31 O 0.59113 0.97031 0.72761 0.0
O32 O 0.66412 0.00135 0.72415 0.0
O33 O 0.83324 0.07266 0.14086 0.0
Cd34 Cd 0.86919 0.07961 0.22188 0.0
O35 O 0.77739 0.03673 0.17939 0.0
Cd36 Cd 0.7055 0.00619 0.18478 0.0
O37 O 0.6288 0.99922 0.19022 0.0
C38 C 0.60726 0.03764 0.19576 0.0
O39 O 0.63166 0.07872 0.19789 0.0
C40 C 0.7926 0.05097 0.14033 0.0
C41 C 0.91947 0.00013 0.24595 0.0
O42 O 0.87386 0.99888 0.24622 0.0
O43 O 0.94114 0.03858 0.23399 0.0
O44 O 0.39331 0.21884 0.64766 0.0
Cd45 Cd 0.31635 0.18601 0.67081 0.0
O46 O 0.34753 0.26382 0.60609 0.0
Cd47 Cd 0.33127 0.3209 0.55901 0.0
O48 O 0.32076 0.38517 0.52065 0.0
C49 C 0.35522 0.41606 0.52198 0.0
O50 O 0.396 0.40671 0.54331 0.0
C51 C 0.38913 0.25067 0.61726 0.0
C52 C 0.28555 0.11792 0.59982 0.0
O53 O 0.30373 0.10538 0.63972 0.0
O54 O 0.28038 0.16236 0.59413 0.0
O55 O 0.14817 0.83406 0.06599 0.0
Cd56 Cd 0.23036 0.86722 0.07372 0.0
O57 O 0.18474 0.77628 0.03095 0.0
Cd58 Cd 0.18708 0.70366 0.00148 0.0
O59 O 0.19092 0.62671 0.99648 0.0
C60 C 0.20289 0.60671 0.03453 0.0
O61 O 0.21372 0.63286 0.07374 0.0
C62 C 0.14627 0.79316 0.04478 0.0
C63 C 0.25722 0.91927 0.99623 0.0
O64 O 0.25566 0.87362 0.99349 0.0
O65 O 0.24564 0.94019 0.03518 0.0
O66 O 0.85133 0.21523 0.44501 0.0
Cd67 Cd 0.76746 0.18828 0.42965 0.0
O68 O 0.87731 0.19727 0.37417 0.0
Cd69 Cd 0.8146 0.14857 0.36364 0.0
O70 O 0.78801 0.08039 0.38933 0.0
C71 C 0.8061 0.0694 0.42943 0.0
O72 O 0.83779 0.09898 0.45217 0.0
C73 C 0.88448 0.21677 0.41567 0.0
C74 C 0.7106 0.25763 0.46873 0.0
O75 O 0.71936 0.25688 0.42436 0.0
O76 O 0.72741 0.22487 0.49397 0.0
O77 O 0.59485 0.6612 0.90683 0.0
Cd78 Cd 0.68083 0.65193 0.90234 0.0
O79 O 0.61485 0.72558 0.9512 0.0
Cd80 Cd 0.60066 0.79469 0.98473 0.0
O81 O 0.60714 0.87092 0.00342 0.0
C82 C 0.62929 0.88562 0.04205 0.0
O83 O 0.64771 0.85467 0.07037 0.0
C84 C 0.58261 0.69778 0.93061 0.0
C85 C 0.72395 0.62202 0.98645 0.0
O86 O 0.71291 0.59221 0.9514 0.0
O87 O 0.71438 0.66575 0.98185 0.0
O88 O 0.65721 0.40316 0.23971 0.0
Cd89 Cd 0.67472 0.32212 0.21376 0.0
O90 O 0.61836 0.36722 0.29444 0.0
Cd91 Cd 0.57417 0.35996 0.35609 0.0
O92 O 0.53202 0.35079 0.41854 0.0
C93 C 0.48778 0.35826 0.4175 0.0
O94 O 0.46645 0.37152 0.37806 0.0
C95 C 0.6299 0.40555 0.27442 0.0
C96 C 0.60906 0.29296 0.13972 0.0
O97 O 0.65159 0.30737 0.13106 0.0
O98 O 0.59796 0.2911 0.18331 0.0
O99 O 0.07851 0.1449 0.8293 0.0
Cd100 Cd 0.08276 0.22621 0.86421 0.0
O101 O 0.03652 0.18057 0.77555 0.0
Cd102 Cd 0.00175 0.18414 0.70525 0.0
O103 O 0.99236 0.18815 0.62861 0.0
C104 C 0.0302 0.19239 0.60588 0.0
O105 O 0.07189 0.19406 0.62916 0.0
C106 C 0.05429 0.14271 0.78998 0.0
C107 C 0.00324 0.24674 0.91583 0.0
O108 O 0.00111 0.24722 0.87024 0.0
O109 O 0.0426 0.2363 0.93679 0.0
O110 O 0.44708 0.85924 0.21855 0.0
Cd111 Cd 0.43106 0.77537 0.19199 0.0
O112 O 0.3755 0.88459 0.20264 0.0
Cd113 Cd 0.36376 0.82163 0.15455 0.0
O114 O 0.38859 0.79457 0.08625 0.0
C115 C 0.42878 0.81225 0.07503 0.0
O116 O 0.45178 0.84401 0.10431 0.0
C117 C 0.41751 0.89215 0.22087 0.0
C118 C 0.46422 0.71766 0.26367 0.0
O119 O 0.4203 0.72807 0.26046 0.0
O120 O 0.49191 0.73341 0.23235 0.0
O121 O 0.90773 0.5988 0.65384 0.0
Cd122 Cd 0.90382 0.68465 0.64279 0.0
O123 O 0.95201 0.61859 0.71841 0.0
Cd124 Cd 0.98507 0.60464 0.78789 0.0
O125 O 0.00432 0.61116 0.86408 0.0
C126 C 0.04253 0.63425 0.87855 0.0
O127 O 0.07007 0.65355 0.84744 0.0
C128 C 0.9311 0.58647 0.6907 0.0
C129 C 0.98924 0.72716 0.61525 0.0
O130 O 0.9551 0.7161 0.58436 0.0
O131 O 0.98305 0.71798 0.65884 0.0
O132 O 0.72857 0.35081 0.62899 0.0
Cd133 Cd 0.75608 0.3776 0.70959 0.0
O134 O 0.66285 0.38838 0.63776 0.0
Cd135 Cd 0.59153 0.41393 0.62224 0.0
O136 O 0.52695 0.44631 0.6464 0.0
C137 C 0.48506 0.42873 0.63634 0.0
O138 O 0.47888 0.38992 0.60863 0.0
C139 C 0.68868 0.36316 0.61165 0.0
C140 C 0.84236 0.43081 0.70916 0.0
O141 O 0.84156 0.38588 0.71531 0.0
O142 O 0.80239 0.45048 0.70327 0.0
O143 O 0.70394 0.65019 0.16704 0.0
Cd144 Cd 0.68297 0.66701 0.24885 0.0
O145 O 0.77362 0.63863 0.20075 0.0
Cd146 Cd 0.84913 0.62408 0.20962 0.0
O147 O 0.9139 0.64432 0.25342 0.0
C148 C 0.94346 0.61549 0.26956 0.0
O149 O 0.97847 0.63182 0.29923 0.0
C150 C 0.74624 0.63692 0.16337 0.0
C151 C 0.63742 0.58392 0.27749 0.0
O152 O 0.61342 0.61925 0.26464 0.0
O153 O 0.68301 0.58845 0.27845 0.0
O154 O 0.31706 0.10759 0.42048 0.0
Cd155 Cd 0.32808 0.12026 0.33624 0.0
O156 O 0.27146 0.04835 0.39002 0.0
Cd157 Cd 0.21838 0.98956 0.38477 0.0
O158 O 0.16061 0.94472 0.35121 0.0
C159 C 0.14364 0.95887 0.31198 0.0
O160 O 0.16099 0.99861 0.29526 0.0
C161 C 0.28904 0.07198 0.42677 0.0
C162 C 0.38705 0.05352 0.29646 0.0
O163 O 0.40369 0.09393 0.31448 0.0
O164 O 0.34201 0.0443 0.29716 0.0
O165 O 0.22007 0.9218 0.81287 0.0
Cd166 Cd 0.18733 0.92268 0.73111 0.0
O167 O 0.28313 0.95779 0.78548 0.0
Cd168 Cd 0.35193 0.99864 0.78817 0.0
O169 O 0.41001 0.05282 0.78404 0.0
C170 C 0.43582 0.06821 0.82029 0.0
O171 O 0.42835 0.05107 0.86215 0.0
C172 C 0.2604 0.94366 0.82083 0.0
C173 C 0.11492 0.98749 0.72986 0.0
O174 O 0.10499 0.94249 0.72874 0.0
O175 O 0.15884 0.00188 0.7304 0.0
O176 O 0.61876 0.72911 0.36852 0.0
Cd177 Cd 0.70023 0.75203 0.39645 0.0
O178 O 0.62579 0.65793 0.39595 0.0
Cd179 Cd 0.60625 0.58288 0.40528 0.0
O180 O 0.62373 0.50787 0.40152 0.0
C181 C 0.62036 0.48006 0.43568 0.0
O182 O 0.60615 0.49629 0.47694 0.0
C183 C 0.60058 0.68782 0.37501 0.0
C184 C 0.70467 0.84122 0.44442 0.0
O185 O 0.71132 0.83726 0.39963 0.0
O186 O 0.69604 0.80301 0.46638 0.0
O187 O 0.81952 0.20347 0.91262 0.0
Cd188 Cd 0.73733 0.17189 0.9119 0.0
O189 O 0.79081 0.26433 0.95104 0.0
Cd190 Cd 0.79389 0.33107 0.99502 0.0
O191 O 0.79851 0.38706 0.0519 0.0
C192 C 0.79997 0.43117 0.04372 0.0
O193 O 0.79651 0.44449 0.99955 0.0
C194 C 0.8267 0.24263 0.93672 0.0
C195 C 0.73382 0.10386 0.98119 0.0
O196 O 0.73368 0.09123 0.93681 0.0
O197 O 0.73427 0.14844 0.99284 0.0
O198 O 0.16642 0.70058 0.64946 0.0
Cd199 Cd 0.24523 0.67235 0.66846 0.0
O200 O 0.20516 0.76723 0.63612 0.0
Cd201 Cd 0.22123 0.8411 0.61918 0.0
O202 O 0.2729 0.90123 0.63351 0.0
C203 C 0.28928 0.92711 0.60159 0.0
O204 O 0.32213 0.96076 0.61362 0.0
C205 C 0.166 0.74259 0.63469 0.0
C206 C 0.2704 0.62269 0.58644 0.0
O207 O 0.25278 0.60077 0.62104 0.0
O208 O 0.27764 0.66801 0.59116 0.0
O209 O 0.42932 0.32042 0.10886 0.0
Cd210 Cd 0.34332 0.32652 0.11578 0.0
O211 O 0.40639 0.26987 0.05057 0.0
Cd212 Cd 0.40946 0.21344 0.99558 0.0
O213 O 0.37593 0.15474 0.95176 0.0
C214 C 0.33344 0.14322 0.96173 0.0
O215 O 0.31348 0.16673 0.99636 0.0
C216 C 0.44018 0.29112 0.0759 0.0
C217 C 0.30297 0.38575 0.04948 0.0
O218 O 0.31914 0.40184 0.09077 0.0
O219 O 0.30608 0.34119 0.03904 0.0
O220 O 0.34743 0.63368 0.73257 0.0
Cd221 Cd 0.37033 0.71527 0.75961 0.0
O222 O 0.38129 0.6455 0.66529 0.0
Cd223 Cd 0.40258 0.63185 0.59226 0.0
O224 O 0.41886 0.65767 0.52225 0.0
C225 C 0.40984 0.63326 0.48353 0.0
O226 O 0.39055 0.59 0.48461 0.0
C227 C 0.35912 0.61763 0.692 0.0
C228 C 0.42539 0.71595 0.84471 0.0
O229 O 0.38021 0.72048 0.8449 0.0
O230 O 0.44445 0.71142 0.8043 0.0
O231 O 0.9182 0.81737 0.20357 0.0
Cd232 Cd 0.9193 0.73639 0.16915 0.0
O233 O 0.95258 0.78765 0.26628 0.0
Cd234 Cd 0.99242 0.78821 0.33553 0.0
O235 O 0.04175 0.77776 0.39647 0.0
C236 C 0.0565 0.81127 0.42612 0.0
O237 O 0.04205 0.85458 0.42088 0.0
C238 C 0.93944 0.82387 0.24435 0.0
C239 C 0.98709 0.73616 0.09946 0.0
O240 O 0.94243 0.7356 0.08786 0.0
O241 O 0.99978 0.73576 0.14377 0.0
O242 O 0.63906 0.18457 0.69755 0.0
Cd243 Cd 0.6515 0.26285 0.66512 0.0
O244 O 0.63754 0.22235 0.76708 0.0
Cd245 Cd 0.6341 0.23172 0.84436 0.0
O246 O 0.66093 0.268 0.91135 0.0
C247 C 0.63465 0.28288 0.94389 0.0
O248 O 0.65436 0.30737 0.98113 0.0
C249 C 0.63226 0.18363 0.74186 0.0
C250 C 0.56539 0.28027 0.61807 0.0
O251 O 0.60052 0.2657 0.59483 0.0
O252 O 0.57157 0.28851 0.66317 0.0
O253 O 0.10769 0.41496 0.31756 0.0
Cd254 Cd 0.11435 0.3294 0.32641 0.0
O255 O 0.04969 0.38991 0.26761 0.0
Cd256 Cd 0.9947 0.38896 0.21072 0.0
O257 O 0.95299 0.35333 0.15176 0.0
C258 C 0.96311 0.31053 0.14198 0.0
O259 O 0.99656 0.29098 0.16759 0.0
C260 C 0.07477 0.42458 0.2876 0.0
C261 C 0.0465 0.29147 0.38536 0.0
O262 O 0.08777 0.30744 0.40181 0.0
O263 O 0.03685 0.2936 0.34053 0.0
H264 H 0.26251 0.6554 0.49738 0.0
H265 H 0.29014 0.5235 0.42196 0.0
H266 H 0.29553 0.53095 0.57457 0.0
H267 H 0.37739 0.48827 0.51233 0.0
C268 C 0.35092 0.46085 0.49602 0.0
O269 O 0.30517 0.47624 0.49846 0.0
H270 H 0.35876 0.45354 0.45812 0.0
C271 C 0.27255 0.61863 0.49768 0.0
C272 C 0.27925 0.59666 0.54132 0.0
C273 C 0.27671 0.59264 0.45433 0.0
C274 C 0.28824 0.54461 0.45496 0.0
C275 C 0.29545 0.52277 0.49825 0.0
C276 C 0.29075 0.54861 0.5413 0.0
H277 H 0.26585 0.36402 0.95846 0.0
H278 H 0.22402 0.5057 0.9285 0.0
H279 H 0.2889 0.47989 0.06458 0.0
H280 H 0.20796 0.54194 0.07116 0.0
C281 C 0.20722 0.55413 0.03404 0.0
O282 O 0.24868 0.54251 0.01285 0.0
H283 H 0.17556 0.53675 0.01388 0.0
C284 C 0.26366 0.40127 0.96942 0.0
C285 C 0.28118 0.41802 0.01532 0.0
C286 C 0.24357 0.43288 0.93747 0.0
C287 C 0.2405 0.481 0.95201 0.0
C288 C 0.25596 0.49728 0.99796 0.0
C289 C 0.27692 0.46625 0.02916 0.0
H290 H 0.68477 0.86129 0.53666 0.0
H291 H 0.72776 0.01041 0.54145 0.0
H292 H 0.73285 0.92706 0.41047 0.0
H293 H 0.81099 0.99401 0.42265 0.0
C294 C 0.7967 0.0209 0.44775 0.0
O295 O 0.74843 0.01177 0.45153 0.0
H296 H 0.81555 0.01885 0.48328 0.0
C297 C 0.69749 0.89243 0.51873 0.0
C298 C 0.70835 0.88832 0.4704 0.0
C299 C 0.70455 0.93621 0.54467 0.0
C300 C 0.72201 0.9764 0.52185 0.0
C301 C 0.73154 0.97302 0.47337 0.0
C302 C 0.72447 0.92921 0.44772 0.0
H303 H 0.78146 0.11095 0.06763 0.0
H304 H 0.73966 0.97103 0.11215 0.0
H305 H 0.68853 0.01627 0.97643 0.0
H306 H 0.61563 0.95882 0.03114 0.0
C307 C 0.64172 0.93752 0.0509 0.0
O308 O 0.68693 0.94697 0.03557 0.0
H309 H 0.64049 0.94662 0.08975 0.0
C310 C 0.76155 0.07715 0.06107 0.0
C311 C 0.73455 0.06803 0.01792 0.0
C312 C 0.76341 0.04243 0.0955 0.0
C313 C 0.73781 0.99867 0.08656 0.0
C314 C 0.71053 0.98962 0.04402 0.0
C315 C 0.7093 0.02397 0.00955 0.0
H316 H 0.47987 0.26064 0.65449 0.0
H317 H 0.3943 0.27982 0.52624 0.0
H318 H 0.54559 0.30531 0.52725 0.0
H319 H 0.47506 0.37875 0.48907 0.0
C320 C 0.4604 0.35193 0.46119 0.0
O321 O 0.46561 0.30628 0.47615 0.0
H322 H 0.42199 0.35775 0.45372 0.0
C323 C 0.47674 0.27129 0.61791 0.0
C324 C 0.51809 0.28384 0.59409 0.0
C325 C 0.43161 0.27 0.59403 0.0
C326 C 0.42821 0.28261 0.5462 0.0
C327 C 0.46915 0.29599 0.5226 0.0
C328 C 0.51402 0.29606 0.54629 0.0
H329 H 0.0742 0.78286 0.10565 0.0
H330 H 0.11586 0.74218 0.96447 0.0
H331 H 0.97988 0.69312 0.01089 0.0
H332 H 0.032 0.62006 0.95175 0.0
C333 C 0.05207 0.64597 0.93051 0.0
O334 O 0.03785 0.69146 0.94065 0.0
H335 H 0.09093 0.64381 0.9392 0.0
C336 C 0.06666 0.76373 0.07158 0.0
C337 C 0.02294 0.7376 0.06275 0.0
C338 C 0.10056 0.76545 0.03634 0.0
C339 C 0.0905 0.74065 0.99234 0.0
C340 C 0.04732 0.7144 0.98348 0.0
C341 C 0.0134 0.71328 0.01836 0.0
H342 H 0.95435 0.25764 0.36347 0.0
H343 H 0.92289 0.21647 0.50505 0.0
H344 H 0.06095 0.2767 0.47942 0.0
H345 H 0.06351 0.19377 0.53885 0.0
C346 C 0.02733 0.19551 0.55314 0.0
O347 O 0.0079 0.23795 0.54183 0.0
H348 H 0.00397 0.16508 0.53772 0.0
C349 C 0.96514 0.25502 0.40072 0.0
C350 C 0.01155 0.2709 0.41755 0.0
C351 C 0.93251 0.23596 0.43227 0.0
C352 C 0.9469 0.23227 0.48039 0.0
C353 C 0.99328 0.24605 0.4967 0.0
C354 C 0.02516 0.26606 0.46575 0.0
H355 H 0.51784 0.69256 0.85666 0.0
H356 H 0.53512 0.73028 0.00678 0.0
H357 H 0.39924 0.74259 0.9339 0.0
H358 H 0.42268 0.81988 3e-05 0.0
C359 C 0.44653 0.80297 0.02631 0.0
O360 O 0.44696 0.75464 0.01564 0.0
H361 H 0.48324 0.81937 0.02482 0.0
C362 C 0.50283 0.7048 0.88963 0.0
C363 C 0.45493 0.71729 0.88974 0.0
C364 C 0.53204 0.70944 0.93161 0.0
C365 C 0.51297 0.72627 0.97413 0.0
C366 C 0.465 0.73766 0.97483 0.0
C367 C 0.43603 0.73279 0.93288 0.0
H368 H 0.66951 0.49467 0.26594 0.0
H369 H 0.54348 0.41977 0.31144 0.0
H370 H 0.55007 0.57188 0.31348 0.0
H371 H 0.51888 0.52811 0.3997 0.0
C372 C 0.49361 0.50014 0.38249 0.0
O373 O 0.49966 0.49612 0.33411 0.0
H374 H 0.49999 0.46551 0.39863 0.0
C375 C 0.63444 0.49495 0.28047 0.0
C376 C 0.61304 0.53864 0.28904 0.0
C377 C 0.6099 0.45152 0.28873 0.0
C378 C 0.56412 0.45244 0.30664 0.0
C379 C 0.54328 0.49575 0.31624 0.0
C380 C 0.56717 0.53865 0.30661 0.0
H381 H 0.11813 0.07392 0.77723 0.0
H382 H 0.97416 0.10959 0.73965 0.0
H383 H 0.02623 0.97752 0.68682 0.0
H384 H 0.96022 0.02625 0.61504 0.0
C385 C 0.94165 0.04744 0.64225 0.0
O386 O 0.95331 0.03224 0.6871 0.0
H387 H 0.95235 0.08584 0.63978 0.0
C388 C 0.08411 0.06533 0.75832 0.0
C389 C 0.07681 0.02183 0.7316 0.0
C390 C 0.04738 0.09749 0.76118 0.0
C391 C 0.00333 0.08587 0.73693 0.0
C392 C 0.99608 0.04307 0.70975 0.0
C393 C 0.03251 0.01087 0.70749 0.0
H394 H 0.36533 0.96165 0.26211 0.0
H395 H 0.50679 0.93105 0.21996 0.0
H396 H 0.48094 0.06856 0.28119 0.0
H397 H 0.54131 0.07277 0.19911 0.0
C398 C 0.5546 0.03613 0.19974 0.0
O399 O 0.54343 0.01603 0.24192 0.0
H400 H 0.5381 0.01386 0.16904 0.0
C401 C 0.40251 0.97263 0.25925 0.0
C402 C 0.41923 0.01898 0.2753 0.0
C403 C 0.43408 0.94023 0.23989 0.0
C404 C 0.48211 0.95486 0.23597 0.0
C405 C 0.49833 0.00121 0.24998 0.0
C406 C 0.46737 0.03282 0.27034 0.0
H407 H 0.85616 0.52294 0.68534 0.0
H408 H 0.00625 0.53782 0.72418 0.0
H409 H 0.93103 0.40306 0.73603 0.0
H410 H 0.99804 0.42182 0.81176 0.0
C411 C 0.02383 0.44755 0.79664 0.0
O412 O 0.01358 0.44935 0.74832 0.0
H413 H 0.02096 0.48347 0.81437 0.0
C414 C 0.88877 0.5074 0.69785 0.0
C415 C 0.88795 0.45951 0.71047 0.0
C416 C 0.9312 0.53594 0.70275 0.0
C417 C 0.97326 0.5162 0.72001 0.0
C418 C 0.9731 0.46818 0.73138 0.0
C419 C 0.93068 0.4399 0.72623 0.0
H420 H 0.71455 0.28566 0.56176 0.0
H421 H 0.63482 0.41191 0.54851 0.0
H422 H 0.65284 0.32035 0.42529 0.0
H423 H 0.64084 0.41985 0.39331 0.0
C424 C 0.64187 0.43252 0.43136 0.0
O425 O 0.61715 0.39943 0.45688 0.0
H426 H 0.67995 0.43705 0.44429 0.0
C427 C 0.69274 0.30814 0.54026 0.0
C428 C 0.6855 0.29735 0.49113 0.0
C429 C 0.67442 0.34917 0.56157 0.0
C430 C 0.64753 0.37905 0.53335 0.0
C431 C 0.63974 0.36844 0.4844 0.0
C432 C 0.65823 0.32746 0.46342 0.0
H433 H 0.7179 0.66186 0.07519 0.0
H434 H 0.80461 0.56368 0.14923 0.0
H435 H 0.77845 0.54526 0.99797 0.0
H436 H 0.76063 0.47038 0.09383 0.0
C437 C 0.79849 0.46703 0.08453 0.0
O438 O 0.81938 0.51037 0.07334 0.0
H439 H 0.81824 0.45409 0.11618 0.0
C440 C 0.74038 0.63152 0.07451 0.0
C441 C 0.74681 0.60643 0.0311 0.0
C442 C 0.76092 0.61635 0.11743 0.0
C443 C 0.78953 0.57671 0.1164 0.0
C444 C 0.79519 0.55085 0.07342 0.0
C445 C 0.77385 0.56564 0.03095 0.0
H446 H 0.29525 0.13021 0.50625 0.0
H447 H 0.25923 0.98481 0.45777 0.0
H448 H 0.25157 0.02639 0.60543 0.0
H449 H 0.29988 0.92253 0.52635 0.0
C450 C 0.27004 0.92108 0.55104 0.0
O451 O 0.23828 0.95587 0.54135 0.0
H452 H 0.25124 0.88557 0.54491 0.0
C453 C 0.2827 0.09426 0.51324 0.0
C454 C 0.27432 0.08246 0.56025 0.0
C455 C 0.27689 0.05954 0.47555 0.0
C456 C 0.26192 0.01278 0.48551 0.0
C457 C 0.25254 0.00102 0.53215 0.0
C458 C 0.25857 0.03587 0.56937 0.0
H459 H 0.24416 0.89587 0.90131 0.0
H460 H 0.30928 0.02523 0.85186 0.0
H461 H 0.3033 0.00628 0.00123 0.0
H462 H 0.27047 0.09789 0.94931 0.0
C463 C 0.30616 0.10361 0.93425 0.0
O464 O 0.33161 0.06292 0.93589 0.0
H465 H 0.30157 0.11342 0.89651 0.0
C466 C 0.26337 0.92995 0.90853 0.0
C467 C 0.27271 0.94722 0.956 0.0
C468 C 0.27689 0.9576 0.87036 0.0
C469 C 0.30084 0.00205 0.88026 0.0
C470 C 0.31032 0.01924 0.92721 0.0
C471 C 0.29607 0.99216 0.96498 0.0
H472 H 0.5562 0.71591 0.29538 0.0
H473 H 0.53287 0.63761 0.42096 0.0
H474 H 0.41458 0.66402 0.32543 0.0
H475 H 0.37916 0.66047 0.42044 0.0
C476 C 0.41528 0.6563 0.43704 0.0
O477 O 0.44025 0.6281 0.40636 0.0
H478 H 0.43316 0.6924 0.44351 0.0
C479 C 0.53235 0.6956 0.31697 0.0
C480 C 0.48333 0.69156 0.3044 0.0
C481 C 0.55066 0.67608 0.35871 0.0
C482 C 0.51963 0.6513 0.3877 0.0
C483 C 0.47063 0.64727 0.37569 0.0
C484 C 0.45267 0.66663 0.33375 0.0
H485 H 0.90882 0.23157 0.88988 0.0
H486 H 0.85507 0.28562 0.02191 0.0
H487 H 0.00515 0.28759 0.00496 0.0
H488 H 0.95565 0.24876 0.09442 0.0
C489 C 0.93788 0.28287 0.10122 0.0
O490 O 0.93785 0.31004 0.06163 0.0
H491 H 0.90041 0.27493 0.11045 0.0
C492 C 0.91488 0.24863 0.92514 0.0
C493 C 0.96185 0.25869 0.94374 0.0
C494 C 0.87576 0.25891 0.9528 0.0
C495 C 0.88417 0.27991 0.99879 0.0
C496 C 0.93056 0.29037 0.01714 0.0
C497 C 0.96931 0.27955 0.98995 0.0
H498 H 0.07628 0.71803 0.65716 0.0
H499 H 0.1562 0.80293 0.56181 0.0
H500 H 0.00453 0.78258 0.53956 0.0
H501 H 0.0985 0.76302 0.46552 0.0
C502 C 0.09373 0.80209 0.46397 0.0
O503 O 0.08208 0.82205 0.50751 0.0
H504 H 0.12814 0.81915 0.45426 0.0
C505 C 0.07732 0.74086 0.62709 0.0
C506 C 0.03489 0.74902 0.60104 0.0
C507 C 0.12142 0.75976 0.61314 0.0
C508 C 0.12251 0.78893 0.57388 0.0
C509 C 0.08039 0.7967 0.54723 0.0
C510 C 0.03678 0.77657 0.56064 0.0
H511 H 0.51379 0.30178 0.14147 0.0
H512 H 0.48061 0.2613 0.99351 0.0
H513 H 0.62429 0.25777 0.05052 0.0
H514 H 0.5636 0.30771 0.94362 0.0
C515 C 0.58173 0.27343 0.93989 0.0
O516 O 0.56786 0.24245 0.97404 0.0
H517 H 0.57081 0.2571 0.90413 0.0
C518 C 0.52479 0.28893 0.10692 0.0
C519 C 0.57317 0.28128 0.10047 0.0
C520 C 0.49071 0.28121 0.06879 0.0
C521 C 0.50569 0.26571 0.0239 0.0
C522 C 0.55378 0.25748 0.01736 0.0
C523 C 0.58727 0.26479 0.05571 0.0
H524 H 0.28347 0.56407 0.71605 0.0
H525 H 0.41356 0.55728 0.64174 0.0
H526 H 0.33074 0.4288 0.66346 0.0
H527 H 0.4278 0.41725 0.68192 0.0
C528 C 0.44435 0.44719 0.66293 0.0
O529 O 0.41033 0.46436 0.63199 0.0
H530 H 0.45787 0.47581 0.68951 0.0
C531 C 0.30812 0.54351 0.69595 0.0
C532 C 0.30105 0.49375 0.69072 0.0
C533 C 0.34829 0.56692 0.67811 0.0
C534 C 0.38122 0.54017 0.65371 0.0
C535 C 0.37495 0.4904 0.64885 0.0
C536 C 0.33452 0.46737 0.6665 0.0
H537 H 0.8931 0.90591 0.23158 0.0
H538 H 0.02224 0.85161 0.29223 0.0
H539 H 0.00775 0.0019 0.28905 0.0
H540 H 0.09559 0.94759 0.25115 0.0
C541 C 0.10265 0.93202 0.2864 0.0
O542 O 0.06331 0.93437 0.31379 0.0
H543 H 0.11163 0.89419 0.28047 0.0
C544 C 0.92774 0.91189 0.25002 0.0
C545 C 0.94656 0.95878 0.2598 0.0
C546 C 0.95463 0.87269 0.26198 0.0
C547 C 0.99981 0.88092 0.28488 0.0
C548 C 0.01867 0.92728 0.29439 0.0
C549 C 0.99234 0.96611 0.28175 0.0
H550 H 0.65696 0.09424 0.71816 0.0
H551 H 0.56549 0.17336 0.80798 0.0
H552 H 0.54803 0.02099 0.79407 0.0
H553 H 0.47076 0.12053 0.77852 0.0
C554 C 0.47065 0.10953 0.81614 0.0
O555 O 0.51562 0.09858 0.83307 0.0
H556 H 0.45905 0.14008 0.83843 0.0
C557 C 0.62875 0.09497 0.74322 0.0
C558 C 0.60547 0.05212 0.75505 0.0
C559 C 0.61446 0.13896 0.76186 0.0
C560 C 0.5777 0.13972 0.79404 0.0
C561 C 0.55335 0.09724 0.80492 0.0
C562 C 0.56708 0.0536 0.78531 0.0
H563 H 0.13893 0.4992 0.29987 0.0
H564 H 0.99339 0.46317 0.25152 0.0
H565 H 0.04928 0.60712 0.24734 0.0
H566 H 0.93785 0.54296 0.28996 0.0
C567 C 0.93769 0.56319 0.2568 0.0
O568 O 0.9742 0.54938 0.22867 0.0
H569 H 0.90315 0.55483 0.23671 0.0
C570 C 0.10497 0.50932 0.28455 0.0
C571 C 0.09842 0.55732 0.27528 0.0
C572 C 0.06758 0.4746 0.27557 0.0
C573 C 0.02336 0.48861 0.25696 0.0
C574 C 0.01682 0.53629 0.24687 0.0
C575 C 0.05446 0.57039 0.2556 0.0
loop_
_geom_bond_atom_site_label_1
_geom_bond_atom_site_label_2
_geom_bond_distance
_geom_bond_site_symmetry_2
_ccdc_geom_bond_type
O0 Cd1 2.300 . S
O0 C7 1.275 . S
Cd1 O0 2.300 . S
Cd1 O9 2.381 . S
Cd1 O10 2.378 . S
O2 Cd3 2.385 . S
O2 C7 1.255 . S
Cd3 O2 2.385 . S
Cd3 O4 2.317 . S
O4 Cd3 2.317 . S
O4 C5 1.232 . S
C5 O4 1.232 . S
C5 O6 1.218 . S
O6 C5 1.218 . S
C7 O0 1.275 . S
C7 O2 1.255 . S
C8 O9 1.258 . S
C8 O10 1.256 . S
O9 Cd1 2.381 . S
O9 C8 1.258 . S
O10 Cd1 2.378 . S
O10 C8 1.256 . S
O11 Cd12 2.300 . S
O11 C18 1.275 . S
Cd12 O11 2.300 . S
Cd12 O20 2.381 . S
Cd12 O21 2.378 . S
O13 Cd14 2.385 . S
O13 C18 1.255 . S
Cd14 O13 2.385 . S
Cd14 O15 2.317 . S
O15 Cd14 2.317 . S
O15 C16 1.232 . S
C16 O15 1.232 . S
C16 O17 1.218 . S
O17 C16 1.218 . S
C18 O11 1.275 . S
C18 O13 1.255 . S
C19 O20 1.258 . S
C19 O21 1.256 . S
O20 Cd12 2.381 . S
O20 C19 1.258 . S
O21 Cd12 2.378 . S
O21 C19 1.256 . S
O22 Cd23 2.300 . S
O22 C29 1.275 . S
Cd23 O22 2.300 . S
Cd23 O31 2.381 1_565 S
Cd23 O32 2.378 . S
O24 Cd25 2.385 . S
O24 C29 1.255 . S
Cd25 O24 2.385 . S
Cd25 O26 2.317 . S
O26 Cd25 2.317 . S
O26 C27 1.232 . S
C27 O26 1.232 . S
C27 O28 1.218 . S
O28 C27 1.218 . S
C29 O22 1.275 . S
C29 O24 1.255 . S
C30 O31 1.258 . S
C30 O32 1.256 1_545 S
O31 Cd23 2.381 1_545 S
O31 C30 1.258 . S
O32 Cd23 2.378 . S
O32 C30 1.256 1_565 S
O33 Cd34 2.302 . S
O33 C40 1.277 . S
Cd34 O33 2.302 . S
Cd34 O42 2.381 1_545 S
Cd34 O43 2.378 . S
O35 Cd36 2.385 . S
O35 C40 1.255 . S
Cd36 O35 2.385 . S
Cd36 O37 2.317 . S
O37 Cd36 2.317 . S
O37 C38 1.232 . S
C38 O37 1.232 . S
C38 O39 1.218 . S
O39 C38 1.218 . S
C40 O33 1.277 . S
C40 O35 1.255 . S
C41 O42 1.260 . S
C41 O43 1.252 1_565 S
O42 Cd34 2.381 1_565 S
O42 C41 1.260 . S
O43 Cd34 2.378 . S
O43 C41 1.252 1_545 S
O44 Cd45 2.300 . S
O44 C51 1.275 . S
Cd45 O44 2.300 . S
Cd45 O53 2.381 . S
Cd45 O54 2.378 . S
O46 Cd47 2.385 . S
O46 C51 1.255 . S
Cd47 O46 2.385 . S
Cd47 O48 2.317 . S
O48 Cd47 2.317 . S
O48 C49 1.232 . S
C49 O48 1.232 . S
C49 O50 1.218 . S
O50 C49 1.218 . S
C51 O44 1.275 . S
C51 O46 1.255 . S
C52 O53 1.258 . S
C52 O54 1.256 . S
O53 Cd45 2.381 . S
O53 C52 1.258 . S
O54 Cd45 2.378 . S
O54 C52 1.256 . S
O55 Cd56 2.302 . S
O55 C62 1.277 . S
Cd56 O55 2.302 . S
Cd56 O64 2.381 1_554 S
Cd56 O65 2.378 . S
O57 Cd58 2.385 . S
O57 C62 1.255 . S
Cd58 O57 2.385 . S
Cd58 O59 2.317 . S
O59 Cd58 2.317 . S
O59 C60 1.232 . S
C60 O59 1.232 . S
C60 O61 1.218 . S
O61 C60 1.218 . S
C62 O55 1.277 . S
C62 O57 1.255 . S
C63 O64 1.260 . S
C63 O65 1.252 1_556 S
O64 Cd56 2.381 1_556 S
O64 C63 1.260 . S
O65 Cd56 2.378 . S
O65 C63 1.252 1_554 S
O66 Cd67 2.300 . S
O66 C73 1.275 . S
Cd67 O66 2.300 . S
Cd67 O75 2.381 . S
Cd67 O76 2.378 . S
O68 Cd69 2.385 . S
O68 C73 1.255 . S
Cd69 O68 2.385 . S
Cd69 O70 2.317 . S
O70 Cd69 2.317 . S
O70 C71 1.232 . S
C71 O70 1.232 . S
C71 O72 1.218 . S
O72 C71 1.218 . S
C73 O66 1.275 . S
C73 O68 1.255 . S
C74 O75 1.258 . S
C74 O76 1.256 . S
O75 Cd67 2.381 . S
O75 C74 1.258 . S
O76 Cd67 2.378 . S
O76 C74 1.256 . S
O77 Cd78 2.300 . S
O77 C84 1.275 . S
Cd78 O77 2.300 . S
Cd78 O86 2.381 1_556 S
Cd78 O87 2.378 . S
O79 Cd80 2.385 . S
O79 C84 1.255 . S
Cd80 O79 2.385 . S
Cd80 O81 2.317 . S
O81 Cd80 2.317 . S
O81 C82 1.232 . S
C82 O81 1.232 . S
C82 O83 1.218 . S
O83 C82 1.218 . S
C84 O77 1.275 . S
C84 O79 1.255 . S
C85 O86 1.258 . S
C85 O87 1.256 1_554 S
O86 Cd78 2.381 1_554 S
O86 C85 1.258 . S
O87 Cd78 2.378 . S
O87 C85 1.256 1_556 S
O88 Cd89 2.300 . S
O88 C95 1.275 . S
Cd89 O88 2.300 . S
Cd89 O97 2.381 . S
Cd89 O98 2.378 . S
O90 Cd91 2.385 . S
O90 C95 1.255 . S
Cd91 O90 2.385 . S
Cd91 O92 2.317 . S
O92 Cd91 2.317 . S
O92 C93 1.232 . S
C93 O92 1.232 . S
C93 O94 1.218 . S
O94 C93 1.218 . S
C95 O88 1.275 . S
C95 O90 1.255 . S
C96 O97 1.258 . S
C96 O98 1.256 . S
O97 Cd89 2.381 . S
O97 C96 1.258 . S
O98 Cd89 2.378 . S
O98 C96 1.256 . S
O99 Cd100 2.302 . S
O99 C106 1.277 . S
Cd100 O99 2.302 . S
Cd100 O108 2.381 1_455 S
Cd100 O109 2.378 . S
O101 Cd102 2.385 . S
O101 C106 1.255 . S
Cd102 O101 2.385 . S
Cd102 O103 2.317 . S
O103 Cd102 2.317 . S
O103 C104 1.232 . S
C104 O103 1.232 . S
C104 O105 1.218 . S
O105 C104 1.218 . S
C106 O99 1.277 . S
C106 O101 1.255 . S
C107 O108 1.260 . S
C107 O109 1.252 1_655 S
O108 Cd100 2.381 1_655 S
O108 C107 1.260 . S
O109 Cd100 2.378 . S
O109 C107 1.252 1_455 S
O110 Cd111 2.300 . S
O110 C117 1.275 . S
Cd111 O110 2.300 . S
Cd111 O119 2.381 . S
Cd111 O120 2.378 . S
O112 Cd113 2.385 . S
O112 C117 1.255 . S
Cd113 O112 2.385 . S
Cd113 O114 2.317 . S
O114 Cd113 2.317 . S
O114 C115 1.232 . S
C115 O114 1.232 . S
C115 O116 1.218 . S
O116 C115 1.218 . S
C117 O110 1.275 . S
C117 O112 1.255 . S
C118 O119 1.258 . S
C118 O120 1.256 . S
O119 Cd111 2.381 . S
O119 C118 1.258 . S
O120 Cd111 2.378 . S
O120 C118 1.256 . S
O121 Cd122 2.300 . S
O121 C128 1.275 . S
Cd122 O121 2.300 . S
Cd122 O130 2.381 1_655 S
Cd122 O131 2.378 . S
O123 Cd124 2.385 . S
O123 C128 1.255 . S
Cd124 O123 2.385 . S
Cd124 O125 2.317 . S
O125 Cd124 2.317 . S
O125 C126 1.232 . S
C126 O125 1.232 . S
C126 O127 1.218 . S
O127 C126 1.218 . S
C128 O121 1.275 . S
C128 O123 1.255 . S
C129 O130 1.258 . S
C129 O131 1.256 1_455 S
O130 Cd122 2.381 1_455 S
O130 C129 1.258 . S
O131 Cd122 2.378 . S
O131 C129 1.256 1_655 S
O132 Cd133 2.300 . S
O132 C139 1.275 . S
Cd133 O132 2.300 . S
Cd133 O141 2.381 . S
Cd133 O142 2.378 . S
O134 Cd135 2.385 . S
O134 C139 1.255 . S
Cd135 O134 2.385 . S
Cd135 O136 2.317 . S
O136 Cd135 2.317 . S
O136 C137 1.232 . S
C137 O136 1.232 . S
C137 O138 1.218 . S
O138 C137 1.218 . S
C139 O132 1.275 . S
C139 O134 1.255 . S
C140 O141 1.258 . S
C140 O142 1.256 . S
O141 Cd133 2.381 . S
O141 C140 1.258 . S
O142 Cd133 2.378 . S
O142 C140 1.256 . S
O143 Cd144 2.300 . S
O143 C150 1.275 . S
Cd144 O143 2.300 . S
Cd144 O152 2.381 . S
Cd144 O153 2.378 . S
O145 Cd146 2.385 . S
O145 C150 1.255 . S
Cd146 O145 2.385 . S
Cd146 O147 2.317 . S
O147 Cd146 2.317 . S
O147 C148 1.232 . S
C148 O147 1.232 . S
C148 O149 1.218 . S
O149 C148 1.218 . S
C150 O143 1.275 . S
C150 O145 1.255 . S
C151 O152 1.258 . S
C151 O153 1.256 . S
O152 Cd144 2.381 . S
O152 C151 1.258 . S
O153 Cd144 2.378 . S
O153 C151 1.256 . S
O154 Cd155 2.300 1_545 S
O154 C161 1.275 . S
Cd155 O154 2.300 1_565 S
Cd155 O163 2.381 1_565 S
Cd155 O164 2.378 . S
O156 Cd157 2.385 . S
O156 C161 1.255 1_565 S
Cd157 O156 2.385 . S
Cd157 O158 2.317 . S
O158 Cd157 2.317 . S
O158 C159 1.232 . S
C159 O158 1.232 . S
C159 O160 1.218 . S
O160 C159 1.218 . S
C161 O154 1.275 . S
C161 O156 1.255 1_545 S
C162 O163 1.258 1_565 S
C162 O164 1.256 . S
O163 Cd155 2.381 1_545 S
O163 C162 1.258 1_545 S
O164 Cd155 2.378 . S
O164 C162 1.256 . S
O165 Cd166 2.300 1_565 S
O165 C172 1.275 . S
Cd166 O165 2.300 1_545 S
Cd166 O174 2.381 1_545 S
Cd166 O175 2.378 . S
O167 Cd168 2.385 . S
O167 C172 1.255 1_545 S
Cd168 O167 2.385 . S
Cd168 O169 2.317 . S
O169 Cd168 2.317 . S
O169 C170 1.232 . S
C170 O169 1.232 . S
C170 O171 1.218 . S
O171 C170 1.218 . S
C172 O165 1.275 . S
C172 O167 1.255 1_565 S
C173 O174 1.258 1_545 S
C173 O175 1.256 . S
O174 Cd166 2.381 1_565 S
O174 C173 1.258 1_565 S
O175 Cd166 2.378 . S
O175 C173 1.256 . S
O176 Cd177 2.300 . S
O176 C183 1.275 . S
Cd177 O176 2.300 . S
Cd177 O185 2.381 . S
Cd177 O186 2.378 . S
O178 Cd179 2.385 . S
O178 C183 1.255 . S
Cd179 O178 2.385 . S
Cd179 O180 2.317 . S
O180 Cd179 2.317 . S
O180 C181 1.232 . S
C181 O180 1.232 . S
C181 O182 1.218 . S
O182 C181 1.218 . S
C183 O176 1.275 . S
C183 O178 1.255 . S
C184 O185 1.258 . S
C184 O186 1.256 . S
O185 Cd177 2.381 . S
O185 C184 1.258 . S
O186 Cd177 2.378 . S
O186 C184 1.256 . S
O187 Cd188 2.300 1_556 S
O187 C194 1.275 . S
Cd188 O187 2.300 1_554 S
Cd188 O196 2.381 1_554 S
Cd188 O197 2.378 . S
O189 Cd190 2.385 . S
O189 C194 1.255 1_554 S
Cd190 O189 2.385 . S
Cd190 O191 2.317 . S
O191 Cd190 2.317 . S
O191 C192 1.232 . S
C192 O191 1.232 . S
C192 O193 1.218 . S
O193 C192 1.218 . S
C194 O187 1.275 . S
C194 O189 1.255 1_556 S
C195 O196 1.258 1_554 S
C195 O197 1.256 . S
O196 Cd188 2.381 1_556 S
O196 C195 1.258 1_556 S
O197 Cd188 2.378 . S
O197 C195 1.256 . S
O198 Cd199 2.300 . S
O198 C205 1.275 . S
Cd199 O198 2.300 . S
Cd199 O207 2.381 . S
Cd199 O208 2.378 . S
O200 Cd201 2.385 . S
O200 C205 1.255 . S
Cd201 O200 2.385 . S
Cd201 O202 2.317 . S
O202 Cd201 2.317 . S
O202 C203 1.232 . S
C203 O202 1.232 . S
C203 O204 1.218 . S
O204 C203 1.218 . S
C205 O198 1.275 . S
C205 O200 1.255 . S
C206 O207 1.258 . S
C206 O208 1.256 . S
O207 Cd199 2.381 . S
O207 C206 1.258 . S
O208 Cd199 2.378 . S
O208 C206 1.256 . S
O209 Cd210 2.300 1_554 S
O209 C216 1.275 . S
Cd210 O209 2.300 1_556 S
Cd210 O218 2.381 1_556 S
Cd210 O219 2.378 . S
O211 Cd212 2.385 . S
O211 C216 1.255 1_556 S
Cd212 O211 2.385 . S
Cd212 O213 2.317 . S
O213 Cd212 2.317 . S
O213 C214 1.232 . S
C214 O213 1.232 . S
C214 O215 1.218 . S
O215 C214 1.218 . S
C216 O209 1.275 . S
C216 O211 1.255 1_554 S
C217 O218 1.258 1_556 S
C217 O219 1.256 . S
O218 Cd210 2.381 1_554 S
O218 C217 1.258 1_554 S
O219 Cd210 2.378 . S
O219 C217 1.256 . S
O220 Cd221 2.300 . S
O220 C227 1.275 . S
Cd221 O220 2.300 . S
Cd221 O229 2.381 . S
Cd221 O230 2.378 . S
O222 Cd223 2.385 . S
O222 C227 1.255 . S
Cd223 O222 2.385 . S
Cd223 O224 2.317 . S
O224 Cd223 2.317 . S
O224 C225 1.232 . S
C225 O224 1.232 . S
C225 O226 1.218 . S
O226 C225 1.218 . S
C227 O220 1.275 . S
C227 O222 1.255 . S
C228 O229 1.258 . S
C228 O230 1.256 . S
O229 Cd221 2.381 . S
O229 C228 1.258 . S
O230 Cd221 2.378 . S
O230 C228 1.256 . S
O231 Cd232 2.300 1_655 S
O231 C238 1.275 . S
Cd232 O231 2.300 1_455 S
Cd232 O240 2.381 1_455 S
Cd232 O241 2.378 . S
O233 Cd234 2.385 . S
O233 C238 1.255 1_455 S
Cd234 O233 2.385 . S
Cd234 O235 2.317 . S
O235 Cd234 2.317 . S
O235 C236 1.232 . S
C236 O235 1.232 . S
C236 O237 1.218 . S
O237 C236 1.218 . S
C238 O231 1.275 . S
C238 O233 1.255 1_655 S
C239 O240 1.258 1_455 S
C239 O241 1.256 . S
O240 Cd232 2.381 1_655 S
O240 C239 1.258 1_655 S
O241 Cd232 2.378 . S
O241 C239 1.256 . S
O242 Cd243 2.300 . S
O242 C249 1.275 . S
Cd243 O242 2.300 . S
Cd243 O251 2.381 . S
Cd243 O252 2.378 . S
O244 Cd245 2.385 . S
O244 C249 1.255 . S
Cd245 O244 2.385 . S
Cd245 O246 2.317 . S
O246 Cd245 2.317 . S
O246 C247 1.232 . S
C247 O246 1.232 . S
C247 O248 1.218 . S
O248 C247 1.218 . S
C249 O242 1.275 . S
C249 O244 1.255 . S
C250 O251 1.258 . S
C250 O252 1.256 . S
O251 Cd243 2.381 . S
O251 C250 1.258 . S
O252 Cd243 2.378 . S
O252 C250 1.256 . S
O253 Cd254 2.300 1_455 S
O253 C260 1.275 . S
Cd254 O253 2.300 1_655 S
Cd254 O262 2.381 1_655 S
Cd254 O263 2.378 . S
O255 Cd256 2.385 . S
O255 C260 1.255 1_655 S
Cd256 O255 2.385 . S
Cd256 O257 2.317 . S
O257 Cd256 2.317 . S
O257 C258 1.232 . S
C258 O257 1.232 . S
C258 O259 1.218 . S
O259 C258 1.218 . S
C260 O253 1.275 . S
C260 O255 1.255 1_455 S
C261 O262 1.258 1_655 S
C261 O263 1.256 . S
O262 Cd254 2.381 1_455 S
O262 C261 1.258 1_455 S
O263 Cd254 2.378 . S
O263 C261 1.256 . S
H264 C271 0.929 . S
H265 C274 0.930 . S
H266 C276 0.929 . S
H267 C268 0.969 . S
C268 H267 0.969 . S
C268 O269 1.550 . S
C268 H270 0.973 . S
O269 C268 1.550 . S
O269 C275 1.412 . S
H270 C268 0.973 . S
C271 H264 0.929 . S
C271 C272 1.400 . S
C271 C273 1.364 . S
C272 C271 1.400 . S
C272 C276 1.377 . S
C273 C271 1.364 . S
C273 C274 1.374 . S
C274 H265 0.930 . S
C274 C273 1.374 . S
C274 C275 1.383 . S
C275 O269 1.412 . S
C275 C274 1.383 . S
C275 C276 1.394 . S
C276 H266 0.929 . S
C276 C272 1.377 . S
C276 C275 1.394 . S
H277 C284 0.929 . S
H278 C287 0.930 . S
H279 C289 0.929 1_554 S
H280 C281 0.969 . S
C281 H280 0.969 . S
C281 O282 1.550 . S
C281 H283 0.973 . S
O282 C281 1.550 . S
O282 C288 1.412 . S
H283 C281 0.973 . S
C284 H277 0.929 . S
C284 C285 1.400 . S
C284 C286 1.364 . S
C285 C284 1.400 . S
C285 C289 1.377 . S
C286 C284 1.364 . S
C286 C287 1.374 . S
C287 H278 0.930 . S
C287 C286 1.374 . S
C287 C288 1.383 . S
C288 O282 1.412 . S
C288 C287 1.383 . S
C288 C289 1.394 . S
C289 H279 0.929 1_556 S
C289 C285 1.377 . S
C289 C288 1.394 . S
H290 C297 0.929 . S
H291 C300 0.930 . S
H292 C302 0.929 . S
H293 C294 0.969 . S
C294 H293 0.969 . S
C294 O295 1.550 . S
C294 H296 0.973 . S
O295 C294 1.550 . S
O295 C301 1.412 . S
H296 C294 0.973 . S
C297 H290 0.929 . S
C297 C298 1.400 . S
C297 C299 1.364 . S
C298 C297 1.400 . S
C298 C302 1.377 . S
C299 C297 1.364 . S
C299 C300 1.374 1_565 S
C300 H291 0.930 . S
C300 C299 1.374 1_545 S
C300 C301 1.383 . S
C301 O295 1.412 . S
C301 C300 1.383 . S
C301 C302 1.394 1_545 S
C302 H292 0.929 . S
C302 C298 1.377 . S
C302 C301 1.394 1_565 S
H303 C310 0.929 . S
H304 C313 0.930 . S
H305 C315 0.929 1_556 S
H306 C307 0.969 . S
C307 H306 0.969 . S
C307 O308 1.550 . S
C307 H309 0.973 . S
O308 C307 1.550 . S
O308 C314 1.412 . S
H309 C307 0.973 . S
C310 H303 0.929 . S
C310 C311 1.400 . S
C310 C312 1.364 1_545 S
C311 C310 1.400 . S
C311 C315 1.377 1_545 S
C312 C310 1.364 1_565 S
C312 C313 1.374 . S
C313 H304 0.930 . S
C313 C312 1.374 . S
C313 C314 1.383 . S
C314 O308 1.412 . S
C314 C313 1.383 . S
C314 C315 1.394 . S
C315 H305 0.929 1_554 S
C315 C311 1.377 1_565 S
C315 C314 1.394 . S
H316 C323 0.929 . S
H317 C326 0.930 . S
H318 C328 0.929 . S
H319 C320 0.969 . S
C320 H319 0.969 . S
C320 O321 1.550 . S
C320 H322 0.973 . S
O321 C320 1.550 . S
O321 C327 1.412 . S
H322 C320 0.973 . S
C323 H316 0.929 . S
C323 C324 1.400 . S
C323 C325 1.364 . S
C324 C323 1.400 . S
C324 C328 1.377 . S
C325 C323 1.364 . S
C325 C326 1.374 . S
C326 H317 0.930 . S
C326 C325 1.374 . S
C326 C327 1.383 . S
C327 O321 1.412 . S
C327 C326 1.383 . S
C327 C328 1.394 . S
C328 H318 0.929 . S
C328 C324 1.377 . S
C328 C327 1.394 . S
H329 C336 0.929 . S
H330 C339 0.930 . S
H331 C341 0.929 1_655 S
H332 C333 0.969 . S
C333 H332 0.969 . S
C333 O334 1.550 . S
C333 H335 0.973 . S
O334 C333 1.550 . S
O334 C340 1.412 . S
H335 C333 0.973 . S
C336 H329 0.929 . S
C336 C337 1.400 . S
C336 C338 1.364 1_554 S
C337 C336 1.400 . S
C337 C341 1.377 1_554 S
C338 C336 1.364 1_556 S
C338 C339 1.374 . S
C339 H330 0.930 . S
C339 C338 1.374 . S
C339 C340 1.383 . S
C340 O334 1.412 . S
C340 C339 1.383 . S
C340 C341 1.394 . S
C341 H331 0.929 1_455 S
C341 C337 1.377 1_556 S
C341 C340 1.394 . S
H342 C349 0.929 . S
H343 C352 0.930 . S
H344 C354 0.929 1_455 S
H345 C346 0.969 . S
C346 H345 0.969 . S
C346 O347 1.550 . S
C346 H348 0.973 . S
O347 C346 1.550 . S
O347 C353 1.412 . S
H348 C346 0.973 . S
C349 H342 0.929 . S
C349 C350 1.400 . S
C349 C351 1.364 . S
C350 C349 1.400 . S
C350 C354 1.377 . S
C351 C349 1.364 . S
C351 C352 1.374 . S
C352 H343 0.930 . S
C352 C351 1.374 . S
C352 C353 1.383 . S
C353 O347 1.412 . S
C353 C352 1.383 . S
C353 C354 1.394 . S
C354 H344 0.929 1_655 S
C354 C350 1.377 . S
C354 C353 1.394 . S
H355 C362 0.929 . S
H356 C365 0.930 . S
H357 C367 0.929 . S
H358 C359 0.969 . S
C359 H358 0.969 . S
C359 O360 1.550 . S
C359 H361 0.973 . S
O360 C359 1.550 . S
O360 C366 1.412 . S
H361 C359 0.973 . S
C362 H355 0.929 . S
C362 C363 1.400 . S
C362 C364 1.364 . S
C363 C362 1.400 . S
C363 C367 1.377 . S
C364 C362 1.364 . S
C364 C365 1.374 1_556 S
C365 H356 0.930 . S
C365 C364 1.374 1_554 S
C365 C366 1.383 . S
C366 O360 1.412 . S
C366 C365 1.383 . S
C366 C367 1.394 1_554 S
C367 H357 0.929 . S
C367 C363 1.377 . S
C367 C366 1.394 1_556 S
H368 C375 0.929 . S
H369 C378 0.930 . S
H370 C380 0.929 . S
H371 C372 0.969 . S
C372 H371 0.969 . S
C372 O373 1.550 . S
C372 H374 0.973 . S
O373 C372 1.550 . S
O373 C379 1.412 . S
H374 C372 0.973 . S
C375 H368 0.929 . S
C375 C376 1.400 . S
C375 C377 1.364 . S
C376 C375 1.400 . S
C376 C380 1.377 . S
C377 C375 1.364 . S
C377 C378 1.374 . S
C378 H369 0.930 . S
C378 C377 1.374 . S
C378 C379 1.383 . S
C379 O373 1.412 . S
C379 C378 1.383 . S
C379 C380 1.394 . S
C380 H370 0.929 . S
C380 C376 1.377 . S
C380 C379 1.394 . S
H381 C388 0.929 . S
H382 C391 0.930 . S
H383 C393 0.929 1_565 S
H384 C385 0.969 . S
C385 H384 0.969 . S
C385 O386 1.550 . S
C385 H387 0.973 . S
O386 C385 1.550 . S
O386 C392 1.412 . S
H387 C385 0.973 . S
C388 H381 0.929 . S
C388 C389 1.400 . S
C388 C390 1.364 1_455 S
C389 C388 1.400 . S
C389 C393 1.377 1_455 S
C390 C388 1.364 1_655 S
C390 C391 1.374 . S
C391 H382 0.930 . S
C391 C390 1.374 . S
C391 C392 1.383 . S
C392 O386 1.412 . S
C392 C391 1.383 . S
C392 C393 1.394 . S
C393 H383 0.929 1_545 S
C393 C389 1.377 1_655 S
C393 C392 1.394 . S
H394 C401 0.929 . S
H395 C404 0.930 . S
H396 C406 0.929 1_545 S
H397 C398 0.969 . S
C398 H397 0.969 . S
C398 O399 1.550 . S
C398 H400 0.973 . S
O399 C398 1.550 . S
O399 C405 1.412 . S
H400 C398 0.973 . S
C401 H394 0.929 . S
C401 C402 1.400 . S
C401 C403 1.364 . S
C402 C401 1.400 . S
C402 C406 1.377 . S
C403 C401 1.364 . S
C403 C404 1.374 . S
C404 H395 0.930 . S
C404 C403 1.374 . S
C404 C405 1.383 . S
C405 O399 1.412 . S
C405 C404 1.383 . S
C405 C406 1.394 . S
C406 H396 0.929 1_565 S
C406 C402 1.377 . S
C406 C405 1.394 . S
H407 C414 0.929 . S
H408 C417 0.930 . S
H409 C419 0.929 . S
H410 C411 0.969 . S
C411 H410 0.969 . S
C411 O412 1.550 . S
C411 H413 0.973 . S
O412 C411 1.550 . S
O412 C418 1.412 . S
H413 C411 0.973 . S
C414 H407 0.929 . S
C414 C415 1.400 . S
C414 C416 1.364 . S
C415 C414 1.400 . S
C415 C419 1.377 . S
C416 C414 1.364 . S
C416 C417 1.374 1_655 S
C417 H408 0.930 . S
C417 C416 1.374 1_455 S
C417 C418 1.383 . S
C418 O412 1.412 . S
C418 C417 1.383 . S
C418 C419 1.394 1_455 S
C419 H409 0.929 . S
C419 C415 1.377 . S
C419 C418 1.394 1_655 S
H420 C427 0.929 . S
H421 C430 0.930 . S
H422 C432 0.929 . S
H423 C424 0.969 . S
C424 H423 0.969 . S
C424 O425 1.550 . S
C424 H426 0.973 . S
O425 C424 1.550 . S
O425 C431 1.412 . S
H426 C424 0.973 . S
C427 H420 0.929 . S
C427 C428 1.400 . S
C427 C429 1.364 . S
C428 C427 1.400 . S
C428 C432 1.377 . S
C429 C427 1.364 . S
C429 C430 1.374 . S
C430 H421 0.930 . S
C430 C429 1.374 . S
C430 C431 1.383 . S
C431 O425 1.412 . S
C431 C430 1.383 . S
C431 C432 1.394 . S
C432 H422 0.929 . S
C432 C428 1.377 . S
C432 C431 1.394 . S
H433 C440 0.929 . S
H434 C443 0.930 . S
H435 C445 0.929 1_556 S
H436 C437 0.969 . S
C437 H436 0.969 . S
C437 O438 1.550 . S
C437 H439 0.973 . S
O438 C437 1.550 . S
O438 C444 1.412 . S
H439 C437 0.973 . S
C440 H433 0.929 . S
C440 C441 1.400 . S
C440 C442 1.364 . S
C441 C440 1.400 . S
C441 C445 1.377 . S
C442 C440 1.364 . S
C442 C443 1.374 . S
C443 H434 0.930 . S
C443 C442 1.374 . S
C443 C444 1.383 . S
C444 O438 1.412 . S
C444 C443 1.383 . S
C444 C445 1.394 . S
C445 H435 0.929 1_554 S
C445 C441 1.377 . S
C445 C444 1.394 . S
H446 C453 0.929 . S
H447 C456 0.930 . S
H448 C458 0.929 . S
H449 C450 0.969 . S
C450 H449 0.969 . S
C450 O451 1.550 . S
C450 H452 0.973 . S
O451 C450 1.550 . S
O451 C457 1.412 . S
H452 C450 0.973 . S
C453 H446 0.929 . S
C453 C454 1.400 . S
C453 C455 1.364 . S
C454 C453 1.400 . S
C454 C458 1.377 . S
C455 C453 1.364 . S
C455 C456 1.374 1_545 S
C456 H447 0.930 . S
C456 C455 1.374 1_565 S
C456 C457 1.383 . S
C457 O451 1.412 . S
C457 C456 1.383 . S
C457 C458 1.394 1_565 S
C458 H448 0.929 . S
C458 C454 1.377 . S
C458 C457 1.394 1_545 S
H459 C466 0.929 . S
H460 C469 0.930 . S
H461 C471 0.928 1_564 S
H462 C463 0.969 . S
C463 H462 0.969 . S
C463 O464 1.550 . S
C463 H465 0.973 . S
O464 C463 1.550 . S
O464 C470 1.412 . S
H465 C463 0.973 . S
C466 H459 0.929 . S
C466 C467 1.400 . S
C466 C468 1.364 1_565 S
C467 C466 1.400 . S
C467 C471 1.377 1_565 S
C468 C466 1.364 1_545 S
C468 C469 1.374 . S
C469 H460 0.930 . S
C469 C468 1.374 . S
C469 C470 1.383 . S
C470 O464 1.412 . S
C470 C469 1.383 . S
C470 C471 1.394 . S
C471 H461 0.928 1_546 S
C471 C467 1.377 1_545 S
C471 C470 1.394 . S
H472 C479 0.929 . S
H473 C482 0.930 . S
H474 C484 0.929 . S
H475 C476 0.969 . S
C476 H475 0.969 . S
C476 O477 1.550 . S
C476 H478 0.973 . S
O477 C476 1.550 . S
O477 C483 1.412 . S
H478 C476 0.973 . S
C479 H472 0.929 . S
C479 C480 1.400 . S
C479 C481 1.364 . S
C480 C479 1.400 . S
C480 C484 1.377 . S
C481 C479 1.364 . S
C481 C482 1.374 . S
C482 H473 0.930 . S
C482 C481 1.374 . S
C482 C483 1.383 . S
C483 O477 1.412 . S
C483 C482 1.383 . S
C483 C484 1.394 . S
C484 H474 0.929 . S
C484 C480 1.377 . S
C484 C483 1.394 . S
H485 C492 0.929 . S
H486 C495 0.930 . S
H487 C497 0.928 1_456 S
H488 C489 0.969 . S
C489 H488 0.969 . S
C489 O490 1.550 . S
C489 H491 0.973 . S
O490 C489 1.550 . S
O490 C496 1.412 . S
H491 C489 0.973 . S
C492 H485 0.929 . S
C492 C493 1.400 . S
C492 C494 1.364 1_556 S
C493 C492 1.400 . S
C493 C497 1.377 1_556 S
C494 C492 1.364 1_554 S
C494 C495 1.374 . S
C495 H486 0.930 . S
C495 C494 1.374 . S
C495 C496 1.383 . S
C496 O490 1.412 . S
C496 C495 1.383 . S
C496 C497 1.394 . S
C497 H487 0.928 1_654 S
C497 C493 1.377 1_554 S
C497 C496 1.394 . S
H498 C505 0.929 . S
H499 C508 0.930 . S
H500 C510 0.929 1_655 S
H501 C502 0.969 . S
C502 H501 0.969 . S
C502 O503 1.550 . S
C502 H504 0.973 . S
O503 C502 1.550 . S
O503 C509 1.412 . S
H504 C502 0.973 . S
C505 H498 0.929 . S
C505 C506 1.400 . S
C505 C507 1.364 . S
C506 C505 1.400 . S
C506 C510 1.377 . S
C507 C505 1.364 . S
C507 C508 1.374 . S
C508 H499 0.930 . S
C508 C507 1.374 . S
C508 C509 1.383 . S
C509 O503 1.412 . S
C509 C508 1.383 . S
C509 C510 1.394 . S
C510 H500 0.929 1_455 S
C510 C506 1.377 . S
C510 C509 1.394 . S
H511 C518 0.929 . S
H512 C521 0.930 . S
H513 C523 0.929 . S
H514 C515 0.969 . S
C515 H514 0.969 . S
C515 O516 1.550 . S
C515 H517 0.973 . S
O516 C515 1.550 . S
O516 C522 1.412 . S
H517 C515 0.973 . S
C518 H511 0.929 . S
C518 C519 1.400 . S
C518 C520 1.364 . S
C519 C518 1.400 . S
C519 C523 1.377 . S
C520 C518 1.364 . S
C520 C521 1.374 1_554 S
C521 H512 0.930 . S
C521 C520 1.374 1_556 S
C521 C522 1.383 . S
C522 O516 1.412 . S
C522 C521 1.383 . S
C522 C523 1.394 1_556 S
C523 H513 0.929 . S
C523 C519 1.377 . S
C523 C522 1.394 1_554 S
H524 C531 0.929 . S
H525 C534 0.930 . S
H526 C536 0.929 . S
H527 C528 0.969 . S
C528 H527 0.969 . S
C528 O529 1.550 . S
C528 H530 0.973 . S
O529 C528 1.550 . S
O529 C535 1.412 . S
H530 C528 0.973 . S
C531 H524 0.929 . S
C531 C532 1.400 . S
C531 C533 1.364 . S
C532 C531 1.400 . S
C532 C536 1.377 . S
C533 C531 1.364 . S
C533 C534 1.374 . S
C534 H525 0.930 . S
C534 C533 1.374 . S
C534 C535 1.383 . S
C535 O529 1.412 . S
C535 C534 1.383 . S
C535 C536 1.394 . S
C536 H526 0.929 . S
C536 C532 1.377 . S
C536 C535 1.394 . S
H537 C544 0.929 . S
H538 C547 0.930 . S
H539 C549 0.928 1_645 S
H540 C541 0.969 . S
C541 H540 0.969 . S
C541 O542 1.550 . S
C541 H543 0.973 . S
O542 C541 1.550 . S
O542 C548 1.412 . S
H543 C541 0.973 . S
C544 H537 0.929 . S
C544 C545 1.400 . S
C544 C546 1.364 1_655 S
C545 C544 1.400 . S
C545 C549 1.377 1_655 S
C546 C544 1.364 1_455 S
C546 C547 1.374 . S
C547 H538 0.930 . S
C547 C546 1.374 . S
C547 C548 1.383 . S
C548 O542 1.412 . S
C548 C547 1.383 . S
C548 C549 1.394 . S
C549 H539 0.928 1_465 S
C549 C545 1.377 1_455 S
C549 C548 1.394 . S
H550 C557 0.929 . S
H551 C560 0.930 . S
H552 C562 0.929 1_565 S
H553 C554 0.969 . S
C554 H553 0.969 . S
C554 O555 1.550 . S
C554 H556 0.973 . S
O555 C554 1.550 . S
O555 C561 1.412 . S
H556 C554 0.973 . S
C557 H550 0.929 . S
C557 C558 1.400 . S
C557 C559 1.364 . S
C558 C557 1.400 . S
C558 C562 1.377 . S
C559 C557 1.364 . S
C559 C560 1.374 . S
C560 H551 0.930 . S
C560 C559 1.374 . S
C560 C561 1.383 . S
C561 O555 1.412 . S
C561 C560 1.383 . S
C561 C562 1.394 . S
C562 H552 0.929 1_545 S
C562 C558 1.377 . S
C562 C561 1.394 . S
H563 C570 0.929 . S
H564 C573 0.930 . S
H565 C575 0.929 . S
H566 C567 0.969 . S
C567 H566 0.969 . S
C567 O568 1.550 . S
C567 H569 0.973 . S
O568 C567 1.550 . S
O568 C574 1.412 . S
H569 C567 0.973 . S
C570 H563 0.929 . S
C570 C571 1.400 . S
C570 C572 1.364 . S
C571 C570 1.400 . S
C571 C575 1.377 . S
C572 C570 1.364 . S
C572 C573 1.374 1_455 S
C573 H564 0.930 . S
C573 C572 1.374 1_655 S
C573 C574 1.383 . S
C574 O568 1.412 . S
C574 C573 1.383 . S
C574 C575 1.394 1_655 S
C575 H565 0.929 . S
C575 C571 1.377 . S
C575 C574 1.394 1_455 S
C571 C8 1.778 . S
C532 C19 1.945 . S
C558 C30 1.570 . S
C545 C41 1.916 . S
C454 C52 1.778 . S
C63 C467 1.916 . S
C428 C74 1.945 . S
C85 C441 1.570 . S
C519 C96 1.778 . S
C107 C493 1.916 . S
C118 C480 1.945 . S
C506 C129 1.570 . S
C415 C140 1.608 . S
C151 C376 1.728 . S
C402 C162 1.403 . S
C173 C389 1.715 . S
C298 C184 1.608 . S
C311 C195 1.715 . S
C206 C272 1.728 . S
C217 C285 1.403 . S
C228 C363 1.608 . S
C239 C337 1.715 . S
C324 C250 1.728 . S
C261 C350 1.403 . S
C273 C7 1.637 . S
C286 C18 1.786 . S
C29 C299 1.531 . S
C40 C312 1.488 1_545 S
C325 C51 1.637 . S
C62 C338 1.488 1_554 S
C351 C73 1.786 . S
C364 C84 1.531 . S
C377 C95 1.637 . S
C106 C390 1.488 1_455 S
C117 C403 1.786 . S
C128 C416 1.531 . S
C139 C429 1.382 . S
C150 C442 1.411 . S
C161 C455 1.334 . S
C172 C468 1.261 1_565 S
C183 C481 1.382 . S
C494 C194 1.261 1_554 S
C507 C205 1.411 . S
C520 C216 1.334 . S
C533 C227 1.382 . S
C238 C546 1.261 1_655 S
C249 C559 1.411 . S
C260 C572 1.334 . S
C5 C372 1.687 . S
C411 C16 1.843 . S
C27 C385 1.569 1_565 S
C398 C38 1.992 1_565 S
C49 C268 1.687 . S
C60 C281 1.992 1_554 S
C71 C294 1.843 . S
C82 C307 1.569 1_556 S
C320 C93 1.687 . S
C346 C104 1.992 1_655 S
C115 C359 1.843 . S
C126 C333 1.569 1_655 S
C528 C137 0.893 . S
C567 C148 0.912 . S
C159 C541 0.871 . S
C554 C170 1.002 . S
C181 C424 0.893 . S
C192 C437 1.002 . S
C203 C450 0.912 . S
C463 C214 0.871 . S
C476 C225 0.893 . S
C502 C236 1.002 . S
C247 C515 0.912 . S
C489 C258 0.871 . S
