# Generated by pormake.
# Topology the, (3,8)-cn, num edge types: 1
# Building blocks:
#     Node 0, Type 0, BuildingBlock: QEWDON_clean_linker_0, # of connection points: 3
#     Node 1, Type 0, BuildingBlock: QEWDON_clean_linker_0, # of connection points: 3
#     Node 2, Type 0, BuildingBlock: QEWDON_clean_linker_0, # of connection points: 3
#     Node 3, Type 0, BuildingBlock: QEWDON_clean_linker_0, # of connection points: 3
#     Node 4, Type 0, BuildingBlock: QEWDON_clean_linker_0, # of connection points: 3
#     Node 5, Type 0, BuildingBlock: QEWDON_clean_linker_0, # of connection points: 3
#     Node 6, Type 0, BuildingBlock: QEWDON_clean_linker_0, # of connection points: 3
#     Node 7, Type 0, BuildingBlock: QEWDON_clean_linker_0, # of connection points: 3
#     Node 8, Type 1, BuildingBlock: GIZVER_clean_sbu_0, # of connection points: 8
#     Node 9, Type 1, BuildingBlock: GIZVER_clean_sbu_0, # of connection points: 8
#     Node 10, Type 1, BuildingBlock: GIZVER_clean_sbu_0, # of connection points: 8
#     Edge 11, Type (0, 1), BuildingBlock: UVAHIK_clean_linker_0, # of connection points: 2
#     Edge 12, Type (0, 1), BuildingBlock: UVAHIK_clean_linker_0, # of connection points: 2
#     Edge 13, Type (0, 1), BuildingBlock: UVAHIK_clean_linker_0, # of connection points: 2
#     Edge 14, Type (0, 1), BuildingBlock: UVAHIK_clean_linker_0, # of connection points: 2
#     Edge 15, Type (0, 1), BuildingBlock: UVAHIK_clean_linker_0, # of connection points: 2
#     Edge 16, Type (0, 1), BuildingBlock: UVAHIK_clean_linker_0, # of connection points: 2
#     Edge 17, Type (0, 1), BuildingBlock: UVAHIK_clean_linker_0, # of connection points: 2
#     Edge 18, Type (0, 1), BuildingBlock: UVAHIK_clean_linker_0, # of connection points: 2
#     Edge 19, Type (0, 1), BuildingBlock: UVAHIK_clean_linker_0, # of connection points: 2
#     Edge 20, Type (0, 1), BuildingBlock: UVAHIK_clean_linker_0, # of connection points: 2
#     Edge 21, Type (0, 1), BuildingBlock: UVAHIK_clean_linker_0, # of connection points: 2
#     Edge 22, Type (0, 1), BuildingBlock: UVAHIK_clean_linker_0, # of connection points: 2
#     Edge 23, Type (0, 1), BuildingBlock: UVAHIK_clean_linker_0, # of connection points: 2
#     Edge 24, Type (0, 1), BuildingBlock: UVAHIK_clean_linker_0, # of connection points: 2
#     Edge 25, Type (0, 1), BuildingBlock: UVAHIK_clean_linker_0, # of connection points: 2
#     Edge 26, Type (0, 1), BuildingBlock: UVAHIK_clean_linker_0, # of connection points: 2
#     Edge 27, Type (0, 1), BuildingBlock: UVAHIK_clean_linker_0, # of connection points: 2
#     Edge 28, Type (0, 1), BuildingBlock: UVAHIK_clean_linker_0, # of connection points: 2
#     Edge 29, Type (0, 1), BuildingBlock: UVAHIK_clean_linker_0, # of connection points: 2
#     Edge 30, Type (0, 1), BuildingBlock: UVAHIK_clean_linker_0, # of connection points: 2
#     Edge 31, Type (0, 1), BuildingBlock: UVAHIK_clean_linker_0, # of connection points: 2
#     Edge 32, Type (0, 1), BuildingBlock: UVAHIK_clean_linker_0, # of connection points: 2
#     Edge 33, Type (0, 1), BuildingBlock: UVAHIK_clean_linker_0, # of connection points: 2
#     Edge 34, Type (0, 1), BuildingBlock: UVAHIK_clean_linker_0, # of connection points: 2
# Relax obj value: 0.102
# Max RMSD: 0.269
# Mean RMSD: 0.190
data_MOF--net-the--node1-GIZVER_clean_sbu_0--node2-QEWDON_clean_linker_0--edge1-UVAHIK_clean_linker_0
_symmetry_space_group_name_H-M    P1
_symmetry_Int_Tables_number       1
_symmetry_cell_setting            triclinic
loop_
_symmetry_equiv_pos_as_xyz
'x, y, z'
_cell_length_a     52.384548
_cell_length_b     49.453742
_cell_length_c     47.791673
_cell_angle_alpha  87.209742
_cell_angle_beta   93.975277
_cell_angle_gamma 109.85197
loop_
_atom_site_label
_atom_site_type_symbol
_atom_site_fract_x
_atom_site_fract_y
_atom_site_fract_z
_atom_type_partial_charge
H0 H 0.35222 0.26161 0.41118 0.0
C1 C 0.36169 0.27705 0.39486 0.0
C2 C 0.38878 0.28173 0.38885 0.0
C3 C 0.34604 0.29083 0.37887 0.0
H4 H 0.4207 0.304 0.36123 0.0
C5 C 0.40003 0.30064 0.36644 0.0
C6 C 0.38436 0.31425 0.34988 0.0
C7 C 0.35741 0.30946 0.35655 0.0
C8 C 0.31671 0.2824 0.383 0.0
H9 H 0.34493 0.31942 0.34379 0.0
C10 C 0.30604 0.3 0.39731 0.0
C11 C 0.27799 0.29093 0.40176 0.0
C12 C 0.29935 0.25597 0.37285 0.0
H13 H 0.30733 0.24221 0.36182 0.0
C14 C 0.27158 0.24715 0.37672 0.0
H15 H 0.31959 0.32023 0.40549 0.0
C16 C 0.26093 0.26444 0.39102 0.0
H17 H 0.23922 0.25712 0.39346 0.0
H18 H 0.25825 0.22682 0.36863 0.0
H19 H 0.76682 0.32817 0.31124 0.0
C20 C 0.76158 0.30518 0.31509 0.0
C21 C 0.78013 0.29414 0.33009 0.0
C22 C 0.73553 0.28687 0.30676 0.0
H23 H 0.78604 0.25583 0.34872 0.0
C24 C 0.77242 0.2644 0.33605 0.0
C25 C 0.74636 0.24592 0.32765 0.0
C26 C 0.72819 0.25731 0.31267 0.0
C27 C 0.71424 0.29883 0.29687 0.0
H28 H 0.70752 0.24351 0.3075 0.0
C29 C 0.71186 0.30793 0.2688 0.0
C30 C 0.68995 0.31708 0.25954 0.0
C31 C 0.69518 0.29967 0.31575 0.0
H32 H 0.69678 0.29267 0.33744 0.0
C33 C 0.67381 0.30931 0.30675 0.0
H34 H 0.72639 0.30696 0.25413 0.0
C35 C 0.67107 0.31781 0.27879 0.0
H36 H 0.65423 0.32509 0.27219 0.0
H37 H 0.65919 0.30993 0.32142 0.0
H38 H 0.7679 0.67477 0.40852 0.0
C39 C 0.76087 0.67205 0.38661 0.0
C40 C 0.77487 0.66165 0.36815 0.0
C41 C 0.73714 0.67773 0.37752 0.0
H42 H 0.77484 0.64759 0.32626 0.0
C43 C 0.76486 0.65709 0.34005 0.0
C44 C 0.74075 0.66228 0.33049 0.0
C45 C 0.72744 0.67333 0.34941 0.0
C46 C 0.72 0.6826 0.39875 0.0
H47 H 0.70872 0.67713 0.34279 0.0
C48 C 0.71662 0.70945 0.4015 0.0
C49 C 0.70158 0.71349 0.42343 0.0
C50 C 0.70769 0.65979 0.4174 0.0
H51 H 0.71005 0.63902 0.41558 0.0
C52 C 0.69231 0.66351 0.43855 0.0
H53 H 0.72635 0.72722 0.38736 0.0
C54 C 0.68933 0.69012 0.44165 0.0
H55 H 0.67724 0.69239 0.4583 0.0
H56 H 0.6828 0.64574 0.45275 0.0
H57 H 0.38424 0.74041 0.29864 0.0
C58 C 0.36583 0.72468 0.30616 0.0
C59 C 0.35857 0.7259 0.3337 0.0
C60 C 0.34965 0.70295 0.28834 0.0
H61 H 0.32853 0.70655 0.36405 0.0
C62 C 0.3347 0.70527 0.3431 0.0
C63 C 0.31797 0.68387 0.3252 0.0
C64 C 0.32569 0.68268 0.29784 0.0
C65 C 0.35734 0.70229 0.25937 0.0
H66 H 0.31297 0.66621 0.28387 0.0
C67 C 0.36817 0.68151 0.2516 0.0
C68 C 0.37698 0.68209 0.22431 0.0
C69 C 0.35477 0.72327 0.23966 0.0
H70 H 0.34652 0.73945 0.24539 0.0
C71 C 0.36281 0.7235 0.21241 0.0
H72 H 0.37066 0.66569 0.26707 0.0
C73 C 0.37393 0.70316 0.20476 0.0
H74 H 0.38014 0.70389 0.1835 0.0
H75 H 0.36064 0.73966 0.19722 0.0
H76 H 0.41075 0.72251 0.74626 0.0
C77 C 0.38899 0.71452 0.74151 0.0
C78 C 0.37531 0.73366 0.73214 0.0
C79 C 0.37516 0.68471 0.7422 0.0
H80 H 0.33642 0.73706 0.71799 0.0
C81 C 0.34727 0.72254 0.72479 0.0
C82 C 0.33335 0.69277 0.72472 0.0
C83 C 0.34742 0.67407 0.73388 0.0
C84 C 0.3902 0.66435 0.74812 0.0
H85 H 0.33719 0.65101 0.73315 0.0
C86 C 0.40671 0.66578 0.7729 0.0
C87 C 0.42053 0.64592 0.77827 0.0
C88 C 0.38784 0.64312 0.72864 0.0
H89 H 0.37545 0.64178 0.70929 0.0
C90 C 0.4016 0.62358 0.73378 0.0
H91 H 0.40864 0.68215 0.78797 0.0
C92 C 0.41777 0.62486 0.75842 0.0
H93 H 0.4278 0.60903 0.76214 0.0
H94 H 0.3996 0.60726 0.71868 0.0
H95 H 0.36771 0.31713 0.74495 0.0
C96 C 0.37694 0.30467 0.73364 0.0
C97 C 0.40392 0.30632 0.7408 0.0
C98 C 0.3611 0.28532 0.71355 0.0
H99 H 0.43582 0.28975 0.7327 0.0
C100 C 0.41517 0.28884 0.72694 0.0
C101 C 0.39964 0.26965 0.70632 0.0
C102 C 0.37256 0.2681 0.69989 0.0
C103 C 0.33142 0.27928 0.71034 0.0
H104 H 0.36007 0.25307 0.68454 0.0
C105 C 0.32 0.2976 0.69452 0.0
C106 C 0.29144 0.29045 0.69126 0.0
C107 C 0.31433 0.25419 0.72319 0.0
H108 H 0.32281 0.2399 0.73542 0.0
C109 C 0.28624 0.24739 0.72057 0.0
H110 H 0.33322 0.31677 0.68427 0.0
C111 C 0.27485 0.26531 0.7048 0.0
H112 H 0.25293 0.25953 0.70339 0.0
H113 H 0.27321 0.22811 0.73077 0.0
H114 H 0.83365 0.32885 0.77788 0.0
C115 C 0.82053 0.31203 0.7645 0.0
C116 C 0.82599 0.31175 0.73619 0.0
C117 C 0.79799 0.29079 0.77556 0.0
H118 H 0.81263 0.28989 0.69708 0.0
C119 C 0.80841 0.29028 0.71892 0.0
C120 C 0.78585 0.26884 0.72979 0.0
C121 C 0.78096 0.26904 0.75829 0.0
C122 C 0.79146 0.29192 0.8049 0.0
H123 H 0.76333 0.25291 0.76683 0.0
C124 C 0.78355 0.31457 0.81332 0.0
C125 C 0.77577 0.31506 0.84084 0.0
C126 C 0.79202 0.26984 0.82421 0.0
H127 H 0.79792 0.25213 0.81796 0.0
C128 C 0.78502 0.27056 0.85175 0.0
H129 H 0.783 0.3315 0.79824 0.0
C130 C 0.77687 0.29295 0.86006 0.0
H131 H 0.77074 0.29251 0.8813 0.0
H132 H 0.78552 0.25349 0.86661 0.0
H133 H 0.82332 0.70644 0.63562 0.0
C134 C 0.81223 0.69663 0.65393 0.0
C135 C 0.81287 0.66983 0.66431 0.0
C136 C 0.79778 0.71119 0.667 0.0
H137 H 0.79893 0.63672 0.69636 0.0
C138 C 0.79801 0.65707 0.68774 0.0
C139 C 0.78348 0.67148 0.70126 0.0
C140 C 0.78328 0.69847 0.69059 0.0
C141 C 0.79967 0.74053 0.65678 0.0
H142 H 0.77247 0.70991 0.70106 0.0
C143 C 0.77622 0.7478 0.6497 0.0
C144 C 0.77857 0.7751 0.63774 0.0
C145 C 0.82542 0.76112 0.65275 0.0
H146 H 0.84375 0.75609 0.65826 0.0
C147 C 0.82779 0.78833 0.64152 0.0
H148 H 0.75629 0.73194 0.65243 0.0
C149 C 0.80457 0.79527 0.6339 0.0
H150 H 0.80694 0.81657 0.62519 0.0
H151 H 0.84771 0.80405 0.63855 0.0
Co152 Co 0.11156 0.47929 0.53974 0.0
Co153 Co 0.08068 0.45985 0.49472 0.0
Co154 Co 0.05921 0.5047 0.51979 0.0
O155 O 0.07387 0.47254 0.5284 0.0
H156 H 0.06161 0.45683 0.53885 0.0
O157 O 0.04414 0.53674 0.51142 0.0
Co158 Co 1.00572 0.52875 0.50228 0.0
Co159 Co 0.03863 0.54963 0.546 0.0
H160 H 0.05574 0.55226 0.5002 0.0
O161 O 0.08522 0.42458 0.49182 0.0
O162 O 0.11761 0.46684 0.50245 0.0
O163 O 0.07736 0.48201 0.46126 0.0
O164 O 0.08212 0.52018 0.48631 0.0
O165 O 0.02969 0.47856 0.49524 0.0
O166 O 0.97126 0.52475 0.49272 0.0
O167 O 1.00821 0.56433 0.48812 0.0
O168 O 0.99806 0.49011 0.51453 0.0
O169 O 0.03669 0.48941 0.55347 0.0
O170 O 0.04415 0.52778 0.5791 0.0
O171 O 1.00112 0.53975 0.54042 0.0
O172 O 0.03087 0.5834 0.55052 0.0
C173 C 0.13346 0.45556 0.5595 0.0
C174 C 0.11384 0.53481 0.54176 0.0
C175 C 0.08449 0.50905 0.46343 0.0
C176 C 0.11071 0.43991 0.49592 0.0
C177 C 0.98193 0.55156 0.48478 0.0
C178 C 1.00467 0.4739 0.49876 0.0
C179 C 0.03643 0.5007 0.57691 0.0
C180 C 1.00595 0.56603 0.54786 0.0
O181 O 0.14537 0.48226 0.55178 0.0
O182 O 0.10725 0.44368 0.5545 0.0
O183 O 0.08875 0.53073 0.54424 0.0
O184 O 0.12077 0.51804 0.52692 0.0
Co185 Co 0.57494 0.94839 0.52565 0.0
Co186 Co 0.59301 0.97707 0.57128 0.0
Co187 Co 0.55364 0.00477 0.53782 0.0
O188 O 0.5829 0.98751 0.53576 0.0
H189 H 0.59866 1.00041 0.52692 0.0
O190 O 0.52484 0.02288 0.53977 0.0
Co191 Co 0.53415 0.06242 0.5508 0.0
Co192 Co 0.51529 0.03516 0.50443 0.0
H193 H 0.5089 0.01017 0.54855 0.0
O194 O 0.62602 0.97204 0.57943 0.0
O195 O 0.58677 0.93865 0.56423 0.0
O196 O 0.5712 0.97907 0.60127 0.0
O197 O 0.53697 0.981 0.57193 0.0
O198 O 0.57917 0.03453 0.5625 0.0
O199 O 0.53961 0.0977 0.56236 0.0
O200 O 0.50116 0.05935 0.56307 0.0
O201 O 0.57044 0.0709 0.54062 0.0
O202 O 0.5704 0.02811 0.50372 0.0
O203 O 0.53744 0.03373 0.47447 0.0
O204 O 0.52347 0.07364 0.51252 0.0
O205 O 0.48314 0.04301 0.49658 0.0
C206 C 0.59559 0.92517 0.50825 0.0
C207 C 0.52327 0.94765 0.51863 0.0
C208 C 0.54628 0.97593 0.59637 0.0
C209 C 0.61201 0.94545 0.57389 0.0
C210 C 0.51434 0.08632 0.56867 0.0
C211 C 0.58575 0.06138 0.55705 0.0
C212 C 0.56173 0.03431 0.47942 0.0
C213 C 0.49857 0.06897 0.50272 0.0
O214 O 0.57042 0.91309 0.51475 0.0
O215 O 0.60802 0.95238 0.5133 0.0
O216 O 0.52828 0.97443 0.51321 0.0
O217 O 0.53884 0.93956 0.53612 0.0
Co218 Co 0.54182 0.50463 0.08272 0.0
Co219 Co 0.52704 0.45619 0.05639 0.0
Co220 Co 0.57557 0.50455 0.02485 0.0
O221 O 0.54094 0.49468 0.04446 0.0
H222 H 0.52718 0.4997 0.03302 0.0
O223 O 0.61032 0.51441 1.00567 0.0
Co224 Co 0.61064 0.5016 0.96891 0.0
Co225 Co 0.62379 0.5516 0.99108 0.0
H226 H 0.62427 0.51083 0.01805 0.0
O227 O 0.49138 0.43768 0.06891 0.0
O228 O 0.52814 0.46377 0.09432 0.0
O229 O 0.55126 0.43489 0.05284 0.0
O230 O 0.58763 0.4737 0.04527 0.0
O231 O 0.55495 0.47628 0.9953 0.0
O232 O 0.61423 0.48846 0.93587 0.0
O233 O 0.64373 0.49836 0.97367 0.0
O234 O 0.57538 0.50275 0.95964 0.0
O235 O 0.56338 0.53525 1.00403 0.0
O236 O 0.59906 0.5726 0.99085 0.0
O237 O 0.62568 0.54166 0.95435 0.0
O238 O 0.66003 0.56995 0.98155 0.0
C239 C 0.51578 0.51511 0.10664 0.0
C240 C 0.59683 0.52489 0.0803 0.0
C241 C 0.57682 0.44696 0.05175 0.0
C242 C 0.50299 0.44706 0.09308 0.0
C243 C 0.63716 0.48854 0.94839 0.0
C244 C 0.55539 0.48262 0.9691 0.0
C245 C 0.57376 0.56094 0.99405 0.0
C246 C 0.65061 0.55902 0.95725 0.0
O247 O 0.53924 0.51484 0.11739 0.0
O248 O 0.50833 0.50722 0.08084 0.0
O249 O 0.5963 0.53271 0.0545 0.0
O250 O 0.57742 0.50385 0.08938 0.0
C251 C 0.24555 0.29521 0.43604 0.0
C252 C 0.2661 0.30865 0.41746 0.0
C253 C 0.23188 0.31094 0.44833 0.0
C254 C 0.23288 0.38276 0.46583 0.0
H255 H 0.15463 0.34869 0.4544 0.0
C256 C 0.15782 0.44312 0.48494 0.0
C257 C 0.13167 0.42658 0.49294 0.0
C258 C 0.17645 0.42976 0.47899 0.0
C259 C 0.17638 0.35834 0.45838 0.0
H260 H 0.28949 0.3496 0.39862 0.0
H261 H 0.26564 0.37727 0.42055 0.0
H262 H 0.18358 0.32395 0.43864 0.0
H263 H 0.1053 0.38352 0.50347 0.0
H264 H 0.13797 0.36038 0.49443 0.0
H265 H 0.22558 0.41708 0.48594 0.0
C266 C 0.26015 0.35445 0.42538 0.0
C267 C 0.193 0.34416 0.44915 0.0
C268 C 0.2738 0.33861 0.41286 0.0
C269 C 0.1251 0.39673 0.49669 0.0
C270 C 0.14383 0.38347 0.49133 0.0
C271 C 0.21616 0.39688 0.47546 0.0
C272 C 0.23853 0.34056 0.44259 0.0
C273 C 0.22139 0.35613 0.45279 0.0
C274 C 0.1694 0.39963 0.4814 0.0
C275 C 0.18764 0.38477 0.47191 0.0
H276 H 0.23961 0.27232 0.44066 0.0
H277 H 0.21563 0.29978 0.46194 0.0
H278 H 0.25474 0.39242 0.46894 0.0
H279 H 0.16343 0.46622 0.48201 0.0
H280 H 0.19586 0.44295 0.47133 0.0
C281 C 0.73752 0.21047 0.3677 0.0
C282 C 0.73603 0.21592 0.33867 0.0
C283 C 0.72257 0.18371 0.37909 0.0
C284 C 0.69208 0.12409 0.40047 0.0
H285 H 0.61939 0.0941 0.36549 0.0
C286 C 0.60647 0.04107 0.45938 0.0
C287 C 0.58156 0.04609 0.45761 0.0
C288 C 0.62653 0.05497 0.44069 0.0
C289 C 0.63956 0.10222 0.37564 0.0
H290 H 0.71969 0.19715 0.29851 0.0
H291 H 0.69444 0.14982 0.31822 0.0
H292 H 0.65425 0.13147 0.34144 0.0
H293 H 0.55773 0.06876 0.43421 0.0
H294 H 0.59286 0.09383 0.40251 0.0
H295 H 0.67673 0.09676 0.43578 0.0
C296 C 0.70638 0.16647 0.33237 0.0
C297 C 0.65981 0.12339 0.36156 0.0
C298 C 0.72102 0.19345 0.32101 0.0
C299 C 0.57667 0.06432 0.43605 0.0
C300 C 0.59686 0.07858 0.41768 0.0
C301 C 0.67169 0.10331 0.41478 0.0
C302 C 0.70602 0.16162 0.36165 0.0
C303 C 0.68613 0.13535 0.3742 0.0
C304 C 0.6223 0.07459 0.4201 0.0
C305 C 0.64491 0.09282 0.40296 0.0
H306 H 0.74862 0.22755 0.38181 0.0
H307 H 0.72261 0.18115 0.40171 0.0
H308 H 0.71225 0.1322 0.4106 0.0
H309 H 0.61069 0.02683 0.47559 0.0
H310 H 0.64558 0.05081 0.44283 0.0
C311 C 0.8228 0.66153 0.36555 0.0
C312 C 0.79827 0.65289 0.37918 0.0
C313 C 0.84492 0.65381 0.37681 0.0
C314 C 0.87033 0.62608 0.44354 0.0
H315 H 0.91757 0.60656 0.39517 0.0
C316 C 0.93653 0.55784 0.48077 0.0
C317 C 0.96377 0.56734 0.4735 0.0
C318 C 0.91872 0.57169 0.46972 0.0
C319 C 0.90474 0.61232 0.40891 0.0
H320 H 0.77726 0.6283 0.41452 0.0
H321 H 0.81516 0.61416 0.43362 0.0
H322 H 0.88153 0.62348 0.37443 0.0
H323 H 0.99379 0.59901 0.44907 0.0
H324 H 0.96217 0.62285 0.4289 0.0
H325 H 0.89284 0.61366 0.47792 0.0
C326 C 0.81797 0.62784 0.41489 0.0
C327 C 0.88409 0.62208 0.39706 0.0
C328 C 0.79609 0.63581 0.40385 0.0
C329 C 0.9729 0.59124 0.45505 0.0
C330 C 0.95483 0.60477 0.44344 0.0
C331 C 0.89068 0.61597 0.4553 0.0
C332 C 0.84286 0.63698 0.40179 0.0
C333 C 0.86625 0.62863 0.41421 0.0
C334 C 0.92754 0.59508 0.45069 0.0
C335 C 0.90785 0.60857 0.43814 0.0
H336 H 0.82506 0.67475 0.34652 0.0
H337 H 0.86376 0.66147 0.36618 0.0
H338 H 0.85762 0.63167 0.45754 0.0
H339 H 0.9289 0.53961 0.49509 0.0
H340 H 0.89779 0.56362 0.47557 0.0
C341 C 0.38481 0.77785 0.34281 0.0
C342 C 0.37546 0.74905 0.35251 0.0
C343 C 0.39997 0.79974 0.36084 0.0
C344 C 0.4438 0.81294 0.42561 0.0
H345 H 0.42585 0.88262 0.42848 0.0
C346 C 0.49505 0.89658 0.5094 0.0
C347 C 0.50283 0.92578 0.50114 0.0
C348 C 0.47817 0.87541 0.49169 0.0
C349 C 0.43137 0.86347 0.42772 0.0
H350 H 0.37503 0.72055 0.38852 0.0
H351 H 0.40164 0.75875 0.41998 0.0
H352 H 0.3999 0.84505 0.3961 0.0
H353 H 0.49829 0.95573 0.46812 0.0
H354 H 0.46924 0.91872 0.43688 0.0
H355 H 0.47555 0.83133 0.45669 0.0
C356 C 0.39721 0.7644 0.39845 0.0
C357 C 0.41646 0.84194 0.40918 0.0
C358 C 0.38183 0.74257 0.38052 0.0
C359 C 0.49256 0.93342 0.47515 0.0
C360 C 0.47584 0.91217 0.45726 0.0
C361 C 0.45885 0.83451 0.44393 0.0
C362 C 0.40633 0.79323 0.38885 0.0
C363 C 0.42244 0.81638 0.40806 0.0
C364 C 0.46884 0.88284 0.46511 0.0
C365 C 0.45273 0.86 0.44539 0.0
H366 H 0.38001 0.7835 0.32139 0.0
H367 H 0.40691 0.82173 0.3528 0.0
H368 H 0.44916 0.79367 0.4249 0.0
H369 H 0.5024 0.89 0.52943 0.0
H370 H 0.47265 0.85314 0.49878 0.0
C371 C 0.29856 0.69337 0.68614 0.0
C372 C 0.30542 0.68097 0.71141 0.0
C373 C 0.27419 0.67972 0.67092 0.0
C374 C 0.22862 0.60728 0.65781 0.0
H375 H 0.18436 0.6452 0.61469 0.0
C376 C 0.16171 0.55605 0.56149 0.0
C377 C 0.13459 0.55527 0.56023 0.0
C378 C 0.18067 0.57278 0.5812 0.0
C379 C 0.19644 0.63433 0.62677 0.0
H380 H 0.29101 0.64565 0.74154 0.0
H381 H 0.24854 0.62158 0.71465 0.0
H382 H 0.21931 0.67224 0.64931 0.0
H383 H 0.10646 0.57268 0.57775 0.0
H384 H 0.13987 0.60228 0.61199 0.0
H385 H 0.20626 0.5696 0.63495 0.0
C386 C 0.26224 0.64174 0.70657 0.0
C387 C 0.21646 0.64978 0.64646 0.0
C388 C 0.28656 0.6555 0.72191 0.0
C389 C 0.12717 0.5727 0.57825 0.0
C390 C 0.14627 0.58968 0.59782 0.0
C391 C 0.20885 0.59196 0.63798 0.0
C392 C 0.25621 0.65329 0.68051 0.0
C393 C 0.23296 0.63647 0.66194 0.0
C394 C 0.17303 0.58935 0.59988 0.0
C395 C 0.19286 0.60543 0.62196 0.0
H396 H 0.31273 0.71271 0.67715 0.0
H397 H 0.27024 0.68899 0.65078 0.0
H398 H 0.24121 0.59651 0.66915 0.0
H399 H 0.16821 0.54313 0.54778 0.0
H400 H 0.20131 0.57254 0.58202 0.0
C401 C 0.4378 0.26063 0.68319 0.0
C402 C 0.41114 0.25034 0.69229 0.0
C403 C 0.4482 0.2426 0.66936 0.0
C404 C 0.43765 0.16562 0.65801 0.0
H405 H 0.48164 0.19596 0.59426 0.0
C406 C 0.47396 0.09304 0.58955 0.0
C407 C 0.50092 0.10446 0.58145 0.0
C408 C 0.46196 0.11044 0.60221 0.0
C409 C 0.4696 0.18717 0.61219 0.0
H410 H 0.37484 0.21262 0.69461 0.0
H411 H 0.39277 0.18144 0.67019 0.0
H412 H 0.46346 0.22704 0.61855 0.0
H413 H 0.53622 0.14336 0.57997 0.0
H414 H 0.51556 0.17333 0.6021 0.0
H415 H 0.44395 0.12578 0.65172 0.0
C416 C 0.40573 0.20342 0.67381 0.0
C417 C 0.45919 0.20504 0.62616 0.0
C418 C 0.39532 0.22144 0.68755 0.0
C419 C 0.51542 0.13374 0.58594 0.0
C420 C 0.50347 0.15107 0.59849 0.0
C421 C 0.4481 0.14773 0.64403 0.0
C422 C 0.43227 0.21376 0.6644 0.0
C423 C 0.44319 0.19458 0.64937 0.0
C424 C 0.47663 0.1397 0.60693 0.0
C425 C 0.46437 0.15831 0.62104 0.0
H426 H 0.4505 0.28278 0.68634 0.0
H427 H 0.46884 0.25124 0.66274 0.0
H428 H 0.42569 0.15687 0.67599 0.0
H429 H 0.46215 0.07063 0.58627 0.0
H430 H 0.44113 0.10102 0.60812 0.0
C431 C 0.87594 0.33954 0.73814 0.0
C432 C 0.85007 0.33372 0.72451 0.0
C433 C 0.89888 0.35906 0.72616 0.0
C434 C 0.9204 0.42018 0.67626 0.0
H435 H 0.98207 0.39571 0.66622 0.0
C436 C 0.01467 0.49453 0.62294 0.0
C437 C 0.02189 0.48221 0.60014 0.0
C438 C 0.99702 0.47726 0.64235 0.0
C439 C 0.96505 0.40286 0.66905 0.0
H440 H 0.82769 0.34425 0.68826 0.0
H441 H 0.86769 0.37862 0.66749 0.0
H442 H 0.9437 0.36438 0.69203 0.0
H443 H 0.01777 0.44189 0.58107 0.0
H444 H 0.98711 0.41176 0.61515 0.0
H445 H 0.94132 0.4583 0.6528 0.0
C446 C 0.87027 0.36804 0.68734 0.0
C447 C 0.94322 0.38506 0.68393 0.0
C448 C 0.84744 0.34826 0.69909 0.0
C449 C 0.01251 0.45209 0.5983 0.0
C450 C 0.99504 0.4348 0.61788 0.0
C451 C 0.94232 0.43809 0.6617 0.0
C452 C 0.89624 0.37341 0.7006 0.0
C453 C 0.92047 0.39334 0.68721 0.0
C454 C 0.98645 0.44729 0.63957 0.0
C455 C 0.96467 0.42942 0.65754 0.0
H456 H 0.8785 0.32846 0.75768 0.0
H457 H 0.91866 0.36294 0.73686 0.0
H458 H 0.90319 0.42715 0.67866 0.0
H459 H 0.02158 0.51764 0.62511 0.0
H460 H 0.991 0.48741 0.65909 0.0
C461 C 0.73354 0.77904 0.64763 0.0
C462 C 0.75424 0.78302 0.62909 0.0
C463 C 0.71267 0.79033 0.64084 0.0
C464 C 0.68014 0.8225 0.58292 0.0
H465 H 0.67208 0.8702 0.64141 0.0
C466 C 0.61127 0.89442 0.57132 0.0
C467 C 0.62474 0.923 0.57936 0.0
C468 C 0.62358 0.87347 0.57683 0.0
C469 C 0.67399 0.85683 0.62494 0.0
H470 H 0.76829 0.79987 0.58811 0.0
H471 H 0.73201 0.81961 0.57628 0.0
H472 H 0.69855 0.83845 0.65168 0.0
H473 H 0.6617 0.95187 0.59955 0.0
H474 H 0.68273 0.91532 0.60962 0.0
H475 H 0.65625 0.84186 0.55595 0.0
C476 C 0.73181 0.80787 0.59605 0.0
C477 C 0.6889 0.83842 0.63088 0.0
C478 C 0.75274 0.79683 0.60293 0.0
C479 C 0.65069 0.93011 0.59307 0.0
C480 C 0.66273 0.90914 0.59899 0.0
C481 C 0.66495 0.84078 0.57704 0.0
C482 C 0.712 0.80551 0.61526 0.0
C483 C 0.69271 0.82156 0.60978 0.0
C484 C 0.64929 0.88062 0.59105 0.0
C485 C 0.66237 0.85866 0.59784 0.0
H486 H 0.73422 0.76848 0.66793 0.0
H487 H 0.69751 0.78795 0.65594 0.0
H488 H 0.6826 0.80963 0.56629 0.0
H489 H 0.59122 0.88819 0.56082 0.0
H490 H 0.61281 0.8516 0.5705 0.0
C491 C 0.42032 0.25292 0.39023 0.0
C492 C 0.40427 0.26489 0.4045 0.0
C493 C 0.43279 0.23489 0.40439 0.0
C494 C 0.42483 0.18547 0.4655 0.0
H495 H 0.49657 0.18634 0.44907 0.0
C496 C 0.50585 0.12192 0.4998 0.0
C497 C 0.48834 0.09333 0.49695 0.0
C498 C 0.49665 0.14487 0.49215 0.0
C499 C 0.47664 0.18601 0.45417 0.0
H500 H 0.38986 0.26825 0.44523 0.0
H501 H 0.41142 0.23652 0.46985 0.0
H502 H 0.47974 0.22379 0.42875 0.0
H503 H 0.44711 0.06652 0.485 0.0
H504 H 0.43115 0.10645 0.4717 0.0
H505 H 0.42157 0.14745 0.49058 0.0
C506 C 0.41407 0.24087 0.44761 0.0
C507 C 0.4669 0.2073 0.4423 0.0
C508 C 0.40171 0.25904 0.43348 0.0
C509 C 0.46119 0.08825 0.48734 0.0
C510 C 0.45197 0.11116 0.47987 0.0
C511 C 0.4345 0.16407 0.47721 0.0
C512 C 0.42944 0.22825 0.43315 0.0
C513 C 0.44073 0.20706 0.44753 0.0
C514 C 0.4697 0.13973 0.48172 0.0
C515 C 0.46036 0.16386 0.47137 0.0
H516 H 0.42239 0.2565 0.36784 0.0
H517 H 0.4442 0.22523 0.39254 0.0
H518 H 0.4045 0.18452 0.46979 0.0
H519 H 0.52684 0.12662 0.50734 0.0
H520 H 0.51071 0.16665 0.49416 0.0
C521 C 0.83027 0.30787 0.34255 0.0
C522 C 0.80594 0.31389 0.34286 0.0
C523 C 0.854 0.32542 0.35665 0.0
C524 C 0.88404 0.39682 0.38998 0.0
H525 H 0.92946 0.36035 0.4332 0.0
C526 C 0.95613 0.4519 0.48153 0.0
C527 C 0.98329 0.45302 0.48121 0.0
C528 C 0.93624 0.43447 0.46309 0.0
C529 C 0.91709 0.3708 0.42097 0.0
H530 H 0.7873 0.34278 0.35842 0.0
H531 H 0.82827 0.37299 0.38321 0.0
H532 H 0.89159 0.33138 0.40271 0.0
H533 H 0.01057 0.43556 0.46215 0.0
H534 H 0.97536 0.40442 0.43021 0.0
H535 H 0.90888 0.43597 0.40919 0.0
C536 C 0.82944 0.35531 0.37147 0.0
C537 C 0.89548 0.35429 0.40341 0.0
C538 C 0.80587 0.33795 0.35724 0.0
C539 C 0.98985 0.43528 0.46283 0.0
C540 C 0.96976 0.41746 0.44459 0.0
C541 C 0.90535 0.41317 0.40776 0.0
C542 C 0.85379 0.3492 0.37154 0.0
C543 C 0.87838 0.36703 0.38808 0.0
C544 C 0.94291 0.41741 0.44418 0.0
C545 C 0.92178 0.40024 0.42377 0.0
H546 H 0.8309 0.28949 0.33153 0.0
H547 H 0.87246 0.32029 0.35595 0.0
H548 H 0.87176 0.40751 0.37797 0.0
H549 H 0.95025 0.46501 0.49558 0.0
H550 H 0.91557 0.43445 0.46349 0.0
C551 C 0.70162 0.75212 0.45542 0.0
C552 C 0.69842 0.74171 0.42807 0.0
C553 C 0.69489 0.77626 0.46096 0.0
C554 C 0.68738 0.83381 0.46717 0.0
H555 H 0.61885 0.83479 0.43175 0.0
C556 C 0.63808 0.91847 0.49274 0.0
C557 C 0.60996 0.90749 0.49639 0.0
C558 C 0.65136 0.90117 0.48209 0.0
C559 C 0.63802 0.83483 0.44186 0.0
H560 H 0.68703 0.74945 0.38481 0.0
H561 H 0.67545 0.79206 0.39439 0.0
H562 H 0.63882 0.80026 0.4171 0.0
H563 H 0.57383 0.86963 0.4918 0.0
H564 H 0.59686 0.83971 0.47345 0.0
H565 H 0.68589 0.8676 0.49279 0.0
C566 C 0.68285 0.7812 0.41165 0.0
C567 C 0.64968 0.81526 0.43318 0.0
C568 C 0.68973 0.75699 0.40608 0.0
C569 C 0.59548 0.87891 0.48912 0.0
C570 C 0.60867 0.86174 0.47839 0.0
C571 C 0.67571 0.85343 0.47584 0.0
C572 C 0.68475 0.79073 0.4393 0.0
C573 C 0.67424 0.81406 0.4461 0.0
C574 C 0.63676 0.87261 0.47468 0.0
C575 C 0.65059 0.85377 0.46369 0.0
H576 H 0.70857 0.74098 0.47278 0.0
H577 H 0.69643 0.78272 0.48252 0.0
H578 H 0.70647 0.83375 0.47738 0.0
H579 H 0.64987 0.94034 0.49828 0.0
H580 H 0.67301 0.91025 0.47941 0.0
C581 C 0.26749 0.66011 0.31891 0.0
C582 C 0.2919 0.66369 0.33491 0.0
C583 C 0.24264 0.64278 0.32912 0.0
C584 C 0.19415 0.62157 0.36737 0.0
H585 H 0.18622 0.54563 0.39903 0.0
C586 C 0.11275 0.55757 0.44473 0.0
C587 C 0.10136 0.52763 0.44156 0.0
C588 C 0.13297 0.57428 0.42731 0.0
C589 C 0.18801 0.56667 0.38999 0.0
H590 H 0.30965 0.65148 0.37364 0.0
H591 H 0.26625 0.62068 0.39126 0.0
H592 H 0.2283 0.57387 0.37741 0.0
H593 H 0.10084 0.49223 0.41605 0.0
H594 H 0.13612 0.52139 0.38594 0.0
H595 H 0.15407 0.61462 0.38076 0.0
C596 C 0.26632 0.63141 0.37094 0.0
C597 C 0.21216 0.58289 0.37785 0.0
C598 C 0.2911 0.64909 0.36095 0.0
C599 C 0.10927 0.51517 0.4193 0.0
C600 C 0.1296 0.53182 0.4021 0.0
C601 C 0.17008 0.60548 0.37992 0.0
C602 C 0.24183 0.62834 0.35527 0.0
C603 C 0.21556 0.61057 0.36662 0.0
C604 C 0.14228 0.56135 0.40652 0.0
C605 C 0.16685 0.57792 0.39147 0.0
H606 H 0.26758 0.67136 0.29887 0.0
H607 H 0.22405 0.64063 0.31659 0.0
H608 H 0.19635 0.64296 0.35902 0.0
H609 H 0.10709 0.56791 0.46158 0.0
H610 H 0.14243 0.59701 0.43121 0.0
C611 C 0.38402 0.7785 0.70204 0.0
C612 C 0.39077 0.76461 0.7264 0.0
C613 C 0.39969 0.80663 0.69491 0.0
C614 C 0.46916 0.8557 0.70206 0.0
H615 H 0.43805 0.91025 0.66597 0.0
C616 C 0.5369 0.95657 0.64543 0.0
C617 C 0.5271 0.96109 0.61809 0.0
C618 C 0.51962 0.93809 0.66445 0.0
C619 C 0.44707 0.89527 0.676 0.0
H620 H 0.41899 0.77002 0.76281 0.0
H621 H 0.44685 0.81922 0.74991 0.0
H622 H 0.40867 0.86697 0.68934 0.0
H623 H 0.49097 0.95133 0.58999 0.0
H624 H 0.461 0.91878 0.62289 0.0
H625 H 0.50727 0.88305 0.6876 0.0
C626 C 0.42925 0.80812 0.73645 0.0
C627 C 0.43026 0.87054 0.68943 0.0
C628 C 0.41336 0.77993 0.74377 0.0
C629 C 0.49922 0.94833 0.61087 0.0
C630 C 0.48197 0.92971 0.62984 0.0
C631 C 0.48594 0.88034 0.68853 0.0
C632 C 0.42273 0.82161 0.71174 0.0
C633 C 0.44101 0.85008 0.70189 0.0
C634 C 0.49217 0.9236 0.65653 0.0
C635 C 0.47499 0.90003 0.67463 0.0
H636 H 0.36727 0.76727 0.68767 0.0
H637 H 0.39445 0.81615 0.67543 0.0
H638 H 0.47802 0.8402 0.71117 0.0
H639 H 0.55821 0.96636 0.65182 0.0
H640 H 0.52801 0.93436 0.68505 0.0
C641 C 0.25461 0.29551 0.6571 0.0
C642 C 0.2784 0.30862 0.67391 0.0
C643 C 0.24028 0.31189 0.64328 0.0
C644 C 0.24453 0.38462 0.61766 0.0
H645 H 0.16681 0.35654 0.62682 0.0
C646 C 0.1767 0.45285 0.58323 0.0
C647 C 0.15007 0.43871 0.57239 0.0
C648 C 0.19283 0.43722 0.59483 0.0
C649 C 0.18838 0.36453 0.62359 0.0
H650 H 0.30648 0.34959 0.68808 0.0
H651 H 0.28152 0.3784 0.66343 0.0
H652 H 0.19469 0.32937 0.64749 0.0
H653 H 0.11969 0.39697 0.56466 0.0
H654 H 0.148 0.36958 0.5842 0.0
H655 H 0.23822 0.41957 0.59336 0.0
C656 C 0.27397 0.35529 0.6612 0.0
C657 C 0.20441 0.34896 0.63558 0.0
C658 C 0.2883 0.3388 0.67526 0.0
C659 C 0.13999 0.40851 0.57321 0.0
C660 C 0.15625 0.39282 0.58451 0.0
C661 C 0.22844 0.4001 0.60539 0.0
C662 C 0.24942 0.34191 0.64563 0.0
C663 C 0.23266 0.35879 0.63277 0.0
C664 C 0.1829 0.40696 0.5956 0.0
C665 C 0.20011 0.39029 0.60823 0.0
H666 H 0.24677 0.27239 0.65495 0.0
H667 H 0.2218 0.30098 0.63093 0.0
H668 H 0.2662 0.39261 0.6149 0.0
H669 H 0.18509 0.47613 0.58299 0.0
H670 H 0.21299 0.44895 0.60355 0.0
C671 C 0.75775 0.25464 0.6849 0.0
C672 C 0.7671 0.24669 0.71121 0.0
C673 C 0.7397 0.23392 0.66752 0.0
C674 C 0.69033 0.1596 0.66935 0.0
H675 H 0.69491 0.16716 0.58852 0.0
C676 C 0.62299 0.07199 0.59497 0.0
C677 C 0.6094 0.08177 0.57243 0.0
C678 C 0.64383 0.09148 0.61103 0.0
C679 C 0.69335 0.16487 0.61105 0.0
H680 H 0.76538 0.2108 0.73974 0.0
H681 H 0.73431 0.17443 0.70918 0.0
H682 H 0.72843 0.20215 0.61848 0.0
H683 H 0.60776 0.11961 0.54844 0.0
H684 H 0.64437 0.15359 0.57638 0.0
H685 H 0.65538 0.12215 0.66182 0.0
C686 C 0.74038 0.19676 0.70219 0.0
C687 C 0.71247 0.18495 0.62825 0.0
C688 C 0.75824 0.21755 0.71969 0.0
C689 C 0.61777 0.11138 0.5657 0.0
C690 C 0.63881 0.13084 0.58161 0.0
C691 C 0.67141 0.13938 0.65217 0.0
C692 C 0.73075 0.2047 0.67593 0.0
C693 C 0.71107 0.18272 0.65762 0.0
C694 C 0.65173 0.12112 0.60471 0.0
C695 C 0.6726 0.14193 0.62285 0.0
H696 H 0.76398 0.27702 0.678 0.0
H697 H 0.73234 0.24094 0.64772 0.0
H698 H 0.68828 0.15745 0.69181 0.0
H699 H 0.6171 0.04932 0.60069 0.0
H700 H 0.65366 0.08339 0.62855 0.0
C701 C 0.85693 0.67364 0.64454 0.0
C702 C 0.83057 0.65648 0.65143 0.0
C703 C 0.87337 0.66203 0.63098 0.0
C704 C 0.88385 0.59422 0.61653 0.0
H705 H 0.92823 0.64133 0.5587 0.0
C706 C 0.95673 0.55565 0.55617 0.0
C707 C 0.98324 0.57554 0.55472 0.0
C708 C 0.93572 0.56416 0.56487 0.0
C709 C 0.91603 0.62796 0.57485 0.0
H710 H 0.80105 0.61342 0.65017 0.0
H711 H 0.82997 0.59292 0.62629 0.0
H712 H 0.89583 0.65813 0.58045 0.0
H713 H 1.00819 0.62019 0.56022 0.0
H714 H 0.9716 0.63501 0.57539 0.0
H715 H 0.90441 0.5642 0.61109 0.0
C716 C 0.83785 0.61544 0.63149 0.0
C717 C 0.8975 0.63759 0.58737 0.0
C718 C 0.8213 0.62713 0.64517 0.0
C719 C 0.98805 0.60431 0.5612 0.0
C720 C 0.96702 0.61285 0.56973 0.0
C721 C 0.90238 0.58452 0.60392 0.0
C722 C 0.86395 0.63291 0.6239 0.0
C723 C 0.88163 0.62115 0.60881 0.0
C724 C 0.94072 0.59278 0.5721 0.0
C725 C 0.91907 0.60159 0.58336 0.0
H726 H 0.86492 0.69618 0.6497 0.0
H727 H 0.89363 0.67591 0.62619 0.0
H728 H 0.87207 0.58112 0.63309 0.0
H729 H 0.95229 0.53333 0.55117 0.0
H730 H 0.91559 0.5483 0.56615 0.0
C731 C 0.42209 0.35113 0.3248 0.0
C732 C 0.39541 0.33146 0.32431 0.0
C733 C 0.43289 0.36597 0.30027 0.0
C734 C 0.41367 0.38515 0.22723 0.0
H735 H 0.48859 0.39464 0.21477 0.0
C736 C 0.46199 0.4177 0.11916 0.0
C737 C 0.48883 0.43703 0.11945 0.0
C738 C 0.44969 0.40676 0.14437 0.0
C739 C 0.46773 0.39248 0.21805 0.0
H740 H 0.35918 0.31193 0.29762 0.0
H741 H 0.37804 0.33747 0.25487 0.0
H742 H 0.46912 0.37221 0.25837 0.0
H743 H 0.5234 0.46082 0.14656 0.0
H744 H 0.50197 0.44192 0.1902 0.0
H745 H 0.41229 0.40496 0.18645 0.0
C746 C 0.3905 0.34199 0.27427 0.0
C747 C 0.45655 0.37967 0.24313 0.0
C748 C 0.37966 0.32729 0.29882 0.0
C749 C 0.50275 0.44584 0.14547 0.0
C750 C 0.49054 0.43487 0.17056 0.0
C751 C 0.42483 0.39783 0.20201 0.0
C752 C 0.41735 0.36134 0.27459 0.0
C753 C 0.42937 0.37579 0.24809 0.0
C754 C 0.46405 0.41484 0.17035 0.0
C755 C 0.45201 0.40165 0.19715 0.0
H756 H 0.43463 0.35503 0.34418 0.0
H757 H 0.45347 0.38109 0.30147 0.0
H758 H 0.39278 0.38291 0.23044 0.0
H759 H 0.45068 0.41052 0.0995 0.0
H760 H 0.42928 0.39126 0.1435 0.0
C761 C 0.42761 0.64886 0.83081 0.0
C762 C 0.4373 0.6463 0.8047 0.0
C763 C 0.44221 0.6459 0.85577 0.0
C764 C 0.46679 0.61673 0.90286 0.0
H765 H 0.54551 0.64197 0.90666 0.0
C766 C 0.52855 0.56047 0.97288 0.0
C767 C 0.55545 0.57611 0.98183 0.0
C768 C 0.51292 0.57384 0.95641 0.0
C769 C 0.52355 0.63517 0.90639 0.0
H770 H 0.47057 0.64027 0.78427 0.0
H771 H 0.49569 0.63462 0.82751 0.0
H772 H 0.52168 0.65839 0.86784 0.0
H773 H 0.58617 0.61854 0.98275 0.0
H774 H 0.55861 0.64207 0.95487 0.0
H775 H 0.46871 0.59344 0.94146 0.0
C776 C 0.47697 0.6391 0.8289 0.0
C777 C 0.50985 0.64431 0.88382 0.0
C778 C 0.46241 0.64201 0.80406 0.0
C779 C 0.56563 0.60583 0.97584 0.0
C780 C 0.54988 0.61927 0.95969 0.0
C781 C 0.48052 0.6077 0.92559 0.0
C782 C 0.46686 0.64051 0.85509 0.0
C783 C 0.4813 0.63448 0.88129 0.0
C784 C 0.52373 0.60322 0.9488 0.0
C785 C 0.50907 0.61615 0.92722 0.0
H786 H 0.40824 0.65202 0.83197 0.0
H787 H 0.43399 0.64739 0.8756 0.0
H788 H 0.44477 0.60864 0.90154 0.0
H789 H 0.52014 0.53751 0.97703 0.0
H790 H 0.493 0.56067 0.94825 0.0
C791 C 0.43172 0.31308 0.78657 0.0
C792 C 0.41952 0.32473 0.76421 0.0
C793 C 0.44502 0.32989 0.80947 0.0
C794 C 0.48076 0.4039 0.83006 0.0
H795 H 0.46258 0.37615 0.9059 0.0
C796 C 0.52837 0.47696 0.92338 0.0
C797 C 0.53501 0.46447 0.94861 0.0
C798 C 0.51229 0.45983 0.90197 0.0
C799 C 0.46829 0.38415 0.88495 0.0
H800 H 0.41204 0.3632 0.74809 0.0
H801 H 0.43603 0.39289 0.78775 0.0
H802 H 0.43976 0.34632 0.86621 0.0
H803 H 0.52949 0.42425 0.97152 0.0
H804 H 0.50233 0.39408 0.93379 0.0
H805 H 0.51003 0.44108 0.84834 0.0
C806 C 0.43504 0.37065 0.78765 0.0
C807 C 0.45506 0.36703 0.86218 0.0
C808 C 0.42127 0.35368 0.76502 0.0
C809 C 0.52444 0.43447 0.95239 0.0
C810 C 0.50881 0.41719 0.93066 0.0
C811 C 0.49435 0.42077 0.85278 0.0
C812 C 0.44684 0.35887 0.81025 0.0
C813 C 0.46106 0.37681 0.8345 0.0
C814 C 0.50295 0.4296 0.90485 0.0
C815 C 0.48822 0.41132 0.88064 0.0
H816 H 0.43045 0.29075 0.78663 0.0
H817 H 0.45407 0.3203 0.82649 0.0
H818 H 0.48606 0.41183 0.80897 0.0
H819 H 0.53606 0.50008 0.92 0.0
H820 H 0.50758 0.47043 0.88297 0.0
C821 C 0.77227 0.35003 0.87564 0.0
C822 C 0.76517 0.33768 0.84909 0.0
C823 C 0.76089 0.36996 0.88398 0.0
C824 C 0.70031 0.39106 0.87 0.0
H825 H 0.74142 0.45766 0.91351 0.0
C826 C 0.6495 0.46872 0.90608 0.0
C827 C 0.65533 0.47701 0.93417 0.0
C828 C 0.66506 0.4552 0.89347 0.0
C829 C 0.72963 0.43906 0.90151 0.0
H830 H 0.74078 0.33692 0.81035 0.0
H831 H 0.72129 0.37198 0.82473 0.0
H832 H 0.76467 0.42732 0.89569 0.0
H833 H 0.6828 0.47872 0.97067 0.0
H834 H 0.70965 0.45473 0.94885 0.0
H835 H 0.6652 0.40225 0.87627 0.0
C836 C 0.73549 0.36607 0.83919 0.0
C837 C 0.74295 0.42169 0.89131 0.0
C838 C 0.7469 0.34621 0.83084 0.0
C839 C 0.67775 0.47258 0.949 0.0
C840 C 0.69325 0.45894 0.93642 0.0
C841 C 0.687 0.40835 0.88023 0.0
C842 C 0.74208 0.3779 0.86599 0.0
C843 C 0.72839 0.39735 0.87563 0.0
C844 C 0.68675 0.44956 0.90869 0.0
C845 C 0.70143 0.43242 0.89632 0.0
H846 H 0.78649 0.34412 0.89008 0.0
H847 H 0.76623 0.37849 0.90484 0.0
H848 H 0.68841 0.37221 0.85839 0.0
H849 H 0.63255 0.47214 0.89396 0.0
H850 H 0.65984 0.44878 0.87189 0.0
C851 C 0.7755 0.67635 0.75152 0.0
C852 C 0.77022 0.65935 0.7277 0.0
C853 C 0.76377 0.66489 0.77677 0.0
C854 C 0.72825 0.59506 0.81366 0.0
H855 H 0.70881 0.64449 0.8625 0.0
C856 C 0.65816 0.55429 0.90672 0.0
C857 C 0.66694 0.5686 0.9322 0.0
C858 C 0.67238 0.56441 0.88252 0.0
C859 C 0.71439 0.63052 0.84919 0.0
H860 H 0.74832 0.61717 0.71144 0.0
H861 H 0.72684 0.59735 0.75513 0.0
H862 H 0.72913 0.664 0.81838 0.0
H863 H 0.69785 0.60467 0.95219 0.0
H864 H 0.7223 0.62278 0.9096 0.0
H865 H 0.71231 0.56131 0.84426 0.0
C866 C 0.7407 0.61931 0.75471 0.0
C867 C 0.72615 0.64169 0.82388 0.0
C868 C 0.75282 0.63068 0.72956 0.0
C869 C 0.69056 0.59307 0.93296 0.0
C870 C 0.70449 0.60353 0.90858 0.0
C871 C 0.71604 0.58379 0.83878 0.0
C872 C 0.74608 0.63623 0.77875 0.0
C873 C 0.73335 0.62416 0.80573 0.0
C874 C 0.6954 0.58942 0.88308 0.0
C875 C 0.70907 0.60143 0.85682 0.0
H876 H 0.78921 0.6984 0.7508 0.0
H877 H 0.769 0.67848 0.79484 0.0
H878 H 0.73392 0.58095 0.80063 0.0
H879 H 0.63998 0.53552 0.90527 0.0
H880 H 0.66481 0.55323 0.86311 0.0
C881 C 0.74369 0.6549 0.27881 0.0
C882 C 0.72786 0.65294 0.30199 0.0
C883 C 0.7315 0.6435 0.25291 0.0
C884 C 0.66838 0.58916 0.22384 0.0
H885 H 0.69413 0.62258 0.15164 0.0
C886 C 0.62519 0.52623 0.12444 0.0
C887 C 0.61831 0.54108 0.10097 0.0
C888 C 0.64152 0.54112 0.14689 0.0
C889 C 0.68659 0.61305 0.17162 0.0
H890 H 0.68647 0.63772 0.31546 0.0
H891 H 0.6654 0.61927 0.27044 0.0
H892 H 0.71566 0.64738 0.19472 0.0
H893 H 0.6243 0.58323 0.08192 0.0
H894 H 0.6525 0.60956 0.12165 0.0
H895 H 0.63888 0.55539 0.20114 0.0
C896 C 0.68732 0.62902 0.27233 0.0
C897 C 0.69912 0.62713 0.19637 0.0
C898 C 0.69946 0.64015 0.29818 0.0
C899 C 0.62943 0.57125 0.0997 0.0
C900 C 0.64556 0.58629 0.1225 0.0
C901 C 0.65588 0.57523 0.19927 0.0
C902 C 0.70316 0.62991 0.24948 0.0
C903 C 0.69011 0.61537 0.22284 0.0
C904 C 0.65105 0.57136 0.1468 0.0
C905 C 0.66484 0.5868 0.17277 0.0
H906 H 0.76558 0.66488 0.28075 0.0
H907 H 0.74442 0.64453 0.23587 0.0
H908 H 0.6611 0.57908 0.24373 0.0
H909 H 0.61719 0.50294 0.12585 0.0
H910 H 0.64601 0.52881 0.16474 0.0
C911 C 0.3795 0.63214 0.22339 0.0
C912 C 0.39029 0.66163 0.21634 0.0
C913 C 0.39188 0.61301 0.21503 0.0
C914 C 0.45706 0.61067 0.19221 0.0
H915 H 0.41316 0.53991 0.15637 0.0
C916 C 0.47381 0.52779 0.11146 0.0
C917 C 0.49816 0.52515 0.12344 0.0
C918 C 0.45888 0.54047 0.12627 0.0
C919 C 0.42567 0.55957 0.16639 0.0
H920 H 0.42296 0.69426 0.19578 0.0
H921 H 0.4444 0.66103 0.18115 0.0
H922 H 0.39104 0.57062 0.17578 0.0
H923 H 0.52498 0.5321 0.16108 0.0
H924 H 0.49889 0.55405 0.18688 0.0
H925 H 0.49169 0.60029 0.1821 0.0
C926 C 0.42641 0.65262 0.19313 0.0
C927 C 0.41301 0.57701 0.17772 0.0
C928 C 0.41395 0.67162 0.20125 0.0
C929 C 0.50649 0.5341 0.15108 0.0
C930 C 0.49159 0.54679 0.16585 0.0
C931 C 0.46969 0.59321 0.18105 0.0
C932 C 0.41549 0.62308 0.1998 0.0
C933 C 0.42861 0.60305 0.19026 0.0
C934 C 0.46799 0.55079 0.15337 0.0
C935 C 0.45419 0.56769 0.16757 0.0
H936 H 0.36122 0.6238 0.23491 0.0
H937 H 0.38309 0.59039 0.22061 0.0
H938 H 0.46963 0.63043 0.20203 0.0
H939 H 0.46676 0.52102 0.09026 0.0
H940 H 0.44089 0.54338 0.11595 0.0
C941 C 0.70693 0.34691 0.21636 0.0
C942 C 0.68611 0.32553 0.22987 0.0
C943 C 0.7017 0.35772 0.18976 0.0
C944 C 0.65114 0.34506 0.12889 0.0
H945 H 0.66809 0.4277 0.12863 0.0
C946 C 0.58351 0.40185 0.07161 0.0
C947 C 0.59475 0.43049 0.06191 0.0
C948 C 0.60004 0.38763 0.08502 0.0
C949 C 0.66373 0.40471 0.12785 0.0
H950 H 0.64427 0.29718 0.2256 0.0
H951 H 0.63513 0.31586 0.17934 0.0
H952 H 0.6884 0.40452 0.16538 0.0
H953 H 0.63256 0.46589 0.05682 0.0
H954 H 0.66141 0.44091 0.08005 0.0
H955 H 0.62552 0.34514 0.09201 0.0
C956 C 0.65546 0.32437 0.18907 0.0
C957 C 0.67541 0.39141 0.14899 0.0
C958 C 0.66058 0.31385 0.21568 0.0
C959 C 0.62315 0.44393 0.06431 0.0
C960 C 0.63971 0.42966 0.07772 0.0
C961 C 0.63955 0.35838 0.10766 0.0
C962 C 0.67569 0.34699 0.17615 0.0
C963 C 0.66836 0.36133 0.15038 0.0
C964 C 0.62825 0.40165 0.08899 0.0
C965 C 0.64483 0.38823 0.10758 0.0
H966 H 0.72677 0.35624 0.22695 0.0
H967 H 0.71771 0.37506 0.18022 0.0
H968 H 0.64569 0.32187 0.12919 0.0
H969 H 0.56176 0.39074 0.07001 0.0
H970 H 0.59043 0.36619 0.09369 0.0
loop_
_geom_bond_atom_site_label_1
_geom_bond_atom_site_label_2
_geom_bond_distance
_geom_bond_site_symmetry_2
_ccdc_geom_bond_type
H0 C1 0.949 . S
C1 H0 0.949 . S
C1 C2 1.395 . S
C1 C3 1.391 . S
C2 C1 1.395 . S
C2 C5 1.390 . S
C3 C1 1.391 . S
C3 C7 1.387 . S
C3 C8 1.491 . S
H4 C5 0.950 . S
C5 C2 1.390 . S
C5 H4 0.950 . S
C5 C6 1.378 . S
C6 C5 1.378 . S
C6 C7 1.409 . S
C7 C3 1.387 . S
C7 C6 1.409 . S
C7 H9 0.951 . S
C8 C3 1.491 . S
C8 C10 1.382 . S
C8 C12 1.404 . S
H9 C7 0.951 . S
C10 C8 1.382 . S
C10 C11 1.390 . S
C10 H15 0.949 . S
C11 C10 1.390 . S
C11 C16 1.399 . S
C12 C8 1.404 . S
C12 H13 0.950 . S
C12 C14 1.375 . S
H13 C12 0.950 . S
C14 C12 1.375 . S
C14 C16 1.382 . S
C14 H18 0.950 . S
H15 C10 0.949 . S
C16 C11 1.399 . S
C16 C14 1.382 . S
C16 H17 0.952 . S
H17 C16 0.952 . S
H18 C14 0.950 . S
H19 C20 0.949 . S
C20 H19 0.949 . S
C20 C21 1.395 . S
C20 C22 1.391 . S
C21 C20 1.395 . S
C21 C24 1.390 . S
C22 C20 1.391 . S
C22 C26 1.387 . S
C22 C27 1.491 . S
H23 C24 0.950 . S
C24 C21 1.390 . S
C24 H23 0.950 . S
C24 C25 1.378 . S
C25 C24 1.378 . S
C25 C26 1.409 . S
C26 C22 1.387 . S
C26 C25 1.409 . S
C26 H28 0.951 . S
C27 C22 1.491 . S
C27 C29 1.382 . S
C27 C31 1.404 . S
H28 C26 0.951 . S
C29 C27 1.382 . S
C29 C30 1.390 . S
C29 H34 0.949 . S
C30 C29 1.390 . S
C30 C35 1.399 . S
C31 C27 1.404 . S
C31 H32 0.950 . S
C31 C33 1.375 . S
H32 C31 0.950 . S
C33 C31 1.375 . S
C33 C35 1.382 . S
C33 H37 0.950 . S
H34 C29 0.949 . S
C35 C30 1.399 . S
C35 C33 1.382 . S
C35 H36 0.952 . S
H36 C35 0.952 . S
H37 C33 0.950 . S
H38 C39 0.949 . S
C39 H38 0.949 . S
C39 C40 1.395 . S
C39 C41 1.391 . S
C40 C39 1.395 . S
C40 C43 1.390 . S
C41 C39 1.391 . S
C41 C45 1.387 . S
C41 C46 1.491 . S
H42 C43 0.950 . S
C43 C40 1.390 . S
C43 H42 0.950 . S
C43 C44 1.378 . S
C44 C43 1.378 . S
C44 C45 1.409 . S
C45 C41 1.387 . S
C45 C44 1.409 . S
C45 H47 0.951 . S
C46 C41 1.491 . S
C46 C48 1.382 . S
C46 C50 1.404 . S
H47 C45 0.951 . S
C48 C46 1.382 . S
C48 C49 1.390 . S
C48 H53 0.949 . S
C49 C48 1.390 . S
C49 C54 1.399 . S
C50 C46 1.404 . S
C50 H51 0.950 . S
C50 C52 1.375 . S
H51 C50 0.950 . S
C52 C50 1.375 . S
C52 C54 1.382 . S
C52 H56 0.950 . S
H53 C48 0.949 . S
C54 C49 1.399 . S
C54 C52 1.382 . S
C54 H55 0.952 . S
H55 C54 0.952 . S
H56 C52 0.950 . S
H57 C58 0.949 . S
C58 H57 0.949 . S
C58 C59 1.395 . S
C58 C60 1.391 . S
C59 C58 1.395 . S
C59 C62 1.390 . S
C60 C58 1.391 . S
C60 C64 1.387 . S
C60 C65 1.491 . S
H61 C62 0.950 . S
C62 C59 1.390 . S
C62 H61 0.950 . S
C62 C63 1.378 . S
C63 C62 1.378 . S
C63 C64 1.409 . S
C64 C60 1.387 . S
C64 C63 1.409 . S
C64 H66 0.951 . S
C65 C60 1.491 . S
C65 C67 1.382 . S
C65 C69 1.404 . S
H66 C64 0.951 . S
C67 C65 1.382 . S
C67 C68 1.390 . S
C67 H72 0.949 . S
C68 C67 1.390 . S
C68 C73 1.399 . S
C69 C65 1.404 . S
C69 H70 0.950 . S
C69 C71 1.375 . S
H70 C69 0.950 . S
C71 C69 1.375 . S
C71 C73 1.382 . S
C71 H75 0.950 . S
H72 C67 0.949 . S
C73 C68 1.399 . S
C73 C71 1.382 . S
C73 H74 0.952 . S
H74 C73 0.952 . S
H75 C71 0.950 . S
H76 C77 0.949 . S
C77 H76 0.949 . S
C77 C78 1.395 . S
C77 C79 1.391 . S
C78 C77 1.395 . S
C78 C81 1.390 . S
C79 C77 1.391 . S
C79 C83 1.387 . S
C79 C84 1.491 . S
H80 C81 0.950 . S
C81 C78 1.390 . S
C81 H80 0.950 . S
C81 C82 1.378 . S
C82 C81 1.378 . S
C82 C83 1.409 . S
C83 C79 1.387 . S
C83 C82 1.409 . S
C83 H85 0.951 . S
C84 C79 1.491 . S
C84 C86 1.382 . S
C84 C88 1.404 . S
H85 C83 0.951 . S
C86 C84 1.382 . S
C86 C87 1.390 . S
C86 H91 0.949 . S
C87 C86 1.390 . S
C87 C92 1.399 . S
C88 C84 1.404 . S
C88 H89 0.950 . S
C88 C90 1.375 . S
H89 C88 0.950 . S
C90 C88 1.375 . S
C90 C92 1.382 . S
C90 H94 0.950 . S
H91 C86 0.949 . S
C92 C87 1.399 . S
C92 C90 1.382 . S
C92 H93 0.952 . S
H93 C92 0.952 . S
H94 C90 0.950 . S
H95 C96 0.949 . S
C96 H95 0.949 . S
C96 C97 1.395 . S
C96 C98 1.391 . S
C97 C96 1.395 . S
C97 C100 1.390 . S
C98 C96 1.391 . S
C98 C102 1.387 . S
C98 C103 1.491 . S
H99 C100 0.950 . S
C100 C97 1.390 . S
C100 H99 0.950 . S
C100 C101 1.378 . S
C101 C100 1.378 . S
C101 C102 1.409 . S
C102 C98 1.387 . S
C102 C101 1.409 . S
C102 H104 0.951 . S
C103 C98 1.491 . S
C103 C105 1.382 . S
C103 C107 1.404 . S
H104 C102 0.951 . S
C105 C103 1.382 . S
C105 C106 1.390 . S
C105 H110 0.949 . S
C106 C105 1.390 . S
C106 C111 1.399 . S
C107 C103 1.404 . S
C107 H108 0.950 . S
C107 C109 1.375 . S
H108 C107 0.950 . S
C109 C107 1.375 . S
C109 C111 1.382 . S
C109 H113 0.950 . S
H110 C105 0.949 . S
C111 C106 1.399 . S
C111 C109 1.382 . S
C111 H112 0.952 . S
H112 C111 0.952 . S
H113 C109 0.950 . S
H114 C115 0.949 . S
C115 H114 0.949 . S
C115 C116 1.395 . S
C115 C117 1.391 . S
C116 C115 1.395 . S
C116 C119 1.390 . S
C117 C115 1.391 . S
C117 C121 1.387 . S
C117 C122 1.491 . S
H118 C119 0.950 . S
C119 C116 1.390 . S
C119 H118 0.950 . S
C119 C120 1.378 . S
C120 C119 1.378 . S
C120 C121 1.409 . S
C121 C117 1.387 . S
C121 C120 1.409 . S
C121 H123 0.951 . S
C122 C117 1.491 . S
C122 C124 1.382 . S
C122 C126 1.404 . S
H123 C121 0.951 . S
C124 C122 1.382 . S
C124 C125 1.390 . S
C124 H129 0.949 . S
C125 C124 1.390 . S
C125 C130 1.399 . S
C126 C122 1.404 . S
C126 H127 0.950 . S
C126 C128 1.375 . S
H127 C126 0.950 . S
C128 C126 1.375 . S
C128 C130 1.382 . S
C128 H132 0.950 . S
H129 C124 0.949 . S
C130 C125 1.399 . S
C130 C128 1.382 . S
C130 H131 0.952 . S
H131 C130 0.952 . S
H132 C128 0.950 . S
H133 C134 0.949 . S
C134 H133 0.949 . S
C134 C135 1.395 . S
C134 C136 1.391 . S
C135 C134 1.395 . S
C135 C138 1.390 . S
C136 C134 1.391 . S
C136 C140 1.387 . S
C136 C141 1.491 . S
H137 C138 0.950 . S
C138 C135 1.390 . S
C138 H137 0.950 . S
C138 C139 1.378 . S
C139 C138 1.378 . S
C139 C140 1.409 . S
C140 C136 1.387 . S
C140 C139 1.409 . S
C140 H142 0.951 . S
C141 C136 1.491 . S
C141 C143 1.382 . S
C141 C145 1.404 . S
H142 C140 0.951 . S
C143 C141 1.382 . S
C143 C144 1.390 . S
C143 H148 0.949 . S
C144 C143 1.390 . S
C144 C149 1.399 . S
C145 C141 1.404 . S
C145 H146 0.950 . S
C145 C147 1.375 . S
H146 C145 0.950 . S
C147 C145 1.375 . S
C147 C149 1.382 . S
C147 H151 0.950 . S
H148 C143 0.949 . S
C149 C144 1.399 . S
C149 C147 1.382 . S
C149 H150 0.952 . S
H150 C149 0.952 . S
H151 C147 0.950 . S
Co152 O155 2.042 . S
Co152 O162 2.264 . S
Co152 O181 2.286 . S
Co152 O182 2.069 . S
Co152 O184 2.015 . S
Co153 O155 2.122 . S
Co153 O161 2.073 . S
Co153 O162 2.327 . S
Co153 O163 1.976 . S
Co154 O155 2.087 . S
Co154 O157 2.087 . S
Co154 O164 2.111 . S
Co154 O165 2.143 . S
Co154 O169 2.111 . S
Co154 O183 2.143 . S
O155 Co152 2.042 . S
O155 Co153 2.122 . S
O155 Co154 2.087 . S
O155 H156 0.980 . S
H156 O155 0.980 . S
O157 Co154 2.087 . S
O157 Co158 2.042 1_455 S
O157 Co159 2.112 1_455 S
O157 H160 0.980 . S
Co158 O157 2.042 1_655 S
Co158 O166 2.286 . S
Co158 O167 2.069 . S
Co158 O168 2.015 . S
Co158 O171 2.264 . S
Co159 O157 2.112 1_655 S
Co159 O170 1.981 . S
Co159 O171 2.344 . S
Co159 O172 2.080 1_655 S
H160 O157 0.980 . S
O161 Co153 2.073 . S
O161 C176 1.245 . S
O162 Co152 2.264 . S
O162 Co153 2.327 . S
O162 C176 1.257 . S
O163 Co153 1.976 . S
O163 C175 1.251 . S
O164 Co154 2.111 . S
O164 C175 1.274 . S
O165 Co154 2.143 . S
O165 C178 1.246 1_455 S
O166 Co158 2.286 . S
O166 C177 1.259 . S
O167 Co158 2.069 . S
O167 C177 1.289 . S
O168 Co158 2.015 . S
O168 C178 1.257 . S
O169 Co154 2.111 . S
O169 C179 1.274 1_455 S
O170 Co159 1.981 . S
O170 C179 1.251 . S
O171 Co158 2.264 . S
O171 Co159 2.344 . S
O171 C180 1.257 . S
O172 Co159 2.080 1_455 S
O172 C180 1.245 1_455 S
C173 O181 1.259 . S
C173 O182 1.289 . S
C174 O183 1.246 . S
C174 O184 1.257 . S
C175 O163 1.251 . S
C175 O164 1.274 . S
C176 O161 1.245 . S
C176 O162 1.257 . S
C177 O166 1.259 . S
C177 O167 1.289 . S
C178 O165 1.246 1_655 S
C178 O168 1.257 . S
C179 O169 1.274 1_655 S
C179 O170 1.251 . S
C180 O171 1.257 . S
C180 O172 1.245 1_655 S
O181 Co152 2.286 . S
O181 C173 1.259 . S
O182 Co152 2.069 . S
O182 C173 1.289 . S
O183 Co154 2.143 . S
O183 C174 1.246 . S
O184 Co152 2.015 . S
O184 C174 1.257 . S
Co185 O188 2.042 . S
Co185 O195 2.264 . S
Co185 O214 2.286 . S
Co185 O215 2.069 . S
Co185 O217 2.015 . S
Co186 O188 2.122 . S
Co186 O194 2.073 . S
Co186 O195 2.327 . S
Co186 O196 1.976 . S
Co187 O188 2.087 1_545 S
Co187 O190 2.087 . S
Co187 O197 2.111 1_545 S
Co187 O198 2.143 . S
Co187 O202 2.111 . S
Co187 O216 2.143 1_545 S
O188 Co185 2.042 . S
O188 Co186 2.122 . S
O188 Co187 2.087 1_565 S
O188 H189 0.980 1_565 S
H189 O188 0.980 1_545 S
O190 Co187 2.087 . S
O190 Co191 2.042 . S
O190 Co192 2.122 . S
O190 H193 0.980 . S
Co191 O190 2.042 . S
Co191 O199 2.286 . S
Co191 O200 2.069 . S
Co191 O201 2.015 . S
Co191 O204 2.264 . S
Co192 O190 2.122 . S
Co192 O203 1.976 . S
Co192 O204 2.327 . S
Co192 O205 2.073 . S
H193 O190 0.980 . S
O194 Co186 2.073 . S
O194 C209 1.245 . S
O195 Co185 2.264 . S
O195 Co186 2.327 . S
O195 C209 1.257 . S
O196 Co186 1.976 . S
O196 C208 1.251 . S
O197 Co187 2.111 1_565 S
O197 C208 1.274 . S
O198 Co187 2.143 . S
O198 C211 1.246 . S
O199 Co191 2.286 . S
O199 C210 1.259 . S
O200 Co191 2.069 . S
O200 C210 1.289 . S
O201 Co191 2.015 . S
O201 C211 1.257 . S
O202 Co187 2.111 . S
O202 C212 1.274 . S
O203 Co192 1.976 . S
O203 C212 1.251 . S
O204 Co191 2.264 . S
O204 Co192 2.327 . S
O204 C213 1.257 . S
O205 Co192 2.073 . S
O205 C213 1.245 . S
C206 O214 1.259 . S
C206 O215 1.289 . S
C207 O216 1.246 . S
C207 O217 1.257 . S
C208 O196 1.251 . S
C208 O197 1.274 . S
C209 O194 1.245 . S
C209 O195 1.257 . S
C210 O199 1.259 . S
C210 O200 1.289 . S
C211 O198 1.246 . S
C211 O201 1.257 . S
C212 O202 1.274 . S
C212 O203 1.251 . S
C213 O204 1.257 . S
C213 O205 1.245 . S
O214 Co185 2.286 . S
O214 C206 1.259 . S
O215 Co185 2.069 . S
O215 C206 1.289 . S
O216 Co187 2.143 1_565 S
O216 C207 1.246 . S
O217 Co185 2.015 . S
O217 C207 1.257 . S
Co218 O221 2.042 . S
Co218 O228 2.264 . S
Co218 O247 2.286 . S
Co218 O248 2.069 . S
Co218 O250 2.015 . S
Co219 O221 2.122 . S
Co219 O227 2.073 . S
Co219 O228 2.327 . S
Co219 O229 1.976 . S
Co220 O221 2.087 . S
Co220 O223 2.087 1_554 S
Co220 O230 2.111 . S
Co220 O231 2.143 1_554 S
Co220 O235 2.111 . S
Co220 O249 2.143 . S
O221 Co218 2.042 . S
O221 Co219 2.122 . S
O221 Co220 2.087 . S
O221 H222 0.980 . S
H222 O221 0.980 . S
O223 Co220 2.087 1_556 S
O223 Co224 2.042 . S
O223 Co225 2.122 . S
O223 H226 0.980 . S
Co224 O223 2.042 . S
Co224 O232 2.286 . S
Co224 O233 2.069 . S
Co224 O234 2.015 . S
Co224 O237 2.264 . S
Co225 O223 2.122 . S
Co225 O236 1.976 . S
Co225 O237 2.327 . S
Co225 O238 2.073 . S
H226 O223 0.980 . S
O227 Co219 2.073 . S
O227 C242 1.245 . S
O228 Co218 2.264 . S
O228 Co219 2.327 . S
O228 C242 1.257 . S
O229 Co219 1.976 . S
O229 C241 1.251 . S
O230 Co220 2.111 . S
O230 C241 1.274 . S
O231 Co220 2.143 1_556 S
O231 C244 1.246 . S
O232 Co224 2.286 . S
O232 C243 1.259 . S
O233 Co224 2.069 . S
O233 C243 1.289 . S
O234 Co224 2.015 . S
O234 C244 1.257 . S
O235 Co220 2.111 . S
O235 C245 1.274 1_554 S
O236 Co225 1.976 . S
O236 C245 1.251 . S
O237 Co224 2.264 . S
O237 Co225 2.327 . S
O237 C246 1.257 . S
O238 Co225 2.073 . S
O238 C246 1.245 . S
C239 O247 1.259 . S
C239 O248 1.289 . S
C240 O249 1.246 . S
C240 O250 1.257 . S
C241 O229 1.251 . S
C241 O230 1.274 . S
C242 O227 1.245 . S
C242 O228 1.257 . S
C243 O232 1.259 . S
C243 O233 1.289 . S
C244 O231 1.246 . S
C244 O234 1.257 . S
C245 O235 1.274 1_556 S
C245 O236 1.251 . S
C246 O237 1.257 . S
C246 O238 1.245 . S
O247 Co218 2.286 . S
O247 C239 1.259 . S
O248 Co218 2.069 . S
O248 C239 1.289 . S
O249 Co220 2.143 . S
O249 C240 1.246 . S
O250 Co218 2.015 . S
O250 C240 1.257 . S
C251 C252 1.349 . S
C251 C253 1.327 . S
C251 H276 0.950 . S
C252 C251 1.349 . S
C252 C268 1.349 . S
C253 C251 1.327 . S
C253 C272 1.429 . S
C253 H277 0.950 . S
C254 C271 1.574 . S
C254 C273 1.368 . S
C254 H278 0.949 . S
H255 C259 0.949 . S
C256 C257 1.349 . S
C256 C258 1.327 . S
C256 H279 0.950 . S
C257 C256 1.349 . S
C257 C269 1.349 . S
C258 C256 1.327 . S
C258 C274 1.429 . S
C258 H280 0.950 . S
C259 H255 0.949 . S
C259 C267 1.574 . S
C259 C275 1.368 . S
H260 C268 0.950 . S
H261 C266 0.950 . S
H262 C267 0.949 . S
H263 C269 0.950 . S
H264 C270 0.950 . S
H265 C271 0.949 . S
C266 H261 0.950 . S
C266 C268 1.327 . S
C266 C272 1.429 . S
C267 C259 1.574 . S
C267 H262 0.949 . S
C267 C273 1.368 . S
C268 C252 1.349 . S
C268 H260 0.950 . S
C268 C266 1.327 . S
C269 C257 1.349 . S
C269 H263 0.950 . S
C269 C270 1.327 . S
C270 H264 0.950 . S
C270 C269 1.327 . S
C270 C274 1.429 . S
C271 C254 1.574 . S
C271 H265 0.949 . S
C271 C275 1.368 . S
C272 C253 1.429 . S
C272 C266 1.429 . S
C272 C273 1.523 . S
C273 C254 1.368 . S
C273 C267 1.368 . S
C273 C272 1.523 . S
C274 C258 1.429 . S
C274 C270 1.429 . S
C274 C275 1.523 . S
C275 C259 1.368 . S
C275 C271 1.368 . S
C275 C274 1.523 . S
H276 C251 0.950 . S
H277 C253 0.950 . S
H278 C254 0.949 . S
H279 C256 0.950 . S
H280 C258 0.950 . S
C281 C282 1.349 . S
C281 C283 1.327 . S
C281 H306 0.950 . S
C282 C281 1.349 . S
C282 C298 1.349 . S
C283 C281 1.327 . S
C283 C302 1.429 . S
C283 H307 0.950 . S
C284 C301 1.574 . S
C284 C303 1.368 . S
C284 H308 0.949 . S
H285 C289 0.949 . S
C286 C287 1.349 . S
C286 C288 1.327 . S
C286 H309 0.950 . S
C287 C286 1.349 . S
C287 C299 1.349 . S
C288 C286 1.327 . S
C288 C304 1.429 . S
C288 H310 0.950 . S
C289 H285 0.949 . S
C289 C297 1.574 . S
C289 C305 1.368 . S
H290 C298 0.950 . S
H291 C296 0.950 . S
H292 C297 0.949 . S
H293 C299 0.950 . S
H294 C300 0.950 . S
H295 C301 0.949 . S
C296 H291 0.950 . S
C296 C298 1.327 . S
C296 C302 1.429 . S
C297 C289 1.574 . S
C297 H292 0.949 . S
C297 C303 1.368 . S
C298 C282 1.349 . S
C298 H290 0.950 . S
C298 C296 1.327 . S
C299 C287 1.349 . S
C299 H293 0.950 . S
C299 C300 1.327 . S
C300 H294 0.950 . S
C300 C299 1.327 . S
C300 C304 1.429 . S
C301 C284 1.574 . S
C301 H295 0.949 . S
C301 C305 1.368 . S
C302 C283 1.429 . S
C302 C296 1.429 . S
C302 C303 1.523 . S
C303 C284 1.368 . S
C303 C297 1.368 . S
C303 C302 1.523 . S
C304 C288 1.429 . S
C304 C300 1.429 . S
C304 C305 1.523 . S
C305 C289 1.368 . S
C305 C301 1.368 . S
C305 C304 1.523 . S
H306 C281 0.950 . S
H307 C283 0.950 . S
H308 C284 0.949 . S
H309 C286 0.950 . S
H310 C288 0.950 . S
C311 C312 1.349 . S
C311 C313 1.327 . S
C311 H336 0.950 . S
C312 C311 1.349 . S
C312 C328 1.349 . S
C313 C311 1.327 . S
C313 C332 1.429 . S
C313 H337 0.950 . S
C314 C331 1.574 . S
C314 C333 1.368 . S
C314 H338 0.949 . S
H315 C319 0.949 . S
C316 C317 1.349 . S
C316 C318 1.327 . S
C316 H339 0.950 . S
C317 C316 1.349 . S
C317 C329 1.349 . S
C318 C316 1.327 . S
C318 C334 1.429 . S
C318 H340 0.950 . S
C319 H315 0.949 . S
C319 C327 1.574 . S
C319 C335 1.368 . S
H320 C328 0.950 . S
H321 C326 0.950 . S
H322 C327 0.949 . S
H323 C329 0.950 . S
H324 C330 0.950 . S
H325 C331 0.949 . S
C326 H321 0.950 . S
C326 C328 1.327 . S
C326 C332 1.429 . S
C327 C319 1.574 . S
C327 H322 0.949 . S
C327 C333 1.368 . S
C328 C312 1.349 . S
C328 H320 0.950 . S
C328 C326 1.327 . S
C329 C317 1.349 . S
C329 H323 0.950 . S
C329 C330 1.327 . S
C330 H324 0.950 . S
C330 C329 1.327 . S
C330 C334 1.429 . S
C331 C314 1.574 . S
C331 H325 0.949 . S
C331 C335 1.368 . S
C332 C313 1.429 . S
C332 C326 1.429 . S
C332 C333 1.523 . S
C333 C314 1.368 . S
C333 C327 1.368 . S
C333 C332 1.523 . S
C334 C318 1.429 . S
C334 C330 1.429 . S
C334 C335 1.523 . S
C335 C319 1.368 . S
C335 C331 1.368 . S
C335 C334 1.523 . S
H336 C311 0.950 . S
H337 C313 0.950 . S
H338 C314 0.949 . S
H339 C316 0.950 . S
H340 C318 0.950 . S
C341 C342 1.349 . S
C341 C343 1.327 . S
C341 H366 0.950 . S
C342 C341 1.349 . S
C342 C358 1.349 . S
C343 C341 1.327 . S
C343 C362 1.429 . S
C343 H367 0.950 . S
C344 C361 1.574 . S
C344 C363 1.368 . S
C344 H368 0.949 . S
H345 C349 0.949 . S
C346 C347 1.349 . S
C346 C348 1.327 . S
C346 H369 0.950 . S
C347 C346 1.349 . S
C347 C359 1.349 . S
C348 C346 1.327 . S
C348 C364 1.429 . S
C348 H370 0.950 . S
C349 H345 0.949 . S
C349 C357 1.574 . S
C349 C365 1.368 . S
H350 C358 0.950 . S
H351 C356 0.950 . S
H352 C357 0.949 . S
H353 C359 0.950 . S
H354 C360 0.950 . S
H355 C361 0.949 . S
C356 H351 0.950 . S
C356 C358 1.327 . S
C356 C362 1.429 . S
C357 C349 1.574 . S
C357 H352 0.949 . S
C357 C363 1.368 . S
C358 C342 1.349 . S
C358 H350 0.950 . S
C358 C356 1.327 . S
C359 C347 1.349 . S
C359 H353 0.950 . S
C359 C360 1.327 . S
C360 H354 0.950 . S
C360 C359 1.327 . S
C360 C364 1.429 . S
C361 C344 1.574 . S
C361 H355 0.949 . S
C361 C365 1.368 . S
C362 C343 1.429 . S
C362 C356 1.429 . S
C362 C363 1.523 . S
C363 C344 1.368 . S
C363 C357 1.368 . S
C363 C362 1.523 . S
C364 C348 1.429 . S
C364 C360 1.429 . S
C364 C365 1.523 . S
C365 C349 1.368 . S
C365 C361 1.368 . S
C365 C364 1.523 . S
H366 C341 0.950 . S
H367 C343 0.950 . S
H368 C344 0.949 . S
H369 C346 0.950 . S
H370 C348 0.950 . S
C371 C372 1.349 . S
C371 C373 1.327 . S
C371 H396 0.950 . S
C372 C371 1.349 . S
C372 C388 1.349 . S
C373 C371 1.327 . S
C373 C392 1.429 . S
C373 H397 0.950 . S
C374 C391 1.574 . S
C374 C393 1.368 . S
C374 H398 0.949 . S
H375 C379 0.949 . S
C376 C377 1.349 . S
C376 C378 1.327 . S
C376 H399 0.950 . S
C377 C376 1.349 . S
C377 C389 1.349 . S
C378 C376 1.327 . S
C378 C394 1.429 . S
C378 H400 0.950 . S
C379 H375 0.949 . S
C379 C387 1.574 . S
C379 C395 1.368 . S
H380 C388 0.950 . S
H381 C386 0.950 . S
H382 C387 0.949 . S
H383 C389 0.950 . S
H384 C390 0.950 . S
H385 C391 0.949 . S
C386 H381 0.950 . S
C386 C388 1.327 . S
C386 C392 1.429 . S
C387 C379 1.574 . S
C387 H382 0.949 . S
C387 C393 1.368 . S
C388 C372 1.349 . S
C388 H380 0.950 . S
C388 C386 1.327 . S
C389 C377 1.349 . S
C389 H383 0.950 . S
C389 C390 1.327 . S
C390 H384 0.950 . S
C390 C389 1.327 . S
C390 C394 1.429 . S
C391 C374 1.574 . S
C391 H385 0.949 . S
C391 C395 1.368 . S
C392 C373 1.429 . S
C392 C386 1.429 . S
C392 C393 1.523 . S
C393 C374 1.368 . S
C393 C387 1.368 . S
C393 C392 1.523 . S
C394 C378 1.429 . S
C394 C390 1.429 . S
C394 C395 1.523 . S
C395 C379 1.368 . S
C395 C391 1.368 . S
C395 C394 1.523 . S
H396 C371 0.950 . S
H397 C373 0.950 . S
H398 C374 0.949 . S
H399 C376 0.950 . S
H400 C378 0.950 . S
C401 C402 1.349 . S
C401 C403 1.327 . S
C401 H426 0.950 . S
C402 C401 1.349 . S
C402 C418 1.349 . S
C403 C401 1.327 . S
C403 C422 1.429 . S
C403 H427 0.950 . S
C404 C421 1.574 . S
C404 C423 1.368 . S
C404 H428 0.949 . S
H405 C409 0.949 . S
C406 C407 1.349 . S
C406 C408 1.327 . S
C406 H429 0.950 . S
C407 C406 1.349 . S
C407 C419 1.349 . S
C408 C406 1.327 . S
C408 C424 1.429 . S
C408 H430 0.950 . S
C409 H405 0.949 . S
C409 C417 1.574 . S
C409 C425 1.368 . S
H410 C418 0.950 . S
H411 C416 0.950 . S
H412 C417 0.949 . S
H413 C419 0.950 . S
H414 C420 0.950 . S
H415 C421 0.949 . S
C416 H411 0.950 . S
C416 C418 1.327 . S
C416 C422 1.429 . S
C417 C409 1.574 . S
C417 H412 0.949 . S
C417 C423 1.368 . S
C418 C402 1.349 . S
C418 H410 0.950 . S
C418 C416 1.327 . S
C419 C407 1.349 . S
C419 H413 0.950 . S
C419 C420 1.327 . S
C420 H414 0.950 . S
C420 C419 1.327 . S
C420 C424 1.429 . S
C421 C404 1.574 . S
C421 H415 0.949 . S
C421 C425 1.368 . S
C422 C403 1.429 . S
C422 C416 1.429 . S
C422 C423 1.523 . S
C423 C404 1.368 . S
C423 C417 1.368 . S
C423 C422 1.523 . S
C424 C408 1.429 . S
C424 C420 1.429 . S
C424 C425 1.523 . S
C425 C409 1.368 . S
C425 C421 1.368 . S
C425 C424 1.523 . S
H426 C401 0.950 . S
H427 C403 0.950 . S
H428 C404 0.949 . S
H429 C406 0.950 . S
H430 C408 0.950 . S
C431 C432 1.349 . S
C431 C433 1.327 . S
C431 H456 0.950 . S
C432 C431 1.349 . S
C432 C448 1.349 . S
C433 C431 1.327 . S
C433 C452 1.429 . S
C433 H457 0.950 . S
C434 C451 1.574 . S
C434 C453 1.368 . S
C434 H458 0.949 . S
H435 C439 0.949 . S
C436 C437 1.349 . S
C436 C438 1.327 . S
C436 H459 0.950 . S
C437 C436 1.349 . S
C437 C449 1.349 . S
C438 C436 1.327 . S
C438 C454 1.429 . S
C438 H460 0.950 . S
C439 H435 0.949 . S
C439 C447 1.574 . S
C439 C455 1.368 . S
H440 C448 0.950 . S
H441 C446 0.950 . S
H442 C447 0.949 . S
H443 C449 0.950 . S
H444 C450 0.950 . S
H445 C451 0.949 . S
C446 H441 0.950 . S
C446 C448 1.327 . S
C446 C452 1.429 . S
C447 C439 1.574 . S
C447 H442 0.949 . S
C447 C453 1.368 . S
C448 C432 1.349 . S
C448 H440 0.950 . S
C448 C446 1.327 . S
C449 C437 1.349 . S
C449 H443 0.950 . S
C449 C450 1.327 . S
C450 H444 0.950 . S
C450 C449 1.327 . S
C450 C454 1.429 . S
C451 C434 1.574 . S
C451 H445 0.949 . S
C451 C455 1.368 . S
C452 C433 1.429 . S
C452 C446 1.429 . S
C452 C453 1.523 . S
C453 C434 1.368 . S
C453 C447 1.368 . S
C453 C452 1.523 . S
C454 C438 1.429 . S
C454 C450 1.429 . S
C454 C455 1.523 . S
C455 C439 1.368 . S
C455 C451 1.368 . S
C455 C454 1.523 . S
H456 C431 0.950 . S
H457 C433 0.950 . S
H458 C434 0.949 . S
H459 C436 0.950 . S
H460 C438 0.950 . S
C461 C462 1.349 . S
C461 C463 1.327 . S
C461 H486 0.950 . S
C462 C461 1.349 . S
C462 C478 1.349 . S
C463 C461 1.327 . S
C463 C482 1.429 . S
C463 H487 0.950 . S
C464 C481 1.574 . S
C464 C483 1.368 . S
C464 H488 0.949 . S
H465 C469 0.949 . S
C466 C467 1.349 . S
C466 C468 1.327 . S
C466 H489 0.950 . S
C467 C466 1.349 . S
C467 C479 1.349 . S
C468 C466 1.327 . S
C468 C484 1.429 . S
C468 H490 0.950 . S
C469 H465 0.949 . S
C469 C477 1.574 . S
C469 C485 1.368 . S
H470 C478 0.950 . S
H471 C476 0.950 . S
H472 C477 0.949 . S
H473 C479 0.950 . S
H474 C480 0.950 . S
H475 C481 0.949 . S
C476 H471 0.950 . S
C476 C478 1.327 . S
C476 C482 1.429 . S
C477 C469 1.574 . S
C477 H472 0.949 . S
C477 C483 1.368 . S
C478 C462 1.349 . S
C478 H470 0.950 . S
C478 C476 1.327 . S
C479 C467 1.349 . S
C479 H473 0.950 . S
C479 C480 1.327 . S
C480 H474 0.950 . S
C480 C479 1.327 . S
C480 C484 1.429 . S
C481 C464 1.574 . S
C481 H475 0.949 . S
C481 C485 1.368 . S
C482 C463 1.429 . S
C482 C476 1.429 . S
C482 C483 1.523 . S
C483 C464 1.368 . S
C483 C477 1.368 . S
C483 C482 1.523 . S
C484 C468 1.429 . S
C484 C480 1.429 . S
C484 C485 1.523 . S
C485 C469 1.368 . S
C485 C481 1.368 . S
C485 C484 1.523 . S
H486 C461 0.950 . S
H487 C463 0.950 . S
H488 C464 0.949 . S
H489 C466 0.950 . S
H490 C468 0.950 . S
C491 C492 1.349 . S
C491 C493 1.327 . S
C491 H516 0.950 . S
C492 C491 1.349 . S
C492 C508 1.349 . S
C493 C491 1.327 . S
C493 C512 1.429 . S
C493 H517 0.950 . S
C494 C511 1.574 . S
C494 C513 1.368 . S
C494 H518 0.949 . S
H495 C499 0.949 . S
C496 C497 1.349 . S
C496 C498 1.327 . S
C496 H519 0.950 . S
C497 C496 1.349 . S
C497 C509 1.349 . S
C498 C496 1.327 . S
C498 C514 1.429 . S
C498 H520 0.950 . S
C499 H495 0.949 . S
C499 C507 1.574 . S
C499 C515 1.368 . S
H500 C508 0.950 . S
H501 C506 0.950 . S
H502 C507 0.949 . S
H503 C509 0.950 . S
H504 C510 0.950 . S
H505 C511 0.949 . S
C506 H501 0.950 . S
C506 C508 1.327 . S
C506 C512 1.429 . S
C507 C499 1.574 . S
C507 H502 0.949 . S
C507 C513 1.368 . S
C508 C492 1.349 . S
C508 H500 0.950 . S
C508 C506 1.327 . S
C509 C497 1.349 . S
C509 H503 0.950 . S
C509 C510 1.327 . S
C510 H504 0.950 . S
C510 C509 1.327 . S
C510 C514 1.429 . S
C511 C494 1.574 . S
C511 H505 0.949 . S
C511 C515 1.368 . S
C512 C493 1.429 . S
C512 C506 1.429 . S
C512 C513 1.523 . S
C513 C494 1.368 . S
C513 C507 1.368 . S
C513 C512 1.523 . S
C514 C498 1.429 . S
C514 C510 1.429 . S
C514 C515 1.523 . S
C515 C499 1.368 . S
C515 C511 1.368 . S
C515 C514 1.523 . S
H516 C491 0.950 . S
H517 C493 0.950 . S
H518 C494 0.949 . S
H519 C496 0.950 . S
H520 C498 0.950 . S
C521 C522 1.349 . S
C521 C523 1.327 . S
C521 H546 0.950 . S
C522 C521 1.349 . S
C522 C538 1.349 . S
C523 C521 1.327 . S
C523 C542 1.429 . S
C523 H547 0.950 . S
C524 C541 1.574 . S
C524 C543 1.368 . S
C524 H548 0.949 . S
H525 C529 0.949 . S
C526 C527 1.349 . S
C526 C528 1.327 . S
C526 H549 0.950 . S
C527 C526 1.349 . S
C527 C539 1.349 . S
C528 C526 1.327 . S
C528 C544 1.429 . S
C528 H550 0.950 . S
C529 H525 0.949 . S
C529 C537 1.574 . S
C529 C545 1.368 . S
H530 C538 0.950 . S
H531 C536 0.950 . S
H532 C537 0.949 . S
H533 C539 0.950 . S
H534 C540 0.950 . S
H535 C541 0.949 . S
C536 H531 0.950 . S
C536 C538 1.327 . S
C536 C542 1.429 . S
C537 C529 1.574 . S
C537 H532 0.949 . S
C537 C543 1.368 . S
C538 C522 1.349 . S
C538 H530 0.950 . S
C538 C536 1.327 . S
C539 C527 1.349 . S
C539 H533 0.950 . S
C539 C540 1.327 . S
C540 H534 0.950 . S
C540 C539 1.327 . S
C540 C544 1.429 . S
C541 C524 1.574 . S
C541 H535 0.949 . S
C541 C545 1.368 . S
C542 C523 1.429 . S
C542 C536 1.429 . S
C542 C543 1.523 . S
C543 C524 1.368 . S
C543 C537 1.368 . S
C543 C542 1.523 . S
C544 C528 1.429 . S
C544 C540 1.429 . S
C544 C545 1.523 . S
C545 C529 1.368 . S
C545 C541 1.368 . S
C545 C544 1.523 . S
H546 C521 0.950 . S
H547 C523 0.950 . S
H548 C524 0.949 . S
H549 C526 0.950 . S
H550 C528 0.950 . S
C551 C552 1.349 . S
C551 C553 1.327 . S
C551 H576 0.950 . S
C552 C551 1.349 . S
C552 C568 1.349 . S
C553 C551 1.327 . S
C553 C572 1.429 . S
C553 H577 0.950 . S
C554 C571 1.574 . S
C554 C573 1.368 . S
C554 H578 0.949 . S
H555 C559 0.949 . S
C556 C557 1.349 . S
C556 C558 1.327 . S
C556 H579 0.950 . S
C557 C556 1.349 . S
C557 C569 1.349 . S
C558 C556 1.327 . S
C558 C574 1.429 . S
C558 H580 0.950 . S
C559 H555 0.949 . S
C559 C567 1.574 . S
C559 C575 1.368 . S
H560 C568 0.950 . S
H561 C566 0.950 . S
H562 C567 0.949 . S
H563 C569 0.950 . S
H564 C570 0.950 . S
H565 C571 0.949 . S
C566 H561 0.950 . S
C566 C568 1.327 . S
C566 C572 1.429 . S
C567 C559 1.574 . S
C567 H562 0.949 . S
C567 C573 1.368 . S
C568 C552 1.349 . S
C568 H560 0.950 . S
C568 C566 1.327 . S
C569 C557 1.349 . S
C569 H563 0.950 . S
C569 C570 1.327 . S
C570 H564 0.950 . S
C570 C569 1.327 . S
C570 C574 1.429 . S
C571 C554 1.574 . S
C571 H565 0.949 . S
C571 C575 1.368 . S
C572 C553 1.429 . S
C572 C566 1.429 . S
C572 C573 1.523 . S
C573 C554 1.368 . S
C573 C567 1.368 . S
C573 C572 1.523 . S
C574 C558 1.429 . S
C574 C570 1.429 . S
C574 C575 1.523 . S
C575 C559 1.368 . S
C575 C571 1.368 . S
C575 C574 1.523 . S
H576 C551 0.950 . S
H577 C553 0.950 . S
H578 C554 0.949 . S
H579 C556 0.950 . S
H580 C558 0.950 . S
C581 C582 1.349 . S
C581 C583 1.327 . S
C581 H606 0.950 . S
C582 C581 1.349 . S
C582 C598 1.349 . S
C583 C581 1.327 . S
C583 C602 1.429 . S
C583 H607 0.950 . S
C584 C601 1.574 . S
C584 C603 1.368 . S
C584 H608 0.949 . S
H585 C589 0.949 . S
C586 C587 1.349 . S
C586 C588 1.327 . S
C586 H609 0.950 . S
C587 C586 1.349 . S
C587 C599 1.349 . S
C588 C586 1.327 . S
C588 C604 1.429 . S
C588 H610 0.950 . S
C589 H585 0.949 . S
C589 C597 1.574 . S
C589 C605 1.368 . S
H590 C598 0.950 . S
H591 C596 0.950 . S
H592 C597 0.949 . S
H593 C599 0.950 . S
H594 C600 0.950 . S
H595 C601 0.949 . S
C596 H591 0.950 . S
C596 C598 1.327 . S
C596 C602 1.429 . S
C597 C589 1.574 . S
C597 H592 0.949 . S
C597 C603 1.368 . S
C598 C582 1.349 . S
C598 H590 0.950 . S
C598 C596 1.327 . S
C599 C587 1.349 . S
C599 H593 0.950 . S
C599 C600 1.327 . S
C600 H594 0.950 . S
C600 C599 1.327 . S
C600 C604 1.429 . S
C601 C584 1.574 . S
C601 H595 0.949 . S
C601 C605 1.368 . S
C602 C583 1.429 . S
C602 C596 1.429 . S
C602 C603 1.523 . S
C603 C584 1.368 . S
C603 C597 1.368 . S
C603 C602 1.523 . S
C604 C588 1.429 . S
C604 C600 1.429 . S
C604 C605 1.523 . S
C605 C589 1.368 . S
C605 C601 1.368 . S
C605 C604 1.523 . S
H606 C581 0.950 . S
H607 C583 0.950 . S
H608 C584 0.949 . S
H609 C586 0.950 . S
H610 C588 0.950 . S
C611 C612 1.349 . S
C611 C613 1.327 . S
C611 H636 0.950 . S
C612 C611 1.349 . S
C612 C628 1.349 . S
C613 C611 1.327 . S
C613 C632 1.429 . S
C613 H637 0.950 . S
C614 C631 1.574 . S
C614 C633 1.368 . S
C614 H638 0.949 . S
H615 C619 0.949 . S
C616 C617 1.349 . S
C616 C618 1.327 . S
C616 H639 0.950 . S
C617 C616 1.349 . S
C617 C629 1.349 . S
C618 C616 1.327 . S
C618 C634 1.429 . S
C618 H640 0.950 . S
C619 H615 0.949 . S
C619 C627 1.574 . S
C619 C635 1.368 . S
H620 C628 0.950 . S
H621 C626 0.950 . S
H622 C627 0.949 . S
H623 C629 0.950 . S
H624 C630 0.950 . S
H625 C631 0.949 . S
C626 H621 0.950 . S
C626 C628 1.327 . S
C626 C632 1.429 . S
C627 C619 1.574 . S
C627 H622 0.949 . S
C627 C633 1.368 . S
C628 C612 1.349 . S
C628 H620 0.950 . S
C628 C626 1.327 . S
C629 C617 1.349 . S
C629 H623 0.950 . S
C629 C630 1.327 . S
C630 H624 0.950 . S
C630 C629 1.327 . S
C630 C634 1.429 . S
C631 C614 1.574 . S
C631 H625 0.949 . S
C631 C635 1.368 . S
C632 C613 1.429 . S
C632 C626 1.429 . S
C632 C633 1.523 . S
C633 C614 1.368 . S
C633 C627 1.368 . S
C633 C632 1.523 . S
C634 C618 1.429 . S
C634 C630 1.429 . S
C634 C635 1.523 . S
C635 C619 1.368 . S
C635 C631 1.368 . S
C635 C634 1.523 . S
H636 C611 0.950 . S
H637 C613 0.950 . S
H638 C614 0.949 . S
H639 C616 0.950 . S
H640 C618 0.950 . S
C641 C642 1.349 . S
C641 C643 1.327 . S
C641 H666 0.950 . S
C642 C641 1.349 . S
C642 C658 1.349 . S
C643 C641 1.327 . S
C643 C662 1.429 . S
C643 H667 0.950 . S
C644 C661 1.574 . S
C644 C663 1.368 . S
C644 H668 0.949 . S
H645 C649 0.949 . S
C646 C647 1.349 . S
C646 C648 1.327 . S
C646 H669 0.950 . S
C647 C646 1.349 . S
C647 C659 1.349 . S
C648 C646 1.327 . S
C648 C664 1.429 . S
C648 H670 0.950 . S
C649 H645 0.949 . S
C649 C657 1.574 . S
C649 C665 1.368 . S
H650 C658 0.950 . S
H651 C656 0.950 . S
H652 C657 0.949 . S
H653 C659 0.950 . S
H654 C660 0.950 . S
H655 C661 0.949 . S
C656 H651 0.950 . S
C656 C658 1.327 . S
C656 C662 1.429 . S
C657 C649 1.574 . S
C657 H652 0.949 . S
C657 C663 1.368 . S
C658 C642 1.349 . S
C658 H650 0.950 . S
C658 C656 1.327 . S
C659 C647 1.349 . S
C659 H653 0.950 . S
C659 C660 1.327 . S
C660 H654 0.950 . S
C660 C659 1.327 . S
C660 C664 1.429 . S
C661 C644 1.574 . S
C661 H655 0.949 . S
C661 C665 1.368 . S
C662 C643 1.429 . S
C662 C656 1.429 . S
C662 C663 1.523 . S
C663 C644 1.368 . S
C663 C657 1.368 . S
C663 C662 1.523 . S
C664 C648 1.429 . S
C664 C660 1.429 . S
C664 C665 1.523 . S
C665 C649 1.368 . S
C665 C661 1.368 . S
C665 C664 1.523 . S
H666 C641 0.950 . S
H667 C643 0.950 . S
H668 C644 0.949 . S
H669 C646 0.950 . S
H670 C648 0.950 . S
C671 C672 1.349 . S
C671 C673 1.327 . S
C671 H696 0.950 . S
C672 C671 1.349 . S
C672 C688 1.349 . S
C673 C671 1.327 . S
C673 C692 1.429 . S
C673 H697 0.950 . S
C674 C691 1.574 . S
C674 C693 1.368 . S
C674 H698 0.949 . S
H675 C679 0.949 . S
C676 C677 1.349 . S
C676 C678 1.327 . S
C676 H699 0.950 . S
C677 C676 1.349 . S
C677 C689 1.349 . S
C678 C676 1.327 . S
C678 C694 1.429 . S
C678 H700 0.950 . S
C679 H675 0.949 . S
C679 C687 1.574 . S
C679 C695 1.368 . S
H680 C688 0.950 . S
H681 C686 0.950 . S
H682 C687 0.949 . S
H683 C689 0.950 . S
H684 C690 0.950 . S
H685 C691 0.949 . S
C686 H681 0.950 . S
C686 C688 1.327 . S
C686 C692 1.429 . S
C687 C679 1.574 . S
C687 H682 0.949 . S
C687 C693 1.368 . S
C688 C672 1.349 . S
C688 H680 0.950 . S
C688 C686 1.327 . S
C689 C677 1.349 . S
C689 H683 0.950 . S
C689 C690 1.327 . S
C690 H684 0.950 . S
C690 C689 1.327 . S
C690 C694 1.429 . S
C691 C674 1.574 . S
C691 H685 0.949 . S
C691 C695 1.368 . S
C692 C673 1.429 . S
C692 C686 1.429 . S
C692 C693 1.523 . S
C693 C674 1.368 . S
C693 C687 1.368 . S
C693 C692 1.523 . S
C694 C678 1.429 . S
C694 C690 1.429 . S
C694 C695 1.523 . S
C695 C679 1.368 . S
C695 C691 1.368 . S
C695 C694 1.523 . S
H696 C671 0.950 . S
H697 C673 0.950 . S
H698 C674 0.949 . S
H699 C676 0.950 . S
H700 C678 0.950 . S
C701 C702 1.349 . S
C701 C703 1.327 . S
C701 H726 0.950 . S
C702 C701 1.349 . S
C702 C718 1.349 . S
C703 C701 1.327 . S
C703 C722 1.429 . S
C703 H727 0.950 . S
C704 C721 1.574 . S
C704 C723 1.368 . S
C704 H728 0.949 . S
H705 C709 0.949 . S
C706 C707 1.349 . S
C706 C708 1.327 . S
C706 H729 0.950 . S
C707 C706 1.349 . S
C707 C719 1.349 . S
C708 C706 1.327 . S
C708 C724 1.429 . S
C708 H730 0.950 . S
C709 H705 0.949 . S
C709 C717 1.574 . S
C709 C725 1.368 . S
H710 C718 0.950 . S
H711 C716 0.950 . S
H712 C717 0.949 . S
H713 C719 0.950 . S
H714 C720 0.950 . S
H715 C721 0.949 . S
C716 H711 0.950 . S
C716 C718 1.327 . S
C716 C722 1.429 . S
C717 C709 1.574 . S
C717 H712 0.949 . S
C717 C723 1.368 . S
C718 C702 1.349 . S
C718 H710 0.950 . S
C718 C716 1.327 . S
C719 C707 1.349 . S
C719 H713 0.950 . S
C719 C720 1.327 . S
C720 H714 0.950 . S
C720 C719 1.327 . S
C720 C724 1.429 . S
C721 C704 1.574 . S
C721 H715 0.949 . S
C721 C725 1.368 . S
C722 C703 1.429 . S
C722 C716 1.429 . S
C722 C723 1.523 . S
C723 C704 1.368 . S
C723 C717 1.368 . S
C723 C722 1.523 . S
C724 C708 1.429 . S
C724 C720 1.429 . S
C724 C725 1.523 . S
C725 C709 1.368 . S
C725 C721 1.368 . S
C725 C724 1.523 . S
H726 C701 0.950 . S
H727 C703 0.950 . S
H728 C704 0.949 . S
H729 C706 0.950 . S
H730 C708 0.950 . S
C731 C732 1.349 . S
C731 C733 1.327 . S
C731 H756 0.950 . S
C732 C731 1.349 . S
C732 C748 1.349 . S
C733 C731 1.327 . S
C733 C752 1.429 . S
C733 H757 0.950 . S
C734 C751 1.574 . S
C734 C753 1.368 . S
C734 H758 0.949 . S
H735 C739 0.949 . S
C736 C737 1.349 . S
C736 C738 1.327 . S
C736 H759 0.950 . S
C737 C736 1.349 . S
C737 C749 1.349 . S
C738 C736 1.327 . S
C738 C754 1.429 . S
C738 H760 0.950 . S
C739 H735 0.949 . S
C739 C747 1.574 . S
C739 C755 1.368 . S
H740 C748 0.950 . S
H741 C746 0.950 . S
H742 C747 0.949 . S
H743 C749 0.950 . S
H744 C750 0.950 . S
H745 C751 0.949 . S
C746 H741 0.950 . S
C746 C748 1.327 . S
C746 C752 1.429 . S
C747 C739 1.574 . S
C747 H742 0.949 . S
C747 C753 1.368 . S
C748 C732 1.349 . S
C748 H740 0.950 . S
C748 C746 1.327 . S
C749 C737 1.349 . S
C749 H743 0.950 . S
C749 C750 1.327 . S
C750 H744 0.950 . S
C750 C749 1.327 . S
C750 C754 1.429 . S
C751 C734 1.574 . S
C751 H745 0.949 . S
C751 C755 1.368 . S
C752 C733 1.429 . S
C752 C746 1.429 . S
C752 C753 1.523 . S
C753 C734 1.368 . S
C753 C747 1.368 . S
C753 C752 1.523 . S
C754 C738 1.429 . S
C754 C750 1.429 . S
C754 C755 1.523 . S
C755 C739 1.368 . S
C755 C751 1.368 . S
C755 C754 1.523 . S
H756 C731 0.950 . S
H757 C733 0.950 . S
H758 C734 0.949 . S
H759 C736 0.950 . S
H760 C738 0.950 . S
C761 C762 1.349 . S
C761 C763 1.327 . S
C761 H786 0.950 . S
C762 C761 1.349 . S
C762 C778 1.349 . S
C763 C761 1.327 . S
C763 C782 1.429 . S
C763 H787 0.950 . S
C764 C781 1.574 . S
C764 C783 1.368 . S
C764 H788 0.949 . S
H765 C769 0.949 . S
C766 C767 1.349 . S
C766 C768 1.327 . S
C766 H789 0.950 . S
C767 C766 1.349 . S
C767 C779 1.349 . S
C768 C766 1.327 . S
C768 C784 1.429 . S
C768 H790 0.950 . S
C769 H765 0.949 . S
C769 C777 1.574 . S
C769 C785 1.368 . S
H770 C778 0.950 . S
H771 C776 0.950 . S
H772 C777 0.949 . S
H773 C779 0.950 . S
H774 C780 0.950 . S
H775 C781 0.949 . S
C776 H771 0.950 . S
C776 C778 1.327 . S
C776 C782 1.429 . S
C777 C769 1.574 . S
C777 H772 0.949 . S
C777 C783 1.368 . S
C778 C762 1.349 . S
C778 H770 0.950 . S
C778 C776 1.327 . S
C779 C767 1.349 . S
C779 H773 0.950 . S
C779 C780 1.327 . S
C780 H774 0.950 . S
C780 C779 1.327 . S
C780 C784 1.429 . S
C781 C764 1.574 . S
C781 H775 0.949 . S
C781 C785 1.368 . S
C782 C763 1.429 . S
C782 C776 1.429 . S
C782 C783 1.523 . S
C783 C764 1.368 . S
C783 C777 1.368 . S
C783 C782 1.523 . S
C784 C768 1.429 . S
C784 C780 1.429 . S
C784 C785 1.523 . S
C785 C769 1.368 . S
C785 C781 1.368 . S
C785 C784 1.523 . S
H786 C761 0.950 . S
H787 C763 0.950 . S
H788 C764 0.949 . S
H789 C766 0.950 . S
H790 C768 0.950 . S
C791 C792 1.349 . S
C791 C793 1.327 . S
C791 H816 0.950 . S
C792 C791 1.349 . S
C792 C808 1.349 . S
C793 C791 1.327 . S
C793 C812 1.429 . S
C793 H817 0.950 . S
C794 C811 1.574 . S
C794 C813 1.368 . S
C794 H818 0.949 . S
H795 C799 0.949 . S
C796 C797 1.349 . S
C796 C798 1.327 . S
C796 H819 0.950 . S
C797 C796 1.349 . S
C797 C809 1.349 . S
C798 C796 1.327 . S
C798 C814 1.429 . S
C798 H820 0.950 . S
C799 H795 0.949 . S
C799 C807 1.574 . S
C799 C815 1.368 . S
H800 C808 0.950 . S
H801 C806 0.950 . S
H802 C807 0.949 . S
H803 C809 0.950 . S
H804 C810 0.950 . S
H805 C811 0.949 . S
C806 H801 0.950 . S
C806 C808 1.327 . S
C806 C812 1.429 . S
C807 C799 1.574 . S
C807 H802 0.949 . S
C807 C813 1.368 . S
C808 C792 1.349 . S
C808 H800 0.950 . S
C808 C806 1.327 . S
C809 C797 1.349 . S
C809 H803 0.950 . S
C809 C810 1.327 . S
C810 H804 0.950 . S
C810 C809 1.327 . S
C810 C814 1.429 . S
C811 C794 1.574 . S
C811 H805 0.949 . S
C811 C815 1.368 . S
C812 C793 1.429 . S
C812 C806 1.429 . S
C812 C813 1.523 . S
C813 C794 1.368 . S
C813 C807 1.368 . S
C813 C812 1.523 . S
C814 C798 1.429 . S
C814 C810 1.429 . S
C814 C815 1.523 . S
C815 C799 1.368 . S
C815 C811 1.368 . S
C815 C814 1.523 . S
H816 C791 0.950 . S
H817 C793 0.950 . S
H818 C794 0.949 . S
H819 C796 0.950 . S
H820 C798 0.950 . S
C821 C822 1.349 . S
C821 C823 1.327 . S
C821 H846 0.950 . S
C822 C821 1.349 . S
C822 C838 1.349 . S
C823 C821 1.327 . S
C823 C842 1.429 . S
C823 H847 0.950 . S
C824 C841 1.574 . S
C824 C843 1.368 . S
C824 H848 0.949 . S
H825 C829 0.949 . S
C826 C827 1.349 . S
C826 C828 1.327 . S
C826 H849 0.950 . S
C827 C826 1.349 . S
C827 C839 1.349 . S
C828 C826 1.327 . S
C828 C844 1.429 . S
C828 H850 0.950 . S
C829 H825 0.949 . S
C829 C837 1.574 . S
C829 C845 1.368 . S
H830 C838 0.950 . S
H831 C836 0.950 . S
H832 C837 0.949 . S
H833 C839 0.950 . S
H834 C840 0.950 . S
H835 C841 0.949 . S
C836 H831 0.950 . S
C836 C838 1.327 . S
C836 C842 1.429 . S
C837 C829 1.574 . S
C837 H832 0.949 . S
C837 C843 1.368 . S
C838 C822 1.349 . S
C838 H830 0.950 . S
C838 C836 1.327 . S
C839 C827 1.349 . S
C839 H833 0.950 . S
C839 C840 1.327 . S
C840 H834 0.950 . S
C840 C839 1.327 . S
C840 C844 1.429 . S
C841 C824 1.574 . S
C841 H835 0.949 . S
C841 C845 1.368 . S
C842 C823 1.429 . S
C842 C836 1.429 . S
C842 C843 1.523 . S
C843 C824 1.368 . S
C843 C837 1.368 . S
C843 C842 1.523 . S
C844 C828 1.429 . S
C844 C840 1.429 . S
C844 C845 1.523 . S
C845 C829 1.368 . S
C845 C841 1.368 . S
C845 C844 1.523 . S
H846 C821 0.950 . S
H847 C823 0.950 . S
H848 C824 0.949 . S
H849 C826 0.950 . S
H850 C828 0.950 . S
C851 C852 1.349 . S
C851 C853 1.327 . S
C851 H876 0.950 . S
C852 C851 1.349 . S
C852 C868 1.349 . S
C853 C851 1.327 . S
C853 C872 1.429 . S
C853 H877 0.950 . S
C854 C871 1.574 . S
C854 C873 1.368 . S
C854 H878 0.949 . S
H855 C859 0.949 . S
C856 C857 1.349 . S
C856 C858 1.327 . S
C856 H879 0.950 . S
C857 C856 1.349 . S
C857 C869 1.349 . S
C858 C856 1.327 . S
C858 C874 1.429 . S
C858 H880 0.950 . S
C859 H855 0.949 . S
C859 C867 1.574 . S
C859 C875 1.368 . S
H860 C868 0.950 . S
H861 C866 0.950 . S
H862 C867 0.949 . S
H863 C869 0.950 . S
H864 C870 0.950 . S
H865 C871 0.949 . S
C866 H861 0.950 . S
C866 C868 1.327 . S
C866 C872 1.429 . S
C867 C859 1.574 . S
C867 H862 0.949 . S
C867 C873 1.368 . S
C868 C852 1.349 . S
C868 H860 0.950 . S
C868 C866 1.327 . S
C869 C857 1.349 . S
C869 H863 0.950 . S
C869 C870 1.327 . S
C870 H864 0.950 . S
C870 C869 1.327 . S
C870 C874 1.429 . S
C871 C854 1.574 . S
C871 H865 0.949 . S
C871 C875 1.368 . S
C872 C853 1.429 . S
C872 C866 1.429 . S
C872 C873 1.523 . S
C873 C854 1.368 . S
C873 C867 1.368 . S
C873 C872 1.523 . S
C874 C858 1.429 . S
C874 C870 1.429 . S
C874 C875 1.523 . S
C875 C859 1.368 . S
C875 C871 1.368 . S
C875 C874 1.523 . S
H876 C851 0.950 . S
H877 C853 0.950 . S
H878 C854 0.949 . S
H879 C856 0.950 . S
H880 C858 0.950 . S
C881 C882 1.349 . S
C881 C883 1.327 . S
C881 H906 0.950 . S
C882 C881 1.349 . S
C882 C898 1.349 . S
C883 C881 1.327 . S
C883 C902 1.429 . S
C883 H907 0.950 . S
C884 C901 1.574 . S
C884 C903 1.368 . S
C884 H908 0.949 . S
H885 C889 0.949 . S
C886 C887 1.349 . S
C886 C888 1.327 . S
C886 H909 0.950 . S
C887 C886 1.349 . S
C887 C899 1.349 . S
C888 C886 1.327 . S
C888 C904 1.429 . S
C888 H910 0.950 . S
C889 H885 0.949 . S
C889 C897 1.574 . S
C889 C905 1.368 . S
H890 C898 0.950 . S
H891 C896 0.950 . S
H892 C897 0.949 . S
H893 C899 0.950 . S
H894 C900 0.950 . S
H895 C901 0.949 . S
C896 H891 0.950 . S
C896 C898 1.327 . S
C896 C902 1.429 . S
C897 C889 1.574 . S
C897 H892 0.949 . S
C897 C903 1.368 . S
C898 C882 1.349 . S
C898 H890 0.950 . S
C898 C896 1.327 . S
C899 C887 1.349 . S
C899 H893 0.950 . S
C899 C900 1.327 . S
C900 H894 0.950 . S
C900 C899 1.327 . S
C900 C904 1.429 . S
C901 C884 1.574 . S
C901 H895 0.949 . S
C901 C905 1.368 . S
C902 C883 1.429 . S
C902 C896 1.429 . S
C902 C903 1.523 . S
C903 C884 1.368 . S
C903 C897 1.368 . S
C903 C902 1.523 . S
C904 C888 1.429 . S
C904 C900 1.429 . S
C904 C905 1.523 . S
C905 C889 1.368 . S
C905 C901 1.368 . S
C905 C904 1.523 . S
H906 C881 0.950 . S
H907 C883 0.950 . S
H908 C884 0.949 . S
H909 C886 0.950 . S
H910 C888 0.950 . S
C911 C912 1.349 . S
C911 C913 1.327 . S
C911 H936 0.950 . S
C912 C911 1.349 . S
C912 C928 1.349 . S
C913 C911 1.327 . S
C913 C932 1.429 . S
C913 H937 0.950 . S
C914 C931 1.574 . S
C914 C933 1.368 . S
C914 H938 0.949 . S
H915 C919 0.949 . S
C916 C917 1.349 . S
C916 C918 1.327 . S
C916 H939 0.950 . S
C917 C916 1.349 . S
C917 C929 1.349 . S
C918 C916 1.327 . S
C918 C934 1.429 . S
C918 H940 0.950 . S
C919 H915 0.949 . S
C919 C927 1.574 . S
C919 C935 1.368 . S
H920 C928 0.950 . S
H921 C926 0.950 . S
H922 C927 0.949 . S
H923 C929 0.950 . S
H924 C930 0.950 . S
H925 C931 0.949 . S
C926 H921 0.950 . S
C926 C928 1.327 . S
C926 C932 1.429 . S
C927 C919 1.574 . S
C927 H922 0.949 . S
C927 C933 1.368 . S
C928 C912 1.349 . S
C928 H920 0.950 . S
C928 C926 1.327 . S
C929 C917 1.349 . S
C929 H923 0.950 . S
C929 C930 1.327 . S
C930 H924 0.950 . S
C930 C929 1.327 . S
C930 C934 1.429 . S
C931 C914 1.574 . S
C931 H925 0.949 . S
C931 C935 1.368 . S
C932 C913 1.429 . S
C932 C926 1.429 . S
C932 C933 1.523 . S
C933 C914 1.368 . S
C933 C927 1.368 . S
C933 C932 1.523 . S
C934 C918 1.429 . S
C934 C930 1.429 . S
C934 C935 1.523 . S
C935 C919 1.368 . S
C935 C931 1.368 . S
C935 C934 1.523 . S
H936 C911 0.950 . S
H937 C913 0.950 . S
H938 C914 0.949 . S
H939 C916 0.950 . S
H940 C918 0.950 . S
C941 C942 1.349 . S
C941 C943 1.327 . S
C941 H966 0.950 . S
C942 C941 1.349 . S
C942 C958 1.349 . S
C943 C941 1.327 . S
C943 C962 1.429 . S
C943 H967 0.950 . S
C944 C961 1.574 . S
C944 C963 1.368 . S
C944 H968 0.949 . S
H945 C949 0.949 . S
C946 C947 1.349 . S
C946 C948 1.327 . S
C946 H969 0.950 . S
C947 C946 1.349 . S
C947 C959 1.349 . S
C948 C946 1.327 . S
C948 C964 1.429 . S
C948 H970 0.950 . S
C949 H945 0.949 . S
C949 C957 1.574 . S
C949 C965 1.368 . S
H950 C958 0.950 . S
H951 C956 0.950 . S
H952 C957 0.949 . S
H953 C959 0.950 . S
H954 C960 0.950 . S
H955 C961 0.949 . S
C956 H951 0.950 . S
C956 C958 1.327 . S
C956 C962 1.429 . S
C957 C949 1.574 . S
C957 H952 0.949 . S
C957 C963 1.368 . S
C958 C942 1.349 . S
C958 H950 0.950 . S
C958 C956 1.327 . S
C959 C947 1.349 . S
C959 H953 0.950 . S
C959 C960 1.327 . S
C960 H954 0.950 . S
C960 C959 1.327 . S
C960 C964 1.429 . S
C961 C944 1.574 . S
C961 H955 0.949 . S
C961 C965 1.368 . S
C962 C943 1.429 . S
C962 C956 1.429 . S
C962 C963 1.523 . S
C963 C944 1.368 . S
C963 C957 1.368 . S
C963 C962 1.523 . S
C964 C948 1.429 . S
C964 C960 1.429 . S
C964 C965 1.523 . S
C965 C949 1.368 . S
C965 C961 1.368 . S
C965 C964 1.523 . S
H966 C941 0.950 . S
H967 C943 0.950 . S
H968 C944 0.949 . S
H969 C946 0.950 . S
H970 C948 0.950 . S
C257 C176 1.409 . S
C252 C11 1.360 . S
C287 C212 1.114 . S
C282 C25 1.177 . S
C317 C177 1.924 . S
C312 C40 1.921 . S
C347 C207 1.582 . S
C342 C59 1.652 . S
C377 C174 1.354 . S
C372 C82 1.421 . S
C402 C101 2.202 . S
C407 C210 2.194 . S
C432 C116 0.303 . S
C437 C179 0.591 . S
C467 C209 1.498 . S
C462 C144 1.372 . S
C497 C213 2.077 . S
C492 C2 2.107 . S
C527 C178 0.829 . S
C522 C21 0.838 . S
C557 C206 1.704 . S
C552 C49 1.467 . S
C587 C175 1.086 . S
C582 C63 1.204 . S
C617 C208 1.832 . S
C612 C78 1.960 . S
C642 C106 1.350 . S
C647 C173 1.383 . S
C672 C120 0.880 . S
C677 C211 0.867 . S
C707 C180 1.667 . S
C702 C135 1.731 . S
C737 C242 2.219 . S
C732 C6 2.308 . S
C762 C87 1.680 . S
C767 C245 1.733 . S
C797 C244 2.366 . S
C792 C97 2.423 . S
C822 C125 0.787 . S
C827 C243 0.798 . S
C857 C246 2.258 . S
C852 C139 2.396 . S
C882 C44 2.205 . S
C887 C240 2.119 . S
C917 C239 2.000 . S
C912 C68 1.923 . S
C942 C30 0.656 . S
C947 C241 0.593 . S
