# Generated by pormake.
# Topology ptr, (4,4)-cn, num edge types: 1
# Building blocks:
#     Node 0, Type 0, BuildingBlock: NAHDIM_clean_sbu_0, # of connection points: 4
#     Node 1, Type 0, BuildingBlock: NAHDIM_clean_sbu_0, # of connection points: 4
#     Node 2, Type 0, BuildingBlock: NAHDIM_clean_sbu_0, # of connection points: 4
#     Node 3, Type 0, BuildingBlock: NAHDIM_clean_sbu_0, # of connection points: 4
#     Node 4, Type 0, BuildingBlock: NAHDIM_clean_sbu_0, # of connection points: 4
#     Node 5, Type 0, BuildingBlock: NAHDIM_clean_sbu_0, # of connection points: 4
#     Node 6, Type 0, BuildingBlock: NAHDIM_clean_sbu_0, # of connection points: 4
#     Node 7, Type 0, BuildingBlock: NAHDIM_clean_sbu_0, # of connection points: 4
#     Node 8, Type 0, BuildingBlock: NAHDIM_clean_sbu_0, # of connection points: 4
#     Node 9, Type 0, BuildingBlock: NAHDIM_clean_sbu_0, # of connection points: 4
#     Node 10, Type 0, BuildingBlock: NAHDIM_clean_sbu_0, # of connection points: 4
#     Node 11, Type 0, BuildingBlock: NAHDIM_clean_sbu_0, # of connection points: 4
#     Node 12, Type 0, BuildingBlock: NAHDIM_clean_sbu_0, # of connection points: 4
#     Node 13, Type 0, BuildingBlock: NAHDIM_clean_sbu_0, # of connection points: 4
#     Node 14, Type 0, BuildingBlock: NAHDIM_clean_sbu_0, # of connection points: 4
#     Node 15, Type 0, BuildingBlock: NAHDIM_clean_sbu_0, # of connection points: 4
#     Node 16, Type 0, BuildingBlock: NAHDIM_clean_sbu_0, # of connection points: 4
#     Node 17, Type 0, BuildingBlock: NAHDIM_clean_sbu_0, # of connection points: 4
#     Node 18, Type 1, BuildingBlock: NAHDIM_clean_linker_0, # of connection points: 4
#     Node 19, Type 1, BuildingBlock: NAHDIM_clean_linker_0, # of connection points: 4
#     Node 20, Type 1, BuildingBlock: NAHDIM_clean_linker_0, # of connection points: 4
#     Node 21, Type 1, BuildingBlock: NAHDIM_clean_linker_0, # of connection points: 4
#     Node 22, Type 1, BuildingBlock: NAHDIM_clean_linker_0, # of connection points: 4
#     Node 23, Type 1, BuildingBlock: NAHDIM_clean_linker_0, # of connection points: 4
#     Node 24, Type 1, BuildingBlock: NAHDIM_clean_linker_0, # of connection points: 4
#     Node 25, Type 1, BuildingBlock: NAHDIM_clean_linker_0, # of connection points: 4
#     Node 26, Type 1, BuildingBlock: NAHDIM_clean_linker_0, # of connection points: 4
#     Node 27, Type 1, BuildingBlock: NAHDIM_clean_linker_0, # of connection points: 4
#     Node 28, Type 1, BuildingBlock: NAHDIM_clean_linker_0, # of connection points: 4
#     Node 29, Type 1, BuildingBlock: NAHDIM_clean_linker_0, # of connection points: 4
#     Node 30, Type 1, BuildingBlock: NAHDIM_clean_linker_0, # of connection points: 4
#     Node 31, Type 1, BuildingBlock: NAHDIM_clean_linker_0, # of connection points: 4
#     Node 32, Type 1, BuildingBlock: NAHDIM_clean_linker_0, # of connection points: 4
#     Node 33, Type 1, BuildingBlock: NAHDIM_clean_linker_0, # of connection points: 4
#     Node 34, Type 1, BuildingBlock: NAHDIM_clean_linker_0, # of connection points: 4
#     Node 35, Type 1, BuildingBlock: NAHDIM_clean_linker_0, # of connection points: 4
#     Edge 36, Type (0, 1), BuildingBlock: CIFDUS_clean_linker_0, # of connection points: 2
#     Edge 37, Type (0, 1), BuildingBlock: CIFDUS_clean_linker_0, # of connection points: 2
#     Edge 38, Type (0, 1), BuildingBlock: CIFDUS_clean_linker_0, # of connection points: 2
#     Edge 39, Type (0, 1), BuildingBlock: CIFDUS_clean_linker_0, # of connection points: 2
#     Edge 40, Type (0, 1), BuildingBlock: CIFDUS_clean_linker_0, # of connection points: 2
#     Edge 41, Type (0, 1), BuildingBlock: CIFDUS_clean_linker_0, # of connection points: 2
#     Edge 42, Type (0, 1), BuildingBlock: CIFDUS_clean_linker_0, # of connection points: 2
#     Edge 43, Type (0, 1), BuildingBlock: CIFDUS_clean_linker_0, # of connection points: 2
#     Edge 44, Type (0, 1), BuildingBlock: CIFDUS_clean_linker_0, # of connection points: 2
#     Edge 45, Type (0, 1), BuildingBlock: CIFDUS_clean_linker_0, # of connection points: 2
#     Edge 46, Type (0, 1), BuildingBlock: CIFDUS_clean_linker_0, # of connection points: 2
#     Edge 47, Type (0, 1), BuildingBlock: CIFDUS_clean_linker_0, # of connection points: 2
#     Edge 48, Type (0, 1), BuildingBlock: CIFDUS_clean_linker_0, # of connection points: 2
#     Edge 49, Type (0, 1), BuildingBlock: CIFDUS_clean_linker_0, # of connection points: 2
#     Edge 50, Type (0, 1), BuildingBlock: CIFDUS_clean_linker_0, # of connection points: 2
#     Edge 51, Type (0, 1), BuildingBlock: CIFDUS_clean_linker_0, # of connection points: 2
#     Edge 52, Type (0, 1), BuildingBlock: CIFDUS_clean_linker_0, # of connection points: 2
#     Edge 53, Type (0, 1), BuildingBlock: CIFDUS_clean_linker_0, # of connection points: 2
#     Edge 54, Type (0, 1), BuildingBlock: CIFDUS_clean_linker_0, # of connection points: 2
#     Edge 55, Type (0, 1), BuildingBlock: CIFDUS_clean_linker_0, # of connection points: 2
#     Edge 56, Type (0, 1), BuildingBlock: CIFDUS_clean_linker_0, # of connection points: 2
#     Edge 57, Type (0, 1), BuildingBlock: CIFDUS_clean_linker_0, # of connection points: 2
#     Edge 58, Type (0, 1), BuildingBlock: CIFDUS_clean_linker_0, # of connection points: 2
#     Edge 59, Type (0, 1), BuildingBlock: CIFDUS_clean_linker_0, # of connection points: 2
#     Edge 60, Type (0, 1), BuildingBlock: CIFDUS_clean_linker_0, # of connection points: 2
#     Edge 61, Type (0, 1), BuildingBlock: CIFDUS_clean_linker_0, # of connection points: 2
#     Edge 62, Type (0, 1), BuildingBlock: CIFDUS_clean_linker_0, # of connection points: 2
#     Edge 63, Type (0, 1), BuildingBlock: CIFDUS_clean_linker_0, # of connection points: 2
#     Edge 64, Type (0, 1), BuildingBlock: CIFDUS_clean_linker_0, # of connection points: 2
#     Edge 65, Type (0, 1), BuildingBlock: CIFDUS_clean_linker_0, # of connection points: 2
#     Edge 66, Type (0, 1), BuildingBlock: CIFDUS_clean_linker_0, # of connection points: 2
#     Edge 67, Type (0, 1), BuildingBlock: CIFDUS_clean_linker_0, # of connection points: 2
#     Edge 68, Type (0, 1), BuildingBlock: CIFDUS_clean_linker_0, # of connection points: 2
#     Edge 69, Type (0, 1), BuildingBlock: CIFDUS_clean_linker_0, # of connection points: 2
#     Edge 70, Type (0, 1), BuildingBlock: CIFDUS_clean_linker_0, # of connection points: 2
#     Edge 71, Type (0, 1), BuildingBlock: CIFDUS_clean_linker_0, # of connection points: 2
#     Edge 72, Type (0, 1), BuildingBlock: CIFDUS_clean_linker_0, # of connection points: 2
#     Edge 73, Type (0, 1), BuildingBlock: CIFDUS_clean_linker_0, # of connection points: 2
#     Edge 74, Type (0, 1), BuildingBlock: CIFDUS_clean_linker_0, # of connection points: 2
#     Edge 75, Type (0, 1), BuildingBlock: CIFDUS_clean_linker_0, # of connection points: 2
#     Edge 76, Type (0, 1), BuildingBlock: CIFDUS_clean_linker_0, # of connection points: 2
#     Edge 77, Type (0, 1), BuildingBlock: CIFDUS_clean_linker_0, # of connection points: 2
#     Edge 78, Type (0, 1), BuildingBlock: CIFDUS_clean_linker_0, # of connection points: 2
#     Edge 79, Type (0, 1), BuildingBlock: CIFDUS_clean_linker_0, # of connection points: 2
#     Edge 80, Type (0, 1), BuildingBlock: CIFDUS_clean_linker_0, # of connection points: 2
#     Edge 81, Type (0, 1), BuildingBlock: CIFDUS_clean_linker_0, # of connection points: 2
#     Edge 82, Type (0, 1), BuildingBlock: CIFDUS_clean_linker_0, # of connection points: 2
#     Edge 83, Type (0, 1), BuildingBlock: CIFDUS_clean_linker_0, # of connection points: 2
#     Edge 84, Type (0, 1), BuildingBlock: CIFDUS_clean_linker_0, # of connection points: 2
#     Edge 85, Type (0, 1), BuildingBlock: CIFDUS_clean_linker_0, # of connection points: 2
#     Edge 86, Type (0, 1), BuildingBlock: CIFDUS_clean_linker_0, # of connection points: 2
#     Edge 87, Type (0, 1), BuildingBlock: CIFDUS_clean_linker_0, # of connection points: 2
#     Edge 88, Type (0, 1), BuildingBlock: CIFDUS_clean_linker_0, # of connection points: 2
#     Edge 89, Type (0, 1), BuildingBlock: CIFDUS_clean_linker_0, # of connection points: 2
#     Edge 90, Type (0, 1), BuildingBlock: CIFDUS_clean_linker_0, # of connection points: 2
#     Edge 91, Type (0, 1), BuildingBlock: CIFDUS_clean_linker_0, # of connection points: 2
#     Edge 92, Type (0, 1), BuildingBlock: CIFDUS_clean_linker_0, # of connection points: 2
#     Edge 93, Type (0, 1), BuildingBlock: CIFDUS_clean_linker_0, # of connection points: 2
#     Edge 94, Type (0, 1), BuildingBlock: CIFDUS_clean_linker_0, # of connection points: 2
#     Edge 95, Type (0, 1), BuildingBlock: CIFDUS_clean_linker_0, # of connection points: 2
#     Edge 96, Type (0, 1), BuildingBlock: CIFDUS_clean_linker_0, # of connection points: 2
#     Edge 97, Type (0, 1), BuildingBlock: CIFDUS_clean_linker_0, # of connection points: 2
#     Edge 98, Type (0, 1), BuildingBlock: CIFDUS_clean_linker_0, # of connection points: 2
#     Edge 99, Type (0, 1), BuildingBlock: CIFDUS_clean_linker_0, # of connection points: 2
#     Edge 100, Type (0, 1), BuildingBlock: CIFDUS_clean_linker_0, # of connection points: 2
#     Edge 101, Type (0, 1), BuildingBlock: CIFDUS_clean_linker_0, # of connection points: 2
#     Edge 102, Type (0, 1), BuildingBlock: CIFDUS_clean_linker_0, # of connection points: 2
#     Edge 103, Type (0, 1), BuildingBlock: CIFDUS_clean_linker_0, # of connection points: 2
#     Edge 104, Type (0, 1), BuildingBlock: CIFDUS_clean_linker_0, # of connection points: 2
#     Edge 105, Type (0, 1), BuildingBlock: CIFDUS_clean_linker_0, # of connection points: 2
#     Edge 106, Type (0, 1), BuildingBlock: CIFDUS_clean_linker_0, # of connection points: 2
#     Edge 107, Type (0, 1), BuildingBlock: CIFDUS_clean_linker_0, # of connection points: 2
# Relax obj value: 0.084
# Max RMSD: 0.308
# Mean RMSD: 0.119
data_MOF--net-ptr--node1-NAHDIM_clean_sbu_0--node2-NAHDIM_clean_linker_0--edge1-CIFDUS_clean_linker_0
_symmetry_space_group_name_H-M    P1
_symmetry_Int_Tables_number       1
_symmetry_cell_setting            triclinic
loop_
_symmetry_equiv_pos_as_xyz
'x, y, z'
_cell_length_a     87.380554
_cell_length_b     85.347658
_cell_length_c     72.101135
_cell_angle_alpha  92.545225
_cell_angle_beta   89.640506
_cell_angle_gamma 122.17937
loop_
_atom_site_label
_atom_site_type_symbol
_atom_site_fract_x
_atom_site_fract_y
_atom_site_fract_z
_atom_type_partial_charge
C0 C 0.01791 0.33145 0.03121 0.0
O1 O 0.00108 0.32362 0.03659 0.0
O2 O 0.98101 0.317 0.00273 0.0
Zn3 Zn 0.00204 0.3431 0.00734 0.0
O4 O 0.99728 0.35729 0.02711 0.0
C5 C 0.02224 0.36621 0.97598 0.0
O6 O 0.0366 0.36737 0.98319 0.0
O7 O 0.02272 0.34155 0.01724 0.0
C8 C 0.0098 0.37431 0.02896 0.0
O9 O 0.02365 0.38076 0.01785 0.0
C10 C 0.96495 0.31202 0.99822 0.0
O11 O 0.96089 0.32469 0.99677 0.0
O12 O 0.00706 0.35657 0.98369 0.0
C13 C 0.69228 0.66715 0.99036 0.0
O14 O 0.68443 0.67634 0.98727 0.0
O15 O 0.67104 0.67587 0.02559 0.0
Zn16 Zn 0.66261 0.65098 0.01321 0.0
O17 O 0.64355 0.64407 0.9935 0.0
C18 C 0.65719 0.62039 0.03524 0.0
O19 O 0.67004 0.62096 0.02516 0.0
O20 O 0.68483 0.65388 0.0013 0.0
C21 C 0.6409 0.63162 0.98129 0.0
O22 O 0.6507 0.62416 0.98208 0.0
C23 C 0.6643 0.67894 0.0399 0.0
O24 O 0.64971 0.6651 0.04703 0.0
O25 O 0.65231 0.63171 0.03242 0.0
C26 C 0.35284 0.04855 0.98227 0.0
O27 O 0.36258 0.04369 0.97258 0.0
O28 O 0.32378 0.00251 0.01594 0.0
Zn29 Zn 0.34872 0.02055 0.00688 0.0
O30 O 0.35571 0.00978 0.98565 0.0
C31 C 0.36919 0.03701 0.04228 0.0
O32 O 0.35974 0.04479 0.04476 0.0
O33 O 0.34725 0.0418 0.99805 0.0
C34 C 0.35695 0.99573 0.98714 0.0
O35 O 0.35216 0.98692 0.00266 0.0
C36 C 0.32051 0.99347 0.03052 0.0
O37 O 0.33395 0.99432 0.03957 0.0
O38 O 0.36689 0.02733 0.02746 0.0
C39 C 0.9817 0.67126 0.98083 0.0
O40 O 0.99831 0.67702 0.97583 0.0
O41 O 0.01212 0.67757 0.01484 0.0
Zn42 Zn 0.99178 0.65304 0.00398 0.0
O43 O 0.00057 0.64293 0.98369 0.0
C44 C 0.97834 0.6405 0.0403 0.0
O45 O 0.98149 0.65735 0.04244 0.0
O46 O 0.97452 0.65914 0.99302 0.0
C47 C 0.01202 0.63845 0.98678 0.0
O48 O 0.01844 0.6405 0.00374 0.0
C49 C 0.02208 0.67978 0.02872 0.0
O50 O 0.02048 0.66517 0.03606 0.0
O51 O 0.98087 0.63506 0.02453 0.0
C52 C 0.31568 0.34385 0.0347 0.0
O53 O 0.32692 0.33922 0.04043 0.0
O54 O 0.33657 0.33821 0.99279 0.0
Zn55 Zn 0.34329 0.36139 0.00824 0.0
O56 O 0.36282 0.36772 0.02725 0.0
C57 C 0.3579 0.38286 0.97602 0.0
O58 O 0.36055 0.36944 0.97137 0.0
O59 O 0.32028 0.35467 0.02135 0.0
C60 C 0.3781 0.37016 0.02326 0.0
O61 O 0.38186 0.36897 0.00577 0.0
C62 C 0.33866 0.32554 0.99841 0.0
O63 O 0.34697 0.32811 0.01441 0.0
O64 O 0.3508 0.38261 0.99154 0.0
C65 C 0.67032 0.97628 0.03304 0.0
O66 O 0.6788 0.99335 0.04021 0.0
O67 O 0.6781 0.01147 0.00407 0.0
Zn68 Zn 0.65404 0.99162 0.01384 0.0
O69 O 0.64674 0.00044 0.03669 0.0
C70 C 0.63661 0.99387 0.98145 0.0
O71 O 0.65093 0.0108 0.98233 0.0
O72 O 0.65778 0.97133 0.02099 0.0
C73 C 0.63979 0.01025 0.03616 0.0
O74 O 0.63763 0.01556 0.02008 0.0
C75 C 0.68742 0.02842 0.00961 0.0
O76 O 0.68127 0.03457 0.02284 0.0
O77 O 0.63482 0.98268 0.99362 0.0
C78 C 0.70069 0.68861 0.3665 0.0
O79 O 0.69903 0.70118 0.37584 0.0
O80 O 0.6565 0.66755 0.32518 0.0
Zn81 Zn 0.67635 0.68976 0.33995 0.0
O82 O 0.66492 0.69625 0.36077 0.0
C83 C 0.69925 0.71312 0.31043 0.0
O84 O 0.70172 0.69946 0.30642 0.0
O85 O 0.69306 0.68268 0.35058 0.0
C86 C 0.64983 0.69476 0.35806 0.0
O87 O 0.64183 0.68879 0.34164 0.0
C88 C 0.65102 0.6515 0.33077 0.0
O89 O 0.65868 0.64998 0.34563 0.0
O90 O 0.68931 0.7118 0.32397 0.0
C91 C 0.35864 0.99359 0.34645 0.0
O92 O 0.36069 0.99961 0.3639 0.0
O93 O 0.33166 0.00949 0.36807 0.0
Zn94 Zn 0.32289 0.98573 0.35274 0.0
O95 O 0.30236 0.98 0.33531 0.0
C96 C 0.29766 0.95646 0.37558 0.0
O97 O 0.28711 0.96219 0.37043 0.0
O98 O 0.34341 0.9871 0.33833 0.0
C99 C 0.2975 0.99121 0.33174 0.0
O100 O 0.3066 0.00813 0.33926 0.0
C101 C 0.34333 0.02517 0.36198 0.0
O102 O 0.34938 0.02589 0.34511 0.0
O103 O 0.31381 0.9647 0.3699 0.0
C104 C 0.01551 0.36603 0.32482 0.0
O105 O 0.99964 0.35157 0.32861 0.0
O106 O 0.0037 0.32795 0.35146 0.0
Zn107 Zn 0.02864 0.34459 0.34103 0.0
O108 O 0.03578 0.33085 0.323 0.0
C109 C 0.04545 0.34524 0.37556 0.0
O110 O 0.03152 0.32811 0.37574 0.0
O111 O 0.0297 0.36599 0.32859 0.0
C112 C 0.03162 0.31432 0.32508 0.0
O113 O 0.02166 0.30526 0.33915 0.0
C114 C 0.99051 0.31418 0.34261 0.0
O115 O 0.99281 0.30984 0.32555 0.0
O116 O 0.04696 0.3551 0.36213 0.0
C117 C 0.64684 0.9919 0.33301 0.0
O118 O 0.66304 0.00687 0.33179 0.0
O119 O 0.68024 0.00744 0.36752 0.0
Zn120 Zn 0.66624 0.98134 0.35603 0.0
O121 O 0.68168 0.97695 0.33818 0.0
C122 C 0.66493 0.96571 0.39138 0.0
O123 O 0.68048 0.98137 0.3945 0.0
O124 O 0.64486 0.97873 0.34244 0.0
C125 C 0.6755 0.96869 0.32238 0.0
O126 O 0.65859 0.96242 0.31782 0.0
C127 C 0.69597 0.01967 0.36238 0.0
O128 O 0.70407 0.01498 0.34995 0.0
O129 O 0.65674 0.96269 0.37589 0.0
C130 C 0.98396 0.68301 0.36434 0.0
O131 O 0.99111 0.67323 0.3678 0.0
O132 O 0.01184 0.68052 0.33021 0.0
Zn133 Zn 0.01695 0.70363 0.34497 0.0
O134 O 0.03459 0.70993 0.36613 0.0
C135 C 0.0333 0.72551 0.3128 0.0
O136 O 0.03539 0.71179 0.30775 0.0
O137 O 0.99297 0.69751 0.35516 0.0
C138 C 0.05106 0.71538 0.36344 0.0
O139 O 0.05691 0.71737 0.34635 0.0
C140 C 0.01679 0.66983 0.33548 0.0
O141 O 0.02655 0.67424 0.35082 0.0
O142 O 0.02605 0.72511 0.32826 0.0
C143 C 0.32855 0.31256 0.36545 0.0
O144 O 0.33852 0.33009 0.37115 0.0
O145 O 0.33356 0.34619 0.3353 0.0
Zn146 Zn 0.31094 0.3277 0.34845 0.0
O147 O 0.30751 0.33904 0.372 0.0
C148 C 0.28731 0.30951 0.31608 0.0
O149 O 0.30001 0.30659 0.31066 0.0
O150 O 0.31468 0.30735 0.35524 0.0
C151 C 0.30112 0.34938 0.37197 0.0
O152 O 0.29672 0.35304 0.35606 0.0
C153 C 0.34372 0.3632 0.3404 0.0
O154 O 0.33907 0.36988 0.35457 0.0
O155 O 0.28914 0.318 0.33164 0.0
C156 C 0.35126 0.00145 0.69655 0.0
O157 O 0.33408 0.98861 0.69385 0.0
O158 O 0.32177 0.99578 0.66244 0.0
Zn159 Zn 0.33881 0.02002 0.67642 0.0
O160 O 0.32596 0.02589 0.6961 0.0
C161 C 0.36644 0.05286 0.65753 0.0
O162 O 0.37793 0.05308 0.66937 0.0
O163 O 0.3574 0.01723 0.68987 0.0
C164 C 0.31513 0.03116 0.69297 0.0
O165 O 0.31129 0.03248 0.67575 0.0
C166 C 0.31158 0.99353 0.64877 0.0
O167 O 0.31124 0.00779 0.6432 0.0
O168 O 0.34977 0.04031 0.65824 0.0
C169 C 0.02761 0.33516 0.66312 0.0
O170 O 0.01904 0.34355 0.65962 0.0
O171 O 0.99282 0.32908 0.69682 0.0
Zn172 Zn 0.99382 0.31039 0.67952 0.0
O173 O 0.97816 0.30458 0.65672 0.0
C174 C 0.99298 0.28527 0.70591 0.0
O175 O 0.00958 0.29908 0.70982 0.0
O176 O 0.01948 0.32028 0.67182 0.0
C177 C 0.96147 0.2987 0.65823 0.0
O178 O 0.95462 0.29667 0.67487 0.0
C179 C 0.98788 0.3399 0.69195 0.0
O180 O 0.98362 0.33968 0.67446 0.0
O181 O 0.984 0.28695 0.6932 0.0
C182 C 0.66788 0.68698 0.65847 0.0
O183 O 0.6584 0.66878 0.65664 0.0
O184 O 0.66077 0.66309 0.69857 0.0
Zn185 Zn 0.68326 0.67585 0.6836 0.0
O186 O 0.68416 0.65806 0.665 0.0
C187 C 0.71469 0.70288 0.70759 0.0
O188 O 0.7114 0.71547 0.7027 0.0
O189 O 0.68138 0.69479 0.66972 0.0
C190 C 0.69913 0.66383 0.65704 0.0
O191 O 0.7129 0.68055 0.66164 0.0
C192 C 0.65623 0.64998 0.70933 0.0
O193 O 0.6666 0.64324 0.71085 0.0
O194 O 0.70478 0.68631 0.70103 0.0
C195 C 0.31759 0.3341 0.65036 0.0
O196 O 0.33441 0.34037 0.64582 0.0
O197 O 0.34332 0.33895 0.69133 0.0
Zn198 Zn 0.32662 0.31571 0.67564 0.0
O199 O 0.33984 0.30959 0.65651 0.0
C200 C 0.31882 0.29378 0.70749 0.0
O201 O 0.33549 0.30703 0.71204 0.0
O202 O 0.31037 0.32195 0.66252 0.0
C203 C 0.35276 0.30739 0.66024 0.0
O204 O 0.35814 0.30911 0.6776 0.0
C205 C 0.35874 0.35196 0.68633 0.0
O206 O 0.36543 0.34977 0.67076 0.0
O207 O 0.31201 0.29433 0.69218 0.0
C208 C 0.65266 0.01651 0.68878 0.0
O209 O 0.65818 0.00586 0.69445 0.0
O210 O 0.67728 0.00554 0.65736 0.0
Zn211 Zn 0.6851 0.03086 0.66888 0.0
O212 O 0.70102 0.03672 0.6915 0.0
C213 C 0.70275 0.04887 0.63494 0.0
O214 O 0.70245 0.03352 0.63107 0.0
O215 O 0.66235 0.02899 0.67756 0.0
C216 C 0.71795 0.04341 0.69154 0.0
O217 O 0.72652 0.04742 0.67575 0.0
C218 C 0.68569 0.99736 0.65973 0.0
O219 O 0.70102 0.00601 0.66926 0.0
O220 O 0.69663 0.0508 0.65033 0.0
C221 C 0.97066 0.63312 0.69924 0.0
O222 O 0.97629 0.64726 0.71123 0.0
O223 O 0.9878 0.6727 0.66363 0.0
Zn224 Zn 0.96396 0.6557 0.67583 0.0
O225 O 0.96077 0.66845 0.69838 0.0
C226 C 0.94615 0.65774 0.64347 0.0
O227 O 0.96102 0.67425 0.64327 0.0
O228 O 0.96431 0.63343 0.68353 0.0
C229 C 0.96089 0.68338 0.69793 0.0
O230 O 0.96286 0.69101 0.68195 0.0
C231 C 0.00309 0.67842 0.67124 0.0
O232 O 0.00377 0.67398 0.68828 0.0
O233 O 0.94394 0.64733 0.65664 0.0
C234 C 0.20355 0.27058 0.03272 0.0
C235 C 0.20872 0.28686 0.04651 0.0
C236 C 0.19487 0.28387 0.07656 0.0
C237 C 0.19736 0.30149 0.07881 0.0
C238 C 0.18652 0.30461 0.09094 0.0
C239 C 0.17268 0.28968 0.10068 0.0
C240 C 0.17046 0.27198 0.09872 0.0
C241 C 0.18193 0.26946 0.08699 0.0
C242 C 0.18962 0.32377 0.09295 0.0
C243 C 0.15564 0.25556 0.10848 0.0
C244 C 0.05154 0.29811 0.07085 0.0
C245 C 0.06344 0.29384 0.08118 0.0
C246 C 0.09258 0.29733 0.08068 0.0
C247 C 0.0887 0.28039 0.08723 0.0
C248 C 0.10196 0.27912 0.09667 0.0
C249 C 0.11933 0.29526 0.09992 0.0
C250 C 0.12343 0.31223 0.09275 0.0
C251 C 0.11002 0.31297 0.08294 0.0
C252 C 0.09731 0.26063 0.10343 0.0
C253 C 0.14184 0.32967 0.09583 0.0
C254 C 0.09344 0.30043 0.22279 0.0
C255 C 0.09087 0.28286 0.21914 0.0
C256 C 0.10299 0.28078 0.20804 0.0
C257 C 0.11814 0.2966 0.20073 0.0
C258 C 0.12073 0.3143 0.2044 0.0
C259 C 0.10814 0.31591 0.21514 0.0
C260 C 0.09969 0.26167 0.2042 0.0
C261 C 0.13694 0.33156 0.19725 0.0
C262 C 0.18844 0.25434 0.25243 0.0
C263 C 0.20508 0.26901 0.24212 0.0
C264 C 0.19344 0.28576 0.22613 0.0
C265 C 0.18115 0.271 0.21401 0.0
C266 C 0.16957 0.2729 0.2022 0.0
C267 C 0.17099 0.29023 0.20176 0.0
C268 C 0.18404 0.30537 0.21326 0.0
C269 C 0.19488 0.30282 0.22546 0.0
C270 C 0.15554 0.25621 0.19056 0.0
C271 C 0.18633 0.32418 0.21298 0.0
C272 C 0.15965 0.2922 0.11171 0.0
C273 C 0.1463 0.29297 0.10195 0.0
C274 C 0.13304 0.29448 0.11123 0.0
C275 C 0.13278 0.29491 0.13085 0.0
C276 C 0.11945 0.29614 0.14065 0.0
C277 C 0.11899 0.296 0.15993 0.0
C278 C 0.13201 0.29494 0.17019 0.0
C279 C 0.13162 0.29477 0.18978 0.0
C280 C 0.14445 0.29314 0.1995 0.0
C281 C 0.1581 0.29222 0.19028 0.0
C282 C 0.15908 0.29302 0.17071 0.0
C283 C 0.17305 0.29297 0.16098 0.0
C284 C 0.17343 0.29296 0.14167 0.0
C285 C 0.15987 0.29304 0.13136 0.0
C286 C 0.14616 0.29403 0.14093 0.0
C287 C 0.14576 0.29402 0.16063 0.0
C288 C 0.06498 0.29998 0.26096 0.0
C289 C 0.0704 0.29091 0.24656 0.0
O290 O 0.20455 0.2803 0.06425 0.0
O291 O 0.20386 0.28422 0.23895 0.0
O292 O 0.08225 0.30308 0.2338 0.0
O293 O 0.07957 0.29895 0.07257 0.0
H294 H 0.2005 0.29273 0.04259 0.0
H295 H 0.18885 0.26007 0.03355 0.0
H296 H 0.21118 0.26393 0.03591 0.0
H297 H 0.20646 0.27537 0.01831 0.0
H298 H 0.20775 0.31278 0.07107 0.0
H299 H 0.18029 0.25596 0.08524 0.0
H300 H 0.17898 0.32403 0.08491 0.0
H301 H 0.203 0.33446 0.08765 0.0
H302 H 0.18872 0.32745 0.10771 0.0
H303 H 0.15406 0.24231 0.10329 0.0
H304 H 0.14252 0.25453 0.10663 0.0
H305 H 0.15884 0.25735 0.12358 0.0
H306 H 0.05646 0.27973 0.08678 0.0
H307 H 0.03897 0.28422 0.06724 0.0
H308 H 0.0565 0.30057 0.05616 0.0
H309 H 0.05119 0.3186 0.08818 0.0
H310 H 0.0753 0.26816 0.08493 0.0
H311 H 0.1129 0.32593 0.07762 0.0
H312 H 0.10801 0.25786 0.09954 0.0
H313 H 0.08412 0.24905 0.09767 0.0
H314 H 0.09662 0.26089 0.1188 0.0
H315 H 0.14246 0.34201 0.09051 0.0
H316 H 0.15214 0.3279 0.08867 0.0
H317 H 0.14544 0.33223 0.11087 0.0
H318 H 0.05913 0.27766 0.24003 0.0
H319 H 0.0794 0.27075 0.22484 0.0
H320 H 0.11 0.32939 0.21806 0.0
H321 H 0.1005 0.25918 0.18908 0.0
H322 H 0.08629 0.2506 0.20911 0.0
H323 H 0.11035 0.26068 0.21133 0.0
H324 H 0.1379 0.34441 0.20285 0.0
H325 H 0.13605 0.33117 0.18187 0.0
H326 H 0.14956 0.33218 0.20102 0.0
H327 H 0.20606 0.26276 0.22863 0.0
H328 H 0.19004 0.24268 0.25571 0.0
H329 H 0.17594 0.24856 0.24384 0.0
H330 H 0.1866 0.2604 0.26557 0.0
H331 H 0.18019 0.25784 0.21394 0.0
H332 H 0.20452 0.31419 0.23471 0.0
H333 H 0.15977 0.25778 0.17588 0.0
H334 H 0.14224 0.25499 0.19109 0.0
H335 H 0.15382 0.24313 0.1952 0.0
H336 H 0.19922 0.33519 0.21984 0.0
H337 H 0.175 0.32381 0.22043 0.0
H338 H 0.18599 0.32791 0.19849 0.0
H339 H 0.14614 0.29222 0.08688 0.0
H340 H 0.10911 0.29705 0.13351 0.0
H341 H 0.10825 0.2967 0.16669 0.0
H342 H 0.14386 0.29269 0.21452 0.0
H343 H 0.18379 0.2928 0.1682 0.0
H344 H 0.18442 0.29275 0.1349 0.0
H345 H 0.04995 0.2932 0.25877 0.0
H346 H 0.0684 0.31363 0.25548 0.0
H347 H 0.07647 0.29809 0.28584 0.0
C348 C 0.73612 0.93178 0.04273 0.0
C349 C 0.72257 0.9263 0.05839 0.0
C350 C 0.72654 0.91741 0.08884 0.0
C351 C 0.7083 0.9051 0.0929 0.0
C352 C 0.70339 0.8919 0.10635 0.0
C353 C 0.71701 0.89087 0.11572 0.0
C354 C 0.73545 0.90372 0.11204 0.0
C355 C 0.73996 0.91709 0.09889 0.0
C356 C 0.68363 0.87874 0.1102 0.0
C357 C 0.75039 0.9029 0.12143 0.0
C358 C 0.68127 0.75004 0.07477 0.0
C359 C 0.69122 0.76973 0.08175 0.0
C360 C 0.686 0.79164 0.09906 0.0
C361 C 0.70444 0.80485 0.10273 0.0
C362 C 0.70989 0.82154 0.11275 0.0
C363 C 0.69668 0.82513 0.11916 0.0
C364 C 0.67814 0.81192 0.11547 0.0
C365 C 0.67304 0.79529 0.1055 0.0
C366 C 0.72978 0.83536 0.11649 0.0
C367 C 0.66374 0.81542 0.12202 0.0
C368 C 0.70383 0.80719 0.24012 0.0
C369 C 0.72009 0.8185 0.23089 0.0
C370 C 0.72257 0.8333 0.22069 0.0
C371 C 0.70839 0.83664 0.21938 0.0
C372 C 0.69207 0.82535 0.22875 0.0
C373 C 0.69008 0.81087 0.23912 0.0
C374 C 0.74032 0.8453 0.2112 0.0
C375 C 0.67664 0.82844 0.22758 0.0
C376 C 0.74576 0.98348 0.23391 0.0
C377 C 0.73065 0.96321 0.23577 0.0
C378 C 0.73275 0.93581 0.2332 0.0
C379 C 0.74562 0.93094 0.23126 0.0
C380 C 0.74106 0.9138 0.22282 0.0
C381 C 0.72302 0.90108 0.21668 0.0
C382 C 0.70968 0.9055 0.21964 0.0
C383 C 0.71472 0.9229 0.22773 0.0
C384 C 0.7556 0.9095 0.22003 0.0
C385 C 0.69017 0.89197 0.21396 0.0
C386 C 0.71195 0.87528 0.12788 0.0
C387 C 0.70638 0.85805 0.11919 0.0
C388 C 0.70231 0.84286 0.12948 0.0
C389 C 0.70402 0.84483 0.14904 0.0
C390 C 0.70049 0.82993 0.15977 0.0
C391 C 0.70252 0.83209 0.179 0.0
C392 C 0.70808 0.84921 0.18827 0.0
C393 C 0.71049 0.85163 0.2078 0.0
C394 C 0.71535 0.86863 0.21663 0.0
C395 C 0.71824 0.88351 0.20643 0.0
C396 C 0.71655 0.88156 0.18682 0.0
C397 C 0.72 0.89644 0.17605 0.0
C398 C 0.71834 0.89439 0.15676 0.0
C399 C 0.71327 0.87742 0.14749 0.0
C400 C 0.70949 0.86217 0.15808 0.0
C401 C 0.71133 0.86431 0.17774 0.0
C402 C 0.70623 0.77144 0.26505 0.0
C403 C 0.71196 0.7857 0.25099 0.0
O404 O 0.73166 0.92962 0.07521 0.0
O405 O 0.7382 0.95308 0.24024 0.0
O406 O 0.70088 0.79272 0.25012 0.0
O407 O 0.68019 0.7753 0.08944 0.0
H408 H 0.71231 0.91122 0.05601 0.0
H409 H 0.74256 0.92355 0.04307 0.0
H410 H 0.74688 0.94673 0.04428 0.0
H411 H 0.72917 0.92898 0.02901 0.0
H412 H 0.69791 0.90576 0.08552 0.0
H413 H 0.754 0.92684 0.09578 0.0
H414 H 0.67919 0.86478 0.10399 0.0
H415 H 0.67501 0.88331 0.10424 0.0
H416 H 0.68146 0.87746 0.12539 0.0
H417 H 0.76387 0.9127 0.11567 0.0
H418 H 0.74775 0.88865 0.11988 0.0
H419 H 0.75083 0.90639 0.1365 0.0
H420 H 0.70127 0.77983 0.07203 0.0
H421 H 0.6833 0.75062 0.05932 0.0
H422 H 0.66655 0.74537 0.07366 0.0
H423 H 0.69081 0.73762 0.09221 0.0
H424 H 0.71466 0.80226 0.09785 0.0
H425 H 0.65887 0.78505 0.10262 0.0
H426 H 0.73387 0.84857 0.11001 0.0
H427 H 0.73837 0.83029 0.111 0.0
H428 H 0.7324 0.83842 0.13168 0.0
H429 H 0.64991 0.80383 0.11786 0.0
H430 H 0.66611 0.82836 0.11622 0.0
H431 H 0.66454 0.81743 0.13739 0.0
H432 H 0.71509 0.782 0.23705 0.0
H433 H 0.73091 0.81589 0.23162 0.0
H434 H 0.67762 0.80212 0.24634 0.0
H435 H 0.73815 0.84294 0.19592 0.0
H436 H 0.75068 0.84228 0.2153 0.0
H437 H 0.74561 0.86018 0.21457 0.0
H438 H 0.66445 0.8178 0.2348 0.0
H439 H 0.67297 0.82822 0.21281 0.0
H440 H 0.68093 0.84231 0.23392 0.0
H441 H 0.72376 0.95832 0.22188 0.0
H442 H 0.73999 0.99188 0.23045 0.0
H443 H 0.75487 0.98449 0.22256 0.0
H444 H 0.75394 0.98934 0.24697 0.0
H445 H 0.75944 0.94091 0.23578 0.0
H446 H 0.70455 0.92635 0.22974 0.0
H447 H 0.75615 0.90599 0.20512 0.0
H448 H 0.75231 0.89724 0.22792 0.0
H449 H 0.76917 0.92129 0.22468 0.0
H450 H 0.6811 0.89639 0.21955 0.0
H451 H 0.68557 0.878 0.21886 0.0
H452 H 0.68887 0.89078 0.19859 0.0
H453 H 0.70541 0.85648 0.10414 0.0
H454 H 0.69623 0.81645 0.1534 0.0
H455 H 0.69966 0.82014 0.18652 0.0
H456 H 0.71696 0.87032 0.23163 0.0
H457 H 0.72411 0.90988 0.18239 0.0
H458 H 0.72112 0.90628 0.14919 0.0
H459 H 0.72773 0.78392 0.28484 0.0
H460 H 0.70231 0.75828 0.25675 0.0
H461 H 0.69189 0.76677 0.26871 0.0
C462 C 0.25197 0.94127 0.0665 0.0
C463 C 0.23308 0.93188 0.0731 0.0
C464 C 0.213 0.90748 0.09373 0.0
C465 C 0.20021 0.91269 0.09505 0.0
C466 C 0.18458 0.90263 0.10554 0.0
C467 C 0.18164 0.88701 0.11478 0.0
C468 C 0.19449 0.88175 0.11351 0.0
C469 C 0.21006 0.89214 0.10304 0.0
C470 C 0.17115 0.9086 0.1067 0.0
C471 C 0.19167 0.86504 0.12304 0.0
C472 C 0.04947 0.78114 0.08538 0.0
C473 C 0.06482 0.78249 0.07368 0.0
C474 C 0.09179 0.80118 0.09414 0.0
C475 C 0.10425 0.8002 0.10522 0.0
C476 C 0.118 0.81589 0.11516 0.0
C477 C 0.11919 0.83301 0.11406 0.0
C478 C 0.10667 0.83419 0.10281 0.0
C479 C 0.09309 0.81825 0.09288 0.0
C480 C 0.13124 0.81413 0.12684 0.0
C481 C 0.10761 0.85227 0.1014 0.0
C482 C 0.0801 0.82227 0.22888 0.0
C483 C 0.09185 0.81641 0.22371 0.0
C484 C 0.10861 0.82868 0.21586 0.0
C485 C 0.1135 0.84706 0.21279 0.0
C486 C 0.10203 0.85321 0.21882 0.0
C487 C 0.08555 0.84075 0.22706 0.0
C488 C 0.12086 0.82185 0.21043 0.0
C489 C 0.10692 0.87276 0.21603 0.0
C490 C 0.24319 0.95304 0.27217 0.0
C491 C 0.22911 0.94793 0.2576 0.0
C492 C 0.2094 0.92098 0.23677 0.0
C493 C 0.20601 0.90388 0.22984 0.0
C494 C 0.19048 0.89179 0.21903 0.0
C495 C 0.17815 0.89716 0.21482 0.0
C496 C 0.18155 0.91455 0.22166 0.0
C497 C 0.19714 0.9263 0.23263 0.0
C498 C 0.18722 0.87327 0.21215 0.0
C499 C 0.16872 0.9207 0.21731 0.0
C500 C 0.16483 0.87579 0.12527 0.0
C501 C 0.14977 0.86128 0.11558 0.0
C502 C 0.13369 0.84962 0.12465 0.0
C503 C 0.13232 0.85274 0.14383 0.0
C504 C 0.11611 0.84168 0.15321 0.0
C505 C 0.11518 0.84419 0.17228 0.0
C506 C 0.13053 0.85762 0.18276 0.0
C507 C 0.13005 0.85946 0.20233 0.0
C508 C 0.14563 0.87277 0.2123 0.0
C509 C 0.16175 0.88449 0.20325 0.0
C510 C 0.1624 0.88309 0.18367 0.0
C511 C 0.17829 0.89488 0.17409 0.0
C512 C 0.17904 0.89277 0.15491 0.0
C513 C 0.16396 0.87871 0.14461 0.0
C514 C 0.14765 0.86707 0.15392 0.0
C515 C 0.14681 0.86937 0.17345 0.0
C516 C 0.03319 0.78811 0.22551 0.0
C517 C 0.05213 0.79202 0.22937 0.0
O518 O 0.22828 0.91682 0.08369 0.0
O519 O 0.22453 0.93178 0.24747 0.0
O520 O 0.06337 0.81041 0.23543 0.0
O521 O 0.07881 0.78525 0.08511 0.0
H522 H 0.22263 0.92893 0.06234 0.0
H523 H 0.25665 0.93138 0.06822 0.0
H524 H 0.26477 0.96778 0.08025 0.0
H525 H 0.25062 0.9392 0.05092 0.0
H526 H 0.2023 0.92456 0.08792 0.0
H527 H 0.21999 0.88824 0.10196 0.0
H528 H 0.15795 0.8974 0.10059 0.0
H529 H 0.17572 0.92148 0.09929 0.0
H530 H 0.16892 0.91096 0.12147 0.0
H531 H 0.20299 0.86285 0.12076 0.0
H532 H 0.17892 0.85246 0.11777 0.0
H533 H 0.19027 0.86671 0.1382 0.0
H534 H 0.06987 0.79416 0.06424 0.0
H535 H 0.03819 0.77879 0.07622 0.0
H536 H 0.0543 0.79416 0.09385 0.0
H537 H 0.04429 0.76953 0.0949 0.0
H538 H 0.10315 0.78699 0.10607 0.0
H539 H 0.08358 0.81929 0.08432 0.0
H540 H 0.12959 0.81674 0.14172 0.0
H541 H 0.14532 0.82468 0.12314 0.0
H542 H 0.12929 0.80017 0.12508 0.0
H543 H 0.09637 0.85074 0.09276 0.0
H544 H 0.12065 0.86262 0.09523 0.0
H545 H 0.10717 0.85781 0.11549 0.0
H546 H 0.05685 0.78936 0.21586 0.0
H547 H 0.08792 0.80225 0.22574 0.0
H548 H 0.07649 0.84519 0.2314 0.0
H549 H 0.12053 0.81981 0.1951 0.0
H550 H 0.11664 0.80847 0.21663 0.0
H551 H 0.13504 0.83225 0.21484 0.0
H552 H 0.09615 0.87513 0.22074 0.0
H553 H 0.1094 0.8758 0.20111 0.0
H554 H 0.11961 0.88268 0.22387 0.0
H555 H 0.2314 0.95936 0.24877 0.0
H556 H 0.25517 0.96663 0.26792 0.0
H557 H 0.24969 0.94492 0.2686 0.0
H558 H 0.2296 0.95035 0.29734 0.0
H559 H 0.21556 0.89992 0.23312 0.0
H560 H 0.19969 0.9396 0.23784 0.0
H561 H 0.18798 0.87285 0.19678 0.0
H562 H 0.17346 0.86196 0.2159 0.0
H563 H 0.19728 0.87054 0.21798 0.0
H564 H 0.17378 0.93506 0.22277 0.0
H565 H 0.15539 0.91119 0.22349 0.0
H566 H 0.16656 0.91994 0.20205 0.0
H567 H 0.15076 0.8587 0.10088 0.0
H568 H 0.10398 0.83089 0.14591 0.0
H569 H 0.10234 0.83523 0.17874 0.0
H570 H 0.14531 0.87378 0.22734 0.0
H571 H 0.19039 0.90579 0.18134 0.0
H572 H 0.19168 0.90212 0.14829 0.0
H573 H 0.02763 0.79104 0.23817 0.0
H574 H 0.02391 0.7734 0.22068 0.0
H575 H 0.03376 0.79707 0.21446 0.0
C576 C 0.31657 0.08901 0.96522 0.0
C577 C 0.30708 0.09683 0.95601 0.0
C578 C 0.31136 0.1175 0.9314 0.0
C579 C 0.293 0.11167 0.92987 0.0
C580 C 0.28734 0.12031 0.91801 0.0
C581 C 0.3003 0.13521 0.90763 0.0
C582 C 0.31872 0.14085 0.90882 0.0
C583 C 0.32397 0.13179 0.9206 0.0
C584 C 0.26756 0.11381 0.91692 0.0
C585 C 0.33293 0.15683 0.8981 0.0
C586 C 0.2675 0.21061 0.98024 0.0
C587 C 0.28386 0.21788 0.96768 0.0
C588 C 0.2809 0.20601 0.93603 0.0
C589 C 0.2984 0.21046 0.93192 0.0
C590 C 0.30118 0.19962 0.91879 0.0
C591 C 0.28605 0.18373 0.91004 0.0
C592 C 0.26834 0.17943 0.91404 0.0
C593 C 0.26605 0.19097 0.92669 0.0
C594 C 0.32026 0.20492 0.91463 0.0
C595 C 0.25179 0.1623 0.90557 0.0
C596 C 0.26577 0.19891 0.79335 0.0
C597 C 0.28376 0.20501 0.7979 0.0
C598 C 0.28809 0.19306 0.80579 0.0
C599 C 0.27406 0.17479 0.80959 0.0
C600 C 0.256 0.16842 0.80429 0.0
C601 C 0.25216 0.18052 0.79593 0.0
C602 C 0.30759 0.20011 0.81045 0.0
C603 C 0.24069 0.14898 0.80781 0.0
C604 C 0.25746 0.04754 0.78071 0.0
C605 C 0.26716 0.06329 0.76725 0.0
C606 C 0.2811 0.09251 0.78634 0.0
C607 C 0.29757 0.10862 0.79146 0.0
C608 C 0.29821 0.12325 0.8019 0.0
C609 C 0.28191 0.12145 0.80782 0.0
C610 C 0.26516 0.10509 0.80288 0.0
C611 C 0.2649 0.09091 0.79199 0.0
C612 C 0.31631 0.14061 0.8066 0.0
C613 C 0.24748 0.10257 0.8091 0.0
C614 C 0.29487 0.14606 0.89702 0.0
C615 C 0.29312 0.15941 0.90699 0.0
C616 C 0.28865 0.1707 0.89812 0.0
C617 C 0.28624 0.16898 0.8786 0.0
C618 C 0.28252 0.18065 0.86912 0.0
C619 C 0.27976 0.17857 0.84996 0.0
C620 C 0.28085 0.16489 0.83949 0.0
C621 C 0.27812 0.16272 0.81998 0.0
C622 C 0.27886 0.14867 0.81009 0.0
C623 C 0.28227 0.13664 0.81914 0.0
C624 C 0.28537 0.13881 0.8386 0.0
C625 C 0.28899 0.12707 0.84816 0.0
C626 C 0.29223 0.12948 0.86727 0.0
C627 C 0.29163 0.14349 0.8776 0.0
C628 C 0.28754 0.15518 0.86833 0.0
C629 C 0.28465 0.153 0.84878 0.0
C630 C 0.25384 0.23267 0.7964 0.0
C631 C 0.26885 0.22891 0.79239 0.0
O632 O 0.31744 0.10989 0.94319 0.0
O633 O 0.28153 0.07893 0.77619 0.0
O634 O 0.2611 0.21045 0.78668 0.0
O635 O 0.27805 0.21578 0.94938 0.0
H636 H 0.29977 0.10124 0.9655 0.0
H637 H 0.31761 0.0935 0.98033 0.0
H638 H 0.33145 0.09866 0.96268 0.0
H639 H 0.30189 0.06082 0.95577 0.0
H640 H 0.28301 0.10051 0.93801 0.0
H641 H 0.33807 0.13613 0.92177 0.0
H642 H 0.26556 0.1245 0.92371 0.0
H643 H 0.25891 0.10057 0.92386 0.0
H644 H 0.26301 0.11192 0.90218 0.0
H645 H 0.34674 0.15976 0.90084 0.0
H646 H 0.33278 0.16951 0.90185 0.0
H647 H 0.32984 0.15371 0.883 0.0
H648 H 0.28989 0.20939 0.96988 0.0
H649 H 0.27169 0.21176 0.99501 0.0
H650 H 0.25752 0.19577 0.97645 0.0
H651 H 0.26085 0.21855 0.97868 0.0
H652 H 0.30983 0.22234 0.93909 0.0
H653 H 0.2526 0.18777 0.93002 0.0
H654 H 0.32186 0.20353 0.89946 0.0
H655 H 0.3232 0.19543 0.92158 0.0
H656 H 0.33037 0.21935 0.91967 0.0
H657 H 0.23915 0.15952 0.91227 0.0
H658 H 0.25286 0.14999 0.90679 0.0
H659 H 0.25073 0.16409 0.89059 0.0
H660 H 0.27645 0.23191 0.80579 0.0
H661 H 0.29442 0.2191 0.79533 0.0
H662 H 0.23836 0.17589 0.79205 0.0
H663 H 0.30981 0.2025 0.82572 0.0
H664 H 0.31704 0.21334 0.80383 0.0
H665 H 0.31092 0.18967 0.80595 0.0
H666 H 0.22724 0.14693 0.80499 0.0
H667 H 0.24125 0.14565 0.82241 0.0
H668 H 0.24209 0.13903 0.79865 0.0
H669 H 0.25728 0.06653 0.7619 0.0
H670 H 0.24643 0.03482 0.77327 0.0
H671 H 0.25135 0.0514 0.79213 0.0
H672 H 0.26702 0.04438 0.78701 0.0
H673 H 0.31 0.10978 0.78704 0.0
H674 H 0.252 0.07859 0.78817 0.0
H675 H 0.31893 0.14187 0.8218 0.0
H676 H 0.31622 0.15301 0.80274 0.0
H677 H 0.32758 0.14058 0.7994 0.0
H678 H 0.23585 0.0882 0.80618 0.0
H679 H 0.24501 0.11217 0.80171 0.0
H680 H 0.24812 0.10604 0.82422 0.0
H681 H 0.29517 0.16095 0.92195 0.0
H682 H 0.28164 0.1915 0.87642 0.0
H683 H 0.27673 0.18784 0.84348 0.0
H684 H 0.27657 0.14697 0.79516 0.0
H685 H 0.28947 0.11594 0.84096 0.0
H686 H 0.29508 0.12013 0.8739 0.0
H687 H 0.24506 0.22933 0.78391 0.0
H688 H 0.25975 0.24745 0.8009 0.0
H689 H 0.2453 0.22394 0.80774 0.0
C690 C 0.79702 0.08023 0.97463 0.0
C691 C 0.784 0.08096 0.96112 0.0
C692 C 0.7967 0.08719 0.93043 0.0
C693 C 0.79398 0.10098 0.9246 0.0
C694 C 0.80558 0.11376 0.9118 0.0
C695 C 0.8203 0.11281 0.90493 0.0
C696 C 0.82272 0.09853 0.91044 0.0
C697 C 0.81061 0.08564 0.92289 0.0
C698 C 0.80238 0.12857 0.90598 0.0
C699 C 0.83844 0.09726 0.90373 0.0
C700 C 0.93576 0.2409 0.9601 0.0
C701 C 0.92505 0.2227 0.94976 0.0
C702 C 0.90066 0.20655 0.92645 0.0
C703 C 0.90124 0.19039 0.92489 0.0
C704 C 0.88855 0.175 0.91376 0.0
C705 C 0.87469 0.17555 0.90436 0.0
C706 C 0.87386 0.19166 0.90615 0.0
C707 C 0.88706 0.20707 0.91694 0.0
C708 C 0.88992 0.15808 0.91213 0.0
C709 C 0.85893 0.19252 0.89681 0.0
C710 C 0.90382 0.19547 0.78244 0.0
C711 C 0.90813 0.1838 0.79108 0.0
C712 C 0.89529 0.16925 0.80168 0.0
C713 C 0.87792 0.16649 0.80388 0.0
C714 C 0.87359 0.17825 0.79525 0.0
C715 C 0.8866 0.19253 0.78457 0.0
C716 C 0.90026 0.15681 0.81053 0.0
C717 C 0.85523 0.17573 0.79735 0.0
C718 C 0.76782 0.01927 0.77646 0.0
C719 C 0.77444 0.03984 0.77625 0.0
C720 C 0.80374 0.06711 0.78597 0.0
C721 C 0.82119 0.07244 0.79156 0.0
C722 C 0.83261 0.08947 0.8012 0.0
C723 C 0.82649 0.10165 0.80494 0.0
C724 C 0.80908 0.09667 0.79866 0.0
C725 C 0.7978 0.07936 0.78935 0.0
C726 C 0.85114 0.09437 0.80755 0.0
C727 C 0.80239 0.1096 0.80189 0.0
C728 C 0.83408 0.12776 0.89346 0.0
C729 C 0.84699 0.14435 0.90276 0.0
C730 C 0.86078 0.15899 0.89321 0.0
C731 C 0.86166 0.15726 0.8737 0.0
C732 C 0.8753 0.17175 0.86363 0.0
C733 C 0.876 0.16993 0.84442 0.0
C734 C 0.86338 0.15337 0.8346 0.0
C735 C 0.8642 0.15125 0.81511 0.0
C736 C 0.85178 0.1344 0.80586 0.0
C737 C 0.83837 0.11952 0.81551 0.0
C738 C 0.83699 0.12152 0.83493 0.0
C739 C 0.82341 0.10698 0.84503 0.0
C740 C 0.8222 0.10909 0.86415 0.0
C741 C 0.83482 0.12565 0.87396 0.0
C742 C 0.84865 0.14049 0.86406 0.0
C743 C 0.84963 0.13848 0.8445 0.0
C744 C 0.94209 0.22906 0.75437 0.0
C745 C 0.93365 0.21533 0.76901 0.0
O746 O 0.78611 0.07535 0.94345 0.0
O747 O 0.79316 0.05013 0.77732 0.0
O748 O 0.91573 0.20957 0.7719 0.0
O749 O 0.91287 0.22185 0.93689 0.0
H750 H 0.7874 0.09554 0.96137 0.0
H751 H 0.81118 0.0896 0.97024 0.0
H752 H 0.79422 0.06592 0.97488 0.0
H753 H 0.79568 0.08484 0.98887 0.0
H754 H 0.78285 0.10176 0.93016 0.0
H755 H 0.81241 0.07478 0.92742 0.0
H756 H 0.81305 0.14218 0.91233 0.0
H757 H 0.78899 0.12582 0.91039 0.0
H758 H 0.80325 0.1296 0.89067 0.0
H759 H 0.83912 0.08615 0.91039 0.0
H760 H 0.85135 0.11067 0.90666 0.0
H761 H 0.83721 0.09439 0.88848 0.0
H762 H 0.93331 0.21718 0.94423 0.0
H763 H 0.95019 0.24652 0.95606 0.0
H764 H 0.92702 0.23487 0.98774 0.0
H765 H 0.93442 0.25111 0.95196 0.0
H766 H 0.91159 0.18966 0.9322 0.0
H767 H 0.88666 0.21955 0.91828 0.0
H768 H 0.88905 0.15346 0.89732 0.0
H769 H 0.87842 0.14658 0.91934 0.0
H770 H 0.90271 0.16068 0.91835 0.0
H771 H 0.85921 0.20536 0.90102 0.0
H772 H 0.84556 0.18033 0.90025 0.0
H773 H 0.8603 0.19204 0.88152 0.0
H774 H 0.94175 0.21896 0.78216 0.0
H775 H 0.92141 0.1859 0.78953 0.0
H776 H 0.8834 0.20158 0.77784 0.0
H777 H 0.89969 0.15813 0.82586 0.0
H778 H 0.91402 0.16022 0.80678 0.0
H779 H 0.89033 0.14213 0.80616 0.0
H780 H 0.85424 0.18654 0.79042 0.0
H781 H 0.85229 0.17617 0.81231 0.0
H782 H 0.84467 0.16193 0.79127 0.0
H783 H 0.76888 0.04305 0.78879 0.0
H784 H 0.7528 0.01067 0.77597 0.0
H785 H 0.77261 0.01651 0.78942 0.0
H786 H 0.77309 0.01512 0.7644 0.0
H787 H 0.8257 0.06298 0.78868 0.0
H788 H 0.78446 0.07556 0.78462 0.0
H789 H 0.85298 0.09798 0.8227 0.0
H790 H 0.86162 0.10673 0.80038 0.0
H791 H 0.85339 0.08286 0.80463 0.0
H792 H 0.78916 0.10437 0.79481 0.0
H793 H 0.81242 0.12349 0.79684 0.0
H794 H 0.80088 0.11135 0.81701 0.0
H795 H 0.8465 0.14578 0.91775 0.0
H796 H 0.88554 0.18473 0.87047 0.0
H797 H 0.88671 0.18162 0.83739 0.0
H798 H 0.85267 0.13278 0.79095 0.0
H799 H 0.81348 0.09381 0.83827 0.0
H800 H 0.81138 0.0975 0.87118 0.0
H801 H 0.94762 0.21501 0.73311 0.0
H802 H 0.95303 0.24214 0.76189 0.0
H803 H 0.93308 0.23458 0.75209 0.0
C804 C 0.80451 0.72676 0.96876 0.0
C805 C 0.79272 0.7203 0.951 0.0
C806 C 0.80868 0.71093 0.92939 0.0
C807 C 0.82327 0.72895 0.92622 0.0
C808 C 0.83753 0.73178 0.91485 0.0
C809 C 0.83726 0.71633 0.90651 0.0
C810 C 0.82253 0.69821 0.90943 0.0
C811 C 0.8084 0.69577 0.92081 0.0
C812 C 0.85309 0.75131 0.91201 0.0
C813 C 0.82189 0.68146 0.90075 0.0
C814 C 0.93516 0.73613 0.98223 0.0
C815 C 0.92776 0.72167 0.96602 0.0
C816 C 0.9222 0.72866 0.93543 0.0
C817 C 0.90802 0.71111 0.92902 0.0
C818 C 0.89579 0.70928 0.91528 0.0
C819 C 0.89762 0.72539 0.90813 0.0
C820 C 0.91235 0.74311 0.91416 0.0
C821 C 0.92472 0.74446 0.92745 0.0
C822 C 0.88052 0.69015 0.90893 0.0
C823 C 0.91458 0.76066 0.90731 0.0
C824 C 0.93848 0.75147 0.79119 0.0
C825 C 0.92539 0.73269 0.79349 0.0
C826 C 0.90903 0.72745 0.80223 0.0
C827 C 0.90586 0.74128 0.80903 0.0
C828 C 0.91885 0.76017 0.80625 0.0
C829 C 0.9349 0.76497 0.79712 0.0
C830 C 0.89518 0.70715 0.80435 0.0
C831 C 0.91591 0.7753 0.81317 0.0
C832 C 0.78714 0.74002 0.80195 0.0
C833 C 0.79585 0.74242 0.78289 0.0
C834 C 0.81657 0.73182 0.78921 0.0
C835 C 0.81822 0.71641 0.78765 0.0
C836 C 0.83217 0.71621 0.79696 0.0
C837 C 0.84497 0.732 0.80789 0.0
C838 C 0.84381 0.74794 0.809 0.0
C839 C 0.82956 0.74766 0.79974 0.0
C840 C 0.83303 0.69901 0.79542 0.0
C841 C 0.85747 0.76518 0.82021 0.0
C842 C 0.85293 0.71917 0.89563 0.0
C843 C 0.86722 0.72019 0.90533 0.0
C844 C 0.8829 0.72375 0.89635 0.0
C845 C 0.88443 0.72635 0.87702 0.0
C846 C 0.89996 0.72993 0.86748 0.0
C847 C 0.90157 0.73318 0.84859 0.0
C848 C 0.88755 0.7326 0.83844 0.0
C849 C 0.88913 0.73611 0.81929 0.0
C850 C 0.87497 0.73556 0.80971 0.0
C851 C 0.85918 0.73163 0.81872 0.0
C852 C 0.8573 0.72797 0.83782 0.0
C853 C 0.84153 0.72384 0.84728 0.0
C854 C 0.84002 0.72084 0.86619 0.0
C855 C 0.85416 0.72174 0.87634 0.0
C856 C 0.87002 0.72546 0.86702 0.0
C857 C 0.87159 0.72858 0.84772 0.0
C858 C 0.98401 0.76237 0.78709 0.0
C859 C 0.9639 0.74801 0.78364 0.0
O860 O 0.79478 0.70747 0.94071 0.0
O861 O 0.80222 0.73065 0.78047 0.0
O862 O 0.95466 0.75709 0.78328 0.0
O863 O 0.9334 0.73076 0.94954 0.0
H864 H 0.79678 0.73253 0.94264 0.0
H865 H 0.81904 0.73389 0.9653 0.0
H866 H 0.80113 0.71479 0.97722 0.0
H867 H 0.80246 0.73669 0.97721 0.0
H868 H 0.82384 0.74092 0.93268 0.0
H869 H 0.79711 0.68193 0.92327 0.0
H870 H 0.86576 0.75319 0.91776 0.0
H871 H 0.85094 0.7619 0.91881 0.0
H872 H 0.85502 0.75373 0.89694 0.0
H873 H 0.80922 0.6683 0.90392 0.0
H874 H 0.83359 0.68101 0.90592 0.0
H875 H 0.82302 0.68251 0.88545 0.0
H876 H 0.91271 0.71379 0.96678 0.0
H877 H 0.93055 0.72929 0.99565 0.0
H878 H 0.93018 0.74559 0.98093 0.0
H879 H 0.95019 0.74449 0.98228 0.0
H880 H 0.90642 0.69887 0.93491 0.0
H881 H 0.93588 0.75793 0.93242 0.0
H882 H 0.87859 0.6892 0.89362 0.0
H883 H 0.86778 0.68737 0.91536 0.0
H884 H 0.88298 0.67924 0.91294 0.0
H885 H 0.92563 0.77328 0.91485 0.0
H886 H 0.9018 0.76041 0.90893 0.0
H887 H 0.91772 0.76169 0.89232 0.0
H888 H 0.95937 0.73871 0.79552 0.0
H889 H 0.92785 0.72212 0.78837 0.0
H890 H 0.945 0.7794 0.79503 0.0
H891 H 0.89402 0.70404 0.81926 0.0
H892 H 0.89881 0.69807 0.79659 0.0
H893 H 0.8817 0.70374 0.79935 0.0
H894 H 0.92791 0.78937 0.81115 0.0
H895 H 0.91272 0.77394 0.82816 0.0
H896 H 0.90417 0.7739 0.80563 0.0
H897 H 0.80722 0.75703 0.78179 0.0
H898 H 0.78174 0.74919 0.80375 0.0
H899 H 0.79724 0.74379 0.81326 0.0
H900 H 0.77591 0.72541 0.80335 0.0
H901 H 0.80823 0.7043 0.77939 0.0
H902 H 0.82868 0.75982 0.80091 0.0
H903 H 0.8327 0.69404 0.80948 0.0
H904 H 0.84599 0.70235 0.78909 0.0
H905 H 0.82169 0.68765 0.78686 0.0
H906 H 0.85591 0.77706 0.81799 0.0
H907 H 0.87141 0.76917 0.81652 0.0
H908 H 0.85583 0.76234 0.8352 0.0
H909 H 0.86624 0.7185 0.92021 0.0
H910 H 0.91112 0.73047 0.87457 0.0
H911 H 0.91398 0.73618 0.84206 0.0
H912 H 0.87636 0.73848 0.79509 0.0
H913 H 0.83021 0.72299 0.8402 0.0
H914 H 0.82764 0.71789 0.87278 0.0
H915 H 0.98948 0.77243 0.7759 0.0
H916 H 0.99174 0.75544 0.78768 0.0
H917 H 0.98598 0.77011 0.80057 0.0
C918 C 0.86973 0.61352 0.36611 0.0
C919 C 0.87793 0.62631 0.38353 0.0
C920 C 0.86013 0.61824 0.41152 0.0
C921 C 0.86468 0.63588 0.41835 0.0
C922 C 0.85316 0.63798 0.43041 0.0
C923 C 0.83669 0.6221 0.43556 0.0
C924 C 0.8324 0.60425 0.42916 0.0
C925 C 0.8444 0.60256 0.41746 0.0
C926 C 0.85838 0.65718 0.43733 0.0
C927 C 0.81489 0.58701 0.43416 0.0
C928 C 0.73712 0.6481 0.38077 0.0
C929 C 0.74594 0.63923 0.38881 0.0
C930 C 0.76915 0.6455 0.41183 0.0
C931 C 0.76374 0.62683 0.41304 0.0
C932 C 0.7733 0.62185 0.42444 0.0
C933 C 0.78865 0.63581 0.43474 0.0
C934 C 0.79405 0.65459 0.43367 0.0
C935 C 0.78414 0.65916 0.42229 0.0
C936 C 0.76712 0.60168 0.42536 0.0
C937 C 0.81042 0.66982 0.44436 0.0
C938 C 0.75152 0.62747 0.55309 0.0
C939 C 0.74743 0.60954 0.54792 0.0
C940 C 0.75996 0.60694 0.53822 0.0
C941 C 0.77697 0.62254 0.53385 0.0
C942 C 0.7812 0.64057 0.53933 0.0
C943 C 0.76829 0.64277 0.54865 0.0
C944 C 0.75498 0.58754 0.53245 0.0
C945 C 0.7993 0.65753 0.53522 0.0
C946 C 0.8785 0.58592 0.55347 0.0
C947 C 0.875 0.60096 0.56025 0.0
C948 C 0.8464 0.59854 0.55392 0.0
C949 C 0.8288 0.58503 0.54809 0.0
C950 C 0.81807 0.58975 0.53835 0.0
C951 C 0.82504 0.60855 0.53481 0.0
C952 C 0.84253 0.62242 0.54156 0.0
C953 C 0.85307 0.61726 0.55101 0.0
C954 C 0.79941 0.57462 0.53156 0.0
C955 C 0.85014 0.64264 0.5386 0.0
C956 C 0.8234 0.62425 0.44646 0.0
C957 C 0.8126 0.62888 0.43689 0.0
C958 C 0.79949 0.63081 0.44597 0.0
C959 C 0.79691 0.62793 0.46519 0.0
C960 C 0.78358 0.62936 0.4747 0.0
C961 C 0.78126 0.62666 0.49365 0.0
C962 C 0.79223 0.62251 0.50385 0.0
C963 C 0.7902 0.62009 0.52319 0.0
C964 C 0.80113 0.61567 0.53285 0.0
C965 C 0.81417 0.61362 0.52373 0.0
C966 C 0.81657 0.61623 0.50443 0.0
C967 C 0.82967 0.61444 0.49483 0.0
C968 C 0.83205 0.61721 0.47588 0.0
C969 C 0.82124 0.62161 0.46575 0.0
C970 C 0.80791 0.62342 0.47513 0.0
C971 C 0.80558 0.62072 0.49449 0.0
C972 C 0.708 0.60954 0.5584 0.0
C973 C 0.7245 0.61846 0.5717 0.0
O974 O 0.87056 0.61596 0.39907 0.0
O975 O 0.85656 0.59306 0.56228 0.0
O976 O 0.73966 0.63075 0.56194 0.0
O977 O 0.76037 0.65087 0.40075 0.0
H978 H 0.87435 0.63701 0.38278 0.0
H979 H 0.85484 0.60709 0.36579 0.0
H980 H 0.8726 0.60229 0.36599 0.0
H981 H 0.87534 0.62151 0.35343 0.0
H982 H 0.87721 0.64798 0.41421 0.0
H983 H 0.84117 0.589 0.41225 0.0
H984 H 0.84937 0.66089 0.43069 0.0
H985 H 0.8726 0.66779 0.43414 0.0
H986 H 0.85658 0.65754 0.45258 0.0
H987 H 0.81306 0.57428 0.42705 0.0
H988 H 0.80327 0.58823 0.43039 0.0
H989 H 0.81462 0.58547 0.44938 0.0
H990 H 0.7488 0.63104 0.37852 0.0
H991 H 0.71102 0.63501 0.39203 0.0
H992 H 0.74686 0.66309 0.37811 0.0
H993 H 0.74686 0.66309 0.37811 0.0
H994 H 0.75211 0.61605 0.40511 0.0
H995 H 0.7882 0.67351 0.42132 0.0
H996 H 0.77763 0.59946 0.41947 0.0
H997 H 0.75419 0.59238 0.41758 0.0
H998 H 0.76534 0.59775 0.44006 0.0
H999 H 0.8131 0.68379 0.44172 0.0
H1000 H 0.82253 0.6694 0.44052 0.0
H1001 H 0.80843 0.66763 0.45947 0.0
H1002 H 0.72612 0.60745 0.57724 0.0
H1003 H 0.73439 0.59757 0.55105 0.0
H1004 H 0.77129 0.65653 0.55268 0.0
H1005 H 0.757 0.58655 0.51732 0.0
H1006 H 0.74073 0.57697 0.53563 0.0
H1007 H 0.764 0.58429 0.53982 0.0
H1008 H 0.80123 0.67032 0.54225 0.0
H1009 H 0.80041 0.65935 0.52003 0.0
H1010 H 0.81041 0.65575 0.53971 0.0
H1011 H 0.88022 0.61129 0.54926 0.0
H1012 H 0.89324 0.59191 0.55189 0.0
H1013 H 0.8717 0.57989 0.53974 0.0
H1014 H 0.87313 0.5746 0.56334 0.0
H1015 H 0.82369 0.57066 0.55069 0.0
H1016 H 0.86646 0.62784 0.55617 0.0
H1017 H 0.79809 0.57529 0.51635 0.0
H1018 H 0.78916 0.57673 0.53835 0.0
H1019 H 0.79635 0.56059 0.53457 0.0
H1020 H 0.86323 0.65183 0.54615 0.0
H1021 H 0.84037 0.64648 0.5433 0.0
H1022 H 0.85226 0.64515 0.52356 0.0
H1023 H 0.81437 0.63094 0.4221 0.0
H1024 H 0.77479 0.6326 0.46758 0.0
H1025 H 0.77075 0.62791 0.50021 0.0
H1026 H 0.79948 0.61383 0.54768 0.0
H1027 H 0.83831 0.61096 0.50186 0.0
H1028 H 0.84244 0.61581 0.46925 0.0
H1029 H 0.69626 0.59727 0.56447 0.0
H1030 H 0.71103 0.60465 0.54518 0.0
H1031 H 0.70429 0.61972 0.55512 0.0
C1032 C 0.3901 0.2624 0.37058 0.0
C1033 C 0.37803 0.25889 0.38731 0.0
C1034 C 0.38524 0.25072 0.41666 0.0
C1035 C 0.36771 0.2371 0.42182 0.0
C1036 C 0.36502 0.22407 0.43475 0.0
C1037 C 0.38016 0.22473 0.44264 0.0
C1038 C 0.39784 0.23899 0.43807 0.0
C1039 C 0.40013 0.25198 0.42531 0.0
C1040 C 0.346 0.20934 0.43968 0.0
C1041 C 0.41431 0.24011 0.44613 0.0
C1042 C 0.37344 0.10275 0.38734 0.0
C1043 C 0.37908 0.12041 0.39749 0.0
C1044 C 0.36787 0.13388 0.42006 0.0
C1045 C 0.38501 0.14956 0.42472 0.0
C1046 C 0.38677 0.16398 0.43652 0.0
C1047 C 0.37109 0.16282 0.44364 0.0
C1048 C 0.35385 0.14695 0.43921 0.0
C1049 C 0.35249 0.13259 0.4276 0.0
C1050 C 0.4054 0.18063 0.44109 0.0
C1051 C 0.33686 0.14537 0.44644 0.0
C1052 C 0.37409 0.14098 0.56412 0.0
C1053 C 0.39081 0.1547 0.55715 0.0
C1054 C 0.39232 0.16931 0.54737 0.0
C1055 C 0.37682 0.17021 0.54444 0.0
C1056 C 0.36006 0.15665 0.55173 0.0
C1057 C 0.35895 0.14225 0.56153 0.0
C1058 C 0.41044 0.18366 0.53991 0.0
C1059 C 0.34329 0.15723 0.54889 0.0
C1060 C 0.41075 0.31457 0.56315 0.0
C1061 C 0.39544 0.29469 0.56642 0.0
C1062 C 0.3975 0.26736 0.5618 0.0
C1063 C 0.41057 0.26296 0.55853 0.0
C1064 C 0.4061 0.24623 0.54921 0.0
C1065 C 0.38794 0.23335 0.54353 0.0
C1066 C 0.37444 0.23731 0.54772 0.0
C1067 C 0.37939 0.25436 0.55669 0.0
C1068 C 0.42085 0.24245 0.54518 0.0
C1069 C 0.35484 0.2236 0.54253 0.0
C1070 C 0.3775 0.20956 0.45424 0.0
C1071 C 0.37454 0.19343 0.44497 0.0
C1072 C 0.3728 0.17879 0.4547 0.0
C1073 C 0.37376 0.18007 0.47432 0.0
C1074 C 0.37206 0.16561 0.48455 0.0
C1075 C 0.37323 0.1671 0.50385 0.0
C1076 C 0.37638 0.18321 0.51366 0.0
C1077 C 0.37803 0.18502 0.53326 0.0
C1078 C 0.38136 0.2013 0.54257 0.0
C1079 C 0.38324 0.21602 0.53283 0.0
C1080 C 0.38153 0.21443 0.51321 0.0
C1081 C 0.38338 0.22896 0.50292 0.0
C1082 C 0.38178 0.2273 0.48363 0.0
C1083 C 0.37862 0.21119 0.47385 0.0
C1084 C 0.37672 0.19636 0.48392 0.0
C1085 C 0.37811 0.19796 0.50362 0.0
C1086 C 0.38649 0.11249 0.55767 0.0
C1087 C 0.38426 0.12115 0.57578 0.0
O1088 O 0.38829 0.26283 0.40343 0.0
O1089 O 0.40284 0.28421 0.56992 0.0
O1090 O 0.3718 0.12626 0.57323 0.0
O1091 O 0.36565 0.11991 0.40825 0.0
H1092 H 0.36698 0.24399 0.38612 0.0
H1093 H 0.39566 0.25334 0.37081 0.0
H1094 H 0.40157 0.27708 0.37089 0.0
H1095 H 0.38218 0.25918 0.35744 0.0
H1096 H 0.35615 0.23659 0.41572 0.0
H1097 H 0.41359 0.26278 0.42145 0.0
H1098 H 0.3429 0.19565 0.43391 0.0
H1099 H 0.3358 0.212 0.43412 0.0
H1100 H 0.34476 0.20853 0.455 0.0
H1101 H 0.42711 0.25174 0.44074 0.0
H1102 H 0.4137 0.22695 0.44284 0.0
H1103 H 0.41455 0.24198 0.46148 0.0
H1104 H 0.38631 0.13274 0.38885 0.0
H1105 H 0.38876 0.09303 0.39903 0.0
H1106 H 0.35887 0.09493 0.38272 0.0
H1107 H 0.35887 0.09493 0.38272 0.0
H1108 H 0.39707 0.15071 0.41915 0.0
H1109 H 0.33934 0.12042 0.42401 0.0
H1110 H 0.40711 0.18376 0.45632 0.0
H1111 H 0.40701 0.1929 0.43445 0.0
H1112 H 0.41629 0.17854 0.43615 0.0
H1113 H 0.32444 0.13223 0.44152 0.0
H1114 H 0.33608 0.1572 0.4419 0.0
H1115 H 0.33727 0.14609 0.46185 0.0
H1116 H 0.39753 0.13353 0.58031 0.0
H1117 H 0.40274 0.15409 0.55913 0.0
H1118 H 0.34613 0.13168 0.56702 0.0
H1119 H 0.40967 0.18299 0.52451 0.0
H1120 H 0.42143 0.18163 0.54425 0.0
H1121 H 0.414 0.19775 0.5448 0.0
H1122 H 0.33124 0.14559 0.55537 0.0
H1123 H 0.34045 0.15666 0.5338 0.0
H1124 H 0.34553 0.17051 0.55494 0.0
H1125 H 0.38707 0.28941 0.55337 0.0
H1126 H 0.40517 0.32325 0.56014 0.0
H1127 H 0.41873 0.31466 0.55105 0.0
H1128 H 0.41996 0.32075 0.57551 0.0
H1129 H 0.42446 0.27299 0.56281 0.0
H1130 H 0.36911 0.25747 0.5598 0.0
H1131 H 0.42065 0.23879 0.53017 0.0
H1132 H 0.4184 0.23044 0.55302 0.0
H1133 H 0.43449 0.25453 0.54913 0.0
H1134 H 0.34576 0.22776 0.54869 0.0
H1135 H 0.35063 0.20965 0.54719 0.0
H1136 H 0.3531 0.22248 0.52719 0.0
H1137 H 0.37398 0.19241 0.4299 0.0
H1138 H 0.36978 0.15295 0.47773 0.0
H1139 H 0.37177 0.15548 0.51098 0.0
H1140 H 0.3828 0.20265 0.5576 0.0
H1141 H 0.38606 0.24179 0.50965 0.0
H1142 H 0.38322 0.23887 0.47644 0.0
H1143 H 0.37329 0.10024 0.55279 0.0
H1144 H 0.39623 0.10811 0.55984 0.0
H1145 H 0.39178 0.12266 0.54662 0.0
C1146 C 0.88406 0.2746 0.37992 0.0
C1147 C 0.89666 0.27515 0.39505 0.0
C1148 C 0.87717 0.24626 0.41117 0.0
C1149 C 0.86567 0.25141 0.41926 0.0
C1150 C 0.85089 0.23898 0.42981 0.0
C1151 C 0.84779 0.22123 0.43273 0.0
C1152 C 0.85969 0.21627 0.42517 0.0
C1153 C 0.87414 0.22882 0.41437 0.0
C1154 C 0.83837 0.24467 0.43756 0.0
C1155 C 0.85696 0.19757 0.42822 0.0
C1156 C 0.73329 0.1327 0.35867 0.0
C1157 C 0.74476 0.12984 0.37239 0.0
C1158 C 0.75611 0.14537 0.40279 0.0
C1159 C 0.77041 0.14256 0.40489 0.0
C1160 C 0.78464 0.15367 0.41764 0.0
C1161 C 0.78474 0.16815 0.42815 0.0
C1162 C 0.77018 0.17084 0.42615 0.0
C1163 C 0.75582 0.15907 0.41379 0.0
C1164 C 0.79969 0.15009 0.4196 0.0
C1165 C 0.76995 0.1864 0.43669 0.0
C1166 C 0.74808 0.13892 0.5437 0.0
C1167 C 0.76084 0.13435 0.53866 0.0
C1168 C 0.77747 0.1476 0.53122 0.0
C1169 C 0.7813 0.16569 0.52867 0.0
C1170 C 0.76879 0.17052 0.53453 0.0
C1171 C 0.7524 0.15708 0.5422 0.0
C1172 C 0.79078 0.14218 0.52571 0.0
C1173 C 0.77252 0.18974 0.53229 0.0
C1174 C 0.89669 0.2922 0.56571 0.0
C1175 C 0.88819 0.2754 0.57792 0.0
C1176 C 0.87225 0.24752 0.55689 0.0
C1177 C 0.87186 0.23157 0.55065 0.0
C1178 C 0.85771 0.21791 0.53912 0.0
C1179 C 0.84372 0.22044 0.5335 0.0
C1180 C 0.8441 0.23664 0.53956 0.0
C1181 C 0.85831 0.24999 0.55124 0.0
C1182 C 0.85769 0.20079 0.53292 0.0
C1183 C 0.82949 0.23985 0.53364 0.0
C1184 C 0.83154 0.20747 0.44278 0.0
C1185 C 0.81627 0.19459 0.43215 0.0
C1186 C 0.80049 0.18103 0.44048 0.0
C1187 C 0.79987 0.18021 0.46004 0.0
C1188 C 0.78436 0.16654 0.4689 0.0
C1189 C 0.78366 0.16622 0.48816 0.0
C1190 C 0.79857 0.17935 0.49934 0.0
C1191 C 0.7979 0.17926 0.51895 0.0
C1192 C 0.8129 0.19261 0.52963 0.0
C1193 C 0.82867 0.20618 0.52126 0.0
C1194 C 0.82965 0.20641 0.50167 0.0
C1195 C 0.84536 0.21976 0.4928 0.0
C1196 C 0.8461 0.22001 0.47351 0.0
C1197 C 0.83109 0.20708 0.46237 0.0
C1198 C 0.81516 0.19341 0.47102 0.0
C1199 C 0.81449 0.19301 0.49069 0.0
C1200 C 0.70228 0.10186 0.5396 0.0
C1201 C 0.72154 0.10747 0.54484 0.0
O1202 O 0.89107 0.25739 0.39999 0.0
O1203 O 0.88634 0.2601 0.56813 0.0
O1204 O 0.73149 0.12621 0.54998 0.0
O1205 O 0.74254 0.13525 0.3901 0.0
H1206 H 0.89651 0.28334 0.40742 0.0
H1207 H 0.8702 0.26885 0.38518 0.0
H1208 H 0.88318 0.26579 0.36765 0.0
H1209 H 0.88911 0.28882 0.37545 0.0
H1210 H 0.8679 0.26493 0.41721 0.0
H1211 H 0.88311 0.22498 0.40821 0.0
H1212 H 0.82427 0.2345 0.43269 0.0
H1213 H 0.84218 0.25867 0.43342 0.0
H1214 H 0.83858 0.24467 0.45295 0.0
H1215 H 0.86848 0.1966 0.42316 0.0
H1216 H 0.84446 0.18663 0.42077 0.0
H1217 H 0.8552 0.19474 0.44322 0.0
H1218 H 0.7591 0.13893 0.36819 0.0
H1219 H 0.735 0.12869 0.3443 0.0
H1220 H 0.73763 0.14755 0.35915 0.0
H1221 H 0.71874 0.12431 0.3622 0.0
H1222 H 0.77043 0.13165 0.39664 0.0
H1223 H 0.74463 0.16101 0.4121 0.0
H1224 H 0.80329 0.15068 0.43447 0.0
H1225 H 0.81187 0.16101 0.41264 0.0
H1226 H 0.79599 0.13641 0.41317 0.0
H1227 H 0.75915 0.18832 0.43146 0.0
H1228 H 0.78319 0.19963 0.43568 0.0
H1229 H 0.76759 0.18333 0.45159 0.0
H1230 H 0.7272 0.1046 0.53217 0.0
H1231 H 0.75783 0.12046 0.5405 0.0
H1232 H 0.74258 0.16052 0.54646 0.0
H1233 H 0.79184 0.142 0.51036 0.0
H1234 H 0.78669 0.12828 0.53045 0.0
H1235 H 0.80441 0.15256 0.53161 0.0
H1236 H 0.76099 0.19099 0.53665 0.0
H1237 H 0.77549 0.19347 0.51757 0.0
H1238 H 0.78464 0.19992 0.54078 0.0
H1239 H 0.8747 0.2724 0.58236 0.0
H1240 H 0.89862 0.30456 0.57375 0.0
H1241 H 0.88776 0.28948 0.55353 0.0
H1242 H 0.90998 0.29533 0.5605 0.0
H1243 H 0.88267 0.22979 0.555 0.0
H1244 H 0.85843 0.26231 0.55571 0.0
H1245 H 0.85825 0.19997 0.51754 0.0
H1246 H 0.84493 0.18823 0.53708 0.0
H1247 H 0.86931 0.20066 0.5389 0.0
H1248 H 0.83212 0.25352 0.5389 0.0
H1249 H 0.81628 0.22882 0.5389 0.0
H1250 H 0.82836 0.23905 0.51825 0.0
H1251 H 0.81665 0.19516 0.41714 0.0
H1252 H 0.77251 0.15602 0.46102 0.0
H1253 H 0.77125 0.15552 0.49416 0.0
H1254 H 0.8122 0.19259 0.54466 0.0
H1255 H 0.85726 0.23018 0.50067 0.0
H1256 H 0.85855 0.23057 0.46744 0.0
H1257 H 0.69402 0.08688 0.53532 0.0
H1258 H 0.70259 0.10993 0.52778 0.0
H1259 H 0.69576 0.10464 0.55149 0.0
C1260 C 0.0176 0.46524 0.31131 0.0
C1261 C 0.00691 0.45058 0.29572 0.0
C1262 C 0.01128 0.466 0.26689 0.0
C1263 C 0.99335 0.45918 0.26136 0.0
C1264 C 0.98923 0.46928 0.24977 0.0
C1265 C 0.00335 0.48648 0.24354 0.0
C1266 C 0.02152 0.49296 0.24841 0.0
C1267 C 0.02526 0.48249 0.2599 0.0
C1268 C 0.96975 0.46175 0.24444 0.0
C1269 C 0.0369 0.51116 0.24186 0.0
C1270 C 0.96405 0.55427 0.31606 0.0
C1271 C 0.98018 0.56462 0.30334 0.0
C1272 C 0.97808 0.55285 0.27173 0.0
C1273 C 0.99609 0.55889 0.26798 0.0
C1274 C 0.00027 0.54911 0.2549 0.0
C1275 C 0.98608 0.53277 0.24572 0.0
C1276 C 0.96786 0.52692 0.24924 0.0
C1277 C 0.96412 0.53734 0.26193 0.0
C1278 C 0.01985 0.55598 0.25129 0.0
C1279 C 0.95233 0.5093 0.24018 0.0
C1280 C 0.96511 0.54385 0.12398 0.0
C1281 C 0.9832 0.55359 0.13019 0.0
C1282 C 0.98997 0.54478 0.14033 0.0
C1283 C 0.97826 0.52598 0.14462 0.0
C1284 C 0.96001 0.51617 0.13825 0.0
C1285 C 0.95379 0.52519 0.12772 0.0
C1286 C 0.00966 0.55545 0.14623 0.0
C1287 C 0.9471 0.49611 0.14241 0.0
C1288 C 0.01673 0.42748 0.1343 0.0
C1289 C 0.00265 0.42621 0.12077 0.0
C1290 C 0.00414 0.45564 0.12423 0.0
C1291 C 0.01771 0.47441 0.12607 0.0
C1292 C 0.01462 0.48717 0.13554 0.0
C1293 C 0.99738 0.48094 0.14298 0.0
C1294 C 0.98332 0.4621 0.14032 0.0
C1295 C 0.98684 0.44963 0.13094 0.0
C1296 C 0.02985 0.50718 0.13801 0.0
C1297 C 0.96464 0.45512 0.14763 0.0
C1298 C 0.999 0.49814 0.23282 0.0
C1299 C 0.99508 0.50991 0.24283 0.0
C1300 C 0.99032 0.52094 0.23385 0.0
C1301 C 0.98935 0.52022 0.21422 0.0
C1302 C 0.98449 0.531 0.20468 0.0
C1303 C 0.98295 0.52966 0.18538 0.0
C1304 C 0.98672 0.51788 0.17484 0.0
C1305 C 0.9851 0.5163 0.15521 0.0
C1306 C 0.98902 0.50446 0.14524 0.0
C1307 C 0.99428 0.49389 0.15431 0.0
C1308 C 0.99587 0.49518 0.17389 0.0
C1309 C 0.00103 0.48462 0.18343 0.0
C1310 C 0.00209 0.48558 0.20272 0.0
C1311 C 0.99821 0.49727 0.21321 0.0
C1312 C 0.99327 0.50828 0.20388 0.0
C1313 C 0.99206 0.5072 0.18419 0.0
C1314 C 0.94234 0.5641 0.12813 0.0
C1315 C 0.95965 0.5684 0.1183 0.0
O1316 O 0.01543 0.45699 0.27897 0.0
O1317 O 0.00809 0.44386 0.11548 0.0
O1318 O 0.95846 0.55185 0.1136 0.0
O1319 O 0.97389 0.56152 0.28511 0.0
H1320 H 0.99316 0.44836 0.29545 0.0
H1321 H 0.01778 0.47807 0.30871 0.0
H1322 H 0.0318 0.46877 0.31205 0.0
H1323 H 0.01115 0.46014 0.32489 0.0
H1324 H 0.98257 0.44599 0.2661 0.0
H1325 H 0.03908 0.48745 0.26401 0.0
H1326 H 0.96562 0.47114 0.25038 0.0
H1327 H 0.96045 0.44764 0.24946 0.0
H1328 H 0.96827 0.46125 0.2291 0.0
H1329 H 0.05029 0.51412 0.24662 0.0
H1330 H 0.03525 0.5226 0.24711 0.0
H1331 H 0.03661 0.51098 0.22646 0.0
H1332 H 0.98893 0.55891 0.30526 0.0
H1333 H 0.96874 0.55629 0.33076 0.0
H1334 H 0.95652 0.5392 0.31219 0.0
H1335 H 0.9547 0.55928 0.31476 0.0
H1336 H 0.00683 0.57115 0.27543 0.0
H1337 H 0.95025 0.53292 0.26494 0.0
H1338 H 0.02207 0.55552 0.23614 0.0
H1339 H 0.02344 0.5468 0.25784 0.0
H1340 H 0.02909 0.57036 0.25705 0.0
H1341 H 0.93908 0.50565 0.24597 0.0
H1342 H 0.95424 0.49759 0.24202 0.0
H1343 H 0.95194 0.51095 0.22505 0.0
H1344 H 0.97129 0.57721 0.12802 0.0
H1345 H 0.99213 0.56789 0.12668 0.0
H1346 H 0.93991 0.51776 0.12258 0.0
H1347 H 0.01083 0.55723 0.1616 0.0
H1348 H 0.01734 0.56937 0.14034 0.0
H1349 H 0.01599 0.54759 0.14177 0.0
H1350 H 0.93287 0.49129 0.13874 0.0
H1351 H 0.94795 0.494 0.15737 0.0
H1352 H 0.95091 0.48737 0.13432 0.0
H1353 H 0.98952 0.41973 0.12798 0.0
H1354 H 0.01264 0.41345 0.13864 0.0
H1355 H 0.01788 0.43604 0.1469 0.0
H1356 H 0.0302 0.43396 0.12777 0.0
H1357 H 0.03091 0.47896 0.1205 0.0
H1358 H 0.97598 0.4353 0.12869 0.0
H1359 H 0.03268 0.51118 0.15304 0.0
H1360 H 0.02578 0.5162 0.13194 0.0
H1361 H 0.04246 0.50983 0.13135 0.0
H1362 H 0.95484 0.44039 0.14324 0.0
H1363 H 0.95956 0.4637 0.14269 0.0
H1364 H 0.96526 0.45641 0.16303 0.0
H1365 H 0.99559 0.51038 0.2579 0.0
H1366 H 0.98159 0.54043 0.21206 0.0
H1367 H 0.97883 0.53804 0.17881 0.0
H1368 H 0.9876 0.50317 0.13021 0.0
H1369 H 0.0042 0.47537 0.17611 0.0
H1370 H 0.00598 0.47702 0.20931 0.0
H1371 H 0.94306 0.5771 0.13264 0.0
H1372 H 0.94058 0.55623 0.14067 0.0
H1373 H 0.93036 0.55563 0.11875 0.0
C1374 C 0.45216 0.40578 0.30881 0.0
C1375 C 0.44131 0.40949 0.29506 0.0
C1376 C 0.45446 0.41702 0.26466 0.0
C1377 C 0.45166 0.43098 0.25964 0.0
C1378 C 0.46336 0.44443 0.24742 0.0
C1379 C 0.4783 0.444 0.24034 0.0
C1380 C 0.48084 0.42958 0.24507 0.0
C1381 C 0.46861 0.41603 0.25692 0.0
C1382 C 0.46001 0.45935 0.24242 0.0
C1383 C 0.4968 0.42885 0.23815 0.0
C1384 C 0.55223 0.54866 0.30759 0.0
C1385 C 0.56793 0.55169 0.29543 0.0
C1386 C 0.55397 0.53866 0.26509 0.0
C1387 C 0.55722 0.52434 0.26212 0.0
C1388 C 0.54592 0.50896 0.25019 0.0
C1389 C 0.53107 0.50791 0.24111 0.0
C1390 C 0.52811 0.52263 0.24366 0.0
C1391 C 0.53981 0.53799 0.25544 0.0
C1392 C 0.54971 0.49371 0.24744 0.0
C1393 C 0.51236 0.52192 0.23427 0.0
C1394 C 0.56655 0.53022 0.1233 0.0
C1395 C 0.56914 0.51713 0.13153 0.0
C1396 C 0.55488 0.50204 0.14037 0.0
C1397 C 0.53776 0.50007 0.14115 0.0
C1398 C 0.53501 0.51297 0.13255 0.0
C1399 C 0.54945 0.52783 0.12366 0.0
C1400 C 0.55819 0.48835 0.14917 0.0
C1401 C 0.51691 0.51126 0.1331 0.0
C1402 C 0.42489 0.35364 0.11677 0.0
C1403 C 0.43032 0.37382 0.11576 0.0
C1404 C 0.46019 0.40175 0.12129 0.0
C1405 C 0.47797 0.40696 0.12513 0.0
C1406 C 0.49006 0.42384 0.13469 0.0
C1407 C 0.48431 0.43605 0.14 0.0
C1408 C 0.46661 0.43131 0.13517 0.0
C1409 C 0.45464 0.41409 0.12605 0.0
C1410 C 0.50887 0.42844 0.13944 0.0
C1411 C 0.46025 0.44432 0.13986 0.0
C1412 C 0.49201 0.45942 0.22928 0.0
C1413 C 0.50458 0.47592 0.23894 0.0
C1414 C 0.51815 0.49102 0.2297 0.0
C1415 C 0.51935 0.48971 0.2102 0.0
C1416 C 0.53296 0.50457 0.20049 0.0
C1417 C 0.53408 0.50312 0.18131 0.0
C1418 C 0.52171 0.48669 0.1711 0.0
C1419 C 0.52298 0.48496 0.15164 0.0
C1420 C 0.51042 0.46849 0.14189 0.0
C1421 C 0.49665 0.45345 0.15109 0.0
C1422 C 0.49524 0.45486 0.1706 0.0
C1423 C 0.48169 0.43996 0.18037 0.0
C1424 C 0.48042 0.4415 0.19954 0.0
C1425 C 0.49288 0.45785 0.20974 0.0
C1426 C 0.50665 0.47306 0.20019 0.0
C1427 C 0.50782 0.47156 0.1806 0.0
C1428 C 0.60716 0.56082 0.13394 0.0
C1429 C 0.59835 0.55171 0.11495 0.0
O1430 O 0.44383 0.40459 0.27722 0.0
O1431 O 0.44879 0.38474 0.11306 0.0
O1432 O 0.58006 0.54536 0.11506 0.0
O1433 O 0.56429 0.55326 0.27714 0.0
H1434 H 0.4465 0.42459 0.29643 0.0
H1435 H 0.46675 0.41413 0.3055 0.0
H1436 H 0.44764 0.39088 0.30803 0.0
H1437 H 0.45049 0.40977 0.32321 0.0
H1438 H 0.44038 0.43138 0.26541 0.0
H1439 H 0.4705 0.40505 0.26085 0.0
H1440 H 0.47044 0.47274 0.24937 0.0
H1441 H 0.44647 0.4562 0.24678 0.0
H1442 H 0.46114 0.46112 0.2272 0.0
H1443 H 0.49769 0.41771 0.24444 0.0
H1444 H 0.50956 0.44233 0.24134 0.0
H1445 H 0.49565 0.42635 0.22285 0.0
H1446 H 0.56935 0.53957 0.29664 0.0
H1447 H 0.55499 0.54745 0.32231 0.0
H1448 H 0.53959 0.53563 0.3029 0.0
H1449 H 0.55014 0.56036 0.30668 0.0
H1450 H 0.56864 0.52522 0.26904 0.0
H1451 H 0.5376 0.54927 0.25768 0.0
H1452 H 0.53859 0.48086 0.2534 0.0
H1453 H 0.56268 0.49735 0.25416 0.0
H1454 H 0.55015 0.49065 0.23238 0.0
H1455 H 0.51161 0.53424 0.23814 0.0
H1456 H 0.49951 0.50926 0.23807 0.0
H1457 H 0.51355 0.52111 0.21897 0.0
H1458 H 0.60014 0.53994 0.11163 0.0
H1459 H 0.58221 0.5186 0.13129 0.0
H1460 H 0.54754 0.53791 0.1172 0.0
H1461 H 0.55715 0.48938 0.16448 0.0
H1462 H 0.57174 0.49084 0.14594 0.0
H1463 H 0.54771 0.474 0.14432 0.0
H1464 H 0.51703 0.52259 0.12595 0.0
H1465 H 0.513 0.51148 0.14775 0.0
H1466 H 0.50641 0.49777 0.12639 0.0
H1467 H 0.42693 0.37777 0.12941 0.0
H1468 H 0.41014 0.3446 0.11915 0.0
H1469 H 0.43227 0.35233 0.12849 0.0
H1470 H 0.42823 0.34878 0.10371 0.0
H1471 H 0.48217 0.39742 0.12114 0.0
H1472 H 0.44102 0.41034 0.12258 0.0
H1473 H 0.51181 0.43215 0.15452 0.0
H1474 H 0.51891 0.44065 0.13178 0.0
H1475 H 0.51068 0.41675 0.13581 0.0
H1476 H 0.44721 0.43988 0.13276 0.0
H1477 H 0.47055 0.45859 0.13591 0.0
H1478 H 0.45841 0.44483 0.15507 0.0
H1479 H 0.50386 0.47701 0.25394 0.0
H1480 H 0.54292 0.5175 0.20763 0.0
H1481 H 0.54483 0.51504 0.17459 0.0
H1482 H 0.51154 0.46725 0.12697 0.0
H1483 H 0.47187 0.42692 0.17332 0.0
H1484 H 0.46963 0.42964 0.20629 0.0
H1485 H 0.60528 0.57246 0.13762 0.0
H1486 H 0.62187 0.5662 0.13373 0.0
H1487 H 0.60107 0.55061 0.14491 0.0
C1488 C 0.42636 0.96136 0.29488 0.0
C1489 C 0.42767 0.97831 0.2868 0.0
C1490 C 0.44072 0.98221 0.2564 0.0
C1491 C 0.45463 0.00095 0.25692 0.0
C1492 C 0.46994 0.00706 0.24594 0.0
C1493 C 0.47137 0.99407 0.23437 0.0
C1494 C 0.45708 0.97521 0.23346 0.0
C1495 C 0.44175 0.96958 0.24431 0.0
C1496 C 0.48474 0.02733 0.24696 0.0
C1497 C 0.45824 0.96095 0.22147 0.0
C1498 C 0.56329 0.01121 0.30577 0.0
C1499 C 0.56983 0.00408 0.28966 0.0
C1500 C 0.56089 0.01304 0.2622 0.0
C1501 C 0.54825 0.99578 0.25362 0.0
C1502 C 0.53494 0.99397 0.24135 0.0
C1503 C 0.53428 0.00974 0.23766 0.0
C1504 C 0.54734 0.02726 0.24592 0.0
C1505 C 0.56069 0.02871 0.25789 0.0
C1506 C 0.52148 0.97517 0.23244 0.0
C1507 C 0.54696 0.04436 0.24244 0.0
C1508 C 0.58049 0.04846 0.12573 0.0
C1509 C 0.56868 0.0292 0.12643 0.0
C1510 C 0.55136 0.02165 0.13386 0.0
C1511 C 0.54592 0.03366 0.14097 0.0
C1512 C 0.55763 0.05306 0.13969 0.0
C1513 C 0.57468 0.06017 0.1318 0.0
C1514 C 0.53895 0.00088 0.13432 0.0
C1515 C 0.5523 0.06631 0.14699 0.0
C1516 C 0.41885 0.01527 0.13139 0.0
C1517 C 0.4313 0.02643 0.11569 0.0
C1518 C 0.45519 0.01964 0.11909 0.0
C1519 C 0.45856 0.00557 0.11522 0.0
C1520 C 0.47227 0.00512 0.12477 0.0
C1521 C 0.48322 0.01947 0.13812 0.0
C1522 C 0.48041 0.03422 0.14151 0.0
C1523 C 0.46626 0.03401 0.13218 0.0
C1524 C 0.47484 0.98917 0.12082 0.0
C1525 C 0.4923 0.05018 0.15509 0.0
C1526 C 0.48833 3e-05 0.22422 0.0
C1527 C 0.50285 0.00179 0.2342 0.0
C1528 C 0.51943 0.00776 0.22587 0.0
C1529 C 0.52167 0.01201 0.20694 0.0
C1530 C 0.53816 0.01801 0.1981 0.0
C1531 C 0.54038 0.02263 0.1796 0.0
C1532 C 0.52611 0.02118 0.16912 0.0
C1533 C 0.5283 0.02608 0.15035 0.0
C1534 C 0.51394 0.02486 0.1405 0.0
C1535 C 0.49736 0.01892 0.14889 0.0
C1536 C 0.49481 0.01365 0.16753 0.0
C1537 C 0.47821 0.00733 0.17631 0.0
C1538 C 0.47604 0.00287 0.19487 0.0
C1539 C 0.49031 0.00431 0.2053 0.0
C1540 C 0.50706 0.01033 0.19663 0.0
C1541 C 0.50929 0.01494 0.17771 0.0
C1542 C 0.62678 0.06584 0.13029 0.0
C1543 C 0.60903 0.04996 0.12155 0.0
O1544 O 0.42629 0.97604 0.26759 0.0
O1545 O 0.44126 0.01884 0.10981 0.0
O1546 O 0.59747 0.05623 0.1191 0.0
O1547 O 0.57349 0.015 0.27457 0.0
H1548 H 0.44102 0.99071 0.29121 0.0
H1549 H 0.43751 0.95987 0.2896 0.0
H1550 H 0.41325 0.94855 0.29081 0.0
H1551 H 0.42756 0.96297 0.31028 0.0
H1552 H 0.4535 0.01076 0.26596 0.0
H1553 H 0.4308 0.95515 0.24395 0.0
H1554 H 0.49691 0.0291 0.2539 0.0
H1555 H 0.48063 0.03595 0.25485 0.0
H1556 H 0.48859 0.0325 0.23277 0.0
H1557 H 0.44629 0.94672 0.22291 0.0
H1558 H 0.47062 0.96111 0.22525 0.0
H1559 H 0.45927 0.96443 0.20669 0.0
H1560 H 0.55897 0.98948 0.28604 0.0
H1561 H 0.56043 0.00266 0.31802 0.0
H1562 H 0.55063 0.01033 0.3016 0.0
H1563 H 0.57365 0.0259 0.30974 0.0
H1564 H 0.54886 0.98375 0.25636 0.0
H1565 H 0.57069 0.042 0.26442 0.0
H1566 H 0.52091 0.97614 0.21718 0.0
H1567 H 0.5078 0.97035 0.23781 0.0
H1568 H 0.52487 0.96466 0.23531 0.0
H1569 H 0.55741 0.05671 0.25081 0.0
H1570 H 0.53345 0.04191 0.24578 0.0
H1571 H 0.54927 0.0474 0.22752 0.0
H1572 H 0.60326 0.03857 0.13144 0.0
H1573 H 0.57292 0.02007 0.12106 0.0
H1574 H 0.58381 0.075 0.13088 0.0
H1575 H 0.53741 0.9967 0.1489 0.0
H1576 H 0.54421 0.99346 0.12613 0.0
H1577 H 0.52531 0.99644 0.1288 0.0
H1578 H 0.5635 0.08103 0.14626 0.0
H1579 H 0.54804 0.06354 0.16163 0.0
H1580 H 0.54059 0.06416 0.13873 0.0
H1581 H 0.44048 0.04107 0.12073 0.0
H1582 H 0.41072 0.02114 0.13616 0.0
H1583 H 0.42699 0.01577 0.14341 0.0
H1584 H 0.40954 0.00055 0.12659 0.0
H1585 H 0.45006 0.99463 0.10499 0.0
H1586 H 0.46417 0.04526 0.13508 0.0
H1587 H 0.47439 0.98263 0.13396 0.0
H1588 H 0.48836 0.99441 0.11478 0.0
H1589 H 0.46438 0.97844 0.111 0.0
H1590 H 0.49027 0.0619 0.15394 0.0
H1591 H 0.50678 0.05532 0.15279 0.0
H1592 H 0.48915 0.04539 0.16946 0.0
H1593 H 0.50128 0.99861 0.24877 0.0
H1594 H 0.5496 0.01935 0.20545 0.0
H1595 H 0.55346 0.0274 0.17364 0.0
H1596 H 0.51585 0.02904 0.12625 0.0
H1597 H 0.46672 0.00588 0.16897 0.0
H1598 H 0.46304 0.99831 0.20095 0.0
H1599 H 0.63623 0.06115 0.13284 0.0
H1600 H 0.62411 0.07061 0.14381 0.0
H1601 H 0.63332 0.07771 0.12105 0.0
C1602 C 0.53958 0.96564 0.70544 0.0
C1603 C 0.55166 0.98038 0.72039 0.0
C1604 C 0.53975 0.98021 0.75115 0.0
C1605 C 0.5476 0.99935 0.75455 0.0
C1606 C 0.54037 0.00606 0.76781 0.0
C1607 C 0.52497 0.99337 0.77776 0.0
C1608 C 0.51752 0.97407 0.77485 0.0
C1609 C 0.52527 0.9678 0.76179 0.0
C1610 C 0.5489 0.0267 0.77089 0.0
C1611 C 0.50097 0.96002 0.78498 0.0
C1612 C 0.41279 0.00474 0.73445 0.0
C1613 C 0.42349 0.99918 0.74512 0.0
C1614 C 0.45332 0.01166 0.7592 0.0
C1615 C 0.4485 0.99521 0.76786 0.0
C1616 C 0.46118 0.99395 0.77841 0.0
C1617 C 0.47898 0.00959 0.7808 0.0
C1618 C 0.48382 0.02628 0.77245 0.0
C1619 C 0.47091 0.02706 0.76167 0.0
C1620 C 0.45556 0.97575 0.78677 0.0
C1621 C 0.50265 0.04322 0.7748 0.0
C1622 C 0.44548 0.00029 0.89657 0.0
C1623 C 0.44356 0.98425 0.88784 0.0
C1624 C 0.4583 0.98474 0.87941 0.0
C1625 C 0.47539 0.00154 0.87983 0.0
C1626 C 0.47755 0.01754 0.88916 0.0
C1627 C 0.46253 0.01669 0.8974 0.0
C1628 C 0.45545 0.96739 0.8695 0.0
C1629 C 0.49559 0.03564 0.88989 0.0
C1630 C 0.5736 0.96117 0.88118 0.0
C1631 C 0.57432 0.97724 0.89235 0.0
C1632 C 0.54693 0.97813 0.89259 0.0
C1633 C 0.52856 0.96554 0.88888 0.0
C1634 C 0.51769 0.97129 0.88132 0.0
C1635 C 0.52537 0.99026 0.87793 0.0
C1636 C 0.5437 0.00328 0.88289 0.0
C1637 C 0.55434 0.99705 0.8901 0.0
C1638 C 0.49811 0.95703 0.8766 0.0
C1639 C 0.55215 0.02368 0.88015 0.0
C1640 C 0.51555 5e-05 0.7898 0.0
C1641 C 0.50395 0.00413 0.78104 0.0
C1642 C 0.49266 0.00805 0.79127 0.0
C1643 C 0.49304 0.00814 0.81087 0.0
C1644 C 0.48162 0.01168 0.82157 0.0
C1645 C 0.48098 0.01017 0.84072 0.0
C1646 C 0.49197 0.00539 0.84994 0.0
C1647 C 0.49046 0.00253 0.8692 0.0
C1648 C 0.50194 0.99831 0.87807 0.0
C1649 C 0.51456 0.99621 0.86804 0.0
C1650 C 0.51573 0.99828 0.8486 0.0
C1651 C 0.52762 0.99538 0.83789 0.0
C1652 C 0.52793 0.99643 0.81867 0.0
C1653 C 0.51632 0.00031 0.8094 0.0
C1654 C 0.50479 0.00406 0.81995 0.0
C1655 C 0.50437 0.00287 0.83955 0.0
C1656 C 0.40443 0.98364 0.88478 0.0
C1657 C 0.41329 0.98637 0.90396 0.0
O1658 O 0.54571 0.97324 0.7377 0.0
O1659 O 0.55715 0.97161 0.89849 0.0
O1660 O 0.43133 0.0007 0.90403 0.0
O1661 O 0.44146 0.0131 0.74836 0.0
H1662 H 0.55035 0.99251 0.71851 0.0
H1663 H 0.52537 0.96183 0.70712 0.0
H1664 H 0.54007 0.95297 0.70655 0.0
H1665 H 0.54399 0.97106 0.69139 0.0
H1666 H 0.55933 0.00902 0.74683 0.0
H1667 H 0.51954 0.95307 0.75923 0.0
H1668 H 0.53979 0.03071 0.7651 0.0
H1669 H 0.56221 0.03471 0.76412 0.0
H1670 H 0.55073 0.03057 0.78599 0.0
H1671 H 0.49584 0.94558 0.77974 0.0
H1672 H 0.48999 0.96279 0.78354 0.0
H1673 H 0.50428 0.96115 0.8 0.0
H1674 H 0.42171 0.98573 0.74013 0.0
H1675 H 0.40876 0.99599 0.7211 0.0
H1676 H 0.42286 0.01801 0.72775 0.0
H1677 H 0.39368 0.00298 0.75372 0.0
H1678 H 0.43492 0.98317 0.7663 0.0
H1679 H 0.47453 0.03971 0.75504 0.0
H1680 H 0.45549 0.97731 0.80212 0.0
H1681 H 0.46538 0.97165 0.78321 0.0
H1682 H 0.44187 0.96438 0.7819 0.0
H1683 H 0.50381 0.05561 0.76892 0.0
H1684 H 0.51239 0.04049 0.76773 0.0
H1685 H 0.50659 0.04628 0.78976 0.0
H1686 H 0.41228 0.97328 0.90743 0.0
H1687 H 0.43058 0.97134 0.88719 0.0
H1688 H 0.46396 0.02898 0.90425 0.0
H1689 H 0.45753 0.96956 0.8544 0.0
H1690 H 0.44167 0.95513 0.87149 0.0
H1691 H 0.46552 0.96436 0.87459 0.0
H1692 H 0.49528 0.04663 0.89841 0.0
H1693 H 0.49961 0.04042 0.87558 0.0
H1694 H 0.5061 0.0336 0.89573 0.0
H1695 H 0.57917 0.98868 0.88262 0.0
H1696 H 0.58732 0.96529 0.87644 0.0
H1697 H 0.56464 0.95737 0.86875 0.0
H1698 H 0.56817 0.94876 0.88961 0.0
H1699 H 0.52292 0.95102 0.89126 0.0
H1700 H 0.56842 0.00694 0.89375 0.0
H1701 H 0.49484 0.95828 0.8621 0.0
H1702 H 0.4894 0.95953 0.88592 0.0
H1703 H 0.49475 0.94265 0.87824 0.0
H1704 H 0.56573 0.03223 0.88695 0.0
H1705 H 0.54329 0.02835 0.88579 0.0
H1706 H 0.55356 0.02614 0.86507 0.0
H1707 H 0.50305 0.00335 0.76598 0.0
H1708 H 0.47276 0.01526 0.8152 0.0
H1709 H 0.47161 0.01265 0.84819 0.0
H1710 H 0.50055 0.99592 0.89281 0.0
H1711 H 0.53661 0.99195 0.84419 0.0
H1712 H 0.5372 0.99386 0.81111 0.0
H1713 H 0.40587 0.9967 0.88053 0.0
H1714 H 0.38983 0.97266 0.88505 0.0
H1715 H 0.41081 0.97931 0.8741 0.0
C1716 C 0.01975 0.57147 0.70571 0.0
C1717 C 0.00685 0.56747 0.72179 0.0
C1718 C 0.01076 0.55555 0.75033 0.0
C1719 C 0.99263 0.54378 0.75512 0.0
C1720 C 0.98767 0.52959 0.76743 0.0
C1721 C 0.00111 0.52703 0.77485 0.0
C1722 C 0.01946 0.53912 0.7702 0.0
C1723 C 0.02405 0.55349 0.7583 0.0
C1724 C 0.96805 0.51726 0.77235 0.0
C1725 C 0.0342 0.53668 0.77747 0.0
C1726 C 0.9391 0.37728 0.76828 0.0
C1727 C 0.9565 0.3933 0.76051 0.0
C1728 C 0.96123 0.42414 0.76186 0.0
C1729 C 0.97989 0.43501 0.76565 0.0
C1730 C 0.98784 0.45303 0.77369 0.0
C1731 C 0.97678 0.4601 0.77832 0.0
C1732 C 0.95805 0.44935 0.77386 0.0
C1733 C 0.95057 0.43157 0.7654 0.0
C1734 C 0.00798 0.46438 0.77748 0.0
C1735 C 0.94587 0.45647 0.77839 0.0
C1736 C 0.00465 0.44599 0.89177 0.0
C1737 C 0.01861 0.45792 0.88006 0.0
C1738 C 0.0184 0.47239 0.87183 0.0
C1739 C 0.00381 0.47486 0.8751 0.0
C1740 C 0.98993 0.46316 0.88716 0.0
C1741 C 0.99061 0.44893 0.89543 0.0
C1742 C 0.03366 0.48482 0.8593 0.0
C1743 C 0.97419 0.46541 0.89091 0.0
C1744 C 0.05474 0.62411 0.886 0.0
C1745 C 0.03817 0.60612 0.89217 0.0
C1746 C 0.0352 0.57603 0.88994 0.0
C1747 C 0.04598 0.56888 0.88566 0.0
C1748 C 0.03843 0.55095 0.87755 0.0
C1749 C 0.0195 0.53973 0.87426 0.0
C1750 C 0.00838 0.5465 0.87973 0.0
C1751 C 0.01638 0.56468 0.88735 0.0
C1752 C 0.05075 0.54421 0.87207 0.0
C1753 C 0.98809 0.53467 0.87719 0.0
C1754 C 0.99599 0.5113 0.78685 0.0
C1755 C 0.98868 0.49369 0.7782 0.0
C1756 C 0.98463 0.47842 0.78838 0.0
C1757 C 0.98823 0.48076 0.80775 0.0
C1758 C 0.98474 0.4658 0.81836 0.0
C1759 C 0.98935 0.46846 0.83716 0.0
C1760 C 0.99717 0.48609 0.84619 0.0
C1761 C 0.00279 0.48911 0.86505 0.0
C1762 C 0.00947 0.50652 0.87395 0.0
C1763 C 0.01151 0.52134 0.86424 0.0
C1764 C 0.00704 0.51885 0.84504 0.0
C1765 C 0.00996 0.53368 0.83452 0.0
C1766 C 0.00606 0.53119 0.81554 0.0
C1767 C 0.99919 0.5138 0.80629 0.0
C1768 C 0.99562 0.49854 0.81669 0.0
C1769 C 0.99976 0.50112 0.83603 0.0
C1770 C 0.00993 0.41365 0.8774 0.0
C1771 C 0.01514 0.42465 0.89613 0.0
O1772 O 0.01589 0.56912 0.73821 0.0
O1773 O 0.04338 0.59392 0.89645 0.0
O1774 O 0.00404 0.43146 0.89965 0.0
O1775 O 0.95315 0.40649 0.75469 0.0
H1776 H 0.99506 0.55304 0.71929 0.0
H1777 H 0.02439 0.56162 0.70548 0.0
H1778 H 0.03177 0.58582 0.70731 0.0
H1779 H 0.01281 0.56977 0.69223 0.0
H1780 H 0.9824 0.54578 0.74936 0.0
H1781 H 0.03803 0.56283 0.75464 0.0
H1782 H 0.9625 0.50332 0.76549 0.0
H1783 H 0.95978 0.5228 0.76781 0.0
H1784 H 0.96674 0.51559 0.78758 0.0
H1785 H 0.04722 0.54545 0.77039 0.0
H1786 H 0.03016 0.52197 0.77563 0.0
H1787 H 0.03642 0.54054 0.79255 0.0
H1788 H 0.96682 0.39916 0.772 0.0
H1789 H 0.94145 0.36661 0.77337 0.0
H1790 H 0.92818 0.37077 0.75745 0.0
H1791 H 0.93458 0.38252 0.78012 0.0
H1792 H 0.98823 0.42944 0.76226 0.0
H1793 H 0.93622 0.42312 0.76209 0.0
H1794 H 0.01388 0.47867 0.77274 0.0
H1795 H 0.01498 0.45811 0.7705 0.0
H1796 H 0.01065 0.46545 0.79265 0.0
H1797 H 0.9314 0.44586 0.77529 0.0
H1798 H 0.94986 0.46873 0.77017 0.0
H1799 H 0.94742 0.46099 0.79332 0.0
H1800 H 0.02949 0.43633 0.89591 0.0
H1801 H 0.02968 0.45602 0.87709 0.0
H1802 H 0.97994 0.43976 0.90454 0.0
H1803 H 0.02859 0.4819 0.84469 0.0
H1804 H 0.04513 0.48273 0.86017 0.0
H1805 H 0.03873 0.4996 0.86295 0.0
H1806 H 0.96429 0.45496 0.90038 0.0
H1807 H 0.96716 0.46412 0.87763 0.0
H1808 H 0.97922 0.47947 0.89722 0.0
H1809 H 0.0284 0.60039 0.88017 0.0
H1810 H 0.0509 0.63409 0.8823 0.0
H1811 H 0.06054 0.62117 0.87356 0.0
H1812 H 0.06529 0.63056 0.89721 0.0
H1813 H 0.06047 0.57769 0.88803 0.0
H1814 H 0.00795 0.57001 0.89129 0.0
H1815 H 0.04817 0.539 0.85733 0.0
H1816 H 0.04788 0.53252 0.88069 0.0
H1817 H 0.06527 0.55526 0.87395 0.0
H1818 H 0.98123 0.54079 0.88476 0.0
H1819 H 0.98285 0.52056 0.88212 0.0
H1820 H 0.98451 0.5332 0.86221 0.0
H1821 H 0.98631 0.49187 0.76328 0.0
H1822 H 0.97874 0.45192 0.8122 0.0
H1823 H 0.98669 0.45651 0.84455 0.0
H1824 H 0.01371 0.50872 0.88844 0.0
H1825 H 0.01551 0.54747 0.84079 0.0
H1826 H 0.00865 0.54313 0.80816 0.0
H1827 H 0.01865 0.40797 0.87472 0.0
H1828 H 0.01178 0.42272 0.86594 0.0
H1829 H 0.99555 0.40201 0.87727 0.0
C1830 C 0.58568 0.59953 0.74037 0.0
C1831 C 0.56723 0.59155 0.74783 0.0
C1832 C 0.54243 0.56248 0.75923 0.0
C1833 C 0.53192 0.56972 0.76513 0.0
C1834 C 0.5156 0.55871 0.77428 0.0
C1835 C 0.50987 0.54024 0.77797 0.0
C1836 C 0.52043 0.53294 0.77212 0.0
C1837 C 0.53651 0.54415 0.76267 0.0
C1838 C 0.50451 0.56684 0.78004 0.0
C1839 C 0.51476 0.51333 0.77589 0.0
C1840 C 0.39764 0.46498 0.70222 0.0
C1841 C 0.40789 0.4597 0.71502 0.0
C1842 C 0.41689 0.47127 0.74677 0.0
C1843 C 0.42941 0.46638 0.75077 0.0
C1844 C 0.4432 0.4767 0.76415 0.0
C1845 C 0.44477 0.49258 0.77326 0.0
C1846 C 0.43195 0.49739 0.7693 0.0
C1847 C 0.41785 0.48633 0.75641 0.0
C1848 C 0.45635 0.47087 0.76816 0.0
C1849 C 0.43342 0.51453 0.77814 0.0
C1850 C 0.40466 0.4761 0.88961 0.0
C1851 C 0.41511 0.46856 0.88481 0.0
C1852 C 0.43228 0.47954 0.87715 0.0
C1853 C 0.43891 0.49833 0.87388 0.0
C1854 C 0.42867 0.50612 0.87937 0.0
C1855 C 0.41176 0.49492 0.88746 0.0
C1856 C 0.44317 0.47098 0.87227 0.0
C1857 C 0.43538 0.52614 0.87633 0.0
C1858 C 0.56733 0.61547 0.89292 0.0
C1859 C 0.55907 0.60493 0.9106 0.0
C1860 C 0.53571 0.57372 0.89801 0.0
C1861 C 0.53155 0.55556 0.89501 0.0
C1862 C 0.51587 0.54217 0.88508 0.0
C1863 C 0.50406 0.54713 0.87796 0.0
C1864 C 0.50791 0.56536 0.88133 0.0
C1865 C 0.52367 0.57848 0.89136 0.0
C1866 C 0.51214 0.52285 0.88178 0.0
C1867 C 0.49554 0.57106 0.87395 0.0
C1868 C 0.49278 0.52853 0.78791 0.0
C1869 C 0.47724 0.51633 0.77732 0.0
C1870 C 0.46063 0.50493 0.78568 0.0
C1871 C 0.45941 0.50574 0.80525 0.0
C1872 C 0.443 0.49439 0.8142 0.0
C1873 C 0.44185 0.49574 0.83341 0.0
C1874 C 0.45718 0.50817 0.84449 0.0
C1875 C 0.45618 0.50964 0.86405 0.0
C1876 C 0.47167 0.52229 0.87457 0.0
C1877 C 0.48824 0.53358 0.8661 0.0
C1878 C 0.48955 0.53216 0.84661 0.0
C1879 C 0.50609 0.54315 0.8377 0.0
C1880 C 0.50723 0.54182 0.81851 0.0
C1881 C 0.49184 0.52963 0.80746 0.0
C1882 C 0.47506 0.51826 0.81615 0.0
C1883 C 0.47394 0.51948 0.83577 0.0
C1884 C 0.35678 0.44451 0.88772 0.0
C1885 C 0.37536 0.44723 0.89085 0.0
O1886 O 0.55827 0.57267 0.75027 0.0
O1887 O 0.55152 0.58608 0.90711 0.0
O1888 O 0.38767 0.46561 0.89619 0.0
O1889 O 0.40406 0.46192 0.73327 0.0
H1890 H 0.55875 0.59576 0.74074 0.0
H1891 H 0.58648 0.58753 0.73446 0.0
H1892 H 0.60278 0.61758 0.7623 0.0
H1893 H 0.58506 0.60455 0.72637 0.0
H1894 H 0.5363 0.58389 0.76257 0.0
H1895 H 0.54469 0.53869 0.75807 0.0
H1896 H 0.49029 0.55752 0.77504 0.0
H1897 H 0.50992 0.58078 0.77458 0.0
H1898 H 0.50437 0.56806 0.79542 0.0
H1899 H 0.52527 0.51031 0.77196 0.0
H1900 H 0.50216 0.50353 0.76787 0.0
H1901 H 0.51181 0.51079 0.79084 0.0
H1902 H 0.42261 0.46934 0.71251 0.0
H1903 H 0.40078 0.46374 0.68746 0.0
H1904 H 0.40175 0.47958 0.70548 0.0
H1905 H 0.38281 0.45588 0.70409 0.0
H1906 H 0.42838 0.45452 0.74336 0.0
H1907 H 0.40801 0.48989 0.75315 0.0
H1908 H 0.45946 0.47229 0.78327 0.0
H1909 H 0.46917 0.48 0.76095 0.0
H1910 H 0.45105 0.45632 0.76318 0.0
H1911 H 0.42414 0.51784 0.7714 0.0
H1912 H 0.44748 0.52665 0.77736 0.0
H1913 H 0.42998 0.51239 0.79302 0.0
H1914 H 0.37914 0.44371 0.8772 0.0
H1915 H 0.4099 0.45411 0.88704 0.0
H1916 H 0.40369 0.50065 0.89149 0.0
H1917 H 0.44337 0.4692 0.85695 0.0
H1918 H 0.43744 0.45721 0.87826 0.0
H1919 H 0.45738 0.48024 0.87731 0.0
H1920 H 0.42514 0.52965 0.87995 0.0
H1921 H 0.43909 0.52924 0.86159 0.0
H1922 H 0.44773 0.53523 0.88501 0.0
H1923 H 0.54849 0.60749 0.91565 0.0
H1924 H 0.57373 0.6306 0.89589 0.0
H1925 H 0.55676 0.61105 0.88197 0.0
H1926 H 0.57771 0.61282 0.88744 0.0
H1927 H 0.54084 0.55199 0.90026 0.0
H1928 H 0.52653 0.59239 0.8937 0.0
H1929 H 0.51231 0.51989 0.86665 0.0
H1930 H 0.49845 0.51256 0.88674 0.0
H1931 H 0.52224 0.52096 0.88892 0.0
H1932 H 0.5001 0.58559 0.87823 0.0
H1933 H 0.48162 0.56175 0.87897 0.0
H1934 H 0.49492 0.56962 0.85854 0.0
H1935 H 0.47807 0.51576 0.7623 0.0
H1936 H 0.4308 0.48446 0.80642 0.0
H1937 H 0.42877 0.48687 0.83946 0.0
H1938 H 0.47079 0.52345 0.88953 0.0
H1939 H 0.51837 0.55291 0.84545 0.0
H1940 H 0.52033 0.55059 0.81245 0.0
H1941 H 0.35221 0.44848 0.9005 0.0
H1942 H 0.34665 0.42981 0.88356 0.0
H1943 H 0.3575 0.45331 0.87643 0.0
C1944 C 0.62944 0.75939 0.64342 0.0
C1945 C 0.63631 0.75412 0.62607 0.0
C1946 C 0.64304 0.77876 0.60486 0.0
C1947 C 0.62492 0.77277 0.60075 0.0
C1948 C 0.6207 0.78283 0.58924 0.0
C1949 C 0.63481 0.79924 0.58169 0.0
C1950 C 0.65302 0.8052 0.58556 0.0
C1951 C 0.65688 0.79482 0.59706 0.0
C1952 C 0.60112 0.77608 0.58531 0.0
C1953 C 0.66839 0.82266 0.57773 0.0
C1954 C 0.6081 0.88181 0.65139 0.0
C1955 C 0.6216 0.88869 0.63559 0.0
C1956 C 0.61526 0.87111 0.60619 0.0
C1957 C 0.63284 0.87604 0.60154 0.0
C1958 C 0.6357 0.86465 0.58928 0.0
C1959 C 0.62066 0.84789 0.58175 0.0
C1960 C 0.6029 0.84318 0.58605 0.0
C1961 C 0.60045 0.85511 0.59795 0.0
C1962 C 0.6548 0.87033 0.58468 0.0
C1963 C 0.58652 0.82529 0.57858 0.0
C1964 C 0.5998 0.85936 0.46485 0.0
C1965 C 0.61813 0.86652 0.4689 0.0
C1966 C 0.62357 0.85553 0.47695 0.0
C1967 C 0.61036 0.83711 0.48125 0.0
C1968 C 0.592 0.82961 0.47632 0.0
C1969 C 0.58701 0.84081 0.46793 0.0
C1970 C 0.64335 0.86373 0.48134 0.0
C1971 C 0.57759 0.80996 0.48043 0.0
C1972 C 0.61374 0.71772 0.46307 0.0
C1973 C 0.61952 0.73084 0.44702 0.0
C1974 C 0.62901 0.76132 0.46205 0.0
C1975 C 0.64391 0.7791 0.46629 0.0
C1976 C 0.6419 0.79262 0.47572 0.0
C1977 C 0.6245 0.78812 0.48122 0.0
C1978 C 0.60929 0.77021 0.47683 0.0
C1979 C 0.61167 0.757 0.46723 0.0
C1980 C 0.65839 0.81163 0.48005 0.0
C1981 C 0.59055 0.76497 0.48253 0.0
C1982 C 0.63048 0.81061 0.57049 0.0
C1983 C 0.62794 0.82365 0.57997 0.0
C1984 C 0.62354 0.8347 0.57049 0.0
C1985 C 0.6217 0.83282 0.55091 0.0
C1986 C 0.61746 0.84382 0.5409 0.0
C1987 C 0.6153 0.84159 0.52167 0.0
C1988 C 0.61763 0.82849 0.51166 0.0
C1989 C 0.61552 0.82616 0.49209 0.0
C1990 C 0.61793 0.81301 0.48258 0.0
C1991 C 0.6223 0.80194 0.49212 0.0
C1992 C 0.62439 0.80401 0.51169 0.0
C1993 C 0.62863 0.793 0.52174 0.0
C1994 C 0.63068 0.79515 0.54098 0.0
C1995 C 0.6285 0.80836 0.55093 0.0
C1996 C 0.62413 0.81954 0.54111 0.0
C1997 C 0.62209 0.81738 0.52147 0.0
C1998 C 0.58646 0.89215 0.46708 0.0
C1999 C 0.60156 0.8887 0.46248 0.0
O2000 O 0.6478 0.76973 0.61636 0.0
O2001 O 0.63212 0.74888 0.45323 0.0
O2002 O 0.59397 0.86996 0.45819 0.0
O2003 O 0.61222 0.88135 0.61883 0.0
H2004 H 0.6245 0.74411 0.61707 0.0
H2005 H 0.62132 0.76526 0.63946 0.0
H2006 H 0.64091 0.7699 0.65246 0.0
H2007 H 0.62067 0.74692 0.65145 0.0
H2008 H 0.61393 0.76039 0.60655 0.0
H2009 H 0.67079 0.79936 0.60023 0.0
H2010 H 0.59814 0.78643 0.59108 0.0
H2011 H 0.59169 0.76255 0.59143 0.0
H2012 H 0.59853 0.77463 0.57009 0.0
H2013 H 0.68183 0.82535 0.58191 0.0
H2014 H 0.66751 0.83469 0.58256 0.0
H2015 H 0.66727 0.8216 0.56234 0.0
H2016 H 0.63074 0.88355 0.63802 0.0
H2017 H 0.61531 0.88747 0.66501 0.0
H2018 H 0.60059 0.86644 0.65134 0.0
H2019 H 0.59818 0.88605 0.64976 0.0
H2020 H 0.64429 0.88875 0.60756 0.0
H2021 H 0.58695 0.85157 0.60154 0.0
H2022 H 0.65605 0.86877 0.56947 0.0
H2023 H 0.65819 0.86111 0.59151 0.0
H2024 H 0.66481 0.88488 0.58944 0.0
H2025 H 0.57376 0.82291 0.58461 0.0
H2026 H 0.58782 0.8134 0.58159 0.0
H2027 H 0.58557 0.82559 0.56328 0.0
H2028 H 0.6103 0.89304 0.47523 0.0
H2029 H 0.62817 0.88071 0.46587 0.0
H2030 H 0.57294 0.83534 0.46443 0.0
H2031 H 0.64566 0.86597 0.49661 0.0
H2032 H 0.65211 0.87721 0.47484 0.0
H2033 H 0.64747 0.854 0.47648 0.0
H2034 H 0.56382 0.80647 0.47642 0.0
H2035 H 0.57785 0.80783 0.49548 0.0
H2036 H 0.58038 0.80021 0.47276 0.0
H2037 H 0.6074 0.7301 0.44114 0.0
H2038 H 0.60395 0.70323 0.45794 0.0
H2039 H 0.60708 0.72149 0.47397 0.0
H2040 H 0.62563 0.71844 0.4695 0.0
H2041 H 0.65721 0.78235 0.46223 0.0
H2042 H 0.59994 0.74334 0.46407 0.0
H2043 H 0.66053 0.81409 0.49533 0.0
H2044 H 0.65626 0.82239 0.47483 0.0
H2045 H 0.6708 0.8133 0.4738 0.0
H2046 H 0.58015 0.75032 0.47851 0.0
H2047 H 0.58692 0.7741 0.47595 0.0
H2048 H 0.59031 0.7671 0.49781 0.0
H2049 H 0.62928 0.82513 0.595 0.0
H2050 H 0.61564 0.85422 0.54784 0.0
H2051 H 0.61181 0.85031 0.51478 0.0
H2052 H 0.61629 0.81129 0.46758 0.0
H2053 H 0.63042 0.78257 0.51484 0.0
H2054 H 0.63396 0.78631 0.54797 0.0
H2055 H 0.5768 0.88771 0.45515 0.0
H2056 H 0.59223 0.9071 0.47062 0.0
H2057 H 0.57892 0.88416 0.47923 0.0
C2058 C 0.09745 0.7088 0.60935 0.0
C2059 C 0.09949 0.72438 0.62263 0.0
C2060 C 0.11579 0.75226 0.60422 0.0
C2061 C 0.114 0.76535 0.5952 0.0
C2062 C 0.12852 0.77967 0.58589 0.0
C2063 C 0.14524 0.78076 0.58538 0.0
C2064 C 0.14726 0.76764 0.59457 0.0
C2065 C 0.13255 0.75357 0.60401 0.0
C2066 C 0.12594 0.79361 0.57654 0.0
C2067 C 0.16492 0.76841 0.59425 0.0
C2068 C 0.26865 0.91312 0.63311 0.0
C2069 C 0.25675 0.89382 0.62535 0.0
C2070 C 0.22748 0.87424 0.60935 0.0
C2071 C 0.23037 0.85998 0.60401 0.0
C2072 C 0.21736 0.84435 0.59333 0.0
C2073 C 0.20117 0.84298 0.58781 0.0
C2074 C 0.19815 0.85724 0.59324 0.0
C2075 C 0.21138 0.87269 0.60398 0.0
C2076 C 0.22092 0.82932 0.58785 0.0
C2077 C 0.18103 0.85619 0.58758 0.0
C2078 C 0.22635 0.87121 0.46665 0.0
C2079 C 0.23064 0.85799 0.47067 0.0
C2080 C 0.21881 0.84253 0.48085 0.0
C2081 C 0.20238 0.84024 0.48707 0.0
C2082 C 0.19809 0.85358 0.48313 0.0
C2083 C 0.21021 0.86895 0.47303 0.0
C2084 C 0.22382 0.82862 0.48497 0.0
C2085 C 0.18066 0.85155 0.48951 0.0
C2086 C 0.09186 0.69354 0.45815 0.0
C2087 C 0.09761 0.71387 0.45802 0.0
C2088 C 0.12755 0.7413 0.46527 0.0
C2089 C 0.14538 0.74642 0.46865 0.0
C2090 C 0.15751 0.76292 0.47877 0.0
C2091 C 0.15172 0.7748 0.48521 0.0
C2092 C 0.13393 0.77015 0.481 0.0
C2093 C 0.12196 0.75335 0.47118 0.0
C2094 C 0.17643 0.7675 0.48282 0.0
C2095 C 0.12751 0.78284 0.48704 0.0
C2096 C 0.16053 0.7956 0.57512 0.0
C2097 C 0.17353 0.81161 0.58518 0.0
C2098 C 0.18749 0.82668 0.57621 0.0
C2099 C 0.1883 0.82604 0.55662 0.0
C2100 C 0.20165 0.84129 0.54709 0.0
C2101 C 0.20212 0.84063 0.52779 0.0
C2102 C 0.1894 0.82461 0.51728 0.0
C2103 C 0.18959 0.82389 0.49766 0.0
C2104 C 0.1771 0.80756 0.48764 0.0
C2105 C 0.16419 0.79186 0.4967 0.0
C2106 C 0.16344 0.79248 0.51632 0.0
C2107 C 0.15041 0.77707 0.5259 0.0
C2108 C 0.14942 0.77804 0.54515 0.0
C2109 C 0.16167 0.79432 0.5556 0.0
C2110 C 0.17539 0.80975 0.54629 0.0
C2111 C 0.1761 0.80893 0.52662 0.0
C2112 C 0.25827 0.90377 0.43308 0.0
C2113 C 0.25261 0.88966 0.44727 0.0
O2114 O 0.10098 0.73865 0.6127 0.0
O2115 O 0.11622 0.72469 0.45626 0.0
O2116 O 0.23723 0.88618 0.45656 0.0
O2117 O 0.23984 0.88968 0.61954 0.0
H2118 H 0.11175 0.72973 0.63163 0.0
H2119 H 0.10955 0.71389 0.60061 0.0
H2120 H 0.08542 0.70341 0.60003 0.0
H2121 H 0.09595 0.69724 0.61736 0.0
H2122 H 0.10107 0.76427 0.59548 0.0
H2123 H 0.13427 0.74365 0.61101 0.0
H2124 H 0.13689 0.80792 0.58098 0.0
H2125 H 0.11268 0.79188 0.57971 0.0
H2126 H 0.12676 0.79202 0.56127 0.0
H2127 H 0.16402 0.75656 0.60111 0.0
H2128 H 0.17563 0.78149 0.60144 0.0
H2129 H 0.16913 0.76844 0.57968 0.0
H2130 H 0.25617 0.88288 0.63381 0.0
H2131 H 0.27096 0.91163 0.64811 0.0
H2132 H 0.25962 0.91857 0.63632 0.0
H2133 H 0.28991 0.92535 0.61398 0.0
H2134 H 0.24275 0.86094 0.60808 0.0
H2135 H 0.20925 0.88373 0.60816 0.0
H2136 H 0.20974 0.81579 0.59258 0.0
H2137 H 0.23389 0.83212 0.5938 0.0
H2138 H 0.22132 0.82805 0.57249 0.0
H2139 H 0.18086 0.86858 0.59265 0.0
H2140 H 0.16916 0.84366 0.59316 0.0
H2141 H 0.17954 0.85485 0.5722 0.0
H2142 H 0.26359 0.89158 0.45672 0.0
H2143 H 0.24319 0.85966 0.46593 0.0
H2144 H 0.20704 0.87922 0.46988 0.0
H2145 H 0.22337 0.82677 0.50016 0.0
H2146 H 0.23752 0.83288 0.48004 0.0
H2147 H 0.21382 0.81498 0.47815 0.0
H2148 H 0.17896 0.8627 0.48458 0.0
H2149 H 0.1804 0.85192 0.50491 0.0
H2150 H 0.16898 0.83793 0.48437 0.0
H2151 H 0.09364 0.71724 0.47162 0.0
H2152 H 0.077 0.68453 0.45987 0.0
H2153 H 0.09868 0.69153 0.46993 0.0
H2154 H 0.09563 0.68922 0.44501 0.0
H2155 H 0.14962 0.73713 0.46378 0.0
H2156 H 0.10831 0.74973 0.46807 0.0
H2157 H 0.17942 0.77021 0.49798 0.0
H2158 H 0.18632 0.78031 0.47585 0.0
H2159 H 0.17842 0.75619 0.47794 0.0
H2160 H 0.11411 0.77833 0.4808 0.0
H2161 H 0.13745 0.79722 0.48311 0.0
H2162 H 0.12645 0.78307 0.50238 0.0
H2163 H 0.1727 0.81241 0.60019 0.0
H2164 H 0.21177 0.85399 0.55445 0.0
H2165 H 0.21262 0.85283 0.52121 0.0
H2166 H 0.17741 0.80709 0.47259 0.0
H2167 H 0.14066 0.76415 0.51861 0.0
H2168 H 0.13896 0.76582 0.55175 0.0
H2169 H 0.2719 0.91569 0.43817 0.0
H2170 H 0.25112 0.91132 0.43626 0.0
H2171 H 0.25454 0.88871 0.40764 0.0
C2172 C 0.14105 0.398 0.64164 0.0
C2173 C 0.12855 0.39048 0.62437 0.0
C2174 C 0.14388 0.3798 0.60331 0.0
C2175 C 0.15844 0.3975 0.59909 0.0
C2176 C 0.17248 0.39952 0.58781 0.0
C2177 C 0.17196 0.38357 0.58054 0.0
C2178 C 0.15718 0.36576 0.58443 0.0
C2179 C 0.14332 0.36413 0.59575 0.0
C2180 C 0.18807 0.41872 0.5839 0.0
C2181 C 0.15619 0.34848 0.57684 0.0
C2182 C 0.26979 0.39714 0.65436 0.0
C2183 C 0.26218 0.38309 0.6378 0.0
C2184 C 0.25597 0.3913 0.60818 0.0
C2185 C 0.24114 0.37412 0.60183 0.0
C2186 C 0.22875 0.37312 0.5888 0.0
C2187 C 0.23116 0.38968 0.58224 0.0
C2188 C 0.24648 0.40701 0.58821 0.0
C2189 C 0.25892 0.40753 0.60085 0.0
C2190 C 0.21282 0.35439 0.58244 0.0
C2191 C 0.24936 0.42498 0.58183 0.0
C2192 C 0.27173 0.4127 0.46533 0.0
C2193 C 0.25881 0.39393 0.46792 0.0
C2194 C 0.24233 0.38863 0.47645 0.0
C2195 C 0.23887 0.4024 0.48268 0.0
C2196 C 0.25169 0.42126 0.4796 0.0
C2197 C 0.26786 0.42611 0.47072 0.0
C2198 C 0.22869 0.36836 0.47896 0.0
C2199 C 0.24844 0.43633 0.48589 0.0
C2200 C 0.12279 0.40482 0.46474 0.0
C2201 C 0.12953 0.39928 0.44749 0.0
C2202 C 0.14794 0.38824 0.46073 0.0
C2203 C 0.14841 0.37244 0.46374 0.0
C2204 C 0.16287 0.37363 0.47349 0.0
C2205 C 0.17718 0.39112 0.48049 0.0
C2206 C 0.17699 0.40724 0.47726 0.0
C2207 C 0.1624 0.40566 0.46736 0.0
C2208 C 0.1627 0.35618 0.47661 0.0
C2209 C 0.19207 0.42609 0.48454 0.0
C2210 C 0.18737 0.38557 0.56975 0.0
C2211 C 0.20154 0.38645 0.57958 0.0
C2212 C 0.21682 0.38891 0.57057 0.0
C2213 C 0.21816 0.39071 0.55113 0.0
C2214 C 0.23344 0.39348 0.54162 0.0
C2215 C 0.23484 0.39579 0.52256 0.0
C2216 C 0.22077 0.39487 0.51218 0.0
C2217 C 0.22207 0.39727 0.49281 0.0
C2218 C 0.20764 0.39583 0.48288 0.0
C2219 C 0.19199 0.39243 0.49183 0.0
C2220 C 0.19064 0.39051 0.51126 0.0
C2221 C 0.1753 0.38762 0.52078 0.0
C2222 C 0.17418 0.386 0.53993 0.0
C2223 C 0.1883 0.38705 0.55027 0.0
C2224 C 0.20382 0.38975 0.54095 0.0
C2225 C 0.20504 0.39163 0.52144 0.0
C2226 C 0.31749 0.42438 0.462 0.0
C2227 C 0.29752 0.40968 0.4582 0.0
O2228 O 0.13028 0.37711 0.6147 0.0
O2229 O 0.1332 0.38587 0.45161 0.0
O2230 O 0.28799 0.41844 0.45758 0.0
O2231 O 0.26748 0.39262 0.62156 0.0
H2232 H 0.13215 0.40211 0.61526 0.0
H2233 H 0.15542 0.40491 0.63761 0.0
H2234 H 0.13805 0.38659 0.65079 0.0
H2235 H 0.13928 0.40836 0.64959 0.0
H2236 H 0.15914 0.40983 0.60467 0.0
H2237 H 0.13204 0.35054 0.59899 0.0
H2238 H 0.20084 0.42074 0.58953 0.0
H2239 H 0.18626 0.42976 0.59013 0.0
H2240 H 0.18956 0.4203 0.56868 0.0
H2241 H 0.14342 0.33564 0.58049 0.0
H2242 H 0.16777 0.34806 0.58244 0.0
H2243 H 0.15728 0.34874 0.56149 0.0
H2244 H 0.24716 0.37511 0.63889 0.0
H2245 H 0.2655 0.38992 0.66761 0.0
H2246 H 0.26463 0.40652 0.65381 0.0
H2247 H 0.28481 0.40564 0.65412 0.0
H2248 H 0.2392 0.36153 0.60717 0.0
H2249 H 0.27057 0.4207 0.60575 0.0
H2250 H 0.21099 0.35357 0.56712 0.0
H2251 H 0.20034 0.35241 0.5888 0.0
H2252 H 0.21441 0.34291 0.58645 0.0
H2253 H 0.26121 0.43728 0.58888 0.0
H2254 H 0.23715 0.42557 0.58455 0.0
H2255 H 0.25152 0.42576 0.56664 0.0
H2256 H 0.29291 0.40025 0.46998 0.0
H2257 H 0.26149 0.38342 0.46319 0.0
H2258 H 0.27783 0.44052 0.46839 0.0
H2259 H 0.22729 0.36566 0.49399 0.0
H2260 H 0.23265 0.35927 0.47184 0.0
H2261 H 0.21523 0.36459 0.4735 0.0
H2262 H 0.26033 0.45042 0.48369 0.0
H2263 H 0.24514 0.43527 0.50086 0.0
H2264 H 0.23668 0.43456 0.47807 0.0
H2265 H 0.142 0.41173 0.44256 0.0
H2266 H 0.11949 0.41527 0.46127 0.0
H2267 H 0.13333 0.41101 0.47592 0.0
H2268 H 0.11051 0.39254 0.47016 0.0
H2269 H 0.13726 0.35908 0.45853 0.0
H2270 H 0.16238 0.41809 0.46509 0.0
H2271 H 0.16206 0.35393 0.49172 0.0
H2272 H 0.17541 0.35767 0.47152 0.0
H2273 H 0.15103 0.34376 0.46948 0.0
H2274 H 0.18981 0.43729 0.48113 0.0
H2275 H 0.20507 0.42919 0.47853 0.0
H2276 H 0.1934 0.42615 0.49985 0.0
H2277 H 0.20071 0.38533 0.59454 0.0
H2278 H 0.2446 0.39413 0.54885 0.0
H2279 H 0.24706 0.3982 0.51605 0.0
H2280 H 0.20871 0.39763 0.46802 0.0
H2281 H 0.164 0.38671 0.51355 0.0
H2282 H 0.1621 0.38389 0.54653 0.0
H2283 H 0.32548 0.41777 0.46304 0.0
H2284 H 0.31904 0.43216 0.47534 0.0
H2285 H 0.32299 0.43434 0.45073 0.0
H2286 H 0.98686 0.36454 0.05808 0.0
H2287 H 0.03264 0.41164 0.03375 0.0
H2288 H 0.03415 0.43182 0.05959 0.0
H2289 H 0.02345 0.43595 0.08977 0.0
H2290 H 0.97787 0.38912 0.11443 0.0
H2291 H 0.97541 0.36894 0.08789 0.0
C2292 C 0.99705 0.37924 0.05836 0.0
C2293 C 0.00965 0.38653 0.04404 0.0
C2294 C 0.99796 0.39081 0.07337 0.0
C2295 C 0.02283 0.40562 0.04464 0.0
C2296 C 0.02373 0.4172 0.05942 0.0
C2297 C 0.01281 0.42138 0.08919 0.0
C2298 C 0.00061 0.41409 0.10384 0.0
C2299 C 0.0115 0.40992 0.07395 0.0
C2300 C 0.9872 0.39509 0.10314 0.0
C2301 C 0.98582 0.38356 0.08801 0.0
H2302 H 0.63004 0.61555 0.05765 0.0
H2303 H 0.6641 0.5941 0.04511 0.0
H2304 H 0.64885 0.57101 0.06849 0.0
H2305 H 0.62571 0.5568 0.09244 0.0
H2306 H 0.59207 0.57865 0.10511 0.0
H2307 H 0.60731 0.60171 0.08171 0.0
C2308 C 0.63416 0.60584 0.06 0.0
C2309 C 0.64817 0.60654 0.04958 0.0
C2310 C 0.62534 0.5926 0.07342 0.0
C2311 C 0.65333 0.59386 0.05289 0.0
C2312 C 0.64462 0.58064 0.06626 0.0
C2313 C 0.62164 0.56652 0.08992 0.0
C2314 C 0.60747 0.5657 0.10012 0.0
C2315 C 0.63056 0.57983 0.07655 0.0
C2316 C 0.60264 0.57871 0.09712 0.0
C2317 C 0.6114 0.59194 0.08381 0.0
H2318 H 0.38364 0.01586 0.04463 0.0
H2319 H 0.38163 0.06009 0.07356 0.0
H2320 H 0.40098 0.06091 0.09847 0.0
H2321 H 0.41817 0.04873 0.11216 0.0
H2322 H 0.41847 0.00328 0.08384 0.0
H2323 H 0.40011 0.0033 0.05853 0.0
C2324 C 0.38753 0.02579 0.05631 0.0
C2325 C 0.38131 0.03801 0.05716 0.0
C2326 C 0.39837 0.02598 0.07067 0.0
C2327 C 0.38628 0.05058 0.07253 0.0
C2328 C 0.39733 0.05105 0.08678 0.0
C2329 C 0.41431 0.03895 0.10035 0.0
C2330 C 0.42013 0.02641 0.09967 0.0
C2331 C 0.40342 0.03878 0.086 0.0
C2332 C 0.41461 0.01342 0.08454 0.0
C2333 C 0.40402 0.01336 0.07009 0.0
H2334 H 0.37621 0.01631 0.95837 0.0
H2335 H 0.35724 0.9639 0.98284 0.0
H2336 H 0.37281 0.95633 0.95921 0.0
H2337 H 0.39225 0.96487 0.9319 0.0
H2338 H 0.41229 0.01791 0.90848 0.0
H2339 H 0.39582 0.02497 0.93142 0.0
C2340 C 0.37534 0.00315 0.95846 0.0
C2341 C 0.3655 0.99064 0.97229 0.0
C2342 C 0.3846 0.99906 0.94509 0.0
C2343 C 0.36471 0.97376 0.97233 0.0
C2344 C 0.37362 0.96943 0.95884 0.0
C2345 C 0.39304 0.97799 0.93188 0.0
C2346 C 0.40348 0.99087 0.91854 0.0
C2347 C 0.38371 0.98204 0.94524 0.0
C2348 C 0.40435 0.0078 0.91863 0.0
C2349 C 0.39493 0.01183 0.93172 0.0
H2350 H 0.99539 0.36799 0.95947 0.0
H2351 H 0.05263 0.38962 0.9568 0.0
H2352 H 0.05538 0.40944 0.93189 0.0
H2353 H 0.04164 0.42124 0.91145 0.0
H2354 H 0.98444 0.39944 0.91422 0.0
H2355 H 0.98156 0.37906 0.93858 0.0
C2356 C 0.00848 0.37697 0.95342 0.0
C2357 C 0.0238 0.37735 0.96007 0.0
C2358 C 0.00999 0.38842 0.93924 0.0
C2359 C 0.04062 0.38905 0.95198 0.0
C2360 C 0.04222 0.40043 0.93776 0.0
C2361 C 0.02859 0.41212 0.91752 0.0
C2362 C 0.01337 0.41223 0.91143 0.0
C2363 C 0.02703 0.40037 0.93143 0.0
C2364 C 0.99642 0.39995 0.91901 0.0
C2365 C 0.99476 0.38824 0.93285 0.0
H2366 H 0.6161 0.64148 0.97764 0.0
H2367 H 0.63405 0.60752 0.9518 0.0
H2368 H 0.61057 0.59649 0.92776 0.0
H2369 H 0.58478 0.59621 0.91416 0.0
H2370 H 0.56647 0.62976 0.93994 0.0
H2371 H 0.59032 0.64131 0.96386 0.0
C2372 C 0.61491 0.63169 0.96673 0.0
C2373 C 0.62682 0.62532 0.96656 0.0
C2374 C 0.60127 0.62528 0.95297 0.0
C2375 C 0.62505 0.61263 0.95232 0.0
C2376 C 0.61162 0.60629 0.93855 0.0
C2377 C 0.58594 0.60593 0.92512 0.0
C2378 C 0.57365 0.61182 0.92554 0.0
C2379 C 0.59961 0.61245 0.93879 0.0
C2380 C 0.57557 0.62478 0.93954 0.0
C2381 C 0.58922 0.63141 0.95317 0.0
H2382 H 0.9989 0.62925 0.95125 0.0
H2383 H 0.03921 0.6316 0.98762 0.0
H2384 H 0.05025 0.62093 0.9619 0.0
H2385 H 0.04928 0.61216 0.92871 0.0
H2386 H 0.00901 0.60987 0.89247 0.0
H2387 H 0.99708 0.61923 0.91852 0.0
C2388 C 0.01007 0.62738 0.95359 0.0
C2389 C 0.01828 0.63134 0.97133 0.0
C2390 C 0.01634 0.62121 0.93875 0.0
C2391 C 0.03266 0.62871 0.97411 0.0
C2392 C 0.039 0.62261 0.9594 0.0
C2393 C 0.03772 0.61344 0.92663 0.0
C2394 C 0.02985 0.61009 0.90877 0.0
C2395 C 0.03103 0.61896 0.94163 0.0
C2396 C 0.01511 0.61215 0.90615 0.0
C2397 C 0.00835 0.61757 0.921 0.0
H2398 H 0.36821 0.38419 0.94024 0.0
H2399 H 0.35711 0.4143 0.98222 0.0
H2400 H 0.3627 0.4375 0.95997 0.0
H2401 H 0.36944 0.44848 0.92813 0.0
H2402 H 0.37908 0.41744 0.886 0.0
H2403 H 0.37558 0.39547 0.90881 0.0
C2404 C 0.36712 0.39588 0.94459 0.0
C2405 C 0.36219 0.39745 0.96287 0.0
C2406 C 0.37009 0.40901 0.93168 0.0
C2407 C 0.36081 0.4127 0.96822 0.0
C2408 C 0.36401 0.42598 0.95551 0.0
C2409 C 0.37086 0.43695 0.92403 0.0
C2410 C 0.37449 0.43455 0.90543 0.0
C2411 C 0.36846 0.42416 0.93714 0.0
C2412 C 0.3763 0.41957 0.90024 0.0
C2413 C 0.37426 0.40699 0.91326 0.0
H2414 H 0.63814 0.01372 0.95237 0.0
H2415 H 0.60401 0.96099 0.97696 0.0
H2416 H 0.58142 0.95155 0.95212 0.0
H2417 H 0.57161 0.95811 0.92304 0.0
H2418 H 0.60632 0.01048 0.89814 0.0
H2419 H 0.62835 0.02032 0.92362 0.0
C2420 C 0.62575 0.00017 0.95235 0.0
C2421 C 0.62281 0.98808 0.96651 0.0
C2422 C 0.6129 0.99479 0.93799 0.0
C2423 C 0.60667 0.97056 0.96621 0.0
C2424 C 0.59372 0.96515 0.95202 0.0
C2425 C 0.584 0.97168 0.92326 0.0
C2426 C 0.58737 0.98354 0.90872 0.0
C2427 C 0.59673 0.97713 0.9378 0.0
C2428 C 0.60343 0.00111 0.90917 0.0
C2429 C 0.61603 0.00672 0.9237 0.0
H2430 H 0.62811 0.03406 0.04054 0.0
H2431 H 0.63844 0.99798 0.07082 0.0
H2432 H 0.62886 0.00632 0.09945 0.0
H2433 H 0.61821 0.02438 0.11611 0.0
H2434 H 0.60922 0.06151 0.0862 0.0
H2435 H 0.61746 0.05214 0.05722 0.0
C2436 C 0.62822 0.02798 0.05338 0.0
C2437 C 0.634 0.01542 0.0535 0.0
C2438 C 0.62283 0.03294 0.06987 0.0
C2439 C 0.63413 0.00773 0.07031 0.0
C2440 C 0.62861 0.01246 0.08671 0.0
C2441 C 0.61782 0.0302 0.10318 0.0
C2442 C 0.61266 0.04324 0.10324 0.0
C2443 C 0.62299 0.02508 0.08666 0.0
C2444 C 0.61271 0.0511 0.08648 0.0
C2445 C 0.61755 0.04585 0.06992 0.0
H2446 H 0.96662 0.60383 0.04044 0.0
H2447 H 0.98135 0.65153 0.07685 0.0
H2448 H 0.97726 0.63355 0.10386 0.0
H2449 H 0.97033 0.60453 0.1172 0.0
H2450 H 0.95394 0.55633 0.08094 0.0
H2451 H 0.95803 0.57427 0.05391 0.0
C2452 C 0.96883 0.61026 0.05429 0.0
C2453 C 0.97433 0.62902 0.05659 0.0
C2454 C 0.96636 0.5998 0.06982 0.0
C2455 C 0.97704 0.6371 0.07464 0.0
C2456 C 0.9748 0.62686 0.09012 0.0
C2457 C 0.96769 0.59799 0.10336 0.0
C2458 C 0.96222 0.57924 0.10117 0.0
C2459 C 0.96962 0.60826 0.08787 0.0
C2460 C 0.95852 0.57082 0.08314 0.0
C2461 C 0.96076 0.58106 0.06763 0.0
H2462 H 0.37451 0.37393 0.06036 0.0
H2463 H 0.41031 0.37216 0.01997 0.0
H2464 H 0.43018 0.37422 0.04494 0.0
H2465 H 0.43645 0.37473 0.07833 0.0
H2466 H 0.40037 0.37609 0.11849 0.0
H2467 H 0.38154 0.37602 0.09352 0.0
C2468 C 0.38672 0.37412 0.05698 0.0
C2469 C 0.39084 0.37278 0.0383 0.0
C2470 C 0.39802 0.3752 0.07138 0.0
C2471 C 0.40677 0.37313 0.03421 0.0
C2472 C 0.41813 0.37427 0.04849 0.0
C2473 C 0.42462 0.3753 0.08156 0.0
C2474 C 0.41989 0.37563 0.10021 0.0
C2475 C 0.41377 0.37508 0.06712 0.0
C2476 C 0.40436 0.37603 0.10425 0.0
C2477 C 0.39357 0.37592 0.08998 0.0
H2478 H 0.66436 0.71083 0.39211 0.0
H2479 H 0.61664 0.69065 0.3576 0.0
H2480 H 0.60308 0.69983 0.38201 0.0
H2481 H 0.60483 0.71382 0.41309 0.0
H2482 H 0.65268 0.73444 0.44737 0.0
H2483 H 0.66611 0.72479 0.42314 0.0
C2484 C 0.65097 0.7084 0.38993 0.0
C2485 C 0.64155 0.70007 0.37304 0.0
C2486 C 0.64329 0.71382 0.40397 0.0
C2487 C 0.62423 0.69706 0.37045 0.0
C2488 C 0.61644 0.7023 0.3844 0.0
C2489 C 0.61822 0.71626 0.41519 0.0
C2490 C 0.62783 0.725 0.43189 0.0
C2491 C 0.62587 0.71076 0.40119 0.0
C2492 C 0.6451 0.72788 0.43455 0.0
C2493 C 0.65276 0.72235 0.42073 0.0
H2494 H 0.263 0.93394 0.38586 0.0
H2495 H 0.31693 0.94366 0.39041 0.0
H2496 H 0.30789 0.91719 0.40891 0.0
H2497 H 0.28209 0.88598 0.42948 0.0
H2498 H 0.21744 0.87268 0.42295 0.0
H2499 H 0.23176 0.90428 0.39984 0.0
C2500 C 0.27196 0.92997 0.39118 0.0
C2501 C 0.29061 0.9402 0.38728 0.0
C2502 C 0.26458 0.91442 0.40155 0.0
C2503 C 0.30276 0.93525 0.39381 0.0
C2504 C 0.29778 0.91998 0.40451 0.0
C2505 C 0.27255 0.88868 0.42319 0.0
C2506 C 0.24891 0.878 0.43139 0.0
C2507 C 0.28004 0.90847 0.40944 0.0
C2508 C 0.23151 0.88033 0.41915 0.0
C2509 C 0.24069 0.90049 0.40558 0.0
H2510 H 0.0764 0.37943 0.37857 0.0
H2511 H 0.04591 0.32797 0.40634 0.0
H2512 H 0.06911 0.34007 0.43085 0.0
H2513 H 0.09815 0.3652 0.44437 0.0
H2514 H 0.12863 0.41662 0.41673 0.0
H2515 H 0.10532 0.40462 0.39221 0.0
C2516 C 0.0748 0.37086 0.38999 0.0
C2517 C 0.05942 0.3528 0.39057 0.0
C2518 C 0.08823 0.37787 0.40403 0.0
C2519 C 0.0576 0.34191 0.4055 0.0
C2520 C 0.07087 0.3488 0.41954 0.0
C2521 C 0.09972 0.3737 0.43289 0.0
C2522 C 0.11523 0.39164 0.43217 0.0
C2523 C 0.08626 0.36673 0.41891 0.0
C2524 C 0.11694 0.40267 0.41743 0.0
C2525 C 0.1036 0.39584 0.40345 0.0
H2526 H 0.0628 0.33219 0.3065 0.0
H2527 H 0.01601 0.278 0.31665 0.0
H2528 H 0.02588 0.26114 0.29726 0.0
H2529 H 0.05044 0.25885 0.27207 0.0
H2530 H 0.10792 0.32274 0.26228 0.0
H2531 H 0.09293 0.33908 0.28644 0.0
C2532 C 0.05545 0.3173 0.30386 0.0
C2533 C 0.03872 0.30569 0.31236 0.0
C2534 C 0.0632 0.30992 0.29267 0.0
C2535 C 0.02878 0.28606 0.30972 0.0
C2536 C 0.03426 0.27611 0.29857 0.0
C2537 C 0.05875 0.27359 0.2754 0.0
C2538 C 0.07917 0.28931 0.26192 0.0
C2539 C 0.05045 0.28532 0.28946 0.0
C2540 C 0.09523 0.31419 0.26913 0.0
C2541 C 0.0854 0.32427 0.2834 0.0
H2542 H 0.69406 0.74166 0.31408 0.0
H2543 H 0.72266 0.72088 0.2826 0.0
H2544 H 0.73759 0.74704 0.26285 0.0
H2545 H 0.74394 0.78112 0.24898 0.0
H2546 H 0.71137 0.80711 0.2869 0.0
H2547 H 0.69694 0.77527 0.30971 0.0
C2548 C 0.70325 0.74335 0.30308 0.0
C2549 C 0.70766 0.72983 0.29918 0.0
C2550 C 0.71052 0.75909 0.29301 0.0
C2551 C 0.71978 0.73168 0.28493 0.0
C2552 C 0.72858 0.74673 0.27339 0.0
C2553 C 0.73611 0.78067 0.26086 0.0
C2554 C 0.72669 0.79577 0.26341 0.0
C2555 C 0.7257 0.7611 0.27533 0.0
C2556 C 0.71527 0.79708 0.28485 0.0
C2557 C 0.70571 0.77682 0.29835 0.0
H2558 H 0.27326 0.95599 0.31952 0.0
H2559 H 0.28643 0.01265 0.31841 0.0
H2560 H 0.2603 0.00496 0.29946 0.0
H2561 H 0.22847 0.97975 0.27721 0.0
H2562 H 0.21133 0.91199 0.27971 0.0
H2563 H 0.24268 0.92496 0.30372 0.0
C2564 C 0.27007 0.96582 0.31481 0.0
C2565 C 0.28127 0.98492 0.3198 0.0
C2566 C 0.2546 0.9591 0.30408 0.0
C2567 C 0.27733 0.9982 0.31415 0.0
C2568 C 0.26227 0.99401 0.3032 0.0
C2569 C 0.23046 0.96943 0.28292 0.0
C2570 C 0.21843 0.94502 0.27323 0.0
C2571 C 0.24997 0.97597 0.29716 0.0
C2572 C 0.21966 0.92641 0.2844 0.0
C2573 C 0.23962 0.93472 0.29856 0.0
H2574 H 0.6683 0.95776 0.28588 0.0
H2575 H 0.70972 0.97625 0.32844 0.0
H2576 H 0.72999 0.97507 0.30571 0.0
H2577 H 0.73638 0.96997 0.27341 0.0
H2578 H 0.69543 0.95307 0.23074 0.0
H2579 H 0.67447 0.95223 0.25386 0.0
C2580 C 0.68171 0.96141 0.29024 0.0
C2581 C 0.68748 0.9671 0.30884 0.0
C2582 C 0.69339 0.96098 0.27705 0.0
C2583 C 0.70495 0.97187 0.3142 0.0
C2584 C 0.71655 0.9712 0.30121 0.0
C2585 C 0.72283 0.96603 0.26925 0.0
C2586 C 0.71744 0.96159 0.25042 0.0
C2587 C 0.71099 0.96596 0.28256 0.0
C2588 C 0.69987 0.95651 0.24516 0.0
C2589 C 0.6879 0.95607 0.25836 0.0
H2590 H 0.04494 0.7281 0.27735 0.0
H2591 H 0.03245 0.7568 0.31966 0.0
H2592 H 0.03844 0.78058 0.29804 0.0
H2593 H 0.04557 0.79231 0.26654 0.0
H2594 H 0.05686 0.7629 0.22403 0.0
H2595 H 0.05318 0.74043 0.24632 0.0
C2596 C 0.04366 0.73963 0.28191 0.0
C2597 C 0.03816 0.74059 0.30008 0.0
C2598 C 0.04689 0.75313 0.26934 0.0
C2599 C 0.03657 0.75565 0.30573 0.0
C2600 C 0.03999 0.76927 0.29337 0.0
C2601 C 0.04738 0.78106 0.26226 0.0
C2602 C 0.0515 0.77926 0.2437 0.0
C2603 C 0.04491 0.76801 0.27507 0.0
C2604 C 0.05374 0.7646 0.23826 0.0
C2605 C 0.05158 0.75173 0.25098 0.0
H2606 H 0.27815 0.28949 0.28301 0.0
H2607 H 0.26003 0.31555 0.32242 0.0
H2608 H 0.23343 0.30564 0.30293 0.0
H2609 H 0.21524 0.28964 0.27477 0.0
H2610 H 0.2326 0.26281 0.23561 0.0
H2611 H 0.25963 0.27307 0.25485 0.0
C2612 C 0.26839 0.29301 0.28733 0.0
C2613 C 0.27113 0.30327 0.30416 0.0
C2614 C 0.25301 0.28718 0.27608 0.0
C2615 C 0.25829 0.30766 0.30956 0.0
C2616 C 0.24306 0.30202 0.29841 0.0
C2617 C 0.22496 0.28605 0.27047 0.0
C2618 C 0.22198 0.27555 0.25378 0.0
C2619 C 0.24029 0.29179 0.28167 0.0
C2620 C 0.23464 0.27094 0.24837 0.0
C2621 C 0.25006 0.27678 0.25937 0.0
H2622 H 0.29449 0.37707 0.3765 0.0
H2623 H 0.30414 0.34073 0.40717 0.0
H2624 H 0.30256 0.35533 0.43638 0.0
H2625 H 0.29978 0.37932 0.45323 0.0
H2626 H 0.29179 0.41676 0.42261 0.0
H2627 H 0.29124 0.40077 0.39341 0.0
C2628 C 0.29612 0.37225 0.38957 0.0
C2629 C 0.29945 0.35784 0.38963 0.0
C2630 C 0.29545 0.38089 0.40635 0.0
C2631 C 0.30164 0.35185 0.40671 0.0
C2632 C 0.30072 0.36018 0.42343 0.0
C2633 C 0.29764 0.38376 0.44015 0.0
C2634 C 0.29541 0.3989 0.44012 0.0
C2635 C 0.29779 0.37481 0.42341 0.0
C2636 C 0.29313 0.40487 0.42307 0.0
C2637 C 0.29294 0.39582 0.40635 0.0
H2638 H 0.63373 0.93177 0.38887 0.0
H2639 H 0.67683 0.96957 0.42724 0.0
H2640 H 0.66154 0.94858 0.45227 0.0
H2641 H 0.63505 0.92036 0.46369 0.0
H2642 H 0.59192 0.88272 0.42543 0.0
H2643 H 0.60813 0.90274 0.39988 0.0
C2644 C 0.63986 0.93538 0.40267 0.0
C2645 C 0.65634 0.95231 0.40618 0.0
C2646 C 0.63096 0.92329 0.41703 0.0
C2647 C 0.66413 0.95668 0.42414 0.0
C2648 C 0.65538 0.94469 0.43849 0.0
C2649 C 0.62934 0.91646 0.4497 0.0
C2650 C 0.61239 0.90007 0.44639 0.0
C2651 C 0.63868 0.92809 0.43515 0.0
C2652 C 0.60503 0.89521 0.42825 0.0
C2653 C 0.61425 0.90668 0.41368 0.0
H2654 H 0.04405 0.71509 0.40026 0.0
H2655 H 0.08475 0.72064 0.3621 0.0
H2656 H 0.10324 0.72176 0.38799 0.0
H2657 H 0.10694 0.71913 0.42132 0.0
H2658 H 0.06628 0.71363 0.45937 0.0
H2659 H 0.04867 0.71451 0.43367 0.0
C2660 C 0.05703 0.71668 0.3976 0.0
C2661 C 0.06292 0.71764 0.37924 0.0
C2662 C 0.06758 0.71728 0.41254 0.0
C2663 C 0.07984 0.71984 0.37608 0.0
C2664 C 0.09042 0.72043 0.39088 0.0
C2665 C 0.09439 0.71848 0.42399 0.0
C2666 C 0.08802 0.71658 0.44224 0.0
C2667 C 0.08431 0.7189 0.40914 0.0
C2668 C 0.07155 0.71535 0.44546 0.0
C2669 C 0.06145 0.71577 0.43078 0.0
H2670 H 0.2892 0.0397 0.69178 0.0
H2671 H 0.32437 0.03481 0.72966 0.0
H2672 H 0.31291 0.04453 0.75568 0.0
H2673 H 0.29322 0.05482 0.76775 0.0
H2674 H 0.25718 0.05866 0.73031 0.0
H2675 H 0.2688 0.04916 0.70406 0.0
C2676 C 0.29433 0.04073 0.70573 0.0
C2677 C 0.30765 0.03656 0.70872 0.0
C2678 C 0.28759 0.04623 0.72072 0.0
C2679 C 0.3141 0.0379 0.72692 0.0
C2680 C 0.30759 0.04351 0.74184 0.0
C2681 C 0.28784 0.05345 0.75385 0.0
C2682 C 0.27432 0.05737 0.75099 0.0
C2683 C 0.29438 0.04775 0.7389 0.0
C2684 C 0.26758 0.0557 0.73288 0.0
C2685 C 0.2742 0.05026 0.71787 0.0
H2686 H 0.9577 0.2576 0.70459 0.0
H2687 H 0.00965 0.27624 0.73067 0.0
H2688 H 0.99801 0.25016 0.75043 0.0
H2689 H 0.96915 0.21731 0.76655 0.0
H2690 H 0.90724 0.19405 0.73537 0.0
H2691 H 0.92525 0.22509 0.71147 0.0
C2692 C 0.96564 0.25544 0.71442 0.0
C2693 C 0.98443 0.26835 0.71681 0.0
C2694 C 0.95682 0.23989 0.7248 0.0
C2695 C 0.99531 0.26591 0.72952 0.0
C2696 C 0.98882 0.25089 0.74104 0.0
C2697 C 0.96113 0.21802 0.75563 0.0
C2698 C 0.93591 0.20425 0.75573 0.0
C2699 C 0.9707 0.2372 0.74067 0.0
C2700 C 0.92178 0.20338 0.73594 0.0
C2701 C 0.93296 0.22316 0.72178 0.0
H2702 H 0.73939 0.73684 0.72366 0.0
H2703 H 0.72311 0.67931 0.72193 0.0
H2704 H 0.74668 0.68642 0.74468 0.0
H2705 H 0.77145 0.7087 0.76565 0.0
H2706 H 0.78836 0.76632 0.76726 0.0
H2707 H 0.76489 0.75941 0.74415 0.0
C2708 C 0.74103 0.72587 0.72822 0.0
C2709 C 0.72943 0.70757 0.72109 0.0
C2710 C 0.75472 0.73005 0.74131 0.0
C2711 C 0.7318 0.69353 0.72715 0.0
C2712 C 0.74529 0.69756 0.7402 0.0
C2713 C 0.77021 0.7198 0.76072 0.0
C2714 C 0.78194 0.73809 0.76781 0.0
C2715 C 0.75678 0.71574 0.74741 0.0
C2716 C 0.77974 0.75221 0.7617 0.0
C2717 C 0.7663 0.74825 0.74855 0.0
H2718 H 0.72957 0.67188 0.63891 0.0
H2719 H 0.67272 0.63003 0.64183 0.0
H2720 H 0.6756 0.61202 0.61627 0.0
H2721 H 0.69411 0.60862 0.5927 0.0
H2722 H 0.751 0.65086 0.58995 0.0
H2723 H 0.74819 0.66796 0.6161 0.0
C2724 C 0.71778 0.6588 0.63401 0.0
C2725 C 0.70094 0.65239 0.64221 0.0
C2726 C 0.7195 0.64859 0.61927 0.0
C2727 C 0.68586 0.63533 0.63575 0.0
C2728 C 0.68749 0.62502 0.62111 0.0
C2729 C 0.70588 0.62172 0.59748 0.0
C2730 C 0.72252 0.62882 0.58843 0.0
C2731 C 0.70422 0.63164 0.61262 0.0
C2732 C 0.73777 0.64532 0.59587 0.0
C2733 C 0.73624 0.65514 0.61098 0.0
H2734 H 0.34595 0.05626 0.63176 0.0
H2735 H 0.40106 0.08141 0.6516 0.0
H2736 H 0.4113 0.1048 0.62835 0.0
H2737 H 0.4046 0.11802 0.60221 0.0
H2738 H 0.34956 0.09246 0.58222 0.0
H2739 H 0.3393 0.06932 0.60572 0.0
C2740 C 0.36022 0.06686 0.63104 0.0
C2741 C 0.37271 0.06707 0.64345 0.0
C2742 C 0.36601 0.08025 0.61766 0.0
C2743 C 0.39113 0.08092 0.64226 0.0
C2744 C 0.39701 0.09431 0.62896 0.0
C2745 C 0.39035 0.10748 0.60316 0.0
C2746 C 0.37781 0.10724 0.59081 0.0
C2747 C 0.38457 0.09412 0.6166 0.0
C2748 C 0.35942 0.0932 0.59184 0.0
C2749 C 0.35356 0.07992 0.60521 0.0
H2750 H 0.92755 0.29239 0.65657 0.0
H2751 H 0.96963 0.2955 0.62219 0.0
H2752 H 0.95064 0.28829 0.5945 0.0
H2753 H 0.92204 0.28104 0.58002 0.0
H2754 H 0.88046 0.27908 0.61426 0.0
H2755 H 0.89925 0.28579 0.64204 0.0
C2756 C 0.93256 0.29145 0.64303 0.0
C2757 C 0.94996 0.29442 0.64147 0.0
C2758 C 0.92165 0.28749 0.62713 0.0
C2759 C 0.95629 0.2933 0.62379 0.0
C2760 C 0.94544 0.28916 0.60794 0.0
C2761 C 0.91714 0.28213 0.59357 0.0
C2762 C 0.89988 0.27953 0.59508 0.0
C2763 C 0.9281 0.28623 0.60945 0.0
C2764 C 0.89367 0.28097 0.61273 0.0
C2765 C 0.90441 0.28483 0.62861 0.0
H2766 H 0.34318 0.30043 0.62363 0.0
H2767 H 0.38337 0.30621 0.66263 0.0
H2768 H 0.39957 0.30177 0.63726 0.0
H2769 H 0.4031 0.29773 0.60374 0.0
H2770 H 0.36296 0.29217 0.56493 0.0
H2771 H 0.34592 0.29497 0.59049 0.0
C2772 C 0.35544 0.30064 0.62662 0.0
C2773 C 0.3621 0.30377 0.64501 0.0
C2774 C 0.36469 0.2981 0.61198 0.0
C2775 C 0.37795 0.30388 0.64861 0.0
C2776 C 0.38724 0.30136 0.6341 0.0
C2777 C 0.39047 0.29685 0.60096 0.0
C2778 C 0.38415 0.29451 0.58252 0.0
C2779 C 0.38083 0.29863 0.61571 0.0
C2780 C 0.36795 0.29373 0.57903 0.0
C2781 C 0.35826 0.29542 0.59362 0.0
H2782 H 0.7132 0.04748 0.59955 0.0
H2783 H 0.70479 0.08194 0.63857 0.0
H2784 H 0.71113 0.10374 0.61455 0.0
H2785 H 0.71688 0.11189 0.58187 0.0
H2786 H 0.72462 0.07717 0.54271 0.0
H2787 H 0.72078 0.05664 0.56735 0.0
C2788 C 0.71294 0.05985 0.60287 0.0
C2789 C 0.70838 0.06296 0.62082 0.0
C2790 C 0.71641 0.07227 0.58892 0.0
C2791 C 0.70815 0.07911 0.62486 0.0
C2792 C 0.71175 0.0916 0.61111 0.0
C2793 C 0.71803 0.1 0.57885 0.0
C2794 C 0.72121 0.09613 0.56056 0.0
C2795 C 0.71558 0.08816 0.59302 0.0
C2796 C 0.72236 0.08051 0.55672 0.0
C2797 C 0.7201 0.06875 0.57078 0.0
H2798 H 0.91374 0.62481 0.63959 0.0
H2799 H 0.9496 0.6748 0.61126 0.0
H2800 H 0.93017 0.66213 0.58356 0.0
H2801 H 0.90425 0.636 0.56654 0.0
H2802 H 0.86817 0.58608 0.59465 0.0
H2803 H 0.88636 0.59958 0.62328 0.0
C2804 C 0.91722 0.633 0.62742 0.0
C2805 C 0.93322 0.65066 0.62748 0.0
C2806 C 0.90599 0.62561 0.61144 0.0
C2807 C 0.93743 0.66114 0.61162 0.0
C2808 C 0.92634 0.65389 0.59572 0.0
C2809 C 0.90026 0.62819 0.57901 0.0
C2810 C 0.88497 0.61006 0.57848 0.0
C2811 C 0.91079 0.63602 0.59536 0.0
C2812 C 0.87992 0.60006 0.59474 0.0
C2813 C 0.89034 0.60776 0.61107 0.0
H2814 H 0.96092 0.71531 0.70205 0.0
H2815 H 0.9582 0.67184 0.73317 0.0
H2816 H 0.95779 0.68743 0.76215 0.0
H2817 H 0.9597 0.71415 0.77883 0.0
H2818 H 0.96301 0.75794 0.74798 0.0
H2819 H 0.96159 0.74146 0.71874 0.0
C2820 C 0.96013 0.70919 0.71516 0.0
C2821 C 0.95968 0.69246 0.71539 0.0
C2822 C 0.95998 0.71828 0.73184 0.0
C2823 C 0.95861 0.68471 0.73254 0.0
C2824 C 0.95838 0.69363 0.74915 0.0
C2825 C 0.95984 0.71992 0.76568 0.0
C2826 C 0.96117 0.73707 0.76553 0.0
C2827 C 0.95925 0.7105 0.74898 0.0
C2828 C 0.96169 0.7446 0.74842 0.0
C2829 C 0.96098 0.73524 0.73172 0.0
H2830 H 0.32796 0.29148 0.74275 0.0
H2831 H 0.28486 0.26305 0.7016 0.0
H2832 H 0.2661 0.23978 0.72378 0.0
H2833 H 0.26138 0.22837 0.75541 0.0
H2834 H 0.30407 0.25767 0.79675 0.0
H2835 H 0.32361 0.27962 0.7739 0.0
C2836 C 0.31451 0.28013 0.73856 0.0
C2837 C 0.30782 0.27908 0.72055 0.0
C2838 C 0.30371 0.26695 0.75144 0.0
C2839 C 0.29034 0.26426 0.7154 0.0
C2840 C 0.27959 0.25094 0.72807 0.0
C2841 C 0.27502 0.2395 0.75932 0.0
C2842 C 0.28129 0.24143 0.77772 0.0
C2843 C 0.28605 0.25228 0.7462 0.0
C2844 C 0.29896 0.25591 0.78267 0.0
C2845 C 0.31011 0.26848 0.76963 0.0
H2846 H 0.75135 0.04863 0.69599 0.0
H2847 H 0.70549 0.04112 0.72666 0.0
H2848 H 0.71956 0.04071 0.75556 0.0
H2849 H 0.74395 0.04045 0.77193 0.0
H2850 H 0.78918 0.04653 0.74132 0.0
H2851 H 0.77639 0.04961 0.71263 0.0
C2852 C 0.74454 0.04712 0.70902 0.0
C2853 C 0.72736 0.04484 0.70913 0.0
C2854 C 0.75258 0.04658 0.72561 0.0
C2855 C 0.71867 0.0428 0.72614 0.0
C2856 C 0.7267 0.04255 0.7427 0.0
C2857 C 0.75111 0.04274 0.759 0.0
C2858 C 0.7676 0.04358 0.75878 0.0
C2859 C 0.74351 0.04413 0.74256 0.0
C2860 C 0.77661 0.04615 0.74189 0.0
C2861 C 0.76925 0.04782 0.72548 0.0
H2862 H 0.00938 0.30683 0.05747 0.0
H2863 H 0.05434 0.35093 0.0285 0.0
H2864 H 0.07739 0.35045 0.04669 0.0
H2865 H 0.08932 0.33631 0.07527 0.0
H2866 H 0.03598 0.28502 0.11089 0.0
H2867 H 0.01178 0.28927 0.0875 0.0
C2868 C 0.02382 0.31561 0.05556 0.0
C2869 C 0.03089 0.32912 0.04203 0.0
C2870 C 0.03505 0.31353 0.06711 0.0
C2871 C 0.04978 0.34089 0.03915 0.0
C2872 C 0.06328 0.34085 0.04959 0.0
C2873 C 0.07502 0.32813 0.07809 0.0
C2874 C 0.0651 0.30793 0.09336 0.0
C2875 C 0.05864 0.32879 0.06372 0.0
C2876 C 0.04117 0.29565 0.10083 0.0
C2877 C 0.02622 0.29767 0.08556 0.0
H2878 H 0.65194 0.69112 0.0681 0.0
H2879 H 0.69762 0.70716 0.03228 0.0
H2880 H 0.71653 0.73762 0.04704 0.0
H2881 H 0.7235 0.76715 0.07306 0.0
H2882 H 0.67042 0.74902 0.11701 0.0
H2883 H 0.65106 0.7128 0.09777 0.0
C2884 C 0.66551 0.70147 0.06409 0.0
C2885 C 0.67397 0.69765 0.04936 0.0
C2886 C 0.67447 0.71838 0.07395 0.0
C2887 C 0.69183 0.71084 0.04369 0.0
C2888 C 0.70304 0.72851 0.05212 0.0
C2889 C 0.71052 0.75681 0.07838 0.0
C2890 C 0.69788 0.76304 0.09483 0.0
C2891 C 0.69698 0.73433 0.0669 0.0
C2892 C 0.67671 0.74533 0.10616 0.0
C2893 C 0.66449 0.72322 0.09354 0.0
H2894 H 0.30936 0.97325 0.06122 0.0
H2895 H 0.29207 0.99408 0.01739 0.0
H2896 H 0.26265 0.98337 0.03014 0.0
H2897 H 0.23492 0.96478 0.05693 0.0
H2898 H 0.25502 0.9411 0.11034 0.0
H2899 H 0.28953 0.95583 0.09234 0.0
C2900 C 0.29898 0.97478 0.05506 0.0
C2901 C 0.30219 0.98436 0.03857 0.0
C2902 C 0.2828 0.96778 0.06416 0.0
C2903 C 0.28891 0.98673 0.0301 0.0
C2904 C 0.27183 0.98072 0.03732 0.0
C2905 C 0.24531 0.96397 0.06406 0.0
C2906 C 0.24012 0.94853 0.08371 0.0
C2907 C 0.26678 0.97169 0.05368 0.0
C2908 C 0.25805 0.94879 0.0979 0.0
C2909 C 0.27906 0.95715 0.08613 0.0
H2910 H 0.32662 0.05338 0.99591 0.0
H2911 H 0.36189 0.06427 0.94914 0.0
H2912 H 0.34698 0.07496 0.92984 0.0
H2913 H 0.319 0.08216 0.92188 0.0
H2914 H 0.27527 0.06679 0.97618 0.0
H2915 H 0.29649 0.0561 0.99656 0.0
C2916 C 0.33073 0.05851 0.98214 0.0
C2917 C 0.34501 0.05813 0.97325 0.0
C2918 C 0.32056 0.06385 0.97291 0.0
C2919 C 0.35065 0.06461 0.9551 0.0
C2920 C 0.34214 0.07076 0.9437 0.0
C2921 C 0.31442 0.0767 0.93544 0.0
C2922 C 0.29683 0.0788 0.94808 0.0
C2923 C 0.32715 0.07075 0.9498 0.0
C2924 C 0.28652 0.06677 0.96985 0.0
C2925 C 0.30039 0.06121 0.98279 0.0
H2926 H 0.97081 0.28398 0.99817 0.0
H2927 H 0.92998 0.29701 0.98797 0.0
H2928 H 0.90688 0.26564 0.97762 0.0
H2929 H 0.89474 0.22794 0.96584 0.0
H2930 H 0.94298 0.21207 0.97783 0.0
H2931 H 0.96641 0.24947 0.99325 0.0
C2932 C 0.95719 0.27951 0.99377 0.0
C2933 C 0.95147 0.29218 0.99334 0.0
C2934 C 0.94579 0.26117 0.98804 0.0
C2935 C 0.93361 0.28669 0.98786 0.0
C2936 C 0.92006 0.26861 0.98185 0.0
C2937 C 0.9076 0.23155 0.97184 0.0
C2938 C 0.91748 0.21702 0.96725 0.0
C2939 C 0.92365 0.2547 0.9808 0.0
C2940 C 0.93822 0.22143 0.97949 0.0
C2941 C 0.95298 0.24496 0.98818 0.0
H2942 H 0.71316 0.69784 0.97112 0.0
H2943 H 0.71191 0.65069 0.99236 0.0
H2944 H 0.74253 0.66248 0.98122 0.0
H2945 H 0.77017 0.68701 0.96665 0.0
H2946 H 0.77144 0.73461 0.94677 0.0
H2947 H 0.74023 0.72178 0.95614 0.0
C2948 C 0.71949 0.69003 0.9732 0.0
C2949 C 0.71026 0.67342 0.98258 0.0
C2950 C 0.73712 0.69701 0.96705 0.0
C2951 C 0.71873 0.66353 0.9852 0.0
C2952 C 0.73624 0.67028 0.97887 0.0
C2953 C 0.76352 0.69446 0.96427 0.0
C2954 C 0.77305 0.71167 0.95592 0.0
C2955 C 0.74564 0.68712 0.96996 0.0
C2956 C 0.76436 0.72129 0.95304 0.0
C2957 C 0.74654 0.71398 0.95843 0.0
H2958 H 0.94814 0.6642 0.98936 0.0
H2959 H 0.99522 0.6996 0.95732 0.0
H2960 H 0.98232 0.71759 0.94898 0.0
H2961 H 0.95884 0.72488 0.95276 0.0
H2962 H 0.91163 0.6896 0.9845 0.0
H2963 H 0.92343 0.67002 0.99102 0.0
C2964 C 0.95548 0.67571 0.98038 0.0
C2965 C 0.9727 0.6806 0.97414 0.0
C2966 C 0.94801 0.68611 0.97565 0.0
C2967 C 0.98198 0.69553 0.96243 0.0
C2968 C 0.97464 0.7059 0.95766 0.0
C2969 C 0.95096 0.71268 0.96076 0.0
C2970 C 0.93425 0.70852 0.9679 0.0
C2971 C 0.95783 0.70154 0.96447 0.0
C2972 C 0.9244 0.6929 0.97863 0.0
C2973 C 0.93117 0.68177 0.98242 0.0
H2974 H 0.34088 0.29588 0.00601 0.0
H2975 H 0.3154 0.31373 0.96851 0.0
H2976 H 0.29704 0.28229 0.9548 0.0
H2977 H 0.28628 0.2492 0.95536 0.0
H2978 H 0.31175 0.23137 0.99278 0.0
H2979 H 0.33201 0.26332 0.00466 0.0
C2980 C 0.33147 0.29296 0.99469 0.0
C2981 C 0.32941 0.30713 0.98845 0.0
C2982 C 0.32085 0.27481 0.98692 0.0
C2983 C 0.31724 0.3031 0.97365 0.0
C2984 C 0.30666 0.28509 0.96583 0.0
C2985 C 0.29652 0.25238 0.96583 0.0
C2986 C 0.29769 0.23798 0.97302 0.0
C2987 C 0.30807 0.27076 0.97263 0.0
C2988 C 0.31078 0.24227 0.98687 0.0
C2989 C 0.3223 0.2605 0.99371 0.0
H2990 H 0.705 0.01909 0.98459 0.0
H2991 H 0.71021 0.06579 0.01648 0.0
H2992 H 0.7401 0.08613 0.00367 0.0
H2993 H 0.76511 0.09049 0.98403 0.0
H2994 H 0.76023 0.04354 0.95313 0.0
H2995 H 0.72981 0.02346 0.96489 0.0
C2996 C 0.71261 0.03373 0.98869 0.0
C2997 C 0.70534 0.04089 0.00149 0.0
C2998 C 0.72983 0.04531 0.9814 0.0
C2999 C 0.71546 0.05989 0.00668 0.0
C3000 C 0.73256 0.07154 0.99936 0.0
C3001 C 0.75725 0.0759 0.9797 0.0
C3002 C 0.76472 0.06862 0.96735 0.0
C3003 C 0.7399 0.06438 0.98678 0.0
C3004 C 0.75463 0.04958 0.96225 0.0
C3005 C 0.73728 0.03807 0.96906 0.0
H3006 H 0.6985 0.98425 0.05568 0.0
H3007 H 0.65607 0.94018 0.02081 0.0
H3008 H 0.66779 0.92045 0.02676 0.0
H3009 H 0.69124 0.91645 0.04033 0.0
H3010 H 0.7343 0.96109 0.07401 0.0
H3011 H 0.72114 0.97985 0.07014 0.0
C3012 C 0.69169 0.97027 0.04949 0.0
C3013 C 0.67646 0.96374 0.03775 0.0
C3014 C 0.69864 0.95911 0.05276 0.0
C3015 C 0.66784 0.94559 0.02986 0.0
C3016 C 0.67455 0.9343 0.03324 0.0
C3017 C 0.69753 0.93017 0.04706 0.0
C3018 C 0.71349 0.93722 0.05774 0.0
C3019 C 0.69009 0.94102 0.04445 0.0
C3020 C 0.7218 0.9552 0.06604 0.0
C3021 C 0.71435 0.96597 0.06373 0.0
H3022 H 0.02787 0.71242 0.01726 0.0
H3023 H 0.04052 0.68874 0.06188 0.0
H3024 H 0.05525 0.71848 0.07944 0.0
H3025 H 0.06269 0.75052 0.08303 0.0
H3026 H 0.05022 0.77432 0.03849 0.0
H3027 H 0.03698 0.74504 0.02006 0.0
C3028 C 0.03402 0.71379 0.03074 0.0
C3029 C 0.033 0.69832 0.03827 0.0
C3030 C 0.04233 0.73088 0.04084 0.0
C3031 C 0.0411 0.7004 0.05573 0.0
C3032 C 0.04945 0.71738 0.06584 0.0
C3033 C 0.05737 0.74942 0.06916 0.0
C3034 C 0.05775 0.76469 0.06197 0.0
C3035 C 0.04988 0.73261 0.05866 0.0
C3036 C 0.05034 0.76285 0.04417 0.0
C3037 C 0.04275 0.74612 0.03368 0.0
H3038 H 0.28802 0.34747 0.02345 0.0
H3039 H 0.30113 0.31828 0.0613 0.0
H3040 H 0.26941 0.29904 0.06945 0.0
H3041 H 0.23757 0.28844 0.06356 0.0
H3042 H 0.22436 0.31727 0.0255 0.0
H3043 H 0.25647 0.33869 0.0197 0.0
C3044 C 0.284 0.33709 0.03369 0.0
C3045 C 0.29694 0.33422 0.04159 0.0
C3046 C 0.26567 0.32589 0.03818 0.0
C3047 C 0.29146 0.32074 0.05489 0.0
C3048 C 0.27329 0.30966 0.05954 0.0
C3049 C 0.24177 0.29967 0.05432 0.0
C3050 C 0.22865 0.30144 0.04514 0.0
C3051 C 0.26022 0.31181 0.05094 0.0
C3052 C 0.23425 0.31581 0.03289 0.0
C3053 C 0.25258 0.32799 0.02952 0.0
H3054 H 0.70055 0.65844 0.35296 0.0
H3055 H 0.71876 0.69885 0.39937 0.0
H3056 H 0.73002 0.68384 0.4177 0.0
H3057 H 0.73679 0.65499 0.42425 0.0
H3058 H 0.7131 0.60535 0.3703 0.0
H3059 H 0.7015 0.62659 0.35148 0.0
C3060 C 0.70716 0.66346 0.36647 0.0
C3061 C 0.70906 0.6795 0.37544 0.0
C3062 C 0.71266 0.65311 0.37514 0.0
C3063 C 0.7175 0.68638 0.39327 0.0
C3064 C 0.72406 0.67785 0.40411 0.0
C3065 C 0.72947 0.64922 0.41118 0.0
C3066 C 0.7292 0.62979 0.39779 0.0
C3067 C 0.7225 0.66159 0.39772 0.0
C3068 C 0.71426 0.61755 0.37698 0.0
C3069 C 0.70819 0.63145 0.36495 0.0
H3070 H 0.37195 0.05912 0.3549 0.0
H3071 H 0.33067 0.02828 0.39521 0.0
H3072 H 0.34139 0.05434 0.41738 0.0
H3073 H 0.36494 0.09263 0.4294 0.0
H3074 H 0.4154 0.12937 0.38268 0.0
H3075 H 0.40007 0.09577 0.35939 0.0
C3076 C 0.36585 0.05885 0.3681 0.0
C3077 C 0.35062 0.04229 0.37407 0.0
C3078 C 0.37373 0.07498 0.37918 0.0
C3079 C 0.34239 0.04134 0.39143 0.0
C3080 C 0.3484 0.05627 0.40444 0.0
C3081 C 0.37204 0.09302 0.41691 0.0
C3082 C 0.38973 0.11528 0.40694 0.0
C3083 C 0.36332 0.07337 0.40088 0.0
C3084 C 0.40424 0.11637 0.38731 0.0
C3085 C 0.39394 0.09574 0.37248 0.0
H3086 H 0.97887 0.32518 0.37253 0.0
H3087 H 0.96154 0.28027 0.33143 0.0
H3088 H 0.93133 0.26386 0.34459 0.0
H3089 H 0.90961 0.26271 0.36723 0.0
H3090 H 0.92654 0.30843 0.40714 0.0
H3091 H 0.9572 0.32402 0.39511 0.0
C3092 C 0.96853 0.31174 0.36652 0.0
C3093 C 0.97245 0.30395 0.35103 0.0
C3094 C 0.95112 0.30255 0.37394 0.0
C3095 C 0.95885 0.2866 0.34332 0.0
C3096 C 0.94158 0.27721 0.35084 0.0
C3097 C 0.92004 0.27608 0.37328 0.0
C3098 C 0.91581 0.28441 0.38804 0.0
C3099 C 0.93752 0.28512 0.36605 0.0
C3100 C 0.92946 0.30172 0.39579 0.0
C3101 C 0.94697 0.31065 0.3889 0.0
H3102 H 0.98821 0.37182 0.31954 0.0
H3103 H 0.04581 0.39755 0.31341 0.0
H3104 H 0.04807 0.42549 0.30274 0.0
H3105 H 0.03382 0.44315 0.29652 0.0
H3106 H 0.97645 0.41763 0.30397 0.0
H3107 H 0.97394 0.38901 0.31258 0.0
C3108 C 0.00126 0.38347 0.31576 0.0
C3109 C 0.01682 0.38259 0.31735 0.0
C3110 C 0.0025 0.39956 0.30989 0.0
C3111 C 0.03361 0.39787 0.3124 0.0
C3112 C 0.03492 0.41386 0.3063 0.0
C3113 C 0.02078 0.43126 0.29993 0.0
C3114 C 0.00536 0.43251 0.29964 0.0
C3115 C 0.01949 0.41494 0.3052 0.0
C3116 C 0.98852 0.41701 0.30408 0.0
C3117 C 0.98708 0.40066 0.30904 0.0
H3118 H 0.63956 0.61569 0.33632 0.0
H3119 H 0.62799 0.64969 0.30399 0.0
H3120 H 0.60166 0.62191 0.28973 0.0
H3121 H 0.58115 0.58793 0.28749 0.0
H3122 H 0.59304 0.55414 0.31969 0.0
H3123 H 0.61999 0.5819 0.33304 0.0
C3124 C 0.63133 0.61705 0.3261 0.0
C3125 C 0.63569 0.63475 0.32131 0.0
C3126 C 0.61626 0.60105 0.31795 0.0
C3127 C 0.62495 0.63624 0.30793 0.0
C3128 C 0.60986 0.62035 0.2998 0.0
C3129 C 0.58983 0.58667 0.2972 0.0
C3130 C 0.58532 0.56899 0.30234 0.0
C3131 C 0.6053 0.60269 0.30483 0.0
C3132 C 0.59642 0.56757 0.31529 0.0
C3133 C 0.61177 0.58343 0.32298 0.0
H3134 H 0.35714 0.97608 0.31334 0.0
H3135 H 0.39393 0.01135 0.3578 0.0
H3136 H 0.41857 0.01053 0.3427 0.0
H3137 H 0.42942 0.99873 0.31759 0.0
H3138 H 0.39247 0.96236 0.27385 0.0
H3139 H 0.36816 0.9647 0.28789 0.0
C3140 C 0.37058 0.98371 0.31965 0.0
C3141 C 0.37366 0.99374 0.3367 0.0
C3142 C 0.38466 0.98297 0.31101 0.0
C3143 C 0.39115 0.00345 0.34474 0.0
C3144 C 0.40526 0.003 0.33611 0.0
C3145 C 0.4161 0.99155 0.31101 0.0
C3146 C 0.41287 0.98077 0.29448 0.0
C3147 C 0.40214 0.99267 0.31935 0.0
C3148 C 0.39541 0.9711 0.28635 0.0
C3149 C 0.38149 0.97234 0.29443 0.0
H3150 H 0.64583 0.01926 0.31625 0.0
H3151 H 0.61208 0.96209 0.33056 0.0
H3152 H 0.58558 0.96071 0.31771 0.0
H3153 H 0.57179 0.97605 0.30347 0.0
H3154 H 0.60531 0.03344 0.29018 0.0
H3155 H 0.63212 0.03443 0.30157 0.0
C3156 C 0.63271 0.00645 0.31645 0.0
C3157 C 0.63096 0.99081 0.32438 0.0
C3158 C 0.61748 0.00579 0.30923 0.0
C3159 C 0.61382 0.97436 0.32458 0.0
C3160 C 0.59865 0.97354 0.31725 0.0
C3161 C 0.58502 0.98868 0.30286 0.0
C3162 C 0.58663 0.0045 0.2956 0.0
C3163 C 0.6003 0.98921 0.30968 0.0
C3164 C 0.60378 0.02096 0.29532 0.0
C3165 C 0.61908 0.02155 0.30192 0.0
H3166 H 0.02672 0.6452 0.34135 0.0
H3167 H 0.99114 0.65342 0.30764 0.0
H3168 H 0.97744 0.62205 0.29381 0.0
H3169 H 0.97398 0.59145 0.29306 0.0
H3170 H 0.00954 0.58331 0.32677 0.0
H3171 H 0.02482 0.61547 0.33885 0.0
C3172 C 0.01608 0.6402 0.33085 0.0
C3173 C 0.00987 0.6516 0.32567 0.0
C3174 C 0.0082 0.62212 0.32301 0.0
C3175 C 0.99617 0.64494 0.31193 0.0
C3176 C 0.98827 0.62696 0.30405 0.0
C3177 C 0.98531 0.59685 0.30276 0.0
C3178 C 0.99081 0.58511 0.30883 0.0
C3179 C 0.99396 0.61532 0.30972 0.0
C3180 C 0.00525 0.59217 0.32172 0.0
C3181 C 0.01392 0.61051 0.32868 0.0
H3182 H 0.35967 0.35224 0.31486 0.0
H3183 H 0.36786 0.40032 0.34661 0.0
H3184 H 0.39825 0.41902 0.33437 0.0
H3185 H 0.42317 0.42129 0.3162 0.0
H3186 H 0.41545 0.37301 0.28546 0.0
H3187 H 0.38417 0.35482 0.29571 0.0
C3188 C 0.36801 0.36686 0.31896 0.0
C3189 C 0.3615 0.37484 0.3317 0.0
C3190 C 0.38558 0.37748 0.31208 0.0
C3191 C 0.37254 0.39379 0.33689 0.0
C3192 C 0.38994 0.4045 0.32991 0.0
C3193 C 0.41451 0.40686 0.31152 0.0
C3194 C 0.42148 0.3986 0.29981 0.0
C3195 C 0.39669 0.39643 0.31773 0.0
C3196 C 0.41028 0.37977 0.29418 0.0
C3197 C 0.39244 0.36935 0.30012 0.0
H3198 H 0.35876 0.32052 0.38443 0.0
H3199 H 0.31127 0.27547 0.35592 0.0
H3200 H 0.32189 0.25468 0.36127 0.0
H3201 H 0.34551 0.24977 0.37259 0.0
H3202 H 0.3934 0.29524 0.39998 0.0
H3203 H 0.38174 0.3154 0.39659 0.0
C3204 C 0.35063 0.30612 0.3795 0.0
C3205 C 0.33427 0.29959 0.36973 0.0
C3206 C 0.35691 0.29432 0.38243 0.0
C3207 C 0.32394 0.28088 0.36344 0.0
C3208 C 0.33001 0.26898 0.36648 0.0
C3209 C 0.35322 0.26402 0.37806 0.0
C3210 C 0.3701 0.2709 0.38686 0.0
C3211 C 0.34658 0.27562 0.37576 0.0
C3212 C 0.3802 0.28951 0.3935 0.0
C3213 C 0.37359 0.30107 0.39147 0.0
H3214 H 0.72829 0.04927 0.35256 0.0
H3215 H 0.68157 0.03443 0.38576 0.0
H3216 H 0.69316 0.06716 0.39294 0.0
H3217 H 0.7154 0.10006 0.38774 0.0
H3218 H 0.76166 0.11473 0.354 0.0
H3219 H 0.75145 0.08203 0.34911 0.0
C3220 C 0.72072 0.05316 0.36153 0.0
C3221 C 0.70401 0.03939 0.36847 0.0
C3222 C 0.72735 0.07201 0.36544 0.0
C3223 C 0.69443 0.04472 0.38015 0.0
C3224 C 0.70103 0.06345 0.38424 0.0
C3225 C 0.72337 0.09606 0.3796 0.0
C3226 C 0.73934 0.10976 0.37138 0.0
C3227 C 0.71729 0.07722 0.37667 0.0
C3228 C 0.74941 0.10442 0.3606 0.0
C3229 C 0.74355 0.08574 0.35775 0.0
H3230 H 0.96024 0.65093 0.3807 0.0
H3231 H 0.96493 0.69956 0.35882 0.0
H3232 H 0.93286 0.68683 0.36412 0.0
H3233 H 0.90304 0.66093 0.37288 0.0
H3234 H 0.89817 0.61196 0.39383 0.0
H3235 H 0.93078 0.6258 0.39104 0.0
C3236 C 0.95432 0.65885 0.37726 0.0
C3237 C 0.96498 0.67613 0.36926 0.0
C3238 C 0.93581 0.65135 0.38012 0.0
C3239 C 0.95705 0.6862 0.36492 0.0
C3240 C 0.93869 0.67891 0.36792 0.0
C3241 C 0.9092 0.65345 0.37712 0.0
C3242 C 0.89828 0.63558 0.3838 0.0
C3243 C 0.92788 0.66137 0.37521 0.0
C3244 C 0.90635 0.62585 0.38892 0.0
C3245 C 0.92496 0.63372 0.38723 0.0
H3246 H 0.38177 0.02673 0.71593 0.0
H3247 H 0.34527 0.96803 0.70245 0.0
H3248 H 0.35994 0.95821 0.72311 0.0
H3249 H 0.38702 0.96467 0.74979 0.0
H3250 H 0.4296 0.03389 0.76879 0.0
H3251 H 0.40968 0.042 0.74285 0.0
C3252 C 0.378 0.01258 0.7177 0.0
C3253 C 0.36269 0.99765 0.70822 0.0
C3254 C 0.38782 0.00936 0.73028 0.0
C3255 C 0.35699 0.97881 0.71031 0.0
C3256 C 0.36528 0.97286 0.72218 0.0
C3257 C 0.39073 0.97892 0.74922 0.0
C3258 C 0.41233 0.99851 0.75949 0.0
C3259 C 0.37998 0.98558 0.73299 0.0
C3260 C 0.41782 0.02291 0.7612 0.0
C3261 C 0.40595 0.02785 0.7444 0.0
H3262 H 0.96997 0.35768 0.6881 0.0
H3263 H 0.00026 0.34779 0.72789 0.0
H3264 H 0.99437 0.36471 0.75211 0.0
H3265 H 0.979 0.38058 0.76247 0.0
H3266 H 0.94732 0.38895 0.72317 0.0
H3267 H 0.95544 0.37448 0.69827 0.0
C3268 C 0.97546 0.3594 0.70202 0.0
C3269 C 0.98549 0.35143 0.70618 0.0
C3270 C 0.97174 0.36886 0.71598 0.0
C3271 C 0.99241 0.3537 0.72432 0.0
C3272 C 0.98905 0.36337 0.73819 0.0
C3273 C 0.97415 0.3795 0.74838 0.0
C3274 C 0.96292 0.38618 0.74461 0.0
C3275 C 0.97851 0.37076 0.73424 0.0
C3276 C 0.95631 0.38428 0.72637 0.0
C3277 C 0.96085 0.3759 0.71215 0.0
H3278 H 0.64114 0.62031 0.73106 0.0
H3279 H 0.63558 0.66456 0.71182 0.0
H3280 H 0.60864 0.65583 0.72907 0.0
H3281 H 0.5792 0.63175 0.75203 0.0
H3282 H 0.5852 0.57942 0.77654 0.0
H3283 H 0.61856 0.59414 0.75627 0.0
C3284 C 0.63377 0.62725 0.73105 0.0
C3285 C 0.63965 0.64296 0.72044 0.0
C3286 C 0.61844 0.62036 0.74166 0.0
C3287 C 0.63041 0.65256 0.72015 0.0
C3288 C 0.61483 0.64778 0.7301 0.0
C3289 C 0.58696 0.62538 0.75375 0.0
C3290 C 0.57702 0.60224 0.76372 0.0
C3291 C 0.60726 0.63274 0.74107 0.0
C3292 C 0.59071 0.59204 0.76917 0.0
C3293 C 0.61093 0.60078 0.75583 0.0
H3294 H 0.68231 0.72447 0.66085 0.0
H3295 H 0.63882 0.67328 0.63509 0.0
H3296 H 0.62591 0.68965 0.62214 0.0
H3297 H 0.62563 0.71795 0.61981 0.0
H3298 H 0.66896 0.76944 0.6449 0.0
H3299 H 0.68327 0.75355 0.65638 0.0
C3300 C 0.67013 0.71695 0.65224 0.0
C3301 C 0.66149 0.69764 0.64913 0.0
C3302 C 0.66265 0.72647 0.6448 0.0
C3303 C 0.64574 0.68812 0.63785 0.0
C3304 C 0.63828 0.69746 0.63043 0.0
C3305 C 0.63832 0.72574 0.6276 0.0
C3306 C 0.64617 0.7448 0.63159 0.0
C3307 C 0.64643 0.71655 0.63409 0.0
C3308 C 0.66263 0.75472 0.64171 0.0
C3309 C 0.67079 0.74564 0.64828 0.0
H3310 H 0.31439 0.96394 0.65366 0.0
H3311 H 0.28622 0.98342 0.62193 0.0
H3312 H 0.2686 0.9548 0.60324 0.0
H3313 H 0.2567 0.91687 0.59286 0.0
H3314 H 0.29115 0.89387 0.62908 0.0
H3315 H 0.31116 0.92994 0.64836 0.0
C3316 C 0.30446 0.96131 0.64307 0.0
C3317 C 0.30103 0.97517 0.63866 0.0
C3318 C 0.29563 0.94422 0.63366 0.0
C3319 C 0.28829 0.97229 0.62462 0.0
C3320 C 0.278 0.95584 0.61367 0.0
C3321 C 0.26733 0.91951 0.60253 0.0
C3322 C 0.26951 0.90048 0.61123 0.0
C3323 C 0.27986 0.941 0.61607 0.0
C3324 C 0.28929 0.90492 0.62543 0.0
C3325 C 0.30094 0.92701 0.63802 0.0
H3326 H 0.04893 0.36735 0.64591 0.0
H3327 H 0.04851 0.32032 0.66628 0.0
H3328 H 0.07942 0.33303 0.65579 0.0
H3329 H 0.10668 0.35765 0.64098 0.0
H3330 H 0.10716 0.40486 0.6212 0.0
H3331 H 0.07609 0.39192 0.63129 0.0
C3332 C 0.05556 0.35985 0.64805 0.0
C3333 C 0.04638 0.34289 0.65686 0.0
C3334 C 0.07334 0.36725 0.64205 0.0
C3335 C 0.05525 0.3334 0.65955 0.0
C3336 C 0.07293 0.34066 0.65355 0.0
C3337 C 0.0999 0.36501 0.63879 0.0
C3338 C 0.1091 0.38205 0.63012 0.0
C3339 C 0.0821 0.35756 0.64478 0.0
C3340 C 0.10028 0.39161 0.62762 0.0
C3341 C 0.08255 0.38425 0.63344 0.0
H3342 H 0.28338 0.3255 0.65777 0.0
H3343 H 0.33118 0.36334 0.62792 0.0
H3344 H 0.3178 0.38109 0.62023 0.0
H3345 H 0.29373 0.38756 0.6244 0.0
H3346 H 0.24597 0.34988 0.65423 0.0
H3347 H 0.25813 0.33041 0.65953 0.0
C3348 C 0.29078 0.33748 0.64937 0.0
C3349 C 0.30833 0.34316 0.64361 0.0
C3350 C 0.28306 0.34775 0.6451 0.0
C3351 C 0.31767 0.35867 0.63264 0.0
C3352 C 0.31006 0.3689 0.62827 0.0
C3353 C 0.28582 0.37487 0.6317 0.0
C3354 C 0.26886 0.37002 0.6387 0.0
C3355 C 0.29294 0.36381 0.63477 0.0
C3356 C 0.25895 0.35375 0.6485 0.0
C3357 C 0.26593 0.34267 0.6516 0.0
H3358 H 0.6535 0.97503 0.64126 0.0
H3359 H 0.69885 0.97511 0.66486 0.0
H3360 H 0.68356 0.94179 0.65815 0.0
H3361 H 0.65633 0.91224 0.6479 0.0
H3362 H 0.61081 0.91194 0.62476 0.0
H3363 H 0.62716 0.94574 0.62889 0.0
C3364 C 0.66014 0.96781 0.64476 0.0
C3365 C 0.67725 0.97757 0.65371 0.0
C3366 C 0.65119 0.94858 0.64102 0.0
C3367 C 0.68566 0.96797 0.65805 0.0
C3368 C 0.67691 0.94888 0.65426 0.0
C3369 C 0.65013 0.91963 0.6435 0.0
C3370 C 0.63245 0.90966 0.63596 0.0
C3371 C 0.65954 0.939 0.64609 0.0
C3372 C 0.62447 0.91936 0.63047 0.0
C3373 C 0.63378 0.93865 0.6329 0.0
H3374 H 0.03722 0.68876 0.68175 0.0
H3375 H 0.00652 0.69076 0.63622 0.0
H3376 H 0.03364 0.7056 0.6175 0.0
H3377 H 0.06578 0.71684 0.61356 0.0
H3378 H 0.09638 0.71438 0.65877 0.0
H3379 H 0.06956 0.7008 0.6781 0.0
C3380 C 0.03647 0.69257 0.66779 0.0
C3381 C 0.01983 0.6886 0.66041 0.0
C3382 C 0.05208 0.70095 0.65701 0.0
C3383 C 0.01913 0.6936 0.64226 0.0
C3384 C 0.03463 0.70207 0.63151 0.0
C3385 C 0.0666 0.71352 0.62772 0.0
C3386 C 0.0831 0.71687 0.63484 0.0
C3387 C 0.05112 0.70564 0.63868 0.0
C3388 C 0.08389 0.71216 0.65308 0.0
C3389 C 0.06856 0.70437 0.66411 0.0
H3390 H 0.99354 0.63369 0.72494 0.0
H3391 H 0.95461 0.59879 0.68183 0.0
H3392 H 0.96133 0.57483 0.68631 0.0
H3393 H 0.97973 0.56468 0.70101 0.0
H3394 H 0.02028 0.60066 0.74236 0.0
H3395 H 0.01139 0.62322 0.74016 0.0
C3396 C 0.98635 0.62074 0.71669 0.0
C3397 C 0.97359 0.61802 0.70308 0.0
C3398 C 0.99062 0.60723 0.71901 0.0
C3399 C 0.96454 0.60125 0.69236 0.0
C3400 C 0.96838 0.58755 0.6949 0.0
C3401 C 0.98639 0.57735 0.70973 0.0
C3402 C 0.00037 0.58078 0.72207 0.0
C3403 C 0.9816 0.59052 0.70797 0.0
C3404 C 0.00924 0.59746 0.733 0.0
C3405 C 0.00423 0.61043 0.73167 0.0
H3406 H 0.39091 0.38308 0.67879 0.0
H3407 H 0.34595 0.3624 0.71598 0.0
H3408 H 0.35785 0.39369 0.72916 0.0
H3409 H 0.3794 0.42732 0.72799 0.0
H3410 H 0.42422 0.44799 0.69076 0.0
H3411 H 0.41399 0.41635 0.67972 0.0
C3412 C 0.38384 0.38536 0.68996 0.0
C3413 C 0.36745 0.37041 0.6962 0.0
C3414 C 0.39066 0.40344 0.69738 0.0
C3415 C 0.35855 0.37364 0.7108 0.0
C3416 C 0.3653 0.39156 0.71832 0.0
C3417 C 0.38713 0.42485 0.71776 0.0
C3418 C 0.40267 0.43995 0.71034 0.0
C3419 C 0.3811 0.40663 0.71141 0.0
C3420 C 0.41234 0.43656 0.69682 0.0
C3421 C 0.40646 0.41849 0.69045 0.0
H3422 H 0.62801 0.98947 0.71039 0.0
H3423 H 0.63746 0.03621 0.67999 0.0
H3424 H 0.60751 0.02975 0.68803 0.0
H3425 H 0.57805 0.0099 0.70242 0.0
H3426 H 0.56835 0.96268 0.73194 0.0
H3427 H 0.59902 0.97029 0.72558 0.0
C3428 C 0.62359 0.99833 0.70561 0.0
C3429 C 0.63495 0.01325 0.69454 0.0
C3430 C 0.6063 0.99445 0.71014 0.0
C3431 C 0.62898 0.02459 0.68848 0.0
C3432 C 0.61184 0.0209 0.69306 0.0
C3433 C 0.58278 0.00147 0.70767 0.0
C3434 C 0.5711 0.98598 0.71792 0.0
C3435 C 0.60032 0.00576 0.70371 0.0
C3436 C 0.57722 0.97488 0.72432 0.0
C3437 C 0.59471 0.97916 0.7206 0.0
loop_
_geom_bond_atom_site_label_1
_geom_bond_atom_site_label_2
_geom_bond_distance
_geom_bond_site_symmetry_2
_ccdc_geom_bond_type
C0 O1 1.160 . S
C0 O7 1.185 . S
O1 C0 1.160 . S
O2 Zn3 1.899 1_656 S
O2 C10 1.284 . S
Zn3 O2 1.899 1_454 S
Zn3 O4 2.032 . S
Zn3 O7 2.086 . S
Zn3 O12 1.977 1_554 S
O4 Zn3 2.032 . S
O4 C8 1.278 1_455 S
C5 O6 1.203 1_455 S
C5 O12 1.267 . S
O6 C5 1.203 1_655 S
O7 C0 1.185 . S
O7 Zn3 2.086 . S
C8 O4 1.278 1_655 S
C8 O9 1.211 . S
O9 C8 1.211 . S
C10 O2 1.284 . S
C10 O11 1.273 1_556 S
O11 C10 1.273 1_554 S
O12 Zn3 1.977 1_556 S
O12 C5 1.267 . S
C13 O14 1.160 . S
C13 O20 1.184 1_556 S
O14 C13 1.160 . S
O15 Zn16 1.899 . S
O15 C23 1.284 . S
Zn16 O15 1.899 . S
Zn16 O17 2.032 1_554 S
Zn16 O20 2.086 . S
Zn16 O25 1.977 . S
O17 Zn16 2.032 1_556 S
O17 C21 1.278 . S
C18 O19 1.203 . S
C18 O25 1.267 . S
O19 C18 1.203 . S
O20 C13 1.184 1_554 S
O20 Zn16 2.086 . S
C21 O17 1.278 . S
C21 O22 1.211 1_556 S
O22 C21 1.211 1_554 S
C23 O15 1.284 . S
C23 O24 1.273 . S
O24 C23 1.273 . S
O25 Zn16 1.977 . S
O25 C18 1.267 . S
C26 O27 1.160 . S
C26 O33 1.185 1_556 S
O27 C26 1.160 . S
O28 Zn29 1.899 . S
O28 C36 1.284 1_545 S
Zn29 O28 1.899 . S
Zn29 O30 2.032 1_554 S
Zn29 O33 2.086 . S
Zn29 O38 1.977 . S
O30 Zn29 2.032 1_556 S
O30 C34 1.283 1_545 S
C31 O32 1.203 . S
C31 O38 1.267 . S
O32 C31 1.203 . S
O33 C26 1.185 1_554 S
O33 Zn29 2.086 . S
C34 O30 1.283 1_565 S
C34 O35 1.239 . S
O35 C34 1.239 . S
C36 O28 1.284 1_565 S
C36 O37 1.273 . S
O37 C36 1.273 . S
O38 Zn29 1.977 . S
O38 C31 1.267 . S
C39 O40 1.160 . S
C39 O46 1.185 1_556 S
O40 C39 1.160 . S
O41 Zn42 1.899 1_455 S
O41 C49 1.284 . S
Zn42 O41 1.899 1_655 S
Zn42 O43 2.032 1_654 S
Zn42 O46 2.086 . S
Zn42 O51 1.977 . S
O43 Zn42 2.032 1_456 S
O43 C47 1.278 . S
C44 O45 1.203 1_655 S
C44 O51 1.267 . S
O45 C44 1.203 1_455 S
O46 C39 1.185 1_554 S
O46 Zn42 2.086 . S
C47 O43 1.278 . S
C47 O48 1.238 . S
O48 C47 1.238 . S
C49 O41 1.284 . S
C49 O50 1.273 . S
O50 C49 1.273 . S
O51 Zn42 1.977 . S
O51 C44 1.267 . S
C52 O53 1.160 . S
C52 O59 1.185 . S
O53 C52 1.160 . S
O54 Zn55 1.869 1_556 S
O54 C62 1.284 . S
Zn55 O54 1.869 1_554 S
Zn55 O56 2.083 . S
Zn55 O59 2.111 . S
Zn55 O64 1.944 1_554 S
O56 Zn55 2.083 . S
O56 C60 1.278 . S
C57 O58 1.203 . S
C57 O64 1.267 . S
O58 C57 1.203 . S
O59 C52 1.185 . S
O59 Zn55 2.111 . S
C60 O56 1.278 . S
C60 O61 1.211 . S
O61 C60 1.211 . S
C62 O54 1.284 . S
C62 O63 1.273 . S
O63 C62 1.273 . S
O64 Zn55 1.944 1_556 S
O64 C57 1.267 . S
C65 O66 1.160 . S
C65 O72 1.185 . S
O66 C65 1.160 . S
O67 Zn68 1.899 1_546 S
O67 C75 1.282 1_556 S
Zn68 O67 1.899 1_564 S
Zn68 O69 2.032 1_565 S
Zn68 O72 2.086 . S
Zn68 O77 1.977 1_554 S
O69 Zn68 2.032 1_545 S
O69 C73 1.278 . S
C70 O71 1.203 1_565 S
C70 O77 1.267 . S
O71 C70 1.203 1_545 S
O72 C65 1.185 . S
O72 Zn68 2.086 . S
C73 O69 1.278 . S
C73 O74 1.211 . S
O74 C73 1.211 . S
C75 O67 1.282 1_554 S
C75 O76 1.282 . S
O76 C75 1.282 . S
O77 Zn68 1.977 1_556 S
O77 C70 1.267 . S
C78 O79 1.160 . S
C78 O85 1.185 . S
O79 C78 1.160 . S
O80 Zn81 1.899 . S
O80 C88 1.284 . S
Zn81 O80 1.899 . S
Zn81 O82 2.032 . S
Zn81 O85 2.086 . S
Zn81 O90 1.977 . S
O82 Zn81 2.032 . S
O82 C86 1.278 . S
C83 O84 1.203 . S
C83 O90 1.267 . S
O84 C83 1.203 . S
O85 C78 1.185 . S
O85 Zn81 2.086 . S
C86 O82 1.278 . S
C86 O87 1.211 . S
O87 C86 1.211 . S
C88 O80 1.284 . S
C88 O89 1.273 . S
O89 C88 1.273 . S
O90 Zn81 1.977 . S
O90 C83 1.267 . S
C91 O92 1.160 1_565 S
C91 O98 1.185 . S
O92 C91 1.160 1_545 S
O93 Zn94 1.899 1_545 S
O93 C101 1.284 . S
Zn94 O93 1.899 1_565 S
Zn94 O95 2.032 . S
Zn94 O98 2.086 . S
Zn94 O103 1.977 . S
O95 Zn94 2.032 . S
O95 C99 1.278 . S
C96 O97 1.203 . S
C96 O103 1.267 . S
O97 C96 1.203 . S
O98 C91 1.185 . S
O98 Zn94 2.086 . S
C99 O95 1.278 . S
C99 O100 1.211 . S
O100 C99 1.211 . S
C101 O93 1.284 . S
C101 O102 1.273 . S
O102 C101 1.273 . S
O103 Zn94 1.977 . S
O103 C96 1.267 . S
C104 O105 1.160 . S
C104 O111 1.185 . S
O105 C104 1.160 . S
O106 Zn107 1.899 . S
O106 C114 1.284 1_455 S
Zn107 O106 1.899 . S
Zn107 O108 2.032 . S
Zn107 O111 2.086 . S
Zn107 O116 1.977 . S
O108 Zn107 2.032 . S
O108 C112 1.278 . S
C109 O110 1.203 . S
C109 O116 1.267 . S
O110 C109 1.203 . S
O111 C104 1.185 . S
O111 Zn107 2.086 . S
C112 O108 1.278 . S
C112 O113 1.211 . S
O113 C112 1.211 . S
C114 O106 1.284 1_655 S
C114 O115 1.273 1_655 S
O115 C114 1.273 1_455 S
O116 Zn107 1.977 . S
O116 C109 1.267 . S
C117 O118 1.160 1_565 S
C117 O124 1.185 . S
O118 C117 1.160 1_545 S
O119 Zn120 1.899 1_545 S
O119 C127 1.284 . S
Zn120 O119 1.899 1_565 S
Zn120 O121 2.032 . S
Zn120 O124 2.086 . S
Zn120 O129 1.977 . S
O121 Zn120 2.032 . S
O121 C125 1.278 . S
C122 O123 1.203 . S
C122 O129 1.267 . S
O123 C122 1.203 . S
O124 C117 1.185 . S
O124 Zn120 2.086 . S
C125 O121 1.278 . S
C125 O126 1.211 . S
O126 C125 1.211 . S
C127 O119 1.284 . S
C127 O128 1.273 . S
O128 C127 1.273 . S
O129 Zn120 1.977 . S
O129 C122 1.267 . S
C130 O131 1.160 . S
C130 O137 1.185 . S
O131 C130 1.160 . S
O132 Zn133 1.899 . S
O132 C140 1.284 . S
Zn133 O132 1.899 . S
Zn133 O134 2.032 . S
Zn133 O137 2.086 1_455 S
Zn133 O142 1.977 . S
O134 Zn133 2.032 . S
O134 C138 1.278 . S
C135 O136 1.203 . S
C135 O142 1.267 . S
O136 C135 1.203 . S
O137 C130 1.185 . S
O137 Zn133 2.086 1_655 S
C138 O134 1.278 . S
C138 O139 1.211 . S
O139 C138 1.211 . S
C140 O132 1.284 . S
C140 O141 1.273 . S
O141 C140 1.273 . S
O142 Zn133 1.977 . S
O142 C135 1.267 . S
C143 O144 1.160 . S
C143 O150 1.185 . S
O144 C143 1.160 . S
O145 Zn146 1.899 . S
O145 C153 1.284 . S
Zn146 O145 1.899 . S
Zn146 O147 2.032 . S
Zn146 O150 2.086 . S
Zn146 O155 1.977 . S
O147 Zn146 2.032 . S
O147 C151 1.278 . S
C148 O149 1.203 . S
C148 O155 1.267 . S
O149 C148 1.203 . S
O150 C143 1.185 . S
O150 Zn146 2.086 . S
C151 O147 1.278 . S
C151 O152 1.211 . S
O152 C151 1.211 . S
C153 O145 1.284 . S
C153 O154 1.273 . S
O154 C153 1.273 . S
O155 Zn146 1.977 . S
O155 C148 1.267 . S
C156 O157 1.160 . S
C156 O163 1.185 . S
O157 C156 1.160 . S
O158 Zn159 1.899 . S
O158 C166 1.284 1_545 S
Zn159 O158 1.899 . S
Zn159 O160 2.032 . S
Zn159 O163 2.086 . S
Zn159 O168 1.977 . S
O160 Zn159 2.032 . S
O160 C164 1.278 . S
C161 O162 1.203 . S
C161 O168 1.267 . S
O162 C161 1.203 . S
O163 C156 1.185 . S
O163 Zn159 2.086 . S
C164 O160 1.278 . S
C164 O165 1.211 . S
O165 C164 1.211 . S
C166 O158 1.284 1_565 S
C166 O167 1.276 . S
O167 C166 1.276 . S
O168 Zn159 1.977 . S
O168 C161 1.267 . S
C169 O170 1.160 . S
C169 O176 1.185 . S
O170 C169 1.160 . S
O171 Zn172 1.893 . S
O171 C179 1.313 . S
Zn172 O171 1.893 . S
Zn172 O173 2.032 . S
Zn172 O176 2.086 1_655 S
Zn172 O181 1.977 . S
O173 Zn172 2.032 . S
O173 C177 1.278 . S
C174 O175 1.203 . S
C174 O181 1.267 . S
O175 C174 1.203 . S
O176 C169 1.185 . S
O176 Zn172 2.086 1_455 S
C177 O173 1.278 . S
C177 O178 1.211 . S
O178 C177 1.211 . S
C179 O171 1.313 . S
C179 O180 1.273 . S
O180 C179 1.273 . S
O181 Zn172 1.977 . S
O181 C174 1.267 . S
C182 O183 1.160 . S
C182 O189 1.185 . S
O183 C182 1.160 . S
O184 Zn185 1.899 . S
O184 C192 1.284 . S
Zn185 O184 1.899 . S
Zn185 O186 2.032 . S
Zn185 O189 2.086 . S
Zn185 O194 1.977 . S
O186 Zn185 2.032 . S
O186 C190 1.278 . S
C187 O188 1.203 . S
C187 O194 1.267 . S
O188 C187 1.203 . S
O189 C182 1.185 . S
O189 Zn185 2.086 . S
C190 O186 1.278 . S
C190 O191 1.211 . S
O191 C190 1.211 . S
C192 O184 1.284 . S
C192 O193 1.273 . S
O193 C192 1.273 . S
O194 Zn185 1.977 . S
O194 C187 1.267 . S
C195 O196 1.160 . S
C195 O202 1.185 . S
O196 C195 1.160 . S
O197 Zn198 1.899 . S
O197 C205 1.284 . S
Zn198 O197 1.899 . S
Zn198 O199 2.032 . S
Zn198 O202 2.086 . S
Zn198 O207 1.977 . S
O199 Zn198 2.032 . S
O199 C203 1.278 . S
C200 O201 1.203 . S
C200 O207 1.267 . S
O201 C200 1.203 . S
O202 C195 1.185 . S
O202 Zn198 2.086 . S
C203 O199 1.278 . S
C203 O204 1.211 . S
O204 C203 1.211 . S
C205 O197 1.284 . S
C205 O206 1.273 . S
O206 C205 1.273 . S
O207 Zn198 1.977 . S
O207 C200 1.267 . S
C208 O209 1.160 . S
C208 O215 1.185 . S
O209 C208 1.160 . S
O210 Zn211 1.941 . S
O210 C218 1.237 1_545 S
Zn211 O210 1.941 . S
Zn211 O212 2.032 . S
Zn211 O215 2.086 . S
Zn211 O220 1.977 . S
O212 Zn211 2.032 . S
O212 C216 1.278 . S
C213 O214 1.203 . S
C213 O220 1.267 . S
O214 C213 1.203 . S
O215 C208 1.185 . S
O215 Zn211 2.086 . S
C216 O212 1.278 . S
C216 O217 1.211 . S
O217 C216 1.211 . S
C218 O210 1.237 1_565 S
C218 O219 1.271 . S
O219 C218 1.271 . S
O220 Zn211 1.977 . S
O220 C213 1.267 . S
C221 O222 1.160 . S
C221 O228 1.185 . S
O222 C221 1.160 . S
O223 Zn224 1.899 . S
O223 C231 1.284 1_655 S
Zn224 O223 1.899 . S
Zn224 O225 2.032 . S
Zn224 O228 2.086 . S
Zn224 O233 1.977 . S
O225 Zn224 2.032 . S
O225 C229 1.278 . S
C226 O227 1.203 . S
C226 O233 1.267 . S
O227 C226 1.203 . S
O228 C221 1.185 . S
O228 Zn224 2.086 . S
C229 O225 1.278 . S
C229 O230 1.211 . S
O230 C229 1.211 . S
C231 O223 1.284 1_455 S
C231 O232 1.273 1_455 S
O232 C231 1.273 1_655 S
O233 Zn224 1.977 . S
O233 C226 1.267 . S
C234 C235 1.560 . S
C234 H295 0.959 . S
C234 H296 0.959 . S
C234 H297 0.960 . S
C235 C234 1.560 . S
C235 O290 1.426 . S
C235 H294 0.980 . S
C236 C237 1.407 . S
C236 C241 1.418 . S
C236 O290 1.334 . S
C237 C236 1.407 . S
C237 C238 1.360 . S
C237 H298 0.929 . S
C238 C237 1.360 . S
C238 C239 1.401 . S
C238 C242 1.527 . S
C239 C238 1.401 . S
C239 C240 1.405 . S
C239 C272 1.587 . S
C240 C239 1.405 . S
C240 C241 1.332 . S
C240 C243 1.496 . S
C241 C236 1.418 . S
C241 C240 1.332 . S
C241 H299 0.929 . S
C242 C238 1.527 . S
C242 H300 0.959 . S
C242 H301 0.961 . S
C242 H302 0.961 . S
C243 C240 1.496 . S
C243 H303 0.960 . S
C243 H304 0.960 . S
C243 H305 0.961 . S
C244 C245 1.517 . S
C244 H307 0.961 . S
C244 H308 0.960 . S
C244 H309 0.959 . S
C245 C244 1.517 . S
C245 O293 1.468 . S
C245 H306 0.980 . S
C246 C247 1.349 . S
C246 C251 1.367 . S
C246 O293 1.408 . S
C247 C246 1.349 . S
C247 C248 1.407 . S
C247 H310 0.930 . S
C248 C247 1.407 . S
C248 C249 1.449 . S
C248 C252 1.535 . S
C249 C248 1.449 . S
C249 C250 1.384 . S
C249 C274 1.553 . S
C250 C249 1.384 . S
C250 C251 1.364 . S
C250 C253 1.450 . S
C251 C246 1.367 . S
C251 C250 1.364 . S
C251 H311 0.931 . S
C252 C248 1.535 . S
C252 H312 0.959 . S
C252 H313 0.961 . S
C252 H314 0.959 . S
C253 C250 1.450 . S
C253 H315 0.960 . S
C253 H316 0.960 . S
C253 H317 0.960 . S
C254 C255 1.309 . S
C254 C259 1.304 . S
C254 O292 1.435 . S
C255 C254 1.309 . S
C255 C256 1.476 . S
C255 H319 0.930 . S
C256 C255 1.476 . S
C256 C257 1.400 . S
C256 C260 1.567 . S
C257 C256 1.400 . S
C257 C258 1.373 . S
C257 C279 1.432 . S
C258 C257 1.373 . S
C258 C259 1.339 . S
C258 C261 1.530 . S
C259 C254 1.304 . S
C259 C258 1.339 . S
C259 H320 0.930 . S
C260 C256 1.567 . S
C260 H321 0.961 . S
C260 H322 0.960 . S
C260 H323 0.958 . S
C261 C258 1.530 . S
C261 H324 0.961 . S
C261 H325 0.960 . S
C261 H326 0.960 . S
C262 C263 1.530 . S
C262 H328 0.961 . S
C262 H329 0.961 . S
C262 H330 0.959 . S
C263 C262 1.530 . S
C263 O291 1.412 . S
C263 H327 0.980 . S
C264 C265 1.288 . S
C264 C269 1.377 . S
C264 O291 1.393 . S
C265 C264 1.288 . S
C265 C266 1.369 . S
C265 H331 0.932 . S
C266 C265 1.369 . S
C266 C267 1.398 . S
C266 C270 1.527 . S
C267 C266 1.398 . S
C267 C268 1.380 . S
C267 C281 1.497 . S
C268 C267 1.380 . S
C268 C269 1.383 . S
C268 C271 1.603 . S
C269 C264 1.377 . S
C269 C268 1.383 . S
C269 H332 0.929 . S
C270 C266 1.527 . S
C270 H333 0.961 . S
C270 H334 0.959 . S
C270 H335 0.959 . S
C271 C268 1.603 . S
C271 H336 0.960 . S
C271 H337 0.962 . S
C271 H338 0.961 . S
C272 C239 1.587 . S
C272 C273 1.360 . S
C272 C285 1.412 . S
C273 C272 1.360 . S
C273 C274 1.365 . S
C273 H339 0.929 . S
C274 C249 1.553 . S
C274 C273 1.365 . S
C274 C275 1.404 . S
C275 C274 1.404 . S
C275 C276 1.395 . S
C275 C286 1.451 . S
C276 C275 1.395 . S
C276 C277 1.322 . S
C276 H340 0.930 . S
C277 C276 1.322 . S
C277 C278 1.459 . S
C277 H341 0.929 . S
C278 C277 1.459 . S
C278 C279 1.445 . S
C278 C287 1.395 . S
C279 C257 1.432 . S
C279 C278 1.445 . S
C279 C280 1.370 . S
C280 C279 1.370 . S
C280 C281 1.438 . S
C280 H342 0.930 . S
C281 C267 1.497 . S
C281 C280 1.438 . S
C281 C282 1.360 . S
C282 C281 1.360 . S
C282 C283 1.401 . S
C282 C287 1.446 . S
C283 C282 1.401 . S
C283 C284 1.347 . S
C283 H343 0.929 . S
C284 C283 1.347 . S
C284 C285 1.455 . S
C284 H344 0.930 . S
C285 C272 1.412 . S
C285 C284 1.455 . S
C285 C286 1.331 . S
C286 C275 1.451 . S
C286 C285 1.331 . S
C286 C287 1.497 . S
C287 C278 1.395 . S
C287 C282 1.446 . S
C287 C286 1.497 . S
C288 C289 1.582 . S
C288 H345 0.962 . S
C288 H346 0.959 . S
C288 H347 0.958 . S
C289 C288 1.582 . S
C289 O292 1.458 . S
C289 H318 0.980 . S
O290 C235 1.426 . S
O290 C236 1.334 . S
O291 C263 1.412 . S
O291 C264 1.393 . S
O292 C254 1.435 . S
O292 C289 1.458 . S
O293 C245 1.468 . S
O293 C246 1.408 . S
H294 C235 0.980 . S
H295 C234 0.959 . S
H296 C234 0.959 . S
H297 C234 0.960 . S
H298 C237 0.929 . S
H299 C241 0.929 . S
H300 C242 0.959 . S
H301 C242 0.961 . S
H302 C242 0.961 . S
H303 C243 0.960 . S
H304 C243 0.960 . S
H305 C243 0.961 . S
H306 C245 0.980 . S
H307 C244 0.961 . S
H308 C244 0.960 . S
H309 C244 0.959 . S
H310 C247 0.930 . S
H311 C251 0.931 . S
H312 C252 0.959 . S
H313 C252 0.961 . S
H314 C252 0.959 . S
H315 C253 0.960 . S
H316 C253 0.960 . S
H317 C253 0.960 . S
H318 C289 0.980 . S
H319 C255 0.930 . S
H320 C259 0.930 . S
H321 C260 0.961 . S
H322 C260 0.960 . S
H323 C260 0.958 . S
H324 C261 0.961 . S
H325 C261 0.960 . S
H326 C261 0.960 . S
H327 C263 0.980 . S
H328 C262 0.961 . S
H329 C262 0.961 . S
H330 C262 0.959 . S
H331 C265 0.932 . S
H332 C269 0.929 . S
H333 C270 0.961 . S
H334 C270 0.959 . S
H335 C270 0.959 . S
H336 C271 0.960 . S
H337 C271 0.962 . S
H338 C271 0.961 . S
H339 C273 0.929 . S
H340 C276 0.930 . S
H341 C277 0.929 . S
H342 C280 0.930 . S
H343 C283 0.929 . S
H344 C284 0.930 . S
H345 C288 0.962 . S
H346 C288 0.959 . S
H347 C288 0.958 . S
C348 C349 1.560 . S
C348 H409 0.959 . S
C348 H410 0.959 . S
C348 H411 0.960 . S
C349 C348 1.560 . S
C349 O404 1.426 . S
C349 H408 0.980 . S
C350 C351 1.407 . S
C350 C355 1.418 . S
C350 O404 1.334 . S
C351 C350 1.407 . S
C351 C352 1.360 . S
C351 H412 0.929 . S
C352 C351 1.360 . S
C352 C353 1.401 . S
C352 C356 1.527 . S
C353 C352 1.401 . S
C353 C354 1.405 . S
C353 C386 1.587 . S
C354 C353 1.405 . S
C354 C355 1.332 . S
C354 C357 1.496 . S
C355 C350 1.418 . S
C355 C354 1.332 . S
C355 H413 0.929 . S
C356 C352 1.527 . S
C356 H414 0.959 . S
C356 H415 0.961 . S
C356 H416 0.961 . S
C357 C354 1.496 . S
C357 H417 0.960 . S
C357 H418 0.960 . S
C357 H419 0.961 . S
C358 C359 1.517 . S
C358 H421 0.961 . S
C358 H422 0.960 . S
C358 H423 0.959 . S
C359 C358 1.517 . S
C359 O407 1.468 . S
C359 H420 0.980 . S
C360 C361 1.349 . S
C360 C365 1.367 . S
C360 O407 1.408 . S
C361 C360 1.349 . S
C361 C362 1.407 . S
C361 H424 0.930 . S
C362 C361 1.407 . S
C362 C363 1.449 . S
C362 C366 1.535 . S
C363 C362 1.449 . S
C363 C364 1.384 . S
C363 C388 1.553 . S
C364 C363 1.384 . S
C364 C365 1.364 . S
C364 C367 1.450 . S
C365 C360 1.367 . S
C365 C364 1.364 . S
C365 H425 0.931 . S
C366 C362 1.535 . S
C366 H426 0.959 . S
C366 H427 0.961 . S
C366 H428 0.959 . S
C367 C364 1.450 . S
C367 H429 0.960 . S
C367 H430 0.960 . S
C367 H431 0.960 . S
C368 C369 1.309 . S
C368 C373 1.304 . S
C368 O406 1.435 . S
C369 C368 1.309 . S
C369 C370 1.476 . S
C369 H433 0.930 . S
C370 C369 1.476 . S
C370 C371 1.400 . S
C370 C374 1.567 . S
C371 C370 1.400 . S
C371 C372 1.373 . S
C371 C393 1.432 . S
C372 C371 1.373 . S
C372 C373 1.339 . S
C372 C375 1.530 . S
C373 C368 1.304 . S
C373 C372 1.339 . S
C373 H434 0.930 . S
C374 C370 1.567 . S
C374 H435 0.961 . S
C374 H436 0.960 . S
C374 H437 0.958 . S
C375 C372 1.530 . S
C375 H438 0.961 . S
C375 H439 0.960 . S
C375 H440 0.960 . S
C376 C377 1.530 . S
C376 H442 0.961 . S
C376 H443 0.961 . S
C376 H444 0.959 . S
C377 C376 1.530 . S
C377 O405 1.412 . S
C377 H441 0.980 . S
C378 C379 1.288 . S
C378 C383 1.377 . S
C378 O405 1.393 . S
C379 C378 1.288 . S
C379 C380 1.369 . S
C379 H445 0.932 . S
C380 C379 1.369 . S
C380 C381 1.398 . S
C380 C384 1.527 . S
C381 C380 1.398 . S
C381 C382 1.380 . S
C381 C395 1.497 . S
C382 C381 1.380 . S
C382 C383 1.383 . S
C382 C385 1.603 . S
C383 C378 1.377 . S
C383 C382 1.383 . S
C383 H446 0.929 . S
C384 C380 1.527 . S
C384 H447 0.961 . S
C384 H448 0.959 . S
C384 H449 0.959 . S
C385 C382 1.603 . S
C385 H450 0.960 . S
C385 H451 0.962 . S
C385 H452 0.961 . S
C386 C353 1.587 . S
C386 C387 1.360 . S
C386 C399 1.412 . S
C387 C386 1.360 . S
C387 C388 1.365 . S
C387 H453 0.929 . S
C388 C363 1.553 . S
C388 C387 1.365 . S
C388 C389 1.404 . S
C389 C388 1.404 . S
C389 C390 1.395 . S
C389 C400 1.451 . S
C390 C389 1.395 . S
C390 C391 1.322 . S
C390 H454 0.930 . S
C391 C390 1.322 . S
C391 C392 1.459 . S
C391 H455 0.929 . S
C392 C391 1.459 . S
C392 C393 1.445 . S
C392 C401 1.395 . S
C393 C371 1.432 . S
C393 C392 1.445 . S
C393 C394 1.370 . S
C394 C393 1.370 . S
C394 C395 1.438 . S
C394 H456 0.930 . S
C395 C381 1.497 . S
C395 C394 1.438 . S
C395 C396 1.360 . S
C396 C395 1.360 . S
C396 C397 1.401 . S
C396 C401 1.446 . S
C397 C396 1.401 . S
C397 C398 1.347 . S
C397 H457 0.929 . S
C398 C397 1.347 . S
C398 C399 1.455 . S
C398 H458 0.930 . S
C399 C386 1.412 . S
C399 C398 1.455 . S
C399 C400 1.331 . S
C400 C389 1.451 . S
C400 C399 1.331 . S
C400 C401 1.497 . S
C401 C392 1.395 . S
C401 C396 1.446 . S
C401 C400 1.497 . S
C402 C403 1.582 . S
C402 H459 0.962 . S
C402 H460 0.959 . S
C402 H461 0.958 . S
C403 C402 1.582 . S
C403 O406 1.458 . S
C403 H432 0.980 . S
O404 C349 1.426 . S
O404 C350 1.334 . S
O405 C377 1.412 . S
O405 C378 1.393 . S
O406 C368 1.435 . S
O406 C403 1.458 . S
O407 C359 1.468 . S
O407 C360 1.408 . S
H408 C349 0.980 . S
H409 C348 0.959 . S
H410 C348 0.959 . S
H411 C348 0.960 . S
H412 C351 0.929 . S
H413 C355 0.929 . S
H414 C356 0.959 . S
H415 C356 0.961 . S
H416 C356 0.961 . S
H417 C357 0.960 . S
H418 C357 0.960 . S
H419 C357 0.961 . S
H420 C359 0.980 . S
H421 C358 0.961 . S
H422 C358 0.960 . S
H423 C358 0.959 . S
H424 C361 0.930 . S
H425 C365 0.931 . S
H426 C366 0.959 . S
H427 C366 0.961 . S
H428 C366 0.959 . S
H429 C367 0.960 . S
H430 C367 0.960 . S
H431 C367 0.960 . S
H432 C403 0.980 . S
H433 C369 0.930 . S
H434 C373 0.930 . S
H435 C374 0.961 . S
H436 C374 0.960 . S
H437 C374 0.958 . S
H438 C375 0.961 . S
H439 C375 0.960 . S
H440 C375 0.960 . S
H441 C377 0.980 . S
H442 C376 0.961 . S
H443 C376 0.961 . S
H444 C376 0.959 . S
H445 C379 0.932 . S
H446 C383 0.929 . S
H447 C384 0.961 . S
H448 C384 0.959 . S
H449 C384 0.959 . S
H450 C385 0.960 . S
H451 C385 0.962 . S
H452 C385 0.961 . S
H453 C387 0.929 . S
H454 C390 0.930 . S
H455 C391 0.929 . S
H456 C394 0.930 . S
H457 C397 0.929 . S
H458 C398 0.930 . S
H459 C402 0.962 . S
H460 C402 0.959 . S
H461 C402 0.958 . S
C462 C463 1.560 . S
C462 H523 0.959 . S
C462 H524 0.959 . S
C462 H525 0.960 . S
C463 C462 1.560 . S
C463 O518 1.426 . S
C463 H522 0.980 . S
C464 C465 1.407 . S
C464 C469 1.418 . S
C464 O518 1.334 . S
C465 C464 1.407 . S
C465 C466 1.360 . S
C465 H526 0.929 . S
C466 C465 1.360 . S
C466 C467 1.401 . S
C466 C470 1.527 . S
C467 C466 1.401 . S
C467 C468 1.405 . S
C467 C500 1.587 . S
C468 C467 1.405 . S
C468 C469 1.332 . S
C468 C471 1.496 . S
C469 C464 1.418 . S
C469 C468 1.332 . S
C469 H527 0.929 . S
C470 C466 1.527 . S
C470 H528 0.959 . S
C470 H529 0.961 . S
C470 H530 0.961 . S
C471 C468 1.496 . S
C471 H531 0.960 . S
C471 H532 0.960 . S
C471 H533 0.961 . S
C472 C473 1.517 . S
C472 H535 0.961 . S
C472 H536 0.960 . S
C472 H537 0.959 . S
C473 C472 1.517 . S
C473 O521 1.468 . S
C473 H534 0.980 . S
C474 C475 1.349 . S
C474 C479 1.367 . S
C474 O521 1.408 . S
C475 C474 1.349 . S
C475 C476 1.407 . S
C475 H538 0.930 . S
C476 C475 1.407 . S
C476 C477 1.449 . S
C476 C480 1.535 . S
C477 C476 1.449 . S
C477 C478 1.384 . S
C477 C502 1.553 . S
C478 C477 1.384 . S
C478 C479 1.364 . S
C478 C481 1.450 . S
C479 C474 1.367 . S
C479 C478 1.364 . S
C479 H539 0.931 . S
C480 C476 1.535 . S
C480 H540 0.959 . S
C480 H541 0.961 . S
C480 H542 0.959 . S
C481 C478 1.450 . S
C481 H543 0.960 . S
C481 H544 0.960 . S
C481 H545 0.960 . S
C482 C483 1.309 . S
C482 C487 1.304 . S
C482 O520 1.435 . S
C483 C482 1.309 . S
C483 C484 1.476 . S
C483 H547 0.930 . S
C484 C483 1.476 . S
C484 C485 1.400 . S
C484 C488 1.567 . S
C485 C484 1.400 . S
C485 C486 1.373 . S
C485 C507 1.432 . S
C486 C485 1.373 . S
C486 C487 1.339 . S
C486 C489 1.530 . S
C487 C482 1.304 . S
C487 C486 1.339 . S
C487 H548 0.930 . S
C488 C484 1.567 . S
C488 H549 0.961 . S
C488 H550 0.960 . S
C488 H551 0.958 . S
C489 C486 1.530 . S
C489 H552 0.961 . S
C489 H553 0.960 . S
C489 H554 0.960 . S
C490 C491 1.530 . S
C490 H556 0.961 . S
C490 H557 0.961 . S
C490 H558 0.959 . S
C491 C490 1.530 . S
C491 O519 1.412 . S
C491 H555 0.980 . S
C492 C493 1.288 . S
C492 C497 1.377 . S
C492 O519 1.393 . S
C493 C492 1.288 . S
C493 C494 1.369 . S
C493 H559 0.932 . S
C494 C493 1.369 . S
C494 C495 1.398 . S
C494 C498 1.527 . S
C495 C494 1.398 . S
C495 C496 1.380 . S
C495 C509 1.497 . S
C496 C495 1.380 . S
C496 C497 1.383 . S
C496 C499 1.603 . S
C497 C492 1.377 . S
C497 C496 1.383 . S
C497 H560 0.929 . S
C498 C494 1.527 . S
C498 H561 0.961 . S
C498 H562 0.959 . S
C498 H563 0.959 . S
C499 C496 1.603 . S
C499 H564 0.960 . S
C499 H565 0.962 . S
C499 H566 0.961 . S
C500 C467 1.587 . S
C500 C501 1.360 . S
C500 C513 1.412 . S
C501 C500 1.360 . S
C501 C502 1.365 . S
C501 H567 0.929 . S
C502 C477 1.553 . S
C502 C501 1.365 . S
C502 C503 1.404 . S
C503 C502 1.404 . S
C503 C504 1.395 . S
C503 C514 1.451 . S
C504 C503 1.395 . S
C504 C505 1.322 . S
C504 H568 0.930 . S
C505 C504 1.322 . S
C505 C506 1.459 . S
C505 H569 0.929 . S
C506 C505 1.459 . S
C506 C507 1.445 . S
C506 C515 1.395 . S
C507 C485 1.432 . S
C507 C506 1.445 . S
C507 C508 1.370 . S
C508 C507 1.370 . S
C508 C509 1.438 . S
C508 H570 0.930 . S
C509 C495 1.497 . S
C509 C508 1.438 . S
C509 C510 1.360 . S
C510 C509 1.360 . S
C510 C511 1.401 . S
C510 C515 1.446 . S
C511 C510 1.401 . S
C511 C512 1.347 . S
C511 H571 0.929 . S
C512 C511 1.347 . S
C512 C513 1.455 . S
C512 H572 0.930 . S
C513 C500 1.412 . S
C513 C512 1.455 . S
C513 C514 1.331 . S
C514 C503 1.451 . S
C514 C513 1.331 . S
C514 C515 1.497 . S
C515 C506 1.395 . S
C515 C510 1.446 . S
C515 C514 1.497 . S
C516 C517 1.582 . S
C516 H573 0.962 . S
C516 H574 0.959 . S
C516 H575 0.958 . S
C517 C516 1.582 . S
C517 O520 1.458 . S
C517 H546 0.980 . S
O518 C463 1.426 . S
O518 C464 1.334 . S
O519 C491 1.412 . S
O519 C492 1.393 . S
O520 C482 1.435 . S
O520 C517 1.458 . S
O521 C473 1.468 . S
O521 C474 1.408 . S
H522 C463 0.980 . S
H523 C462 0.959 . S
H524 C462 0.959 . S
H525 C462 0.960 . S
H526 C465 0.929 . S
H527 C469 0.929 . S
H528 C470 0.959 . S
H529 C470 0.961 . S
H530 C470 0.961 . S
H531 C471 0.960 . S
H532 C471 0.960 . S
H533 C471 0.961 . S
H534 C473 0.980 . S
H535 C472 0.961 . S
H536 C472 0.960 . S
H537 C472 0.959 . S
H538 C475 0.930 . S
H539 C479 0.931 . S
H540 C480 0.959 . S
H541 C480 0.961 . S
H542 C480 0.959 . S
H543 C481 0.960 . S
H544 C481 0.960 . S
H545 C481 0.960 . S
H546 C517 0.980 . S
H547 C483 0.930 . S
H548 C487 0.930 . S
H549 C488 0.961 . S
H550 C488 0.960 . S
H551 C488 0.958 . S
H552 C489 0.961 . S
H553 C489 0.960 . S
H554 C489 0.960 . S
H555 C491 0.980 . S
H556 C490 0.961 . S
H557 C490 0.961 . S
H558 C490 0.959 . S
H559 C493 0.932 . S
H560 C497 0.929 . S
H561 C498 0.961 . S
H562 C498 0.959 . S
H563 C498 0.959 . S
H564 C499 0.960 . S
H565 C499 0.962 . S
H566 C499 0.961 . S
H567 C501 0.929 . S
H568 C504 0.930 . S
H569 C505 0.929 . S
H570 C508 0.930 . S
H571 C511 0.929 . S
H572 C512 0.930 . S
H573 C516 0.962 . S
H574 C516 0.959 . S
H575 C516 0.958 . S
C576 C577 1.560 . S
C576 H637 0.959 . S
C576 H638 0.959 . S
C576 H639 0.960 . S
C577 C576 1.560 . S
C577 O632 1.426 . S
C577 H636 0.980 . S
C578 C579 1.407 . S
C578 C583 1.418 . S
C578 O632 1.334 . S
C579 C578 1.407 . S
C579 C580 1.360 . S
C579 H640 0.929 . S
C580 C579 1.360 . S
C580 C581 1.401 . S
C580 C584 1.527 . S
C581 C580 1.401 . S
C581 C582 1.405 . S
C581 C614 1.587 . S
C582 C581 1.405 . S
C582 C583 1.332 . S
C582 C585 1.496 . S
C583 C578 1.418 . S
C583 C582 1.332 . S
C583 H641 0.929 . S
C584 C580 1.527 . S
C584 H642 0.959 . S
C584 H643 0.961 . S
C584 H644 0.961 . S
C585 C582 1.496 . S
C585 H645 0.960 . S
C585 H646 0.960 . S
C585 H647 0.961 . S
C586 C587 1.517 . S
C586 H649 0.961 . S
C586 H650 0.960 . S
C586 H651 0.959 . S
C587 C586 1.517 . S
C587 O635 1.468 . S
C587 H648 0.980 . S
C588 C589 1.349 . S
C588 C593 1.367 . S
C588 O635 1.408 . S
C589 C588 1.349 . S
C589 C590 1.407 . S
C589 H652 0.930 . S
C590 C589 1.407 . S
C590 C591 1.449 . S
C590 C594 1.535 . S
C591 C590 1.449 . S
C591 C592 1.384 . S
C591 C616 1.553 . S
C592 C591 1.384 . S
C592 C593 1.364 . S
C592 C595 1.450 . S
C593 C588 1.367 . S
C593 C592 1.364 . S
C593 H653 0.931 . S
C594 C590 1.535 . S
C594 H654 0.959 . S
C594 H655 0.961 . S
C594 H656 0.959 . S
C595 C592 1.450 . S
C595 H657 0.960 . S
C595 H658 0.960 . S
C595 H659 0.960 . S
C596 C597 1.309 . S
C596 C601 1.304 . S
C596 O634 1.435 . S
C597 C596 1.309 . S
C597 C598 1.476 . S
C597 H661 0.930 . S
C598 C597 1.476 . S
C598 C599 1.400 . S
C598 C602 1.567 . S
C599 C598 1.400 . S
C599 C600 1.373 . S
C599 C621 1.432 . S
C600 C599 1.373 . S
C600 C601 1.339 . S
C600 C603 1.530 . S
C601 C596 1.304 . S
C601 C600 1.339 . S
C601 H662 0.930 . S
C602 C598 1.567 . S
C602 H663 0.961 . S
C602 H664 0.960 . S
C602 H665 0.958 . S
C603 C600 1.530 . S
C603 H666 0.961 . S
C603 H667 0.960 . S
C603 H668 0.960 . S
C604 C605 1.530 . S
C604 H670 0.961 . S
C604 H671 0.961 . S
C604 H672 0.959 . S
C605 C604 1.530 . S
C605 O633 1.412 . S
C605 H669 0.980 . S
C606 C607 1.288 . S
C606 C611 1.377 . S
C606 O633 1.393 . S
C607 C606 1.288 . S
C607 C608 1.369 . S
C607 H673 0.932 . S
C608 C607 1.369 . S
C608 C609 1.398 . S
C608 C612 1.527 . S
C609 C608 1.398 . S
C609 C610 1.380 . S
C609 C623 1.497 . S
C610 C609 1.380 . S
C610 C611 1.383 . S
C610 C613 1.603 . S
C611 C606 1.377 . S
C611 C610 1.383 . S
C611 H674 0.929 . S
C612 C608 1.527 . S
C612 H675 0.961 . S
C612 H676 0.959 . S
C612 H677 0.959 . S
C613 C610 1.603 . S
C613 H678 0.960 . S
C613 H679 0.962 . S
C613 H680 0.961 . S
C614 C581 1.587 . S
C614 C615 1.360 . S
C614 C627 1.412 . S
C615 C614 1.360 . S
C615 C616 1.365 . S
C615 H681 0.929 . S
C616 C591 1.553 . S
C616 C615 1.365 . S
C616 C617 1.404 . S
C617 C616 1.404 . S
C617 C618 1.395 . S
C617 C628 1.451 . S
C618 C617 1.395 . S
C618 C619 1.322 . S
C618 H682 0.930 . S
C619 C618 1.322 . S
C619 C620 1.459 . S
C619 H683 0.929 . S
C620 C619 1.459 . S
C620 C621 1.445 . S
C620 C629 1.395 . S
C621 C599 1.432 . S
C621 C620 1.445 . S
C621 C622 1.370 . S
C622 C621 1.370 . S
C622 C623 1.438 . S
C622 H684 0.930 . S
C623 C609 1.497 . S
C623 C622 1.438 . S
C623 C624 1.360 . S
C624 C623 1.360 . S
C624 C625 1.401 . S
C624 C629 1.446 . S
C625 C624 1.401 . S
C625 C626 1.347 . S
C625 H685 0.929 . S
C626 C625 1.347 . S
C626 C627 1.455 . S
C626 H686 0.930 . S
C627 C614 1.412 . S
C627 C626 1.455 . S
C627 C628 1.331 . S
C628 C617 1.451 . S
C628 C627 1.331 . S
C628 C629 1.497 . S
C629 C620 1.395 . S
C629 C624 1.446 . S
C629 C628 1.497 . S
C630 C631 1.582 . S
C630 H687 0.962 . S
C630 H688 0.959 . S
C630 H689 0.958 . S
C631 C630 1.582 . S
C631 O634 1.458 . S
C631 H660 0.980 . S
O632 C577 1.426 . S
O632 C578 1.334 . S
O633 C605 1.412 . S
O633 C606 1.393 . S
O634 C596 1.435 . S
O634 C631 1.458 . S
O635 C587 1.468 . S
O635 C588 1.408 . S
H636 C577 0.980 . S
H637 C576 0.959 . S
H638 C576 0.959 . S
H639 C576 0.960 . S
H640 C579 0.929 . S
H641 C583 0.929 . S
H642 C584 0.959 . S
H643 C584 0.961 . S
H644 C584 0.961 . S
H645 C585 0.960 . S
H646 C585 0.960 . S
H647 C585 0.961 . S
H648 C587 0.980 . S
H649 C586 0.961 . S
H650 C586 0.960 . S
H651 C586 0.959 . S
H652 C589 0.930 . S
H653 C593 0.931 . S
H654 C594 0.959 . S
H655 C594 0.961 . S
H656 C594 0.959 . S
H657 C595 0.960 . S
H658 C595 0.960 . S
H659 C595 0.960 . S
H660 C631 0.980 . S
H661 C597 0.930 . S
H662 C601 0.930 . S
H663 C602 0.961 . S
H664 C602 0.960 . S
H665 C602 0.958 . S
H666 C603 0.961 . S
H667 C603 0.960 . S
H668 C603 0.960 . S
H669 C605 0.980 . S
H670 C604 0.961 . S
H671 C604 0.961 . S
H672 C604 0.959 . S
H673 C607 0.932 . S
H674 C611 0.929 . S
H675 C612 0.961 . S
H676 C612 0.959 . S
H677 C612 0.959 . S
H678 C613 0.960 . S
H679 C613 0.962 . S
H680 C613 0.961 . S
H681 C615 0.929 . S
H682 C618 0.930 . S
H683 C619 0.929 . S
H684 C622 0.930 . S
H685 C625 0.929 . S
H686 C626 0.930 . S
H687 C630 0.962 . S
H688 C630 0.959 . S
H689 C630 0.958 . S
C690 C691 1.560 . S
C690 H751 0.959 . S
C690 H752 0.959 . S
C690 H753 0.960 . S
C691 C690 1.560 . S
C691 O746 1.426 . S
C691 H750 0.980 . S
C692 C693 1.407 . S
C692 C697 1.418 . S
C692 O746 1.334 . S
C693 C692 1.407 . S
C693 C694 1.360 . S
C693 H754 0.929 . S
C694 C693 1.360 . S
C694 C695 1.401 . S
C694 C698 1.527 . S
C695 C694 1.401 . S
C695 C696 1.405 . S
C695 C728 1.587 . S
C696 C695 1.405 . S
C696 C697 1.332 . S
C696 C699 1.496 . S
C697 C692 1.418 . S
C697 C696 1.332 . S
C697 H755 0.929 . S
C698 C694 1.527 . S
C698 H756 0.959 . S
C698 H757 0.961 . S
C698 H758 0.961 . S
C699 C696 1.496 . S
C699 H759 0.960 . S
C699 H760 0.960 . S
C699 H761 0.961 . S
C700 C701 1.517 . S
C700 H763 0.961 . S
C700 H764 0.960 . S
C700 H765 0.959 . S
C701 C700 1.517 . S
C701 O749 1.468 . S
C701 H762 0.980 . S
C702 C703 1.349 . S
C702 C707 1.367 . S
C702 O749 1.408 . S
C703 C702 1.349 . S
C703 C704 1.407 . S
C703 H766 0.930 . S
C704 C703 1.407 . S
C704 C705 1.449 . S
C704 C708 1.535 . S
C705 C704 1.449 . S
C705 C706 1.384 . S
C705 C730 1.553 . S
C706 C705 1.384 . S
C706 C707 1.364 . S
C706 C709 1.450 . S
C707 C702 1.367 . S
C707 C706 1.364 . S
C707 H767 0.931 . S
C708 C704 1.535 . S
C708 H768 0.959 . S
C708 H769 0.961 . S
C708 H770 0.959 . S
C709 C706 1.450 . S
C709 H771 0.960 . S
C709 H772 0.960 . S
C709 H773 0.960 . S
C710 C711 1.309 . S
C710 C715 1.304 . S
C710 O748 1.435 . S
C711 C710 1.309 . S
C711 C712 1.476 . S
C711 H775 0.930 . S
C712 C711 1.476 . S
C712 C713 1.400 . S
C712 C716 1.567 . S
C713 C712 1.400 . S
C713 C714 1.373 . S
C713 C735 1.432 . S
C714 C713 1.373 . S
C714 C715 1.339 . S
C714 C717 1.530 . S
C715 C710 1.304 . S
C715 C714 1.339 . S
C715 H776 0.930 . S
C716 C712 1.567 . S
C716 H777 0.961 . S
C716 H778 0.960 . S
C716 H779 0.958 . S
C717 C714 1.530 . S
C717 H780 0.961 . S
C717 H781 0.960 . S
C717 H782 0.960 . S
C718 C719 1.530 . S
C718 H784 0.961 . S
C718 H785 0.961 . S
C718 H786 0.959 . S
C719 C718 1.530 . S
C719 O747 1.412 . S
C719 H783 0.980 . S
C720 C721 1.288 . S
C720 C725 1.377 . S
C720 O747 1.393 . S
C721 C720 1.288 . S
C721 C722 1.369 . S
C721 H787 0.932 . S
C722 C721 1.369 . S
C722 C723 1.398 . S
C722 C726 1.527 . S
C723 C722 1.398 . S
C723 C724 1.380 . S
C723 C737 1.497 . S
C724 C723 1.380 . S
C724 C725 1.383 . S
C724 C727 1.603 . S
C725 C720 1.377 . S
C725 C724 1.383 . S
C725 H788 0.929 . S
C726 C722 1.527 . S
C726 H789 0.961 . S
C726 H790 0.959 . S
C726 H791 0.959 . S
C727 C724 1.603 . S
C727 H792 0.960 . S
C727 H793 0.962 . S
C727 H794 0.961 . S
C728 C695 1.587 . S
C728 C729 1.360 . S
C728 C741 1.412 . S
C729 C728 1.360 . S
C729 C730 1.365 . S
C729 H795 0.929 . S
C730 C705 1.553 . S
C730 C729 1.365 . S
C730 C731 1.404 . S
C731 C730 1.404 . S
C731 C732 1.395 . S
C731 C742 1.451 . S
C732 C731 1.395 . S
C732 C733 1.322 . S
C732 H796 0.930 . S
C733 C732 1.322 . S
C733 C734 1.459 . S
C733 H797 0.929 . S
C734 C733 1.459 . S
C734 C735 1.445 . S
C734 C743 1.395 . S
C735 C713 1.432 . S
C735 C734 1.445 . S
C735 C736 1.370 . S
C736 C735 1.370 . S
C736 C737 1.438 . S
C736 H798 0.930 . S
C737 C723 1.497 . S
C737 C736 1.438 . S
C737 C738 1.360 . S
C738 C737 1.360 . S
C738 C739 1.401 . S
C738 C743 1.446 . S
C739 C738 1.401 . S
C739 C740 1.347 . S
C739 H799 0.929 . S
C740 C739 1.347 . S
C740 C741 1.455 . S
C740 H800 0.930 . S
C741 C728 1.412 . S
C741 C740 1.455 . S
C741 C742 1.331 . S
C742 C731 1.451 . S
C742 C741 1.331 . S
C742 C743 1.497 . S
C743 C734 1.395 . S
C743 C738 1.446 . S
C743 C742 1.497 . S
C744 C745 1.582 . S
C744 H801 0.962 . S
C744 H802 0.959 . S
C744 H803 0.958 . S
C745 C744 1.582 . S
C745 O748 1.458 . S
C745 H774 0.980 . S
O746 C691 1.426 . S
O746 C692 1.334 . S
O747 C719 1.412 . S
O747 C720 1.393 . S
O748 C710 1.435 . S
O748 C745 1.458 . S
O749 C701 1.468 . S
O749 C702 1.408 . S
H750 C691 0.980 . S
H751 C690 0.959 . S
H752 C690 0.959 . S
H753 C690 0.960 . S
H754 C693 0.929 . S
H755 C697 0.929 . S
H756 C698 0.959 . S
H757 C698 0.961 . S
H758 C698 0.961 . S
H759 C699 0.960 . S
H760 C699 0.960 . S
H761 C699 0.961 . S
H762 C701 0.980 . S
H763 C700 0.961 . S
H764 C700 0.960 . S
H765 C700 0.959 . S
H766 C703 0.930 . S
H767 C707 0.931 . S
H768 C708 0.959 . S
H769 C708 0.961 . S
H770 C708 0.959 . S
H771 C709 0.960 . S
H772 C709 0.960 . S
H773 C709 0.960 . S
H774 C745 0.980 . S
H775 C711 0.930 . S
H776 C715 0.930 . S
H777 C716 0.961 . S
H778 C716 0.960 . S
H779 C716 0.958 . S
H780 C717 0.961 . S
H781 C717 0.960 . S
H782 C717 0.960 . S
H783 C719 0.980 . S
H784 C718 0.961 . S
H785 C718 0.961 . S
H786 C718 0.959 . S
H787 C721 0.932 . S
H788 C725 0.929 . S
H789 C726 0.961 . S
H790 C726 0.959 . S
H791 C726 0.959 . S
H792 C727 0.960 . S
H793 C727 0.962 . S
H794 C727 0.961 . S
H795 C729 0.929 . S
H796 C732 0.930 . S
H797 C733 0.929 . S
H798 C736 0.930 . S
H799 C739 0.929 . S
H800 C740 0.930 . S
H801 C744 0.962 . S
H802 C744 0.959 . S
H803 C744 0.958 . S
C804 C805 1.560 . S
C804 H865 0.959 . S
C804 H866 0.959 . S
C804 H867 0.960 . S
C805 C804 1.560 . S
C805 O860 1.426 . S
C805 H864 0.980 . S
C806 C807 1.407 . S
C806 C811 1.418 . S
C806 O860 1.334 . S
C807 C806 1.407 . S
C807 C808 1.360 . S
C807 H868 0.929 . S
C808 C807 1.360 . S
C808 C809 1.401 . S
C808 C812 1.527 . S
C809 C808 1.401 . S
C809 C810 1.405 . S
C809 C842 1.587 . S
C810 C809 1.405 . S
C810 C811 1.332 . S
C810 C813 1.496 . S
C811 C806 1.418 . S
C811 C810 1.332 . S
C811 H869 0.929 . S
C812 C808 1.527 . S
C812 H870 0.959 . S
C812 H871 0.961 . S
C812 H872 0.961 . S
C813 C810 1.496 . S
C813 H873 0.960 . S
C813 H874 0.960 . S
C813 H875 0.961 . S
C814 C815 1.517 . S
C814 H877 0.961 . S
C814 H878 0.960 . S
C814 H879 0.959 . S
C815 C814 1.517 . S
C815 O863 1.468 . S
C815 H876 0.980 . S
C816 C817 1.349 . S
C816 C821 1.367 . S
C816 O863 1.408 . S
C817 C816 1.349 . S
C817 C818 1.407 . S
C817 H880 0.930 . S
C818 C817 1.407 . S
C818 C819 1.449 . S
C818 C822 1.535 . S
C819 C818 1.449 . S
C819 C820 1.384 . S
C819 C844 1.553 . S
C820 C819 1.384 . S
C820 C821 1.364 . S
C820 C823 1.450 . S
C821 C816 1.367 . S
C821 C820 1.364 . S
C821 H881 0.931 . S
C822 C818 1.535 . S
C822 H882 0.959 . S
C822 H883 0.961 . S
C822 H884 0.959 . S
C823 C820 1.450 . S
C823 H885 0.960 . S
C823 H886 0.960 . S
C823 H887 0.960 . S
C824 C825 1.309 . S
C824 C829 1.304 . S
C824 O862 1.435 . S
C825 C824 1.309 . S
C825 C826 1.476 . S
C825 H889 0.930 . S
C826 C825 1.476 . S
C826 C827 1.400 . S
C826 C830 1.567 . S
C827 C826 1.400 . S
C827 C828 1.373 . S
C827 C849 1.432 . S
C828 C827 1.373 . S
C828 C829 1.339 . S
C828 C831 1.530 . S
C829 C824 1.304 . S
C829 C828 1.339 . S
C829 H890 0.930 . S
C830 C826 1.567 . S
C830 H891 0.961 . S
C830 H892 0.960 . S
C830 H893 0.958 . S
C831 C828 1.530 . S
C831 H894 0.961 . S
C831 H895 0.960 . S
C831 H896 0.960 . S
C832 C833 1.530 . S
C832 H898 0.961 . S
C832 H899 0.961 . S
C832 H900 0.959 . S
C833 C832 1.530 . S
C833 O861 1.412 . S
C833 H897 0.980 . S
C834 C835 1.288 . S
C834 C839 1.377 . S
C834 O861 1.393 . S
C835 C834 1.288 . S
C835 C836 1.369 . S
C835 H901 0.932 . S
C836 C835 1.369 . S
C836 C837 1.398 . S
C836 C840 1.527 . S
C837 C836 1.398 . S
C837 C838 1.380 . S
C837 C851 1.497 . S
C838 C837 1.380 . S
C838 C839 1.383 . S
C838 C841 1.603 . S
C839 C834 1.377 . S
C839 C838 1.383 . S
C839 H902 0.929 . S
C840 C836 1.527 . S
C840 H903 0.961 . S
C840 H904 0.959 . S
C840 H905 0.959 . S
C841 C838 1.603 . S
C841 H906 0.960 . S
C841 H907 0.962 . S
C841 H908 0.961 . S
C842 C809 1.587 . S
C842 C843 1.360 . S
C842 C855 1.412 . S
C843 C842 1.360 . S
C843 C844 1.365 . S
C843 H909 0.929 . S
C844 C819 1.553 . S
C844 C843 1.365 . S
C844 C845 1.404 . S
C845 C844 1.404 . S
C845 C846 1.395 . S
C845 C856 1.451 . S
C846 C845 1.395 . S
C846 C847 1.322 . S
C846 H910 0.930 . S
C847 C846 1.322 . S
C847 C848 1.459 . S
C847 H911 0.929 . S
C848 C847 1.459 . S
C848 C849 1.445 . S
C848 C857 1.395 . S
C849 C827 1.432 . S
C849 C848 1.445 . S
C849 C850 1.370 . S
C850 C849 1.370 . S
C850 C851 1.438 . S
C850 H912 0.930 . S
C851 C837 1.497 . S
C851 C850 1.438 . S
C851 C852 1.360 . S
C852 C851 1.360 . S
C852 C853 1.401 . S
C852 C857 1.446 . S
C853 C852 1.401 . S
C853 C854 1.347 . S
C853 H913 0.929 . S
C854 C853 1.347 . S
C854 C855 1.455 . S
C854 H914 0.930 . S
C855 C842 1.412 . S
C855 C854 1.455 . S
C855 C856 1.331 . S
C856 C845 1.451 . S
C856 C855 1.331 . S
C856 C857 1.497 . S
C857 C848 1.395 . S
C857 C852 1.446 . S
C857 C856 1.497 . S
C858 C859 1.582 . S
C858 H915 0.962 . S
C858 H916 0.959 . S
C858 H917 0.958 . S
C859 C858 1.582 . S
C859 O862 1.458 . S
C859 H888 0.980 . S
O860 C805 1.426 . S
O860 C806 1.334 . S
O861 C833 1.412 . S
O861 C834 1.393 . S
O862 C824 1.435 . S
O862 C859 1.458 . S
O863 C815 1.468 . S
O863 C816 1.408 . S
H864 C805 0.980 . S
H865 C804 0.959 . S
H866 C804 0.959 . S
H867 C804 0.960 . S
H868 C807 0.929 . S
H869 C811 0.929 . S
H870 C812 0.959 . S
H871 C812 0.961 . S
H872 C812 0.961 . S
H873 C813 0.960 . S
H874 C813 0.960 . S
H875 C813 0.961 . S
H876 C815 0.980 . S
H877 C814 0.961 . S
H878 C814 0.960 . S
H879 C814 0.959 . S
H880 C817 0.930 . S
H881 C821 0.931 . S
H882 C822 0.959 . S
H883 C822 0.961 . S
H884 C822 0.959 . S
H885 C823 0.960 . S
H886 C823 0.960 . S
H887 C823 0.960 . S
H888 C859 0.980 . S
H889 C825 0.930 . S
H890 C829 0.930 . S
H891 C830 0.961 . S
H892 C830 0.960 . S
H893 C830 0.958 . S
H894 C831 0.961 . S
H895 C831 0.960 . S
H896 C831 0.960 . S
H897 C833 0.980 . S
H898 C832 0.961 . S
H899 C832 0.961 . S
H900 C832 0.959 . S
H901 C835 0.932 . S
H902 C839 0.929 . S
H903 C840 0.961 . S
H904 C840 0.959 . S
H905 C840 0.959 . S
H906 C841 0.960 . S
H907 C841 0.962 . S
H908 C841 0.961 . S
H909 C843 0.929 . S
H910 C846 0.930 . S
H911 C847 0.929 . S
H912 C850 0.930 . S
H913 C853 0.929 . S
H914 C854 0.930 . S
H915 C858 0.962 . S
H916 C858 0.959 . S
H917 C858 0.958 . S
C918 C919 1.560 . S
C918 H979 0.959 . S
C918 H980 0.959 . S
C918 H981 0.960 . S
C919 C918 1.560 . S
C919 O974 1.426 . S
C919 H978 0.980 . S
C920 C921 1.407 . S
C920 C925 1.418 . S
C920 O974 1.334 . S
C921 C920 1.407 . S
C921 C922 1.360 . S
C921 H982 0.929 . S
C922 C921 1.360 . S
C922 C923 1.401 . S
C922 C926 1.527 . S
C923 C922 1.401 . S
C923 C924 1.405 . S
C923 C956 1.587 . S
C924 C923 1.405 . S
C924 C925 1.332 . S
C924 C927 1.496 . S
C925 C920 1.418 . S
C925 C924 1.332 . S
C925 H983 0.929 . S
C926 C922 1.527 . S
C926 H984 0.959 . S
C926 H985 0.961 . S
C926 H986 0.961 . S
C927 C924 1.496 . S
C927 H987 0.960 . S
C927 H988 0.960 . S
C927 H989 0.961 . S
C928 C929 1.517 . S
C928 H991 0.961 . S
C928 H992 0.960 . S
C928 H993 0.959 . S
C929 C928 1.517 . S
C929 O977 1.468 . S
C929 H990 0.980 . S
C930 C931 1.349 . S
C930 C935 1.367 . S
C930 O977 1.408 . S
C931 C930 1.349 . S
C931 C932 1.407 . S
C931 H994 0.930 . S
C932 C931 1.407 . S
C932 C933 1.449 . S
C932 C936 1.535 . S
C933 C932 1.449 . S
C933 C934 1.384 . S
C933 C958 1.553 . S
C934 C933 1.384 . S
C934 C935 1.364 . S
C934 C937 1.450 . S
C935 C930 1.367 . S
C935 C934 1.364 . S
C935 H995 0.931 . S
C936 C932 1.535 . S
C936 H996 0.959 . S
C936 H997 0.961 . S
C936 H998 0.959 . S
C937 C934 1.450 . S
C937 H999 0.960 . S
C937 H1000 0.960 . S
C937 H1001 0.960 . S
C938 C939 1.309 . S
C938 C943 1.304 . S
C938 O976 1.435 . S
C939 C938 1.309 . S
C939 C940 1.476 . S
C939 H1003 0.930 . S
C940 C939 1.476 . S
C940 C941 1.400 . S
C940 C944 1.567 . S
C941 C940 1.400 . S
C941 C942 1.373 . S
C941 C963 1.432 . S
C942 C941 1.373 . S
C942 C943 1.339 . S
C942 C945 1.530 . S
C943 C938 1.304 . S
C943 C942 1.339 . S
C943 H1004 0.930 . S
C944 C940 1.567 . S
C944 H1005 0.961 . S
C944 H1006 0.960 . S
C944 H1007 0.958 . S
C945 C942 1.530 . S
C945 H1008 0.961 . S
C945 H1009 0.960 . S
C945 H1010 0.960 . S
C946 C947 1.530 . S
C946 H1012 0.961 . S
C946 H1013 0.961 . S
C946 H1014 0.959 . S
C947 C946 1.530 . S
C947 O975 1.412 . S
C947 H1011 0.980 . S
C948 C949 1.288 . S
C948 C953 1.377 . S
C948 O975 1.393 . S
C949 C948 1.288 . S
C949 C950 1.369 . S
C949 H1015 0.932 . S
C950 C949 1.369 . S
C950 C951 1.398 . S
C950 C954 1.527 . S
C951 C950 1.398 . S
C951 C952 1.380 . S
C951 C965 1.497 . S
C952 C951 1.380 . S
C952 C953 1.383 . S
C952 C955 1.603 . S
C953 C948 1.377 . S
C953 C952 1.383 . S
C953 H1016 0.929 . S
C954 C950 1.527 . S
C954 H1017 0.961 . S
C954 H1018 0.959 . S
C954 H1019 0.959 . S
C955 C952 1.603 . S
C955 H1020 0.960 . S
C955 H1021 0.962 . S
C955 H1022 0.961 . S
C956 C923 1.587 . S
C956 C957 1.360 . S
C956 C969 1.412 . S
C957 C956 1.360 . S
C957 C958 1.365 . S
C957 H1023 0.929 . S
C958 C933 1.553 . S
C958 C957 1.365 . S
C958 C959 1.404 . S
C959 C958 1.404 . S
C959 C960 1.395 . S
C959 C970 1.451 . S
C960 C959 1.395 . S
C960 C961 1.322 . S
C960 H1024 0.930 . S
C961 C960 1.322 . S
C961 C962 1.459 . S
C961 H1025 0.929 . S
C962 C961 1.459 . S
C962 C963 1.445 . S
C962 C971 1.395 . S
C963 C941 1.432 . S
C963 C962 1.445 . S
C963 C964 1.370 . S
C964 C963 1.370 . S
C964 C965 1.438 . S
C964 H1026 0.930 . S
C965 C951 1.497 . S
C965 C964 1.438 . S
C965 C966 1.360 . S
C966 C965 1.360 . S
C966 C967 1.401 . S
C966 C971 1.446 . S
C967 C966 1.401 . S
C967 C968 1.347 . S
C967 H1027 0.929 . S
C968 C967 1.347 . S
C968 C969 1.455 . S
C968 H1028 0.930 . S
C969 C956 1.412 . S
C969 C968 1.455 . S
C969 C970 1.331 . S
C970 C959 1.451 . S
C970 C969 1.331 . S
C970 C971 1.497 . S
C971 C962 1.395 . S
C971 C966 1.446 . S
C971 C970 1.497 . S
C972 C973 1.582 . S
C972 H1029 0.962 . S
C972 H1030 0.959 . S
C972 H1031 0.958 . S
C973 C972 1.582 . S
C973 O976 1.458 . S
C973 H1002 0.980 . S
O974 C919 1.426 . S
O974 C920 1.334 . S
O975 C947 1.412 . S
O975 C948 1.393 . S
O976 C938 1.435 . S
O976 C973 1.458 . S
O977 C929 1.468 . S
O977 C930 1.408 . S
H978 C919 0.980 . S
H979 C918 0.959 . S
H980 C918 0.959 . S
H981 C918 0.960 . S
H982 C921 0.929 . S
H983 C925 0.929 . S
H984 C926 0.959 . S
H985 C926 0.961 . S
H986 C926 0.961 . S
H987 C927 0.960 . S
H988 C927 0.960 . S
H989 C927 0.961 . S
H990 C929 0.980 . S
H991 C928 0.961 . S
H992 C928 0.960 . S
H993 C928 0.959 . S
H994 C931 0.930 . S
H995 C935 0.931 . S
H996 C936 0.959 . S
H997 C936 0.961 . S
H998 C936 0.959 . S
H999 C937 0.960 . S
H1000 C937 0.960 . S
H1001 C937 0.960 . S
H1002 C973 0.980 . S
H1003 C939 0.930 . S
H1004 C943 0.930 . S
H1005 C944 0.961 . S
H1006 C944 0.960 . S
H1007 C944 0.958 . S
H1008 C945 0.961 . S
H1009 C945 0.960 . S
H1010 C945 0.960 . S
H1011 C947 0.980 . S
H1012 C946 0.961 . S
H1013 C946 0.961 . S
H1014 C946 0.959 . S
H1015 C949 0.932 . S
H1016 C953 0.929 . S
H1017 C954 0.961 . S
H1018 C954 0.959 . S
H1019 C954 0.959 . S
H1020 C955 0.960 . S
H1021 C955 0.962 . S
H1022 C955 0.961 . S
H1023 C957 0.929 . S
H1024 C960 0.930 . S
H1025 C961 0.929 . S
H1026 C964 0.930 . S
H1027 C967 0.929 . S
H1028 C968 0.930 . S
H1029 C972 0.962 . S
H1030 C972 0.959 . S
H1031 C972 0.958 . S
C1032 C1033 1.560 . S
C1032 H1093 0.959 . S
C1032 H1094 0.959 . S
C1032 H1095 0.960 . S
C1033 C1032 1.560 . S
C1033 O1088 1.426 . S
C1033 H1092 0.980 . S
C1034 C1035 1.407 . S
C1034 C1039 1.418 . S
C1034 O1088 1.334 . S
C1035 C1034 1.407 . S
C1035 C1036 1.360 . S
C1035 H1096 0.929 . S
C1036 C1035 1.360 . S
C1036 C1037 1.401 . S
C1036 C1040 1.527 . S
C1037 C1036 1.401 . S
C1037 C1038 1.405 . S
C1037 C1070 1.587 . S
C1038 C1037 1.405 . S
C1038 C1039 1.332 . S
C1038 C1041 1.496 . S
C1039 C1034 1.418 . S
C1039 C1038 1.332 . S
C1039 H1097 0.929 . S
C1040 C1036 1.527 . S
C1040 H1098 0.959 . S
C1040 H1099 0.961 . S
C1040 H1100 0.961 . S
C1041 C1038 1.496 . S
C1041 H1101 0.960 . S
C1041 H1102 0.960 . S
C1041 H1103 0.961 . S
C1042 C1043 1.517 . S
C1042 H1105 0.961 . S
C1042 H1106 0.960 . S
C1042 H1107 0.959 . S
C1043 C1042 1.517 . S
C1043 O1091 1.468 . S
C1043 H1104 0.980 . S
C1044 C1045 1.349 . S
C1044 C1049 1.367 . S
C1044 O1091 1.408 . S
C1045 C1044 1.349 . S
C1045 C1046 1.407 . S
C1045 H1108 0.930 . S
C1046 C1045 1.407 . S
C1046 C1047 1.449 . S
C1046 C1050 1.535 . S
C1047 C1046 1.449 . S
C1047 C1048 1.384 . S
C1047 C1072 1.553 . S
C1048 C1047 1.384 . S
C1048 C1049 1.364 . S
C1048 C1051 1.450 . S
C1049 C1044 1.367 . S
C1049 C1048 1.364 . S
C1049 H1109 0.931 . S
C1050 C1046 1.535 . S
C1050 H1110 0.959 . S
C1050 H1111 0.961 . S
C1050 H1112 0.959 . S
C1051 C1048 1.450 . S
C1051 H1113 0.960 . S
C1051 H1114 0.960 . S
C1051 H1115 0.960 . S
C1052 C1053 1.309 . S
C1052 C1057 1.304 . S
C1052 O1090 1.435 . S
C1053 C1052 1.309 . S
C1053 C1054 1.476 . S
C1053 H1117 0.930 . S
C1054 C1053 1.476 . S
C1054 C1055 1.400 . S
C1054 C1058 1.567 . S
C1055 C1054 1.400 . S
C1055 C1056 1.373 . S
C1055 C1077 1.432 . S
C1056 C1055 1.373 . S
C1056 C1057 1.339 . S
C1056 C1059 1.530 . S
C1057 C1052 1.304 . S
C1057 C1056 1.339 . S
C1057 H1118 0.930 . S
C1058 C1054 1.567 . S
C1058 H1119 0.961 . S
C1058 H1120 0.960 . S
C1058 H1121 0.958 . S
C1059 C1056 1.530 . S
C1059 H1122 0.961 . S
C1059 H1123 0.960 . S
C1059 H1124 0.960 . S
C1060 C1061 1.530 . S
C1060 H1126 0.961 . S
C1060 H1127 0.961 . S
C1060 H1128 0.959 . S
C1061 C1060 1.530 . S
C1061 O1089 1.412 . S
C1061 H1125 0.980 . S
C1062 C1063 1.288 . S
C1062 C1067 1.377 . S
C1062 O1089 1.393 . S
C1063 C1062 1.288 . S
C1063 C1064 1.369 . S
C1063 H1129 0.932 . S
C1064 C1063 1.369 . S
C1064 C1065 1.398 . S
C1064 C1068 1.527 . S
C1065 C1064 1.398 . S
C1065 C1066 1.380 . S
C1065 C1079 1.497 . S
C1066 C1065 1.380 . S
C1066 C1067 1.383 . S
C1066 C1069 1.603 . S
C1067 C1062 1.377 . S
C1067 C1066 1.383 . S
C1067 H1130 0.929 . S
C1068 C1064 1.527 . S
C1068 H1131 0.961 . S
C1068 H1132 0.959 . S
C1068 H1133 0.959 . S
C1069 C1066 1.603 . S
C1069 H1134 0.960 . S
C1069 H1135 0.962 . S
C1069 H1136 0.961 . S
C1070 C1037 1.587 . S
C1070 C1071 1.360 . S
C1070 C1083 1.412 . S
C1071 C1070 1.360 . S
C1071 C1072 1.365 . S
C1071 H1137 0.929 . S
C1072 C1047 1.553 . S
C1072 C1071 1.365 . S
C1072 C1073 1.404 . S
C1073 C1072 1.404 . S
C1073 C1074 1.395 . S
C1073 C1084 1.451 . S
C1074 C1073 1.395 . S
C1074 C1075 1.322 . S
C1074 H1138 0.930 . S
C1075 C1074 1.322 . S
C1075 C1076 1.459 . S
C1075 H1139 0.929 . S
C1076 C1075 1.459 . S
C1076 C1077 1.445 . S
C1076 C1085 1.395 . S
C1077 C1055 1.432 . S
C1077 C1076 1.445 . S
C1077 C1078 1.370 . S
C1078 C1077 1.370 . S
C1078 C1079 1.438 . S
C1078 H1140 0.930 . S
C1079 C1065 1.497 . S
C1079 C1078 1.438 . S
C1079 C1080 1.360 . S
C1080 C1079 1.360 . S
C1080 C1081 1.401 . S
C1080 C1085 1.446 . S
C1081 C1080 1.401 . S
C1081 C1082 1.347 . S
C1081 H1141 0.929 . S
C1082 C1081 1.347 . S
C1082 C1083 1.455 . S
C1082 H1142 0.930 . S
C1083 C1070 1.412 . S
C1083 C1082 1.455 . S
C1083 C1084 1.331 . S
C1084 C1073 1.451 . S
C1084 C1083 1.331 . S
C1084 C1085 1.497 . S
C1085 C1076 1.395 . S
C1085 C1080 1.446 . S
C1085 C1084 1.497 . S
C1086 C1087 1.582 . S
C1086 H1143 0.962 . S
C1086 H1144 0.959 . S
C1086 H1145 0.958 . S
C1087 C1086 1.582 . S
C1087 O1090 1.458 . S
C1087 H1116 0.980 . S
O1088 C1033 1.426 . S
O1088 C1034 1.334 . S
O1089 C1061 1.412 . S
O1089 C1062 1.393 . S
O1090 C1052 1.435 . S
O1090 C1087 1.458 . S
O1091 C1043 1.468 . S
O1091 C1044 1.408 . S
H1092 C1033 0.980 . S
H1093 C1032 0.959 . S
H1094 C1032 0.959 . S
H1095 C1032 0.960 . S
H1096 C1035 0.929 . S
H1097 C1039 0.929 . S
H1098 C1040 0.959 . S
H1099 C1040 0.961 . S
H1100 C1040 0.961 . S
H1101 C1041 0.960 . S
H1102 C1041 0.960 . S
H1103 C1041 0.961 . S
H1104 C1043 0.980 . S
H1105 C1042 0.961 . S
H1106 C1042 0.960 . S
H1107 C1042 0.959 . S
H1108 C1045 0.930 . S
H1109 C1049 0.931 . S
H1110 C1050 0.959 . S
H1111 C1050 0.961 . S
H1112 C1050 0.959 . S
H1113 C1051 0.960 . S
H1114 C1051 0.960 . S
H1115 C1051 0.960 . S
H1116 C1087 0.980 . S
H1117 C1053 0.930 . S
H1118 C1057 0.930 . S
H1119 C1058 0.961 . S
H1120 C1058 0.960 . S
H1121 C1058 0.958 . S
H1122 C1059 0.961 . S
H1123 C1059 0.960 . S
H1124 C1059 0.960 . S
H1125 C1061 0.980 . S
H1126 C1060 0.961 . S
H1127 C1060 0.961 . S
H1128 C1060 0.959 . S
H1129 C1063 0.932 . S
H1130 C1067 0.929 . S
H1131 C1068 0.961 . S
H1132 C1068 0.959 . S
H1133 C1068 0.959 . S
H1134 C1069 0.960 . S
H1135 C1069 0.962 . S
H1136 C1069 0.961 . S
H1137 C1071 0.929 . S
H1138 C1074 0.930 . S
H1139 C1075 0.929 . S
H1140 C1078 0.930 . S
H1141 C1081 0.929 . S
H1142 C1082 0.930 . S
H1143 C1086 0.962 . S
H1144 C1086 0.959 . S
H1145 C1086 0.958 . S
C1146 C1147 1.560 . S
C1146 H1207 0.959 . S
C1146 H1208 0.959 . S
C1146 H1209 0.960 . S
C1147 C1146 1.560 . S
C1147 O1202 1.426 . S
C1147 H1206 0.980 . S
C1148 C1149 1.407 . S
C1148 C1153 1.418 . S
C1148 O1202 1.334 . S
C1149 C1148 1.407 . S
C1149 C1150 1.360 . S
C1149 H1210 0.929 . S
C1150 C1149 1.360 . S
C1150 C1151 1.401 . S
C1150 C1154 1.527 . S
C1151 C1150 1.401 . S
C1151 C1152 1.405 . S
C1151 C1184 1.587 . S
C1152 C1151 1.405 . S
C1152 C1153 1.332 . S
C1152 C1155 1.496 . S
C1153 C1148 1.418 . S
C1153 C1152 1.332 . S
C1153 H1211 0.929 . S
C1154 C1150 1.527 . S
C1154 H1212 0.959 . S
C1154 H1213 0.961 . S
C1154 H1214 0.961 . S
C1155 C1152 1.496 . S
C1155 H1215 0.960 . S
C1155 H1216 0.960 . S
C1155 H1217 0.961 . S
C1156 C1157 1.517 . S
C1156 H1219 0.961 . S
C1156 H1220 0.960 . S
C1156 H1221 0.959 . S
C1157 C1156 1.517 . S
C1157 O1205 1.468 . S
C1157 H1218 0.980 . S
C1158 C1159 1.349 . S
C1158 C1163 1.367 . S
C1158 O1205 1.408 . S
C1159 C1158 1.349 . S
C1159 C1160 1.407 . S
C1159 H1222 0.930 . S
C1160 C1159 1.407 . S
C1160 C1161 1.449 . S
C1160 C1164 1.535 . S
C1161 C1160 1.449 . S
C1161 C1162 1.384 . S
C1161 C1186 1.553 . S
C1162 C1161 1.384 . S
C1162 C1163 1.364 . S
C1162 C1165 1.450 . S
C1163 C1158 1.367 . S
C1163 C1162 1.364 . S
C1163 H1223 0.931 . S
C1164 C1160 1.535 . S
C1164 H1224 0.959 . S
C1164 H1225 0.961 . S
C1164 H1226 0.959 . S
C1165 C1162 1.450 . S
C1165 H1227 0.960 . S
C1165 H1228 0.960 . S
C1165 H1229 0.960 . S
C1166 C1167 1.309 . S
C1166 C1171 1.304 . S
C1166 O1204 1.435 . S
C1167 C1166 1.309 . S
C1167 C1168 1.476 . S
C1167 H1231 0.930 . S
C1168 C1167 1.476 . S
C1168 C1169 1.400 . S
C1168 C1172 1.567 . S
C1169 C1168 1.400 . S
C1169 C1170 1.373 . S
C1169 C1191 1.432 . S
C1170 C1169 1.373 . S
C1170 C1171 1.339 . S
C1170 C1173 1.530 . S
C1171 C1166 1.304 . S
C1171 C1170 1.339 . S
C1171 H1232 0.930 . S
C1172 C1168 1.567 . S
C1172 H1233 0.961 . S
C1172 H1234 0.960 . S
C1172 H1235 0.958 . S
C1173 C1170 1.530 . S
C1173 H1236 0.961 . S
C1173 H1237 0.960 . S
C1173 H1238 0.960 . S
C1174 C1175 1.530 . S
C1174 H1240 0.961 . S
C1174 H1241 0.961 . S
C1174 H1242 0.959 . S
C1175 C1174 1.530 . S
C1175 O1203 1.412 . S
C1175 H1239 0.980 . S
C1176 C1177 1.288 . S
C1176 C1181 1.377 . S
C1176 O1203 1.393 . S
C1177 C1176 1.288 . S
C1177 C1178 1.369 . S
C1177 H1243 0.932 . S
C1178 C1177 1.369 . S
C1178 C1179 1.398 . S
C1178 C1182 1.527 . S
C1179 C1178 1.398 . S
C1179 C1180 1.380 . S
C1179 C1193 1.497 . S
C1180 C1179 1.380 . S
C1180 C1181 1.383 . S
C1180 C1183 1.603 . S
C1181 C1176 1.377 . S
C1181 C1180 1.383 . S
C1181 H1244 0.929 . S
C1182 C1178 1.527 . S
C1182 H1245 0.961 . S
C1182 H1246 0.959 . S
C1182 H1247 0.959 . S
C1183 C1180 1.603 . S
C1183 H1248 0.960 . S
C1183 H1249 0.962 . S
C1183 H1250 0.961 . S
C1184 C1151 1.587 . S
C1184 C1185 1.360 . S
C1184 C1197 1.412 . S
C1185 C1184 1.360 . S
C1185 C1186 1.365 . S
C1185 H1251 0.929 . S
C1186 C1161 1.553 . S
C1186 C1185 1.365 . S
C1186 C1187 1.404 . S
C1187 C1186 1.404 . S
C1187 C1188 1.395 . S
C1187 C1198 1.451 . S
C1188 C1187 1.395 . S
C1188 C1189 1.322 . S
C1188 H1252 0.930 . S
C1189 C1188 1.322 . S
C1189 C1190 1.459 . S
C1189 H1253 0.929 . S
C1190 C1189 1.459 . S
C1190 C1191 1.445 . S
C1190 C1199 1.395 . S
C1191 C1169 1.432 . S
C1191 C1190 1.445 . S
C1191 C1192 1.370 . S
C1192 C1191 1.370 . S
C1192 C1193 1.438 . S
C1192 H1254 0.930 . S
C1193 C1179 1.497 . S
C1193 C1192 1.438 . S
C1193 C1194 1.360 . S
C1194 C1193 1.360 . S
C1194 C1195 1.401 . S
C1194 C1199 1.446 . S
C1195 C1194 1.401 . S
C1195 C1196 1.347 . S
C1195 H1255 0.929 . S
C1196 C1195 1.347 . S
C1196 C1197 1.455 . S
C1196 H1256 0.930 . S
C1197 C1184 1.412 . S
C1197 C1196 1.455 . S
C1197 C1198 1.331 . S
C1198 C1187 1.451 . S
C1198 C1197 1.331 . S
C1198 C1199 1.497 . S
C1199 C1190 1.395 . S
C1199 C1194 1.446 . S
C1199 C1198 1.497 . S
C1200 C1201 1.582 . S
C1200 H1257 0.962 . S
C1200 H1258 0.959 . S
C1200 H1259 0.958 . S
C1201 C1200 1.582 . S
C1201 O1204 1.458 . S
C1201 H1230 0.980 . S
O1202 C1147 1.426 . S
O1202 C1148 1.334 . S
O1203 C1175 1.412 . S
O1203 C1176 1.393 . S
O1204 C1166 1.435 . S
O1204 C1201 1.458 . S
O1205 C1157 1.468 . S
O1205 C1158 1.408 . S
H1206 C1147 0.980 . S
H1207 C1146 0.959 . S
H1208 C1146 0.959 . S
H1209 C1146 0.960 . S
H1210 C1149 0.929 . S
H1211 C1153 0.929 . S
H1212 C1154 0.959 . S
H1213 C1154 0.961 . S
H1214 C1154 0.961 . S
H1215 C1155 0.960 . S
H1216 C1155 0.960 . S
H1217 C1155 0.961 . S
H1218 C1157 0.980 . S
H1219 C1156 0.961 . S
H1220 C1156 0.960 . S
H1221 C1156 0.959 . S
H1222 C1159 0.930 . S
H1223 C1163 0.931 . S
H1224 C1164 0.959 . S
H1225 C1164 0.961 . S
H1226 C1164 0.959 . S
H1227 C1165 0.960 . S
H1228 C1165 0.960 . S
H1229 C1165 0.960 . S
H1230 C1201 0.980 . S
H1231 C1167 0.930 . S
H1232 C1171 0.930 . S
H1233 C1172 0.961 . S
H1234 C1172 0.960 . S
H1235 C1172 0.958 . S
H1236 C1173 0.961 . S
H1237 C1173 0.960 . S
H1238 C1173 0.960 . S
H1239 C1175 0.980 . S
H1240 C1174 0.961 . S
H1241 C1174 0.961 . S
H1242 C1174 0.959 . S
H1243 C1177 0.932 . S
H1244 C1181 0.929 . S
H1245 C1182 0.961 . S
H1246 C1182 0.959 . S
H1247 C1182 0.959 . S
H1248 C1183 0.960 . S
H1249 C1183 0.962 . S
H1250 C1183 0.961 . S
H1251 C1185 0.929 . S
H1252 C1188 0.930 . S
H1253 C1189 0.929 . S
H1254 C1192 0.930 . S
H1255 C1195 0.929 . S
H1256 C1196 0.930 . S
H1257 C1200 0.962 . S
H1258 C1200 0.959 . S
H1259 C1200 0.958 . S
C1260 C1261 1.560 . S
C1260 H1321 0.959 . S
C1260 H1322 0.959 . S
C1260 H1323 0.960 . S
C1261 C1260 1.560 . S
C1261 O1316 1.426 . S
C1261 H1320 0.980 . S
C1262 C1263 1.407 1_455 S
C1262 C1267 1.418 . S
C1262 O1316 1.334 . S
C1263 C1262 1.407 1_655 S
C1263 C1264 1.360 . S
C1263 H1324 0.929 . S
C1264 C1263 1.360 . S
C1264 C1265 1.401 1_655 S
C1264 C1268 1.527 . S
C1265 C1264 1.401 1_455 S
C1265 C1266 1.405 . S
C1265 C1298 1.587 1_455 S
C1266 C1265 1.405 . S
C1266 C1267 1.332 . S
C1266 C1269 1.496 . S
C1267 C1262 1.418 . S
C1267 C1266 1.332 . S
C1267 H1325 0.929 . S
C1268 C1264 1.527 . S
C1268 H1326 0.959 . S
C1268 H1327 0.961 . S
C1268 H1328 0.961 . S
C1269 C1266 1.496 . S
C1269 H1329 0.960 . S
C1269 H1330 0.960 . S
C1269 H1331 0.961 . S
C1270 C1271 1.517 . S
C1270 H1333 0.961 . S
C1270 H1334 0.960 . S
C1270 H1335 0.959 . S
C1271 C1270 1.517 . S
C1271 O1319 1.468 . S
C1271 H1332 0.941 1_655 S
C1272 C1273 1.349 . S
C1272 C1277 1.367 . S
C1272 O1319 1.408 . S
C1273 C1272 1.349 . S
C1273 C1274 1.397 1_655 S
C1273 H1336 0.930 1_655 S
C1274 C1273 1.397 1_455 S
C1274 C1275 1.441 1_455 S
C1274 C1278 1.553 . S
C1275 C1274 1.441 1_655 S
C1275 C1276 1.384 . S
C1275 C1300 1.553 . S
C1276 C1275 1.384 . S
C1276 C1277 1.364 . S
C1276 C1279 1.450 . S
C1277 C1272 1.367 . S
C1277 C1276 1.364 . S
C1277 H1337 0.931 . S
C1278 C1274 1.553 . S
C1278 H1338 0.959 . S
C1278 H1339 0.961 . S
C1278 H1340 0.959 . S
C1279 C1276 1.450 . S
C1279 H1341 0.960 . S
C1279 H1342 0.960 . S
C1279 H1343 0.960 . S
C1280 C1281 1.309 . S
C1280 C1285 1.304 . S
C1280 O1318 1.435 . S
C1281 C1280 1.309 . S
C1281 C1282 1.489 . S
C1281 H1345 0.930 1_655 S
C1282 C1281 1.489 . S
C1282 C1283 1.407 . S
C1282 C1286 1.547 1_655 S
C1283 C1282 1.407 . S
C1283 C1284 1.373 . S
C1283 C1305 1.432 . S
C1284 C1283 1.373 . S
C1284 C1285 1.339 . S
C1284 C1287 1.530 . S
C1285 C1280 1.304 . S
C1285 C1284 1.339 . S
C1285 H1346 0.930 . S
C1286 C1282 1.547 1_455 S
C1286 H1347 0.961 . S
C1286 H1348 0.960 . S
C1286 H1349 0.958 . S
C1287 C1284 1.530 . S
C1287 H1350 0.961 . S
C1287 H1351 0.960 . S
C1287 H1352 0.960 . S
C1288 C1289 1.530 . S
C1288 H1354 0.961 . S
C1288 H1355 0.961 . S
C1288 H1356 0.959 . S
C1289 C1288 1.530 . S
C1289 O1317 1.412 . S
C1289 H1353 0.980 1_455 S
C1290 C1291 1.288 . S
C1290 C1295 1.377 1_455 S
C1290 O1317 1.393 . S
C1291 C1290 1.288 . S
C1291 C1292 1.369 . S
C1291 H1357 0.932 . S
C1292 C1291 1.369 . S
C1292 C1293 1.398 1_455 S
C1292 C1296 1.527 . S
C1293 C1292 1.398 1_655 S
C1293 C1294 1.380 . S
C1293 C1307 1.497 . S
C1294 C1293 1.380 . S
C1294 C1295 1.383 . S
C1294 C1297 1.603 . S
C1295 C1290 1.377 1_655 S
C1295 C1294 1.383 . S
C1295 H1358 0.929 . S
C1296 C1292 1.527 . S
C1296 H1359 0.961 . S
C1296 H1360 0.959 . S
C1296 H1361 0.959 . S
C1297 C1294 1.603 . S
C1297 H1362 0.960 . S
C1297 H1363 0.962 . S
C1297 H1364 0.961 . S
C1298 C1265 1.587 1_655 S
C1298 C1299 1.360 . S
C1298 C1311 1.412 . S
C1299 C1298 1.360 . S
C1299 C1300 1.365 . S
C1299 H1365 0.929 . S
C1300 C1275 1.553 . S
C1300 C1299 1.365 . S
C1300 C1301 1.404 . S
C1301 C1300 1.404 . S
C1301 C1302 1.395 . S
C1301 C1312 1.451 . S
C1302 C1301 1.395 . S
C1302 C1303 1.322 . S
C1302 H1366 0.930 . S
C1303 C1302 1.322 . S
C1303 C1304 1.459 . S
C1303 H1367 0.929 . S
C1304 C1303 1.459 . S
C1304 C1305 1.445 . S
C1304 C1313 1.395 . S
C1305 C1283 1.432 . S
C1305 C1304 1.445 . S
C1305 C1306 1.370 . S
C1306 C1305 1.370 . S
C1306 C1307 1.438 . S
C1306 H1368 0.930 . S
C1307 C1293 1.497 . S
C1307 C1306 1.438 . S
C1307 C1308 1.360 . S
C1308 C1307 1.360 . S
C1308 C1309 1.401 . S
C1308 C1313 1.446 . S
C1309 C1308 1.401 . S
C1309 C1310 1.347 . S
C1309 H1369 0.972 . S
C1310 C1309 1.347 . S
C1310 C1311 1.455 . S
C1310 H1370 0.970 . S
C1311 C1298 1.412 . S
C1311 C1310 1.455 . S
C1311 C1312 1.331 . S
C1312 C1301 1.451 . S
C1312 C1311 1.331 . S
C1312 C1313 1.497 . S
C1313 C1304 1.395 . S
C1313 C1308 1.446 . S
C1313 C1312 1.497 . S
C1314 C1315 1.582 . S
C1314 H1371 0.962 . S
C1314 H1372 0.959 . S
C1314 H1373 0.958 . S
C1315 C1314 1.582 . S
C1315 O1318 1.458 . S
C1315 H1344 0.980 . S
O1316 C1261 1.426 . S
O1316 C1262 1.334 . S
O1317 C1289 1.412 . S
O1317 C1290 1.393 . S
O1318 C1280 1.435 . S
O1318 C1315 1.458 . S
O1319 C1271 1.468 . S
O1319 C1272 1.408 . S
H1320 C1261 0.980 . S
H1321 C1260 0.959 . S
H1322 C1260 0.959 . S
H1323 C1260 0.960 . S
H1324 C1263 0.929 . S
H1325 C1267 0.929 . S
H1326 C1268 0.959 . S
H1327 C1268 0.961 . S
H1328 C1268 0.961 . S
H1329 C1269 0.960 . S
H1330 C1269 0.960 . S
H1331 C1269 0.961 . S
H1332 C1271 0.941 1_455 S
H1333 C1270 0.961 . S
H1334 C1270 0.960 . S
H1335 C1270 0.959 . S
H1336 C1273 0.930 1_455 S
H1337 C1277 0.931 . S
H1338 C1278 0.959 . S
H1339 C1278 0.961 . S
H1340 C1278 0.959 . S
H1341 C1279 0.960 . S
H1342 C1279 0.960 . S
H1343 C1279 0.960 . S
H1344 C1315 0.980 . S
H1345 C1281 0.930 1_455 S
H1346 C1285 0.930 . S
H1347 C1286 0.961 . S
H1348 C1286 0.960 . S
H1349 C1286 0.958 . S
H1350 C1287 0.961 . S
H1351 C1287 0.960 . S
H1352 C1287 0.960 . S
H1353 C1289 0.980 1_655 S
H1354 C1288 0.961 . S
H1355 C1288 0.961 . S
H1356 C1288 0.959 . S
H1357 C1291 0.932 . S
H1358 C1295 0.929 . S
H1359 C1296 0.961 . S
H1360 C1296 0.959 . S
H1361 C1296 0.959 . S
H1362 C1297 0.960 . S
H1363 C1297 0.962 . S
H1364 C1297 0.961 . S
H1365 C1299 0.929 . S
H1366 C1302 0.930 . S
H1367 C1303 0.929 . S
H1368 C1306 0.930 . S
H1369 C1309 0.972 . S
H1370 C1310 0.970 . S
H1371 C1314 0.962 . S
H1372 C1314 0.959 . S
H1373 C1314 0.958 . S
C1374 C1375 1.560 . S
C1374 H1435 0.959 . S
C1374 H1436 0.959 . S
C1374 H1437 0.960 . S
C1375 C1374 1.560 . S
C1375 O1430 1.426 . S
C1375 H1434 0.980 . S
C1376 C1377 1.407 . S
C1376 C1381 1.418 . S
C1376 O1430 1.334 . S
C1377 C1376 1.407 . S
C1377 C1378 1.360 . S
C1377 H1438 0.929 . S
C1378 C1377 1.360 . S
C1378 C1379 1.401 . S
C1378 C1382 1.527 . S
C1379 C1378 1.401 . S
C1379 C1380 1.405 . S
C1379 C1412 1.587 . S
C1380 C1379 1.405 . S
C1380 C1381 1.332 . S
C1380 C1383 1.496 . S
C1381 C1376 1.418 . S
C1381 C1380 1.332 . S
C1381 H1439 0.929 . S
C1382 C1378 1.527 . S
C1382 H1440 0.959 . S
C1382 H1441 0.961 . S
C1382 H1442 0.961 . S
C1383 C1380 1.496 . S
C1383 H1443 0.960 . S
C1383 H1444 0.960 . S
C1383 H1445 0.961 . S
C1384 C1385 1.517 . S
C1384 H1447 0.961 . S
C1384 H1448 0.960 . S
C1384 H1449 0.959 . S
C1385 C1384 1.517 . S
C1385 O1433 1.468 . S
C1385 H1446 0.980 . S
C1386 C1387 1.349 . S
C1386 C1391 1.367 . S
C1386 O1433 1.408 . S
C1387 C1386 1.349 . S
C1387 C1388 1.407 . S
C1387 H1450 0.930 . S
C1388 C1387 1.407 . S
C1388 C1389 1.449 . S
C1388 C1392 1.535 . S
C1389 C1388 1.449 . S
C1389 C1390 1.384 . S
C1389 C1414 1.553 . S
C1390 C1389 1.384 . S
C1390 C1391 1.364 . S
C1390 C1393 1.450 . S
C1391 C1386 1.367 . S
C1391 C1390 1.364 . S
C1391 H1451 0.931 . S
C1392 C1388 1.535 . S
C1392 H1452 0.959 . S
C1392 H1453 0.961 . S
C1392 H1454 0.959 . S
C1393 C1390 1.450 . S
C1393 H1455 0.960 . S
C1393 H1456 0.960 . S
C1393 H1457 0.960 . S
C1394 C1395 1.309 . S
C1394 C1399 1.304 . S
C1394 O1432 1.435 . S
C1395 C1394 1.309 . S
C1395 C1396 1.476 . S
C1395 H1459 0.930 . S
C1396 C1395 1.476 . S
C1396 C1397 1.400 . S
C1396 C1400 1.567 . S
C1397 C1396 1.400 . S
C1397 C1398 1.373 . S
C1397 C1419 1.432 . S
C1398 C1397 1.373 . S
C1398 C1399 1.339 . S
C1398 C1401 1.530 . S
C1399 C1394 1.304 . S
C1399 C1398 1.339 . S
C1399 H1460 0.930 . S
C1400 C1396 1.567 . S
C1400 H1461 0.961 . S
C1400 H1462 0.960 . S
C1400 H1463 0.958 . S
C1401 C1398 1.530 . S
C1401 H1464 0.961 . S
C1401 H1465 0.960 . S
C1401 H1466 0.960 . S
C1402 C1403 1.530 . S
C1402 H1468 0.961 . S
C1402 H1469 0.961 . S
C1402 H1470 0.959 . S
C1403 C1402 1.530 . S
C1403 O1431 1.412 . S
C1403 H1467 0.980 . S
C1404 C1405 1.288 . S
C1404 C1409 1.377 . S
C1404 O1431 1.393 . S
C1405 C1404 1.288 . S
C1405 C1406 1.369 . S
C1405 H1471 0.932 . S
C1406 C1405 1.369 . S
C1406 C1407 1.398 . S
C1406 C1410 1.527 . S
C1407 C1406 1.398 . S
C1407 C1408 1.380 . S
C1407 C1421 1.497 . S
C1408 C1407 1.380 . S
C1408 C1409 1.383 . S
C1408 C1411 1.603 . S
C1409 C1404 1.377 . S
C1409 C1408 1.383 . S
C1409 H1472 0.929 . S
C1410 C1406 1.527 . S
C1410 H1473 0.961 . S
C1410 H1474 0.959 . S
C1410 H1475 0.959 . S
C1411 C1408 1.603 . S
C1411 H1476 0.960 . S
C1411 H1477 0.962 . S
C1411 H1478 0.961 . S
C1412 C1379 1.587 . S
C1412 C1413 1.360 . S
C1412 C1425 1.412 . S
C1413 C1412 1.360 . S
C1413 C1414 1.365 . S
C1413 H1479 0.929 . S
C1414 C1389 1.553 . S
C1414 C1413 1.365 . S
C1414 C1415 1.404 . S
C1415 C1414 1.404 . S
C1415 C1416 1.395 . S
C1415 C1426 1.451 . S
C1416 C1415 1.395 . S
C1416 C1417 1.322 . S
C1416 H1480 0.930 . S
C1417 C1416 1.322 . S
C1417 C1418 1.459 . S
C1417 H1481 0.929 . S
C1418 C1417 1.459 . S
C1418 C1419 1.445 . S
C1418 C1427 1.395 . S
C1419 C1397 1.432 . S
C1419 C1418 1.445 . S
C1419 C1420 1.370 . S
C1420 C1419 1.370 . S
C1420 C1421 1.438 . S
C1420 H1482 0.930 . S
C1421 C1407 1.497 . S
C1421 C1420 1.438 . S
C1421 C1422 1.360 . S
C1422 C1421 1.360 . S
C1422 C1423 1.401 . S
C1422 C1427 1.446 . S
C1423 C1422 1.401 . S
C1423 C1424 1.347 . S
C1423 H1483 0.929 . S
C1424 C1423 1.347 . S
C1424 C1425 1.455 . S
C1424 H1484 0.930 . S
C1425 C1412 1.412 . S
C1425 C1424 1.455 . S
C1425 C1426 1.331 . S
C1426 C1415 1.451 . S
C1426 C1425 1.331 . S
C1426 C1427 1.497 . S
C1427 C1418 1.395 . S
C1427 C1422 1.446 . S
C1427 C1426 1.497 . S
C1428 C1429 1.582 . S
C1428 H1485 0.962 . S
C1428 H1486 0.959 . S
C1428 H1487 0.958 . S
C1429 C1428 1.582 . S
C1429 O1432 1.458 . S
C1429 H1458 0.980 . S
O1430 C1375 1.426 . S
O1430 C1376 1.334 . S
O1431 C1403 1.412 . S
O1431 C1404 1.393 . S
O1432 C1394 1.435 . S
O1432 C1429 1.458 . S
O1433 C1385 1.468 . S
O1433 C1386 1.408 . S
H1434 C1375 0.980 . S
H1435 C1374 0.959 . S
H1436 C1374 0.959 . S
H1437 C1374 0.960 . S
H1438 C1377 0.929 . S
H1439 C1381 0.929 . S
H1440 C1382 0.959 . S
H1441 C1382 0.961 . S
H1442 C1382 0.961 . S
H1443 C1383 0.960 . S
H1444 C1383 0.960 . S
H1445 C1383 0.961 . S
H1446 C1385 0.980 . S
H1447 C1384 0.961 . S
H1448 C1384 0.960 . S
H1449 C1384 0.959 . S
H1450 C1387 0.930 . S
H1451 C1391 0.931 . S
H1452 C1392 0.959 . S
H1453 C1392 0.961 . S
H1454 C1392 0.959 . S
H1455 C1393 0.960 . S
H1456 C1393 0.960 . S
H1457 C1393 0.960 . S
H1458 C1429 0.980 . S
H1459 C1395 0.930 . S
H1460 C1399 0.930 . S
H1461 C1400 0.961 . S
H1462 C1400 0.960 . S
H1463 C1400 0.958 . S
H1464 C1401 0.961 . S
H1465 C1401 0.960 . S
H1466 C1401 0.960 . S
H1467 C1403 0.980 . S
H1468 C1402 0.961 . S
H1469 C1402 0.961 . S
H1470 C1402 0.959 . S
H1471 C1405 0.932 . S
H1472 C1409 0.929 . S
H1473 C1410 0.961 . S
H1474 C1410 0.959 . S
H1475 C1410 0.959 . S
H1476 C1411 0.960 . S
H1477 C1411 0.962 . S
H1478 C1411 0.961 . S
H1479 C1413 0.929 . S
H1480 C1416 0.930 . S
H1481 C1417 0.929 . S
H1482 C1420 0.930 . S
H1483 C1423 0.929 . S
H1484 C1424 0.930 . S
H1485 C1428 0.962 . S
H1486 C1428 0.959 . S
H1487 C1428 0.958 . S
C1488 C1489 1.560 . S
C1488 H1549 0.959 . S
C1488 H1550 0.959 . S
C1488 H1551 0.960 . S
C1489 C1488 1.560 . S
C1489 O1544 1.426 . S
C1489 H1548 0.980 . S
C1490 C1491 1.407 1_565 S
C1490 C1495 1.418 . S
C1490 O1544 1.334 . S
C1491 C1490 1.407 1_545 S
C1491 C1492 1.360 . S
C1491 H1552 0.929 . S
C1492 C1491 1.360 . S
C1492 C1493 1.401 1_545 S
C1492 C1496 1.527 . S
C1493 C1492 1.401 1_565 S
C1493 C1494 1.405 . S
C1493 C1526 1.587 1_565 S
C1494 C1493 1.405 . S
C1494 C1495 1.332 . S
C1494 C1497 1.496 . S
C1495 C1490 1.418 . S
C1495 C1494 1.332 . S
C1495 H1553 0.929 . S
C1496 C1492 1.527 . S
C1496 H1554 0.959 . S
C1496 H1555 0.961 . S
C1496 H1556 0.961 . S
C1497 C1494 1.496 . S
C1497 H1557 0.960 . S
C1497 H1558 0.960 . S
C1497 H1559 0.961 . S
C1498 C1499 1.517 . S
C1498 H1561 0.961 1_545 S
C1498 H1562 0.960 . S
C1498 H1563 0.959 . S
C1499 C1498 1.517 . S
C1499 O1547 1.468 . S
C1499 H1560 0.980 1_545 S
C1500 C1501 1.331 1_545 S
C1500 C1505 1.367 . S
C1500 O1547 1.408 . S
C1501 C1500 1.331 1_565 S
C1501 C1502 1.395 . S
C1501 H1564 0.963 . S
C1502 C1501 1.395 . S
C1502 C1503 1.449 1_565 S
C1502 C1506 1.535 . S
C1503 C1502 1.449 1_545 S
C1503 C1504 1.384 . S
C1503 C1528 1.553 . S
C1504 C1503 1.384 . S
C1504 C1505 1.364 . S
C1504 C1507 1.450 . S
C1505 C1500 1.367 . S
C1505 C1504 1.364 . S
C1505 H1565 0.931 . S
C1506 C1502 1.535 . S
C1506 H1566 0.959 . S
C1506 H1567 0.961 . S
C1506 H1568 0.959 . S
C1507 C1504 1.450 . S
C1507 H1569 0.960 . S
C1507 H1570 0.960 . S
C1507 H1571 0.960 . S
C1508 C1509 1.309 . S
C1508 C1513 1.304 . S
C1508 O1546 1.435 . S
C1509 C1508 1.309 . S
C1509 C1510 1.494 1_545 S
C1509 H1573 0.930 1_545 S
C1510 C1509 1.494 1_565 S
C1510 C1511 1.346 1_565 S
C1510 C1514 1.603 . S
C1511 C1510 1.346 1_545 S
C1511 C1512 1.373 . S
C1511 C1533 1.432 . S
C1512 C1511 1.373 . S
C1512 C1513 1.339 . S
C1512 C1515 1.530 . S
C1513 C1508 1.304 . S
C1513 C1512 1.339 . S
C1513 H1574 0.930 . S
C1514 C1510 1.603 . S
C1514 H1575 0.961 . S
C1514 H1576 0.960 . S
C1514 H1577 0.958 . S
C1515 C1512 1.530 . S
C1515 H1578 0.961 . S
C1515 H1579 0.960 . S
C1515 H1580 0.960 . S
C1516 C1517 1.530 1_565 S
C1516 H1582 1.025 . S
C1516 H1583 0.961 . S
C1516 H1584 0.959 . S
C1517 C1516 1.530 1_545 S
C1517 O1545 1.412 1_545 S
C1517 H1581 0.980 . S
C1518 C1519 1.288 . S
C1518 C1523 1.377 1_565 S
C1518 O1545 1.393 . S
C1519 C1518 1.288 . S
C1519 C1520 1.369 . S
C1519 H1585 0.932 . S
C1520 C1519 1.369 . S
C1520 C1521 1.398 1_565 S
C1520 C1524 1.527 . S
C1521 C1520 1.398 1_545 S
C1521 C1522 1.380 . S
C1521 C1535 1.497 . S
C1522 C1521 1.380 . S
C1522 C1523 1.383 . S
C1522 C1525 1.603 . S
C1523 C1518 1.377 1_545 S
C1523 C1522 1.383 . S
C1523 H1586 0.929 . S
C1524 C1520 1.527 . S
C1524 H1587 0.961 . S
C1524 H1588 0.959 . S
C1524 H1589 0.959 . S
C1525 C1522 1.603 . S
C1525 H1590 0.960 . S
C1525 H1591 0.962 . S
C1525 H1592 0.961 . S
C1526 C1493 1.587 1_545 S
C1526 C1527 1.360 . S
C1526 C1539 1.412 . S
C1527 C1526 1.360 . S
C1527 C1528 1.365 . S
C1527 H1593 0.929 . S
C1528 C1503 1.553 . S
C1528 C1527 1.365 . S
C1528 C1529 1.404 . S
C1529 C1528 1.404 . S
C1529 C1530 1.395 . S
C1529 C1540 1.451 . S
C1530 C1529 1.395 . S
C1530 C1531 1.322 . S
C1530 H1594 0.930 . S
C1531 C1530 1.322 . S
C1531 C1532 1.459 . S
C1531 H1595 0.929 . S
C1532 C1531 1.459 . S
C1532 C1533 1.445 . S
C1532 C1541 1.395 . S
C1533 C1511 1.432 . S
C1533 C1532 1.445 . S
C1533 C1534 1.370 . S
C1534 C1533 1.370 . S
C1534 C1535 1.438 . S
C1534 H1596 0.930 . S
C1535 C1521 1.497 . S
C1535 C1534 1.438 . S
C1535 C1536 1.360 . S
C1536 C1535 1.360 . S
C1536 C1537 1.401 . S
C1536 C1541 1.446 . S
C1537 C1536 1.401 . S
C1537 C1538 1.347 . S
C1537 H1597 0.929 . S
C1538 C1537 1.347 . S
C1538 C1539 1.455 . S
C1538 H1598 0.930 . S
C1539 C1526 1.412 . S
C1539 C1538 1.455 . S
C1539 C1540 1.331 . S
C1540 C1529 1.451 . S
C1540 C1539 1.331 . S
C1540 C1541 1.497 . S
C1541 C1532 1.395 . S
C1541 C1536 1.446 . S
C1541 C1540 1.497 . S
C1542 C1543 1.582 . S
C1542 H1599 0.962 . S
C1542 H1600 0.959 . S
C1542 H1601 0.958 . S
C1543 C1542 1.582 . S
C1543 O1546 1.458 . S
C1543 H1572 0.980 . S
O1544 C1489 1.426 . S
O1544 C1490 1.334 . S
O1545 C1517 1.412 1_565 S
O1545 C1518 1.393 . S
O1546 C1508 1.435 . S
O1546 C1543 1.458 . S
O1547 C1499 1.468 . S
O1547 C1500 1.408 . S
H1548 C1489 0.980 . S
H1549 C1488 0.959 . S
H1550 C1488 0.959 . S
H1551 C1488 0.960 . S
H1552 C1491 0.929 . S
H1553 C1495 0.929 . S
H1554 C1496 0.959 . S
H1555 C1496 0.961 . S
H1556 C1496 0.961 . S
H1557 C1497 0.960 . S
H1558 C1497 0.960 . S
H1559 C1497 0.961 . S
H1560 C1499 0.980 1_565 S
H1561 C1498 0.961 1_565 S
H1562 C1498 0.960 . S
H1563 C1498 0.959 . S
H1564 C1501 0.963 . S
H1565 C1505 0.931 . S
H1566 C1506 0.959 . S
H1567 C1506 0.961 . S
H1568 C1506 0.959 . S
H1569 C1507 0.960 . S
H1570 C1507 0.960 . S
H1571 C1507 0.960 . S
H1572 C1543 0.980 . S
H1573 C1509 0.930 1_565 S
H1574 C1513 0.930 . S
H1575 C1514 0.961 . S
H1576 C1514 0.960 . S
H1577 C1514 0.958 . S
H1578 C1515 0.961 . S
H1579 C1515 0.960 . S
H1580 C1515 0.960 . S
H1581 C1517 0.980 . S
H1582 C1516 1.025 . S
H1583 C1516 0.961 . S
H1584 C1516 0.959 . S
H1585 C1519 0.932 . S
H1586 C1523 0.929 . S
H1587 C1524 0.961 . S
H1588 C1524 0.959 . S
H1589 C1524 0.959 . S
H1590 C1525 0.960 . S
H1591 C1525 0.962 . S
H1592 C1525 0.961 . S
H1593 C1527 0.929 . S
H1594 C1530 0.930 . S
H1595 C1531 0.929 . S
H1596 C1534 0.930 . S
H1597 C1537 0.929 . S
H1598 C1538 0.930 . S
H1599 C1542 0.962 . S
H1600 C1542 0.959 . S
H1601 C1542 0.958 . S
C1602 C1603 1.560 . S
C1602 H1663 0.959 . S
C1602 H1664 0.959 . S
C1602 H1665 0.960 . S
C1603 C1602 1.560 . S
C1603 O1658 1.426 . S
C1603 H1662 0.980 1_565 S
C1604 C1605 1.407 1_565 S
C1604 C1609 1.418 . S
C1604 O1658 1.334 . S
C1605 C1604 1.407 1_545 S
C1605 C1606 1.360 . S
C1605 H1666 0.929 . S
C1606 C1605 1.360 . S
C1606 C1607 1.401 . S
C1606 C1610 1.527 . S
C1607 C1606 1.401 . S
C1607 C1608 1.405 1_545 S
C1607 C1640 1.587 . S
C1608 C1607 1.405 1_565 S
C1608 C1609 1.332 . S
C1608 C1611 1.496 . S
C1609 C1604 1.418 . S
C1609 C1608 1.332 . S
C1609 H1667 0.929 . S
C1610 C1606 1.527 . S
C1610 H1668 0.959 . S
C1610 H1669 0.961 . S
C1610 H1670 0.961 . S
C1611 C1608 1.496 . S
C1611 H1671 0.960 . S
C1611 H1672 0.960 . S
C1611 H1673 0.961 . S
C1612 C1613 1.517 . S
C1612 H1675 0.961 . S
C1612 H1676 0.960 . S
C1612 H1677 0.959 . S
C1613 C1612 1.517 . S
C1613 O1661 1.468 . S
C1613 H1674 0.980 . S
C1614 C1615 1.349 . S
C1614 C1619 1.367 . S
C1614 O1661 1.408 . S
C1615 C1614 1.349 . S
C1615 C1616 1.407 . S
C1615 H1678 0.944 . S
C1616 C1615 1.407 . S
C1616 C1617 1.449 . S
C1616 C1620 1.535 1_545 S
C1617 C1616 1.449 . S
C1617 C1618 1.384 . S
C1617 C1642 1.553 . S
C1618 C1617 1.384 . S
C1618 C1619 1.364 . S
C1618 C1621 1.450 . S
C1619 C1614 1.367 . S
C1619 C1618 1.364 . S
C1619 H1679 0.931 . S
C1620 C1616 1.535 1_565 S
C1620 H1680 0.959 . S
C1620 H1681 0.961 . S
C1620 H1682 0.959 . S
C1621 C1618 1.450 . S
C1621 H1683 0.960 . S
C1621 H1684 0.960 . S
C1621 H1685 0.960 . S
C1622 C1623 1.309 1_545 S
C1622 C1627 1.304 . S
C1622 O1660 1.435 . S
C1623 C1622 1.309 1_565 S
C1623 C1624 1.476 . S
C1623 H1687 0.930 . S
C1624 C1623 1.476 . S
C1624 C1625 1.400 1_565 S
C1624 C1628 1.567 . S
C1625 C1624 1.400 1_545 S
C1625 C1626 1.373 . S
C1625 C1647 1.432 . S
C1626 C1625 1.373 . S
C1626 C1627 1.339 . S
C1626 C1629 1.530 . S
C1627 C1622 1.304 . S
C1627 C1626 1.339 . S
C1627 H1688 0.930 . S
C1628 C1624 1.567 . S
C1628 H1689 0.961 . S
C1628 H1690 0.960 . S
C1628 H1691 0.958 . S
C1629 C1626 1.530 . S
C1629 H1692 0.961 . S
C1629 H1693 0.960 . S
C1629 H1694 0.960 . S
C1630 C1631 1.530 . S
C1630 H1696 0.961 . S
C1630 H1697 0.961 . S
C1630 H1698 0.959 . S
C1631 C1630 1.530 . S
C1631 O1659 1.412 . S
C1631 H1695 0.980 . S
C1632 C1633 1.288 . S
C1632 C1637 1.377 1_565 S
C1632 O1659 1.393 . S
C1633 C1632 1.288 . S
C1633 C1634 1.369 . S
C1633 H1699 0.932 . S
C1634 C1633 1.369 . S
C1634 C1635 1.398 . S
C1634 C1638 1.527 . S
C1635 C1634 1.398 . S
C1635 C1636 1.380 1_565 S
C1635 C1649 1.497 1_565 S
C1636 C1635 1.380 1_545 S
C1636 C1637 1.383 . S
C1636 C1639 1.603 . S
C1637 C1632 1.377 1_545 S
C1637 C1636 1.383 . S
C1637 H1700 0.929 . S
C1638 C1634 1.527 . S
C1638 H1701 0.961 . S
C1638 H1702 0.959 . S
C1638 H1703 0.959 . S
C1639 C1636 1.603 . S
C1639 H1704 0.960 . S
C1639 H1705 0.962 . S
C1639 H1706 0.961 . S
C1640 C1607 1.587 . S
C1640 C1641 1.360 . S
C1640 C1653 1.412 . S
C1641 C1640 1.360 . S
C1641 C1642 1.365 . S
C1641 H1707 0.929 . S
C1642 C1617 1.553 . S
C1642 C1641 1.365 . S
C1642 C1643 1.404 . S
C1643 C1642 1.404 . S
C1643 C1644 1.395 . S
C1643 C1654 1.451 . S
C1644 C1643 1.395 . S
C1644 C1645 1.322 . S
C1644 H1708 0.930 . S
C1645 C1644 1.322 . S
C1645 C1646 1.459 . S
C1645 H1709 0.929 . S
C1646 C1645 1.459 . S
C1646 C1647 1.445 . S
C1646 C1655 1.395 . S
C1647 C1625 1.432 . S
C1647 C1646 1.445 . S
C1647 C1648 1.370 . S
C1648 C1647 1.370 . S
C1648 C1649 1.438 . S
C1648 H1710 0.930 . S
C1649 C1635 1.497 1_545 S
C1649 C1648 1.438 . S
C1649 C1650 1.360 . S
C1650 C1649 1.360 . S
C1650 C1651 1.401 . S
C1650 C1655 1.446 . S
C1651 C1650 1.401 . S
C1651 C1652 1.347 . S
C1651 H1711 0.936 . S
C1652 C1651 1.347 . S
C1652 C1653 1.455 . S
C1652 H1712 0.930 . S
C1653 C1640 1.412 . S
C1653 C1652 1.455 . S
C1653 C1654 1.331 . S
C1654 C1643 1.451 . S
C1654 C1653 1.331 . S
C1654 C1655 1.497 . S
C1655 C1646 1.395 . S
C1655 C1650 1.446 . S
C1655 C1654 1.497 . S
C1656 C1657 1.582 . S
C1656 H1713 0.962 . S
C1656 H1714 0.959 . S
C1656 H1715 0.958 . S
C1657 C1656 1.582 . S
C1657 O1660 1.458 . S
C1657 H1686 0.984 1_545 S
O1658 C1603 1.426 . S
O1658 C1604 1.334 . S
O1659 C1631 1.412 . S
O1659 C1632 1.393 . S
O1660 C1622 1.435 . S
O1660 C1657 1.458 . S
O1661 C1613 1.468 . S
O1661 C1614 1.408 . S
H1662 C1603 0.980 1_545 S
H1663 C1602 0.959 . S
H1664 C1602 0.959 . S
H1665 C1602 0.960 . S
H1666 C1605 0.929 . S
H1667 C1609 0.929 . S
H1668 C1610 0.959 . S
H1669 C1610 0.961 . S
H1670 C1610 0.961 . S
H1671 C1611 0.960 . S
H1672 C1611 0.960 . S
H1673 C1611 0.961 . S
H1674 C1613 0.980 . S
H1675 C1612 0.961 . S
H1676 C1612 0.960 . S
H1677 C1612 0.959 . S
H1678 C1615 0.944 . S
H1679 C1619 0.931 . S
H1680 C1620 0.959 . S
H1681 C1620 0.961 . S
H1682 C1620 0.959 . S
H1683 C1621 0.960 . S
H1684 C1621 0.960 . S
H1685 C1621 0.960 . S
H1686 C1657 0.984 1_565 S
H1687 C1623 0.930 . S
H1688 C1627 0.930 . S
H1689 C1628 0.961 . S
H1690 C1628 0.960 . S
H1691 C1628 0.958 . S
H1692 C1629 0.961 . S
H1693 C1629 0.960 . S
H1694 C1629 0.960 . S
H1695 C1631 0.980 . S
H1696 C1630 0.961 . S
H1697 C1630 0.961 . S
H1698 C1630 0.959 . S
H1699 C1633 0.932 . S
H1700 C1637 0.929 . S
H1701 C1638 0.961 . S
H1702 C1638 0.959 . S
H1703 C1638 0.959 . S
H1704 C1639 0.960 . S
H1705 C1639 0.962 . S
H1706 C1639 0.961 . S
H1707 C1641 0.929 . S
H1708 C1644 0.930 . S
H1709 C1645 0.929 . S
H1710 C1648 0.930 . S
H1711 C1651 0.936 . S
H1712 C1652 0.930 . S
H1713 C1656 0.962 . S
H1714 C1656 0.959 . S
H1715 C1656 0.958 . S
C1716 C1717 1.564 . S
C1716 H1777 0.959 . S
C1716 H1778 0.959 . S
C1716 H1779 0.960 . S
C1717 C1716 1.564 . S
C1717 O1772 1.434 . S
C1717 H1776 0.978 1_455 S
C1718 C1719 1.407 1_455 S
C1718 C1723 1.418 . S
C1718 O1772 1.334 . S
C1719 C1718 1.407 1_655 S
C1719 C1720 1.360 . S
C1719 H1780 0.929 . S
C1720 C1719 1.360 . S
C1720 C1721 1.401 . S
C1720 C1724 1.527 . S
C1721 C1720 1.401 . S
C1721 C1722 1.405 1_655 S
C1721 C1754 1.587 . S
C1722 C1721 1.405 1_455 S
C1722 C1723 1.332 . S
C1722 C1725 1.496 . S
C1723 C1718 1.418 . S
C1723 C1722 1.332 . S
C1723 H1781 0.929 . S
C1724 C1720 1.527 . S
C1724 H1782 0.959 . S
C1724 H1783 0.961 . S
C1724 H1784 0.961 . S
C1725 C1722 1.496 . S
C1725 H1785 0.960 . S
C1725 H1786 0.960 . S
C1725 H1787 0.961 . S
C1726 C1727 1.517 . S
C1726 H1789 0.961 . S
C1726 H1790 0.960 . S
C1726 H1791 0.959 . S
C1727 C1726 1.517 . S
C1727 O1775 1.468 . S
C1727 H1788 0.980 . S
C1728 C1729 1.349 . S
C1728 C1733 1.367 . S
C1728 O1775 1.408 . S
C1729 C1728 1.349 . S
C1729 C1730 1.407 . S
C1729 H1792 0.865 1_655 S
C1730 C1729 1.407 . S
C1730 C1731 1.449 . S
C1730 C1734 1.535 1_655 S
C1731 C1730 1.449 . S
C1731 C1732 1.384 . S
C1731 C1756 1.553 . S
C1732 C1731 1.384 . S
C1732 C1733 1.364 . S
C1732 C1735 1.450 . S
C1733 C1728 1.367 . S
C1733 C1732 1.364 . S
C1733 H1793 0.931 . S
C1734 C1730 1.535 1_455 S
C1734 H1794 0.959 . S
C1734 H1795 0.961 . S
C1734 H1796 0.959 . S
C1735 C1732 1.450 . S
C1735 H1797 0.960 . S
C1735 H1798 0.960 . S
C1735 H1799 0.960 . S
C1736 C1737 1.309 1_655 S
C1736 C1741 1.304 . S
C1736 O1774 1.435 . S
C1737 C1736 1.309 1_455 S
C1737 C1738 1.476 . S
C1737 H1801 0.930 . S
C1738 C1737 1.476 . S
C1738 C1739 1.400 1_455 S
C1738 C1742 1.567 . S
C1739 C1738 1.400 1_655 S
C1739 C1740 1.373 . S
C1739 C1761 1.432 . S
C1740 C1739 1.373 . S
C1740 C1741 1.339 . S
C1740 C1743 1.530 . S
C1741 C1736 1.304 . S
C1741 C1740 1.339 . S
C1741 H1802 0.930 . S
C1742 C1738 1.567 . S
C1742 H1803 0.961 . S
C1742 H1804 0.960 . S
C1742 H1805 0.958 . S
C1743 C1740 1.530 . S
C1743 H1806 0.961 . S
C1743 H1807 0.960 . S
C1743 H1808 0.960 . S
C1744 C1745 1.530 . S
C1744 H1810 0.961 . S
C1744 H1811 0.961 . S
C1744 H1812 0.959 . S
C1745 C1744 1.530 . S
C1745 O1773 1.412 . S
C1745 H1809 0.980 1_455 S
C1746 C1747 1.288 . S
C1746 C1751 1.377 1_455 S
C1746 O1773 1.393 . S
C1747 C1746 1.288 . S
C1747 C1748 1.369 . S
C1747 H1813 0.932 . S
C1748 C1747 1.369 . S
C1748 C1749 1.398 . S
C1748 C1752 1.527 . S
C1749 C1748 1.398 . S
C1749 C1750 1.380 1_455 S
C1749 C1763 1.497 1_455 S
C1750 C1749 1.380 1_655 S
C1750 C1751 1.383 . S
C1750 C1753 1.603 . S
C1751 C1746 1.377 1_655 S
C1751 C1750 1.383 . S
C1751 H1814 0.929 . S
C1752 C1748 1.527 . S
C1752 H1815 0.961 . S
C1752 H1816 0.959 . S
C1752 H1817 0.959 . S
C1753 C1750 1.603 . S
C1753 H1818 0.960 . S
C1753 H1819 0.962 . S
C1753 H1820 0.961 . S
C1754 C1721 1.587 . S
C1754 C1755 1.360 . S
C1754 C1767 1.412 . S
C1755 C1754 1.360 . S
C1755 C1756 1.365 . S
C1755 H1821 0.929 . S
C1756 C1731 1.553 . S
C1756 C1755 1.365 . S
C1756 C1757 1.404 . S
C1757 C1756 1.404 . S
C1757 C1758 1.395 . S
C1757 C1768 1.451 . S
C1758 C1757 1.395 . S
C1758 C1759 1.322 . S
C1758 H1822 0.930 . S
C1759 C1758 1.322 . S
C1759 C1760 1.459 . S
C1759 H1823 0.929 . S
C1760 C1759 1.459 . S
C1760 C1761 1.445 . S
C1760 C1769 1.395 . S
C1761 C1739 1.432 . S
C1761 C1760 1.445 . S
C1761 C1762 1.370 . S
C1762 C1761 1.370 . S
C1762 C1763 1.438 . S
C1762 H1824 0.930 . S
C1763 C1749 1.497 1_655 S
C1763 C1762 1.438 . S
C1763 C1764 1.360 . S
C1764 C1763 1.360 . S
C1764 C1765 1.401 . S
C1764 C1769 1.446 . S
C1765 C1764 1.401 . S
C1765 C1766 1.347 . S
C1765 H1825 0.929 . S
C1766 C1765 1.347 . S
C1766 C1767 1.455 . S
C1766 H1826 0.930 . S
C1767 C1754 1.412 . S
C1767 C1766 1.455 . S
C1767 C1768 1.331 . S
C1768 C1757 1.451 . S
C1768 C1767 1.331 . S
C1768 C1769 1.497 . S
C1769 C1760 1.395 . S
C1769 C1764 1.446 . S
C1769 C1768 1.497 . S
C1770 C1771 1.582 1_655 S
C1770 H1827 0.962 1_655 S
C1770 H1828 0.959 . S
C1770 H1829 0.958 . S
C1771 C1770 1.582 1_455 S
C1771 O1774 1.458 1_455 S
C1771 H1800 0.980 . S
O1772 C1717 1.434 . S
O1772 C1718 1.334 . S
O1773 C1745 1.412 . S
O1773 C1746 1.393 . S
O1774 C1736 1.435 . S
O1774 C1771 1.458 1_655 S
O1775 C1727 1.468 . S
O1775 C1728 1.408 . S
H1776 C1717 0.978 1_655 S
H1777 C1716 0.959 . S
H1778 C1716 0.959 . S
H1779 C1716 0.960 . S
H1780 C1719 0.929 . S
H1781 C1723 0.929 . S
H1782 C1724 0.959 . S
H1783 C1724 0.961 . S
H1784 C1724 0.961 . S
H1785 C1725 0.960 . S
H1786 C1725 0.960 . S
H1787 C1725 0.961 . S
H1788 C1727 0.980 . S
H1789 C1726 0.961 . S
H1790 C1726 0.960 . S
H1791 C1726 0.959 . S
H1792 C1729 0.865 1_455 S
H1793 C1733 0.931 . S
H1794 C1734 0.959 . S
H1795 C1734 0.961 . S
H1796 C1734 0.959 . S
H1797 C1735 0.960 . S
H1798 C1735 0.960 . S
H1799 C1735 0.960 . S
H1800 C1771 0.980 . S
H1801 C1737 0.930 . S
H1802 C1741 0.930 . S
H1803 C1742 0.961 . S
H1804 C1742 0.960 . S
H1805 C1742 0.958 . S
H1806 C1743 0.961 . S
H1807 C1743 0.960 . S
H1808 C1743 0.960 . S
H1809 C1745 0.980 1_655 S
H1810 C1744 0.961 . S
H1811 C1744 0.961 . S
H1812 C1744 0.959 . S
H1813 C1747 0.932 . S
H1814 C1751 0.929 . S
H1815 C1752 0.961 . S
H1816 C1752 0.959 . S
H1817 C1752 0.959 . S
H1818 C1753 0.960 . S
H1819 C1753 0.962 . S
H1820 C1753 0.961 . S
H1821 C1755 0.929 . S
H1822 C1758 0.930 . S
H1823 C1759 0.929 . S
H1824 C1762 0.930 . S
H1825 C1765 0.929 . S
H1826 C1766 0.930 . S
H1827 C1770 0.962 1_455 S
H1828 C1770 0.959 . S
H1829 C1770 0.958 . S
C1830 C1831 1.560 . S
C1830 H1891 0.959 . S
C1830 H1892 0.959 . S
C1830 H1893 0.960 . S
C1831 C1830 1.560 . S
C1831 O1886 1.426 . S
C1831 H1890 0.980 . S
C1832 C1833 1.407 . S
C1832 C1837 1.418 . S
C1832 O1886 1.334 . S
C1833 C1832 1.407 . S
C1833 C1834 1.360 . S
C1833 H1894 0.929 . S
C1834 C1833 1.360 . S
C1834 C1835 1.401 . S
C1834 C1838 1.527 . S
C1835 C1834 1.401 . S
C1835 C1836 1.405 . S
C1835 C1868 1.587 . S
C1836 C1835 1.405 . S
C1836 C1837 1.332 . S
C1836 C1839 1.496 . S
C1837 C1832 1.418 . S
C1837 C1836 1.332 . S
C1837 H1895 0.929 . S
C1838 C1834 1.527 . S
C1838 H1896 0.959 . S
C1838 H1897 0.961 . S
C1838 H1898 0.961 . S
C1839 C1836 1.496 . S
C1839 H1899 0.960 . S
C1839 H1900 0.960 . S
C1839 H1901 0.961 . S
C1840 C1841 1.517 . S
C1840 H1903 0.961 . S
C1840 H1904 0.960 . S
C1840 H1905 0.959 . S
C1841 C1840 1.517 . S
C1841 O1889 1.468 . S
C1841 H1902 0.980 . S
C1842 C1843 1.349 . S
C1842 C1847 1.367 . S
C1842 O1889 1.408 . S
C1843 C1842 1.349 . S
C1843 C1844 1.407 . S
C1843 H1906 0.930 . S
C1844 C1843 1.407 . S
C1844 C1845 1.449 . S
C1844 C1848 1.535 . S
C1845 C1844 1.449 . S
C1845 C1846 1.384 . S
C1845 C1870 1.553 . S
C1846 C1845 1.384 . S
C1846 C1847 1.364 . S
C1846 C1849 1.450 . S
C1847 C1842 1.367 . S
C1847 C1846 1.364 . S
C1847 H1907 0.931 . S
C1848 C1844 1.535 . S
C1848 H1908 0.959 . S
C1848 H1909 0.961 . S
C1848 H1910 0.959 . S
C1849 C1846 1.450 . S
C1849 H1911 0.960 . S
C1849 H1912 0.960 . S
C1849 H1913 0.960 . S
C1850 C1851 1.309 . S
C1850 C1855 1.304 . S
C1850 O1888 1.435 . S
C1851 C1850 1.309 . S
C1851 C1852 1.476 . S
C1851 H1915 0.930 . S
C1852 C1851 1.476 . S
C1852 C1853 1.400 . S
C1852 C1856 1.567 . S
C1853 C1852 1.400 . S
C1853 C1854 1.373 . S
C1853 C1875 1.432 . S
C1854 C1853 1.373 . S
C1854 C1855 1.339 . S
C1854 C1857 1.530 . S
C1855 C1850 1.304 . S
C1855 C1854 1.339 . S
C1855 H1916 0.930 . S
C1856 C1852 1.567 . S
C1856 H1917 0.961 . S
C1856 H1918 0.960 . S
C1856 H1919 0.958 . S
C1857 C1854 1.530 . S
C1857 H1920 0.961 . S
C1857 H1921 0.960 . S
C1857 H1922 0.960 . S
C1858 C1859 1.530 . S
C1858 H1924 0.961 . S
C1858 H1925 0.961 . S
C1858 H1926 0.959 . S
C1859 C1858 1.530 . S
C1859 O1887 1.412 . S
C1859 H1923 0.980 . S
C1860 C1861 1.288 . S
C1860 C1865 1.377 . S
C1860 O1887 1.393 . S
C1861 C1860 1.288 . S
C1861 C1862 1.369 . S
C1861 H1927 0.932 . S
C1862 C1861 1.369 . S
C1862 C1863 1.398 . S
C1862 C1866 1.527 . S
C1863 C1862 1.398 . S
C1863 C1864 1.380 . S
C1863 C1877 1.497 . S
C1864 C1863 1.380 . S
C1864 C1865 1.383 . S
C1864 C1867 1.603 . S
C1865 C1860 1.377 . S
C1865 C1864 1.383 . S
C1865 H1928 0.929 . S
C1866 C1862 1.527 . S
C1866 H1929 0.961 . S
C1866 H1930 0.959 . S
C1866 H1931 0.959 . S
C1867 C1864 1.603 . S
C1867 H1932 0.960 . S
C1867 H1933 0.962 . S
C1867 H1934 0.961 . S
C1868 C1835 1.587 . S
C1868 C1869 1.360 . S
C1868 C1881 1.412 . S
C1869 C1868 1.360 . S
C1869 C1870 1.365 . S
C1869 H1935 0.929 . S
C1870 C1845 1.553 . S
C1870 C1869 1.365 . S
C1870 C1871 1.404 . S
C1871 C1870 1.404 . S
C1871 C1872 1.395 . S
C1871 C1882 1.451 . S
C1872 C1871 1.395 . S
C1872 C1873 1.322 . S
C1872 H1936 0.930 . S
C1873 C1872 1.322 . S
C1873 C1874 1.459 . S
C1873 H1937 0.929 . S
C1874 C1873 1.459 . S
C1874 C1875 1.445 . S
C1874 C1883 1.395 . S
C1875 C1853 1.432 . S
C1875 C1874 1.445 . S
C1875 C1876 1.370 . S
C1876 C1875 1.370 . S
C1876 C1877 1.438 . S
C1876 H1938 0.930 . S
C1877 C1863 1.497 . S
C1877 C1876 1.438 . S
C1877 C1878 1.360 . S
C1878 C1877 1.360 . S
C1878 C1879 1.401 . S
C1878 C1883 1.446 . S
C1879 C1878 1.401 . S
C1879 C1880 1.347 . S
C1879 H1939 0.929 . S
C1880 C1879 1.347 . S
C1880 C1881 1.455 . S
C1880 H1940 0.930 . S
C1881 C1868 1.412 . S
C1881 C1880 1.455 . S
C1881 C1882 1.331 . S
C1882 C1871 1.451 . S
C1882 C1881 1.331 . S
C1882 C1883 1.497 . S
C1883 C1874 1.395 . S
C1883 C1878 1.446 . S
C1883 C1882 1.497 . S
C1884 C1885 1.582 . S
C1884 H1941 0.962 . S
C1884 H1942 0.959 . S
C1884 H1943 0.958 . S
C1885 C1884 1.582 . S
C1885 O1888 1.458 . S
C1885 H1914 0.980 . S
O1886 C1831 1.426 . S
O1886 C1832 1.334 . S
O1887 C1859 1.412 . S
O1887 C1860 1.393 . S
O1888 C1850 1.435 . S
O1888 C1885 1.458 . S
O1889 C1841 1.468 . S
O1889 C1842 1.408 . S
H1890 C1831 0.980 . S
H1891 C1830 0.959 . S
H1892 C1830 0.959 . S
H1893 C1830 0.960 . S
H1894 C1833 0.929 . S
H1895 C1837 0.929 . S
H1896 C1838 0.959 . S
H1897 C1838 0.961 . S
H1898 C1838 0.961 . S
H1899 C1839 0.960 . S
H1900 C1839 0.960 . S
H1901 C1839 0.961 . S
H1902 C1841 0.980 . S
H1903 C1840 0.961 . S
H1904 C1840 0.960 . S
H1905 C1840 0.959 . S
H1906 C1843 0.930 . S
H1907 C1847 0.931 . S
H1908 C1848 0.959 . S
H1909 C1848 0.961 . S
H1910 C1848 0.959 . S
H1911 C1849 0.960 . S
H1912 C1849 0.960 . S
H1913 C1849 0.960 . S
H1914 C1885 0.980 . S
H1915 C1851 0.930 . S
H1916 C1855 0.930 . S
H1917 C1856 0.961 . S
H1918 C1856 0.960 . S
H1919 C1856 0.958 . S
H1920 C1857 0.961 . S
H1921 C1857 0.960 . S
H1922 C1857 0.960 . S
H1923 C1859 0.980 . S
H1924 C1858 0.961 . S
H1925 C1858 0.961 . S
H1926 C1858 0.959 . S
H1927 C1861 0.932 . S
H1928 C1865 0.929 . S
H1929 C1866 0.961 . S
H1930 C1866 0.959 . S
H1931 C1866 0.959 . S
H1932 C1867 0.960 . S
H1933 C1867 0.962 . S
H1934 C1867 0.961 . S
H1935 C1869 0.929 . S
H1936 C1872 0.930 . S
H1937 C1873 0.929 . S
H1938 C1876 0.930 . S
H1939 C1879 0.929 . S
H1940 C1880 0.930 . S
H1941 C1884 0.962 . S
H1942 C1884 0.959 . S
H1943 C1884 0.958 . S
C1944 C1945 1.560 . S
C1944 H2005 0.959 . S
C1944 H2006 0.959 . S
C1944 H2007 0.960 . S
C1945 C1944 1.560 . S
C1945 O2000 1.426 . S
C1945 H2004 0.980 . S
C1946 C1947 1.407 . S
C1946 C1951 1.418 . S
C1946 O2000 1.334 . S
C1947 C1946 1.407 . S
C1947 C1948 1.360 . S
C1947 H2008 0.929 . S
C1948 C1947 1.360 . S
C1948 C1949 1.401 . S
C1948 C1952 1.527 . S
C1949 C1948 1.401 . S
C1949 C1950 1.405 . S
C1949 C1982 1.587 . S
C1950 C1949 1.405 . S
C1950 C1951 1.332 . S
C1950 C1953 1.496 . S
C1951 C1946 1.418 . S
C1951 C1950 1.332 . S
C1951 H2009 0.929 . S
C1952 C1948 1.527 . S
C1952 H2010 0.959 . S
C1952 H2011 0.961 . S
C1952 H2012 0.961 . S
C1953 C1950 1.496 . S
C1953 H2013 0.960 . S
C1953 H2014 0.960 . S
C1953 H2015 0.961 . S
C1954 C1955 1.517 . S
C1954 H2017 0.961 . S
C1954 H2018 0.960 . S
C1954 H2019 0.959 . S
C1955 C1954 1.517 . S
C1955 O2003 1.468 . S
C1955 H2016 0.980 . S
C1956 C1957 1.349 . S
C1956 C1961 1.367 . S
C1956 O2003 1.408 . S
C1957 C1956 1.349 . S
C1957 C1958 1.407 . S
C1957 H2020 0.930 . S
C1958 C1957 1.407 . S
C1958 C1959 1.449 . S
C1958 C1962 1.535 . S
C1959 C1958 1.449 . S
C1959 C1960 1.384 . S
C1959 C1984 1.553 . S
C1960 C1959 1.384 . S
C1960 C1961 1.364 . S
C1960 C1963 1.450 . S
C1961 C1956 1.367 . S
C1961 C1960 1.364 . S
C1961 H2021 0.931 . S
C1962 C1958 1.535 . S
C1962 H2022 0.959 . S
C1962 H2023 0.961 . S
C1962 H2024 0.959 . S
C1963 C1960 1.450 . S
C1963 H2025 0.960 . S
C1963 H2026 0.960 . S
C1963 H2027 0.960 . S
C1964 C1965 1.309 . S
C1964 C1969 1.304 . S
C1964 O2002 1.435 . S
C1965 C1964 1.309 . S
C1965 C1966 1.476 . S
C1965 H2029 0.930 . S
C1966 C1965 1.476 . S
C1966 C1967 1.400 . S
C1966 C1970 1.567 . S
C1967 C1966 1.400 . S
C1967 C1968 1.373 . S
C1967 C1989 1.432 . S
C1968 C1967 1.373 . S
C1968 C1969 1.339 . S
C1968 C1971 1.530 . S
C1969 C1964 1.304 . S
C1969 C1968 1.339 . S
C1969 H2030 0.930 . S
C1970 C1966 1.567 . S
C1970 H2031 0.961 . S
C1970 H2032 0.960 . S
C1970 H2033 0.958 . S
C1971 C1968 1.530 . S
C1971 H2034 0.961 . S
C1971 H2035 0.960 . S
C1971 H2036 0.960 . S
C1972 C1973 1.530 . S
C1972 H2038 0.961 . S
C1972 H2039 0.961 . S
C1972 H2040 0.959 . S
C1973 C1972 1.530 . S
C1973 O2001 1.412 . S
C1973 H2037 0.980 . S
C1974 C1975 1.288 . S
C1974 C1979 1.377 . S
C1974 O2001 1.393 . S
C1975 C1974 1.288 . S
C1975 C1976 1.369 . S
C1975 H2041 0.932 . S
C1976 C1975 1.369 . S
C1976 C1977 1.398 . S
C1976 C1980 1.527 . S
C1977 C1976 1.398 . S
C1977 C1978 1.380 . S
C1977 C1991 1.497 . S
C1978 C1977 1.380 . S
C1978 C1979 1.383 . S
C1978 C1981 1.603 . S
C1979 C1974 1.377 . S
C1979 C1978 1.383 . S
C1979 H2042 0.929 . S
C1980 C1976 1.527 . S
C1980 H2043 0.961 . S
C1980 H2044 0.959 . S
C1980 H2045 0.959 . S
C1981 C1978 1.603 . S
C1981 H2046 0.960 . S
C1981 H2047 0.962 . S
C1981 H2048 0.961 . S
C1982 C1949 1.587 . S
C1982 C1983 1.360 . S
C1982 C1995 1.412 . S
C1983 C1982 1.360 . S
C1983 C1984 1.365 . S
C1983 H2049 0.929 . S
C1984 C1959 1.553 . S
C1984 C1983 1.365 . S
C1984 C1985 1.404 . S
C1985 C1984 1.404 . S
C1985 C1986 1.395 . S
C1985 C1996 1.451 . S
C1986 C1985 1.395 . S
C1986 C1987 1.322 . S
C1986 H2050 0.930 . S
C1987 C1986 1.322 . S
C1987 C1988 1.459 . S
C1987 H2051 0.929 . S
C1988 C1987 1.459 . S
C1988 C1989 1.445 . S
C1988 C1997 1.395 . S
C1989 C1967 1.432 . S
C1989 C1988 1.445 . S
C1989 C1990 1.370 . S
C1990 C1989 1.370 . S
C1990 C1991 1.438 . S
C1990 H2052 0.930 . S
C1991 C1977 1.497 . S
C1991 C1990 1.438 . S
C1991 C1992 1.360 . S
C1992 C1991 1.360 . S
C1992 C1993 1.401 . S
C1992 C1997 1.446 . S
C1993 C1992 1.401 . S
C1993 C1994 1.347 . S
C1993 H2053 0.929 . S
C1994 C1993 1.347 . S
C1994 C1995 1.455 . S
C1994 H2054 0.930 . S
C1995 C1982 1.412 . S
C1995 C1994 1.455 . S
C1995 C1996 1.331 . S
C1996 C1985 1.451 . S
C1996 C1995 1.331 . S
C1996 C1997 1.497 . S
C1997 C1988 1.395 . S
C1997 C1992 1.446 . S
C1997 C1996 1.497 . S
C1998 C1999 1.582 . S
C1998 H2055 0.962 . S
C1998 H2056 0.959 . S
C1998 H2057 0.958 . S
C1999 C1998 1.582 . S
C1999 O2002 1.458 . S
C1999 H2028 0.980 . S
O2000 C1945 1.426 . S
O2000 C1946 1.334 . S
O2001 C1973 1.412 . S
O2001 C1974 1.393 . S
O2002 C1964 1.435 . S
O2002 C1999 1.458 . S
O2003 C1955 1.468 . S
O2003 C1956 1.408 . S
H2004 C1945 0.980 . S
H2005 C1944 0.959 . S
H2006 C1944 0.959 . S
H2007 C1944 0.960 . S
H2008 C1947 0.929 . S
H2009 C1951 0.929 . S
H2010 C1952 0.959 . S
H2011 C1952 0.961 . S
H2012 C1952 0.961 . S
H2013 C1953 0.960 . S
H2014 C1953 0.960 . S
H2015 C1953 0.961 . S
H2016 C1955 0.980 . S
H2017 C1954 0.961 . S
H2018 C1954 0.960 . S
H2019 C1954 0.959 . S
H2020 C1957 0.930 . S
H2021 C1961 0.931 . S
H2022 C1962 0.959 . S
H2023 C1962 0.961 . S
H2024 C1962 0.959 . S
H2025 C1963 0.960 . S
H2026 C1963 0.960 . S
H2027 C1963 0.960 . S
H2028 C1999 0.980 . S
H2029 C1965 0.930 . S
H2030 C1969 0.930 . S
H2031 C1970 0.961 . S
H2032 C1970 0.960 . S
H2033 C1970 0.958 . S
H2034 C1971 0.961 . S
H2035 C1971 0.960 . S
H2036 C1971 0.960 . S
H2037 C1973 0.980 . S
H2038 C1972 0.961 . S
H2039 C1972 0.961 . S
H2040 C1972 0.959 . S
H2041 C1975 0.932 . S
H2042 C1979 0.929 . S
H2043 C1980 0.961 . S
H2044 C1980 0.959 . S
H2045 C1980 0.959 . S
H2046 C1981 0.960 . S
H2047 C1981 0.962 . S
H2048 C1981 0.961 . S
H2049 C1983 0.929 . S
H2050 C1986 0.930 . S
H2051 C1987 0.929 . S
H2052 C1990 0.930 . S
H2053 C1993 0.929 . S
H2054 C1994 0.930 . S
H2055 C1998 0.962 . S
H2056 C1998 0.959 . S
H2057 C1998 0.958 . S
C2058 C2059 1.560 . S
C2058 H2119 0.959 . S
C2058 H2120 0.959 . S
C2058 H2121 0.960 . S
C2059 C2058 1.560 . S
C2059 O2114 1.426 . S
C2059 H2118 0.980 . S
C2060 C2061 1.407 . S
C2060 C2065 1.418 . S
C2060 O2114 1.334 . S
C2061 C2060 1.407 . S
C2061 C2062 1.360 . S
C2061 H2122 0.929 . S
C2062 C2061 1.360 . S
C2062 C2063 1.401 . S
C2062 C2066 1.527 . S
C2063 C2062 1.401 . S
C2063 C2064 1.405 . S
C2063 C2096 1.587 . S
C2064 C2063 1.405 . S
C2064 C2065 1.332 . S
C2064 C2067 1.496 . S
C2065 C2060 1.418 . S
C2065 C2064 1.332 . S
C2065 H2123 0.929 . S
C2066 C2062 1.527 . S
C2066 H2124 0.959 . S
C2066 H2125 0.961 . S
C2066 H2126 0.961 . S
C2067 C2064 1.496 . S
C2067 H2127 0.960 . S
C2067 H2128 0.960 . S
C2067 H2129 0.961 . S
C2068 C2069 1.517 . S
C2068 H2131 0.961 . S
C2068 H2132 0.960 . S
C2068 H2133 0.959 . S
C2069 C2068 1.517 . S
C2069 O2117 1.468 . S
C2069 H2130 0.980 . S
C2070 C2071 1.349 . S
C2070 C2075 1.367 . S
C2070 O2117 1.408 . S
C2071 C2070 1.349 . S
C2071 C2072 1.407 . S
C2071 H2134 0.930 . S
C2072 C2071 1.407 . S
C2072 C2073 1.449 . S
C2072 C2076 1.535 . S
C2073 C2072 1.449 . S
C2073 C2074 1.384 . S
C2073 C2098 1.553 . S
C2074 C2073 1.384 . S
C2074 C2075 1.364 . S
C2074 C2077 1.450 . S
C2075 C2070 1.367 . S
C2075 C2074 1.364 . S
C2075 H2135 0.931 . S
C2076 C2072 1.535 . S
C2076 H2136 0.959 . S
C2076 H2137 0.961 . S
C2076 H2138 0.959 . S
C2077 C2074 1.450 . S
C2077 H2139 0.960 . S
C2077 H2140 0.960 . S
C2077 H2141 0.960 . S
C2078 C2079 1.309 . S
C2078 C2083 1.304 . S
C2078 O2116 1.435 . S
C2079 C2078 1.309 . S
C2079 C2080 1.476 . S
C2079 H2143 0.930 . S
C2080 C2079 1.476 . S
C2080 C2081 1.400 . S
C2080 C2084 1.567 . S
C2081 C2080 1.400 . S
C2081 C2082 1.373 . S
C2081 C2103 1.432 . S
C2082 C2081 1.373 . S
C2082 C2083 1.339 . S
C2082 C2085 1.530 . S
C2083 C2078 1.304 . S
C2083 C2082 1.339 . S
C2083 H2144 0.930 . S
C2084 C2080 1.567 . S
C2084 H2145 0.961 . S
C2084 H2146 0.960 . S
C2084 H2147 0.958 . S
C2085 C2082 1.530 . S
C2085 H2148 0.961 . S
C2085 H2149 0.960 . S
C2085 H2150 0.960 . S
C2086 C2087 1.530 . S
C2086 H2152 0.961 . S
C2086 H2153 0.961 . S
C2086 H2154 0.959 . S
C2087 C2086 1.530 . S
C2087 O2115 1.412 . S
C2087 H2151 0.980 . S
C2088 C2089 1.288 . S
C2088 C2093 1.377 . S
C2088 O2115 1.393 . S
C2089 C2088 1.288 . S
C2089 C2090 1.369 . S
C2089 H2155 0.932 . S
C2090 C2089 1.369 . S
C2090 C2091 1.398 . S
C2090 C2094 1.527 . S
C2091 C2090 1.398 . S
C2091 C2092 1.380 . S
C2091 C2105 1.497 . S
C2092 C2091 1.380 . S
C2092 C2093 1.383 . S
C2092 C2095 1.603 . S
C2093 C2088 1.377 . S
C2093 C2092 1.383 . S
C2093 H2156 0.929 . S
C2094 C2090 1.527 . S
C2094 H2157 0.961 . S
C2094 H2158 0.959 . S
C2094 H2159 0.959 . S
C2095 C2092 1.603 . S
C2095 H2160 0.960 . S
C2095 H2161 0.962 . S
C2095 H2162 0.961 . S
C2096 C2063 1.587 . S
C2096 C2097 1.360 . S
C2096 C2109 1.412 . S
C2097 C2096 1.360 . S
C2097 C2098 1.365 . S
C2097 H2163 0.929 . S
C2098 C2073 1.553 . S
C2098 C2097 1.365 . S
C2098 C2099 1.404 . S
C2099 C2098 1.404 . S
C2099 C2100 1.395 . S
C2099 C2110 1.451 . S
C2100 C2099 1.395 . S
C2100 C2101 1.322 . S
C2100 H2164 0.930 . S
C2101 C2100 1.322 . S
C2101 C2102 1.459 . S
C2101 H2165 0.929 . S
C2102 C2101 1.459 . S
C2102 C2103 1.445 . S
C2102 C2111 1.395 . S
C2103 C2081 1.432 . S
C2103 C2102 1.445 . S
C2103 C2104 1.370 . S
C2104 C2103 1.370 . S
C2104 C2105 1.438 . S
C2104 H2166 0.930 . S
C2105 C2091 1.497 . S
C2105 C2104 1.438 . S
C2105 C2106 1.360 . S
C2106 C2105 1.360 . S
C2106 C2107 1.401 . S
C2106 C2111 1.446 . S
C2107 C2106 1.401 . S
C2107 C2108 1.347 . S
C2107 H2167 0.929 . S
C2108 C2107 1.347 . S
C2108 C2109 1.455 . S
C2108 H2168 0.930 . S
C2109 C2096 1.412 . S
C2109 C2108 1.455 . S
C2109 C2110 1.331 . S
C2110 C2099 1.451 . S
C2110 C2109 1.331 . S
C2110 C2111 1.497 . S
C2111 C2102 1.395 . S
C2111 C2106 1.446 . S
C2111 C2110 1.497 . S
C2112 C2113 1.582 . S
C2112 H2169 0.962 . S
C2112 H2170 0.959 . S
C2112 H2171 0.958 . S
C2113 C2112 1.582 . S
C2113 O2116 1.458 . S
C2113 H2142 0.980 . S
O2114 C2059 1.426 . S
O2114 C2060 1.334 . S
O2115 C2087 1.412 . S
O2115 C2088 1.393 . S
O2116 C2078 1.435 . S
O2116 C2113 1.458 . S
O2117 C2069 1.468 . S
O2117 C2070 1.408 . S
H2118 C2059 0.980 . S
H2119 C2058 0.959 . S
H2120 C2058 0.959 . S
H2121 C2058 0.960 . S
H2122 C2061 0.929 . S
H2123 C2065 0.929 . S
H2124 C2066 0.959 . S
H2125 C2066 0.961 . S
H2126 C2066 0.961 . S
H2127 C2067 0.960 . S
H2128 C2067 0.960 . S
H2129 C2067 0.961 . S
H2130 C2069 0.980 . S
H2131 C2068 0.961 . S
H2132 C2068 0.960 . S
H2133 C2068 0.959 . S
H2134 C2071 0.930 . S
H2135 C2075 0.931 . S
H2136 C2076 0.959 . S
H2137 C2076 0.961 . S
H2138 C2076 0.959 . S
H2139 C2077 0.960 . S
H2140 C2077 0.960 . S
H2141 C2077 0.960 . S
H2142 C2113 0.980 . S
H2143 C2079 0.930 . S
H2144 C2083 0.930 . S
H2145 C2084 0.961 . S
H2146 C2084 0.960 . S
H2147 C2084 0.958 . S
H2148 C2085 0.961 . S
H2149 C2085 0.960 . S
H2150 C2085 0.960 . S
H2151 C2087 0.980 . S
H2152 C2086 0.961 . S
H2153 C2086 0.961 . S
H2154 C2086 0.959 . S
H2155 C2089 0.932 . S
H2156 C2093 0.929 . S
H2157 C2094 0.961 . S
H2158 C2094 0.959 . S
H2159 C2094 0.959 . S
H2160 C2095 0.960 . S
H2161 C2095 0.962 . S
H2162 C2095 0.961 . S
H2163 C2097 0.929 . S
H2164 C2100 0.930 . S
H2165 C2101 0.929 . S
H2166 C2104 0.930 . S
H2167 C2107 0.929 . S
H2168 C2108 0.930 . S
H2169 C2112 0.962 . S
H2170 C2112 0.959 . S
H2171 C2112 0.958 . S
C2172 C2173 1.560 . S
C2172 H2233 0.959 . S
C2172 H2234 0.959 . S
C2172 H2235 0.960 . S
C2173 C2172 1.560 . S
C2173 O2228 1.426 . S
C2173 H2232 0.980 . S
C2174 C2175 1.407 . S
C2174 C2179 1.418 . S
C2174 O2228 1.334 . S
C2175 C2174 1.407 . S
C2175 C2176 1.360 . S
C2175 H2236 0.929 . S
C2176 C2175 1.360 . S
C2176 C2177 1.401 . S
C2176 C2180 1.527 . S
C2177 C2176 1.401 . S
C2177 C2178 1.405 . S
C2177 C2210 1.587 . S
C2178 C2177 1.405 . S
C2178 C2179 1.332 . S
C2178 C2181 1.496 . S
C2179 C2174 1.418 . S
C2179 C2178 1.332 . S
C2179 H2237 0.929 . S
C2180 C2176 1.527 . S
C2180 H2238 0.959 . S
C2180 H2239 0.961 . S
C2180 H2240 0.961 . S
C2181 C2178 1.496 . S
C2181 H2241 0.960 . S
C2181 H2242 0.960 . S
C2181 H2243 0.961 . S
C2182 C2183 1.517 . S
C2182 H2245 0.961 . S
C2182 H2246 0.960 . S
C2182 H2247 0.959 . S
C2183 C2182 1.517 . S
C2183 O2231 1.468 . S
C2183 H2244 0.980 . S
C2184 C2185 1.349 . S
C2184 C2189 1.367 . S
C2184 O2231 1.408 . S
C2185 C2184 1.349 . S
C2185 C2186 1.407 . S
C2185 H2248 0.930 . S
C2186 C2185 1.407 . S
C2186 C2187 1.449 . S
C2186 C2190 1.535 . S
C2187 C2186 1.449 . S
C2187 C2188 1.384 . S
C2187 C2212 1.553 . S
C2188 C2187 1.384 . S
C2188 C2189 1.364 . S
C2188 C2191 1.450 . S
C2189 C2184 1.367 . S
C2189 C2188 1.364 . S
C2189 H2249 0.931 . S
C2190 C2186 1.535 . S
C2190 H2250 0.959 . S
C2190 H2251 0.961 . S
C2190 H2252 0.959 . S
C2191 C2188 1.450 . S
C2191 H2253 0.960 . S
C2191 H2254 0.960 . S
C2191 H2255 0.960 . S
C2192 C2193 1.309 . S
C2192 C2197 1.304 . S
C2192 O2230 1.435 . S
C2193 C2192 1.309 . S
C2193 C2194 1.476 . S
C2193 H2257 0.930 . S
C2194 C2193 1.476 . S
C2194 C2195 1.400 . S
C2194 C2198 1.567 . S
C2195 C2194 1.400 . S
C2195 C2196 1.373 . S
C2195 C2217 1.432 . S
C2196 C2195 1.373 . S
C2196 C2197 1.339 . S
C2196 C2199 1.530 . S
C2197 C2192 1.304 . S
C2197 C2196 1.339 . S
C2197 H2258 0.930 . S
C2198 C2194 1.567 . S
C2198 H2259 0.961 . S
C2198 H2260 0.960 . S
C2198 H2261 0.958 . S
C2199 C2196 1.530 . S
C2199 H2262 0.961 . S
C2199 H2263 0.960 . S
C2199 H2264 0.960 . S
C2200 C2201 1.530 . S
C2200 H2266 0.961 . S
C2200 H2267 0.961 . S
C2200 H2268 0.959 . S
C2201 C2200 1.530 . S
C2201 O2229 1.412 . S
C2201 H2265 0.980 . S
C2202 C2203 1.288 . S
C2202 C2207 1.377 . S
C2202 O2229 1.393 . S
C2203 C2202 1.288 . S
C2203 C2204 1.369 . S
C2203 H2269 0.932 . S
C2204 C2203 1.369 . S
C2204 C2205 1.398 . S
C2204 C2208 1.527 . S
C2205 C2204 1.398 . S
C2205 C2206 1.380 . S
C2205 C2219 1.497 . S
C2206 C2205 1.380 . S
C2206 C2207 1.383 . S
C2206 C2209 1.603 . S
C2207 C2202 1.377 . S
C2207 C2206 1.383 . S
C2207 H2270 0.929 . S
C2208 C2204 1.527 . S
C2208 H2271 0.961 . S
C2208 H2272 0.959 . S
C2208 H2273 0.959 . S
C2209 C2206 1.603 . S
C2209 H2274 0.960 . S
C2209 H2275 0.962 . S
C2209 H2276 0.961 . S
C2210 C2177 1.587 . S
C2210 C2211 1.360 . S
C2210 C2223 1.412 . S
C2211 C2210 1.360 . S
C2211 C2212 1.365 . S
C2211 H2277 0.929 . S
C2212 C2187 1.553 . S
C2212 C2211 1.365 . S
C2212 C2213 1.404 . S
C2213 C2212 1.404 . S
C2213 C2214 1.395 . S
C2213 C2224 1.451 . S
C2214 C2213 1.395 . S
C2214 C2215 1.322 . S
C2214 H2278 0.930 . S
C2215 C2214 1.322 . S
C2215 C2216 1.459 . S
C2215 H2279 0.929 . S
C2216 C2215 1.459 . S
C2216 C2217 1.445 . S
C2216 C2225 1.395 . S
C2217 C2195 1.432 . S
C2217 C2216 1.445 . S
C2217 C2218 1.370 . S
C2218 C2217 1.370 . S
C2218 C2219 1.438 . S
C2218 H2280 0.930 . S
C2219 C2205 1.497 . S
C2219 C2218 1.438 . S
C2219 C2220 1.360 . S
C2220 C2219 1.360 . S
C2220 C2221 1.401 . S
C2220 C2225 1.446 . S
C2221 C2220 1.401 . S
C2221 C2222 1.347 . S
C2221 H2281 0.929 . S
C2222 C2221 1.347 . S
C2222 C2223 1.455 . S
C2222 H2282 0.930 . S
C2223 C2210 1.412 . S
C2223 C2222 1.455 . S
C2223 C2224 1.331 . S
C2224 C2213 1.451 . S
C2224 C2223 1.331 . S
C2224 C2225 1.497 . S
C2225 C2216 1.395 . S
C2225 C2220 1.446 . S
C2225 C2224 1.497 . S
C2226 C2227 1.582 . S
C2226 H2283 0.962 . S
C2226 H2284 0.959 . S
C2226 H2285 0.958 . S
C2227 C2226 1.582 . S
C2227 O2230 1.458 . S
C2227 H2256 0.980 . S
O2228 C2173 1.426 . S
O2228 C2174 1.334 . S
O2229 C2201 1.412 . S
O2229 C2202 1.393 . S
O2230 C2192 1.435 . S
O2230 C2227 1.458 . S
O2231 C2183 1.468 . S
O2231 C2184 1.408 . S
H2232 C2173 0.980 . S
H2233 C2172 0.959 . S
H2234 C2172 0.959 . S
H2235 C2172 0.960 . S
H2236 C2175 0.929 . S
H2237 C2179 0.929 . S
H2238 C2180 0.959 . S
H2239 C2180 0.961 . S
H2240 C2180 0.961 . S
H2241 C2181 0.960 . S
H2242 C2181 0.960 . S
H2243 C2181 0.961 . S
H2244 C2183 0.980 . S
H2245 C2182 0.961 . S
H2246 C2182 0.960 . S
H2247 C2182 0.959 . S
H2248 C2185 0.930 . S
H2249 C2189 0.931 . S
H2250 C2190 0.959 . S
H2251 C2190 0.961 . S
H2252 C2190 0.959 . S
H2253 C2191 0.960 . S
H2254 C2191 0.960 . S
H2255 C2191 0.960 . S
H2256 C2227 0.980 . S
H2257 C2193 0.930 . S
H2258 C2197 0.930 . S
H2259 C2198 0.961 . S
H2260 C2198 0.960 . S
H2261 C2198 0.958 . S
H2262 C2199 0.961 . S
H2263 C2199 0.960 . S
H2264 C2199 0.960 . S
H2265 C2201 0.980 . S
H2266 C2200 0.961 . S
H2267 C2200 0.961 . S
H2268 C2200 0.959 . S
H2269 C2203 0.932 . S
H2270 C2207 0.929 . S
H2271 C2208 0.961 . S
H2272 C2208 0.959 . S
H2273 C2208 0.959 . S
H2274 C2209 0.960 . S
H2275 C2209 0.962 . S
H2276 C2209 0.961 . S
H2277 C2211 0.929 . S
H2278 C2214 0.930 . S
H2279 C2215 0.929 . S
H2280 C2218 0.930 . S
H2281 C2221 0.929 . S
H2282 C2222 0.930 . S
H2283 C2226 0.962 . S
H2284 C2226 0.959 . S
H2285 C2226 0.958 . S
H2286 C2292 0.930 . S
H2287 C2295 0.930 . S
H2288 C2296 0.930 . S
H2289 C2297 0.932 . S
H2290 C2300 0.930 . S
H2291 C2301 0.930 . S
C2292 H2286 0.930 . S
C2292 C2293 1.355 . S
C2292 C2294 1.415 . S
C2293 C2292 1.355 . S
C2293 C2295 1.419 1_655 S
C2294 C2292 1.415 . S
C2294 C2299 1.425 . S
C2294 C2301 1.409 . S
C2295 H2287 0.930 . S
C2295 C2293 1.419 1_455 S
C2295 C2296 1.362 . S
C2296 H2288 0.930 . S
C2296 C2295 1.362 . S
C2296 C2299 1.409 1_455 S
C2297 H2289 0.932 . S
C2297 C2298 1.338 1_455 S
C2297 C2299 1.431 1_455 S
C2298 C2297 1.338 1_655 S
C2298 C2300 1.419 . S
C2299 C2294 1.425 . S
C2299 C2296 1.409 1_655 S
C2299 C2297 1.431 1_655 S
C2300 H2290 0.930 . S
C2300 C2298 1.419 . S
C2300 C2301 1.362 . S
C2301 H2291 0.930 . S
C2301 C2294 1.409 . S
C2301 C2300 1.362 . S
H2302 C2308 0.930 . S
H2303 C2311 0.930 . S
H2304 C2312 0.930 . S
H2305 C2313 0.930 . S
H2306 C2316 0.930 . S
H2307 C2317 0.930 . S
C2308 H2302 0.930 . S
C2308 C2309 1.355 . S
C2308 C2310 1.415 . S
C2309 C2308 1.355 . S
C2309 C2311 1.419 . S
C2310 C2308 1.415 . S
C2310 C2315 1.425 . S
C2310 C2317 1.409 . S
C2311 H2303 0.930 . S
C2311 C2309 1.419 . S
C2311 C2312 1.362 . S
C2312 H2304 0.930 . S
C2312 C2311 1.362 . S
C2312 C2315 1.409 . S
C2313 H2305 0.930 . S
C2313 C2314 1.355 . S
C2313 C2315 1.415 . S
C2314 C2313 1.355 . S
C2314 C2316 1.419 . S
C2315 C2310 1.425 . S
C2315 C2312 1.409 . S
C2315 C2313 1.415 . S
C2316 H2306 0.930 . S
C2316 C2314 1.419 . S
C2316 C2317 1.362 . S
C2317 H2307 0.930 . S
C2317 C2310 1.409 . S
C2317 C2316 1.362 . S
H2318 C2324 0.930 . S
H2319 C2327 0.930 . S
H2320 C2328 0.930 1_565 S
H2321 C2329 0.948 . S
H2322 C2332 0.930 . S
H2323 C2333 0.930 . S
C2324 H2318 0.930 . S
C2324 C2325 1.355 . S
C2324 C2326 1.415 . S
C2325 C2324 1.355 . S
C2325 C2327 1.419 . S
C2326 C2324 1.415 . S
C2326 C2331 1.425 . S
C2326 C2333 1.409 . S
C2327 H2319 0.930 . S
C2327 C2325 1.419 . S
C2327 C2328 1.362 . S
C2328 H2320 0.930 1_545 S
C2328 C2327 1.362 . S
C2328 C2331 1.409 . S
C2329 H2321 0.948 . S
C2329 C2330 1.355 . S
C2329 C2331 1.415 . S
C2330 C2329 1.355 . S
C2330 C2332 1.419 . S
C2331 C2326 1.425 . S
C2331 C2328 1.409 . S
C2331 C2329 1.415 . S
C2332 H2322 0.930 . S
C2332 C2330 1.419 . S
C2332 C2333 1.362 . S
C2333 H2323 0.930 . S
C2333 C2326 1.409 . S
C2333 C2332 1.362 . S
H2334 C2340 0.930 . S
H2335 C2343 0.930 . S
H2336 C2344 0.930 . S
H2337 C2345 0.930 . S
H2338 C2348 0.941 . S
H2339 C2349 0.887 1_545 S
C2340 H2334 0.930 . S
C2340 C2341 1.355 . S
C2340 C2342 1.415 . S
C2341 C2340 1.355 . S
C2341 C2343 1.419 . S
C2342 C2340 1.415 . S
C2342 C2347 1.425 . S
C2342 C2349 1.422 . S
C2343 H2335 0.930 . S
C2343 C2341 1.419 . S
C2343 C2344 1.362 . S
C2344 H2336 0.930 . S
C2344 C2343 1.362 . S
C2344 C2347 1.409 . S
C2345 H2337 0.930 . S
C2345 C2346 1.355 . S
C2345 C2347 1.415 . S
C2346 C2345 1.355 . S
C2346 C2348 1.419 . S
C2347 C2342 1.425 . S
C2347 C2344 1.409 . S
C2347 C2345 1.415 . S
C2348 H2338 0.941 . S
C2348 C2346 1.419 . S
C2348 C2349 1.396 . S
C2349 H2339 0.887 1_565 S
C2349 C2342 1.422 . S
C2349 C2348 1.396 . S
H2350 C2356 0.930 1_655 S
H2351 C2359 0.930 . S
H2352 C2360 0.930 . S
H2353 C2361 0.930 . S
H2354 C2364 0.930 . S
H2355 C2365 0.930 . S
C2356 H2350 0.930 1_455 S
C2356 C2357 1.355 . S
C2356 C2358 1.415 . S
C2357 C2356 1.355 . S
C2357 C2359 1.419 . S
C2358 C2356 1.415 . S
C2358 C2363 1.425 . S
C2358 C2365 1.409 1_455 S
C2359 H2351 0.930 . S
C2359 C2357 1.419 . S
C2359 C2360 1.362 . S
C2360 H2352 0.930 . S
C2360 C2359 1.362 . S
C2360 C2363 1.409 . S
C2361 H2353 0.930 . S
C2361 C2362 1.355 . S
C2361 C2363 1.415 . S
C2362 C2361 1.355 . S
C2362 C2364 1.419 1_455 S
C2363 C2358 1.425 . S
C2363 C2360 1.409 . S
C2363 C2361 1.415 . S
C2364 H2354 0.930 . S
C2364 C2362 1.419 1_655 S
C2364 C2365 1.362 . S
C2365 H2355 0.930 . S
C2365 C2358 1.409 1_655 S
C2365 C2364 1.362 . S
H2366 C2372 0.930 . S
H2367 C2375 0.930 . S
H2368 C2376 0.930 . S
H2369 C2377 0.930 . S
H2370 C2380 0.930 . S
H2371 C2381 0.930 . S
C2372 H2366 0.930 . S
C2372 C2373 1.355 . S
C2372 C2374 1.415 . S
C2373 C2372 1.355 . S
C2373 C2375 1.419 . S
C2374 C2372 1.415 . S
C2374 C2379 1.425 . S
C2374 C2381 1.409 . S
C2375 H2367 0.930 . S
C2375 C2373 1.419 . S
C2375 C2376 1.362 . S
C2376 H2368 0.930 . S
C2376 C2375 1.362 . S
C2376 C2379 1.409 . S
C2377 H2369 0.930 . S
C2377 C2378 1.355 . S
C2377 C2379 1.415 . S
C2378 C2377 1.355 . S
C2378 C2380 1.419 . S
C2379 C2374 1.425 . S
C2379 C2376 1.409 . S
C2379 C2377 1.415 . S
C2380 H2370 0.930 . S
C2380 C2378 1.419 . S
C2380 C2381 1.362 . S
C2381 H2371 0.930 . S
C2381 C2374 1.409 . S
C2381 C2380 1.362 . S
H2382 C2388 0.930 . S
H2383 C2391 0.930 . S
H2384 C2392 0.930 . S
H2385 C2393 0.930 . S
H2386 C2396 0.930 . S
H2387 C2397 0.910 1_655 S
C2388 H2382 0.930 . S
C2388 C2389 1.355 . S
C2388 C2390 1.415 . S
C2389 C2388 1.355 . S
C2389 C2391 1.419 . S
C2390 C2388 1.415 . S
C2390 C2395 1.425 . S
C2390 C2397 1.416 . S
C2391 H2383 0.930 . S
C2391 C2389 1.419 . S
C2391 C2392 1.362 . S
C2392 H2384 0.930 . S
C2392 C2391 1.362 . S
C2392 C2395 1.409 . S
C2393 H2385 0.930 . S
C2393 C2394 1.355 . S
C2393 C2395 1.415 . S
C2394 C2393 1.355 . S
C2394 C2396 1.419 1_455 S
C2395 C2390 1.425 . S
C2395 C2392 1.409 . S
C2395 C2393 1.415 . S
C2396 H2386 0.930 . S
C2396 C2394 1.419 1_655 S
C2396 C2397 1.376 1_655 S
C2397 H2387 0.910 1_455 S
C2397 C2390 1.416 . S
C2397 C2396 1.376 1_455 S
H2398 C2404 0.930 . S
H2399 C2407 0.930 . S
H2400 C2408 0.930 . S
H2401 C2409 0.930 . S
H2402 C2412 0.930 . S
H2403 C2413 0.930 . S
C2404 H2398 0.930 . S
C2404 C2405 1.355 . S
C2404 C2406 1.415 . S
C2405 C2404 1.355 . S
C2405 C2407 1.419 . S
C2406 C2404 1.415 . S
C2406 C2411 1.425 . S
C2406 C2413 1.409 . S
C2407 H2399 0.930 . S
C2407 C2405 1.419 . S
C2407 C2408 1.362 . S
C2408 H2400 0.930 . S
C2408 C2407 1.362 . S
C2408 C2411 1.409 . S
C2409 H2401 0.930 . S
C2409 C2410 1.355 . S
C2409 C2411 1.415 . S
C2410 C2409 1.355 . S
C2410 C2412 1.419 . S
C2411 C2406 1.425 . S
C2411 C2408 1.409 . S
C2411 C2409 1.415 . S
C2412 H2402 0.930 . S
C2412 C2410 1.419 . S
C2412 C2413 1.362 . S
C2413 H2403 0.930 . S
C2413 C2406 1.409 . S
C2413 C2412 1.362 . S
H2414 C2420 0.930 . S
H2415 C2423 0.930 . S
H2416 C2424 0.930 . S
H2417 C2425 0.930 . S
H2418 C2428 0.930 . S
H2419 C2429 0.930 . S
C2420 H2414 0.930 . S
C2420 C2421 1.355 1_545 S
C2420 C2422 1.389 . S
C2421 C2420 1.355 1_565 S
C2421 C2423 1.419 . S
C2422 C2420 1.389 . S
C2422 C2427 1.394 1_545 S
C2422 C2429 1.468 . S
C2423 H2415 0.930 . S
C2423 C2421 1.419 . S
C2423 C2424 1.362 . S
C2424 H2416 0.930 . S
C2424 C2423 1.362 . S
C2424 C2427 1.409 . S
C2425 H2417 0.930 . S
C2425 C2426 1.355 . S
C2425 C2427 1.415 . S
C2426 C2425 1.355 . S
C2426 C2428 1.419 1_565 S
C2427 C2422 1.394 1_565 S
C2427 C2424 1.409 . S
C2427 C2425 1.415 . S
C2428 H2418 0.930 . S
C2428 C2426 1.419 1_545 S
C2428 C2429 1.362 . S
C2429 H2419 0.930 . S
C2429 C2422 1.468 . S
C2429 C2428 1.362 . S
H2430 C2436 0.930 . S
H2431 C2439 0.930 . S
H2432 C2440 0.930 . S
H2433 C2441 0.930 . S
H2434 C2444 0.930 . S
H2435 C2445 0.930 . S
C2436 H2430 0.930 . S
C2436 C2437 1.355 . S
C2436 C2438 1.415 . S
C2437 C2436 1.355 . S
C2437 C2439 1.419 1_545 S
C2438 C2436 1.415 . S
C2438 C2443 1.427 1_545 S
C2438 C2445 1.409 . S
C2439 H2431 0.930 . S
C2439 C2437 1.419 1_565 S
C2439 C2440 1.362 . S
C2440 H2432 0.930 . S
C2440 C2439 1.362 . S
C2440 C2443 1.407 . S
C2441 H2433 0.930 . S
C2441 C2442 1.355 1_565 S
C2441 C2443 1.415 . S
C2442 C2441 1.355 1_545 S
C2442 C2444 1.419 . S
C2443 C2438 1.427 1_565 S
C2443 C2440 1.407 . S
C2443 C2441 1.415 . S
C2444 H2434 0.930 . S
C2444 C2442 1.419 . S
C2444 C2445 1.362 . S
C2445 H2435 0.930 . S
C2445 C2438 1.409 . S
C2445 C2444 1.362 . S
H2446 C2452 0.930 . S
H2447 C2455 0.930 . S
H2448 C2456 0.930 . S
H2449 C2457 0.930 . S
H2450 C2460 0.930 . S
H2451 C2461 0.930 . S
C2452 H2446 0.930 . S
C2452 C2453 1.355 . S
C2452 C2454 1.415 . S
C2453 C2452 1.355 . S
C2453 C2455 1.419 1_655 S
C2454 C2452 1.415 . S
C2454 C2459 1.420 1_655 S
C2454 C2461 1.409 . S
C2455 H2447 0.930 . S
C2455 C2453 1.419 1_455 S
C2455 C2456 1.362 . S
C2456 H2448 0.930 . S
C2456 C2455 1.362 . S
C2456 C2459 1.409 . S
C2457 H2449 0.930 . S
C2457 C2458 1.355 1_455 S
C2457 C2459 1.419 . S
C2458 C2457 1.355 1_655 S
C2458 C2460 1.419 . S
C2459 C2454 1.420 1_455 S
C2459 C2456 1.409 . S
C2459 C2457 1.419 . S
C2460 H2450 0.930 . S
C2460 C2458 1.419 . S
C2460 C2461 1.362 . S
C2461 H2451 0.930 . S
C2461 C2454 1.409 . S
C2461 C2460 1.362 . S
H2462 C2468 0.930 . S
H2463 C2471 0.930 . S
H2464 C2472 0.930 . S
H2465 C2473 0.930 . S
H2466 C2476 0.930 . S
H2467 C2477 0.930 . S
C2468 H2462 0.930 . S
C2468 C2469 1.355 . S
C2468 C2470 1.415 . S
C2469 C2468 1.355 . S
C2469 C2471 1.419 . S
C2470 C2468 1.415 . S
C2470 C2475 1.425 . S
C2470 C2477 1.409 . S
C2471 H2463 0.930 . S
C2471 C2469 1.419 . S
C2471 C2472 1.362 . S
C2472 H2464 0.930 . S
C2472 C2471 1.362 . S
C2472 C2475 1.409 . S
C2473 H2465 0.930 . S
C2473 C2474 1.355 . S
C2473 C2475 1.415 . S
C2474 C2473 1.355 . S
C2474 C2476 1.419 . S
C2475 C2470 1.425 . S
C2475 C2472 1.409 . S
C2475 C2473 1.415 . S
C2476 H2466 0.930 . S
C2476 C2474 1.419 . S
C2476 C2477 1.362 . S
C2477 H2467 0.930 . S
C2477 C2470 1.409 . S
C2477 C2476 1.362 . S
H2478 C2484 0.930 . S
H2479 C2487 0.930 . S
H2480 C2488 0.930 . S
H2481 C2489 0.930 . S
H2482 C2492 0.930 . S
H2483 C2493 0.930 . S
C2484 H2478 0.930 . S
C2484 C2485 1.355 . S
C2484 C2486 1.415 . S
C2485 C2484 1.355 . S
C2485 C2487 1.419 . S
C2486 C2484 1.415 . S
C2486 C2491 1.425 . S
C2486 C2493 1.409 . S
C2487 H2479 0.930 . S
C2487 C2485 1.419 . S
C2487 C2488 1.362 . S
C2488 H2480 0.930 . S
C2488 C2487 1.362 . S
C2488 C2491 1.409 . S
C2489 H2481 0.930 . S
C2489 C2490 1.355 . S
C2489 C2491 1.415 . S
C2490 C2489 1.355 . S
C2490 C2492 1.419 . S
C2491 C2486 1.425 . S
C2491 C2488 1.409 . S
C2491 C2489 1.415 . S
C2492 H2482 0.930 . S
C2492 C2490 1.419 . S
C2492 C2493 1.362 . S
C2493 H2483 0.930 . S
C2493 C2486 1.409 . S
C2493 C2492 1.362 . S
H2494 C2500 0.930 . S
H2495 C2503 0.930 . S
H2496 C2504 0.930 . S
H2497 C2505 0.930 . S
H2498 C2508 0.930 . S
H2499 C2509 0.930 . S
C2500 H2494 0.930 . S
C2500 C2501 1.355 . S
C2500 C2502 1.415 . S
C2501 C2500 1.355 . S
C2501 C2503 1.419 . S
C2502 C2500 1.415 . S
C2502 C2507 1.425 . S
C2502 C2509 1.409 . S
C2503 H2495 0.930 . S
C2503 C2501 1.419 . S
C2503 C2504 1.362 . S
C2504 H2496 0.930 . S
C2504 C2503 1.362 . S
C2504 C2507 1.409 . S
C2505 H2497 0.930 . S
C2505 C2506 1.355 . S
C2505 C2507 1.415 . S
C2506 C2505 1.355 . S
C2506 C2508 1.419 . S
C2507 C2502 1.425 . S
C2507 C2504 1.409 . S
C2507 C2505 1.415 . S
C2508 H2498 0.930 . S
C2508 C2506 1.419 . S
C2508 C2509 1.362 . S
C2509 H2499 0.930 . S
C2509 C2502 1.409 . S
C2509 C2508 1.362 . S
H2510 C2516 0.930 . S
H2511 C2519 0.930 . S
H2512 C2520 0.930 . S
H2513 C2521 0.930 . S
H2514 C2524 0.930 . S
H2515 C2525 0.930 . S
C2516 H2510 0.930 . S
C2516 C2517 1.355 . S
C2516 C2518 1.415 . S
C2517 C2516 1.355 . S
C2517 C2519 1.419 . S
C2518 C2516 1.415 . S
C2518 C2523 1.425 . S
C2518 C2525 1.409 . S
C2519 H2511 0.930 . S
C2519 C2517 1.419 . S
C2519 C2520 1.362 . S
C2520 H2512 0.930 . S
C2520 C2519 1.362 . S
C2520 C2523 1.409 . S
C2521 H2513 0.930 . S
C2521 C2522 1.355 . S
C2521 C2523 1.415 . S
C2522 C2521 1.355 . S
C2522 C2524 1.419 . S
C2523 C2518 1.425 . S
C2523 C2520 1.409 . S
C2523 C2521 1.415 . S
C2524 H2514 0.930 . S
C2524 C2522 1.419 . S
C2524 C2525 1.362 . S
C2525 H2515 0.930 . S
C2525 C2518 1.409 . S
C2525 C2524 1.362 . S
H2526 C2532 0.930 . S
H2527 C2535 0.930 . S
H2528 C2536 0.930 . S
H2529 C2537 0.930 . S
H2530 C2540 0.930 . S
H2531 C2541 0.930 . S
C2532 H2526 0.930 . S
C2532 C2533 1.355 . S
C2532 C2534 1.415 . S
C2533 C2532 1.355 . S
C2533 C2535 1.419 . S
C2534 C2532 1.415 . S
C2534 C2539 1.425 . S
C2534 C2541 1.409 . S
C2535 H2527 0.930 . S
C2535 C2533 1.419 . S
C2535 C2536 1.362 . S
C2536 H2528 0.930 . S
C2536 C2535 1.362 . S
C2536 C2539 1.409 . S
C2537 H2529 0.930 . S
C2537 C2538 1.355 . S
C2537 C2539 1.415 . S
C2538 C2537 1.355 . S
C2538 C2540 1.419 . S
C2539 C2534 1.425 . S
C2539 C2536 1.409 . S
C2539 C2537 1.415 . S
C2540 H2530 0.930 . S
C2540 C2538 1.419 . S
C2540 C2541 1.362 . S
C2541 H2531 0.930 . S
C2541 C2534 1.409 . S
C2541 C2540 1.362 . S
H2542 C2548 0.930 . S
H2543 C2551 0.930 . S
H2544 C2552 0.930 . S
H2545 C2553 0.930 . S
H2546 C2556 0.930 . S
H2547 C2557 0.930 . S
C2548 H2542 0.930 . S
C2548 C2549 1.355 . S
C2548 C2550 1.415 . S
C2549 C2548 1.355 . S
C2549 C2551 1.419 . S
C2550 C2548 1.415 . S
C2550 C2555 1.425 . S
C2550 C2557 1.409 . S
C2551 H2543 0.930 . S
C2551 C2549 1.419 . S
C2551 C2552 1.362 . S
C2552 H2544 0.930 . S
C2552 C2551 1.362 . S
C2552 C2555 1.409 . S
C2553 H2545 0.930 . S
C2553 C2554 1.355 . S
C2553 C2555 1.415 . S
C2554 C2553 1.355 . S
C2554 C2556 1.419 . S
C2555 C2550 1.425 . S
C2555 C2552 1.409 . S
C2555 C2553 1.415 . S
C2556 H2546 0.930 . S
C2556 C2554 1.419 . S
C2556 C2557 1.362 . S
C2557 H2547 0.930 . S
C2557 C2550 1.409 . S
C2557 C2556 1.362 . S
H2558 C2564 0.930 . S
H2559 C2567 0.930 . S
H2560 C2568 0.930 . S
H2561 C2569 0.930 . S
H2562 C2572 0.930 . S
H2563 C2573 0.930 . S
C2564 H2558 0.930 . S
C2564 C2565 1.355 . S
C2564 C2566 1.415 . S
C2565 C2564 1.355 . S
C2565 C2567 1.419 . S
C2566 C2564 1.415 . S
C2566 C2571 1.425 . S
C2566 C2573 1.409 . S
C2567 H2559 0.930 . S
C2567 C2565 1.419 . S
C2567 C2568 1.362 . S
C2568 H2560 0.930 . S
C2568 C2567 1.362 . S
C2568 C2571 1.409 . S
C2569 H2561 0.930 . S
C2569 C2570 1.355 . S
C2569 C2571 1.415 . S
C2570 C2569 1.355 . S
C2570 C2572 1.419 . S
C2571 C2566 1.425 . S
C2571 C2568 1.409 . S
C2571 C2569 1.415 . S
C2572 H2562 0.930 . S
C2572 C2570 1.419 . S
C2572 C2573 1.362 . S
C2573 H2563 0.930 . S
C2573 C2566 1.409 . S
C2573 C2572 1.362 . S
H2574 C2580 0.930 . S
H2575 C2583 0.930 . S
H2576 C2584 0.930 . S
H2577 C2585 0.930 . S
H2578 C2588 0.930 . S
H2579 C2589 0.930 . S
C2580 H2574 0.930 . S
C2580 C2581 1.355 . S
C2580 C2582 1.415 . S
C2581 C2580 1.355 . S
C2581 C2583 1.419 . S
C2582 C2580 1.415 . S
C2582 C2587 1.425 . S
C2582 C2589 1.409 . S
C2583 H2575 0.930 . S
C2583 C2581 1.419 . S
C2583 C2584 1.362 . S
C2584 H2576 0.930 . S
C2584 C2583 1.362 . S
C2584 C2587 1.409 . S
C2585 H2577 0.930 . S
C2585 C2586 1.355 . S
C2585 C2587 1.415 . S
C2586 C2585 1.355 . S
C2586 C2588 1.419 . S
C2587 C2582 1.425 . S
C2587 C2584 1.409 . S
C2587 C2585 1.415 . S
C2588 H2578 0.930 . S
C2588 C2586 1.419 . S
C2588 C2589 1.362 . S
C2589 H2579 0.930 . S
C2589 C2582 1.409 . S
C2589 C2588 1.362 . S
H2590 C2596 0.930 . S
H2591 C2599 0.930 . S
H2592 C2600 0.930 . S
H2593 C2601 0.930 . S
H2594 C2604 0.930 . S
H2595 C2605 0.930 . S
C2596 H2590 0.930 . S
C2596 C2597 1.355 . S
C2596 C2598 1.415 . S
C2597 C2596 1.355 . S
C2597 C2599 1.419 . S
C2598 C2596 1.415 . S
C2598 C2603 1.425 . S
C2598 C2605 1.409 . S
C2599 H2591 0.930 . S
C2599 C2597 1.419 . S
C2599 C2600 1.362 . S
C2600 H2592 0.930 . S
C2600 C2599 1.362 . S
C2600 C2603 1.409 . S
C2601 H2593 0.930 . S
C2601 C2602 1.355 . S
C2601 C2603 1.415 . S
C2602 C2601 1.355 . S
C2602 C2604 1.419 . S
C2603 C2598 1.425 . S
C2603 C2600 1.409 . S
C2603 C2601 1.415 . S
C2604 H2594 0.930 . S
C2604 C2602 1.419 . S
C2604 C2605 1.362 . S
C2605 H2595 0.930 . S
C2605 C2598 1.409 . S
C2605 C2604 1.362 . S
H2606 C2612 0.930 . S
H2607 C2615 0.930 . S
H2608 C2616 0.930 . S
H2609 C2617 0.930 . S
H2610 C2620 0.930 . S
H2611 C2621 0.930 . S
C2612 H2606 0.930 . S
C2612 C2613 1.355 . S
C2612 C2614 1.415 . S
C2613 C2612 1.355 . S
C2613 C2615 1.419 . S
C2614 C2612 1.415 . S
C2614 C2619 1.425 . S
C2614 C2621 1.409 . S
C2615 H2607 0.930 . S
C2615 C2613 1.419 . S
C2615 C2616 1.362 . S
C2616 H2608 0.930 . S
C2616 C2615 1.362 . S
C2616 C2619 1.409 . S
C2617 H2609 0.930 . S
C2617 C2618 1.355 . S
C2617 C2619 1.415 . S
C2618 C2617 1.355 . S
C2618 C2620 1.419 . S
C2619 C2614 1.425 . S
C2619 C2616 1.409 . S
C2619 C2617 1.415 . S
C2620 H2610 0.930 . S
C2620 C2618 1.419 . S
C2620 C2621 1.362 . S
C2621 H2611 0.930 . S
C2621 C2614 1.409 . S
C2621 C2620 1.362 . S
H2622 C2628 0.930 . S
H2623 C2631 0.930 . S
H2624 C2632 0.930 . S
H2625 C2633 0.930 . S
H2626 C2636 0.930 . S
H2627 C2637 0.930 . S
C2628 H2622 0.930 . S
C2628 C2629 1.355 . S
C2628 C2630 1.415 . S
C2629 C2628 1.355 . S
C2629 C2631 1.419 . S
C2630 C2628 1.415 . S
C2630 C2635 1.425 . S
C2630 C2637 1.409 . S
C2631 H2623 0.930 . S
C2631 C2629 1.419 . S
C2631 C2632 1.362 . S
C2632 H2624 0.930 . S
C2632 C2631 1.362 . S
C2632 C2635 1.409 . S
C2633 H2625 0.930 . S
C2633 C2634 1.355 . S
C2633 C2635 1.415 . S
C2634 C2633 1.355 . S
C2634 C2636 1.419 . S
C2635 C2630 1.425 . S
C2635 C2632 1.409 . S
C2635 C2633 1.415 . S
C2636 H2626 0.930 . S
C2636 C2634 1.419 . S
C2636 C2637 1.362 . S
C2637 H2627 0.930 . S
C2637 C2630 1.409 . S
C2637 C2636 1.362 . S
H2638 C2644 0.930 . S
H2639 C2647 0.930 . S
H2640 C2648 0.930 . S
H2641 C2649 0.930 . S
H2642 C2652 0.930 . S
H2643 C2653 0.930 . S
C2644 H2638 0.930 . S
C2644 C2645 1.355 . S
C2644 C2646 1.415 . S
C2645 C2644 1.355 . S
C2645 C2647 1.419 . S
C2646 C2644 1.415 . S
C2646 C2651 1.425 . S
C2646 C2653 1.409 . S
C2647 H2639 0.930 . S
C2647 C2645 1.419 . S
C2647 C2648 1.362 . S
C2648 H2640 0.930 . S
C2648 C2647 1.362 . S
C2648 C2651 1.409 . S
C2649 H2641 0.930 . S
C2649 C2650 1.355 . S
C2649 C2651 1.415 . S
C2650 C2649 1.355 . S
C2650 C2652 1.419 . S
C2651 C2646 1.425 . S
C2651 C2648 1.409 . S
C2651 C2649 1.415 . S
C2652 H2642 0.930 . S
C2652 C2650 1.419 . S
C2652 C2653 1.362 . S
C2653 H2643 0.930 . S
C2653 C2646 1.409 . S
C2653 C2652 1.362 . S
H2654 C2660 0.930 . S
H2655 C2663 0.930 . S
H2656 C2664 0.930 . S
H2657 C2665 0.930 . S
H2658 C2668 0.930 . S
H2659 C2669 0.930 . S
C2660 H2654 0.930 . S
C2660 C2661 1.355 . S
C2660 C2662 1.415 . S
C2661 C2660 1.355 . S
C2661 C2663 1.419 . S
C2662 C2660 1.415 . S
C2662 C2667 1.425 . S
C2662 C2669 1.409 . S
C2663 H2655 0.930 . S
C2663 C2661 1.419 . S
C2663 C2664 1.362 . S
C2664 H2656 0.930 . S
C2664 C2663 1.362 . S
C2664 C2667 1.409 . S
C2665 H2657 0.930 . S
C2665 C2666 1.355 . S
C2665 C2667 1.415 . S
C2666 C2665 1.355 . S
C2666 C2668 1.419 . S
C2667 C2662 1.425 . S
C2667 C2664 1.409 . S
C2667 C2665 1.415 . S
C2668 H2658 0.930 . S
C2668 C2666 1.419 . S
C2668 C2669 1.362 . S
C2669 H2659 0.930 . S
C2669 C2662 1.409 . S
C2669 C2668 1.362 . S
H2670 C2676 0.930 . S
H2671 C2679 0.930 . S
H2672 C2680 0.930 . S
H2673 C2681 0.930 . S
H2674 C2684 0.930 . S
H2675 C2685 0.930 . S
C2676 H2670 0.930 . S
C2676 C2677 1.355 . S
C2676 C2678 1.415 . S
C2677 C2676 1.355 . S
C2677 C2679 1.419 . S
C2678 C2676 1.415 . S
C2678 C2683 1.425 . S
C2678 C2685 1.409 . S
C2679 H2671 0.930 . S
C2679 C2677 1.419 . S
C2679 C2680 1.362 . S
C2680 H2672 0.930 . S
C2680 C2679 1.362 . S
C2680 C2683 1.409 . S
C2681 H2673 0.930 . S
C2681 C2682 1.355 . S
C2681 C2683 1.415 . S
C2682 C2681 1.355 . S
C2682 C2684 1.419 . S
C2683 C2678 1.425 . S
C2683 C2680 1.409 . S
C2683 C2681 1.415 . S
C2684 H2674 0.930 . S
C2684 C2682 1.419 . S
C2684 C2685 1.362 . S
C2685 H2675 0.930 . S
C2685 C2678 1.409 . S
C2685 C2684 1.362 . S
H2686 C2692 0.930 . S
H2687 C2695 0.930 . S
H2688 C2696 0.930 . S
H2689 C2697 0.930 . S
H2690 C2700 0.930 . S
H2691 C2701 0.930 . S
C2692 H2686 0.930 . S
C2692 C2693 1.355 . S
C2692 C2694 1.415 . S
C2693 C2692 1.355 . S
C2693 C2695 1.419 . S
C2694 C2692 1.415 . S
C2694 C2699 1.425 . S
C2694 C2701 1.409 . S
C2695 H2687 0.930 . S
C2695 C2693 1.419 . S
C2695 C2696 1.362 . S
C2696 H2688 0.930 . S
C2696 C2695 1.362 . S
C2696 C2699 1.409 . S
C2697 H2689 0.930 . S
C2697 C2698 1.355 . S
C2697 C2699 1.415 . S
C2698 C2697 1.355 . S
C2698 C2700 1.419 . S
C2699 C2694 1.425 . S
C2699 C2696 1.409 . S
C2699 C2697 1.415 . S
C2700 H2690 0.930 . S
C2700 C2698 1.419 . S
C2700 C2701 1.362 . S
C2701 H2691 0.930 . S
C2701 C2694 1.409 . S
C2701 C2700 1.362 . S
H2702 C2708 0.930 . S
H2703 C2711 0.930 . S
H2704 C2712 0.930 . S
H2705 C2713 0.930 . S
H2706 C2716 0.930 . S
H2707 C2717 0.930 . S
C2708 H2702 0.930 . S
C2708 C2709 1.355 . S
C2708 C2710 1.415 . S
C2709 C2708 1.355 . S
C2709 C2711 1.419 . S
C2710 C2708 1.415 . S
C2710 C2715 1.425 . S
C2710 C2717 1.409 . S
C2711 H2703 0.930 . S
C2711 C2709 1.419 . S
C2711 C2712 1.362 . S
C2712 H2704 0.930 . S
C2712 C2711 1.362 . S
C2712 C2715 1.409 . S
C2713 H2705 0.930 . S
C2713 C2714 1.355 . S
C2713 C2715 1.415 . S
C2714 C2713 1.355 . S
C2714 C2716 1.419 . S
C2715 C2710 1.425 . S
C2715 C2712 1.409 . S
C2715 C2713 1.415 . S
C2716 H2706 0.930 . S
C2716 C2714 1.419 . S
C2716 C2717 1.362 . S
C2717 H2707 0.930 . S
C2717 C2710 1.409 . S
C2717 C2716 1.362 . S
H2718 C2724 0.930 . S
H2719 C2727 0.930 . S
H2720 C2728 0.930 . S
H2721 C2729 0.930 . S
H2722 C2732 0.930 . S
H2723 C2733 0.930 . S
C2724 H2718 0.930 . S
C2724 C2725 1.355 . S
C2724 C2726 1.415 . S
C2725 C2724 1.355 . S
C2725 C2727 1.419 . S
C2726 C2724 1.415 . S
C2726 C2731 1.425 . S
C2726 C2733 1.409 . S
C2727 H2719 0.930 . S
C2727 C2725 1.419 . S
C2727 C2728 1.362 . S
C2728 H2720 0.930 . S
C2728 C2727 1.362 . S
C2728 C2731 1.409 . S
C2729 H2721 0.930 . S
C2729 C2730 1.355 . S
C2729 C2731 1.415 . S
C2730 C2729 1.355 . S
C2730 C2732 1.419 . S
C2731 C2726 1.425 . S
C2731 C2728 1.409 . S
C2731 C2729 1.415 . S
C2732 H2722 0.930 . S
C2732 C2730 1.419 . S
C2732 C2733 1.362 . S
C2733 H2723 0.930 . S
C2733 C2726 1.409 . S
C2733 C2732 1.362 . S
H2734 C2740 0.930 . S
H2735 C2743 0.930 . S
H2736 C2744 0.930 . S
H2737 C2745 0.930 . S
H2738 C2748 0.930 . S
H2739 C2749 0.930 . S
C2740 H2734 0.930 . S
C2740 C2741 1.355 . S
C2740 C2742 1.415 . S
C2741 C2740 1.355 . S
C2741 C2743 1.419 . S
C2742 C2740 1.415 . S
C2742 C2747 1.425 . S
C2742 C2749 1.409 . S
C2743 H2735 0.930 . S
C2743 C2741 1.419 . S
C2743 C2744 1.362 . S
C2744 H2736 0.930 . S
C2744 C2743 1.362 . S
C2744 C2747 1.409 . S
C2745 H2737 0.930 . S
C2745 C2746 1.355 . S
C2745 C2747 1.415 . S
C2746 C2745 1.355 . S
C2746 C2748 1.419 . S
C2747 C2742 1.425 . S
C2747 C2744 1.409 . S
C2747 C2745 1.415 . S
C2748 H2738 0.930 . S
C2748 C2746 1.419 . S
C2748 C2749 1.362 . S
C2749 H2739 0.930 . S
C2749 C2742 1.409 . S
C2749 C2748 1.362 . S
H2750 C2756 0.930 . S
H2751 C2759 0.930 . S
H2752 C2760 0.930 . S
H2753 C2761 0.930 . S
H2754 C2764 0.930 . S
H2755 C2765 0.930 . S
C2756 H2750 0.930 . S
C2756 C2757 1.355 . S
C2756 C2758 1.415 . S
C2757 C2756 1.355 . S
C2757 C2759 1.419 . S
C2758 C2756 1.415 . S
C2758 C2763 1.425 . S
C2758 C2765 1.409 . S
C2759 H2751 0.930 . S
C2759 C2757 1.419 . S
C2759 C2760 1.362 . S
C2760 H2752 0.930 . S
C2760 C2759 1.362 . S
C2760 C2763 1.409 . S
C2761 H2753 0.930 . S
C2761 C2762 1.355 . S
C2761 C2763 1.415 . S
C2762 C2761 1.355 . S
C2762 C2764 1.419 . S
C2763 C2758 1.425 . S
C2763 C2760 1.409 . S
C2763 C2761 1.415 . S
C2764 H2754 0.930 . S
C2764 C2762 1.419 . S
C2764 C2765 1.362 . S
C2765 H2755 0.930 . S
C2765 C2758 1.409 . S
C2765 C2764 1.362 . S
H2766 C2772 0.930 . S
H2767 C2775 0.930 . S
H2768 C2776 0.930 . S
H2769 C2777 0.930 . S
H2770 C2780 0.930 . S
H2771 C2781 0.930 . S
C2772 H2766 0.930 . S
C2772 C2773 1.355 . S
C2772 C2774 1.415 . S
C2773 C2772 1.355 . S
C2773 C2775 1.419 . S
C2774 C2772 1.415 . S
C2774 C2779 1.425 . S
C2774 C2781 1.409 . S
C2775 H2767 0.930 . S
C2775 C2773 1.419 . S
C2775 C2776 1.362 . S
C2776 H2768 0.930 . S
C2776 C2775 1.362 . S
C2776 C2779 1.409 . S
C2777 H2769 0.930 . S
C2777 C2778 1.355 . S
C2777 C2779 1.415 . S
C2778 C2777 1.355 . S
C2778 C2780 1.419 . S
C2779 C2774 1.425 . S
C2779 C2776 1.409 . S
C2779 C2777 1.415 . S
C2780 H2770 0.930 . S
C2780 C2778 1.419 . S
C2780 C2781 1.362 . S
C2781 H2771 0.930 . S
C2781 C2774 1.409 . S
C2781 C2780 1.362 . S
H2782 C2788 0.930 . S
H2783 C2791 0.930 . S
H2784 C2792 0.930 . S
H2785 C2793 0.930 . S
H2786 C2796 0.930 . S
H2787 C2797 0.930 . S
C2788 H2782 0.930 . S
C2788 C2789 1.355 . S
C2788 C2790 1.415 . S
C2789 C2788 1.355 . S
C2789 C2791 1.419 . S
C2790 C2788 1.415 . S
C2790 C2795 1.425 . S
C2790 C2797 1.409 . S
C2791 H2783 0.930 . S
C2791 C2789 1.419 . S
C2791 C2792 1.362 . S
C2792 H2784 0.930 . S
C2792 C2791 1.362 . S
C2792 C2795 1.409 . S
C2793 H2785 0.930 . S
C2793 C2794 1.355 . S
C2793 C2795 1.415 . S
C2794 C2793 1.355 . S
C2794 C2796 1.419 . S
C2795 C2790 1.425 . S
C2795 C2792 1.409 . S
C2795 C2793 1.415 . S
C2796 H2786 0.930 . S
C2796 C2794 1.419 . S
C2796 C2797 1.362 . S
C2797 H2787 0.930 . S
C2797 C2790 1.409 . S
C2797 C2796 1.362 . S
H2798 C2804 0.930 . S
H2799 C2807 0.930 . S
H2800 C2808 0.930 . S
H2801 C2809 0.930 . S
H2802 C2812 0.930 . S
H2803 C2813 0.930 . S
C2804 H2798 0.930 . S
C2804 C2805 1.355 . S
C2804 C2806 1.415 . S
C2805 C2804 1.355 . S
C2805 C2807 1.419 . S
C2806 C2804 1.415 . S
C2806 C2811 1.425 . S
C2806 C2813 1.409 . S
C2807 H2799 0.930 . S
C2807 C2805 1.419 . S
C2807 C2808 1.362 . S
C2808 H2800 0.930 . S
C2808 C2807 1.362 . S
C2808 C2811 1.409 . S
C2809 H2801 0.930 . S
C2809 C2810 1.355 . S
C2809 C2811 1.415 . S
C2810 C2809 1.355 . S
C2810 C2812 1.419 . S
C2811 C2806 1.425 . S
C2811 C2808 1.409 . S
C2811 C2809 1.415 . S
C2812 H2802 0.930 . S
C2812 C2810 1.419 . S
C2812 C2813 1.362 . S
C2813 H2803 0.930 . S
C2813 C2806 1.409 . S
C2813 C2812 1.362 . S
H2814 C2820 0.930 . S
H2815 C2823 0.930 . S
H2816 C2824 0.930 . S
H2817 C2825 0.930 . S
H2818 C2828 0.930 . S
H2819 C2829 0.930 . S
C2820 H2814 0.930 . S
C2820 C2821 1.355 . S
C2820 C2822 1.415 . S
C2821 C2820 1.355 . S
C2821 C2823 1.419 . S
C2822 C2820 1.415 . S
C2822 C2827 1.425 . S
C2822 C2829 1.409 . S
C2823 H2815 0.930 . S
C2823 C2821 1.419 . S
C2823 C2824 1.362 . S
C2824 H2816 0.930 . S
C2824 C2823 1.362 . S
C2824 C2827 1.409 . S
C2825 H2817 0.930 . S
C2825 C2826 1.355 . S
C2825 C2827 1.415 . S
C2826 C2825 1.355 . S
C2826 C2828 1.419 . S
C2827 C2822 1.425 . S
C2827 C2824 1.409 . S
C2827 C2825 1.415 . S
C2828 H2818 0.930 . S
C2828 C2826 1.419 . S
C2828 C2829 1.362 . S
C2829 H2819 0.930 . S
C2829 C2822 1.409 . S
C2829 C2828 1.362 . S
H2830 C2836 0.930 . S
H2831 C2839 0.930 . S
H2832 C2840 0.930 . S
H2833 C2841 0.930 . S
H2834 C2844 0.930 . S
H2835 C2845 0.930 . S
C2836 H2830 0.930 . S
C2836 C2837 1.355 . S
C2836 C2838 1.415 . S
C2837 C2836 1.355 . S
C2837 C2839 1.419 . S
C2838 C2836 1.415 . S
C2838 C2843 1.425 . S
C2838 C2845 1.409 . S
C2839 H2831 0.930 . S
C2839 C2837 1.419 . S
C2839 C2840 1.362 . S
C2840 H2832 0.930 . S
C2840 C2839 1.362 . S
C2840 C2843 1.409 . S
C2841 H2833 0.930 . S
C2841 C2842 1.355 . S
C2841 C2843 1.415 . S
C2842 C2841 1.355 . S
C2842 C2844 1.419 . S
C2843 C2838 1.425 . S
C2843 C2840 1.409 . S
C2843 C2841 1.415 . S
C2844 H2834 0.930 . S
C2844 C2842 1.419 . S
C2844 C2845 1.362 . S
C2845 H2835 0.930 . S
C2845 C2838 1.409 . S
C2845 C2844 1.362 . S
H2846 C2852 0.930 . S
H2847 C2855 0.930 . S
H2848 C2856 0.930 . S
H2849 C2857 0.930 . S
H2850 C2860 0.930 . S
H2851 C2861 0.930 . S
C2852 H2846 0.930 . S
C2852 C2853 1.355 . S
C2852 C2854 1.415 . S
C2853 C2852 1.355 . S
C2853 C2855 1.419 . S
C2854 C2852 1.415 . S
C2854 C2859 1.425 . S
C2854 C2861 1.409 . S
C2855 H2847 0.930 . S
C2855 C2853 1.419 . S
C2855 C2856 1.362 . S
C2856 H2848 0.930 . S
C2856 C2855 1.362 . S
C2856 C2859 1.409 . S
C2857 H2849 0.930 . S
C2857 C2858 1.355 . S
C2857 C2859 1.415 . S
C2858 C2857 1.355 . S
C2858 C2860 1.419 . S
C2859 C2854 1.425 . S
C2859 C2856 1.409 . S
C2859 C2857 1.415 . S
C2860 H2850 0.930 . S
C2860 C2858 1.419 . S
C2860 C2861 1.362 . S
C2861 H2851 0.930 . S
C2861 C2854 1.409 . S
C2861 C2860 1.362 . S
H2862 C2868 0.930 . S
H2863 C2871 0.930 . S
H2864 C2872 0.930 . S
H2865 C2873 0.930 . S
H2866 C2876 0.930 . S
H2867 C2877 0.930 . S
C2868 H2862 0.930 . S
C2868 C2869 1.355 . S
C2868 C2870 1.415 . S
C2869 C2868 1.355 . S
C2869 C2871 1.419 . S
C2870 C2868 1.415 . S
C2870 C2875 1.425 . S
C2870 C2877 1.409 . S
C2871 H2863 0.930 . S
C2871 C2869 1.419 . S
C2871 C2872 1.362 . S
C2872 H2864 0.930 . S
C2872 C2871 1.362 . S
C2872 C2875 1.409 . S
C2873 H2865 0.930 . S
C2873 C2874 1.355 . S
C2873 C2875 1.415 . S
C2874 C2873 1.355 . S
C2874 C2876 1.419 . S
C2875 C2870 1.425 . S
C2875 C2872 1.409 . S
C2875 C2873 1.415 . S
C2876 H2866 0.930 . S
C2876 C2874 1.419 . S
C2876 C2877 1.362 . S
C2877 H2867 0.930 . S
C2877 C2870 1.409 . S
C2877 C2876 1.362 . S
H2878 C2884 0.930 . S
H2879 C2887 0.930 . S
H2880 C2888 0.930 . S
H2881 C2889 0.930 . S
H2882 C2892 0.930 . S
H2883 C2893 0.930 . S
C2884 H2878 0.930 . S
C2884 C2885 1.355 . S
C2884 C2886 1.415 . S
C2885 C2884 1.355 . S
C2885 C2887 1.419 . S
C2886 C2884 1.415 . S
C2886 C2891 1.425 . S
C2886 C2893 1.409 . S
C2887 H2879 0.930 . S
C2887 C2885 1.419 . S
C2887 C2888 1.362 . S
C2888 H2880 0.930 . S
C2888 C2887 1.362 . S
C2888 C2891 1.409 . S
C2889 H2881 0.930 . S
C2889 C2890 1.355 . S
C2889 C2891 1.415 . S
C2890 C2889 1.355 . S
C2890 C2892 1.419 . S
C2891 C2886 1.425 . S
C2891 C2888 1.409 . S
C2891 C2889 1.415 . S
C2892 H2882 0.930 . S
C2892 C2890 1.419 . S
C2892 C2893 1.362 . S
C2893 H2883 0.930 . S
C2893 C2886 1.409 . S
C2893 C2892 1.362 . S
H2894 C2900 0.930 . S
H2895 C2903 0.930 1_545 S
H2896 C2904 0.989 . S
H2897 C2905 0.930 . S
H2898 C2908 0.930 . S
H2899 C2909 0.930 . S
C2900 H2894 0.930 . S
C2900 C2901 1.355 . S
C2900 C2902 1.415 . S
C2901 C2900 1.355 . S
C2901 C2903 1.419 . S
C2902 C2900 1.415 . S
C2902 C2907 1.425 . S
C2902 C2909 1.409 . S
C2903 H2895 0.930 1_565 S
C2903 C2901 1.419 . S
C2903 C2904 1.362 . S
C2904 H2896 0.989 . S
C2904 C2903 1.362 . S
C2904 C2907 1.409 . S
C2905 H2897 0.930 . S
C2905 C2906 1.355 . S
C2905 C2907 1.415 . S
C2906 C2905 1.355 . S
C2906 C2908 1.419 . S
C2907 C2902 1.425 . S
C2907 C2904 1.409 . S
C2907 C2905 1.415 . S
C2908 H2898 0.930 . S
C2908 C2906 1.419 . S
C2908 C2909 1.362 . S
C2909 H2899 0.930 . S
C2909 C2902 1.409 . S
C2909 C2908 1.362 . S
H2910 C2916 0.930 . S
H2911 C2919 0.930 . S
H2912 C2920 0.930 . S
H2913 C2921 0.930 . S
H2914 C2924 0.930 . S
H2915 C2925 0.930 . S
C2916 H2910 0.930 . S
C2916 C2917 1.355 . S
C2916 C2918 1.415 . S
C2917 C2916 1.355 . S
C2917 C2919 1.419 . S
C2918 C2916 1.415 . S
C2918 C2923 1.425 . S
C2918 C2925 1.409 . S
C2919 H2911 0.930 . S
C2919 C2917 1.419 . S
C2919 C2920 1.362 . S
C2920 H2912 0.930 . S
C2920 C2919 1.362 . S
C2920 C2923 1.409 . S
C2921 H2913 0.930 . S
C2921 C2922 1.355 . S
C2921 C2923 1.415 . S
C2922 C2921 1.355 . S
C2922 C2924 1.419 . S
C2923 C2918 1.425 . S
C2923 C2920 1.409 . S
C2923 C2921 1.415 . S
C2924 H2914 0.930 . S
C2924 C2922 1.419 . S
C2924 C2925 1.362 . S
C2925 H2915 0.930 . S
C2925 C2918 1.409 . S
C2925 C2924 1.362 . S
H2926 C2932 0.930 . S
H2927 C2935 0.930 . S
H2928 C2936 0.930 . S
H2929 C2937 0.930 . S
H2930 C2940 0.930 . S
H2931 C2941 0.930 . S
C2932 H2926 0.930 . S
C2932 C2933 1.355 . S
C2932 C2934 1.415 . S
C2933 C2932 1.355 . S
C2933 C2935 1.419 . S
C2934 C2932 1.415 . S
C2934 C2939 1.425 . S
C2934 C2941 1.409 . S
C2935 H2927 0.930 . S
C2935 C2933 1.419 . S
C2935 C2936 1.362 . S
C2936 H2928 0.930 . S
C2936 C2935 1.362 . S
C2936 C2939 1.409 . S
C2937 H2929 0.930 . S
C2937 C2938 1.355 . S
C2937 C2939 1.415 . S
C2938 C2937 1.355 . S
C2938 C2940 1.419 . S
C2939 C2934 1.425 . S
C2939 C2936 1.409 . S
C2939 C2937 1.415 . S
C2940 H2930 0.930 . S
C2940 C2938 1.419 . S
C2940 C2941 1.362 . S
C2941 H2931 0.930 . S
C2941 C2934 1.409 . S
C2941 C2940 1.362 . S
H2942 C2948 0.930 1_554 S
H2943 C2951 0.930 . S
H2944 C2952 0.930 . S
H2945 C2953 0.930 . S
H2946 C2956 0.930 . S
H2947 C2957 0.930 1_554 S
C2948 H2942 0.930 1_556 S
C2948 C2949 1.355 . S
C2948 C2950 1.415 . S
C2949 C2948 1.355 . S
C2949 C2951 1.419 . S
C2950 C2948 1.415 . S
C2950 C2955 1.425 . S
C2950 C2957 1.409 . S
C2951 H2943 0.930 . S
C2951 C2949 1.419 . S
C2951 C2952 1.362 . S
C2952 H2944 0.930 . S
C2952 C2951 1.362 . S
C2952 C2955 1.409 . S
C2953 H2945 0.930 . S
C2953 C2954 1.355 . S
C2953 C2955 1.415 . S
C2954 C2953 1.355 . S
C2954 C2956 1.419 . S
C2955 C2950 1.425 . S
C2955 C2952 1.409 . S
C2955 C2953 1.415 . S
C2956 H2946 0.930 . S
C2956 C2954 1.419 . S
C2956 C2957 1.362 . S
C2957 H2947 0.930 1_556 S
C2957 C2950 1.409 . S
C2957 C2956 1.362 . S
H2958 C2964 0.930 . S
H2959 C2967 0.930 . S
H2960 C2968 0.930 . S
H2961 C2969 0.930 . S
H2962 C2972 0.930 . S
H2963 C2973 0.930 . S
C2964 H2958 0.930 . S
C2964 C2965 1.355 . S
C2964 C2966 1.415 . S
C2965 C2964 1.355 . S
C2965 C2967 1.419 . S
C2966 C2964 1.415 . S
C2966 C2971 1.425 . S
C2966 C2973 1.409 . S
C2967 H2959 0.930 . S
C2967 C2965 1.419 . S
C2967 C2968 1.362 . S
C2968 H2960 0.930 . S
C2968 C2967 1.362 . S
C2968 C2971 1.409 . S
C2969 H2961 0.930 . S
C2969 C2970 1.355 . S
C2969 C2971 1.415 . S
C2970 C2969 1.355 . S
C2970 C2972 1.419 . S
C2971 C2966 1.425 . S
C2971 C2968 1.409 . S
C2971 C2969 1.415 . S
C2972 H2962 0.930 . S
C2972 C2970 1.419 . S
C2972 C2973 1.362 . S
C2973 H2963 0.930 . S
C2973 C2966 1.409 . S
C2973 C2972 1.362 . S
H2974 C2980 0.930 . S
H2975 C2983 0.930 . S
H2976 C2984 0.930 . S
H2977 C2985 0.930 . S
H2978 C2988 0.930 . S
H2979 C2989 0.930 . S
C2980 H2974 0.930 . S
C2980 C2981 1.355 . S
C2980 C2982 1.415 . S
C2981 C2980 1.355 . S
C2981 C2983 1.419 . S
C2982 C2980 1.415 . S
C2982 C2987 1.425 . S
C2982 C2989 1.409 . S
C2983 H2975 0.930 . S
C2983 C2981 1.419 . S
C2983 C2984 1.362 . S
C2984 H2976 0.930 . S
C2984 C2983 1.362 . S
C2984 C2987 1.409 . S
C2985 H2977 0.930 . S
C2985 C2986 1.355 . S
C2985 C2987 1.415 . S
C2986 C2985 1.355 . S
C2986 C2988 1.419 . S
C2987 C2982 1.425 . S
C2987 C2984 1.409 . S
C2987 C2985 1.415 . S
C2988 H2978 0.930 . S
C2988 C2986 1.419 . S
C2988 C2989 1.362 . S
C2989 H2979 0.930 . S
C2989 C2982 1.409 . S
C2989 C2988 1.362 . S
H2990 C2996 0.930 . S
H2991 C2999 0.930 . S
H2992 C3000 0.930 1_554 S
H2993 C3001 0.930 . S
H2994 C3004 0.930 . S
H2995 C3005 0.930 . S
C2996 H2990 0.930 . S
C2996 C2997 1.355 . S
C2996 C2998 1.415 . S
C2997 C2996 1.355 . S
C2997 C2999 1.419 1_556 S
C2998 C2996 1.415 . S
C2998 C3003 1.425 . S
C2998 C3005 1.409 . S
C2999 H2991 0.930 . S
C2999 C2997 1.419 1_554 S
C2999 C3000 1.362 1_554 S
C3000 H2992 0.930 1_556 S
C3000 C2999 1.362 1_556 S
C3000 C3003 1.409 . S
C3001 H2993 0.930 . S
C3001 C3002 1.355 . S
C3001 C3003 1.415 . S
C3002 C3001 1.355 . S
C3002 C3004 1.419 . S
C3003 C2998 1.425 . S
C3003 C3000 1.409 . S
C3003 C3001 1.415 . S
C3004 H2994 0.930 . S
C3004 C3002 1.419 . S
C3004 C3005 1.362 . S
C3005 H2995 0.930 . S
C3005 C2998 1.409 . S
C3005 C3004 1.362 . S
H3006 C3012 0.930 . S
H3007 C3015 0.930 . S
H3008 C3016 0.930 . S
H3009 C3017 0.930 . S
H3010 C3020 0.930 . S
H3011 C3021 0.930 . S
C3012 H3006 0.930 . S
C3012 C3013 1.355 . S
C3012 C3014 1.415 . S
C3013 C3012 1.355 . S
C3013 C3015 1.419 . S
C3014 C3012 1.415 . S
C3014 C3019 1.425 . S
C3014 C3021 1.409 . S
C3015 H3007 0.930 . S
C3015 C3013 1.419 . S
C3015 C3016 1.362 . S
C3016 H3008 0.930 . S
C3016 C3015 1.362 . S
C3016 C3019 1.409 . S
C3017 H3009 0.930 . S
C3017 C3018 1.355 . S
C3017 C3019 1.415 . S
C3018 C3017 1.355 . S
C3018 C3020 1.419 . S
C3019 C3014 1.425 . S
C3019 C3016 1.409 . S
C3019 C3017 1.415 . S
C3020 H3010 0.930 . S
C3020 C3018 1.419 . S
C3020 C3021 1.362 . S
C3021 H3011 0.930 . S
C3021 C3014 1.409 . S
C3021 C3020 1.362 . S
H3022 C3028 0.930 . S
H3023 C3031 0.930 . S
H3024 C3032 0.930 . S
H3025 C3033 0.930 . S
H3026 C3036 0.930 . S
H3027 C3037 0.930 . S
C3028 H3022 0.930 . S
C3028 C3029 1.355 . S
C3028 C3030 1.415 . S
C3029 C3028 1.355 . S
C3029 C3031 1.419 . S
C3030 C3028 1.415 . S
C3030 C3035 1.425 . S
C3030 C3037 1.409 . S
C3031 H3023 0.930 . S
C3031 C3029 1.419 . S
C3031 C3032 1.362 . S
C3032 H3024 0.930 . S
C3032 C3031 1.362 . S
C3032 C3035 1.409 . S
C3033 H3025 0.930 . S
C3033 C3034 1.355 . S
C3033 C3035 1.415 . S
C3034 C3033 1.355 . S
C3034 C3036 1.419 . S
C3035 C3030 1.425 . S
C3035 C3032 1.409 . S
C3035 C3033 1.415 . S
C3036 H3026 0.930 . S
C3036 C3034 1.419 . S
C3036 C3037 1.362 . S
C3037 H3027 0.930 . S
C3037 C3030 1.409 . S
C3037 C3036 1.362 . S
H3038 C3044 0.930 . S
H3039 C3047 0.930 . S
H3040 C3048 0.930 . S
H3041 C3049 0.930 . S
H3042 C3052 0.930 . S
H3043 C3053 0.930 . S
C3044 H3038 0.930 . S
C3044 C3045 1.355 . S
C3044 C3046 1.415 . S
C3045 C3044 1.355 . S
C3045 C3047 1.419 . S
C3046 C3044 1.415 . S
C3046 C3051 1.425 . S
C3046 C3053 1.409 . S
C3047 H3039 0.930 . S
C3047 C3045 1.419 . S
C3047 C3048 1.362 . S
C3048 H3040 0.930 . S
C3048 C3047 1.362 . S
C3048 C3051 1.409 . S
C3049 H3041 0.930 . S
C3049 C3050 1.355 . S
C3049 C3051 1.415 . S
C3050 C3049 1.355 . S
C3050 C3052 1.419 . S
C3051 C3046 1.425 . S
C3051 C3048 1.409 . S
C3051 C3049 1.415 . S
C3052 H3042 0.930 . S
C3052 C3050 1.419 . S
C3052 C3053 1.362 . S
C3053 H3043 0.930 . S
C3053 C3046 1.409 . S
C3053 C3052 1.362 . S
H3054 C3060 0.930 . S
H3055 C3063 0.930 . S
H3056 C3064 0.930 . S
H3057 C3065 0.930 . S
H3058 C3068 0.930 . S
H3059 C3069 0.930 . S
C3060 H3054 0.930 . S
C3060 C3061 1.355 . S
C3060 C3062 1.415 . S
C3061 C3060 1.355 . S
C3061 C3063 1.419 . S
C3062 C3060 1.415 . S
C3062 C3067 1.425 . S
C3062 C3069 1.409 . S
C3063 H3055 0.930 . S
C3063 C3061 1.419 . S
C3063 C3064 1.362 . S
C3064 H3056 0.930 . S
C3064 C3063 1.362 . S
C3064 C3067 1.409 . S
C3065 H3057 0.930 . S
C3065 C3066 1.355 . S
C3065 C3067 1.415 . S
C3066 C3065 1.355 . S
C3066 C3068 1.419 . S
C3067 C3062 1.425 . S
C3067 C3064 1.409 . S
C3067 C3065 1.415 . S
C3068 H3058 0.930 . S
C3068 C3066 1.419 . S
C3068 C3069 1.362 . S
C3069 H3059 0.930 . S
C3069 C3062 1.409 . S
C3069 C3068 1.362 . S
H3070 C3076 0.930 . S
H3071 C3079 0.930 . S
H3072 C3080 0.930 . S
H3073 C3081 0.930 . S
H3074 C3084 0.930 . S
H3075 C3085 0.930 . S
C3076 H3070 0.930 . S
C3076 C3077 1.355 . S
C3076 C3078 1.415 . S
C3077 C3076 1.355 . S
C3077 C3079 1.419 . S
C3078 C3076 1.415 . S
C3078 C3083 1.425 . S
C3078 C3085 1.409 . S
C3079 H3071 0.930 . S
C3079 C3077 1.419 . S
C3079 C3080 1.362 . S
C3080 H3072 0.930 . S
C3080 C3079 1.362 . S
C3080 C3083 1.409 . S
C3081 H3073 0.930 . S
C3081 C3082 1.355 . S
C3081 C3083 1.415 . S
C3082 C3081 1.355 . S
C3082 C3084 1.419 . S
C3083 C3078 1.425 . S
C3083 C3080 1.409 . S
C3083 C3081 1.415 . S
C3084 H3074 0.930 . S
C3084 C3082 1.419 . S
C3084 C3085 1.362 . S
C3085 H3075 0.930 . S
C3085 C3078 1.409 . S
C3085 C3084 1.362 . S
H3086 C3092 0.930 . S
H3087 C3095 0.930 . S
H3088 C3096 0.930 . S
H3089 C3097 0.930 . S
H3090 C3100 0.930 . S
H3091 C3101 0.930 . S
C3092 H3086 0.930 . S
C3092 C3093 1.355 . S
C3092 C3094 1.415 . S
C3093 C3092 1.355 . S
C3093 C3095 1.419 . S
C3094 C3092 1.415 . S
C3094 C3099 1.425 . S
C3094 C3101 1.409 . S
C3095 H3087 0.930 . S
C3095 C3093 1.419 . S
C3095 C3096 1.362 . S
C3096 H3088 0.930 . S
C3096 C3095 1.362 . S
C3096 C3099 1.409 . S
C3097 H3089 0.930 . S
C3097 C3098 1.355 . S
C3097 C3099 1.415 . S
C3098 C3097 1.355 . S
C3098 C3100 1.419 . S
C3099 C3094 1.425 . S
C3099 C3096 1.409 . S
C3099 C3097 1.415 . S
C3100 H3090 0.930 . S
C3100 C3098 1.419 . S
C3100 C3101 1.362 . S
C3101 H3091 0.930 . S
C3101 C3094 1.409 . S
C3101 C3100 1.362 . S
H3102 C3108 0.930 1_655 S
H3103 C3111 0.930 . S
H3104 C3112 0.930 . S
H3105 C3113 0.930 . S
H3106 C3116 0.930 . S
H3107 C3117 0.930 . S
C3108 H3102 0.930 1_455 S
C3108 C3109 1.355 . S
C3108 C3110 1.415 . S
C3109 C3108 1.355 . S
C3109 C3111 1.419 . S
C3110 C3108 1.415 . S
C3110 C3115 1.425 . S
C3110 C3117 1.409 1_455 S
C3111 H3103 0.930 . S
C3111 C3109 1.419 . S
C3111 C3112 1.362 . S
C3112 H3104 0.930 . S
C3112 C3111 1.362 . S
C3112 C3115 1.409 . S
C3113 H3105 0.930 . S
C3113 C3114 1.355 . S
C3113 C3115 1.415 . S
C3114 C3113 1.355 . S
C3114 C3116 1.419 1_455 S
C3115 C3110 1.425 . S
C3115 C3112 1.409 . S
C3115 C3113 1.415 . S
C3116 H3106 0.930 . S
C3116 C3114 1.419 1_655 S
C3116 C3117 1.362 . S
C3117 H3107 0.930 . S
C3117 C3110 1.409 1_655 S
C3117 C3116 1.362 . S
H3118 C3124 0.930 . S
H3119 C3127 0.930 . S
H3120 C3128 0.930 . S
H3121 C3129 0.930 . S
H3122 C3132 0.930 . S
H3123 C3133 0.930 . S
C3124 H3118 0.930 . S
C3124 C3125 1.355 . S
C3124 C3126 1.415 . S
C3125 C3124 1.355 . S
C3125 C3127 1.419 . S
C3126 C3124 1.415 . S
C3126 C3131 1.425 . S
C3126 C3133 1.409 . S
C3127 H3119 0.930 . S
C3127 C3125 1.419 . S
C3127 C3128 1.362 . S
C3128 H3120 0.930 . S
C3128 C3127 1.362 . S
C3128 C3131 1.409 . S
C3129 H3121 0.930 . S
C3129 C3130 1.355 . S
C3129 C3131 1.415 . S
C3130 C3129 1.355 . S
C3130 C3132 1.419 . S
C3131 C3126 1.425 . S
C3131 C3128 1.409 . S
C3131 C3129 1.415 . S
C3132 H3122 0.930 . S
C3132 C3130 1.419 . S
C3132 C3133 1.362 . S
C3133 H3123 0.930 . S
C3133 C3126 1.409 . S
C3133 C3132 1.362 . S
H3134 C3140 0.930 . S
H3135 C3143 0.964 . S
H3136 C3144 0.930 . S
H3137 C3145 0.923 1_545 S
H3138 C3148 0.930 . S
H3139 C3149 0.930 . S
C3140 H3134 0.930 . S
C3140 C3141 1.355 . S
C3140 C3142 1.415 . S
C3141 C3140 1.355 . S
C3141 C3143 1.408 1_565 S
C3142 C3140 1.415 . S
C3142 C3147 1.425 . S
C3142 C3149 1.409 . S
C3143 H3135 0.964 . S
C3143 C3141 1.408 1_545 S
C3143 C3144 1.344 . S
C3144 H3136 0.930 . S
C3144 C3143 1.344 . S
C3144 C3147 1.409 1_545 S
C3145 H3137 0.923 1_565 S
C3145 C3146 1.372 . S
C3145 C3147 1.405 . S
C3146 C3145 1.372 . S
C3146 C3148 1.419 . S
C3147 C3142 1.425 . S
C3147 C3144 1.409 1_565 S
C3147 C3145 1.405 . S
C3148 H3138 0.930 . S
C3148 C3146 1.419 . S
C3148 C3149 1.362 . S
C3149 H3139 0.930 . S
C3149 C3142 1.409 . S
C3149 C3148 1.362 . S
H3150 C3156 0.930 . S
H3151 C3159 0.930 . S
H3152 C3160 0.930 . S
H3153 C3161 0.930 . S
H3154 C3164 0.930 . S
H3155 C3165 0.930 . S
C3156 H3150 0.930 . S
C3156 C3157 1.355 . S
C3156 C3158 1.415 . S
C3157 C3156 1.355 . S
C3157 C3159 1.419 . S
C3158 C3156 1.415 . S
C3158 C3163 1.425 . S
C3158 C3165 1.409 . S
C3159 H3151 0.930 . S
C3159 C3157 1.419 . S
C3159 C3160 1.362 . S
C3160 H3152 0.930 . S
C3160 C3159 1.362 . S
C3160 C3163 1.409 . S
C3161 H3153 0.930 . S
C3161 C3162 1.355 . S
C3161 C3163 1.415 . S
C3162 C3161 1.355 . S
C3162 C3164 1.419 . S
C3163 C3158 1.425 . S
C3163 C3160 1.409 . S
C3163 C3161 1.415 . S
C3164 H3154 0.930 . S
C3164 C3162 1.419 . S
C3164 C3165 1.362 . S
C3165 H3155 0.930 . S
C3165 C3158 1.409 . S
C3165 C3164 1.362 . S
H3166 C3172 0.930 . S
H3167 C3175 0.930 . S
H3168 C3176 0.930 . S
H3169 C3177 0.930 . S
H3170 C3180 0.930 . S
H3171 C3181 0.930 . S
C3172 H3166 0.930 . S
C3172 C3173 1.355 . S
C3172 C3174 1.415 . S
C3173 C3172 1.355 . S
C3173 C3175 1.419 1_455 S
C3174 C3172 1.415 . S
C3174 C3179 1.425 1_455 S
C3174 C3181 1.409 . S
C3175 H3167 0.930 . S
C3175 C3173 1.419 1_655 S
C3175 C3176 1.362 . S
C3176 H3168 0.930 . S
C3176 C3175 1.362 . S
C3176 C3179 1.409 . S
C3177 H3169 0.930 . S
C3177 C3178 1.294 1_655 S
C3177 C3179 1.415 . S
C3178 C3177 1.294 1_455 S
C3178 C3180 1.471 . S
C3179 C3174 1.425 1_655 S
C3179 C3176 1.409 . S
C3179 C3177 1.415 . S
C3180 H3170 0.930 . S
C3180 C3178 1.471 . S
C3180 C3181 1.362 . S
C3181 H3171 0.930 . S
C3181 C3174 1.409 . S
C3181 C3180 1.362 . S
H3182 C3188 0.930 . S
H3183 C3191 0.930 . S
H3184 C3192 0.930 . S
H3185 C3193 0.930 . S
H3186 C3196 0.930 . S
H3187 C3197 0.930 . S
C3188 H3182 0.930 . S
C3188 C3189 1.355 . S
C3188 C3190 1.415 . S
C3189 C3188 1.355 . S
C3189 C3191 1.419 . S
C3190 C3188 1.415 . S
C3190 C3195 1.425 . S
C3190 C3197 1.409 . S
C3191 H3183 0.930 . S
C3191 C3189 1.419 . S
C3191 C3192 1.362 . S
C3192 H3184 0.930 . S
C3192 C3191 1.362 . S
C3192 C3195 1.409 . S
C3193 H3185 0.930 . S
C3193 C3194 1.355 . S
C3193 C3195 1.415 . S
C3194 C3193 1.355 . S
C3194 C3196 1.419 . S
C3195 C3190 1.425 . S
C3195 C3192 1.409 . S
C3195 C3193 1.415 . S
C3196 H3186 0.930 . S
C3196 C3194 1.419 . S
C3196 C3197 1.362 . S
C3197 H3187 0.930 . S
C3197 C3190 1.409 . S
C3197 C3196 1.362 . S
H3198 C3204 0.930 . S
H3199 C3207 0.930 . S
H3200 C3208 0.930 . S
H3201 C3209 0.930 . S
H3202 C3212 0.930 . S
H3203 C3213 0.930 . S
C3204 H3198 0.930 . S
C3204 C3205 1.355 . S
C3204 C3206 1.415 . S
C3205 C3204 1.355 . S
C3205 C3207 1.419 . S
C3206 C3204 1.415 . S
C3206 C3211 1.425 . S
C3206 C3213 1.409 . S
C3207 H3199 0.930 . S
C3207 C3205 1.419 . S
C3207 C3208 1.362 . S
C3208 H3200 0.930 . S
C3208 C3207 1.362 . S
C3208 C3211 1.409 . S
C3209 H3201 0.930 . S
C3209 C3210 1.355 . S
C3209 C3211 1.415 . S
C3210 C3209 1.355 . S
C3210 C3212 1.419 . S
C3211 C3206 1.425 . S
C3211 C3208 1.409 . S
C3211 C3209 1.415 . S
C3212 H3202 0.930 . S
C3212 C3210 1.419 . S
C3212 C3213 1.362 . S
C3213 H3203 0.930 . S
C3213 C3206 1.409 . S
C3213 C3212 1.362 . S
H3214 C3220 0.930 . S
H3215 C3223 0.930 . S
H3216 C3224 0.930 . S
H3217 C3225 0.930 . S
H3218 C3228 0.930 . S
H3219 C3229 0.930 . S
C3220 H3214 0.930 . S
C3220 C3221 1.355 . S
C3220 C3222 1.415 . S
C3221 C3220 1.355 . S
C3221 C3223 1.419 . S
C3222 C3220 1.415 . S
C3222 C3227 1.425 . S
C3222 C3229 1.409 . S
C3223 H3215 0.930 . S
C3223 C3221 1.419 . S
C3223 C3224 1.362 . S
C3224 H3216 0.930 . S
C3224 C3223 1.362 . S
C3224 C3227 1.409 . S
C3225 H3217 0.930 . S
C3225 C3226 1.355 . S
C3225 C3227 1.415 . S
C3226 C3225 1.355 . S
C3226 C3228 1.419 . S
C3227 C3222 1.425 . S
C3227 C3224 1.409 . S
C3227 C3225 1.415 . S
C3228 H3218 0.930 . S
C3228 C3226 1.419 . S
C3228 C3229 1.362 . S
C3229 H3219 0.930 . S
C3229 C3222 1.409 . S
C3229 C3228 1.362 . S
H3230 C3236 0.930 . S
H3231 C3239 0.930 . S
H3232 C3240 0.930 . S
H3233 C3241 0.930 . S
H3234 C3244 0.930 . S
H3235 C3245 0.930 . S
C3236 H3230 0.930 . S
C3236 C3237 1.355 . S
C3236 C3238 1.415 . S
C3237 C3236 1.355 . S
C3237 C3239 1.419 . S
C3238 C3236 1.415 . S
C3238 C3243 1.425 . S
C3238 C3245 1.409 . S
C3239 H3231 0.930 . S
C3239 C3237 1.419 . S
C3239 C3240 1.362 . S
C3240 H3232 0.930 . S
C3240 C3239 1.362 . S
C3240 C3243 1.409 . S
C3241 H3233 0.930 . S
C3241 C3242 1.355 . S
C3241 C3243 1.415 . S
C3242 C3241 1.355 . S
C3242 C3244 1.419 . S
C3243 C3238 1.425 . S
C3243 C3240 1.409 . S
C3243 C3241 1.415 . S
C3244 H3234 0.930 . S
C3244 C3242 1.419 . S
C3244 C3245 1.362 . S
C3245 H3235 0.930 . S
C3245 C3238 1.409 . S
C3245 C3244 1.362 . S
H3246 C3252 0.930 . S
H3247 C3255 0.930 . S
H3248 C3256 0.930 . S
H3249 C3257 0.982 . S
H3250 C3260 0.930 . S
H3251 C3261 0.930 . S
C3252 H3246 0.930 . S
C3252 C3253 1.355 . S
C3252 C3254 1.415 . S
C3253 C3252 1.355 . S
C3253 C3255 1.419 1_545 S
C3254 C3252 1.415 . S
C3254 C3259 1.425 . S
C3254 C3261 1.409 . S
C3255 H3247 0.930 . S
C3255 C3253 1.419 1_565 S
C3255 C3256 1.362 . S
C3256 H3248 0.930 . S
C3256 C3255 1.362 . S
C3256 C3259 1.409 1_565 S
C3257 H3249 0.982 . S
C3257 C3258 1.340 1_565 S
C3257 C3259 1.379 1_565 S
C3258 C3257 1.340 1_545 S
C3258 C3260 1.419 . S
C3259 C3254 1.425 . S
C3259 C3256 1.409 1_545 S
C3259 C3257 1.379 1_545 S
C3260 H3250 0.930 . S
C3260 C3258 1.419 . S
C3260 C3261 1.362 . S
C3261 H3251 0.930 . S
C3261 C3254 1.409 . S
C3261 C3260 1.362 . S
H3262 C3268 0.930 . S
H3263 C3271 0.915 1_455 S
H3264 C3272 0.930 . S
H3265 C3273 0.930 1_455 S
H3266 C3276 0.930 . S
H3267 C3277 0.930 . S
C3268 H3262 0.930 . S
C3268 C3269 1.355 . S
C3268 C3270 1.415 . S
C3269 C3268 1.355 . S
C3269 C3271 1.428 . S
C3270 C3268 1.415 . S
C3270 C3275 1.425 . S
C3270 C3277 1.409 . S
C3271 H3263 0.915 1_655 S
C3271 C3269 1.428 . S
C3271 C3272 1.368 1_655 S
C3272 H3264 0.930 . S
C3272 C3271 1.368 1_455 S
C3272 C3275 1.409 1_455 S
C3273 H3265 0.930 1_655 S
C3273 C3274 1.355 . S
C3273 C3275 1.415 . S
C3274 C3273 1.355 . S
C3274 C3276 1.419 . S
C3275 C3270 1.425 . S
C3275 C3272 1.409 1_655 S
C3275 C3273 1.415 . S
C3276 H3266 0.930 . S
C3276 C3274 1.419 . S
C3276 C3277 1.362 . S
C3277 H3267 0.930 . S
C3277 C3270 1.409 . S
C3277 C3276 1.362 . S
H3278 C3284 0.930 . S
H3279 C3287 0.930 . S
H3280 C3288 0.930 . S
H3281 C3289 0.930 . S
H3282 C3292 0.930 . S
H3283 C3293 0.930 . S
C3284 H3278 0.930 . S
C3284 C3285 1.355 . S
C3284 C3286 1.415 . S
C3285 C3284 1.355 . S
C3285 C3287 1.419 . S
C3286 C3284 1.415 . S
C3286 C3291 1.425 . S
C3286 C3293 1.409 . S
C3287 H3279 0.930 . S
C3287 C3285 1.419 . S
C3287 C3288 1.362 . S
C3288 H3280 0.930 . S
C3288 C3287 1.362 . S
C3288 C3291 1.409 . S
C3289 H3281 0.930 . S
C3289 C3290 1.355 . S
C3289 C3291 1.415 . S
C3290 C3289 1.355 . S
C3290 C3292 1.419 . S
C3291 C3286 1.425 . S
C3291 C3288 1.409 . S
C3291 C3289 1.415 . S
C3292 H3282 0.930 . S
C3292 C3290 1.419 . S
C3292 C3293 1.362 . S
C3293 H3283 0.930 . S
C3293 C3286 1.409 . S
C3293 C3292 1.362 . S
H3294 C3300 0.930 . S
H3295 C3303 0.930 . S
H3296 C3304 0.930 . S
H3297 C3305 0.930 . S
H3298 C3308 0.930 . S
H3299 C3309 0.930 . S
C3300 H3294 0.930 . S
C3300 C3301 1.355 . S
C3300 C3302 1.415 . S
C3301 C3300 1.355 . S
C3301 C3303 1.419 . S
C3302 C3300 1.415 . S
C3302 C3307 1.425 . S
C3302 C3309 1.409 . S
C3303 H3295 0.930 . S
C3303 C3301 1.419 . S
C3303 C3304 1.362 . S
C3304 H3296 0.930 . S
C3304 C3303 1.362 . S
C3304 C3307 1.409 . S
C3305 H3297 0.930 . S
C3305 C3306 1.355 . S
C3305 C3307 1.415 . S
C3306 C3305 1.355 . S
C3306 C3308 1.419 . S
C3307 C3302 1.425 . S
C3307 C3304 1.409 . S
C3307 C3305 1.415 . S
C3308 H3298 0.930 . S
C3308 C3306 1.419 . S
C3308 C3309 1.362 . S
C3309 H3299 0.930 . S
C3309 C3302 1.409 . S
C3309 C3308 1.362 . S
H3310 C3316 0.930 . S
H3311 C3319 0.930 . S
H3312 C3320 0.930 . S
H3313 C3321 0.930 . S
H3314 C3324 0.930 . S
H3315 C3325 0.930 . S
C3316 H3310 0.930 . S
C3316 C3317 1.355 . S
C3316 C3318 1.415 . S
C3317 C3316 1.355 . S
C3317 C3319 1.419 . S
C3318 C3316 1.415 . S
C3318 C3323 1.425 . S
C3318 C3325 1.409 . S
C3319 H3311 0.930 . S
C3319 C3317 1.419 . S
C3319 C3320 1.362 . S
C3320 H3312 0.930 . S
C3320 C3319 1.362 . S
C3320 C3323 1.409 . S
C3321 H3313 0.930 . S
C3321 C3322 1.355 . S
C3321 C3323 1.415 . S
C3322 C3321 1.355 . S
C3322 C3324 1.419 . S
C3323 C3318 1.425 . S
C3323 C3320 1.409 . S
C3323 C3321 1.415 . S
C3324 H3314 0.930 . S
C3324 C3322 1.419 . S
C3324 C3325 1.362 . S
C3325 H3315 0.930 . S
C3325 C3318 1.409 . S
C3325 C3324 1.362 . S
H3326 C3332 0.930 . S
H3327 C3335 0.930 . S
H3328 C3336 0.930 . S
H3329 C3337 0.930 . S
H3330 C3340 0.930 . S
H3331 C3341 0.930 . S
C3332 H3326 0.930 . S
C3332 C3333 1.355 . S
C3332 C3334 1.415 . S
C3333 C3332 1.355 . S
C3333 C3335 1.419 . S
C3334 C3332 1.415 . S
C3334 C3339 1.425 . S
C3334 C3341 1.409 . S
C3335 H3327 0.930 . S
C3335 C3333 1.419 . S
C3335 C3336 1.362 . S
C3336 H3328 0.930 . S
C3336 C3335 1.362 . S
C3336 C3339 1.409 . S
C3337 H3329 0.930 . S
C3337 C3338 1.355 . S
C3337 C3339 1.415 . S
C3338 C3337 1.355 . S
C3338 C3340 1.419 . S
C3339 C3334 1.425 . S
C3339 C3336 1.409 . S
C3339 C3337 1.415 . S
C3340 H3330 0.930 . S
C3340 C3338 1.419 . S
C3340 C3341 1.362 . S
C3341 H3331 0.930 . S
C3341 C3334 1.409 . S
C3341 C3340 1.362 . S
H3342 C3348 0.930 . S
H3343 C3351 0.930 . S
H3344 C3352 0.930 . S
H3345 C3353 0.930 . S
H3346 C3356 0.930 . S
H3347 C3357 0.930 . S
C3348 H3342 0.930 . S
C3348 C3349 1.355 . S
C3348 C3350 1.415 . S
C3349 C3348 1.355 . S
C3349 C3351 1.419 . S
C3350 C3348 1.415 . S
C3350 C3355 1.425 . S
C3350 C3357 1.409 . S
C3351 H3343 0.930 . S
C3351 C3349 1.419 . S
C3351 C3352 1.362 . S
C3352 H3344 0.930 . S
C3352 C3351 1.362 . S
C3352 C3355 1.409 . S
C3353 H3345 0.930 . S
C3353 C3354 1.355 . S
C3353 C3355 1.415 . S
C3354 C3353 1.355 . S
C3354 C3356 1.419 . S
C3355 C3350 1.425 . S
C3355 C3352 1.409 . S
C3355 C3353 1.415 . S
C3356 H3346 0.930 . S
C3356 C3354 1.419 . S
C3356 C3357 1.362 . S
C3357 H3347 0.930 . S
C3357 C3350 1.409 . S
C3357 C3356 1.362 . S
H3358 C3364 0.930 . S
H3359 C3367 0.930 . S
H3360 C3368 0.930 . S
H3361 C3369 0.930 . S
H3362 C3372 0.930 . S
H3363 C3373 0.930 . S
C3364 H3358 0.930 . S
C3364 C3365 1.355 . S
C3364 C3366 1.415 . S
C3365 C3364 1.355 . S
C3365 C3367 1.419 . S
C3366 C3364 1.415 . S
C3366 C3371 1.425 . S
C3366 C3373 1.409 . S
C3367 H3359 0.930 . S
C3367 C3365 1.419 . S
C3367 C3368 1.362 . S
C3368 H3360 0.930 . S
C3368 C3367 1.362 . S
C3368 C3371 1.409 . S
C3369 H3361 0.930 . S
C3369 C3370 1.355 . S
C3369 C3371 1.415 . S
C3370 C3369 1.355 . S
C3370 C3372 1.419 . S
C3371 C3366 1.425 . S
C3371 C3368 1.409 . S
C3371 C3369 1.415 . S
C3372 H3362 0.930 . S
C3372 C3370 1.419 . S
C3372 C3373 1.362 . S
C3373 H3363 0.930 . S
C3373 C3366 1.409 . S
C3373 C3372 1.362 . S
H3374 C3380 0.930 . S
H3375 C3383 0.930 . S
H3376 C3384 0.930 . S
H3377 C3385 0.930 . S
H3378 C3388 0.930 . S
H3379 C3389 0.930 . S
C3380 H3374 0.930 . S
C3380 C3381 1.355 . S
C3380 C3382 1.415 . S
C3381 C3380 1.355 . S
C3381 C3383 1.419 . S
C3382 C3380 1.415 . S
C3382 C3387 1.425 . S
C3382 C3389 1.409 . S
C3383 H3375 0.930 . S
C3383 C3381 1.419 . S
C3383 C3384 1.362 . S
C3384 H3376 0.930 . S
C3384 C3383 1.362 . S
C3384 C3387 1.409 . S
C3385 H3377 0.930 . S
C3385 C3386 1.355 . S
C3385 C3387 1.415 . S
C3386 C3385 1.355 . S
C3386 C3388 1.419 . S
C3387 C3382 1.425 . S
C3387 C3384 1.409 . S
C3387 C3385 1.415 . S
C3388 H3378 0.930 . S
C3388 C3386 1.419 . S
C3388 C3389 1.362 . S
C3389 H3379 0.930 . S
C3389 C3382 1.409 . S
C3389 C3388 1.362 . S
H3390 C3396 0.930 . S
H3391 C3399 0.930 . S
H3392 C3400 0.930 1_455 S
H3393 C3401 0.930 1_455 S
H3394 C3404 0.930 . S
H3395 C3405 0.930 . S
C3396 H3390 0.930 . S
C3396 C3397 1.355 . S
C3396 C3398 1.415 . S
C3397 C3396 1.355 . S
C3397 C3399 1.419 . S
C3398 C3396 1.415 . S
C3398 C3403 1.425 . S
C3398 C3405 1.409 . S
C3399 H3391 0.930 . S
C3399 C3397 1.419 . S
C3399 C3400 1.362 . S
C3400 H3392 0.930 1_655 S
C3400 C3399 1.362 . S
C3400 C3403 1.409 . S
C3401 H3393 0.930 1_655 S
C3401 C3402 1.355 . S
C3401 C3403 1.415 . S
C3402 C3401 1.355 . S
C3402 C3404 1.419 . S
C3403 C3398 1.425 . S
C3403 C3400 1.409 . S
C3403 C3401 1.415 . S
C3404 H3394 0.930 . S
C3404 C3402 1.419 . S
C3404 C3405 1.362 . S
C3405 H3395 0.930 . S
C3405 C3398 1.409 . S
C3405 C3404 1.362 . S
H3406 C3412 0.930 . S
H3407 C3415 0.930 . S
H3408 C3416 0.930 . S
H3409 C3417 0.930 . S
H3410 C3420 0.930 . S
H3411 C3421 0.930 . S
C3412 H3406 0.930 . S
C3412 C3413 1.355 . S
C3412 C3414 1.415 . S
C3413 C3412 1.355 . S
C3413 C3415 1.419 . S
C3414 C3412 1.415 . S
C3414 C3419 1.425 . S
C3414 C3421 1.409 . S
C3415 H3407 0.930 . S
C3415 C3413 1.419 . S
C3415 C3416 1.362 . S
C3416 H3408 0.930 . S
C3416 C3415 1.362 . S
C3416 C3419 1.409 . S
C3417 H3409 0.930 . S
C3417 C3418 1.355 . S
C3417 C3419 1.415 . S
C3418 C3417 1.355 . S
C3418 C3420 1.419 . S
C3419 C3414 1.425 . S
C3419 C3416 1.409 . S
C3419 C3417 1.415 . S
C3420 H3410 0.930 . S
C3420 C3418 1.419 . S
C3420 C3421 1.362 . S
C3421 H3411 0.930 . S
C3421 C3414 1.409 . S
C3421 C3420 1.362 . S
H3422 C3428 0.930 . S
H3423 C3431 0.930 . S
H3424 C3432 0.930 . S
H3425 C3433 0.930 . S
H3426 C3436 0.930 . S
H3427 C3437 0.930 . S
C3428 H3422 0.930 . S
C3428 C3429 1.355 . S
C3428 C3430 1.415 . S
C3429 C3428 1.355 . S
C3429 C3431 1.419 . S
C3430 C3428 1.415 . S
C3430 C3435 1.425 . S
C3430 C3437 1.409 1_545 S
C3431 H3423 0.930 . S
C3431 C3429 1.419 . S
C3431 C3432 1.362 . S
C3432 H3424 0.930 . S
C3432 C3431 1.362 . S
C3432 C3435 1.409 . S
C3433 H3425 0.930 . S
C3433 C3434 1.355 . S
C3433 C3435 1.415 . S
C3434 C3433 1.355 . S
C3434 C3436 1.419 1_545 S
C3435 C3430 1.425 . S
C3435 C3432 1.409 . S
C3435 C3433 1.415 . S
C3436 H3426 0.930 . S
C3436 C3434 1.419 1_565 S
C3436 C3437 1.362 . S
C3437 H3427 0.930 . S
C3437 C3430 1.409 1_565 S
C3437 C3436 1.362 . S
C2293 C8 1.202 . S
C2298 C1289 1.036 1_655 S
C2309 C18 1.582 . S
C2314 C1429 1.114 . S
C2330 C1517 1.242 . S
C2325 C31 1.259 . S
C2341 C34 1.338 . S
C2346 C1657 0.965 1_565 S
C2357 C5 1.364 . S
C2362 C1771 1.063 . S
C2373 C21 1.628 . S
C2378 C1859 1.270 . S
C2389 C47 1.197 . S
C2394 C1745 0.968 . S
C2410 C1885 1.178 . S
C2405 C57 1.467 . S
C2426 C1631 1.154 . S
C2421 C70 1.366 . S
C2437 C73 1.340 . S
C2442 C1543 1.027 . S
C2458 C1315 1.054 . S
C2453 C44 1.314 . S
C2469 C60 1.526 . S
C2474 C1403 1.422 . S
C2485 C86 1.711 . S
C2490 C1973 1.197 . S
C2501 C96 1.711 . S
C2506 C2113 1.011 . S
C2522 C2201 1.267 . S
C2517 C109 1.737 . S
C2533 C112 1.823 . S
C2538 C289 1.087 . S
C2549 C83 1.791 . S
C2554 C403 1.223 . S
C2565 C99 1.749 . S
C2570 C491 1.230 . S
C2581 C125 1.452 . S
C2586 C377 1.367 . S
C2597 C135 1.604 . S
C2602 C517 1.452 . S
C2618 C263 1.433 . S
C2613 C148 1.625 . S
C2634 C2227 1.619 . S
C2629 C151 1.838 . S
C2650 C1999 1.381 . S
C2645 C122 1.633 . S
C2666 C2087 1.526 . S
C2661 C138 1.644 . S
C2677 C164 1.603 . S
C2682 C605 1.234 . S
C2693 C174 1.684 . S
C2698 C745 1.184 . S
C2709 C187 1.754 . S
C2714 C833 1.223 . S
C2725 C190 1.957 . S
C2730 C973 1.242 . S
C2746 C1087 1.171 . S
C2741 C161 1.788 . S
C2762 C1175 1.404 . S
C2757 C177 1.795 . S
C2778 C1061 1.503 . S
C2773 C203 1.602 . S
C2794 C1201 1.419 . S
C2789 C213 1.619 . S
C2805 C226 1.617 . S
C2810 C947 1.511 . S
C2826 C859 1.572 . S
C2821 C229 1.713 . S
C2837 C200 1.684 . S
C2842 C631 1.413 . S
C2858 C719 1.537 . S
C2853 C216 1.657 . S
C2874 C245 0.997 . S
C2869 C0 1.722 . S
C2885 C23 1.608 . S
C2890 C359 0.867 . S
C2906 C463 1.166 . S
C2901 C36 1.731 . S
C2922 C577 1.104 . S
C2917 C26 1.520 . S
C2938 C701 0.886 . S
C2933 C10 1.780 . S
C2954 C805 1.134 . S
C2949 C13 1.597 . S
C2965 C39 1.748 . S
C2970 C815 1.506 . S
C2981 C62 1.718 . S
C2986 C587 1.433 . S
C2997 C75 1.840 1_556 S
C3002 C691 1.713 . S
C3013 C65 1.669 . S
C3018 C349 1.721 . S
C3034 C473 1.507 . S
C3029 C49 1.937 . S
C3045 C52 1.739 . S
C3050 C235 1.628 . S
C3066 C929 0.795 . S
C3061 C78 1.579 . S
C3077 C101 1.744 . S
C3082 C1043 0.877 . S
C3093 C114 1.752 . S
C3098 C1147 1.333 . S
C3114 C1261 1.023 . S
C3109 C104 1.189 . S
C3125 C88 1.618 . S
C3130 C1385 0.785 . S
C3141 C91 1.157 . S
C3146 C1489 1.020 . S
C3157 C117 1.280 . S
C3162 C1499 0.949 1_565 S
C3173 C140 1.226 . S
C3178 C1271 0.823 1_455 S
C3194 C1375 1.565 . S
C3189 C153 1.707 . S
C3205 C143 1.635 . S
C3210 C1033 1.646 . S
C3221 C127 1.892 . S
C3226 C1157 1.483 . S
C3242 C919 1.730 . S
C3237 C130 1.851 . S
C3258 C1613 0.806 . S
C3253 C156 1.273 . S
C3269 C179 1.198 . S
C3274 C1727 0.683 . S
C3285 C192 1.582 . S
C3290 C1831 1.079 . S
C3306 C1945 1.161 . S
C3301 C182 1.444 . S
C3322 C2069 1.012 . S
C3317 C166 1.782 . S
C3333 C169 1.728 . S
C3338 C2173 1.284 . S
C3349 C195 1.675 . S
C3354 C2183 1.477 . S
C3365 C218 1.859 . S
C3370 C1955 1.507 . S
C3386 C2059 1.613 . S
C3381 C231 1.845 . S
C3402 C1717 1.086 1_655 S
C3397 C221 1.111 . S
C3418 C1841 1.402 . S
C3413 C205 1.733 . S
C3429 C208 1.211 . S
C3434 C1603 1.122 1_545 S
