# Generated by pormake.
# Topology rtl, (3,6)-cn, num edge types: 1
# Building blocks:
#     Node 0, Type 0, BuildingBlock: INOVEN_clean_linker_0, # of connection points: 3
#     Node 1, Type 0, BuildingBlock: INOVEN_clean_linker_0, # of connection points: 3
#     Node 2, Type 0, BuildingBlock: INOVEN_clean_linker_0, # of connection points: 3
#     Node 3, Type 0, BuildingBlock: INOVEN_clean_linker_0, # of connection points: 3
#     Node 4, Type 1, BuildingBlock: VOLQOD_clean_sbu_1, # of connection points: 6
#     Node 5, Type 1, BuildingBlock: VOLQOD_clean_sbu_1, # of connection points: 6
#     Edge 6, Type (0, 1), BuildingBlock: TEMPAE_clean_linker_10, # of connection points: 2
#     Edge 7, Type (0, 1), BuildingBlock: TEMPAE_clean_linker_10, # of connection points: 2
#     Edge 8, Type (0, 1), BuildingBlock: TEMPAE_clean_linker_10, # of connection points: 2
#     Edge 9, Type (0, 1), BuildingBlock: TEMPAE_clean_linker_10, # of connection points: 2
#     Edge 10, Type (0, 1), BuildingBlock: TEMPAE_clean_linker_10, # of connection points: 2
#     Edge 11, Type (0, 1), BuildingBlock: TEMPAE_clean_linker_10, # of connection points: 2
#     Edge 12, Type (0, 1), BuildingBlock: TEMPAE_clean_linker_10, # of connection points: 2
#     Edge 13, Type (0, 1), BuildingBlock: TEMPAE_clean_linker_10, # of connection points: 2
#     Edge 14, Type (0, 1), BuildingBlock: TEMPAE_clean_linker_10, # of connection points: 2
#     Edge 15, Type (0, 1), BuildingBlock: TEMPAE_clean_linker_10, # of connection points: 2
#     Edge 16, Type (0, 1), BuildingBlock: TEMPAE_clean_linker_10, # of connection points: 2
#     Edge 17, Type (0, 1), BuildingBlock: TEMPAE_clean_linker_10, # of connection points: 2
# Relax obj value: 0.042
# Max RMSD: 0.144
# Mean RMSD: 0.093
data_MOF--net-rtl--node1-VOLQOD_clean_sbu_1--node2-INOVEN_clean_linker_0--edge1-TEMPAE_clean_linker_10
_symmetry_space_group_name_H-M    P1
_symmetry_Int_Tables_number       1
_symmetry_cell_setting            triclinic
loop_
_symmetry_equiv_pos_as_xyz
'x, y, z'
_cell_length_a     38.382858
_cell_length_b     37.78143
_cell_length_c     22.278769
_cell_angle_alpha  91.568528
_cell_angle_beta   91.787643
_cell_angle_gamma 90.013345
loop_
_atom_site_label
_atom_site_type_symbol
_atom_site_fract_x
_atom_site_fract_y
_atom_site_fract_z
_atom_type_partial_charge
H0 H 0.17153 0.7671 0.9 0.0
H1 H 0.09528 0.82033 0.00771 0.0
H2 H 0.17091 0.75215 0.0905 0.0
N3 N 0.20174 0.73222 0.98735 0.0
N4 N 0.22248 0.72604 0.02995 0.0
C5 C 0.15961 0.77232 0.94277 0.0
C6 C 0.13187 0.79643 0.94733 0.0
C7 C 0.17361 0.75615 -0.00604 0.0
C8 C 0.15984 0.76411 0.05058 0.0
C9 C 0.13138 0.78715 0.05549 0.0
C10 C 0.1172 0.80247 0.00363 0.0
H11 H 0.67596 0.74703 0.64281 0.0
H12 H 0.60847 0.67221 0.54917 0.0
H13 H 0.65402 0.7571 0.45334 0.0
N14 N 0.69294 0.78288 0.54818 0.0
N15 N 0.70135 0.79718 0.50095 0.0
C16 C 0.66242 0.73796 0.60181 0.0
C17 C 0.64099 0.70797 0.60209 0.0
C18 C 0.66786 0.75529 0.54808 0.0
C19 C 0.65032 0.7434 0.49472 0.0
C20 C 0.62837 0.7136 0.49466 0.0
C21 C 0.62436 0.69591 0.54859 0.0
H22 H 0.83136 0.25252 0.89969 0.0
H23 H 0.89189 0.17202 0.98638 0.0
H24 H 0.83507 0.24729 0.09299 0.0
N25 N 0.80598 0.28141 -0.00217 0.0
N26 N 0.79312 0.2924 0.04556 0.0
C27 C 0.84145 0.24067 0.94044 0.0
C28 C 0.86294 0.21081 0.93684 0.0
C29 C 0.83113 0.25395 -0.00348 0.0
C30 C 0.84341 0.23775 0.04945 0.0
C31 C 0.86515 0.20795 0.0458 0.0
C32 C 0.87502 0.19501 0.98946 0.0
H33 H 0.32334 0.26645 0.41376 0.0
H34 H 0.39668 0.32763 0.52307 0.0
H35 H 0.32636 0.25661 0.60588 0.0
N36 N 0.29379 0.23433 0.50162 0.0
N37 N 0.28724 0.21212 0.54007 0.0
C38 C 0.33476 0.27383 0.45743 0.0
C39 C 0.36235 0.29816 0.46208 0.0
C40 C 0.32205 0.25835 0.50878 0.0
C41 C 0.33658 0.26788 0.56583 0.0
C42 C 0.36387 0.29268 0.57102 0.0
C43 C 0.37654 0.30748 0.51899 0.0
O44 O 0.91308 0.98277 0.48822 0.0
Zn45 Zn 0.95065 0.01994 0.48994 0.0
O46 O -0.00265 -6e-05 0.49417 0.0
Zn47 Zn 0.02145 0.01733 0.56759 0.0
Zn48 Zn 0.9929 0.94859 0.49599 0.0
Zn49 Zn 0.02361 0.01369 0.42418 0.0
O50 O 0.06295 0.04641 0.54866 0.0
O51 O 0.06718 0.04133 0.44961 0.0
O52 O 0.94247 0.05267 0.55968 0.0
O53 O 0.99061 0.04919 0.61685 0.0
O54 O 0.03867 0.97691 0.61756 0.0
O55 O 0.01453 0.92962 0.57134 0.0
O56 O 0.01784 0.9256 0.42769 0.0
O57 O 0.94427 0.04892 0.41743 0.0
O58 O 0.03834 0.97028 0.37637 0.0
O59 O 0.99441 0.04548 0.37061 0.0
C60 C 0.91403 0.94912 0.48875 0.0
C61 C 0.07852 0.05308 0.50071 0.0
C62 C 0.03287 0.94373 0.61404 0.0
C63 C 0.96022 0.06163 0.60675 0.0
C64 C 0.03456 0.93717 0.38386 0.0
C65 C 0.96339 0.05725 0.37445 0.0
O66 O 0.94293 0.93263 0.49113 0.0
O67 O 0.58488 0.48198 0.04418 0.0
Zn68 Zn 0.54939 0.52091 0.03925 0.0
O69 O 0.50193 0.50255 0.02948 0.0
Zn70 Zn 0.48061 0.51809 0.9536 0.0
Zn71 Zn 0.50384 0.45105 0.02956 0.0
Zn72 Zn 0.47416 0.51976 0.09624 0.0
O73 O 0.43856 0.54897 0.96834 0.0
O74 O 0.43159 0.54533 0.06662 0.0
O75 O 0.56132 0.55072 0.96968 0.0
O76 O 0.51453 0.54734 0.90861 0.0
O77 O 0.46443 0.47598 0.90145 0.0
O78 O 0.4805 0.42999 0.95568 0.0
O79 O 0.47841 0.43208 0.09862 0.0
O80 O 0.55497 0.55166 0.11363 0.0
O81 O 0.45824 0.4797 0.14657 0.0
O82 O 0.50149 0.55449 0.1493 0.0
C83 C 0.58259 0.44838 0.04127 0.0
C84 C 0.42159 0.55615 0.01535 0.0
C85 C 0.46594 0.44265 0.90892 0.0
C86 C 0.54527 0.55867 0.92106 0.0
C87 C 0.46158 0.44624 0.14126 0.0
C88 C 0.53343 0.56357 0.15136 0.0
O89 O 0.55313 0.433 0.03493 0.0
C90 C 0.22959 0.19763 0.49466 0.0
C91 C 0.25813 0.18909 0.53244 0.0
C92 C 0.20063 0.17505 0.48833 0.0
C93 C 0.20061 0.14288 0.51946 0.0
C94 C 0.22964 0.13395 0.55688 0.0
C95 C 0.25785 0.15754 0.56361 0.0
C96 C 0.16978 0.18597 0.44938 0.0
C97 C 0.23084 0.09957 0.58984 0.0
C98 C 0.11369 0.101 0.55204 0.0
C99 C 0.1099 0.07575 0.50498 0.0
C100 C 0.14299 0.12315 0.55697 0.0
C101 C 0.16958 0.11932 0.51471 0.0
C102 C 0.16617 0.0935 0.46755 0.0
C103 C 0.13606 0.07232 0.46274 0.0
C104 C 0.14522 0.15098 0.60696 0.0
C105 C 0.19438 0.08815 0.42249 0.0
H106 H 0.2296 0.22233 0.47106 0.0
H107 H 0.28003 0.1512 0.59265 0.0
H108 H 0.16444 0.16564 0.41343 0.0
H109 H 0.14617 0.18794 0.47679 0.0
H110 H 0.17398 0.21184 0.42818 0.0
H111 H 0.25616 0.09569 0.61432 0.0
H112 H 0.2097 0.099 0.62261 0.0
H113 H 0.22642 0.07695 0.55767 0.0
H114 H 0.09335 0.10395 0.58449 0.0
H115 H 0.13328 0.05263 0.42658 0.0
H116 H 0.14783 0.17761 0.58777 0.0
H117 H 0.16872 0.14653 0.636 0.0
H118 H 0.12196 0.15093 0.63541 0.0
H119 H 0.19795 0.1127 0.3972 0.0
H120 H 0.18833 0.06605 0.38991 0.0
H121 H 0.21956 0.08251 0.44615 0.0
C122 C 0.24794 0.67348 0.98068 0.0
C123 C 0.24993 0.70125 0.02376 0.0
C124 C 0.27492 0.64856 0.97633 0.0
C125 C 0.30482 0.65217 0.01488 0.0
C126 C 0.30703 0.68053 0.05777 0.0
C127 C 0.27918 0.70437 0.06232 0.0
C128 C 0.27117 0.61806 0.93137 0.0
C129 C 0.33881 0.68573 0.09875 0.0
C130 C 0.36299 0.57394 0.05029 0.0
C131 C 0.39044 0.57886 0.01136 0.0
C132 C 0.33424 0.5968 0.05011 0.0
C133 C 0.33354 0.62592 0.01144 0.0
C134 C 0.36101 0.63075 0.97145 0.0
C135 C 0.38895 0.60678 0.97126 0.0
C136 C 0.30493 0.59017 0.0921 0.0
C137 C 0.36158 0.66199 0.93065 0.0
H138 H 0.22497 0.67079 0.95139 0.0
H139 H 0.28037 0.72592 0.09546 0.0
H140 H 0.29292 0.61828 0.89977 0.0
H141 H 0.27262 0.5926 0.95503 0.0
H142 H 0.24614 0.61895 0.90502 0.0
H143 H 0.33716 0.7102 0.12732 0.0
H144 H 0.34198 0.66278 0.12841 0.0
H145 H 0.36256 0.68719 0.07175 0.0
H146 H 0.36405 0.55216 0.081 0.0
H147 H 0.41036 0.61076 0.94153 0.0
H148 H 0.27954 0.58987 0.06686 0.0
H149 H 0.30392 0.6119 0.12649 0.0
H150 H 0.30806 0.5647 0.11543 0.0
H151 H 0.33744 0.66257 0.90203 0.0
H152 H 0.38439 0.66142 0.90115 0.0
H153 H 0.36242 0.68695 0.95811 0.0
C154 C 0.74606 0.83454 0.55322 0.0
C155 C 0.7281 0.82309 0.50036 0.0
C156 C 0.77478 0.85738 0.55091 0.0
C157 C 0.78578 0.8688 0.49452 0.0
C158 C 0.76689 0.85832 0.44138 0.0
C159 C 0.73818 0.83558 0.44511 0.0
C160 C 0.79413 0.8682 0.60858 0.0
C161 C 0.77783 0.86994 0.38046 0.0
C162 C 0.84885 0.94623 0.49241 0.0
C163 C 0.881 0.92876 0.48805 0.0
C164 C 0.81754 0.92711 0.49401 0.0
C165 C 0.81842 0.88967 0.49091 0.0
C166 C 0.85068 0.8719 0.48556 0.0
C167 C 0.88156 0.89164 0.48432 0.0
C168 C 0.7836 0.94692 0.49989 0.0
C169 C 0.85263 0.83196 0.48183 0.0
H170 H 0.73825 0.82501 0.59621 0.0
H171 H 0.72415 0.82654 0.40457 0.0
H172 H 0.82073 0.85671 0.60884 0.0
H173 H 0.79704 0.89741 0.61182 0.0
H174 H 0.78071 0.85922 0.64894 0.0
H175 H 0.75889 0.86157 0.34407 0.0
H176 H 0.78063 0.89915 0.38025 0.0
H177 H 0.80365 0.85841 0.37036 0.0
H178 H 0.84813 0.9749 0.49539 0.0
H179 H 0.90621 0.87787 0.48071 0.0
H180 H 0.7711 0.93972 0.54211 0.0
H181 H 0.76531 0.93925 0.46224 0.0
H182 H 0.78729 0.97609 0.50019 0.0
H183 H 0.84234 0.82071 0.52322 0.0
H184 H 0.87969 0.82225 0.47627 0.0
H185 H 0.83615 0.82167 0.44343 0.0
C186 C 0.75282 0.33248 -0.00756 0.0
C187 C 0.76627 0.31821 0.04588 0.0
C188 C 0.72408 0.35536 -0.00696 0.0
C189 C 0.70848 0.36408 0.04826 0.0
C190 C 0.7227 0.35063 0.10243 0.0
C191 C 0.7515 0.3278 0.10045 0.0
C192 C 0.7097 0.36927 0.93437 0.0
C193 C 0.70682 0.35942 0.16216 0.0
C194 C 0.64757 0.44319 0.05212 0.0
C195 C 0.61481 0.42681 0.04475 0.0
C196 C 0.6783 0.4231 0.05423 0.0
C197 C 0.67622 0.38576 0.04876 0.0
C198 C 0.64328 0.36903 0.04202 0.0
C199 C 0.61298 0.38975 0.04013 0.0
C200 C 0.71301 0.44182 0.06155 0.0
C201 C 0.64005 0.32923 0.03602 0.0
H202 H 0.76421 0.32516 0.94999 0.0
H203 H 0.76204 0.31658 0.14143 0.0
H204 H 0.68294 0.3589 0.92543 0.0
H205 H 0.70789 0.39857 0.93705 0.0
H206 H 0.726 0.36156 0.89581 0.0
H207 H 0.72231 0.34862 0.20042 0.0
H208 H 0.70467 0.38854 0.16886 0.0
H209 H 0.68005 0.34839 0.16275 0.0
H210 H 0.64929 0.47181 0.05589 0.0
H211 H 0.58784 0.37681 0.03453 0.0
H212 H 0.7289 0.43613 0.02168 0.0
H213 H 0.72773 0.43182 0.10123 0.0
H214 H 0.71009 0.47097 0.0671 0.0
H215 H 0.65353 0.31953 -0.00457 0.0
H216 H 0.61246 0.32031 0.03255 0.0
H217 H 0.65291 0.31669 0.07533 0.0
C218 C 0.14091 0.81159 0.16 0.0
C219 C 0.11794 0.79848 0.11457 0.0
C220 C 0.12833 0.83034 0.21006 0.0
C221 C 0.09203 0.83619 0.21425 0.0
C222 C 0.06864 0.82042 0.17104 0.0
C223 C 0.08191 0.80156 0.12187 0.0
C224 C 0.15403 0.84621 0.25589 0.0
C225 C 0.02975 0.8259 0.17398 0.0
C226 C 0.05306 0.87558 0.35556 0.0
C227 C 0.0501 0.91144 0.34117 0.0
C228 C 0.06746 0.85081 0.31536 0.0
C229 C 0.07873 0.86213 0.25921 0.0
C230 C 0.07609 0.89831 0.2446 0.0
C231 C 0.062 0.92257 0.28592 0.0
C232 C 0.07031 0.81253 0.33269 0.0
C233 C 0.08757 0.91132 0.1848 0.0
H234 H 0.16879 0.80937 0.1544 0.0
H235 H 0.06411 0.79093 0.08714 0.0
H236 H 0.15582 0.87519 0.24965 0.0
H237 H 0.1452 0.84215 0.30214 0.0
H238 H 0.18048 0.83467 0.25158 0.0
H239 H 0.01502 0.80863 0.14095 0.0
H240 H 0.02062 0.8206 0.2196 0.0
H241 H 0.02346 0.85391 0.16446 0.0
H242 H 0.04422 0.8668 0.39843 0.0
H243 H 0.05977 0.95019 0.27444 0.0
H244 H 0.09758 0.80326 0.32871 0.0
H245 H 0.05388 0.79576 0.3015 0.0
H246 H 0.06201 0.80837 0.3793 0.0
H247 H 0.11541 0.90477 0.17854 0.0
H248 H 0.08417 0.94037 0.18075 0.0
H249 H 0.0723 0.89778 0.14779 0.0
C250 C 0.62151 0.70548 0.70772 0.0
C251 C 0.6356 0.6884 0.65751 0.0
C252 C 0.6099 0.68582 0.75584 0.0
C253 C 0.61275 0.64842 0.75335 0.0
C254 C 0.62931 0.63142 0.70459 0.0
C255 C 0.64046 0.65165 0.65713 0.0
C256 C 0.59247 0.70485 0.80722 0.0
C257 C 0.63319 0.59165 0.70056 0.0
C258 C 0.59689 0.59373 0.89027 0.0
C259 C 0.5625 0.58209 0.87872 0.0
C260 C 0.61347 0.61591 0.85047 0.0
C261 C 0.59521 0.62671 0.79801 0.0
C262 C 0.56041 0.61544 0.78644 0.0
C263 C 0.5445 0.59323 0.82686 0.0
C264 C 0.65065 0.62734 0.86405 0.0
C265 C 0.54008 0.62646 0.73087 0.0
H266 H 0.61766 0.73391 0.70772 0.0
H267 H 0.65169 0.63859 0.61834 0.0
H268 H 0.56408 0.69922 0.80465 0.0
H269 H 0.60271 0.69522 0.85093 0.0
H270 H 0.59627 0.73398 0.80627 0.0
H271 H 0.65002 0.583 0.66324 0.0
H272 H 0.64443 0.58155 0.74324 0.0
H273 H 0.60714 0.57926 0.69312 0.0
H274 H 0.61102 0.58534 0.93028 0.0
H275 H 0.5179 0.58456 0.81766 0.0
H276 H 0.65262 0.65664 0.86418 0.0
H277 H 0.66772 0.6169 0.82842 0.0
H278 H 0.66069 0.61789 0.90809 0.0
H279 H 0.53942 0.65576 0.72876 0.0
H280 H 0.51285 0.61642 0.72959 0.0
H281 H 0.55313 0.61633 0.69012 0.0
C282 C 0.8932 0.20599 0.14866 0.0
C283 C 0.87638 0.18852 0.09969 0.0
C284 C 0.90752 0.18672 0.19651 0.0
C285 C 0.90466 0.14931 0.19498 0.0
C286 C 0.88652 0.13178 0.14659 0.0
C287 C 0.87254 0.15163 0.09963 0.0
C288 C 0.92654 0.2062 0.24769 0.0
C289 C 0.8826 0.09196 0.14361 0.0
C290 C 0.96885 0.09167 0.28048 0.0
C291 C 0.94912 0.08182 0.32926 0.0
C292 C 0.9551 0.11468 0.23739 0.0
C293 C 0.92089 0.12808 0.24334 0.0
C294 C 0.90117 0.1189 0.2931 0.0
C295 C 0.91549 0.09587 0.33539 0.0
C296 C 0.97683 0.12392 0.18467 0.0
C297 C 0.86457 0.13262 0.30084 0.0
H298 H 0.89626 0.23452 0.14845 0.0
H299 H 0.85908 0.1382 0.06201 0.0
H300 H 0.91564 0.19889 0.29119 0.0
H301 H 0.95441 0.19838 0.24887 0.0
H302 H 0.92492 0.2354 0.24362 0.0
H303 H 0.86695 0.08259 0.10349 0.0
H304 H 0.90868 0.07936 0.14231 0.0
H305 H 0.86988 0.08275 0.18441 0.0
H306 H 0.9949 0.08114 0.27557 0.0
H307 H 0.90006 0.08866 0.37312 0.0
H308 H 0.9784 0.15308 0.18075 0.0
H309 H 0.96428 0.11318 0.14247 0.0
H310 H 0.00371 0.11314 0.18861 0.0
H311 H 0.86415 0.16191 0.29849 0.0
H312 H 0.85364 0.12495 0.34422 0.0
H313 H 0.84726 0.12204 0.26376 0.0
C314 C 0.35566 0.31931 0.67358 0.0
C315 C 0.37804 0.30581 0.63008 0.0
C316 C 0.3689 0.33889 0.72374 0.0
C317 C 0.40526 0.34503 0.73011 0.0
C318 C 0.42807 0.32929 0.68847 0.0
C319 C 0.41416 0.30975 0.63907 0.0
C320 C 0.34382 0.35488 0.76772 0.0
C321 C 0.46701 0.33499 0.69385 0.0
C322 C 0.43757 0.43004 0.80772 0.0
C323 C 0.44981 0.41788 0.86339 0.0
C324 C 0.4225 0.40663 0.76433 0.0
C325 C 0.41936 0.37025 0.77711 0.0
C326 C 0.4311 0.35789 0.83352 0.0
C327 C 0.44632 0.38181 0.87588 0.0
C328 C 0.41046 0.42073 0.70439 0.0
C329 C 0.42794 0.31936 0.84887 0.0
H330 H 0.32771 0.31649 0.66649 0.0
H331 H 0.43149 0.29896 0.60568 0.0
H332 H 0.35287 0.35011 0.81458 0.0
H333 H 0.34273 0.38397 0.76233 0.0
H334 H 0.31706 0.34401 0.7608 0.0
H335 H 0.48129 0.31841 0.66082 0.0
H336 H 0.47303 0.36322 0.68626 0.0
H337 H 0.47691 0.32888 0.7397 0.0
H338 H 0.44012 0.45781 0.7977 0.0
H339 H 0.45542 0.37216 0.91896 0.0
H340 H 0.3825 0.41439 0.69568 0.0
H341 H 0.42527 0.40774 0.6679 0.0
H342 H 0.41399 0.44984 0.70206 0.0
H343 H 0.40048 0.31049 0.84262 0.0
H344 H 0.43679 0.31432 0.89581 0.0
H345 H 0.44375 0.30287 0.81803 0.0
C346 C 0.6286 0.69832 0.38406 0.0
C347 C 0.61108 0.69917 0.43846 0.0
C348 C 0.61448 0.68013 0.33317 0.0
C349 C 0.58271 0.66147 0.33743 0.0
C350 C 0.56405 0.66374 0.39111 0.0
C351 C 0.57809 0.68321 0.44046 0.0
C352 C 0.63447 0.67936 0.27586 0.0
C353 C 0.53039 0.6437 0.39787 0.0
C354 C 0.53306 0.62328 0.20055 0.0
C355 C 0.54591 0.58864 0.19844 0.0
C356 C 0.54568 0.64782 0.2444 0.0
C357 C 0.57064 0.6368 0.28814 0.0
C358 C 0.58334 0.60158 0.28627 0.0
C359 C 0.57126 0.57806 0.24055 0.0
C360 C 0.53256 0.68548 0.24371 0.0
C361 C 0.60917 0.58852 0.33317 0.0
H362 H 0.6541 0.71042 0.38181 0.0
H363 H 0.56376 0.68471 0.4816 0.0
H364 H 0.64659 0.65295 0.26928 0.0
H365 H 0.61669 0.68379 0.23656 0.0
H366 H 0.65543 0.69968 0.27678 0.0
H367 H 0.51817 0.64981 0.44151 0.0
H368 H 0.51147 0.64995 0.36108 0.0
H369 H 0.53556 0.61481 0.39473 0.0
H370 H 0.51369 0.63129 0.16715 0.0
H371 H 0.58102 0.55113 0.23843 0.0
H372 H 0.55488 0.70408 0.24228 0.0
H373 H 0.51861 0.6918 0.28549 0.0
H374 H 0.51463 0.69021 0.20465 0.0
H375 H 0.63361 0.60415 0.33241 0.0
H376 H 0.61566 0.56009 0.32612 0.0
H377 H 0.59842 0.59227 0.37858 0.0
C378 C 0.89126 0.2115 0.83754 0.0
C379 C 0.87131 0.19384 0.87884 0.0
C380 C 0.90465 0.19306 0.78775 0.0
C381 C 0.89761 0.15639 0.77965 0.0
C382 C 0.87559 0.13915 0.81939 0.0
C383 C 0.86275 0.15813 0.86862 0.0
C384 C 0.92787 0.21227 0.74595 0.0
C385 C 0.86722 0.10016 0.81201 0.0
C386 C 0.91394 0.10492 0.63522 0.0
C387 C 0.94524 0.08743 0.64983 0.0
C388 C 0.89887 0.12878 0.67604 0.0
C389 C 0.91535 0.13507 0.73293 0.0
C390 C 0.94741 0.11832 0.74738 0.0
C391 C 0.96203 0.09475 0.70555 0.0
C392 C 0.86476 0.14635 0.65906 0.0
C393 C 0.96566 0.12432 0.80786 0.0
H394 H 0.89791 0.23912 0.84596 0.0
H395 H 0.84709 0.1447 0.90073 0.0
H396 H 0.95513 0.20303 0.75255 0.0
H397 H 0.91998 0.20627 0.69843 0.0
H398 H 0.92727 0.24141 0.75401 0.0
H399 H 0.84753 0.09152 0.84408 0.0
H400 H 0.85728 0.09392 0.76564 0.0
H401 H 0.89131 0.08443 0.81944 0.0
H402 H 0.90096 0.09976 0.59196 0.0
H403 H 0.98629 0.08151 0.71707 0.0
H404 H 0.86653 0.17536 0.66768 0.0
H405 H 0.84381 0.13624 0.68725 0.0
H406 H 0.85707 0.14133 0.61109 0.0
H407 H 0.96935 0.15306 0.8174 0.0
H408 H 0.9915 0.11111 0.81056 0.0
H409 H 0.9493 0.11391 0.84362 0.0
C410 C 0.35292 0.32886 0.36465 0.0
C411 C 0.37586 0.31525 0.40844 0.0
C412 C 0.36548 0.34862 0.31747 0.0
C413 C 0.40172 0.35502 0.31454 0.0
C414 C 0.42506 0.34017 0.35727 0.0
C415 C 0.41184 0.32026 0.40346 0.0
C416 C 0.33991 0.36374 0.27214 0.0
C417 C 0.46389 0.34641 0.35556 0.0
C418 C 0.4417 0.38669 0.17227 0.0
C419 C 0.44527 0.42313 0.18492 0.0
C420 C 0.42663 0.36429 0.21335 0.0
C421 C 0.4153 0.37865 0.26865 0.0
C422 C 0.41846 0.41544 0.28148 0.0
C423 C 0.43324 0.4373 0.23926 0.0
C424 C 0.42328 0.32524 0.19795 0.0
C425 C 0.40695 0.43159 0.34038 0.0
H426 H 0.32507 0.32527 0.36856 0.0
H427 H 0.42969 0.30921 0.43665 0.0
H428 H 0.33966 0.39303 0.27709 0.0
H429 H 0.34799 0.35705 0.22581 0.0
H430 H 0.313 0.35378 0.27765 0.0
H431 H 0.47857 0.33181 0.3908 0.0
H432 H 0.47373 0.33813 0.31105 0.0
H433 H 0.46951 0.3751 0.36208 0.0
H434 H 0.45061 0.37558 0.13008 0.0
H435 H 0.43595 0.46542 0.24933 0.0
H436 H 0.39587 0.31655 0.20224 0.0
H437 H 0.43946 0.30982 0.23002 0.0
H438 H 0.43158 0.31862 0.15166 0.0
H439 H 0.37912 0.42535 0.34708 0.0
H440 H 0.41033 0.4608 0.34268 0.0
H441 H 0.42223 0.42001 0.37811 0.0
C442 C 0.10795 0.8521 0.90352 0.0
C443 C 0.11918 0.81697 0.89484 0.0
C444 C 0.0941 0.87153 0.85592 0.0
C445 C 0.09309 0.85624 0.79731 0.0
C446 C 0.10579 0.82147 0.78736 0.0
C447 C 0.11813 0.80198 0.83644 0.0
C448 C 0.08009 0.90828 0.86865 0.0
C449 C 0.10621 0.80485 0.72499 0.0
C450 C 0.02804 0.89523 0.68619 0.0
C451 C 0.04843 0.92081 0.65964 0.0
C452 C 0.04238 0.87361 0.73071 0.0
C453 C 0.07823 0.87682 0.74693 0.0
C454 C 0.09922 0.90169 0.71823 0.0
C455 C 0.08383 0.92399 0.67571 0.0
C456 C 0.0189 0.84837 0.76195 0.0
C457 C 0.13779 0.90496 0.73283 0.0
H458 H 0.10987 0.86466 0.94779 0.0
H459 H 0.12655 0.77489 0.82902 0.0
H460 H 0.09534 0.92811 0.84472 0.0
H461 H 0.05265 0.91011 0.85181 0.0
H462 H 0.08109 0.91549 0.91735 0.0
H463 H 0.11941 0.77868 0.72429 0.0
H464 H 0.07915 0.80127 0.70695 0.0
H465 H 0.11972 0.82258 0.69431 0.0
H466 H 0.00061 0.89296 0.67345 0.0
H467 H 0.09958 0.94351 0.6542 0.0
H468 H 0.01842 0.85562 0.81054 0.0
H469 H 0.02911 0.82098 0.75813 0.0
H470 H 0.99175 0.84865 0.74317 0.0
H471 H 0.14199 0.91549 0.77944 0.0
H472 H 0.15101 0.92282 0.70192 0.0
H473 H 0.15034 0.87852 0.73022 0.0
loop_
_geom_bond_atom_site_label_1
_geom_bond_atom_site_label_2
_geom_bond_distance
_geom_bond_site_symmetry_2
_ccdc_geom_bond_type
H0 C5 0.929 . S
H1 C10 0.931 . S
H2 C8 0.930 . S
N3 N4 1.234 1_556 S
N3 C7 1.453 1_556 S
N4 N3 1.234 1_554 S
C5 H0 0.929 . S
C5 C6 1.373 . S
C5 C7 1.368 1_556 S
C6 C5 1.373 . S
C6 C10 1.397 1_556 S
C7 N3 1.453 1_554 S
C7 C5 1.368 1_554 S
C7 C8 1.373 . S
C8 H2 0.930 . S
C8 C7 1.373 . S
C8 C9 1.371 . S
C9 C8 1.371 . S
C9 C10 1.383 . S
C10 H1 0.931 . S
C10 C6 1.397 1_554 S
C10 C9 1.383 . S
H11 C16 0.929 . S
H12 C21 0.931 . S
H13 C19 0.930 . S
N14 N15 1.234 . S
N14 C18 1.453 . S
N15 N14 1.234 . S
C16 H11 0.929 . S
C16 C17 1.373 . S
C16 C18 1.368 . S
C17 C16 1.373 . S
C17 C21 1.397 . S
C18 N14 1.453 . S
C18 C16 1.368 . S
C18 C19 1.373 . S
C19 H13 0.930 . S
C19 C18 1.373 . S
C19 C20 1.371 . S
C20 C19 1.371 . S
C20 C21 1.383 . S
C21 H12 0.931 . S
C21 C17 1.397 . S
C21 C20 1.383 . S
H22 C27 0.929 . S
H23 C32 0.931 . S
H24 C30 0.930 . S
N25 N26 1.234 1_556 S
N25 C29 1.453 1_556 S
N26 N25 1.234 1_554 S
C27 H22 0.929 . S
C27 C28 1.373 . S
C27 C29 1.368 1_556 S
C28 C27 1.373 . S
C28 C32 1.397 1_556 S
C29 N25 1.453 1_554 S
C29 C27 1.368 1_554 S
C29 C30 1.373 . S
C30 H24 0.930 . S
C30 C29 1.373 . S
C30 C31 1.371 . S
C31 C30 1.371 . S
C31 C32 1.383 . S
C32 H23 0.931 . S
C32 C28 1.397 1_554 S
C32 C31 1.383 . S
H33 C38 0.929 . S
H34 C43 0.931 . S
H35 C41 0.930 . S
N36 N37 1.234 . S
N36 C40 1.453 . S
N37 N36 1.234 . S
C38 H33 0.929 . S
C38 C39 1.373 . S
C38 C40 1.368 . S
C39 C38 1.373 . S
C39 C43 1.397 . S
C40 N36 1.453 . S
C40 C38 1.368 . S
C40 C41 1.373 . S
C41 H35 0.930 . S
C41 C40 1.373 . S
C41 C42 1.371 . S
C42 C41 1.371 . S
C42 C43 1.383 . S
C43 H34 0.931 . S
C43 C39 1.397 . S
C43 C42 1.383 . S
O44 Zn45 1.953 1_565 S
O44 C60 1.225 . S
Zn45 O44 1.953 1_545 S
Zn45 O46 1.949 1_655 S
Zn45 O52 1.919 . S
Zn45 O57 1.924 . S
O46 Zn45 1.949 1_455 S
O46 Zn47 1.923 . S
O46 Zn48 1.950 1_545 S
O46 Zn49 1.945 . S
Zn47 O46 1.923 . S
Zn47 O50 1.933 . S
Zn47 O53 1.946 . S
Zn47 O54 1.965 1_545 S
Zn48 O46 1.950 1_565 S
Zn48 O55 1.938 . S
Zn48 O56 1.906 . S
Zn48 O66 1.953 1_455 S
Zn49 O46 1.945 . S
Zn49 O51 1.932 . S
Zn49 O58 1.977 1_545 S
Zn49 O59 1.910 1_455 S
O50 Zn47 1.933 . S
O50 C61 1.226 . S
O51 Zn49 1.932 . S
O51 C61 1.307 . S
O52 Zn45 1.919 . S
O52 C63 1.253 . S
O53 Zn47 1.946 . S
O53 C63 1.276 1_455 S
O54 Zn47 1.965 1_565 S
O54 C62 1.303 . S
O55 Zn48 1.938 . S
O55 C62 1.247 . S
O56 Zn48 1.906 . S
O56 C64 1.304 . S
O57 Zn45 1.924 . S
O57 C65 1.311 . S
O58 Zn49 1.977 1_565 S
O58 C64 1.272 . S
O59 Zn49 1.910 1_655 S
O59 C65 1.231 . S
C60 O44 1.225 . S
C60 O66 1.298 . S
C61 O50 1.226 . S
C61 O51 1.307 . S
C62 O54 1.303 . S
C62 O55 1.247 . S
C63 O52 1.253 . S
C63 O53 1.276 1_655 S
C64 O56 1.304 . S
C64 O58 1.272 . S
C65 O57 1.311 . S
C65 O59 1.231 . S
O66 Zn48 1.953 1_655 S
O66 C60 1.298 . S
O67 Zn68 1.953 . S
O67 C83 1.225 . S
Zn68 O67 1.953 . S
Zn68 O69 1.949 . S
Zn68 O75 1.919 1_554 S
Zn68 O80 1.924 . S
O69 Zn68 1.949 . S
O69 Zn70 1.923 1_554 S
O69 Zn71 1.950 . S
O69 Zn72 1.945 . S
Zn70 O69 1.923 1_556 S
Zn70 O73 1.933 . S
Zn70 O76 1.941 . S
Zn70 O77 1.965 . S
Zn71 O69 1.950 . S
Zn71 O78 1.938 1_554 S
Zn71 O79 1.906 . S
Zn71 O89 1.953 . S
Zn72 O69 1.945 . S
Zn72 O74 1.932 . S
Zn72 O81 1.977 . S
Zn72 O82 1.910 . S
O73 Zn70 1.933 . S
O73 C84 1.226 1_556 S
O74 Zn72 1.932 . S
O74 C84 1.307 . S
O75 Zn68 1.919 1_556 S
O75 C86 1.253 . S
O76 Zn70 1.941 . S
O76 C86 1.283 . S
O77 Zn70 1.965 . S
O77 C85 1.303 . S
O78 Zn71 1.938 1_556 S
O78 C85 1.247 . S
O79 Zn71 1.906 . S
O79 C87 1.304 . S
O80 Zn68 1.924 . S
O80 C88 1.311 . S
O81 Zn72 1.977 . S
O81 C87 1.272 . S
O82 Zn72 1.910 . S
O82 C88 1.231 . S
C83 O67 1.225 . S
C83 O89 1.298 . S
C84 O73 1.226 1_554 S
C84 O74 1.307 . S
C85 O77 1.303 . S
C85 O78 1.247 . S
C86 O75 1.253 . S
C86 O76 1.283 . S
C87 O79 1.304 . S
C87 O81 1.272 . S
C88 O80 1.311 . S
C88 O82 1.231 . S
O89 Zn71 1.953 . S
O89 C83 1.298 . S
C90 C91 1.391 . S
C90 C92 1.394 . S
C90 H106 0.931 . S
C91 C90 1.391 . S
C91 C95 1.376 . S
C92 C90 1.394 . S
C92 C93 1.369 . S
C92 C96 1.531 . S
C93 C92 1.369 . S
C93 C94 1.410 . S
C93 C101 1.503 . S
C94 C93 1.410 . S
C94 C95 1.392 . S
C94 C97 1.511 . S
C95 C91 1.376 . S
C95 C94 1.392 . S
C95 H107 0.929 . S
C96 C92 1.531 . S
C96 H108 0.960 . S
C96 H109 0.962 . S
C96 H110 0.960 . S
C97 C94 1.511 . S
C97 H111 0.961 . S
C97 H112 0.961 . S
C97 H113 0.961 . S
C98 C99 1.370 . S
C98 C100 1.363 . S
C98 H114 0.931 . S
C99 C98 1.370 . S
C99 C103 1.408 . S
C100 C98 1.363 . S
C100 C101 1.370 . S
C100 C104 1.524 . S
C101 C93 1.503 . S
C101 C100 1.370 . S
C101 C102 1.403 . S
C102 C101 1.403 . S
C102 C103 1.404 . S
C102 C105 1.539 . S
C103 C99 1.408 . S
C103 C102 1.404 . S
C103 H115 0.930 . S
C104 C100 1.524 . S
C104 H116 0.956 . S
C104 H117 0.961 . S
C104 H118 0.961 . S
C105 C102 1.539 . S
C105 H119 0.958 . S
C105 H120 0.961 . S
C105 H121 0.960 . S
H106 C90 0.931 . S
H107 C95 0.929 . S
H108 C96 0.960 . S
H109 C96 0.962 . S
H110 C96 0.960 . S
H111 C97 0.961 . S
H112 C97 0.961 . S
H113 C97 0.961 . S
H114 C98 0.931 . S
H115 C103 0.930 . S
H116 C104 0.956 . S
H117 C104 0.961 . S
H118 C104 0.961 . S
H119 C105 0.958 . S
H120 C105 0.961 . S
H121 C105 0.960 . S
C122 C123 1.391 1_556 S
C122 C124 1.394 . S
C122 H138 0.931 . S
C123 C122 1.391 1_554 S
C123 C127 1.376 . S
C124 C122 1.394 . S
C124 C125 1.369 1_556 S
C124 C128 1.531 . S
C125 C124 1.369 1_554 S
C125 C126 1.410 . S
C125 C133 1.503 . S
C126 C125 1.410 . S
C126 C127 1.392 . S
C126 C129 1.511 . S
C127 C123 1.376 . S
C127 C126 1.392 . S
C127 H139 0.929 . S
C128 C124 1.531 . S
C128 H140 0.960 . S
C128 H141 0.962 . S
C128 H142 0.960 . S
C129 C126 1.511 . S
C129 H143 0.961 . S
C129 H144 0.961 . S
C129 H145 0.961 . S
C130 C131 1.370 . S
C130 C132 1.363 . S
C130 H146 0.931 . S
C131 C130 1.370 . S
C131 C135 1.408 1_554 S
C132 C130 1.363 . S
C132 C133 1.370 . S
C132 C136 1.524 . S
C133 C125 1.503 . S
C133 C132 1.370 . S
C133 C134 1.403 1_554 S
C134 C133 1.403 1_556 S
C134 C135 1.404 . S
C134 C137 1.539 . S
C135 C131 1.408 1_556 S
C135 C134 1.404 . S
C135 H147 0.930 . S
C136 C132 1.524 . S
C136 H148 0.956 . S
C136 H149 0.961 . S
C136 H150 0.961 . S
C137 C134 1.539 . S
C137 H151 0.958 . S
C137 H152 0.961 . S
C137 H153 0.960 . S
H138 C122 0.931 . S
H139 C127 0.929 . S
H140 C128 0.960 . S
H141 C128 0.962 . S
H142 C128 0.960 . S
H143 C129 0.961 . S
H144 C129 0.961 . S
H145 C129 0.961 . S
H146 C130 0.931 . S
H147 C135 0.930 . S
H148 C136 0.956 . S
H149 C136 0.961 . S
H150 C136 0.961 . S
H151 C137 0.958 . S
H152 C137 0.961 . S
H153 C137 0.960 . S
C154 C155 1.391 . S
C154 C156 1.394 . S
C154 H170 0.931 . S
C155 C154 1.391 . S
C155 C159 1.376 . S
C156 C154 1.394 . S
C156 C157 1.369 . S
C156 C160 1.531 . S
C157 C156 1.369 . S
C157 C158 1.410 . S
C157 C165 1.503 . S
C158 C157 1.410 . S
C158 C159 1.392 . S
C158 C161 1.511 . S
C159 C155 1.376 . S
C159 C158 1.392 . S
C159 H171 0.929 . S
C160 C156 1.531 . S
C160 H172 0.960 . S
C160 H173 0.962 . S
C160 H174 0.960 . S
C161 C158 1.511 . S
C161 H175 0.961 . S
C161 H176 0.961 . S
C161 H177 0.961 . S
C162 C163 1.370 . S
C162 C164 1.363 . S
C162 H178 0.931 . S
C163 C162 1.370 . S
C163 C167 1.408 . S
C164 C162 1.363 . S
C164 C165 1.370 . S
C164 C168 1.524 . S
C165 C157 1.503 . S
C165 C164 1.370 . S
C165 C166 1.403 . S
C166 C165 1.403 . S
C166 C167 1.404 . S
C166 C169 1.539 . S
C167 C163 1.408 . S
C167 C166 1.404 . S
C167 H179 0.930 . S
C168 C164 1.524 . S
C168 H180 0.956 . S
C168 H181 0.961 . S
C168 H182 0.961 . S
C169 C166 1.539 . S
C169 H183 0.958 . S
C169 H184 0.961 . S
C169 H185 0.960 . S
H170 C154 0.931 . S
H171 C159 0.929 . S
H172 C160 0.960 . S
H173 C160 0.962 . S
H174 C160 0.960 . S
H175 C161 0.961 . S
H176 C161 0.961 . S
H177 C161 0.961 . S
H178 C162 0.931 . S
H179 C167 0.930 . S
H180 C168 0.956 . S
H181 C168 0.961 . S
H182 C168 0.961 . S
H183 C169 0.958 . S
H184 C169 0.961 . S
H185 C169 0.960 . S
C186 C187 1.391 . S
C186 C188 1.394 1_554 S
C186 H202 0.930 1_554 S
C187 C186 1.391 . S
C187 C191 1.376 . S
C188 C186 1.394 1_556 S
C188 C189 1.369 1_556 S
C188 C192 1.531 . S
C189 C188 1.369 1_554 S
C189 C190 1.410 . S
C189 C197 1.503 . S
C190 C189 1.410 . S
C190 C191 1.392 . S
C190 C193 1.511 . S
C191 C187 1.376 . S
C191 C190 1.392 . S
C191 H203 0.929 . S
C192 C188 1.531 . S
C192 H204 0.960 . S
C192 H205 0.962 . S
C192 H206 0.960 . S
C193 C190 1.511 . S
C193 H207 0.961 . S
C193 H208 0.961 . S
C193 H209 0.961 . S
C194 C195 1.370 . S
C194 C196 1.363 . S
C194 H210 0.931 . S
C195 C194 1.370 . S
C195 C199 1.408 1_554 S
C196 C194 1.363 . S
C196 C197 1.370 . S
C196 C200 1.524 . S
C197 C189 1.503 . S
C197 C196 1.370 . S
C197 C198 1.403 1_554 S
C198 C197 1.403 1_556 S
C198 C199 1.404 . S
C198 C201 1.539 . S
C199 C195 1.408 1_556 S
C199 C198 1.404 . S
C199 H211 0.930 . S
C200 C196 1.524 . S
C200 H212 0.956 . S
C200 H213 0.961 . S
C200 H214 0.961 . S
C201 C198 1.539 . S
C201 H215 0.958 . S
C201 H216 0.961 . S
C201 H217 0.960 . S
H202 C186 0.930 1_556 S
H203 C191 0.929 . S
H204 C192 0.960 . S
H205 C192 0.962 . S
H206 C192 0.960 . S
H207 C193 0.961 . S
H208 C193 0.961 . S
H209 C193 0.961 . S
H210 C194 0.931 . S
H211 C199 0.930 . S
H212 C200 0.956 . S
H213 C200 0.961 . S
H214 C200 0.961 . S
H215 C201 0.958 . S
H216 C201 0.961 . S
H217 C201 0.960 . S
C218 C219 1.391 . S
C218 C220 1.394 . S
C218 H234 0.931 . S
C219 C218 1.391 . S
C219 C223 1.376 . S
C220 C218 1.394 . S
C220 C221 1.369 . S
C220 C224 1.531 . S
C221 C220 1.369 . S
C221 C222 1.410 . S
C221 C229 1.503 . S
C222 C221 1.410 . S
C222 C223 1.392 . S
C222 C225 1.511 . S
C223 C219 1.376 . S
C223 C222 1.392 . S
C223 H235 0.929 . S
C224 C220 1.531 . S
C224 H236 0.960 . S
C224 H237 0.962 . S
C224 H238 0.960 . S
C225 C222 1.511 . S
C225 H239 0.961 . S
C225 H240 0.961 . S
C225 H241 0.961 . S
C226 C227 1.370 . S
C226 C228 1.363 . S
C226 H242 0.931 . S
C227 C226 1.370 . S
C227 C231 1.408 . S
C228 C226 1.363 . S
C228 C229 1.370 . S
C228 C232 1.524 . S
C229 C221 1.503 . S
C229 C228 1.370 . S
C229 C230 1.403 . S
C230 C229 1.403 . S
C230 C231 1.404 . S
C230 C233 1.539 . S
C231 C227 1.408 . S
C231 C230 1.404 . S
C231 H243 0.930 . S
C232 C228 1.524 . S
C232 H244 0.956 . S
C232 H245 0.961 . S
C232 H246 0.961 . S
C233 C230 1.539 . S
C233 H247 0.958 . S
C233 H248 0.961 . S
C233 H249 0.960 . S
H234 C218 0.931 . S
H235 C223 0.929 . S
H236 C224 0.960 . S
H237 C224 0.962 . S
H238 C224 0.960 . S
H239 C225 0.961 . S
H240 C225 0.961 . S
H241 C225 0.961 . S
H242 C226 0.931 . S
H243 C231 0.930 . S
H244 C232 0.956 . S
H245 C232 0.961 . S
H246 C232 0.961 . S
H247 C233 0.958 . S
H248 C233 0.961 . S
H249 C233 0.960 . S
C250 C251 1.391 . S
C250 C252 1.394 . S
C250 H266 0.931 . S
C251 C250 1.391 . S
C251 C255 1.376 . S
C252 C250 1.394 . S
C252 C253 1.369 . S
C252 C256 1.531 . S
C253 C252 1.369 . S
C253 C254 1.410 . S
C253 C261 1.503 . S
C254 C253 1.410 . S
C254 C255 1.392 . S
C254 C257 1.511 . S
C255 C251 1.376 . S
C255 C254 1.392 . S
C255 H267 0.929 . S
C256 C252 1.531 . S
C256 H268 0.960 . S
C256 H269 0.962 . S
C256 H270 0.960 . S
C257 C254 1.511 . S
C257 H271 0.961 . S
C257 H272 0.961 . S
C257 H273 0.961 . S
C258 C259 1.370 . S
C258 C260 1.363 . S
C258 H274 0.931 . S
C259 C258 1.370 . S
C259 C263 1.408 . S
C260 C258 1.363 . S
C260 C261 1.370 . S
C260 C264 1.524 . S
C261 C253 1.503 . S
C261 C260 1.370 . S
C261 C262 1.403 . S
C262 C261 1.403 . S
C262 C263 1.404 . S
C262 C265 1.539 . S
C263 C259 1.408 . S
C263 C262 1.404 . S
C263 H275 0.930 . S
C264 C260 1.524 . S
C264 H276 0.956 . S
C264 H277 0.961 . S
C264 H278 0.961 . S
C265 C262 1.539 . S
C265 H279 0.958 . S
C265 H280 0.961 . S
C265 H281 0.960 . S
H266 C250 0.931 . S
H267 C255 0.929 . S
H268 C256 0.960 . S
H269 C256 0.962 . S
H270 C256 0.960 . S
H271 C257 0.961 . S
H272 C257 0.961 . S
H273 C257 0.961 . S
H274 C258 0.931 . S
H275 C263 0.930 . S
H276 C264 0.956 . S
H277 C264 0.961 . S
H278 C264 0.961 . S
H279 C265 0.958 . S
H280 C265 0.961 . S
H281 C265 0.960 . S
C282 C283 1.391 . S
C282 C284 1.394 . S
C282 H298 0.931 . S
C283 C282 1.391 . S
C283 C287 1.376 . S
C284 C282 1.394 . S
C284 C285 1.369 . S
C284 C288 1.531 . S
C285 C284 1.369 . S
C285 C286 1.410 . S
C285 C293 1.503 . S
C286 C285 1.410 . S
C286 C287 1.392 . S
C286 C289 1.511 . S
C287 C283 1.376 . S
C287 C286 1.392 . S
C287 H299 0.929 . S
C288 C284 1.531 . S
C288 H300 0.960 . S
C288 H301 0.962 . S
C288 H302 0.960 . S
C289 C286 1.511 . S
C289 H303 0.961 . S
C289 H304 0.961 . S
C289 H305 0.961 . S
C290 C291 1.370 . S
C290 C292 1.363 . S
C290 H306 0.931 . S
C291 C290 1.370 . S
C291 C295 1.408 . S
C292 C290 1.363 . S
C292 C293 1.370 . S
C292 C296 1.524 . S
C293 C285 1.503 . S
C293 C292 1.370 . S
C293 C294 1.403 . S
C294 C293 1.403 . S
C294 C295 1.404 . S
C294 C297 1.539 . S
C295 C291 1.408 . S
C295 C294 1.404 . S
C295 H307 0.930 . S
C296 C292 1.524 . S
C296 H308 0.956 . S
C296 H309 0.961 . S
C296 H310 0.961 . S
C297 C294 1.539 . S
C297 H311 0.958 . S
C297 H312 0.961 . S
C297 H313 0.960 . S
H298 C282 0.931 . S
H299 C287 0.929 . S
H300 C288 0.960 . S
H301 C288 0.962 . S
H302 C288 0.960 . S
H303 C289 0.961 . S
H304 C289 0.961 . S
H305 C289 0.961 . S
H306 C290 0.931 . S
H307 C295 0.930 . S
H308 C296 0.956 . S
H309 C296 0.961 . S
H310 C296 0.961 . S
H311 C297 0.958 . S
H312 C297 0.961 . S
H313 C297 0.960 . S
C314 C315 1.391 . S
C314 C316 1.394 . S
C314 H330 0.931 . S
C315 C314 1.391 . S
C315 C319 1.376 . S
C316 C314 1.394 . S
C316 C317 1.369 . S
C316 C320 1.531 . S
C317 C316 1.369 . S
C317 C318 1.410 . S
C317 C325 1.503 . S
C318 C317 1.410 . S
C318 C319 1.392 . S
C318 C321 1.511 . S
C319 C315 1.376 . S
C319 C318 1.392 . S
C319 H331 0.929 . S
C320 C316 1.531 . S
C320 H332 0.960 . S
C320 H333 0.962 . S
C320 H334 0.960 . S
C321 C318 1.511 . S
C321 H335 0.961 . S
C321 H336 0.961 . S
C321 H337 0.961 . S
C322 C323 1.370 . S
C322 C324 1.363 . S
C322 H338 0.931 . S
C323 C322 1.370 . S
C323 C327 1.408 . S
C324 C322 1.363 . S
C324 C325 1.370 . S
C324 C328 1.524 . S
C325 C317 1.503 . S
C325 C324 1.370 . S
C325 C326 1.403 . S
C326 C325 1.403 . S
C326 C327 1.404 . S
C326 C329 1.539 . S
C327 C323 1.408 . S
C327 C326 1.404 . S
C327 H339 0.930 . S
C328 C324 1.524 . S
C328 H340 0.956 . S
C328 H341 0.961 . S
C328 H342 0.961 . S
C329 C326 1.539 . S
C329 H343 0.958 . S
C329 H344 0.961 . S
C329 H345 0.960 . S
H330 C314 0.931 . S
H331 C319 0.929 . S
H332 C320 0.960 . S
H333 C320 0.962 . S
H334 C320 0.960 . S
H335 C321 0.961 . S
H336 C321 0.961 . S
H337 C321 0.961 . S
H338 C322 0.931 . S
H339 C327 0.930 . S
H340 C328 0.956 . S
H341 C328 0.961 . S
H342 C328 0.961 . S
H343 C329 0.958 . S
H344 C329 0.961 . S
H345 C329 0.960 . S
C346 C347 1.391 . S
C346 C348 1.394 . S
C346 H362 0.931 . S
C347 C346 1.391 . S
C347 C351 1.376 . S
C348 C346 1.394 . S
C348 C349 1.369 . S
C348 C352 1.531 . S
C349 C348 1.369 . S
C349 C350 1.410 . S
C349 C357 1.503 . S
C350 C349 1.410 . S
C350 C351 1.392 . S
C350 C353 1.511 . S
C351 C347 1.376 . S
C351 C350 1.392 . S
C351 H363 0.929 . S
C352 C348 1.531 . S
C352 H364 0.960 . S
C352 H365 0.962 . S
C352 H366 0.960 . S
C353 C350 1.511 . S
C353 H367 0.961 . S
C353 H368 0.961 . S
C353 H369 0.961 . S
C354 C355 1.370 . S
C354 C356 1.363 . S
C354 H370 0.931 . S
C355 C354 1.370 . S
C355 C359 1.408 . S
C356 C354 1.363 . S
C356 C357 1.370 . S
C356 C360 1.524 . S
C357 C349 1.503 . S
C357 C356 1.370 . S
C357 C358 1.403 . S
C358 C357 1.403 . S
C358 C359 1.404 . S
C358 C361 1.539 . S
C359 C355 1.408 . S
C359 C358 1.404 . S
C359 H371 0.930 . S
C360 C356 1.524 . S
C360 H372 0.956 . S
C360 H373 0.961 . S
C360 H374 0.961 . S
C361 C358 1.539 . S
C361 H375 0.958 . S
C361 H376 0.961 . S
C361 H377 0.960 . S
H362 C346 0.931 . S
H363 C351 0.929 . S
H364 C352 0.960 . S
H365 C352 0.962 . S
H366 C352 0.960 . S
H367 C353 0.961 . S
H368 C353 0.961 . S
H369 C353 0.961 . S
H370 C354 0.931 . S
H371 C359 0.930 . S
H372 C360 0.956 . S
H373 C360 0.961 . S
H374 C360 0.961 . S
H375 C361 0.958 . S
H376 C361 0.961 . S
H377 C361 0.960 . S
C378 C379 1.391 . S
C378 C380 1.394 . S
C378 H394 0.931 . S
C379 C378 1.391 . S
C379 C383 1.376 . S
C380 C378 1.394 . S
C380 C381 1.369 . S
C380 C384 1.531 . S
C381 C380 1.369 . S
C381 C382 1.410 . S
C381 C389 1.503 . S
C382 C381 1.410 . S
C382 C383 1.392 . S
C382 C385 1.511 . S
C383 C379 1.376 . S
C383 C382 1.392 . S
C383 H395 0.929 . S
C384 C380 1.531 . S
C384 H396 0.960 . S
C384 H397 0.962 . S
C384 H398 0.960 . S
C385 C382 1.511 . S
C385 H399 0.961 . S
C385 H400 0.961 . S
C385 H401 0.961 . S
C386 C387 1.370 . S
C386 C388 1.363 . S
C386 H402 0.931 . S
C387 C386 1.370 . S
C387 C391 1.408 . S
C388 C386 1.363 . S
C388 C389 1.370 . S
C388 C392 1.524 . S
C389 C381 1.503 . S
C389 C388 1.370 . S
C389 C390 1.403 . S
C390 C389 1.403 . S
C390 C391 1.404 . S
C390 C393 1.539 . S
C391 C387 1.408 . S
C391 C390 1.404 . S
C391 H403 0.930 . S
C392 C388 1.524 . S
C392 H404 0.956 . S
C392 H405 0.961 . S
C392 H406 0.961 . S
C393 C390 1.539 . S
C393 H407 0.958 . S
C393 H408 0.961 . S
C393 H409 0.960 . S
H394 C378 0.931 . S
H395 C383 0.929 . S
H396 C384 0.960 . S
H397 C384 0.962 . S
H398 C384 0.960 . S
H399 C385 0.961 . S
H400 C385 0.961 . S
H401 C385 0.961 . S
H402 C386 0.931 . S
H403 C391 0.930 . S
H404 C392 0.956 . S
H405 C392 0.961 . S
H406 C392 0.961 . S
H407 C393 0.958 . S
H408 C393 0.961 . S
H409 C393 0.960 . S
C410 C411 1.391 . S
C410 C412 1.394 . S
C410 H426 0.931 . S
C411 C410 1.391 . S
C411 C415 1.376 . S
C412 C410 1.394 . S
C412 C413 1.369 . S
C412 C416 1.531 . S
C413 C412 1.369 . S
C413 C414 1.410 . S
C413 C421 1.503 . S
C414 C413 1.410 . S
C414 C415 1.392 . S
C414 C417 1.511 . S
C415 C411 1.376 . S
C415 C414 1.392 . S
C415 H427 0.929 . S
C416 C412 1.531 . S
C416 H428 0.960 . S
C416 H429 0.962 . S
C416 H430 0.960 . S
C417 C414 1.511 . S
C417 H431 0.961 . S
C417 H432 0.961 . S
C417 H433 0.961 . S
C418 C419 1.370 . S
C418 C420 1.363 . S
C418 H434 0.931 . S
C419 C418 1.370 . S
C419 C423 1.408 . S
C420 C418 1.363 . S
C420 C421 1.370 . S
C420 C424 1.524 . S
C421 C413 1.503 . S
C421 C420 1.370 . S
C421 C422 1.403 . S
C422 C421 1.403 . S
C422 C423 1.404 . S
C422 C425 1.539 . S
C423 C419 1.408 . S
C423 C422 1.404 . S
C423 H435 0.930 . S
C424 C420 1.524 . S
C424 H436 0.956 . S
C424 H437 0.961 . S
C424 H438 0.961 . S
C425 C422 1.539 . S
C425 H439 0.958 . S
C425 H440 0.961 . S
C425 H441 0.960 . S
H426 C410 0.931 . S
H427 C415 0.929 . S
H428 C416 0.960 . S
H429 C416 0.962 . S
H430 C416 0.960 . S
H431 C417 0.961 . S
H432 C417 0.961 . S
H433 C417 0.961 . S
H434 C418 0.931 . S
H435 C423 0.930 . S
H436 C424 0.956 . S
H437 C424 0.961 . S
H438 C424 0.961 . S
H439 C425 0.958 . S
H440 C425 0.961 . S
H441 C425 0.960 . S
C442 C443 1.391 . S
C442 C444 1.394 . S
C442 H458 0.931 . S
C443 C442 1.391 . S
C443 C447 1.376 . S
C444 C442 1.394 . S
C444 C445 1.369 . S
C444 C448 1.531 . S
C445 C444 1.369 . S
C445 C446 1.410 . S
C445 C453 1.503 . S
C446 C445 1.410 . S
C446 C447 1.392 . S
C446 C449 1.511 . S
C447 C443 1.376 . S
C447 C446 1.392 . S
C447 H459 0.929 . S
C448 C444 1.531 . S
C448 H460 0.960 . S
C448 H461 0.962 . S
C448 H462 0.960 . S
C449 C446 1.511 . S
C449 H463 0.961 . S
C449 H464 0.961 . S
C449 H465 0.961 . S
C450 C451 1.370 . S
C450 C452 1.363 . S
C450 H466 0.931 . S
C451 C450 1.370 . S
C451 C455 1.408 . S
C452 C450 1.363 . S
C452 C453 1.370 . S
C452 C456 1.524 . S
C453 C445 1.503 . S
C453 C452 1.370 . S
C453 C454 1.403 . S
C454 C453 1.403 . S
C454 C455 1.404 . S
C454 C457 1.539 . S
C455 C451 1.408 . S
C455 C454 1.404 . S
C455 H467 0.930 . S
C456 C452 1.524 . S
C456 H468 0.956 . S
C456 H469 0.961 . S
C456 H470 0.961 . S
C457 C454 1.539 . S
C457 H471 0.958 . S
C457 H472 0.961 . S
C457 H473 0.960 . S
H458 C442 0.931 . S
H459 C447 0.929 . S
H460 C448 0.960 . S
H461 C448 0.962 . S
H462 C448 0.960 . S
H463 C449 0.961 . S
H464 C449 0.961 . S
H465 C449 0.961 . S
H466 C450 0.931 . S
H467 C455 0.930 . S
H468 C456 0.956 . S
H469 C456 0.961 . S
H470 C456 0.961 . S
H471 C457 0.958 . S
H472 C457 0.961 . S
H473 C457 0.960 . S
C99 C61 1.485 . S
C91 N37 1.487 . S
C123 N4 1.484 . S
C131 C84 1.492 . S
C155 N15 1.509 . S
C163 C60 1.519 . S
C187 N26 1.513 . S
C195 C83 1.518 . S
C227 C64 1.486 . S
C219 C9 1.480 . S
C259 C86 1.487 . S
C251 C17 1.539 . S
C283 C31 1.546 . S
C291 C65 1.490 . S
C315 C42 1.533 . S
C323 C85 1.495 . S
C355 C88 1.418 . S
C347 C20 1.418 . S
C387 C63 1.401 . S
C379 C28 1.466 . S
C419 C87 1.400 . S
C411 C39 1.419 . S
C443 C6 1.452 . S
C451 C62 1.391 . S
