# Generated by pormake.
# Topology the, (3,8)-cn, num edge types: 1
# Building blocks:
#     Node 0, Type 0, BuildingBlock: KAKCAD_clean_linker_0, # of connection points: 3
#     Node 1, Type 0, BuildingBlock: KAKCAD_clean_linker_0, # of connection points: 3
#     Node 2, Type 0, BuildingBlock: KAKCAD_clean_linker_0, # of connection points: 3
#     Node 3, Type 0, BuildingBlock: KAKCAD_clean_linker_0, # of connection points: 3
#     Node 4, Type 0, BuildingBlock: KAKCAD_clean_linker_0, # of connection points: 3
#     Node 5, Type 0, BuildingBlock: KAKCAD_clean_linker_0, # of connection points: 3
#     Node 6, Type 0, BuildingBlock: KAKCAD_clean_linker_0, # of connection points: 3
#     Node 7, Type 0, BuildingBlock: KAKCAD_clean_linker_0, # of connection points: 3
#     Node 8, Type 1, BuildingBlock: GIZVER_clean_sbu_0, # of connection points: 8
#     Node 9, Type 1, BuildingBlock: GIZVER_clean_sbu_0, # of connection points: 8
#     Node 10, Type 1, BuildingBlock: GIZVER_clean_sbu_0, # of connection points: 8
#     Edge 11, Type (0, 1), BuildingBlock: CIFDUS_clean_linker_0, # of connection points: 2
#     Edge 12, Type (0, 1), BuildingBlock: CIFDUS_clean_linker_0, # of connection points: 2
#     Edge 13, Type (0, 1), BuildingBlock: CIFDUS_clean_linker_0, # of connection points: 2
#     Edge 14, Type (0, 1), BuildingBlock: CIFDUS_clean_linker_0, # of connection points: 2
#     Edge 15, Type (0, 1), BuildingBlock: CIFDUS_clean_linker_0, # of connection points: 2
#     Edge 16, Type (0, 1), BuildingBlock: CIFDUS_clean_linker_0, # of connection points: 2
#     Edge 17, Type (0, 1), BuildingBlock: CIFDUS_clean_linker_0, # of connection points: 2
#     Edge 18, Type (0, 1), BuildingBlock: CIFDUS_clean_linker_0, # of connection points: 2
#     Edge 19, Type (0, 1), BuildingBlock: CIFDUS_clean_linker_0, # of connection points: 2
#     Edge 20, Type (0, 1), BuildingBlock: CIFDUS_clean_linker_0, # of connection points: 2
#     Edge 21, Type (0, 1), BuildingBlock: CIFDUS_clean_linker_0, # of connection points: 2
#     Edge 22, Type (0, 1), BuildingBlock: CIFDUS_clean_linker_0, # of connection points: 2
#     Edge 23, Type (0, 1), BuildingBlock: CIFDUS_clean_linker_0, # of connection points: 2
#     Edge 24, Type (0, 1), BuildingBlock: CIFDUS_clean_linker_0, # of connection points: 2
#     Edge 25, Type (0, 1), BuildingBlock: CIFDUS_clean_linker_0, # of connection points: 2
#     Edge 26, Type (0, 1), BuildingBlock: CIFDUS_clean_linker_0, # of connection points: 2
#     Edge 27, Type (0, 1), BuildingBlock: CIFDUS_clean_linker_0, # of connection points: 2
#     Edge 28, Type (0, 1), BuildingBlock: CIFDUS_clean_linker_0, # of connection points: 2
#     Edge 29, Type (0, 1), BuildingBlock: CIFDUS_clean_linker_0, # of connection points: 2
#     Edge 30, Type (0, 1), BuildingBlock: CIFDUS_clean_linker_0, # of connection points: 2
#     Edge 31, Type (0, 1), BuildingBlock: CIFDUS_clean_linker_0, # of connection points: 2
#     Edge 32, Type (0, 1), BuildingBlock: CIFDUS_clean_linker_0, # of connection points: 2
#     Edge 33, Type (0, 1), BuildingBlock: CIFDUS_clean_linker_0, # of connection points: 2
#     Edge 34, Type (0, 1), BuildingBlock: CIFDUS_clean_linker_0, # of connection points: 2
# Relax obj value: 0.046
# Max RMSD: 0.138
# Mean RMSD: 0.069
data_MOF--net-the--node1-GIZVER_clean_sbu_0--node2-KAKCAD_clean_linker_0--edge1-CIFDUS_clean_linker_0
_symmetry_space_group_name_H-M    P1
_symmetry_Int_Tables_number       1
_symmetry_cell_setting            triclinic
loop_
_symmetry_equiv_pos_as_xyz
'x, y, z'
_cell_length_a     45.449305
_cell_length_b     42.833449
_cell_length_c     39.5504
_cell_angle_alpha  86.589753
_cell_angle_beta   94.663284
_cell_angle_gamma 102.79528
loop_
_atom_site_label
_atom_site_type_symbol
_atom_site_fract_x
_atom_site_fract_y
_atom_site_fract_z
_atom_type_partial_charge
C0 C 0.34529 0.36962 0.28657 0.0
C1 C 0.35308 0.40265 0.27838 0.0
C2 C 0.33928 0.35855 0.31975 0.0
C3 C 0.3408 0.38027 0.34542 0.0
C4 C 0.34783 0.41331 0.33709 0.0
C5 C 0.35403 0.42439 0.30391 0.0
C6 C 0.33532 0.36842 0.38084 0.0
C7 C 0.34804 0.34332 0.39534 0.0
C8 C 0.34214 0.33116 0.42844 0.0
C9 C 0.32367 0.34467 0.44734 0.0
C10 C 0.3105 0.3696 0.4331 0.0
C11 C 0.31663 0.38146 0.39989 0.0
C12 C 0.28845 0.38164 0.4516 0.0
C13 C 0.26642 0.36018 0.46949 0.0
C14 C 0.28774 0.41431 0.44928 0.0
C15 C 0.26449 0.42501 0.46273 0.0
C16 C 0.24156 0.4033 0.47907 0.0
C17 C 0.35392 0.30314 0.4424 0.0
C18 C 0.3516 0.27672 0.42224 0.0
C19 C 0.36736 0.30243 0.47566 0.0
C20 C 0.37886 0.27596 0.48821 0.0
C21 C 0.37675 0.24968 0.46781 0.0
C22 C 0.36287 0.25031 0.43479 0.0
C23 C 0.24329 0.37093 0.4832 0.0
H24 H 0.34469 0.35228 0.26753 0.0
H25 H 0.33351 0.33295 0.32534 0.0
H26 H 0.34924 0.43059 0.35639 0.0
H27 H 0.3598 0.44999 0.29827 0.0
H28 H 0.36271 0.33329 0.38087 0.0
H29 H 0.30575 0.3999 0.38819 0.0
H30 H 0.31888 0.33513 0.47278 0.0
H31 H 0.26618 0.3348 0.47157 0.0
H32 H 0.30467 0.43152 0.43614 0.0
H33 H 0.26375 0.45007 0.45883 0.0
H34 H 0.34099 0.27644 0.39668 0.0
H35 H 0.36948 0.32256 0.49169 0.0
H36 H 0.22624 0.3537 0.49613 0.0
H37 H 0.36134 0.23065 0.41825 0.0
H38 H 0.38943 0.27604 0.51377 0.0
C39 C 0.78397 0.42266 0.37505 0.0
C40 C 0.80901 0.40849 0.38311 0.0
C41 C 0.75705 0.4053 0.35949 0.0
C42 C 0.7541 0.37307 0.35203 0.0
C43 C 0.77873 0.35854 0.36065 0.0
C44 C 0.80591 0.37607 0.37579 0.0
C45 C 0.72536 0.35482 0.33531 0.0
C46 C 0.71126 0.36834 0.30682 0.0
C47 C 0.6839 0.35156 0.29105 0.0
C48 C 0.67055 0.32105 0.3045 0.0
C49 C 0.68389 0.30724 0.33332 0.0
C50 C 0.71157 0.32422 0.34827 0.0
C51 C 0.66828 0.2756 0.34825 0.0
C52 C 0.63659 0.26796 0.34931 0.0
C53 C 0.68469 0.25282 0.36157 0.0
C54 C 0.66976 0.22318 0.3754 0.0
C55 C 0.63806 0.21553 0.37604 0.0
C56 C 0.66877 0.36598 0.261 0.0
C57 C 0.66715 0.39844 0.25981 0.0
C58 C 0.6549 0.34708 0.23374 0.0
C59 C 0.63936 0.36012 0.20637 0.0
C60 C 0.63727 0.39244 0.20544 0.0
C61 C 0.6516 0.41149 0.23242 0.0
C62 C 0.62171 0.23833 0.36287 0.0
H63 H 0.78495 0.44722 0.38104 0.0
H64 H 0.73831 0.41702 0.35371 0.0
H65 H 0.77719 0.33376 0.35503 0.0
H66 H 0.82464 0.3643 0.38114 0.0
H67 H 0.72196 0.39173 0.29651 0.0
H68 H 0.72186 0.31421 0.37083 0.0
H69 H 0.64938 0.30812 0.29266 0.0
H70 H 0.62319 0.2851 0.34013 0.0
H71 H 0.70905 0.25768 0.36089 0.0
H72 H 0.683 0.20607 0.38519 0.0
H73 H 0.67718 0.41361 0.28053 0.0
H74 H 0.65612 0.32213 0.23349 0.0
H75 H 0.59735 0.23351 0.36364 0.0
H76 H 0.65013 0.43635 0.23286 0.0
H77 H 0.62909 0.34486 0.18581 0.0
C78 C 0.62154 0.66736 0.24358 0.0
C79 C 0.63468 0.65479 0.21796 0.0
C80 C 0.63955 0.68665 0.268 0.0
C81 C 0.67123 0.69384 0.26754 0.0
C82 C 0.68433 0.68252 0.24096 0.0
C83 C 0.66623 0.66331 0.21632 0.0
C84 C 0.69034 0.71071 0.29628 0.0
C85 C 0.715 0.69886 0.31129 0.0
C86 C 0.73119 0.71188 0.34092 0.0
C87 C 0.72307 0.73801 0.35481 0.0
C88 C 0.69864 0.75057 0.34007 0.0
C89 C 0.68245 0.73669 0.31078 0.0
C90 C 0.68899 0.77702 0.35621 0.0
C91 C 0.68916 0.77776 0.39179 0.0
C92 C 0.67867 0.80123 0.33618 0.0
C93 C 0.66817 0.82505 0.35126 0.0
C94 C 0.66788 0.82544 0.38676 0.0
C95 C 0.75493 0.69653 0.35876 0.0
C96 C 0.75054 0.66295 0.36109 0.0
C97 C 0.78152 0.71492 0.37453 0.0
C98 C 0.80293 0.70003 0.39251 0.0
C99 C 0.79821 0.66641 0.39516 0.0
C100 C 0.77192 0.64816 0.37881 0.0
C101 C 0.67886 0.80174 0.40686 0.0
H102 H 0.59725 0.66149 0.24531 0.0
H103 H 0.62865 0.69466 0.2882 0.0
H104 H 0.70866 0.6879 0.23967 0.0
H105 H 0.67701 0.65392 0.19696 0.0
H106 H 0.72092 0.67859 0.30053 0.0
H107 H 0.66312 0.74555 0.29968 0.0
H108 H 0.73531 0.74808 0.37769 0.0
H109 H 0.69643 0.75926 0.40808 0.0
H110 H 0.67868 0.80179 0.30878 0.0
H111 H 0.66022 0.84322 0.33507 0.0
H112 H 0.7302 0.6479 0.34981 0.0
H113 H 0.78578 0.74084 0.37302 0.0
H114 H 0.67855 0.80109 0.43425 0.0
H115 H 0.76772 0.62224 0.37973 0.0
H116 H 0.82286 0.71484 0.4049 0.0
C117 C 0.33998 0.62434 0.23996 0.0
C118 C 0.37105 0.62529 0.24676 0.0
C119 C 0.32502 0.64155 0.25926 0.0
C120 C 0.34062 0.65992 0.28616 0.0
C121 C 0.37166 0.6608 0.29294 0.0
C122 C 0.38667 0.64401 0.27337 0.0
C123 C 0.32467 0.67774 0.30742 0.0
C124 C 0.29483 0.66475 0.31576 0.0
C125 C 0.27988 0.68084 0.33664 0.0
C126 C 0.29554 0.71028 0.34988 0.0
C127 C 0.32563 0.72341 0.34234 0.0
C128 C 0.33962 0.7073 0.32054 0.0
C129 C 0.34345 0.75314 0.35809 0.0
C130 C 0.33176 0.7809 0.35875 0.0
C131 C 0.37322 0.75411 0.37147 0.0
C132 C 0.39135 0.78237 0.38375 0.0
C133 C 0.38035 0.81063 0.38295 0.0
C134 C 0.24852 0.66564 0.34572 0.0
C135 C 0.22743 0.64889 0.32145 0.0
C136 C 0.24 0.66579 0.37912 0.0
C137 C 0.21163 0.64851 0.38828 0.0
C138 C 0.19119 0.63057 0.36431 0.0
C139 C 0.19921 0.63146 0.33066 0.0
C140 C 0.35008 0.80943 0.37106 0.0
H141 H 0.32703 0.60997 0.21997 0.0
H142 H 0.30121 0.64054 0.25293 0.0
H143 H 0.38445 0.67415 0.31372 0.0
H144 H 0.41069 0.64594 0.27911 0.0
H145 H 0.28354 0.64133 0.30704 0.0
H146 H 0.36239 0.71802 0.31375 0.0
H147 H 0.28458 0.72267 0.3665 0.0
H148 H 0.30888 0.78086 0.34865 0.0
H149 H 0.38267 0.73296 0.37214 0.0
H150 H 0.41424 0.78214 0.39363 0.0
H151 H 0.23295 0.64879 0.29532 0.0
H152 H 0.25572 0.6781 0.39858 0.0
H153 H 0.34091 0.83077 0.37016 0.0
H154 H 0.18378 0.61831 0.31149 0.0
H155 H 0.20623 0.64806 0.41451 0.0
C156 C 0.23156 0.63645 0.68731 0.0
C157 C 0.22876 0.64081 0.65173 0.0
C158 C 0.25771 0.65212 0.7061 0.0
C159 C 0.28138 0.6728 0.68972 0.0
C160 C 0.27818 0.67746 0.65423 0.0
C161 C 0.25231 0.66173 0.63555 0.0
C162 C 0.30952 0.68955 0.70903 0.0
C163 C 0.32475 0.67305 0.73427 0.0
C164 C 0.35282 0.68828 0.75004 0.0
C165 C 0.3649 0.7206 0.74092 0.0
C166 C 0.35038 0.73736 0.7156 0.0
C167 C 0.3225 0.72173 0.70019 0.0
C168 C 0.36589 0.77008 0.70333 0.0
C169 C 0.38312 0.79221 0.72612 0.0
C170 C 0.36576 0.77841 0.66835 0.0
C171 C 0.38338 0.80744 0.65644 0.0
C172 C 0.40172 0.82878 0.67916 0.0
C173 C 0.37107 0.67036 0.77404 0.0
C174 C 0.35764 0.64742 0.79842 0.0
C175 C 0.4027 0.6767 0.77284 0.0
C176 C 0.42045 0.66141 0.79572 0.0
C177 C 0.40726 0.63846 0.82014 0.0
C178 C 0.37553 0.63165 0.82121 0.0
C179 C 0.40092 0.82111 0.71418 0.0
H180 H 0.21391 0.62029 0.70047 0.0
H181 H 0.25939 0.64815 0.73342 0.0
H182 H 0.29603 0.69287 0.64065 0.0
H183 H 0.25082 0.6658 0.60823 0.0
H184 H 0.31558 0.64793 0.7402 0.0
H185 H 0.31092 0.73463 0.68096 0.0
H186 H 0.38645 0.73252 0.75277 0.0
H187 H 0.38334 0.78693 0.75325 0.0
H188 H 0.35318 0.76185 0.64997 0.0
H189 H 0.38374 0.81245 0.62929 0.0
H190 H 0.33337 0.64195 0.80019 0.0
H191 H 0.41401 0.69353 0.75402 0.0
H192 H 0.41445 0.83728 0.73236 0.0
H193 H 0.36445 0.61391 0.83939 0.0
H194 H 0.44474 0.66796 0.79428 0.0
C195 C 0.35257 0.34561 0.82411 0.0
C196 C 0.38388 0.35667 0.82124 0.0
C197 C 0.33391 0.33075 0.79697 0.0
C198 C 0.34622 0.32646 0.76652 0.0
C199 C 0.37735 0.33807 0.76348 0.0
C200 C 0.39587 0.35307 0.79035 0.0
C201 C 0.32704 0.30982 0.73784 0.0
C202 C 0.29934 0.31773 0.72656 0.0
C203 C 0.28263 0.30393 0.69755 0.0
C204 C 0.29335 0.28122 0.68054 0.0
C205 C 0.32078 0.2728 0.69167 0.0
C206 C 0.33741 0.28718 0.72033 0.0
C207 C 0.33286 0.25014 0.67253 0.0
C208 C 0.31427 0.22107 0.66196 0.0
C209 C 0.36329 0.25754 0.66476 0.0
C210 C 0.37506 0.23615 0.64739 0.0
C211 C 0.35679 0.20661 0.63762 0.0
C212 C 0.2555 0.31537 0.68315 0.0
C213 C 0.23277 0.3187 0.70389 0.0
C214 C 0.25294 0.3244 0.64847 0.0
C215 C 0.22872 0.33742 0.63501 0.0
C216 C 0.20632 0.34136 0.65582 0.0
C217 C 0.20821 0.33133 0.69026 0.0
C218 C 0.32613 0.19947 0.64478 0.0
H219 H 0.34256 0.3478 0.84754 0.0
H220 H 0.31 0.32197 0.80006 0.0
H221 H 0.38742 0.33581 0.74008 0.0
H222 H 0.41966 0.36209 0.78674 0.0
H223 H 0.29167 0.33595 0.73918 0.0
H224 H 0.35856 0.28066 0.72912 0.0
H225 H 0.28072 0.27075 0.658 0.0
H226 H 0.29073 0.21471 0.6677 0.0
H227 H 0.37801 0.28006 0.67191 0.0
H228 H 0.39856 0.24288 0.64154 0.0
H229 H 0.23416 0.31181 0.73067 0.0
H230 H 0.27025 0.32242 0.63193 0.0
H231 H 0.31147 0.17686 0.6379 0.0
H232 H 0.19132 0.33438 0.70685 0.0
H233 H 0.22774 0.34495 0.60838 0.0
C234 C 0.67993 0.22465 0.64339 0.0
C235 C 0.64977 0.22569 0.63324 0.0
C236 C 0.69829 0.24908 0.66257 0.0
C237 C 0.68676 0.27485 0.6724 0.0
C238 C 0.65645 0.2755 0.6627 0.0
C239 C 0.63825 0.25132 0.64335 0.0
C240 C 0.70612 0.30105 0.69266 0.0
C241 C 0.73573 0.31509 0.68396 0.0
C242 C 0.75425 0.34016 0.7027 0.0
C243 C 0.74215 0.35066 0.73075 0.0
C244 C 0.71209 0.33814 0.73869 0.0
C245 C 0.69448 0.31301 0.71982 0.0
C246 C 0.69842 0.35276 0.76516 0.0
C247 C 0.71437 0.36145 0.79642 0.0
C248 C 0.6695 0.35935 0.75858 0.0
C249 C 0.65685 0.37426 0.78247 0.0
C250 C 0.67265 0.38289 0.81383 0.0
C251 C 0.78532 0.35644 0.69203 0.0
C252 C 0.80169 0.34114 0.67189 0.0
C253 C 0.79877 0.38804 0.70109 0.0
C254 C 0.82721 0.40352 0.6907 0.0
C255 C 0.84287 0.3889 0.66911 0.0
C256 C 0.82955 0.35726 0.66007 0.0
C257 C 0.70162 0.37628 0.82049 0.0
H258 H 0.68952 0.20534 0.63585 0.0
H259 H 0.72148 0.24774 0.66989 0.0
H260 H 0.64688 0.29507 0.66955 0.0
H261 H 0.61504 0.25271 0.63625 0.0
H262 H 0.74359 0.3071 0.6616 0.0
H263 H 0.6716 0.30261 0.72647 0.0
H264 H 0.75564 0.36931 0.74616 0.0
H265 H 0.73663 0.35654 0.8024 0.0
H266 H 0.65684 0.35366 0.73451 0.0
H267 H 0.63482 0.37959 0.77599 0.0
H268 H 0.79316 0.31662 0.66483 0.0
H269 H 0.78738 0.40162 0.71578 0.0
H270 H 0.71434 0.38222 0.84446 0.0
H271 H 0.84015 0.34476 0.64329 0.0
H272 H 0.83656 0.42723 0.69974 0.0
C273 C 0.64293 0.62995 0.73741 0.0
C274 C 0.66475 0.62385 0.76275 0.0
C275 C 0.6517 0.64457 0.70618 0.0
C276 C 0.68242 0.65307 0.69963 0.0
C277 C 0.7042 0.64696 0.72499 0.0
C278 C 0.69546 0.63256 0.75624 0.0
C279 C 0.69196 0.66798 0.66638 0.0
C280 C 0.68027 0.69371 0.6515 0.0
C281 C 0.69099 0.70912 0.62103 0.0
C282 C 0.71287 0.69787 0.60505 0.0
C283 C 0.72481 0.67247 0.61986 0.0
C284 C 0.71416 0.65749 0.65029 0.0
C285 C 0.75038 0.66337 0.60532 0.0
C286 C 0.74881 0.65574 0.57108 0.0
C287 C 0.77677 0.66259 0.62602 0.0
C288 C 0.80119 0.65406 0.61286 0.0
C289 C 0.79957 0.64587 0.57883 0.0
C290 C 0.68122 0.73845 0.60734 0.0
C291 C 0.65078 0.74051 0.60682 0.0
C292 C 0.70263 0.7651 0.59573 0.0
C293 C 0.69387 0.79335 0.58432 0.0
C294 C 0.66353 0.7956 0.58432 0.0
C295 C 0.64202 0.7688 0.59539 0.0
C296 C 0.7732 0.64668 0.55797 0.0
H297 H 0.6191 0.62382 0.74192 0.0
H298 H 0.63447 0.64889 0.68701 0.0
H299 H 0.72808 0.6536 0.72079 0.0
H300 H 0.71275 0.62802 0.77523 0.0
H301 H 0.66402 0.70276 0.66455 0.0
H302 H 0.7234 0.63771 0.66158 0.0
H303 H 0.72147 0.70963 0.5817 0.0
H304 H 0.72859 0.65625 0.55474 0.0
H305 H 0.77854 0.66872 0.65241 0.0
H306 H 0.82115 0.65319 0.62953 0.0
H307 H 0.63377 0.72031 0.61541 0.0
H308 H 0.72634 0.76443 0.59625 0.0
H309 H 0.77154 0.64038 0.53165 0.0
H310 H 0.61851 0.76993 0.5961 0.0
H311 H 0.71091 0.81353 0.57572 0.0
Co312 Co 0.07621 0.48672 0.5484 0.0
Co313 Co 0.04477 0.47024 0.4902 0.0
Co314 Co 0.01617 0.51995 0.52479 0.0
O315 O 0.03409 0.48112 0.53259 0.0
H316 H 0.02096 0.46332 0.54373 0.0
O317 O 0.99876 0.55884 0.51622 0.0
Co318 Co 0.95705 0.55554 0.50062 0.0
Co319 Co 0.9898 0.57074 0.55811 0.0
H320 H 0.01225 0.57645 0.50515 0.0
O321 O 0.05492 0.43083 0.48364 0.0
O322 O 0.08546 0.47535 0.50365 0.0
O323 O 0.04502 0.50128 0.45242 0.0
O324 O 0.04304 0.53938 0.4872 0.0
O325 O 0.98505 0.49559 0.49134 0.0
O326 O 0.91956 0.55609 0.48534 0.0
O327 O 0.96034 0.59699 0.48508 0.0
O328 O 0.94792 0.51155 0.51295 0.0
O329 O 0.98853 0.501 0.56232 0.0
O330 O 0.99241 0.54118 0.59629 0.0
O331 O 0.94885 0.56644 0.54625 0.0
O332 O 0.98141 0.61048 0.56501 0.0
C333 C 0.10372 0.45889 0.57235 0.0
C334 C 0.07551 0.54769 0.55435 0.0
C335 C 0.05012 0.53065 0.45918 0.0
C336 C 0.08179 0.44644 0.49347 0.0
C337 C 0.93147 0.58589 0.47771 0.0
C338 C 0.95682 0.49283 0.49432 0.0
C339 C 0.98338 0.51174 0.59026 0.0
C340 C 0.95394 0.5955 0.5566 0.0
O341 O 0.11391 0.48888 0.56395 0.0
O342 O 0.07511 0.44593 0.56549 0.0
O343 O 0.04742 0.54446 0.55854 0.0
O344 O 0.08319 0.52975 0.53395 0.0
Co345 Co 0.54212 0.95809 0.48311 0.0
Co346 Co 0.55835 0.97759 0.54493 0.0
Co347 Co 0.51213 0.01814 0.50942 0.0
O348 O 0.54752 0.99844 0.50435 0.0
H349 H 0.56474 0.01401 0.49664 0.0
O350 O 0.47661 0.0371 0.51489 0.0
Co351 Co 0.48213 0.07773 0.53452 0.0
Co352 Co 0.46472 0.05579 0.47411 0.0
H353 H 0.45972 0.02162 0.52345 0.0
O354 O 0.59575 0.96589 0.55327 0.0
O355 O 0.55363 0.93776 0.5266 0.0
O356 O 0.53031 0.9709 0.58009 0.0
O357 O 0.49413 0.98562 0.54569 0.0
O358 O 0.53783 0.04691 0.54425 0.0
O359 O 0.48456 0.11412 0.55442 0.0
O360 O 0.44487 0.0719 0.55061 0.0
O361 O 0.522 0.08886 0.52143 0.0
O362 O 0.52988 0.05082 0.4729 0.0
O363 O 0.49205 0.06204 0.43843 0.0
O364 O 0.46718 0.09582 0.49099 0.0
O365 O 0.42615 0.0635 0.46633 0.0
C366 C 0.56825 0.93579 0.45703 0.0
C367 C 0.48235 0.9599 0.47637 0.0
C368 C 0.5027 0.97128 0.57279 0.0
C369 C 0.5811 0.93965 0.53954 0.0
C370 C 0.45722 0.10032 0.56164 0.0
C371 C 0.54132 0.07734 0.54028 0.0
C372 C 0.52008 0.06378 0.44549 0.0
C373 C 0.43894 0.09065 0.47951 0.0
O374 O 0.5403 0.92239 0.46201 0.0
O375 O 0.58043 0.9636 0.46967 0.0
O376 O 0.4862 0.9903 0.47434 0.0
O377 O 0.50145 0.9468 0.49352 0.0
Co378 Co 0.47763 0.52316 0.0864 0.0
Co379 Co 0.4612 0.46414 0.06624 0.0
Co380 Co 0.51077 0.5039 0.01895 0.0
O381 O 0.47413 0.50386 0.04366 0.0
H382 H 0.45777 0.50898 0.02874 0.0
O383 O 0.54732 0.50327 0.99377 0.0
Co384 Co 0.54314 0.48148 0.9518 0.0
Co385 Co 0.55942 0.54064 0.96803 0.0
H386 H 0.564 0.49903 1.00875 0.0
O387 O 0.42285 0.45061 0.08354 0.0
O388 O 0.46448 0.48066 0.10907 0.0
O389 O 0.48866 0.43536 0.06919 0.0
O390 O 0.52729 0.47361 0.05323 0.0
O391 O 0.48581 0.46707 0.99316 0.0
O392 O 0.54192 0.46031 0.91464 0.0
O393 O 0.58089 0.47272 0.95396 0.0
O394 O 0.50306 0.48644 0.94397 0.0
O395 O 0.49395 0.53428 0.98482 0.0
O396 O 0.53192 0.56875 0.96165 0.0
O397 O 0.55763 0.52246 0.92634 0.0
O398 O 0.59806 0.55369 0.95348 0.0
C399 C 0.45004 0.54269 0.11346 0.0
C400 C 0.53732 0.53958 0.07782 0.0
C401 C 0.51689 0.44646 0.06807 0.0
C402 C 0.4368 0.46458 0.11036 0.0
C403 C 0.56907 0.45837 0.92616 0.0
C404 C 0.48311 0.46806 0.96083 0.0
C405 C 0.50403 0.55933 0.96631 0.0
C406 C 0.58513 0.53961 0.92623 0.0
O407 O 0.47744 0.54188 0.12531 0.0
O408 O 0.43978 0.53031 0.08429 0.0
O409 O 0.53553 0.5409 0.04535 0.0
O410 O 0.51789 0.51912 0.09339 0.0
H411 H 0.18278 0.37149 0.47154 0.0
H412 H 0.23975 0.45936 0.50784 0.0
H413 H 0.19507 0.4802 0.51563 0.0
H414 H 0.14042 0.47492 0.50825 0.0
H415 H 0.08302 0.38616 0.47492 0.0
H416 H 0.12761 0.36407 0.46993 0.0
C417 C 0.18548 0.39488 0.48198 0.0
C418 C 0.21462 0.41398 0.48873 0.0
C419 C 0.15973 0.40665 0.48654 0.0
C420 C 0.21761 0.44442 0.50179 0.0
C421 C 0.1921 0.45633 0.50631 0.0
C422 C 0.13753 0.45056 0.50034 0.0
C423 C 0.10842 0.43223 0.49195 0.0
C424 C 0.16312 0.43791 0.49805 0.0
C425 C 0.10519 0.40082 0.48146 0.0
C426 C 0.13066 0.38816 0.47867 0.0
H427 H 0.58645 0.1762 0.35067 0.0
H428 H 0.65338 0.18475 0.43535 0.0
H429 H 0.62456 0.13598 0.4625 0.0
H430 H 0.57802 0.09376 0.46454 0.0
H431 H 0.51029 0.08662 0.38058 0.0
H432 H 0.54186 0.13169 0.35073 0.0
C433 C 0.59478 0.16733 0.37502 0.0
C434 C 0.62192 0.1843 0.39107 0.0
C435 C 0.57794 0.13945 0.39063 0.0
C436 C 0.63266 0.17212 0.42234 0.0
C437 C 0.6161 0.14429 0.43796 0.0
C438 C 0.57045 0.10155 0.43937 0.0
C439 C 0.54173 0.08677 0.42489 0.0
C440 C 0.58843 0.12806 0.42263 0.0
C441 C 0.53221 0.09754 0.39239 0.0
C442 C 0.5502 0.12344 0.37535 0.0
H443 H 0.86041 0.68298 0.3993 0.0
H444 H 0.78511 0.61307 0.43704 0.0
H445 H 0.81975 0.58266 0.46578 0.0
H446 H 0.87073 0.57408 0.47768 0.0
H447 H 0.94711 0.64466 0.44391 0.0
H448 H 0.91269 0.67682 0.41633 0.0
C449 C 0.8516 0.66134 0.41419 0.0
C450 C 0.82006 0.65 0.41524 0.0
C451 C 0.87179 0.64397 0.43116 0.0
C452 C 0.80915 0.62191 0.43481 0.0
C453 C 0.82896 0.60454 0.45148 0.0
C454 C 0.87999 0.59658 0.46443 0.0
C455 C 0.91145 0.60677 0.4625 0.0
C456 C 0.86021 0.615 0.44926 0.0
C457 C 0.92297 0.6362 0.44563 0.0
C458 C 0.90328 0.65455 0.42985 0.0
H459 H 0.36931 0.85728 0.42223 0.0
H460 H 0.43839 0.83282 0.36661 0.0
H461 H 0.47512 0.87894 0.38804 0.0
H462 H 0.48898 0.92338 0.42624 0.0
H463 H 0.42135 0.94899 0.48256 0.0
H464 H 0.38247 0.90597 0.45658 0.0
C465 C 0.39227 0.86238 0.4144 0.0
C466 C 0.40119 0.84112 0.39341 0.0
C467 C 0.41351 0.8892 0.42689 0.0
C468 C 0.43106 0.8482 0.38345 0.0
C469 C 0.45209 0.87471 0.39552 0.0
C470 C 0.46561 0.9198 0.43238 0.0
C471 C 0.45788 0.93911 0.45615 0.0
C472 C 0.44378 0.89488 0.41784 0.0
C473 C 0.42761 0.93453 0.46393 0.0
C474 C 0.40552 0.90976 0.44934 0.0
H475 H 0.16787 0.63116 0.66123 0.0
H476 H 0.23082 0.60873 0.5953 0.0
H477 H 0.18908 0.57966 0.55915 0.0
H478 H 0.13534 0.56036 0.54606 0.0
H479 H 0.07077 0.58109 0.61084 0.0
H480 H 0.11244 0.6114 0.64735 0.0
C481 C 0.17235 0.61974 0.63903 0.0
C482 C 0.20252 0.62235 0.6309 0.0
C483 C 0.148 0.60299 0.61801 0.0
C484 C 0.20792 0.60756 0.60192 0.0
C485 C 0.18404 0.59082 0.58124 0.0
C486 C 0.13016 0.5715 0.56812 0.0
C487 C 0.09985 0.56828 0.57569 0.0
C488 C 0.15407 0.58847 0.58897 0.0
C489 C 0.09383 0.5832 0.60431 0.0
C490 C 0.1177 0.6004 0.62528 0.0
H491 H 0.41196 0.19279 0.6525 0.0
H492 H 0.33154 0.16748 0.58524 0.0
H493 H 0.35432 0.12985 0.5576 0.0
H494 H 0.39828 0.1056 0.55122 0.0
H495 H 0.47978 0.13554 0.61556 0.0
H496 H 0.45539 0.16979 0.64574 0.0
C497 C 0.39942 0.17933 0.63158 0.0
C498 C 0.37011 0.18317 0.62093 0.0
C499 C 0.41283 0.15832 0.61543 0.0
C500 C 0.35403 0.16483 0.59425 0.0
C501 C 0.3671 0.14339 0.57832 0.0
C502 C 0.41042 0.11934 0.57215 0.0
C503 C 0.44064 0.11795 0.58144 0.0
C504 C 0.39657 0.14001 0.58862 0.0
C505 C 0.45644 0.13623 0.60813 0.0
C506 C 0.44256 0.15588 0.6253 0.0
H507 H 0.86379 0.45429 0.66104 0.0
H508 H 0.88943 0.36496 0.64565 0.0
H509 H 0.93476 0.39449 0.62002 0.0
H510 H 0.96708 0.44621 0.60048 0.0
H511 H 0.94385 0.53444 0.62441 0.0
H512 H 0.89865 0.50455 0.6498 0.0
C513 C 0.87941 0.44078 0.65334 0.0
C514 C 0.87223 0.40693 0.65543 0.0
C515 C 0.90644 0.45788 0.64029 0.0
C516 C 0.89317 0.39079 0.64375 0.0
C517 C 0.91959 0.40774 0.62936 0.0
C518 C 0.95239 0.45879 0.61186 0.0
C519 C 0.95904 0.49256 0.61054 0.0
C520 C 0.92639 0.44135 0.62724 0.0
C521 C 0.93968 0.50851 0.62536 0.0
C522 C 0.91355 0.49142 0.63966 0.0
H523 H 0.6138 0.80412 0.5451 0.0
H524 H 0.69309 0.85587 0.6015 0.0
H525 H 0.67598 0.90581 0.58969 0.0
H526 H 0.63633 0.93381 0.5678 0.0
H527 H 0.55577 0.88122 0.51403 0.0
H528 H 0.57562 0.83273 0.52024 0.0
C529 C 0.62733 0.82635 0.55477 0.0
C530 C 0.65449 0.82624 0.5744 0.0
C531 C 0.61708 0.85483 0.5485 0.0
C532 C 0.67215 0.85533 0.58615 0.0
C533 C 0.66229 0.88386 0.57962 0.0
C534 C 0.62321 0.91181 0.55722 0.0
C535 C 0.5945 0.91114 0.54077 0.0
C536 C 0.63447 0.88376 0.56148 0.0
C537 C 0.57789 0.88245 0.52699 0.0
C538 C 0.58918 0.85462 0.53057 0.0
H539 H 0.35176 0.18659 0.46142 0.0
H540 H 0.43232 0.2514 0.50063 0.0
H541 H 0.45804 0.2069 0.51076 0.0
H542 H 0.45959 0.1512 0.50129 0.0
H543 H 0.37929 0.08686 0.46028 0.0
H544 H 0.35166 0.12975 0.45753 0.0
C545 C 0.37489 0.19089 0.47242 0.0
C546 C 0.39032 0.22224 0.47969 0.0
C547 C 0.38974 0.16545 0.47724 0.0
C548 C 0.41997 0.22744 0.49478 0.0
C549 C 0.43478 0.20208 0.50026 0.0
C550 C 0.43597 0.14644 0.49204 0.0
C551 C 0.42169 0.116 0.48045 0.0
C552 C 0.42021 0.17123 0.49041 0.0
C553 C 0.39098 0.11019 0.46889 0.0
C554 C 0.37511 0.13467 0.4674 0.0
H555 H 0.84995 0.38855 0.4303 0.0
H556 H 0.83431 0.47206 0.37083 0.0
H557 H 0.87926 0.50476 0.39875 0.0
H558 H 0.92195 0.51059 0.44184 0.0
H559 H 0.93956 0.42765 0.49985 0.0
H560 H 0.89562 0.39359 0.46992 0.0
C561 C 0.85655 0.41376 0.42293 0.0
C562 C 0.83807 0.42771 0.39878 0.0
C563 C 0.88302 0.43256 0.43869 0.0
C564 C 0.84726 0.46061 0.38999 0.0
C565 C 0.87325 0.47941 0.40572 0.0
C566 C 0.91632 0.48497 0.44754 0.0
C567 C 0.93383 0.4715 0.47281 0.0
C568 C 0.89106 0.46577 0.4304 0.0
C569 C 0.92651 0.43836 0.48012 0.0
C570 C 0.90127 0.41901 0.46322 0.0
H571 H 0.61565 0.84402 0.36693 0.0
H572 H 0.69042 0.86032 0.44283 0.0
H573 H 0.66757 0.89824 0.46999 0.0
H574 H 0.6251 0.92557 0.47309 0.0
H575 H 0.54911 0.90557 0.39905 0.0
H576 H 0.57397 0.87111 0.36968 0.0
C577 C 0.62721 0.85625 0.38909 0.0
C578 C 0.6548 0.84951 0.40265 0.0
C579 C 0.61378 0.87763 0.40475 0.0
C580 C 0.66909 0.86499 0.43193 0.0
C581 C 0.6561 0.88679 0.44738 0.0
C582 C 0.61437 0.91406 0.45019 0.0
C583 C 0.58556 0.91836 0.43788 0.0
C584 C 0.62834 0.89321 0.43412 0.0
C585 C 0.57141 0.90274 0.40873 0.0
C586 C 0.58554 0.88294 0.39204 0.0
H587 H 0.15027 0.64448 0.40472 0.0
H588 H 0.16797 0.56863 0.34776 0.0
H589 H 0.12345 0.53187 0.36863 0.0
H590 H 0.08231 0.51989 0.40718 0.0
H591 H 0.06507 0.59559 0.46499 0.0
H592 H 0.10618 0.63367 0.43936 0.0
C593 C 0.14426 0.61994 0.39677 0.0
C594 C 0.16254 0.6093 0.37488 0.0
C595 C 0.11865 0.59882 0.40902 0.0
C596 C 0.1542 0.57754 0.3644 0.0
C597 C 0.1288 0.55643 0.37646 0.0
C598 C 0.08706 0.54485 0.41368 0.0
C599 C 0.07065 0.55467 0.43826 0.0
C600 C 0.11117 0.56663 0.39928 0.0
C601 C 0.07733 0.58719 0.4463 0.0
C602 C 0.10101 0.60903 0.43179 0.0
H603 H 0.39102 0.87207 0.62865 0.0
H604 H 0.46104 0.85005 0.70037 0.0
H605 H 0.49794 0.89422 0.67603 0.0
H606 H 0.51125 0.93623 0.63142 0.0
H607 H 0.44128 0.95801 0.55922 0.0
H608 H 0.40361 0.91713 0.58685 0.0
C609 C 0.41433 0.87707 0.63903 0.0
C610 C 0.42324 0.85765 0.66619 0.0
C611 C 0.43554 0.90247 0.62478 0.0
C612 C 0.45347 0.86474 0.67967 0.0
C613 C 0.47466 0.8899 0.66562 0.0
C614 C 0.48772 0.93242 0.62198 0.0
C615 C 0.47932 0.95015 0.59304 0.0
C616 C 0.46608 0.90857 0.63778 0.0
C617 C 0.44857 0.94482 0.58138 0.0
C618 C 0.42694 0.92126 0.59707 0.0
H619 H 0.21498 0.399 0.62305 0.0
H620 H 0.14473 0.32196 0.65837 0.0
H621 H 0.10608 0.35088 0.63486 0.0
H622 H 0.0926 0.39875 0.60404 0.0
H623 H 0.16467 0.47664 0.57319 0.0
H624 H 0.20204 0.44664 0.59469 0.0
C625 C 0.19117 0.38848 0.6254 0.0
C626 C 0.1826 0.35837 0.64204 0.0
C627 C 0.16936 0.40543 0.61255 0.0
C628 C 0.15177 0.34519 0.64558 0.0
C629 C 0.12973 0.36168 0.6321 0.0
C630 C 0.11647 0.40909 0.60215 0.0
C631 C 0.12567 0.43989 0.58686 0.0
C632 C 0.13826 0.39192 0.61552 0.0
C633 C 0.15677 0.45305 0.58486 0.0
C634 C 0.17831 0.4359 0.59712 0.0
H635 H 0.6421 0.16005 0.63917 0.0
H636 H 0.6141 0.23614 0.57717 0.0
H637 H 0.57979 0.19695 0.5422 0.0
H638 H 0.55599 0.14171 0.53061 0.0
H639 H 0.58207 0.06435 0.59214 0.0
H640 H 0.61925 0.10336 0.62549 0.0
C641 C 0.62869 0.16797 0.61779 0.0
C642 C 0.63044 0.20107 0.61109 0.0
C643 C 0.60866 0.14512 0.59772 0.0
C644 C 0.61282 0.21091 0.58333 0.0
C645 C 0.59327 0.1885 0.56319 0.0
C646 C 0.56983 0.13317 0.55123 0.0
C647 C 0.56598 0.10004 0.55899 0.0
C648 C 0.59069 0.15562 0.57043 0.0
C649 C 0.58447 0.08966 0.5856 0.0
C650 C 0.60565 0.112 0.60476 0.0
H651 H 0.85853 0.67575 0.58394 0.0
H652 H 0.79733 0.59124 0.54609 0.0
H653 H 0.84019 0.56849 0.53464 0.0
H654 H 0.8945 0.57045 0.54123 0.0
H655 H 0.95603 0.65565 0.57758 0.0
H656 H 0.91337 0.68018 0.5845 0.0
C657 C 0.85471 0.65254 0.57276 0.0
C658 C 0.82503 0.63493 0.5662 0.0
C659 C 0.87935 0.63958 0.5666 0.0
C660 C 0.82009 0.60515 0.55126 0.0
C661 C 0.84453 0.59205 0.54505 0.0
C662 C 0.8987 0.59458 0.55018 0.0
C663 C 0.9284 0.61113 0.559 0.0
C664 C 0.87419 0.6087 0.55353 0.0
C665 C 0.93336 0.64231 0.57075 0.0
C666 C 0.90901 0.65639 0.57463 0.0
H667 H 0.40137 0.44898 0.2619 0.0
H668 H 0.32512 0.38167 0.21744 0.0
H669 H 0.34303 0.39682 0.16084 0.0
H670 H 0.38237 0.42641 0.12463 0.0
H671 H 0.45975 0.4917 0.17021 0.0
H672 H 0.43893 0.48081 0.22548 0.0
C673 C 0.38835 0.43808 0.23976 0.0
C674 C 0.36204 0.41417 0.24383 0.0
C675 C 0.39901 0.44654 0.20746 0.0
C676 C 0.34565 0.39989 0.21495 0.0
C677 C 0.35584 0.40859 0.18261 0.0
C678 C 0.39452 0.4385 0.14658 0.0
C679 C 0.42258 0.45986 0.14317 0.0
C680 C 0.38283 0.43142 0.17864 0.0
C681 C 0.43806 0.47524 0.17195 0.0
C682 C 0.42625 0.46892 0.2037 0.0
H683 H 0.40061 0.61886 0.88758 0.0
H684 H 0.45838 0.61962 0.80579 0.0
H685 H 0.49373 0.59774 0.84428 0.0
H686 H 0.50903 0.5788 0.90089 0.0
H687 H 0.44991 0.57165 0.98212 0.0
H688 H 0.41422 0.59523 0.94413 0.0
C689 C 0.4207 0.61387 0.87802 0.0
C690 C 0.42699 0.62187 0.84376 0.0
C691 C 0.44086 0.60028 0.90028 0.0
C692 C 0.45325 0.61498 0.83211 0.0
C693 C 0.4735 0.60216 0.85409 0.0
C694 C 0.48846 0.58272 0.91042 0.0
C695 C 0.48242 0.57427 0.94445 0.0
C696 C 0.46776 0.59512 0.88825 0.0
C697 C 0.45521 0.57841 0.95611 0.0
C698 C 0.43481 0.59179 0.93436 0.0
H699 H 0.37298 0.39809 0.86686 0.0
H700 H 0.44091 0.34897 0.84092 0.0
H701 H 0.47673 0.37744 0.88369 0.0
H702 H 0.49012 0.41897 0.92567 0.0
H703 H 0.42289 0.46769 0.95325 0.0
H704 H 0.38508 0.43602 0.91347 0.0
C705 C 0.39541 0.39316 0.87096 0.0
C706 C 0.40432 0.37183 0.85004 0.0
C707 C 0.416 0.40947 0.89602 0.0
C708 C 0.43361 0.3659 0.85582 0.0
C709 C 0.45411 0.382 0.88051 0.0
C710 C 0.46705 0.42225 0.92324 0.0
C711 C 0.4591 0.44544 0.94213 0.0
C712 C 0.44576 0.40427 0.90024 0.0
C713 C 0.42925 0.4496 0.93908 0.0
C714 C 0.40779 0.43172 0.91617 0.0
H715 H 0.61379 0.36987 0.82927 0.0
H716 H 0.70024 0.43177 0.85567 0.0
H717 H 0.67663 0.45925 0.89489 0.0
H718 H 0.63036 0.46775 0.91947 0.0
H719 H 0.54413 0.4071 0.88934 0.0
H720 H 0.5686 0.37756 0.85373 0.0
C721 C 0.62754 0.38954 0.84334 0.0
C722 C 0.65876 0.39878 0.83916 0.0
C723 C 0.61375 0.40565 0.86526 0.0
C724 C 0.6762 0.42385 0.85845 0.0
C725 C 0.66266 0.43977 0.88078 0.0
C726 C 0.6171 0.44782 0.90539 0.0
C727 C 0.58547 0.43967 0.90706 0.0
C728 C 0.63133 0.43112 0.88416 0.0
C729 C 0.56849 0.41402 0.88836 0.0
C730 C 0.58245 0.39704 0.86796 0.0
H731 H 0.61938 0.57228 0.77522 0.0
H732 H 0.68978 0.64247 0.82529 0.0
H733 H 0.67338 0.62013 0.88061 0.0
H734 H 0.6368 0.58346 0.91449 0.0
H735 H 0.56539 0.51405 0.86461 0.0
H736 H 0.58466 0.53305 0.80953 0.0
C737 C 0.63107 0.58265 0.79828 0.0
C738 C 0.65557 0.60912 0.7962 0.0
C739 C 0.6214 0.56983 0.83001 0.0
C740 C 0.67093 0.62198 0.82624 0.0
C741 C 0.66151 0.60931 0.85787 0.0
C742 C 0.62565 0.57215 0.89165 0.0
C743 C 0.59947 0.54763 0.89367 0.0
C744 C 0.63649 0.58356 0.86003 0.0
C745 C 0.58544 0.53317 0.86378 0.0
C746 C 0.59637 0.54409 0.83223 0.0
H747 H 0.63444 0.65149 0.14852 0.0
H748 H 0.59232 0.60313 0.23687 0.0
H749 H 0.55988 0.56306 0.20141 0.0
H750 H 0.54265 0.54225 0.14608 0.0
H751 H 0.58235 0.58986 0.05611 0.0
H752 H 0.61686 0.62948 0.09148 0.0
C753 C 0.61822 0.63208 0.1599 0.0
C754 C 0.61558 0.63056 0.19532 0.0
C755 C 0.59929 0.60898 0.13916 0.0
C756 C 0.59444 0.60527 0.2097 0.0
C757 C 0.57599 0.58219 0.18946 0.0
C758 C 0.55885 0.56118 0.13393 0.0
C759 C 0.55977 0.56303 0.09834 0.0
C760 C 0.57807 0.58394 0.15424 0.0
C761 C 0.58109 0.5878 0.0834 0.0
C762 C 0.60077 0.61051 0.10365 0.0
H763 H 0.36204 0.61369 0.17869 0.0
H764 H 0.41647 0.59476 0.26914 0.0
H765 H 0.44541 0.56788 0.23592 0.0
H766 H 0.45646 0.55103 0.18117 0.0
H767 H 0.40016 0.56607 0.09119 0.0
H768 H 0.37035 0.59254 0.12447 0.0
C769 C 0.37988 0.60329 0.19134 0.0
C770 C 0.38725 0.60692 0.22645 0.0
C771 C 0.39616 0.58712 0.17216 0.0
C772 C 0.41073 0.59333 0.24208 0.0
C773 C 0.42721 0.57765 0.22314 0.0
C774 C 0.4376 0.56001 0.16882 0.0
C775 C 0.43072 0.5569 0.1337 0.0
C776 C 0.42037 0.57476 0.18814 0.0
C777 C 0.40595 0.56822 0.11819 0.0
C778 C 0.38895 0.58343 0.1372 0.0
H779 H 0.58303 0.36413 0.17379 0.0
H780 H 0.65178 0.45162 0.1729 0.0
H781 H 0.62179 0.47508 0.12844 0.0
H782 H 0.57487 0.47179 0.09178 0.0
H783 H 0.50578 0.38455 0.09355 0.0
H784 H 0.53743 0.35979 0.13494 0.0
C785 C 0.59174 0.38815 0.16352 0.0
C786 C 0.61966 0.40606 0.17693 0.0
C787 C 0.57433 0.40155 0.13793 0.0
C788 C 0.63021 0.43738 0.16355 0.0
C789 C 0.61314 0.45078 0.13792 0.0
C790 C 0.56692 0.44715 0.10072 0.0
C791 C 0.53792 0.43009 0.08943 0.0
C792 C 0.585 0.43323 0.12517 0.0
C793 C 0.52794 0.39831 0.10175 0.0
C794 C 0.546 0.38413 0.12555 0.0
loop_
_geom_bond_atom_site_label_1
_geom_bond_atom_site_label_2
_geom_bond_distance
_geom_bond_site_symmetry_2
_ccdc_geom_bond_type
C0 C1 1.386 . S
C0 C2 1.397 . S
C0 H24 0.931 . S
C1 C0 1.386 . S
C1 C5 1.397 . S
C2 C0 1.397 . S
C2 C3 1.384 . S
C2 H25 0.930 . S
C3 C2 1.384 . S
C3 C4 1.377 . S
C3 C6 1.481 . S
C4 C3 1.377 . S
C4 C5 1.389 . S
C4 H26 0.929 . S
C5 C1 1.397 . S
C5 C4 1.389 . S
C5 H27 0.931 . S
C6 C3 1.481 . S
C6 C7 1.387 . S
C6 C11 1.390 . S
C7 C6 1.387 . S
C7 C8 1.401 . S
C7 H28 0.930 . S
C8 C7 1.401 . S
C8 C9 1.376 . S
C8 C17 1.511 . S
C9 C8 1.376 . S
C9 C10 1.392 . S
C9 H30 0.931 . S
C10 C9 1.392 . S
C10 C11 1.361 . S
C10 C12 1.500 . S
C11 C6 1.390 . S
C11 C10 1.361 . S
C11 H29 0.931 . S
C12 C10 1.500 . S
C12 C13 1.371 . S
C12 C14 1.365 . S
C13 C12 1.371 . S
C13 C23 1.386 . S
C13 H31 0.931 . S
C14 C12 1.365 . S
C14 C15 1.409 . S
C14 H32 0.929 . S
C15 C14 1.409 . S
C15 C16 1.380 . S
C15 H33 0.930 . S
C16 C15 1.380 . S
C16 C23 1.357 . S
C17 C8 1.511 . S
C17 C18 1.341 . S
C17 C19 1.371 . S
C18 C17 1.341 . S
C18 C22 1.394 . S
C18 H34 0.930 . S
C19 C17 1.371 . S
C19 C20 1.392 . S
C19 H35 0.931 . S
C20 C19 1.392 . S
C20 C21 1.331 . S
C20 H38 0.932 . S
C21 C20 1.331 . S
C21 C22 1.336 . S
C22 C18 1.394 . S
C22 C21 1.336 . S
C22 H37 0.929 . S
C23 C13 1.386 . S
C23 C16 1.357 . S
C23 H36 0.928 . S
H24 C0 0.931 . S
H25 C2 0.930 . S
H26 C4 0.929 . S
H27 C5 0.931 . S
H28 C7 0.930 . S
H29 C11 0.931 . S
H30 C9 0.931 . S
H31 C13 0.931 . S
H32 C14 0.929 . S
H33 C15 0.930 . S
H34 C18 0.930 . S
H35 C19 0.931 . S
H36 C23 0.928 . S
H37 C22 0.929 . S
H38 C20 0.932 . S
C39 C40 1.386 . S
C39 C41 1.397 . S
C39 H63 0.931 . S
C40 C39 1.386 . S
C40 C44 1.397 . S
C41 C39 1.397 . S
C41 C42 1.384 . S
C41 H64 0.930 . S
C42 C41 1.384 . S
C42 C43 1.377 . S
C42 C45 1.481 . S
C43 C42 1.377 . S
C43 C44 1.389 . S
C43 H65 0.929 . S
C44 C40 1.397 . S
C44 C43 1.389 . S
C44 H66 0.931 . S
C45 C42 1.481 . S
C45 C46 1.387 . S
C45 C50 1.390 . S
C46 C45 1.387 . S
C46 C47 1.401 . S
C46 H67 0.930 . S
C47 C46 1.401 . S
C47 C48 1.376 . S
C47 C56 1.511 . S
C48 C47 1.376 . S
C48 C49 1.392 . S
C48 H69 0.931 . S
C49 C48 1.392 . S
C49 C50 1.361 . S
C49 C51 1.500 . S
C50 C45 1.390 . S
C50 C49 1.361 . S
C50 H68 0.931 . S
C51 C49 1.500 . S
C51 C52 1.371 . S
C51 C53 1.365 . S
C52 C51 1.371 . S
C52 C62 1.386 . S
C52 H70 0.931 . S
C53 C51 1.365 . S
C53 C54 1.409 . S
C53 H71 0.929 . S
C54 C53 1.409 . S
C54 C55 1.380 . S
C54 H72 0.930 . S
C55 C54 1.380 . S
C55 C62 1.357 . S
C56 C47 1.511 . S
C56 C57 1.341 . S
C56 C58 1.371 . S
C57 C56 1.341 . S
C57 C61 1.394 . S
C57 H73 0.930 . S
C58 C56 1.371 . S
C58 C59 1.392 . S
C58 H74 0.931 . S
C59 C58 1.392 . S
C59 C60 1.331 . S
C59 H77 0.932 . S
C60 C59 1.331 . S
C60 C61 1.336 . S
C61 C57 1.394 . S
C61 C60 1.336 . S
C61 H76 0.929 . S
C62 C52 1.386 . S
C62 C55 1.357 . S
C62 H75 0.928 . S
H63 C39 0.931 . S
H64 C41 0.930 . S
H65 C43 0.929 . S
H66 C44 0.931 . S
H67 C46 0.930 . S
H68 C50 0.931 . S
H69 C48 0.931 . S
H70 C52 0.931 . S
H71 C53 0.929 . S
H72 C54 0.930 . S
H73 C57 0.930 . S
H74 C58 0.931 . S
H75 C62 0.928 . S
H76 C61 0.929 . S
H77 C59 0.932 . S
C78 C79 1.386 . S
C78 C80 1.397 . S
C78 H102 0.931 . S
C79 C78 1.386 . S
C79 C83 1.397 . S
C80 C78 1.397 . S
C80 C81 1.384 . S
C80 H103 0.930 . S
C81 C80 1.384 . S
C81 C82 1.377 . S
C81 C84 1.481 . S
C82 C81 1.377 . S
C82 C83 1.389 . S
C82 H104 0.929 . S
C83 C79 1.397 . S
C83 C82 1.389 . S
C83 H105 0.931 . S
C84 C81 1.481 . S
C84 C85 1.387 . S
C84 C89 1.390 . S
C85 C84 1.387 . S
C85 C86 1.401 . S
C85 H106 0.930 . S
C86 C85 1.401 . S
C86 C87 1.376 . S
C86 C95 1.511 . S
C87 C86 1.376 . S
C87 C88 1.392 . S
C87 H108 0.931 . S
C88 C87 1.392 . S
C88 C89 1.361 . S
C88 C90 1.500 . S
C89 C84 1.390 . S
C89 C88 1.361 . S
C89 H107 0.931 . S
C90 C88 1.500 . S
C90 C91 1.371 . S
C90 C92 1.365 . S
C91 C90 1.371 . S
C91 C101 1.386 . S
C91 H109 0.931 . S
C92 C90 1.365 . S
C92 C93 1.409 . S
C92 H110 0.929 . S
C93 C92 1.409 . S
C93 C94 1.380 . S
C93 H111 0.930 . S
C94 C93 1.380 . S
C94 C101 1.357 . S
C95 C86 1.511 . S
C95 C96 1.341 . S
C95 C97 1.371 . S
C96 C95 1.341 . S
C96 C100 1.394 . S
C96 H112 0.930 . S
C97 C95 1.371 . S
C97 C98 1.392 . S
C97 H113 0.931 . S
C98 C97 1.392 . S
C98 C99 1.331 . S
C98 H116 0.932 . S
C99 C98 1.331 . S
C99 C100 1.336 . S
C100 C96 1.394 . S
C100 C99 1.336 . S
C100 H115 0.929 . S
C101 C91 1.386 . S
C101 C94 1.357 . S
C101 H114 0.928 . S
H102 C78 0.931 . S
H103 C80 0.930 . S
H104 C82 0.929 . S
H105 C83 0.931 . S
H106 C85 0.930 . S
H107 C89 0.931 . S
H108 C87 0.931 . S
H109 C91 0.931 . S
H110 C92 0.929 . S
H111 C93 0.930 . S
H112 C96 0.930 . S
H113 C97 0.931 . S
H114 C101 0.928 . S
H115 C100 0.929 . S
H116 C98 0.932 . S
C117 C118 1.386 . S
C117 C119 1.397 . S
C117 H141 0.931 . S
C118 C117 1.386 . S
C118 C122 1.397 . S
C119 C117 1.397 . S
C119 C120 1.384 . S
C119 H142 0.930 . S
C120 C119 1.384 . S
C120 C121 1.377 . S
C120 C123 1.481 . S
C121 C120 1.377 . S
C121 C122 1.389 . S
C121 H143 0.929 . S
C122 C118 1.397 . S
C122 C121 1.389 . S
C122 H144 0.931 . S
C123 C120 1.481 . S
C123 C124 1.387 . S
C123 C128 1.390 . S
C124 C123 1.387 . S
C124 C125 1.401 . S
C124 H145 0.930 . S
C125 C124 1.401 . S
C125 C126 1.376 . S
C125 C134 1.511 . S
C126 C125 1.376 . S
C126 C127 1.392 . S
C126 H147 0.931 . S
C127 C126 1.392 . S
C127 C128 1.361 . S
C127 C129 1.500 . S
C128 C123 1.390 . S
C128 C127 1.361 . S
C128 H146 0.931 . S
C129 C127 1.500 . S
C129 C130 1.371 . S
C129 C131 1.365 . S
C130 C129 1.371 . S
C130 C140 1.386 . S
C130 H148 0.931 . S
C131 C129 1.365 . S
C131 C132 1.409 . S
C131 H149 0.929 . S
C132 C131 1.409 . S
C132 C133 1.380 . S
C132 H150 0.930 . S
C133 C132 1.380 . S
C133 C140 1.357 . S
C134 C125 1.511 . S
C134 C135 1.341 . S
C134 C136 1.371 . S
C135 C134 1.341 . S
C135 C139 1.394 . S
C135 H151 0.930 . S
C136 C134 1.371 . S
C136 C137 1.392 . S
C136 H152 0.931 . S
C137 C136 1.392 . S
C137 C138 1.331 . S
C137 H155 0.932 . S
C138 C137 1.331 . S
C138 C139 1.336 . S
C139 C135 1.394 . S
C139 C138 1.336 . S
C139 H154 0.929 . S
C140 C130 1.386 . S
C140 C133 1.357 . S
C140 H153 0.928 . S
H141 C117 0.931 . S
H142 C119 0.930 . S
H143 C121 0.929 . S
H144 C122 0.931 . S
H145 C124 0.930 . S
H146 C128 0.931 . S
H147 C126 0.931 . S
H148 C130 0.931 . S
H149 C131 0.929 . S
H150 C132 0.930 . S
H151 C135 0.930 . S
H152 C136 0.931 . S
H153 C140 0.928 . S
H154 C139 0.929 . S
H155 C137 0.932 . S
C156 C157 1.386 . S
C156 C158 1.397 . S
C156 H180 0.931 . S
C157 C156 1.386 . S
C157 C161 1.397 . S
C158 C156 1.397 . S
C158 C159 1.384 . S
C158 H181 0.930 . S
C159 C158 1.384 . S
C159 C160 1.377 . S
C159 C162 1.481 . S
C160 C159 1.377 . S
C160 C161 1.389 . S
C160 H182 0.929 . S
C161 C157 1.397 . S
C161 C160 1.389 . S
C161 H183 0.931 . S
C162 C159 1.481 . S
C162 C163 1.387 . S
C162 C167 1.390 . S
C163 C162 1.387 . S
C163 C164 1.401 . S
C163 H184 0.930 . S
C164 C163 1.401 . S
C164 C165 1.376 . S
C164 C173 1.511 . S
C165 C164 1.376 . S
C165 C166 1.392 . S
C165 H186 0.931 . S
C166 C165 1.392 . S
C166 C167 1.361 . S
C166 C168 1.500 . S
C167 C162 1.390 . S
C167 C166 1.361 . S
C167 H185 0.931 . S
C168 C166 1.500 . S
C168 C169 1.371 . S
C168 C170 1.365 . S
C169 C168 1.371 . S
C169 C179 1.386 . S
C169 H187 0.931 . S
C170 C168 1.365 . S
C170 C171 1.409 . S
C170 H188 0.929 . S
C171 C170 1.409 . S
C171 C172 1.380 . S
C171 H189 0.930 . S
C172 C171 1.380 . S
C172 C179 1.357 . S
C173 C164 1.511 . S
C173 C174 1.341 . S
C173 C175 1.371 . S
C174 C173 1.341 . S
C174 C178 1.394 . S
C174 H190 0.930 . S
C175 C173 1.371 . S
C175 C176 1.392 . S
C175 H191 0.931 . S
C176 C175 1.392 . S
C176 C177 1.331 . S
C176 H194 0.932 . S
C177 C176 1.331 . S
C177 C178 1.336 . S
C178 C174 1.394 . S
C178 C177 1.336 . S
C178 H193 0.929 . S
C179 C169 1.386 . S
C179 C172 1.357 . S
C179 H192 0.928 . S
H180 C156 0.931 . S
H181 C158 0.930 . S
H182 C160 0.929 . S
H183 C161 0.931 . S
H184 C163 0.930 . S
H185 C167 0.931 . S
H186 C165 0.931 . S
H187 C169 0.931 . S
H188 C170 0.929 . S
H189 C171 0.930 . S
H190 C174 0.930 . S
H191 C175 0.931 . S
H192 C179 0.928 . S
H193 C178 0.929 . S
H194 C176 0.932 . S
C195 C196 1.386 . S
C195 C197 1.397 . S
C195 H219 0.931 . S
C196 C195 1.386 . S
C196 C200 1.397 . S
C197 C195 1.397 . S
C197 C198 1.384 . S
C197 H220 0.930 . S
C198 C197 1.384 . S
C198 C199 1.377 . S
C198 C201 1.481 . S
C199 C198 1.377 . S
C199 C200 1.389 . S
C199 H221 0.929 . S
C200 C196 1.397 . S
C200 C199 1.389 . S
C200 H222 0.931 . S
C201 C198 1.481 . S
C201 C202 1.387 . S
C201 C206 1.390 . S
C202 C201 1.387 . S
C202 C203 1.401 . S
C202 H223 0.930 . S
C203 C202 1.401 . S
C203 C204 1.376 . S
C203 C212 1.511 . S
C204 C203 1.376 . S
C204 C205 1.392 . S
C204 H225 0.931 . S
C205 C204 1.392 . S
C205 C206 1.361 . S
C205 C207 1.500 . S
C206 C201 1.390 . S
C206 C205 1.361 . S
C206 H224 0.931 . S
C207 C205 1.500 . S
C207 C208 1.371 . S
C207 C209 1.365 . S
C208 C207 1.371 . S
C208 C218 1.386 . S
C208 H226 0.931 . S
C209 C207 1.365 . S
C209 C210 1.409 . S
C209 H227 0.929 . S
C210 C209 1.409 . S
C210 C211 1.380 . S
C210 H228 0.930 . S
C211 C210 1.380 . S
C211 C218 1.357 . S
C212 C203 1.511 . S
C212 C213 1.341 . S
C212 C214 1.371 . S
C213 C212 1.341 . S
C213 C217 1.394 . S
C213 H229 0.930 . S
C214 C212 1.371 . S
C214 C215 1.392 . S
C214 H230 0.931 . S
C215 C214 1.392 . S
C215 C216 1.331 . S
C215 H233 0.932 . S
C216 C215 1.331 . S
C216 C217 1.336 . S
C217 C213 1.394 . S
C217 C216 1.336 . S
C217 H232 0.929 . S
C218 C208 1.386 . S
C218 C211 1.357 . S
C218 H231 0.928 . S
H219 C195 0.931 . S
H220 C197 0.930 . S
H221 C199 0.929 . S
H222 C200 0.931 . S
H223 C202 0.930 . S
H224 C206 0.931 . S
H225 C204 0.931 . S
H226 C208 0.931 . S
H227 C209 0.929 . S
H228 C210 0.930 . S
H229 C213 0.930 . S
H230 C214 0.931 . S
H231 C218 0.928 . S
H232 C217 0.929 . S
H233 C215 0.932 . S
C234 C235 1.386 . S
C234 C236 1.397 . S
C234 H258 0.931 . S
C235 C234 1.386 . S
C235 C239 1.397 . S
C236 C234 1.397 . S
C236 C237 1.384 . S
C236 H259 0.930 . S
C237 C236 1.384 . S
C237 C238 1.377 . S
C237 C240 1.481 . S
C238 C237 1.377 . S
C238 C239 1.389 . S
C238 H260 0.929 . S
C239 C235 1.397 . S
C239 C238 1.389 . S
C239 H261 0.931 . S
C240 C237 1.481 . S
C240 C241 1.387 . S
C240 C245 1.390 . S
C241 C240 1.387 . S
C241 C242 1.401 . S
C241 H262 0.930 . S
C242 C241 1.401 . S
C242 C243 1.376 . S
C242 C251 1.511 . S
C243 C242 1.376 . S
C243 C244 1.392 . S
C243 H264 0.931 . S
C244 C243 1.392 . S
C244 C245 1.361 . S
C244 C246 1.500 . S
C245 C240 1.390 . S
C245 C244 1.361 . S
C245 H263 0.931 . S
C246 C244 1.500 . S
C246 C247 1.371 . S
C246 C248 1.365 . S
C247 C246 1.371 . S
C247 C257 1.386 . S
C247 H265 0.931 . S
C248 C246 1.365 . S
C248 C249 1.409 . S
C248 H266 0.929 . S
C249 C248 1.409 . S
C249 C250 1.380 . S
C249 H267 0.930 . S
C250 C249 1.380 . S
C250 C257 1.357 . S
C251 C242 1.511 . S
C251 C252 1.341 . S
C251 C253 1.371 . S
C252 C251 1.341 . S
C252 C256 1.394 . S
C252 H268 0.930 . S
C253 C251 1.371 . S
C253 C254 1.392 . S
C253 H269 0.931 . S
C254 C253 1.392 . S
C254 C255 1.331 . S
C254 H272 0.932 . S
C255 C254 1.331 . S
C255 C256 1.336 . S
C256 C252 1.394 . S
C256 C255 1.336 . S
C256 H271 0.929 . S
C257 C247 1.386 . S
C257 C250 1.357 . S
C257 H270 0.928 . S
H258 C234 0.931 . S
H259 C236 0.930 . S
H260 C238 0.929 . S
H261 C239 0.931 . S
H262 C241 0.930 . S
H263 C245 0.931 . S
H264 C243 0.931 . S
H265 C247 0.931 . S
H266 C248 0.929 . S
H267 C249 0.930 . S
H268 C252 0.930 . S
H269 C253 0.931 . S
H270 C257 0.928 . S
H271 C256 0.929 . S
H272 C254 0.932 . S
C273 C274 1.386 . S
C273 C275 1.397 . S
C273 H297 0.931 . S
C274 C273 1.386 . S
C274 C278 1.397 . S
C275 C273 1.397 . S
C275 C276 1.384 . S
C275 H298 0.930 . S
C276 C275 1.384 . S
C276 C277 1.377 . S
C276 C279 1.481 . S
C277 C276 1.377 . S
C277 C278 1.389 . S
C277 H299 0.929 . S
C278 C274 1.397 . S
C278 C277 1.389 . S
C278 H300 0.931 . S
C279 C276 1.481 . S
C279 C280 1.387 . S
C279 C284 1.390 . S
C280 C279 1.387 . S
C280 C281 1.401 . S
C280 H301 0.930 . S
C281 C280 1.401 . S
C281 C282 1.376 . S
C281 C290 1.511 . S
C282 C281 1.376 . S
C282 C283 1.392 . S
C282 H303 0.931 . S
C283 C282 1.392 . S
C283 C284 1.361 . S
C283 C285 1.500 . S
C284 C279 1.390 . S
C284 C283 1.361 . S
C284 H302 0.931 . S
C285 C283 1.500 . S
C285 C286 1.371 . S
C285 C287 1.365 . S
C286 C285 1.371 . S
C286 C296 1.386 . S
C286 H304 0.931 . S
C287 C285 1.365 . S
C287 C288 1.409 . S
C287 H305 0.929 . S
C288 C287 1.409 . S
C288 C289 1.380 . S
C288 H306 0.930 . S
C289 C288 1.380 . S
C289 C296 1.357 . S
C290 C281 1.511 . S
C290 C291 1.341 . S
C290 C292 1.371 . S
C291 C290 1.341 . S
C291 C295 1.394 . S
C291 H307 0.930 . S
C292 C290 1.371 . S
C292 C293 1.392 . S
C292 H308 0.931 . S
C293 C292 1.392 . S
C293 C294 1.331 . S
C293 H311 0.932 . S
C294 C293 1.331 . S
C294 C295 1.336 . S
C295 C291 1.394 . S
C295 C294 1.336 . S
C295 H310 0.929 . S
C296 C286 1.386 . S
C296 C289 1.357 . S
C296 H309 0.928 . S
H297 C273 0.931 . S
H298 C275 0.930 . S
H299 C277 0.929 . S
H300 C278 0.931 . S
H301 C280 0.930 . S
H302 C284 0.931 . S
H303 C282 0.931 . S
H304 C286 0.931 . S
H305 C287 0.929 . S
H306 C288 0.930 . S
H307 C291 0.930 . S
H308 C292 0.931 . S
H309 C296 0.928 . S
H310 C295 0.929 . S
H311 C293 0.932 . S
Co312 O315 2.042 . S
Co312 O322 2.264 . S
Co312 O341 2.286 . S
Co312 O342 2.069 . S
Co312 O344 2.015 . S
Co313 O315 2.122 . S
Co313 O321 2.073 . S
Co313 O322 2.327 . S
Co313 O323 1.976 . S
Co314 O315 2.087 . S
Co314 O317 2.087 1_455 S
Co314 O324 2.111 . S
Co314 O325 2.143 1_455 S
Co314 O329 2.111 1_455 S
Co314 O343 2.143 . S
O315 Co312 2.042 . S
O315 Co313 2.122 . S
O315 Co314 2.087 . S
O315 H316 0.980 . S
H316 O315 0.980 . S
O317 Co314 2.087 1_655 S
O317 Co318 2.042 . S
O317 Co319 2.122 . S
O317 H320 0.980 . S
Co318 O317 2.042 . S
Co318 O326 2.286 . S
Co318 O327 2.069 . S
Co318 O328 2.015 . S
Co318 O331 2.264 . S
Co319 O317 2.122 . S
Co319 O330 1.976 . S
Co319 O331 2.327 . S
Co319 O332 2.073 . S
H320 O317 0.980 . S
O321 Co313 2.073 . S
O321 C336 1.245 . S
O322 Co312 2.264 . S
O322 Co313 2.327 . S
O322 C336 1.257 . S
O323 Co313 1.976 . S
O323 C335 1.251 . S
O324 Co314 2.111 . S
O324 C335 1.274 . S
O325 Co314 2.143 1_655 S
O325 C338 1.246 . S
O326 Co318 2.286 . S
O326 C337 1.259 . S
O327 Co318 2.069 . S
O327 C337 1.289 . S
O328 Co318 2.015 . S
O328 C338 1.257 . S
O329 Co314 2.111 1_655 S
O329 C339 1.274 . S
O330 Co319 1.976 . S
O330 C339 1.251 . S
O331 Co318 2.264 . S
O331 Co319 2.327 . S
O331 C340 1.257 . S
O332 Co319 2.073 . S
O332 C340 1.245 . S
C333 O341 1.259 . S
C333 O342 1.289 . S
C334 O343 1.246 . S
C334 O344 1.257 . S
C335 O323 1.251 . S
C335 O324 1.274 . S
C336 O321 1.245 . S
C336 O322 1.257 . S
C337 O326 1.259 . S
C337 O327 1.289 . S
C338 O325 1.246 . S
C338 O328 1.257 . S
C339 O329 1.274 . S
C339 O330 1.251 . S
C340 O331 1.257 . S
C340 O332 1.245 . S
O341 Co312 2.286 . S
O341 C333 1.259 . S
O342 Co312 2.069 . S
O342 C333 1.289 . S
O343 Co314 2.143 . S
O343 C334 1.246 . S
O344 Co312 2.015 . S
O344 C334 1.257 . S
Co345 O348 2.042 . S
Co345 O355 2.264 . S
Co345 O374 2.286 . S
Co345 O375 2.069 . S
Co345 O377 2.015 . S
Co346 O348 2.122 . S
Co346 O354 2.073 . S
Co346 O355 2.327 . S
Co346 O356 1.976 . S
Co347 O348 2.087 1_545 S
Co347 O350 2.087 . S
Co347 O357 2.111 1_545 S
Co347 O358 2.143 . S
Co347 O362 2.111 . S
Co347 O376 2.143 1_545 S
O348 Co345 2.042 . S
O348 Co346 2.122 . S
O348 Co347 2.087 1_565 S
O348 H349 0.980 . S
H349 O348 0.980 . S
O350 Co347 2.087 . S
O350 Co351 2.042 . S
O350 Co352 2.122 . S
O350 H353 0.980 . S
Co351 O350 2.042 . S
Co351 O359 2.286 . S
Co351 O360 2.069 . S
Co351 O361 2.015 . S
Co351 O364 2.264 . S
Co352 O350 2.122 . S
Co352 O363 1.976 . S
Co352 O364 2.327 . S
Co352 O365 2.073 . S
H353 O350 0.980 . S
O354 Co346 2.073 . S
O354 C369 1.245 . S
O355 Co345 2.264 . S
O355 Co346 2.327 . S
O355 C369 1.257 . S
O356 Co346 1.976 . S
O356 C368 1.251 . S
O357 Co347 2.111 1_565 S
O357 C368 1.274 . S
O358 Co347 2.143 . S
O358 C371 1.246 . S
O359 Co351 2.286 . S
O359 C370 1.259 . S
O360 Co351 2.069 . S
O360 C370 1.289 . S
O361 Co351 2.015 . S
O361 C371 1.257 . S
O362 Co347 2.111 . S
O362 C372 1.274 . S
O363 Co352 1.976 . S
O363 C372 1.251 . S
O364 Co351 2.264 . S
O364 Co352 2.327 . S
O364 C373 1.257 . S
O365 Co352 2.073 . S
O365 C373 1.245 . S
C366 O374 1.259 . S
C366 O375 1.289 . S
C367 O376 1.246 . S
C367 O377 1.257 . S
C368 O356 1.251 . S
C368 O357 1.274 . S
C369 O354 1.245 . S
C369 O355 1.257 . S
C370 O359 1.259 . S
C370 O360 1.289 . S
C371 O358 1.246 . S
C371 O361 1.257 . S
C372 O362 1.274 . S
C372 O363 1.251 . S
C373 O364 1.257 . S
C373 O365 1.245 . S
O374 Co345 2.286 . S
O374 C366 1.259 . S
O375 Co345 2.069 . S
O375 C366 1.289 . S
O376 Co347 2.143 1_565 S
O376 C367 1.246 . S
O377 Co345 2.015 . S
O377 C367 1.257 . S
Co378 O381 2.042 . S
Co378 O388 2.264 . S
Co378 O407 2.286 . S
Co378 O408 2.069 . S
Co378 O410 2.015 . S
Co379 O381 2.122 . S
Co379 O387 2.073 . S
Co379 O388 2.327 . S
Co379 O389 1.976 . S
Co380 O381 2.087 . S
Co380 O383 2.087 1_554 S
Co380 O390 2.111 . S
Co380 O391 2.143 1_554 S
Co380 O395 2.111 1_554 S
Co380 O409 2.143 . S
O381 Co378 2.042 . S
O381 Co379 2.122 . S
O381 Co380 2.087 . S
O381 H382 0.980 . S
H382 O381 0.980 . S
O383 Co380 2.087 1_556 S
O383 Co384 2.042 . S
O383 Co385 2.122 . S
O383 H386 0.980 . S
Co384 O383 2.042 . S
Co384 O392 2.286 . S
Co384 O393 2.069 . S
Co384 O394 2.015 . S
Co384 O397 2.264 . S
Co385 O383 2.122 . S
Co385 O396 1.976 . S
Co385 O397 2.327 . S
Co385 O398 2.073 . S
H386 O383 0.980 . S
O387 Co379 2.073 . S
O387 C402 1.245 . S
O388 Co378 2.264 . S
O388 Co379 2.327 . S
O388 C402 1.257 . S
O389 Co379 1.976 . S
O389 C401 1.251 . S
O390 Co380 2.111 . S
O390 C401 1.274 . S
O391 Co380 2.143 1_556 S
O391 C404 1.246 . S
O392 Co384 2.286 . S
O392 C403 1.259 . S
O393 Co384 2.069 . S
O393 C403 1.289 . S
O394 Co384 2.015 . S
O394 C404 1.257 . S
O395 Co380 2.111 1_556 S
O395 C405 1.274 . S
O396 Co385 1.976 . S
O396 C405 1.251 . S
O397 Co384 2.264 . S
O397 Co385 2.327 . S
O397 C406 1.257 . S
O398 Co385 2.073 . S
O398 C406 1.245 . S
C399 O407 1.259 . S
C399 O408 1.289 . S
C400 O409 1.246 . S
C400 O410 1.257 . S
C401 O389 1.251 . S
C401 O390 1.274 . S
C402 O387 1.245 . S
C402 O388 1.257 . S
C403 O392 1.259 . S
C403 O393 1.289 . S
C404 O391 1.246 . S
C404 O394 1.257 . S
C405 O395 1.274 . S
C405 O396 1.251 . S
C406 O397 1.257 . S
C406 O398 1.245 . S
O407 Co378 2.286 . S
O407 C399 1.259 . S
O408 Co378 2.069 . S
O408 C399 1.289 . S
O409 Co380 2.143 . S
O409 C400 1.246 . S
O410 Co378 2.015 . S
O410 C400 1.257 . S
H411 C417 0.930 . S
H412 C420 0.930 . S
H413 C421 0.930 . S
H414 C422 0.930 . S
H415 C425 0.930 . S
H416 C426 0.930 . S
C417 H411 0.930 . S
C417 C418 1.355 . S
C417 C419 1.415 . S
C418 C417 1.355 . S
C418 C420 1.419 . S
C419 C417 1.415 . S
C419 C424 1.425 . S
C419 C426 1.409 . S
C420 H412 0.930 . S
C420 C418 1.419 . S
C420 C421 1.362 . S
C421 H413 0.930 . S
C421 C420 1.362 . S
C421 C424 1.409 . S
C422 H414 0.930 . S
C422 C423 1.355 . S
C422 C424 1.415 . S
C423 C422 1.355 . S
C423 C425 1.419 . S
C424 C419 1.425 . S
C424 C421 1.409 . S
C424 C422 1.415 . S
C425 H415 0.930 . S
C425 C423 1.419 . S
C425 C426 1.362 . S
C426 H416 0.930 . S
C426 C419 1.409 . S
C426 C425 1.362 . S
H427 C433 0.930 . S
H428 C436 0.930 . S
H429 C437 0.930 . S
H430 C438 0.930 . S
H431 C441 0.930 . S
H432 C442 0.930 . S
C433 H427 0.930 . S
C433 C434 1.355 . S
C433 C435 1.415 . S
C434 C433 1.355 . S
C434 C436 1.419 . S
C435 C433 1.415 . S
C435 C440 1.425 . S
C435 C442 1.409 . S
C436 H428 0.930 . S
C436 C434 1.419 . S
C436 C437 1.362 . S
C437 H429 0.930 . S
C437 C436 1.362 . S
C437 C440 1.409 . S
C438 H430 0.930 . S
C438 C439 1.355 . S
C438 C440 1.415 . S
C439 C438 1.355 . S
C439 C441 1.419 . S
C440 C435 1.425 . S
C440 C437 1.409 . S
C440 C438 1.415 . S
C441 H431 0.930 . S
C441 C439 1.419 . S
C441 C442 1.362 . S
C442 H432 0.930 . S
C442 C435 1.409 . S
C442 C441 1.362 . S
H443 C449 0.930 . S
H444 C452 0.930 . S
H445 C453 0.930 . S
H446 C454 0.930 . S
H447 C457 0.930 . S
H448 C458 0.930 . S
C449 H443 0.930 . S
C449 C450 1.355 . S
C449 C451 1.415 . S
C450 C449 1.355 . S
C450 C452 1.419 . S
C451 C449 1.415 . S
C451 C456 1.425 . S
C451 C458 1.409 . S
C452 H444 0.930 . S
C452 C450 1.419 . S
C452 C453 1.362 . S
C453 H445 0.930 . S
C453 C452 1.362 . S
C453 C456 1.409 . S
C454 H446 0.930 . S
C454 C455 1.355 . S
C454 C456 1.415 . S
C455 C454 1.355 . S
C455 C457 1.419 . S
C456 C451 1.425 . S
C456 C453 1.409 . S
C456 C454 1.415 . S
C457 H447 0.930 . S
C457 C455 1.419 . S
C457 C458 1.362 . S
C458 H448 0.930 . S
C458 C451 1.409 . S
C458 C457 1.362 . S
H459 C465 0.930 . S
H460 C468 0.930 . S
H461 C469 0.930 . S
H462 C470 0.930 . S
H463 C473 0.930 . S
H464 C474 0.930 . S
C465 H459 0.930 . S
C465 C466 1.355 . S
C465 C467 1.415 . S
C466 C465 1.355 . S
C466 C468 1.419 . S
C467 C465 1.415 . S
C467 C472 1.425 . S
C467 C474 1.409 . S
C468 H460 0.930 . S
C468 C466 1.419 . S
C468 C469 1.362 . S
C469 H461 0.930 . S
C469 C468 1.362 . S
C469 C472 1.409 . S
C470 H462 0.930 . S
C470 C471 1.355 . S
C470 C472 1.415 . S
C471 C470 1.355 . S
C471 C473 1.419 . S
C472 C467 1.425 . S
C472 C469 1.409 . S
C472 C470 1.415 . S
C473 H463 0.930 . S
C473 C471 1.419 . S
C473 C474 1.362 . S
C474 H464 0.930 . S
C474 C467 1.409 . S
C474 C473 1.362 . S
H475 C481 0.930 . S
H476 C484 0.930 . S
H477 C485 0.930 . S
H478 C486 0.930 . S
H479 C489 0.930 . S
H480 C490 0.930 . S
C481 H475 0.930 . S
C481 C482 1.355 . S
C481 C483 1.415 . S
C482 C481 1.355 . S
C482 C484 1.419 . S
C483 C481 1.415 . S
C483 C488 1.425 . S
C483 C490 1.409 . S
C484 H476 0.930 . S
C484 C482 1.419 . S
C484 C485 1.362 . S
C485 H477 0.930 . S
C485 C484 1.362 . S
C485 C488 1.409 . S
C486 H478 0.930 . S
C486 C487 1.355 . S
C486 C488 1.415 . S
C487 C486 1.355 . S
C487 C489 1.419 . S
C488 C483 1.425 . S
C488 C485 1.409 . S
C488 C486 1.415 . S
C489 H479 0.930 . S
C489 C487 1.419 . S
C489 C490 1.362 . S
C490 H480 0.930 . S
C490 C483 1.409 . S
C490 C489 1.362 . S
H491 C497 0.930 . S
H492 C500 0.930 . S
H493 C501 0.930 . S
H494 C502 0.930 . S
H495 C505 0.930 . S
H496 C506 0.930 . S
C497 H491 0.930 . S
C497 C498 1.355 . S
C497 C499 1.415 . S
C498 C497 1.355 . S
C498 C500 1.419 . S
C499 C497 1.415 . S
C499 C504 1.425 . S
C499 C506 1.409 . S
C500 H492 0.930 . S
C500 C498 1.419 . S
C500 C501 1.362 . S
C501 H493 0.930 . S
C501 C500 1.362 . S
C501 C504 1.409 . S
C502 H494 0.930 . S
C502 C503 1.355 . S
C502 C504 1.415 . S
C503 C502 1.355 . S
C503 C505 1.419 . S
C504 C499 1.425 . S
C504 C501 1.409 . S
C504 C502 1.415 . S
C505 H495 0.930 . S
C505 C503 1.419 . S
C505 C506 1.362 . S
C506 H496 0.930 . S
C506 C499 1.409 . S
C506 C505 1.362 . S
H507 C513 0.930 . S
H508 C516 0.930 . S
H509 C517 0.930 . S
H510 C518 0.930 . S
H511 C521 0.930 . S
H512 C522 0.930 . S
C513 H507 0.930 . S
C513 C514 1.355 . S
C513 C515 1.415 . S
C514 C513 1.355 . S
C514 C516 1.419 . S
C515 C513 1.415 . S
C515 C520 1.425 . S
C515 C522 1.409 . S
C516 H508 0.930 . S
C516 C514 1.419 . S
C516 C517 1.362 . S
C517 H509 0.930 . S
C517 C516 1.362 . S
C517 C520 1.409 . S
C518 H510 0.930 . S
C518 C519 1.355 . S
C518 C520 1.415 . S
C519 C518 1.355 . S
C519 C521 1.419 . S
C520 C515 1.425 . S
C520 C517 1.409 . S
C520 C518 1.415 . S
C521 H511 0.930 . S
C521 C519 1.419 . S
C521 C522 1.362 . S
C522 H512 0.930 . S
C522 C515 1.409 . S
C522 C521 1.362 . S
H523 C529 0.930 . S
H524 C532 0.930 . S
H525 C533 0.930 . S
H526 C534 0.930 . S
H527 C537 0.930 . S
H528 C538 0.930 . S
C529 H523 0.930 . S
C529 C530 1.355 . S
C529 C531 1.415 . S
C530 C529 1.355 . S
C530 C532 1.419 . S
C531 C529 1.415 . S
C531 C536 1.425 . S
C531 C538 1.409 . S
C532 H524 0.930 . S
C532 C530 1.419 . S
C532 C533 1.362 . S
C533 H525 0.930 . S
C533 C532 1.362 . S
C533 C536 1.409 . S
C534 H526 0.930 . S
C534 C535 1.355 . S
C534 C536 1.415 . S
C535 C534 1.355 . S
C535 C537 1.419 . S
C536 C531 1.425 . S
C536 C533 1.409 . S
C536 C534 1.415 . S
C537 H527 0.930 . S
C537 C535 1.419 . S
C537 C538 1.362 . S
C538 H528 0.930 . S
C538 C531 1.409 . S
C538 C537 1.362 . S
H539 C545 0.930 . S
H540 C548 0.930 . S
H541 C549 0.930 . S
H542 C550 0.930 . S
H543 C553 0.930 . S
H544 C554 0.930 . S
C545 H539 0.930 . S
C545 C546 1.355 . S
C545 C547 1.415 . S
C546 C545 1.355 . S
C546 C548 1.419 . S
C547 C545 1.415 . S
C547 C552 1.425 . S
C547 C554 1.409 . S
C548 H540 0.930 . S
C548 C546 1.419 . S
C548 C549 1.362 . S
C549 H541 0.930 . S
C549 C548 1.362 . S
C549 C552 1.409 . S
C550 H542 0.930 . S
C550 C551 1.355 . S
C550 C552 1.415 . S
C551 C550 1.355 . S
C551 C553 1.419 . S
C552 C547 1.425 . S
C552 C549 1.409 . S
C552 C550 1.415 . S
C553 H543 0.930 . S
C553 C551 1.419 . S
C553 C554 1.362 . S
C554 H544 0.930 . S
C554 C547 1.409 . S
C554 C553 1.362 . S
H555 C561 0.930 . S
H556 C564 0.930 . S
H557 C565 0.930 . S
H558 C566 0.930 . S
H559 C569 0.930 . S
H560 C570 0.930 . S
C561 H555 0.930 . S
C561 C562 1.355 . S
C561 C563 1.415 . S
C562 C561 1.355 . S
C562 C564 1.419 . S
C563 C561 1.415 . S
C563 C568 1.425 . S
C563 C570 1.409 . S
C564 H556 0.930 . S
C564 C562 1.419 . S
C564 C565 1.362 . S
C565 H557 0.930 . S
C565 C564 1.362 . S
C565 C568 1.409 . S
C566 H558 0.930 . S
C566 C567 1.355 . S
C566 C568 1.415 . S
C567 C566 1.355 . S
C567 C569 1.419 . S
C568 C563 1.425 . S
C568 C565 1.409 . S
C568 C566 1.415 . S
C569 H559 0.930 . S
C569 C567 1.419 . S
C569 C570 1.362 . S
C570 H560 0.930 . S
C570 C563 1.409 . S
C570 C569 1.362 . S
H571 C577 0.930 . S
H572 C580 0.930 . S
H573 C581 0.930 . S
H574 C582 0.930 . S
H575 C585 0.930 . S
H576 C586 0.930 . S
C577 H571 0.930 . S
C577 C578 1.355 . S
C577 C579 1.415 . S
C578 C577 1.355 . S
C578 C580 1.419 . S
C579 C577 1.415 . S
C579 C584 1.425 . S
C579 C586 1.409 . S
C580 H572 0.930 . S
C580 C578 1.419 . S
C580 C581 1.362 . S
C581 H573 0.930 . S
C581 C580 1.362 . S
C581 C584 1.409 . S
C582 H574 0.930 . S
C582 C583 1.355 . S
C582 C584 1.415 . S
C583 C582 1.355 . S
C583 C585 1.419 . S
C584 C579 1.425 . S
C584 C581 1.409 . S
C584 C582 1.415 . S
C585 H575 0.930 . S
C585 C583 1.419 . S
C585 C586 1.362 . S
C586 H576 0.930 . S
C586 C579 1.409 . S
C586 C585 1.362 . S
H587 C593 0.930 . S
H588 C596 0.930 . S
H589 C597 0.930 . S
H590 C598 0.930 . S
H591 C601 0.930 . S
H592 C602 0.930 . S
C593 H587 0.930 . S
C593 C594 1.355 . S
C593 C595 1.415 . S
C594 C593 1.355 . S
C594 C596 1.419 . S
C595 C593 1.415 . S
C595 C600 1.425 . S
C595 C602 1.409 . S
C596 H588 0.930 . S
C596 C594 1.419 . S
C596 C597 1.362 . S
C597 H589 0.930 . S
C597 C596 1.362 . S
C597 C600 1.409 . S
C598 H590 0.930 . S
C598 C599 1.355 . S
C598 C600 1.415 . S
C599 C598 1.355 . S
C599 C601 1.419 . S
C600 C595 1.425 . S
C600 C597 1.409 . S
C600 C598 1.415 . S
C601 H591 0.930 . S
C601 C599 1.419 . S
C601 C602 1.362 . S
C602 H592 0.930 . S
C602 C595 1.409 . S
C602 C601 1.362 . S
H603 C609 0.930 . S
H604 C612 0.930 . S
H605 C613 0.930 . S
H606 C614 0.930 . S
H607 C617 0.930 . S
H608 C618 0.930 . S
C609 H603 0.930 . S
C609 C610 1.355 . S
C609 C611 1.415 . S
C610 C609 1.355 . S
C610 C612 1.419 . S
C611 C609 1.415 . S
C611 C616 1.425 . S
C611 C618 1.409 . S
C612 H604 0.930 . S
C612 C610 1.419 . S
C612 C613 1.362 . S
C613 H605 0.930 . S
C613 C612 1.362 . S
C613 C616 1.409 . S
C614 H606 0.930 . S
C614 C615 1.355 . S
C614 C616 1.415 . S
C615 C614 1.355 . S
C615 C617 1.419 . S
C616 C611 1.425 . S
C616 C613 1.409 . S
C616 C614 1.415 . S
C617 H607 0.930 . S
C617 C615 1.419 . S
C617 C618 1.362 . S
C618 H608 0.930 . S
C618 C611 1.409 . S
C618 C617 1.362 . S
H619 C625 0.930 . S
H620 C628 0.930 . S
H621 C629 0.930 . S
H622 C630 0.930 . S
H623 C633 0.930 . S
H624 C634 0.930 . S
C625 H619 0.930 . S
C625 C626 1.355 . S
C625 C627 1.415 . S
C626 C625 1.355 . S
C626 C628 1.419 . S
C627 C625 1.415 . S
C627 C632 1.425 . S
C627 C634 1.409 . S
C628 H620 0.930 . S
C628 C626 1.419 . S
C628 C629 1.362 . S
C629 H621 0.930 . S
C629 C628 1.362 . S
C629 C632 1.409 . S
C630 H622 0.930 . S
C630 C631 1.355 . S
C630 C632 1.415 . S
C631 C630 1.355 . S
C631 C633 1.419 . S
C632 C627 1.425 . S
C632 C629 1.409 . S
C632 C630 1.415 . S
C633 H623 0.930 . S
C633 C631 1.419 . S
C633 C634 1.362 . S
C634 H624 0.930 . S
C634 C627 1.409 . S
C634 C633 1.362 . S
H635 C641 0.930 . S
H636 C644 0.930 . S
H637 C645 0.930 . S
H638 C646 0.930 . S
H639 C649 0.930 . S
H640 C650 0.930 . S
C641 H635 0.930 . S
C641 C642 1.355 . S
C641 C643 1.415 . S
C642 C641 1.355 . S
C642 C644 1.419 . S
C643 C641 1.415 . S
C643 C648 1.425 . S
C643 C650 1.409 . S
C644 H636 0.930 . S
C644 C642 1.419 . S
C644 C645 1.362 . S
C645 H637 0.930 . S
C645 C644 1.362 . S
C645 C648 1.409 . S
C646 H638 0.930 . S
C646 C647 1.355 . S
C646 C648 1.415 . S
C647 C646 1.355 . S
C647 C649 1.419 . S
C648 C643 1.425 . S
C648 C645 1.409 . S
C648 C646 1.415 . S
C649 H639 0.930 . S
C649 C647 1.419 . S
C649 C650 1.362 . S
C650 H640 0.930 . S
C650 C643 1.409 . S
C650 C649 1.362 . S
H651 C657 0.930 . S
H652 C660 0.930 . S
H653 C661 0.930 . S
H654 C662 0.930 . S
H655 C665 0.930 . S
H656 C666 0.930 . S
C657 H651 0.930 . S
C657 C658 1.355 . S
C657 C659 1.415 . S
C658 C657 1.355 . S
C658 C660 1.419 . S
C659 C657 1.415 . S
C659 C664 1.425 . S
C659 C666 1.409 . S
C660 H652 0.930 . S
C660 C658 1.419 . S
C660 C661 1.362 . S
C661 H653 0.930 . S
C661 C660 1.362 . S
C661 C664 1.409 . S
C662 H654 0.930 . S
C662 C663 1.355 . S
C662 C664 1.415 . S
C663 C662 1.355 . S
C663 C665 1.419 . S
C664 C659 1.425 . S
C664 C661 1.409 . S
C664 C662 1.415 . S
C665 H655 0.930 . S
C665 C663 1.419 . S
C665 C666 1.362 . S
C666 H656 0.930 . S
C666 C659 1.409 . S
C666 C665 1.362 . S
H667 C673 0.930 . S
H668 C676 0.930 . S
H669 C677 0.930 . S
H670 C678 0.930 . S
H671 C681 0.930 . S
H672 C682 0.930 . S
C673 H667 0.930 . S
C673 C674 1.355 . S
C673 C675 1.415 . S
C674 C673 1.355 . S
C674 C676 1.419 . S
C675 C673 1.415 . S
C675 C680 1.425 . S
C675 C682 1.409 . S
C676 H668 0.930 . S
C676 C674 1.419 . S
C676 C677 1.362 . S
C677 H669 0.930 . S
C677 C676 1.362 . S
C677 C680 1.409 . S
C678 H670 0.930 . S
C678 C679 1.355 . S
C678 C680 1.415 . S
C679 C678 1.355 . S
C679 C681 1.419 . S
C680 C675 1.425 . S
C680 C677 1.409 . S
C680 C678 1.415 . S
C681 H671 0.930 . S
C681 C679 1.419 . S
C681 C682 1.362 . S
C682 H672 0.930 . S
C682 C675 1.409 . S
C682 C681 1.362 . S
H683 C689 0.930 . S
H684 C692 0.930 . S
H685 C693 0.930 . S
H686 C694 0.930 . S
H687 C697 0.930 . S
H688 C698 0.930 . S
C689 H683 0.930 . S
C689 C690 1.355 . S
C689 C691 1.415 . S
C690 C689 1.355 . S
C690 C692 1.419 . S
C691 C689 1.415 . S
C691 C696 1.425 . S
C691 C698 1.409 . S
C692 H684 0.930 . S
C692 C690 1.419 . S
C692 C693 1.362 . S
C693 H685 0.930 . S
C693 C692 1.362 . S
C693 C696 1.409 . S
C694 H686 0.930 . S
C694 C695 1.355 . S
C694 C696 1.415 . S
C695 C694 1.355 . S
C695 C697 1.419 . S
C696 C691 1.425 . S
C696 C693 1.409 . S
C696 C694 1.415 . S
C697 H687 0.930 . S
C697 C695 1.419 . S
C697 C698 1.362 . S
C698 H688 0.930 . S
C698 C691 1.409 . S
C698 C697 1.362 . S
H699 C705 0.930 . S
H700 C708 0.930 . S
H701 C709 0.930 . S
H702 C710 0.930 . S
H703 C713 0.930 . S
H704 C714 0.930 . S
C705 H699 0.930 . S
C705 C706 1.355 . S
C705 C707 1.415 . S
C706 C705 1.355 . S
C706 C708 1.419 . S
C707 C705 1.415 . S
C707 C712 1.425 . S
C707 C714 1.409 . S
C708 H700 0.930 . S
C708 C706 1.419 . S
C708 C709 1.362 . S
C709 H701 0.930 . S
C709 C708 1.362 . S
C709 C712 1.409 . S
C710 H702 0.930 . S
C710 C711 1.355 . S
C710 C712 1.415 . S
C711 C710 1.355 . S
C711 C713 1.419 . S
C712 C707 1.425 . S
C712 C709 1.409 . S
C712 C710 1.415 . S
C713 H703 0.930 . S
C713 C711 1.419 . S
C713 C714 1.362 . S
C714 H704 0.930 . S
C714 C707 1.409 . S
C714 C713 1.362 . S
H715 C721 0.930 . S
H716 C724 0.930 . S
H717 C725 0.930 . S
H718 C726 0.930 . S
H719 C729 0.930 . S
H720 C730 0.930 . S
C721 H715 0.930 . S
C721 C722 1.355 . S
C721 C723 1.415 . S
C722 C721 1.355 . S
C722 C724 1.419 . S
C723 C721 1.415 . S
C723 C728 1.425 . S
C723 C730 1.409 . S
C724 H716 0.930 . S
C724 C722 1.419 . S
C724 C725 1.362 . S
C725 H717 0.930 . S
C725 C724 1.362 . S
C725 C728 1.409 . S
C726 H718 0.930 . S
C726 C727 1.355 . S
C726 C728 1.415 . S
C727 C726 1.355 . S
C727 C729 1.419 . S
C728 C723 1.425 . S
C728 C725 1.409 . S
C728 C726 1.415 . S
C729 H719 0.930 . S
C729 C727 1.419 . S
C729 C730 1.362 . S
C730 H720 0.930 . S
C730 C723 1.409 . S
C730 C729 1.362 . S
H731 C737 0.930 . S
H732 C740 0.930 . S
H733 C741 0.930 . S
H734 C742 0.930 . S
H735 C745 0.930 . S
H736 C746 0.930 . S
C737 H731 0.930 . S
C737 C738 1.355 . S
C737 C739 1.415 . S
C738 C737 1.355 . S
C738 C740 1.419 . S
C739 C737 1.415 . S
C739 C744 1.425 . S
C739 C746 1.409 . S
C740 H732 0.930 . S
C740 C738 1.419 . S
C740 C741 1.362 . S
C741 H733 0.930 . S
C741 C740 1.362 . S
C741 C744 1.409 . S
C742 H734 0.930 . S
C742 C743 1.355 . S
C742 C744 1.415 . S
C743 C742 1.355 . S
C743 C745 1.419 . S
C744 C739 1.425 . S
C744 C741 1.409 . S
C744 C742 1.415 . S
C745 H735 0.930 . S
C745 C743 1.419 . S
C745 C746 1.362 . S
C746 H736 0.930 . S
C746 C739 1.409 . S
C746 C745 1.362 . S
H747 C753 0.930 . S
H748 C756 0.930 . S
H749 C757 0.930 . S
H750 C758 0.930 . S
H751 C761 0.930 . S
H752 C762 0.930 . S
C753 H747 0.930 . S
C753 C754 1.355 . S
C753 C755 1.415 . S
C754 C753 1.355 . S
C754 C756 1.419 . S
C755 C753 1.415 . S
C755 C760 1.425 . S
C755 C762 1.409 . S
C756 H748 0.930 . S
C756 C754 1.419 . S
C756 C757 1.362 . S
C757 H749 0.930 . S
C757 C756 1.362 . S
C757 C760 1.409 . S
C758 H750 0.930 . S
C758 C759 1.355 . S
C758 C760 1.415 . S
C759 C758 1.355 . S
C759 C761 1.419 . S
C760 C755 1.425 . S
C760 C757 1.409 . S
C760 C758 1.415 . S
C761 H751 0.930 . S
C761 C759 1.419 . S
C761 C762 1.362 . S
C762 H752 0.930 . S
C762 C755 1.409 . S
C762 C761 1.362 . S
H763 C769 0.930 . S
H764 C772 0.930 . S
H765 C773 0.930 . S
H766 C774 0.930 . S
H767 C777 0.930 . S
H768 C778 0.930 . S
C769 H763 0.930 . S
C769 C770 1.355 . S
C769 C771 1.415 . S
C770 C769 1.355 . S
C770 C772 1.419 . S
C771 C769 1.415 . S
C771 C776 1.425 . S
C771 C778 1.409 . S
C772 H764 0.930 . S
C772 C770 1.419 . S
C772 C773 1.362 . S
C773 H765 0.930 . S
C773 C772 1.362 . S
C773 C776 1.409 . S
C774 H766 0.930 . S
C774 C775 1.355 . S
C774 C776 1.415 . S
C775 C774 1.355 . S
C775 C777 1.419 . S
C776 C771 1.425 . S
C776 C773 1.409 . S
C776 C774 1.415 . S
C777 H767 0.930 . S
C777 C775 1.419 . S
C777 C778 1.362 . S
C778 H768 0.930 . S
C778 C771 1.409 . S
C778 C777 1.362 . S
H779 C785 0.930 . S
H780 C788 0.930 . S
H781 C789 0.930 . S
H782 C790 0.930 . S
H783 C793 0.930 . S
H784 C794 0.930 . S
C785 H779 0.930 . S
C785 C786 1.355 . S
C785 C787 1.415 . S
C786 C785 1.355 . S
C786 C788 1.419 . S
C787 C785 1.415 . S
C787 C792 1.425 . S
C787 C794 1.409 . S
C788 H780 0.930 . S
C788 C786 1.419 . S
C788 C789 1.362 . S
C789 H781 0.930 . S
C789 C788 1.362 . S
C789 C792 1.409 . S
C790 H782 0.930 . S
C790 C791 1.355 . S
C790 C792 1.415 . S
C791 C790 1.355 . S
C791 C793 1.419 . S
C792 C787 1.425 . S
C792 C789 1.409 . S
C792 C790 1.415 . S
C793 H783 0.930 . S
C793 C791 1.419 . S
C793 C794 1.362 . S
C794 H784 0.930 . S
C794 C787 1.409 . S
C794 C793 1.362 . S
C423 C336 1.156 . S
C418 C16 1.154 . S
C439 C372 1.637 . S
C434 C55 1.775 . S
C455 C337 1.414 . S
C450 C99 1.374 . S
C471 C367 1.552 . S
C466 C133 1.547 . S
C487 C334 1.559 . S
C482 C157 1.561 . S
C498 C211 1.684 . S
C503 C370 1.691 . S
C514 C255 1.224 . S
C519 C339 1.050 . S
C535 C369 1.478 . S
C530 C294 1.503 . S
C551 C373 1.471 . S
C546 C21 1.480 . S
C567 C338 1.554 . S
C562 C40 1.563 . S
C583 C366 1.701 . S
C578 C94 1.705 . S
C599 C335 1.172 . S
C594 C138 1.234 . S
C615 C368 1.704 . S
C610 C172 1.755 . S
C626 C216 1.431 . S
C631 C333 1.412 . S
C642 C235 1.549 . S
C647 C371 1.523 . S
C663 C340 1.129 . S
C658 C289 1.165 . S
C679 C402 1.609 . S
C674 C1 1.751 . S
C690 C177 2.010 . S
C695 C405 1.901 . S
C711 C404 1.724 . S
C706 C196 1.748 . S
C722 C250 2.027 . S
C727 C403 2.007 . S
C743 C406 1.677 . S
C738 C274 1.749 . S
C754 C79 1.738 . S
C759 C400 1.667 . S
C775 C399 2.024 . S
C770 C118 2.018 . S
C786 C60 2.028 . S
C791 C401 1.882 . S
