# Generated by pormake.
# Topology zzz, (3,6)-cn, num edge types: 1
# Building blocks:
#     Node 0, Type 0, BuildingBlock: PAMTOO_clean_linker_0, # of connection points: 3
#     Node 1, Type 0, BuildingBlock: PAMTOO_clean_linker_0, # of connection points: 3
#     Node 2, Type 0, BuildingBlock: PAMTOO_clean_linker_0, # of connection points: 3
#     Node 3, Type 0, BuildingBlock: PAMTOO_clean_linker_0, # of connection points: 3
#     Node 4, Type 0, BuildingBlock: PAMTOO_clean_linker_0, # of connection points: 3
#     Node 5, Type 0, BuildingBlock: PAMTOO_clean_linker_0, # of connection points: 3
#     Node 6, Type 0, BuildingBlock: PAMTOO_clean_linker_0, # of connection points: 3
#     Node 7, Type 0, BuildingBlock: PAMTOO_clean_linker_0, # of connection points: 3
#     Node 8, Type 1, BuildingBlock: BETGAK_clean_sbu_0, # of connection points: 6
#     Node 9, Type 1, BuildingBlock: BETGAK_clean_sbu_0, # of connection points: 6
#     Node 10, Type 1, BuildingBlock: BETGAK_clean_sbu_0, # of connection points: 6
#     Node 11, Type 1, BuildingBlock: BETGAK_clean_sbu_0, # of connection points: 6
#     Edge 12, Type (0, 1), BuildingBlock: EZIPEK_clean_linker_0, # of connection points: 2
#     Edge 13, Type (0, 1), BuildingBlock: EZIPEK_clean_linker_0, # of connection points: 2
#     Edge 14, Type (0, 1), BuildingBlock: EZIPEK_clean_linker_0, # of connection points: 2
#     Edge 15, Type (0, 1), BuildingBlock: EZIPEK_clean_linker_0, # of connection points: 2
#     Edge 16, Type (0, 1), BuildingBlock: EZIPEK_clean_linker_0, # of connection points: 2
#     Edge 17, Type (0, 1), BuildingBlock: EZIPEK_clean_linker_0, # of connection points: 2
#     Edge 18, Type (0, 1), BuildingBlock: EZIPEK_clean_linker_0, # of connection points: 2
#     Edge 19, Type (0, 1), BuildingBlock: EZIPEK_clean_linker_0, # of connection points: 2
#     Edge 20, Type (0, 1), BuildingBlock: EZIPEK_clean_linker_0, # of connection points: 2
#     Edge 21, Type (0, 1), BuildingBlock: EZIPEK_clean_linker_0, # of connection points: 2
#     Edge 22, Type (0, 1), BuildingBlock: EZIPEK_clean_linker_0, # of connection points: 2
#     Edge 23, Type (0, 1), BuildingBlock: EZIPEK_clean_linker_0, # of connection points: 2
#     Edge 24, Type (0, 1), BuildingBlock: EZIPEK_clean_linker_0, # of connection points: 2
#     Edge 25, Type (0, 1), BuildingBlock: EZIPEK_clean_linker_0, # of connection points: 2
#     Edge 26, Type (0, 1), BuildingBlock: EZIPEK_clean_linker_0, # of connection points: 2
#     Edge 27, Type (0, 1), BuildingBlock: EZIPEK_clean_linker_0, # of connection points: 2
#     Edge 28, Type (0, 1), BuildingBlock: EZIPEK_clean_linker_0, # of connection points: 2
#     Edge 29, Type (0, 1), BuildingBlock: EZIPEK_clean_linker_0, # of connection points: 2
#     Edge 30, Type (0, 1), BuildingBlock: EZIPEK_clean_linker_0, # of connection points: 2
#     Edge 31, Type (0, 1), BuildingBlock: EZIPEK_clean_linker_0, # of connection points: 2
#     Edge 32, Type (0, 1), BuildingBlock: EZIPEK_clean_linker_0, # of connection points: 2
#     Edge 33, Type (0, 1), BuildingBlock: EZIPEK_clean_linker_0, # of connection points: 2
#     Edge 34, Type (0, 1), BuildingBlock: EZIPEK_clean_linker_0, # of connection points: 2
#     Edge 35, Type (0, 1), BuildingBlock: EZIPEK_clean_linker_0, # of connection points: 2
# Relax obj value: 0.374
# Max RMSD: 0.216
# Mean RMSD: 0.160
data_MOF--net-zzz--node1-BETGAK_clean_sbu_0--node2-PAMTOO_clean_linker_0--edge1-EZIPEK_clean_linker_0
_symmetry_space_group_name_H-M    P1
_symmetry_Int_Tables_number       1
_symmetry_cell_setting            triclinic
loop_
_symmetry_equiv_pos_as_xyz
'x, y, z'
_cell_length_a     38.169216
_cell_length_b     38.019553
_cell_length_c     10.154057
_cell_angle_alpha  89.917783
_cell_angle_beta   90.100914
_cell_angle_gamma 89.469779
loop_
_atom_site_label
_atom_site_type_symbol
_atom_site_fract_x
_atom_site_fract_y
_atom_site_fract_z
_atom_type_partial_charge
H0 H 0.85384 0.46602 0.41904 0.0
H1 H 0.75532 0.47016 0.21708 0.0
H2 H 0.78723 0.5571 0.46093 0.0
H3 H 0.69616 0.55199 0.38015 0.0
C4 C 0.70383 0.5304 0.31225 0.0
O5 O 0.73929 0.53437 0.28013 0.0
H6 H 0.69995 0.50681 0.37472 0.0
C7 C 0.82974 0.47988 0.39637 0.0
C8 C 0.82387 0.51265 0.45512 0.0
C9 C 0.80569 0.46458 0.30951 0.0
C10 C 0.77402 0.48206 0.28277 0.0
C11 C 0.76709 0.51573 0.33292 0.0
C12 C 0.79205 0.53105 0.42171 0.0
H13 H 0.98026 0.85739 0.41553 0.0
H14 H 0.96846 0.75422 0.2525 0.0
H15 H 0.03232 0.77042 0.59957 0.0
H16 H 0.05327 0.69122 0.41796 0.0
C17 C 0.03624 0.70518 0.34564 0.0
O18 O 1.00972 0.72243 0.41655 0.0
H19 H 0.05426 0.72451 0.30029 0.0
C20 C 0.98592 0.82964 0.41807 0.0
C21 C 1.00697 0.81777 0.5206 0.0
C22 C 0.97058 0.80725 0.32535 0.0
C23 C 0.97985 0.77166 0.32482 0.0
C24 C 1.00339 0.75807 0.41868 0.0
C25 C 1.01624 0.78106 0.52092 0.0
H26 H 0.69531 0.09019 0.40149 0.0
H27 H 0.79494 0.08269 0.21005 0.0
H28 H 0.76229 1.00056 0.47556 0.0
H29 H 0.85336 1.00201 0.39374 0.0
C30 C 0.84565 1.02417 0.32812 0.0
O31 O 0.81055 1.01989 0.29237 0.0
H32 H 0.84888 0.04718 0.3939 0.0
C33 C 0.7197 0.07605 0.38592 0.0
C34 C 0.72546 0.04443 0.45375 0.0
C35 C 0.74476 0.09034 0.3013 0.0
C36 C 0.77621 0.07217 0.27912 0.0
C37 C 0.78265 0.03938 0.33762 0.0
C38 C 0.75746 1.0257 0.42843 0.0
H39 H 0.5591 0.70326 0.38997 0.0
H40 H 0.57313 0.80827 0.24614 0.0
H41 H 0.51916 0.7898 0.61399 0.0
H42 H 0.5016 0.87586 0.46284 0.0
C43 C 0.51303 0.86057 0.38053 0.0
O44 O 0.5399 0.83953 0.43353 0.0
H45 H 0.49073 0.84402 0.34924 0.0
C46 C 0.55507 0.73116 0.40066 0.0
C47 C 0.53823 0.74243 0.51412 0.0
C48 C 0.56945 0.75435 0.30834 0.0
C49 C 0.56244 0.7903 0.31826 0.0
C50 C 0.54291 0.80358 0.42411 0.0
C51 C 0.53169 0.7796 0.52629 0.0
H52 H 0.21315 0.59148 0.25198 0.0
H53 H 0.32008 0.58073 0.37776 0.0
H54 H 0.27599 0.50464 0.11123 0.0
H55 H 0.34352 0.47288 0.3147 0.0
C56 C 0.34292 0.4995 0.35956 0.0
O57 O 0.33343 0.52282 0.25867 0.0
H58 H 0.32172 0.49958 0.43485 0.0
C59 C 0.23794 0.57742 0.2468 0.0
C60 C 0.24034 0.54745 0.16693 0.0
C61 C 0.26644 0.58971 0.321 0.0
C62 C 0.29816 0.57134 0.32013 0.0
C63 C 0.30171 0.54002 0.25003 0.0
C64 C 0.27293 0.52817 0.17008 0.0
H65 H 0.95881 0.21771 0.20497 0.0
H66 H 0.97425 0.31658 0.39482 0.0
H67 H 0.05231 0.27674 0.12683 0.0
H68 H 1.00457 0.36841 0.22134 0.0
C69 C 0.02942 0.36468 0.27627 0.0
O70 O 0.03545 0.3289 0.3042 0.0
H71 H 0.04892 0.37306 0.20185 0.0
C72 C 0.97413 0.24134 0.21621 0.0
C73 C 1.00638 0.24326 0.15077 0.0
C74 C 0.96182 0.26799 0.30059 0.0
C75 C 0.98255 0.29734 0.32356 0.0
C76 C 1.01495 0.30139 0.26229 0.0
C77 C 0.02696 0.27431 0.17332 0.0
H78 H 0.34848 0.96219 0.23493 0.0
H79 H 0.24554 0.95848 0.39811 0.0
H80 H 0.27957 0.05185 0.19232 0.0
H81 H 0.23247 0.05315 0.49773 0.0
C82 C 0.21725 0.0301 0.46441 0.0
O83 O 0.22625 1.02251 0.33341 0.0
H84 H 0.22656 1.00847 0.52987 0.0
C85 C 0.32301 0.97452 0.24864 0.0
C86 C 0.31697 1.00805 0.19617 0.0
C87 C 0.29798 0.95744 0.32537 0.0
C88 C 0.26475 0.97253 0.34098 0.0
C89 C 0.25783 1.00718 0.29915 0.0
C90 C 0.2843 1.02517 0.22566 0.0
H91 H 0.59554 0.34439 0.17474 0.0
H92 H 0.59703 0.2398 0.32234 0.0
H93 H 0.50665 0.27768 0.1057 0.0
H94 H 0.49575 0.2248 0.39663 0.0
C95 C 0.52247 0.21373 0.38196 0.0
O96 O 0.53373 0.22241 0.25384 0.0
H97 H 0.53865 0.22807 0.45538 0.0
C98 C 0.58289 0.31908 0.18252 0.0
C99 C 0.55011 0.31474 0.12309 0.0
C100 C 0.59956 0.29224 0.25415 0.0
C101 C 0.58345 0.25979 0.26743 0.0
C102 C 0.54922 0.2542 0.22251 0.0
C103 C 0.53247 0.28186 0.14667 0.0
La104 La 0.04049 1.02185 0.94066 0.0
La105 La 1.0009 0.0361 0.71521 0.0
C106 C 0.05678 0.99726 0.16231 0.0
C107 C 0.03295 0.97481 0.23844 0.0
C108 C 0.0431 0.94014 0.26651 0.0
C109 C 1.01772 0.91408 0.27617 0.0
C110 C 0.98205 0.92235 0.25441 0.0
C111 C 0.97189 0.9577 0.25017 0.0
C112 C 0.9971 0.98389 0.24334 0.0
C113 C 0.08219 0.03717 0.73462 0.0
C114 C 1.01765 0.95727 0.75826 0.0
C115 C 0.97529 0.05763 0.50078 0.0
C116 C 0.95188 0.087 0.46795 0.0
C117 C 0.92579 0.09814 0.55673 0.0
C118 C 0.90998 0.13115 0.5416 0.0
C119 C 0.92058 0.15319 0.43871 0.0
C120 C 0.94391 0.14051 0.34297 0.0
C121 C 0.95955 0.10754 0.35767 0.0
C122 C 0.95894 1.02135 0.92221 0.0
C123 C 1.02239 0.10216 0.90121 0.0
O124 O 0.06759 0.98342 0.05183 0.0
O125 O 0.04622 0.02961 0.14478 0.0
O126 O 0.08792 0.04545 0.85647 0.0
O127 O 0.05462 1.01885 0.73367 0.0
O128 O 1.02183 0.96815 0.88168 0.0
O129 O 1.01381 0.98131 0.66591 0.0
O130 O 0.96172 0.03249 0.57104 0.0
O131 O 1.00616 0.06676 0.54447 0.0
O132 O 0.95364 1.01248 0.80134 0.0
O133 O 0.98687 0.03914 0.92229 0.0
O134 O 1.01051 0.09148 0.7844 0.0
O135 O 0.03421 0.0782 0.98494 0.0
H136 H 0.07049 0.93244 0.26411 0.0
H137 H 0.02638 0.88694 0.28359 0.0
H138 H 0.9448 0.965 0.24022 0.0
H139 H 0.98827 1.01063 0.22533 0.0
H140 H 0.91974 0.08271 0.64343 0.0
H141 H 0.89244 0.14088 0.61726 0.0
H142 H 0.95252 0.15733 0.26346 0.0
H143 H 0.97964 0.09931 0.28863 0.0
La144 La 0.53059 0.05497 0.92837 0.0
La145 La 0.51597 1.00367 0.75057 0.0
C146 C 0.55436 0.09482 0.10622 0.0
C147 C 0.5841 0.11874 0.12266 0.0
C148 C 0.5926 0.14429 0.02783 0.0
C149 C 0.62358 0.16353 0.03941 0.0
C150 C 0.64649 0.1574 0.14571 0.0
C151 C 0.63606 0.13385 0.24539 0.0
C152 C 0.60534 0.11474 0.23377 0.0
C153 C 0.5119 0.08412 0.6945 0.0
C154 C 0.59378 1.02749 0.74852 0.0
C155 C 0.49346 0.96564 0.56533 0.0
C156 C 0.46539 0.9403 0.53996 0.0
C157 C 0.45712 0.91331 0.62904 0.0
C158 C 0.4269 0.89329 0.61082 0.0
C159 C 0.40431 0.90061 0.50471 0.0
C160 C 0.41505 0.92491 0.40835 0.0
C161 C 0.44545 0.94424 0.42543 0.0
C162 C 0.53516 0.97427 0.98281 0.0
C163 C 0.45282 0.03065 0.9384 0.0
O164 O 0.53028 0.10415 0.02196 0.0
O165 O 0.56213 0.0614 0.09671 0.0
O166 O 0.50162 0.09393 0.80955 0.0
O167 O 0.53166 0.05751 0.71387 0.0
O168 O 0.58488 0.03991 0.86574 0.0
O169 O 0.56829 1.01581 0.67307 0.0
O170 O 0.5182 0.95605 0.64696 0.0
O171 O 0.48343 0.99824 0.58467 0.0
O172 O 0.54535 0.96466 0.86689 0.0
O173 O 0.51522 1.00094 0.96541 0.0
O174 O 0.46167 1.01316 0.82966 0.0
O175 O 0.47755 0.04765 1.00153 0.0
H176 H 0.57607 0.14851 0.94247 0.0
H177 H 0.63009 0.1821 0.96278 0.0
H178 H 0.65259 0.12857 0.32972 0.0
H179 H 0.5989 0.09574 0.30947 0.0
H180 H 0.47357 0.90812 0.71348 0.0
H181 H 0.42062 0.87324 0.68237 0.0
H182 H 0.39871 0.93083 0.32384 0.0
H183 H 0.45248 0.96353 0.35209 0.0
La184 La 0.50904 0.53512 0.91843 0.0
La185 La 0.5484 0.52226 0.69416 0.0
C186 C 0.49165 0.55878 0.13969 0.0
C187 C 0.51464 0.58197 0.2158 0.0
C188 C 0.50245 0.61554 0.25 0.0
C189 C 0.52599 0.64334 0.25719 0.0
C190 C 0.56176 0.63781 0.22807 0.0
C191 C 0.57432 0.60339 0.21651 0.0
C192 C 0.55102 0.57549 0.21218 0.0
C193 C 0.46704 0.5191 0.71415 0.0
C194 C 0.5303 0.60069 0.73975 0.0
C195 C 0.57466 0.50173 0.47979 0.0
C196 C 0.59918 0.47335 0.44647 0.0
C197 C 0.59277 0.45337 0.33373 0.0
C198 C 0.60989 0.42124 0.31664 0.0
C199 C 0.63366 0.40887 0.41184 0.0
C200 C 0.64274 0.43042 0.51821 0.0
C201 C 0.62536 0.46256 0.53596 0.0
C202 C 0.59073 0.53705 0.90175 0.0
C203 C 0.52846 0.45534 0.87819 0.0
O204 O 0.48051 0.57241 0.02902 0.0
O205 O 0.5034 0.52686 0.12234 0.0
O206 O 0.4621 0.51037 0.83591 0.0
O207 O 0.49425 0.53803 0.71081 0.0
O208 O 0.52726 0.58919 0.86282 0.0
O209 O 0.53347 0.57691 0.64611 0.0
O210 O 0.58728 0.52739 0.5498 0.0
O211 O 0.54429 0.49133 0.52387 0.0
O212 O 0.59544 0.54643 0.78105 0.0
O213 O 0.56305 0.51879 0.9013 0.0
O214 O 0.53926 0.46654 0.76069 0.0
O215 O 0.51706 0.47898 0.96341 0.0
H216 H 0.47459 0.62115 0.25411 0.0
H217 H 0.5156 0.66974 0.26939 0.0
H218 H 0.60166 0.59837 0.1993 0.0
H219 H 0.5614 0.54962 0.18888 0.0
H220 H 0.5726 0.4613 0.26417 0.0
H221 H 0.60227 0.40468 0.235 0.0
H222 H 0.66052 0.42087 0.59372 0.0
H223 H 0.63042 0.47753 0.62457 0.0
La224 La 1.02198 0.50864 0.92303 0.0
La225 La 0.0355 0.55422 0.73222 0.0
C226 C 0.99792 0.47209 0.11011 0.0
C227 C 0.96965 0.44669 0.12975 0.0
C228 C 0.94642 0.45279 0.23325 0.0
C229 C 0.91653 0.4326 0.24582 0.0
C230 C 0.90905 0.40551 0.15599 0.0
C231 C 0.93384 0.39752 0.05795 0.0
C232 C 0.96386 0.41824 0.04399 0.0
C233 C 0.03976 0.47381 0.69981 0.0
C234 C 0.95806 0.53202 0.73463 0.0
C235 C 0.05896 0.58918 0.54056 0.0
C236 C 0.08903 0.61201 0.51908 0.0
C237 C 0.10312 0.63199 0.62242 0.0
C238 C 0.13639 0.64647 0.61064 0.0
C239 C 0.15631 0.63933 0.49805 0.0
C240 C 0.1406 0.6231 0.38902 0.0
C241 C 0.10694 0.60961 0.39939 0.0
C242 C 1.01701 0.5899 0.95228 0.0
C243 C 0.09964 0.53157 0.9211 0.0
O244 O 1.02433 0.46244 0.03729 0.0
O245 O 0.98769 0.50411 0.08327 0.0
O246 O 0.05109 0.46704 0.81672 0.0
O247 O 1.01956 0.50024 0.71066 0.0
O248 O 0.96726 0.5228 0.85624 0.0
O249 O 0.98363 0.54083 0.65481 0.0
O250 O 0.03502 0.60066 0.6213 0.0
O251 O 0.06667 0.55614 0.56205 0.0
O252 O 1.00414 0.5944 0.83572 0.0
O253 O 0.03759 0.56337 0.9451 0.0
O254 O 0.09042 0.54276 0.80186 0.0
O255 O 0.07447 0.52078 0.99958 0.0
H256 H 0.95064 0.47423 0.30164 0.0
H257 H 0.89852 0.43925 0.32361 0.0
H258 H 0.92957 0.37619 0.98967 0.0
H259 H 0.98182 0.41274 0.96403 0.0
H260 H 0.09004 0.63381 0.71608 0.0
H261 H 0.14821 0.65904 0.69524 0.0
H262 H 0.15552 0.61787 0.30042 0.0
H263 H 0.09624 0.59462 0.3182 0.0
C264 C 0.15436 1.00524 0.49463 0.0
C265 C 0.17722 0.03469 0.49211 0.0
C266 C 0.13293 0.06834 0.61997 0.0
C267 C 0.11119 0.03812 0.63036 0.0
N268 N 0.09514 0.98409 0.52164 0.0
N269 N 0.18021 0.09774 0.504 0.0
C270 C 0.11994 1.00845 0.55059 0.0
C271 C 0.16395 0.06736 0.53987 0.0
N272 N 0.16557 0.97379 0.44525 0.0
N273 N 0.12382 0.09832 0.68592 0.0
H274 H 0.20089 0.09799 0.43693 0.0
H275 H 0.17055 0.12271 0.52654 0.0
H276 H 0.09959 0.1016 0.73186 0.0
H277 H 0.14064 0.1195 0.69792 0.0
H278 H 0.15267 0.95017 0.46214 0.0
H279 H 0.18845 0.97122 0.39078 0.0
H280 H 0.09938 0.96318 0.45742 0.0
H281 H 0.06895 0.98765 0.54507 0.0
C282 C 0.49228 0.1529 0.41987 0.0
C283 C 0.52328 0.17362 0.42176 0.0
C284 C 0.54897 0.13182 0.58418 0.0
C285 C 0.51754 0.11194 0.58801 0.0
N286 N 0.46213 0.09918 0.48725 0.0
N287 N 0.58517 0.17218 0.46117 0.0
C288 C 0.49012 0.12112 0.4982 0.0
C289 C 0.55286 0.15962 0.49007 0.0
N290 N 0.46464 0.16403 0.34473 0.0
N291 N 0.57477 0.1254 0.67451 0.0
H292 H 0.58869 0.18812 0.37954 0.0
H293 H 0.60835 0.16221 0.50133 0.0
H294 H 0.57303 0.1058 0.74567 0.0
H295 H 0.59646 0.14153 0.68654 0.0
H296 H 0.43972 0.15325 0.34924 0.0
H297 H 0.46683 0.18471 0.27765 0.0
H298 H 0.44241 0.10213 0.41716 0.0
H299 H 0.46001 0.0762 0.54293 0.0
C300 C 0.38756 0.47967 0.53596 0.0
C301 C 0.37861 0.50474 0.43528 0.0
C302 C 0.42933 0.54025 0.51216 0.0
C303 C 0.43907 0.51405 0.60715 0.0
N304 N 0.43346 0.45326 0.66967 0.0
N305 N 0.40198 0.55182 0.30057 0.0
C306 C 0.41993 0.48218 0.60679 0.0
C307 C 0.40258 0.53306 0.41517 0.0
N308 N 0.36498 0.45318 0.56694 0.0
N309 N 0.44453 0.57255 0.51522 0.0
H310 H 0.38725 0.54461 0.2191 0.0
H311 H 0.42042 0.57096 0.27829 0.0
H312 H 0.46391 0.57931 0.5821 0.0
H313 H 0.43551 0.59369 0.45871 0.0
H314 H 0.36814 0.43746 0.65043 0.0
H315 H 0.34179 0.44817 0.51648 0.0
H316 H 0.42255 0.42832 0.66203 0.0
H317 H 0.45798 0.45313 0.71517 0.0
C318 C 0.06495 0.40387 0.43709 0.0
C319 C 0.03185 0.38973 0.39927 0.0
C320 C 1.00472 0.42679 0.57553 0.0
C321 C 0.03673 0.44502 0.59566 0.0
N322 N 0.09717 0.45216 0.53601 0.0
N323 N 0.96896 0.3903 0.43436 0.0
C324 C 0.06678 0.43373 0.52394 0.0
C325 C 1.00143 0.40181 0.46957 0.0
N326 N 0.09502 0.3881 0.39308 0.0
N327 N 0.97768 0.4322 0.66146 0.0
H328 H 0.96438 0.37247 0.35925 0.0
H329 H 0.9458 0.40056 0.47309 0.0
H330 H 0.97919 0.44958 0.74043 0.0
H331 H 0.95519 0.41692 0.66361 0.0
H332 H 0.11988 0.39486 0.42639 0.0
H333 H 0.09505 0.36559 0.33456 0.0
H334 H 0.11883 0.44813 0.47545 0.0
H335 H 0.09972 0.47358 0.59937 0.0
C336 C 0.88754 0.05661 0.16693 0.0
C337 C 0.87112 1.02479 0.20758 0.0
C338 C 0.90924 0.99219 0.04969 0.0
C339 C 0.9289 1.02315 0.02257 0.0
N340 N 0.93478 0.08581 0.05124 0.0
N341 N 0.86444 0.96238 0.17816 0.0
C342 C 0.91743 0.05558 0.08033 0.0
C343 C 0.88103 0.99279 0.14382 0.0
N344 N 0.87366 0.08815 0.20672 0.0
N345 N 0.91874 0.96142 0.98958 0.0
H346 H 0.84221 0.96187 0.23747 0.0
H347 H 0.87285 0.93732 0.15124 0.0
H348 H 0.94276 0.95815 0.94272 0.0
H349 H 0.90334 0.93902 0.98662 0.0
H350 H 0.88139 0.11253 0.17138 0.0
H351 H 0.85169 0.09046 0.26641 0.0
H352 H 0.93042 0.10994 0.09617 0.0
H353 H 0.9547 0.08705 0.98287 0.0
C354 C 0.50839 0.8867 0.14537 0.0
C355 C 0.52435 0.88771 0.27219 0.0
C356 C 0.55003 0.94547 0.20711 0.0
C357 C 0.52969 0.9463 0.08928 0.0
N358 N 0.48245 0.92042 0.9671 0.0
N359 N 0.55945 0.92053 0.42582 0.0
C360 C 0.50686 0.91768 0.06488 0.0
C361 C 0.54505 0.91782 0.30325 0.0
N362 N 0.4959 0.85566 0.09791 0.0
N363 N 0.5746 0.97083 0.22649 0.0
H364 H 0.55787 0.90063 0.49618 0.0
H365 H 0.57107 0.94337 0.4605 0.0
H366 H 0.57803 0.99164 0.16081 0.0
H367 H 0.59302 0.97 0.30223 0.0
H368 H 0.4864 0.85291 1.00219 0.0
H369 H 0.49967 0.83178 0.14685 0.0
H370 H 0.46266 0.90202 0.95417 0.0
H371 H 0.47962 0.94294 0.90917 0.0
C372 C 0.66255 0.49971 0.1426 0.0
C373 C 0.67859 0.53109 0.18982 0.0
C374 C 0.6412 0.56503 0.03175 0.0
C375 C 0.6214 0.53444 1.00031 0.0
N376 N 0.61639 0.47148 0.01722 0.0
N377 N 0.68427 0.59393 0.17111 0.0
C378 C 0.63304 0.50152 0.05376 0.0
C379 C 0.66855 0.56369 0.13 0.0
N380 N 0.67655 0.46781 0.17764 0.0
N381 N 0.63335 0.59599 0.96933 0.0
H382 H 0.70624 0.59408 0.23219 0.0
H383 H 0.67503 0.61907 0.14877 0.0
H384 H 0.61073 0.59965 0.91355 0.0
H385 H 0.64938 0.61798 0.97076 0.0
H386 H 0.66954 0.444 0.13546 0.0
H387 H 0.69784 0.4649 0.24049 0.0
H388 H 0.62014 0.44704 0.06094 0.0
H389 H 0.59816 0.47078 0.94199 0.0
C390 C 1.01327 0.64312 0.28256 0.0
C391 C 1.02348 0.6774 0.24263 0.0
C392 C 0.02673 0.65562 1.01244 0.0
C393 C 1.01954 0.62019 0.05328 0.0
N394 N 1.00924 0.58065 0.23433 0.0
N395 N 1.02602 0.71825 0.06265 0.0
C396 C 1.01345 0.61425 0.19036 0.0
C397 C 1.02603 0.68415 0.10545 0.0
N398 N 1.00121 0.63858 0.40768 0.0
N399 N 0.03708 0.66209 0.88621 0.0
H400 H 1.02398 0.73958 0.12657 0.0
H401 H 1.02356 0.72547 0.96409 0.0
H402 H 0.03922 0.64277 0.81504 0.0
H403 H 0.04725 0.686 0.85492 0.0
H404 H 0.98814 0.6161 0.4382 0.0
H405 H 1.00087 0.65877 0.47705 0.0
H406 H 1.00829 0.5737 0.33342 0.0
H407 H 1.00948 0.55917 0.17136 0.0
C408 C 0.94102 0.24749 0.50947 0.0
C409 C 0.93115 0.2604 0.38562 0.0
C410 C 0.8937 0.20941 0.35722 0.0
C411 C 0.91573 0.19156 0.4486 0.0
N412 N 0.96329 0.19447 0.60749 0.0
N413 N 0.88727 0.2617 0.21855 0.0
C414 C 0.93937 0.21094 0.5282 0.0
C415 C 0.9023 0.24463 0.3225 0.0
N416 N 0.9558 0.26917 0.59991 0.0
N417 N 0.86672 0.19196 0.29922 0.0
H418 H 0.89513 0.28709 0.19313 0.0
H419 H 0.86801 0.25095 0.15859 0.0
H420 H 0.86084 0.16605 0.3246 0.0
H421 H 0.84915 0.20365 0.23361 0.0
H422 H 0.96364 0.26047 0.6928 0.0
H423 H 0.95631 0.29633 0.58579 0.0
H424 H 0.98361 0.20796 0.65336 0.0
H425 H 0.96497 0.16725 0.61699 0.0
C426 C 0.32361 0.89696 0.33039 0.0
C427 C 0.30955 0.92595 0.40136 0.0
C428 C 0.34483 0.9079 0.59101 0.0
C429 C 0.36703 0.88945 0.50377 0.0
N430 N 0.37069 0.85458 0.30822 0.0
N431 N 0.30362 0.95605 0.61099 0.0
C432 C 0.35313 0.8789 0.38156 0.0
C433 C 0.31812 0.92973 0.53714 0.0
N434 N 0.31151 0.8886 0.20855 0.0
N435 N 0.35035 0.90564 0.72335 0.0
H436 H 0.28332 0.9722 0.57794 0.0
H437 H 0.31279 0.96273 0.70425 0.0
H438 H 0.36913 0.88863 0.76307 0.0
H439 H 0.33368 0.91707 0.79262 0.0
H440 H 0.29009 0.90135 0.16486 0.0
H441 H 0.29009 0.90135 0.16486 0.0
H442 H 0.36231 0.8471 0.21447 0.0
H443 H 0.39319 0.84202 0.34459 0.0
C444 C 0.65684 0.32052 0.27917 0.0
C445 C 0.62941 0.3019 0.33992 0.0
C446 C 0.61794 0.34901 0.49011 0.0
C447 C 0.64077 0.37072 0.41614 0.0
N448 N 0.69046 0.37473 0.27177 0.0
N449 N 0.6037 0.28919 0.54941 0.0
C450 C 0.66383 0.35537 0.32267 0.0
C451 C 0.6184 0.31266 0.46517 0.0
N452 N 0.67232 0.30633 0.17065 0.0
N453 N 0.59252 0.36313 0.56865 0.0
H454 H 0.60357 0.26232 0.52873 0.0
H455 H 0.59527 0.29621 0.64345 0.0
H456 H 0.58925 0.39008 0.58215 0.0
H457 H 0.57257 0.34801 0.60912 0.0
H458 H 0.69025 0.31955 0.11193 0.0
H459 H 0.66604 0.28093 0.1397 0.0
H460 H 0.70886 0.36475 0.20577 0.0
H461 H 0.69542 0.40018 0.30501 0.0
C462 C 0.24524 0.64987 0.3599 0.0
C463 C 0.26009 0.61895 0.414 0.0
C464 C 0.21367 0.61383 0.57171 0.0
C465 C 0.19489 0.64063 0.5024 0.0
N466 N 0.19671 0.69194 0.36397 0.0
N467 N 0.27068 0.58788 0.61542 0.0
C468 C 0.2125 0.66198 0.40957 0.0
C469 C 0.24899 0.60778 0.53846 0.0
N470 N 0.2604 0.66421 0.25125 0.0
N471 N 0.19715 0.59111 0.65476 0.0
H472 H 0.29655 0.58273 0.588 0.0
H473 H 0.26399 0.58009 0.7106 0.0
H474 H 0.17072 0.59287 0.67835 0.0
H475 H 0.20942 0.56868 0.69283 0.0
H476 H 0.24943 0.68475 0.19678 0.0
H477 H 0.2842 0.65432 0.21552 0.0
H478 H 0.20859 0.70935 0.29911 0.0
H479 H 0.17242 0.70037 0.39985 0.0
C480 C 0.92113 0.84604 0.2819 0.0
C481 C 0.94628 0.82306 0.22674 0.0
C482 C 0.97112 0.87148 0.10698 0.0
C483 C 0.95822 0.89392 0.20865 0.0
N484 N 0.91391 0.90422 0.37601 0.0
N485 N 0.97562 0.81116 0.02514 0.0
C486 C 0.9293 0.88251 0.28591 0.0
C487 C 0.96363 0.83506 0.11435 0.0
N488 N 0.89353 0.8321 0.34756 0.0
N489 N 0.99348 0.88452 0.01509 0.0
H490 H 0.97048 0.7844 0.03708 0.0
H491 H 0.98846 0.81783 0.93841 0.0
H492 H 0.9979 0.91148 1.00711 0.0
H493 H 1.00795 0.86883 0.95091 0.0
H494 H 0.87342 0.84729 0.38806 0.0
H495 H 0.89019 0.80485 0.35134 0.0
H496 H 0.89547 0.89568 0.44409 0.0
H497 H 0.92062 0.93049 0.38669 0.0
C498 C 0.72733 0.12404 0.09731 0.0
C499 C 0.73592 0.12393 0.23341 0.0
C500 C 0.69923 0.17629 0.26541 0.0
C501 C 0.68379 0.16881 0.14248 0.0
N502 N 0.70121 0.15818 0.91964 0.0
N503 N 0.7416 0.15768 0.43242 0.0
C504 C 0.70456 0.15078 0.05015 0.0
C505 C 0.72643 0.15348 0.31186 0.0
N506 N 0.73782 0.09745 0.0163 0.0
N507 N 0.68414 0.20156 0.34209 0.0
H508 H 0.76138 0.14065 0.46554 0.0
H509 H 0.73618 0.17867 0.49501 0.0
H510 H 0.66336 0.21689 0.3059 0.0
H511 H 0.69181 0.20713 0.43812 0.0
H512 H 0.72855 0.09508 0.92067 0.0
H513 H 0.75412 0.07683 0.04554 0.0
H514 H 0.71736 0.14692 0.84822 0.0
H515 H 0.68491 0.17856 0.88678 0.0
C516 C 0.57403 0.72729 0.09506 0.0
C517 C 0.59251 0.73937 0.20485 0.0
C518 C 0.61213 0.68041 0.25893 0.0
C519 C 0.58312 0.66819 0.18388 0.0
N520 N 0.54596 0.67695 0.9943 0.0
N521 N 0.64673 0.73175 0.31825 0.0
C522 C 0.56819 0.69058 0.08559 0.0
C523 C 0.619 0.7171 0.25539 0.0
N524 N 0.55963 0.75123 1.01064 0.0
N525 N 0.62907 0.65893 0.3464 0.0
H526 H 0.64917 0.75909 0.32294 0.0
H527 H 0.66775 0.71712 0.35537 0.0
H528 H 0.62337 0.63239 0.35692 0.0
H529 H 0.64773 0.66791 0.41298 0.0
H530 H 0.54596 0.74463 0.92555 0.0
H531 H 0.56351 0.77814 0.02486 0.0
H532 H 0.53113 0.69213 0.92929 0.0
H533 H 0.54247 0.64985 0.9858 0.0
C534 C 0.8291 0.40308 0.32427 0.0
C535 C 0.81624 0.431 0.24367 0.0
C536 C 0.85029 0.40709 0.06171 0.0
C537 C 0.87277 0.39125 0.15493 0.0
N538 N 0.87644 0.36019 0.35838 0.0
N539 N 0.8079 0.4525 0.01948 0.0
C540 C 0.85851 0.38307 0.27926 0.0
C541 C 0.82389 0.43027 0.10667 0.0
N542 N 0.81473 0.39798 0.44556 0.0
N543 N 0.85583 0.40315 0.93057 0.0
H544 H 0.78927 0.4713 0.04505 0.0
H545 H 0.81342 0.45167 0.91913 0.0
H546 H 0.87486 0.38615 0.89239 0.0
H547 H 0.87486 0.38615 0.89239 0.0
H548 H 0.82242 0.37801 0.50982 0.0
H549 H 0.79335 0.41305 0.4775 0.0
H550 H 0.86971 0.35462 0.45539 0.0
H551 H 0.89868 0.34694 0.32349 0.0
C552 C 0.99067 0.19922 0.97003 0.0
C553 C 1.0159 0.21121 0.06355 0.0
C554 C 0.04929 0.15571 0.02052 0.0
C555 C 1.02118 0.14124 0.9447 0.0
N556 N 0.96197 0.15016 0.86424 0.0
N557 N 0.06726 0.19664 0.19135 0.0
C558 C 0.99117 0.16342 0.92316 0.0
C559 C 0.04484 0.1884 0.09147 0.0
N560 N 0.96573 0.22244 0.92593 0.0
N561 N 0.081 0.1388 0.02197 0.0
H562 H 0.06508 0.21974 0.24581 0.0
H563 H 0.08621 0.17917 0.22719 0.0
H564 H 0.08597 0.11608 0.96751 0.0
H565 H 0.10335 0.1495 0.06447 0.0
H566 H 0.94703 0.21642 0.85502 0.0
H567 H 0.96572 0.24899 0.95203 0.0
H568 H 0.93766 0.16282 0.86619 0.0
H569 H 0.961 0.12569 0.81933 0.0
C570 C 0.35155 1.02154 0.98524 0.0
C571 C 0.34797 1.02413 0.12445 0.0
C572 C 0.41231 0.02963 0.14111 0.0
C573 C 0.41619 0.02859 1.00052 0.0
N574 N 0.38637 0.02905 0.78918 0.0
N575 N 0.37429 0.04119 0.32878 0.0
C576 C 0.3849 1.02639 0.92312 0.0
C577 C 0.37821 0.0322 0.19941 0.0
N578 N 0.32333 1.01455 0.90795 0.0
N579 N 0.44081 1.02464 0.22098 0.0
H580 H 0.34972 0.0428 0.37352 0.0
H581 H 0.39465 0.0507 0.38673 0.0
H582 H 0.46498 1.0157 0.18671 0.0
H583 H 0.43939 1.02409 0.32332 0.0
H584 H 0.29805 1.01111 0.94452 0.0
H585 H 0.29805 1.01111 0.94452 0.0
H586 H 0.36414 1.02686 0.72976 0.0
H587 H 0.40905 0.03564 0.73834 0.0
C588 C 0.5093 0.36831 0.07016 0.0
C589 C 0.53797 0.34593 0.03609 0.0
C590 C 0.56015 0.3941 0.89172 0.0
C591 C 0.53046 0.41612 0.92033 0.0
N592 N 0.47189 0.41796 1.00993 0.0
N593 N 0.58589 0.33518 0.88828 0.0
C594 C 0.50361 0.40125 1.00145 0.0
C595 C 0.56149 0.3582 0.93738 0.0
N596 N 0.48828 0.35921 0.17303 0.0
N597 N 0.58841 0.4076 0.82764 0.0
H598 H 0.58637 0.30859 0.91401 0.0
H599 H 0.60375 0.34145 0.81495 0.0
H600 H 0.58866 0.43208 0.78256 0.0
H601 H 0.6128 0.39511 0.82545 0.0
H602 H 0.46972 0.37626 0.21363 0.0
H603 H 0.4912 0.33553 0.22386 0.0
H604 H 0.45032 0.40706 0.05706 0.0
H605 H 0.46589 0.44073 0.95689 0.0
C606 C 0.19299 0.5665 1.00244 0.0
C607 C 0.20774 0.53917 0.08269 0.0
C608 C 0.15416 0.50434 0.03515 0.0
C609 C 0.13758 0.53369 0.97153 0.0
N610 N 0.14007 0.59573 0.92375 0.0
N611 N 0.19843 0.48356 0.19064 0.0
C612 C 0.15684 0.56552 0.96228 0.0
C613 C 0.18733 0.50835 0.10223 0.0
N614 N 0.21375 0.59383 0.96498 0.0
N615 N 0.13867 0.47215 0.02915 0.0
H616 H 0.22208 0.48536 0.24142 0.0
H617 H 0.1829 0.46272 0.22137 0.0
H618 H 0.11514 0.46795 0.97956 0.0
H619 H 0.15085 0.4491 0.06179 0.0
H620 H 0.20546 0.61392 0.90217 0.0
H621 H 0.24048 0.59454 0.98665 0.0
H622 H 0.15152 0.62045 0.92848 0.0
H623 H 0.11349 0.59675 0.90038 0.0
C624 C 0.04631 0.86457 0.63112 0.0
C625 C 1.01398 0.84617 0.625 0.0
C626 C 0.98445 0.90013 0.71001 0.0
C627 C 1.01681 0.91817 0.72123 0.0
N628 N 0.07973 0.91512 0.70105 0.0
N629 N 0.95444 0.84405 0.70045 0.0
C630 C 0.04802 0.89935 0.68659 0.0
C631 C 0.98401 0.86321 0.68054 0.0
N632 N 0.07612 0.84989 0.58199 0.0
N633 N 0.95374 0.91859 0.71834 0.0
H634 H 0.95355 0.81718 0.67948 0.0
H635 H 0.9326 0.85385 0.75029 0.0
H636 H 0.953 0.94581 0.72928 0.0
H637 H 0.92937 0.90758 0.69901 0.0
H638 H 0.07719 0.82477 0.54078 0.0
H639 H 0.07719 0.82477 0.54078 0.0
H640 H 0.1032 0.90266 0.67506 0.0
H641 H 0.08236 0.94011 0.74209 0.0
C642 C 0.68797 0.05821 0.65421 0.0
C643 C 0.6971 0.03403 0.55237 0.0
C644 C 0.64355 1.00077 0.60961 0.0
C645 C 0.63148 1.02823 0.69519 0.0
N646 N 0.64609 0.08327 0.80426 0.0
N647 N 0.68026 0.9837 0.42435 0.0
C648 C 0.65488 0.05669 0.71977 0.0
C649 C 0.67414 1.00546 0.52878 0.0
N650 N 0.71026 0.0844 0.68856 0.0
N651 N 0.62682 0.96918 0.61041 0.0
H652 H 0.7023 0.98583 0.36451 0.0
H653 H 0.66219 0.96528 0.39156 0.0
H654 H 0.60625 0.96368 0.67445 0.0
H655 H 0.63607 0.94715 0.55993 0.0
H656 H 0.73556 0.08713 0.65121 0.0
H657 H 0.73556 0.08713 0.65121 0.0
H658 H 0.66235 0.10467 0.82132 0.0
H659 H 0.62288 0.08487 0.85669 0.0
C660 C 0.50068 0.69501 0.62887 0.0
C661 C 0.53315 0.7129 0.61622 0.0
C662 C 0.56342 0.65775 0.68703 0.0
C663 C 0.53104 0.6401 0.70531 0.0
N664 N 0.46832 0.64565 0.72135 0.0
N665 N 0.59416 0.71343 0.67353 0.0
C666 C 0.49951 0.66005 0.68564 0.0
C667 C 0.56391 0.6949 0.6607 0.0
N668 N 0.47106 0.71075 0.58085 0.0
N669 N 0.59394 0.63881 0.68759 0.0
H670 H 0.59509 0.74042 0.65467 0.0
H671 H 0.61689 0.70293 0.71555 0.0
H672 H 0.59456 0.61162 0.69987 0.0
H673 H 0.61806 0.64946 0.66228 0.0
H674 H 0.44722 0.69785 0.57166 0.0
H675 H 0.47104 0.73641 0.5442 0.0
H676 H 0.44472 0.65961 0.72036 0.0
H677 H 0.46666 0.62064 0.76312 0.0
C678 C 0.87698 0.5515 0.51199 0.0
C679 C 0.85275 0.52507 0.54929 0.0
C680 C 0.89563 0.50487 0.71998 0.0
C681 C 0.92007 0.53136 0.68279 0.0
N682 N 0.92671 0.5874 0.57375 0.0
N683 N 0.83822 0.48014 0.7084 0.0
C684 C 0.90851 0.55686 0.58766 0.0
C685 C 0.86162 0.50364 0.66021 0.0
N686 N 0.871 0.5705 0.39991 0.0
N687 N 0.90452 0.47961 0.81013 0.0
H688 H 0.81255 0.47779 0.67392 0.0
H689 H 0.81255 0.47779 0.67392 0.0
H690 H 0.92917 0.47685 0.85226 0.0
H691 H 0.88715 0.46012 0.83938 0.0
H692 H 0.88971 0.5868 0.35774 0.0
H693 H 0.84821 0.56808 0.3441 0.0
H694 H 0.91811 0.60827 0.5151 0.0
H695 H 0.94799 0.59372 0.63345 0.0
loop_
_geom_bond_atom_site_label_1
_geom_bond_atom_site_label_2
_geom_bond_distance
_geom_bond_site_symmetry_2
_ccdc_geom_bond_type
H0 C7 0.929 . S
H1 C10 0.930 . S
H2 C12 0.929 . S
H3 C4 0.969 . S
C4 H3 0.969 . S
C4 O5 1.550 . S
C4 H6 0.973 . S
O5 C4 1.550 . S
O5 C11 1.412 . S
H6 C4 0.973 . S
C7 H0 0.929 . S
C7 C8 1.400 . S
C7 C9 1.364 . S
C8 C7 1.400 . S
C8 C12 1.377 . S
C9 C7 1.364 . S
C9 C10 1.374 . S
C10 H1 0.930 . S
C10 C9 1.374 . S
C10 C11 1.383 . S
C11 O5 1.412 . S
C11 C10 1.383 . S
C11 C12 1.394 . S
C12 H2 0.929 . S
C12 C8 1.377 . S
C12 C11 1.394 . S
H13 C20 0.928 1_655 S
H14 C23 0.931 . S
H15 C25 0.928 1_655 S
H16 C17 0.969 . S
C17 H16 0.969 . S
C17 O18 1.550 1_455 S
C17 H19 0.973 1_455 S
O18 C17 1.550 1_655 S
O18 C24 1.404 1_655 S
H19 C17 0.973 1_655 S
C20 H13 0.928 1_455 S
C20 C21 1.399 . S
C20 C22 1.364 . S
C21 C20 1.399 . S
C21 C25 1.377 . S
C22 C20 1.364 . S
C22 C23 1.374 1_455 S
C23 H14 0.931 . S
C23 C22 1.374 1_655 S
C23 C24 1.382 1_655 S
C24 O18 1.404 1_455 S
C24 C23 1.382 1_455 S
C24 C25 1.394 . S
C25 H15 0.928 1_455 S
C25 C21 1.377 . S
C25 C24 1.394 . S
H26 C33 0.928 1_565 S
H27 C36 0.931 . S
H28 C38 0.929 1_565 S
H29 C30 0.969 . S
C30 H29 0.969 . S
C30 O31 1.550 1_545 S
C30 H32 0.973 1_545 S
O31 C30 1.550 1_565 S
O31 C37 1.404 1_565 S
H32 C30 0.973 1_565 S
C33 H26 0.928 1_545 S
C33 C34 1.399 . S
C33 C35 1.364 . S
C34 C33 1.399 . S
C34 C38 1.377 . S
C35 C33 1.364 . S
C35 C36 1.374 1_545 S
C36 H27 0.931 . S
C36 C35 1.374 1_565 S
C36 C37 1.382 1_565 S
C37 O31 1.404 1_545 S
C37 C36 1.382 1_545 S
C37 C38 1.394 . S
C38 H28 0.929 1_545 S
C38 C34 1.377 . S
C38 C37 1.394 . S
H39 C46 0.929 . S
H40 C49 0.930 . S
H41 C51 0.929 . S
H42 C43 0.969 . S
C43 H42 0.969 . S
C43 O44 1.550 . S
C43 H45 0.973 . S
O44 C43 1.550 . S
O44 C50 1.412 . S
H45 C43 0.973 . S
C46 H39 0.929 . S
C46 C47 1.400 . S
C46 C48 1.364 . S
C47 C46 1.400 . S
C47 C51 1.377 . S
C48 C46 1.364 . S
C48 C49 1.374 . S
C49 H40 0.930 . S
C49 C48 1.374 . S
C49 C50 1.383 . S
C50 O44 1.412 . S
C50 C49 1.383 . S
C50 C51 1.394 . S
C51 H41 0.929 . S
C51 C47 1.377 . S
C51 C50 1.394 . S
H52 C59 0.929 . S
H53 C62 0.930 . S
H54 C64 0.929 . S
H55 C56 0.969 . S
C56 H55 0.969 . S
C56 O57 1.550 . S
C56 H58 0.973 . S
O57 C56 1.550 . S
O57 C63 1.412 . S
H58 C56 0.973 . S
C59 H52 0.929 . S
C59 C60 1.400 1_554 S
C59 C61 1.364 . S
C60 C59 1.400 1_556 S
C60 C64 1.377 . S
C61 C59 1.364 . S
C61 C62 1.374 . S
C62 H53 0.930 . S
C62 C61 1.374 . S
C62 C63 1.383 . S
C63 O57 1.412 . S
C63 C62 1.383 . S
C63 C64 1.394 1_554 S
C64 H54 0.929 . S
C64 C60 1.377 . S
C64 C63 1.394 1_556 S
H65 C72 0.928 1_655 S
H66 C75 0.930 . S
H67 C77 0.928 1_655 S
H68 C69 0.969 . S
C69 H68 0.969 . S
C69 O70 1.550 1_455 S
C69 H71 0.973 1_455 S
O70 C69 1.550 1_655 S
O70 C76 1.412 1_655 S
H71 C69 0.973 1_655 S
C72 H65 0.928 1_455 S
C72 C73 1.400 1_554 S
C72 C74 1.364 . S
C73 C72 1.400 1_556 S
C73 C77 1.377 . S
C74 C72 1.364 . S
C74 C75 1.374 1_455 S
C75 H66 0.930 . S
C75 C74 1.374 1_655 S
C75 C76 1.383 1_655 S
C76 O70 1.412 1_455 S
C76 C75 1.383 1_455 S
C76 C77 1.395 1_554 S
C77 H67 0.928 1_455 S
C77 C73 1.377 . S
C77 C76 1.395 1_556 S
H78 C85 0.928 1_565 S
H79 C88 0.930 . S
H80 C90 0.928 1_565 S
H81 C82 0.969 . S
C82 H81 0.969 . S
C82 O83 1.550 1_545 S
C82 H84 0.973 1_545 S
O83 C82 1.550 1_565 S
O83 C89 1.412 1_565 S
H84 C82 0.973 1_565 S
C85 H78 0.928 1_545 S
C85 C86 1.400 1_554 S
C85 C87 1.364 . S
C86 C85 1.400 1_556 S
C86 C90 1.377 . S
C87 C85 1.364 . S
C87 C88 1.374 1_545 S
C88 H79 0.930 . S
C88 C87 1.374 1_565 S
C88 C89 1.383 1_565 S
C89 O83 1.412 1_545 S
C89 C88 1.383 1_545 S
C89 C90 1.395 1_554 S
C90 H80 0.928 1_545 S
C90 C86 1.377 . S
C90 C89 1.395 1_556 S
H91 C98 0.929 . S
H92 C101 0.930 . S
H93 C103 0.929 . S
H94 C95 0.969 . S
C95 H94 0.969 . S
C95 O96 1.550 . S
C95 H97 0.973 . S
O96 C95 1.550 . S
O96 C102 1.412 . S
H97 C95 0.973 . S
C98 H91 0.929 . S
C98 C99 1.400 1_554 S
C98 C100 1.364 . S
C99 C98 1.400 1_556 S
C99 C103 1.377 . S
C100 C98 1.364 . S
C100 C101 1.374 . S
C101 H92 0.930 . S
C101 C100 1.374 . S
C101 C102 1.383 . S
C102 O96 1.412 . S
C102 C101 1.383 . S
C102 C103 1.394 1_554 S
C103 H93 0.929 . S
C103 C99 1.377 . S
C103 C102 1.394 1_556 S
La104 C106 2.928 1_556 S
La104 O124 2.521 1_556 S
La104 O125 2.628 1_556 S
La104 O126 2.554 . S
La104 O127 2.757 1_565 S
La104 O128 2.470 . S
La104 O133 2.482 1_455 S
La104 O135 2.503 1_565 S
La105 C115 2.928 . S
La105 O127 2.482 1_655 S
La105 O129 2.503 1_545 S
La105 O130 2.521 . S
La105 O131 2.628 . S
La105 O132 2.554 . S
La105 O133 2.757 1_545 S
La105 O134 2.470 . S
C106 La104 2.928 1_554 S
C106 C107 1.503 . S
C106 O124 1.261 . S
C106 O125 1.243 . S
C107 C106 1.503 . S
C107 C108 1.394 . S
C107 C112 1.373 . S
C108 C107 1.394 . S
C108 C109 1.380 . S
C108 H136 0.930 . S
C109 C108 1.380 . S
C109 C110 1.376 . S
C109 H137 0.930 . S
C110 C109 1.376 . S
C110 C111 1.370 . S
C111 C110 1.370 . S
C111 C112 1.396 . S
C111 H138 0.929 . S
C112 C107 1.373 . S
C112 C111 1.396 . S
C112 H139 0.929 1_455 S
C113 O126 1.240 . S
C113 O127 1.289 1_565 S
C114 O128 1.258 1_655 S
C114 O129 1.256 . S
C115 La105 2.928 . S
C115 C116 1.503 . S
C115 O130 1.261 . S
C115 O131 1.243 . S
C116 C115 1.503 . S
C116 C117 1.394 . S
C116 C121 1.373 . S
C117 C116 1.394 . S
C117 C118 1.380 . S
C117 H140 0.930 . S
C118 C117 1.380 . S
C118 C119 1.376 . S
C118 H141 0.930 . S
C119 C118 1.376 . S
C119 C120 1.370 . S
C120 C119 1.370 . S
C120 C121 1.396 . S
C120 H142 0.929 . S
C121 C116 1.373 . S
C121 C120 1.396 . S
C121 H143 0.929 1_655 S
C122 O132 1.240 . S
C122 O133 1.289 1_545 S
C123 O134 1.258 1_455 S
C123 O135 1.256 . S
O124 La104 2.521 1_554 S
O124 C106 1.261 . S
O125 La104 2.628 1_554 S
O125 C106 1.243 . S
O126 La104 2.554 . S
O126 C113 1.240 . S
O127 La104 2.757 1_545 S
O127 La105 2.482 1_455 S
O127 C113 1.289 1_545 S
O128 La104 2.470 . S
O128 C114 1.258 1_455 S
O129 La105 2.503 1_565 S
O129 C114 1.256 . S
O130 La105 2.521 . S
O130 C115 1.261 . S
O131 La105 2.628 . S
O131 C115 1.243 . S
O132 La105 2.554 . S
O132 C122 1.240 . S
O133 La104 2.482 1_655 S
O133 La105 2.757 1_565 S
O133 C122 1.289 1_565 S
O134 La105 2.470 . S
O134 C123 1.258 1_655 S
O135 La104 2.503 1_545 S
O135 C123 1.256 . S
H136 C108 0.930 . S
H137 C109 0.930 . S
H138 C111 0.929 . S
H139 C112 0.929 1_655 S
H140 C117 0.930 . S
H141 C118 0.930 . S
H142 C120 0.929 . S
H143 C121 0.929 1_455 S
La144 C146 2.928 1_556 S
La144 O164 2.521 1_556 S
La144 O165 2.628 1_556 S
La144 O166 2.554 . S
La144 O167 2.757 . S
La144 O168 2.470 . S
La144 O173 2.482 1_545 S
La144 O175 2.503 . S
La145 C155 2.928 . S
La145 O167 2.482 1_565 S
La145 O169 2.503 . S
La145 O170 2.521 . S
La145 O171 2.628 . S
La145 O172 2.554 . S
La145 O173 2.757 . S
La145 O174 2.470 . S
C146 La144 2.928 1_554 S
C146 C147 1.503 . S
C146 O164 1.261 . S
C146 O165 1.243 . S
C147 C146 1.503 . S
C147 C148 1.394 . S
C147 C152 1.373 . S
C148 C147 1.394 . S
C148 C149 1.380 . S
C148 H176 0.930 . S
C149 C148 1.380 . S
C149 C150 1.376 . S
C149 H177 0.930 . S
C150 C149 1.376 . S
C150 C151 1.370 . S
C151 C150 1.370 . S
C151 C152 1.396 . S
C151 H178 0.949 . S
C152 C147 1.373 . S
C152 C151 1.396 . S
C152 H179 0.929 1_545 S
C153 O166 1.240 . S
C153 O167 1.289 . S
C154 O168 1.258 1_565 S
C154 O169 1.256 . S
C155 La145 2.928 . S
C155 C156 1.503 . S
C155 O170 1.261 . S
C155 O171 1.243 . S
C156 C155 1.503 . S
C156 C157 1.394 . S
C156 C161 1.373 . S
C157 C156 1.394 . S
C157 C158 1.380 . S
C157 H180 0.930 . S
C158 C157 1.380 . S
C158 C159 1.376 . S
C158 H181 0.930 . S
C159 C158 1.376 . S
C159 C160 1.370 . S
C160 C159 1.370 . S
C160 C161 1.396 . S
C160 H182 0.942 . S
C161 C156 1.373 . S
C161 C160 1.396 . S
C161 H183 0.929 1_565 S
C162 O172 1.240 . S
C162 O173 1.289 . S
C163 O174 1.258 1_545 S
C163 O175 1.256 . S
O164 La144 2.521 1_554 S
O164 C146 1.261 . S
O165 La144 2.628 1_554 S
O165 C146 1.243 . S
O166 La144 2.554 . S
O166 C153 1.240 . S
O167 La144 2.757 . S
O167 La145 2.482 1_545 S
O167 C153 1.289 . S
O168 La144 2.470 . S
O168 C154 1.258 1_545 S
O169 La145 2.503 . S
O169 C154 1.256 . S
O170 La145 2.521 . S
O170 C155 1.261 . S
O171 La145 2.628 . S
O171 C155 1.243 . S
O172 La145 2.554 . S
O172 C162 1.240 . S
O173 La144 2.482 1_565 S
O173 La145 2.757 . S
O173 C162 1.289 . S
O174 La145 2.470 . S
O174 C163 1.258 1_565 S
O175 La144 2.503 . S
O175 C163 1.256 . S
H176 C148 0.930 . S
H177 C149 0.930 . S
H178 C151 0.949 . S
H179 C152 0.929 1_565 S
H180 C157 0.930 . S
H181 C158 0.930 . S
H182 C160 0.942 . S
H183 C161 0.929 1_545 S
La184 C186 2.928 1_556 S
La184 O204 2.521 1_556 S
La184 O205 2.628 1_556 S
La184 O206 2.554 . S
La184 O207 2.757 . S
La184 O208 2.470 . S
La184 O213 2.482 . S
La184 O215 2.503 . S
La185 C195 2.928 . S
La185 O207 2.482 . S
La185 O209 2.503 . S
La185 O210 2.521 . S
La185 O211 2.628 . S
La185 O212 2.554 . S
La185 O213 2.757 . S
La185 O214 2.470 . S
C186 La184 2.928 1_554 S
C186 C187 1.503 . S
C186 O204 1.261 . S
C186 O205 1.243 . S
C187 C186 1.503 . S
C187 C188 1.394 . S
C187 C192 1.373 . S
C188 C187 1.394 . S
C188 C189 1.380 . S
C188 H216 0.930 . S
C189 C188 1.380 . S
C189 C190 1.376 . S
C189 H217 0.930 . S
C190 C189 1.376 . S
C190 C191 1.370 . S
C191 C190 1.370 . S
C191 C192 1.396 . S
C191 H218 0.929 . S
C192 C187 1.373 . S
C192 C191 1.396 . S
C192 H219 0.929 . S
C193 O206 1.240 . S
C193 O207 1.289 . S
C194 O208 1.258 . S
C194 O209 1.256 . S
C195 La185 2.928 . S
C195 C196 1.503 . S
C195 O210 1.261 . S
C195 O211 1.243 . S
C196 C195 1.503 . S
C196 C197 1.394 . S
C196 C201 1.373 . S
C197 C196 1.394 . S
C197 C198 1.380 . S
C197 H220 0.930 . S
C198 C197 1.380 . S
C198 C199 1.376 . S
C198 H221 0.930 . S
C199 C198 1.376 . S
C199 C200 1.370 . S
C200 C199 1.370 . S
C200 C201 1.396 . S
C200 H222 0.929 . S
C201 C196 1.373 . S
C201 C200 1.396 . S
C201 H223 0.929 . S
C202 O212 1.240 . S
C202 O213 1.289 . S
C203 O214 1.258 . S
C203 O215 1.256 . S
O204 La184 2.521 1_554 S
O204 C186 1.261 . S
O205 La184 2.628 1_554 S
O205 C186 1.243 . S
O206 La184 2.554 . S
O206 C193 1.240 . S
O207 La184 2.757 . S
O207 La185 2.482 . S
O207 C193 1.289 . S
O208 La184 2.470 . S
O208 C194 1.258 . S
O209 La185 2.503 . S
O209 C194 1.256 . S
O210 La185 2.521 . S
O210 C195 1.261 . S
O211 La185 2.628 . S
O211 C195 1.243 . S
O212 La185 2.554 . S
O212 C202 1.240 . S
O213 La184 2.482 . S
O213 La185 2.757 . S
O213 C202 1.289 . S
O214 La185 2.470 . S
O214 C203 1.258 . S
O215 La184 2.503 . S
O215 C203 1.256 . S
H216 C188 0.930 . S
H217 C189 0.930 . S
H218 C191 0.929 . S
H219 C192 0.929 . S
H220 C197 0.930 . S
H221 C198 0.930 . S
H222 C200 0.929 . S
H223 C201 0.929 . S
La224 C226 2.928 1_556 S
La224 O244 2.521 1_556 S
La224 O245 2.628 1_556 S
La224 O246 2.554 . S
La224 O247 2.757 1_655 S
La224 O248 2.470 . S
La224 O253 2.482 . S
La224 O255 2.503 1_655 S
La225 C235 2.928 . S
La225 O247 2.482 . S
La225 O249 2.503 1_455 S
La225 O250 2.521 . S
La225 O251 2.628 . S
La225 O252 2.554 . S
La225 O253 2.757 1_455 S
La225 O254 2.470 . S
C226 La224 2.928 1_554 S
C226 C227 1.503 . S
C226 O244 1.261 . S
C226 O245 1.243 . S
C227 C226 1.503 . S
C227 C228 1.394 . S
C227 C232 1.373 . S
C228 C227 1.394 . S
C228 C229 1.380 . S
C228 H256 0.930 . S
C229 C228 1.380 . S
C229 C230 1.376 . S
C229 H257 0.930 . S
C230 C229 1.376 . S
C230 C231 1.370 . S
C231 C230 1.370 . S
C231 C232 1.396 . S
C231 H258 0.929 . S
C232 C227 1.373 . S
C232 C231 1.396 . S
C232 H259 0.929 . S
C233 O246 1.247 . S
C233 O247 1.285 1_655 S
C234 O248 1.258 . S
C234 O249 1.256 . S
C235 La225 2.928 . S
C235 C236 1.503 . S
C235 O250 1.261 . S
C235 O251 1.243 . S
C236 C235 1.503 . S
C236 C237 1.394 . S
C236 C241 1.373 . S
C237 C236 1.394 . S
C237 C238 1.380 . S
C237 H260 0.930 . S
C238 C237 1.380 . S
C238 C239 1.376 . S
C238 H261 0.930 . S
C239 C238 1.376 . S
C239 C240 1.370 . S
C240 C239 1.370 . S
C240 C241 1.396 . S
C240 H262 0.929 . S
C241 C236 1.373 . S
C241 C240 1.396 . S
C241 H263 0.929 . S
C242 O252 1.251 . S
C242 O253 1.283 1_455 S
C243 O254 1.258 . S
C243 O255 1.256 . S
O244 La224 2.521 1_554 S
O244 C226 1.261 . S
O245 La224 2.628 1_554 S
O245 C226 1.243 . S
O246 La224 2.554 . S
O246 C233 1.247 . S
O247 La224 2.757 1_455 S
O247 La225 2.482 . S
O247 C233 1.285 1_455 S
O248 La224 2.470 . S
O248 C234 1.258 . S
O249 La225 2.503 1_655 S
O249 C234 1.256 . S
O250 La225 2.521 . S
O250 C235 1.261 . S
O251 La225 2.628 . S
O251 C235 1.243 . S
O252 La225 2.554 . S
O252 C242 1.251 . S
O253 La224 2.482 . S
O253 La225 2.757 1_655 S
O253 C242 1.283 1_655 S
O254 La225 2.470 . S
O254 C243 1.258 . S
O255 La224 2.503 1_455 S
O255 C243 1.256 . S
H256 C228 0.930 . S
H257 C229 0.930 . S
H258 C231 0.929 . S
H259 C232 0.929 . S
H260 C237 0.930 . S
H261 C238 0.930 . S
H262 C240 0.929 . S
H263 C241 0.929 . S
C264 C265 1.358 1_565 S
C264 C270 1.379 . S
C264 N272 1.356 . S
C265 C264 1.358 1_545 S
C265 C271 1.369 . S
C266 C267 1.379 . S
C266 C271 1.379 . S
C266 N273 1.356 . S
C267 C266 1.379 . S
C267 C270 1.347 1_545 S
N268 C270 1.356 . S
N268 H280 0.984 . S
N268 H281 0.985 . S
N269 C271 1.356 . S
N269 H274 0.984 . S
N269 H275 0.985 . S
C270 C264 1.379 . S
C270 C267 1.347 1_565 S
C270 N268 1.356 . S
C271 C265 1.369 . S
C271 C266 1.379 . S
C271 N269 1.356 . S
N272 C264 1.356 . S
N272 H278 0.984 . S
N272 H279 0.984 . S
N273 C266 1.356 . S
N273 H276 0.984 . S
N273 H277 0.985 . S
H274 N269 0.984 . S
H275 N269 0.985 . S
H276 N273 0.984 . S
H277 N273 0.985 . S
H278 N272 0.984 . S
H279 N272 0.984 . S
H280 N268 0.984 . S
H281 N268 0.985 . S
C282 C283 1.363 . S
C282 C288 1.379 . S
C282 N290 1.356 . S
C283 C282 1.363 . S
C283 C289 1.363 . S
C284 C285 1.363 . S
C284 C289 1.379 . S
C284 N291 1.356 . S
C285 C284 1.363 . S
C285 C288 1.363 . S
N286 C288 1.356 . S
N286 H298 0.984 . S
N286 H299 0.985 . S
N287 C289 1.356 . S
N287 H292 0.984 . S
N287 H293 0.985 . S
C288 C282 1.379 . S
C288 C285 1.363 . S
C288 N286 1.356 . S
C289 C283 1.363 . S
C289 C284 1.379 . S
C289 N287 1.356 . S
N290 C282 1.356 . S
N290 H296 0.984 . S
N290 H297 0.984 . S
N291 C284 1.356 . S
N291 H294 0.984 . S
N291 H295 0.985 . S
H292 N287 0.984 . S
H293 N287 0.985 . S
H294 N291 0.984 . S
H295 N291 0.985 . S
H296 N290 0.984 . S
H297 N290 0.984 . S
H298 N286 0.984 . S
H299 N286 0.985 . S
C300 C301 1.363 . S
C300 C306 1.379 . S
C300 N308 1.356 . S
C301 C300 1.363 . S
C301 C307 1.363 . S
C302 C303 1.363 . S
C302 C307 1.379 . S
C302 N309 1.356 . S
C303 C302 1.363 . S
C303 C306 1.363 . S
N304 C306 1.356 . S
N304 H316 0.984 . S
N304 H317 0.985 . S
N305 C307 1.356 . S
N305 H310 0.984 . S
N305 H311 0.985 . S
C306 C300 1.379 . S
C306 C303 1.363 . S
C306 N304 1.356 . S
C307 C301 1.363 . S
C307 C302 1.379 . S
C307 N305 1.356 . S
N308 C300 1.356 . S
N308 H314 0.984 . S
N308 H315 0.984 . S
N309 C302 1.356 . S
N309 H312 0.984 . S
N309 H313 0.985 . S
H310 N305 0.984 . S
H311 N305 0.985 . S
H312 N309 0.984 . S
H313 N309 0.985 . S
H314 N308 0.984 . S
H315 N308 0.984 . S
H316 N304 0.984 . S
H317 N304 0.985 . S
C318 C319 1.368 . S
C318 C324 1.379 . S
C318 N326 1.356 . S
C319 C318 1.368 . S
C319 C325 1.359 1_455 S
C320 C321 1.363 1_655 S
C320 C325 1.379 . S
C320 N327 1.356 . S
C321 C320 1.363 1_455 S
C321 C324 1.363 . S
N322 C324 1.356 . S
N322 H334 0.984 . S
N322 H335 0.985 . S
N323 C325 1.356 . S
N323 H328 0.984 . S
N323 H329 0.985 . S
C324 C318 1.379 . S
C324 C321 1.363 . S
C324 N322 1.356 . S
C325 C319 1.359 1_655 S
C325 C320 1.379 . S
C325 N323 1.356 . S
N326 C318 1.356 . S
N326 H332 0.984 . S
N326 H333 0.984 . S
N327 C320 1.356 . S
N327 H330 0.984 . S
N327 H331 0.985 . S
H328 N323 0.984 . S
H329 N323 0.985 . S
H330 N327 0.984 . S
H331 N327 0.985 . S
H332 N326 0.984 . S
H333 N326 0.984 . S
H334 N322 0.984 . S
H335 N322 0.985 . S
C336 C337 1.363 1_545 S
C336 C342 1.379 . S
C336 N344 1.356 . S
C337 C336 1.363 1_565 S
C337 C343 1.363 . S
C338 C339 1.374 . S
C338 C343 1.379 . S
C338 N345 1.356 . S
C339 C338 1.374 . S
C339 C342 1.352 1_565 S
N340 C342 1.356 . S
N340 H352 0.984 . S
N340 H353 0.985 1_554 S
N341 C343 1.356 . S
N341 H346 0.984 . S
N341 H347 0.985 . S
C342 C336 1.379 . S
C342 C339 1.352 1_545 S
C342 N340 1.356 . S
C343 C337 1.363 . S
C343 C338 1.379 . S
C343 N341 1.356 . S
N344 C336 1.356 . S
N344 H350 0.984 . S
N344 H351 0.984 . S
N345 C338 1.356 . S
N345 H348 0.984 . S
N345 H349 0.985 . S
H346 N341 0.984 . S
H347 N341 0.985 . S
H348 N345 0.984 . S
H349 N345 0.985 . S
H350 N344 0.984 . S
H351 N344 0.984 . S
H352 N340 0.984 . S
H353 N340 0.985 1_556 S
C354 C355 1.363 . S
C354 C360 1.379 . S
C354 N362 1.356 . S
C355 C354 1.363 . S
C355 C361 1.363 . S
C356 C357 1.363 . S
C356 C361 1.379 . S
C356 N363 1.356 . S
C357 C356 1.363 . S
C357 C360 1.363 . S
N358 C360 1.356 . S
N358 H370 0.984 1_554 S
N358 H371 0.985 1_554 S
N359 C361 1.356 . S
N359 H364 0.984 . S
N359 H365 0.985 . S
C360 C354 1.379 . S
C360 C357 1.363 . S
C360 N358 1.356 . S
C361 C355 1.363 . S
C361 C356 1.379 . S
C361 N359 1.356 . S
N362 C354 1.356 . S
N362 H368 0.984 . S
N362 H369 0.984 . S
N363 C356 1.356 . S
N363 H366 0.984 . S
N363 H367 0.985 . S
H364 N359 0.984 . S
H365 N359 0.985 . S
H366 N363 0.984 . S
H367 N363 0.985 . S
H368 N362 0.984 . S
H369 N362 0.984 . S
H370 N358 0.984 1_556 S
H371 N358 0.985 1_556 S
C372 C373 1.363 . S
C372 C378 1.379 . S
C372 N380 1.356 . S
C373 C372 1.363 . S
C373 C379 1.363 . S
C374 C375 1.363 . S
C374 C379 1.379 . S
C374 N381 1.356 . S
C375 C374 1.363 . S
C375 C378 1.363 . S
N376 C378 1.356 . S
N376 H388 0.984 . S
N376 H389 0.985 1_554 S
N377 C379 1.356 . S
N377 H382 0.984 . S
N377 H383 0.985 . S
C378 C372 1.379 . S
C378 C375 1.363 . S
C378 N376 1.356 . S
C379 C373 1.363 . S
C379 C374 1.379 . S
C379 N377 1.356 . S
N380 C372 1.356 . S
N380 H386 0.984 . S
N380 H387 0.984 . S
N381 C374 1.356 . S
N381 H384 0.984 . S
N381 H385 0.985 . S
H382 N377 0.984 . S
H383 N377 0.985 . S
H384 N381 0.984 . S
H385 N381 0.985 . S
H386 N380 0.984 . S
H387 N380 0.984 . S
H388 N376 0.984 . S
H389 N376 0.985 1_556 S
C390 C391 1.363 . S
C390 C396 1.378 . S
C390 N398 1.356 1_655 S
C391 C390 1.363 . S
C391 C397 1.364 . S
C392 C393 1.363 . S
C392 C397 1.379 . S
C392 N399 1.356 1_554 S
C393 C392 1.363 . S
C393 C396 1.364 . S
N394 C396 1.356 . S
N394 H406 0.984 1_655 S
N394 H407 0.984 . S
N395 C397 1.356 . S
N395 H400 0.984 . S
N395 H401 0.985 . S
C396 C390 1.378 . S
C396 C393 1.364 . S
C396 N394 1.356 . S
C397 C391 1.364 . S
C397 C392 1.379 . S
C397 N395 1.356 . S
N398 C390 1.356 1_455 S
N398 H404 0.984 . S
N398 H405 0.984 . S
N399 C392 1.356 1_556 S
N399 H402 0.984 . S
N399 H403 0.985 . S
H400 N395 0.984 . S
H401 N395 0.985 . S
H402 N399 0.984 . S
H403 N399 0.985 . S
H404 N398 0.984 . S
H405 N398 0.984 . S
H406 N394 0.984 1_455 S
H407 N394 0.984 . S
C408 C409 1.365 . S
C408 C414 1.397 . S
C408 N416 1.335 1_655 S
C409 C408 1.365 . S
C409 C415 1.363 . S
C410 C411 1.363 . S
C410 C415 1.379 . S
C410 N417 1.356 . S
C411 C410 1.363 . S
C411 C414 1.363 . S
N412 C414 1.356 . S
N412 H424 0.984 . S
N412 H425 0.985 . S
N413 C415 1.356 . S
N413 H418 0.984 . S
N413 H419 0.985 1_554 S
C414 C408 1.397 . S
C414 C411 1.363 . S
C414 N412 1.356 . S
C415 C409 1.363 . S
C415 C410 1.379 . S
C415 N413 1.356 . S
N416 C408 1.335 1_455 S
N416 H422 0.984 . S
N416 H423 0.984 . S
N417 C410 1.356 . S
N417 H420 0.984 . S
N417 H421 0.985 . S
H418 N413 0.984 . S
H419 N413 0.985 1_556 S
H420 N417 0.984 . S
H421 N417 0.985 . S
H422 N416 0.984 . S
H423 N416 0.984 . S
H424 N412 0.984 . S
H425 N412 0.985 . S
C426 C427 1.363 . S
C426 C432 1.379 . S
C426 N434 1.356 . S
C427 C426 1.363 . S
C427 C433 1.363 1_565 S
C428 C429 1.363 . S
C428 C433 1.379 1_565 S
C428 N435 1.356 . S
C429 C428 1.363 . S
C429 C432 1.363 . S
N430 C432 1.356 . S
N430 H442 0.984 . S
N430 H443 0.985 . S
N431 C433 1.356 . S
N431 H436 0.984 . S
N431 H437 0.985 . S
C432 C426 1.379 . S
C432 C429 1.363 . S
C432 N430 1.356 . S
C433 C427 1.363 1_545 S
C433 C428 1.379 1_545 S
C433 N431 1.356 . S
N434 C426 1.356 . S
N434 H440 0.984 . S
N434 H441 0.984 . S
N435 C428 1.356 . S
N435 H438 0.984 . S
N435 H439 0.985 . S
H436 N431 0.984 . S
H437 N431 0.985 . S
H438 N435 0.984 . S
H439 N435 0.985 . S
H440 N434 0.984 . S
H441 N434 0.984 . S
H442 N430 0.984 . S
H443 N430 0.985 . S
C444 C445 1.363 . S
C444 C450 1.379 . S
C444 N452 1.356 . S
C445 C444 1.363 . S
C445 C451 1.363 . S
C446 C447 1.363 . S
C446 C451 1.379 . S
C446 N453 1.356 . S
C447 C446 1.363 . S
C447 C450 1.363 . S
N448 C450 1.356 . S
N448 H460 0.984 . S
N448 H461 0.985 . S
N449 C451 1.356 . S
N449 H454 0.984 . S
N449 H455 0.985 . S
C450 C444 1.379 . S
C450 C447 1.363 . S
C450 N448 1.356 . S
C451 C445 1.363 . S
C451 C446 1.379 . S
C451 N449 1.356 . S
N452 C444 1.356 . S
N452 H458 0.984 . S
N452 H459 0.984 . S
N453 C446 1.356 . S
N453 H456 0.984 . S
N453 H457 0.985 . S
H454 N449 0.984 . S
H455 N449 0.985 . S
H456 N453 0.984 . S
H457 N453 0.985 . S
H458 N452 0.984 . S
H459 N452 0.984 . S
H460 N448 0.984 . S
H461 N448 0.985 . S
C462 C463 1.363 . S
C462 C468 1.379 . S
C462 N470 1.356 . S
C463 C462 1.363 . S
C463 C469 1.363 . S
C464 C465 1.363 . S
C464 C469 1.379 . S
C464 N471 1.356 . S
C465 C464 1.363 . S
C465 C468 1.363 . S
N466 C468 1.356 . S
N466 H478 0.984 . S
N466 H479 0.985 . S
N467 C469 1.356 . S
N467 H472 0.984 . S
N467 H473 0.985 . S
C468 C462 1.379 . S
C468 C465 1.363 . S
C468 N466 1.356 . S
C469 C463 1.363 . S
C469 C464 1.379 . S
C469 N467 1.356 . S
N470 C462 1.356 . S
N470 H476 0.984 . S
N470 H477 0.984 . S
N471 C464 1.356 . S
N471 H474 0.984 . S
N471 H475 0.985 . S
H472 N467 0.984 . S
H473 N467 0.985 . S
H474 N471 0.984 . S
H475 N471 0.985 . S
H476 N470 0.984 . S
H477 N470 0.984 . S
H478 N466 0.984 . S
H479 N466 0.985 . S
C480 C481 1.363 . S
C480 C486 1.379 . S
C480 N488 1.356 1_455 S
C481 C480 1.363 . S
C481 C487 1.363 . S
C482 C483 1.363 . S
C482 C487 1.379 . S
C482 N489 1.356 . S
C483 C482 1.363 . S
C483 C486 1.363 . S
N484 C486 1.356 . S
N484 H496 0.984 . S
N484 H497 0.985 . S
N485 C487 1.356 . S
N485 H490 0.984 . S
N485 H491 0.985 . S
C486 C480 1.379 . S
C486 C483 1.363 . S
C486 N484 1.356 . S
C487 C481 1.363 . S
C487 C482 1.379 . S
C487 N485 1.356 . S
N488 C480 1.356 1_655 S
N488 H494 0.984 . S
N488 H495 0.984 . S
N489 C482 1.356 . S
N489 H492 0.984 . S
N489 H493 0.985 . S
H490 N485 0.984 . S
H491 N485 0.985 . S
H492 N489 0.984 . S
H493 N489 0.985 . S
H494 N488 0.984 . S
H495 N488 0.984 . S
H496 N484 0.984 . S
H497 N484 0.985 . S
C498 C499 1.363 . S
C498 C504 1.379 . S
C498 N506 1.356 1_545 S
C499 C498 1.363 . S
C499 C505 1.363 . S
C500 C501 1.363 . S
C500 C505 1.379 . S
C500 N507 1.356 . S
C501 C500 1.363 . S
C501 C504 1.363 . S
N502 C504 1.356 . S
N502 H514 0.984 . S
N502 H515 0.985 . S
N503 C505 1.356 . S
N503 H508 0.984 1_545 S
N503 H509 0.985 . S
C504 C498 1.379 . S
C504 C501 1.363 . S
C504 N502 1.356 . S
C505 C499 1.363 . S
C505 C500 1.379 . S
C505 N503 1.356 . S
N506 C498 1.356 1_565 S
N506 H512 0.984 . S
N506 H513 0.984 . S
N507 C500 1.356 . S
N507 H510 0.984 . S
N507 H511 0.985 . S
H508 N503 0.984 1_565 S
H509 N503 0.985 . S
H510 N507 0.984 . S
H511 N507 0.985 . S
H512 N506 0.984 . S
H513 N506 0.984 . S
H514 N502 0.984 . S
H515 N502 0.985 . S
C516 C517 1.363 . S
C516 C522 1.379 . S
C516 N524 1.356 . S
C517 C516 1.363 . S
C517 C523 1.363 . S
C518 C519 1.363 . S
C518 C523 1.379 . S
C518 N525 1.356 . S
C519 C518 1.363 . S
C519 C522 1.363 . S
N520 C522 1.356 . S
N520 H532 0.984 . S
N520 H533 0.985 . S
N521 C523 1.356 . S
N521 H526 0.984 . S
N521 H527 0.985 . S
C522 C516 1.379 . S
C522 C519 1.363 . S
C522 N520 1.356 . S
C523 C517 1.363 . S
C523 C518 1.379 . S
C523 N521 1.356 . S
N524 C516 1.356 . S
N524 H530 0.984 . S
N524 H531 0.984 . S
N525 C518 1.356 . S
N525 H528 0.984 . S
N525 H529 0.985 . S
H526 N521 0.984 . S
H527 N521 0.985 . S
H528 N525 0.984 . S
H529 N525 0.985 . S
H530 N524 0.984 . S
H531 N524 0.984 . S
H532 N520 0.984 . S
H533 N520 0.985 . S
C534 C535 1.363 . S
C534 C540 1.379 . S
C534 N542 1.356 . S
C535 C534 1.363 . S
C535 C541 1.363 . S
C536 C537 1.363 . S
C536 C541 1.379 . S
C536 N543 1.356 . S
C537 C536 1.363 . S
C537 C540 1.363 . S
N538 C540 1.356 . S
N538 H550 0.984 . S
N538 H551 0.985 . S
N539 C541 1.356 . S
N539 H544 0.984 . S
N539 H545 0.985 . S
C540 C534 1.379 . S
C540 C537 1.363 . S
C540 N538 1.356 . S
C541 C535 1.363 . S
C541 C536 1.379 . S
C541 N539 1.356 . S
N542 C534 1.356 . S
N542 H548 0.984 . S
N542 H549 0.984 . S
N543 C536 1.356 . S
N543 H546 0.984 . S
N543 H547 0.985 . S
H544 N539 0.984 . S
H545 N539 0.985 . S
H546 N543 0.984 . S
H547 N543 0.985 . S
H548 N542 0.984 . S
H549 N542 0.984 . S
H550 N538 0.984 . S
H551 N538 0.985 . S
C552 C553 1.363 1_655 S
C552 C558 1.379 . S
C552 N560 1.356 . S
C553 C552 1.363 1_455 S
C553 C559 1.363 . S
C554 C555 1.363 . S
C554 C559 1.379 . S
C554 N561 1.356 1_556 S
C555 C554 1.363 . S
C555 C558 1.363 1_455 S
N556 C558 1.356 . S
N556 H568 0.984 . S
N556 H569 0.985 . S
N557 C559 1.356 1_554 S
N557 H562 0.984 1_554 S
N557 H563 0.985 . S
C558 C552 1.379 . S
C558 C555 1.363 1_655 S
C558 N556 1.356 . S
C559 C553 1.363 . S
C559 C554 1.379 . S
C559 N557 1.356 1_556 S
N560 C552 1.356 . S
N560 H566 0.984 . S
N560 H567 0.984 . S
N561 C554 1.356 1_554 S
N561 H564 0.984 . S
N561 H565 0.985 . S
H562 N557 0.984 1_556 S
H563 N557 0.985 . S
H564 N561 0.984 . S
H565 N561 0.985 . S
H566 N560 0.984 . S
H567 N560 0.984 . S
H568 N556 0.984 . S
H569 N556 0.985 . S
C570 C571 1.366 . S
C570 C576 1.381 . S
C570 N578 1.351 1_545 S
C571 C570 1.366 . S
C571 C577 1.363 . S
C572 C573 1.363 . S
C572 C577 1.379 . S
C572 N579 1.356 1_556 S
C573 C572 1.363 . S
C573 C576 1.363 . S
N574 C576 1.356 . S
N574 H586 0.984 1_545 S
N574 H587 0.985 . S
N575 C577 1.356 1_554 S
N575 H580 0.984 . S
N575 H581 0.985 . S
C576 C570 1.381 . S
C576 C573 1.363 . S
C576 N574 1.356 . S
C577 C571 1.363 . S
C577 C572 1.379 . S
C577 N575 1.356 1_556 S
N578 C570 1.351 1_565 S
N578 H584 0.984 . S
N578 H585 0.984 . S
N579 C572 1.356 1_554 S
N579 H582 0.984 . S
N579 H583 0.985 . S
H580 N575 0.984 . S
H581 N575 0.985 . S
H582 N579 0.984 . S
H583 N579 0.985 . S
H584 N578 0.984 . S
H585 N578 0.984 . S
H586 N574 0.984 1_565 S
H587 N574 0.985 . S
C588 C589 1.363 . S
C588 C594 1.379 . S
C588 N596 1.356 1_556 S
C589 C588 1.363 . S
C589 C595 1.363 . S
C590 C591 1.363 . S
C590 C595 1.379 . S
C590 N597 1.356 . S
C591 C590 1.363 . S
C591 C594 1.363 . S
N592 C594 1.356 1_554 S
N592 H604 0.984 . S
N592 H605 0.985 . S
N593 C595 1.356 . S
N593 H598 0.984 . S
N593 H599 0.985 . S
C594 C588 1.379 . S
C594 C591 1.363 . S
C594 N592 1.356 1_556 S
C595 C589 1.363 . S
C595 C590 1.379 . S
C595 N593 1.356 . S
N596 C588 1.356 1_554 S
N596 H602 0.984 . S
N596 H603 0.984 1_554 S
N597 C590 1.356 . S
N597 H600 0.984 . S
N597 H601 0.985 . S
H598 N593 0.984 . S
H599 N593 0.985 . S
H600 N597 0.984 . S
H601 N597 0.985 . S
H602 N596 0.984 . S
H603 N596 0.984 1_556 S
H604 N592 0.984 . S
H605 N592 0.985 . S
C606 C607 1.363 . S
C606 C612 1.379 . S
C606 N614 1.356 . S
C607 C606 1.363 . S
C607 C613 1.363 . S
C608 C609 1.363 . S
C608 C613 1.379 . S
C608 N615 1.356 . S
C609 C608 1.363 . S
C609 C612 1.363 . S
N610 C612 1.356 . S
N610 H622 0.984 . S
N610 H623 0.985 . S
N611 C613 1.356 . S
N611 H616 0.984 . S
N611 H617 0.985 . S
C612 C606 1.379 . S
C612 C609 1.363 . S
C612 N610 1.356 . S
C613 C607 1.363 . S
C613 C608 1.379 . S
C613 N611 1.356 . S
N614 C606 1.356 . S
N614 H620 0.984 . S
N614 H621 0.984 . S
N615 C608 1.356 . S
N615 H618 0.984 . S
N615 H619 0.985 . S
H616 N611 0.984 . S
H617 N611 0.985 . S
H618 N615 0.984 . S
H619 N615 0.985 . S
H620 N614 0.984 . S
H621 N614 0.984 . S
H622 N610 0.984 . S
H623 N610 0.985 . S
C624 C625 1.363 1_455 S
C624 C630 1.379 . S
C624 N632 1.356 . S
C625 C624 1.363 1_655 S
C625 C631 1.363 . S
C626 C627 1.363 . S
C626 C631 1.379 . S
C626 N633 1.356 . S
C627 C626 1.363 . S
C627 C630 1.363 1_655 S
N628 C630 1.356 . S
N628 H640 0.984 . S
N628 H641 0.985 . S
N629 C631 1.356 . S
N629 H634 0.984 . S
N629 H635 0.985 1_556 S
C630 C624 1.379 . S
C630 C627 1.363 1_455 S
C630 N628 1.356 . S
C631 C625 1.363 . S
C631 C626 1.379 . S
C631 N629 1.356 . S
N632 C624 1.356 . S
N632 H638 0.984 . S
N632 H639 0.984 . S
N633 C626 1.356 . S
N633 H636 0.984 . S
N633 H637 0.985 . S
H634 N629 0.984 . S
H635 N629 0.985 1_554 S
H636 N633 0.984 . S
H637 N633 0.985 . S
H638 N632 0.984 . S
H639 N632 0.984 . S
H640 N628 0.984 . S
H641 N628 0.985 . S
C642 C643 1.363 1_545 S
C642 C648 1.379 . S
C642 N650 1.356 . S
C643 C642 1.363 1_565 S
C643 C649 1.363 . S
C644 C645 1.363 . S
C644 C649 1.379 . S
C644 N651 1.356 . S
C645 C644 1.363 . S
C645 C648 1.363 1_565 S
N646 C648 1.356 . S
N646 H658 0.984 . S
N646 H659 0.985 . S
N647 C649 1.356 . S
N647 H652 0.984 . S
N647 H653 0.985 . S
C648 C642 1.379 . S
C648 C645 1.363 1_545 S
C648 N646 1.356 . S
C649 C643 1.363 . S
C649 C644 1.379 . S
C649 N647 1.356 . S
N650 C642 1.356 . S
N650 H656 0.984 . S
N650 H657 0.984 . S
N651 C644 1.356 . S
N651 H654 0.984 . S
N651 H655 0.985 . S
H652 N647 0.984 . S
H653 N647 0.985 . S
H654 N651 0.984 . S
H655 N651 0.985 . S
H656 N650 0.984 . S
H657 N650 0.984 . S
H658 N646 0.984 . S
H659 N646 0.985 . S
C660 C661 1.363 . S
C660 C666 1.379 . S
C660 N668 1.356 . S
C661 C660 1.363 . S
C661 C667 1.363 . S
C662 C663 1.363 . S
C662 C667 1.379 . S
C662 N669 1.356 . S
C663 C662 1.363 . S
C663 C666 1.363 . S
N664 C666 1.356 . S
N664 H676 0.984 . S
N664 H677 0.985 . S
N665 C667 1.356 . S
N665 H670 0.984 . S
N665 H671 0.985 . S
C666 C660 1.379 . S
C666 C663 1.363 . S
C666 N664 1.356 . S
C667 C661 1.363 . S
C667 C662 1.379 . S
C667 N665 1.356 . S
N668 C660 1.356 . S
N668 H674 0.984 . S
N668 H675 0.984 . S
N669 C662 1.356 . S
N669 H672 0.984 . S
N669 H673 0.985 . S
H670 N665 0.984 . S
H671 N665 0.985 . S
H672 N669 0.984 . S
H673 N669 0.985 . S
H674 N668 0.984 . S
H675 N668 0.984 . S
H676 N664 0.984 . S
H677 N664 0.985 . S
C678 C679 1.363 . S
C678 C684 1.379 . S
C678 N686 1.356 . S
C679 C678 1.363 . S
C679 C685 1.363 . S
C680 C681 1.363 . S
C680 C685 1.379 . S
C680 N687 1.356 . S
C681 C680 1.363 . S
C681 C684 1.363 . S
N682 C684 1.356 . S
N682 H694 0.984 . S
N682 H695 0.985 . S
N683 C685 1.356 . S
N683 H688 0.984 . S
N683 H689 0.985 . S
C684 C678 1.379 . S
C684 C681 1.363 . S
C684 N682 1.356 . S
C685 C679 1.363 . S
C685 C680 1.379 . S
C685 N683 1.356 . S
N686 C678 1.356 . S
N686 H692 0.984 . S
N686 H693 0.984 . S
N687 C680 1.356 . S
N687 H690 0.984 . S
N687 H691 0.985 . S
H688 N683 0.984 . S
H689 N683 0.985 . S
H690 N687 0.984 . S
H691 N687 0.985 . S
H692 N686 0.984 . S
H693 N686 0.984 . S
H694 N682 0.984 . S
H695 N682 0.985 . S
C265 C82 1.764 . S
C267 C113 2.201 1_545 S
C285 C153 2.220 . S
C283 C95 1.766 . S
C303 C193 2.231 . S
C301 C56 1.781 . S
C321 C233 2.213 1_455 S
C319 C69 1.778 . S
C339 C122 2.204 1_564 S
C337 C30 1.768 1_565 S
C355 C43 1.797 . S
C357 C162 2.222 1_554 S
C373 C4 1.812 . S
C375 C202 2.230 1_554 S
C391 C17 1.778 1_655 S
C393 C242 2.214 1_654 S
C411 C119 0.839 . S
C409 C74 0.849 1_655 S
C429 C159 0.837 . S
C427 C87 0.847 1_565 S
C447 C199 0.828 . S
C445 C100 0.838 . S
C463 C61 0.840 . S
C465 C239 0.825 . S
C481 C22 0.850 . S
C483 C110 0.842 . S
C501 C150 0.837 . S
C499 C35 0.846 . S
C519 C190 0.828 . S
C517 C48 0.836 . S
C535 C9 0.838 . S
C537 C230 0.831 . S
C553 C73 2.265 . S
C555 C123 2.572 . S
C571 C86 2.226 . S
C573 C163 2.535 . S
C591 C203 2.522 . S
C589 C99 2.212 . S
C609 C243 2.562 . S
C607 C60 2.247 . S
C625 C21 2.266 1_655 S
C627 C114 2.580 . S
C645 C154 2.535 . S
C643 C34 2.226 1_565 S
C663 C194 2.522 . S
C661 C47 2.218 . S
C679 C8 2.256 . S
C681 C234 2.566 . S
