# Generated by pormake.
# Topology pyr, (3,6)-cn, num edge types: 1
# Building blocks:
#     Node 0, Type 0, BuildingBlock: KAKCAD_clean_linker_0, # of connection points: 3
#     Node 1, Type 0, BuildingBlock: KAKCAD_clean_linker_0, # of connection points: 3
#     Node 2, Type 0, BuildingBlock: KAKCAD_clean_linker_0, # of connection points: 3
#     Node 3, Type 0, BuildingBlock: KAKCAD_clean_linker_0, # of connection points: 3
#     Node 4, Type 0, BuildingBlock: KAKCAD_clean_linker_0, # of connection points: 3
#     Node 5, Type 0, BuildingBlock: KAKCAD_clean_linker_0, # of connection points: 3
#     Node 6, Type 0, BuildingBlock: KAKCAD_clean_linker_0, # of connection points: 3
#     Node 7, Type 0, BuildingBlock: KAKCAD_clean_linker_0, # of connection points: 3
#     Node 8, Type 1, BuildingBlock: LEVNOQ01_clean_sbu_1, # of connection points: 6
#     Node 9, Type 1, BuildingBlock: LEVNOQ01_clean_sbu_1, # of connection points: 6
#     Node 10, Type 1, BuildingBlock: LEVNOQ01_clean_sbu_1, # of connection points: 6
#     Node 11, Type 1, BuildingBlock: LEVNOQ01_clean_sbu_1, # of connection points: 6
#     Edge 12, Type (0, 1), BuildingBlock: MIFKUJ_clean_linker_0, # of connection points: 2
#     Edge 13, Type (0, 1), BuildingBlock: MIFKUJ_clean_linker_0, # of connection points: 2
#     Edge 14, Type (0, 1), BuildingBlock: MIFKUJ_clean_linker_0, # of connection points: 2
#     Edge 15, Type (0, 1), BuildingBlock: MIFKUJ_clean_linker_0, # of connection points: 2
#     Edge 16, Type (0, 1), BuildingBlock: MIFKUJ_clean_linker_0, # of connection points: 2
#     Edge 17, Type (0, 1), BuildingBlock: MIFKUJ_clean_linker_0, # of connection points: 2
#     Edge 18, Type (0, 1), BuildingBlock: MIFKUJ_clean_linker_0, # of connection points: 2
#     Edge 19, Type (0, 1), BuildingBlock: MIFKUJ_clean_linker_0, # of connection points: 2
#     Edge 20, Type (0, 1), BuildingBlock: MIFKUJ_clean_linker_0, # of connection points: 2
#     Edge 21, Type (0, 1), BuildingBlock: MIFKUJ_clean_linker_0, # of connection points: 2
#     Edge 22, Type (0, 1), BuildingBlock: MIFKUJ_clean_linker_0, # of connection points: 2
#     Edge 23, Type (0, 1), BuildingBlock: MIFKUJ_clean_linker_0, # of connection points: 2
#     Edge 24, Type (0, 1), BuildingBlock: MIFKUJ_clean_linker_0, # of connection points: 2
#     Edge 25, Type (0, 1), BuildingBlock: MIFKUJ_clean_linker_0, # of connection points: 2
#     Edge 26, Type (0, 1), BuildingBlock: MIFKUJ_clean_linker_0, # of connection points: 2
#     Edge 27, Type (0, 1), BuildingBlock: MIFKUJ_clean_linker_0, # of connection points: 2
#     Edge 28, Type (0, 1), BuildingBlock: MIFKUJ_clean_linker_0, # of connection points: 2
#     Edge 29, Type (0, 1), BuildingBlock: MIFKUJ_clean_linker_0, # of connection points: 2
#     Edge 30, Type (0, 1), BuildingBlock: MIFKUJ_clean_linker_0, # of connection points: 2
#     Edge 31, Type (0, 1), BuildingBlock: MIFKUJ_clean_linker_0, # of connection points: 2
#     Edge 32, Type (0, 1), BuildingBlock: MIFKUJ_clean_linker_0, # of connection points: 2
#     Edge 33, Type (0, 1), BuildingBlock: MIFKUJ_clean_linker_0, # of connection points: 2
#     Edge 34, Type (0, 1), BuildingBlock: MIFKUJ_clean_linker_0, # of connection points: 2
#     Edge 35, Type (0, 1), BuildingBlock: MIFKUJ_clean_linker_0, # of connection points: 2
# Relax obj value: 0.034
# Max RMSD: 0.110
# Mean RMSD: 0.045
data_MOF--net-pry--node1-LEVNOQ01_clean_sbu_1--node2-KAKCAD_clean_linker_0--edge1-MIFKUJ_clean_linker_0
_symmetry_space_group_name_H-M    P1
_symmetry_Int_Tables_number       1
_symmetry_cell_setting            triclinic
loop_
_symmetry_equiv_pos_as_xyz
'x, y, z'
_cell_length_a     57.049137
_cell_length_b     55.014576
_cell_length_c     55.029876
_cell_angle_alpha  92.475459
_cell_angle_beta   91.107982
_cell_angle_gamma 94.07872
loop_
_atom_site_label
_atom_site_type_symbol
_atom_site_fract_x
_atom_site_fract_y
_atom_site_fract_z
_atom_type_partial_charge
C0 C 0.09344 0.10902 0.20001 0.0
C1 C 0.1081 0.10759 0.22078 0.0
C2 C 0.10236 0.11855 0.17851 0.0
C3 C 0.12624 0.12647 0.17708 0.0
C4 C 0.14088 0.1251 0.19771 0.0
C5 C 0.13192 0.11603 0.21928 0.0
C6 C 0.13612 0.13605 0.15423 0.0
C7 C 0.12568 0.15482 0.14234 0.0
C8 C 0.13603 0.16512 0.12176 0.0
C9 C 0.1567 0.15578 0.11268 0.0
C10 C 0.16717 0.13663 0.12402 0.0
C11 C 0.15673 0.12705 0.14487 0.0
C12 C 0.1891 0.12668 0.1144 0.0
C13 C 0.19215 0.1229 0.08923 0.0
C14 C 0.20701 0.12041 0.13042 0.0
C15 C 0.22723 0.11036 0.12158 0.0
C16 C 0.23019 0.10627 0.09644 0.0
C17 C 0.1259 0.18642 0.11054 0.0
C18 C 0.10157 0.18674 0.10604 0.0
C19 C 0.1405 0.20699 0.10493 0.0
C20 C 0.13102 0.22749 0.09544 0.0
C21 C 0.10664 0.22796 0.09093 0.0
C22 C 0.09209 0.20713 0.09622 0.0
C23 C 0.21241 0.11283 0.08037 0.0
H24 H 0.07511 0.10244 0.20013 0.0
H25 H 0.0907 0.11925 0.16282 0.0
H26 H 0.15929 0.13141 0.19726 0.0
H27 H 0.14375 0.11598 0.23488 0.0
H28 H 0.11008 0.16217 0.14982 0.0
H29 H 0.16444 0.11222 0.15374 0.0
H30 H 0.16478 0.16365 0.09689 0.0
H31 H 0.17864 0.12722 0.07635 0.0
H32 H 0.20554 0.12348 0.14988 0.0
H33 H 0.2407 0.10606 0.13451 0.0
H34 H 0.08986 0.17109 0.10995 0.0
H35 H 0.15927 0.20752 0.10853 0.0
H36 H 0.21389 0.10971 0.06092 0.0
H37 H 0.07333 0.20644 0.09265 0.0
H38 H 0.14288 0.2432 0.09221 0.0
C39 C 0.38831 0.92918 0.70014 0.0
C40 C 0.41213 0.92726 0.70586 0.0
C41 C 0.37851 0.91887 0.67829 0.0
C42 C 0.39244 0.90683 0.66136 0.0
C43 C 0.41656 0.90569 0.66691 0.0
C44 C 0.42622 0.91554 0.68907 0.0
C45 C 0.38143 0.89433 0.63887 0.0
C46 C 0.36186 0.90357 0.62739 0.0
C47 C 0.34916 0.89017 0.60838 0.0
C48 C 0.35729 0.86778 0.60007 0.0
C49 C 0.37772 0.85916 0.6101 0.0
C50 C 0.38948 0.87226 0.62965 0.0
C51 C 0.38656 0.83614 0.60041 0.0
C52 C 0.37162 0.81471 0.59814 0.0
C53 C 0.41 0.83556 0.59322 0.0
C54 C 0.41837 0.8139 0.58381 0.0
C55 C 0.40352 0.7924 0.58187 0.0
C56 C 0.32698 0.89894 0.59797 0.0
C57 C 0.31256 0.91325 0.61231 0.0
C58 C 0.31945 0.89233 0.57391 0.0
C59 C 0.29775 0.89872 0.56494 0.0
C60 C 0.28319 0.91276 0.5794 0.0
C61 C 0.2913 0.92044 0.60302 0.0
C62 C 0.3801 0.79296 0.58914 0.0
H63 H 0.37707 0.93793 0.71298 0.0
H64 H 0.3598 0.91968 0.67512 0.0
H65 H 0.42802 0.89706 0.65425 0.0
H66 H 0.4447 0.91401 0.69311 0.0
H67 H 0.35651 0.92127 0.63339 0.0
H68 H 0.40436 0.86458 0.6382 0.0
H69 H 0.34779 0.85677 0.58583 0.0
H70 H 0.35349 0.81473 0.60366 0.0
H71 H 0.42178 0.85192 0.59468 0.0
H72 H 0.43655 0.81383 0.57849 0.0
H73 H 0.31726 0.91855 0.63103 0.0
H74 H 0.33014 0.88194 0.56186 0.0
H75 H 0.36833 0.77659 0.58775 0.0
H76 H 0.2812 0.93188 0.61467 0.0
H77 H 0.2923 0.89204 0.54679 0.0
C78 C 0.69459 0.44255 0.90728 0.0
C79 C 0.71314 0.42708 0.90651 0.0
C80 C 0.6721 0.43391 0.89896 0.0
C81 C 0.66787 0.40959 0.89036 0.0
C82 C 0.68648 0.39425 0.88935 0.0
C83 C 0.709 0.403 0.89718 0.0
C84 C 0.64404 0.39989 0.88267 0.0
C85 C 0.63246 0.40984 0.86325 0.0
C86 C 0.61065 0.39921 0.85421 0.0
C87 C 0.6005 0.37856 0.86542 0.0
C88 C 0.61242 0.36801 0.88444 0.0
C89 C 0.63392 0.37918 0.89329 0.0
C90 C 0.60406 0.34378 0.89299 0.0
C91 C 0.58006 0.33759 0.89647 0.0
C92 C 0.62027 0.32607 0.89634 0.0
C93 C 0.61272 0.30267 0.90275 0.0
C94 C 0.58874 0.2963 0.90582 0.0
C95 C 0.6002 0.40799 0.83141 0.0
C96 C 0.60421 0.43247 0.82531 0.0
C97 C 0.58815 0.39154 0.8144 0.0
C98 C 0.58149 0.39908 0.79154 0.0
C99 C 0.58748 0.42302 0.78464 0.0
C100 C 0.5984 0.43977 0.80213 0.0
C101 C 0.57246 0.31401 0.9028 0.0
H102 H 0.69752 0.46122 0.91436 0.0
H103 H 0.65791 0.44599 0.89977 0.0
H104 H 0.68354 0.37548 0.88255 0.0
H105 H 0.72306 0.39075 0.89657 0.0
H106 H 0.64136 0.42492 0.85432 0.0
H107 H 0.64322 0.37137 0.9081 0.0
H108 H 0.58391 0.36989 0.8586 0.0
H109 H 0.56719 0.35091 0.89417 0.0
H110 H 0.63881 0.32999 0.89319 0.0
H111 H 0.62562 0.28928 0.90445 0.0
H112 H 0.61269 0.44597 0.83811 0.0
H113 H 0.58473 0.37248 0.81809 0.0
H114 H 0.55387 0.30958 0.90523 0.0
H115 H 0.60352 0.45836 0.79782 0.0
H116 H 0.57225 0.38577 0.77909 0.0
C117 C 0.88027 0.56916 0.31 0.0
C118 C 0.90383 0.56679 0.30386 0.0
C119 C 0.8745 0.57672 0.33349 0.0
C120 C 0.89212 0.58237 0.35143 0.0
C121 C 0.91568 0.58 0.34549 0.0
C122 C 0.92148 0.57209 0.32197 0.0
C123 C 0.88554 0.59162 0.37587 0.0
C124 C 0.86645 0.58 0.38752 0.0
C125 C 0.85694 0.59071 0.40841 0.0
C126 C 0.86779 0.61282 0.41827 0.0
C127 C 0.88744 0.62434 0.40735 0.0
C128 C 0.89635 0.61349 0.38619 0.0
C129 C 0.89722 0.64876 0.41688 0.0
C130 C 0.88199 0.6667 0.4238 0.0
C131 C 0.92162 0.6545 0.41887 0.0
C132 C 0.93055 0.67769 0.42761 0.0
C133 C 0.91525 0.69565 0.43434 0.0
C134 C 0.83446 0.5802 0.41846 0.0
C135 C 0.81696 0.56833 0.4029 0.0
C136 C 0.82954 0.58338 0.44332 0.0
C137 C 0.80734 0.57632 0.45203 0.0
C138 C 0.78958 0.56527 0.43626 0.0
C139 C 0.79504 0.56063 0.41174 0.0
C140 C 0.89088 0.6898 0.43246 0.0
H141 H 0.86623 0.56588 0.29649 0.0
H142 H 0.8562 0.57885 0.33743 0.0
H143 H 0.92957 0.58416 0.35905 0.0
H144 H 0.93979 0.57016 0.31802 0.0
H145 H 0.85864 0.56282 0.37972 0.0
H146 H 0.91067 0.62287 0.37688 0.0
H147 H 0.86047 0.62168 0.43404 0.0
H148 H 0.86311 0.66305 0.42215 0.0
H149 H 0.93379 0.64102 0.41375 0.0
H150 H 0.94941 0.68172 0.42863 0.0
H151 H 0.81969 0.56571 0.38359 0.0
H152 H 0.84266 0.59183 0.45608 0.0
H153 H 0.8786 0.70312 0.43769 0.0
H154 H 0.78221 0.55149 0.39908 0.0
H155 H 0.80396 0.58039 0.471 0.0
C156 C 0.89964 0.87727 0.79155 0.0
C157 C 0.89949 0.90189 0.78563 0.0
C158 C 0.89083 0.86937 0.81364 0.0
C159 C 0.88186 0.88587 0.83075 0.0
C160 C 0.88224 0.91063 0.82513 0.0
C161 C 0.89084 0.9185 0.80287 0.0
C162 C 0.87142 0.87698 0.85384 0.0
C163 C 0.88071 0.85742 0.86559 0.0
C164 C 0.86971 0.847 0.8858 0.0
C165 C 0.8495 0.85732 0.89487 0.0
C166 C 0.8405 0.8776 0.88413 0.0
C167 C 0.85148 0.88715 0.86357 0.0
C168 C 0.81924 0.88856 0.8939 0.0
C169 C 0.7989 0.87382 0.89887 0.0
C170 C 0.81901 0.91398 0.89786 0.0
C171 C 0.79892 0.9244 0.90658 0.0
C172 C 0.77844 0.9097 0.91118 0.0
C173 C 0.87913 0.82509 0.89688 0.0
C174 C 0.88976 0.80749 0.88225 0.0
C175 C 0.87767 0.82144 0.92204 0.0
C176 C 0.88661 0.80092 0.93217 0.0
C177 C 0.8976 0.78374 0.9175 0.0
C178 C 0.89905 0.78728 0.89244 0.0
C179 C 0.77867 0.88428 0.90722 0.0
H180 H 0.90652 0.86394 0.77907 0.0
H181 H 0.89059 0.85011 0.81699 0.0
H182 H 0.87583 0.92401 0.83789 0.0
H183 H 0.89019 0.93757 0.799 0.0
H184 H 0.89675 0.85036 0.85898 0.0
H185 H 0.84382 0.90195 0.85462 0.0
H186 H 0.84059 0.84955 0.91024 0.0
H187 H 0.79848 0.8542 0.89585 0.0
H188 H 0.83445 0.92581 0.89432 0.0
H189 H 0.79926 0.94404 0.90931 0.0
H190 H 0.89071 0.80907 0.86275 0.0
H191 H 0.86998 0.83462 0.93407 0.0
H192 H 0.76323 0.87245 0.91075 0.0
H193 H 0.9071 0.77417 0.88061 0.0
H194 H 0.88538 0.79874 0.95158 0.0
C195 C 0.616 0.08271 0.31558 0.0
C196 C 0.60858 0.09764 0.29737 0.0
C197 C 0.62494 0.09306 0.33781 0.0
C198 C 0.62667 0.11854 0.34212 0.0
C199 C 0.6191 0.13339 0.32372 0.0
C200 C 0.6101 0.123 0.30156 0.0
C201 C 0.63641 0.12965 0.36563 0.0
C202 C 0.65623 0.1207 0.37677 0.0
C203 C 0.66577 0.13132 0.39889 0.0
C204 C 0.65512 0.15128 0.40974 0.0
C205 C 0.63575 0.16087 0.39845 0.0
C206 C 0.62632 0.14974 0.37665 0.0
C207 C 0.62593 0.18325 0.40861 0.0
C208 C 0.62086 0.18589 0.43342 0.0
C209 C 0.62148 0.2022 0.39325 0.0
C210 C 0.61177 0.22317 0.40236 0.0
C211 C 0.60609 0.22566 0.42705 0.0
C212 C 0.68751 0.12234 0.40982 0.0
C213 C 0.69186 0.09746 0.40758 0.0
C214 C 0.70464 0.13871 0.42162 0.0
C215 C 0.72568 0.13049 0.43045 0.0
C216 C 0.73021 0.10588 0.42725 0.0
C217 C 0.71312 0.08939 0.41594 0.0
C218 C 0.61095 0.20687 0.44255 0.0
H219 H 0.61493 0.06307 0.31255 0.0
H220 H 0.63033 0.08112 0.35169 0.0
H221 H 0.62052 0.15307 0.32626 0.0
H222 H 0.60458 0.13476 0.28755 0.0
H223 H 0.66475 0.10601 0.36763 0.0
H224 H 0.61094 0.15673 0.36833 0.0
H225 H 0.66216 0.15978 0.42671 0.0
H226 H 0.62406 0.17149 0.44563 0.0
H227 H 0.62568 0.20086 0.37414 0.0
H228 H 0.60882 0.23753 0.39003 0.0
H229 H 0.67895 0.08418 0.39916 0.0
H230 H 0.70225 0.15804 0.42335 0.0
H231 H 0.60661 0.20813 0.46162 0.0
H232 H 0.71631 0.07027 0.41343 0.0
H233 H 0.7388 0.14351 0.43896 0.0
C234 C 0.2883 0.60442 0.12158 0.0
C235 C 0.28447 0.60025 0.09647 0.0
C236 C 0.31053 0.61255 0.13072 0.0
C237 C 0.32921 0.61692 0.11486 0.0
C238 C 0.32545 0.61263 0.08973 0.0
C239 C 0.30322 0.60409 0.08059 0.0
C240 C 0.35219 0.62695 0.12484 0.0
C241 C 0.36228 0.61611 0.14462 0.0
C242 C 0.38174 0.62771 0.15736 0.0
C243 C 0.392 0.6497 0.14909 0.0
C244 C 0.38221 0.66073 0.12906 0.0
C245 C 0.36234 0.64906 0.11689 0.0
C246 C 0.39116 0.68552 0.12245 0.0
C247 C 0.39846 0.70333 0.14067 0.0
C248 C 0.39144 0.69194 0.09802 0.0
C249 C 0.39841 0.71571 0.09199 0.0
C250 C 0.4056 0.73353 0.11023 0.0
C251 C 0.38924 0.61863 0.18102 0.0
C252 C 0.37218 0.60985 0.1972 0.0
C253 C 0.41304 0.62016 0.18835 0.0
C254 C 0.41956 0.61362 0.21163 0.0
C255 C 0.40239 0.60526 0.2279 0.0
C256 C 0.3787 0.60305 0.22026 0.0
C257 C 0.40577 0.72698 0.13462 0.0
H258 H 0.27406 0.60152 0.13411 0.0
H259 H 0.31301 0.61602 0.15017 0.0
H260 H 0.33966 0.61595 0.07725 0.0
H261 H 0.30051 0.60112 0.06112 0.0
H262 H 0.35425 0.59904 0.15071 0.0
H263 H 0.35373 0.65793 0.10232 0.0
H264 H 0.40693 0.65884 0.15899 0.0
H265 H 0.39805 0.69924 0.15973 0.0
H266 H 0.38613 0.67864 0.08352 0.0
H267 H 0.39775 0.72016 0.07303 0.0
H268 H 0.35363 0.60888 0.19239 0.0
H269 H 0.4266 0.62669 0.17624 0.0
H270 H 0.41155 0.74011 0.14911 0.0
H271 H 0.3651 0.59622 0.23217 0.0
H272 H 0.43796 0.61566 0.21706 0.0
C273 C 0.09603 0.31213 0.58876 0.0
C274 C 0.07271 0.30945 0.57965 0.0
C275 C 0.10584 0.33477 0.59766 0.0
C276 C 0.09246 0.35518 0.59816 0.0
C277 C 0.06895 0.35256 0.58995 0.0
C278 C 0.0592 0.32993 0.58057 0.0
C279 C 0.10335 0.3791 0.6072 0.0
C280 C 0.12419 0.38853 0.597 0.0
C281 C 0.13626 0.4099 0.60695 0.0
C282 C 0.127 0.42199 0.62721 0.0
C283 C 0.10621 0.41259 0.63781 0.0
C284 C 0.09425 0.39132 0.62737 0.0
C285 C 0.09844 0.42318 0.66132 0.0
C286 C 0.115 0.42987 0.68011 0.0
C287 C 0.07442 0.42473 0.66592 0.0
C288 C 0.0671 0.43186 0.68908 0.0
C289 C 0.08365 0.43761 0.70808 0.0
C290 C 0.15951 0.41827 0.59747 0.0
C291 C 0.17595 0.40119 0.59172 0.0
C292 C 0.16573 0.44318 0.59465 0.0
C293 C 0.18798 0.45079 0.58629 0.0
C294 C 0.20444 0.43363 0.58077 0.0
C295 C 0.19808 0.40876 0.58342 0.0
C296 C 0.10769 0.43703 0.70321 0.0
H297 H 0.10679 0.29671 0.58909 0.0
H298 H 0.1239 0.33633 0.60435 0.0
H299 H 0.05834 0.36813 0.59023 0.0
H300 H 0.04128 0.32866 0.57355 0.0
H301 H 0.13117 0.37893 0.58143 0.0
H302 H 0.07871 0.38331 0.63585 0.0
H303 H 0.13651 0.43816 0.63536 0.0
H304 H 0.1336 0.42846 0.67734 0.0
H305 H 0.06127 0.41998 0.65173 0.0
H306 H 0.04847 0.43248 0.69222 0.0
H307 H 0.17188 0.38191 0.59404 0.0
H308 H 0.15339 0.45675 0.59884 0.0
H309 H 0.12086 0.44099 0.71754 0.0
H310 H 0.21025 0.39506 0.57903 0.0
H311 H 0.19244 0.47009 0.58458 0.0
O312 O 0.00087 0.01688 0.57009 0.0
Mg313 Mg 0.02701 0.02699 0.54648 0.0
O314 O 0.98797 0.98981 0.54141 0.0
Mg315 Mg 0.00396 0.00387 0.50352 0.0
O316 O 0.0165 0.0442 0.51658 0.0
O317 O 0.0366 0.06274 0.54876 0.0
O318 O 0.0203 0.02097 0.46679 0.0
O319 O 0.96766 0.01959 0.49689 0.0
Mg320 Mg 0.9918 0.98627 0.46274 0.0
O321 O 0.99014 0.96257 0.49067 0.0
O322 O 0.02243 0.98911 0.44226 0.0
O323 O 0.96651 0.01219 0.45753 0.0
O324 O 0.97439 0.9545 0.45313 0.0
C325 C 0.05669 0.98988 0.52654 0.0
C326 C 0.98772 0.99828 0.56351 0.0
C327 C 0.02578 0.06389 0.52808 0.0
C328 C 0.02817 0.01125 0.44734 0.0
C329 C 0.95797 0.02201 0.47621 0.0
C330 C 0.97903 0.94756 0.47462 0.0
O331 O 0.0552 0.00532 0.54397 0.0
O332 O 0.04064 0.98714 0.50993 0.0
O333 O 0.46308 0.06103 0.01642 0.0
Mg334 Mg 0.49924 0.0651 0.02229 0.0
O335 O 0.46604 0.02117 0.01301 0.0
Mg336 Mg 0.50595 0.01393 0.00224 0.0
O337 O 0.51758 0.05342 0.99298 0.0
O338 O 0.51646 0.09272 0.00536 0.0
O339 O 0.54654 0.00954 0.99007 0.0
O340 O 0.4921 0.00814 0.96197 0.0
Mg341 Mg 0.51975 0.97381 0.99039 0.0
O342 O 0.49196 0.97376 0.01306 0.0
O343 O 0.55385 0.97508 0.00547 0.0
O344 O 0.5147 0.97865 0.95283 0.0
O345 O 0.50516 0.94032 0.99445 0.0
C346 C 0.5203 0.03534 0.05972 0.0
C347 C 0.45352 0.03958 0.01552 0.0
C348 C 0.52305 0.07637 0.98993 0.0
C349 C 0.56146 0.99452 0.99629 0.0
C350 C 0.49992 0.99327 0.94625 0.0
C351 C 0.49091 0.9502 0.0091 0.0
O352 O 0.5124 0.05584 0.05625 0.0
O353 O 0.52008 0.01879 0.04271 0.0
O354 O 0.47276 0.54254 0.55558 0.0
Mg355 Mg 0.47634 0.50515 0.55995 0.0
O356 O 0.48599 0.54354 0.51796 0.0
Mg357 Mg 0.49549 0.50381 0.50723 0.0
O358 O 0.50712 0.49576 0.54587 0.0
O359 O 0.49943 0.49462 0.58546 0.0
O360 O 0.50568 0.46232 0.50113 0.0
O361 O 0.53434 0.51867 0.50312 0.0
Mg362 Mg 0.50346 0.4875 0.46731 0.0
O363 O 0.48364 0.51668 0.46787 0.0
O364 O 0.48692 0.45229 0.46709 0.0
O365 O 0.54031 0.49285 0.47283 0.0
O366 O 0.49894 0.49977 0.43427 0.0
C367 C 0.44257 0.47908 0.52599 0.0
C368 C 0.47777 0.55418 0.53673 0.0
C369 C 0.51356 0.49124 0.56779 0.0
C370 C 0.49775 0.44579 0.48555 0.0
C371 C 0.54828 0.5092 0.48826 0.0
C372 C 0.48671 0.51596 0.44448 0.0
O373 O 0.44872 0.48031 0.54823 0.0
O374 O 0.4559 0.48846 0.50995 0.0
O375 O 0.03734 0.47635 0.0397 0.0
Mg376 Mg 0.02079 0.50998 0.04441 0.0
O377 O 0.00826 0.4658 0.01419 0.0
Mg378 Mg -0.00039 0.50618 0.00707 0.0
O379 O 0.98564 0.51386 0.04804 0.0
O380 O 0.01154 0.51064 0.07895 0.0
O381 O 0.98859 0.54791 0.00346 0.0
O382 O 0.96114 0.49151 -0.00038 0.0
Mg383 Mg 0.9929 0.52281 0.96667 0.0
O384 O 0.01281 0.49394 0.96731 0.0
O385 O 0.00864 0.55836 0.97205 0.0
O386 O 0.95619 0.5148 0.96863 0.0
O387 O 0.00175 0.51192 0.93327 0.0
C388 C 0.04951 0.53895 0.02191 0.0
C389 C 0.02577 0.45998 0.02679 0.0
C390 C 0.99081 0.51472 0.0713 0.0
C391 C 0.9969 0.56467 0.99001 0.0
C392 C 0.94793 0.49942 0.98327 0.0
C393 C 0.01307 0.49576 0.94381 0.0
O394 O 0.04004 0.5435 0.04177 0.0
O395 O 0.03994 0.52185 0.00803 0.0
H396 H 0.0637 0.11 0.23984 0.0
H397 H 0.04919 0.09403 0.27782 0.0
H398 H 0.11705 0.06759 0.29322 0.0
H399 H 0.13109 0.08159 0.25444 0.0
H400 H 0.08517 0.03555 0.30595 0.0
H401 H 0.09546 0.12409 0.31954 0.0
H402 H 0.08761 0.16621 0.30999 0.0
H403 H 0.01383 0.14987 0.32026 0.0
H404 H 0.02123 0.10759 0.32962 0.0
H405 H 0.07234 0.0114 0.42929 0.0
H406 H 0.08618 0.03007 0.39202 0.0
H407 H 0.01894 0.06025 0.3824 0.0
H408 H 0.00595 0.04313 0.42064 0.0
H409 H 0.04876 0.09033 0.36595 0.0
H410 H 0.03611 0.0037 0.35221 0.0
H411 H 0.04097 0.96047 0.35986 0.0
H412 H 0.11499 0.97134 0.34749 0.0
H413 H 0.11061 0.01471 0.34004 0.0
C414 C 0.07551 0.10044 0.25102 0.0
C415 C 0.09879 0.09747 0.24391 0.0
C416 C 0.06723 0.09162 0.27306 0.0
C417 C 0.08216 0.08012 0.28889 0.0
C418 C 0.10517 0.0766 0.28158 0.0
C419 C 0.11331 0.08499 0.25939 0.0
C420 C 0.07407 0.07172 0.31308 0.0
C421 C 0.07749 0.04767 0.31917 0.0
C422 C 0.06318 0.0871 0.33015 0.0
C423 C 0.05889 0.11267 0.32512 0.0
C424 C 0.07757 0.12949 0.31971 0.0
C425 C 0.0732 0.15338 0.31432 0.0
C426 C 0.05024 0.1607 0.31448 0.0
C427 C 0.03161 0.14418 0.32014 0.0
C428 C 0.03588 0.12027 0.32552 0.0
C429 C 0.06088 0.02268 0.41954 0.0
C430 C 0.03826 0.02616 0.42793 0.0
C431 C 0.06859 0.03301 0.39798 0.0
C432 C 0.05339 0.046 0.38373 0.0
C433 C 0.03109 0.05031 0.39281 0.0
C434 C 0.02367 0.04061 0.41475 0.0
C435 C 0.06027 0.05424 0.35906 0.0
C436 C 0.0565 0.07819 0.35281 0.0
C437 C 0.07043 0.03862 0.34162 0.0
C438 C 0.07306 0.01248 0.34578 0.0
C439 C 0.05343 0.99689 0.35123 0.0
C440 C 0.05611 0.97236 0.35552 0.0
C441 C 0.07829 0.96318 0.35422 0.0
C442 C 0.09783 0.97848 0.34852 0.0
C443 C 0.09526 0.00302 0.34424 0.0
H444 H 0.08032 0.94419 0.35757 0.0
H445 H 0.04688 0.17919 0.31026 0.0
H446 H 0.41301 0.97377 0.72514 0.0
H447 H 0.4275 0.98875 0.76582 0.0
H448 H 0.44648 0.91645 0.7814 0.0
H449 H 0.43266 0.9016 0.7405 0.0
H450 H 0.41823 0.94072 0.81798 0.0
H451 H 0.48864 0.95159 0.77294 0.0
H452 H 0.51374 0.96582 0.7397 0.0
H453 H 0.50206 0.04015 0.76003 0.0
H454 H 0.47655 0.02631 0.7932 0.0
H455 H 0.50086 0.95363 0.91553 0.0
H456 H 0.48345 0.94721 0.87488 0.0
H457 H 0.45968 0.01989 0.87863 0.0
H458 H 0.4767 0.02639 0.92018 0.0
H459 H 0.48747 -0.00019 0.83267 0.0
H460 H 0.41915 0.98636 0.88174 0.0
H461 H 0.39675 0.96925 0.91567 0.0
H462 H 0.4071 0.89667 0.88814 0.0
H463 H 0.42991 0.91336 0.85425 0.0
C464 C 0.42049 0.9612 0.73723 0.0
C465 C 0.42188 0.93661 0.7298 0.0
C466 C 0.42872 0.96973 0.76037 0.0
C467 C 0.438 0.95367 0.77654 0.0
C468 C 0.43936 0.92909 0.76914 0.0
C469 C 0.43162 0.92068 0.74582 0.0
C470 C 0.4459 0.96242 0.80136 0.0
C471 C 0.43338 0.95361 0.82121 0.0
C472 C 0.46544 0.9795 0.80546 0.0
C473 C 0.48037 0.9879 0.78528 0.0
C474 C 0.49114 0.97096 0.7701 0.0
C475 C 0.50552 0.97895 0.75134 0.0
C476 C 0.50941 0.00387 0.74769 0.0
C477 C 0.49896 0.02085 0.76283 0.0
C478 C 0.48454 0.01294 0.78162 0.0
C479 C 0.49208 0.9684 0.90778 0.0
C480 C 0.49023 0.9906 0.92107 0.0
C481 C 0.48204 0.96461 0.88456 0.0
C482 C 0.47024 0.98301 0.8739 0.0
C483 C 0.46871 0.00547 0.88672 0.0
C484 C 0.4784 0.00914 0.91036 0.0
C485 C 0.45973 0.97821 0.84926 0.0
C486 C 0.47193 0.98746 0.8294 0.0
C487 C 0.44007 0.96128 0.84516 0.0
C488 C 0.42646 0.95114 0.86559 0.0
C489 C 0.41689 0.96676 0.88307 0.0
C490 C 0.40406 0.95713 0.90226 0.0
C491 C 0.40056 0.93189 0.9041 0.0
C492 C 0.40985 0.91622 0.88672 0.0
C493 C 0.42272 0.92576 0.8675 0.0
H494 H 0.3906 0.92447 0.91896 0.0
H495 H 0.52059 0.01003 0.73318 0.0
H496 H 0.57986 0.46851 0.76787 0.0
H497 H 0.57783 0.48037 0.72611 0.0
H498 H 0.58161 0.40535 0.70103 0.0
H499 H 0.58716 0.39377 0.74261 0.0
H500 H 0.60452 0.4299 0.67206 0.0
H501 H 0.52783 0.43743 0.70334 0.0
H502 H 0.49761 0.45075 0.73142 0.0
H503 H 0.51726 0.52562 0.71769 0.0
H504 H 0.54779 0.51274 0.68972 0.0
H505 H 0.52601 0.44497 0.56912 0.0
H506 H 0.55242 0.43272 0.6011 0.0
H507 H 0.57773 0.50785 0.61492 0.0
H508 H 0.55148 0.52002 0.5828 0.0
H509 H 0.54368 0.48489 0.64836 0.0
H510 H 0.61751 0.47163 0.61026 0.0
H511 H 0.64212 0.45301 0.57925 0.0
H512 H 0.62 0.38164 0.60251 0.0
H513 H 0.59502 0.39982 0.63347 0.0
C514 C 0.58082 0.45448 0.75362 0.0
C515 C 0.58372 0.43007 0.75903 0.0
C516 C 0.57915 0.46128 0.72958 0.0
C517 C 0.57902 0.44371 0.71029 0.0
C518 C 0.58161 0.41931 0.71553 0.0
C519 C 0.58426 0.41262 0.73954 0.0
C520 C 0.57606 0.45073 0.6847 0.0
C521 C 0.59106 0.44178 0.6669 0.0
C522 C 0.5586 0.4663 0.67779 0.0
C523 C 0.54027 0.47412 0.69465 0.0
C524 C 0.52582 0.45674 0.70645 0.0
C525 C 0.50861 0.46421 0.72231 0.0
C526 C 0.50557 0.48902 0.72639 0.0
C527 C 0.51967 0.50641 0.71455 0.0
C528 C 0.53691 0.49904 0.69867 0.0
C529 C 0.53855 0.45857 0.57769 0.0
C530 C 0.53675 0.48338 0.5738 0.0
C531 C 0.55356 0.45159 0.59607 0.0
C532 C 0.56665 0.46948 0.61057 0.0
C533 C 0.56774 0.49383 0.60384 0.0
C534 C 0.55286 0.50075 0.58539 0.0
C535 C 0.5722 0.46426 0.63601 0.0
C536 C 0.55738 0.47336 0.65373 0.0
C537 C 0.58903 0.44802 0.64249 0.0
C538 C 0.60429 0.4371 0.62411 0.0
C539 C 0.61777 0.45196 0.60866 0.0
C540 C 0.63181 0.44148 0.59111 0.0
C541 C 0.63259 0.41616 0.58889 0.0
C542 C 0.61939 0.40126 0.60426 0.0
C543 C 0.60532 0.41164 0.62185 0.0
H544 H 0.64346 0.40808 0.57527 0.0
H545 H 0.49224 0.49477 0.73868 0.0
H546 H 0.87933 0.53433 0.27163 0.0
H547 H 0.88696 0.52655 0.22867 0.0
H548 H 0.95012 0.5746 0.23553 0.0
H549 H 0.94173 0.58388 0.27802 0.0
H550 H 0.92721 0.58426 0.19675 0.0
H551 H 0.94972 0.50995 0.23112 0.0
H552 H 0.94432 0.47248 0.25405 0.0
H553 H 0.88718 0.44603 0.20584 0.0
H554 H 0.89207 0.48349 0.18279 0.0
H555 H 0.00227 0.54696 0.10786 0.0
H556 H 0.97919 0.55727 0.1428 0.0
H557 H 0.91976 0.51266 0.11191 0.0
H558 H 0.94341 0.50191 0.07634 0.0
H559 H 0.93116 0.50136 0.1586 0.0
H560 H 0.91688 0.57498 0.11946 0.0
H561 H 0.92744 0.61172 0.09676 0.0
H562 H 0.97476 0.63912 0.15479 0.0
H563 H 0.96475 0.60245 0.17772 0.0
C564 C 0.89477 0.54343 0.26399 0.0
C565 C 0.90981 0.55991 0.27836 0.0
C566 C 0.89926 0.53869 0.23944 0.0
C567 C 0.91917 0.54988 0.22883 0.0
C568 C 0.93457 0.5658 0.24327 0.0
C569 C 0.92991 0.57084 0.26771 0.0
C570 C 0.92376 0.5457 0.20256 0.0
C571 C 0.92817 0.56612 0.18844 0.0
C572 C 0.92417 0.52203 0.19144 0.0
C573 C 0.92104 0.49965 0.20545 0.0
C574 C 0.93585 0.49625 0.22556 0.0
C575 C 0.93292 0.47499 0.23854 0.0
C576 C 0.91536 0.45693 0.23146 0.0
C577 C 0.90073 0.46006 0.21135 0.0
C578 C 0.90358 0.48129 0.19832 0.0
C579 C 0.98412 0.53967 0.10824 0.0
C580 C 0.97461 0.52349 0.0896 0.0
C581 C 0.97086 0.54578 0.12814 0.0
C582 C 0.94765 0.536 0.12988 0.0
C583 C 0.93762 0.52056 0.11077 0.0
C584 C 0.95101 0.51451 0.0905 0.0
C585 C 0.93546 0.53991 0.1531 0.0
C586 C 0.92956 0.51948 0.16672 0.0
C587 C 0.93422 0.56358 0.16394 0.0
C588 C 0.94002 0.58591 0.15032 0.0
C589 C 0.92959 0.5888 0.12736 0.0
C590 C 0.93549 0.60962 0.11444 0.0
C591 C 0.95175 0.62774 0.12433 0.0
C592 C 0.96213 0.6251 0.14717 0.0
C593 C 0.9563 0.60432 0.16016 0.0
H594 H 0.95631 0.64383 0.11429 0.0
H595 H 0.91313 0.44047 0.24152 0.0
H596 H 0.25367 0.06928 0.11556 0.0
H597 H 0.28939 0.05202 0.10096 0.0
H598 H 0.29123 0.10057 0.04146 0.0
H599 H 0.25558 0.11806 0.05605 0.0
H600 H 0.30123 0.05594 0.02576 0.0
H601 H 0.32751 0.1115 0.09209 0.0
H602 H 0.32831 0.1289 0.13417 0.0
H603 H 0.34679 0.06045 0.16088 0.0
H604 H 0.3458 0.04253 0.11894 0.0
H605 H 0.42088 0.06551 0.99459 0.0
H606 H 0.38056 0.06949 0.00724 0.0
H607 H 0.3879 0.0136 0.0589 0.0
H608 H 0.42863 0.00944 0.04597 0.0
H609 H 0.3719 0.05614 0.07976 0.0
H610 H 0.35008 0.00248 0.01151 0.0
H611 H 0.35074 0.98706 0.96881 0.0
H612 H 0.32505 0.0538 0.9451 0.0
H613 H 0.32454 0.06978 0.98764 0.0
C614 C 0.26175 0.07647 0.09948 0.0
C615 C 0.25172 0.09524 0.08712 0.0
C616 C 0.28219 0.0665 0.09109 0.0
C617 C 0.29325 0.07513 0.07022 0.0
C618 C 0.28305 0.09352 0.05757 0.0
C619 C 0.26258 0.10349 0.06593 0.0
C620 C 0.31557 0.06527 0.0617 0.0
C621 C 0.31671 0.05614 0.03754 0.0
C622 C 0.3357 0.06487 0.07718 0.0
C623 C 0.3363 0.07559 0.10241 0.0
C624 C 0.33154 0.10009 0.10695 0.0
C625 C 0.33207 0.11006 0.13078 0.0
C626 C 0.33752 0.09576 0.1502 0.0
C627 C 0.34252 0.07148 0.14582 0.0
C628 C 0.34199 0.06141 0.12203 0.0
C629 C 0.41367 0.05349 0.00809 0.0
C630 C 0.42781 0.03698 0.01911 0.0
C631 C 0.39059 0.05582 0.01536 0.0
C632 C 0.38108 0.04184 0.03401 0.0
C633 C 0.39483 0.02454 0.04442 0.0
C634 C 0.41797 0.02195 0.03684 0.0
C635 C 0.35762 0.04708 0.04374 0.0
C636 C 0.35629 0.05549 0.06811 0.0
C637 C 0.33739 0.04701 0.02839 0.0
C638 C 0.3374 0.03738 0.00278 0.0
C639 C 0.3447 0.01394 0.99718 0.0
C640 C 0.34503 0.00508 0.973 0.0
C641 C 0.33797 0.01945 0.95425 0.0
C642 C 0.33051 0.04269 0.95964 0.0
C643 C 0.33016 0.05163 0.98379 0.0
H644 H 0.33826 0.01258 0.93554 0.0
H645 H 0.33793 0.10352 0.16863 0.0
H646 H 0.24366 0.92069 0.60602 0.0
H647 H 0.20528 0.92991 0.59137 0.0
H648 H 0.22843 0.92426 0.51732 0.0
H649 H 0.26803 0.91835 0.53191 0.0
H650 H 0.2013 0.9583 0.52003 0.0
H651 H 0.19285 0.87622 0.54804 0.0
H652 H 0.19686 0.84443 0.57784 0.0
H653 H 0.15387 0.88253 0.62771 0.0
H654 H 0.14983 0.91467 0.59838 0.0
H655 H 0.07945 0.96926 0.48765 0.0
H656 H 0.1168 0.94928 0.48971 0.0
H657 H 0.11704 0.95766 0.56808 0.0
H658 H 0.08025 0.97695 0.56614 0.0
H659 H 0.13142 0.91474 0.55466 0.0
H660 H 0.14663 -0.00062 0.53196 0.0
H661 H 0.14316 0.03336 0.50458 0.0
H662 H 0.17325 0.9917 0.44682 0.0
H663 H 0.17661 0.95735 0.47382 0.0
C664 C 0.24106 0.92201 0.58662 0.0
C665 C 0.25938 0.91855 0.57028 0.0
C666 C 0.21869 0.92669 0.57819 0.0
C667 C 0.21354 0.92678 0.55314 0.0
C668 C 0.23177 0.92385 0.53674 0.0
C669 C 0.25445 0.92007 0.54519 0.0
C670 C 0.18926 0.93041 0.54422 0.0
C671 C 0.18606 0.94833 0.52723 0.0
C672 C 0.16921 0.91762 0.55364 0.0
C673 C 0.17108 0.89787 0.57099 0.0
C674 C 0.18427 0.87782 0.56537 0.0
C675 C 0.18657 0.85975 0.58219 0.0
C676 C 0.17564 0.86146 0.60465 0.0
C677 C 0.16231 0.8812 0.6103 0.0
C678 C 0.15996 0.89931 0.59356 0.0
C679 C 0.08736 0.96633 0.50523 0.0
C680 C 0.07716 0.97491 0.52671 0.0
C681 C 0.10869 0.95509 0.50641 0.0
C682 C 0.11983 0.95223 0.52907 0.0
C683 C 0.10884 0.95963 0.55041 0.0
C684 C 0.08784 0.97084 0.54925 0.0
C685 C 0.14361 0.94314 0.53131 0.0
C686 C 0.14674 0.92412 0.54697 0.0
C687 C 0.16353 0.95506 0.5209 0.0
C688 C 0.16157 0.97571 0.50477 0.0
C689 C 0.15233 0.99742 0.51336 0.0
C690 C 0.15041 0.01674 0.49793 0.0
C691 C 0.1579 0.01466 0.47395 0.0
C692 C 0.16739 0.99326 0.46538 0.0
C693 C 0.16931 0.97387 0.48073 0.0
H694 H 0.15641 0.02964 0.46203 0.0
H695 H 0.17749 0.84749 0.61767 0.0
H696 H 0.75483 0.42609 0.88357 0.0
H697 H 0.7941 0.43695 0.90115 0.0
H698 H 0.76344 0.45645 0.96979 0.0
H699 H 0.72407 0.44659 0.95182 0.0
H700 H 0.79817 0.48777 0.96162 0.0
H701 H 0.78851 0.40075 0.95893 0.0
H702 H 0.77917 0.35956 0.94027 0.0
H703 H 0.83565 0.37055 0.89057 0.0
H704 H 0.8451 0.41196 0.90865 0.0
H705 H 0.91537 0.48673 0.01741 0.0
H706 H 0.87395 0.47197 0.00934 0.0
H707 H 0.88533 0.47368 0.93215 0.0
H708 H 0.92604 0.48912 0.94001 0.0
H709 H 0.85944 0.42861 0.95177 0.0
H710 H 0.86299 0.51778 0.94984 0.0
H711 H 0.87275 0.55895 0.96841 0.0
H712 H 0.82778 0.54241 0.02807 0.0
H713 H 0.81807 0.50094 0.01 0.0
C714 C 0.75657 0.4329 0.90234 0.0
C715 C 0.73661 0.43548 0.91645 0.0
C716 C 0.77894 0.4389 0.91243 0.0
C717 C 0.78172 0.44688 0.93699 0.0
C718 C 0.76171 0.45018 0.95087 0.0
C719 C 0.73929 0.44461 0.94062 0.0
C720 C 0.80553 0.45174 0.94811 0.0
C721 C 0.81138 0.47458 0.9599 0.0
C722 C 0.82287 0.4346 0.94581 0.0
C723 C 0.81742 0.40955 0.93508 0.0
C724 C 0.79886 0.39444 0.94394 0.0
C725 C 0.79354 0.37105 0.93346 0.0
C726 C 0.80678 0.36246 0.91423 0.0
C727 C 0.8254 0.37723 0.90547 0.0
C728 C 0.83076 0.40066 0.91584 0.0
C729 C 0.90893 0.48378 0.9988 0.0
C730 C 0.92363 0.48923 0.97931 0.0
C731 C 0.88543 0.47538 0.99423 0.0
C732 C 0.87682 0.47177 0.97017 0.0
C733 C 0.89179 0.47632 0.9508 0.0
C734 C 0.91492 0.48528 0.95533 0.0
C735 C 0.85189 0.46459 0.9647 0.0
C736 C 0.84593 0.4414 0.95395 0.0
C737 C 0.83443 0.48127 0.96805 0.0
C738 C 0.84008 0.5062 0.97878 0.0
C739 C 0.85539 0.52285 0.96705 0.0
C740 C 0.86087 0.54624 0.97745 0.0
C741 C 0.85096 0.55326 -0.00054 0.0
C742 C 0.83549 0.53692 0.01106 0.0
C743 C 0.83 0.51347 0.00076 0.0
H744 H 0.85521 0.57139 0.00748 0.0
H745 H 0.80263 0.34434 0.90614 0.0
H746 H 0.77528 0.55191 0.48185 0.0
H747 H 0.73524 0.54623 0.4962 0.0
H748 H 0.70838 0.55864 0.42427 0.0
H749 H 0.74805 0.56695 0.41048 0.0
H750 H 0.68372 0.5805 0.45328 0.0
H751 H 0.7097 0.4994 0.45067 0.0
H752 H 0.73503 0.46636 0.46003 0.0
H753 H 0.72192 0.4771 0.53619 0.0
H754 H 0.6967 0.5104 0.52727 0.0
H755 H 0.57568 0.50831 0.44883 0.0
H756 H 0.61709 0.522 0.44625 0.0
H757 H 0.61924 0.54321 0.52265 0.0
H758 H 0.57714 0.53 0.52532 0.0
H759 H 0.65632 0.50839 0.49885 0.0
H760 H 0.62336 0.58718 0.49519 0.0
H761 H 0.59536 0.61525 0.47963 0.0
H762 H 0.61949 0.6026 0.40706 0.0
H763 H 0.64739 0.57418 0.42213 0.0
C764 C 0.76091 0.55382 0.46911 0.0
C765 C 0.76517 0.55988 0.44489 0.0
C766 C 0.73792 0.55015 0.4773 0.0
C767 C 0.71865 0.55168 0.46129 0.0
C768 C 0.72286 0.55738 0.43707 0.0
C769 C 0.74575 0.5617 0.42906 0.0
C770 C 0.69404 0.54778 0.46958 0.0
C771 C 0.67783 0.56465 0.46318 0.0
C772 C 0.68621 0.52737 0.48291 0.0
C773 C 0.70159 0.5076 0.48834 0.0
C774 C 0.71241 0.49486 0.46943 0.0
C775 C 0.7267 0.47606 0.47465 0.0
C776 C 0.73016 0.4697 0.4987 0.0
C777 C 0.71928 0.48209 0.51757 0.0
C778 C 0.70498 0.50092 0.51245 0.0
C779 C 0.58489 0.51593 0.46513 0.0
C780 C 0.57325 0.51802 0.48732 0.0
C781 C 0.6085 0.52381 0.46357 0.0
C782 C 0.62107 0.53361 0.48423 0.0
C783 C 0.60967 0.53572 0.50653 0.0
C784 C 0.58573 0.52826 0.50801 0.0
C785 C 0.64632 0.54079 0.48208 0.0
C786 C 0.66255 0.5245 0.48949 0.0
C787 C 0.65402 0.56117 0.46885 0.0
C788 C 0.63736 0.57842 0.4598 0.0
C789 C 0.62256 0.59023 0.47589 0.0
C790 C 0.60673 0.60624 0.46716 0.0
C791 C 0.60562 0.61068 0.44236 0.0
C792 C 0.62037 0.59915 0.42626 0.0
C793 C 0.63621 0.58312 0.4349 0.0
H794 H 0.59335 0.62308 0.43564 0.0
H795 H 0.74121 0.45512 0.5027 0.0
H796 H 0.06386 0.24647 0.10086 0.0
H797 H 0.04833 0.28357 0.08621 0.0
H798 H 0.11108 0.29797 0.04536 0.0
H799 H 0.12636 0.26039 0.05889 0.0
H800 H 0.09882 0.33793 0.07543 0.0
H801 H 0.0621 0.27971 0.01566 0.0
H802 H 0.03773 0.24255 0.00232 0.0
H803 H 0.97826 0.27003 0.03825 0.0
H804 H 0.00238 0.30724 0.05211 0.0
H805 H 0.06826 0.44242 0.01829 0.0
H806 H 0.08019 0.40131 0.02472 0.0
H807 H 0.00989 0.37939 0.04686 0.0
H808 H 0.99757 0.42009 0.03832 0.0
H809 H 0.02534 0.34224 0.02661 0.0
H810 H 0.0596 0.39803 0.08866 0.0
H811 H 0.0824 0.43498 0.10537 0.0
H812 H 0.14426 0.4119 0.0705 0.0
H813 H 0.12175 0.37494 0.05334 0.0
C814 C 0.07424 0.25714 0.08834 0.0
C815 C 0.09654 0.25021 0.08125 0.0
C816 C 0.06532 0.2785 0.08007 0.0
C817 C 0.07852 0.29359 0.06466 0.0
C818 C 0.10061 0.28669 0.05733 0.0
C819 C 0.10941 0.2652 0.06531 0.0
C820 C 0.06988 0.31716 0.05707 0.0
C821 C 0.08292 0.33887 0.06446 0.0
C822 C 0.04865 0.31847 0.04357 0.0
C823 C 0.03411 0.29616 0.03512 0.0
C824 C 0.04388 0.27775 0.02089 0.0
C825 C 0.0301 0.25669 0.0132 0.0
C826 C 0.00648 0.2539 0.01948 0.0
C827 C 0.99657 0.2722 0.03342 0.0
C828 C 0.01028 0.29329 0.04118 0.0
C829 C 0.05529 0.42863 0.02406 0.0
C830 C 0.03203 0.43437 0.02783 0.0
C831 C 0.06216 0.40517 0.02807 0.0
C832 C 0.04624 0.38724 0.03723 0.0
C833 C 0.02267 0.39276 0.04 0.0
C834 C 0.01559 0.41604 0.03512 0.0
C835 C 0.05442 0.36326 0.0448 0.0
C836 C 0.04126 0.34143 0.03755 0.0
C837 C 0.07529 0.36181 0.05901 0.0
C838 C 0.08895 0.38384 0.06955 0.0
C839 C 0.07804 0.4009 0.08447 0.0
C840 C 0.09091 0.42184 0.09403 0.0
C841 C 0.11475 0.42581 0.08895 0.0
C842 C 0.12579 0.40881 0.07439 0.0
C843 C 0.113 0.38785 0.06477 0.0
H844 H 0.12467 0.44205 0.09634 0.0
H845 H 0.99584 0.23758 0.01351 0.0
H846 H 0.55217 0.26798 0.88435 0.0
H847 H 0.54226 0.22449 0.88949 0.0
H848 H 0.59826 0.22362 0.94323 0.0
H849 H 0.60816 0.26704 0.93826 0.0
H850 H 0.59957 0.18614 0.91011 0.0
H851 H 0.5423 0.22204 0.96043 0.0
H852 H 0.50997 0.24797 0.97034 0.0
H853 H 0.46574 0.20857 0.91581 0.0
H854 H 0.49795 0.18258 0.90536 0.0
H855 H 0.56715 0.09688 0.99168 0.0
H856 H 0.58169 0.12752 0.96403 0.0
H857 H 0.5227 0.1077 0.9151 0.0
H858 H 0.50815 0.07686 0.94306 0.0
H859 H 0.5213 0.15265 0.93546 0.0
H860 H 0.57944 0.11025 0.89357 0.0
H861 H 0.61257 0.08406 0.88932 0.0
H862 H 0.6564 0.13541 0.93399 0.0
H863 H 0.62348 0.16176 0.9388 0.0
C864 C 0.56207 0.25859 0.89757 0.0
C865 C 0.58098 0.27083 0.91085 0.0
C866 C 0.5565 0.23375 0.90036 0.0
C867 C 0.56966 0.22086 0.9166 0.0
C868 C 0.58811 0.23321 0.93036 0.0
C869 C 0.59369 0.25798 0.92757 0.0
C870 C 0.56438 0.19443 0.91928 0.0
C871 C 0.58248 0.17872 0.91568 0.0
C872 C 0.54191 0.1848 0.92588 0.0
C873 C 0.52264 0.20063 0.93185 0.0
C874 C 0.52577 0.2191 0.95035 0.0
C875 C 0.50745 0.23376 0.95612 0.0
C876 C 0.48584 0.22999 0.94364 0.0
C877 C 0.48251 0.21152 0.9254 0.0
C878 C 0.50078 0.19682 0.91955 0.0
C879 C 0.55817 0.09803 0.97427 0.0
C880 C 0.53665 0.0847 0.96933 0.0
C881 C 0.56645 0.11557 0.95843 0.0
C882 C 0.55316 0.12005 0.93757 0.0
C883 C 0.53322 0.10447 0.93109 0.0
C884 C 0.52501 0.08676 0.94693 0.0
C885 C 0.55664 0.1442 0.92685 0.0
C886 C 0.5382 0.15973 0.92905 0.0
C887 C 0.57896 0.15369 0.91957 0.0
C888 C 0.59892 0.13798 0.91656 0.0
C889 C 0.5961 0.11591 0.9026 0.0
C890 C 0.61486 0.10103 0.90007 0.0
C891 C 0.63657 0.10806 0.91138 0.0
C892 C 0.63958 0.13 0.9252 0.0
C893 C 0.62089 0.14495 0.92778 0.0
H894 H 0.65106 0.09651 0.90942 0.0
H895 H 0.47167 0.24134 0.94815 0.0
H896 H 0.89892 0.73865 0.42116 0.0
H897 H 0.91355 0.77989 0.43429 0.0
H898 H 0.96733 0.7511 0.47858 0.0
H899 H 0.95231 0.70939 0.4659 0.0
H900 H 0.94595 0.79046 0.50207 0.0
H901 H 0.98343 0.77345 0.42717 0.0
H902 H 0.98598 0.75892 0.38435 0.0
H903 H 0.93978 0.81266 0.36243 0.0
H904 H 0.93666 0.82728 0.40516 0.0
H905 H 0.00187 0.9166 0.50359 0.0
H906 H 0.99435 0.87186 0.50342 0.0
H907 H 0.93359 0.87655 0.45643 0.0
H908 H 0.94099 0.92064 0.45644 0.0
H909 H 0.96719 0.84727 0.43711 0.0
H910 H 0.92603 0.86045 0.51255 0.0
H911 H 0.9237 0.87551 0.55524 0.0
H912 H 0.97805 0.82987 0.57595 0.0
H913 H 0.98089 0.81474 0.53327 0.0
C914 C 0.91368 0.741 0.43393 0.0
C915 C 0.92444 0.72071 0.44249 0.0
C916 C 0.92213 0.76461 0.4413 0.0
C917 C 0.94165 0.76857 0.45725 0.0
C918 C 0.95227 0.74842 0.46623 0.0
C919 C 0.94381 0.72466 0.45879 0.0
C920 C 0.95114 0.7939 0.46362 0.0
C921 C 0.95107 0.80282 0.48796 0.0
C922 C 0.95779 0.81001 0.44521 0.0
C923 C 0.95971 0.80137 0.41942 0.0
C924 C 0.97368 0.78206 0.41324 0.0
C925 C 0.97525 0.77383 0.38898 0.0
C926 C 0.96303 0.78484 0.37069 0.0
C927 C 0.94924 0.80415 0.37662 0.0
C928 C 0.94759 0.81244 0.40086 0.0
C929 C 0.98656 0.90804 0.49386 0.0
C930 C 0.97219 0.92196 0.47976 0.0
C931 C 0.98234 0.88255 0.49369 0.0
C932 C 0.96361 0.87094 0.47959 0.0
C933 C 0.94829 0.88513 0.46716 0.0
C934 C 0.95253 0.91032 0.46722 0.0
C935 C 0.96096 0.84409 0.47535 0.0
C936 C 0.9625 0.83485 0.45131 0.0
C937 C 0.95577 0.82785 0.49404 0.0
C938 C 0.95386 0.83668 0.51969 0.0
C939 C 0.93762 0.85377 0.52617 0.0
C940 C 0.93617 0.86229 0.55037 0.0
C941 C 0.95076 0.8537 0.56828 0.0
C942 C 0.96678 0.83652 0.56204 0.0
C943 C 0.9683 0.82795 0.53786 0.0
H944 H 0.94958 0.86031 0.58699 0.0
H945 H 0.96427 0.77844 0.35191 0.0
H946 H 0.40054 0.74909 0.60389 0.0
H947 H 0.4169 0.71098 0.59016 0.0
H948 H 0.4432 0.74526 0.52615 0.0
H949 H 0.42722 0.78372 0.54007 0.0
H950 H 0.41496 0.69325 0.52226 0.0
H951 H 0.48238 0.7407 0.56005 0.0
H952 H 0.50198 0.76629 0.59344 0.0
H953 H 0.48779 0.7091 0.64294 0.0
H954 H 0.46775 0.68332 0.60992 0.0
H955 H 0.47791 0.58501 0.49838 0.0
H956 H 0.46864 0.62808 0.49995 0.0
H957 H 0.45829 0.62499 0.57726 0.0
H958 H 0.46765 0.58273 0.57596 0.0
H959 H 0.48317 0.66519 0.56775 0.0
H960 H 0.41413 0.61932 0.53662 0.0
H961 H 0.38872 0.59261 0.50854 0.0
H962 H 0.39804 0.64434 0.45284 0.0
H963 H 0.42468 0.67082 0.48005 0.0
C964 C 0.40967 0.74843 0.58681 0.0
C965 C 0.41267 0.76924 0.57301 0.0
C966 C 0.41901 0.72675 0.57904 0.0
C967 C 0.43121 0.72547 0.5572 0.0
C968 C 0.4338 0.74602 0.54305 0.0
C969 C 0.4248 0.7679 0.55105 0.0
C970 C 0.44172 0.70265 0.54977 0.0
C971 C 0.43026 0.68723 0.53165 0.0
C972 C 0.46114 0.69475 0.56274 0.0
C973 C 0.47342 0.71016 0.58253 0.0
C974 C 0.48326 0.73366 0.57809 0.0
C975 C 0.49449 0.74819 0.59695 0.0
C976 C 0.4961 0.73934 0.6203 0.0
C977 C 0.48653 0.71593 0.62484 0.0
C978 C 0.47526 0.70135 0.60606 0.0
C979 C 0.47386 0.59366 0.5157 0.0
C980 C 0.47348 0.58041 0.53703 0.0
C981 C 0.46848 0.61818 0.51655 0.0
C982 C 0.46275 0.62969 0.53873 0.0
C983 C 0.46279 0.61655 0.55997 0.0
C984 C 0.46805 0.59226 0.55914 0.0
C985 C 0.4562 0.65529 0.5404 0.0
C986 C 0.46835 0.67132 0.55763 0.0
C987 C 0.43689 0.66335 0.52713 0.0
C988 C 0.42193 0.64681 0.51024 0.0
C989 C 0.41134 0.62474 0.51816 0.0
C990 C 0.3967 0.60962 0.50237 0.0
C991 C 0.39208 0.61662 0.47877 0.0
C992 C 0.40208 0.63874 0.47092 0.0
C993 C 0.41703 0.65376 0.48649 0.0
H994 H 0.38056 0.60502 0.46663 0.0
H995 H 0.50479 0.75061 0.63487 0.0
H996 H 0.92326 0.94537 0.77473 0.0
H997 H 0.93527 0.95889 0.73481 0.0
H998 H 0.90734 0.89027 0.70159 0.0
H999 H 0.8945 0.87685 0.74121 0.0
H1000 H 0.95222 0.90609 0.68433 0.0
H1001 H 0.87634 0.93803 0.69728 0.0
H1002 H 0.84781 0.9611 0.72017 0.0
H1003 H 0.89368 0.02628 0.7179 0.0
H1004 H 0.92266 0.00351 0.69533 0.0
H1005 H 0.96757 0.95076 0.56411 0.0
H1006 H 0.94919 0.93105 0.5991 0.0
H1007 H 0.95918 -0.00093 0.64139 0.0
H1008 H 0.97637 0.01868 0.60685 0.0
H1009 H 0.91966 0.97965 0.65185 0.0
H1010 H 0.99701 0.95052 0.6451 0.0
H1011 H 0.02898 0.9299 0.62515 0.0
H1012 H 0.98527 0.86301 0.61877 0.0
H1013 H 0.95287 0.88335 0.63835 0.0
C1014 C 0.91942 0.93318 0.75897 0.0
C1015 C 0.90775 0.90999 0.76139 0.0
C1016 C 0.92646 0.94091 0.73613 0.0
C1017 C 0.92209 0.92564 0.71516 0.0
C1018 C 0.91099 0.90232 0.71751 0.0
C1019 C 0.90375 0.89465 0.74029 0.0
C1020 C 0.92848 0.93429 0.69071 0.0
C1021 C 0.94486 0.92196 0.67701 0.0
C1022 C 0.91926 0.95528 0.68138 0.0
C1023 C 0.90174 0.96901 0.69478 0.0
C1024 C 0.88041 0.95724 0.70182 0.0
C1025 C 0.86415 0.97027 0.71472 0.0
C1026 C 0.86895 0.99513 0.72053 0.0
C1027 C 0.89 0.00702 0.71341 0.0
C1028 C 0.90633 0.99407 0.70055 0.0
C1029 C 0.96535 0.96152 0.58074 0.0
C1030 C 0.9736 0.98626 0.58266 0.0
C1031 C 0.9551 0.9502 0.60084 0.0
C1032 C 0.95308 0.96345 0.62316 0.0
C1033 C 0.96045 0.98833 0.62455 0.0
C1034 C 0.97044 -0.00045 0.60466 0.0
C1035 C 0.94396 0.95189 0.64553 0.0
C1036 C 0.92693 0.96361 0.65891 0.0
C1037 C 0.95309 0.93076 0.65483 0.0
C1038 C 0.97243 0.91854 0.64288 0.0
C1039 C 0.99414 0.93147 0.63923 0.0
C1040 C 0.01234 0.91983 0.62801 0.0
C1041 C 0.00911 0.89519 0.62059 0.0
C1042 C 0.9877 0.88212 0.62444 0.0
C1043 C 0.96941 0.89369 0.63559 0.0
H1044 H 0.02323 0.8862 0.61194 0.0
H1045 H 0.85633 0.00519 0.73051 0.0
H1046 H 0.63458 0.08603 0.25858 0.0
H1047 H 0.62031 0.06968 0.21835 0.0
H1048 H 0.54885 0.06916 0.24283 0.0
H1049 H 0.56325 0.08548 0.28314 0.0
H1050 H 0.55615 0.02772 0.21587 0.0
H1051 H 0.56855 0.11321 0.20853 0.0
H1052 H 0.58957 0.15398 0.21166 0.0
H1053 H 0.64177 0.12952 0.16292 0.0
H1054 H 0.62122 0.08845 0.15979 0.0
H1055 H 0.49644 0.03701 0.10136 0.0
H1056 H 0.51309 0.04003 0.14279 0.0
H1057 H 0.58189 0.02989 0.11451 0.0
H1058 H 0.56502 0.02626 0.07287 0.0
H1059 H 0.57749 0.07408 0.14317 0.0
H1060 H 0.55934 0.98781 0.14865 0.0
H1061 H 0.53368 0.94977 0.14495 0.0
H1062 H 0.48678 0.97924 0.19679 0.0
H1063 H 0.51201 0.01759 0.20057 0.0
C1064 C 0.61587 0.08224 0.25528 0.0
C1065 C 0.59992 0.0869 0.27366 0.0
C1066 C 0.60773 0.07299 0.23239 0.0
C1067 C 0.58351 0.06835 0.22757 0.0
C1068 C 0.56759 0.07255 0.2462 0.0
C1069 C 0.57576 0.08191 0.26909 0.0
C1070 C 0.57484 0.05983 0.20286 0.0
C1071 C 0.56069 0.03791 0.19998 0.0
C1072 C 0.58089 0.07308 0.18213 0.0
C1073 C 0.59352 0.09765 0.1842 0.0
C1074 C 0.58466 0.11643 0.1987 0.0
C1075 C 0.59646 0.13962 0.20043 0.0
C1076 C 0.61704 0.14431 0.18757 0.0
C1077 C 0.62585 0.12584 0.17292 0.0
C1078 C 0.61414 0.1026 0.17116 0.0
C1079 C 0.51496 0.03455 0.10413 0.0
C1080 C 0.52949 0.03119 0.08416 0.0
C1081 C 0.52445 0.03629 0.12773 0.0
C1082 C 0.54869 0.03515 0.13168 0.0
C1083 C 0.56311 0.03065 0.11178 0.0
C1084 C 0.55349 0.02842 0.08811 0.0
C1085 C 0.55909 0.0418 0.15612 0.0
C1086 C 0.57337 0.06361 0.159 0.0
C1087 C 0.55262 0.02877 0.17684 0.0
C1088 C 0.53751 0.00565 0.17477 0.0
C1089 C 0.54347 0.98625 0.15913 0.0
C1090 C 0.52902 0.96462 0.15705 0.0
C1091 C 0.50859 0.9621 0.17059 0.0
C1092 C 0.50261 0.98121 0.18631 0.0
C1093 C 0.517 0.00288 0.18846 0.0
H1094 H 0.49742 0.94535 0.16894 0.0
H1095 H 0.62613 0.16229 0.1889 0.0
H1096 H 0.44056 0.58183 0.24262 0.0
H1097 H 0.45076 0.57108 0.28383 0.0
H1098 H 0.38874 0.60288 0.31071 0.0
H1099 H 0.37917 0.61508 0.26979 0.0
H1100 H 0.42507 0.61436 0.34062 0.0
H1101 H 0.38994 0.54061 0.30188 0.0
H1102 H 0.38429 0.50826 0.26941 0.0
H1103 H 0.45527 0.48922 0.2806 0.0
H1104 H 0.46145 0.52165 0.31291 0.0
H1105 H 0.44396 0.53584 0.4481 0.0
H1106 H 0.42465 0.55759 0.4158 0.0
H1107 H 0.4876 0.5566 0.3737 0.0
H1108 H 0.50671 0.53516 0.40539 0.0
H1109 H 0.44225 0.52901 0.35503 0.0
H1110 H 0.47723 0.60455 0.39351 0.0
H1111 H 0.48226 0.63765 0.42508 0.0
H1112 H 0.41083 0.65485 0.41325 0.0
H1113 H 0.40483 0.62074 0.38282 0.0
C1114 C 0.42927 0.58686 0.25733 0.0
C1115 C 0.40895 0.5991 0.25291 0.0
C1116 C 0.43495 0.58044 0.28082 0.0
C1117 C 0.42018 0.58572 0.30016 0.0
C1118 C 0.40021 0.59844 0.29595 0.0
C1119 C 0.39467 0.60515 0.27252 0.0
C1120 C 0.4257 0.5779 0.32479 0.0
C1121 C 0.4284 0.59561 0.34398 0.0
C1122 C 0.42996 0.55343 0.32898 0.0
C1123 C 0.42618 0.53365 0.30976 0.0
C1124 C 0.40438 0.5296 0.29734 0.0
C1125 C 0.40108 0.51124 0.27896 0.0
C1126 C 0.41942 0.49671 0.27293 0.0
C1127 C 0.44108 0.50047 0.2853 0.0
C1128 C 0.44447 0.51881 0.30367 0.0
C1129 C 0.45378 0.54104 0.43226 0.0
C1130 C 0.47656 0.53353 0.42883 0.0
C1131 C 0.44281 0.55339 0.41394 0.0
C1132 C 0.45479 0.55844 0.39249 0.0
C1133 C 0.47817 0.55276 0.39018 0.0
C1134 C 0.48898 0.54044 0.40821 0.0
C1135 C 0.44244 0.56563 0.37061 0.0
C1136 C 0.43834 0.54766 0.35187 0.0
C1137 C 0.43689 0.58982 0.36697 0.0
C1138 C 0.44038 0.60954 0.38627 0.0
C1139 C 0.46232 0.61478 0.39818 0.0
C1140 C 0.46537 0.6338 0.4159 0.0
C1141 C 0.44677 0.64812 0.42147 0.0
C1142 C 0.4251 0.64347 0.4093 0.0
C1143 C 0.42182 0.62418 0.39193 0.0
H1144 H 0.44921 0.66297 0.43504 0.0
H1145 H 0.41684 0.48253 0.25868 0.0
H1146 H 0.10216 0.47238 0.74153 0.0
H1147 H 0.09199 0.47741 0.78435 0.0
H1148 H 0.03793 0.41868 0.77453 0.0
H1149 H 0.04806 0.41345 0.73176 0.0
H1150 H 0.02328 0.45725 0.8016 0.0
H1151 H 0.09047 0.4086 0.80035 0.0
H1152 H 0.13087 0.39984 0.78955 0.0
H1153 H 0.15798 0.46482 0.82964 0.0
H1154 H 0.1177 0.47415 0.84039 0.0
H1155 H -0.00076 0.45124 0.92376 0.0
H1156 H 0.01449 0.43435 0.88575 0.0
H1157 H 0.07124 0.49071 0.88913 0.0
H1158 H 0.05622 0.50719 0.92727 0.0
H1159 H 0.08452 0.44979 0.86568 0.0
H1160 H 0.02018 0.50162 0.86324 0.0
H1161 H 0.98075 0.51422 0.87326 0.0
H1162 H 0.94931 0.44777 0.8392 0.0
H1163 H 0.98863 0.43459 0.82934 0.0
C1164 C 0.08809 0.46057 0.7485 0.0
C1165 C 0.076 0.44243 0.73332 0.0
C1166 C 0.08233 0.46343 0.77294 0.0
C1167 C 0.06451 0.44809 0.78267 0.0
C1168 C 0.05181 0.43062 0.76737 0.0
C1169 C 0.05753 0.42776 0.74291 0.0
C1170 C 0.0593 0.45006 0.80888 0.0
C1171 C 0.03654 0.45515 0.81562 0.0
C1172 C 0.07681 0.44798 0.82711 0.0
C1173 C 0.10106 0.44215 0.82103 0.0
C1174 C 0.10504 0.42108 0.80676 0.0
C1175 C 0.12792 0.41602 0.80065 0.0
C1176 C 0.14697 0.43179 0.80887 0.0
C1177 C 0.1432 0.45263 0.82328 0.0
C1178 C 0.12036 0.4578 0.82941 0.0
C1179 C 0.01571 0.45905 0.91704 0.0
C1180 C 0.0268 0.48024 0.92833 0.0
C1181 C 0.02425 0.44963 0.89524 0.0
C1182 C 0.04365 0.46167 0.88439 0.0
C1183 C 0.05623 0.48119 0.89717 0.0
C1184 C 0.04775 0.49051 0.919 0.0
C1185 C 0.04847 0.4568 0.85838 0.0
C1186 C 0.07116 0.4514 0.85165 0.0
C1187 C 0.03101 0.45904 0.84009 0.0
C1188 C 0.00734 0.46698 0.84584 0.0
C1189 C 0.00487 0.48961 0.85806 0.0
C1190 C 0.98254 0.49687 0.8637 0.0
C1191 C 0.96254 0.48177 0.85694 0.0
C1192 C 0.96483 0.45941 0.84448 0.0
C1193 C 0.98713 0.45203 0.83887 0.0
H1194 H 0.94527 0.48742 0.86131 0.0
H1195 H 0.16467 0.42785 0.80411 0.0
H1196 H 0.73315 0.90013 0.89416 0.0
H1197 H 0.69775 0.91884 0.90815 0.0
H1198 H 0.73943 0.96304 0.96183 0.0
H1199 H 0.77495 0.94456 0.94777 0.0
H1200 H 0.69665 0.93827 0.97951 0.0
H1201 H 0.72245 0.98969 0.91423 0.0
H1202 H 0.73428 0.99666 0.87208 0.0
H1203 H 0.66757 0.9642 0.84526 0.0
H1204 H 0.65547 0.95674 0.88725 0.0
H1205 H 0.60377 0.00589 0.0198 0.0
H1206 H 0.64256 0.99678 0.00472 0.0
H1207 H 0.61048 0.97112 0.93573 0.0
H1208 H 0.57225 0.98198 0.95029 0.0
H1209 H 0.6503 0.98808 0.92598 0.0
H1210 H 0.62416 0.93247 0.98581 0.0
H1211 H 0.6102 0.91946 0.02568 0.0
H1212 H 0.67383 0.95166 0.06014 0.0
H1213 H 0.68804 0.96515 0.02049 0.0
C1214 C 0.73476 0.91377 0.909 0.0
C1215 C 0.75687 0.92087 0.91985 0.0
C1216 C 0.71454 0.92454 0.91689 0.0
C1217 C 0.71595 0.94244 0.93596 0.0
C1218 C 0.73794 0.94932 0.94705 0.0
C1219 C 0.75822 0.93883 0.93893 0.0
C1220 C 0.69446 0.95381 0.94445 0.0
C1221 C 0.68668 0.94951 0.968 0.0
C1222 C 0.68098 0.96766 0.92908 0.0
C1223 C 0.68813 0.97251 0.90387 0.0
C1224 C 0.71036 0.98391 0.89934 0.0
C1225 C 0.71711 0.98796 0.87548 0.0
C1226 C 0.7017 0.98084 0.856 0.0
C1227 C 0.67949 0.96971 0.86036 0.0
C1228 C 0.67267 0.96559 0.88418 0.0
C1229 C 0.60528 -0.00081 0.00113 0.0
C1230 C 0.58518 0.99503 0.98603 0.0
C1231 C 0.62737 0.99352 0.99261 0.0
C1232 C 0.62957 0.98246 0.96924 0.0
C1233 C 0.60952 0.97954 0.9538 0.0
C1234 C 0.58761 0.98587 0.96208 0.0
C1235 C 0.6522 0.9726 0.96128 0.0
C1236 C 0.66023 0.97705 0.93774 0.0
C1237 C 0.6655 0.95812 0.97638 0.0
C1238 C 0.65702 0.95007 0.00024 0.0
C1239 C 0.63509 0.93693 0.00192 0.0
C1240 C 0.62715 0.92945 0.02447 0.0
C1241 C 0.64109 0.9348 0.04545 0.0
C1242 C 0.66303 0.94759 0.04389 0.0
C1243 C 0.67104 0.95514 0.02139 0.0
H1244 H 0.63491 0.92899 0.06289 0.0
H1245 H 0.70696 0.98398 0.83754 0.0
H1246 H 0.76323 0.0898 0.3972 0.0
H1247 H 0.80206 0.07702 0.40827 0.0
H1248 H 0.78755 0.08992 0.48431 0.0
H1249 H 0.74911 0.10415 0.47296 0.0
H1250 H 0.83037 0.10497 0.47728 0.0
H1251 H 0.78528 0.03037 0.45493 0.0
H1252 H 0.75922 0.00205 0.4289 0.0
H1253 H 0.81042 0.00384 0.37271 0.0
H1254 H 0.83666 0.0324 0.39828 0.0
H1255 H 0.92862 0.0365 0.5123 0.0
H1256 H 0.88972 0.05217 0.50696 0.0
H1257 H 0.89862 0.05087 0.42926 0.0
H1258 H 0.93711 0.03505 0.43436 0.0
H1259 H 0.85743 0.02807 0.44096 0.0
H1260 H 0.90171 0.1043 0.46382 0.0
H1261 H 0.92764 0.13167 0.49093 0.0
H1262 H 0.87745 0.12514 0.54786 0.0
H1263 H 0.85137 0.09743 0.5212 0.0
C1264 C 0.76841 0.08982 0.41625 0.0
C1265 C 0.75331 0.09768 0.43429 0.0
C1266 C 0.7905 0.08239 0.42261 0.0
C1267 C 0.79759 0.08189 0.44719 0.0
C1268 C 0.78248 0.09001 0.46524 0.0
C1269 C 0.76055 0.09802 0.45882 0.0
C1270 C 0.82085 0.07317 0.4539 0.0
C1271 C 0.83611 0.08794 0.46964 0.0
C1272 C 0.82855 0.05106 0.44381 0.0
C1273 C 0.81287 0.03366 0.42848 0.0
C1274 C 0.79093 0.02482 0.43698 0.0
C1275 C 0.77613 0.00872 0.4223 0.0
C1276 C 0.78314 0.00119 0.39915 0.0
C1277 C 0.805 0.00969 0.39065 0.0
C1278 C 0.81986 0.02581 0.40523 0.0
C1279 C 0.9224 0.03991 0.49413 0.0
C1280 C 0.93587 0.03436 0.47375 0.0
C1281 C 0.90019 0.04887 0.49111 0.0
C1282 C 0.89125 0.05261 0.46769 0.0
C1283 C 0.90509 0.04794 0.44747 0.0
C1284 C 0.92714 0.03895 0.45045 0.0
C1285 C 0.86703 0.06012 0.46382 0.0
C1286 C 0.85157 0.04501 0.44871 0.0
C1287 C 0.85913 0.08174 0.47468 0.0
C1288 C 0.87471 0.09859 0.4906 0.0
C1289 C 0.89629 0.10855 0.48218 0.0
C1290 C 0.911 0.12415 0.49746 0.0
C1291 C 0.90422 0.13009 0.52112 0.0
C1292 C 0.88269 0.1205 0.52953 0.0
C1293 C 0.86793 0.10486 0.51435 0.0
H1294 H 0.91564 0.14216 0.53292 0.0
H1295 H 0.77165 0.98873 0.38782 0.0
H1296 H 0.24476 0.6229 0.10559 0.0
H1297 H 0.20525 0.61178 0.08904 0.0
H1298 H 0.23093 0.54974 0.04979 0.0
H1299 H 0.2708 0.5615 0.0657 0.0
H1300 H 0.20344 0.5715 0.02143 0.0
H1301 H 0.19704 0.54375 0.10193 0.0
H1302 H 0.19998 0.5454 0.14675 0.0
H1303 H 0.15241 0.60246 0.1501 0.0
H1304 H 0.14943 0.60141 0.10529 0.0
H1305 H 0.08531 0.5161 0.0009 0.0
H1306 H 0.12718 0.52748 0.00836 0.0
H1307 H 0.11 0.59523 0.04385 0.0
H1308 H 0.06822 0.58366 0.03695 0.0
H1309 H 0.13354 0.56722 0.07362 0.0
H1310 H 0.14155 0.59424 0.99128 0.0
H1311 H 0.13765 0.58896 0.94661 0.0
H1312 H 0.18137 0.52858 0.94751 0.0
H1313 H 0.1853 0.53334 0.99222 0.0
C1314 C 0.24187 0.60682 0.09354 0.0
C1315 C 0.26063 0.59297 0.08688 0.0
C1316 C 0.21932 0.60039 0.0842 0.0
C1317 C 0.21506 0.57969 0.0685 0.0
C1318 C 0.23384 0.56577 0.0619 0.0
C1319 C 0.25652 0.57245 0.07094 0.0
C1320 C 0.19116 0.57324 0.05826 0.0
C1321 C 0.18818 0.57022 0.03288 0.0
C1322 C 0.17124 0.57176 0.07319 0.0
C1323 C 0.1732 0.57265 0.1002 0.0
C1324 C 0.18738 0.55681 0.1122 0.0
C1325 C 0.18901 0.55761 0.13762 0.0
C1326 C 0.17644 0.57407 0.15126 0.0
C1327 C 0.16217 0.58974 0.13951 0.0
C1328 C 0.16048 0.58904 0.1141 0.0
C1329 C 0.09056 0.53385 0.00935 0.0
C1330 C 0.0737 0.54893 0.01864 0.0
C1331 C 0.11446 0.5403 0.01368 0.0
C1332 C 0.12159 0.56206 0.02692 0.0
C1333 C 0.10478 0.57826 0.03382 0.0
C1334 C 0.08098 0.57171 0.02976 0.0
C1335 C 0.14583 0.56628 0.03684 0.0
C1336 C 0.14884 0.5686 0.06222 0.0
C1337 C 0.16572 0.56668 0.02196 0.0
C1338 C 0.16356 0.56403 0.99509 0.0
C1339 C 0.1502 0.57974 0.98195 0.0
C1340 C 0.14801 0.57686 0.95663 0.0
C1341 C 0.15921 0.55841 0.94423 0.0
C1342 C 0.17269 0.54286 0.95713 0.0
C1343 C 0.17493 0.54566 0.98245 0.0
H1344 H 0.15748 0.5562 0.92463 0.0
H1345 H 0.17771 0.57464 0.17093 0.0
H1346 H 0.24587 0.41667 0.59545 0.0
H1347 H 0.28502 0.42722 0.5806 0.0
H1348 H 0.25682 0.47921 0.53351 0.0
H1349 H 0.21713 0.46801 0.54778 0.0
H1350 H 0.28748 0.4522 0.50968 0.0
H1351 H 0.28867 0.49932 0.58386 0.0
H1352 H 0.28307 0.50871 0.62749 0.0
H1353 H 0.33215 0.45647 0.64607 0.0
H1354 H 0.33781 0.44649 0.60256 0.0
H1355 H 0.41087 0.49893 0.49626 0.0
H1356 H 0.36794 0.49232 0.49887 0.0
H1357 H 0.37657 0.43296 0.54621 0.0
H1358 H 0.41917 0.43974 0.54396 0.0
H1359 H 0.35459 0.47153 0.56754 0.0
H1360 H 0.34988 0.42249 0.49168 0.0
H1361 H 0.35565 0.41529 0.44773 0.0
H1362 H 0.31376 0.47481 0.43223 0.0
H1363 H 0.30797 0.48255 0.47614 0.0
C1364 C 0.24792 0.43027 0.58185 0.0
C1365 C 0.22838 0.4414 0.57267 0.0
C1366 C 0.27037 0.43648 0.57355 0.0
C1367 C 0.27389 0.4542 0.55613 0.0
C1368 C 0.25448 0.46554 0.54702 0.0
C1369 C 0.23189 0.45928 0.55532 0.0
C1370 C 0.29789 0.46012 0.54723 0.0
C1371 C 0.30214 0.45688 0.52226 0.0
C1372 C 0.317 0.46623 0.56364 0.0
C1373 C 0.31354 0.47205 0.5899 0.0
C1374 C 0.29813 0.48968 0.59724 0.0
C1375 C 0.29497 0.49514 0.62196 0.0
C1376 C 0.30722 0.48317 0.63954 0.0
C1377 C 0.32267 0.46573 0.63243 0.0
C1378 C 0.32588 0.46019 0.60774 0.0
C1379 C 0.40351 0.48378 0.50627 0.0
C1380 C 0.41819 0.46993 0.52007 0.0
C1381 C 0.37902 0.48011 0.50787 0.0
C1382 C 0.36916 0.46239 0.52304 0.0
C1383 C 0.38387 0.44687 0.5346 0.0
C1384 C 0.40818 0.45065 0.53319 0.0
C1385 C 0.34429 0.46234 0.53023 0.0
C1386 C 0.33991 0.46704 0.55493 0.0
C1387 C 0.32518 0.45792 0.51354 0.0
C1388 C 0.32873 0.45328 0.48719 0.0
C1389 C 0.3421 0.4342 0.47891 0.0
C1390 C 0.34532 0.42998 0.45401 0.0
C1391 C 0.33514 0.44463 0.4372 0.0
C1392 C 0.32166 0.4635 0.44527 0.0
C1393 C 0.31839 0.4678 0.47015 0.0
H1394 H 0.33765 0.44133 0.41793 0.0
H1395 H 0.30476 0.48743 0.65866 0.0
H1396 H 0.87658 0.75103 0.94795 0.0
H1397 H 0.89263 0.71451 0.96366 0.0
H1398 H 0.95768 0.73178 0.92726 0.0
H1399 H 0.94125 0.76763 0.91075 0.0
H1400 H 0.94684 0.68622 0.92038 0.0
H1401 H 0.94924 0.73992 0.99261 0.0
H1402 H 0.93213 0.76663 0.02368 0.0
H1403 H 0.88428 0.70725 0.04332 0.0
H1404 H 0.90095 0.68026 0.01218 0.0
H1405 H 0.01918 0.60589 0.97366 0.0
H1406 H 0.00189 0.64413 0.96552 0.0
H1407 H 0.93739 0.61765 0.99813 0.0
H1408 H 0.95493 0.57939 0.0069 0.0
H1409 H 0.9457 0.66635 0.00746 0.0
H1410 H 0.94379 0.61251 0.93653 0.0
H1411 H 0.9602 0.58548 0.90529 0.0
H1412 H 0.00634 0.64502 0.88279 0.0
H1413 H 0.99042 0.67234 0.91413 0.0
C1414 C 0.89436 0.74708 0.94349 0.0
C1415 C 0.90766 0.7622 0.92813 0.0
C1416 C 0.9036 0.72623 0.95257 0.0
C1417 C 0.92659 0.7204 0.94703 0.0
C1418 C 0.93991 0.73571 0.93184 0.0
C1419 C 0.93053 0.75625 0.92241 0.0
C1420 C 0.93664 0.69803 0.95624 0.0
C1421 C 0.94687 0.68217 0.9395 0.0
C1422 C 0.93602 0.69202 0.98106 0.0
C1423 C 0.92621 0.70815 -5e-05 0.0
C1424 C 0.93499 0.73261 0.00348 0.0
C1425 C 0.92539 0.74779 0.02111 0.0
C1426 C 0.9071 0.73866 0.03542 0.0
C1427 C 0.89843 0.71431 0.0322 0.0
C1428 C 0.90797 0.69905 0.01459 0.0
C1429 C 0.00152 0.60845 0.9797 0.0
C1430 C 0.9884 0.58957 0.99084 0.0
C1431 C 0.99156 0.63026 0.97483 0.0
C1432 C 0.96808 0.63356 0.98055 0.0
C1433 C 0.95548 0.61549 0.99335 0.0
C1434 C 0.96557 0.59367 0.9985 0.0
C1435 C 0.95641 0.65507 0.97167 0.0
C1436 C 0.94572 0.67056 0.98838 0.0
C1437 C 0.95654 0.66078 0.94679 0.0
C1438 C 0.96605 0.64441 0.92783 0.0
C1439 C 0.95755 0.6198 0.92503 0.0
C1440 C 0.96675 0.60443 0.90729 0.0
C1441 C 0.98434 0.61352 0.8921 0.0
C1442 C 0.99273 0.638 0.89459 0.0
C1443 C 0.98361 0.65344 0.91232 0.0
H1444 H 0.99144 0.60159 0.87838 0.0
H1445 H 0.89967 0.75044 0.04905 0.0
H1446 H 0.43032 0.74833 0.07075 0.0
H1447 H 0.44131 0.78983 0.05973 0.0
H1448 H 0.40966 0.81781 0.1248 0.0
H1449 H 0.397 0.77622 0.13513 0.0
H1450 H 0.3993 0.84423 0.08776 0.0
H1451 H 0.47046 0.81706 0.12063 0.0
H1452 H 0.50186 0.78906 0.12609 0.0
H1453 H 0.51982 0.79458 0.05102 0.0
H1454 H 0.48835 0.82235 0.04501 0.0
H1455 H 0.47339 0.957 0.05483 0.0
H1456 H 0.45386 0.92491 0.07884 0.0
H1457 H 0.45254 0.87488 0.01622 0.0
H1458 H 0.47175 0.90644 0.99238 0.0
H1459 H 0.48099 0.86524 0.06253 0.0
H1460 H 0.40478 0.88567 0.02897 0.0
H1461 H 0.37375 0.91406 0.02333 0.0
H1462 H 0.36676 0.92223 0.10076 0.0
H1463 H 0.39801 0.89411 0.10683 0.0
C1464 C 0.42538 0.76325 0.0826 0.0
C1465 C 0.4128 0.75887 0.10386 0.0
C1466 C 0.43201 0.787 0.07646 0.0
C1467 C 0.42678 0.80689 0.09176 0.0
C1468 C 0.41407 0.80269 0.11289 0.0
C1469 C 0.40708 0.77889 0.11887 0.0
C1470 C 0.43434 0.83198 0.08518 0.0
C1471 C 0.41728 0.84901 0.08276 0.0
C1472 C 0.45783 0.83829 0.07876 0.0
C1473 C 0.47697 0.82175 0.08237 0.0
C1474 C 0.48104 0.81222 0.10526 0.0
C1475 C 0.49886 0.79639 0.10845 0.0
C1476 C 0.51281 0.79003 0.08891 0.0
C1477 C 0.50901 0.79953 0.06614 0.0
C1478 C 0.49122 0.81536 0.06285 0.0
C1479 C 0.46817 0.93938 0.04609 0.0
C1480 C 0.47439 0.93393 0.02198 0.0
C1481 C 0.45711 0.92115 0.05976 0.0
C1482 C 0.45208 0.89764 0.04921 0.0
C1483 C 0.45644 0.89295 0.02459 0.0
C1484 C 0.46745 0.91096 0.01106 0.0
C1485 C 0.44577 0.87674 0.06409 0.0
C1486 C 0.46317 0.8606 0.06821 0.0
C1487 C 0.42274 0.87134 0.07205 0.0
C1488 C 0.40393 0.88809 0.06836 0.0
C1489 C 0.39681 0.89373 0.04479 0.0
C1490 C 0.37913 0.90971 0.04151 0.0
C1491 C 0.36836 0.92002 0.06167 0.0
C1492 C 0.37516 0.91429 0.08516 0.0
C1493 C 0.39284 0.89832 0.08852 0.0
H1494 H 0.35468 0.9324 0.0591 0.0
H1495 H 0.52658 0.77776 0.09141 0.0
H1496 H 0.02744 0.28853 0.58183 0.0
H1497 H 0.01197 0.24892 0.56434 0.0
H1498 H 0.08054 0.23582 0.53697 0.0
H1499 H 0.0956 0.27596 0.55259 0.0
H1500 H 0.05029 0.21967 0.50479 0.0
H1501 H 0.05765 0.21157 0.59131 0.0
H1502 H 0.0506 0.22076 0.63471 0.0
H1503 H 0.97652 0.20407 0.62248 0.0
H1504 H 0.98312 0.19506 0.57891 0.0
H1505 H 0.06196 0.09412 0.51522 0.0
H1506 H 0.06176 0.13837 0.51396 0.0
H1507 H 0.98638 0.13309 0.52104 0.0
H1508 H 0.98663 0.08845 0.52202 0.0
H1509 H 0.0108 0.16022 0.55857 0.0
H1510 H 0.00943 0.15843 0.47144 0.0
H1511 H 0.0222 0.14505 0.43076 0.0
H1512 H 0.092 0.17659 0.44732 0.0
H1513 H 0.07976 0.18985 0.48822 0.0
C1514 C 0.03914 0.27743 0.57171 0.0
C1515 C 0.06289 0.28546 0.56889 0.0
C1516 C 0.03031 0.25461 0.56195 0.0
C1517 C 0.04514 0.23916 0.54962 0.0
C1518 C 0.06869 0.24734 0.54641 0.0
C1519 C 0.07741 0.27023 0.55574 0.0
C1520 C 0.03661 0.21417 0.54055 0.0
C1521 C 0.04165 0.20668 0.51658 0.0
C1522 C 0.02488 0.19727 0.5557 0.0
C1523 C 0.02083 0.20303 0.5818 0.0
C1524 C 0.03983 0.21011 0.59783 0.0
C1525 C 0.03592 0.21523 0.62247 0.0
C1526 C 0.01311 0.21311 0.63133 0.0
C1527 C 0.99417 0.2058 0.61558 0.0
C1528 C 0.99798 0.20069 0.59091 0.0
C1529 C 0.04525 0.10235 0.51521 0.0
C1530 C 0.02429 0.08808 0.51838 0.0
C1531 C 0.04513 0.12763 0.51457 0.0
C1532 C 0.02405 0.13902 0.51738 0.0
C1533 C 0.0028 0.1246 0.51869 0.0
C1534 C 0.0029 0.09917 0.51899 0.0
C1535 C 0.02512 0.16563 0.52313 0.0
C1536 C 0.01875 0.17343 0.54655 0.0
C1537 C 0.03638 0.18254 0.50778 0.0
C1538 C 0.04365 0.17514 0.48293 0.0
C1539 C 0.02752 0.16245 0.46644 0.0
C1540 C 0.03467 0.15488 0.44334 0.0
C1541 C 0.05789 0.15997 0.43646 0.0
C1542 C 0.074 0.1727 0.45265 0.0
C1543 C 0.06695 0.1803 0.47578 0.0
H1544 H 0.0634 0.15405 0.41858 0.0
H1545 H 0.01013 0.21705 0.65041 0.0
H1546 H 0.61454 0.25154 0.47055 0.0
H1547 H 0.5964 0.28842 0.48491 0.0
H1548 H 0.5545 0.28657 0.41868 0.0
H1549 H 0.57203 0.24955 0.40447 0.0
H1550 H 0.57613 0.33177 0.42983 0.0
H1551 H 0.5298 0.26946 0.46995 0.0
H1552 H 0.52325 0.2346 0.4963 0.0
H1553 H 0.55488 0.27748 0.55695 0.0
H1554 H 0.56191 0.31251 0.53084 0.0
H1555 H 0.48651 0.40834 0.45249 0.0
H1556 H 0.50621 0.3707 0.44718 0.0
H1557 H 0.54752 0.38893 0.51271 0.0
H1558 H 0.52802 0.4271 0.51813 0.0
H1559 H 0.53016 0.33752 0.50528 0.0
H1560 H 0.57329 0.40122 0.46501 0.0
H1561 H 0.57897 0.43574 0.4381 0.0
H1562 H 0.5529 0.38985 0.37698 0.0
H1563 H 0.54664 0.35515 0.40361 0.0
C1564 C 0.60124 0.25881 0.45919 0.0
C1565 C 0.59484 0.24766 0.43629 0.0
C1566 C 0.59097 0.27992 0.46738 0.0
C1567 C 0.57413 0.29018 0.45284 0.0
C1568 C 0.5676 0.27902 0.4301 0.0
C1569 C 0.57773 0.25792 0.42197 0.0
C1570 C 0.56346 0.31281 0.46094 0.0
C1571 C 0.56595 0.33297 0.44623 0.0
C1572 C 0.55076 0.31454 0.48271 0.0
C1573 C 0.54665 0.29349 0.49838 0.0
C1574 C 0.53557 0.27138 0.48885 0.0
C1575 C 0.53172 0.2516 0.50375 0.0
C1576 C 0.53872 0.2538 0.52826 0.0
C1577 C 0.54952 0.27579 0.53794 0.0
C1578 C 0.55343 0.29561 0.52311 0.0
C1579 C 0.49945 0.40422 0.46609 0.0
C1580 C 0.5059 0.42087 0.4856 0.0
C1581 C 0.51075 0.38273 0.46294 0.0
C1582 C 0.52856 0.37736 0.47931 0.0
C1583 C 0.53387 0.39293 0.49983 0.0
C1584 C 0.52268 0.41466 0.50292 0.0
C1585 C 0.54244 0.3562 0.47387 0.0
C1586 C 0.5406 0.33638 0.48905 0.0
C1587 C 0.5557 0.35472 0.45246 0.0
C1588 C 0.55926 0.37563 0.43639 0.0
C1589 C 0.56851 0.39854 0.44589 0.0
C1590 C 0.57189 0.41814 0.43067 0.0
C1591 C 0.56625 0.415 0.40586 0.0
C1592 C 0.55723 0.39226 0.39621 0.0
C1593 C 0.55377 0.37262 0.41137 0.0
H1594 H 0.56891 0.43018 0.3941 0.0
H1595 H 0.5357 0.23848 0.53978 0.0
loop_
_geom_bond_atom_site_label_1
_geom_bond_atom_site_label_2
_geom_bond_distance
_geom_bond_site_symmetry_2
_ccdc_geom_bond_type
C0 C1 1.386 . S
C0 C2 1.397 . S
C0 H24 0.931 . S
C1 C0 1.386 . S
C1 C5 1.397 . S
C2 C0 1.397 . S
C2 C3 1.384 . S
C2 H25 0.930 . S
C3 C2 1.384 . S
C3 C4 1.377 . S
C3 C6 1.481 . S
C4 C3 1.377 . S
C4 C5 1.389 . S
C4 H26 0.929 . S
C5 C1 1.397 . S
C5 C4 1.389 . S
C5 H27 0.931 . S
C6 C3 1.481 . S
C6 C7 1.387 . S
C6 C11 1.390 . S
C7 C6 1.387 . S
C7 C8 1.401 . S
C7 H28 0.930 . S
C8 C7 1.401 . S
C8 C9 1.376 . S
C8 C17 1.511 . S
C9 C8 1.376 . S
C9 C10 1.392 . S
C9 H30 0.931 . S
C10 C9 1.392 . S
C10 C11 1.361 . S
C10 C12 1.500 . S
C11 C6 1.390 . S
C11 C10 1.361 . S
C11 H29 0.931 . S
C12 C10 1.500 . S
C12 C13 1.371 . S
C12 C14 1.365 . S
C13 C12 1.371 . S
C13 C23 1.386 . S
C13 H31 0.931 . S
C14 C12 1.365 . S
C14 C15 1.409 . S
C14 H32 0.929 . S
C15 C14 1.409 . S
C15 C16 1.380 . S
C15 H33 0.930 . S
C16 C15 1.380 . S
C16 C23 1.357 . S
C17 C8 1.511 . S
C17 C18 1.341 . S
C17 C19 1.371 . S
C18 C17 1.341 . S
C18 C22 1.394 . S
C18 H34 0.930 . S
C19 C17 1.371 . S
C19 C20 1.392 . S
C19 H35 0.931 . S
C20 C19 1.392 . S
C20 C21 1.331 . S
C20 H38 0.932 . S
C21 C20 1.331 . S
C21 C22 1.336 . S
C22 C18 1.394 . S
C22 C21 1.336 . S
C22 H37 0.929 . S
C23 C13 1.386 . S
C23 C16 1.357 . S
C23 H36 0.928 . S
H24 C0 0.931 . S
H25 C2 0.930 . S
H26 C4 0.929 . S
H27 C5 0.931 . S
H28 C7 0.930 . S
H29 C11 0.931 . S
H30 C9 0.931 . S
H31 C13 0.931 . S
H32 C14 0.929 . S
H33 C15 0.930 . S
H34 C18 0.930 . S
H35 C19 0.931 . S
H36 C23 0.928 . S
H37 C22 0.929 . S
H38 C20 0.932 . S
C39 C40 1.386 . S
C39 C41 1.397 . S
C39 H63 0.931 . S
C40 C39 1.386 . S
C40 C44 1.397 . S
C41 C39 1.397 . S
C41 C42 1.384 . S
C41 H64 0.930 . S
C42 C41 1.384 . S
C42 C43 1.377 . S
C42 C45 1.481 . S
C43 C42 1.377 . S
C43 C44 1.389 . S
C43 H65 0.929 . S
C44 C40 1.397 . S
C44 C43 1.389 . S
C44 H66 0.931 . S
C45 C42 1.481 . S
C45 C46 1.387 . S
C45 C50 1.390 . S
C46 C45 1.387 . S
C46 C47 1.401 . S
C46 H67 0.930 . S
C47 C46 1.401 . S
C47 C48 1.376 . S
C47 C56 1.511 . S
C48 C47 1.376 . S
C48 C49 1.392 . S
C48 H69 0.931 . S
C49 C48 1.392 . S
C49 C50 1.361 . S
C49 C51 1.500 . S
C50 C45 1.390 . S
C50 C49 1.361 . S
C50 H68 0.931 . S
C51 C49 1.500 . S
C51 C52 1.371 . S
C51 C53 1.365 . S
C52 C51 1.371 . S
C52 C62 1.386 . S
C52 H70 0.931 . S
C53 C51 1.365 . S
C53 C54 1.409 . S
C53 H71 0.929 . S
C54 C53 1.409 . S
C54 C55 1.380 . S
C54 H72 0.930 . S
C55 C54 1.380 . S
C55 C62 1.357 . S
C56 C47 1.511 . S
C56 C57 1.341 . S
C56 C58 1.371 . S
C57 C56 1.341 . S
C57 C61 1.394 . S
C57 H73 0.930 . S
C58 C56 1.371 . S
C58 C59 1.392 . S
C58 H74 0.931 . S
C59 C58 1.392 . S
C59 C60 1.331 . S
C59 H77 0.932 . S
C60 C59 1.331 . S
C60 C61 1.336 . S
C61 C57 1.394 . S
C61 C60 1.336 . S
C61 H76 0.929 . S
C62 C52 1.386 . S
C62 C55 1.357 . S
C62 H75 0.928 . S
H63 C39 0.931 . S
H64 C41 0.930 . S
H65 C43 0.929 . S
H66 C44 0.931 . S
H67 C46 0.930 . S
H68 C50 0.931 . S
H69 C48 0.931 . S
H70 C52 0.931 . S
H71 C53 0.929 . S
H72 C54 0.930 . S
H73 C57 0.930 . S
H74 C58 0.931 . S
H75 C62 0.928 . S
H76 C61 0.929 . S
H77 C59 0.932 . S
C78 C79 1.386 . S
C78 C80 1.397 . S
C78 H102 0.931 . S
C79 C78 1.386 . S
C79 C83 1.397 . S
C80 C78 1.397 . S
C80 C81 1.384 . S
C80 H103 0.930 . S
C81 C80 1.384 . S
C81 C82 1.377 . S
C81 C84 1.481 . S
C82 C81 1.377 . S
C82 C83 1.389 . S
C82 H104 0.929 . S
C83 C79 1.397 . S
C83 C82 1.389 . S
C83 H105 0.931 . S
C84 C81 1.481 . S
C84 C85 1.387 . S
C84 C89 1.390 . S
C85 C84 1.387 . S
C85 C86 1.401 . S
C85 H106 0.930 . S
C86 C85 1.401 . S
C86 C87 1.376 . S
C86 C95 1.511 . S
C87 C86 1.376 . S
C87 C88 1.392 . S
C87 H108 0.931 . S
C88 C87 1.392 . S
C88 C89 1.361 . S
C88 C90 1.500 . S
C89 C84 1.390 . S
C89 C88 1.361 . S
C89 H107 0.931 . S
C90 C88 1.500 . S
C90 C91 1.371 . S
C90 C92 1.365 . S
C91 C90 1.371 . S
C91 C101 1.386 . S
C91 H109 0.931 . S
C92 C90 1.365 . S
C92 C93 1.409 . S
C92 H110 0.929 . S
C93 C92 1.409 . S
C93 C94 1.380 . S
C93 H111 0.930 . S
C94 C93 1.380 . S
C94 C101 1.357 . S
C95 C86 1.511 . S
C95 C96 1.341 . S
C95 C97 1.371 . S
C96 C95 1.341 . S
C96 C100 1.394 . S
C96 H112 0.930 . S
C97 C95 1.371 . S
C97 C98 1.392 . S
C97 H113 0.931 . S
C98 C97 1.392 . S
C98 C99 1.331 . S
C98 H116 0.932 . S
C99 C98 1.331 . S
C99 C100 1.336 . S
C100 C96 1.394 . S
C100 C99 1.336 . S
C100 H115 0.929 . S
C101 C91 1.386 . S
C101 C94 1.357 . S
C101 H114 0.928 . S
H102 C78 0.931 . S
H103 C80 0.930 . S
H104 C82 0.929 . S
H105 C83 0.931 . S
H106 C85 0.930 . S
H107 C89 0.931 . S
H108 C87 0.931 . S
H109 C91 0.931 . S
H110 C92 0.929 . S
H111 C93 0.930 . S
H112 C96 0.930 . S
H113 C97 0.931 . S
H114 C101 0.928 . S
H115 C100 0.929 . S
H116 C98 0.932 . S
C117 C118 1.386 . S
C117 C119 1.397 . S
C117 H141 0.931 . S
C118 C117 1.386 . S
C118 C122 1.397 . S
C119 C117 1.397 . S
C119 C120 1.384 . S
C119 H142 0.930 . S
C120 C119 1.384 . S
C120 C121 1.377 . S
C120 C123 1.481 . S
C121 C120 1.377 . S
C121 C122 1.389 . S
C121 H143 0.929 . S
C122 C118 1.397 . S
C122 C121 1.389 . S
C122 H144 0.931 . S
C123 C120 1.481 . S
C123 C124 1.387 . S
C123 C128 1.390 . S
C124 C123 1.387 . S
C124 C125 1.401 . S
C124 H145 0.930 . S
C125 C124 1.401 . S
C125 C126 1.376 . S
C125 C134 1.511 . S
C126 C125 1.376 . S
C126 C127 1.392 . S
C126 H147 0.931 . S
C127 C126 1.392 . S
C127 C128 1.361 . S
C127 C129 1.500 . S
C128 C123 1.390 . S
C128 C127 1.361 . S
C128 H146 0.931 . S
C129 C127 1.500 . S
C129 C130 1.371 . S
C129 C131 1.365 . S
C130 C129 1.371 . S
C130 C140 1.386 . S
C130 H148 0.931 . S
C131 C129 1.365 . S
C131 C132 1.409 . S
C131 H149 0.929 . S
C132 C131 1.409 . S
C132 C133 1.380 . S
C132 H150 0.930 . S
C133 C132 1.380 . S
C133 C140 1.357 . S
C134 C125 1.511 . S
C134 C135 1.341 . S
C134 C136 1.371 . S
C135 C134 1.341 . S
C135 C139 1.394 . S
C135 H151 0.930 . S
C136 C134 1.371 . S
C136 C137 1.392 . S
C136 H152 0.931 . S
C137 C136 1.392 . S
C137 C138 1.331 . S
C137 H155 0.932 . S
C138 C137 1.331 . S
C138 C139 1.336 . S
C139 C135 1.394 . S
C139 C138 1.336 . S
C139 H154 0.929 . S
C140 C130 1.386 . S
C140 C133 1.357 . S
C140 H153 0.928 . S
H141 C117 0.931 . S
H142 C119 0.930 . S
H143 C121 0.929 . S
H144 C122 0.931 . S
H145 C124 0.930 . S
H146 C128 0.931 . S
H147 C126 0.931 . S
H148 C130 0.931 . S
H149 C131 0.929 . S
H150 C132 0.930 . S
H151 C135 0.930 . S
H152 C136 0.931 . S
H153 C140 0.928 . S
H154 C139 0.929 . S
H155 C137 0.932 . S
C156 C157 1.386 . S
C156 C158 1.397 . S
C156 H180 0.931 . S
C157 C156 1.386 . S
C157 C161 1.397 . S
C158 C156 1.397 . S
C158 C159 1.384 . S
C158 H181 0.930 . S
C159 C158 1.384 . S
C159 C160 1.377 . S
C159 C162 1.481 . S
C160 C159 1.377 . S
C160 C161 1.389 . S
C160 H182 0.929 . S
C161 C157 1.397 . S
C161 C160 1.389 . S
C161 H183 0.931 . S
C162 C159 1.481 . S
C162 C163 1.387 . S
C162 C167 1.390 . S
C163 C162 1.387 . S
C163 C164 1.401 . S
C163 H184 0.930 . S
C164 C163 1.401 . S
C164 C165 1.376 . S
C164 C173 1.511 . S
C165 C164 1.376 . S
C165 C166 1.392 . S
C165 H186 0.931 . S
C166 C165 1.392 . S
C166 C167 1.361 . S
C166 C168 1.500 . S
C167 C162 1.390 . S
C167 C166 1.361 . S
C167 H185 0.931 . S
C168 C166 1.500 . S
C168 C169 1.371 . S
C168 C170 1.365 . S
C169 C168 1.371 . S
C169 C179 1.386 . S
C169 H187 0.931 . S
C170 C168 1.365 . S
C170 C171 1.409 . S
C170 H188 0.929 . S
C171 C170 1.409 . S
C171 C172 1.380 . S
C171 H189 0.930 . S
C172 C171 1.380 . S
C172 C179 1.357 . S
C173 C164 1.511 . S
C173 C174 1.341 . S
C173 C175 1.371 . S
C174 C173 1.341 . S
C174 C178 1.394 . S
C174 H190 0.930 . S
C175 C173 1.371 . S
C175 C176 1.392 . S
C175 H191 0.931 . S
C176 C175 1.392 . S
C176 C177 1.331 . S
C176 H194 0.932 . S
C177 C176 1.331 . S
C177 C178 1.336 . S
C178 C174 1.394 . S
C178 C177 1.336 . S
C178 H193 0.929 . S
C179 C169 1.386 . S
C179 C172 1.357 . S
C179 H192 0.928 . S
H180 C156 0.931 . S
H181 C158 0.930 . S
H182 C160 0.929 . S
H183 C161 0.931 . S
H184 C163 0.930 . S
H185 C167 0.931 . S
H186 C165 0.931 . S
H187 C169 0.931 . S
H188 C170 0.929 . S
H189 C171 0.930 . S
H190 C174 0.930 . S
H191 C175 0.931 . S
H192 C179 0.928 . S
H193 C178 0.929 . S
H194 C176 0.932 . S
C195 C196 1.386 . S
C195 C197 1.397 . S
C195 H219 0.931 . S
C196 C195 1.386 . S
C196 C200 1.397 . S
C197 C195 1.397 . S
C197 C198 1.384 . S
C197 H220 0.930 . S
C198 C197 1.384 . S
C198 C199 1.377 . S
C198 C201 1.481 . S
C199 C198 1.377 . S
C199 C200 1.389 . S
C199 H221 0.929 . S
C200 C196 1.397 . S
C200 C199 1.389 . S
C200 H222 0.931 . S
C201 C198 1.481 . S
C201 C202 1.387 . S
C201 C206 1.390 . S
C202 C201 1.387 . S
C202 C203 1.401 . S
C202 H223 0.930 . S
C203 C202 1.401 . S
C203 C204 1.376 . S
C203 C212 1.511 . S
C204 C203 1.376 . S
C204 C205 1.392 . S
C204 H225 0.931 . S
C205 C204 1.392 . S
C205 C206 1.361 . S
C205 C207 1.500 . S
C206 C201 1.390 . S
C206 C205 1.361 . S
C206 H224 0.931 . S
C207 C205 1.500 . S
C207 C208 1.371 . S
C207 C209 1.365 . S
C208 C207 1.371 . S
C208 C218 1.386 . S
C208 H226 0.931 . S
C209 C207 1.365 . S
C209 C210 1.409 . S
C209 H227 0.929 . S
C210 C209 1.409 . S
C210 C211 1.380 . S
C210 H228 0.930 . S
C211 C210 1.380 . S
C211 C218 1.357 . S
C212 C203 1.511 . S
C212 C213 1.341 . S
C212 C214 1.371 . S
C213 C212 1.341 . S
C213 C217 1.394 . S
C213 H229 0.930 . S
C214 C212 1.371 . S
C214 C215 1.392 . S
C214 H230 0.931 . S
C215 C214 1.392 . S
C215 C216 1.331 . S
C215 H233 0.932 . S
C216 C215 1.331 . S
C216 C217 1.336 . S
C217 C213 1.394 . S
C217 C216 1.336 . S
C217 H232 0.929 . S
C218 C208 1.386 . S
C218 C211 1.357 . S
C218 H231 0.928 . S
H219 C195 0.931 . S
H220 C197 0.930 . S
H221 C199 0.929 . S
H222 C200 0.931 . S
H223 C202 0.930 . S
H224 C206 0.931 . S
H225 C204 0.931 . S
H226 C208 0.931 . S
H227 C209 0.929 . S
H228 C210 0.930 . S
H229 C213 0.930 . S
H230 C214 0.931 . S
H231 C218 0.928 . S
H232 C217 0.929 . S
H233 C215 0.932 . S
C234 C235 1.386 . S
C234 C236 1.397 . S
C234 H258 0.931 . S
C235 C234 1.386 . S
C235 C239 1.397 . S
C236 C234 1.397 . S
C236 C237 1.384 . S
C236 H259 0.930 . S
C237 C236 1.384 . S
C237 C238 1.377 . S
C237 C240 1.481 . S
C238 C237 1.377 . S
C238 C239 1.389 . S
C238 H260 0.929 . S
C239 C235 1.397 . S
C239 C238 1.389 . S
C239 H261 0.931 . S
C240 C237 1.481 . S
C240 C241 1.387 . S
C240 C245 1.390 . S
C241 C240 1.387 . S
C241 C242 1.401 . S
C241 H262 0.930 . S
C242 C241 1.401 . S
C242 C243 1.376 . S
C242 C251 1.511 . S
C243 C242 1.376 . S
C243 C244 1.392 . S
C243 H264 0.931 . S
C244 C243 1.392 . S
C244 C245 1.361 . S
C244 C246 1.500 . S
C245 C240 1.390 . S
C245 C244 1.361 . S
C245 H263 0.931 . S
C246 C244 1.500 . S
C246 C247 1.371 . S
C246 C248 1.365 . S
C247 C246 1.371 . S
C247 C257 1.386 . S
C247 H265 0.931 . S
C248 C246 1.365 . S
C248 C249 1.409 . S
C248 H266 0.929 . S
C249 C248 1.409 . S
C249 C250 1.380 . S
C249 H267 0.930 . S
C250 C249 1.380 . S
C250 C257 1.357 . S
C251 C242 1.511 . S
C251 C252 1.341 . S
C251 C253 1.371 . S
C252 C251 1.341 . S
C252 C256 1.394 . S
C252 H268 0.930 . S
C253 C251 1.371 . S
C253 C254 1.392 . S
C253 H269 0.931 . S
C254 C253 1.392 . S
C254 C255 1.331 . S
C254 H272 0.932 . S
C255 C254 1.331 . S
C255 C256 1.336 . S
C256 C252 1.394 . S
C256 C255 1.336 . S
C256 H271 0.929 . S
C257 C247 1.386 . S
C257 C250 1.357 . S
C257 H270 0.928 . S
H258 C234 0.931 . S
H259 C236 0.930 . S
H260 C238 0.929 . S
H261 C239 0.931 . S
H262 C241 0.930 . S
H263 C245 0.931 . S
H264 C243 0.931 . S
H265 C247 0.931 . S
H266 C248 0.929 . S
H267 C249 0.930 . S
H268 C252 0.930 . S
H269 C253 0.931 . S
H270 C257 0.928 . S
H271 C256 0.929 . S
H272 C254 0.932 . S
C273 C274 1.386 . S
C273 C275 1.397 . S
C273 H297 0.931 . S
C274 C273 1.386 . S
C274 C278 1.397 . S
C275 C273 1.397 . S
C275 C276 1.384 . S
C275 H298 0.930 . S
C276 C275 1.384 . S
C276 C277 1.377 . S
C276 C279 1.481 . S
C277 C276 1.377 . S
C277 C278 1.389 . S
C277 H299 0.929 . S
C278 C274 1.397 . S
C278 C277 1.389 . S
C278 H300 0.931 . S
C279 C276 1.481 . S
C279 C280 1.387 . S
C279 C284 1.390 . S
C280 C279 1.387 . S
C280 C281 1.401 . S
C280 H301 0.930 . S
C281 C280 1.401 . S
C281 C282 1.376 . S
C281 C290 1.511 . S
C282 C281 1.376 . S
C282 C283 1.392 . S
C282 H303 0.931 . S
C283 C282 1.392 . S
C283 C284 1.361 . S
C283 C285 1.500 . S
C284 C279 1.390 . S
C284 C283 1.361 . S
C284 H302 0.931 . S
C285 C283 1.500 . S
C285 C286 1.371 . S
C285 C287 1.365 . S
C286 C285 1.371 . S
C286 C296 1.386 . S
C286 H304 0.931 . S
C287 C285 1.365 . S
C287 C288 1.409 . S
C287 H305 0.929 . S
C288 C287 1.409 . S
C288 C289 1.380 . S
C288 H306 0.930 . S
C289 C288 1.380 . S
C289 C296 1.357 . S
C290 C281 1.511 . S
C290 C291 1.341 . S
C290 C292 1.371 . S
C291 C290 1.341 . S
C291 C295 1.394 . S
C291 H307 0.930 . S
C292 C290 1.371 . S
C292 C293 1.392 . S
C292 H308 0.931 . S
C293 C292 1.392 . S
C293 C294 1.331 . S
C293 H311 0.932 . S
C294 C293 1.331 . S
C294 C295 1.336 . S
C295 C291 1.394 . S
C295 C294 1.336 . S
C295 H310 0.929 . S
C296 C286 1.386 . S
C296 C289 1.357 . S
C296 H309 0.928 . S
H297 C273 0.931 . S
H298 C275 0.930 . S
H299 C277 0.929 . S
H300 C278 0.931 . S
H301 C280 0.930 . S
H302 C284 0.931 . S
H303 C282 0.931 . S
H304 C286 0.931 . S
H305 C287 0.929 . S
H306 C288 0.930 . S
H307 C291 0.930 . S
H308 C292 0.931 . S
H309 C296 0.928 . S
H310 C295 0.929 . S
H311 C293 0.932 . S
O312 Mg313 1.990 . S
O312 C326 1.253 1_445 S
Mg313 O312 1.990 . S
Mg313 O316 2.180 . S
Mg313 O317 2.117 . S
Mg313 O331 2.030 1_545 S
O314 Mg315 2.072 1_665 S
O314 C326 1.260 . S
Mg315 O314 2.072 1_445 S
Mg315 O316 2.099 . S
Mg315 O318 2.079 . S
Mg315 O319 2.072 1_455 S
Mg315 O321 2.099 1_445 S
Mg315 O332 2.079 1_545 S
O316 Mg313 2.180 . S
O316 Mg315 2.099 . S
O316 C327 1.279 . S
O317 Mg313 2.117 . S
O317 C327 1.250 . S
O318 Mg315 2.079 . S
O318 C328 1.264 . S
O319 Mg315 2.072 1_655 S
O319 C329 1.260 . S
Mg320 O321 2.180 . S
Mg320 O322 2.030 1_565 S
Mg320 O323 1.990 1_565 S
Mg320 O324 2.117 . S
O321 Mg315 2.099 1_665 S
O321 Mg320 2.180 . S
O321 C330 1.279 . S
O322 Mg320 2.030 1_545 S
O322 C328 1.248 1_655 S
O323 Mg320 1.990 1_545 S
O323 C329 1.253 . S
O324 Mg320 2.117 . S
O324 C330 1.250 . S
C325 O331 1.248 . S
C325 O332 1.264 . S
C326 O312 1.253 1_665 S
C326 O314 1.260 . S
C327 O316 1.279 . S
C327 O317 1.250 . S
C328 O318 1.264 . S
C328 O322 1.248 1_455 S
C329 O319 1.260 . S
C329 O323 1.253 . S
C330 O321 1.279 . S
C330 O324 1.250 . S
O331 Mg313 2.030 1_565 S
O331 C325 1.248 . S
O332 Mg315 2.079 1_565 S
O332 C325 1.264 . S
O333 Mg334 1.990 . S
O333 C347 1.253 . S
Mg334 O333 1.990 . S
Mg334 O337 2.180 . S
Mg334 O338 2.117 1_554 S
Mg334 O352 2.030 . S
O335 Mg336 2.072 . S
O335 C347 1.260 . S
Mg336 O335 2.072 . S
Mg336 O337 2.099 . S
Mg336 O339 2.079 1_554 S
Mg336 O340 2.072 1_554 S
Mg336 O342 2.099 1_545 S
Mg336 O353 2.079 . S
O337 Mg334 2.180 . S
O337 Mg336 2.099 . S
O337 C348 1.279 1_554 S
O338 Mg334 2.117 1_556 S
O338 C348 1.250 . S
O339 Mg336 2.079 1_556 S
O339 C349 1.264 1_545 S
O340 Mg336 2.072 1_556 S
O340 C350 1.260 1_545 S
Mg341 O342 2.180 1_556 S
Mg341 O343 2.030 . S
Mg341 O344 1.990 . S
Mg341 O345 2.117 1_556 S
O342 Mg336 2.099 1_565 S
O342 Mg341 2.180 1_554 S
O342 C351 1.279 . S
O343 Mg341 2.030 . S
O343 C349 1.248 . S
O344 Mg341 1.990 . S
O344 C350 1.253 . S
O345 Mg341 2.117 1_554 S
O345 C351 1.250 . S
C346 O352 1.248 . S
C346 O353 1.264 . S
C347 O333 1.253 . S
C347 O335 1.260 . S
C348 O337 1.279 1_556 S
C348 O338 1.250 . S
C349 O339 1.264 1_565 S
C349 O343 1.248 . S
C350 O340 1.260 1_565 S
C350 O344 1.253 . S
C351 O342 1.279 . S
C351 O345 1.250 . S
O352 Mg334 2.030 . S
O352 C346 1.248 . S
O353 Mg336 2.079 . S
O353 C346 1.264 . S
O354 Mg355 1.990 . S
O354 C368 1.253 . S
Mg355 O354 1.990 . S
Mg355 O358 2.180 . S
Mg355 O359 2.117 . S
Mg355 O373 2.030 . S
O356 Mg357 2.072 . S
O356 C368 1.260 . S
Mg357 O356 2.072 . S
Mg357 O358 2.099 . S
Mg357 O360 2.079 . S
Mg357 O361 2.072 . S
Mg357 O363 2.099 . S
Mg357 O374 2.079 . S
O358 Mg355 2.180 . S
O358 Mg357 2.099 . S
O358 C369 1.279 . S
O359 Mg355 2.117 . S
O359 C369 1.250 . S
O360 Mg357 2.079 . S
O360 C370 1.264 . S
O361 Mg357 2.072 . S
O361 C371 1.260 . S
Mg362 O363 2.180 . S
Mg362 O364 2.030 . S
Mg362 O365 1.990 . S
Mg362 O366 2.117 . S
O363 Mg357 2.099 . S
O363 Mg362 2.180 . S
O363 C372 1.279 . S
O364 Mg362 2.030 . S
O364 C370 1.248 . S
O365 Mg362 1.990 . S
O365 C371 1.253 . S
O366 Mg362 2.117 . S
O366 C372 1.250 . S
C367 O373 1.248 . S
C367 O374 1.264 . S
C368 O354 1.253 . S
C368 O356 1.260 . S
C369 O358 1.279 . S
C369 O359 1.250 . S
C370 O360 1.264 . S
C370 O364 1.248 . S
C371 O361 1.260 . S
C371 O365 1.253 . S
C372 O363 1.279 . S
C372 O366 1.250 . S
O373 Mg355 2.030 . S
O373 C367 1.248 . S
O374 Mg357 2.079 . S
O374 C367 1.264 . S
O375 Mg376 1.990 . S
O375 C389 1.253 . S
Mg376 O375 1.990 . S
Mg376 O379 2.180 1_455 S
Mg376 O380 2.117 1_455 S
Mg376 O394 2.030 . S
O377 Mg378 2.072 . S
O377 C389 1.260 . S
Mg378 O377 2.072 . S
Mg378 O379 2.099 1_455 S
Mg378 O381 2.079 1_454 S
Mg378 O382 2.072 1_455 S
Mg378 O384 2.099 1_554 S
Mg378 O395 2.079 . S
O379 Mg376 2.180 1_655 S
O379 Mg378 2.099 1_655 S
O379 C390 1.279 . S
O380 Mg376 2.117 1_655 S
O380 C390 1.250 . S
O381 Mg378 2.079 1_656 S
O381 C391 1.264 . S
O382 Mg378 2.072 1_655 S
O382 C392 1.260 1_554 S
Mg383 O384 2.180 1_655 S
Mg383 O385 2.030 . S
Mg383 O386 1.990 . S
Mg383 O387 2.140 . S
O384 Mg378 2.099 1_556 S
O384 Mg383 2.180 1_455 S
O384 C393 1.279 . S
O385 Mg383 2.030 . S
O385 C391 1.248 . S
O386 Mg383 1.990 . S
O386 C392 1.253 . S
O387 Mg383 2.140 . S
O387 C393 1.229 1_655 S
C388 O394 1.248 . S
C388 O395 1.264 . S
C389 O375 1.253 . S
C389 O377 1.260 . S
C390 O379 1.279 . S
C390 O380 1.250 . S
C391 O381 1.264 . S
C391 O385 1.248 . S
C392 O382 1.260 1_556 S
C392 O386 1.253 . S
C393 O384 1.279 . S
C393 O387 1.229 1_455 S
O394 Mg376 2.030 . S
O394 C388 1.248 . S
O395 Mg378 2.079 . S
O395 C388 1.264 . S
H396 C414 0.951 . S
H397 C416 0.951 . S
H398 C418 0.950 . S
H399 C419 0.950 . S
H400 C421 0.950 . S
H401 C424 0.950 . S
H402 C425 0.950 . S
H403 C427 0.950 . S
H404 C428 0.950 . S
H405 C429 0.951 . S
H406 C431 0.951 . S
H407 C433 0.950 . S
H408 C434 0.950 1_655 S
H409 C436 0.950 . S
H410 C439 0.950 1_545 S
H411 C440 0.950 . S
H412 C442 0.950 . S
H413 C443 0.950 . S
C414 H396 0.951 . S
C414 C415 1.366 . S
C414 C416 1.388 . S
C415 C414 1.366 . S
C415 C419 1.385 . S
C416 H397 0.951 . S
C416 C414 1.388 . S
C416 C417 1.366 . S
C417 C416 1.366 . S
C417 C418 1.414 . S
C417 C420 1.499 . S
C418 H398 0.950 . S
C418 C417 1.414 . S
C418 C419 1.374 . S
C419 H399 0.950 . S
C419 C415 1.385 . S
C419 C418 1.374 . S
C420 C417 1.499 . S
C420 C421 1.373 . S
C420 C422 1.389 . S
C421 H400 0.950 . S
C421 C420 1.373 . S
C421 C437 1.377 . S
C422 C420 1.389 . S
C422 C423 1.524 . S
C422 C436 1.377 . S
C423 C422 1.524 . S
C423 C424 1.397 . S
C423 C428 1.363 . S
C424 H401 0.950 . S
C424 C423 1.397 . S
C424 C425 1.334 . S
C425 H402 0.950 . S
C425 C424 1.334 . S
C425 C426 1.287 . S
C426 C425 1.287 . S
C426 C427 1.524 . S
C426 H445 0.913 . S
C427 H403 0.950 . S
C427 C426 1.524 . S
C427 C428 1.415 . S
C428 H404 0.950 . S
C428 C423 1.363 . S
C428 C427 1.415 . S
C429 H405 0.951 . S
C429 C430 1.366 . S
C429 C431 1.388 . S
C430 C429 1.366 . S
C430 C434 1.385 . S
C431 H406 0.951 . S
C431 C429 1.388 . S
C431 C432 1.366 . S
C432 C431 1.366 . S
C432 C433 1.414 . S
C432 C435 1.499 . S
C433 H407 0.950 . S
C433 C432 1.414 . S
C433 C434 1.374 . S
C434 H408 0.950 1_455 S
C434 C430 1.385 . S
C434 C433 1.374 . S
C435 C432 1.499 . S
C435 C436 1.373 . S
C435 C437 1.389 . S
C436 H409 0.950 . S
C436 C422 1.377 . S
C436 C435 1.373 . S
C437 C421 1.377 . S
C437 C435 1.389 . S
C437 C438 1.524 . S
C438 C437 1.524 . S
C438 C439 1.397 1_545 S
C438 C443 1.363 . S
C439 H410 0.950 1_565 S
C439 C438 1.397 1_565 S
C439 C440 1.334 . S
C440 H411 0.950 . S
C440 C439 1.334 . S
C440 C441 1.287 . S
C441 C440 1.287 . S
C441 C442 1.524 . S
C441 H444 0.999 . S
C442 H412 0.950 . S
C442 C441 1.524 . S
C442 C443 1.415 1_565 S
C443 H413 0.950 . S
C443 C438 1.363 . S
C443 C442 1.415 1_545 S
H444 C441 0.999 . S
H445 C426 0.913 . S
H446 C464 0.951 . S
H447 C466 0.951 . S
H448 C468 0.950 . S
H449 C469 0.950 . S
H450 C471 0.950 . S
H451 C474 0.950 . S
H452 C475 0.950 . S
H453 C477 0.950 . S
H454 C478 0.950 . S
H455 C479 0.951 . S
H456 C481 0.951 . S
H457 C483 0.950 . S
H458 C484 0.950 . S
H459 C486 0.950 . S
H460 C489 0.950 . S
H461 C490 0.950 . S
H462 C492 0.950 . S
H463 C493 0.950 . S
C464 H446 0.951 . S
C464 C465 1.366 . S
C464 C466 1.388 . S
C465 C464 1.366 . S
C465 C469 1.385 . S
C466 H447 0.951 . S
C466 C464 1.388 . S
C466 C467 1.366 . S
C467 C466 1.366 . S
C467 C468 1.414 . S
C467 C470 1.499 . S
C468 H448 0.950 . S
C468 C467 1.414 . S
C468 C469 1.374 . S
C469 H449 0.950 . S
C469 C465 1.385 . S
C469 C468 1.374 . S
C470 C467 1.499 . S
C470 C471 1.373 . S
C470 C472 1.389 . S
C471 H450 0.950 . S
C471 C470 1.373 . S
C471 C487 1.377 . S
C472 C470 1.389 . S
C472 C473 1.524 . S
C472 C486 1.377 . S
C473 C472 1.524 . S
C473 C474 1.397 . S
C473 C478 1.363 1_565 S
C474 H451 0.950 . S
C474 C473 1.397 . S
C474 C475 1.334 . S
C475 H452 0.950 . S
C475 C474 1.334 . S
C475 C476 1.287 . S
C476 C475 1.287 . S
C476 C477 1.524 1_565 S
C476 H495 0.913 . S
C477 H453 0.950 . S
C477 C476 1.524 1_545 S
C477 C478 1.415 . S
C478 H454 0.950 . S
C478 C473 1.363 1_545 S
C478 C477 1.415 . S
C479 H455 0.951 . S
C479 C480 1.366 . S
C479 C481 1.388 . S
C480 C479 1.366 . S
C480 C484 1.385 1_565 S
C481 H456 0.951 . S
C481 C479 1.388 . S
C481 C482 1.366 . S
C482 C481 1.366 . S
C482 C483 1.414 1_565 S
C482 C485 1.499 . S
C483 H457 0.950 . S
C483 C482 1.414 1_545 S
C483 C484 1.374 . S
C484 H458 0.950 . S
C484 C480 1.385 1_545 S
C484 C483 1.374 . S
C485 C482 1.499 . S
C485 C486 1.373 . S
C485 C487 1.389 . S
C486 H459 0.950 . S
C486 C472 1.377 . S
C486 C485 1.373 . S
C487 C471 1.377 . S
C487 C485 1.389 . S
C487 C488 1.524 . S
C488 C487 1.524 . S
C488 C489 1.397 . S
C488 C493 1.363 . S
C489 H460 0.950 . S
C489 C488 1.397 . S
C489 C490 1.334 . S
C490 H461 0.950 . S
C490 C489 1.334 . S
C490 C491 1.287 . S
C491 C490 1.287 . S
C491 C492 1.524 . S
C491 H494 0.999 . S
C492 H462 0.950 . S
C492 C491 1.524 . S
C492 C493 1.415 . S
C493 H463 0.950 . S
C493 C488 1.363 . S
C493 C492 1.415 . S
H494 C491 0.999 . S
H495 C476 0.913 . S
H496 C514 0.951 . S
H497 C516 0.951 . S
H498 C518 0.950 . S
H499 C519 0.950 . S
H500 C521 0.950 . S
H501 C524 0.950 . S
H502 C525 0.950 . S
H503 C527 0.950 . S
H504 C528 0.950 . S
H505 C529 0.951 . S
H506 C531 0.951 . S
H507 C533 0.950 . S
H508 C534 0.950 . S
H509 C536 0.950 . S
H510 C539 0.950 . S
H511 C540 0.950 . S
H512 C542 0.950 . S
H513 C543 0.950 . S
C514 H496 0.951 . S
C514 C515 1.366 . S
C514 C516 1.388 . S
C515 C514 1.366 . S
C515 C519 1.385 . S
C516 H497 0.951 . S
C516 C514 1.388 . S
C516 C517 1.366 . S
C517 C516 1.366 . S
C517 C518 1.414 . S
C517 C520 1.499 . S
C518 H498 0.950 . S
C518 C517 1.414 . S
C518 C519 1.374 . S
C519 H499 0.950 . S
C519 C515 1.385 . S
C519 C518 1.374 . S
C520 C517 1.499 . S
C520 C521 1.373 . S
C520 C522 1.389 . S
C521 H500 0.950 . S
C521 C520 1.373 . S
C521 C537 1.377 . S
C522 C520 1.389 . S
C522 C523 1.524 . S
C522 C536 1.377 . S
C523 C522 1.524 . S
C523 C524 1.397 . S
C523 C528 1.363 . S
C524 H501 0.950 . S
C524 C523 1.397 . S
C524 C525 1.334 . S
C525 H502 0.950 . S
C525 C524 1.334 . S
C525 C526 1.287 . S
C526 C525 1.287 . S
C526 C527 1.524 . S
C526 H545 0.913 . S
C527 H503 0.950 . S
C527 C526 1.524 . S
C527 C528 1.415 . S
C528 H504 0.950 . S
C528 C523 1.363 . S
C528 C527 1.415 . S
C529 H505 0.951 . S
C529 C530 1.366 . S
C529 C531 1.388 . S
C530 C529 1.366 . S
C530 C534 1.385 . S
C531 H506 0.951 . S
C531 C529 1.388 . S
C531 C532 1.366 . S
C532 C531 1.366 . S
C532 C533 1.414 . S
C532 C535 1.499 . S
C533 H507 0.950 . S
C533 C532 1.414 . S
C533 C534 1.374 . S
C534 H508 0.950 . S
C534 C530 1.385 . S
C534 C533 1.374 . S
C535 C532 1.499 . S
C535 C536 1.373 . S
C535 C537 1.389 . S
C536 H509 0.950 . S
C536 C522 1.377 . S
C536 C535 1.373 . S
C537 C521 1.377 . S
C537 C535 1.389 . S
C537 C538 1.524 . S
C538 C537 1.524 . S
C538 C539 1.397 . S
C538 C543 1.363 . S
C539 H510 0.950 . S
C539 C538 1.397 . S
C539 C540 1.334 . S
C540 H511 0.950 . S
C540 C539 1.334 . S
C540 C541 1.287 . S
C541 C540 1.287 . S
C541 C542 1.524 . S
C541 H544 0.999 . S
C542 H512 0.950 . S
C542 C541 1.524 . S
C542 C543 1.415 . S
C543 H513 0.950 . S
C543 C538 1.363 . S
C543 C542 1.415 . S
H544 C541 0.999 . S
H545 C526 0.913 . S
H546 C564 0.951 . S
H547 C566 0.951 . S
H548 C568 0.950 . S
H549 C569 0.950 . S
H550 C571 0.950 . S
H551 C574 0.950 . S
H552 C575 0.950 . S
H553 C577 0.950 . S
H554 C578 0.950 . S
H555 C579 0.951 . S
H556 C581 0.951 . S
H557 C583 0.950 . S
H558 C584 0.950 . S
H559 C586 0.950 . S
H560 C589 0.950 . S
H561 C590 0.950 . S
H562 C592 0.954 1_455 S
H563 C593 0.950 . S
C564 H546 0.951 . S
C564 C565 1.366 . S
C564 C566 1.388 . S
C565 C564 1.366 . S
C565 C569 1.385 . S
C566 H547 0.951 . S
C566 C564 1.388 . S
C566 C567 1.366 . S
C567 C566 1.366 . S
C567 C568 1.414 . S
C567 C570 1.499 . S
C568 H548 0.950 . S
C568 C567 1.414 . S
C568 C569 1.374 . S
C569 H549 0.950 . S
C569 C565 1.385 . S
C569 C568 1.374 . S
C570 C567 1.499 . S
C570 C571 1.373 . S
C570 C572 1.389 . S
C571 H550 0.950 . S
C571 C570 1.373 . S
C571 C587 1.377 . S
C572 C570 1.389 . S
C572 C573 1.524 . S
C572 C586 1.377 . S
C573 C572 1.524 . S
C573 C574 1.397 . S
C573 C578 1.363 . S
C574 H551 0.950 . S
C574 C573 1.397 . S
C574 C575 1.334 . S
C575 H552 0.950 . S
C575 C574 1.334 . S
C575 C576 1.287 . S
C576 C575 1.287 . S
C576 C577 1.524 . S
C576 H595 0.913 . S
C577 H553 0.950 . S
C577 C576 1.524 . S
C577 C578 1.415 . S
C578 H554 0.950 . S
C578 C573 1.363 . S
C578 C577 1.415 . S
C579 H555 0.951 . S
C579 C580 1.366 . S
C579 C581 1.388 . S
C580 C579 1.366 . S
C580 C584 1.385 . S
C581 H556 0.951 . S
C581 C579 1.388 . S
C581 C582 1.366 . S
C582 C581 1.366 . S
C582 C583 1.414 . S
C582 C585 1.499 . S
C583 H557 0.950 . S
C583 C582 1.414 . S
C583 C584 1.374 . S
C584 H558 0.950 . S
C584 C580 1.385 . S
C584 C583 1.374 . S
C585 C582 1.499 . S
C585 C586 1.373 . S
C585 C587 1.389 . S
C586 H559 0.950 . S
C586 C572 1.377 . S
C586 C585 1.373 . S
C587 C571 1.377 . S
C587 C585 1.389 . S
C587 C588 1.524 . S
C588 C587 1.524 . S
C588 C589 1.397 . S
C588 C593 1.363 . S
C589 H560 0.950 . S
C589 C588 1.397 . S
C589 C590 1.334 . S
C590 H561 0.950 . S
C590 C589 1.334 . S
C590 C591 1.287 . S
C591 C590 1.287 . S
C591 C592 1.524 . S
C591 H594 0.999 . S
C592 H562 0.954 1_655 S
C592 C591 1.524 . S
C592 C593 1.415 . S
C593 H563 0.950 . S
C593 C588 1.363 . S
C593 C592 1.415 . S
H594 C591 0.999 . S
H595 C576 0.913 . S
H596 C614 0.951 . S
H597 C616 0.951 . S
H598 C618 0.950 . S
H599 C619 0.950 . S
H600 C621 0.950 . S
H601 C624 0.950 . S
H602 C625 0.950 . S
H603 C627 0.950 . S
H604 C628 0.950 . S
H605 C629 0.951 . S
H606 C631 0.951 . S
H607 C633 0.950 . S
H608 C634 0.950 . S
H609 C636 0.950 . S
H610 C639 0.950 . S
H611 C640 0.950 1_565 S
H612 C642 0.950 . S
H613 C643 0.950 . S
C614 H596 0.951 . S
C614 C615 1.366 . S
C614 C616 1.388 . S
C615 C614 1.366 . S
C615 C619 1.385 . S
C616 H597 0.951 . S
C616 C614 1.388 . S
C616 C617 1.366 . S
C617 C616 1.366 . S
C617 C618 1.414 . S
C617 C620 1.499 . S
C618 H598 0.950 . S
C618 C617 1.414 . S
C618 C619 1.374 . S
C619 H599 0.950 . S
C619 C615 1.385 . S
C619 C618 1.374 . S
C620 C617 1.499 . S
C620 C621 1.373 . S
C620 C622 1.389 . S
C621 H600 0.950 . S
C621 C620 1.373 . S
C621 C637 1.377 . S
C622 C620 1.389 . S
C622 C623 1.524 . S
C622 C636 1.377 . S
C623 C622 1.524 . S
C623 C624 1.397 . S
C623 C628 1.363 . S
C624 H601 0.950 . S
C624 C623 1.397 . S
C624 C625 1.334 . S
C625 H602 0.950 . S
C625 C624 1.334 . S
C625 C626 1.287 . S
C626 C625 1.287 . S
C626 C627 1.524 . S
C626 H645 0.913 . S
C627 H603 0.950 . S
C627 C626 1.524 . S
C627 C628 1.415 . S
C628 H604 0.950 . S
C628 C623 1.363 . S
C628 C627 1.415 . S
C629 H605 0.951 . S
C629 C630 1.366 . S
C629 C631 1.388 . S
C630 C629 1.366 . S
C630 C634 1.385 . S
C631 H606 0.951 . S
C631 C629 1.388 . S
C631 C632 1.366 . S
C632 C631 1.366 . S
C632 C633 1.414 . S
C632 C635 1.499 . S
C633 H607 0.950 . S
C633 C632 1.414 . S
C633 C634 1.374 . S
C634 H608 0.950 . S
C634 C630 1.385 . S
C634 C633 1.374 . S
C635 C632 1.499 . S
C635 C636 1.373 . S
C635 C637 1.389 . S
C636 H609 0.950 . S
C636 C622 1.377 . S
C636 C635 1.373 . S
C637 C621 1.377 . S
C637 C635 1.389 . S
C637 C638 1.524 . S
C638 C637 1.524 . S
C638 C639 1.397 . S
C638 C643 1.363 1_554 S
C639 H610 0.950 . S
C639 C638 1.397 . S
C639 C640 1.334 1_554 S
C640 H611 0.950 1_545 S
C640 C639 1.334 1_556 S
C640 C641 1.287 . S
C641 C640 1.287 . S
C641 C642 1.524 . S
C641 H644 0.999 . S
C642 H612 0.950 . S
C642 C641 1.524 . S
C642 C643 1.415 . S
C643 H613 0.950 . S
C643 C638 1.363 1_556 S
C643 C642 1.415 . S
H644 C641 0.999 . S
H645 C626 0.913 . S
H646 C664 0.951 . S
H647 C666 0.951 . S
H648 C668 0.950 . S
H649 C669 0.950 . S
H650 C671 0.950 . S
H651 C674 0.950 . S
H652 C675 0.950 . S
H653 C677 0.950 . S
H654 C678 0.950 . S
H655 C679 0.951 . S
H656 C681 0.951 . S
H657 C683 0.950 . S
H658 C684 0.950 . S
H659 C686 0.950 . S
H660 C689 0.950 . S
H661 C690 0.950 . S
H662 C692 0.950 . S
H663 C693 0.950 . S
C664 H646 0.951 . S
C664 C665 1.366 . S
C664 C666 1.388 . S
C665 C664 1.366 . S
C665 C669 1.385 . S
C666 H647 0.951 . S
C666 C664 1.388 . S
C666 C667 1.366 . S
C667 C666 1.366 . S
C667 C668 1.414 . S
C667 C670 1.499 . S
C668 H648 0.950 . S
C668 C667 1.414 . S
C668 C669 1.374 . S
C669 H649 0.950 . S
C669 C665 1.385 . S
C669 C668 1.374 . S
C670 C667 1.499 . S
C670 C671 1.373 . S
C670 C672 1.389 . S
C671 H650 0.950 . S
C671 C670 1.373 . S
C671 C687 1.377 . S
C672 C670 1.389 . S
C672 C673 1.524 . S
C672 C686 1.377 . S
C673 C672 1.524 . S
C673 C674 1.397 . S
C673 C678 1.363 . S
C674 H651 0.950 . S
C674 C673 1.397 . S
C674 C675 1.334 . S
C675 H652 0.950 . S
C675 C674 1.334 . S
C675 C676 1.287 . S
C676 C675 1.287 . S
C676 C677 1.524 . S
C676 H695 0.913 . S
C677 H653 0.950 . S
C677 C676 1.524 . S
C677 C678 1.415 . S
C678 H654 0.950 . S
C678 C673 1.363 . S
C678 C677 1.415 . S
C679 H655 0.951 . S
C679 C680 1.366 . S
C679 C681 1.388 . S
C680 C679 1.366 . S
C680 C684 1.385 . S
C681 H656 0.951 . S
C681 C679 1.388 . S
C681 C682 1.366 . S
C682 C681 1.366 . S
C682 C683 1.414 . S
C682 C685 1.499 . S
C683 H657 0.950 . S
C683 C682 1.414 . S
C683 C684 1.374 . S
C684 H658 0.950 . S
C684 C680 1.385 . S
C684 C683 1.374 . S
C685 C682 1.499 . S
C685 C686 1.373 . S
C685 C687 1.389 . S
C686 H659 0.950 . S
C686 C672 1.377 . S
C686 C685 1.373 . S
C687 C671 1.377 . S
C687 C685 1.389 . S
C687 C688 1.524 . S
C688 C687 1.524 . S
C688 C689 1.397 1_565 S
C688 C693 1.363 . S
C689 H660 0.950 . S
C689 C688 1.397 1_545 S
C689 C690 1.334 . S
C690 H661 0.950 . S
C690 C689 1.334 . S
C690 C691 1.287 . S
C691 C690 1.287 . S
C691 C692 1.524 1_545 S
C691 H694 0.999 . S
C692 H662 0.950 . S
C692 C691 1.524 1_565 S
C692 C693 1.415 . S
C693 H663 0.950 . S
C693 C688 1.363 . S
C693 C692 1.415 . S
H694 C691 0.999 . S
H695 C676 0.913 . S
H696 C714 0.951 . S
H697 C716 0.951 . S
H698 C718 0.950 . S
H699 C719 0.950 . S
H700 C721 0.950 . S
H701 C724 0.950 . S
H702 C725 0.950 . S
H703 C727 0.950 . S
H704 C728 0.950 . S
H705 C729 0.951 . S
H706 C731 0.951 1_554 S
H707 C733 0.950 . S
H708 C734 0.950 . S
H709 C736 0.950 . S
H710 C739 0.950 . S
H711 C740 0.950 . S
H712 C742 0.950 . S
H713 C743 0.971 . S
C714 H696 0.951 . S
C714 C715 1.366 . S
C714 C716 1.388 . S
C715 C714 1.366 . S
C715 C719 1.385 . S
C716 H697 0.951 . S
C716 C714 1.388 . S
C716 C717 1.366 . S
C717 C716 1.366 . S
C717 C718 1.414 . S
C717 C720 1.499 . S
C718 H698 0.950 . S
C718 C717 1.414 . S
C718 C719 1.374 . S
C719 H699 0.950 . S
C719 C715 1.385 . S
C719 C718 1.374 . S
C720 C717 1.499 . S
C720 C721 1.373 . S
C720 C722 1.389 . S
C721 H700 0.950 . S
C721 C720 1.373 . S
C721 C737 1.377 . S
C722 C720 1.389 . S
C722 C723 1.524 . S
C722 C736 1.377 . S
C723 C722 1.524 . S
C723 C724 1.397 . S
C723 C728 1.363 . S
C724 H701 0.950 . S
C724 C723 1.397 . S
C724 C725 1.334 . S
C725 H702 0.950 . S
C725 C724 1.334 . S
C725 C726 1.287 . S
C726 C725 1.287 . S
C726 C727 1.524 . S
C726 H745 0.913 . S
C727 H703 0.950 . S
C727 C726 1.524 . S
C727 C728 1.415 . S
C728 H704 0.950 . S
C728 C723 1.363 . S
C728 C727 1.415 . S
C729 H705 0.951 . S
C729 C730 1.366 1_554 S
C729 C731 1.388 1_554 S
C730 C729 1.366 1_556 S
C730 C734 1.385 . S
C731 H706 0.951 1_556 S
C731 C729 1.388 1_556 S
C731 C732 1.366 . S
C732 C731 1.366 . S
C732 C733 1.414 . S
C732 C735 1.499 . S
C733 H707 0.950 . S
C733 C732 1.414 . S
C733 C734 1.374 . S
C734 H708 0.950 . S
C734 C730 1.385 . S
C734 C733 1.374 . S
C735 C732 1.499 . S
C735 C736 1.373 . S
C735 C737 1.389 . S
C736 H709 0.950 . S
C736 C722 1.377 . S
C736 C735 1.373 . S
C737 C721 1.377 . S
C737 C735 1.389 . S
C737 C738 1.524 . S
C738 C737 1.524 . S
C738 C739 1.397 . S
C738 C743 1.363 . S
C739 H710 0.950 . S
C739 C738 1.397 . S
C739 C740 1.334 . S
C740 H711 0.950 . S
C740 C739 1.334 . S
C740 C741 1.287 . S
C741 C740 1.287 . S
C741 C742 1.524 1_556 S
C741 H744 0.999 . S
C742 H712 0.950 . S
C742 C741 1.524 1_554 S
C742 C743 1.415 1_554 S
C743 H713 0.971 . S
C743 C738 1.363 . S
C743 C742 1.415 1_556 S
H744 C741 0.999 . S
H745 C726 0.913 . S
H746 C764 0.951 . S
H747 C766 0.951 . S
H748 C768 0.950 . S
H749 C769 0.950 . S
H750 C771 0.950 . S
H751 C774 0.950 . S
H752 C775 0.950 . S
H753 C777 0.950 . S
H754 C778 0.950 . S
H755 C779 0.951 . S
H756 C781 0.951 . S
H757 C783 0.950 . S
H758 C784 0.950 . S
H759 C786 0.950 . S
H760 C789 0.950 . S
H761 C790 0.950 . S
H762 C792 0.950 . S
H763 C793 0.950 . S
C764 H746 0.951 . S
C764 C765 1.366 . S
C764 C766 1.388 . S
C765 C764 1.366 . S
C765 C769 1.385 . S
C766 H747 0.951 . S
C766 C764 1.388 . S
C766 C767 1.366 . S
C767 C766 1.366 . S
C767 C768 1.414 . S
C767 C770 1.499 . S
C768 H748 0.950 . S
C768 C767 1.414 . S
C768 C769 1.374 . S
C769 H749 0.950 . S
C769 C765 1.385 . S
C769 C768 1.374 . S
C770 C767 1.499 . S
C770 C771 1.373 . S
C770 C772 1.389 . S
C771 H750 0.950 . S
C771 C770 1.373 . S
C771 C787 1.377 . S
C772 C770 1.389 . S
C772 C773 1.524 . S
C772 C786 1.377 . S
C773 C772 1.524 . S
C773 C774 1.397 . S
C773 C778 1.363 . S
C774 H751 0.950 . S
C774 C773 1.397 . S
C774 C775 1.334 . S
C775 H752 0.950 . S
C775 C774 1.334 . S
C775 C776 1.287 . S
C776 C775 1.287 . S
C776 C777 1.524 . S
C776 H795 0.913 . S
C777 H753 0.950 . S
C777 C776 1.524 . S
C777 C778 1.415 . S
C778 H754 0.950 . S
C778 C773 1.363 . S
C778 C777 1.415 . S
C779 H755 0.951 . S
C779 C780 1.366 . S
C779 C781 1.388 . S
C780 C779 1.366 . S
C780 C784 1.385 . S
C781 H756 0.951 . S
C781 C779 1.388 . S
C781 C782 1.366 . S
C782 C781 1.366 . S
C782 C783 1.414 . S
C782 C785 1.499 . S
C783 H757 0.950 . S
C783 C782 1.414 . S
C783 C784 1.374 . S
C784 H758 0.950 . S
C784 C780 1.385 . S
C784 C783 1.374 . S
C785 C782 1.499 . S
C785 C786 1.373 . S
C785 C787 1.389 . S
C786 H759 0.950 . S
C786 C772 1.377 . S
C786 C785 1.373 . S
C787 C771 1.377 . S
C787 C785 1.389 . S
C787 C788 1.524 . S
C788 C787 1.524 . S
C788 C789 1.397 . S
C788 C793 1.363 . S
C789 H760 0.950 . S
C789 C788 1.397 . S
C789 C790 1.334 . S
C790 H761 0.950 . S
C790 C789 1.334 . S
C790 C791 1.287 . S
C791 C790 1.287 . S
C791 C792 1.524 . S
C791 H794 0.999 . S
C792 H762 0.950 . S
C792 C791 1.524 . S
C792 C793 1.415 . S
C793 H763 0.950 . S
C793 C788 1.363 . S
C793 C792 1.415 . S
H794 C791 0.999 . S
H795 C776 0.913 . S
H796 C814 0.951 . S
H797 C816 0.951 . S
H798 C818 0.950 . S
H799 C819 0.950 . S
H800 C821 0.950 . S
H801 C824 0.950 . S
H802 C825 0.950 . S
H803 C827 0.950 . S
H804 C828 0.950 . S
H805 C829 0.951 . S
H806 C831 0.951 . S
H807 C833 0.950 . S
H808 C834 0.951 . S
H809 C836 0.950 . S
H810 C839 0.950 . S
H811 C840 0.950 . S
H812 C842 0.950 . S
H813 C843 0.950 . S
C814 H796 0.951 . S
C814 C815 1.366 . S
C814 C816 1.388 . S
C815 C814 1.366 . S
C815 C819 1.385 . S
C816 H797 0.951 . S
C816 C814 1.388 . S
C816 C817 1.366 . S
C817 C816 1.366 . S
C817 C818 1.414 . S
C817 C820 1.499 . S
C818 H798 0.950 . S
C818 C817 1.414 . S
C818 C819 1.374 . S
C819 H799 0.950 . S
C819 C815 1.385 . S
C819 C818 1.374 . S
C820 C817 1.499 . S
C820 C821 1.373 . S
C820 C822 1.389 . S
C821 H800 0.950 . S
C821 C820 1.373 . S
C821 C837 1.377 . S
C822 C820 1.389 . S
C822 C823 1.524 . S
C822 C836 1.377 . S
C823 C822 1.524 . S
C823 C824 1.397 . S
C823 C828 1.363 . S
C824 H801 0.950 . S
C824 C823 1.397 . S
C824 C825 1.334 . S
C825 H802 0.950 . S
C825 C824 1.334 . S
C825 C826 1.287 . S
C826 C825 1.287 . S
C826 C827 1.524 1_455 S
C826 H845 0.913 1_455 S
C827 H803 0.950 . S
C827 C826 1.524 1_655 S
C827 C828 1.415 1_655 S
C828 H804 0.950 . S
C828 C823 1.363 . S
C828 C827 1.415 1_455 S
C829 H805 0.951 . S
C829 C830 1.366 . S
C829 C831 1.388 . S
C830 C829 1.366 . S
C830 C834 1.385 . S
C831 H806 0.951 . S
C831 C829 1.388 . S
C831 C832 1.366 . S
C832 C831 1.366 . S
C832 C833 1.414 . S
C832 C835 1.499 . S
C833 H807 0.950 . S
C833 C832 1.414 . S
C833 C834 1.374 . S
C834 H808 0.951 . S
C834 C830 1.385 . S
C834 C833 1.374 . S
C835 C832 1.499 . S
C835 C836 1.373 . S
C835 C837 1.389 . S
C836 H809 0.950 . S
C836 C822 1.377 . S
C836 C835 1.373 . S
C837 C821 1.377 . S
C837 C835 1.389 . S
C837 C838 1.524 . S
C838 C837 1.524 . S
C838 C839 1.397 . S
C838 C843 1.363 . S
C839 H810 0.950 . S
C839 C838 1.397 . S
C839 C840 1.334 . S
C840 H811 0.950 . S
C840 C839 1.334 . S
C840 C841 1.287 . S
C841 C840 1.287 . S
C841 C842 1.524 . S
C841 H844 0.999 . S
C842 H812 0.950 . S
C842 C841 1.524 . S
C842 C843 1.415 . S
C843 H813 0.950 . S
C843 C838 1.363 . S
C843 C842 1.415 . S
H844 C841 0.999 . S
H845 C826 0.913 1_655 S
H846 C864 0.951 . S
H847 C866 0.951 . S
H848 C868 0.950 . S
H849 C869 0.950 . S
H850 C871 0.950 . S
H851 C874 0.950 . S
H852 C875 0.950 . S
H853 C877 0.950 . S
H854 C878 0.950 . S
H855 C879 0.951 . S
H856 C881 0.951 . S
H857 C883 0.950 . S
H858 C884 0.950 . S
H859 C886 0.950 . S
H860 C889 0.950 . S
H861 C890 0.950 . S
H862 C892 0.950 . S
H863 C893 0.950 . S
C864 H846 0.951 . S
C864 C865 1.366 . S
C864 C866 1.388 . S
C865 C864 1.366 . S
C865 C869 1.385 . S
C866 H847 0.951 . S
C866 C864 1.388 . S
C866 C867 1.366 . S
C867 C866 1.366 . S
C867 C868 1.414 . S
C867 C870 1.499 . S
C868 H848 0.950 . S
C868 C867 1.414 . S
C868 C869 1.374 . S
C869 H849 0.950 . S
C869 C865 1.385 . S
C869 C868 1.374 . S
C870 C867 1.499 . S
C870 C871 1.373 . S
C870 C872 1.389 . S
C871 H850 0.950 . S
C871 C870 1.373 . S
C871 C887 1.377 . S
C872 C870 1.389 . S
C872 C873 1.524 . S
C872 C886 1.377 . S
C873 C872 1.524 . S
C873 C874 1.397 . S
C873 C878 1.363 . S
C874 H851 0.950 . S
C874 C873 1.397 . S
C874 C875 1.334 . S
C875 H852 0.950 . S
C875 C874 1.334 . S
C875 C876 1.287 . S
C876 C875 1.287 . S
C876 C877 1.524 . S
C876 H895 0.913 . S
C877 H853 0.950 . S
C877 C876 1.524 . S
C877 C878 1.415 . S
C878 H854 0.950 . S
C878 C873 1.363 . S
C878 C877 1.415 . S
C879 H855 0.951 . S
C879 C880 1.366 . S
C879 C881 1.388 . S
C880 C879 1.366 . S
C880 C884 1.385 . S
C881 H856 0.951 . S
C881 C879 1.388 . S
C881 C882 1.366 . S
C882 C881 1.366 . S
C882 C883 1.414 . S
C882 C885 1.499 . S
C883 H857 0.950 . S
C883 C882 1.414 . S
C883 C884 1.374 . S
C884 H858 0.950 . S
C884 C880 1.385 . S
C884 C883 1.374 . S
C885 C882 1.499 . S
C885 C886 1.373 . S
C885 C887 1.389 . S
C886 H859 0.950 . S
C886 C872 1.377 . S
C886 C885 1.373 . S
C887 C871 1.377 . S
C887 C885 1.389 . S
C887 C888 1.524 . S
C888 C887 1.524 . S
C888 C889 1.397 . S
C888 C893 1.363 . S
C889 H860 0.950 . S
C889 C888 1.397 . S
C889 C890 1.334 . S
C890 H861 0.950 . S
C890 C889 1.334 . S
C890 C891 1.287 . S
C891 C890 1.287 . S
C891 C892 1.524 . S
C891 H894 0.999 . S
C892 H862 0.950 . S
C892 C891 1.524 . S
C892 C893 1.415 . S
C893 H863 0.950 . S
C893 C888 1.363 . S
C893 C892 1.415 . S
H894 C891 0.999 . S
H895 C876 0.913 . S
H896 C914 0.951 . S
H897 C916 0.951 . S
H898 C918 0.950 . S
H899 C919 0.950 . S
H900 C921 0.950 . S
H901 C924 0.950 . S
H902 C925 0.950 . S
H903 C927 0.950 . S
H904 C928 0.950 . S
H905 C929 0.951 1_455 S
H906 C931 0.951 . S
H907 C933 0.950 . S
H908 C934 0.950 . S
H909 C936 0.950 . S
H910 C939 0.950 . S
H911 C940 0.950 . S
H912 C942 0.950 . S
H913 C943 0.950 . S
C914 H896 0.951 . S
C914 C915 1.366 . S
C914 C916 1.388 . S
C915 C914 1.366 . S
C915 C919 1.385 . S
C916 H897 0.951 . S
C916 C914 1.388 . S
C916 C917 1.366 . S
C917 C916 1.366 . S
C917 C918 1.414 . S
C917 C920 1.499 . S
C918 H898 0.950 . S
C918 C917 1.414 . S
C918 C919 1.374 . S
C919 H899 0.950 . S
C919 C915 1.385 . S
C919 C918 1.374 . S
C920 C917 1.499 . S
C920 C921 1.373 . S
C920 C922 1.389 . S
C921 H900 0.950 . S
C921 C920 1.373 . S
C921 C937 1.377 . S
C922 C920 1.389 . S
C922 C923 1.524 . S
C922 C936 1.377 . S
C923 C922 1.524 . S
C923 C924 1.397 . S
C923 C928 1.363 . S
C924 H901 0.950 . S
C924 C923 1.397 . S
C924 C925 1.334 . S
C925 H902 0.950 . S
C925 C924 1.334 . S
C925 C926 1.287 . S
C926 C925 1.287 . S
C926 C927 1.524 . S
C926 H945 0.913 . S
C927 H903 0.950 . S
C927 C926 1.524 . S
C927 C928 1.415 . S
C928 H904 0.950 . S
C928 C923 1.363 . S
C928 C927 1.415 . S
C929 H905 0.951 1_655 S
C929 C930 1.366 . S
C929 C931 1.388 . S
C930 C929 1.366 . S
C930 C934 1.385 . S
C931 H906 0.951 . S
C931 C929 1.388 . S
C931 C932 1.366 . S
C932 C931 1.366 . S
C932 C933 1.414 . S
C932 C935 1.499 . S
C933 H907 0.950 . S
C933 C932 1.414 . S
C933 C934 1.374 . S
C934 H908 0.950 . S
C934 C930 1.385 . S
C934 C933 1.374 . S
C935 C932 1.499 . S
C935 C936 1.373 . S
C935 C937 1.389 . S
C936 H909 0.950 . S
C936 C922 1.377 . S
C936 C935 1.373 . S
C937 C921 1.377 . S
C937 C935 1.389 . S
C937 C938 1.524 . S
C938 C937 1.524 . S
C938 C939 1.397 . S
C938 C943 1.363 . S
C939 H910 0.950 . S
C939 C938 1.397 . S
C939 C940 1.334 . S
C940 H911 0.950 . S
C940 C939 1.334 . S
C940 C941 1.287 . S
C941 C940 1.287 . S
C941 C942 1.524 . S
C941 H944 0.999 . S
C942 H912 0.950 . S
C942 C941 1.524 . S
C942 C943 1.415 . S
C943 H913 0.950 . S
C943 C938 1.363 . S
C943 C942 1.415 . S
H944 C941 0.999 . S
H945 C926 0.913 . S
H946 C964 0.951 . S
H947 C966 0.951 . S
H948 C968 0.950 . S
H949 C969 0.950 . S
H950 C971 0.950 . S
H951 C974 0.950 . S
H952 C975 0.950 . S
H953 C977 0.950 . S
H954 C978 0.950 . S
H955 C979 0.951 . S
H956 C981 0.951 . S
H957 C983 0.950 . S
H958 C984 0.950 . S
H959 C986 0.950 . S
H960 C989 0.950 . S
H961 C990 0.950 . S
H962 C992 0.950 . S
H963 C993 0.950 . S
C964 H946 0.951 . S
C964 C965 1.366 . S
C964 C966 1.388 . S
C965 C964 1.366 . S
C965 C969 1.385 . S
C966 H947 0.951 . S
C966 C964 1.388 . S
C966 C967 1.366 . S
C967 C966 1.366 . S
C967 C968 1.414 . S
C967 C970 1.499 . S
C968 H948 0.950 . S
C968 C967 1.414 . S
C968 C969 1.374 . S
C969 H949 0.950 . S
C969 C965 1.385 . S
C969 C968 1.374 . S
C970 C967 1.499 . S
C970 C971 1.373 . S
C970 C972 1.389 . S
C971 H950 0.950 . S
C971 C970 1.373 . S
C971 C987 1.377 . S
C972 C970 1.389 . S
C972 C973 1.524 . S
C972 C986 1.377 . S
C973 C972 1.524 . S
C973 C974 1.397 . S
C973 C978 1.363 . S
C974 H951 0.950 . S
C974 C973 1.397 . S
C974 C975 1.334 . S
C975 H952 0.950 . S
C975 C974 1.334 . S
C975 C976 1.287 . S
C976 C975 1.287 . S
C976 C977 1.524 . S
C976 H995 0.913 . S
C977 H953 0.950 . S
C977 C976 1.524 . S
C977 C978 1.415 . S
C978 H954 0.950 . S
C978 C973 1.363 . S
C978 C977 1.415 . S
C979 H955 0.951 . S
C979 C980 1.366 . S
C979 C981 1.388 . S
C980 C979 1.366 . S
C980 C984 1.385 . S
C981 H956 0.951 . S
C981 C979 1.388 . S
C981 C982 1.366 . S
C982 C981 1.366 . S
C982 C983 1.414 . S
C982 C985 1.499 . S
C983 H957 0.950 . S
C983 C982 1.414 . S
C983 C984 1.374 . S
C984 H958 0.950 . S
C984 C980 1.385 . S
C984 C983 1.374 . S
C985 C982 1.499 . S
C985 C986 1.373 . S
C985 C987 1.389 . S
C986 H959 0.950 . S
C986 C972 1.377 . S
C986 C985 1.373 . S
C987 C971 1.377 . S
C987 C985 1.389 . S
C987 C988 1.524 . S
C988 C987 1.524 . S
C988 C989 1.397 . S
C988 C993 1.363 . S
C989 H960 0.950 . S
C989 C988 1.397 . S
C989 C990 1.334 . S
C990 H961 0.950 . S
C990 C989 1.334 . S
C990 C991 1.287 . S
C991 C990 1.287 . S
C991 C992 1.524 . S
C991 H994 0.999 . S
C992 H962 0.950 . S
C992 C991 1.524 . S
C992 C993 1.415 . S
C993 H963 0.950 . S
C993 C988 1.363 . S
C993 C992 1.415 . S
H994 C991 0.999 . S
H995 C976 0.913 . S
H996 C1014 0.951 . S
H997 C1016 0.951 . S
H998 C1018 0.950 . S
H999 C1019 0.950 . S
H1000 C1021 0.950 . S
H1001 C1024 0.950 . S
H1002 C1025 0.950 . S
H1003 C1027 0.950 . S
H1004 C1028 0.950 . S
H1005 C1029 0.951 . S
H1006 C1031 0.951 . S
H1007 C1033 0.950 1_545 S
H1008 C1034 0.950 1_545 S
H1009 C1036 0.950 . S
H1010 C1039 0.950 . S
H1011 C1040 0.950 . S
H1012 C1042 0.950 . S
H1013 C1043 0.950 . S
C1014 H996 0.951 . S
C1014 C1015 1.366 . S
C1014 C1016 1.388 . S
C1015 C1014 1.366 . S
C1015 C1019 1.385 . S
C1016 H997 0.951 . S
C1016 C1014 1.388 . S
C1016 C1017 1.366 . S
C1017 C1016 1.366 . S
C1017 C1018 1.414 . S
C1017 C1020 1.499 . S
C1018 H998 0.950 . S
C1018 C1017 1.414 . S
C1018 C1019 1.374 . S
C1019 H999 0.950 . S
C1019 C1015 1.385 . S
C1019 C1018 1.374 . S
C1020 C1017 1.499 . S
C1020 C1021 1.373 . S
C1020 C1022 1.389 . S
C1021 H1000 0.950 . S
C1021 C1020 1.373 . S
C1021 C1037 1.377 . S
C1022 C1020 1.389 . S
C1022 C1023 1.524 . S
C1022 C1036 1.377 . S
C1023 C1022 1.524 . S
C1023 C1024 1.397 . S
C1023 C1028 1.363 1_565 S
C1024 H1001 0.950 . S
C1024 C1023 1.397 . S
C1024 C1025 1.334 . S
C1025 H1002 0.950 . S
C1025 C1024 1.334 . S
C1025 C1026 1.287 1_565 S
C1026 C1025 1.287 1_545 S
C1026 C1027 1.524 . S
C1026 H1045 0.913 . S
C1027 H1003 0.950 . S
C1027 C1026 1.524 . S
C1027 C1028 1.415 . S
C1028 H1004 0.950 . S
C1028 C1023 1.363 1_545 S
C1028 C1027 1.415 . S
C1029 H1005 0.951 . S
C1029 C1030 1.366 . S
C1029 C1031 1.388 . S
C1030 C1029 1.366 . S
C1030 C1034 1.385 . S
C1031 H1006 0.951 . S
C1031 C1029 1.388 . S
C1031 C1032 1.366 . S
C1032 C1031 1.366 . S
C1032 C1033 1.414 . S
C1032 C1035 1.499 . S
C1033 H1007 0.950 1_565 S
C1033 C1032 1.414 . S
C1033 C1034 1.374 . S
C1034 H1008 0.950 1_565 S
C1034 C1030 1.385 . S
C1034 C1033 1.374 . S
C1035 C1032 1.499 . S
C1035 C1036 1.373 . S
C1035 C1037 1.389 . S
C1036 H1009 0.950 . S
C1036 C1022 1.377 . S
C1036 C1035 1.373 . S
C1037 C1021 1.377 . S
C1037 C1035 1.389 . S
C1037 C1038 1.524 . S
C1038 C1037 1.524 . S
C1038 C1039 1.397 1_655 S
C1038 C1043 1.363 . S
C1039 H1010 0.950 . S
C1039 C1038 1.397 1_455 S
C1039 C1040 1.334 . S
C1040 H1011 0.950 . S
C1040 C1039 1.334 . S
C1040 C1041 1.287 . S
C1041 C1040 1.287 . S
C1041 C1042 1.524 . S
C1041 H1044 0.999 . S
C1042 H1012 0.950 . S
C1042 C1041 1.524 . S
C1042 C1043 1.415 1_455 S
C1043 H1013 0.950 . S
C1043 C1038 1.363 . S
C1043 C1042 1.415 1_655 S
H1044 C1041 0.999 . S
H1045 C1026 0.913 . S
H1046 C1064 0.951 . S
H1047 C1066 0.951 . S
H1048 C1068 0.950 . S
H1049 C1069 0.950 . S
H1050 C1071 0.950 . S
H1051 C1074 0.950 . S
H1052 C1075 0.950 . S
H1053 C1077 0.950 . S
H1054 C1078 0.950 . S
H1055 C1079 0.951 . S
H1056 C1081 0.951 . S
H1057 C1083 0.950 . S
H1058 C1084 0.950 . S
H1059 C1086 0.950 . S
H1060 C1089 0.948 1_545 S
H1061 C1090 0.950 . S
H1062 C1092 0.950 . S
H1063 C1093 0.950 . S
C1064 H1046 0.951 . S
C1064 C1065 1.366 . S
C1064 C1066 1.388 . S
C1065 C1064 1.366 . S
C1065 C1069 1.385 . S
C1066 H1047 0.951 . S
C1066 C1064 1.388 . S
C1066 C1067 1.366 . S
C1067 C1066 1.366 . S
C1067 C1068 1.414 . S
C1067 C1070 1.499 . S
C1068 H1048 0.950 . S
C1068 C1067 1.414 . S
C1068 C1069 1.374 . S
C1069 H1049 0.950 . S
C1069 C1065 1.385 . S
C1069 C1068 1.374 . S
C1070 C1067 1.499 . S
C1070 C1071 1.373 . S
C1070 C1072 1.389 . S
C1071 H1050 0.950 . S
C1071 C1070 1.373 . S
C1071 C1087 1.377 . S
C1072 C1070 1.389 . S
C1072 C1073 1.524 . S
C1072 C1086 1.377 . S
C1073 C1072 1.524 . S
C1073 C1074 1.397 . S
C1073 C1078 1.363 . S
C1074 H1051 0.950 . S
C1074 C1073 1.397 . S
C1074 C1075 1.334 . S
C1075 H1052 0.950 . S
C1075 C1074 1.334 . S
C1075 C1076 1.287 . S
C1076 C1075 1.287 . S
C1076 C1077 1.524 . S
C1076 H1095 0.913 . S
C1077 H1053 0.950 . S
C1077 C1076 1.524 . S
C1077 C1078 1.415 . S
C1078 H1054 0.950 . S
C1078 C1073 1.363 . S
C1078 C1077 1.415 . S
C1079 H1055 0.951 . S
C1079 C1080 1.366 . S
C1079 C1081 1.388 . S
C1080 C1079 1.366 . S
C1080 C1084 1.385 . S
C1081 H1056 0.951 . S
C1081 C1079 1.388 . S
C1081 C1082 1.366 . S
C1082 C1081 1.366 . S
C1082 C1083 1.414 . S
C1082 C1085 1.499 . S
C1083 H1057 0.950 . S
C1083 C1082 1.414 . S
C1083 C1084 1.374 . S
C1084 H1058 0.950 . S
C1084 C1080 1.385 . S
C1084 C1083 1.374 . S
C1085 C1082 1.499 . S
C1085 C1086 1.373 . S
C1085 C1087 1.389 . S
C1086 H1059 0.950 . S
C1086 C1072 1.377 . S
C1086 C1085 1.373 . S
C1087 C1071 1.377 . S
C1087 C1085 1.389 . S
C1087 C1088 1.524 . S
C1088 C1087 1.524 . S
C1088 C1089 1.387 1_545 S
C1088 C1093 1.363 . S
C1089 H1060 0.948 1_565 S
C1089 C1088 1.387 1_565 S
C1089 C1090 1.345 . S
C1090 H1061 0.950 . S
C1090 C1089 1.345 . S
C1090 C1091 1.287 . S
C1091 C1090 1.287 . S
C1091 C1092 1.524 . S
C1091 H1094 0.999 . S
C1092 H1062 0.950 . S
C1092 C1091 1.524 . S
C1092 C1093 1.415 1_565 S
C1093 H1063 0.950 . S
C1093 C1088 1.363 . S
C1093 C1092 1.415 1_545 S
H1094 C1091 0.999 . S
H1095 C1076 0.913 . S
H1096 C1114 0.951 . S
H1097 C1116 0.951 . S
H1098 C1118 0.950 . S
H1099 C1119 0.950 . S
H1100 C1121 0.950 . S
H1101 C1124 0.950 . S
H1102 C1125 0.950 . S
H1103 C1127 0.950 . S
H1104 C1128 0.950 . S
H1105 C1129 0.951 . S
H1106 C1131 0.951 . S
H1107 C1133 0.950 . S
H1108 C1134 0.950 . S
H1109 C1136 0.950 . S
H1110 C1139 0.950 . S
H1111 C1140 0.950 . S
H1112 C1142 0.950 . S
H1113 C1143 0.950 . S
C1114 H1096 0.951 . S
C1114 C1115 1.366 . S
C1114 C1116 1.388 . S
C1115 C1114 1.366 . S
C1115 C1119 1.385 . S
C1116 H1097 0.951 . S
C1116 C1114 1.388 . S
C1116 C1117 1.366 . S
C1117 C1116 1.366 . S
C1117 C1118 1.414 . S
C1117 C1120 1.499 . S
C1118 H1098 0.950 . S
C1118 C1117 1.414 . S
C1118 C1119 1.374 . S
C1119 H1099 0.950 . S
C1119 C1115 1.385 . S
C1119 C1118 1.374 . S
C1120 C1117 1.499 . S
C1120 C1121 1.373 . S
C1120 C1122 1.389 . S
C1121 H1100 0.950 . S
C1121 C1120 1.373 . S
C1121 C1137 1.377 . S
C1122 C1120 1.389 . S
C1122 C1123 1.524 . S
C1122 C1136 1.377 . S
C1123 C1122 1.524 . S
C1123 C1124 1.397 . S
C1123 C1128 1.363 . S
C1124 H1101 0.950 . S
C1124 C1123 1.397 . S
C1124 C1125 1.334 . S
C1125 H1102 0.950 . S
C1125 C1124 1.334 . S
C1125 C1126 1.287 . S
C1126 C1125 1.287 . S
C1126 C1127 1.524 . S
C1126 H1145 0.913 . S
C1127 H1103 0.950 . S
C1127 C1126 1.524 . S
C1127 C1128 1.415 . S
C1128 H1104 0.950 . S
C1128 C1123 1.363 . S
C1128 C1127 1.415 . S
C1129 H1105 0.951 . S
C1129 C1130 1.366 . S
C1129 C1131 1.388 . S
C1130 C1129 1.366 . S
C1130 C1134 1.385 . S
C1131 H1106 0.951 . S
C1131 C1129 1.388 . S
C1131 C1132 1.366 . S
C1132 C1131 1.366 . S
C1132 C1133 1.414 . S
C1132 C1135 1.499 . S
C1133 H1107 0.950 . S
C1133 C1132 1.414 . S
C1133 C1134 1.374 . S
C1134 H1108 0.950 . S
C1134 C1130 1.385 . S
C1134 C1133 1.374 . S
C1135 C1132 1.499 . S
C1135 C1136 1.373 . S
C1135 C1137 1.389 . S
C1136 H1109 0.950 . S
C1136 C1122 1.377 . S
C1136 C1135 1.373 . S
C1137 C1121 1.377 . S
C1137 C1135 1.389 . S
C1137 C1138 1.524 . S
C1138 C1137 1.524 . S
C1138 C1139 1.397 . S
C1138 C1143 1.363 . S
C1139 H1110 0.950 . S
C1139 C1138 1.397 . S
C1139 C1140 1.334 . S
C1140 H1111 0.950 . S
C1140 C1139 1.334 . S
C1140 C1141 1.287 . S
C1141 C1140 1.287 . S
C1141 C1142 1.524 . S
C1141 H1144 0.999 . S
C1142 H1112 0.950 . S
C1142 C1141 1.524 . S
C1142 C1143 1.415 . S
C1143 H1113 0.950 . S
C1143 C1138 1.363 . S
C1143 C1142 1.415 . S
H1144 C1141 0.999 . S
H1145 C1126 0.913 . S
H1146 C1164 0.951 . S
H1147 C1166 0.951 . S
H1148 C1168 0.950 . S
H1149 C1169 0.950 . S
H1150 C1171 0.950 . S
H1151 C1174 0.950 . S
H1152 C1175 0.950 . S
H1153 C1177 0.950 . S
H1154 C1178 0.950 . S
H1155 C1179 0.951 . S
H1156 C1181 0.951 . S
H1157 C1183 0.950 . S
H1158 C1184 0.950 . S
H1159 C1186 0.950 . S
H1160 C1189 0.950 1_455 S
H1161 C1190 0.950 . S
H1162 C1192 0.950 . S
H1163 C1193 0.950 . S
C1164 H1146 0.951 . S
C1164 C1165 1.366 . S
C1164 C1166 1.388 . S
C1165 C1164 1.366 . S
C1165 C1169 1.385 . S
C1166 H1147 0.951 . S
C1166 C1164 1.388 . S
C1166 C1167 1.366 . S
C1167 C1166 1.366 . S
C1167 C1168 1.414 . S
C1167 C1170 1.499 . S
C1168 H1148 0.950 . S
C1168 C1167 1.414 . S
C1168 C1169 1.374 . S
C1169 H1149 0.950 . S
C1169 C1165 1.385 . S
C1169 C1168 1.374 . S
C1170 C1167 1.499 . S
C1170 C1171 1.373 . S
C1170 C1172 1.389 . S
C1171 H1150 0.950 . S
C1171 C1170 1.373 . S
C1171 C1187 1.377 . S
C1172 C1170 1.389 . S
C1172 C1173 1.524 . S
C1172 C1186 1.377 . S
C1173 C1172 1.524 . S
C1173 C1174 1.397 . S
C1173 C1178 1.363 . S
C1174 H1151 0.950 . S
C1174 C1173 1.397 . S
C1174 C1175 1.334 . S
C1175 H1152 0.950 . S
C1175 C1174 1.334 . S
C1175 C1176 1.287 . S
C1176 C1175 1.287 . S
C1176 C1177 1.524 . S
C1176 H1195 0.913 . S
C1177 H1153 0.950 . S
C1177 C1176 1.524 . S
C1177 C1178 1.415 . S
C1178 H1154 0.950 . S
C1178 C1173 1.363 . S
C1178 C1177 1.415 . S
C1179 H1155 0.951 . S
C1179 C1180 1.366 . S
C1179 C1181 1.388 . S
C1180 C1179 1.366 . S
C1180 C1184 1.385 . S
C1181 H1156 0.951 . S
C1181 C1179 1.388 . S
C1181 C1182 1.366 . S
C1182 C1181 1.366 . S
C1182 C1183 1.414 . S
C1182 C1185 1.499 . S
C1183 H1157 0.950 . S
C1183 C1182 1.414 . S
C1183 C1184 1.374 . S
C1184 H1158 0.950 . S
C1184 C1180 1.385 . S
C1184 C1183 1.374 . S
C1185 C1182 1.499 . S
C1185 C1186 1.373 . S
C1185 C1187 1.389 . S
C1186 H1159 0.950 . S
C1186 C1172 1.377 . S
C1186 C1185 1.373 . S
C1187 C1171 1.377 . S
C1187 C1185 1.389 . S
C1187 C1188 1.524 . S
C1188 C1187 1.524 . S
C1188 C1189 1.397 1_455 S
C1188 C1193 1.363 1_455 S
C1189 H1160 0.950 1_655 S
C1189 C1188 1.397 1_655 S
C1189 C1190 1.334 . S
C1190 H1161 0.950 . S
C1190 C1189 1.334 . S
C1190 C1191 1.287 . S
C1191 C1190 1.287 . S
C1191 C1192 1.524 . S
C1191 H1194 0.999 . S
C1192 H1162 0.950 . S
C1192 C1191 1.524 . S
C1192 C1193 1.415 . S
C1193 H1163 0.950 . S
C1193 C1188 1.363 1_655 S
C1193 C1192 1.415 . S
H1194 C1191 0.999 . S
H1195 C1176 0.913 . S
H1196 C1214 0.951 . S
H1197 C1216 0.951 . S
H1198 C1218 0.950 . S
H1199 C1219 0.950 . S
H1200 C1221 0.950 . S
H1201 C1224 0.950 . S
H1202 C1225 0.950 . S
H1203 C1227 0.950 . S
H1204 C1228 0.950 . S
H1205 C1229 0.951 1_544 S
H1206 C1231 0.951 . S
H1207 C1233 0.950 . S
H1208 C1234 0.950 . S
H1209 C1236 0.950 . S
H1210 C1239 0.952 1_556 S
H1211 C1240 0.950 . S
H1212 C1242 0.950 . S
H1213 C1243 0.950 . S
C1214 H1196 0.951 . S
C1214 C1215 1.366 . S
C1214 C1216 1.388 . S
C1215 C1214 1.366 . S
C1215 C1219 1.385 . S
C1216 H1197 0.951 . S
C1216 C1214 1.388 . S
C1216 C1217 1.366 . S
C1217 C1216 1.366 . S
C1217 C1218 1.414 . S
C1217 C1220 1.499 . S
C1218 H1198 0.950 . S
C1218 C1217 1.414 . S
C1218 C1219 1.374 . S
C1219 H1199 0.950 . S
C1219 C1215 1.385 . S
C1219 C1218 1.374 . S
C1220 C1217 1.499 . S
C1220 C1221 1.373 . S
C1220 C1222 1.389 . S
C1221 H1200 0.950 . S
C1221 C1220 1.373 . S
C1221 C1237 1.377 . S
C1222 C1220 1.389 . S
C1222 C1223 1.524 . S
C1222 C1236 1.377 . S
C1223 C1222 1.524 . S
C1223 C1224 1.397 . S
C1223 C1228 1.363 . S
C1224 H1201 0.950 . S
C1224 C1223 1.397 . S
C1224 C1225 1.334 . S
C1225 H1202 0.950 . S
C1225 C1224 1.334 . S
C1225 C1226 1.287 . S
C1226 C1225 1.287 . S
C1226 C1227 1.524 . S
C1226 H1245 0.913 . S
C1227 H1203 0.950 . S
C1227 C1226 1.524 . S
C1227 C1228 1.415 . S
C1228 H1204 0.950 . S
C1228 C1223 1.363 . S
C1228 C1227 1.415 . S
C1229 H1205 0.951 1_566 S
C1229 C1230 1.366 . S
C1229 C1231 1.388 . S
C1230 C1229 1.366 . S
C1230 C1234 1.385 . S
C1231 H1206 0.951 . S
C1231 C1229 1.388 . S
C1231 C1232 1.366 . S
C1232 C1231 1.366 . S
C1232 C1233 1.414 . S
C1232 C1235 1.499 . S
C1233 H1207 0.950 . S
C1233 C1232 1.414 . S
C1233 C1234 1.374 . S
C1234 H1208 0.950 . S
C1234 C1230 1.385 . S
C1234 C1233 1.374 . S
C1235 C1232 1.499 . S
C1235 C1236 1.373 . S
C1235 C1237 1.389 . S
C1236 H1209 0.950 . S
C1236 C1222 1.377 . S
C1236 C1235 1.373 . S
C1237 C1221 1.377 . S
C1237 C1235 1.389 . S
C1237 C1238 1.524 . S
C1238 C1237 1.524 . S
C1238 C1239 1.397 1_556 S
C1238 C1243 1.363 1_556 S
C1239 H1210 0.952 1_554 S
C1239 C1238 1.397 1_554 S
C1239 C1240 1.331 . S
C1240 H1211 0.950 . S
C1240 C1239 1.331 . S
C1240 C1241 1.287 . S
C1241 C1240 1.287 . S
C1241 C1242 1.524 . S
C1241 H1244 0.999 . S
C1242 H1212 0.950 . S
C1242 C1241 1.524 . S
C1242 C1243 1.415 . S
C1243 H1213 0.950 . S
C1243 C1238 1.363 1_554 S
C1243 C1242 1.415 . S
H1244 C1241 0.999 . S
H1245 C1226 0.913 . S
H1246 C1264 0.951 . S
H1247 C1266 0.951 . S
H1248 C1268 0.950 . S
H1249 C1269 0.950 . S
H1250 C1271 0.950 . S
H1251 C1274 0.950 . S
H1252 C1275 0.950 . S
H1253 C1277 0.950 . S
H1254 C1278 0.950 . S
H1255 C1279 0.951 . S
H1256 C1281 0.951 . S
H1257 C1283 0.950 . S
H1258 C1284 0.950 . S
H1259 C1286 0.950 . S
H1260 C1289 0.950 . S
H1261 C1290 0.950 . S
H1262 C1292 0.950 . S
H1263 C1293 0.950 . S
C1264 H1246 0.951 . S
C1264 C1265 1.366 . S
C1264 C1266 1.388 . S
C1265 C1264 1.366 . S
C1265 C1269 1.385 . S
C1266 H1247 0.951 . S
C1266 C1264 1.388 . S
C1266 C1267 1.366 . S
C1267 C1266 1.366 . S
C1267 C1268 1.414 . S
C1267 C1270 1.499 . S
C1268 H1248 0.950 . S
C1268 C1267 1.414 . S
C1268 C1269 1.374 . S
C1269 H1249 0.950 . S
C1269 C1265 1.385 . S
C1269 C1268 1.374 . S
C1270 C1267 1.499 . S
C1270 C1271 1.373 . S
C1270 C1272 1.389 . S
C1271 H1250 0.950 . S
C1271 C1270 1.373 . S
C1271 C1287 1.377 . S
C1272 C1270 1.389 . S
C1272 C1273 1.524 . S
C1272 C1286 1.377 . S
C1273 C1272 1.524 . S
C1273 C1274 1.397 . S
C1273 C1278 1.363 . S
C1274 H1251 0.950 . S
C1274 C1273 1.397 . S
C1274 C1275 1.334 . S
C1275 H1252 0.950 . S
C1275 C1274 1.334 . S
C1275 C1276 1.287 . S
C1276 C1275 1.287 . S
C1276 C1277 1.524 . S
C1276 H1295 0.913 1_545 S
C1277 H1253 0.950 . S
C1277 C1276 1.524 . S
C1277 C1278 1.415 . S
C1278 H1254 0.950 . S
C1278 C1273 1.363 . S
C1278 C1277 1.415 . S
C1279 H1255 0.951 . S
C1279 C1280 1.366 . S
C1279 C1281 1.388 . S
C1280 C1279 1.366 . S
C1280 C1284 1.385 . S
C1281 H1256 0.951 . S
C1281 C1279 1.388 . S
C1281 C1282 1.366 . S
C1282 C1281 1.366 . S
C1282 C1283 1.414 . S
C1282 C1285 1.499 . S
C1283 H1257 0.950 . S
C1283 C1282 1.414 . S
C1283 C1284 1.374 . S
C1284 H1258 0.950 . S
C1284 C1280 1.385 . S
C1284 C1283 1.374 . S
C1285 C1282 1.499 . S
C1285 C1286 1.373 . S
C1285 C1287 1.389 . S
C1286 H1259 0.950 . S
C1286 C1272 1.377 . S
C1286 C1285 1.373 . S
C1287 C1271 1.377 . S
C1287 C1285 1.389 . S
C1287 C1288 1.524 . S
C1288 C1287 1.524 . S
C1288 C1289 1.397 . S
C1288 C1293 1.363 . S
C1289 H1260 0.950 . S
C1289 C1288 1.397 . S
C1289 C1290 1.334 . S
C1290 H1261 0.950 . S
C1290 C1289 1.334 . S
C1290 C1291 1.287 . S
C1291 C1290 1.287 . S
C1291 C1292 1.524 . S
C1291 H1294 0.999 . S
C1292 H1262 0.950 . S
C1292 C1291 1.524 . S
C1292 C1293 1.415 . S
C1293 H1263 0.950 . S
C1293 C1288 1.363 . S
C1293 C1292 1.415 . S
H1294 C1291 0.999 . S
H1295 C1276 0.913 1_565 S
H1296 C1314 0.951 . S
H1297 C1316 0.951 . S
H1298 C1318 0.950 . S
H1299 C1319 0.950 . S
H1300 C1321 0.950 . S
H1301 C1324 0.950 . S
H1302 C1325 0.950 . S
H1303 C1327 0.950 . S
H1304 C1328 0.950 . S
H1305 C1329 0.951 . S
H1306 C1331 0.951 . S
H1307 C1333 0.950 . S
H1308 C1334 0.950 . S
H1309 C1336 0.950 . S
H1310 C1339 0.950 1_554 S
H1311 C1340 0.950 . S
H1312 C1342 0.950 . S
H1313 C1343 0.950 1_554 S
C1314 H1296 0.951 . S
C1314 C1315 1.366 . S
C1314 C1316 1.388 . S
C1315 C1314 1.366 . S
C1315 C1319 1.385 . S
C1316 H1297 0.951 . S
C1316 C1314 1.388 . S
C1316 C1317 1.366 . S
C1317 C1316 1.366 . S
C1317 C1318 1.414 . S
C1317 C1320 1.499 . S
C1318 H1298 0.950 . S
C1318 C1317 1.414 . S
C1318 C1319 1.374 . S
C1319 H1299 0.950 . S
C1319 C1315 1.385 . S
C1319 C1318 1.374 . S
C1320 C1317 1.499 . S
C1320 C1321 1.373 . S
C1320 C1322 1.389 . S
C1321 H1300 0.950 . S
C1321 C1320 1.373 . S
C1321 C1337 1.377 . S
C1322 C1320 1.389 . S
C1322 C1323 1.524 . S
C1322 C1336 1.377 . S
C1323 C1322 1.524 . S
C1323 C1324 1.397 . S
C1323 C1328 1.363 . S
C1324 H1301 0.950 . S
C1324 C1323 1.397 . S
C1324 C1325 1.334 . S
C1325 H1302 0.950 . S
C1325 C1324 1.334 . S
C1325 C1326 1.287 . S
C1326 C1325 1.287 . S
C1326 C1327 1.524 . S
C1326 H1345 0.913 . S
C1327 H1303 0.950 . S
C1327 C1326 1.524 . S
C1327 C1328 1.415 . S
C1328 H1304 0.950 . S
C1328 C1323 1.363 . S
C1328 C1327 1.415 . S
C1329 H1305 0.951 . S
C1329 C1330 1.366 . S
C1329 C1331 1.388 . S
C1330 C1329 1.366 . S
C1330 C1334 1.385 . S
C1331 H1306 0.951 . S
C1331 C1329 1.388 . S
C1331 C1332 1.366 . S
C1332 C1331 1.366 . S
C1332 C1333 1.414 . S
C1332 C1335 1.499 . S
C1333 H1307 0.950 . S
C1333 C1332 1.414 . S
C1333 C1334 1.374 . S
C1334 H1308 0.950 . S
C1334 C1330 1.385 . S
C1334 C1333 1.374 . S
C1335 C1332 1.499 . S
C1335 C1336 1.373 . S
C1335 C1337 1.389 . S
C1336 H1309 0.950 . S
C1336 C1322 1.377 . S
C1336 C1335 1.373 . S
C1337 C1321 1.377 . S
C1337 C1335 1.389 . S
C1337 C1338 1.524 . S
C1338 C1337 1.524 . S
C1338 C1339 1.397 1_554 S
C1338 C1343 1.363 1_554 S
C1339 H1310 0.950 1_556 S
C1339 C1338 1.397 1_556 S
C1339 C1340 1.334 . S
C1340 H1311 0.950 . S
C1340 C1339 1.334 . S
C1340 C1341 1.287 . S
C1341 C1340 1.287 . S
C1341 C1342 1.524 . S
C1341 H1344 0.999 . S
C1342 H1312 0.950 . S
C1342 C1341 1.524 . S
C1342 C1343 1.415 . S
C1343 H1313 0.950 1_556 S
C1343 C1338 1.363 1_556 S
C1343 C1342 1.415 . S
H1344 C1341 0.999 . S
H1345 C1326 0.913 . S
H1346 C1364 0.951 . S
H1347 C1366 0.951 . S
H1348 C1368 0.950 . S
H1349 C1369 0.950 . S
H1350 C1371 0.950 . S
H1351 C1374 0.950 . S
H1352 C1375 0.950 . S
H1353 C1377 0.950 . S
H1354 C1378 0.950 . S
H1355 C1379 0.951 . S
H1356 C1381 0.951 . S
H1357 C1383 0.950 . S
H1358 C1384 0.950 . S
H1359 C1386 0.950 . S
H1360 C1389 0.950 . S
H1361 C1390 0.950 . S
H1362 C1392 0.950 . S
H1363 C1393 0.950 . S
C1364 H1346 0.951 . S
C1364 C1365 1.366 . S
C1364 C1366 1.388 . S
C1365 C1364 1.366 . S
C1365 C1369 1.385 . S
C1366 H1347 0.951 . S
C1366 C1364 1.388 . S
C1366 C1367 1.366 . S
C1367 C1366 1.366 . S
C1367 C1368 1.414 . S
C1367 C1370 1.499 . S
C1368 H1348 0.950 . S
C1368 C1367 1.414 . S
C1368 C1369 1.374 . S
C1369 H1349 0.950 . S
C1369 C1365 1.385 . S
C1369 C1368 1.374 . S
C1370 C1367 1.499 . S
C1370 C1371 1.373 . S
C1370 C1372 1.389 . S
C1371 H1350 0.950 . S
C1371 C1370 1.373 . S
C1371 C1387 1.377 . S
C1372 C1370 1.389 . S
C1372 C1373 1.524 . S
C1372 C1386 1.377 . S
C1373 C1372 1.524 . S
C1373 C1374 1.397 . S
C1373 C1378 1.363 . S
C1374 H1351 0.950 . S
C1374 C1373 1.397 . S
C1374 C1375 1.334 . S
C1375 H1352 0.950 . S
C1375 C1374 1.334 . S
C1375 C1376 1.287 . S
C1376 C1375 1.287 . S
C1376 C1377 1.524 . S
C1376 H1395 0.913 . S
C1377 H1353 0.950 . S
C1377 C1376 1.524 . S
C1377 C1378 1.415 . S
C1378 H1354 0.950 . S
C1378 C1373 1.363 . S
C1378 C1377 1.415 . S
C1379 H1355 0.951 . S
C1379 C1380 1.366 . S
C1379 C1381 1.388 . S
C1380 C1379 1.366 . S
C1380 C1384 1.385 . S
C1381 H1356 0.951 . S
C1381 C1379 1.388 . S
C1381 C1382 1.366 . S
C1382 C1381 1.366 . S
C1382 C1383 1.414 . S
C1382 C1385 1.499 . S
C1383 H1357 0.950 . S
C1383 C1382 1.414 . S
C1383 C1384 1.374 . S
C1384 H1358 0.950 . S
C1384 C1380 1.385 . S
C1384 C1383 1.374 . S
C1385 C1382 1.499 . S
C1385 C1386 1.373 . S
C1385 C1387 1.389 . S
C1386 H1359 0.950 . S
C1386 C1372 1.377 . S
C1386 C1385 1.373 . S
C1387 C1371 1.377 . S
C1387 C1385 1.389 . S
C1387 C1388 1.524 . S
C1388 C1387 1.524 . S
C1388 C1389 1.397 . S
C1388 C1393 1.363 . S
C1389 H1360 0.950 . S
C1389 C1388 1.397 . S
C1389 C1390 1.334 . S
C1390 H1361 0.950 . S
C1390 C1389 1.334 . S
C1390 C1391 1.287 . S
C1391 C1390 1.287 . S
C1391 C1392 1.524 . S
C1391 H1394 0.999 . S
C1392 H1362 0.950 . S
C1392 C1391 1.524 . S
C1392 C1393 1.415 . S
C1393 H1363 0.950 . S
C1393 C1388 1.363 . S
C1393 C1392 1.415 . S
H1394 C1391 0.999 . S
H1395 C1376 0.913 . S
H1396 C1414 0.951 . S
H1397 C1416 0.951 . S
H1398 C1418 0.950 . S
H1399 C1419 0.950 . S
H1400 C1421 0.950 . S
H1401 C1424 0.950 . S
H1402 C1425 0.950 . S
H1403 C1427 0.950 . S
H1404 C1428 0.950 1_556 S
H1405 C1429 0.951 1_455 S
H1406 C1431 0.951 . S
H1407 C1433 0.950 . S
H1408 C1434 0.950 . S
H1409 C1436 0.950 . S
H1410 C1439 0.950 . S
H1411 C1440 0.950 . S
H1412 C1442 0.950 1_455 S
H1413 C1443 0.950 . S
C1414 H1396 0.951 . S
C1414 C1415 1.366 . S
C1414 C1416 1.388 . S
C1415 C1414 1.366 . S
C1415 C1419 1.385 . S
C1416 H1397 0.951 . S
C1416 C1414 1.388 . S
C1416 C1417 1.366 . S
C1417 C1416 1.366 . S
C1417 C1418 1.414 . S
C1417 C1420 1.499 . S
C1418 H1398 0.950 . S
C1418 C1417 1.414 . S
C1418 C1419 1.374 . S
C1419 H1399 0.950 . S
C1419 C1415 1.385 . S
C1419 C1418 1.374 . S
C1420 C1417 1.499 . S
C1420 C1421 1.373 . S
C1420 C1422 1.389 . S
C1421 H1400 0.950 . S
C1421 C1420 1.373 . S
C1421 C1437 1.377 . S
C1422 C1420 1.389 . S
C1422 C1423 1.524 . S
C1422 C1436 1.377 . S
C1423 C1422 1.524 . S
C1423 C1424 1.397 . S
C1423 C1428 1.363 1_556 S
C1424 H1401 0.950 . S
C1424 C1423 1.397 . S
C1424 C1425 1.334 1_556 S
C1425 H1402 0.950 . S
C1425 C1424 1.334 1_554 S
C1425 C1426 1.287 . S
C1426 C1425 1.287 . S
C1426 C1427 1.524 . S
C1426 H1445 0.913 . S
C1427 H1403 0.950 . S
C1427 C1426 1.524 . S
C1427 C1428 1.415 . S
C1428 H1404 0.950 1_554 S
C1428 C1423 1.363 1_554 S
C1428 C1427 1.415 . S
C1429 H1405 0.951 1_655 S
C1429 C1430 1.366 . S
C1429 C1431 1.388 . S
C1430 C1429 1.366 . S
C1430 C1434 1.385 . S
C1431 H1406 0.951 . S
C1431 C1429 1.388 . S
C1431 C1432 1.366 . S
C1432 C1431 1.366 . S
C1432 C1433 1.414 . S
C1432 C1435 1.499 . S
C1433 H1407 0.950 . S
C1433 C1432 1.414 . S
C1433 C1434 1.374 . S
C1434 H1408 0.950 . S
C1434 C1430 1.385 . S
C1434 C1433 1.374 . S
C1435 C1432 1.499 . S
C1435 C1436 1.373 . S
C1435 C1437 1.389 . S
C1436 H1409 0.950 . S
C1436 C1422 1.377 . S
C1436 C1435 1.373 . S
C1437 C1421 1.377 . S
C1437 C1435 1.389 . S
C1437 C1438 1.524 . S
C1438 C1437 1.524 . S
C1438 C1439 1.397 . S
C1438 C1443 1.363 . S
C1439 H1410 0.950 . S
C1439 C1438 1.397 . S
C1439 C1440 1.334 . S
C1440 H1411 0.950 . S
C1440 C1439 1.334 . S
C1440 C1441 1.287 . S
C1441 C1440 1.287 . S
C1441 C1442 1.524 . S
C1441 H1444 0.999 . S
C1442 H1412 0.950 1_655 S
C1442 C1441 1.524 . S
C1442 C1443 1.415 . S
C1443 H1413 0.950 . S
C1443 C1438 1.363 . S
C1443 C1442 1.415 . S
H1444 C1441 0.999 . S
H1445 C1426 0.913 . S
H1446 C1464 0.951 . S
H1447 C1466 0.951 . S
H1448 C1468 0.950 . S
H1449 C1469 0.950 . S
H1450 C1471 0.950 . S
H1451 C1474 0.950 . S
H1452 C1475 0.950 . S
H1453 C1477 0.950 . S
H1454 C1478 0.950 . S
H1455 C1479 0.951 . S
H1456 C1481 0.951 . S
H1457 C1483 0.950 . S
H1458 C1484 0.950 . S
H1459 C1486 0.950 . S
H1460 C1489 0.950 . S
H1461 C1490 0.950 . S
H1462 C1492 0.950 . S
H1463 C1493 0.950 . S
C1464 H1446 0.951 . S
C1464 C1465 1.366 . S
C1464 C1466 1.388 . S
C1465 C1464 1.366 . S
C1465 C1469 1.385 . S
C1466 H1447 0.951 . S
C1466 C1464 1.388 . S
C1466 C1467 1.366 . S
C1467 C1466 1.366 . S
C1467 C1468 1.414 . S
C1467 C1470 1.499 . S
C1468 H1448 0.950 . S
C1468 C1467 1.414 . S
C1468 C1469 1.374 . S
C1469 H1449 0.950 . S
C1469 C1465 1.385 . S
C1469 C1468 1.374 . S
C1470 C1467 1.499 . S
C1470 C1471 1.373 . S
C1470 C1472 1.389 . S
C1471 H1450 0.950 . S
C1471 C1470 1.373 . S
C1471 C1487 1.377 . S
C1472 C1470 1.389 . S
C1472 C1473 1.524 . S
C1472 C1486 1.377 . S
C1473 C1472 1.524 . S
C1473 C1474 1.397 . S
C1473 C1478 1.363 . S
C1474 H1451 0.950 . S
C1474 C1473 1.397 . S
C1474 C1475 1.334 . S
C1475 H1452 0.950 . S
C1475 C1474 1.334 . S
C1475 C1476 1.287 . S
C1476 C1475 1.287 . S
C1476 C1477 1.524 . S
C1476 H1495 0.913 . S
C1477 H1453 0.950 . S
C1477 C1476 1.524 . S
C1477 C1478 1.415 . S
C1478 H1454 0.950 . S
C1478 C1473 1.363 . S
C1478 C1477 1.415 . S
C1479 H1455 0.951 . S
C1479 C1480 1.366 . S
C1479 C1481 1.388 . S
C1480 C1479 1.366 . S
C1480 C1484 1.385 . S
C1481 H1456 0.951 . S
C1481 C1479 1.388 . S
C1481 C1482 1.366 . S
C1482 C1481 1.366 . S
C1482 C1483 1.414 . S
C1482 C1485 1.499 . S
C1483 H1457 0.950 . S
C1483 C1482 1.414 . S
C1483 C1484 1.374 . S
C1484 H1458 0.950 . S
C1484 C1480 1.385 . S
C1484 C1483 1.374 . S
C1485 C1482 1.499 . S
C1485 C1486 1.373 . S
C1485 C1487 1.389 . S
C1486 H1459 0.950 . S
C1486 C1472 1.377 . S
C1486 C1485 1.373 . S
C1487 C1471 1.377 . S
C1487 C1485 1.389 . S
C1487 C1488 1.524 . S
C1488 C1487 1.524 . S
C1488 C1489 1.397 . S
C1488 C1493 1.363 . S
C1489 H1460 0.950 . S
C1489 C1488 1.397 . S
C1489 C1490 1.334 . S
C1490 H1461 0.950 . S
C1490 C1489 1.334 . S
C1490 C1491 1.287 . S
C1491 C1490 1.287 . S
C1491 C1492 1.524 . S
C1491 H1494 0.999 . S
C1492 H1462 0.950 . S
C1492 C1491 1.524 . S
C1492 C1493 1.415 . S
C1493 H1463 0.950 . S
C1493 C1488 1.363 . S
C1493 C1492 1.415 . S
H1494 C1491 0.999 . S
H1495 C1476 0.913 . S
H1496 C1514 0.951 . S
H1497 C1516 0.951 . S
H1498 C1518 0.950 . S
H1499 C1519 0.950 . S
H1500 C1521 0.950 . S
H1501 C1524 0.950 . S
H1502 C1525 0.950 . S
H1503 C1527 0.950 . S
H1504 C1528 0.950 1_655 S
H1505 C1529 0.951 . S
H1506 C1531 0.951 . S
H1507 C1533 0.950 1_655 S
H1508 C1534 0.942 1_655 S
H1509 C1536 0.950 . S
H1510 C1539 0.950 . S
H1511 C1540 0.950 . S
H1512 C1542 0.950 . S
H1513 C1543 0.950 . S
C1514 H1496 0.951 . S
C1514 C1515 1.366 . S
C1514 C1516 1.388 . S
C1515 C1514 1.366 . S
C1515 C1519 1.385 . S
C1516 H1497 0.951 . S
C1516 C1514 1.388 . S
C1516 C1517 1.366 . S
C1517 C1516 1.366 . S
C1517 C1518 1.414 . S
C1517 C1520 1.499 . S
C1518 H1498 0.950 . S
C1518 C1517 1.414 . S
C1518 C1519 1.374 . S
C1519 H1499 0.950 . S
C1519 C1515 1.385 . S
C1519 C1518 1.374 . S
C1520 C1517 1.499 . S
C1520 C1521 1.373 . S
C1520 C1522 1.389 . S
C1521 H1500 0.950 . S
C1521 C1520 1.373 . S
C1521 C1537 1.377 . S
C1522 C1520 1.389 . S
C1522 C1523 1.524 . S
C1522 C1536 1.377 . S
C1523 C1522 1.524 . S
C1523 C1524 1.397 . S
C1523 C1528 1.363 . S
C1524 H1501 0.950 . S
C1524 C1523 1.397 . S
C1524 C1525 1.334 . S
C1525 H1502 0.950 . S
C1525 C1524 1.334 . S
C1525 C1526 1.287 . S
C1526 C1525 1.287 . S
C1526 C1527 1.524 1_455 S
C1526 H1545 0.913 . S
C1527 H1503 0.950 . S
C1527 C1526 1.524 1_655 S
C1527 C1528 1.415 1_655 S
C1528 H1504 0.950 1_455 S
C1528 C1523 1.363 . S
C1528 C1527 1.415 1_455 S
C1529 H1505 0.951 . S
C1529 C1530 1.366 . S
C1529 C1531 1.388 . S
C1530 C1529 1.366 . S
C1530 C1534 1.392 . S
C1531 H1506 0.951 . S
C1531 C1529 1.388 . S
C1531 C1532 1.366 . S
C1532 C1531 1.366 . S
C1532 C1533 1.414 . S
C1532 C1535 1.499 . S
C1533 H1507 0.950 1_455 S
C1533 C1532 1.414 . S
C1533 C1534 1.375 . S
C1534 H1508 0.942 1_455 S
C1534 C1530 1.392 . S
C1534 C1533 1.375 . S
C1535 C1532 1.499 . S
C1535 C1536 1.373 . S
C1535 C1537 1.389 . S
C1536 H1509 0.950 . S
C1536 C1522 1.377 . S
C1536 C1535 1.373 . S
C1537 C1521 1.377 . S
C1537 C1535 1.389 . S
C1537 C1538 1.524 . S
C1538 C1537 1.524 . S
C1538 C1539 1.397 . S
C1538 C1543 1.363 . S
C1539 H1510 0.950 . S
C1539 C1538 1.397 . S
C1539 C1540 1.334 . S
C1540 H1511 0.950 . S
C1540 C1539 1.334 . S
C1540 C1541 1.287 . S
C1541 C1540 1.287 . S
C1541 C1542 1.524 . S
C1541 H1544 0.999 . S
C1542 H1512 0.950 . S
C1542 C1541 1.524 . S
C1542 C1543 1.415 . S
C1543 H1513 0.950 . S
C1543 C1538 1.363 . S
C1543 C1542 1.415 . S
H1544 C1541 0.999 . S
H1545 C1526 0.913 . S
H1546 C1564 0.951 . S
H1547 C1566 0.951 . S
H1548 C1568 0.950 . S
H1549 C1569 0.950 . S
H1550 C1571 0.950 . S
H1551 C1574 0.950 . S
H1552 C1575 0.950 . S
H1553 C1577 0.950 . S
H1554 C1578 0.950 . S
H1555 C1579 0.951 . S
H1556 C1581 0.951 . S
H1557 C1583 0.950 . S
H1558 C1584 0.950 . S
H1559 C1586 0.950 . S
H1560 C1589 0.950 . S
H1561 C1590 0.950 . S
H1562 C1592 0.950 . S
H1563 C1593 0.950 . S
C1564 H1546 0.951 . S
C1564 C1565 1.366 . S
C1564 C1566 1.388 . S
C1565 C1564 1.366 . S
C1565 C1569 1.385 . S
C1566 H1547 0.951 . S
C1566 C1564 1.388 . S
C1566 C1567 1.366 . S
C1567 C1566 1.366 . S
C1567 C1568 1.414 . S
C1567 C1570 1.499 . S
C1568 H1548 0.950 . S
C1568 C1567 1.414 . S
C1568 C1569 1.374 . S
C1569 H1549 0.950 . S
C1569 C1565 1.385 . S
C1569 C1568 1.374 . S
C1570 C1567 1.499 . S
C1570 C1571 1.373 . S
C1570 C1572 1.389 . S
C1571 H1550 0.950 . S
C1571 C1570 1.373 . S
C1571 C1587 1.377 . S
C1572 C1570 1.389 . S
C1572 C1573 1.524 . S
C1572 C1586 1.377 . S
C1573 C1572 1.524 . S
C1573 C1574 1.397 . S
C1573 C1578 1.363 . S
C1574 H1551 0.950 . S
C1574 C1573 1.397 . S
C1574 C1575 1.334 . S
C1575 H1552 0.950 . S
C1575 C1574 1.334 . S
C1575 C1576 1.287 . S
C1576 C1575 1.287 . S
C1576 C1577 1.524 . S
C1576 H1595 0.913 . S
C1577 H1553 0.950 . S
C1577 C1576 1.524 . S
C1577 C1578 1.415 . S
C1578 H1554 0.950 . S
C1578 C1573 1.363 . S
C1578 C1577 1.415 . S
C1579 H1555 0.951 . S
C1579 C1580 1.366 . S
C1579 C1581 1.388 . S
C1580 C1579 1.366 . S
C1580 C1584 1.385 . S
C1581 H1556 0.951 . S
C1581 C1579 1.388 . S
C1581 C1582 1.366 . S
C1582 C1581 1.366 . S
C1582 C1583 1.414 . S
C1582 C1585 1.499 . S
C1583 H1557 0.950 . S
C1583 C1582 1.414 . S
C1583 C1584 1.374 . S
C1584 H1558 0.950 . S
C1584 C1580 1.385 . S
C1584 C1583 1.374 . S
C1585 C1582 1.499 . S
C1585 C1586 1.373 . S
C1585 C1587 1.389 . S
C1586 H1559 0.950 . S
C1586 C1572 1.377 . S
C1586 C1585 1.373 . S
C1587 C1571 1.377 . S
C1587 C1585 1.389 . S
C1587 C1588 1.524 . S
C1588 C1587 1.524 . S
C1588 C1589 1.397 . S
C1588 C1593 1.363 . S
C1589 H1560 0.950 . S
C1589 C1588 1.397 . S
C1589 C1590 1.334 . S
C1590 H1561 0.950 . S
C1590 C1589 1.334 . S
C1590 C1591 1.287 . S
C1591 C1590 1.287 . S
C1591 C1592 1.524 . S
C1591 H1594 0.999 . S
C1592 H1562 0.950 . S
C1592 C1591 1.524 . S
C1592 C1593 1.415 . S
C1593 H1563 0.950 . S
C1593 C1588 1.363 . S
C1593 C1592 1.415 . S
H1594 C1591 0.999 . S
H1595 C1576 0.913 . S
C415 C1 1.657 . S
C430 C328 1.611 . S
C465 C40 1.488 . S
C480 C350 1.435 . S
C530 C369 1.186 . S
C515 C99 1.419 . S
C565 C118 1.851 . S
C580 C390 1.530 . S
C630 C347 1.831 . S
C615 C16 1.885 . S
C680 C325 1.700 . S
C665 C60 1.744 . S
C730 C392 1.262 . S
C715 C79 1.324 . S
C780 C371 1.394 . S
C765 C138 1.430 . S
C815 C21 1.810 . S
C830 C389 1.752 . S
C880 C348 1.336 . S
C865 C94 1.619 . S
C915 C133 1.673 . S
C930 C330 1.496 . S
C965 C55 1.514 . S
C980 C368 1.489 . S
C1030 C326 1.614 . S
C1015 C157 1.678 . S
C1065 C196 1.284 . S
C1080 C346 1.245 . S
C1115 C255 1.492 . S
C1130 C372 1.264 . S
C1165 C289 1.744 . S
C1180 C393 1.427 . S
C1215 C172 1.821 . S
C1230 C349 1.783 . S
C1280 C329 1.772 . S
C1265 C216 1.846 . S
C1330 C388 1.152 . S
C1315 C235 1.200 . S
C1380 C367 1.495 . S
C1365 C294 1.539 . S
C1415 C177 1.579 . S
C1430 C391 1.542 . S
C1480 C351 1.265 . S
C1465 C250 1.509 . S
C1530 C327 1.291 . S
C1515 C274 1.449 . S
C1565 C211 1.429 . S
C1580 C370 1.406 . S
