# Generated by pormake.
# Topology eea, (3,6)-cn, num edge types: 1
# Building blocks:
#     Node 0, Type 0, BuildingBlock: QEWDON_clean_linker_0, # of connection points: 3
#     Node 1, Type 0, BuildingBlock: QEWDON_clean_linker_0, # of connection points: 3
#     Node 2, Type 0, BuildingBlock: QEWDON_clean_linker_0, # of connection points: 3
#     Node 3, Type 0, BuildingBlock: QEWDON_clean_linker_0, # of connection points: 3
#     Node 4, Type 0, BuildingBlock: QEWDON_clean_linker_0, # of connection points: 3
#     Node 5, Type 0, BuildingBlock: QEWDON_clean_linker_0, # of connection points: 3
#     Node 6, Type 0, BuildingBlock: QEWDON_clean_linker_0, # of connection points: 3
#     Node 7, Type 0, BuildingBlock: QEWDON_clean_linker_0, # of connection points: 3
#     Node 8, Type 0, BuildingBlock: QEWDON_clean_linker_0, # of connection points: 3
#     Node 9, Type 0, BuildingBlock: QEWDON_clean_linker_0, # of connection points: 3
#     Node 10, Type 0, BuildingBlock: QEWDON_clean_linker_0, # of connection points: 3
#     Node 11, Type 0, BuildingBlock: QEWDON_clean_linker_0, # of connection points: 3
#     Node 12, Type 0, BuildingBlock: QEWDON_clean_linker_0, # of connection points: 3
#     Node 13, Type 0, BuildingBlock: QEWDON_clean_linker_0, # of connection points: 3
#     Node 14, Type 0, BuildingBlock: QEWDON_clean_linker_0, # of connection points: 3
#     Node 15, Type 0, BuildingBlock: QEWDON_clean_linker_0, # of connection points: 3
#     Node 16, Type 0, BuildingBlock: QEWDON_clean_linker_0, # of connection points: 3
#     Node 17, Type 0, BuildingBlock: QEWDON_clean_linker_0, # of connection points: 3
#     Node 18, Type 1, BuildingBlock: NUHQIS_clean_sbu_0, # of connection points: 6
#     Node 19, Type 1, BuildingBlock: NUHQIS_clean_sbu_0, # of connection points: 6
#     Node 20, Type 1, BuildingBlock: NUHQIS_clean_sbu_0, # of connection points: 6
#     Node 21, Type 1, BuildingBlock: NUHQIS_clean_sbu_0, # of connection points: 6
#     Node 22, Type 1, BuildingBlock: NUHQIS_clean_sbu_0, # of connection points: 6
#     Node 23, Type 1, BuildingBlock: NUHQIS_clean_sbu_0, # of connection points: 6
#     Node 24, Type 1, BuildingBlock: NUHQIS_clean_sbu_0, # of connection points: 6
#     Node 25, Type 1, BuildingBlock: NUHQIS_clean_sbu_0, # of connection points: 6
#     Node 26, Type 1, BuildingBlock: NUHQIS_clean_sbu_0, # of connection points: 6
#     Edge 27, Type (0, 1), BuildingBlock: TEMPAE_clean_linker_10, # of connection points: 2
#     Edge 28, Type (0, 1), BuildingBlock: TEMPAE_clean_linker_10, # of connection points: 2
#     Edge 29, Type (0, 1), BuildingBlock: TEMPAE_clean_linker_10, # of connection points: 2
#     Edge 30, Type (0, 1), BuildingBlock: TEMPAE_clean_linker_10, # of connection points: 2
#     Edge 31, Type (0, 1), BuildingBlock: TEMPAE_clean_linker_10, # of connection points: 2
#     Edge 32, Type (0, 1), BuildingBlock: TEMPAE_clean_linker_10, # of connection points: 2
#     Edge 33, Type (0, 1), BuildingBlock: TEMPAE_clean_linker_10, # of connection points: 2
#     Edge 34, Type (0, 1), BuildingBlock: TEMPAE_clean_linker_10, # of connection points: 2
#     Edge 35, Type (0, 1), BuildingBlock: TEMPAE_clean_linker_10, # of connection points: 2
#     Edge 36, Type (0, 1), BuildingBlock: TEMPAE_clean_linker_10, # of connection points: 2
#     Edge 37, Type (0, 1), BuildingBlock: TEMPAE_clean_linker_10, # of connection points: 2
#     Edge 38, Type (0, 1), BuildingBlock: TEMPAE_clean_linker_10, # of connection points: 2
#     Edge 39, Type (0, 1), BuildingBlock: TEMPAE_clean_linker_10, # of connection points: 2
#     Edge 40, Type (0, 1), BuildingBlock: TEMPAE_clean_linker_10, # of connection points: 2
#     Edge 41, Type (0, 1), BuildingBlock: TEMPAE_clean_linker_10, # of connection points: 2
#     Edge 42, Type (0, 1), BuildingBlock: TEMPAE_clean_linker_10, # of connection points: 2
#     Edge 43, Type (0, 1), BuildingBlock: TEMPAE_clean_linker_10, # of connection points: 2
#     Edge 44, Type (0, 1), BuildingBlock: TEMPAE_clean_linker_10, # of connection points: 2
#     Edge 45, Type (0, 1), BuildingBlock: TEMPAE_clean_linker_10, # of connection points: 2
#     Edge 46, Type (0, 1), BuildingBlock: TEMPAE_clean_linker_10, # of connection points: 2
#     Edge 47, Type (0, 1), BuildingBlock: TEMPAE_clean_linker_10, # of connection points: 2
#     Edge 48, Type (0, 1), BuildingBlock: TEMPAE_clean_linker_10, # of connection points: 2
#     Edge 49, Type (0, 1), BuildingBlock: TEMPAE_clean_linker_10, # of connection points: 2
#     Edge 50, Type (0, 1), BuildingBlock: TEMPAE_clean_linker_10, # of connection points: 2
#     Edge 51, Type (0, 1), BuildingBlock: TEMPAE_clean_linker_10, # of connection points: 2
#     Edge 52, Type (0, 1), BuildingBlock: TEMPAE_clean_linker_10, # of connection points: 2
#     Edge 53, Type (0, 1), BuildingBlock: TEMPAE_clean_linker_10, # of connection points: 2
#     Edge 54, Type (0, 1), BuildingBlock: TEMPAE_clean_linker_10, # of connection points: 2
#     Edge 55, Type (0, 1), BuildingBlock: TEMPAE_clean_linker_10, # of connection points: 2
#     Edge 56, Type (0, 1), BuildingBlock: TEMPAE_clean_linker_10, # of connection points: 2
#     Edge 57, Type (0, 1), BuildingBlock: TEMPAE_clean_linker_10, # of connection points: 2
#     Edge 58, Type (0, 1), BuildingBlock: TEMPAE_clean_linker_10, # of connection points: 2
#     Edge 59, Type (0, 1), BuildingBlock: TEMPAE_clean_linker_10, # of connection points: 2
#     Edge 60, Type (0, 1), BuildingBlock: TEMPAE_clean_linker_10, # of connection points: 2
#     Edge 61, Type (0, 1), BuildingBlock: TEMPAE_clean_linker_10, # of connection points: 2
#     Edge 62, Type (0, 1), BuildingBlock: TEMPAE_clean_linker_10, # of connection points: 2
#     Edge 63, Type (0, 1), BuildingBlock: TEMPAE_clean_linker_10, # of connection points: 2
#     Edge 64, Type (0, 1), BuildingBlock: TEMPAE_clean_linker_10, # of connection points: 2
#     Edge 65, Type (0, 1), BuildingBlock: TEMPAE_clean_linker_10, # of connection points: 2
#     Edge 66, Type (0, 1), BuildingBlock: TEMPAE_clean_linker_10, # of connection points: 2
#     Edge 67, Type (0, 1), BuildingBlock: TEMPAE_clean_linker_10, # of connection points: 2
#     Edge 68, Type (0, 1), BuildingBlock: TEMPAE_clean_linker_10, # of connection points: 2
#     Edge 69, Type (0, 1), BuildingBlock: TEMPAE_clean_linker_10, # of connection points: 2
#     Edge 70, Type (0, 1), BuildingBlock: TEMPAE_clean_linker_10, # of connection points: 2
#     Edge 71, Type (0, 1), BuildingBlock: TEMPAE_clean_linker_10, # of connection points: 2
#     Edge 72, Type (0, 1), BuildingBlock: TEMPAE_clean_linker_10, # of connection points: 2
#     Edge 73, Type (0, 1), BuildingBlock: TEMPAE_clean_linker_10, # of connection points: 2
#     Edge 74, Type (0, 1), BuildingBlock: TEMPAE_clean_linker_10, # of connection points: 2
#     Edge 75, Type (0, 1), BuildingBlock: TEMPAE_clean_linker_10, # of connection points: 2
#     Edge 76, Type (0, 1), BuildingBlock: TEMPAE_clean_linker_10, # of connection points: 2
#     Edge 77, Type (0, 1), BuildingBlock: TEMPAE_clean_linker_10, # of connection points: 2
#     Edge 78, Type (0, 1), BuildingBlock: TEMPAE_clean_linker_10, # of connection points: 2
#     Edge 79, Type (0, 1), BuildingBlock: TEMPAE_clean_linker_10, # of connection points: 2
#     Edge 80, Type (0, 1), BuildingBlock: TEMPAE_clean_linker_10, # of connection points: 2
# Relax obj value: 0.087
# Max RMSD: 0.262
# Mean RMSD: 0.181
data_MOF--net-eea--node1-NUHQIS_clean_sbu_0--node2-QEWDON_clean_linker_0--edge1-TEMPAE_clean_linker_10
_symmetry_space_group_name_H-M    P1
_symmetry_Int_Tables_number       1
_symmetry_cell_setting            triclinic
loop_
_symmetry_equiv_pos_as_xyz
'x, y, z'
_cell_length_a     58.84221
_cell_length_b     59.316455
_cell_length_c     68.282447
_cell_angle_alpha  93.306422
_cell_angle_beta   93.396045
_cell_angle_gamma 119.83115
loop_
_atom_site_label
_atom_site_type_symbol
_atom_site_fract_x
_atom_site_fract_y
_atom_site_fract_z
_atom_type_partial_charge
H0 H 0.20198 0.12002 0.43014 0.0
C1 C 0.20236 0.10373 0.42244 0.0
C2 C 0.22066 0.09647 0.42921 0.0
C3 C 0.18374 0.0893 0.40624 0.0
H4 H 0.23418 0.06892 0.42428 0.0
C5 C 0.22075 0.07525 0.41896 0.0
C6 C 0.20232 0.06086 0.40269 0.0
C7 C 0.18376 0.06787 0.3965 0.0
C8 C 0.16307 0.09539 0.40016 0.0
H9 H 0.16925 0.0566 0.38407 0.0
C10 C 0.16967 0.1198 0.39375 0.0
C11 C 0.14979 0.12524 0.38747 0.0
C12 C 0.13649 0.07638 0.4004 0.0
H13 H 0.13106 0.05744 0.40529 0.0
C14 C 0.11674 0.08176 0.39456 0.0
H15 H 0.19022 0.13416 0.39313 0.0
C16 C 0.12326 0.10599 0.38819 0.0
H17 H 0.10748 0.10972 0.38402 0.0
H18 H 0.09628 0.06711 0.395 0.0
H19 H 0.90623 0.10394 0.43228 0.0
C20 C 0.92073 0.11999 0.42505 0.0
C21 C 0.92896 0.14593 0.4323 0.0
C22 C 0.93215 0.11459 0.40926 0.0
H23 H 0.95554 0.18667 0.42877 0.0
C24 C 0.94888 0.16661 0.42336 0.0
C25 C 0.96077 0.16156 0.40774 0.0
C26 C 0.95203 0.13558 0.40066 0.0
C27 C 0.9245 0.08719 0.40228 0.0
H28 H 0.96082 0.13177 0.38833 0.0
C29 C 0.89799 0.0667 0.40052 0.0
C30 C 0.8911 0.041 0.39339 0.0
C31 C 0.94405 0.08148 0.39721 0.0
H32 H 0.96464 0.0965 0.39886 0.0
C33 C 0.93739 0.05628 0.39005 0.0
H34 H 0.8828 0.0708 0.40458 0.0
C35 C 0.91121 0.03628 0.38797 0.0
H36 H 0.90674 0.0171 0.38186 0.0
H37 H 0.95262 0.05226 0.38598 0.0
H38 H 0.91697 0.7884 0.44132 0.0
C39 C 0.90072 0.78893 0.43345 0.0
C40 C 0.87513 0.77481 0.43946 0.0
C41 C 0.90582 0.80501 0.41803 0.0
H42 H 0.83494 0.76643 0.43406 0.0
C43 C 0.8545 0.7764 0.42922 0.0
C44 C 0.85925 0.79243 0.41378 0.0
C45 C 0.88502 0.8067 0.40835 0.0
C46 C 0.93335 0.82413 0.41476 0.0
H47 H 0.88912 0.81979 0.39692 0.0
C48 C 0.94962 0.81707 0.40472 0.0
C49 C 0.97547 0.83645 0.40148 0.0
C50 C 0.94324 0.85032 0.42184 0.0
H51 H 0.93111 0.8561 0.42961 0.0
C52 C 0.9688 0.86927 0.41915 0.0
H53 H 0.94199 0.79691 0.39904 0.0
C54 C 0.98478 0.86247 0.40911 0.0
H55 H 1.00465 0.8777 0.40743 0.0
H56 H 0.97628 0.88938 0.42485 0.0
H57 H 0.11595 0.21101 0.58114 0.0
C58 C 0.09996 0.21158 0.5878 0.0
C59 C 0.08988 0.227 0.58041 0.0
C60 C 0.08884 0.19608 0.60324 0.0
H61 H 0.06015 0.2381 0.58323 0.0
C62 C 0.06872 0.2271 0.58912 0.0
C63 C 0.05742 0.21179 0.60462 0.0
C64 C 0.06788 0.19674 0.61167 0.0
C65 C 0.09696 0.17713 0.60946 0.0
H66 H 0.05931 0.18512 0.62373 0.0
C67 C 0.12369 0.18366 0.61241 0.0
C68 C 0.13037 0.16512 0.61872 0.0
C69 C 0.07722 0.15179 0.61252 0.0
H70 H 0.05657 0.14583 0.6099 0.0
C71 C 0.08368 0.13367 0.61891 0.0
H72 H 0.1391 0.20299 0.6099 0.0
C73 C 0.1099 0.14027 0.62217 0.0
H74 H 0.11411 0.12582 0.62764 0.0
H75 H 0.06823 0.11438 0.62144 0.0
H76 H 0.81961 0.91831 0.58951 0.0
C77 C 0.81896 0.90271 0.59742 0.0
C78 C 0.79943 0.87663 0.59155 0.0
C79 C 0.8387 0.90875 0.61274 0.0
H80 H 0.78448 0.8365 0.59746 0.0
C81 C 0.79947 0.85668 0.60171 0.0
C82 C 0.81928 0.86249 0.61692 0.0
C83 C 0.8389 0.88856 0.62229 0.0
C84 C 0.85963 0.93616 0.6183 0.0
H85 H 0.85418 0.89317 0.63409 0.0
C86 C 0.85304 0.9555 0.6227 0.0
C87 C 0.87281 0.98175 0.6277 0.0
C88 C 0.88623 0.9431 0.61908 0.0
H89 H 0.89172 0.92849 0.61568 0.0
C90 C 0.90595 0.96907 0.62385 0.0
H91 H 0.83246 0.94987 0.62266 0.0
C92 C 0.89937 0.98831 0.62803 0.0
H93 H 0.91514 0.00836 0.63133 0.0
H94 H 0.92644 0.97435 0.62417 0.0
H95 H 0.08539 0.87735 0.58027 0.0
C96 C 0.10256 0.89434 0.58794 0.0
C97 C 0.12742 0.90376 0.58073 0.0
C98 C 0.09965 0.90761 0.60453 0.0
H99 H 0.16832 0.93439 0.5848 0.0
C100 C 0.14935 0.92631 0.59062 0.0
C101 C 0.14674 0.93975 0.6071 0.0
C102 C 0.12193 0.93017 0.61402 0.0
C103 C 0.07323 0.90029 0.61084 0.0
H104 H 0.11985 0.94066 0.62668 0.0
C105 C 0.05516 0.87473 0.61521 0.0
C106 C 0.03089 0.86917 0.62231 0.0
C107 C 0.0665 0.91988 0.61314 0.0
H108 H 0.07979 0.93953 0.60965 0.0
C109 C 0.04277 0.91453 0.62008 0.0
H110 H 0.06012 0.85949 0.61333 0.0
C111 C 0.02526 0.88958 0.62482 0.0
H112 H 0.00739 0.88645 0.63079 0.0
H113 H 0.03803 0.92992 0.62202 0.0
H114 H 0.87319 0.45532 0.76155 0.0
C115 C 0.87387 0.43881 0.75459 0.0
C116 C 0.89102 0.43107 0.76304 0.0
C117 C 0.85675 0.42455 0.73762 0.0
H118 H 0.9035 0.40239 0.76072 0.0
C119 C 0.89105 0.40914 0.75407 0.0
C120 C 0.87441 0.39519 0.73693 0.0
C121 C 0.85741 0.40302 0.72871 0.0
C122 C 0.83636 0.4304 0.73017 0.0
H123 H 0.84398 0.39175 0.71576 0.0
C124 C 0.84317 0.45519 0.72443 0.0
C125 C 0.82348 0.46039 0.71715 0.0
C126 C 0.80975 0.4108 0.72872 0.0
H127 H 0.80411 0.3916 0.73314 0.0
C128 C 0.79017 0.41592 0.72186 0.0
H129 H 0.86378 0.47008 0.72517 0.0
C130 C 0.7969 0.4405 0.71618 0.0
H131 H 0.78119 0.44398 0.71123 0.0
H132 H 0.76967 0.4008 0.72101 0.0
H133 H 0.57315 0.43576 0.76542 0.0
C134 C 0.58831 0.45201 0.75878 0.0
C135 C 0.59745 0.4778 0.76702 0.0
C136 C 0.59907 0.44702 0.74237 0.0
H137 H 0.62515 0.51865 0.76474 0.0
C138 C 0.61737 0.49876 0.7583 0.0
C139 C 0.62838 0.49408 0.74191 0.0
C140 C 0.61892 0.46828 0.73398 0.0
C141 C 0.59088 0.41974 0.73451 0.0
H142 H 0.62716 0.46482 0.72114 0.0
C143 C 0.5643 0.3994 0.73293 0.0
C144 C 0.557 0.37385 0.72504 0.0
C145 C 0.61005 0.414 0.72846 0.0
H146 H 0.6307 0.42886 0.72996 0.0
C147 C 0.60296 0.38899 0.7205 0.0
H148 H 0.54939 0.40348 0.73774 0.0
C149 C 0.57672 0.36915 0.71862 0.0
H150 H 0.57191 0.35013 0.71188 0.0
H151 H 0.6179 0.38497 0.71568 0.0
H152 H 0.58511 0.12668 0.7724 0.0
C153 C 0.5678 0.12579 0.76506 0.0
C154 C 0.5433 0.11241 0.773 0.0
C155 C 0.57022 0.13902 0.74811 0.0
H156 H 0.50273 0.10354 0.77005 0.0
C157 C 0.52137 0.11271 0.76373 0.0
C158 C 0.52335 0.12531 0.74661 0.0
C159 C 0.54762 0.13787 0.73871 0.0
C160 C 0.59651 0.15748 0.74168 0.0
H161 H 0.54929 0.14816 0.72577 0.0
C162 C 0.61567 0.15038 0.73774 0.0
C163 C 0.63983 0.16871 0.73088 0.0
C164 C 0.60212 0.18304 0.73911 0.0
H165 H 0.58814 0.18925 0.74235 0.0
C166 C 0.6256 0.20092 0.73227 0.0
H167 H 0.61171 0.13084 0.73985 0.0
C168 C 0.64412 0.19382 0.728 0.0
H169 H 0.66181 0.20812 0.72215 0.0
H170 H 0.62939 0.22039 0.73011 0.0
H171 H 0.78085 0.5425 0.91487 0.0
C172 C 0.76565 0.54419 0.92188 0.0
C173 C 0.75465 0.55829 0.91345 0.0
C174 C 0.75592 0.53082 0.93856 0.0
H175 H 0.72475 0.56928 0.91575 0.0
C176 C 0.73356 0.55869 0.92201 0.0
C177 C 0.72394 0.54587 0.93888 0.0
C178 C 0.73562 0.53256 0.94724 0.0
C179 C 0.76453 0.51264 0.94583 0.0
H180 H 0.72803 0.52254 0.96017 0.0
C181 C 0.79125 0.51897 0.94776 0.0
C182 C 0.79833 0.50109 0.95495 0.0
C183 C 0.74519 0.48812 0.95082 0.0
H184 H 0.7245 0.48222 0.94899 0.0
C185 C 0.75208 0.47072 0.95811 0.0
H186 H 0.80634 0.53761 0.94376 0.0
C187 C 0.77832 0.47716 0.96034 0.0
H188 H 0.78292 0.46332 0.96653 0.0
H189 H 0.73697 0.4521 0.96212 0.0
H190 H 0.49311 0.25403 0.92326 0.0
C191 C 0.49125 0.23719 0.93003 0.0
C192 C 0.47496 0.21203 0.92022 0.0
C193 C 0.50595 0.24074 0.94812 0.0
H194 H 0.46099 0.17085 0.92132 0.0
C195 C 0.47356 0.19037 0.92865 0.0
C196 C 0.48779 0.19363 0.94679 0.0
C197 C 0.50368 0.21873 0.95652 0.0
C198 C 0.5242 0.2673 0.95814 0.0
H199 H 0.51459 0.22109 0.97058 0.0
C200 C 0.51689 0.28658 0.95919 0.0
C201 C 0.53387 0.31142 0.96939 0.0
C202 C 0.54902 0.27334 0.96703 0.0
H203 H 0.55546 0.25913 0.96615 0.0
C204 C 0.5659 0.29784 0.97712 0.0
H205 H 0.49792 0.28215 0.95223 0.0
C206 C 0.55837 0.3167 0.97844 0.0
H207 H 0.57166 0.33531 0.98681 0.0
H208 H 0.58485 0.30218 0.98406 0.0
H209 H 0.75607 0.2126 0.9139 0.0
C210 C 0.77315 0.22963 0.92163 0.0
C211 C 0.79812 0.23914 0.91459 0.0
C212 C 0.76997 0.24285 0.9381 0.0
H213 H 0.839 0.26986 0.91897 0.0
C214 C 0.81993 0.26171 0.92462 0.0
C215 C 0.81702 0.27507 0.94103 0.0
C216 C 0.79207 0.26541 0.94771 0.0
C217 C 0.74343 0.23552 0.94407 0.0
H218 H 0.78972 0.27584 0.96028 0.0
C219 C 0.72559 0.21017 0.94892 0.0
C220 C 0.70116 0.2046 0.95568 0.0
C221 C 0.73637 0.25492 0.94559 0.0
H222 H 0.74955 0.27443 0.94178 0.0
C223 C 0.71243 0.24955 0.95216 0.0
H224 H 0.73085 0.19509 0.94767 0.0
C225 C 0.6951 0.22478 0.95734 0.0
H226 H 0.67703 0.22161 0.96299 0.0
H227 H 0.70739 0.26478 0.95348 0.0
H228 H 0.53444 0.78568 0.09557 0.0
C229 C 0.53587 0.76956 0.0887 0.0
C230 C 0.55267 0.7619 0.0979 0.0
C231 C 0.52038 0.75596 0.0709 0.0
H232 H 0.56579 0.7337 0.0964 0.0
C233 C 0.55367 0.74042 0.08915 0.0
C234 C 0.53865 0.72703 0.07132 0.0
C235 C 0.52237 0.73507 0.06214 0.0
C236 C 0.50097 0.76232 0.06179 0.0
H237 H 0.51058 0.72447 0.04842 0.0
C238 C 0.50782 0.78829 0.05938 0.0
C239 C 0.48951 0.79388 0.04985 0.0
C240 C 0.47541 0.74202 0.05501 0.0
H241 H 0.46946 0.72189 0.05694 0.0
C242 C 0.45723 0.74742 0.04567 0.0
H243 H 0.52741 0.80402 0.06473 0.0
C244 C 0.46421 0.77309 0.04295 0.0
H245 H 0.44985 0.77657 0.03517 0.0
H246 H 0.43768 0.73162 0.04035 0.0
H247 H 0.24398 0.77109 0.09833 0.0
C248 C 0.25855 0.78764 0.09157 0.0
C249 C 0.26804 0.81316 0.10055 0.0
C250 C 0.26861 0.78325 0.07449 0.0
H251 H 0.296 0.85417 0.09905 0.0
C252 C 0.28835 0.83441 0.09237 0.0
C253 C 0.29848 0.83038 0.07522 0.0
C254 C 0.28815 0.80489 0.06622 0.0
C255 C 0.26002 0.75617 0.06584 0.0
H256 H 0.29594 0.80193 0.05294 0.0
C257 C 0.23351 0.73579 0.06486 0.0
C258 C 0.22586 0.71036 0.05649 0.0
C259 C 0.27876 0.75058 0.05858 0.0
H260 H 0.29937 0.76543 0.05958 0.0
C261 C 0.27128 0.72568 0.05009 0.0
H262 H 0.21891 0.73973 0.07057 0.0
C263 C 0.24511 0.70579 0.0489 0.0
H264 H 0.23995 0.68683 0.04181 0.0
H265 H 0.28588 0.72176 0.04437 0.0
H266 H 0.2527 0.46272 0.10979 0.0
C267 C 0.236 0.46187 0.10144 0.0
C268 C 0.21064 0.448 0.10799 0.0
C269 C 0.24019 0.47658 0.08517 0.0
H270 H 0.16988 0.43785 0.10237 0.0
C271 C 0.18939 0.44825 0.09746 0.0
C272 C 0.19326 0.46286 0.08125 0.0
C273 C 0.21863 0.47671 0.07516 0.0
C274 C 0.26724 0.49548 0.08041 0.0
H275 H 0.2218 0.48839 0.06287 0.0
C276 C 0.28567 0.48796 0.07517 0.0
C277 C 0.31055 0.50676 0.06961 0.0
C278 C 0.27418 0.52183 0.08045 0.0
H279 H 0.26059 0.52818 0.08459 0.0
C280 C 0.29843 0.54026 0.07498 0.0
H281 H 0.28055 0.46772 0.07522 0.0
C282 C 0.31629 0.53283 0.06942 0.0
H283 H 0.33459 0.54766 0.06463 0.0
H284 H 0.30329 0.56041 0.07482 0.0
H285 H 0.4519 0.88019 0.24736 0.0
C286 C 0.43574 0.88014 0.25423 0.0
C287 C 0.42518 0.89542 0.24749 0.0
C288 C 0.42462 0.86358 0.26905 0.0
H289 H 0.39518 0.90588 0.25132 0.0
C290 C 0.40395 0.89477 0.25662 0.0
C291 C 0.3927 0.87842 0.27165 0.0
C292 C 0.40321 0.86291 0.27767 0.0
C293 C 0.43243 0.84397 0.27342 0.0
H294 H 0.3944 0.84984 0.28892 0.0
C295 C 0.45837 0.85109 0.28076 0.0
C296 C 0.4647 0.83161 0.28494 0.0
C297 C 0.4132 0.81741 0.26993 0.0
H298 H 0.39326 0.81149 0.26416 0.0
C299 C 0.41951 0.79821 0.27346 0.0
H300 H 0.47319 0.87157 0.28371 0.0
C301 C 0.44496 0.80517 0.28083 0.0
H302 H 0.4492 0.78968 0.2832 0.0
H303 H 0.40458 0.7778 0.27046 0.0
H304 H 0.15888 0.58793 0.25824 0.0
C305 C 0.15646 0.57103 0.26522 0.0
C306 C 0.13914 0.54578 0.25588 0.0
C307 C 0.17148 0.57461 0.28315 0.0
H308 H 0.12384 0.50447 0.25779 0.0
C309 C 0.13719 0.52408 0.26465 0.0
C310 C 0.152 0.52743 0.28252 0.0
C311 C 0.16879 0.55261 0.2918 0.0
C312 C 0.19041 0.60121 0.29278 0.0
H313 H 0.1801 0.55504 0.30568 0.0
C314 C 0.1836 0.62085 0.29393 0.0
C315 C 0.20114 0.64573 0.30382 0.0
C316 C 0.2153 0.60692 0.30125 0.0
H317 H 0.22132 0.59239 0.3003 0.0
C318 C 0.23277 0.63149 0.311 0.0
H319 H 0.16455 0.61665 0.28729 0.0
C320 C 0.22575 0.65072 0.31243 0.0
H321 H 0.2395 0.66939 0.32054 0.0
H322 H 0.25179 0.6356 0.31761 0.0
H323 H 0.42074 0.54607 0.247 0.0
C324 C 0.43786 0.5621 0.25557 0.0
C325 C 0.46278 0.5727 0.24834 0.0
C326 C 0.4347 0.57377 0.27299 0.0
H327 H 0.50383 0.60262 0.25373 0.0
C328 C 0.48465 0.59424 0.25924 0.0
C329 C 0.48178 0.60601 0.27658 0.0
C330 C 0.45683 0.59559 0.28338 0.0
C331 C 0.40814 0.56619 0.27904 0.0
H332 H 0.45447 0.60499 0.29659 0.0
C333 C 0.39 0.54048 0.28304 0.0
C334 C 0.36561 0.53471 0.29001 0.0
C335 C 0.40139 0.58574 0.28157 0.0
H336 H 0.41481 0.60552 0.27841 0.0
C337 C 0.37752 0.58018 0.28835 0.0
H338 H 0.39502 0.5253 0.28099 0.0
C339 C 0.35992 0.55506 0.29273 0.0
H340 H 0.34194 0.55176 0.29861 0.0
H341 H 0.37275 0.59553 0.29047 0.0
Tb342 Tb 0.49878 0.99645 0.98903 0.0
Eu343 Eu 0.51375 0.01955 0.03703 0.0
C344 C 0.51593 0.96854 0.02003 0.0
C345 C 0.45746 0.97177 0.01949 0.0
C346 C 0.49464 0.99758 0.93438 0.0
C347 C 0.49877 0.99756 0.89911 0.0
C348 C 0.49204 0.98423 0.91602 0.0
C349 C 0.504 0.02457 0.93559 0.0
C350 C 0.51065 0.03794 0.91864 0.0
C351 C 0.50828 0.02463 0.90016 0.0
C352 C 0.4887 0.98331 0.95218 0.0
O353 O 0.48431 0.02338 0.99479 0.0
O354 O 0.51399 0.05109 0.02034 0.0
O355 O 0.55242 0.04068 0.02368 0.0
O356 O 0.53692 0.03192 0.99058 0.0
C357 C 0.49745 0.04648 0.00488 0.0
O358 O 0.50407 0.03516 0.06295 0.0
O359 O 0.53587 0.02671 0.06577 0.0
O360 O 0.51216 0.98096 0.03486 0.0
O361 O 0.51544 0.97436 1.00175 0.0
O362 O 0.46781 0.96679 0.00444 0.0
O363 O 0.46972 0.99443 0.03021 0.0
C364 C 0.55594 0.04442 0.00499 0.0
O365 O 0.50896 0.98533 0.96267 0.0
O366 O 0.47255 0.98558 0.96332 0.0
C367 C 0.51021 0.01919 0.09262 0.0
C368 C 0.49086 0.9929 0.1265 0.0
C369 C 0.51161 0.01903 0.12831 0.0
C370 C 0.52115 0.032 0.11155 0.0
C371 C 0.48945 0.99316 0.09066 0.0
C372 C 0.47984 0.98016 0.10742 0.0
C373 C 0.52075 0.033 0.07508 0.0
H374 H 0.4963 0.98657 0.88515 0.0
H375 H 0.48495 0.96343 0.91477 0.0
H376 H 0.50642 0.03533 0.94966 0.0
H377 H 0.51813 0.0588 0.92007 0.0
H378 H 0.52034 0.0296 0.14271 0.0
H379 H 0.53714 0.05209 0.11338 0.0
H380 H 0.48079 0.98286 0.07615 0.0
H381 H 0.46407 0.95999 0.10541 0.0
Tb382 Tb 0.01842 0.50413 0.98986 0.0
Eu383 Eu 0.99726 0.49706 0.03442 0.0
C384 C 0.0476 0.54957 0.02442 0.0
C385 C 0.0451 0.48793 0.02397 0.0
C386 C 0.01922 0.50215 0.93571 0.0
C387 C 0.01902 0.50781 0.90081 0.0
C388 C 0.03251 0.51421 0.91966 0.0
C389 C 0.99228 0.4835 0.93276 0.0
C390 C 0.9788 0.47697 0.91391 0.0
C391 C 0.992 0.48918 0.89775 0.0
C392 C 0.03318 0.51025 0.95561 0.0
O393 O 0.98953 0.46267 0.98895 0.0
O394 O 0.96625 0.46148 0.01528 0.0
O395 O 0.9767 0.51455 0.01758 0.0
O396 O 0.98086 0.50313 0.9858 0.0
C397 C 0.96892 0.45065 0.9989 0.0
O398 O 0.98283 0.47439 0.05955 0.0
O399 O 0.98787 0.51321 0.06008 0.0
O400 O 0.03723 0.53325 0.03774 0.0
O401 O 0.03845 0.54303 0.00573 0.0
O402 O 0.04802 0.50044 0.00814 0.0
O403 O 0.02467 0.48091 0.03405 0.0
C404 C 0.96979 0.5111 0.99851 0.0
O405 O 0.02956 0.52702 0.9661 0.0
O406 O 0.0315 0.49164 0.96579 0.0
C407 C 0.9984 0.50059 0.09012 0.0
C408 C 0.02789 0.51244 0.12724 0.0
C409 C 0.00803 0.48666 0.12079 0.0
C410 C 0.99339 0.48084 0.10246 0.0
C411 C 0.018 0.52643 0.09664 0.0
C412 C 0.03248 0.53228 0.11502 0.0
C413 C 0.9838 0.49383 0.07031 0.0
H414 H 0.02975 0.51732 0.88861 0.0
H415 H 0.05327 0.52878 0.92174 0.0
H416 H 0.98164 0.47427 0.94509 0.0
H417 H 0.95793 0.46277 0.91204 0.0
H418 H 1.00419 0.47083 0.12968 0.0
H419 H 0.97843 0.46078 0.09776 0.0
H420 H 0.02239 0.54216 0.0875 0.0
H421 H 0.04731 0.5524 0.11964 0.0
Tb422 Tb 0.51851 0.50678 0.02731 0.0
Eu423 Eu 0.50112 0.51151 0.98104 0.0
C424 C 0.50056 0.46031 0.99439 0.0
C425 C 0.55885 0.52244 0.99555 0.0
C426 C 0.52292 0.51117 0.08202 0.0
C427 C 0.51933 0.50662 0.11704 0.0
C428 C 0.52734 0.50154 0.09922 0.0
C429 C 0.5104 0.52605 0.08285 0.0
C430 C 0.50243 0.53121 0.10068 0.0
C431 C 0.5067 0.52149 0.11802 0.0
C432 C 0.52994 0.5042 0.06315 0.0
O433 O 0.53225 0.54789 0.02421 0.0
O434 O 0.50197 0.54429 0.99966 0.0
O435 O 0.46326 0.49411 0.99582 0.0
O436 O 0.48078 0.50502 0.02845 0.0
C437 C 0.51925 0.55744 0.01489 0.0
O438 O 0.50761 0.53513 0.95639 0.0
O439 O 0.47813 0.49398 0.95245 0.0
O440 O 0.50544 0.476 0.98051 0.0
O441 O 0.49908 0.46733 0.01263 0.0
O442 O 0.54938 0.50803 0.01022 0.0
O443 O 0.54549 0.53138 0.98593 0.0
C444 C 0.46081 0.49655 0.0148 0.0
O445 O 0.51045 0.4852 0.05183 0.0
O446 O 0.54483 0.5234 0.05314 0.0
C447 C 0.50274 0.51202 0.92573 0.0
C448 C 0.52397 0.50607 0.891 0.0
C449 C 0.50186 0.50943 0.89001 0.0
C450 C 0.49138 0.51239 0.90722 0.0
C451 C 0.52475 0.50865 0.92685 0.0
C452 C 0.53529 0.50575 0.90966 0.0
C453 C 0.49165 0.51515 0.94381 0.0
H454 H 0.5226 0.49847 0.12997 0.0
H455 H 0.53667 0.48973 0.09882 0.0
H456 H 0.50661 0.53349 0.06967 0.0
H457 H 0.49309 0.543 0.10089 0.0
H458 H 0.49283 0.51008 0.87592 0.0
H459 H 0.47442 0.51503 0.90607 0.0
H460 H 0.53375 0.50821 0.94104 0.0
H461 H 0.55209 0.50288 0.91099 0.0
Tb462 Tb 0.16079 0.32818 0.32229 0.0
Eu463 Eu 0.1778 0.3514 0.37023 0.0
C464 C 0.174 0.29781 0.35315 0.0
C465 C 0.11948 0.30581 0.35346 0.0
C466 C 0.15691 0.32886 0.26758 0.0
C467 C 0.16019 0.32816 0.2322 0.0
C468 C 0.15345 0.31509 0.24923 0.0
C469 C 0.1673 0.35601 0.26867 0.0
C470 C 0.174 0.36912 0.25161 0.0
C471 C 0.17055 0.35538 0.23309 0.0
C472 C 0.15053 0.31477 0.28547 0.0
O473 O 0.14811 0.35654 0.32811 0.0
O474 O 0.17799 0.38332 0.35405 0.0
O475 O 0.21594 0.36941 0.35598 0.0
O476 O 0.19897 0.36352 0.32353 0.0
C477 C 0.1614 0.37927 0.33874 0.0
O478 O 0.1711 0.36845 0.39694 0.0
O479 O 0.2009 0.35712 0.3982 0.0
O480 O 0.17012 0.31045 0.36771 0.0
O481 O 0.17653 0.30529 0.33526 0.0
O482 O 0.12809 0.3003 0.33751 0.0
O483 O 0.13359 0.328 0.36467 0.0
C484 C 0.21879 0.3743 0.33743 0.0
O485 O 0.17043 0.31616 0.29603 0.0
O486 O 0.13477 0.31787 0.29654 0.0
C487 C 0.17675 0.35078 0.42581 0.0
C488 C 0.15733 0.32409 0.45951 0.0
C489 C 0.17778 0.35037 0.46147 0.0
C490 C 0.18735 0.36355 0.44479 0.0
C491 C 0.15632 0.3246 0.42371 0.0
C492 C 0.14664 0.31142 0.44037 0.0
C493 C 0.18732 0.36471 0.40832 0.0
H494 H 0.15765 0.31692 0.21834 0.0
H495 H 0.14573 0.29419 0.24809 0.0
H496 H 0.17028 0.36706 0.28272 0.0
H497 H 0.18161 0.38999 0.25291 0.0
H498 H 0.18625 0.36087 0.47592 0.0
H499 H 0.2031 0.38374 0.44673 0.0
H500 H 0.148 0.31431 0.40916 0.0
H501 H 0.13111 0.29114 0.43825 0.0
Tb502 Tb 0.68312 0.83383 0.32447 0.0
Eu503 Eu 0.66258 0.82815 0.36907 0.0
C504 C 0.71324 0.87985 0.35888 0.0
C505 C 0.71109 0.81927 0.3588 0.0
C506 C 0.6814 0.83162 0.27019 0.0
C507 C 0.67939 0.83766 0.23543 0.0
C508 C 0.69378 0.84391 0.2539 0.0
C509 C 0.65447 0.81287 0.26784 0.0
C510 C 0.64009 0.8065 0.24934 0.0
C511 C 0.65236 0.81898 0.23297 0.0
C512 C 0.69626 0.83983 0.28978 0.0
O513 O 0.65557 0.79221 0.32453 0.0
O514 O 0.63176 0.79211 0.35017 0.0
O515 O 0.64418 0.84755 0.35192 0.0
O516 O 0.64455 0.83069 0.32108 0.0
C517 C 0.63481 0.78055 0.33437 0.0
O518 O 0.64727 0.80545 0.39405 0.0
O519 O 0.65287 0.84449 0.39445 0.0
O520 O 0.70263 0.86402 0.37244 0.0
O521 O 0.70414 0.87296 0.34017 0.0
O522 O 0.713 0.83009 0.3422 0.0
O523 O 0.69151 0.81363 0.36964 0.0
C524 C 0.63525 0.84138 0.33318 0.0
O525 O 0.69299 0.85658 0.30063 0.0
O526 O 0.69526 0.82134 0.2998 0.0
C527 C 0.66145 0.83113 0.4248 0.0
C528 C 0.68826 0.8418 0.46289 0.0
C529 C 0.66703 0.8167 0.45642 0.0
C530 C 0.65372 0.81148 0.4376 0.0
C531 C 0.68247 0.8563 0.43128 0.0
C532 C 0.69562 0.86159 0.45015 0.0
C533 C 0.64797 0.82486 0.40464 0.0
H534 H 0.68943 0.84737 0.22304 0.0
H535 H 0.71451 0.85857 0.25552 0.0
H536 H 0.64452 0.80349 0.28037 0.0
H537 H 0.61925 0.79222 0.24794 0.0
H538 H 0.66105 0.80089 0.46572 0.0
H539 H 0.63762 0.79191 0.43291 0.0
H540 H 0.68895 0.87191 0.42175 0.0
H541 H 0.71159 0.88124 0.45474 0.0
Tb542 Tb 0.18739 0.84329 0.35953 0.0
Eu543 Eu 0.16842 0.84587 0.31311 0.0
C544 C 0.16963 0.7962 0.32722 0.0
C545 C 0.22721 0.85739 0.32688 0.0
C546 C 0.19052 0.84739 0.41428 0.0
C547 C 0.18379 0.84058 0.44872 0.0
C548 C 0.19231 0.83568 0.43111 0.0
C549 C 0.18024 0.86427 0.41531 0.0
C550 C 0.17184 0.86932 0.43299 0.0
C551 C 0.17332 0.85734 0.44987 0.0
C552 C 0.19764 0.84028 0.3955 0.0
O553 O 0.20127 0.88424 0.35641 0.0
O554 O 0.17265 0.88124 0.33057 0.0
O555 O 0.13136 0.82761 0.32891 0.0
O556 O 0.15114 0.84464 0.36036 0.0
C557 C 0.18948 0.89424 0.34611 0.0
O558 O 0.17313 0.86813 0.28779 0.0
O559 O 0.14392 0.8269 0.28528 0.0
O560 O 0.17431 0.81141 0.31305 0.0
O561 O 0.16767 0.80356 0.34522 0.0
O562 O 0.21945 0.84594 0.34315 0.0
O563 O 0.21253 0.86375 0.31591 0.0
C564 C 0.13008 0.83359 0.34754 0.0
O565 O 0.17808 0.82161 0.38401 0.0
O566 O 0.2132 0.85935 0.38565 0.0
C567 C 0.16754 0.84369 0.25736 0.0
C568 C 0.18971 0.83772 0.22301 0.0
C569 C 0.19401 0.86239 0.23024 0.0
C570 C 0.18297 0.86529 0.24713 0.0
C571 C 0.163 0.81897 0.25007 0.0
C572 C 0.1739 0.81603 0.2331 0.0
C573 C 0.15713 0.84742 0.27583 0.0
H574 H 0.18551 0.83131 0.46149 0.0
H575 H 0.2 0.82245 0.43055 0.0
H576 H 0.17834 0.87322 0.40239 0.0
H577 H 0.16365 0.88212 0.43332 0.0
H578 H 0.20632 0.8796 0.22305 0.0
H579 H 0.18683 0.88459 0.25238 0.0
H580 H 0.15115 0.80184 0.25751 0.0
H581 H 0.16976 0.79666 0.22781 0.0
Tb582 Tb 0.82743 0.66034 0.65513 0.0
Eu583 Eu 0.84325 0.68415 0.70296 0.0
C584 C 0.84258 0.63208 0.68635 0.0
C585 C 0.78574 0.63814 0.68612 0.0
C586 C 0.82235 0.65873 0.60033 0.0
C587 C 0.82467 0.65699 0.56484 0.0
C588 C 0.81873 0.6445 0.58217 0.0
C589 C 0.83193 0.68572 0.60093 0.0
C590 C 0.83775 0.69823 0.58357 0.0
C591 C 0.83434 0.68405 0.56529 0.0
C592 C 0.81703 0.64537 0.61854 0.0
O593 O 0.81577 0.68973 0.65921 0.0
O594 O 0.84194 0.71559 0.68712 0.0
O595 O 0.88151 0.70402 0.68886 0.0
O596 O 0.8651 0.69616 0.65604 0.0
C597 C 0.82727 0.71191 0.67066 0.0
O598 O 0.83501 0.69955 0.72984 0.0
O599 O 0.86683 0.691 0.73089 0.0
O600 O 0.83673 0.64355 0.7005 0.0
O601 O 0.84571 0.64001 0.66863 0.0
O602 O 0.79498 0.63243 0.67064 0.0
O603 O 0.79922 0.66073 0.69684 0.0
C604 C 0.88453 0.70827 0.67019 0.0
O605 O 0.83762 0.6483 0.62916 0.0
O606 O 0.80082 0.64784 0.6295 0.0
C607 C 0.84177 0.68189 0.75867 0.0
C608 C 0.82229 0.6543 0.79215 0.0
C609 C 0.81502 0.67245 0.78635 0.0
C610 C 0.8247 0.68609 0.76988 0.0
C611 C 0.84904 0.66374 0.76442 0.0
C612 C 0.83945 0.65017 0.78093 0.0
C613 C 0.85176 0.69642 0.74113 0.0
H614 H 0.82148 0.64539 0.55104 0.0
H615 H 0.81144 0.62369 0.5814 0.0
H616 H 0.83516 0.69714 0.61484 0.0
H617 H 0.84541 0.71911 0.58453 0.0
H618 H 0.80158 0.67593 0.79441 0.0
H619 H 0.81872 0.69992 0.76586 0.0
H620 H 0.86222 0.66 0.75622 0.0
H621 H 0.84584 0.63669 0.78505 0.0
Tb622 Tb 0.35018 0.16861 0.65517 0.0
Eu623 Eu 0.32937 0.16009 0.69962 0.0
C624 C 0.37898 0.21352 0.68988 0.0
C625 C 0.37638 0.15122 0.68816 0.0
C626 C 0.35177 0.16641 0.60099 0.0
C627 C 0.35208 0.17229 0.56611 0.0
C628 C 0.36521 0.17888 0.5851 0.0
C629 C 0.32507 0.14711 0.59771 0.0
C630 C 0.31196 0.14038 0.5787 0.0
C631 C 0.32528 0.15305 0.56272 0.0
C632 C 0.36533 0.17473 0.62103 0.0
O633 O 0.32106 0.12702 0.65401 0.0
O634 O 0.29749 0.12579 0.68012 0.0
O635 O 0.30753 0.17697 0.68359 0.0
O636 O 0.31309 0.16851 0.6514 0.0
C637 C 0.30016 0.11507 0.66371 0.0
O638 O 0.31503 0.1365 0.72423 0.0
O639 O 0.32181 0.176 0.72642 0.0
O640 O 0.36918 0.19662 0.70291 0.0
O641 O 0.36966 0.20737 0.67121 0.0
O642 O 0.38041 0.16661 0.67406 0.0
O643 O 0.35463 0.14157 0.69687 0.0
C644 C 0.30136 0.17511 0.6645 0.0
O645 O 0.36117 0.19129 0.63129 0.0
O646 O 0.36383 0.15631 0.63138 0.0
C647 C 0.33251 0.16162 0.75487 0.0
C648 C 0.36324 0.17461 0.79138 0.0
C649 C 0.33658 0.16777 0.79061 0.0
C650 C 0.32135 0.16135 0.77246 0.0
C651 C 0.35904 0.16834 0.75554 0.0
C652 C 0.37425 0.17472 0.77363 0.0
C653 C 0.31686 0.15575 0.73581 0.0
H654 H 0.3629 0.18218 0.55405 0.0
H655 H 0.38579 0.19394 0.58743 0.0
H656 H 0.31431 0.13754 0.60989 0.0
H657 H 0.29124 0.12571 0.57659 0.0
H658 H 0.3276 0.16778 0.804 0.0
H659 H 0.30093 0.15638 0.77216 0.0
H660 H 0.36798 0.16871 0.74204 0.0
H661 H 0.39459 0.17952 0.77372 0.0
Tb662 Tb 0.85214 0.17384 0.69258 0.0
Eu663 Eu 0.83337 0.17826 0.64651 0.0
C664 C 0.83786 0.12925 0.65879 0.0
C665 C 0.89254 0.1912 0.66035 0.0
C666 C 0.85636 0.17787 0.74733 0.0
C667 C 0.85091 0.17176 0.78201 0.0
C668 C 0.85864 0.16639 0.76415 0.0
C669 C 0.84626 0.19489 0.74859 0.0
C670 C 0.83865 0.2004 0.76649 0.0
C671 C 0.84076 0.18879 0.78341 0.0
C672 C 0.86324 0.17084 0.7284 0.0
O673 O 0.86515 0.21484 0.68984 0.0
O674 O 0.8346 0.21107 0.6654 0.0
O675 O 0.79593 0.15835 0.66159 0.0
O676 O 0.81422 0.17172 0.69385 0.0
C677 C 0.85202 0.22428 0.68055 0.0
O678 O 0.83859 0.2015 0.62169 0.0
O679 O 0.80883 0.16036 0.61861 0.0
O680 O 0.84147 0.14519 0.6453 0.0
O681 O 0.83523 0.13484 0.67711 0.0
O682 O 0.88466 0.17832 0.676 0.0
O683 O 0.87772 0.19804 0.65004 0.0
C684 C 0.79377 0.16168 0.68049 0.0
O685 O 0.84368 0.152 0.717 0.0
O686 O 0.87836 0.19003 0.71847 0.0
C687 C 0.83227 0.17766 0.59077 0.0
C688 C 0.85326 0.17205 0.55566 0.0
C689 C 0.85645 0.19636 0.56264 0.0
C690 C 0.846 0.19909 0.57994 0.0
C691 C 0.82889 0.1533 0.58376 0.0
C692 C 0.83918 0.15053 0.56642 0.0
C693 C 0.82226 0.18116 0.6095 0.0
H694 H 0.85308 0.16273 0.79479 0.0
H695 H 0.86623 0.15308 0.76344 0.0
H696 H 0.84401 0.2037 0.73569 0.0
H697 H 0.83065 0.21337 0.76699 0.0
H698 H 0.86744 0.21346 0.55494 0.0
H699 H 0.84895 0.2181 0.58499 0.0
H700 H 0.8184 0.13633 0.5917 0.0
H701 H 0.83591 0.13141 0.56136 0.0
C702 C 0.31856 0.85633 0.04698 0.0
C703 C 0.32062 0.8525 0.06694 0.0
C704 C 0.33998 0.87599 0.03859 0.0
C705 C 0.36427 0.89181 0.05031 0.0
C706 C 0.36639 0.88811 0.07053 0.0
C707 C 0.34443 0.86868 0.07865 0.0
C708 C 0.33666 0.87971 0.01714 0.0
C709 C 0.39203 0.90421 0.08348 0.0
C710 C 0.42682 0.92495 0.02425 0.0
C711 C 0.43253 0.95095 0.02575 0.0
C712 C 0.40474 0.90551 0.03223 0.0
C713 C 0.38753 0.9121 0.04141 0.0
C714 C 0.39279 0.93821 0.04236 0.0
C715 C 0.41544 0.95738 0.03481 0.0
C716 C 0.40031 0.87811 0.03139 0.0
C717 C 0.37466 0.94597 0.05155 0.0
H718 H 0.30012 0.84386 0.03793 0.0
H719 H 0.34614 0.86552 0.09402 0.0
H720 H 0.34208 0.90027 0.01562 0.0
H721 H 0.3501 0.87572 0.00878 0.0
H722 H 0.31617 0.86666 0.0103 0.0
H723 H 0.39044 0.89892 0.09889 0.0
H724 H 0.40762 0.90142 0.07737 0.0
H725 H 0.39851 0.92527 0.08372 0.0
H726 H 0.44026 0.92002 0.01757 0.0
H727 H 0.41983 0.97749 0.03601 0.0
H728 H 0.38061 0.86408 0.02369 0.0
H729 H 0.4007 0.87248 0.04657 0.0
H730 H 0.41545 0.87614 0.02369 0.0
H731 H 0.35419 0.93337 0.04457 0.0
H732 H 0.38065 0.9667 0.05004 0.0
H733 H 0.37451 0.94308 0.06745 0.0
C734 C 0.17498 0.49055 0.06959 0.0
C735 C 0.17138 0.46562 0.07177 0.0
C736 C 0.1544 0.49376 0.06139 0.0
C737 C 0.12963 0.47149 0.05482 0.0
C738 C 0.12602 0.44624 0.05667 0.0
C739 C 0.14683 0.44362 0.06533 0.0
C740 C 0.15901 0.52103 0.06015 0.0
C741 C 0.10014 0.42198 0.04955 0.0
C742 C 0.06916 0.47956 0.05156 0.0
C743 C 0.06624 0.48287 0.03154 0.0
C744 C 0.0896 0.47581 0.05927 0.0
C745 C 0.10734 0.47473 0.04662 0.0
C746 C 0.10419 0.47752 0.02631 0.0
C747 C 0.08391 0.48188 0.01907 0.0
C748 C 0.09252 0.47356 0.08109 0.0
C749 C 0.12233 0.476 0.01224 0.0
H750 H 0.19382 0.50763 0.07479 0.0
H751 H 0.14399 0.42433 0.06691 0.0
H752 H 0.15523 0.52389 0.04464 0.0
H753 H 0.14504 0.52384 0.06878 0.0
H754 H 0.1794 0.5363 0.06583 0.0
H755 H 0.10088 0.40382 0.05114 0.0
H756 H 0.08433 0.42132 0.05802 0.0
H757 H 0.09461 0.42243 0.03382 0.0
H758 H 0.0558 0.48055 0.06138 0.0
H759 H 0.08175 0.48429 0.00358 0.0
H760 H 0.11213 0.48937 0.08778 0.0
H761 H 0.09141 0.45472 0.08349 0.0
H762 H 0.07713 0.47482 0.08894 0.0
H763 H 0.14278 0.49217 0.01648 0.0
H764 H 0.11648 0.4772 0.99673 0.0
H765 H 0.12243 0.45742 0.01308 0.0
C766 C 0.54415 0.7015 0.0435 0.0
C767 C 0.53846 0.70343 0.06294 0.0
C768 C 0.54277 0.67862 0.03516 0.0
C769 C 0.53486 0.65707 0.04641 0.0
C770 C 0.52928 0.65906 0.06612 0.0
C771 C 0.53142 0.68237 0.07422 0.0
C772 C 0.54943 0.67739 0.01425 0.0
C773 C 0.52029 0.63632 0.07845 0.0
C774 C 0.50353 0.58918 0.01938 0.0
C775 C 0.5238 0.58341 0.02206 0.0
C776 C 0.50693 0.61318 0.02715 0.0
C777 C 0.53143 0.63204 0.0374 0.0
C778 C 0.55223 0.62659 0.03965 0.0
C779 C 0.54804 0.60214 0.03217 0.0
C780 C 0.48409 0.61805 0.02486 0.0
C781 C 0.57879 0.64646 0.05012 0.0
H782 H 0.54969 0.71793 0.03488 0.0
H783 H 0.52678 0.68388 0.0892 0.0
H784 H 0.56454 0.67143 0.01372 0.0
H785 H 0.53169 0.66243 0.00475 0.0
H786 H 0.55692 0.69641 0.00799 0.0
H787 H 0.51706 0.64121 0.0936 0.0
H788 H 0.50162 0.61948 0.07129 0.0
H789 H 0.53509 0.62995 0.07951 0.0
H790 H 0.48468 0.57458 0.01174 0.0
H791 H 0.56379 0.59773 0.03414 0.0
H792 H 0.48976 0.63585 0.01725 0.0
H793 H 0.47879 0.62152 0.03961 0.0
H794 H 0.4664 0.6014 0.01638 0.0
H795 H 0.58657 0.6652 0.04342 0.0
H796 H 0.59337 0.63979 0.04951 0.0
H797 H 0.57679 0.65042 0.0658 0.0
C798 C 0.86398 0.30243 0.95588 0.0
C799 C 0.83962 0.30027 0.95022 0.0
C800 C 0.88551 0.32633 0.96432 0.0
C801 C 0.88276 0.34872 0.96678 0.0
C802 C 0.85822 0.34663 0.96096 0.0
C803 C 0.83692 0.32241 0.95292 0.0
C804 C 0.91119 0.32762 0.97064 0.0
C805 C 0.85456 0.37009 0.96296 0.0
C806 C 0.92991 0.40711 1.00325 0.0
C807 C 0.94752 0.42417 0.99089 0.0
C808 C 0.90918 0.38224 0.99569 0.0
C809 C 0.90558 0.37444 0.97521 0.0
C810 C 0.92332 0.39159 0.96267 0.0
C811 C 0.94421 0.4161 0.97069 0.0
C812 C 0.891 0.36437 0.00961 0.0
C813 C 0.91989 0.3843 0.9407 0.0
H814 H 0.86607 0.28531 0.95388 0.0
H815 H 0.81821 0.32088 0.94831 0.0
H816 H 0.92697 0.3416 0.96225 0.0
H817 H 0.91716 0.33493 0.98649 0.0
H818 H 0.90988 0.3083 0.9683 0.0
H819 H 0.8343 0.36525 0.95758 0.0
H820 H 0.85873 0.37829 0.97862 0.0
H821 H 0.86873 0.38561 0.95449 0.0
H822 H 0.93243 0.41314 0.01889 0.0
H823 H 0.95759 0.42924 0.96101 0.0
H824 H 0.89027 0.34528 0.00808 0.0
H825 H 0.87071 0.3605 0.00579 0.0
H826 H 0.89728 0.37277 0.02525 0.0
H827 H 0.92036 0.36598 0.93765 0.0
H828 H 0.93541 0.39981 0.93299 0.0
H829 H 0.90039 0.38062 0.93438 0.0
C830 C 0.67674 0.535 0.93535 0.0
C831 C 0.70062 0.54482 0.94723 0.0
C832 C 0.65387 0.53162 0.9434 0.0
C833 C 0.655 0.53881 0.96377 0.0
C834 C 0.6793 0.54945 0.9757 0.0
C835 C 0.70168 0.55199 0.96735 0.0
C836 C 0.62832 0.51971 0.9302 0.0
C837 C 0.68163 0.55804 0.99732 0.0
C838 C 0.60018 0.55022 0.97996 0.0
C839 C 0.58423 0.52729 0.98861 0.0
C840 C 0.62354 0.55449 0.97227 0.0
C841 C 0.63074 0.53497 0.97262 0.0
C842 C 0.61457 0.51169 0.98126 0.0
C843 C 0.59176 0.50831 0.98942 0.0
C844 C 0.64045 0.57986 0.9637 0.0
C845 C 0.621 0.49002 0.98145 0.0
H846 H 0.67576 0.52913 0.91985 0.0
H847 H 0.72012 0.55963 0.97657 0.0
H848 H 0.61342 0.50146 0.93582 0.0
H849 H 0.62043 0.53323 0.93033 0.0
H850 H 0.63069 0.51509 0.91471 0.0
H851 H 0.70218 0.56717 0.00434 0.0
H852 H 0.67471 0.57227 0.99924 0.0
H853 H 0.66888 0.54101 0.00522 0.0
H854 H 0.59445 0.56495 0.9793 0.0
H855 H 0.57928 0.49036 0.99579 0.0
H856 H 0.6413 0.57599 0.94776 0.0
H857 H 0.66091 0.58946 0.97092 0.0
H858 H 0.6329 0.59362 0.96552 0.0
H859 H 0.62206 0.48348 0.96614 0.0
H860 H 0.60614 0.4729 0.9883 0.0
H861 H 0.64057 0.49728 0.98967 0.0
C862 C 0.49345 0.15466 0.94453 0.0
C863 C 0.48682 0.17093 0.9554 0.0
C864 C 0.49443 0.13412 0.95296 0.0
C865 C 0.48811 0.12953 0.97257 0.0
C866 C 0.48065 0.14548 0.9834 0.0
C867 C 0.48039 0.16622 0.97473 0.0
C868 C 0.5029 0.1178 0.94108 0.0
C869 C 0.47323 0.14078 0.00418 0.0
C870 C 0.47077 0.06258 0.98735 0.0
C871 C 0.4943 0.06793 0.99798 0.0
C872 C 0.46819 0.08261 0.97949 0.0
C873 C 0.48992 0.10841 0.98189 0.0
C874 C 0.5137 0.11391 0.99272 0.0
C875 C 0.51549 0.09362 1.00086 0.0
C876 C 0.44236 0.07611 0.96838 0.0
C877 C 0.53751 0.14107 0.99518 0.0
H878 H 0.49864 0.15854 0.92962 0.0
H879 H 0.47512 0.17879 0.98304 0.0
H880 H 0.52101 0.11955 0.94866 0.0
H881 H 0.48745 0.09688 0.93991 0.0
H882 H 0.5069 0.12377 0.92596 0.0
H883 H 0.46654 0.15407 0.01018 0.0
H884 H 0.45726 0.12029 0.00459 0.0
H885 H 0.49037 0.14368 0.01399 0.0
H886 H 0.45436 0.04269 0.98516 0.0
H887 H 0.53384 0.09769 0.00884 0.0
H888 H 0.44519 0.07978 0.95272 0.0
H889 H 0.43527 0.08892 0.9746 0.0
H890 H 0.42689 0.05542 0.96891 0.0
H891 H 0.5437 0.14747 0.9805 0.0
H892 H 0.55444 0.1421 0.00417 0.0
H893 H 0.53254 0.15511 1.00232 0.0
C894 C 0.65478 0.16863 0.95784 0.0
C895 C 0.68198 0.17839 0.96169 0.0
C896 C 0.63622 0.14598 0.96559 0.0
C897 C 0.64486 0.13202 0.97705 0.0
C898 C 0.67217 0.14086 0.98016 0.0
C899 C 0.69043 0.16405 0.97258 0.0
C900 C 0.60733 0.13742 0.96193 0.0
C901 C 0.68213 0.12615 0.99186 0.0
C902 C 0.59563 0.08927 0.01148 0.0
C903 C 0.58143 0.06546 0.99962 0.0
C904 C 0.61718 0.11087 0.0047 0.0
C905 C 0.62504 0.10838 0.98582 0.0
C906 C 0.61181 0.08381 0.97442 0.0
C907 C 0.58996 0.06279 0.98132 0.0
C908 C 0.63033 0.13681 0.01717 0.0
C909 C 0.61982 0.08004 0.95444 0.0
H910 H 0.6479 0.17906 0.949 0.0
H911 H 0.71133 0.17136 0.97576 0.0
H912 H 0.5963 0.11741 0.95419 0.0
H913 H 0.59902 0.13679 0.9762 0.0
H914 H 0.60388 0.15067 0.95296 0.0
H915 H 0.70368 0.13434 0.99165 0.0
H916 H 0.6778 0.12688 0.0074 0.0
H917 H 0.67182 0.10528 0.98591 0.0
H918 H 0.58891 0.09151 0.02552 0.0
H919 H 0.57909 0.04436 0.97213 0.0
H920 H 0.62578 0.15056 0.0099 0.0
H921 H 0.65203 0.14552 0.01857 0.0
H922 H 0.62364 0.13501 0.03218 0.0
H923 H 0.61421 0.09023 0.94372 0.0
H924 H 0.6102 0.05907 0.94878 0.0
H925 H 0.64149 0.08866 0.95512 0.0
C926 C 0.84698 0.53139 0.96545 0.0
C927 C 0.82623 0.50677 0.95753 0.0
C928 C 0.87237 0.53533 0.97071 0.0
C929 C 0.87699 0.51406 0.96837 0.0
C930 C 0.85649 0.4896 0.95942 0.0
C931 C 0.83165 0.48644 0.95381 0.0
C932 C 0.89392 0.56197 0.97956 0.0
C933 C 0.86027 0.46625 0.95678 0.0
C934 C 0.94475 0.5199 0.97178 0.0
C935 C 0.94738 0.5144 0.99123 0.0
C936 C 0.9227 0.52142 0.96445 0.0
C937 C 0.90234 0.51646 0.97664 0.0
C938 C 0.90518 0.51136 0.9964 0.0
C939 C 0.92778 0.51076 0.00351 0.0
C940 C 0.9209 0.52769 0.9435 0.0
C941 C 0.88374 0.50528 0.0098 0.0
H942 H 0.84316 0.54729 0.96836 0.0
H943 H 0.81607 0.46754 0.94712 0.0
H944 H 0.89795 0.56151 0.99556 0.0
H945 H 0.91243 0.56755 0.97275 0.0
H946 H 0.88849 0.57722 0.97765 0.0
H947 H 0.84262 0.4488 0.94899 0.0
H948 H 0.87733 0.47088 0.94832 0.0
H949 H 0.8646 0.46123 0.97142 0.0
H950 H 0.95991 0.52294 0.96224 0.0
H951 H 0.92954 0.50631 0.01851 0.0
H952 H 0.91537 0.54302 0.94296 0.0
H953 H 0.90531 0.51006 0.93433 0.0
H954 H 0.93975 0.53444 0.93686 0.0
H955 H 0.87903 0.52121 0.0107 0.0
H956 H 0.88933 0.50262 0.02495 0.0
H957 H 0.86552 0.48713 0.00363 0.0
C958 C 0.54486 0.35815 0.97051 0.0
C959 C 0.526 0.3317 0.971 0.0
C960 C 0.53834 0.37773 0.97351 0.0
C961 C 0.51215 0.37071 0.97659 0.0
C962 C 0.49274 0.34406 0.97627 0.0
C963 C 0.49994 0.32487 0.97369 0.0
C964 C 0.55969 0.40601 0.97394 0.0
C965 C 0.46451 0.33585 0.97915 0.0
C966 C 0.50497 0.42309 0.00515 0.0
C967 C 0.49982 0.43527 0.9899 0.0
C968 C 0.50814 0.40145 1.00103 0.0
C969 C 0.50562 0.39148 0.98119 0.0
C970 C 0.49893 0.40276 0.96578 0.0
C971 C 0.49637 0.42472 0.97031 0.0
C972 C 0.51565 0.39021 0.01786 0.0
C973 C 0.49549 0.39228 0.94448 0.0
H974 H 0.56488 0.36363 0.96797 0.0
H975 H 0.48526 0.30458 0.97433 0.0
H976 H 0.55418 0.41574 0.96275 0.0
H977 H 0.56197 0.4165 0.98856 0.0
H978 H 0.57903 0.40816 0.97106 0.0
H979 H 0.45134 0.31433 0.97662 0.0
H980 H 0.46332 0.34244 0.99439 0.0
H981 H 0.45712 0.34522 0.96897 0.0
H982 H 0.50782 0.43121 0.02033 0.0
H983 H 0.49221 0.43396 0.95847 0.0
H984 H 0.53578 0.39346 0.0167 0.0
H985 H 0.50209 0.36882 0.01707 0.0
H986 H 0.5153 0.3992 0.03249 0.0
H987 H 0.5148 0.39631 0.93982 0.0
H988 H 0.48733 0.40124 0.93451 0.0
H989 H 0.48222 0.37077 0.94264 0.0
C990 C 0.1768 0.69245 0.05035 0.0
C991 C 0.19798 0.68844 0.05516 0.0
C992 C 0.15079 0.6713 0.04702 0.0
C993 C 0.14589 0.6455 0.04814 0.0
C994 C 0.16701 0.64144 0.05378 0.0
C995 C 0.19263 0.66292 0.05749 0.0
C996 C 0.1287 0.67649 0.04155 0.0
C997 C 0.16278 0.61428 0.055 0.0
C998 C 0.07786 0.58625 0.05009 0.0
C999 C 0.07134 0.57547 0.03034 0.0
C1000 C 0.10144 0.60982 0.05598 0.0
C1001 C 0.11922 0.62252 0.04188 0.0
C1002 C 0.11242 0.612 0.02186 0.0
C1003 C 0.08847 0.5888 0.01631 0.0
C1004 C 0.10764 0.62073 0.07737 0.0
C1005 C 0.131 0.62457 0.0064 0.0
H1006 H 0.18059 0.71199 0.04845 0.0
H1007 H 0.20867 0.6596 0.06179 0.0
H1008 H 0.12134 0.66963 0.02579 0.0
H1009 H 0.11196 0.66549 0.05034 0.0
H1010 H 0.13513 0.69759 0.04391 0.0
H1011 H 0.18113 0.61451 0.06027 0.0
H1012 H 0.14762 0.60366 0.06507 0.0
H1013 H 0.15543 0.60307 0.04022 0.0
H1014 H 0.06463 0.57615 0.06099 0.0
H1015 H 0.08369 0.58053 1.00105 0.0
H1016 H 0.11379 0.64178 0.07862 0.0
H1017 H 0.1243 0.61908 0.0841 0.0
H1018 H 0.09053 0.61028 0.08598 0.0
H1019 H 0.13645 0.64535 0.00633 0.0
H1020 H 0.12235 0.61453 0.99136 0.0
H1021 H 0.14943 0.62415 0.00996 0.0
C1022 C 0.35765 0.51816 0.06801 0.0
C1023 C 0.33067 0.50004 0.06329 0.0
C1024 C 0.37714 0.51482 0.05965 0.0
C1025 C 0.36979 0.49219 0.04677 0.0
C1026 C 0.34275 0.47286 0.04299 0.0
C1027 C 0.32349 0.47713 0.05111 0.0
C1028 C 0.40563 0.53612 0.06405 0.0
C1029 C 0.33412 0.44801 0.02995 0.0
C1030 C 0.4199 0.49989 0.01076 0.0
C1031 C 0.43531 0.49186 0.02136 0.0
C1032 C 0.39789 0.49918 0.0185 0.0
C1033 C 0.3906 0.48945 0.03701 0.0
C1034 C 0.4052 0.4798 0.04714 0.0
C1035 C 0.42761 0.48158 0.03939 0.0
C1036 C 0.38345 0.51039 0.00744 0.0
C1037 C 0.39783 0.46857 0.06659 0.0
H1038 H 0.36362 0.53554 0.0779 0.0
H1039 H 0.30282 0.46295 0.04731 0.0
H1040 H 0.41736 0.5282 0.07094 0.0
H1041 H 0.41401 0.54362 0.05012 0.0
H1042 H 0.40804 0.55276 0.07408 0.0
H1043 H 0.31284 0.43372 0.0302 0.0
H1044 H 0.33787 0.45254 0.01453 0.0
H1045 H 0.34571 0.4388 0.03467 0.0
H1046 H 0.42596 0.50814 0.99695 0.0
H1047 H 0.4394 0.47524 0.04762 0.0
H1048 H 0.38645 0.52823 0.01611 0.0
H1049 H 0.36199 0.49626 0.00552 0.0
H1050 H 0.39037 0.51559 0.99269 0.0
H1051 H 0.40292 0.48452 0.07832 0.0
H1052 H 0.40831 0.45809 0.07092 0.0
H1053 H 0.3763 0.45487 0.06585 0.0
C1054 C 0.5216 0.8388 0.04108 0.0
C1055 C 0.49667 0.82115 0.04659 0.0
C1056 C 0.52789 0.86406 0.03689 0.0
C1057 C 0.50868 0.87169 0.03797 0.0
C1058 C 0.48365 0.85414 0.04379 0.0
C1059 C 0.47807 0.82923 0.04822 0.0
C1060 C 0.55491 0.88242 0.03101 0.0
C1061 C 0.46256 0.86151 0.04503 0.0
C1062 C 0.525 0.94223 0.04316 0.0
C1063 C 0.51794 0.94531 0.02393 0.0
C1064 C 0.52353 0.91882 0.04773 0.0
C1065 C 0.51437 0.89786 0.03277 0.0
C1066 C 0.50833 0.90125 0.01315 0.0
C1067 C 0.51039 0.92504 0.00893 0.0
C1068 C 0.53059 0.91613 0.06875 0.0
C1069 C 0.49819 0.87923 0.99684 0.0
H1070 H 0.53601 0.83268 0.03955 0.0
H1071 H 0.45897 0.81597 0.05287 0.0
H1072 H 0.55322 0.88701 0.01565 0.0
H1073 H 0.56419 0.90114 0.04061 0.0
H1074 H 0.5681 0.87406 0.03197 0.0
H1075 H 0.44403 0.84549 0.04962 0.0
H1076 H 0.46966 0.879 0.05573 0.0
H1077 H 0.45809 0.86662 0.03048 0.0
H1078 H 0.53107 0.95793 0.05479 0.0
H1079 H 0.50476 0.92723 0.99407 0.0
H1080 H 0.54395 0.90796 0.06921 0.0
H1081 H 0.5125 0.90233 0.07524 0.0
H1082 H 0.54026 0.9351 0.07809 0.0
H1083 H 0.51135 0.87087 0.99648 0.0
H1084 H 0.49652 0.88567 0.98213 0.0
H1085 H 0.47846 0.86336 0.99966 0.0
C1086 C 0.00644 0.18244 0.39741 0.0
C1087 C 0.98322 0.18322 0.39929 0.0
C1088 C 0.02794 0.20258 0.38947 0.0
C1089 C 0.02607 0.22388 0.38292 0.0
C1090 C 1.00257 0.22467 0.38461 0.0
C1091 C 0.98151 0.20445 0.39297 0.0
C1092 C 0.05281 0.20122 0.38836 0.0
C1093 C 0.99967 0.24684 0.37757 0.0
C1094 C 0.09022 0.28732 0.38029 0.0
C1095 C 0.0945 0.28567 0.36037 0.0
C1096 C 0.06799 0.2675 0.38775 0.0
C1097 C 0.04909 0.24568 0.3749 0.0
C1098 C 0.05284 0.24424 0.35464 0.0
C1099 C 0.07567 0.26409 0.34766 0.0
C1100 C 0.06521 0.26957 0.40954 0.0
C1101 C 0.03295 0.2215 0.3404 0.0
H1102 H 0.00793 0.16619 0.40248 0.0
H1103 H 0.96352 0.20501 0.39427 0.0
H1104 H 0.05756 0.20151 0.37286 0.0
H1105 H 0.06962 0.21857 0.39696 0.0
H1106 H 0.05111 0.18336 0.39412 0.0
H1107 H 0.97979 0.24408 0.37922 0.0
H1108 H 0.01457 0.26554 0.38601 0.0
H1109 H 1.0033 0.24865 0.36182 0.0
H1110 H 0.10472 0.30378 0.39031 0.0
H1111 H 0.0788 0.26267 0.33226 0.0
H1112 H 0.06487 0.25279 0.41621 0.0
H1113 H 0.0463 0.2687 0.41184 0.0
H1114 H 0.08155 0.28792 0.41752 0.0
H1115 H 0.0321 0.20325 0.3444 0.0
H1116 H 0.03779 0.22415 0.32491 0.0
H1117 H 0.01303 0.21889 0.34133 0.0
C1118 C 0.81289 0.77415 0.39805 0.0
C1119 C 0.83768 0.79587 0.40447 0.0
C1120 C 0.79216 0.77721 0.38985 0.0
C1121 C 0.7961 0.80263 0.38834 0.0
C1122 C 0.82113 0.82463 0.39477 0.0
C1123 C 0.84162 0.82098 0.4026 0.0
C1124 C 0.76598 0.75322 0.38289 0.0
C1125 C 0.82613 0.85207 0.39379 0.0
C1126 C 0.74975 0.81315 0.35337 0.0
C1127 C 0.73243 0.81431 0.36614 0.0
C1128 C 0.77023 0.80891 0.3603 0.0
C1129 C 0.77389 0.80627 0.38057 0.0
C1130 C 0.75651 0.80752 0.39353 0.0
C1131 C 0.73592 0.81128 0.38615 0.0
C1132 C 0.78799 0.80728 0.34591 0.0
C1133 C 0.75991 0.8053 0.4153 0.0
H1134 H 0.80976 0.75469 0.39935 0.0
H1135 H 0.8606 0.83787 0.40778 0.0
H1136 H 0.75051 0.75279 0.39165 0.0
H1137 H 0.76019 0.75384 0.36726 0.0
H1138 H 0.76643 0.73487 0.38424 0.0
H1139 H 0.84673 0.8671 0.39918 0.0
H1140 H 0.82195 0.85505 0.3784 0.0
H1141 H 0.81264 0.85514 0.40283 0.0
H1142 H 0.74718 0.81535 0.33788 0.0
H1143 H 0.72284 0.81237 0.3962 0.0
H1144 H 0.7878 0.78852 0.34645 0.0
H1145 H 0.80857 0.82321 0.35008 0.0
H1146 H 0.78201 0.80877 0.33052 0.0
H1147 H 0.7586 0.78634 0.41757 0.0
H1148 H 0.74487 0.80683 0.42345 0.0
H1149 H 0.77973 0.82094 0.42178 0.0
C1150 C 0.22416 0.03884 0.38653 0.0
C1151 C 0.20137 0.03744 0.39296 0.0
C1152 C 0.22354 0.01653 0.37776 0.0
C1153 C 0.19969 0.99227 0.3758 0.0
C1154 C 0.1766 0.99083 0.38222 0.0
C1155 C 0.17769 0.01352 0.39059 0.0
C1156 C 0.24842 0.01885 0.37078 0.0
C1157 C 0.15091 0.96522 0.38071 0.0
C1158 C 0.18881 0.9352 0.34046 0.0
C1159 C 0.19399 0.92026 0.35322 0.0
C1160 C 0.19151 0.95922 0.34747 0.0
C1161 C 0.19898 0.96811 0.36777 0.0
C1162 C 0.20455 0.95323 0.38065 0.0
C1163 C 0.20224 0.92961 0.37317 0.0
C1164 C 0.18588 0.97482 0.33325 0.0
C1165 C 0.21208 0.96181 0.40245 0.0
H1166 H 0.24241 0.05743 0.38828 0.0
H1167 H 0.16014 0.01244 0.39579 0.0
H1168 H 0.25448 0.00705 0.37934 0.0
H1169 H 0.24482 0.01098 0.35506 0.0
H1170 H 0.26494 0.03938 0.37238 0.0
H1171 H 0.1347 0.96753 0.38616 0.0
H1172 H 0.14504 0.95645 0.36516 0.0
H1173 H 0.15339 0.9512 0.3894 0.0
H1174 H 0.18255 0.92808 0.32501 0.0
H1175 H 0.20601 0.918 0.38315 0.0
H1176 H 0.20268 0.99516 0.33442 0.0
H1177 H 0.16834 0.97585 0.33708 0.0
H1178 H 0.1822 0.96617 0.31773 0.0
H1179 H 0.22972 0.98163 0.40485 0.0
H1180 H 0.21631 0.94825 0.41038 0.0
H1181 H 0.19585 0.96291 0.40909 0.0
C1182 C 0.50183 0.65286 0.28979 0.0
C1183 C 0.50435 0.63069 0.28645 0.0
C1184 C 0.52335 0.67688 0.29794 0.0
C1185 C 0.54789 0.67867 0.30326 0.0
C1186 C 0.55036 0.65617 0.30033 0.0
C1187 C 0.52863 0.63251 0.29173 0.0
C1188 C 0.51999 0.70048 0.30042 0.0
C1189 C 0.576 0.65713 0.30616 0.0
C1190 C 0.60959 0.74575 0.30646 0.0
C1191 C 0.61343 0.75396 0.32666 0.0
C1192 C 0.58844 0.72128 0.29867 0.0
C1193 C 0.57104 0.70428 0.31146 0.0
C1194 C 0.57528 0.71217 0.33196 0.0
C1195 C 0.5962 0.73706 0.33928 0.0
C1196 C 0.5843 0.71392 0.27667 0.0
C1197 C 0.55754 0.69443 0.34614 0.0
H1198 H 0.48316 0.65157 0.28547 0.0
H1199 H 0.53056 0.61535 0.28919 0.0
H1200 H 0.52479 0.70868 0.3161 0.0
H1201 H 0.53386 0.71594 0.29177 0.0
H1202 H 0.49963 0.69582 0.29555 0.0
H1203 H 0.57432 0.63764 0.30383 0.0
H1204 H 0.59152 0.67076 0.29742 0.0
H1205 H 0.58258 0.66467 0.32192 0.0
H1206 H 0.62268 0.75881 0.29659 0.0
H1207 H 0.59917 0.74324 0.35492 0.0
H1208 H 0.56472 0.71042 0.27075 0.0
H1209 H 0.58449 0.69549 0.27342 0.0
H1210 H 0.59961 0.72932 0.26875 0.0
H1211 H 0.53726 0.69085 0.34284 0.0
H1212 H 0.56444 0.7028 0.36175 0.0
H1213 H 0.55649 0.67521 0.34434 0.0
C1214 C 0.34711 0.85141 0.2819 0.0
C1215 C 0.36893 0.87612 0.28025 0.0
C1216 C 0.32453 0.84873 0.28996 0.0
C1217 C 0.32373 0.8713 0.29686 0.0
C1218 C 0.3458 0.89632 0.29539 0.0
C1219 C 0.36799 0.89843 0.28695 0.0
C1220 C 0.30133 0.82169 0.29082 0.0
C1221 C 0.34596 0.92088 0.30277 0.0
C1222 C 0.25641 0.86532 0.29971 0.0
C1223 C 0.25245 0.86188 0.31967 0.0
C1224 C 0.27942 0.86845 0.29217 0.0
C1225 C 0.29943 0.86866 0.30492 0.0
C1226 C 0.2958 0.86563 0.32517 0.0
C1227 C 0.27227 0.86199 0.33226 0.0
C1228 C 0.28207 0.87101 0.27042 0.0
C1229 C 0.31675 0.86611 0.33933 0.0
H1230 H 0.34753 0.83408 0.27653 0.0
H1231 H 0.38483 0.91756 0.28586 0.0
H1232 H 0.29651 0.81861 0.30625 0.0
H1233 H 0.28373 0.81962 0.28213 0.0
H1234 H 0.30511 0.80612 0.28498 0.0
H1235 H 0.36499 0.93879 0.30132 0.0
H1236 H 0.32997 0.92216 0.29439 0.0
H1237 H 0.34211 0.92031 0.3185 0.0
H1238 H 0.24115 0.86496 0.28975 0.0
H1239 H 0.26946 0.8594 0.34768 0.0
H1240 H 0.28443 0.85494 0.26362 0.0
H1241 H 0.29995 0.88964 0.26827 0.0
H1242 H 0.26473 0.87043 0.26246 0.0
H1243 H 0.31981 0.8496 0.33492 0.0
H1244 H 0.31153 0.86473 0.35476 0.0
H1245 H 0.33576 0.88439 0.3388 0.0
C1246 C 0.15682 0.48802 0.28011 0.0
C1247 C 0.1509 0.5047 0.29117 0.0
C1248 C 0.15783 0.46749 0.28852 0.0
C1249 C 0.15223 0.46331 0.30831 0.0
C1250 C 0.14551 0.47971 0.31936 0.0
C1251 C 0.14523 0.50046 0.3107 0.0
C1252 C 0.16554 0.45069 0.27639 0.0
C1253 C 0.13885 0.47546 0.34034 0.0
C1254 C 0.13452 0.39611 0.32264 0.0
C1255 C 0.15831 0.40105 0.33257 0.0
C1256 C 0.13195 0.41641 0.31531 0.0
C1257 C 0.15394 0.44206 0.3175 0.0
C1258 C 0.17793 0.44718 0.32774 0.0
C1259 C 0.17972 0.42662 0.33539 0.0
C1260 C 0.10589 0.41033 0.30485 0.0
C1261 C 0.20199 0.47416 0.32996 0.0
H1262 H 0.16146 0.49156 0.26506 0.0
H1263 H 0.14055 0.51339 0.31916 0.0
H1264 H 0.18361 0.45207 0.28369 0.0
H1265 H 0.14977 0.4299 0.27538 0.0
H1266 H 0.16925 0.45652 0.26122 0.0
H1267 H 0.13272 0.48911 0.34653 0.0
H1268 H 0.12271 0.45512 0.34105 0.0
H1269 H 0.15618 0.47816 0.34979 0.0
H1270 H 0.11793 0.37632 0.32053 0.0
H1271 H 0.19824 0.43036 0.34285 0.0
H1272 H 0.10808 0.41364 0.28908 0.0
H1273 H 0.09948 0.4236 0.31131 0.0
H1274 H 0.0902 0.38981 0.30575 0.0
H1275 H 0.2079 0.48037 0.31518 0.0
H1276 H 0.21896 0.47497 0.33872 0.0
H1277 H 0.19746 0.48847 0.33722 0.0
C1278 C 0.35417 0.49274 0.30509 0.0
C1279 C 0.3461 0.50811 0.29521 0.0
C1280 C 0.33564 0.46922 0.31213 0.0
C1281 C 0.30846 0.46113 0.30958 0.0
C1282 C 0.30019 0.47609 0.29906 0.0
C1283 C 0.31898 0.49899 0.29173 0.0
C1284 C 0.34519 0.45339 0.32272 0.0
C1285 C 0.27147 0.46839 0.29606 0.0
C1286 C 0.25201 0.39243 0.31315 0.0
C1287 C 0.24444 0.39483 0.3319 0.0
C1288 C 0.27408 0.41324 0.30627 0.0
C1289 C 0.28845 0.43739 0.31816 0.0
C1290 C 0.28149 0.43956 0.33744 0.0
C1291 C 0.25977 0.41812 0.34419 0.0
C1292 C 0.28113 0.40976 0.28585 0.0
C1293 C 0.29581 0.46509 0.35044 0.0
H1294 H 0.37499 0.49951 0.30795 0.0
H1295 H 0.31235 0.51018 0.2836 0.0
H1296 H 0.3417 0.45386 0.33848 0.0
H1297 H 0.33398 0.43265 0.3164 0.0
H1298 H 0.36652 0.46087 0.32181 0.0
H1299 H 0.26833 0.48239 0.28783 0.0
H1300 H 0.25982 0.44872 0.28783 0.0
H1301 H 0.26358 0.46733 0.31056 0.0
H1302 H 0.24023 0.3744 0.30362 0.0
H1303 H 0.25377 0.42015 0.35859 0.0
H1304 H 0.30269 0.41795 0.28597 0.0
H1305 H 0.27546 0.4205 0.27572 0.0
H1306 H 0.27091 0.38888 0.27985 0.0
H1307 H 0.31739 0.47301 0.3514 0.0
H1308 H 0.28958 0.46301 0.36559 0.0
H1309 H 0.29185 0.47964 0.34388 0.0
C1310 C 0.51454 0.85791 0.2871 0.0
C1311 C 0.49147 0.83804 0.29365 0.0
C1312 C 0.53951 0.86175 0.29377 0.0
C1313 C 0.54145 0.84519 0.30713 0.0
C1314 C 0.51833 0.82586 0.31437 0.0
C1315 C 0.49381 0.82277 0.30776 0.0
C1316 C 0.56372 0.88294 0.286 0.0
C1317 C 0.51932 0.80764 0.32854 0.0
C1318 C 0.59772 0.83073 0.30788 0.0
C1319 C 0.61265 0.84437 0.32578 0.0
C1320 C 0.57506 0.83155 0.30134 0.0
C1321 C 0.56723 0.84676 0.31277 0.0
C1322 C 0.58286 0.8615 0.33042 0.0
C1323 C 0.6052 0.85992 0.33682 0.0
C1324 C 0.55882 0.81517 0.28261 0.0
C1325 C 0.57557 0.87836 0.34285 0.0
H1326 H 0.51304 0.86982 0.27622 0.0
H1327 H 0.47625 0.80785 0.31337 0.0
H1328 H 0.57905 0.89492 0.29834 0.0
H1329 H 0.5721 0.87398 0.27622 0.0
H1330 H 0.55931 0.89598 0.27751 0.0
H1331 H 0.49965 0.79412 0.33322 0.0
H1332 H 0.52704 0.79585 0.32148 0.0
H1333 H 0.53292 0.81901 0.34187 0.0
H1334 H 0.60321 0.81859 0.29924 0.0
H1335 H 0.61671 0.87072 0.35057 0.0
H1336 H 0.55547 0.82739 0.27245 0.0
H1337 H 0.53923 0.79978 0.28615 0.0
H1338 H 0.56834 0.80561 0.27483 0.0
H1339 H 0.57175 0.8911 0.33355 0.0
H1340 H 0.59123 0.89083 0.35489 0.0
H1341 H 0.55716 0.86581 0.34952 0.0
C1342 C 0.16796 0.66 0.30874 0.0
C1343 C 0.19376 0.66635 0.30555 0.0
C1344 C 0.16116 0.67949 0.31125 0.0
C1345 C 0.18074 0.70598 0.311 0.0
C1346 C 0.20668 0.71252 0.3075 0.0
C1347 C 0.21278 0.69262 0.30459 0.0
C1348 C 0.13318 0.67178 0.3146 0.0
C1349 C 0.22819 0.7406 0.30729 0.0
C1350 C 0.16508 0.7599 0.30379 0.0
C1351 C 0.16901 0.77115 0.32321 0.0
C1352 C 0.16751 0.73779 0.29964 0.0
C1353 C 0.17459 0.72709 0.31527 0.0
C1354 C 0.17769 0.73784 0.33497 0.0
C1355 C 0.17461 0.7596 0.33871 0.0
C1356 C 0.16345 0.72648 0.2785 0.0
C1357 C 0.18564 0.72722 0.35201 0.0
H1358 H 0.15316 0.63984 0.30976 0.0
H1359 H 0.2326 0.69772 0.30168 0.0
H1360 H 0.13261 0.67918 0.32975 0.0
H1361 H 0.12555 0.68076 0.30422 0.0
H1362 H 0.11982 0.65026 0.31269 0.0
H1363 H 0.24732 0.74237 0.30423 0.0
H1364 H 0.22252 0.75003 0.29593 0.0
H1365 H 0.23095 0.75165 0.32175 0.0
H1366 H 0.16056 0.76866 0.29176 0.0
H1367 H 0.17785 0.76831 0.35375 0.0
H1368 H 0.1499 0.70504 0.27714 0.0
H1369 H 0.18251 0.72996 0.27368 0.0
H1370 H 0.15529 0.73528 0.26835 0.0
H1371 H 0.17197 0.70591 0.35176 0.0
H1372 H 0.18585 0.73688 0.36651 0.0
H1373 H 0.20561 0.73018 0.3506 0.0
C1374 C 0.85747 0.99365 0.39444 0.0
C1375 C 0.86318 0.01902 0.39108 0.0
C1376 C 0.83199 0.9721 0.39008 0.0
C1377 C 0.8113 0.97595 0.38273 0.0
C1378 C 0.81647 0.00162 0.38045 0.0
C1379 C 0.84238 0.02282 0.38444 0.0
C1380 C 0.82747 0.94506 0.39255 0.0
C1381 C 0.7948 0.00661 0.37316 0.0
C1382 C 0.75502 0.91811 0.35089 0.0
C1383 C 0.73702 0.90574 0.36464 0.0
C1384 C 0.77896 0.94132 0.3565 0.0
C1385 C 0.7848 0.95284 0.37624 0.0
C1386 C 0.76614 0.94109 0.38998 0.0
C1387 C 0.74263 0.91747 0.38409 0.0
C1388 C 0.79852 0.95284 0.34148 0.0
C1389 C 0.77129 0.9531 0.41101 0.0
H1390 H 0.87313 0.99048 0.40015 0.0
H1391 H 0.84642 0.04221 0.38167 0.0
H1392 H 0.81173 0.93506 0.40234 0.0
H1393 H 0.82077 0.93316 0.37803 0.0
H1394 H 0.84553 0.94544 0.39882 0.0
H1395 H 0.80129 0.02776 0.37452 0.0
H1396 H 0.78831 0.99885 0.35744 0.0
H1397 H 0.77746 0.99628 0.38154 0.0
H1398 H 0.75092 0.90906 0.33588 0.0
H1399 H 0.7287 0.9081 0.39475 0.0
H1400 H 0.81668 0.95244 0.3462 0.0
H1401 H 0.80424 0.97356 0.34047 0.0
H1402 H 0.79061 0.94205 0.32658 0.0
H1403 H 0.78761 0.95179 0.41881 0.0
H1404 H 0.75368 0.94321 0.41922 0.0
H1405 H 0.77749 0.97412 0.41136 0.0
C1406 C 0.99687 0.80936 0.39405 0.0
C1407 C 0.99334 0.8305 0.39031 0.0
C1408 C 0.01682 0.80641 0.3858 0.0
C1409 C 0.03374 0.82511 0.37364 0.0
C1410 C 0.0292 0.84557 0.36894 0.0
C1411 C 0.00902 0.84785 0.37715 0.0
C1412 C 0.02065 0.78405 0.39093 0.0
C1413 C 0.04666 0.86604 0.35614 0.0
C1414 C 0.1049 0.84104 0.37307 0.0
C1415 C 0.10484 0.8298 0.35435 0.0
C1416 C 0.08183 0.83899 0.37965 0.0
C1417 C 0.05774 0.82506 0.36738 0.0
C1418 C 0.05729 0.81296 0.34871 0.0
C1419 C 0.08085 0.81563 0.34235 0.0
C1420 C 0.08347 0.85254 0.39955 0.0
C1421 C 0.03202 0.79762 0.33528 0.0
H1422 H 0.98492 0.79585 0.40416 0.0
H1423 H 0.00608 0.86391 0.37378 0.0
H1424 H 0.02306 0.77432 0.37749 0.0
H1425 H 0.03889 0.79163 0.40108 0.0
H1426 H 1.00388 0.76929 0.39818 0.0
H1427 H 0.0394 0.87959 0.35272 0.0
H1428 H 0.06688 0.87767 0.36378 0.0
H1429 H 0.04803 0.85667 0.34207 0.0
H1430 H 0.12322 0.85207 0.38254 0.0
H1431 H 0.08046 0.80671 0.32793 0.0
H1432 H 0.06901 0.83846 0.40872 0.0
H1433 H 0.07843 0.86804 0.39761 0.0
H1434 H 0.10341 0.8616 0.40769 0.0
H1435 H 0.01632 0.78297 0.34338 0.0
H1436 H 0.03439 0.78739 0.3221 0.0
H1437 H 0.02524 0.81095 0.33027 0.0
C1438 C 0.14068 0.1521 0.36463 0.0
C1439 C 0.15648 0.15085 0.38028 0.0
C1440 C 0.14519 0.17615 0.3588 0.0
C1441 C 0.16636 0.19958 0.36859 0.0
C1442 C 0.18327 0.19848 0.38366 0.0
C1443 C 0.17801 0.17414 0.38944 0.0
C1444 C 0.12652 0.17649 0.34281 0.0
C1445 C 0.20623 0.22306 0.39429 0.0
C1446 C 0.1854 0.26288 0.34564 0.0
C1447 C 0.17277 0.27299 0.35692 0.0
C1448 C 0.18395 0.23916 0.34947 0.0
C1449 C 0.169 0.22509 0.36456 0.0
C1450 C 0.15596 0.23513 0.37578 0.0
C1451 C 0.15824 0.25904 0.37196 0.0
C1452 C 0.19842 0.22919 0.33744 0.0
C1453 C 0.13928 0.22047 0.39169 0.0
H1454 H 0.12441 0.13422 0.3571 0.0
H1455 H 0.19026 0.17347 0.40162 0.0
H1456 H 0.11533 0.18513 0.34922 0.0
H1457 H 0.13764 0.18888 0.33134 0.0
H1458 H 0.11226 0.15662 0.33565 0.0
H1459 H 0.21935 0.21887 0.40386 0.0
H1460 H 0.21801 0.23649 0.38355 0.0
H1461 H 0.1988 0.23342 0.40363 0.0
H1462 H 0.19667 0.27366 0.33404 0.0
H1463 H 0.14808 0.26657 0.38053 0.0
H1464 H 0.18425 0.20991 0.32938 0.0
H1465 H 0.21222 0.22631 0.34733 0.0
H1466 H 0.20973 0.24277 0.32659 0.0
H1467 H 0.12336 0.20084 0.38531 0.0
H1468 H 0.13016 0.23086 0.39887 0.0
H1469 H 0.15147 0.21756 0.40317 0.0
C1470 C 0.649 0.53716 0.72743 0.0
C1471 C 0.65076 0.51587 0.73352 0.0
C1472 C 0.66983 0.55725 0.71878 0.0
C1473 C 0.69317 0.55631 0.7166 0.0
C1474 C 0.69511 0.53497 0.723 0.0
C1475 C 0.67381 0.51493 0.73119 0.0
C1476 C 0.66681 0.57943 0.71188 0.0
C1477 C 0.71984 0.53347 0.72145 0.0
C1478 C 0.74201 0.59623 0.68074 0.0
C1479 C 0.76106 0.61786 0.69329 0.0
C1480 C 0.71934 0.57646 0.68797 0.0
C1481 C 0.716 0.57802 0.70832 0.0
C1482 C 0.73519 0.59986 0.72101 0.0
C1483 C 0.75725 0.61958 0.71332 0.0
C1484 C 0.69912 0.55372 0.67389 0.0
C1485 C 0.73287 0.60205 0.74287 0.0
H1486 H 0.63112 0.53781 0.72908 0.0
H1487 H 0.67529 0.49857 0.73604 0.0
H1488 H 0.68196 0.59816 0.72014 0.0
H1489 H 0.66999 0.58108 0.69604 0.0
H1490 H 0.64706 0.57678 0.71388 0.0
H1491 H 0.71826 0.51566 0.72721 0.0
H1492 H 0.72412 0.53355 0.70584 0.0
H1493 H 0.73689 0.55087 0.72981 0.0
H1494 H 0.74482 0.59476 0.66527 0.0
H1495 H 0.77203 0.63602 0.72323 0.0
H1496 H 0.6793 0.55124 0.6751 0.0
H1497 H 0.69825 0.53544 0.67782 0.0
H1498 H 0.70364 0.55627 0.65833 0.0
H1499 H 0.71403 0.60119 0.74544 0.0
H1500 H 0.74933 0.62045 0.7507 0.0
H1501 H 0.73269 0.58531 0.74948 0.0
C1502 C 0.48877 0.138 0.74932 0.0
C1503 C 0.5007 0.1273 0.73779 0.0
C1504 C 0.46852 0.14166 0.74098 0.0
C1505 C 0.45949 0.13385 0.72069 0.0
C1506 C 0.47111 0.12248 0.70909 0.0
C1507 C 0.4918 0.11968 0.71771 0.0
C1508 C 0.45717 0.1544 0.75382 0.0
C1509 C 0.46169 0.11329 0.68755 0.0
C1510 C 0.39138 0.12336 0.70449 0.0
C1511 C 0.39757 0.14617 0.69553 0.0
C1512 C 0.41127 0.11879 0.71225 0.0
C1513 C 0.43809 0.13784 0.71161 0.0
C1514 C 0.44443 0.16097 0.70262 0.0
C1515 C 0.42412 0.16467 0.69446 0.0
C1516 C 0.40356 0.0936 0.72124 0.0
C1517 C 0.4727 0.18212 0.70206 0.0
H1518 H 0.49584 0.14422 0.76479 0.0
H1519 H 0.50097 0.11136 0.70878 0.0
H1520 H 0.45986 0.17239 0.74767 0.0
H1521 H 0.4357 0.1411 0.75398 0.0
H1522 H 0.46655 0.15964 0.76925 0.0
H1523 H 0.47193 0.10378 0.68079 0.0
H1524 H 0.44019 0.09919 0.68578 0.0
H1525 H 0.46502 0.13007 0.6793 0.0
H1526 H 0.3709 0.10893 0.70531 0.0
H1527 H 0.42907 0.1825 0.68779 0.0
H1528 H 0.41066 0.09783 0.73716 0.0
H1529 H 0.41302 0.08349 0.71419 0.0
H1530 H 0.3819 0.08016 0.71962 0.0
H1531 H 0.4826 0.18912 0.7173 0.0
H1532 H 0.47436 0.19906 0.69475 0.0
H1533 H 0.48351 0.1742 0.6941 0.0
C1534 C 0.87782 0.36869 0.70876 0.0
C1535 C 0.87324 0.37116 0.72844 0.0
C1536 C 0.8758 0.34553 0.70038 0.0
C1537 C 0.86833 0.32424 0.71187 0.0
C1538 C 0.86372 0.32673 0.73178 0.0
C1539 C 0.86653 0.35033 0.7399 0.0
C1540 C 0.88146 0.34376 0.67925 0.0
C1541 C 0.85519 0.30427 0.74437 0.0
C1542 C 0.83626 0.25594 0.68545 0.0
C1543 C 0.85665 0.25027 0.6877 0.0
C1544 C 0.83984 0.28002 0.6932 0.0
C1545 C 0.86461 0.29906 0.70296 0.0
C1546 C 0.8855 0.29369 0.70477 0.0
C1547 C 0.88114 0.26917 0.69735 0.0
C1548 C 0.81691 0.2848 0.69141 0.0
C1549 C 0.91235 0.31375 0.71469 0.0
H1550 H 0.8831 0.38496 0.7 0.0
H1551 H 0.86275 0.35229 0.75508 0.0
H1552 H 0.89659 0.33788 0.67835 0.0
H1553 H 0.86339 0.32853 0.6702 0.0
H1554 H 0.88848 0.36256 0.67271 0.0
H1555 H 0.85244 0.30946 0.75959 0.0
H1556 H 0.83637 0.28732 0.73754 0.0
H1557 H 0.87003 0.29794 0.74521 0.0
H1558 H 0.81722 0.24121 0.67816 0.0
H1559 H 0.89698 0.26483 0.69898 0.0
H1560 H 0.82216 0.3024 0.68362 0.0
H1561 H 0.81221 0.28859 0.70632 0.0
H1562 H 0.79896 0.26798 0.68332 0.0
H1563 H 0.9198 0.33231 0.70777 0.0
H1564 H 0.9269 0.30708 0.7138 0.0
H1565 H 0.91094 0.31805 0.73045 0.0
C1566 C 0.19391 0.96699 0.62143 0.0
C1567 C 0.16954 0.96495 0.61608 0.0
C1568 C 0.21572 0.99092 0.6295 0.0
C1569 C 0.21323 0.01347 0.63187 0.0
C1570 C 0.18867 0.0115 0.62634 0.0
C1571 C 0.16708 0.98724 0.61869 0.0
C1572 C 0.2414 0.99207 0.63555 0.0
C1573 C 0.18527 0.03512 0.62827 0.0
C1574 C 0.26103 0.07175 0.6681 0.0
C1575 C 0.27861 0.08868 0.65567 0.0
C1576 C 0.24009 0.04697 0.66063 0.0
C1577 C 0.23624 0.03914 0.64014 0.0
C1578 C 0.25396 0.05615 0.62752 0.0
C1579 C 0.2751 0.08058 0.63546 0.0
C1580 C 0.22197 0.02925 0.67464 0.0
C1581 C 0.25027 0.04879 0.60555 0.0
H1582 H 0.19582 0.94975 0.61948 0.0
H1583 H 0.14835 0.98579 0.61429 0.0
H1584 H 0.25706 0.00593 0.62701 0.0
H1585 H 0.24765 0.99945 0.65136 0.0
H1586 H 0.23993 0.97268 0.63319 0.0
H1587 H 0.16502 0.03041 0.62299 0.0
H1588 H 0.18965 0.04347 0.6439 0.0
H1589 H 0.19942 0.05048 0.61969 0.0
H1590 H 0.26373 0.0778 0.68375 0.0
H1591 H 0.28848 0.09363 0.62574 0.0
H1592 H 0.22105 0.01008 0.6731 0.0
H1593 H 0.20172 0.02555 0.67095 0.0
H1594 H 0.22843 0.03769 0.69027 0.0
H1595 H 0.25052 0.03036 0.60245 0.0
H1596 H 0.26577 0.0642 0.59775 0.0
H1597 H 0.23078 0.04527 0.59936 0.0
C1598 C 0.033 0.23252 0.6193 0.0
C1599 C 0.03363 0.21 0.61277 0.0
C1600 C 0.01089 0.23076 0.62768 0.0
C1601 C 0.98862 0.20588 0.62918 0.0
C1602 C 0.98904 0.18311 0.62229 0.0
C1603 C 0.01156 0.18545 0.61435 0.0
C1604 C 0.01144 0.2555 0.63509 0.0
C1605 C 0.9656 0.15622 0.62313 0.0
C1606 C 0.93785 0.19645 0.66519 0.0
C1607 C 0.91784 0.19637 0.65289 0.0
C1608 C 0.96131 0.20032 0.65783 0.0
C1609 C 0.96463 0.20354 0.63757 0.0
C1610 C 0.94446 0.20347 0.62511 0.0
C1611 C 0.92153 0.20017 0.63294 0.0
C1612 C 0.98245 0.20067 0.67171 0.0
C1613 C 0.94675 0.20616 0.60335 0.0
H1614 H 0.05005 0.25152 0.61823 0.0
H1615 H 0.01181 0.16797 0.60913 0.0
H1616 H 0.99532 0.25684 0.62699 0.0
H1617 H 0.00807 0.25516 0.65092 0.0
H1618 H 0.03045 0.27328 0.63334 0.0
H1619 H 0.96889 0.14049 0.61689 0.0
H1620 H 0.96116 0.153 0.63862 0.0
H1621 H 0.94794 0.15456 0.61484 0.0
H1622 H 0.93522 0.19357 0.68061 0.0
H1623 H 0.90609 0.1998 0.6232 0.0
H1624 H 1.00153 0.21877 0.67091 0.0
H1625 H 0.98512 0.18393 0.66724 0.0
H1626 H 0.97763 0.19955 0.68724 0.0
H1627 H 0.96479 0.2246 0.60111 0.0
H1628 H 0.92948 0.20602 0.59569 0.0
H1629 H 0.94856 0.18987 0.5963 0.0
C1630 C 0.79757 0.82148 0.63365 0.0
C1631 C 0.82016 0.84119 0.62657 0.0
C1632 C 0.79798 0.80067 0.64212 0.0
C1633 C 0.82143 0.79942 0.64322 0.0
C1634 C 0.84439 0.81947 0.6363 0.0
C1635 C 0.84351 0.84022 0.62816 0.0
C1636 C 0.77323 0.77981 0.64959 0.0
C1637 C 0.86965 0.81859 0.63694 0.0
C1638 C 0.83091 0.75566 0.67724 0.0
C1639 C 0.82432 0.73374 0.66412 0.0
C1640 C 0.82943 0.77698 0.67076 0.0
C1641 C 0.82164 0.77649 0.65065 0.0
C1642 C 0.81478 0.75433 0.63739 0.0
C1643 C 0.81597 0.73314 0.64433 0.0
C1644 C 0.83655 0.80017 0.68536 0.0
C1645 C 0.80679 0.75323 0.61576 0.0
H1646 H 0.77959 0.82238 0.63257 0.0
H1647 H 0.86091 0.85534 0.62249 0.0
H1648 H 0.76622 0.76085 0.64074 0.0
H1649 H 0.7774 0.77724 0.6651 0.0
H1650 H 0.75716 0.78452 0.64878 0.0
H1651 H 0.88597 0.83615 0.63154 0.0
H1652 H 0.87581 0.81702 0.65223 0.0
H1653 H 0.86642 0.80102 0.62773 0.0
H1654 H 0.83729 0.7562 0.69257 0.0
H1655 H 0.81102 0.71637 0.63405 0.0
H1656 H 0.82021 0.80446 0.68504 0.0
H1657 H 0.85412 0.81772 0.6812 0.0
H1658 H 0.84086 0.79691 0.70066 0.0
H1659 H 0.78936 0.75576 0.61396 0.0
H1660 H 0.80201 0.73451 0.60741 0.0
H1661 H 0.82298 0.76948 0.6091 0.0
C1662 C 0.01953 0.82746 0.6378 0.0
C1663 C 0.01141 0.8427 0.6278 0.0
C1664 C 1.00105 0.80402 0.64498 0.0
C1665 C 0.97386 0.79587 0.64244 0.0
C1666 C 0.96553 0.81075 0.63184 0.0
C1667 C 0.98428 0.83359 0.6244 0.0
C1668 C 0.01066 0.78831 0.65567 0.0
C1669 C 0.9368 0.80299 0.62883 0.0
C1670 C 0.91776 0.72693 0.64592 0.0
C1671 C 0.91 0.72919 0.66463 0.0
C1672 C 0.93972 0.7479 0.63907 0.0
C1673 C 0.95385 0.77207 0.65096 0.0
C1674 C 0.94674 0.77412 0.67021 0.0
C1675 C 0.92509 0.75253 0.67691 0.0
C1676 C 0.94693 0.74455 0.61868 0.0
C1677 C 0.96087 0.79963 0.68324 0.0
H1678 H 0.04036 0.83424 0.64061 0.0
H1679 H 0.9776 0.84468 0.6162 0.0
H1680 H 0.007 0.78871 0.6714 0.0
H1681 H 0.99961 0.76758 0.64933 0.0
H1682 H 0.03203 0.79593 0.6549 0.0
H1683 H 0.93361 0.81696 0.62059 0.0
H1684 H 0.92519 0.78332 0.62061 0.0
H1685 H 0.9289 0.80192 0.64332 0.0
H1686 H 0.90624 0.70885 0.6364 0.0
H1687 H 0.91902 0.75447 0.6913 0.0
H1688 H 0.9685 0.75267 0.61892 0.0
H1689 H 0.94146 0.75546 0.60858 0.0
H1690 H 0.93669 0.72372 0.61257 0.0
H1691 H 0.98246 0.80764 0.6843 0.0
H1692 H 0.9545 0.79749 0.69835 0.0
H1693 H 0.95687 0.81413 0.67663 0.0
C1694 C 0.17824 0.19515 0.6318 0.0
C1695 C 0.15828 0.17104 0.62235 0.0
C1696 C 0.20349 0.19916 0.6377 0.0
C1697 C 0.20877 0.17843 0.63444 0.0
C1698 C 0.1891 0.15455 0.62409 0.0
C1699 C 0.16442 0.15136 0.6179 0.0
C1700 C 0.22418 0.22522 0.6481 0.0
C1701 C 0.19362 0.13177 0.62041 0.0
C1702 C 0.27722 0.18596 0.63852 0.0
C1703 C 0.27899 0.1786 0.65747 0.0
C1704 C 0.2552 0.18754 0.63124 0.0
C1705 C 0.23401 0.18077 0.64293 0.0
C1706 C 0.23597 0.17383 0.66223 0.0
C1707 C 0.25855 0.17318 0.66934 0.0
C1708 C 0.25432 0.19577 0.61084 0.0
C1709 C 0.21364 0.16581 0.67504 0.0
H1710 H 0.17386 0.21054 0.63533 0.0
H1711 H 0.14951 0.13293 0.61005 0.0
H1712 H 0.22742 0.22318 0.66391 0.0
H1713 H 0.24322 0.23208 0.64178 0.0
H1714 H 0.21837 0.24033 0.64706 0.0
H1715 H 0.17651 0.11469 0.61177 0.0
H1716 H 0.21124 0.13762 0.61236 0.0
H1717 H 0.19741 0.12562 0.63471 0.0
H1718 H 0.29303 0.19038 0.62931 0.0
H1719 H 0.25966 0.16729 0.68394 0.0
H1720 H 0.24835 0.21082 0.61108 0.0
H1721 H 0.2394 0.17877 0.60074 0.0
H1722 H 0.27363 0.20369 0.60472 0.0
H1723 H 0.2083 0.18126 0.67666 0.0
H1724 H 0.21863 0.16196 0.68996 0.0
H1725 H 0.19597 0.14783 0.66791 0.0
C1726 C 0.88121 0.0228 0.64728 0.0
C1727 C 0.86579 0.00219 0.63258 0.0
C1728 C 0.87537 0.04264 0.65164 0.0
C1729 C 0.8532 0.04159 0.64138 0.0
C1730 C 0.83712 0.02055 0.62691 0.0
C1731 C 0.84376 0.00127 0.62253 0.0
C1732 C 0.89323 0.06501 0.66696 0.0
C1733 C 0.81313 0.01862 0.61583 0.0
C1734 C 0.82884 0.08436 0.6647 0.0
C1735 C 0.83985 0.10583 0.65361 0.0
C1736 C 0.83227 0.06285 0.66047 0.0
C1737 C 0.84765 0.06322 0.64516 0.0
C1738 C 0.85864 0.08479 0.63385 0.0
C1739 C 0.85435 0.10568 0.63807 0.0
C1740 C 0.81981 0.03991 0.67256 0.0
C1741 C 0.87569 0.08624 0.61771 0.0
H1742 H 0.89791 0.02346 0.65546 0.0
H1743 H 0.83191 0.98572 0.61094 0.0
H1744 H 0.90179 0.08371 0.66015 0.0
H1745 H 0.88179 0.06643 0.67883 0.0
H1746 H 0.90959 0.06282 0.67372 0.0
H1747 H 0.80157 1.00003 0.60612 0.0
H1748 H 0.80016 0.02011 0.62636 0.0
H1749 H 0.81924 0.03511 0.60662 0.0
H1750 H 0.81757 0.08441 0.67668 0.0
H1751 H 0.86323 0.1224 0.62961 0.0
H1752 H 0.83536 0.03807 0.68106 0.0
H1753 H 0.80782 0.02154 0.66272 0.0
H1754 H 0.80703 0.0419 0.68305 0.0
H1755 H 0.89331 0.08589 0.62404 0.0
H1756 H 0.88237 0.10421 0.61006 0.0
H1757 H 0.86473 0.069 0.60663 0.0
C1758 C 0.52333 0.32638 0.72545 0.0
C1759 C 0.52902 0.35197 0.72296 0.0
C1760 C 0.49776 0.30498 0.7211 0.0
C1761 C 0.47696 0.30918 0.71473 0.0
C1762 C 0.48213 0.33504 0.71342 0.0
C1763 C 0.50812 0.3561 0.71732 0.0
C1764 C 0.49326 0.27774 0.7225 0.0
C1765 C 0.46035 0.34039 0.70722 0.0
C1766 C 0.42022 0.25267 0.68223 0.0
C1767 C 0.40261 0.23939 0.696 0.0
C1768 C 0.44415 0.27578 0.68807 0.0
C1769 C 0.45037 0.2863 0.70809 0.0
C1770 C 0.43207 0.27367 0.72189 0.0
C1771 C 0.40857 0.25014 0.71574 0.0
C1772 C 0.46334 0.28823 0.67295 0.0
C1773 C 0.43761 0.28462 0.74324 0.0
H1774 H 0.53907 0.32292 0.73041 0.0
H1775 H 0.51214 0.37568 0.71526 0.0
H1776 H 0.4778 0.26722 0.73238 0.0
H1777 H 0.48619 0.2665 0.70772 0.0
H1778 H 0.51142 0.27783 0.72811 0.0
H1779 H 0.46687 0.36152 0.70942 0.0
H1780 H 0.45355 0.33351 0.69139 0.0
H1781 H 0.44321 0.3295 0.71567 0.0
H1782 H 0.41585 0.24437 0.66699 0.0
H1783 H 0.39495 0.24004 0.72642 0.0
H1784 H 0.48159 0.28766 0.67698 0.0
H1785 H 0.46898 0.30904 0.67275 0.0
H1786 H 0.45512 0.27819 0.65786 0.0
H1787 H 0.4539 0.28273 0.75044 0.0
H1788 H 0.42011 0.27435 0.75151 0.0
H1789 H 0.44402 0.30573 0.74437 0.0
C1790 C 0.65462 0.13864 0.71567 0.0
C1791 C 0.66079 0.16247 0.72602 0.0
C1792 C 0.67455 0.13469 0.70848 0.0
C1793 C 0.70121 0.15521 0.71134 0.0
C1794 C 0.70758 0.1788 0.72252 0.0
C1795 C 0.68747 0.18189 0.73001 0.0
C1796 C 0.667 0.10887 0.69729 0.0
C1797 C 0.73558 0.20138 0.72587 0.0
C1798 C 0.76151 0.14811 0.70584 0.0
C1799 C 0.76808 0.15638 0.68709 0.0
C1800 C 0.73873 0.14577 0.71334 0.0
C1801 C 0.72255 0.15279 0.70215 0.0
C1802 C 0.72871 0.16043 0.68295 0.0
C1803 C 0.75116 0.16173 0.67555 0.0
C1804 C 0.73259 0.13675 0.73358 0.0
C1805 C 0.71254 0.16882 0.6707 0.0
H1806 H 0.63418 0.12346 0.71248 0.0
H1807 H 0.69267 0.20009 0.73851 0.0
H1808 H 0.6697 0.11149 0.68148 0.0
H1809 H 0.67996 0.10151 0.70286 0.0
H1810 H 0.64618 0.09388 0.69848 0.0
H1811 H 0.73723 0.2185 0.73477 0.0
H1812 H 0.74847 0.19527 0.73354 0.0
H1813 H 0.74321 0.20757 0.71147 0.0
H1814 H 0.77445 0.1438 0.7148 0.0
H1815 H 0.75627 0.16839 0.66115 0.0
H1816 H 0.71138 0.12209 0.73345 0.0
H1817 H 0.73686 0.15357 0.7442 0.0
H1818 H 0.74444 0.12809 0.73897 0.0
H1819 H 0.6914 0.15364 0.66942 0.0
H1820 H 0.71885 0.17262 0.65564 0.0
H1821 H 0.71445 0.18693 0.67809 0.0
C1822 C 0.85063 0.50948 0.7212 0.0
C1823 C 0.83031 0.48641 0.71073 0.0
C1824 C 0.85562 0.53407 0.71622 0.0
C1825 C 0.83961 0.53561 0.70065 0.0
C1826 C 0.81981 0.51249 0.68952 0.0
C1827 C 0.81563 0.48823 0.69454 0.0
C1828 C 0.87724 0.55835 0.7282 0.0
C1829 C 0.80209 0.51327 0.67296 0.0
C1830 C 0.82786 0.59284 0.70452 0.0
C1831 C 0.84293 0.60801 0.69018 0.0
C1832 C 0.82675 0.56934 0.70807 0.0
C1833 C 0.84158 0.56104 0.69733 0.0
C1834 C 0.85731 0.57653 0.68311 0.0
C1835 C 0.85751 0.59973 0.67948 0.0
C1836 C 0.80919 0.5531 0.72302 0.0
C1837 C 0.87379 0.56853 0.67169 0.0
H1838 H 0.86202 0.50837 0.73378 0.0
H1839 H 0.8004 0.47059 0.68599 0.0
H1840 H 0.88956 0.57301 0.71836 0.0
H1841 H 0.86842 0.56731 0.73751 0.0
H1842 H 0.89012 0.55407 0.73796 0.0
H1843 H 0.78882 0.49369 0.66491 0.0
H1844 H 0.78982 0.52085 0.67903 0.0
H1845 H 0.81399 0.52674 0.6623 0.0
H1846 H 0.81627 0.599 0.71266 0.0
H1847 H 0.86926 0.61151 0.66845 0.0
H1848 H 0.821 0.5501 0.73476 0.0
H1849 H 0.79423 0.53353 0.7158 0.0
H1850 H 0.79883 0.5623 0.73002 0.0
H1851 H 0.88694 0.56531 0.68203 0.0
H1852 H 0.88602 0.58342 0.66193 0.0
H1853 H 0.86087 0.54978 0.66251 0.0
C1854 C 0.44118 0.89947 0.21372 0.0
C1855 C 0.435 0.91037 0.22995 0.0
C1856 C 0.45008 0.91293 0.19698 0.0
C1857 C 0.45276 0.93795 0.19623 0.0
C1858 C 0.44642 0.94904 0.21247 0.0
C1859 C 0.43767 0.93517 0.2291 0.0
C1860 C 0.45656 0.90031 0.18004 0.0
C1861 C 0.44897 0.97563 0.21229 0.0
C1862 C 0.49865 0.98237 0.16064 0.0
C1863 C 0.48098 0.97899 0.14445 0.0
C1864 C 0.48973 0.96937 0.17759 0.0
C1865 C 0.46242 0.9525 0.1785 0.0
C1866 C 0.44444 0.94906 0.16226 0.0
C1867 C 0.45391 0.96228 0.14547 0.0
C1868 C 0.50962 0.97345 0.19445 0.0
C1869 C 0.41516 0.93134 0.1626 0.0
H1870 H 0.43865 0.8801 0.21393 0.0
H1871 H 0.43316 0.94391 0.24156 0.0
H1872 H 0.44398 0.89792 0.16643 0.0
H1873 H 0.47732 0.91304 0.17713 0.0
H1874 H 0.45365 0.88086 0.18296 0.0
H1875 H 0.4429 0.9814 0.22592 0.0
H1876 H 0.46967 0.99054 0.21076 0.0
H1877 H 0.43666 0.97578 0.1994 0.0
H1878 H 0.5196 0.99488 0.15994 0.0
H1879 H 0.44003 0.95974 0.13319 0.0
H1880 H 0.50841 0.95458 0.19695 0.0
H1881 H 0.50516 0.98063 0.20823 0.0
H1882 H 0.53011 0.98765 0.19166 0.0
H1883 H 0.41074 0.91115 0.16448 0.0
H1884 H 0.40375 0.93093 0.1489 0.0
H1885 H 0.40832 0.93789 0.17537 0.0
C1886 C 0.1195 0.52272 0.22202 0.0
C1887 C 0.12327 0.54196 0.23689 0.0
C1888 C 0.1039 0.51826 0.2043 0.0
C1889 C 0.09205 0.53366 0.20122 0.0
C1890 C 0.09608 0.55338 0.21601 0.0
C1891 C 0.11152 0.55721 0.23371 0.0
C1892 C 0.09997 0.49696 0.18891 0.0
C1893 C 0.08394 0.57034 0.21317 0.0
C1894 C 0.07131 0.53644 0.14811 0.0
C1895 C 0.04415 0.5185 0.14643 0.0
C1896 C 0.08703 0.54197 0.16597 0.0
C1897 C 0.0754 0.52901 0.1825 0.0
C1898 C 0.04801 0.51101 0.18098 0.0
C1899 C 0.0327 0.50609 0.163 0.0
C1900 C 0.11616 0.5614 0.16706 0.0
C1901 C 0.03494 0.4967 0.19828 0.0
H1902 H 0.12888 0.51117 0.22417 0.0
H1903 H 0.11405 0.57189 0.2452 0.0
H1904 H 0.07867 0.48253 0.18563 0.0
H1905 H 0.10731 0.50538 0.17498 0.0
H1906 H 0.11031 0.48652 0.19369 0.0
H1907 H 0.08953 0.58527 0.22588 0.0
H1908 H 0.09019 0.58043 0.19964 0.0
H1909 H 0.06216 0.55804 0.21111 0.0
H1910 H 0.08045 0.54584 0.13533 0.0
H1911 H 0.01169 0.49252 0.16195 0.0
H1912 H 0.12755 0.55149 0.17018 0.0
H1913 H 0.12187 0.57691 0.17933 0.0
H1914 H 0.12191 0.57074 0.15315 0.0
H1915 H 0.04373 0.48485 0.20295 0.0
H1916 H 0.01337 0.48357 0.19475 0.0
H1917 H 0.03839 0.51089 0.21101 0.0
C1918 C 0.45612 0.53657 0.22314 0.0
C1919 C 0.46603 0.56321 0.2286 0.0
C1920 C 0.4609 0.52801 0.20497 0.0
C1921 C 0.47569 0.54652 0.1919 0.0
C1922 C 0.48492 0.57333 0.19711 0.0
C1923 C 0.48002 0.58131 0.21534 0.0
C1924 C 0.45077 0.49926 0.19998 0.0
C1925 C 0.5005 0.59373 0.18359 0.0
C1926 C 0.51409 0.53253 0.15485 0.0
C1927 C 0.49814 0.52686 0.13706 0.0
C1928 C 0.50659 0.53812 0.17284 0.0
C1929 C 0.4826 0.53824 0.17314 0.0
C1930 C 0.46619 0.53215 0.15532 0.0
C1931 C 0.47412 0.5265 0.13753 0.0
C1932 C 0.52472 0.54456 0.19148 0.0
C1933 C 0.4405 0.53212 0.15497 0.0
H1934 H 0.44532 0.52252 0.23334 0.0
H1935 H 0.48728 0.60189 0.21931 0.0
H1936 H 0.43901 0.49246 0.18538 0.0
H1937 H 0.46762 0.49589 0.19898 0.0
H1938 H 0.4384 0.48723 0.21117 0.0
H1939 H 0.50529 0.61363 0.18944 0.0
H1940 H 0.51918 0.59398 0.18151 0.0
H1941 H 0.48928 0.58886 0.16885 0.0
H1942 H 0.53282 0.53322 0.15468 0.0
H1943 H 0.46141 0.52171 0.12396 0.0
H1944 H 0.51379 0.53194 0.20291 0.0
H1945 H 0.53219 0.5651 0.19743 0.0
H1946 H 0.54183 0.54202 0.18897 0.0
H1947 H 0.42796 0.519 0.16558 0.0
H1948 H 0.42937 0.52572 0.1401 0.0
H1949 H 0.44438 0.55204 0.15966 0.0
C1950 C 0.89664 0.45038 0.79785 0.0
C1951 C 0.90744 0.44429 0.78202 0.0
C1952 C 0.91084 0.45979 0.81658 0.0
C1953 C 0.93637 0.46305 0.81953 0.0
C1954 C 0.94781 0.45804 0.80341 0.0
C1955 C 0.93324 0.4488 0.78484 0.0
C1956 C 0.89804 0.46509 0.83339 0.0
C1957 C 0.97503 0.46139 0.80595 0.0
C1958 C 0.98129 0.50239 0.86583 0.0
C1959 C 0.9776 0.48259 0.87777 0.0
C1960 C 0.96782 0.49638 0.84689 0.0
C1961 C 0.95039 0.46995 0.83971 0.0
C1962 C 0.94655 0.44989 0.85172 0.0
C1963 C 0.96015 0.45646 0.87062 0.0
C1964 C 0.97224 0.51829 0.83457 0.0
C1965 C 0.92827 0.42144 0.84453 0.0
H1966 H 0.87663 0.4467 0.79584 0.0
H1967 H 0.94183 0.4445 0.77258 0.0
H1968 H 0.89407 0.45061 0.8442 0.0
H1969 H 0.91147 0.48472 0.84124 0.0
H1970 H 0.87918 0.46393 0.82829 0.0
H1971 H 0.98176 0.45835 0.79169 0.0
H1972 H 0.98943 0.48122 0.81304 0.0
H1973 H 0.97507 0.44717 0.8158 0.0
H1974 H 0.99451 0.52264 0.8714 0.0
H1975 H 0.95746 0.44109 0.87972 0.0
H1976 H 0.95326 0.51737 0.83046 0.0
H1977 H 0.98012 0.5161 0.82066 0.0
H1978 H 0.9862 0.53783 0.84242 0.0
H1979 H 0.90812 0.41788 0.84055 0.0
H1980 H 0.9273 0.40825 0.85576 0.0
H1981 H 0.93496 0.41625 0.83103 0.0
C1982 C 0.58225 0.46663 0.80063 0.0
C1983 C 0.587 0.48268 0.78523 0.0
C1984 C 0.57224 0.47075 0.81781 0.0
C1985 C 0.56699 0.49156 0.81982 0.0
C1986 C 0.57198 0.50802 0.80447 0.0
C1987 C 0.58187 0.50337 0.78737 0.0
C1988 C 0.56724 0.45275 0.83381 0.0
C1989 C 0.5667 0.53046 0.80605 0.0
C1990 C 0.51826 0.48691 0.85598 0.0
C1991 C 0.53504 0.50274 0.87265 0.0
C1992 C 0.52839 0.48332 0.83868 0.0
C1993 C 0.55599 0.49587 0.83793 0.0
C1994 C 0.57305 0.51201 0.85463 0.0
C1995 C 0.56238 0.51521 0.87177 0.0
C1996 C 0.50951 0.46577 0.82128 0.0
C1997 C 0.60258 0.52584 0.85444 0.0
H1998 H 0.58664 0.45093 0.79936 0.0
H1999 H 0.58523 0.51574 0.77553 0.0
H2000 H 0.57903 0.46416 0.84779 0.0
H2001 H 0.5462 0.4431 0.83657 0.0
H2002 H 0.57228 0.43741 0.82996 0.0
H2003 H 0.57216 0.54181 0.79303 0.0
H2004 H 0.5455 0.52297 0.80751 0.0
H2005 H 0.57793 0.54384 0.81949 0.0
H2006 H 0.49713 0.4769 0.85659 0.0
H2007 H 0.57551 0.52775 0.88446 0.0
H2008 H 0.51276 0.44915 0.81777 0.0
H2009 H 0.51319 0.47668 0.80806 0.0
H2010 H 0.4886 0.45788 0.82406 0.0
H2011 H 0.609 0.51133 0.85166 0.0
H2012 H 0.61314 0.53793 0.86854 0.0
H2013 H 0.60856 0.53862 0.84227 0.0
C2014 C 0.55961 0.11107 0.80781 0.0
C2015 C 0.54045 0.09923 0.79153 0.0
C2016 C 0.55597 0.09967 0.82577 0.0
C2017 C 0.53257 0.07587 0.82759 0.0
C2018 C 0.51345 0.06357 0.81109 0.0
C2019 C 0.51765 0.0753 0.79332 0.0
C2020 C 0.57693 0.11339 0.84294 0.0
C2021 C 0.48827 0.03815 0.81227 0.0
C2022 C 0.52921 0.03293 0.86819 0.0
C2023 C 0.51563 0.03875 0.88203 0.0
C2024 C 0.53538 0.04527 0.8507 0.0
C2025 C 0.52776 0.0639 0.84678 0.0
C2026 C 0.51449 0.07024 0.86084 0.0
C2027 C 0.50866 0.05767 0.87826 0.0
C2028 C 0.54975 0.03806 0.83625 0.0
C2029 C 0.50587 0.08987 0.85726 0.0
H2030 H 0.57716 0.12968 0.80673 0.0
H2031 H 0.5029 0.06573 0.78079 0.0
H2032 H 0.5688 0.11924 0.85522 0.0
H2033 H 0.58321 0.09994 0.84852 0.0
H2034 H 0.59451 0.1311 0.83892 0.0
H2035 H 0.47552 0.03089 0.79806 0.0
H2036 H 0.49285 0.02299 0.81659 0.0
H2037 H 0.47702 0.04077 0.8238 0.0
H2038 H 0.53511 0.0187 0.87108 0.0
H2039 H 0.49799 0.06218 0.88872 0.0
H2040 H 0.56783 0.05585 0.83305 0.0
H2041 H 0.53711 0.02913 0.82211 0.0
H2042 H 0.55534 0.02409 0.84184 0.0
H2043 H 0.52294 0.10867 0.85427 0.0
H2044 H 0.49682 0.09353 0.86998 0.0
H2045 H 0.49132 0.0827 0.84403 0.0
C2046 C 0.10335 0.26662 0.56174 0.0
C2047 C 0.10033 0.24171 0.56286 0.0
C2048 C 0.11248 0.28029 0.54509 0.0
C2049 C 0.11891 0.26892 0.52909 0.0
C2050 C 0.11604 0.24386 0.53015 0.0
C2051 C 0.10674 0.23058 0.54693 0.0
C2052 C 0.11523 0.30694 0.5446 0.0
C2053 C 0.12266 0.23098 0.51348 0.0
C2054 C 0.12034 0.29309 0.47825 0.0
C2055 C 0.1474 0.30996 0.47735 0.0
C2056 C 0.1108 0.27976 0.49498 0.0
C2057 C 0.12871 0.28322 0.51128 0.0
C2058 C 0.15603 0.30017 0.51046 0.0
C2059 C 0.16501 0.31331 0.49358 0.0
C2060 C 0.08152 0.262 0.49523 0.0
C2061 C 0.17584 0.30429 0.52739 0.0
H2062 H 0.09875 0.27558 0.574 0.0
H2063 H 0.10404 0.21117 0.54737 0.0
H2064 H 0.13597 0.32171 0.54304 0.0
H2065 H 0.103 0.30699 0.53161 0.0
H2066 H 0.10919 0.313 0.55812 0.0
H2067 H 0.11976 0.21161 0.51668 0.0
H2068 H 0.11014 0.22834 0.49977 0.0
H2069 H 0.14344 0.24366 0.5106 0.0
H2070 H 0.10652 0.29057 0.46593 0.0
H2071 H 0.18597 0.32596 0.49297 0.0
H2072 H 0.07456 0.26864 0.50788 0.0
H2073 H 0.07712 0.24185 0.49726 0.0
H2074 H 0.07018 0.26145 0.48143 0.0
H2075 H 0.17146 0.31176 0.54108 0.0
H2076 H 0.19637 0.31828 0.52456 0.0
H2077 H 0.17444 0.28539 0.5301 0.0
C2078 C 0.76947 0.88617 0.57024 0.0
C2079 C 0.78024 0.87019 0.57398 0.0
C2080 C 0.75316 0.88152 0.55285 0.0
C2081 C 0.74723 0.86021 0.53895 0.0
C2082 C 0.75723 0.84346 0.54294 0.0
C2083 C 0.77375 0.84875 0.56031 0.0
C2084 C 0.74294 0.89988 0.54905 0.0
C2085 C 0.75119 0.8204 0.52856 0.0
C2086 C 0.69007 0.83599 0.49905 0.0
C2087 C 0.70317 0.84714 0.48261 0.0
C2088 C 0.7041 0.84025 0.51755 0.0
C2089 C 0.73186 0.85624 0.51971 0.0
C2090 C 0.74515 0.8679 0.50328 0.0
C2091 C 0.73069 0.86307 0.48493 0.0
C2092 C 0.68927 0.82735 0.53471 0.0
C2093 C 0.77474 0.88517 0.50501 0.0
H2094 H 0.77403 0.90254 0.58084 0.0
H2095 H 0.78227 0.83652 0.56285 0.0
H2096 H 0.75115 0.9101 0.53589 0.0
H2097 H 0.7212 0.88876 0.54584 0.0
H2098 H 0.74828 0.91477 0.56176 0.0
H2099 H 0.75883 0.80814 0.53454 0.0
H2100 H 0.72961 0.808 0.52471 0.0
H2101 H 0.76013 0.8274 0.51471 0.0
H2102 H 0.6688 0.82396 0.49748 0.0
H2103 H 0.74106 0.8714 0.47229 0.0
H2104 H 0.69353 0.84231 0.54707 0.0
H2105 H 0.69594 0.81413 0.54019 0.0
H2106 H 0.66764 0.81584 0.53067 0.0
H2107 H 0.7812 0.90134 0.51687 0.0
H2108 H 0.78195 0.89369 0.49105 0.0
H2109 H 0.78423 0.87373 0.50912 0.0
C2110 C 0.1127 0.88536 0.54516 0.0
C2111 C 0.13062 0.89195 0.56193 0.0
C2112 C 0.1176 0.87783 0.52667 0.0
C2113 C 0.14104 0.87697 0.52486 0.0
C2114 C 0.15861 0.88249 0.5419 0.0
C2115 C 0.15313 0.88977 0.56018 0.0
C2116 C 0.09823 0.87183 0.50892 0.0
C2117 C 0.18377 0.88174 0.54069 0.0
C2118 C 0.14895 0.8415 0.47974 0.0
C2119 C 0.164 0.86221 0.46864 0.0
C2120 C 0.14079 0.84589 0.49781 0.0
C2121 C 0.14799 0.87166 0.50508 0.0
C2122 C 0.16282 0.8926 0.4938 0.0
C2123 C 0.17054 0.88761 0.4757 0.0
C2124 C 0.12474 0.82299 0.50924 0.0
C2125 C 0.1711 0.92039 0.50107 0.0
H2126 H 0.0954 0.88723 0.54627 0.0
H2127 H 0.16689 0.89443 0.57311 0.0
H2128 H 0.10737 0.88711 0.49869 0.0
H2129 H 0.09303 0.8529 0.50077 0.0
H2130 H 0.07987 0.87102 0.51304 0.0
H2131 H 0.19471 0.88531 0.55543 0.0
H2132 H 0.17941 0.86252 0.53363 0.0
H2133 H 0.19674 0.89682 0.53137 0.0
H2134 H 0.14347 0.82176 0.47425 0.0
H2135 H 0.18234 0.90374 0.46731 0.0
H2136 H 0.10623 0.82246 0.51248 0.0
H2137 H 0.13588 0.82521 0.52359 0.0
H2138 H 0.11969 0.80405 0.50114 0.0
H2139 H 0.15357 0.92192 0.50409 0.0
H2140 H 0.18189 0.93436 0.49029 0.0
H2141 H 0.18398 0.92629 0.51514 0.0
C2142 C 0.55649 0.78034 0.13275 0.0
C2143 C 0.5682 0.77503 0.11719 0.0
C2144 C 0.57 0.78957 0.15173 0.0
C2145 C 0.59575 0.79348 0.15519 0.0
C2146 C 0.60808 0.78931 0.13933 0.0
C2147 C 0.5942 0.78023 0.12052 0.0
C2148 C 0.55629 0.79402 0.16826 0.0
C2149 C 0.63555 0.79337 0.14237 0.0
C2150 C 0.64013 0.83249 0.20177 0.0
C2151 C 0.63708 0.81256 0.21336 0.0
C2152 C 0.62631 0.82664 0.18298 0.0
C2153 C 0.6092 0.80022 0.17557 0.0
C2154 C 0.60578 0.78005 0.18732 0.0
C2155 C 0.6197 0.78646 0.20609 0.0
C2156 C 0.63028 0.84867 0.17096 0.0
C2157 C 0.58787 0.75163 0.17987 0.0
H2158 H 0.53634 0.77618 0.13031 0.0
H2159 H 0.60348 0.77656 0.10846 0.0
H2160 H 0.55216 0.77927 0.17886 0.0
H2161 H 0.56917 0.81354 0.17646 0.0
H2162 H 0.5374 0.79257 0.1628 0.0
H2163 H 0.64292 0.79079 0.12828 0.0
H2164 H 0.64942 0.81324 0.14966 0.0
H2165 H 0.6357 0.77921 0.15224 0.0
H2166 H 0.65327 0.85271 0.20745 0.0
H2167 H 0.61747 0.771 0.21492 0.0
H2168 H 0.61102 0.84694 0.16637 0.0
H2169 H 0.63914 0.84748 0.15733 0.0
H2170 H 0.64328 0.86816 0.17923 0.0
H2171 H 0.56772 0.74786 0.17552 0.0
H2172 H 0.58672 0.73834 0.19108 0.0
H2173 H 0.59511 0.74676 0.16653 0.0
C2174 C 0.22978 0.80242 0.12035 0.0
C2175 C 0.25689 0.81743 0.11858 0.0
C2176 C 0.21897 0.80579 0.13732 0.0
C2177 C 0.23556 0.82487 0.15291 0.0
C2178 C 0.26288 0.84029 0.15118 0.0
C2179 C 0.27322 0.83631 0.13411 0.0
C2180 C 0.18976 0.78886 0.13859 0.0
C2181 C 0.28122 0.86094 0.16741 0.0
C2182 C 0.20334 0.84888 0.18897 0.0
C2183 C 0.20174 0.83465 0.2051 0.0
C2184 C 0.21459 0.84614 0.17203 0.0
C2185 C 0.22428 0.82856 0.17104 0.0
C2186 C 0.22278 0.81418 0.18724 0.0
C2187 C 0.21168 0.81748 0.20407 0.0
C2188 C 0.21592 0.86196 0.15513 0.0
C2189 C 0.23279 0.79515 0.18676 0.0
H2190 H 0.21688 0.78808 0.10835 0.0
H2191 H 0.29422 0.84777 0.13308 0.0
H2192 H 0.18631 0.77782 0.15172 0.0
H2193 H 0.18067 0.80126 0.1404 0.0
H2194 H 0.17959 0.77472 0.12529 0.0
H2195 H 0.30186 0.87168 0.16363 0.0
H2196 H 0.27455 0.87518 0.17047 0.0
H2197 H 0.28082 0.85181 0.18121 0.0
H2198 H 0.19543 0.86192 0.18944 0.0
H2199 H 0.21101 0.80673 0.21654 0.0
H2200 H 0.20428 0.8487 0.14174 0.0
H2201 H 0.23658 0.87366 0.15161 0.0
H2202 H 0.2083 0.87539 0.15845 0.0
H2203 H 0.22221 0.7799 0.17417 0.0
H2204 H 0.23021 0.78546 0.20056 0.0
H2205 H 0.254 0.80544 0.18447 0.0
C2206 C 0.19093 0.43809 0.14028 0.0
C2207 C 0.20646 0.43504 0.12668 0.0
C2208 C 0.18605 0.42564 0.15772 0.0
C2209 C 0.19694 0.40963 0.16184 0.0
C2210 C 0.21302 0.40679 0.14836 0.0
C2211 C 0.21767 0.4196 0.13101 0.0
C2212 C 0.16902 0.42948 0.17168 0.0
C2213 C 0.22494 0.38986 0.15213 0.0
C2214 C 0.20021 0.39402 0.21515 0.0
C2215 C 0.17764 0.36923 0.21478 0.0
C2216 C 0.20695 0.40721 0.19803 0.0
C2217 C 0.19082 0.39539 0.17999 0.0
C2218 C 0.16816 0.3703 0.17947 0.0
C2219 C 0.16183 0.35762 0.1968 0.0
C2220 C 0.23126 0.43393 0.1993 0.0
C2221 C 0.15033 0.35697 0.16062 0.0
H2222 H 0.18264 0.45043 0.13733 0.0
H2223 H 0.22963 0.41706 0.1206 0.0
H2224 H 0.15129 0.41042 0.17323 0.0
H2225 H 0.17995 0.43734 0.18655 0.0
H2226 H 0.16254 0.44304 0.16659 0.0
H2227 H 0.23764 0.39029 0.14058 0.0
H2228 H 0.23689 0.3964 0.16666 0.0
H2229 H 0.20907 0.36937 0.15266 0.0
H2230 H 0.21283 0.40308 0.22881 0.0
H2231 H 0.14414 0.33869 0.19632 0.0
H2232 H 0.22568 0.44852 0.19529 0.0
H2233 H 0.24474 0.43397 0.18859 0.0
H2234 H 0.24207 0.44022 0.21429 0.0
H2235 H 0.14164 0.36875 0.15558 0.0
H2236 H 0.13407 0.33704 0.16244 0.0
H2237 H 0.16184 0.35553 0.14881 0.0
C2238 C 0.74707 0.57167 0.88035 0.0
C2239 C 0.76461 0.57193 0.8954 0.0
C2240 C 0.75615 0.58478 0.86348 0.0
C2241 C 0.78348 0.59841 0.86139 0.0
C2242 C 0.80128 0.59854 0.87638 0.0
C2243 C 0.79167 0.5854 0.89317 0.0
C2244 C 0.73646 0.5841 0.84789 0.0
C2245 C 0.83056 0.61274 0.87474 0.0
C2246 C 0.80527 0.61354 0.80985 0.0
C2247 C 0.8122 0.6399 0.80988 0.0
C2248 C 0.79603 0.59988 0.82648 0.0
C2249 C 0.79344 0.61273 0.84362 0.0
C2250 C 0.80026 0.63926 0.84373 0.0
C2251 C 0.8096 0.6525 0.82695 0.0
C2252 C 0.78901 0.57163 0.82569 0.0
C2253 C 0.79774 0.65371 0.86164 0.0
H2254 H 0.7261 0.56096 0.88166 0.0
H2255 H 0.80546 0.58603 0.90474 0.0
H2256 H 0.74093 0.60428 0.84587 0.0
H2257 H 0.73792 0.57539 0.83354 0.0
H2258 H 0.71589 0.57267 0.85171 0.0
H2259 H 0.84176 0.61054 0.88744 0.0
H2260 H 0.83473 0.60525 0.86096 0.0
H2261 H 0.83788 0.63385 0.87393 0.0
H2262 H 0.80677 0.60343 0.7967 0.0
H2263 H 0.81523 0.67292 0.82732 0.0
H2264 H 0.76799 0.55918 0.82806 0.0
H2265 H 0.80085 0.56909 0.8377 0.0
H2266 H 0.79245 0.56453 0.81138 0.0
H2267 H 0.7771 0.64355 0.86541 0.0
H2268 H 0.80359 0.67422 0.85934 0.0
H2269 H 0.81025 0.65386 0.87452 0.0
C2270 C 0.44518 0.22117 0.89855 0.0
C2271 C 0.45944 0.20821 0.90112 0.0
C2272 C 0.42951 0.21679 0.88084 0.0
C2273 C 0.42818 0.1991 0.86536 0.0
C2274 C 0.44287 0.18629 0.86777 0.0
C2275 C 0.45831 0.19099 0.88562 0.0
C2276 C 0.41406 0.23076 0.87882 0.0
C2277 C 0.4421 0.16742 0.85156 0.0
C2278 C 0.36927 0.16696 0.82657 0.0
C2279 C 0.37954 0.18153 0.81061 0.0
C2280 C 0.38475 0.17279 0.84461 0.0
C2281 C 0.41115 0.19363 0.8467 0.0
C2282 C 0.42152 0.20866 0.83075 0.0
C2283 C 0.40558 0.20245 0.81291 0.0
C2284 C 0.373 0.15631 0.86129 0.0
C2285 C 0.44956 0.23107 0.83245 0.0
H2286 H 0.44579 0.2343 0.91056 0.0
H2287 H 0.46961 0.18122 0.88744 0.0
H2288 H 0.41917 0.2419 0.86571 0.0
H2289 H 0.39268 0.21628 0.8765 0.0
H2290 H 0.41781 0.24444 0.89202 0.0
H2291 H 0.455 0.15937 0.85568 0.0
H2292 H 0.42165 0.15094 0.84797 0.0
H2293 H 0.44839 0.17731 0.83796 0.0
H2294 H 0.34927 0.1506 0.82484 0.0
H2295 H 0.41351 0.21405 0.80073 0.0
H2296 H 0.37497 0.16891 0.87468 0.0
H2297 H 0.3839 0.14607 0.86503 0.0
H2298 H 0.35185 0.1415 0.85755 0.0
H2299 H 0.45297 0.24544 0.84504 0.0
H2300 H 0.45439 0.24128 0.81885 0.0
H2301 H 0.46336 0.22376 0.83543 0.0
C2302 C 0.78334 0.22021 0.87911 0.0
C2303 C 0.80147 0.22732 0.89584 0.0
C2304 C 0.78804 0.2122 0.86072 0.0
C2305 C 0.8115 0.21139 0.85893 0.0
C2306 C 0.82937 0.21758 0.8759 0.0
C2307 C 0.8241 0.22534 0.89411 0.0
C2308 C 0.76836 0.20556 0.84305 0.0
C2309 C 0.85458 0.21691 0.87471 0.0
C2310 C 0.81805 0.17424 0.81418 0.0
C2311 C 0.83251 0.19443 0.80248 0.0
C2312 C 0.81067 0.17937 0.83239 0.0
C2313 C 0.81806 0.20534 0.8392 0.0
C2314 C 0.83243 0.22576 0.82737 0.0
C2315 C 0.83938 0.22005 0.80916 0.0
C2316 C 0.79512 0.157 0.84443 0.0
C2317 C 0.84088 0.25376 0.83411 0.0
H2318 H 0.76596 0.22195 0.88018 0.0
H2319 H 0.83804 0.2304 0.90698 0.0
H2320 H 0.77731 0.2203 0.83241 0.0
H2321 H 0.76296 0.18631 0.83536 0.0
H2322 H 0.75012 0.20502 0.84716 0.0
H2323 H 0.86582 0.2211 0.88939 0.0
H2324 H 0.85021 0.19749 0.86806 0.0
H2325 H 0.86726 0.23158 0.86501 0.0
H2326 H 0.81232 0.15433 0.80901 0.0
H2327 H 0.85077 0.2358 0.80033 0.0
H2328 H 0.77657 0.15639 0.84763 0.0
H2329 H 0.80656 0.15996 0.8588 0.0
H2330 H 0.79019 0.13783 0.83679 0.0
H2331 H 0.82345 0.25546 0.83714 0.0
H2332 H 0.85145 0.26729 0.82302 0.0
H2333 H 0.85401 0.2601 0.84809 0.0
C2334 C 0.26392 0.11392 0.44976 0.0
C2335 C 0.23799 0.1092 0.44795 0.0
C2336 C 0.27932 0.12276 0.46803 0.0
C2337 C 0.2686 0.12716 0.48488 0.0
C2338 C 0.2429 0.12359 0.48298 0.0
C2339 C 0.22788 0.11458 0.46456 0.0
C2340 C 0.30667 0.1264 0.46946 0.0
C2341 C 0.23084 0.12824 0.50057 0.0
C2342 C 0.29425 0.12032 0.53523 0.0
C2343 C 0.31115 0.14646 0.54263 0.0
C2344 C 0.2805 0.1138 0.51638 0.0
C2345 C 0.2836 0.13393 0.50469 0.0
C2346 C 0.3007 0.16037 0.51204 0.0
C2347 C 0.31434 0.16632 0.53091 0.0
C2348 C 0.26261 0.08536 0.509 0.0
C2349 C 0.30434 0.18235 0.50008 0.0
H2350 H 0.272 0.11017 0.43693 0.0
H2351 H 0.20776 0.11066 0.46339 0.0
H2352 H 0.32119 0.14619 0.47657 0.0
H2353 H 0.30745 0.11209 0.47884 0.0
H2354 H 0.31272 0.12375 0.45479 0.0
H2355 H 0.21155 0.12668 0.49634 0.0
H2356 H 0.22788 0.11369 0.51113 0.0
H2357 H 0.24429 0.14788 0.50841 0.0
H2358 H 0.29197 0.10491 0.54415 0.0
H2359 H 0.32714 0.18657 0.53667 0.0
H2360 H 0.26878 0.08077 0.49499 0.0
H2361 H 0.24212 0.08128 0.50584 0.0
H2362 H 0.26268 0.07208 0.5198 0.0
H2363 H 0.31123 0.18021 0.48568 0.0
H2364 H 0.31872 0.20185 0.50778 0.0
H2365 H 0.2852 0.1815 0.49691 0.0
C2366 C 0.93379 0.17141 0.46463 0.0
C2367 C 0.91761 0.15125 0.44981 0.0
C2368 C 0.9236 0.17581 0.48163 0.0
C2369 C 0.8966 0.15952 0.48403 0.0
C2370 C 0.88009 0.13937 0.46904 0.0
C2371 C 0.89074 0.13558 0.45211 0.0
C2372 C 0.94185 0.19762 0.49719 0.0
C2373 C 0.85123 0.1215 0.47104 0.0
C2374 C 0.87584 0.15305 0.53613 0.0
C2375 C 0.86463 0.16912 0.53733 0.0
C2376 C 0.88626 0.14975 0.51891 0.0
C2377 C 0.88578 0.16306 0.50246 0.0
C2378 C 0.8748 0.17954 0.50361 0.0
C2379 C 0.86426 0.18227 0.52096 0.0
C2380 C 0.89771 0.13193 0.5183 0.0
C2381 C 0.87406 0.19421 0.48646 0.0
H2382 H 0.95464 0.1834 0.46322 0.0
H2383 H 0.87795 0.12023 0.44064 0.0
H2384 H 0.93392 0.2108 0.50038 0.0
H2385 H 0.94317 0.1894 0.51111 0.0
H2386 H 0.96201 0.20937 0.49267 0.0
H2387 H 0.84094 0.10702 0.45794 0.0
H2388 H 0.84898 0.1108 0.48427 0.0
H2389 H 0.84135 0.13311 0.47318 0.0
H2390 H 0.87672 0.14316 0.54877 0.0
H2391 H 0.85537 0.19446 0.52157 0.0
H2392 H 0.91869 0.14305 0.51544 0.0
H2393 H 0.88717 0.11618 0.50603 0.0
H2394 H 0.89642 0.12284 0.53227 0.0
H2395 H 0.89427 0.20666 0.48228 0.0
H2396 H 0.86548 0.20678 0.48986 0.0
H2397 H 0.86225 0.18021 0.47344 0.0
C2398 C 0.8468 0.73656 0.45816 0.0
C2399 C 0.87023 0.76036 0.45747 0.0
C2400 C 0.84107 0.7238 0.47549 0.0
C2401 C 0.85924 0.73494 0.49262 0.0
C2402 C 0.88316 0.75864 0.49193 0.0
C2403 C 0.88831 0.77107 0.47445 0.0
C2404 C 0.81535 0.69856 0.47554 0.0
C2405 C 0.90314 0.77118 0.5098 0.0
C2406 C 0.83398 0.71619 0.54283 0.0
C2407 C 0.84097 0.69734 0.54678 0.0
C2408 C 0.83976 0.72852 0.5253 0.0
C2409 C 0.85303 0.72202 0.51136 0.0
C2410 C 0.86033 0.70317 0.51532 0.0
C2411 C 0.85417 0.69105 0.53291 0.0
C2412 C 0.83146 0.74837 0.52164 0.0
C2413 C 0.87472 0.69583 0.501 0.0
H2414 H 0.83281 0.7279 0.44512 0.0
H2415 H 0.90625 0.78965 0.47429 0.0
H2416 H 0.81915 0.68284 0.47969 0.0
H2417 H 0.80355 0.7009 0.48673 0.0
H2418 H 0.80347 0.69224 0.46096 0.0
H2419 H 0.92127 0.78902 0.50664 0.0
H2420 H 0.89441 0.77654 0.5219 0.0
H2421 H 0.90871 0.75713 0.51521 0.0
H2422 H 0.82353 0.721 0.55331 0.0
H2423 H 0.86001 0.67681 0.53592 0.0
H2424 H 0.81796 0.74197 0.50786 0.0
H2425 H 0.84892 0.7674 0.51961 0.0
H2426 H 0.82138 0.75133 0.53394 0.0
H2427 H 0.86276 0.6881 0.48649 0.0
H2428 H 0.87911 0.6809 0.50627 0.0
H2429 H 0.89352 0.71341 0.49861 0.0
loop_
_geom_bond_atom_site_label_1
_geom_bond_atom_site_label_2
_geom_bond_distance
_geom_bond_site_symmetry_2
_ccdc_geom_bond_type
H0 C1 0.949 . S
C1 H0 0.949 . S
C1 C2 1.395 . S
C1 C3 1.391 . S
C2 C1 1.395 . S
C2 C5 1.390 . S
C3 C1 1.391 . S
C3 C7 1.387 . S
C3 C8 1.491 . S
H4 C5 0.950 . S
C5 C2 1.390 . S
C5 H4 0.950 . S
C5 C6 1.378 . S
C6 C5 1.378 . S
C6 C7 1.409 . S
C7 C3 1.387 . S
C7 C6 1.409 . S
C7 H9 0.951 . S
C8 C3 1.491 . S
C8 C10 1.382 . S
C8 C12 1.404 . S
H9 C7 0.951 . S
C10 C8 1.382 . S
C10 C11 1.390 . S
C10 H15 0.949 . S
C11 C10 1.390 . S
C11 C16 1.399 . S
C12 C8 1.404 . S
C12 H13 0.950 . S
C12 C14 1.375 . S
H13 C12 0.950 . S
C14 C12 1.375 . S
C14 C16 1.382 . S
C14 H18 0.950 . S
H15 C10 0.949 . S
C16 C11 1.399 . S
C16 C14 1.382 . S
C16 H17 0.952 . S
H17 C16 0.952 . S
H18 C14 0.950 . S
H19 C20 0.949 . S
C20 H19 0.949 . S
C20 C21 1.395 . S
C20 C22 1.391 . S
C21 C20 1.395 . S
C21 C24 1.390 . S
C22 C20 1.391 . S
C22 C26 1.387 . S
C22 C27 1.491 . S
H23 C24 0.950 . S
C24 C21 1.390 . S
C24 H23 0.950 . S
C24 C25 1.378 . S
C25 C24 1.378 . S
C25 C26 1.409 . S
C26 C22 1.387 . S
C26 C25 1.409 . S
C26 H28 0.951 . S
C27 C22 1.491 . S
C27 C29 1.382 . S
C27 C31 1.404 . S
H28 C26 0.951 . S
C29 C27 1.382 . S
C29 C30 1.390 . S
C29 H34 0.949 . S
C30 C29 1.390 . S
C30 C35 1.399 . S
C31 C27 1.404 . S
C31 H32 0.950 . S
C31 C33 1.375 . S
H32 C31 0.950 . S
C33 C31 1.375 . S
C33 C35 1.382 . S
C33 H37 0.950 . S
H34 C29 0.949 . S
C35 C30 1.399 . S
C35 C33 1.382 . S
C35 H36 0.952 . S
H36 C35 0.952 . S
H37 C33 0.950 . S
H38 C39 0.949 . S
C39 H38 0.949 . S
C39 C40 1.395 . S
C39 C41 1.391 . S
C40 C39 1.395 . S
C40 C43 1.390 . S
C41 C39 1.391 . S
C41 C45 1.387 . S
C41 C46 1.491 . S
H42 C43 0.950 . S
C43 C40 1.390 . S
C43 H42 0.950 . S
C43 C44 1.378 . S
C44 C43 1.378 . S
C44 C45 1.409 . S
C45 C41 1.387 . S
C45 C44 1.409 . S
C45 H47 0.951 . S
C46 C41 1.491 . S
C46 C48 1.382 . S
C46 C50 1.404 . S
H47 C45 0.951 . S
C48 C46 1.382 . S
C48 C49 1.390 . S
C48 H53 0.949 . S
C49 C48 1.390 . S
C49 C54 1.399 . S
C50 C46 1.404 . S
C50 H51 0.950 . S
C50 C52 1.375 . S
H51 C50 0.950 . S
C52 C50 1.375 . S
C52 C54 1.382 . S
C52 H56 0.950 . S
H53 C48 0.949 . S
C54 C49 1.399 . S
C54 C52 1.382 . S
C54 H55 0.952 1_655 S
H55 C54 0.952 1_455 S
H56 C52 0.950 . S
H57 C58 0.949 . S
C58 H57 0.949 . S
C58 C59 1.395 . S
C58 C60 1.391 . S
C59 C58 1.395 . S
C59 C62 1.390 . S
C60 C58 1.391 . S
C60 C64 1.387 . S
C60 C65 1.491 . S
H61 C62 0.950 . S
C62 C59 1.390 . S
C62 H61 0.950 . S
C62 C63 1.378 . S
C63 C62 1.378 . S
C63 C64 1.409 . S
C64 C60 1.387 . S
C64 C63 1.409 . S
C64 H66 0.951 . S
C65 C60 1.491 . S
C65 C67 1.382 . S
C65 C69 1.404 . S
H66 C64 0.951 . S
C67 C65 1.382 . S
C67 C68 1.390 . S
C67 H72 0.949 . S
C68 C67 1.390 . S
C68 C73 1.399 . S
C69 C65 1.404 . S
C69 H70 0.950 . S
C69 C71 1.375 . S
H70 C69 0.950 . S
C71 C69 1.375 . S
C71 C73 1.382 . S
C71 H75 0.950 . S
H72 C67 0.949 . S
C73 C68 1.399 . S
C73 C71 1.382 . S
C73 H74 0.952 . S
H74 C73 0.952 . S
H75 C71 0.950 . S
H76 C77 0.949 . S
C77 H76 0.949 . S
C77 C78 1.395 . S
C77 C79 1.391 . S
C78 C77 1.395 . S
C78 C81 1.390 . S
C79 C77 1.391 . S
C79 C83 1.387 . S
C79 C84 1.491 . S
H80 C81 0.950 . S
C81 C78 1.390 . S
C81 H80 0.950 . S
C81 C82 1.378 . S
C82 C81 1.378 . S
C82 C83 1.409 . S
C83 C79 1.387 . S
C83 C82 1.409 . S
C83 H85 0.951 . S
C84 C79 1.491 . S
C84 C86 1.382 . S
C84 C88 1.404 . S
H85 C83 0.951 . S
C86 C84 1.382 . S
C86 C87 1.390 . S
C86 H91 0.949 . S
C87 C86 1.390 . S
C87 C92 1.399 . S
C88 C84 1.404 . S
C88 H89 0.950 . S
C88 C90 1.375 . S
H89 C88 0.950 . S
C90 C88 1.375 . S
C90 C92 1.382 . S
C90 H94 0.950 . S
H91 C86 0.949 . S
C92 C87 1.399 . S
C92 C90 1.382 . S
C92 H93 0.952 . S
H93 C92 0.952 . S
H94 C90 0.950 . S
H95 C96 0.949 . S
C96 H95 0.949 . S
C96 C97 1.395 . S
C96 C98 1.391 . S
C97 C96 1.395 . S
C97 C100 1.390 . S
C98 C96 1.391 . S
C98 C102 1.387 . S
C98 C103 1.491 . S
H99 C100 0.950 . S
C100 C97 1.390 . S
C100 H99 0.950 . S
C100 C101 1.378 . S
C101 C100 1.378 . S
C101 C102 1.409 . S
C102 C98 1.387 . S
C102 C101 1.409 . S
C102 H104 0.951 . S
C103 C98 1.491 . S
C103 C105 1.382 . S
C103 C107 1.404 . S
H104 C102 0.951 . S
C105 C103 1.382 . S
C105 C106 1.390 . S
C105 H110 0.949 . S
C106 C105 1.390 . S
C106 C111 1.399 . S
C107 C103 1.404 . S
C107 H108 0.950 . S
C107 C109 1.375 . S
H108 C107 0.950 . S
C109 C107 1.375 . S
C109 C111 1.382 . S
C109 H113 0.950 . S
H110 C105 0.949 . S
C111 C106 1.399 . S
C111 C109 1.382 . S
C111 H112 0.952 . S
H112 C111 0.952 . S
H113 C109 0.950 . S
H114 C115 0.949 . S
C115 H114 0.949 . S
C115 C116 1.395 . S
C115 C117 1.391 . S
C116 C115 1.395 . S
C116 C119 1.390 . S
C117 C115 1.391 . S
C117 C121 1.387 . S
C117 C122 1.491 . S
H118 C119 0.950 . S
C119 C116 1.390 . S
C119 H118 0.950 . S
C119 C120 1.378 . S
C120 C119 1.378 . S
C120 C121 1.409 . S
C121 C117 1.387 . S
C121 C120 1.409 . S
C121 H123 0.951 . S
C122 C117 1.491 . S
C122 C124 1.382 . S
C122 C126 1.404 . S
H123 C121 0.951 . S
C124 C122 1.382 . S
C124 C125 1.390 . S
C124 H129 0.949 . S
C125 C124 1.390 . S
C125 C130 1.399 . S
C126 C122 1.404 . S
C126 H127 0.950 . S
C126 C128 1.375 . S
H127 C126 0.950 . S
C128 C126 1.375 . S
C128 C130 1.382 . S
C128 H132 0.950 . S
H129 C124 0.949 . S
C130 C125 1.399 . S
C130 C128 1.382 . S
C130 H131 0.952 . S
H131 C130 0.952 . S
H132 C128 0.950 . S
H133 C134 0.949 . S
C134 H133 0.949 . S
C134 C135 1.395 . S
C134 C136 1.391 . S
C135 C134 1.395 . S
C135 C138 1.390 . S
C136 C134 1.391 . S
C136 C140 1.387 . S
C136 C141 1.491 . S
H137 C138 0.950 . S
C138 C135 1.390 . S
C138 H137 0.950 . S
C138 C139 1.378 . S
C139 C138 1.378 . S
C139 C140 1.409 . S
C140 C136 1.387 . S
C140 C139 1.409 . S
C140 H142 0.951 . S
C141 C136 1.491 . S
C141 C143 1.382 . S
C141 C145 1.404 . S
H142 C140 0.951 . S
C143 C141 1.382 . S
C143 C144 1.390 . S
C143 H148 0.949 . S
C144 C143 1.390 . S
C144 C149 1.399 . S
C145 C141 1.404 . S
C145 H146 0.950 . S
C145 C147 1.375 . S
H146 C145 0.950 . S
C147 C145 1.375 . S
C147 C149 1.382 . S
C147 H151 0.950 . S
H148 C143 0.949 . S
C149 C144 1.399 . S
C149 C147 1.382 . S
C149 H150 0.952 . S
H150 C149 0.952 . S
H151 C147 0.950 . S
H152 C153 0.949 . S
C153 H152 0.949 . S
C153 C154 1.395 . S
C153 C155 1.391 . S
C154 C153 1.395 . S
C154 C157 1.390 . S
C155 C153 1.391 . S
C155 C159 1.387 . S
C155 C160 1.491 . S
H156 C157 0.950 . S
C157 C154 1.390 . S
C157 H156 0.950 . S
C157 C158 1.378 . S
C158 C157 1.378 . S
C158 C159 1.409 . S
C159 C155 1.387 . S
C159 C158 1.409 . S
C159 H161 0.951 . S
C160 C155 1.491 . S
C160 C162 1.382 . S
C160 C164 1.404 . S
H161 C159 0.951 . S
C162 C160 1.382 . S
C162 C163 1.390 . S
C162 H167 0.949 . S
C163 C162 1.390 . S
C163 C168 1.399 . S
C164 C160 1.404 . S
C164 H165 0.950 . S
C164 C166 1.375 . S
H165 C164 0.950 . S
C166 C164 1.375 . S
C166 C168 1.382 . S
C166 H170 0.950 . S
H167 C162 0.949 . S
C168 C163 1.399 . S
C168 C166 1.382 . S
C168 H169 0.952 . S
H169 C168 0.952 . S
H170 C166 0.950 . S
H171 C172 0.949 . S
C172 H171 0.949 . S
C172 C173 1.395 . S
C172 C174 1.391 . S
C173 C172 1.395 . S
C173 C176 1.390 . S
C174 C172 1.391 . S
C174 C178 1.387 . S
C174 C179 1.491 . S
H175 C176 0.950 . S
C176 C173 1.390 . S
C176 H175 0.950 . S
C176 C177 1.378 . S
C177 C176 1.378 . S
C177 C178 1.409 . S
C178 C174 1.387 . S
C178 C177 1.409 . S
C178 H180 0.951 . S
C179 C174 1.491 . S
C179 C181 1.382 . S
C179 C183 1.404 . S
H180 C178 0.951 . S
C181 C179 1.382 . S
C181 C182 1.390 . S
C181 H186 0.949 . S
C182 C181 1.390 . S
C182 C187 1.399 . S
C183 C179 1.404 . S
C183 H184 0.950 . S
C183 C185 1.375 . S
H184 C183 0.950 . S
C185 C183 1.375 . S
C185 C187 1.382 . S
C185 H189 0.950 . S
H186 C181 0.949 . S
C187 C182 1.399 . S
C187 C185 1.382 . S
C187 H188 0.952 . S
H188 C187 0.952 . S
H189 C185 0.950 . S
H190 C191 0.949 . S
C191 H190 0.949 . S
C191 C192 1.395 . S
C191 C193 1.391 . S
C192 C191 1.395 . S
C192 C195 1.390 . S
C193 C191 1.391 . S
C193 C197 1.387 . S
C193 C198 1.491 . S
H194 C195 0.950 . S
C195 C192 1.390 . S
C195 H194 0.950 . S
C195 C196 1.378 . S
C196 C195 1.378 . S
C196 C197 1.409 . S
C197 C193 1.387 . S
C197 C196 1.409 . S
C197 H199 0.951 1_556 S
C198 C193 1.491 . S
C198 C200 1.382 . S
C198 C202 1.404 1_556 S
H199 C197 0.951 1_554 S
C200 C198 1.382 . S
C200 C201 1.390 1_556 S
C200 H205 0.949 . S
C201 C200 1.390 1_554 S
C201 C206 1.399 . S
C202 C198 1.404 1_554 S
C202 H203 0.950 . S
C202 C204 1.375 . S
H203 C202 0.950 . S
C204 C202 1.375 . S
C204 C206 1.382 . S
C204 H208 0.950 . S
H205 C200 0.949 . S
C206 C201 1.399 . S
C206 C204 1.382 . S
C206 H207 0.952 . S
H207 C206 0.952 . S
H208 C204 0.950 . S
H209 C210 0.949 . S
C210 H209 0.949 . S
C210 C211 1.395 . S
C210 C212 1.391 . S
C211 C210 1.395 . S
C211 C214 1.390 . S
C212 C210 1.391 . S
C212 C216 1.387 . S
C212 C217 1.491 . S
H213 C214 0.950 . S
C214 C211 1.390 . S
C214 H213 0.950 . S
C214 C215 1.378 . S
C215 C214 1.378 . S
C215 C216 1.409 . S
C216 C212 1.387 . S
C216 C215 1.409 . S
C216 H218 0.951 . S
C217 C212 1.491 . S
C217 C219 1.382 . S
C217 C221 1.404 . S
H218 C216 0.951 . S
C219 C217 1.382 . S
C219 C220 1.390 . S
C219 H224 0.949 . S
C220 C219 1.390 . S
C220 C225 1.399 . S
C221 C217 1.404 . S
C221 H222 0.950 . S
C221 C223 1.375 . S
H222 C221 0.950 . S
C223 C221 1.375 . S
C223 C225 1.382 . S
C223 H227 0.950 . S
H224 C219 0.949 . S
C225 C220 1.399 . S
C225 C223 1.382 . S
C225 H226 0.952 . S
H226 C225 0.952 . S
H227 C223 0.950 . S
H228 C229 0.949 . S
C229 H228 0.949 . S
C229 C230 1.395 . S
C229 C231 1.391 . S
C230 C229 1.395 . S
C230 C233 1.390 . S
C231 C229 1.391 . S
C231 C235 1.387 . S
C231 C236 1.491 . S
H232 C233 0.950 . S
C233 C230 1.390 . S
C233 H232 0.950 . S
C233 C234 1.378 . S
C234 C233 1.378 . S
C234 C235 1.409 . S
C235 C231 1.387 . S
C235 C234 1.409 . S
C235 H237 0.951 . S
C236 C231 1.491 . S
C236 C238 1.382 . S
C236 C240 1.404 . S
H237 C235 0.951 . S
C238 C236 1.382 . S
C238 C239 1.390 . S
C238 H243 0.949 . S
C239 C238 1.390 . S
C239 C244 1.399 . S
C240 C236 1.404 . S
C240 H241 0.950 . S
C240 C242 1.387 . S
H241 C240 0.950 . S
C242 C240 1.387 . S
C242 C244 1.383 . S
C242 H246 0.937 1_554 S
H243 C238 0.949 . S
C244 C239 1.399 . S
C244 C242 1.383 . S
C244 H245 0.952 1_554 S
H245 C244 0.952 1_556 S
H246 C242 0.937 1_556 S
H247 C248 0.949 . S
C248 H247 0.949 . S
C248 C249 1.395 . S
C248 C250 1.391 . S
C249 C248 1.395 . S
C249 C252 1.390 . S
C250 C248 1.391 . S
C250 C254 1.387 . S
C250 C255 1.491 . S
H251 C252 0.950 . S
C252 C249 1.390 . S
C252 H251 0.950 . S
C252 C253 1.378 . S
C253 C252 1.378 . S
C253 C254 1.409 . S
C254 C250 1.387 . S
C254 C253 1.409 . S
C254 H256 0.951 . S
C255 C250 1.491 . S
C255 C257 1.382 . S
C255 C259 1.404 . S
H256 C254 0.951 . S
C257 C255 1.382 . S
C257 C258 1.390 . S
C257 H262 0.949 . S
C258 C257 1.390 . S
C258 C263 1.399 . S
C259 C255 1.404 . S
C259 H260 0.950 . S
C259 C261 1.375 . S
H260 C259 0.950 . S
C261 C259 1.375 . S
C261 C263 1.382 . S
C261 H265 0.950 . S
H262 C257 0.949 . S
C263 C258 1.399 . S
C263 C261 1.382 . S
C263 H264 0.952 . S
H264 C263 0.952 . S
H265 C261 0.950 . S
H266 C267 0.949 . S
C267 H266 0.949 . S
C267 C268 1.395 . S
C267 C269 1.391 . S
C268 C267 1.395 . S
C268 C271 1.390 . S
C269 C267 1.391 . S
C269 C273 1.387 . S
C269 C274 1.491 . S
H270 C271 0.950 . S
C271 C268 1.390 . S
C271 H270 0.950 . S
C271 C272 1.378 . S
C272 C271 1.378 . S
C272 C273 1.409 . S
C273 C269 1.387 . S
C273 C272 1.409 . S
C273 H275 0.951 . S
C274 C269 1.491 . S
C274 C276 1.382 . S
C274 C278 1.404 . S
H275 C273 0.951 . S
C276 C274 1.382 . S
C276 C277 1.390 . S
C276 H281 0.949 . S
C277 C276 1.390 . S
C277 C282 1.399 . S
C278 C274 1.404 . S
C278 H279 0.950 . S
C278 C280 1.375 . S
H279 C278 0.950 . S
C280 C278 1.375 . S
C280 C282 1.382 . S
C280 H284 0.950 . S
H281 C276 0.949 . S
C282 C277 1.399 . S
C282 C280 1.382 . S
C282 H283 0.952 . S
H283 C282 0.952 . S
H284 C280 0.950 . S
H285 C286 0.949 . S
C286 H285 0.949 . S
C286 C287 1.395 . S
C286 C288 1.391 . S
C287 C286 1.395 . S
C287 C290 1.390 . S
C288 C286 1.391 . S
C288 C292 1.387 . S
C288 C293 1.491 . S
H289 C290 0.950 . S
C290 C287 1.390 . S
C290 H289 0.950 . S
C290 C291 1.378 . S
C291 C290 1.378 . S
C291 C292 1.409 . S
C292 C288 1.387 . S
C292 C291 1.409 . S
C292 H294 0.951 . S
C293 C288 1.491 . S
C293 C295 1.382 . S
C293 C297 1.404 . S
H294 C292 0.951 . S
C295 C293 1.382 . S
C295 C296 1.390 . S
C295 H300 0.949 . S
C296 C295 1.390 . S
C296 C301 1.399 . S
C297 C293 1.404 . S
C297 H298 0.950 . S
C297 C299 1.375 . S
H298 C297 0.950 . S
C299 C297 1.375 . S
C299 C301 1.382 . S
C299 H303 0.950 . S
H300 C295 0.949 . S
C301 C296 1.399 . S
C301 C299 1.382 . S
C301 H302 0.952 . S
H302 C301 0.952 . S
H303 C299 0.950 . S
H304 C305 0.949 . S
C305 H304 0.949 . S
C305 C306 1.395 . S
C305 C307 1.391 . S
C306 C305 1.395 . S
C306 C309 1.390 . S
C307 C305 1.391 . S
C307 C311 1.387 . S
C307 C312 1.491 . S
H308 C309 0.950 . S
C309 C306 1.390 . S
C309 H308 0.950 . S
C309 C310 1.378 . S
C310 C309 1.378 . S
C310 C311 1.409 . S
C311 C307 1.387 . S
C311 C310 1.409 . S
C311 H313 0.951 . S
C312 C307 1.491 . S
C312 C314 1.382 . S
C312 C316 1.404 . S
H313 C311 0.951 . S
C314 C312 1.382 . S
C314 C315 1.390 . S
C314 H319 0.949 . S
C315 C314 1.390 . S
C315 C320 1.399 . S
C316 C312 1.404 . S
C316 H317 0.950 . S
C316 C318 1.375 . S
H317 C316 0.950 . S
C318 C316 1.375 . S
C318 C320 1.382 . S
C318 H322 0.950 . S
H319 C314 0.949 . S
C320 C315 1.399 . S
C320 C318 1.382 . S
C320 H321 0.952 . S
H321 C320 0.952 . S
H322 C318 0.950 . S
H323 C324 0.949 . S
C324 H323 0.949 . S
C324 C325 1.395 . S
C324 C326 1.391 . S
C325 C324 1.395 . S
C325 C328 1.390 . S
C326 C324 1.391 . S
C326 C330 1.387 . S
C326 C331 1.491 . S
H327 C328 0.950 . S
C328 C325 1.390 . S
C328 H327 0.950 . S
C328 C329 1.378 . S
C329 C328 1.378 . S
C329 C330 1.409 . S
C330 C326 1.387 . S
C330 C329 1.409 . S
C330 H332 0.951 . S
C331 C326 1.491 . S
C331 C333 1.382 . S
C331 C335 1.404 . S
H332 C330 0.951 . S
C333 C331 1.382 . S
C333 C334 1.390 . S
C333 H338 0.949 . S
C334 C333 1.390 . S
C334 C339 1.399 . S
C335 C331 1.404 . S
C335 H336 0.950 . S
C335 C337 1.375 . S
H336 C335 0.950 . S
C337 C335 1.375 . S
C337 C339 1.382 . S
C337 H341 0.950 . S
H338 C333 0.949 . S
C339 C334 1.399 . S
C339 C337 1.382 . S
C339 H340 0.952 . S
H340 C339 0.952 . S
H341 C337 0.950 . S
Tb342 C352 2.825 1_565 S
Tb342 O353 2.347 1_565 S
Tb342 O356 2.366 1_565 S
Tb342 O361 2.418 . S
Tb342 O362 2.384 . S
Tb342 O365 2.479 . S
Tb342 O366 2.471 1_565 S
Eu343 O354 2.418 . S
Eu343 O355 2.384 . S
Eu343 O358 2.479 . S
Eu343 O359 2.471 1_545 S
Eu343 O360 2.347 1_545 S
Eu343 O363 2.366 1_545 S
Eu343 C373 2.812 1_545 S
C344 O360 1.278 . S
C344 O361 1.228 1_554 S
C345 O362 1.255 1_554 S
C345 O363 1.265 . S
C346 C348 1.380 . S
C346 C349 1.374 . S
C346 C352 1.507 . S
C347 C348 1.384 . S
C347 C351 1.387 . S
C347 H374 0.930 . S
C348 C346 1.380 . S
C348 C347 1.384 . S
C348 H375 0.931 1_545 S
C349 C346 1.374 . S
C349 C350 1.390 . S
C349 H376 0.930 . S
C350 C349 1.390 . S
C350 C351 1.391 . S
C350 H377 0.930 . S
C351 C347 1.387 . S
C351 C350 1.391 . S
C352 Tb342 2.825 1_545 S
C352 C346 1.507 . S
C352 O365 1.238 1_545 S
C352 O366 1.247 . S
O353 Tb342 2.347 1_545 S
O353 C357 1.259 1_556 S
O354 Eu343 2.418 . S
O354 C357 1.265 . S
O355 Eu343 2.384 . S
O355 C364 1.255 1_554 S
O356 Tb342 2.366 1_545 S
O356 C364 1.265 . S
C357 O353 1.259 1_554 S
C357 O354 1.265 . S
O358 Eu343 2.479 . S
O358 C373 1.190 1_545 S
O359 Eu343 2.471 1_565 S
O359 C373 1.282 . S
O360 Eu343 2.347 1_565 S
O360 C344 1.278 . S
O361 Tb342 2.418 . S
O361 C344 1.228 1_556 S
O362 Tb342 2.384 . S
O362 C345 1.255 1_556 S
O363 Eu343 2.366 1_565 S
O363 C345 1.265 . S
C364 O355 1.255 1_556 S
C364 O356 1.265 . S
O365 Tb342 2.479 . S
O365 C352 1.238 1_565 S
O366 Tb342 2.471 1_545 S
O366 C352 1.247 . S
C367 C370 1.380 1_565 S
C367 C371 1.374 . S
C367 C373 1.521 . S
C368 C369 1.387 . S
C368 C372 1.391 . S
C369 C368 1.387 . S
C369 C370 1.384 1_565 S
C369 H378 0.930 1_565 S
C370 C367 1.380 1_545 S
C370 C369 1.384 1_545 S
C370 H379 0.931 . S
C371 C367 1.374 . S
C371 C372 1.390 . S
C371 H380 0.930 . S
C372 C368 1.391 . S
C372 C371 1.390 . S
C372 H381 0.930 . S
C373 Eu343 2.812 1_565 S
C373 O358 1.190 1_565 S
C373 O359 1.282 . S
C373 C367 1.521 . S
H374 C347 0.930 . S
H375 C348 0.931 1_565 S
H376 C349 0.930 . S
H377 C350 0.930 . S
H378 C369 0.930 1_545 S
H379 C370 0.931 . S
H380 C371 0.930 . S
H381 C372 0.930 . S
Tb382 C392 2.825 1_455 S
Tb382 O393 2.347 1_455 S
Tb382 O396 2.366 1_455 S
Tb382 O401 2.418 . S
Tb382 O402 2.344 1_556 S
Tb382 O405 2.479 . S
Tb382 O406 2.471 1_455 S
Eu383 O394 2.418 . S
Eu383 O395 2.384 . S
Eu383 O398 2.479 . S
Eu383 O399 2.471 1_655 S
Eu383 O400 2.347 1_655 S
Eu383 O403 2.366 1_655 S
Eu383 C413 2.825 1_655 S
C384 O400 1.259 . S
C384 O401 1.265 1_554 S
C385 O402 1.313 . S
C385 O403 1.265 . S
C386 C388 1.380 . S
C386 C389 1.374 . S
C386 C392 1.507 . S
C387 C388 1.384 . S
C387 C391 1.387 . S
C387 H414 0.930 . S
C388 C386 1.380 . S
C388 C387 1.384 . S
C388 H415 0.931 1_655 S
C389 C386 1.374 . S
C389 C390 1.390 . S
C389 H416 0.930 . S
C390 C389 1.390 . S
C390 C391 1.391 . S
C390 H417 0.930 . S
C391 C387 1.387 . S
C391 C390 1.391 . S
C392 Tb382 2.825 1_655 S
C392 C386 1.507 . S
C392 O405 1.238 1_655 S
C392 O406 1.247 . S
O393 Tb382 2.347 1_655 S
O393 C397 1.230 1_556 S
O394 Eu383 2.418 . S
O394 C397 1.319 . S
O395 Eu383 2.384 . S
O395 C404 1.255 1_554 S
O396 Tb382 2.366 1_655 S
O396 C404 1.265 . S
C397 O393 1.230 1_554 S
C397 O394 1.319 . S
O398 Eu383 2.479 . S
O398 C413 1.238 1_655 S
O399 Eu383 2.471 1_455 S
O399 C413 1.247 . S
O400 Eu383 2.347 1_455 S
O400 C384 1.259 . S
O401 Tb382 2.418 . S
O401 C384 1.265 1_556 S
O402 Tb382 2.344 1_554 S
O402 C385 1.313 . S
O403 Eu383 2.366 1_455 S
O403 C385 1.265 . S
C404 O395 1.255 1_556 S
C404 O396 1.265 . S
O405 Tb382 2.479 . S
O405 C392 1.238 1_455 S
O406 Tb382 2.471 1_655 S
O406 C392 1.247 . S
C407 C410 1.380 . S
C407 C411 1.374 . S
C407 C413 1.507 . S
C408 C409 1.387 . S
C408 C412 1.391 . S
C409 C408 1.387 . S
C409 C410 1.384 . S
C409 H418 0.930 . S
C410 C407 1.380 . S
C410 C409 1.384 . S
C410 H419 0.931 1_455 S
C411 C407 1.374 . S
C411 C412 1.390 . S
C411 H420 0.930 . S
C412 C408 1.391 . S
C412 C411 1.390 . S
C412 H421 0.930 . S
C413 Eu383 2.825 1_455 S
C413 O398 1.238 1_455 S
C413 O399 1.247 . S
C413 C407 1.507 . S
H414 C387 0.930 . S
H415 C388 0.931 1_455 S
H416 C389 0.930 . S
H417 C390 0.930 . S
H418 C409 0.930 . S
H419 C410 0.931 1_655 S
H420 C411 0.930 . S
H421 C412 0.930 . S
Tb422 C432 2.825 . S
Tb422 O433 2.347 . S
Tb422 O436 2.366 . S
Tb422 O441 2.418 . S
Tb422 O442 2.384 . S
Tb422 O445 2.479 . S
Tb422 O446 2.471 . S
Eu423 O434 2.418 . S
Eu423 O435 2.384 1_556 S
Eu423 O438 2.479 . S
Eu423 O439 2.471 . S
Eu423 O440 2.347 1_556 S
Eu423 O443 2.366 . S
Eu423 C453 2.825 . S
C424 O440 1.259 . S
C424 O441 1.265 . S
C425 O442 1.255 1_556 S
C425 O443 1.265 . S
C426 C428 1.380 . S
C426 C429 1.374 . S
C426 C432 1.507 . S
C427 C428 1.384 . S
C427 C431 1.387 . S
C427 H454 0.930 . S
C428 C426 1.380 . S
C428 C427 1.384 . S
C428 H455 0.931 . S
C429 C426 1.374 . S
C429 C430 1.390 . S
C429 H456 0.930 . S
C430 C429 1.390 . S
C430 C431 1.391 . S
C430 H457 0.930 . S
C431 C427 1.387 . S
C431 C430 1.391 . S
C432 Tb422 2.825 . S
C432 C426 1.507 . S
C432 O445 1.238 . S
C432 O446 1.247 . S
O433 Tb422 2.347 . S
O433 C437 1.259 . S
O434 Eu423 2.418 . S
O434 C437 1.265 1_556 S
O435 Eu423 2.384 1_554 S
O435 C444 1.255 . S
O436 Tb422 2.366 . S
O436 C444 1.265 . S
C437 O433 1.259 . S
C437 O434 1.265 1_554 S
O438 Eu423 2.479 . S
O438 C453 1.238 . S
O439 Eu423 2.471 . S
O439 C453 1.247 . S
O440 Eu423 2.347 1_554 S
O440 C424 1.259 . S
O441 Tb422 2.418 . S
O441 C424 1.265 . S
O442 Tb422 2.384 . S
O442 C425 1.255 1_554 S
O443 Eu423 2.366 . S
O443 C425 1.265 . S
C444 O435 1.255 . S
C444 O436 1.265 . S
O445 Tb422 2.479 . S
O445 C432 1.238 . S
O446 Tb422 2.471 . S
O446 C432 1.247 . S
C447 C450 1.380 . S
C447 C451 1.374 . S
C447 C453 1.507 . S
C448 C449 1.387 . S
C448 C452 1.391 . S
C449 C448 1.387 . S
C449 C450 1.384 . S
C449 H458 0.930 . S
C450 C447 1.380 . S
C450 C449 1.384 . S
C450 H459 0.931 . S
C451 C447 1.374 . S
C451 C452 1.390 . S
C451 H460 0.930 . S
C452 C448 1.391 . S
C452 C451 1.390 . S
C452 H461 0.930 . S
C453 Eu423 2.825 . S
C453 O438 1.238 . S
C453 O439 1.247 . S
C453 C447 1.507 . S
H454 C427 0.930 . S
H455 C428 0.931 . S
H456 C429 0.930 . S
H457 C430 0.930 . S
H458 C449 0.930 . S
H459 C450 0.931 . S
H460 C451 0.930 . S
H461 C452 0.930 . S
Tb462 C472 2.825 . S
Tb462 O473 2.347 . S
Tb462 O476 2.366 . S
Tb462 O481 2.418 . S
Tb462 O482 2.384 . S
Tb462 O485 2.479 . S
Tb462 O486 2.471 . S
Eu463 O474 2.418 . S
Eu463 O475 2.384 . S
Eu463 O478 2.479 . S
Eu463 O479 2.471 . S
Eu463 O480 2.347 . S
Eu463 O483 2.366 . S
Eu463 C493 2.825 . S
C464 O480 1.259 . S
C464 O481 1.265 . S
C465 O482 1.255 . S
C465 O483 1.265 . S
C466 C468 1.380 . S
C466 C469 1.374 . S
C466 C472 1.507 . S
C467 C468 1.384 . S
C467 C471 1.387 . S
C467 H494 0.930 . S
C468 C466 1.380 . S
C468 C467 1.384 . S
C468 H495 0.931 . S
C469 C466 1.374 . S
C469 C470 1.390 . S
C469 H496 0.930 . S
C470 C469 1.390 . S
C470 C471 1.391 . S
C470 H497 0.930 . S
C471 C467 1.387 . S
C471 C470 1.391 . S
C472 Tb462 2.825 . S
C472 C466 1.507 . S
C472 O485 1.238 . S
C472 O486 1.247 . S
O473 Tb462 2.347 . S
O473 C477 1.259 . S
O474 Eu463 2.418 . S
O474 C477 1.265 . S
O475 Eu463 2.384 . S
O475 C484 1.255 . S
O476 Tb462 2.366 . S
O476 C484 1.265 . S
C477 O473 1.259 . S
C477 O474 1.265 . S
O478 Eu463 2.479 . S
O478 C493 1.238 . S
O479 Eu463 2.471 . S
O479 C493 1.247 . S
O480 Eu463 2.347 . S
O480 C464 1.259 . S
O481 Tb462 2.418 . S
O481 C464 1.265 . S
O482 Tb462 2.384 . S
O482 C465 1.255 . S
O483 Eu463 2.366 . S
O483 C465 1.265 . S
C484 O475 1.255 . S
C484 O476 1.265 . S
O485 Tb462 2.479 . S
O485 C472 1.238 . S
O486 Tb462 2.471 . S
O486 C472 1.247 . S
C487 C490 1.380 . S
C487 C491 1.374 . S
C487 C493 1.507 . S
C488 C489 1.387 . S
C488 C492 1.391 . S
C489 C488 1.387 . S
C489 C490 1.384 . S
C489 H498 0.930 . S
C490 C487 1.380 . S
C490 C489 1.384 . S
C490 H499 0.931 . S
C491 C487 1.374 . S
C491 C492 1.390 . S
C491 H500 0.930 . S
C492 C488 1.391 . S
C492 C491 1.390 . S
C492 H501 0.930 . S
C493 Eu463 2.825 . S
C493 O478 1.238 . S
C493 O479 1.247 . S
C493 C487 1.507 . S
H494 C467 0.930 . S
H495 C468 0.931 . S
H496 C469 0.930 . S
H497 C470 0.930 . S
H498 C489 0.930 . S
H499 C490 0.931 . S
H500 C491 0.930 . S
H501 C492 0.930 . S
Tb502 C512 2.825 . S
Tb502 O513 2.347 . S
Tb502 O516 2.366 . S
Tb502 O521 2.418 . S
Tb502 O522 2.384 . S
Tb502 O525 2.479 . S
Tb502 O526 2.471 . S
Eu503 O514 2.418 . S
Eu503 O515 2.384 . S
Eu503 O518 2.479 . S
Eu503 O519 2.471 . S
Eu503 O520 2.347 . S
Eu503 O523 2.366 . S
Eu503 C533 2.825 . S
C504 O520 1.259 . S
C504 O521 1.265 . S
C505 O522 1.255 . S
C505 O523 1.265 . S
C506 C508 1.380 . S
C506 C509 1.374 . S
C506 C512 1.507 . S
C507 C508 1.384 . S
C507 C511 1.387 . S
C507 H534 0.930 . S
C508 C506 1.380 . S
C508 C507 1.384 . S
C508 H535 0.931 . S
C509 C506 1.374 . S
C509 C510 1.390 . S
C509 H536 0.930 . S
C510 C509 1.390 . S
C510 C511 1.391 . S
C510 H537 0.930 . S
C511 C507 1.387 . S
C511 C510 1.391 . S
C512 Tb502 2.825 . S
C512 C506 1.507 . S
C512 O525 1.238 . S
C512 O526 1.247 . S
O513 Tb502 2.347 . S
O513 C517 1.259 . S
O514 Eu503 2.418 . S
O514 C517 1.265 . S
O515 Eu503 2.384 . S
O515 C524 1.255 . S
O516 Tb502 2.366 . S
O516 C524 1.265 . S
C517 O513 1.259 . S
C517 O514 1.265 . S
O518 Eu503 2.479 . S
O518 C533 1.238 . S
O519 Eu503 2.471 . S
O519 C533 1.247 . S
O520 Eu503 2.347 . S
O520 C504 1.259 . S
O521 Tb502 2.418 . S
O521 C504 1.265 . S
O522 Tb502 2.384 . S
O522 C505 1.255 . S
O523 Eu503 2.366 . S
O523 C505 1.265 . S
C524 O515 1.255 . S
C524 O516 1.265 . S
O525 Tb502 2.479 . S
O525 C512 1.238 . S
O526 Tb502 2.471 . S
O526 C512 1.247 . S
C527 C530 1.380 . S
C527 C531 1.374 . S
C527 C533 1.507 . S
C528 C529 1.387 . S
C528 C532 1.391 . S
C529 C528 1.387 . S
C529 C530 1.384 . S
C529 H538 0.930 . S
C530 C527 1.380 . S
C530 C529 1.384 . S
C530 H539 0.931 . S
C531 C527 1.374 . S
C531 C532 1.390 . S
C531 H540 0.930 . S
C532 C528 1.391 . S
C532 C531 1.390 . S
C532 H541 0.930 . S
C533 Eu503 2.825 . S
C533 O518 1.238 . S
C533 O519 1.247 . S
C533 C527 1.507 . S
H534 C507 0.930 . S
H535 C508 0.931 . S
H536 C509 0.930 . S
H537 C510 0.930 . S
H538 C529 0.930 . S
H539 C530 0.931 . S
H540 C531 0.930 . S
H541 C532 0.930 . S
Tb542 C552 2.825 . S
Tb542 O553 2.347 . S
Tb542 O556 2.366 . S
Tb542 O561 2.418 . S
Tb542 O562 2.384 . S
Tb542 O565 2.479 . S
Tb542 O566 2.471 . S
Eu543 O554 2.418 . S
Eu543 O555 2.384 . S
Eu543 O558 2.479 . S
Eu543 O559 2.471 . S
Eu543 O560 2.347 . S
Eu543 O563 2.366 . S
Eu543 C573 2.825 . S
C544 O560 1.259 . S
C544 O561 1.265 . S
C545 O562 1.255 . S
C545 O563 1.265 . S
C546 C548 1.380 . S
C546 C549 1.374 . S
C546 C552 1.507 . S
C547 C548 1.384 . S
C547 C551 1.387 . S
C547 H574 0.930 . S
C548 C546 1.380 . S
C548 C547 1.384 . S
C548 H575 0.931 . S
C549 C546 1.374 . S
C549 C550 1.390 . S
C549 H576 0.930 . S
C550 C549 1.390 . S
C550 C551 1.391 . S
C550 H577 0.930 . S
C551 C547 1.387 . S
C551 C550 1.391 . S
C552 Tb542 2.825 . S
C552 C546 1.507 . S
C552 O565 1.238 . S
C552 O566 1.247 . S
O553 Tb542 2.347 . S
O553 C557 1.259 . S
O554 Eu543 2.418 . S
O554 C557 1.265 . S
O555 Eu543 2.384 . S
O555 C564 1.255 . S
O556 Tb542 2.366 . S
O556 C564 1.265 . S
C557 O553 1.259 . S
C557 O554 1.265 . S
O558 Eu543 2.479 . S
O558 C573 1.238 . S
O559 Eu543 2.471 . S
O559 C573 1.247 . S
O560 Eu543 2.347 . S
O560 C544 1.259 . S
O561 Tb542 2.418 . S
O561 C544 1.265 . S
O562 Tb542 2.384 . S
O562 C545 1.255 . S
O563 Eu543 2.366 . S
O563 C545 1.265 . S
C564 O555 1.255 . S
C564 O556 1.265 . S
O565 Tb542 2.479 . S
O565 C552 1.238 . S
O566 Tb542 2.471 . S
O566 C552 1.247 . S
C567 C570 1.380 . S
C567 C571 1.374 . S
C567 C573 1.507 . S
C568 C569 1.387 . S
C568 C572 1.391 . S
C569 C568 1.387 . S
C569 C570 1.384 . S
C569 H578 0.930 . S
C570 C567 1.380 . S
C570 C569 1.384 . S
C570 H579 0.931 . S
C571 C567 1.374 . S
C571 C572 1.390 . S
C571 H580 0.930 . S
C572 C568 1.391 . S
C572 C571 1.390 . S
C572 H581 0.930 . S
C573 Eu543 2.825 . S
C573 O558 1.238 . S
C573 O559 1.247 . S
C573 C567 1.507 . S
H574 C547 0.930 . S
H575 C548 0.931 . S
H576 C549 0.930 . S
H577 C550 0.930 . S
H578 C569 0.930 . S
H579 C570 0.931 . S
H580 C571 0.930 . S
H581 C572 0.930 . S
Tb582 C592 2.825 . S
Tb582 O593 2.347 . S
Tb582 O596 2.366 . S
Tb582 O601 2.418 . S
Tb582 O602 2.384 . S
Tb582 O605 2.479 . S
Tb582 O606 2.471 . S
Eu583 O594 2.418 . S
Eu583 O595 2.384 . S
Eu583 O598 2.479 . S
Eu583 O599 2.471 . S
Eu583 O600 2.347 . S
Eu583 O603 2.366 . S
Eu583 C613 2.825 . S
C584 O600 1.259 . S
C584 O601 1.265 . S
C585 O602 1.255 . S
C585 O603 1.265 . S
C586 C588 1.380 . S
C586 C589 1.374 . S
C586 C592 1.507 . S
C587 C588 1.384 . S
C587 C591 1.387 . S
C587 H614 0.930 . S
C588 C586 1.380 . S
C588 C587 1.384 . S
C588 H615 0.931 . S
C589 C586 1.374 . S
C589 C590 1.390 . S
C589 H616 0.930 . S
C590 C589 1.390 . S
C590 C591 1.391 . S
C590 H617 0.930 . S
C591 C587 1.387 . S
C591 C590 1.391 . S
C592 Tb582 2.825 . S
C592 C586 1.507 . S
C592 O605 1.238 . S
C592 O606 1.247 . S
O593 Tb582 2.347 . S
O593 C597 1.259 . S
O594 Eu583 2.418 . S
O594 C597 1.265 . S
O595 Eu583 2.384 . S
O595 C604 1.255 . S
O596 Tb582 2.366 . S
O596 C604 1.265 . S
C597 O593 1.259 . S
C597 O594 1.265 . S
O598 Eu583 2.479 . S
O598 C613 1.238 . S
O599 Eu583 2.471 . S
O599 C613 1.247 . S
O600 Eu583 2.347 . S
O600 C584 1.259 . S
O601 Tb582 2.418 . S
O601 C584 1.265 . S
O602 Tb582 2.384 . S
O602 C585 1.255 . S
O603 Eu583 2.366 . S
O603 C585 1.265 . S
C604 O595 1.255 . S
C604 O596 1.265 . S
O605 Tb582 2.479 . S
O605 C592 1.238 . S
O606 Tb582 2.471 . S
O606 C592 1.247 . S
C607 C610 1.380 . S
C607 C611 1.374 . S
C607 C613 1.507 . S
C608 C609 1.387 . S
C608 C612 1.391 . S
C609 C608 1.387 . S
C609 C610 1.384 . S
C609 H618 0.930 . S
C610 C607 1.380 . S
C610 C609 1.384 . S
C610 H619 0.931 . S
C611 C607 1.374 . S
C611 C612 1.390 . S
C611 H620 0.930 . S
C612 C608 1.391 . S
C612 C611 1.390 . S
C612 H621 0.930 . S
C613 Eu583 2.825 . S
C613 O598 1.238 . S
C613 O599 1.247 . S
C613 C607 1.507 . S
H614 C587 0.930 . S
H615 C588 0.931 . S
H616 C589 0.930 . S
H617 C590 0.930 . S
H618 C609 0.930 . S
H619 C610 0.931 . S
H620 C611 0.930 . S
H621 C612 0.930 . S
Tb622 C632 2.825 . S
Tb622 O633 2.347 . S
Tb622 O636 2.366 . S
Tb622 O641 2.418 . S
Tb622 O642 2.384 . S
Tb622 O645 2.479 . S
Tb622 O646 2.471 . S
Eu623 O634 2.418 . S
Eu623 O635 2.384 . S
Eu623 O638 2.479 . S
Eu623 O639 2.471 . S
Eu623 O640 2.347 . S
Eu623 O643 2.366 . S
Eu623 C653 2.825 . S
C624 O640 1.259 . S
C624 O641 1.265 . S
C625 O642 1.255 . S
C625 O643 1.265 . S
C626 C628 1.380 . S
C626 C629 1.374 . S
C626 C632 1.507 . S
C627 C628 1.384 . S
C627 C631 1.387 . S
C627 H654 0.930 . S
C628 C626 1.380 . S
C628 C627 1.384 . S
C628 H655 0.931 . S
C629 C626 1.374 . S
C629 C630 1.390 . S
C629 H656 0.930 . S
C630 C629 1.390 . S
C630 C631 1.391 . S
C630 H657 0.930 . S
C631 C627 1.387 . S
C631 C630 1.391 . S
C632 Tb622 2.825 . S
C632 C626 1.507 . S
C632 O645 1.238 . S
C632 O646 1.247 . S
O633 Tb622 2.347 . S
O633 C637 1.259 . S
O634 Eu623 2.418 . S
O634 C637 1.265 . S
O635 Eu623 2.384 . S
O635 C644 1.255 . S
O636 Tb622 2.366 . S
O636 C644 1.265 . S
C637 O633 1.259 . S
C637 O634 1.265 . S
O638 Eu623 2.479 . S
O638 C653 1.238 . S
O639 Eu623 2.471 . S
O639 C653 1.247 . S
O640 Eu623 2.347 . S
O640 C624 1.259 . S
O641 Tb622 2.418 . S
O641 C624 1.265 . S
O642 Tb622 2.384 . S
O642 C625 1.255 . S
O643 Eu623 2.366 . S
O643 C625 1.265 . S
C644 O635 1.255 . S
C644 O636 1.265 . S
O645 Tb622 2.479 . S
O645 C632 1.238 . S
O646 Tb622 2.471 . S
O646 C632 1.247 . S
C647 C650 1.380 . S
C647 C651 1.374 . S
C647 C653 1.507 . S
C648 C649 1.387 . S
C648 C652 1.391 . S
C649 C648 1.387 . S
C649 C650 1.384 . S
C649 H658 0.930 . S
C650 C647 1.380 . S
C650 C649 1.384 . S
C650 H659 0.931 . S
C651 C647 1.374 . S
C651 C652 1.390 . S
C651 H660 0.930 . S
C652 C648 1.391 . S
C652 C651 1.390 . S
C652 H661 0.930 . S
C653 Eu623 2.825 . S
C653 O638 1.238 . S
C653 O639 1.247 . S
C653 C647 1.507 . S
H654 C627 0.930 . S
H655 C628 0.931 . S
H656 C629 0.930 . S
H657 C630 0.930 . S
H658 C649 0.930 . S
H659 C650 0.931 . S
H660 C651 0.930 . S
H661 C652 0.930 . S
Tb662 C672 2.825 . S
Tb662 O673 2.347 . S
Tb662 O676 2.366 . S
Tb662 O681 2.418 . S
Tb662 O682 2.384 . S
Tb662 O685 2.479 . S
Tb662 O686 2.471 . S
Eu663 O674 2.418 . S
Eu663 O675 2.384 . S
Eu663 O678 2.479 . S
Eu663 O679 2.471 . S
Eu663 O680 2.347 . S
Eu663 O683 2.366 . S
Eu663 C693 2.825 . S
C664 O680 1.259 . S
C664 O681 1.265 . S
C665 O682 1.255 . S
C665 O683 1.265 . S
C666 C668 1.380 . S
C666 C669 1.374 . S
C666 C672 1.507 . S
C667 C668 1.384 . S
C667 C671 1.387 . S
C667 H694 0.930 . S
C668 C666 1.380 . S
C668 C667 1.384 . S
C668 H695 0.931 . S
C669 C666 1.374 . S
C669 C670 1.390 . S
C669 H696 0.930 . S
C670 C669 1.390 . S
C670 C671 1.391 . S
C670 H697 0.930 . S
C671 C667 1.387 . S
C671 C670 1.391 . S
C672 Tb662 2.825 . S
C672 C666 1.507 . S
C672 O685 1.238 . S
C672 O686 1.247 . S
O673 Tb662 2.347 . S
O673 C677 1.259 . S
O674 Eu663 2.418 . S
O674 C677 1.265 . S
O675 Eu663 2.384 . S
O675 C684 1.255 . S
O676 Tb662 2.366 . S
O676 C684 1.265 . S
C677 O673 1.259 . S
C677 O674 1.265 . S
O678 Eu663 2.479 . S
O678 C693 1.238 . S
O679 Eu663 2.471 . S
O679 C693 1.247 . S
O680 Eu663 2.347 . S
O680 C664 1.259 . S
O681 Tb662 2.418 . S
O681 C664 1.265 . S
O682 Tb662 2.384 . S
O682 C665 1.255 . S
O683 Eu663 2.366 . S
O683 C665 1.265 . S
C684 O675 1.255 . S
C684 O676 1.265 . S
O685 Tb662 2.479 . S
O685 C672 1.238 . S
O686 Tb662 2.471 . S
O686 C672 1.247 . S
C687 C690 1.380 . S
C687 C691 1.374 . S
C687 C693 1.507 . S
C688 C689 1.387 . S
C688 C692 1.391 . S
C689 C688 1.387 . S
C689 C690 1.384 . S
C689 H698 0.930 . S
C690 C687 1.380 . S
C690 C689 1.384 . S
C690 H699 0.931 . S
C691 C687 1.374 . S
C691 C692 1.390 . S
C691 H700 0.930 . S
C692 C688 1.391 . S
C692 C691 1.390 . S
C692 H701 0.930 . S
C693 Eu663 2.825 . S
C693 O678 1.238 . S
C693 O679 1.247 . S
C693 C687 1.507 . S
H694 C667 0.930 . S
H695 C668 0.931 . S
H696 C669 0.930 . S
H697 C670 0.930 . S
H698 C689 0.930 . S
H699 C690 0.931 . S
H700 C691 0.930 . S
H701 C692 0.930 . S
C702 C703 1.391 . S
C702 C704 1.394 . S
C702 H718 0.931 . S
C703 C702 1.391 . S
C703 C707 1.376 . S
C704 C702 1.394 . S
C704 C705 1.369 . S
C704 C708 1.531 1_554 S
C705 C704 1.369 . S
C705 C706 1.410 . S
C705 C713 1.503 . S
C706 C705 1.410 . S
C706 C707 1.392 . S
C706 C709 1.511 . S
C707 C703 1.376 . S
C707 C706 1.392 . S
C707 H719 0.929 . S
C708 C704 1.531 1_556 S
C708 H720 0.960 . S
C708 H721 0.962 . S
C708 H722 0.960 . S
C709 C706 1.511 . S
C709 H723 0.961 . S
C709 H724 0.961 . S
C709 H725 0.961 . S
C710 C711 1.370 . S
C710 C712 1.363 . S
C710 H726 0.931 . S
C711 C710 1.370 . S
C711 C715 1.408 . S
C712 C710 1.363 . S
C712 C713 1.370 . S
C712 C716 1.524 . S
C713 C705 1.503 . S
C713 C712 1.370 . S
C713 C714 1.403 . S
C714 C713 1.403 . S
C714 C715 1.404 . S
C714 C717 1.539 . S
C715 C711 1.408 . S
C715 C714 1.404 . S
C715 H727 0.930 . S
C716 C712 1.524 . S
C716 H728 0.956 . S
C716 H729 0.961 . S
C716 H730 0.961 . S
C717 C714 1.539 . S
C717 H731 0.958 1_554 S
C717 H732 0.961 . S
C717 H733 0.960 . S
H718 C702 0.931 . S
H719 C707 0.929 . S
H720 C708 0.960 . S
H721 C708 0.962 . S
H722 C708 0.960 . S
H723 C709 0.961 . S
H724 C709 0.961 . S
H725 C709 0.961 . S
H726 C710 0.931 . S
H727 C715 0.930 . S
H728 C716 0.956 . S
H729 C716 0.961 . S
H730 C716 0.961 . S
H731 C717 0.958 1_556 S
H732 C717 0.961 . S
H733 C717 0.960 . S
C734 C735 1.391 . S
C734 C736 1.394 . S
C734 H750 0.931 . S
C735 C734 1.391 . S
C735 C739 1.376 . S
C736 C734 1.394 . S
C736 C737 1.369 . S
C736 C740 1.531 . S
C737 C736 1.369 . S
C737 C738 1.410 . S
C737 C745 1.503 . S
C738 C737 1.410 . S
C738 C739 1.392 . S
C738 C741 1.511 . S
C739 C735 1.376 . S
C739 C738 1.392 . S
C739 H751 0.929 . S
C740 C736 1.531 . S
C740 H752 0.960 . S
C740 H753 0.962 . S
C740 H754 0.960 . S
C741 C738 1.511 . S
C741 H755 0.961 . S
C741 H756 0.961 . S
C741 H757 0.961 . S
C742 C743 1.370 . S
C742 C744 1.363 . S
C742 H758 0.931 . S
C743 C742 1.370 . S
C743 C747 1.408 . S
C744 C742 1.363 . S
C744 C745 1.370 . S
C744 C748 1.524 . S
C745 C737 1.503 . S
C745 C744 1.370 . S
C745 C746 1.403 . S
C746 C745 1.403 . S
C746 C747 1.404 . S
C746 C749 1.557 . S
C747 C743 1.408 . S
C747 C746 1.404 . S
C747 H759 0.930 1_554 S
C748 C744 1.524 . S
C748 H760 0.956 . S
C748 H761 0.961 . S
C748 H762 0.961 . S
C749 C746 1.557 . S
C749 H763 0.947 1_554 S
C749 H764 0.946 1_554 S
C749 H765 0.968 . S
H750 C734 0.931 . S
H751 C739 0.929 . S
H752 C740 0.960 . S
H753 C740 0.962 . S
H754 C740 0.960 . S
H755 C741 0.961 . S
H756 C741 0.961 . S
H757 C741 0.961 . S
H758 C742 0.931 . S
H759 C747 0.930 1_556 S
H760 C748 0.956 . S
H761 C748 0.961 . S
H762 C748 0.961 . S
H763 C749 0.947 1_556 S
H764 C749 0.946 1_556 S
H765 C749 0.968 . S
C766 C767 1.391 . S
C766 C768 1.394 . S
C766 H782 0.931 1_554 S
C767 C766 1.391 . S
C767 C771 1.376 . S
C768 C766 1.394 . S
C768 C769 1.369 . S
C768 C772 1.531 1_554 S
C769 C768 1.369 . S
C769 C770 1.410 . S
C769 C777 1.503 . S
C770 C769 1.410 . S
C770 C771 1.392 . S
C770 C773 1.511 . S
C771 C767 1.376 . S
C771 C770 1.392 . S
C771 H783 0.929 . S
C772 C768 1.531 1_556 S
C772 H784 0.960 . S
C772 H785 0.962 . S
C772 H786 0.960 . S
C773 C770 1.511 . S
C773 H787 0.961 . S
C773 H788 0.961 . S
C773 H789 0.961 . S
C774 C775 1.370 . S
C774 C776 1.363 . S
C774 H790 0.931 . S
C775 C774 1.370 . S
C775 C779 1.408 . S
C776 C774 1.363 . S
C776 C777 1.370 . S
C776 C780 1.524 . S
C777 C769 1.503 . S
C777 C776 1.370 . S
C777 C778 1.403 . S
C778 C777 1.403 . S
C778 C779 1.404 . S
C778 C781 1.539 . S
C779 C775 1.408 . S
C779 C778 1.404 . S
C779 H791 0.930 . S
C780 C776 1.524 . S
C780 H792 0.956 . S
C780 H793 0.961 . S
C780 H794 0.961 . S
C781 C778 1.539 . S
C781 H795 0.958 . S
C781 H796 0.961 . S
C781 H797 0.960 . S
H782 C766 0.931 1_556 S
H783 C771 0.929 . S
H784 C772 0.960 . S
H785 C772 0.962 . S
H786 C772 0.960 . S
H787 C773 0.961 . S
H788 C773 0.961 . S
H789 C773 0.961 . S
H790 C774 0.931 . S
H791 C779 0.930 . S
H792 C780 0.956 . S
H793 C780 0.961 . S
H794 C780 0.961 . S
H795 C781 0.958 . S
H796 C781 0.961 . S
H797 C781 0.960 . S
C798 C799 1.391 . S
C798 C800 1.394 . S
C798 H814 0.931 . S
C799 C798 1.391 . S
C799 C803 1.376 . S
C800 C798 1.394 . S
C800 C801 1.369 . S
C800 C804 1.531 . S
C801 C800 1.369 . S
C801 C802 1.410 . S
C801 C809 1.503 . S
C802 C801 1.410 . S
C802 C803 1.392 . S
C802 C805 1.511 . S
C803 C799 1.376 . S
C803 C802 1.392 . S
C803 H815 0.929 . S
C804 C800 1.531 . S
C804 H816 0.960 . S
C804 H817 0.962 . S
C804 H818 0.960 . S
C805 C802 1.511 . S
C805 H819 0.961 . S
C805 H820 0.961 . S
C805 H821 0.961 . S
C806 C807 1.370 1_554 S
C806 C808 1.367 . S
C806 H822 0.931 . S
C807 C806 1.370 1_556 S
C807 C811 1.408 . S
C808 C806 1.367 . S
C808 C809 1.349 1_554 S
C808 C812 1.543 . S
C809 C801 1.503 . S
C809 C808 1.349 1_556 S
C809 C810 1.403 . S
C810 C809 1.403 . S
C810 C811 1.404 . S
C810 C813 1.539 . S
C811 C807 1.408 . S
C811 C810 1.404 . S
C811 H823 0.930 . S
C812 C808 1.543 . S
C812 H824 0.956 . S
C812 H825 0.961 . S
C812 H826 0.961 . S
C813 C810 1.539 . S
C813 H827 0.958 . S
C813 H828 0.961 . S
C813 H829 0.960 . S
H814 C798 0.931 . S
H815 C803 0.929 . S
H816 C804 0.960 . S
H817 C804 0.962 . S
H818 C804 0.960 . S
H819 C805 0.961 . S
H820 C805 0.961 . S
H821 C805 0.961 . S
H822 C806 0.931 . S
H823 C811 0.930 . S
H824 C812 0.956 . S
H825 C812 0.961 . S
H826 C812 0.961 . S
H827 C813 0.958 . S
H828 C813 0.961 . S
H829 C813 0.960 . S
C830 C831 1.391 . S
C830 C832 1.394 . S
C830 H846 0.931 . S
C831 C830 1.391 . S
C831 C835 1.376 . S
C832 C830 1.394 . S
C832 C833 1.369 . S
C832 C836 1.531 . S
C833 C832 1.369 . S
C833 C834 1.410 . S
C833 C841 1.503 . S
C834 C833 1.410 . S
C834 C835 1.392 . S
C834 C837 1.511 1_556 S
C835 C831 1.376 . S
C835 C834 1.392 . S
C835 H847 0.929 . S
C836 C832 1.531 . S
C836 H848 0.960 . S
C836 H849 0.962 . S
C836 H850 0.960 . S
C837 C834 1.511 1_554 S
C837 H851 0.961 . S
C837 H852 0.961 . S
C837 H853 0.961 . S
C838 C839 1.370 . S
C838 C840 1.363 . S
C838 H854 0.931 . S
C839 C838 1.370 . S
C839 C843 1.408 . S
C840 C838 1.363 . S
C840 C841 1.370 . S
C840 C844 1.524 . S
C841 C833 1.503 . S
C841 C840 1.370 . S
C841 C842 1.403 . S
C842 C841 1.403 . S
C842 C843 1.404 . S
C842 C845 1.539 . S
C843 C839 1.408 . S
C843 C842 1.404 . S
C843 H855 0.930 . S
C844 C840 1.524 . S
C844 H856 0.956 . S
C844 H857 0.961 . S
C844 H858 0.961 . S
C845 C842 1.539 . S
C845 H859 0.958 . S
C845 H860 0.961 . S
C845 H861 0.960 . S
H846 C830 0.931 . S
H847 C835 0.929 . S
H848 C836 0.960 . S
H849 C836 0.962 . S
H850 C836 0.960 . S
H851 C837 0.961 . S
H852 C837 0.961 . S
H853 C837 0.961 . S
H854 C838 0.931 . S
H855 C843 0.930 . S
H856 C844 0.956 . S
H857 C844 0.961 . S
H858 C844 0.961 . S
H859 C845 0.958 . S
H860 C845 0.961 . S
H861 C845 0.960 . S
C862 C863 1.391 . S
C862 C864 1.394 . S
C862 H878 0.931 . S
C863 C862 1.391 . S
C863 C867 1.376 . S
C864 C862 1.394 . S
C864 C865 1.369 . S
C864 C868 1.531 . S
C865 C864 1.369 . S
C865 C866 1.410 . S
C865 C873 1.503 . S
C866 C865 1.410 . S
C866 C867 1.392 . S
C866 C869 1.511 1_556 S
C867 C863 1.376 . S
C867 C866 1.392 . S
C867 H879 0.929 . S
C868 C864 1.531 . S
C868 H880 0.960 . S
C868 H881 0.962 . S
C868 H882 0.960 . S
C869 C866 1.511 1_554 S
C869 H883 0.967 . S
C869 H884 0.971 . S
C869 H885 0.961 . S
C870 C871 1.365 . S
C870 C872 1.363 . S
C870 H886 0.931 . S
C871 C870 1.365 . S
C871 C875 1.412 1_556 S
C872 C870 1.363 . S
C872 C873 1.370 . S
C872 C876 1.524 . S
C873 C865 1.503 . S
C873 C872 1.370 . S
C873 C874 1.403 1_556 S
C874 C873 1.403 1_554 S
C874 C875 1.404 . S
C874 C877 1.539 . S
C875 C871 1.412 1_554 S
C875 C874 1.404 . S
C875 H887 0.930 . S
C876 C872 1.524 . S
C876 H888 0.956 . S
C876 H889 0.961 . S
C876 H890 0.961 . S
C877 C874 1.539 . S
C877 H891 0.958 . S
C877 H892 0.961 . S
C877 H893 0.960 . S
H878 C862 0.931 . S
H879 C867 0.929 . S
H880 C868 0.960 . S
H881 C868 0.962 . S
H882 C868 0.960 . S
H883 C869 0.967 . S
H884 C869 0.971 . S
H885 C869 0.961 . S
H886 C870 0.931 . S
H887 C875 0.930 . S
H888 C876 0.956 . S
H889 C876 0.961 . S
H890 C876 0.961 . S
H891 C877 0.958 . S
H892 C877 0.961 . S
H893 C877 0.960 . S
C894 C895 1.391 . S
C894 C896 1.394 . S
C894 H910 0.931 . S
C895 C894 1.391 . S
C895 C899 1.376 . S
C896 C894 1.394 . S
C896 C897 1.369 . S
C896 C900 1.531 . S
C897 C896 1.369 . S
C897 C898 1.410 . S
C897 C905 1.503 . S
C898 C897 1.410 . S
C898 C899 1.392 . S
C898 C901 1.511 1_556 S
C899 C895 1.376 . S
C899 C898 1.392 . S
C899 H911 0.929 . S
C900 C896 1.531 . S
C900 H912 0.960 . S
C900 H913 0.962 . S
C900 H914 0.960 . S
C901 C898 1.511 1_554 S
C901 H915 0.961 . S
C901 H916 0.961 . S
C901 H917 0.961 1_554 S
C902 C903 1.353 1_554 S
C902 C904 1.354 1_554 S
C902 H918 0.960 . S
C903 C902 1.353 1_556 S
C903 C907 1.408 . S
C904 C902 1.354 1_556 S
C904 C905 1.370 . S
C904 C908 1.524 1_556 S
C905 C897 1.503 . S
C905 C904 1.370 . S
C905 C906 1.403 . S
C906 C905 1.403 . S
C906 C907 1.404 . S
C906 C909 1.539 . S
C907 C903 1.408 . S
C907 C906 1.404 . S
C907 H919 0.930 . S
C908 C904 1.524 1_554 S
C908 H920 0.956 . S
C908 H921 0.961 . S
C908 H922 0.961 . S
C909 C906 1.539 . S
C909 H923 0.958 . S
C909 H924 0.961 . S
C909 H925 0.960 . S
H910 C894 0.931 . S
H911 C899 0.929 . S
H912 C900 0.960 . S
H913 C900 0.962 . S
H914 C900 0.960 . S
H915 C901 0.961 . S
H916 C901 0.961 . S
H917 C901 0.961 1_556 S
H918 C902 0.960 . S
H919 C907 0.930 . S
H920 C908 0.956 . S
H921 C908 0.961 . S
H922 C908 0.961 . S
H923 C909 0.958 . S
H924 C909 0.961 . S
H925 C909 0.960 . S
C926 C927 1.391 . S
C926 C928 1.394 . S
C926 H942 0.931 . S
C927 C926 1.391 . S
C927 C931 1.376 . S
C928 C926 1.394 . S
C928 C929 1.369 . S
C928 C932 1.531 . S
C929 C928 1.369 . S
C929 C930 1.410 . S
C929 C937 1.503 . S
C930 C929 1.410 . S
C930 C931 1.392 . S
C930 C933 1.511 . S
C931 C927 1.376 . S
C931 C930 1.392 . S
C931 H943 0.929 . S
C932 C928 1.531 . S
C932 H944 0.960 . S
C932 H945 0.962 . S
C932 H946 0.960 . S
C933 C930 1.511 . S
C933 H947 0.961 . S
C933 H948 0.961 . S
C933 H949 0.961 . S
C934 C935 1.370 . S
C934 C936 1.363 . S
C934 H950 0.931 . S
C935 C934 1.370 . S
C935 C939 1.408 . S
C936 C934 1.363 . S
C936 C937 1.370 . S
C936 C940 1.524 . S
C937 C929 1.503 . S
C937 C936 1.370 . S
C937 C938 1.403 . S
C938 C937 1.403 . S
C938 C939 1.404 . S
C938 C941 1.539 1_556 S
C939 C935 1.408 . S
C939 C938 1.404 . S
C939 H951 0.930 1_556 S
C940 C936 1.524 . S
C940 H952 0.956 . S
C940 H953 0.961 . S
C940 H954 0.961 . S
C941 C938 1.539 1_554 S
C941 H955 0.958 . S
C941 H956 0.961 . S
C941 H957 0.960 . S
H942 C926 0.931 . S
H943 C931 0.929 . S
H944 C932 0.960 . S
H945 C932 0.962 . S
H946 C932 0.960 . S
H947 C933 0.961 . S
H948 C933 0.961 . S
H949 C933 0.961 . S
H950 C934 0.931 . S
H951 C939 0.930 1_554 S
H952 C940 0.956 . S
H953 C940 0.961 . S
H954 C940 0.961 . S
H955 C941 0.958 . S
H956 C941 0.961 . S
H957 C941 0.960 . S
C958 C959 1.391 . S
C958 C960 1.394 . S
C958 H974 0.931 . S
C959 C958 1.391 . S
C959 C963 1.376 . S
C960 C958 1.394 . S
C960 C961 1.369 . S
C960 C964 1.531 . S
C961 C960 1.369 . S
C961 C962 1.410 . S
C961 C969 1.504 1_556 S
C962 C961 1.410 . S
C962 C963 1.399 . S
C962 C965 1.511 . S
C963 C959 1.376 . S
C963 C962 1.399 . S
C963 H975 0.927 . S
C964 C960 1.531 . S
C964 H976 0.960 . S
C964 H977 0.962 1_556 S
C964 H978 0.960 . S
C965 C962 1.511 . S
C965 H979 0.961 1_556 S
C965 H980 0.961 1_556 S
C965 H981 0.961 . S
C966 C967 1.370 . S
C966 C968 1.363 . S
C966 H982 0.931 . S
C967 C966 1.370 . S
C967 C971 1.408 1_554 S
C968 C966 1.363 . S
C968 C969 1.380 . S
C968 C972 1.524 . S
C969 C961 1.504 1_554 S
C969 C968 1.380 . S
C969 C970 1.393 1_554 S
C970 C969 1.393 1_556 S
C970 C971 1.404 . S
C970 C973 1.539 . S
C971 C967 1.408 1_556 S
C971 C970 1.404 . S
C971 H983 0.930 . S
C972 C968 1.524 . S
C972 H984 0.956 . S
C972 H985 0.961 . S
C972 H986 0.961 . S
C973 C970 1.539 . S
C973 H987 0.958 . S
C973 H988 0.961 . S
C973 H989 0.960 . S
H974 C958 0.931 . S
H975 C963 0.927 . S
H976 C964 0.960 . S
H977 C964 0.962 1_554 S
H978 C964 0.960 . S
H979 C965 0.961 1_554 S
H980 C965 0.961 1_554 S
H981 C965 0.961 . S
H982 C966 0.931 . S
H983 C971 0.930 . S
H984 C972 0.956 . S
H985 C972 0.961 . S
H986 C972 0.961 . S
H987 C973 0.958 . S
H988 C973 0.961 . S
H989 C973 0.960 . S
C990 C991 1.391 . S
C990 C992 1.394 . S
C990 H1006 0.931 . S
C991 C990 1.391 . S
C991 C995 1.376 . S
C992 C990 1.394 . S
C992 C993 1.369 . S
C992 C996 1.531 1_554 S
C993 C992 1.369 . S
C993 C994 1.410 . S
C993 C1001 1.503 . S
C994 C993 1.410 . S
C994 C995 1.392 . S
C994 C997 1.511 . S
C995 C991 1.376 . S
C995 C994 1.392 . S
C995 H1007 0.929 . S
C996 C992 1.531 1_556 S
C996 H1008 0.960 . S
C996 H1009 0.962 1_556 S
C996 H1010 0.960 . S
C997 C994 1.511 . S
C997 H1011 0.961 . S
C997 H1012 0.961 . S
C997 H1013 0.961 . S
C998 C999 1.370 . S
C998 C1000 1.363 . S
C998 H1014 0.931 . S
C999 C998 1.370 . S
C999 C1003 1.408 1_554 S
C1000 C998 1.363 . S
C1000 C1001 1.370 . S
C1000 C1004 1.524 . S
C1001 C993 1.503 . S
C1001 C1000 1.370 . S
C1001 C1002 1.403 1_554 S
C1002 C1001 1.403 1_556 S
C1002 C1003 1.404 . S
C1002 C1005 1.539 . S
C1003 C999 1.408 1_556 S
C1003 C1002 1.404 . S
C1003 H1015 0.930 . S
C1004 C1000 1.524 . S
C1004 H1016 0.956 . S
C1004 H1017 0.961 . S
C1004 H1018 0.961 . S
C1005 C1002 1.539 . S
C1005 H1019 0.958 . S
C1005 H1020 0.961 . S
C1005 H1021 0.960 . S
H1006 C990 0.931 . S
H1007 C995 0.929 . S
H1008 C996 0.960 . S
H1009 C996 0.962 1_554 S
H1010 C996 0.960 . S
H1011 C997 0.961 . S
H1012 C997 0.961 . S
H1013 C997 0.961 . S
H1014 C998 0.931 . S
H1015 C1003 0.930 . S
H1016 C1004 0.956 . S
H1017 C1004 0.961 . S
H1018 C1004 0.961 . S
H1019 C1005 0.958 . S
H1020 C1005 0.961 . S
H1021 C1005 0.960 . S
C1022 C1023 1.391 . S
C1022 C1024 1.394 . S
C1022 H1038 0.931 . S
C1023 C1022 1.391 . S
C1023 C1027 1.376 . S
C1024 C1022 1.394 . S
C1024 C1025 1.369 . S
C1024 C1028 1.531 . S
C1025 C1024 1.369 . S
C1025 C1026 1.410 . S
C1025 C1033 1.503 . S
C1026 C1025 1.410 . S
C1026 C1027 1.392 . S
C1026 C1029 1.511 . S
C1027 C1023 1.376 . S
C1027 C1026 1.392 . S
C1027 H1039 0.929 . S
C1028 C1024 1.531 . S
C1028 H1040 0.960 . S
C1028 H1041 0.962 . S
C1028 H1042 0.960 . S
C1029 C1026 1.511 . S
C1029 H1043 0.961 . S
C1029 H1044 0.961 . S
C1029 H1045 0.961 . S
C1030 C1031 1.370 . S
C1030 C1032 1.363 . S
C1030 H1046 0.931 . S
C1031 C1030 1.370 . S
C1031 C1035 1.408 . S
C1032 C1030 1.363 . S
C1032 C1033 1.370 . S
C1032 C1036 1.524 . S
C1033 C1025 1.503 . S
C1033 C1032 1.370 . S
C1033 C1034 1.403 . S
C1034 C1033 1.403 . S
C1034 C1035 1.404 . S
C1034 C1037 1.539 . S
C1035 C1031 1.408 . S
C1035 C1034 1.404 . S
C1035 H1047 0.930 . S
C1036 C1032 1.524 . S
C1036 H1048 0.956 . S
C1036 H1049 0.961 . S
C1036 H1050 0.961 1_554 S
C1037 C1034 1.539 . S
C1037 H1051 0.958 . S
C1037 H1052 0.961 . S
C1037 H1053 0.960 . S
H1038 C1022 0.931 . S
H1039 C1027 0.929 . S
H1040 C1028 0.960 . S
H1041 C1028 0.962 . S
H1042 C1028 0.960 . S
H1043 C1029 0.961 . S
H1044 C1029 0.961 . S
H1045 C1029 0.961 . S
H1046 C1030 0.931 . S
H1047 C1035 0.930 . S
H1048 C1036 0.956 . S
H1049 C1036 0.961 . S
H1050 C1036 0.961 1_556 S
H1051 C1037 0.958 . S
H1052 C1037 0.961 . S
H1053 C1037 0.960 . S
C1054 C1055 1.391 . S
C1054 C1056 1.394 . S
C1054 H1070 0.931 . S
C1055 C1054 1.391 . S
C1055 C1059 1.376 . S
C1056 C1054 1.394 . S
C1056 C1057 1.369 . S
C1056 C1060 1.531 1_554 S
C1057 C1056 1.369 . S
C1057 C1058 1.410 . S
C1057 C1065 1.503 . S
C1058 C1057 1.410 . S
C1058 C1059 1.392 . S
C1058 C1061 1.511 . S
C1059 C1055 1.376 . S
C1059 C1058 1.392 . S
C1059 H1071 0.929 . S
C1060 C1056 1.531 1_556 S
C1060 H1072 0.960 . S
C1060 H1073 0.962 1_556 S
C1060 H1074 0.960 . S
C1061 C1058 1.511 . S
C1061 H1075 0.961 . S
C1061 H1076 0.961 . S
C1061 H1077 0.961 . S
C1062 C1063 1.370 . S
C1062 C1064 1.363 . S
C1062 H1078 0.931 . S
C1063 C1062 1.370 . S
C1063 C1067 1.408 1_554 S
C1064 C1062 1.363 . S
C1064 C1065 1.370 . S
C1064 C1068 1.524 . S
C1065 C1057 1.503 . S
C1065 C1064 1.370 . S
C1065 C1066 1.403 1_554 S
C1066 C1065 1.403 1_556 S
C1066 C1067 1.404 . S
C1066 C1069 1.539 . S
C1067 C1063 1.408 1_556 S
C1067 C1066 1.404 . S
C1067 H1079 0.930 . S
C1068 C1064 1.524 . S
C1068 H1080 0.956 . S
C1068 H1081 0.961 . S
C1068 H1082 0.961 . S
C1069 C1066 1.539 . S
C1069 H1083 0.958 . S
C1069 H1084 0.961 . S
C1069 H1085 0.960 . S
H1070 C1054 0.931 . S
H1071 C1059 0.929 . S
H1072 C1060 0.960 . S
H1073 C1060 0.962 1_554 S
H1074 C1060 0.960 . S
H1075 C1061 0.961 . S
H1076 C1061 0.961 . S
H1077 C1061 0.961 . S
H1078 C1062 0.931 . S
H1079 C1067 0.930 . S
H1080 C1068 0.956 . S
H1081 C1068 0.961 . S
H1082 C1068 0.961 . S
H1083 C1069 0.958 . S
H1084 C1069 0.961 . S
H1085 C1069 0.960 . S
C1086 C1087 1.391 . S
C1086 C1088 1.394 . S
C1086 H1102 0.931 . S
C1087 C1086 1.391 . S
C1087 C1091 1.376 . S
C1088 C1086 1.394 . S
C1088 C1089 1.369 . S
C1088 C1092 1.531 . S
C1089 C1088 1.369 . S
C1089 C1090 1.410 . S
C1089 C1097 1.508 . S
C1090 C1089 1.410 . S
C1090 C1091 1.392 . S
C1090 C1093 1.511 . S
C1091 C1087 1.376 . S
C1091 C1090 1.392 . S
C1091 H1103 0.929 . S
C1092 C1088 1.531 . S
C1092 H1104 0.960 . S
C1092 H1105 0.962 . S
C1092 H1106 0.960 . S
C1093 C1090 1.511 . S
C1093 H1107 0.961 . S
C1093 H1108 0.961 . S
C1093 H1109 0.961 . S
C1094 C1095 1.370 . S
C1094 C1096 1.363 . S
C1094 H1110 0.931 . S
C1095 C1094 1.370 . S
C1095 C1099 1.408 . S
C1096 C1094 1.363 . S
C1096 C1097 1.366 1_455 S
C1096 C1100 1.524 . S
C1097 C1089 1.508 . S
C1097 C1096 1.366 1_655 S
C1097 C1098 1.402 1_655 S
C1098 C1097 1.402 1_455 S
C1098 C1099 1.404 . S
C1098 C1101 1.539 1_455 S
C1099 C1095 1.408 . S
C1099 C1098 1.404 . S
C1099 H1111 0.930 . S
C1100 C1096 1.524 . S
C1100 H1112 0.956 . S
C1100 H1113 0.969 . S
C1100 H1114 0.961 . S
C1101 C1098 1.539 1_655 S
C1101 H1115 0.958 . S
C1101 H1116 0.961 . S
C1101 H1117 0.960 . S
H1102 C1086 0.931 . S
H1103 C1091 0.929 . S
H1104 C1092 0.960 . S
H1105 C1092 0.962 . S
H1106 C1092 0.960 . S
H1107 C1093 0.961 . S
H1108 C1093 0.961 . S
H1109 C1093 0.961 . S
H1110 C1094 0.931 . S
H1111 C1099 0.930 . S
H1112 C1100 0.956 . S
H1113 C1100 0.969 . S
H1114 C1100 0.961 . S
H1115 C1101 0.958 . S
H1116 C1101 0.961 . S
H1117 C1101 0.960 . S
C1118 C1119 1.391 . S
C1118 C1120 1.394 . S
C1118 H1134 0.931 . S
C1119 C1118 1.391 . S
C1119 C1123 1.376 . S
C1120 C1118 1.394 . S
C1120 C1121 1.369 . S
C1120 C1124 1.531 . S
C1121 C1120 1.369 . S
C1121 C1122 1.410 . S
C1121 C1129 1.503 . S
C1122 C1121 1.410 . S
C1122 C1123 1.392 . S
C1122 C1125 1.511 . S
C1123 C1119 1.376 . S
C1123 C1122 1.392 . S
C1123 H1135 0.929 . S
C1124 C1120 1.531 . S
C1124 H1136 0.960 . S
C1124 H1137 0.962 . S
C1124 H1138 0.960 . S
C1125 C1122 1.511 . S
C1125 H1139 0.961 . S
C1125 H1140 0.961 . S
C1125 H1141 0.961 . S
C1126 C1127 1.370 . S
C1126 C1128 1.363 . S
C1126 H1142 0.931 . S
C1127 C1126 1.370 . S
C1127 C1131 1.408 . S
C1128 C1126 1.363 . S
C1128 C1129 1.370 . S
C1128 C1132 1.524 . S
C1129 C1121 1.503 . S
C1129 C1128 1.370 . S
C1129 C1130 1.403 . S
C1130 C1129 1.403 . S
C1130 C1131 1.404 . S
C1130 C1133 1.539 . S
C1131 C1127 1.408 . S
C1131 C1130 1.404 . S
C1131 H1143 0.930 . S
C1132 C1128 1.524 . S
C1132 H1144 0.956 . S
C1132 H1145 0.961 . S
C1132 H1146 0.961 . S
C1133 C1130 1.539 . S
C1133 H1147 0.958 . S
C1133 H1148 0.961 . S
C1133 H1149 0.960 . S
H1134 C1118 0.931 . S
H1135 C1123 0.929 . S
H1136 C1124 0.960 . S
H1137 C1124 0.962 . S
H1138 C1124 0.960 . S
H1139 C1125 0.961 . S
H1140 C1125 0.961 . S
H1141 C1125 0.961 . S
H1142 C1126 0.931 . S
H1143 C1131 0.930 . S
H1144 C1132 0.956 . S
H1145 C1132 0.961 . S
H1146 C1132 0.961 . S
H1147 C1133 0.958 . S
H1148 C1133 0.961 . S
H1149 C1133 0.960 . S
C1150 C1151 1.391 . S
C1150 C1152 1.394 . S
C1150 H1166 0.931 . S
C1151 C1150 1.391 . S
C1151 C1155 1.376 . S
C1152 C1150 1.394 . S
C1152 C1153 1.369 . S
C1152 C1156 1.531 . S
C1153 C1152 1.369 . S
C1153 C1154 1.410 . S
C1153 C1161 1.503 . S
C1154 C1153 1.410 . S
C1154 C1155 1.392 . S
C1154 C1157 1.511 . S
C1155 C1151 1.376 . S
C1155 C1154 1.392 . S
C1155 H1167 0.929 . S
C1156 C1152 1.531 . S
C1156 H1168 0.960 . S
C1156 H1169 0.962 . S
C1156 H1170 0.960 . S
C1157 C1154 1.511 . S
C1157 H1171 0.961 . S
C1157 H1172 0.961 . S
C1157 H1173 0.961 . S
C1158 C1159 1.370 . S
C1158 C1160 1.363 1_565 S
C1158 H1174 0.931 . S
C1159 C1158 1.370 . S
C1159 C1163 1.408 . S
C1160 C1158 1.363 1_545 S
C1160 C1161 1.370 . S
C1160 C1164 1.524 . S
C1161 C1153 1.503 . S
C1161 C1160 1.370 . S
C1161 C1162 1.403 1_545 S
C1162 C1161 1.403 1_565 S
C1162 C1163 1.404 . S
C1162 C1165 1.539 . S
C1163 C1159 1.408 . S
C1163 C1162 1.404 . S
C1163 H1175 0.930 . S
C1164 C1160 1.524 . S
C1164 H1176 0.956 . S
C1164 H1177 0.961 . S
C1164 H1178 0.961 . S
C1165 C1162 1.539 . S
C1165 H1179 0.958 . S
C1165 H1180 0.961 . S
C1165 H1181 0.960 1_565 S
H1166 C1150 0.931 . S
H1167 C1155 0.929 . S
H1168 C1156 0.960 . S
H1169 C1156 0.962 . S
H1170 C1156 0.960 . S
H1171 C1157 0.961 . S
H1172 C1157 0.961 . S
H1173 C1157 0.961 . S
H1174 C1158 0.931 . S
H1175 C1163 0.930 . S
H1176 C1164 0.956 . S
H1177 C1164 0.961 . S
H1178 C1164 0.961 . S
H1179 C1165 0.958 . S
H1180 C1165 0.961 . S
H1181 C1165 0.960 1_545 S
C1182 C1183 1.391 . S
C1182 C1184 1.394 . S
C1182 H1198 0.931 . S
C1183 C1182 1.391 . S
C1183 C1187 1.376 . S
C1184 C1182 1.394 . S
C1184 C1185 1.369 . S
C1184 C1188 1.531 . S
C1185 C1184 1.369 . S
C1185 C1186 1.410 . S
C1185 C1193 1.503 . S
C1186 C1185 1.410 . S
C1186 C1187 1.392 . S
C1186 C1189 1.511 . S
C1187 C1183 1.376 . S
C1187 C1186 1.392 . S
C1187 H1199 0.929 . S
C1188 C1184 1.531 . S
C1188 H1200 0.960 . S
C1188 H1201 0.962 . S
C1188 H1202 0.960 . S
C1189 C1186 1.511 . S
C1189 H1203 0.961 . S
C1189 H1204 0.961 . S
C1189 H1205 0.961 . S
C1190 C1191 1.370 . S
C1190 C1192 1.363 . S
C1190 H1206 0.931 . S
C1191 C1190 1.370 . S
C1191 C1195 1.408 . S
C1192 C1190 1.363 . S
C1192 C1193 1.370 . S
C1192 C1196 1.524 . S
C1193 C1185 1.503 . S
C1193 C1192 1.370 . S
C1193 C1194 1.403 . S
C1194 C1193 1.403 . S
C1194 C1195 1.404 . S
C1194 C1197 1.539 . S
C1195 C1191 1.408 . S
C1195 C1194 1.404 . S
C1195 H1207 0.930 . S
C1196 C1192 1.524 . S
C1196 H1208 0.956 . S
C1196 H1209 0.961 . S
C1196 H1210 0.961 . S
C1197 C1194 1.539 . S
C1197 H1211 0.958 . S
C1197 H1212 0.961 . S
C1197 H1213 0.960 . S
H1198 C1182 0.931 . S
H1199 C1187 0.929 . S
H1200 C1188 0.960 . S
H1201 C1188 0.962 . S
H1202 C1188 0.960 . S
H1203 C1189 0.961 . S
H1204 C1189 0.961 . S
H1205 C1189 0.961 . S
H1206 C1190 0.931 . S
H1207 C1195 0.930 . S
H1208 C1196 0.956 . S
H1209 C1196 0.961 . S
H1210 C1196 0.961 . S
H1211 C1197 0.958 . S
H1212 C1197 0.961 . S
H1213 C1197 0.960 . S
C1214 C1215 1.391 . S
C1214 C1216 1.394 . S
C1214 H1230 0.931 . S
C1215 C1214 1.391 . S
C1215 C1219 1.376 . S
C1216 C1214 1.394 . S
C1216 C1217 1.369 . S
C1216 C1220 1.531 . S
C1217 C1216 1.369 . S
C1217 C1218 1.410 . S
C1217 C1225 1.503 . S
C1218 C1217 1.410 . S
C1218 C1219 1.392 . S
C1218 C1221 1.511 . S
C1219 C1215 1.376 . S
C1219 C1218 1.392 . S
C1219 H1231 0.929 . S
C1220 C1216 1.531 . S
C1220 H1232 0.960 . S
C1220 H1233 0.962 . S
C1220 H1234 0.960 . S
C1221 C1218 1.511 . S
C1221 H1235 0.961 . S
C1221 H1236 0.961 . S
C1221 H1237 0.961 . S
C1222 C1223 1.370 . S
C1222 C1224 1.363 . S
C1222 H1238 0.931 . S
C1223 C1222 1.370 . S
C1223 C1227 1.408 . S
C1224 C1222 1.363 . S
C1224 C1225 1.370 . S
C1224 C1228 1.524 . S
C1225 C1217 1.503 . S
C1225 C1224 1.370 . S
C1225 C1226 1.403 . S
C1226 C1225 1.403 . S
C1226 C1227 1.404 . S
C1226 C1229 1.539 . S
C1227 C1223 1.408 . S
C1227 C1226 1.404 . S
C1227 H1239 0.930 . S
C1228 C1224 1.524 . S
C1228 H1240 0.956 . S
C1228 H1241 0.961 . S
C1228 H1242 0.961 . S
C1229 C1226 1.539 . S
C1229 H1243 0.958 . S
C1229 H1244 0.961 . S
C1229 H1245 0.960 . S
H1230 C1214 0.931 . S
H1231 C1219 0.929 . S
H1232 C1220 0.960 . S
H1233 C1220 0.962 . S
H1234 C1220 0.960 . S
H1235 C1221 0.961 . S
H1236 C1221 0.961 . S
H1237 C1221 0.961 . S
H1238 C1222 0.931 . S
H1239 C1227 0.930 . S
H1240 C1228 0.956 . S
H1241 C1228 0.961 . S
H1242 C1228 0.961 . S
H1243 C1229 0.958 . S
H1244 C1229 0.961 . S
H1245 C1229 0.960 . S
C1246 C1247 1.391 . S
C1246 C1248 1.394 . S
C1246 H1262 0.931 . S
C1247 C1246 1.391 . S
C1247 C1251 1.376 . S
C1248 C1246 1.394 . S
C1248 C1249 1.369 . S
C1248 C1252 1.531 . S
C1249 C1248 1.369 . S
C1249 C1250 1.410 . S
C1249 C1257 1.503 . S
C1250 C1249 1.410 . S
C1250 C1251 1.392 . S
C1250 C1253 1.511 . S
C1251 C1247 1.376 . S
C1251 C1250 1.392 . S
C1251 H1263 0.929 . S
C1252 C1248 1.531 . S
C1252 H1264 0.960 . S
C1252 H1265 0.962 . S
C1252 H1266 0.960 . S
C1253 C1250 1.511 . S
C1253 H1267 0.961 . S
C1253 H1268 0.961 . S
C1253 H1269 0.961 . S
C1254 C1255 1.370 . S
C1254 C1256 1.363 . S
C1254 H1270 0.931 . S
C1255 C1254 1.370 . S
C1255 C1259 1.408 . S
C1256 C1254 1.363 . S
C1256 C1257 1.370 . S
C1256 C1260 1.524 . S
C1257 C1249 1.503 . S
C1257 C1256 1.370 . S
C1257 C1258 1.403 . S
C1258 C1257 1.403 . S
C1258 C1259 1.404 . S
C1258 C1261 1.539 . S
C1259 C1255 1.408 . S
C1259 C1258 1.404 . S
C1259 H1271 0.930 . S
C1260 C1256 1.524 . S
C1260 H1272 0.956 . S
C1260 H1273 0.961 . S
C1260 H1274 0.961 . S
C1261 C1258 1.539 . S
C1261 H1275 0.958 . S
C1261 H1276 0.961 . S
C1261 H1277 0.960 . S
H1262 C1246 0.931 . S
H1263 C1251 0.929 . S
H1264 C1252 0.960 . S
H1265 C1252 0.962 . S
H1266 C1252 0.960 . S
H1267 C1253 0.961 . S
H1268 C1253 0.961 . S
H1269 C1253 0.961 . S
H1270 C1254 0.931 . S
H1271 C1259 0.930 . S
H1272 C1260 0.956 . S
H1273 C1260 0.961 . S
H1274 C1260 0.961 . S
H1275 C1261 0.958 . S
H1276 C1261 0.961 . S
H1277 C1261 0.960 . S
C1278 C1279 1.391 . S
C1278 C1280 1.394 . S
C1278 H1294 0.931 . S
C1279 C1278 1.391 . S
C1279 C1283 1.376 . S
C1280 C1278 1.394 . S
C1280 C1281 1.369 . S
C1280 C1284 1.531 . S
C1281 C1280 1.369 . S
C1281 C1282 1.410 . S
C1281 C1289 1.503 . S
C1282 C1281 1.410 . S
C1282 C1283 1.392 . S
C1282 C1285 1.511 . S
C1283 C1279 1.376 . S
C1283 C1282 1.392 . S
C1283 H1295 0.929 . S
C1284 C1280 1.531 . S
C1284 H1296 0.960 . S
C1284 H1297 0.962 . S
C1284 H1298 0.960 . S
C1285 C1282 1.511 . S
C1285 H1299 0.961 . S
C1285 H1300 0.961 . S
C1285 H1301 0.961 . S
C1286 C1287 1.370 . S
C1286 C1288 1.363 . S
C1286 H1302 0.931 . S
C1287 C1286 1.370 . S
C1287 C1291 1.408 . S
C1288 C1286 1.363 . S
C1288 C1289 1.370 . S
C1288 C1292 1.524 . S
C1289 C1281 1.503 . S
C1289 C1288 1.370 . S
C1289 C1290 1.403 . S
C1290 C1289 1.403 . S
C1290 C1291 1.404 . S
C1290 C1293 1.539 . S
C1291 C1287 1.408 . S
C1291 C1290 1.404 . S
C1291 H1303 0.930 . S
C1292 C1288 1.524 . S
C1292 H1304 0.956 . S
C1292 H1305 0.961 . S
C1292 H1306 0.961 . S
C1293 C1290 1.539 . S
C1293 H1307 0.958 . S
C1293 H1308 0.961 . S
C1293 H1309 0.960 . S
H1294 C1278 0.931 . S
H1295 C1283 0.929 . S
H1296 C1284 0.960 . S
H1297 C1284 0.962 . S
H1298 C1284 0.960 . S
H1299 C1285 0.961 . S
H1300 C1285 0.961 . S
H1301 C1285 0.961 . S
H1302 C1286 0.931 . S
H1303 C1291 0.930 . S
H1304 C1292 0.956 . S
H1305 C1292 0.961 . S
H1306 C1292 0.961 . S
H1307 C1293 0.958 . S
H1308 C1293 0.961 . S
H1309 C1293 0.960 . S
C1310 C1311 1.391 . S
C1310 C1312 1.394 . S
C1310 H1326 0.931 . S
C1311 C1310 1.391 . S
C1311 C1315 1.376 . S
C1312 C1310 1.394 . S
C1312 C1313 1.369 . S
C1312 C1316 1.531 . S
C1313 C1312 1.369 . S
C1313 C1314 1.410 . S
C1313 C1321 1.503 . S
C1314 C1313 1.410 . S
C1314 C1315 1.392 . S
C1314 C1317 1.511 . S
C1315 C1311 1.376 . S
C1315 C1314 1.392 . S
C1315 H1327 0.929 . S
C1316 C1312 1.531 . S
C1316 H1328 0.960 . S
C1316 H1329 0.962 . S
C1316 H1330 0.960 . S
C1317 C1314 1.511 . S
C1317 H1331 0.961 . S
C1317 H1332 0.961 . S
C1317 H1333 0.961 . S
C1318 C1319 1.370 . S
C1318 C1320 1.363 . S
C1318 H1334 0.931 . S
C1319 C1318 1.370 . S
C1319 C1323 1.408 . S
C1320 C1318 1.363 . S
C1320 C1321 1.370 . S
C1320 C1324 1.524 . S
C1321 C1313 1.503 . S
C1321 C1320 1.370 . S
C1321 C1322 1.403 . S
C1322 C1321 1.403 . S
C1322 C1323 1.404 . S
C1322 C1325 1.539 . S
C1323 C1319 1.408 . S
C1323 C1322 1.404 . S
C1323 H1335 0.930 . S
C1324 C1320 1.524 . S
C1324 H1336 0.956 . S
C1324 H1337 0.961 . S
C1324 H1338 0.961 . S
C1325 C1322 1.539 . S
C1325 H1339 0.958 . S
C1325 H1340 0.961 . S
C1325 H1341 0.960 . S
H1326 C1310 0.931 . S
H1327 C1315 0.929 . S
H1328 C1316 0.960 . S
H1329 C1316 0.962 . S
H1330 C1316 0.960 . S
H1331 C1317 0.961 . S
H1332 C1317 0.961 . S
H1333 C1317 0.961 . S
H1334 C1318 0.931 . S
H1335 C1323 0.930 . S
H1336 C1324 0.956 . S
H1337 C1324 0.961 . S
H1338 C1324 0.961 . S
H1339 C1325 0.958 . S
H1340 C1325 0.961 . S
H1341 C1325 0.960 . S
C1342 C1343 1.391 . S
C1342 C1344 1.394 . S
C1342 H1358 0.931 . S
C1343 C1342 1.391 . S
C1343 C1347 1.376 . S
C1344 C1342 1.394 . S
C1344 C1345 1.369 . S
C1344 C1348 1.531 . S
C1345 C1344 1.369 . S
C1345 C1346 1.410 . S
C1345 C1353 1.503 . S
C1346 C1345 1.410 . S
C1346 C1347 1.392 . S
C1346 C1349 1.511 . S
C1347 C1343 1.376 . S
C1347 C1346 1.392 . S
C1347 H1359 0.929 . S
C1348 C1344 1.531 . S
C1348 H1360 0.960 . S
C1348 H1361 0.962 . S
C1348 H1362 0.960 . S
C1349 C1346 1.511 . S
C1349 H1363 0.961 . S
C1349 H1364 0.961 . S
C1349 H1365 0.961 . S
C1350 C1351 1.370 . S
C1350 C1352 1.363 . S
C1350 H1366 0.931 . S
C1351 C1350 1.370 . S
C1351 C1355 1.408 . S
C1352 C1350 1.363 . S
C1352 C1353 1.370 . S
C1352 C1356 1.524 . S
C1353 C1345 1.503 . S
C1353 C1352 1.370 . S
C1353 C1354 1.403 . S
C1354 C1353 1.403 . S
C1354 C1355 1.404 . S
C1354 C1357 1.539 . S
C1355 C1351 1.408 . S
C1355 C1354 1.404 . S
C1355 H1367 0.930 . S
C1356 C1352 1.524 . S
C1356 H1368 0.956 . S
C1356 H1369 0.961 . S
C1356 H1370 0.961 . S
C1357 C1354 1.539 . S
C1357 H1371 0.958 . S
C1357 H1372 0.961 . S
C1357 H1373 0.960 . S
H1358 C1342 0.931 . S
H1359 C1347 0.929 . S
H1360 C1348 0.960 . S
H1361 C1348 0.962 . S
H1362 C1348 0.960 . S
H1363 C1349 0.961 . S
H1364 C1349 0.961 . S
H1365 C1349 0.961 . S
H1366 C1350 0.931 . S
H1367 C1355 0.930 . S
H1368 C1356 0.956 . S
H1369 C1356 0.961 . S
H1370 C1356 0.961 . S
H1371 C1357 0.958 . S
H1372 C1357 0.961 . S
H1373 C1357 0.960 . S
C1374 C1375 1.391 1_565 S
C1374 C1376 1.394 . S
C1374 H1390 0.931 1_565 S
C1375 C1374 1.391 1_545 S
C1375 C1379 1.376 1_545 S
C1376 C1374 1.394 . S
C1376 C1377 1.369 . S
C1376 C1380 1.531 . S
C1377 C1376 1.369 . S
C1377 C1378 1.410 . S
C1377 C1385 1.503 . S
C1378 C1377 1.410 . S
C1378 C1379 1.392 . S
C1378 C1381 1.511 . S
C1379 C1375 1.376 1_565 S
C1379 C1378 1.392 . S
C1379 H1391 0.929 1_565 S
C1380 C1376 1.531 . S
C1380 H1392 0.960 . S
C1380 H1393 0.962 . S
C1380 H1394 0.960 . S
C1381 C1378 1.511 . S
C1381 H1395 0.961 . S
C1381 H1396 0.961 . S
C1381 H1397 0.961 . S
C1382 C1383 1.370 . S
C1382 C1384 1.363 . S
C1382 H1398 0.931 . S
C1383 C1382 1.370 . S
C1383 C1387 1.408 . S
C1384 C1382 1.363 . S
C1384 C1385 1.370 . S
C1384 C1388 1.524 . S
C1385 C1377 1.503 . S
C1385 C1384 1.370 . S
C1385 C1386 1.403 . S
C1386 C1385 1.403 . S
C1386 C1387 1.404 . S
C1386 C1389 1.539 . S
C1387 C1383 1.408 . S
C1387 C1386 1.404 . S
C1387 H1399 0.930 . S
C1388 C1384 1.524 . S
C1388 H1400 0.956 . S
C1388 H1401 0.961 . S
C1388 H1402 0.961 . S
C1389 C1386 1.539 . S
C1389 H1403 0.958 . S
C1389 H1404 0.961 . S
C1389 H1405 0.960 . S
H1390 C1374 0.931 1_545 S
H1391 C1379 0.929 1_545 S
H1392 C1380 0.960 . S
H1393 C1380 0.962 . S
H1394 C1380 0.960 . S
H1395 C1381 0.961 . S
H1396 C1381 0.961 . S
H1397 C1381 0.961 . S
H1398 C1382 0.931 . S
H1399 C1387 0.930 . S
H1400 C1388 0.956 . S
H1401 C1388 0.961 . S
H1402 C1388 0.961 . S
H1403 C1389 0.958 . S
H1404 C1389 0.961 . S
H1405 C1389 0.960 . S
C1406 C1407 1.391 . S
C1406 C1408 1.394 . S
C1406 H1422 0.931 . S
C1407 C1406 1.391 . S
C1407 C1411 1.376 . S
C1408 C1406 1.394 . S
C1408 C1409 1.369 . S
C1408 C1412 1.531 . S
C1409 C1408 1.369 . S
C1409 C1410 1.410 . S
C1409 C1417 1.503 . S
C1410 C1409 1.410 . S
C1410 C1411 1.392 . S
C1410 C1413 1.511 . S
C1411 C1407 1.376 . S
C1411 C1410 1.392 . S
C1411 H1423 0.929 . S
C1412 C1408 1.531 . S
C1412 H1424 0.960 . S
C1412 H1425 0.962 . S
C1412 H1426 0.960 . S
C1413 C1410 1.511 . S
C1413 H1427 0.961 . S
C1413 H1428 0.961 . S
C1413 H1429 0.961 . S
C1414 C1415 1.370 . S
C1414 C1416 1.363 . S
C1414 H1430 0.931 . S
C1415 C1414 1.370 . S
C1415 C1419 1.408 . S
C1416 C1414 1.363 . S
C1416 C1417 1.370 . S
C1416 C1420 1.524 . S
C1417 C1409 1.503 . S
C1417 C1416 1.370 . S
C1417 C1418 1.403 . S
C1418 C1417 1.403 . S
C1418 C1419 1.404 . S
C1418 C1421 1.539 . S
C1419 C1415 1.408 . S
C1419 C1418 1.404 . S
C1419 H1431 0.930 . S
C1420 C1416 1.524 . S
C1420 H1432 0.956 . S
C1420 H1433 0.961 . S
C1420 H1434 0.961 . S
C1421 C1418 1.539 . S
C1421 H1435 0.958 . S
C1421 H1436 0.961 . S
C1421 H1437 0.960 . S
H1422 C1406 0.931 . S
H1423 C1411 0.929 . S
H1424 C1412 0.960 . S
H1425 C1412 0.962 . S
H1426 C1412 0.960 . S
H1427 C1413 0.961 . S
H1428 C1413 0.961 . S
H1429 C1413 0.961 . S
H1430 C1414 0.931 . S
H1431 C1419 0.930 . S
H1432 C1420 0.956 . S
H1433 C1420 0.961 . S
H1434 C1420 0.961 . S
H1435 C1421 0.958 . S
H1436 C1421 0.961 . S
H1437 C1421 0.960 . S
C1438 C1439 1.391 . S
C1438 C1440 1.394 . S
C1438 H1454 0.931 . S
C1439 C1438 1.391 . S
C1439 C1443 1.376 . S
C1440 C1438 1.394 . S
C1440 C1441 1.369 . S
C1440 C1444 1.531 . S
C1441 C1440 1.369 . S
C1441 C1442 1.410 . S
C1441 C1449 1.503 . S
C1442 C1441 1.410 . S
C1442 C1443 1.392 . S
C1442 C1445 1.511 . S
C1443 C1439 1.376 . S
C1443 C1442 1.392 . S
C1443 H1455 0.929 . S
C1444 C1440 1.531 . S
C1444 H1456 0.960 . S
C1444 H1457 0.962 . S
C1444 H1458 0.960 . S
C1445 C1442 1.511 . S
C1445 H1459 0.961 . S
C1445 H1460 0.961 . S
C1445 H1461 0.961 . S
C1446 C1447 1.370 . S
C1446 C1448 1.363 . S
C1446 H1462 0.931 . S
C1447 C1446 1.370 . S
C1447 C1451 1.408 . S
C1448 C1446 1.363 . S
C1448 C1449 1.370 . S
C1448 C1452 1.524 . S
C1449 C1441 1.503 . S
C1449 C1448 1.370 . S
C1449 C1450 1.403 . S
C1450 C1449 1.403 . S
C1450 C1451 1.404 . S
C1450 C1453 1.539 . S
C1451 C1447 1.408 . S
C1451 C1450 1.404 . S
C1451 H1463 0.930 . S
C1452 C1448 1.524 . S
C1452 H1464 0.956 . S
C1452 H1465 0.961 . S
C1452 H1466 0.961 . S
C1453 C1450 1.539 . S
C1453 H1467 0.958 . S
C1453 H1468 0.961 . S
C1453 H1469 0.960 . S
H1454 C1438 0.931 . S
H1455 C1443 0.929 . S
H1456 C1444 0.960 . S
H1457 C1444 0.962 . S
H1458 C1444 0.960 . S
H1459 C1445 0.961 . S
H1460 C1445 0.961 . S
H1461 C1445 0.961 . S
H1462 C1446 0.931 . S
H1463 C1451 0.930 . S
H1464 C1452 0.956 . S
H1465 C1452 0.961 . S
H1466 C1452 0.961 . S
H1467 C1453 0.958 . S
H1468 C1453 0.961 . S
H1469 C1453 0.960 . S
C1470 C1471 1.391 . S
C1470 C1472 1.394 . S
C1470 H1486 0.931 . S
C1471 C1470 1.391 . S
C1471 C1475 1.376 . S
C1472 C1470 1.394 . S
C1472 C1473 1.369 . S
C1472 C1476 1.531 . S
C1473 C1472 1.369 . S
C1473 C1474 1.410 . S
C1473 C1481 1.503 . S
C1474 C1473 1.410 . S
C1474 C1475 1.392 . S
C1474 C1477 1.511 . S
C1475 C1471 1.376 . S
C1475 C1474 1.392 . S
C1475 H1487 0.929 . S
C1476 C1472 1.531 . S
C1476 H1488 0.960 . S
C1476 H1489 0.962 . S
C1476 H1490 0.960 . S
C1477 C1474 1.511 . S
C1477 H1491 0.961 . S
C1477 H1492 0.961 . S
C1477 H1493 0.961 . S
C1478 C1479 1.370 . S
C1478 C1480 1.363 . S
C1478 H1494 0.931 . S
C1479 C1478 1.370 . S
C1479 C1483 1.408 . S
C1480 C1478 1.363 . S
C1480 C1481 1.370 . S
C1480 C1484 1.524 . S
C1481 C1473 1.503 . S
C1481 C1480 1.370 . S
C1481 C1482 1.403 . S
C1482 C1481 1.403 . S
C1482 C1483 1.404 . S
C1482 C1485 1.539 . S
C1483 C1479 1.408 . S
C1483 C1482 1.404 . S
C1483 H1495 0.930 . S
C1484 C1480 1.524 . S
C1484 H1496 0.956 . S
C1484 H1497 0.961 . S
C1484 H1498 0.961 . S
C1485 C1482 1.539 . S
C1485 H1499 0.958 . S
C1485 H1500 0.961 . S
C1485 H1501 0.960 . S
H1486 C1470 0.931 . S
H1487 C1475 0.929 . S
H1488 C1476 0.960 . S
H1489 C1476 0.962 . S
H1490 C1476 0.960 . S
H1491 C1477 0.961 . S
H1492 C1477 0.961 . S
H1493 C1477 0.961 . S
H1494 C1478 0.931 . S
H1495 C1483 0.930 . S
H1496 C1484 0.956 . S
H1497 C1484 0.961 . S
H1498 C1484 0.961 . S
H1499 C1485 0.958 . S
H1500 C1485 0.961 . S
H1501 C1485 0.960 . S
C1502 C1503 1.391 . S
C1502 C1504 1.394 . S
C1502 H1518 0.931 . S
C1503 C1502 1.391 . S
C1503 C1507 1.376 . S
C1504 C1502 1.394 . S
C1504 C1505 1.369 . S
C1504 C1508 1.531 . S
C1505 C1504 1.369 . S
C1505 C1506 1.410 . S
C1505 C1513 1.503 . S
C1506 C1505 1.410 . S
C1506 C1507 1.392 . S
C1506 C1509 1.511 . S
C1507 C1503 1.376 . S
C1507 C1506 1.392 . S
C1507 H1519 0.929 . S
C1508 C1504 1.531 . S
C1508 H1520 0.960 . S
C1508 H1521 0.962 . S
C1508 H1522 0.960 . S
C1509 C1506 1.511 . S
C1509 H1523 0.961 . S
C1509 H1524 0.961 . S
C1509 H1525 0.961 . S
C1510 C1511 1.370 . S
C1510 C1512 1.363 . S
C1510 H1526 0.931 . S
C1511 C1510 1.370 . S
C1511 C1515 1.408 . S
C1512 C1510 1.363 . S
C1512 C1513 1.370 . S
C1512 C1516 1.524 . S
C1513 C1505 1.503 . S
C1513 C1512 1.370 . S
C1513 C1514 1.403 . S
C1514 C1513 1.403 . S
C1514 C1515 1.404 . S
C1514 C1517 1.539 . S
C1515 C1511 1.408 . S
C1515 C1514 1.404 . S
C1515 H1527 0.930 . S
C1516 C1512 1.524 . S
C1516 H1528 0.956 . S
C1516 H1529 0.961 . S
C1516 H1530 0.961 . S
C1517 C1514 1.539 . S
C1517 H1531 0.958 . S
C1517 H1532 0.961 . S
C1517 H1533 0.960 . S
H1518 C1502 0.931 . S
H1519 C1507 0.929 . S
H1520 C1508 0.960 . S
H1521 C1508 0.962 . S
H1522 C1508 0.960 . S
H1523 C1509 0.961 . S
H1524 C1509 0.961 . S
H1525 C1509 0.961 . S
H1526 C1510 0.931 . S
H1527 C1515 0.930 . S
H1528 C1516 0.956 . S
H1529 C1516 0.961 . S
H1530 C1516 0.961 . S
H1531 C1517 0.958 . S
H1532 C1517 0.961 . S
H1533 C1517 0.960 . S
C1534 C1535 1.391 . S
C1534 C1536 1.394 . S
C1534 H1550 0.931 . S
C1535 C1534 1.391 . S
C1535 C1539 1.376 . S
C1536 C1534 1.394 . S
C1536 C1537 1.369 . S
C1536 C1540 1.531 . S
C1537 C1536 1.369 . S
C1537 C1538 1.410 . S
C1537 C1545 1.503 . S
C1538 C1537 1.410 . S
C1538 C1539 1.392 . S
C1538 C1541 1.511 . S
C1539 C1535 1.376 . S
C1539 C1538 1.392 . S
C1539 H1551 0.929 . S
C1540 C1536 1.531 . S
C1540 H1552 0.960 . S
C1540 H1553 0.962 . S
C1540 H1554 0.960 . S
C1541 C1538 1.511 . S
C1541 H1555 0.961 . S
C1541 H1556 0.961 . S
C1541 H1557 0.961 . S
C1542 C1543 1.370 . S
C1542 C1544 1.363 . S
C1542 H1558 0.931 . S
C1543 C1542 1.370 . S
C1543 C1547 1.408 . S
C1544 C1542 1.363 . S
C1544 C1545 1.370 . S
C1544 C1548 1.524 . S
C1545 C1537 1.503 . S
C1545 C1544 1.370 . S
C1545 C1546 1.403 . S
C1546 C1545 1.403 . S
C1546 C1547 1.404 . S
C1546 C1549 1.539 . S
C1547 C1543 1.408 . S
C1547 C1546 1.404 . S
C1547 H1559 0.930 . S
C1548 C1544 1.524 . S
C1548 H1560 0.956 . S
C1548 H1561 0.961 . S
C1548 H1562 0.961 . S
C1549 C1546 1.539 . S
C1549 H1563 0.958 . S
C1549 H1564 0.961 . S
C1549 H1565 0.960 . S
H1550 C1534 0.931 . S
H1551 C1539 0.929 . S
H1552 C1540 0.960 . S
H1553 C1540 0.962 . S
H1554 C1540 0.960 . S
H1555 C1541 0.961 . S
H1556 C1541 0.961 . S
H1557 C1541 0.961 . S
H1558 C1542 0.931 . S
H1559 C1547 0.930 . S
H1560 C1548 0.956 . S
H1561 C1548 0.961 . S
H1562 C1548 0.961 . S
H1563 C1549 0.958 . S
H1564 C1549 0.961 . S
H1565 C1549 0.960 . S
C1566 C1567 1.391 . S
C1566 C1568 1.394 . S
C1566 H1582 0.931 . S
C1567 C1566 1.391 . S
C1567 C1571 1.376 . S
C1568 C1566 1.394 . S
C1568 C1569 1.369 . S
C1568 C1572 1.531 . S
C1569 C1568 1.369 . S
C1569 C1570 1.410 . S
C1569 C1577 1.503 1_565 S
C1570 C1569 1.410 . S
C1570 C1571 1.392 . S
C1570 C1573 1.511 . S
C1571 C1567 1.376 . S
C1571 C1570 1.392 . S
C1571 H1583 0.929 . S
C1572 C1568 1.531 . S
C1572 H1584 0.960 . S
C1572 H1585 0.962 . S
C1572 H1586 0.960 . S
C1573 C1570 1.511 . S
C1573 H1587 0.961 . S
C1573 H1588 0.961 1_565 S
C1573 H1589 0.961 1_565 S
C1574 C1575 1.370 . S
C1574 C1576 1.363 . S
C1574 H1590 0.931 . S
C1575 C1574 1.370 . S
C1575 C1579 1.408 . S
C1576 C1574 1.363 . S
C1576 C1577 1.370 . S
C1576 C1580 1.524 1_545 S
C1577 C1569 1.503 1_545 S
C1577 C1576 1.370 . S
C1577 C1578 1.403 . S
C1578 C1577 1.403 . S
C1578 C1579 1.404 . S
C1578 C1581 1.539 . S
C1579 C1575 1.408 . S
C1579 C1578 1.404 . S
C1579 H1591 0.930 . S
C1580 C1576 1.524 1_565 S
C1580 H1592 0.956 . S
C1580 H1593 0.961 . S
C1580 H1594 0.961 . S
C1581 C1578 1.539 . S
C1581 H1595 0.958 . S
C1581 H1596 0.961 . S
C1581 H1597 0.960 . S
H1582 C1566 0.931 . S
H1583 C1571 0.929 . S
H1584 C1572 0.960 . S
H1585 C1572 0.962 . S
H1586 C1572 0.960 . S
H1587 C1573 0.961 . S
H1588 C1573 0.961 1_545 S
H1589 C1573 0.961 1_545 S
H1590 C1574 0.931 . S
H1591 C1579 0.930 . S
H1592 C1580 0.956 . S
H1593 C1580 0.961 . S
H1594 C1580 0.961 . S
H1595 C1581 0.958 . S
H1596 C1581 0.961 . S
H1597 C1581 0.960 . S
C1598 C1599 1.391 . S
C1598 C1600 1.394 . S
C1598 H1614 0.931 . S
C1599 C1598 1.391 . S
C1599 C1603 1.376 . S
C1600 C1598 1.394 . S
C1600 C1601 1.369 . S
C1600 C1604 1.531 . S
C1601 C1600 1.369 . S
C1601 C1602 1.410 . S
C1601 C1609 1.503 1_455 S
C1602 C1601 1.410 . S
C1602 C1603 1.392 . S
C1602 C1605 1.511 . S
C1603 C1599 1.376 . S
C1603 C1602 1.392 . S
C1603 H1615 0.929 . S
C1604 C1600 1.531 . S
C1604 H1616 1.006 . S
C1604 H1617 0.962 . S
C1604 H1618 0.960 . S
C1605 C1602 1.511 . S
C1605 H1619 0.961 . S
C1605 H1620 0.961 1_455 S
C1605 H1621 0.961 1_455 S
C1606 C1607 1.370 . S
C1606 C1608 1.363 . S
C1606 H1622 0.931 . S
C1607 C1606 1.370 . S
C1607 C1611 1.408 . S
C1608 C1606 1.363 . S
C1608 C1609 1.370 . S
C1608 C1612 1.524 1_655 S
C1609 C1601 1.503 1_655 S
C1609 C1608 1.370 . S
C1609 C1610 1.403 . S
C1610 C1609 1.403 . S
C1610 C1611 1.404 . S
C1610 C1613 1.539 . S
C1611 C1607 1.408 . S
C1611 C1610 1.404 . S
C1611 H1623 0.930 . S
C1612 C1608 1.524 1_455 S
C1612 H1624 0.956 . S
C1612 H1625 0.961 . S
C1612 H1626 0.961 . S
C1613 C1610 1.539 . S
C1613 H1627 0.958 . S
C1613 H1628 0.961 . S
C1613 H1629 0.960 . S
H1614 C1598 0.931 . S
H1615 C1603 0.929 . S
H1616 C1604 1.006 . S
H1617 C1604 0.962 . S
H1618 C1604 0.960 . S
H1619 C1605 0.961 . S
H1620 C1605 0.961 1_655 S
H1621 C1605 0.961 1_655 S
H1622 C1606 0.931 . S
H1623 C1611 0.930 . S
H1624 C1612 0.956 . S
H1625 C1612 0.961 . S
H1626 C1612 0.961 . S
H1627 C1613 0.958 . S
H1628 C1613 0.961 . S
H1629 C1613 0.960 . S
C1630 C1631 1.391 . S
C1630 C1632 1.394 . S
C1630 H1646 0.931 . S
C1631 C1630 1.391 . S
C1631 C1635 1.376 . S
C1632 C1630 1.394 . S
C1632 C1633 1.369 . S
C1632 C1636 1.531 . S
C1633 C1632 1.369 . S
C1633 C1634 1.410 . S
C1633 C1641 1.503 . S
C1634 C1633 1.410 . S
C1634 C1635 1.392 . S
C1634 C1637 1.511 . S
C1635 C1631 1.376 . S
C1635 C1634 1.392 . S
C1635 H1647 0.929 . S
C1636 C1632 1.531 . S
C1636 H1648 0.960 . S
C1636 H1649 0.962 . S
C1636 H1650 0.960 . S
C1637 C1634 1.511 . S
C1637 H1651 0.961 . S
C1637 H1652 0.961 . S
C1637 H1653 0.961 . S
C1638 C1639 1.370 . S
C1638 C1640 1.363 . S
C1638 H1654 0.931 . S
C1639 C1638 1.370 . S
C1639 C1643 1.408 . S
C1640 C1638 1.363 . S
C1640 C1641 1.370 . S
C1640 C1644 1.524 . S
C1641 C1633 1.503 . S
C1641 C1640 1.370 . S
C1641 C1642 1.403 . S
C1642 C1641 1.403 . S
C1642 C1643 1.404 . S
C1642 C1645 1.539 . S
C1643 C1639 1.408 . S
C1643 C1642 1.404 . S
C1643 H1655 0.930 . S
C1644 C1640 1.524 . S
C1644 H1656 0.956 . S
C1644 H1657 0.961 . S
C1644 H1658 0.961 . S
C1645 C1642 1.539 . S
C1645 H1659 0.958 . S
C1645 H1660 0.961 . S
C1645 H1661 0.960 . S
H1646 C1630 0.931 . S
H1647 C1635 0.929 . S
H1648 C1636 0.960 . S
H1649 C1636 0.962 . S
H1650 C1636 0.960 . S
H1651 C1637 0.961 . S
H1652 C1637 0.961 . S
H1653 C1637 0.961 . S
H1654 C1638 0.931 . S
H1655 C1643 0.930 . S
H1656 C1644 0.956 . S
H1657 C1644 0.961 . S
H1658 C1644 0.961 . S
H1659 C1645 0.958 . S
H1660 C1645 0.961 . S
H1661 C1645 0.960 . S
C1662 C1663 1.391 . S
C1662 C1664 1.392 1_455 S
C1662 H1678 0.932 . S
C1663 C1662 1.391 . S
C1663 C1667 1.376 1_455 S
C1664 C1662 1.392 1_655 S
C1664 C1665 1.369 . S
C1664 C1668 1.531 . S
C1665 C1664 1.369 . S
C1665 C1666 1.410 . S
C1665 C1673 1.503 . S
C1666 C1665 1.410 . S
C1666 C1667 1.392 . S
C1666 C1669 1.511 . S
C1667 C1663 1.376 1_655 S
C1667 C1666 1.392 . S
C1667 H1679 0.929 1_655 S
C1668 C1664 1.531 . S
C1668 H1680 0.960 . S
C1668 H1681 0.962 . S
C1668 H1682 0.960 . S
C1669 C1666 1.511 . S
C1669 H1683 0.961 . S
C1669 H1684 0.961 . S
C1669 H1685 0.961 . S
C1670 C1671 1.370 . S
C1670 C1672 1.363 . S
C1670 H1686 0.931 . S
C1671 C1670 1.370 . S
C1671 C1675 1.408 . S
C1672 C1670 1.363 . S
C1672 C1673 1.370 . S
C1672 C1676 1.524 . S
C1673 C1665 1.503 . S
C1673 C1672 1.370 . S
C1673 C1674 1.403 . S
C1674 C1673 1.403 . S
C1674 C1675 1.404 . S
C1674 C1677 1.539 . S
C1675 C1671 1.408 . S
C1675 C1674 1.404 . S
C1675 H1687 0.930 . S
C1676 C1672 1.524 . S
C1676 H1688 0.956 . S
C1676 H1689 0.961 . S
C1676 H1690 0.961 . S
C1677 C1674 1.539 . S
C1677 H1691 0.958 . S
C1677 H1692 0.961 . S
C1677 H1693 0.960 . S
H1678 C1662 0.932 . S
H1679 C1667 0.929 1_455 S
H1680 C1668 0.960 . S
H1681 C1668 0.962 . S
H1682 C1668 0.960 . S
H1683 C1669 0.961 . S
H1684 C1669 0.961 . S
H1685 C1669 0.961 . S
H1686 C1670 0.931 . S
H1687 C1675 0.930 . S
H1688 C1676 0.956 . S
H1689 C1676 0.961 . S
H1690 C1676 0.961 . S
H1691 C1677 0.958 . S
H1692 C1677 0.961 . S
H1693 C1677 0.960 . S
C1694 C1695 1.391 . S
C1694 C1696 1.394 . S
C1694 H1710 0.931 . S
C1695 C1694 1.391 . S
C1695 C1699 1.376 . S
C1696 C1694 1.394 . S
C1696 C1697 1.369 . S
C1696 C1700 1.531 . S
C1697 C1696 1.369 . S
C1697 C1698 1.410 . S
C1697 C1705 1.503 . S
C1698 C1697 1.410 . S
C1698 C1699 1.392 . S
C1698 C1701 1.511 . S
C1699 C1695 1.376 . S
C1699 C1698 1.392 . S
C1699 H1711 0.929 . S
C1700 C1696 1.531 . S
C1700 H1712 0.960 . S
C1700 H1713 0.962 . S
C1700 H1714 0.960 . S
C1701 C1698 1.511 . S
C1701 H1715 0.961 . S
C1701 H1716 0.961 . S
C1701 H1717 0.961 . S
C1702 C1703 1.370 . S
C1702 C1704 1.363 . S
C1702 H1718 0.931 . S
C1703 C1702 1.370 . S
C1703 C1707 1.408 . S
C1704 C1702 1.363 . S
C1704 C1705 1.370 . S
C1704 C1708 1.524 . S
C1705 C1697 1.503 . S
C1705 C1704 1.370 . S
C1705 C1706 1.403 . S
C1706 C1705 1.403 . S
C1706 C1707 1.404 . S
C1706 C1709 1.539 . S
C1707 C1703 1.408 . S
C1707 C1706 1.404 . S
C1707 H1719 0.930 . S
C1708 C1704 1.524 . S
C1708 H1720 0.956 . S
C1708 H1721 0.961 . S
C1708 H1722 0.961 . S
C1709 C1706 1.539 . S
C1709 H1723 0.958 . S
C1709 H1724 0.961 . S
C1709 H1725 0.960 . S
H1710 C1694 0.931 . S
H1711 C1699 0.929 . S
H1712 C1700 0.960 . S
H1713 C1700 0.962 . S
H1714 C1700 0.960 . S
H1715 C1701 0.961 . S
H1716 C1701 0.961 . S
H1717 C1701 0.961 . S
H1718 C1702 0.931 . S
H1719 C1707 0.930 . S
H1720 C1708 0.956 . S
H1721 C1708 0.961 . S
H1722 C1708 0.961 . S
H1723 C1709 0.958 . S
H1724 C1709 0.961 . S
H1725 C1709 0.960 . S
C1726 C1727 1.391 1_545 S
C1726 C1728 1.394 . S
C1726 H1742 0.967 . S
C1727 C1726 1.391 1_565 S
C1727 C1731 1.376 1_565 S
C1728 C1726 1.394 . S
C1728 C1729 1.369 . S
C1728 C1732 1.531 . S
C1729 C1728 1.369 . S
C1729 C1730 1.410 . S
C1729 C1737 1.503 . S
C1730 C1729 1.410 . S
C1730 C1731 1.392 . S
C1730 C1733 1.511 . S
C1731 C1727 1.376 1_545 S
C1731 C1730 1.392 . S
C1731 H1743 0.929 1_545 S
C1732 C1728 1.531 . S
C1732 H1744 0.960 . S
C1732 H1745 0.962 . S
C1732 H1746 0.960 . S
C1733 C1730 1.511 . S
C1733 H1747 0.961 . S
C1733 H1748 0.961 . S
C1733 H1749 0.961 . S
C1734 C1735 1.370 . S
C1734 C1736 1.363 . S
C1734 H1750 0.931 . S
C1735 C1734 1.370 . S
C1735 C1739 1.408 . S
C1736 C1734 1.363 . S
C1736 C1737 1.370 . S
C1736 C1740 1.524 . S
C1737 C1729 1.503 . S
C1737 C1736 1.370 . S
C1737 C1738 1.403 . S
C1738 C1737 1.403 . S
C1738 C1739 1.404 . S
C1738 C1741 1.539 . S
C1739 C1735 1.408 . S
C1739 C1738 1.404 . S
C1739 H1751 0.930 . S
C1740 C1736 1.524 . S
C1740 H1752 0.956 . S
C1740 H1753 0.961 . S
C1740 H1754 0.961 . S
C1741 C1738 1.539 . S
C1741 H1755 0.958 . S
C1741 H1756 0.961 . S
C1741 H1757 0.960 . S
H1742 C1726 0.967 . S
H1743 C1731 0.929 1_565 S
H1744 C1732 0.960 . S
H1745 C1732 0.962 . S
H1746 C1732 0.960 . S
H1747 C1733 0.961 . S
H1748 C1733 0.961 . S
H1749 C1733 0.961 . S
H1750 C1734 0.931 . S
H1751 C1739 0.930 . S
H1752 C1740 0.956 . S
H1753 C1740 0.961 . S
H1754 C1740 0.961 . S
H1755 C1741 0.958 . S
H1756 C1741 0.961 . S
H1757 C1741 0.960 . S
C1758 C1759 1.391 . S
C1758 C1760 1.394 . S
C1758 H1774 0.931 . S
C1759 C1758 1.391 . S
C1759 C1763 1.376 . S
C1760 C1758 1.394 . S
C1760 C1761 1.369 . S
C1760 C1764 1.531 . S
C1761 C1760 1.369 . S
C1761 C1762 1.410 . S
C1761 C1769 1.503 . S
C1762 C1761 1.410 . S
C1762 C1763 1.392 . S
C1762 C1765 1.511 . S
C1763 C1759 1.376 . S
C1763 C1762 1.392 . S
C1763 H1775 0.929 . S
C1764 C1760 1.531 . S
C1764 H1776 0.960 . S
C1764 H1777 0.962 . S
C1764 H1778 0.960 . S
C1765 C1762 1.511 . S
C1765 H1779 0.961 . S
C1765 H1780 0.961 . S
C1765 H1781 0.961 . S
C1766 C1767 1.370 . S
C1766 C1768 1.363 . S
C1766 H1782 0.931 . S
C1767 C1766 1.370 . S
C1767 C1771 1.408 . S
C1768 C1766 1.363 . S
C1768 C1769 1.370 . S
C1768 C1772 1.524 . S
C1769 C1761 1.503 . S
C1769 C1768 1.370 . S
C1769 C1770 1.403 . S
C1770 C1769 1.403 . S
C1770 C1771 1.404 . S
C1770 C1773 1.539 . S
C1771 C1767 1.408 . S
C1771 C1770 1.404 . S
C1771 H1783 0.930 . S
C1772 C1768 1.524 . S
C1772 H1784 0.956 . S
C1772 H1785 0.961 . S
C1772 H1786 0.961 . S
C1773 C1770 1.539 . S
C1773 H1787 0.958 . S
C1773 H1788 0.961 . S
C1773 H1789 0.960 . S
H1774 C1758 0.931 . S
H1775 C1763 0.929 . S
H1776 C1764 0.960 . S
H1777 C1764 0.962 . S
H1778 C1764 0.960 . S
H1779 C1765 0.961 . S
H1780 C1765 0.961 . S
H1781 C1765 0.961 . S
H1782 C1766 0.931 . S
H1783 C1771 0.930 . S
H1784 C1772 0.956 . S
H1785 C1772 0.961 . S
H1786 C1772 0.961 . S
H1787 C1773 0.958 . S
H1788 C1773 0.961 . S
H1789 C1773 0.960 . S
C1790 C1791 1.391 . S
C1790 C1792 1.394 . S
C1790 H1806 0.931 . S
C1791 C1790 1.391 . S
C1791 C1795 1.376 . S
C1792 C1790 1.394 . S
C1792 C1793 1.369 . S
C1792 C1796 1.531 . S
C1793 C1792 1.369 . S
C1793 C1794 1.410 . S
C1793 C1801 1.503 . S
C1794 C1793 1.410 . S
C1794 C1795 1.392 . S
C1794 C1797 1.511 . S
C1795 C1791 1.376 . S
C1795 C1794 1.392 . S
C1795 H1807 0.929 . S
C1796 C1792 1.531 . S
C1796 H1808 0.960 . S
C1796 H1809 0.962 . S
C1796 H1810 0.960 . S
C1797 C1794 1.511 . S
C1797 H1811 0.961 . S
C1797 H1812 0.961 . S
C1797 H1813 0.961 . S
C1798 C1799 1.370 . S
C1798 C1800 1.363 . S
C1798 H1814 0.931 . S
C1799 C1798 1.370 . S
C1799 C1803 1.408 . S
C1800 C1798 1.363 . S
C1800 C1801 1.370 . S
C1800 C1804 1.524 . S
C1801 C1793 1.503 . S
C1801 C1800 1.370 . S
C1801 C1802 1.403 . S
C1802 C1801 1.403 . S
C1802 C1803 1.404 . S
C1802 C1805 1.539 . S
C1803 C1799 1.408 . S
C1803 C1802 1.404 . S
C1803 H1815 0.930 . S
C1804 C1800 1.524 . S
C1804 H1816 0.956 . S
C1804 H1817 0.961 . S
C1804 H1818 0.961 . S
C1805 C1802 1.539 . S
C1805 H1819 0.958 . S
C1805 H1820 0.961 . S
C1805 H1821 0.960 . S
H1806 C1790 0.931 . S
H1807 C1795 0.929 . S
H1808 C1796 0.960 . S
H1809 C1796 0.962 . S
H1810 C1796 0.960 . S
H1811 C1797 0.961 . S
H1812 C1797 0.961 . S
H1813 C1797 0.961 . S
H1814 C1798 0.931 . S
H1815 C1803 0.930 . S
H1816 C1804 0.956 . S
H1817 C1804 0.961 . S
H1818 C1804 0.961 . S
H1819 C1805 0.958 . S
H1820 C1805 0.961 . S
H1821 C1805 0.960 . S
C1822 C1823 1.391 . S
C1822 C1824 1.394 . S
C1822 H1838 0.931 . S
C1823 C1822 1.391 . S
C1823 C1827 1.376 . S
C1824 C1822 1.394 . S
C1824 C1825 1.369 . S
C1824 C1828 1.531 . S
C1825 C1824 1.369 . S
C1825 C1826 1.410 . S
C1825 C1833 1.503 . S
C1826 C1825 1.410 . S
C1826 C1827 1.392 . S
C1826 C1829 1.511 . S
C1827 C1823 1.376 . S
C1827 C1826 1.392 . S
C1827 H1839 0.929 . S
C1828 C1824 1.531 . S
C1828 H1840 0.960 . S
C1828 H1841 0.962 . S
C1828 H1842 0.960 . S
C1829 C1826 1.511 . S
C1829 H1843 0.961 . S
C1829 H1844 0.961 . S
C1829 H1845 0.961 . S
C1830 C1831 1.370 . S
C1830 C1832 1.363 . S
C1830 H1846 0.931 . S
C1831 C1830 1.370 . S
C1831 C1835 1.408 . S
C1832 C1830 1.363 . S
C1832 C1833 1.370 . S
C1832 C1836 1.524 . S
C1833 C1825 1.503 . S
C1833 C1832 1.370 . S
C1833 C1834 1.403 . S
C1834 C1833 1.403 . S
C1834 C1835 1.404 . S
C1834 C1837 1.539 . S
C1835 C1831 1.408 . S
C1835 C1834 1.404 . S
C1835 H1847 0.930 . S
C1836 C1832 1.524 . S
C1836 H1848 0.956 . S
C1836 H1849 0.961 . S
C1836 H1850 0.961 . S
C1837 C1834 1.539 . S
C1837 H1851 0.958 . S
C1837 H1852 0.961 . S
C1837 H1853 0.960 . S
H1838 C1822 0.931 . S
H1839 C1827 0.929 . S
H1840 C1828 0.960 . S
H1841 C1828 0.962 . S
H1842 C1828 0.960 . S
H1843 C1829 0.961 . S
H1844 C1829 0.961 . S
H1845 C1829 0.961 . S
H1846 C1830 0.931 . S
H1847 C1835 0.930 . S
H1848 C1836 0.956 . S
H1849 C1836 0.961 . S
H1850 C1836 0.961 . S
H1851 C1837 0.958 . S
H1852 C1837 0.961 . S
H1853 C1837 0.960 . S
C1854 C1855 1.391 . S
C1854 C1856 1.394 . S
C1854 H1870 0.931 . S
C1855 C1854 1.391 . S
C1855 C1859 1.376 . S
C1856 C1854 1.394 . S
C1856 C1857 1.369 . S
C1856 C1860 1.531 . S
C1857 C1856 1.369 . S
C1857 C1858 1.410 . S
C1857 C1865 1.503 . S
C1858 C1857 1.410 . S
C1858 C1859 1.392 . S
C1858 C1861 1.511 . S
C1859 C1855 1.376 . S
C1859 C1858 1.392 . S
C1859 H1871 0.929 . S
C1860 C1856 1.531 . S
C1860 H1872 0.960 . S
C1860 H1873 0.962 . S
C1860 H1874 0.960 . S
C1861 C1858 1.511 . S
C1861 H1875 0.961 . S
C1861 H1876 0.961 . S
C1861 H1877 0.961 . S
C1862 C1863 1.370 . S
C1862 C1864 1.363 . S
C1862 H1878 0.931 . S
C1863 C1862 1.370 . S
C1863 C1867 1.408 . S
C1864 C1862 1.363 . S
C1864 C1865 1.370 . S
C1864 C1868 1.524 . S
C1865 C1857 1.503 . S
C1865 C1864 1.370 . S
C1865 C1866 1.403 . S
C1866 C1865 1.403 . S
C1866 C1867 1.404 . S
C1866 C1869 1.539 . S
C1867 C1863 1.408 . S
C1867 C1866 1.404 . S
C1867 H1879 0.930 . S
C1868 C1864 1.524 . S
C1868 H1880 0.956 . S
C1868 H1881 0.961 . S
C1868 H1882 0.961 . S
C1869 C1866 1.539 . S
C1869 H1883 0.958 . S
C1869 H1884 0.961 . S
C1869 H1885 0.960 . S
H1870 C1854 0.931 . S
H1871 C1859 0.929 . S
H1872 C1860 0.960 . S
H1873 C1860 0.962 . S
H1874 C1860 0.960 . S
H1875 C1861 0.961 . S
H1876 C1861 0.961 . S
H1877 C1861 0.961 . S
H1878 C1862 0.931 . S
H1879 C1867 0.930 . S
H1880 C1868 0.956 . S
H1881 C1868 0.961 . S
H1882 C1868 0.961 . S
H1883 C1869 0.958 . S
H1884 C1869 0.961 . S
H1885 C1869 0.960 . S
C1886 C1887 1.391 . S
C1886 C1888 1.394 . S
C1886 H1902 0.931 . S
C1887 C1886 1.391 . S
C1887 C1891 1.376 . S
C1888 C1886 1.394 . S
C1888 C1889 1.369 . S
C1888 C1892 1.531 . S
C1889 C1888 1.369 . S
C1889 C1890 1.410 . S
C1889 C1897 1.503 . S
C1890 C1889 1.410 . S
C1890 C1891 1.392 . S
C1890 C1893 1.511 . S
C1891 C1887 1.376 . S
C1891 C1890 1.392 . S
C1891 H1903 0.929 . S
C1892 C1888 1.531 . S
C1892 H1904 0.960 . S
C1892 H1905 0.962 . S
C1892 H1906 0.960 . S
C1893 C1890 1.511 . S
C1893 H1907 0.961 . S
C1893 H1908 0.961 . S
C1893 H1909 0.961 . S
C1894 C1895 1.370 . S
C1894 C1896 1.363 . S
C1894 H1910 0.931 . S
C1895 C1894 1.370 . S
C1895 C1899 1.408 . S
C1896 C1894 1.363 . S
C1896 C1897 1.370 . S
C1896 C1900 1.524 . S
C1897 C1889 1.503 . S
C1897 C1896 1.370 . S
C1897 C1898 1.403 . S
C1898 C1897 1.403 . S
C1898 C1899 1.404 . S
C1898 C1901 1.539 . S
C1899 C1895 1.408 . S
C1899 C1898 1.404 . S
C1899 H1911 0.930 . S
C1900 C1896 1.524 . S
C1900 H1912 0.956 . S
C1900 H1913 0.961 . S
C1900 H1914 0.961 . S
C1901 C1898 1.539 . S
C1901 H1915 0.957 . S
C1901 H1916 0.961 1_455 S
C1901 H1917 0.960 . S
H1902 C1886 0.931 . S
H1903 C1891 0.929 . S
H1904 C1892 0.960 . S
H1905 C1892 0.962 . S
H1906 C1892 0.960 . S
H1907 C1893 0.961 . S
H1908 C1893 0.961 . S
H1909 C1893 0.961 . S
H1910 C1894 0.931 . S
H1911 C1899 0.930 . S
H1912 C1900 0.956 . S
H1913 C1900 0.961 . S
H1914 C1900 0.961 . S
H1915 C1901 0.957 . S
H1916 C1901 0.961 1_655 S
H1917 C1901 0.960 . S
C1918 C1919 1.391 . S
C1918 C1920 1.394 . S
C1918 H1934 0.931 . S
C1919 C1918 1.391 . S
C1919 C1923 1.376 . S
C1920 C1918 1.394 . S
C1920 C1921 1.369 . S
C1920 C1924 1.531 . S
C1921 C1920 1.369 . S
C1921 C1922 1.410 . S
C1921 C1929 1.503 . S
C1922 C1921 1.410 . S
C1922 C1923 1.392 . S
C1922 C1925 1.511 . S
C1923 C1919 1.376 . S
C1923 C1922 1.392 . S
C1923 H1935 0.929 . S
C1924 C1920 1.531 . S
C1924 H1936 0.960 . S
C1924 H1937 0.962 . S
C1924 H1938 0.960 . S
C1925 C1922 1.511 . S
C1925 H1939 0.961 . S
C1925 H1940 0.961 . S
C1925 H1941 0.961 . S
C1926 C1927 1.370 . S
C1926 C1928 1.363 . S
C1926 H1942 0.931 . S
C1927 C1926 1.370 . S
C1927 C1931 1.408 . S
C1928 C1926 1.363 . S
C1928 C1929 1.370 . S
C1928 C1932 1.524 . S
C1929 C1921 1.503 . S
C1929 C1928 1.370 . S
C1929 C1930 1.403 . S
C1930 C1929 1.403 . S
C1930 C1931 1.404 . S
C1930 C1933 1.539 . S
C1931 C1927 1.408 . S
C1931 C1930 1.404 . S
C1931 H1943 0.930 . S
C1932 C1928 1.524 . S
C1932 H1944 0.956 . S
C1932 H1945 0.961 . S
C1932 H1946 0.961 . S
C1933 C1930 1.539 . S
C1933 H1947 0.958 . S
C1933 H1948 0.961 . S
C1933 H1949 0.960 . S
H1934 C1918 0.931 . S
H1935 C1923 0.929 . S
H1936 C1924 0.960 . S
H1937 C1924 0.962 . S
H1938 C1924 0.960 . S
H1939 C1925 0.961 . S
H1940 C1925 0.961 . S
H1941 C1925 0.961 . S
H1942 C1926 0.931 . S
H1943 C1931 0.930 . S
H1944 C1932 0.956 . S
H1945 C1932 0.961 . S
H1946 C1932 0.961 . S
H1947 C1933 0.958 . S
H1948 C1933 0.961 . S
H1949 C1933 0.960 . S
C1950 C1951 1.391 . S
C1950 C1952 1.394 . S
C1950 H1966 0.931 . S
C1951 C1950 1.391 . S
C1951 C1955 1.376 . S
C1952 C1950 1.394 . S
C1952 C1953 1.369 . S
C1952 C1956 1.531 . S
C1953 C1952 1.369 . S
C1953 C1954 1.410 . S
C1953 C1961 1.503 . S
C1954 C1953 1.410 . S
C1954 C1955 1.392 . S
C1954 C1957 1.511 . S
C1955 C1951 1.376 . S
C1955 C1954 1.392 . S
C1955 H1967 0.929 . S
C1956 C1952 1.531 . S
C1956 H1968 0.960 . S
C1956 H1969 0.962 . S
C1956 H1970 0.960 . S
C1957 C1954 1.511 . S
C1957 H1971 0.961 1_655 S
C1957 H1972 0.961 . S
C1957 H1973 0.961 . S
C1958 C1959 1.370 . S
C1958 C1960 1.363 . S
C1958 H1974 0.931 . S
C1959 C1958 1.370 . S
C1959 C1963 1.408 . S
C1960 C1958 1.363 . S
C1960 C1961 1.370 . S
C1960 C1964 1.524 . S
C1961 C1953 1.503 . S
C1961 C1960 1.370 . S
C1961 C1962 1.403 . S
C1962 C1961 1.403 . S
C1962 C1963 1.404 . S
C1962 C1965 1.539 . S
C1963 C1959 1.408 . S
C1963 C1962 1.404 . S
C1963 H1975 0.930 . S
C1964 C1960 1.524 . S
C1964 H1976 0.956 . S
C1964 H1977 0.961 . S
C1964 H1978 0.961 . S
C1965 C1962 1.539 . S
C1965 H1979 0.958 . S
C1965 H1980 0.961 . S
C1965 H1981 0.960 . S
H1966 C1950 0.931 . S
H1967 C1955 0.929 . S
H1968 C1956 0.960 . S
H1969 C1956 0.962 . S
H1970 C1956 0.960 . S
H1971 C1957 0.961 1_455 S
H1972 C1957 0.961 . S
H1973 C1957 0.961 . S
H1974 C1958 0.931 . S
H1975 C1963 0.930 . S
H1976 C1964 0.956 . S
H1977 C1964 0.961 . S
H1978 C1964 0.961 . S
H1979 C1965 0.958 . S
H1980 C1965 0.961 . S
H1981 C1965 0.960 . S
C1982 C1983 1.391 . S
C1982 C1984 1.394 . S
C1982 H1998 0.931 . S
C1983 C1982 1.391 . S
C1983 C1987 1.376 . S
C1984 C1982 1.394 . S
C1984 C1985 1.369 . S
C1984 C1988 1.531 . S
C1985 C1984 1.369 . S
C1985 C1986 1.410 . S
C1985 C1993 1.503 . S
C1986 C1985 1.410 . S
C1986 C1987 1.392 . S
C1986 C1989 1.511 . S
C1987 C1983 1.376 . S
C1987 C1986 1.392 . S
C1987 H1999 0.929 . S
C1988 C1984 1.531 . S
C1988 H2000 0.960 . S
C1988 H2001 0.962 . S
C1988 H2002 0.960 . S
C1989 C1986 1.511 . S
C1989 H2003 0.961 . S
C1989 H2004 0.961 . S
C1989 H2005 0.961 . S
C1990 C1991 1.370 . S
C1990 C1992 1.363 . S
C1990 H2006 0.931 . S
C1991 C1990 1.370 . S
C1991 C1995 1.408 . S
C1992 C1990 1.363 . S
C1992 C1993 1.370 . S
C1992 C1996 1.524 . S
C1993 C1985 1.503 . S
C1993 C1992 1.370 . S
C1993 C1994 1.403 . S
C1994 C1993 1.403 . S
C1994 C1995 1.404 . S
C1994 C1997 1.539 . S
C1995 C1991 1.408 . S
C1995 C1994 1.404 . S
C1995 H2007 0.930 . S
C1996 C1992 1.524 . S
C1996 H2008 0.956 . S
C1996 H2009 0.961 . S
C1996 H2010 0.961 . S
C1997 C1994 1.539 . S
C1997 H2011 0.958 . S
C1997 H2012 0.961 . S
C1997 H2013 0.960 . S
H1998 C1982 0.931 . S
H1999 C1987 0.929 . S
H2000 C1988 0.960 . S
H2001 C1988 0.962 . S
H2002 C1988 0.960 . S
H2003 C1989 0.961 . S
H2004 C1989 0.961 . S
H2005 C1989 0.961 . S
H2006 C1990 0.931 . S
H2007 C1995 0.930 . S
H2008 C1996 0.956 . S
H2009 C1996 0.961 . S
H2010 C1996 0.961 . S
H2011 C1997 0.958 . S
H2012 C1997 0.961 . S
H2013 C1997 0.960 . S
C2014 C2015 1.391 . S
C2014 C2016 1.394 . S
C2014 H2030 0.931 . S
C2015 C2014 1.391 . S
C2015 C2019 1.376 . S
C2016 C2014 1.394 . S
C2016 C2017 1.369 . S
C2016 C2020 1.531 . S
C2017 C2016 1.369 . S
C2017 C2018 1.410 . S
C2017 C2025 1.503 . S
C2018 C2017 1.410 . S
C2018 C2019 1.392 . S
C2018 C2021 1.511 . S
C2019 C2015 1.376 . S
C2019 C2018 1.392 . S
C2019 H2031 0.929 . S
C2020 C2016 1.531 . S
C2020 H2032 0.960 . S
C2020 H2033 0.962 . S
C2020 H2034 0.960 . S
C2021 C2018 1.511 . S
C2021 H2035 0.961 . S
C2021 H2036 0.961 . S
C2021 H2037 0.961 . S
C2022 C2023 1.370 . S
C2022 C2024 1.363 . S
C2022 H2038 0.931 . S
C2023 C2022 1.370 . S
C2023 C2027 1.408 . S
C2024 C2022 1.363 . S
C2024 C2025 1.370 . S
C2024 C2028 1.524 . S
C2025 C2017 1.503 . S
C2025 C2024 1.370 . S
C2025 C2026 1.403 . S
C2026 C2025 1.403 . S
C2026 C2027 1.404 . S
C2026 C2029 1.539 . S
C2027 C2023 1.408 . S
C2027 C2026 1.404 . S
C2027 H2039 0.930 . S
C2028 C2024 1.524 . S
C2028 H2040 0.956 . S
C2028 H2041 0.961 . S
C2028 H2042 0.961 . S
C2029 C2026 1.539 . S
C2029 H2043 0.958 . S
C2029 H2044 0.961 . S
C2029 H2045 0.960 . S
H2030 C2014 0.931 . S
H2031 C2019 0.929 . S
H2032 C2020 0.960 . S
H2033 C2020 0.962 . S
H2034 C2020 0.960 . S
H2035 C2021 0.961 . S
H2036 C2021 0.961 . S
H2037 C2021 0.961 . S
H2038 C2022 0.931 . S
H2039 C2027 0.930 . S
H2040 C2028 0.956 . S
H2041 C2028 0.961 . S
H2042 C2028 0.961 . S
H2043 C2029 0.958 . S
H2044 C2029 0.961 . S
H2045 C2029 0.960 . S
C2046 C2047 1.391 . S
C2046 C2048 1.394 . S
C2046 H2062 0.931 . S
C2047 C2046 1.391 . S
C2047 C2051 1.376 . S
C2048 C2046 1.394 . S
C2048 C2049 1.369 . S
C2048 C2052 1.531 . S
C2049 C2048 1.369 . S
C2049 C2050 1.410 . S
C2049 C2057 1.503 . S
C2050 C2049 1.410 . S
C2050 C2051 1.392 . S
C2050 C2053 1.511 . S
C2051 C2047 1.376 . S
C2051 C2050 1.392 . S
C2051 H2063 0.929 . S
C2052 C2048 1.531 . S
C2052 H2064 0.960 . S
C2052 H2065 0.962 . S
C2052 H2066 0.960 . S
C2053 C2050 1.511 . S
C2053 H2067 0.961 . S
C2053 H2068 0.961 . S
C2053 H2069 0.961 . S
C2054 C2055 1.370 . S
C2054 C2056 1.363 . S
C2054 H2070 0.931 . S
C2055 C2054 1.370 . S
C2055 C2059 1.408 . S
C2056 C2054 1.363 . S
C2056 C2057 1.370 . S
C2056 C2060 1.524 . S
C2057 C2049 1.503 . S
C2057 C2056 1.370 . S
C2057 C2058 1.403 . S
C2058 C2057 1.403 . S
C2058 C2059 1.404 . S
C2058 C2061 1.539 . S
C2059 C2055 1.408 . S
C2059 C2058 1.404 . S
C2059 H2071 0.930 . S
C2060 C2056 1.524 . S
C2060 H2072 0.956 . S
C2060 H2073 0.961 . S
C2060 H2074 0.961 . S
C2061 C2058 1.539 . S
C2061 H2075 0.958 . S
C2061 H2076 0.961 . S
C2061 H2077 0.960 . S
H2062 C2046 0.931 . S
H2063 C2051 0.929 . S
H2064 C2052 0.960 . S
H2065 C2052 0.962 . S
H2066 C2052 0.960 . S
H2067 C2053 0.961 . S
H2068 C2053 0.961 . S
H2069 C2053 0.961 . S
H2070 C2054 0.931 . S
H2071 C2059 0.930 . S
H2072 C2060 0.956 . S
H2073 C2060 0.961 . S
H2074 C2060 0.961 . S
H2075 C2061 0.958 . S
H2076 C2061 0.961 . S
H2077 C2061 0.960 . S
C2078 C2079 1.391 . S
C2078 C2080 1.394 . S
C2078 H2094 0.931 . S
C2079 C2078 1.391 . S
C2079 C2083 1.376 . S
C2080 C2078 1.394 . S
C2080 C2081 1.369 . S
C2080 C2084 1.531 . S
C2081 C2080 1.369 . S
C2081 C2082 1.410 . S
C2081 C2089 1.503 . S
C2082 C2081 1.410 . S
C2082 C2083 1.392 . S
C2082 C2085 1.511 . S
C2083 C2079 1.376 . S
C2083 C2082 1.392 . S
C2083 H2095 0.929 . S
C2084 C2080 1.531 . S
C2084 H2096 0.960 . S
C2084 H2097 0.962 . S
C2084 H2098 0.960 . S
C2085 C2082 1.511 . S
C2085 H2099 0.961 . S
C2085 H2100 0.961 . S
C2085 H2101 0.961 . S
C2086 C2087 1.370 . S
C2086 C2088 1.363 . S
C2086 H2102 0.931 . S
C2087 C2086 1.370 . S
C2087 C2091 1.408 . S
C2088 C2086 1.363 . S
C2088 C2089 1.370 . S
C2088 C2092 1.524 . S
C2089 C2081 1.503 . S
C2089 C2088 1.370 . S
C2089 C2090 1.403 . S
C2090 C2089 1.403 . S
C2090 C2091 1.404 . S
C2090 C2093 1.539 . S
C2091 C2087 1.408 . S
C2091 C2090 1.404 . S
C2091 H2103 0.930 . S
C2092 C2088 1.524 . S
C2092 H2104 0.956 . S
C2092 H2105 0.961 . S
C2092 H2106 0.961 . S
C2093 C2090 1.539 . S
C2093 H2107 0.958 . S
C2093 H2108 0.961 . S
C2093 H2109 0.960 . S
H2094 C2078 0.931 . S
H2095 C2083 0.929 . S
H2096 C2084 0.960 . S
H2097 C2084 0.962 . S
H2098 C2084 0.960 . S
H2099 C2085 0.961 . S
H2100 C2085 0.961 . S
H2101 C2085 0.961 . S
H2102 C2086 0.931 . S
H2103 C2091 0.930 . S
H2104 C2092 0.956 . S
H2105 C2092 0.961 . S
H2106 C2092 0.961 . S
H2107 C2093 0.958 . S
H2108 C2093 0.961 . S
H2109 C2093 0.960 . S
C2110 C2111 1.391 . S
C2110 C2112 1.394 . S
C2110 H2126 0.931 . S
C2111 C2110 1.391 . S
C2111 C2115 1.376 . S
C2112 C2110 1.394 . S
C2112 C2113 1.369 . S
C2112 C2116 1.531 . S
C2113 C2112 1.369 . S
C2113 C2114 1.410 . S
C2113 C2121 1.503 . S
C2114 C2113 1.410 . S
C2114 C2115 1.392 . S
C2114 C2117 1.511 . S
C2115 C2111 1.376 . S
C2115 C2114 1.392 . S
C2115 H2127 0.929 . S
C2116 C2112 1.531 . S
C2116 H2128 0.960 . S
C2116 H2129 0.962 . S
C2116 H2130 0.960 . S
C2117 C2114 1.511 . S
C2117 H2131 0.961 . S
C2117 H2132 0.961 . S
C2117 H2133 0.961 . S
C2118 C2119 1.370 . S
C2118 C2120 1.363 . S
C2118 H2134 0.931 . S
C2119 C2118 1.370 . S
C2119 C2123 1.408 . S
C2120 C2118 1.363 . S
C2120 C2121 1.370 . S
C2120 C2124 1.524 . S
C2121 C2113 1.503 . S
C2121 C2120 1.370 . S
C2121 C2122 1.403 . S
C2122 C2121 1.403 . S
C2122 C2123 1.404 . S
C2122 C2125 1.539 . S
C2123 C2119 1.408 . S
C2123 C2122 1.404 . S
C2123 H2135 0.930 . S
C2124 C2120 1.524 . S
C2124 H2136 0.956 . S
C2124 H2137 0.961 . S
C2124 H2138 0.961 . S
C2125 C2122 1.539 . S
C2125 H2139 0.958 . S
C2125 H2140 0.961 . S
C2125 H2141 0.960 . S
H2126 C2110 0.931 . S
H2127 C2115 0.929 . S
H2128 C2116 0.960 . S
H2129 C2116 0.962 . S
H2130 C2116 0.960 . S
H2131 C2117 0.961 . S
H2132 C2117 0.961 . S
H2133 C2117 0.961 . S
H2134 C2118 0.931 . S
H2135 C2123 0.930 . S
H2136 C2124 0.956 . S
H2137 C2124 0.961 . S
H2138 C2124 0.961 . S
H2139 C2125 0.958 . S
H2140 C2125 0.961 . S
H2141 C2125 0.960 . S
C2142 C2143 1.391 . S
C2142 C2144 1.394 . S
C2142 H2158 0.931 . S
C2143 C2142 1.391 . S
C2143 C2147 1.376 . S
C2144 C2142 1.394 . S
C2144 C2145 1.369 . S
C2144 C2148 1.531 . S
C2145 C2144 1.369 . S
C2145 C2146 1.410 . S
C2145 C2153 1.503 . S
C2146 C2145 1.410 . S
C2146 C2147 1.392 . S
C2146 C2149 1.511 . S
C2147 C2143 1.376 . S
C2147 C2146 1.392 . S
C2147 H2159 0.929 . S
C2148 C2144 1.531 . S
C2148 H2160 0.960 . S
C2148 H2161 0.962 . S
C2148 H2162 0.960 . S
C2149 C2146 1.511 . S
C2149 H2163 0.961 . S
C2149 H2164 0.961 . S
C2149 H2165 0.961 . S
C2150 C2151 1.370 . S
C2150 C2152 1.363 . S
C2150 H2166 0.931 . S
C2151 C2150 1.370 . S
C2151 C2155 1.408 . S
C2152 C2150 1.363 . S
C2152 C2153 1.370 . S
C2152 C2156 1.524 . S
C2153 C2145 1.503 . S
C2153 C2152 1.370 . S
C2153 C2154 1.403 . S
C2154 C2153 1.403 . S
C2154 C2155 1.404 . S
C2154 C2157 1.539 . S
C2155 C2151 1.408 . S
C2155 C2154 1.404 . S
C2155 H2167 0.930 . S
C2156 C2152 1.524 . S
C2156 H2168 0.956 . S
C2156 H2169 0.961 . S
C2156 H2170 0.961 . S
C2157 C2154 1.539 . S
C2157 H2171 0.958 . S
C2157 H2172 0.961 . S
C2157 H2173 0.960 . S
H2158 C2142 0.931 . S
H2159 C2147 0.929 . S
H2160 C2148 0.960 . S
H2161 C2148 0.962 . S
H2162 C2148 0.960 . S
H2163 C2149 0.961 . S
H2164 C2149 0.961 . S
H2165 C2149 0.961 . S
H2166 C2150 0.931 . S
H2167 C2155 0.930 . S
H2168 C2156 0.956 . S
H2169 C2156 0.961 . S
H2170 C2156 0.961 . S
H2171 C2157 0.958 . S
H2172 C2157 0.961 . S
H2173 C2157 0.960 . S
C2174 C2175 1.391 . S
C2174 C2176 1.394 . S
C2174 H2190 0.931 . S
C2175 C2174 1.391 . S
C2175 C2179 1.376 . S
C2176 C2174 1.394 . S
C2176 C2177 1.369 . S
C2176 C2180 1.531 . S
C2177 C2176 1.369 . S
C2177 C2178 1.410 . S
C2177 C2185 1.503 . S
C2178 C2177 1.410 . S
C2178 C2179 1.392 . S
C2178 C2181 1.511 . S
C2179 C2175 1.376 . S
C2179 C2178 1.392 . S
C2179 H2191 0.929 . S
C2180 C2176 1.531 . S
C2180 H2192 0.960 . S
C2180 H2193 0.962 . S
C2180 H2194 0.960 . S
C2181 C2178 1.511 . S
C2181 H2195 0.961 . S
C2181 H2196 0.961 . S
C2181 H2197 0.961 . S
C2182 C2183 1.370 . S
C2182 C2184 1.363 . S
C2182 H2198 0.931 . S
C2183 C2182 1.370 . S
C2183 C2187 1.408 . S
C2184 C2182 1.363 . S
C2184 C2185 1.370 . S
C2184 C2188 1.524 . S
C2185 C2177 1.503 . S
C2185 C2184 1.370 . S
C2185 C2186 1.403 . S
C2186 C2185 1.403 . S
C2186 C2187 1.404 . S
C2186 C2189 1.539 . S
C2187 C2183 1.408 . S
C2187 C2186 1.404 . S
C2187 H2199 0.930 . S
C2188 C2184 1.524 . S
C2188 H2200 0.956 . S
C2188 H2201 0.961 . S
C2188 H2202 0.961 . S
C2189 C2186 1.539 . S
C2189 H2203 0.958 . S
C2189 H2204 0.961 . S
C2189 H2205 0.960 . S
H2190 C2174 0.931 . S
H2191 C2179 0.929 . S
H2192 C2180 0.960 . S
H2193 C2180 0.962 . S
H2194 C2180 0.960 . S
H2195 C2181 0.961 . S
H2196 C2181 0.961 . S
H2197 C2181 0.961 . S
H2198 C2182 0.931 . S
H2199 C2187 0.930 . S
H2200 C2188 0.956 . S
H2201 C2188 0.961 . S
H2202 C2188 0.961 . S
H2203 C2189 0.958 . S
H2204 C2189 0.961 . S
H2205 C2189 0.960 . S
C2206 C2207 1.391 . S
C2206 C2208 1.394 . S
C2206 H2222 0.931 . S
C2207 C2206 1.391 . S
C2207 C2211 1.376 . S
C2208 C2206 1.394 . S
C2208 C2209 1.369 . S
C2208 C2212 1.531 . S
C2209 C2208 1.369 . S
C2209 C2210 1.410 . S
C2209 C2217 1.503 . S
C2210 C2209 1.410 . S
C2210 C2211 1.392 . S
C2210 C2213 1.511 . S
C2211 C2207 1.376 . S
C2211 C2210 1.392 . S
C2211 H2223 0.929 . S
C2212 C2208 1.531 . S
C2212 H2224 0.960 . S
C2212 H2225 0.962 . S
C2212 H2226 0.960 . S
C2213 C2210 1.511 . S
C2213 H2227 0.961 . S
C2213 H2228 0.961 . S
C2213 H2229 0.961 . S
C2214 C2215 1.370 . S
C2214 C2216 1.363 . S
C2214 H2230 0.931 . S
C2215 C2214 1.370 . S
C2215 C2219 1.408 . S
C2216 C2214 1.363 . S
C2216 C2217 1.370 . S
C2216 C2220 1.524 . S
C2217 C2209 1.503 . S
C2217 C2216 1.370 . S
C2217 C2218 1.403 . S
C2218 C2217 1.403 . S
C2218 C2219 1.404 . S
C2218 C2221 1.539 . S
C2219 C2215 1.408 . S
C2219 C2218 1.404 . S
C2219 H2231 0.930 . S
C2220 C2216 1.524 . S
C2220 H2232 0.956 . S
C2220 H2233 0.961 . S
C2220 H2234 0.961 . S
C2221 C2218 1.539 . S
C2221 H2235 0.958 . S
C2221 H2236 0.961 . S
C2221 H2237 0.960 . S
H2222 C2206 0.931 . S
H2223 C2211 0.929 . S
H2224 C2212 0.960 . S
H2225 C2212 0.962 . S
H2226 C2212 0.960 . S
H2227 C2213 0.961 . S
H2228 C2213 0.961 . S
H2229 C2213 0.961 . S
H2230 C2214 0.931 . S
H2231 C2219 0.930 . S
H2232 C2220 0.956 . S
H2233 C2220 0.961 . S
H2234 C2220 0.961 . S
H2235 C2221 0.958 . S
H2236 C2221 0.961 . S
H2237 C2221 0.960 . S
C2238 C2239 1.391 . S
C2238 C2240 1.394 . S
C2238 H2254 0.931 . S
C2239 C2238 1.391 . S
C2239 C2243 1.376 . S
C2240 C2238 1.394 . S
C2240 C2241 1.369 . S
C2240 C2244 1.531 . S
C2241 C2240 1.369 . S
C2241 C2242 1.410 . S
C2241 C2249 1.503 . S
C2242 C2241 1.410 . S
C2242 C2243 1.392 . S
C2242 C2245 1.511 . S
C2243 C2239 1.376 . S
C2243 C2242 1.392 . S
C2243 H2255 0.929 . S
C2244 C2240 1.531 . S
C2244 H2256 0.960 . S
C2244 H2257 0.962 . S
C2244 H2258 0.960 . S
C2245 C2242 1.511 . S
C2245 H2259 0.961 . S
C2245 H2260 0.961 . S
C2245 H2261 0.961 . S
C2246 C2247 1.370 . S
C2246 C2248 1.363 . S
C2246 H2262 0.931 . S
C2247 C2246 1.370 . S
C2247 C2251 1.408 . S
C2248 C2246 1.363 . S
C2248 C2249 1.370 . S
C2248 C2252 1.524 . S
C2249 C2241 1.503 . S
C2249 C2248 1.370 . S
C2249 C2250 1.403 . S
C2250 C2249 1.403 . S
C2250 C2251 1.404 . S
C2250 C2253 1.539 . S
C2251 C2247 1.408 . S
C2251 C2250 1.404 . S
C2251 H2263 0.930 . S
C2252 C2248 1.524 . S
C2252 H2264 0.956 . S
C2252 H2265 0.961 . S
C2252 H2266 0.961 . S
C2253 C2250 1.539 . S
C2253 H2267 0.958 . S
C2253 H2268 0.961 . S
C2253 H2269 0.960 . S
H2254 C2238 0.931 . S
H2255 C2243 0.929 . S
H2256 C2244 0.960 . S
H2257 C2244 0.962 . S
H2258 C2244 0.960 . S
H2259 C2245 0.961 . S
H2260 C2245 0.961 . S
H2261 C2245 0.961 . S
H2262 C2246 0.931 . S
H2263 C2251 0.930 . S
H2264 C2252 0.956 . S
H2265 C2252 0.961 . S
H2266 C2252 0.961 . S
H2267 C2253 0.958 . S
H2268 C2253 0.961 . S
H2269 C2253 0.960 . S
C2270 C2271 1.391 . S
C2270 C2272 1.394 . S
C2270 H2286 0.931 . S
C2271 C2270 1.391 . S
C2271 C2275 1.376 . S
C2272 C2270 1.394 . S
C2272 C2273 1.369 . S
C2272 C2276 1.531 . S
C2273 C2272 1.369 . S
C2273 C2274 1.410 . S
C2273 C2281 1.503 . S
C2274 C2273 1.410 . S
C2274 C2275 1.392 . S
C2274 C2277 1.511 . S
C2275 C2271 1.376 . S
C2275 C2274 1.392 . S
C2275 H2287 0.929 . S
C2276 C2272 1.531 . S
C2276 H2288 0.960 . S
C2276 H2289 0.962 . S
C2276 H2290 0.960 . S
C2277 C2274 1.511 . S
C2277 H2291 0.961 . S
C2277 H2292 0.961 . S
C2277 H2293 0.961 . S
C2278 C2279 1.370 . S
C2278 C2280 1.363 . S
C2278 H2294 0.931 . S
C2279 C2278 1.370 . S
C2279 C2283 1.408 . S
C2280 C2278 1.363 . S
C2280 C2281 1.370 . S
C2280 C2284 1.524 . S
C2281 C2273 1.503 . S
C2281 C2280 1.370 . S
C2281 C2282 1.403 . S
C2282 C2281 1.403 . S
C2282 C2283 1.404 . S
C2282 C2285 1.539 . S
C2283 C2279 1.408 . S
C2283 C2282 1.404 . S
C2283 H2295 0.930 . S
C2284 C2280 1.524 . S
C2284 H2296 0.956 . S
C2284 H2297 0.961 . S
C2284 H2298 0.961 . S
C2285 C2282 1.539 . S
C2285 H2299 0.958 . S
C2285 H2300 0.961 . S
C2285 H2301 0.960 . S
H2286 C2270 0.931 . S
H2287 C2275 0.929 . S
H2288 C2276 0.960 . S
H2289 C2276 0.962 . S
H2290 C2276 0.960 . S
H2291 C2277 0.961 . S
H2292 C2277 0.961 . S
H2293 C2277 0.961 . S
H2294 C2278 0.931 . S
H2295 C2283 0.930 . S
H2296 C2284 0.956 . S
H2297 C2284 0.961 . S
H2298 C2284 0.961 . S
H2299 C2285 0.958 . S
H2300 C2285 0.961 . S
H2301 C2285 0.960 . S
C2302 C2303 1.391 . S
C2302 C2304 1.394 . S
C2302 H2318 0.931 . S
C2303 C2302 1.391 . S
C2303 C2307 1.376 . S
C2304 C2302 1.394 . S
C2304 C2305 1.369 . S
C2304 C2308 1.531 . S
C2305 C2304 1.369 . S
C2305 C2306 1.410 . S
C2305 C2313 1.503 . S
C2306 C2305 1.410 . S
C2306 C2307 1.392 . S
C2306 C2309 1.511 . S
C2307 C2303 1.376 . S
C2307 C2306 1.392 . S
C2307 H2319 0.929 . S
C2308 C2304 1.531 . S
C2308 H2320 0.960 . S
C2308 H2321 0.962 . S
C2308 H2322 0.960 . S
C2309 C2306 1.511 . S
C2309 H2323 0.961 . S
C2309 H2324 0.961 . S
C2309 H2325 0.961 . S
C2310 C2311 1.370 . S
C2310 C2312 1.363 . S
C2310 H2326 0.931 . S
C2311 C2310 1.370 . S
C2311 C2315 1.408 . S
C2312 C2310 1.363 . S
C2312 C2313 1.370 . S
C2312 C2316 1.524 . S
C2313 C2305 1.503 . S
C2313 C2312 1.370 . S
C2313 C2314 1.403 . S
C2314 C2313 1.403 . S
C2314 C2315 1.404 . S
C2314 C2317 1.539 . S
C2315 C2311 1.408 . S
C2315 C2314 1.404 . S
C2315 H2327 0.930 . S
C2316 C2312 1.524 . S
C2316 H2328 0.956 . S
C2316 H2329 0.961 . S
C2316 H2330 0.961 . S
C2317 C2314 1.539 . S
C2317 H2331 0.958 . S
C2317 H2332 0.961 . S
C2317 H2333 0.960 . S
H2318 C2302 0.931 . S
H2319 C2307 0.929 . S
H2320 C2308 0.960 . S
H2321 C2308 0.962 . S
H2322 C2308 0.960 . S
H2323 C2309 0.961 . S
H2324 C2309 0.961 . S
H2325 C2309 0.961 . S
H2326 C2310 0.931 . S
H2327 C2315 0.930 . S
H2328 C2316 0.956 . S
H2329 C2316 0.961 . S
H2330 C2316 0.961 . S
H2331 C2317 0.958 . S
H2332 C2317 0.961 . S
H2333 C2317 0.960 . S
C2334 C2335 1.391 . S
C2334 C2336 1.394 . S
C2334 H2350 0.931 . S
C2335 C2334 1.391 . S
C2335 C2339 1.376 . S
C2336 C2334 1.394 . S
C2336 C2337 1.369 . S
C2336 C2340 1.531 . S
C2337 C2336 1.369 . S
C2337 C2338 1.410 . S
C2337 C2345 1.503 . S
C2338 C2337 1.410 . S
C2338 C2339 1.392 . S
C2338 C2341 1.511 . S
C2339 C2335 1.376 . S
C2339 C2338 1.392 . S
C2339 H2351 0.929 . S
C2340 C2336 1.531 . S
C2340 H2352 0.960 . S
C2340 H2353 0.962 . S
C2340 H2354 0.960 . S
C2341 C2338 1.511 . S
C2341 H2355 0.961 . S
C2341 H2356 0.961 . S
C2341 H2357 0.961 . S
C2342 C2343 1.370 . S
C2342 C2344 1.363 . S
C2342 H2358 0.931 . S
C2343 C2342 1.370 . S
C2343 C2347 1.408 . S
C2344 C2342 1.363 . S
C2344 C2345 1.370 . S
C2344 C2348 1.524 . S
C2345 C2337 1.503 . S
C2345 C2344 1.370 . S
C2345 C2346 1.403 . S
C2346 C2345 1.403 . S
C2346 C2347 1.404 . S
C2346 C2349 1.539 . S
C2347 C2343 1.408 . S
C2347 C2346 1.404 . S
C2347 H2359 0.930 . S
C2348 C2344 1.524 . S
C2348 H2360 0.956 . S
C2348 H2361 0.961 . S
C2348 H2362 0.961 . S
C2349 C2346 1.539 . S
C2349 H2363 0.958 . S
C2349 H2364 0.961 . S
C2349 H2365 0.960 . S
H2350 C2334 0.931 . S
H2351 C2339 0.929 . S
H2352 C2340 0.960 . S
H2353 C2340 0.962 . S
H2354 C2340 0.960 . S
H2355 C2341 0.961 . S
H2356 C2341 0.961 . S
H2357 C2341 0.961 . S
H2358 C2342 0.931 . S
H2359 C2347 0.930 . S
H2360 C2348 0.956 . S
H2361 C2348 0.961 . S
H2362 C2348 0.961 . S
H2363 C2349 0.958 . S
H2364 C2349 0.961 . S
H2365 C2349 0.960 . S
C2366 C2367 1.391 . S
C2366 C2368 1.394 . S
C2366 H2382 0.931 . S
C2367 C2366 1.391 . S
C2367 C2371 1.376 . S
C2368 C2366 1.394 . S
C2368 C2369 1.369 . S
C2368 C2372 1.531 . S
C2369 C2368 1.369 . S
C2369 C2370 1.410 . S
C2369 C2377 1.503 . S
C2370 C2369 1.410 . S
C2370 C2371 1.392 . S
C2370 C2373 1.511 . S
C2371 C2367 1.376 . S
C2371 C2370 1.392 . S
C2371 H2383 0.929 . S
C2372 C2368 1.531 . S
C2372 H2384 0.960 . S
C2372 H2385 0.962 . S
C2372 H2386 0.960 . S
C2373 C2370 1.511 . S
C2373 H2387 0.961 . S
C2373 H2388 0.961 . S
C2373 H2389 0.961 . S
C2374 C2375 1.370 . S
C2374 C2376 1.363 . S
C2374 H2390 0.931 . S
C2375 C2374 1.370 . S
C2375 C2379 1.408 . S
C2376 C2374 1.363 . S
C2376 C2377 1.370 . S
C2376 C2380 1.524 . S
C2377 C2369 1.503 . S
C2377 C2376 1.370 . S
C2377 C2378 1.403 . S
C2378 C2377 1.403 . S
C2378 C2379 1.404 . S
C2378 C2381 1.539 . S
C2379 C2375 1.408 . S
C2379 C2378 1.404 . S
C2379 H2391 0.930 . S
C2380 C2376 1.524 . S
C2380 H2392 0.956 . S
C2380 H2393 0.961 . S
C2380 H2394 0.961 . S
C2381 C2378 1.539 . S
C2381 H2395 0.958 . S
C2381 H2396 0.961 . S
C2381 H2397 0.960 . S
H2382 C2366 0.931 . S
H2383 C2371 0.929 . S
H2384 C2372 0.960 . S
H2385 C2372 0.962 . S
H2386 C2372 0.960 . S
H2387 C2373 0.961 . S
H2388 C2373 0.961 . S
H2389 C2373 0.961 . S
H2390 C2374 0.931 . S
H2391 C2379 0.930 . S
H2392 C2380 0.956 . S
H2393 C2380 0.961 . S
H2394 C2380 0.961 . S
H2395 C2381 0.958 . S
H2396 C2381 0.961 . S
H2397 C2381 0.960 . S
C2398 C2399 1.391 . S
C2398 C2400 1.394 . S
C2398 H2414 0.931 . S
C2399 C2398 1.391 . S
C2399 C2403 1.376 . S
C2400 C2398 1.394 . S
C2400 C2401 1.369 . S
C2400 C2404 1.531 . S
C2401 C2400 1.369 . S
C2401 C2402 1.410 . S
C2401 C2409 1.503 . S
C2402 C2401 1.410 . S
C2402 C2403 1.392 . S
C2402 C2405 1.511 . S
C2403 C2399 1.376 . S
C2403 C2402 1.392 . S
C2403 H2415 0.929 . S
C2404 C2400 1.531 . S
C2404 H2416 0.960 . S
C2404 H2417 0.962 . S
C2404 H2418 0.960 . S
C2405 C2402 1.511 . S
C2405 H2419 0.961 . S
C2405 H2420 0.961 . S
C2405 H2421 0.961 . S
C2406 C2407 1.370 . S
C2406 C2408 1.363 . S
C2406 H2422 0.931 . S
C2407 C2406 1.370 . S
C2407 C2411 1.408 . S
C2408 C2406 1.363 . S
C2408 C2409 1.370 . S
C2408 C2412 1.524 . S
C2409 C2401 1.503 . S
C2409 C2408 1.370 . S
C2409 C2410 1.403 . S
C2410 C2409 1.403 . S
C2410 C2411 1.404 . S
C2410 C2413 1.539 . S
C2411 C2407 1.408 . S
C2411 C2410 1.404 . S
C2411 H2423 0.930 . S
C2412 C2408 1.524 . S
C2412 H2424 0.956 . S
C2412 H2425 0.961 . S
C2412 H2426 0.961 . S
C2413 C2410 1.539 . S
C2413 H2427 0.958 . S
C2413 H2428 0.961 . S
C2413 H2429 0.960 . S
H2414 C2398 0.931 . S
H2415 C2403 0.929 . S
H2416 C2404 0.960 . S
H2417 C2404 0.962 . S
H2418 C2404 0.960 . S
H2419 C2405 0.961 . S
H2420 C2405 0.961 . S
H2421 C2405 0.961 . S
H2422 C2406 0.931 . S
H2423 C2411 0.930 . S
H2424 C2412 0.956 . S
H2425 C2412 0.961 . S
H2426 C2412 0.961 . S
H2427 C2413 0.958 . S
H2428 C2413 0.961 . S
H2429 C2413 0.960 . S
C703 C253 1.739 . S
C711 C345 1.745 . S
C735 C272 1.855 . S
C743 C385 1.844 . S
C767 C234 1.623 . S
C775 C437 1.609 . S
C799 C215 1.457 . S
C807 C397 1.445 1_556 S
C839 C425 1.555 . S
C831 C177 1.562 . S
C863 C196 1.404 . S
C871 C357 1.382 1_556 S
C903 C364 1.706 . S
C895 C220 1.575 . S
C935 C404 1.657 . S
C927 C182 1.551 . S
C959 C201 1.632 1_556 S
C967 C424 1.752 . S
C991 C258 1.408 . S
C999 C384 1.534 . S
C1023 C277 1.338 . S
C1031 C444 1.462 . S
C1063 C344 1.540 . S
C1055 C239 1.374 . S
C1095 C465 1.743 . S
C1087 C25 1.739 . S
C1119 C44 1.840 . S
C1127 C505 1.848 . S
C1151 C6 1.589 . S
C1159 C557 1.603 . S
C1183 C329 1.494 . S
C1191 C517 1.450 . S
C1215 C291 1.565 . S
C1223 C545 1.559 . S
C1247 C310 1.379 . S
C1255 C477 1.382 . S
C1279 C334 1.495 . S
C1287 C484 1.711 . S
C1311 C296 1.591 . S
C1319 C524 1.659 . S
C1351 C544 1.733 . S
C1343 C315 1.639 . S
C1375 C30 1.472 . S
C1383 C504 1.548 . S
C1415 C564 1.454 . S
C1407 C49 1.368 1_455 S
C1439 C11 1.369 . S
C1447 C464 1.546 . S
C1479 C585 1.745 . S
C1471 C139 1.720 . S
C1503 C158 1.848 . S
C1511 C625 1.841 . S
C1543 C677 1.610 . S
C1535 C120 1.620 . S
C1575 C637 1.456 . S
C1567 C101 1.457 . S
C1607 C665 1.556 . S
C1599 C63 1.559 . S
C1631 C82 1.368 . S
C1639 C597 1.394 . S
C1663 C106 1.507 . S
C1671 C604 1.708 . S
C1695 C68 1.514 . S
C1703 C644 1.665 . S
C1735 C664 1.750 . S
C1727 C87 1.595 . S
C1759 C144 1.451 . S
C1767 C624 1.551 . S
C1791 C163 1.275 . S
C1799 C684 1.461 . S
C1823 C125 1.428 . S
C1831 C584 1.528 . S
C1855 C287 1.572 . S
C1863 C368 1.571 . S
C1895 C408 2.051 . S
C1887 C306 2.095 . S
C1919 C325 1.646 . S
C1927 C431 1.663 . S
C1951 C116 1.833 . S
C1959 C391 1.876 . S
C1983 C135 1.786 . S
C1991 C448 1.801 . S
C2023 C351 1.341 . S
C2015 C154 1.294 . S
C2047 C59 1.597 . S
C2055 C488 1.551 . S
C2079 C78 2.071 . S
C2087 C528 2.066 . S
C2111 C97 1.603 . S
C2119 C551 1.667 . S
C2143 C230 1.832 . S
C2151 C511 1.878 . S
C2183 C568 1.796 . S
C2175 C249 1.799 . S
C2207 C268 1.307 . S
C2215 C471 1.334 . S
C2239 C173 1.577 . S
C2247 C608 1.561 . S
C2271 C192 2.087 . S
C2279 C648 2.059 . S
C2311 C671 1.668 . S
C2303 C211 1.602 . S
C2335 C2 1.865 . S
C2343 C631 1.876 . S
C2367 C21 1.807 . S
C2375 C688 1.787 . S
C2399 C40 1.330 . S
C2407 C591 1.335 . S
