# Generated by pormake.
# Topology pyr, (3,6)-cn, num edge types: 1
# Building blocks:
#     Node 0, Type 0, BuildingBlock: KAKCAD_clean_linker_0, # of connection points: 3
#     Node 1, Type 0, BuildingBlock: KAKCAD_clean_linker_0, # of connection points: 3
#     Node 2, Type 0, BuildingBlock: KAKCAD_clean_linker_0, # of connection points: 3
#     Node 3, Type 0, BuildingBlock: KAKCAD_clean_linker_0, # of connection points: 3
#     Node 4, Type 0, BuildingBlock: KAKCAD_clean_linker_0, # of connection points: 3
#     Node 5, Type 0, BuildingBlock: KAKCAD_clean_linker_0, # of connection points: 3
#     Node 6, Type 0, BuildingBlock: KAKCAD_clean_linker_0, # of connection points: 3
#     Node 7, Type 0, BuildingBlock: KAKCAD_clean_linker_0, # of connection points: 3
#     Node 8, Type 1, BuildingBlock: BETFEN_clean_sbu_0, # of connection points: 6
#     Node 9, Type 1, BuildingBlock: BETFEN_clean_sbu_0, # of connection points: 6
#     Node 10, Type 1, BuildingBlock: BETFEN_clean_sbu_0, # of connection points: 6
#     Node 11, Type 1, BuildingBlock: BETFEN_clean_sbu_0, # of connection points: 6
#     Edge 12, Type (0, 1), BuildingBlock: CIFDUS_clean_linker_0, # of connection points: 2
#     Edge 13, Type (0, 1), BuildingBlock: CIFDUS_clean_linker_0, # of connection points: 2
#     Edge 14, Type (0, 1), BuildingBlock: CIFDUS_clean_linker_0, # of connection points: 2
#     Edge 15, Type (0, 1), BuildingBlock: CIFDUS_clean_linker_0, # of connection points: 2
#     Edge 16, Type (0, 1), BuildingBlock: CIFDUS_clean_linker_0, # of connection points: 2
#     Edge 17, Type (0, 1), BuildingBlock: CIFDUS_clean_linker_0, # of connection points: 2
#     Edge 18, Type (0, 1), BuildingBlock: CIFDUS_clean_linker_0, # of connection points: 2
#     Edge 19, Type (0, 1), BuildingBlock: CIFDUS_clean_linker_0, # of connection points: 2
#     Edge 20, Type (0, 1), BuildingBlock: CIFDUS_clean_linker_0, # of connection points: 2
#     Edge 21, Type (0, 1), BuildingBlock: CIFDUS_clean_linker_0, # of connection points: 2
#     Edge 22, Type (0, 1), BuildingBlock: CIFDUS_clean_linker_0, # of connection points: 2
#     Edge 23, Type (0, 1), BuildingBlock: CIFDUS_clean_linker_0, # of connection points: 2
#     Edge 24, Type (0, 1), BuildingBlock: CIFDUS_clean_linker_0, # of connection points: 2
#     Edge 25, Type (0, 1), BuildingBlock: CIFDUS_clean_linker_0, # of connection points: 2
#     Edge 26, Type (0, 1), BuildingBlock: CIFDUS_clean_linker_0, # of connection points: 2
#     Edge 27, Type (0, 1), BuildingBlock: CIFDUS_clean_linker_0, # of connection points: 2
#     Edge 28, Type (0, 1), BuildingBlock: CIFDUS_clean_linker_0, # of connection points: 2
#     Edge 29, Type (0, 1), BuildingBlock: CIFDUS_clean_linker_0, # of connection points: 2
#     Edge 30, Type (0, 1), BuildingBlock: CIFDUS_clean_linker_0, # of connection points: 2
#     Edge 31, Type (0, 1), BuildingBlock: CIFDUS_clean_linker_0, # of connection points: 2
#     Edge 32, Type (0, 1), BuildingBlock: CIFDUS_clean_linker_0, # of connection points: 2
#     Edge 33, Type (0, 1), BuildingBlock: CIFDUS_clean_linker_0, # of connection points: 2
#     Edge 34, Type (0, 1), BuildingBlock: CIFDUS_clean_linker_0, # of connection points: 2
#     Edge 35, Type (0, 1), BuildingBlock: CIFDUS_clean_linker_0, # of connection points: 2
# Relax obj value: 0.146
# Max RMSD: 0.244
# Mean RMSD: 0.117
data_MOF--net-pyr--node1-BETFEN_clean_sbu_0--node2-KAKCAD_clean_linker_0--edge1-CIFDUS_clean_linker_0
_symmetry_space_group_name_H-M    P1
_symmetry_Int_Tables_number       1
_symmetry_cell_setting            triclinic
loop_
_symmetry_equiv_pos_as_xyz
'x, y, z'
_cell_length_a     40.880538
_cell_length_b     44.812698
_cell_length_c     40.968243
_cell_angle_alpha  91.602071
_cell_angle_beta   97.428389
_cell_angle_gamma 109.8073
loop_
_atom_site_label
_atom_site_type_symbol
_atom_site_fract_x
_atom_site_fract_y
_atom_site_fract_z
_atom_type_partial_charge
C0 C 0.31436 0.31121 0.39309 0.0
C1 C 0.33216 0.29514 0.41331 0.0
C2 C 0.32957 0.32795 0.36756 0.0
C3 C 0.36333 0.32954 0.36181 0.0
C4 C 0.3821 0.31515 0.38351 0.0
C5 C 0.36652 0.29785 0.40882 0.0
C6 C 0.37649 0.34259 0.331 0.0
C7 C 0.36654 0.36702 0.31684 0.0
C8 C 0.3703 0.37367 0.28397 0.0
C9 C 0.38799 0.35821 0.26639 0.0
C10 C 0.39913 0.33432 0.2803 0.0
C11 C 0.39342 0.32681 0.31267 0.0
C12 C 0.41117 0.31362 0.25938 0.0
C13 C 0.39402 0.30324 0.22693 0.0
C14 C 0.43763 0.30192 0.27234 0.0
C15 C 0.44596 0.27962 0.25361 0.0
C16 C 0.4281 0.26873 0.22149 0.0
C17 C 0.34884 0.39052 0.26578 0.0
C18 C 0.31324 0.38224 0.26967 0.0
C19 C 0.36161 0.41094 0.24124 0.0
C20 C 0.33874 0.42152 0.22003 0.0
C21 C 0.30286 0.41144 0.2229 0.0
C22 C 0.29053 0.39249 0.24839 0.0
C23 C 0.40248 0.28118 0.2082 0.0
H24 H 0.28759 0.30906 0.39551 0.0
H25 H 0.31369 0.33784 0.35109 0.0
H26 H 0.40833 0.31625 0.3802 0.0
H27 H 0.38087 0.28578 0.42421 0.0
H28 H 0.35325 0.37931 0.33046 0.0
H29 H 0.39929 0.30665 0.32235 0.0
H30 H 0.39054 0.36294 0.24088 0.0
H31 H 0.37287 0.31102 0.21637 0.0
H32 H 0.45148 0.30961 0.29717 0.0
H33 H 0.46606 0.27062 0.26436 0.0
H34 H 0.30229 0.36607 0.2878 0.0
H35 H 0.38889 0.41768 0.23767 0.0
H36 H 0.38779 0.27283 0.18378 0.0
H37 H 0.2629 0.38453 0.251 0.0
H38 H 0.34866 0.43615 0.20041 0.0
C39 C 0.32479 0.87188 0.80807 0.0
C40 C 0.36105 0.88836 0.81699 0.0
C41 C 0.31073 0.86119 0.77518 0.0
C42 C 0.33272 0.86647 0.75071 0.0
C43 C 0.36894 0.88246 0.75961 0.0
C44 C 0.38292 0.89348 0.79233 0.0
C45 C 0.31797 0.85629 0.71571 0.0
C46 C 0.2894 0.86412 0.70104 0.0
C47 C 0.27657 0.85626 0.66729 0.0
C48 C 0.2923 0.83992 0.64824 0.0
C49 C 0.32078 0.83165 0.66281 0.0
C50 C 0.33346 0.84001 0.69654 0.0
C51 C 0.33721 0.81372 0.64346 0.0
C52 C 0.3164 0.78649 0.62296 0.0
C53 C 0.37394 0.82222 0.6477 0.0
C54 C 0.38952 0.80287 0.63341 0.0
C55 C 0.3687 0.77462 0.61444 0.0
C56 C 0.24785 0.86673 0.65212 0.0
C57 C 0.21834 0.86272 0.66797 0.0
C58 C 0.25111 0.88315 0.62334 0.0
C59 C 0.22599 0.8965 0.61144 0.0
C60 C 0.19709 0.8934 0.62798 0.0
C61 C 0.19318 0.87586 0.65599 0.0
C62 C 0.33202 0.76707 0.60861 0.0
H63 H 0.30728 0.86719 0.82648 0.0
H64 H 0.28271 0.84868 0.76887 0.0
H65 H 0.38634 0.88725 0.74108 0.0
H66 H 0.41082 0.90675 0.79809 0.0
H67 H 0.27807 0.87755 0.71565 0.0
H68 H 0.3551 0.83336 0.70814 0.0
H69 H 0.28252 0.83383 0.62217 0.0
H70 H 0.288 0.77936 0.61931 0.0
H71 H 0.39064 0.84335 0.66301 0.0
H72 H 0.4178 0.80929 0.63868 0.0
H73 H 0.21515 0.84998 0.6901 0.0
H74 H 0.27376 0.88676 0.61081 0.0
H75 H 0.31532 0.74566 0.59374 0.0
H76 H 0.1713 0.87325 0.66938 0.0
H77 H 0.22941 0.90962 0.58958 0.0
C78 C 0.7525 0.41552 0.90572 0.0
C79 C 0.77351 0.39841 0.91905 0.0
C80 C 0.72052 0.39982 0.8854 0.0
C81 C 0.70911 0.36673 0.8777 0.0
C82 C 0.73097 0.34995 0.89009 0.0
C83 C 0.76264 0.36557 0.91069 0.0
C84 C 0.67373 0.34942 0.85853 0.0
C85 C 0.6598 0.3628 0.83207 0.0
C86 C 0.62562 0.34723 0.81513 0.0
C87 C 0.60536 0.31722 0.82455 0.0
C88 C 0.61882 0.3037 0.85153 0.0
C89 C 0.65304 0.31993 0.86789 0.0
C90 C 0.5977 0.27341 0.86441 0.0
C91 C 0.59815 0.27159 0.89871 0.0
C92 C 0.58026 0.24553 0.84356 0.0
C93 C 0.56538 0.21623 0.85695 0.0
C94 C 0.56784 0.21429 0.89142 0.0
C95 C 0.61103 0.36417 0.7895 0.0
C96 C 0.61382 0.39582 0.79693 0.0
C97 C 0.59644 0.35015 0.75736 0.0
C98 C 0.58563 0.36783 0.73301 0.0
C99 C 0.58863 0.3996 0.74061 0.0
C100 C 0.60275 0.41322 0.77292 0.0
C101 C 0.58362 0.24248 0.912 0.0
H102 H 0.76024 0.44086 0.9119 0.0
H103 H 0.70422 0.41347 0.87669 0.0
H104 H 0.72348 0.32461 0.88409 0.0
H105 H 0.77868 0.35191 0.92016 0.0
H106 H 0.67559 0.38557 0.82456 0.0
H107 H 0.66336 0.30971 0.8887 0.0
H108 H 0.57878 0.30531 0.81212 0.0
H109 H 0.6107 0.29271 0.91547 0.0
H110 H 0.57955 0.24614 0.81707 0.0
H111 H 0.55323 0.19492 0.84042 0.0
H112 H 0.62485 0.40727 0.82146 0.0
H113 H 0.59421 0.32587 0.7509 0.0
H114 H 0.58514 0.242 0.93857 0.0
H115 H 0.60576 0.43767 0.77959 0.0
H116 H 0.57466 0.35661 0.70839 0.0
C117 C 0.89114 0.61339 0.23955 0.0
C118 C 0.92766 0.62098 0.24029 0.0
C119 C 0.87766 0.62545 0.2649 0.0
C120 C 0.9003 0.64595 0.29144 0.0
C121 C 0.93678 0.65386 0.29182 0.0
C122 C 0.95019 0.64148 0.26683 0.0
C123 C 0.88635 0.65898 0.31883 0.0
C124 C 0.85768 0.63927 0.33322 0.0
C125 C 0.84632 0.65096 0.36044 0.0
C126 C 0.86349 0.68293 0.37256 0.0
C127 C 0.89138 0.70357 0.35831 0.0
C128 C 0.90263 0.69114 0.33147 0.0
C129 C 0.90891 0.73768 0.37242 0.0
C130 C 0.88988 0.75391 0.38742 0.0
C131 C 0.94504 0.75399 0.37247 0.0
C132 C 0.96162 0.78491 0.38773 0.0
C133 C 0.94293 0.8005 0.40424 0.0
C134 C 0.81675 0.6304 0.377 0.0
C135 C 0.78508 0.61005 0.35865 0.0
C136 C 0.81914 0.63291 0.41167 0.0
C137 C 0.79037 0.61691 0.42741 0.0
C138 C 0.75821 0.5976 0.4091 0.0
C139 C 0.7562 0.59386 0.37449 0.0
C140 C 0.90661 0.78445 0.4034 0.0
H141 H 0.87291 0.59756 0.2197 0.0
H142 H 0.84945 0.61892 0.26355 0.0
H143 H 0.95514 0.66928 0.31186 0.0
H144 H 0.97842 0.64816 0.26825 0.0
H145 H 0.84513 0.61453 0.32412 0.0
H146 H 0.92379 0.7066 0.31989 0.0
H147 H 0.85499 0.69173 0.3936 0.0
H148 H 0.86184 0.74299 0.38722 0.0
H149 H 0.96096 0.74267 0.36146 0.0
H150 H 0.98934 0.79639 0.38664 0.0
H151 H 0.78213 0.60762 0.33196 0.0
H152 H 0.84329 0.64768 0.42679 0.0
H153 H 0.89089 0.79499 0.41578 0.0
H154 H 0.73188 0.57928 0.35949 0.0
H155 H 0.79334 0.6198 0.45409 0.0
C156 C 0.70003 0.72486 0.64534 0.0
C157 C 0.70442 0.75699 0.64149 0.0
C158 C 0.6819 0.70896 0.6701 0.0
C159 C 0.66838 0.7251 0.69185 0.0
C160 C 0.67066 0.75655 0.68617 0.0
C161 C 0.68821 0.77216 0.66122 0.0
C162 C 0.65709 0.71167 0.72318 0.0
C163 C 0.67551 0.69459 0.74118 0.0
C164 C 0.67161 0.68887 0.77426 0.0
C165 C 0.6495 0.70107 0.78963 0.0
C166 C 0.63073 0.71814 0.77203 0.0
C167 C 0.63287 0.7212 0.73823 0.0
C168 C 0.61423 0.73746 0.78986 0.0
C169 C 0.59881 0.72729 0.81827 0.0
C170 C 0.61733 0.76817 0.78037 0.0
C171 C 0.60638 0.78838 0.79911 0.0
C172 C 0.59254 0.77878 0.8282 0.0
C173 C 0.69445 0.67397 0.79361 0.0
C174 C 0.70016 0.64742 0.77981 0.0
C175 C 0.71301 0.68779 0.82478 0.0
C176 C 0.73786 0.67618 0.84112 0.0
C177 C 0.74473 0.65054 0.82661 0.0
C178 C 0.72501 0.63582 0.79614 0.0
C179 C 0.58835 0.74788 0.83743 0.0
H180 H 0.71198 0.71249 0.6302 0.0
H181 H 0.68004 0.68455 0.67322 0.0
H182 H 0.66138 0.77025 0.70254 0.0
H183 H 0.69153 0.79705 0.65927 0.0
H184 H 0.69524 0.68803 0.73049 0.0
H185 H 0.61762 0.73337 0.72419 0.0
H186 H 0.64851 0.69871 0.81574 0.0
H187 H 0.5956 0.70374 0.82618 0.0
H188 H 0.63 0.7775 0.75937 0.0
H189 H 0.61058 0.81228 0.79174 0.0
H190 H 0.68595 0.63606 0.756 0.0
H191 H 0.70964 0.70858 0.83586 0.0
H192 H 0.57759 0.7399 0.85976 0.0
H193 H 0.7293 0.61569 0.78458 0.0
H194 H 0.75291 0.6883 0.86436 0.0
C195 C 0.70917 0.13767 0.27097 0.0
C196 C 0.69773 0.15786 0.25063 0.0
C197 C 0.72356 0.14758 0.30382 0.0
C198 C 0.72752 0.17822 0.31685 0.0
C199 C 0.71695 0.19877 0.29594 0.0
C200 C 0.70175 0.18849 0.2632 0.0
C201 C 0.74105 0.18789 0.35244 0.0
C202 C 0.76616 0.17658 0.36912 0.0
C203 C 0.7764 0.18272 0.40338 0.0
C204 C 0.76262 0.20187 0.42099 0.0
C205 C 0.73842 0.21431 0.40448 0.0
C206 C 0.72748 0.20692 0.37041 0.0
C207 C 0.72308 0.23406 0.42252 0.0
C208 C 0.70747 0.22356 0.45063 0.0
C209 C 0.72137 0.26236 0.40987 0.0
C210 C 0.7031 0.27918 0.42417 0.0
C211 C 0.68602 0.26798 0.45133 0.0
C212 C 0.80087 0.16825 0.42036 0.0
C213 C 0.7963 0.13632 0.41204 0.0
C214 C 0.82966 0.18634 0.44363 0.0
C215 C 0.8542 0.17303 0.4573 0.0
C216 C 0.85024 0.14138 0.44804 0.0
C217 C 0.82074 0.12306 0.42564 0.0
C218 C 0.68888 0.24032 0.46484 0.0
H219 H 0.70573 0.11372 0.26176 0.0
H220 H 0.73046 0.13072 0.31919 0.0
H221 H 0.72013 0.22269 0.30487 0.0
H222 H 0.69299 0.20435 0.24774 0.0
H223 H 0.77785 0.16281 0.35543 0.0
H224 H 0.70729 0.2151 0.35822 0.0
H225 H 0.77041 0.20682 0.44745 0.0
H226 H 0.7083 0.20169 0.4607 0.0
H227 H 0.73339 0.27099 0.38831 0.0
H228 H 0.70105 0.30022 0.41299 0.0
H229 H 0.77403 0.12167 0.39453 0.0
H230 H 0.83381 0.21102 0.45044 0.0
H231 H 0.67614 0.2313 0.48592 0.0
H232 H 0.81706 0.09873 0.41775 0.0
H233 H 0.87647 0.1876 0.47485 0.0
C234 C 0.27365 0.63725 0.202 0.0
C235 C 0.27046 0.63214 0.16745 0.0
C236 C 0.30634 0.65378 0.22083 0.0
C237 C 0.33642 0.66595 0.20548 0.0
C238 C 0.33356 0.66018 0.17121 0.0
C239 C 0.30106 0.64321 0.15246 0.0
C240 C 0.37046 0.68588 0.22482 0.0
C241 C 0.38511 0.67484 0.25269 0.0
C242 C 0.418 0.69334 0.27054 0.0
C243 C 0.43597 0.72363 0.26011 0.0
C244 C 0.42093 0.73538 0.23265 0.0
C245 C 0.38842 0.71606 0.21507 0.0
C246 C 0.43846 0.76761 0.22157 0.0
C247 C 0.41877 0.78738 0.21319 0.0
C248 C 0.47384 0.77783 0.21663 0.0
C249 C 0.48866 0.80651 0.20225 0.0
C250 C 0.46851 0.82574 0.1927 0.0
C251 C 0.43349 0.68005 0.29919 0.0
C252 C 0.41204 0.66248 0.32128 0.0
C253 C 0.46901 0.68253 0.30321 0.0
C254 C 0.48223 0.66646 0.32755 0.0
C255 C 0.46029 0.64758 0.34856 0.0
C256 C 0.42524 0.64648 0.3456 0.0
C257 C 0.43357 0.81603 0.19905 0.0
H258 H 0.25074 0.62951 0.21446 0.0
H259 H 0.3079 0.65808 0.24723 0.0
H260 H 0.35651 0.66896 0.15888 0.0
H261 H 0.29996 0.63905 0.12612 0.0
H262 H 0.37133 0.65123 0.25973 0.0
H263 H 0.37692 0.72454 0.19353 0.0
H264 H 0.4611 0.73832 0.27376 0.0
H265 H 0.39158 0.78041 0.21715 0.0
H266 H 0.4896 0.76302 0.22257 0.0
H267 H 0.51557 0.81302 0.19757 0.0
H268 H 0.38468 0.66044 0.31925 0.0
H269 H 0.48627 0.69575 0.28664 0.0
H270 H 0.41745 0.83048 0.1929 0.0
H271 H 0.40747 0.63211 0.36114 0.0
H272 H 0.50952 0.66831 0.32943 0.0
C273 C 0.15076 0.26044 0.69399 0.0
C274 C 0.11429 0.24823 0.683 0.0
C275 C 0.16714 0.29167 0.70838 0.0
C276 C 0.14761 0.31169 0.71262 0.0
C277 C 0.11113 0.29946 0.70231 0.0
C278 C 0.09476 0.26833 0.6875 0.0
C279 C 0.1658 0.34572 0.72574 0.0
C280 C 0.19603 0.3641 0.7131 0.0
C281 C 0.21439 0.39605 0.72461 0.0
C282 C 0.20197 0.40975 0.74964 0.0
C283 C 0.17162 0.39193 0.76306 0.0
C284 C 0.15348 0.35996 0.75044 0.0
C285 C 0.1595 0.40645 0.79076 0.0
C286 C 0.18386 0.42549 0.8172 0.0
C287 C 0.12357 0.40121 0.79133 0.0
C288 C 0.11242 0.41464 0.81742 0.0
C289 C 0.13679 0.43335 0.84406 0.0
C290 C 0.24634 0.41456 0.70988 0.0
C291 C 0.27056 0.40012 0.7027 0.0
C292 C 0.25191 0.44583 0.70095 0.0
C293 C 0.28017 0.4617 0.68426 0.0
C294 C 0.30365 0.44674 0.67609 0.0
C295 C 0.29869 0.41591 0.68611 0.0
C296 C 0.17269 0.43854 0.84345 0.0
H297 H 0.16682 0.24582 0.69181 0.0
H298 H 0.19528 0.3002 0.71631 0.0
H299 H 0.09535 0.31433 0.70474 0.0
H300 H 0.06678 0.26035 0.67895 0.0
H301 H 0.20484 0.35354 0.69339 0.0
H302 H 0.13048 0.34578 0.76063 0.0
H303 H 0.21605 0.4343 0.75877 0.0
H304 H 0.21169 0.42991 0.81794 0.0
H305 H 0.10397 0.3869 0.77141 0.0
H306 H 0.08456 0.40985 0.817 0.0
H307 H 0.26766 0.37635 0.70977 0.0
H308 H 0.23371 0.45764 0.70582 0.0
H309 H 0.19236 0.45299 0.86325 0.0
H310 H 0.31663 0.40385 0.68116 0.0
H311 H 0.28294 0.48534 0.67688 0.0
Pr312 Pr 1.00665 1.00881 0.56442 0.0
Pr313 Pr 0.05318 0.04056 0.52092 0.0
C314 C 0.96672 0.96763 0.6025 0.0
C315 C 0.93568 0.93814 0.59898 0.0
C316 C 0.90465 0.93881 0.60962 0.0
C317 C 0.87561 0.91092 0.60832 0.0
C318 C 0.8771 0.88168 0.59662 0.0
C319 C 0.90794 0.88107 0.5854 0.0
C320 C 0.93694 0.90905 0.58645 0.0
C321 C 0.04314 0.07283 0.58809 0.0
C322 C 0.08546 1.00329 0.57183 0.0
C323 C 0.09325 0.08017 0.48169 0.0
C324 C 0.12952 0.10136 0.48057 0.0
C325 C 0.14469 0.09942 0.45219 0.0
C326 C 0.17795 0.12072 0.44916 0.0
C327 C 0.19669 0.14451 0.47447 0.0
C328 C 0.18189 0.14581 0.50339 0.0
C329 C 0.14859 0.12434 0.50648 0.0
C330 C 1.01639 0.97636 0.49822 0.0
C331 C 0.9729 0.04288 0.5108 0.0
O332 O 0.96138 0.99368 0.59412 0.0
O333 O 0.99572 0.96567 0.59413 0.0
O334 O 0.05725 0.05461 0.57628 0.0
O335 O 1.0101 0.05794 0.58868 0.0
O336 O 0.09507 0.03062 0.55847 0.0
O337 O 0.05191 0.98759 0.5722 0.0
O338 O 0.0875 0.04968 0.48038 0.0
O339 O 0.0753 0.08906 0.50171 0.0
O340 O 1.00247 0.99518 0.509 0.0
O341 O 0.0499 0.99036 0.49923 0.0
O342 O 0.96455 1.01603 0.52505 0.0
O343 O 1.00617 0.05952 0.5102 0.0
H344 H 0.90307 0.96085 0.6196 0.0
H345 H 0.85244 0.91207 0.61768 0.0
H346 H 0.90975 0.85888 0.57615 0.0
H347 H 0.96046 0.90773 0.57797 0.0
H348 H 0.13037 0.08191 0.43192 0.0
H349 H 0.18831 0.11938 0.42634 0.0
H350 H 0.19582 0.16374 0.52339 0.0
H351 H 0.13752 0.12616 0.52877 0.0
Pr352 Pr 0.48918 0.02297 0.04703 0.0
Pr353 Pr 0.5539 1.01484 1.03404 0.0
C354 C 0.43698 0.03148 0.07555 0.0
C355 C 0.43508 0.05635 0.0988 0.0
C356 C 0.41174 0.07255 0.08981 0.0
C357 C 0.41197 0.09826 0.11002 0.0
C358 C 0.43543 0.10811 0.13972 0.0
C359 C 0.45808 0.0913 0.14921 0.0
C360 C 0.45802 0.06573 0.12887 0.0
C361 C 0.52108 0.06425 1.00105 0.0
C362 C 0.56447 0.06613 0.09323 0.0
C363 C 0.60621 1.00428 1.00768 0.0
C364 C 0.6091 0.9755 0.99188 0.0
C365 C 0.59995 0.94664 1.0071 0.0
C366 C 0.59907 0.91874 0.99034 0.0
C367 C 0.60682 0.91913 0.95793 0.0
C368 C 0.61668 0.94812 0.94301 0.0
C369 C 0.61793 0.97608 0.9599 0.0
C370 C 0.52115 0.97311 0.07929 0.0
C371 C 0.47925 0.97383 0.98542 0.0
O372 O 0.4545 1.01349 0.08704 0.0
O373 O 0.4429 0.04005 0.04603 0.0
O374 O 0.53715 0.05872 1.0274 0.0
O375 O 0.48767 0.04817 0.99777 0.0
O376 O 0.58034 0.06021 0.06926 0.0
O377 O 0.53044 0.05154 0.0926 0.0
O378 O 0.58409 1.01572 0.99126 0.0
O379 O 0.60471 1.00457 0.03937 0.0
O380 O 0.50559 0.97892 0.05285 0.0
O381 O 0.55455 0.9891 0.08303 0.0
O382 O 0.46212 0.98035 1.00804 0.0
O383 O 0.51367 0.98691 0.98799 0.0
H384 H 0.39384 0.06574 0.06675 0.0
H385 H 0.39391 0.11056 0.10234 0.0
H386 H 0.4766 0.09854 0.17185 0.0
H387 H 0.47651 0.05383 0.13639 0.0
H388 H 0.59254 0.94537 1.03161 0.0
H389 H 0.59116 0.89668 1.00229 0.0
H390 H 0.62318 0.9491 0.91816 0.0
H391 H 0.62487 0.99802 0.94765 0.0
Pr392 Pr 0.53718 0.55379 0.55963 0.0
Pr393 Pr 0.5219 0.49162 0.52328 0.0
C394 C 0.5528 0.61602 0.57712 0.0
C395 C 0.53271 0.63745 0.57811 0.0
C396 C 0.54919 0.66873 0.59197 0.0
C397 C 0.53011 0.68933 0.59246 0.0
C398 C 0.49427 0.6789 0.57897 0.0
C399 C 0.47799 0.64746 0.56494 0.0
C400 C 0.49704 0.62688 0.56463 0.0
C401 C 0.55575 0.51043 0.59895 0.0
C402 C 0.46183 0.50151 0.56739 0.0
C403 C 0.50805 0.43 0.50488 0.0
C404 C 0.52985 0.41136 0.49694 0.0
C405 C 0.55431 0.42185 0.47494 0.0
C406 C 0.57739 0.40575 0.47032 0.0
C407 C 0.5768 0.37912 0.48793 0.0
C408 C 0.55182 0.36835 0.50949 0.0
C409 C 0.52851 0.3843 0.51386 0.0
C410 C 0.50286 0.53533 0.48478 0.0
C411 C 0.59708 0.54368 0.51475 0.0
O412 O 0.55419 0.60513 0.54761 0.0
O413 O 0.54727 0.59425 0.59833 0.0
O414 O 0.56183 0.51451 0.56956 0.0
O415 O 0.54191 0.53036 0.60927 0.0
O416 O 0.47464 0.48154 0.55391 0.0
O417 O 0.47846 0.53248 0.56849 0.0
O418 O 0.51339 0.44098 0.53572 0.0
O419 O 0.50412 0.45058 0.48407 0.0
O420 O 0.49674 0.53054 0.51403 0.0
O421 O 0.51797 0.5165 0.4742 0.0
O422 O 0.58519 0.56358 0.52972 0.0
O423 O 0.57964 0.51284 0.5122 0.0
H424 H 0.57675 0.67717 0.6025 0.0
H425 H 0.54326 0.71324 0.6039 0.0
H426 H 0.45057 0.6388 0.55402 0.0
H427 H 0.484 0.60272 0.55383 0.0
H428 H 0.55616 0.44286 0.46177 0.0
H429 H 0.59584 0.41432 0.45306 0.0
H430 H 0.55091 0.34815 0.52371 0.0
H431 H 0.51008 0.37606 0.53122 0.0
Pr432 Pr 1.02157 0.56273 1.00907 0.0
Pr433 Pr 0.03165 0.51285 0.05186 0.0
C434 C 1.00026 0.60387 0.97277 0.0
C435 C 0.9675 0.60921 0.96077 0.0
C436 C 0.96756 0.63061 0.93656 0.0
C437 C 0.93634 0.63484 0.92344 0.0
C438 C 0.90449 0.61768 0.93436 0.0
C439 C 0.90462 0.59656 0.95911 0.0
C440 C 0.93594 0.59224 0.97214 0.0
C441 C 0.09048 0.57879 0.04176 0.0
C442 C 0.99345 0.55822 0.08216 0.0
C443 C 0.05568 0.47386 0.08907 0.0
C444 C 0.08943 0.46988 0.09983 0.0
C445 C 0.09024 0.44464 0.11881 0.0
C446 C 0.1223 0.44158 0.13109 0.0
C447 C 0.15414 0.46384 0.12468 0.0
C448 C 0.1532 0.48905 0.10534 0.0
C449 C 0.12099 0.49191 0.09279 0.0
C450 C 0.96309 0.49593 1.018 0.0
C451 C 0.05401 0.51389 0.97645 0.0
O452 O 1.00369 0.57827 0.96001 0.0
O453 O 1.01118 0.60907 1.00451 0.0
O454 O 0.06315 0.56602 0.05448 0.0
O455 O 0.08281 0.58561 1.01189 0.0
O456 O 1.01485 0.54243 0.09062 0.0
O457 O 0.98681 0.56385 0.05091 0.0
O458 O 0.05229 0.49975 0.10108 0.0
O459 O 0.0429 0.46695 0.05779 0.0
O460 O 0.99073 0.50946 1.00608 0.0
O461 O 0.97025 0.48813 0.04762 0.0
O462 O 0.03303 0.53036 0.96952 0.0
O463 O 0.06302 0.50902 1.00755 0.0
H464 H 0.99174 0.64384 0.92753 0.0
H465 H 0.93711 0.65158 0.90474 0.0
H466 H 0.88042 0.58288 0.9678 0.0
H467 H 0.93549 0.57539 0.9907 0.0
H468 H 0.0661 0.42758 0.12461 0.0
H469 H 0.12219 0.42221 0.14636 0.0
H470 H 0.17729 0.50644 0.09989 0.0
H471 H 0.12067 0.51143 0.07793 0.0
H472 H 0.32805 0.2339 0.41818 0.0
H473 H 0.29148 0.30522 0.45731 0.0
H474 H 0.24878 0.26468 0.48381 0.0
H475 H 0.21619 0.20825 0.48845 0.0
H476 H 0.25145 0.13667 0.44766 0.0
H477 H 0.30054 0.17806 0.4294 0.0
C478 C 0.31151 0.2407 0.43339 0.0
C479 C 0.31269 0.27242 0.43562 0.0
C480 C 0.28639 0.21714 0.44775 0.0
C481 C 0.29077 0.28086 0.45503 0.0
C482 C 0.2663 0.25769 0.47007 0.0
C483 C 0.23518 0.20171 0.47641 0.0
C484 C 0.22992 0.16943 0.46906 0.0
C485 C 0.26296 0.2256 0.46549 0.0
C486 C 0.25458 0.16137 0.4531 0.0
C487 C 0.28268 0.18501 0.4427 0.0
H488 H 0.42372 0.89053 0.85076 0.0
H489 H 0.33221 0.91557 0.86093 0.0
H490 H 0.35931 0.94114 0.91582 0.0
H491 H 0.41119 0.96075 0.9587 0.0
H492 H 0.50452 0.93981 0.94589 0.0
H493 H 0.47471 0.9087 0.89403 0.0
C494 C 0.40972 0.90171 0.86487 0.0
C495 C 0.3761 0.90134 0.85153 0.0
C496 C 0.42592 0.91735 0.89586 0.0
C497 C 0.35798 0.91519 0.87062 0.0
C498 C 0.37359 0.93009 0.90194 0.0
C499 C 0.42478 0.949 0.94474 0.0
C500 C 0.45996 0.95262 0.95594 0.0
C501 C 0.40782 0.93189 0.9145 0.0
C502 C 0.47746 0.93753 0.93757 0.0
C503 C 0.46045 0.91974 0.90795 0.0
H504 H 0.60204 0.40682 0.67649 0.0
H505 H 0.54869 0.43602 0.74878 0.0
H506 H 0.53383 0.47223 0.71127 0.0
H507 H 0.53795 0.49748 0.65932 0.0
H508 H 0.59029 0.46917 0.58571 0.0
H509 H 0.60344 0.43072 0.62213 0.0
C510 C 0.58677 0.42082 0.68378 0.0
C511 C 0.57683 0.4189 0.71564 0.0
C512 C 0.57841 0.44198 0.66198 0.0
C513 C 0.55717 0.43734 0.72471 0.0
C514 C 0.54859 0.45806 0.70324 0.0
C515 C 0.55228 0.48294 0.65116 0.0
C516 C 0.56353 0.48649 0.62001 0.0
C517 C 0.55955 0.46096 0.67209 0.0
C518 C 0.58163 0.46711 0.6097 0.0
C519 C 0.58908 0.44509 0.63053 0.0
H520 H 0.90875 0.61456 0.17249 0.0
H521 H 0.98029 0.5959 0.24938 0.0
H522 H 1.00613 0.57444 0.20809 0.0
H523 H 1.00942 0.56146 0.14985 0.0
H524 H 0.93931 0.58164 0.07264 0.0
H525 H 0.91215 0.60159 0.11397 0.0
C526 C 0.92982 0.6056 0.18024 0.0
C527 C 0.94249 0.60708 0.21427 0.0
C528 C 0.94502 0.59348 0.15613 0.0
C529 C 0.97015 0.59555 0.22355 0.0
C530 C 0.98492 0.58309 0.19986 0.0
C531 C 0.98809 0.57008 0.14198 0.0
C532 C 0.97654 0.56984 0.1079 0.0
C533 C 0.97276 0.58205 0.16603 0.0
C534 C 0.94897 0.58145 0.0985 0.0
C535 C 0.93331 0.59291 0.12223 0.0
H536 H 0.43427 0.21407 0.24386 0.0
H537 H 0.43494 0.26537 0.15622 0.0
H538 H 0.43795 0.22032 0.12334 0.0
H539 H 0.43755 0.1655 0.11905 0.0
H540 H 0.43689 0.11402 0.20648 0.0
H541 H 0.4373 0.16022 0.24007 0.0
C542 C 0.43576 0.21561 0.21769 0.0
C543 C 0.4342 0.24295 0.20246 0.0
C544 C 0.43725 0.18954 0.1989 0.0
C545 C 0.43567 0.24442 0.16843 0.0
C546 C 0.43742 0.21871 0.14963 0.0
C547 C 0.43736 0.1644 0.14545 0.0
C548 C 0.43681 0.13636 0.16026 0.0
C549 C 0.43757 0.19096 0.1645 0.0
C550 C 0.43735 0.13541 0.19457 0.0
C551 C 0.43749 0.16176 0.21373 0.0
H552 H 0.21178 0.95401 0.61022 0.0
H553 H 0.12564 0.86879 0.62178 0.0
H554 H 0.08383 0.89594 0.60683 0.0
H555 H 0.07181 0.94349 0.59053 0.0
H556 H 0.15732 0.02877 0.57759 0.0
H557 H 0.19949 1.0019 0.59313 0.0
C558 C 0.18382 0.94131 0.60906 0.0
C559 C 0.17177 0.90944 0.61706 0.0
C560 C 0.15994 0.95709 0.60048 0.0
C561 C 0.13553 0.8934 0.616 0.0
C562 C 0.11164 0.90888 0.60741 0.0
C563 C 0.09968 0.95637 0.59129 0.0
C564 C 0.11143 0.98814 0.58305 0.0
C565 C 0.12359 0.94072 0.59979 0.0
C566 C 0.14762 1.00432 0.58393 0.0
C567 C 0.17171 0.98894 0.5927 0.0
H568 H 0.82681 0.45279 0.91145 0.0
H569 H 0.79353 0.3798 0.97868 0.0
H570 H 0.8483 0.40481 1.0165 0.0
H571 H 0.90671 0.44619 1.02942 0.0
H572 H 0.94155 0.51753 0.96086 0.0
H573 H 0.88504 0.49483 0.92485 0.0
C574 C 0.83152 0.44259 0.93453 0.0
C575 C 0.80632 0.41447 0.94225 0.0
C576 C 0.86332 0.45682 0.9559 0.0
C577 C 0.81278 0.40127 0.97207 0.0
C578 C 0.84399 0.4156 0.99375 0.0
C579 C 0.90175 0.45688 1.00673 0.0
C580 C 0.92813 0.48339 0.99769 0.0
C581 C 0.8696 0.44319 0.98577 0.0
C582 C 0.92158 0.49696 0.96816 0.0
C583 C 0.88933 0.48399 0.94758 0.0
H584 H 0.73631 0.62333 0.45976 0.0
H585 H 0.70913 0.53718 0.39674 0.0
H586 H 0.65809 0.51235 0.4245 0.0
H587 H 0.62036 0.51531 0.46651 0.0
H588 H 0.64753 0.60237 0.52819 0.0
H589 H 0.69937 0.62618 0.50163 0.0
C590 C 0.7195 0.59898 0.45226 0.0
C591 C 0.72688 0.58223 0.42613 0.0
C592 C 0.69004 0.58486 0.46827 0.0
C593 C 0.70413 0.55087 0.41648 0.0
C594 C 0.67495 0.53655 0.43252 0.0
C595 C 0.63781 0.53938 0.47436 0.0
C596 C 0.6299 0.55689 0.49955 0.0
C597 C 0.66754 0.55332 0.45845 0.0
C598 C 0.65273 0.58823 0.50897 0.0
C599 C 0.68248 0.60196 0.49372 0.0
H600 H 0.29663 0.46855 0.20906 0.0
H601 H 0.2513 0.36787 0.18156 0.0
H602 H 0.20294 0.37576 0.14547 0.0
H603 H 0.17069 0.41034 0.12622 0.0
H604 H 0.21338 0.51079 0.15572 0.0
H605 H 0.26597 0.50423 0.18591 0.0
C606 C 0.27643 0.44858 0.19461 0.0
C607 C 0.27716 0.4177 0.19787 0.0
C608 C 0.2482 0.45324 0.17451 0.0
C609 C 0.25092 0.3918 0.17937 0.0
C610 C 0.22332 0.39629 0.15885 0.0
C611 C 0.19159 0.43082 0.13915 0.0
C612 C 0.18797 0.46088 0.13915 0.0
C613 C 0.22118 0.42674 0.15698 0.0
C614 C 0.21559 0.48737 0.15533 0.0
C615 C 0.24554 0.4836 0.17278 0.0
H616 H 0.60163 0.19321 0.94233 0.0
H617 H 0.5051 0.16534 0.87392 0.0
H618 H 0.48267 0.11577 0.90081 0.0
H619 H 0.48944 0.08155 0.94568 0.0
H620 H 0.58646 0.10957 1.01354 0.0
H621 H 0.6097 0.1578 0.98502 0.0
C622 C 0.57564 0.1763 0.93332 0.0
C623 C 0.55492 0.18317 0.90633 0.0
C624 C 0.56298 0.14788 0.94889 0.0
C625 C 0.52162 0.16066 0.89456 0.0
C626 C 0.50873 0.13237 0.91005 0.0
C627 C 0.51576 0.09813 0.95408 0.0
C628 C 0.53608 0.09206 0.98189 0.0
C629 C 0.52901 0.12589 0.93749 0.0
C630 C 0.57022 0.11366 0.99229 0.0
C631 C 0.58351 0.14131 0.97603 0.0
H632 H 0.91622 0.8483 0.41725 0.0
H633 H 1.01174 0.82603 0.43486 0.0
H634 H 0.04224 0.87786 0.46408 0.0
H635 H 0.04253 0.92988 0.48531 0.0
H636 H 0.9463 0.95053 0.47308 0.0
H637 H 0.91533 0.89871 0.44226 0.0
C638 C 0.94354 0.85429 0.4278 0.0
C639 C 0.96137 0.83271 0.42292 0.0
C640 C 0.96096 0.88403 0.44595 0.0
C641 C 0.99712 0.84193 0.4368 0.0
C642 C 1.01471 0.87166 0.45407 0.0
C643 C 1.01473 0.923 0.47595 0.0
C644 C 0.99684 0.94421 0.48124 0.0
C645 C 0.99699 0.89295 0.45873 0.0
C646 C 0.96073 0.93473 0.46933 0.0
C647 C 0.94304 0.9051 0.4516 0.0
H648 H 0.43014 0.78803 0.58911 0.0
H649 H 0.34452 0.71008 0.61635 0.0
H650 H 0.37491 0.6733 0.60567 0.0
H651 H 0.428 0.66414 0.59371 0.0
H652 H 0.51443 0.74206 0.56773 0.0
H653 H 0.4819 0.77817 0.57376 0.0
C654 C 0.41808 0.76297 0.59259 0.0
C655 C 0.38517 0.75189 0.60364 0.0
C656 C 0.43609 0.74204 0.5872 0.0
C657 C 0.36962 0.71924 0.60747 0.0
C658 C 0.38715 0.69821 0.60172 0.0
C659 C 0.4395 0.68889 0.58878 0.0
C660 C 0.47368 0.70041 0.58049 0.0
C661 C 0.42069 0.70947 0.59226 0.0
C662 C 0.48839 0.73269 0.57469 0.0
C663 C 0.46973 0.75331 0.57793 0.0
H664 H 0.77032 0.75707 0.63912 0.0
H665 H 0.69679 0.80157 0.59972 0.0
H666 H 0.74392 0.84276 0.57862 0.0
H667 H 0.80723 0.87011 0.57866 0.0
H668 H 0.88078 0.8264 0.62 0.0
H669 H 0.83236 0.78051 0.6323 0.0
C670 C 0.76435 0.77514 0.62493 0.0
C671 C 0.7302 0.77647 0.62127 0.0
C672 C 0.79171 0.79914 0.61361 0.0
C673 C 0.72299 0.80028 0.60316 0.0
C674 C 0.74994 0.8239 0.59123 0.0
C675 C 0.81255 0.85032 0.58999 0.0
C676 C 0.84751 0.85181 0.59879 0.0
C677 C 0.78462 0.82428 0.59755 0.0
C678 C 0.85409 0.82579 0.61289 0.0
C679 C 0.82643 0.79963 0.62015 0.0
H680 H 0.63056 0.15005 0.22705 0.0
H681 H 0.72379 0.13738 0.20033 0.0
H682 H 0.69104 0.11033 0.14718 0.0
H683 H 0.63495 0.08624 0.11097 0.0
H684 H 0.54046 0.09508 0.13956 0.0
H685 H 0.57456 0.12782 0.18939 0.0
C686 C 0.64368 0.14187 0.20918 0.0
C687 C 0.67937 0.14571 0.21711 0.0
C688 C 0.6244 0.1254 0.17936 0.0
C689 C 0.69627 0.13464 0.19436 0.0
C690 C 0.67756 0.11913 0.16417 0.0
C691 C 0.62187 0.09567 0.12788 0.0
C692 C 0.58526 0.08814 0.12174 0.0
C693 C 0.64146 0.11375 0.15677 0.0
C694 C 0.56861 0.10033 0.14395 0.0
C695 C 0.58808 0.11908 0.17239 0.0
H696 H 0.44671 0.63532 0.41186 0.0
H697 H 0.50224 0.61341 0.33707 0.0
H698 H 0.52071 0.57769 0.37273 0.0
H699 H 0.51953 0.55096 0.4242 0.0
H700 H 0.46378 0.57174 0.49915 0.0
H701 H 0.44681 0.60932 0.46442 0.0
C702 C 0.46281 0.6227 0.40333 0.0
C703 C 0.47308 0.62728 0.37169 0.0
C704 C 0.47315 0.60179 0.42395 0.0
C705 C 0.49435 0.61092 0.36137 0.0
C706 C 0.5047 0.59019 0.38168 0.0
C707 C 0.50363 0.5637 0.43295 0.0
C708 C 0.49277 0.55844 0.46416 0.0
C709 C 0.49403 0.58522 0.41286 0.0
C710 C 0.47247 0.57535 0.47524 0.0
C711 C 0.46272 0.59681 0.45533 0.0
H712 H 0.0866 0.46182 0.84249 0.0
H713 H 0.16039 0.43578 0.91034 0.0
H714 H 0.14186 0.45794 0.95694 0.0
H715 H 0.10427 0.48484 0.97899 0.0
H716 H 0.03166 0.51182 0.91042 0.0
H717 H 0.04993 0.48926 0.86426 0.0
C718 C 0.09852 0.46078 0.86746 0.0
C719 C 0.12497 0.447 0.87258 0.0
C720 C 0.0879 0.47389 0.89435 0.0
C721 C 0.14029 0.44644 0.90533 0.0
C722 C 0.12956 0.45903 0.93215 0.0
C723 C 0.09244 0.48582 0.95397 0.0
C724 C 0.06647 0.50018 0.94856 0.0
C725 C 0.10337 0.4729 0.92705 0.0
C726 C 0.05171 0.50116 0.91572 0.0
C727 C 0.06212 0.48813 0.88909 0.0
H728 H 0.61475 0.79256 0.89392 0.0
H729 H 0.55654 0.81852 0.81085 0.0
H730 H 0.55459 0.86372 0.84434 0.0
H731 H 0.57357 0.8982 0.89579 0.0
H732 H 0.63269 0.87303 0.97871 0.0
H733 H 0.62987 0.82494 0.94689 0.0
C734 C 0.60092 0.80769 0.88344 0.0
C735 C 0.58591 0.80236 0.85 0.0
C736 C 0.6005 0.83396 0.90266 0.0
C737 C 0.56848 0.82236 0.83652 0.0
C738 C 0.56746 0.84822 0.85559 0.0
C739 C 0.58585 0.88216 0.90682 0.0
C740 C 0.60371 0.88927 0.93931 0.0
C741 C 0.5842 0.85472 0.8884 0.0
C742 C 0.61884 0.86801 0.95367 0.0
C743 C 0.61729 0.84058 0.93549 0.0
H744 H 0.84022 0.08201 0.46825 0.0
H745 H 0.92146 0.17018 0.45489 0.0
H746 H 0.96644 0.14707 0.47225 0.0
H747 H 0.98262 0.10181 0.49047 0.0
H748 H 0.9016 1.01338 0.50358 0.0
H749 H 0.85647 0.03644 0.48617 0.0
C750 C 0.86777 0.09611 0.46896 0.0
C751 C 0.87747 0.12778 0.46034 0.0
C752 C 0.89346 0.08255 0.47853 0.0
C753 C 0.9133 0.1459 0.46189 0.0
C754 C 0.93902 0.13262 0.4715 0.0
C755 C 0.95508 0.08745 0.48928 0.0
C756 C 0.94547 0.0559 0.49816 0.0
C757 C 0.92938 0.10094 0.4797 0.0
C758 C 0.90969 0.03773 0.49678 0.0
C759 C 0.88388 0.05092 0.48694 0.0
H760 H 0.24787 0.64674 0.10641 0.0
H761 H 0.21342 0.58314 0.18222 0.0
H762 H 0.15468 0.5612 0.15021 0.0
H763 H 0.11243 0.56151 0.10142 0.0
H764 H 0.14883 0.62206 1.02398 0.0
H765 H 0.20769 0.64346 0.0558 0.0
C766 C 0.22787 0.62764 0.1158 0.0
C767 C 0.23526 0.61692 0.14697 0.0
C768 C 0.19436 0.6147 0.09703 0.0
C769 C 0.20847 0.59246 0.15872 0.0
C770 C 0.17486 0.57973 0.14033 0.0
C771 C 0.13337 0.57924 0.09149 0.0
C772 C 0.12631 0.5904 0.06055 0.0
C773 C 0.16738 0.59098 0.10965 0.0
C774 C 0.15362 0.61318 0.0478 0.0
C775 C 0.18726 0.62544 0.06598 0.0
H776 H 0.32694 0.42006 0.62717 0.0
H777 H 0.34651 0.50978 0.68142 0.0
H778 H 0.3954 0.53526 0.65131 0.0
H779 H 0.43479 0.53152 0.61113 0.0
H780 H 0.41524 0.44086 0.55859 0.0
H781 H 0.36469 0.41657 0.58651 0.0
C782 C 0.34199 0.44515 0.63269 0.0
C783 C 0.33296 0.46277 0.6569 0.0
C784 C 0.37034 0.45963 0.61549 0.0
C785 C 0.35249 0.4955 0.66288 0.0
C786 C 0.38067 0.51012 0.64574 0.0
C787 C 0.41924 0.50654 0.60552 0.0
C788 C 0.42911 0.48815 0.58269 0.0
C789 C 0.3901 0.49238 0.62213 0.0
C790 C 0.40861 0.45571 0.57604 0.0
C791 C 0.37957 0.44169 0.59207 0.0
H792 H 0.76268 0.64324 0.89173 0.0
H793 H 0.79354 0.63683 0.79565 0.0
H794 H 0.8446 0.62468 0.82041 0.0
H795 H 0.88201 0.61829 0.86939 0.0
H796 H 0.85253 0.62562 0.96581 0.0
H797 H 0.79936 0.63489 0.94093 0.0
C798 C 0.78059 0.63915 0.87626 0.0
C799 C 0.77425 0.64092 0.84188 0.0
C800 C 0.81019 0.63246 0.89071 0.0
C801 C 0.79747 0.63518 0.8221 0.0
C802 C 0.82686 0.62847 0.83626 0.0
C803 C 0.86399 0.62203 0.88495 0.0
C804 C 0.87131 0.6216 0.91937 0.0
C805 C 0.8337 0.62744 0.87053 0.0
C806 C 0.84737 0.62576 0.93922 0.0
C807 C 0.81709 0.63121 0.92502 0.0
H808 H 0.43546 0.84828 0.14185 0.0
H809 H 0.53528 0.86998 0.20446 0.0
H810 H 0.55998 0.91751 0.17546 0.0
H811 H 0.55357 0.95278 0.13183 0.0
H812 H 0.45354 0.93154 0.06992 0.0
H813 H 0.42844 0.88445 0.09964 0.0
C814 C 0.46249 0.86358 0.14956 0.0
C815 C 0.48339 0.85531 0.17544 0.0
C816 C 0.47651 0.89111 0.13291 0.0
C817 C 0.51861 0.87531 0.18442 0.0
C818 C 0.53273 0.90269 0.16796 0.0
C819 C 0.52622 0.93793 0.12495 0.0
C820 C 0.50548 0.94563 0.0986 0.0
C821 C 0.51199 0.91077 0.14207 0.0
C822 C 0.47009 0.92615 0.09005 0.0
C823 C 0.45574 0.89917 0.10701 0.0
H824 H 0.14048 0.21315 0.64343 0.0
H825 H 0.04795 0.20684 0.68732 0.0
H826 H 1.01829 0.15331 0.66141 0.0
H827 H 1.01805 0.10775 0.62661 0.0
H828 H 0.11097 0.11176 0.58513 0.0
H829 H 0.14108 0.16626 0.61023 0.0
C830 C 0.114 0.20006 0.64778 0.0
C831 C 0.09664 0.21473 0.66732 0.0
C832 C 0.09706 0.16861 0.63326 0.0
C833 C 0.06201 0.197 0.67194 0.0
C834 C 0.04498 0.16606 0.65731 0.0
C835 C 0.04495 0.12048 0.62309 0.0
C836 C 0.0622 0.1056 0.60396 0.0
C837 C 0.06216 0.15163 0.63789 0.0
C838 C 0.09709 0.12253 0.59979 0.0
C839 C 0.11428 0.15375 0.61412 0.0
H840 H 0.70069 0.33137 0.46329 0.0
H841 H 0.61975 0.24024 0.46614 0.0
H842 H 0.57912 0.26662 0.47922 0.0
H843 H 0.56521 0.31545 0.48506 0.0
H844 H 0.64642 0.40663 0.48251 0.0
H845 H 0.68804 0.38028 0.47315 0.0
C846 C 0.6742 0.31733 0.46696 0.0
C847 C 0.66316 0.28396 0.46358 0.0
C848 C 0.65086 0.33261 0.47391 0.0
C849 C 0.62897 0.26599 0.46891 0.0
C850 C 0.60563 0.28104 0.47606 0.0
C851 C 0.59214 0.3296 0.483 0.0
C852 C 0.60249 0.36297 0.48406 0.0
C853 C 0.61609 0.31433 0.47797 0.0
C854 C 0.63747 0.38089 0.48099 0.0
C855 C 0.66141 0.36587 0.47592 0.0
loop_
_geom_bond_atom_site_label_1
_geom_bond_atom_site_label_2
_geom_bond_distance
_geom_bond_site_symmetry_2
_ccdc_geom_bond_type
C0 C1 1.386 . S
C0 C2 1.397 . S
C0 H24 0.931 . S
C1 C0 1.386 . S
C1 C5 1.397 . S
C2 C0 1.397 . S
C2 C3 1.384 . S
C2 H25 0.930 . S
C3 C2 1.384 . S
C3 C4 1.377 . S
C3 C6 1.481 . S
C4 C3 1.377 . S
C4 C5 1.389 . S
C4 H26 0.929 . S
C5 C1 1.397 . S
C5 C4 1.389 . S
C5 H27 0.931 . S
C6 C3 1.481 . S
C6 C7 1.387 . S
C6 C11 1.390 . S
C7 C6 1.387 . S
C7 C8 1.401 . S
C7 H28 0.930 . S
C8 C7 1.401 . S
C8 C9 1.376 . S
C8 C17 1.511 . S
C9 C8 1.376 . S
C9 C10 1.392 . S
C9 H30 0.931 . S
C10 C9 1.392 . S
C10 C11 1.361 . S
C10 C12 1.500 . S
C11 C6 1.390 . S
C11 C10 1.361 . S
C11 H29 0.931 . S
C12 C10 1.500 . S
C12 C13 1.371 . S
C12 C14 1.365 . S
C13 C12 1.371 . S
C13 C23 1.386 . S
C13 H31 0.931 . S
C14 C12 1.365 . S
C14 C15 1.409 . S
C14 H32 0.929 . S
C15 C14 1.409 . S
C15 C16 1.380 . S
C15 H33 0.930 . S
C16 C15 1.380 . S
C16 C23 1.357 . S
C17 C8 1.511 . S
C17 C18 1.341 . S
C17 C19 1.371 . S
C18 C17 1.341 . S
C18 C22 1.394 . S
C18 H34 0.930 . S
C19 C17 1.371 . S
C19 C20 1.392 . S
C19 H35 0.931 . S
C20 C19 1.392 . S
C20 C21 1.331 . S
C20 H38 0.932 . S
C21 C20 1.331 . S
C21 C22 1.336 . S
C22 C18 1.394 . S
C22 C21 1.336 . S
C22 H37 0.929 . S
C23 C13 1.386 . S
C23 C16 1.357 . S
C23 H36 0.928 . S
H24 C0 0.931 . S
H25 C2 0.930 . S
H26 C4 0.929 . S
H27 C5 0.931 . S
H28 C7 0.930 . S
H29 C11 0.931 . S
H30 C9 0.931 . S
H31 C13 0.931 . S
H32 C14 0.929 . S
H33 C15 0.930 . S
H34 C18 0.930 . S
H35 C19 0.931 . S
H36 C23 0.928 . S
H37 C22 0.929 . S
H38 C20 0.932 . S
C39 C40 1.386 . S
C39 C41 1.397 . S
C39 H63 0.931 . S
C40 C39 1.386 . S
C40 C44 1.397 . S
C41 C39 1.397 . S
C41 C42 1.384 . S
C41 H64 0.930 . S
C42 C41 1.384 . S
C42 C43 1.377 . S
C42 C45 1.481 . S
C43 C42 1.377 . S
C43 C44 1.389 . S
C43 H65 0.929 . S
C44 C40 1.397 . S
C44 C43 1.389 . S
C44 H66 0.931 . S
C45 C42 1.481 . S
C45 C46 1.387 . S
C45 C50 1.390 . S
C46 C45 1.387 . S
C46 C47 1.401 . S
C46 H67 0.930 . S
C47 C46 1.401 . S
C47 C48 1.376 . S
C47 C56 1.511 . S
C48 C47 1.376 . S
C48 C49 1.392 . S
C48 H69 0.931 . S
C49 C48 1.392 . S
C49 C50 1.361 . S
C49 C51 1.500 . S
C50 C45 1.390 . S
C50 C49 1.361 . S
C50 H68 0.931 . S
C51 C49 1.500 . S
C51 C52 1.371 . S
C51 C53 1.365 . S
C52 C51 1.371 . S
C52 C62 1.386 . S
C52 H70 0.931 . S
C53 C51 1.365 . S
C53 C54 1.409 . S
C53 H71 0.929 . S
C54 C53 1.409 . S
C54 C55 1.380 . S
C54 H72 0.930 . S
C55 C54 1.380 . S
C55 C62 1.357 . S
C56 C47 1.511 . S
C56 C57 1.341 . S
C56 C58 1.371 . S
C57 C56 1.341 . S
C57 C61 1.394 . S
C57 H73 0.930 . S
C58 C56 1.371 . S
C58 C59 1.392 . S
C58 H74 0.931 . S
C59 C58 1.392 . S
C59 C60 1.331 . S
C59 H77 0.932 . S
C60 C59 1.331 . S
C60 C61 1.336 . S
C61 C57 1.394 . S
C61 C60 1.336 . S
C61 H76 0.929 . S
C62 C52 1.386 . S
C62 C55 1.357 . S
C62 H75 0.928 . S
H63 C39 0.931 . S
H64 C41 0.930 . S
H65 C43 0.929 . S
H66 C44 0.931 . S
H67 C46 0.930 . S
H68 C50 0.931 . S
H69 C48 0.931 . S
H70 C52 0.931 . S
H71 C53 0.929 . S
H72 C54 0.930 . S
H73 C57 0.930 . S
H74 C58 0.931 . S
H75 C62 0.928 . S
H76 C61 0.929 . S
H77 C59 0.932 . S
C78 C79 1.386 . S
C78 C80 1.397 . S
C78 H102 0.931 . S
C79 C78 1.386 . S
C79 C83 1.397 . S
C80 C78 1.397 . S
C80 C81 1.384 . S
C80 H103 0.930 . S
C81 C80 1.384 . S
C81 C82 1.377 . S
C81 C84 1.481 . S
C82 C81 1.377 . S
C82 C83 1.389 . S
C82 H104 0.929 . S
C83 C79 1.397 . S
C83 C82 1.389 . S
C83 H105 0.931 . S
C84 C81 1.481 . S
C84 C85 1.387 . S
C84 C89 1.390 . S
C85 C84 1.387 . S
C85 C86 1.401 . S
C85 H106 0.930 . S
C86 C85 1.401 . S
C86 C87 1.376 . S
C86 C95 1.511 . S
C87 C86 1.376 . S
C87 C88 1.392 . S
C87 H108 0.931 . S
C88 C87 1.392 . S
C88 C89 1.361 . S
C88 C90 1.500 . S
C89 C84 1.390 . S
C89 C88 1.361 . S
C89 H107 0.931 . S
C90 C88 1.500 . S
C90 C91 1.371 . S
C90 C92 1.365 . S
C91 C90 1.371 . S
C91 C101 1.386 . S
C91 H109 0.931 . S
C92 C90 1.365 . S
C92 C93 1.409 . S
C92 H110 0.929 . S
C93 C92 1.409 . S
C93 C94 1.380 . S
C93 H111 0.930 . S
C94 C93 1.380 . S
C94 C101 1.357 . S
C95 C86 1.511 . S
C95 C96 1.341 . S
C95 C97 1.371 . S
C96 C95 1.341 . S
C96 C100 1.394 . S
C96 H112 0.930 . S
C97 C95 1.371 . S
C97 C98 1.392 . S
C97 H113 0.931 . S
C98 C97 1.392 . S
C98 C99 1.331 . S
C98 H116 0.932 . S
C99 C98 1.331 . S
C99 C100 1.336 . S
C100 C96 1.394 . S
C100 C99 1.336 . S
C100 H115 0.929 . S
C101 C91 1.386 . S
C101 C94 1.357 . S
C101 H114 0.928 . S
H102 C78 0.931 . S
H103 C80 0.930 . S
H104 C82 0.929 . S
H105 C83 0.931 . S
H106 C85 0.930 . S
H107 C89 0.931 . S
H108 C87 0.931 . S
H109 C91 0.931 . S
H110 C92 0.929 . S
H111 C93 0.930 . S
H112 C96 0.930 . S
H113 C97 0.931 . S
H114 C101 0.928 . S
H115 C100 0.929 . S
H116 C98 0.932 . S
C117 C118 1.386 . S
C117 C119 1.397 . S
C117 H141 0.931 . S
C118 C117 1.386 . S
C118 C122 1.397 . S
C119 C117 1.397 . S
C119 C120 1.384 . S
C119 H142 0.930 . S
C120 C119 1.384 . S
C120 C121 1.377 . S
C120 C123 1.481 . S
C121 C120 1.377 . S
C121 C122 1.389 . S
C121 H143 0.929 . S
C122 C118 1.397 . S
C122 C121 1.389 . S
C122 H144 0.931 . S
C123 C120 1.481 . S
C123 C124 1.387 . S
C123 C128 1.390 . S
C124 C123 1.387 . S
C124 C125 1.401 . S
C124 H145 0.930 . S
C125 C124 1.401 . S
C125 C126 1.376 . S
C125 C134 1.511 . S
C126 C125 1.376 . S
C126 C127 1.392 . S
C126 H147 0.931 . S
C127 C126 1.392 . S
C127 C128 1.361 . S
C127 C129 1.500 . S
C128 C123 1.390 . S
C128 C127 1.361 . S
C128 H146 0.931 . S
C129 C127 1.500 . S
C129 C130 1.371 . S
C129 C131 1.365 . S
C130 C129 1.371 . S
C130 C140 1.386 . S
C130 H148 0.931 . S
C131 C129 1.365 . S
C131 C132 1.409 . S
C131 H149 0.929 . S
C132 C131 1.409 . S
C132 C133 1.380 . S
C132 H150 0.930 . S
C133 C132 1.380 . S
C133 C140 1.357 . S
C134 C125 1.511 . S
C134 C135 1.341 . S
C134 C136 1.371 . S
C135 C134 1.341 . S
C135 C139 1.394 . S
C135 H151 0.930 . S
C136 C134 1.371 . S
C136 C137 1.392 . S
C136 H152 0.931 . S
C137 C136 1.392 . S
C137 C138 1.331 . S
C137 H155 0.932 . S
C138 C137 1.331 . S
C138 C139 1.336 . S
C139 C135 1.394 . S
C139 C138 1.336 . S
C139 H154 0.929 . S
C140 C130 1.386 . S
C140 C133 1.357 . S
C140 H153 0.928 . S
H141 C117 0.931 . S
H142 C119 0.930 . S
H143 C121 0.929 . S
H144 C122 0.931 . S
H145 C124 0.930 . S
H146 C128 0.931 . S
H147 C126 0.931 . S
H148 C130 0.931 . S
H149 C131 0.929 . S
H150 C132 0.930 . S
H151 C135 0.930 . S
H152 C136 0.931 . S
H153 C140 0.928 . S
H154 C139 0.929 . S
H155 C137 0.932 . S
C156 C157 1.386 . S
C156 C158 1.397 . S
C156 H180 0.931 . S
C157 C156 1.386 . S
C157 C161 1.397 . S
C158 C156 1.397 . S
C158 C159 1.384 . S
C158 H181 0.930 . S
C159 C158 1.384 . S
C159 C160 1.377 . S
C159 C162 1.481 . S
C160 C159 1.377 . S
C160 C161 1.389 . S
C160 H182 0.929 . S
C161 C157 1.397 . S
C161 C160 1.389 . S
C161 H183 0.931 . S
C162 C159 1.481 . S
C162 C163 1.387 . S
C162 C167 1.390 . S
C163 C162 1.387 . S
C163 C164 1.401 . S
C163 H184 0.930 . S
C164 C163 1.401 . S
C164 C165 1.376 . S
C164 C173 1.511 . S
C165 C164 1.376 . S
C165 C166 1.392 . S
C165 H186 0.931 . S
C166 C165 1.392 . S
C166 C167 1.361 . S
C166 C168 1.500 . S
C167 C162 1.390 . S
C167 C166 1.361 . S
C167 H185 0.931 . S
C168 C166 1.500 . S
C168 C169 1.371 . S
C168 C170 1.365 . S
C169 C168 1.371 . S
C169 C179 1.386 . S
C169 H187 0.931 . S
C170 C168 1.365 . S
C170 C171 1.409 . S
C170 H188 0.929 . S
C171 C170 1.409 . S
C171 C172 1.380 . S
C171 H189 0.930 . S
C172 C171 1.380 . S
C172 C179 1.357 . S
C173 C164 1.511 . S
C173 C174 1.341 . S
C173 C175 1.371 . S
C174 C173 1.341 . S
C174 C178 1.394 . S
C174 H190 0.930 . S
C175 C173 1.371 . S
C175 C176 1.392 . S
C175 H191 0.931 . S
C176 C175 1.392 . S
C176 C177 1.331 . S
C176 H194 0.932 . S
C177 C176 1.331 . S
C177 C178 1.336 . S
C178 C174 1.394 . S
C178 C177 1.336 . S
C178 H193 0.929 . S
C179 C169 1.386 . S
C179 C172 1.357 . S
C179 H192 0.928 . S
H180 C156 0.931 . S
H181 C158 0.930 . S
H182 C160 0.929 . S
H183 C161 0.931 . S
H184 C163 0.930 . S
H185 C167 0.931 . S
H186 C165 0.931 . S
H187 C169 0.931 . S
H188 C170 0.929 . S
H189 C171 0.930 . S
H190 C174 0.930 . S
H191 C175 0.931 . S
H192 C179 0.928 . S
H193 C178 0.929 . S
H194 C176 0.932 . S
C195 C196 1.386 . S
C195 C197 1.397 . S
C195 H219 0.931 . S
C196 C195 1.386 . S
C196 C200 1.397 . S
C197 C195 1.397 . S
C197 C198 1.384 . S
C197 H220 0.930 . S
C198 C197 1.384 . S
C198 C199 1.377 . S
C198 C201 1.481 . S
C199 C198 1.377 . S
C199 C200 1.389 . S
C199 H221 0.929 . S
C200 C196 1.397 . S
C200 C199 1.389 . S
C200 H222 0.931 . S
C201 C198 1.481 . S
C201 C202 1.387 . S
C201 C206 1.390 . S
C202 C201 1.387 . S
C202 C203 1.401 . S
C202 H223 0.930 . S
C203 C202 1.401 . S
C203 C204 1.376 . S
C203 C212 1.511 . S
C204 C203 1.376 . S
C204 C205 1.392 . S
C204 H225 0.931 . S
C205 C204 1.392 . S
C205 C206 1.361 . S
C205 C207 1.500 . S
C206 C201 1.390 . S
C206 C205 1.361 . S
C206 H224 0.931 . S
C207 C205 1.500 . S
C207 C208 1.371 . S
C207 C209 1.365 . S
C208 C207 1.371 . S
C208 C218 1.386 . S
C208 H226 0.931 . S
C209 C207 1.365 . S
C209 C210 1.409 . S
C209 H227 0.929 . S
C210 C209 1.409 . S
C210 C211 1.380 . S
C210 H228 0.930 . S
C211 C210 1.380 . S
C211 C218 1.357 . S
C212 C203 1.511 . S
C212 C213 1.341 . S
C212 C214 1.371 . S
C213 C212 1.341 . S
C213 C217 1.394 . S
C213 H229 0.930 . S
C214 C212 1.371 . S
C214 C215 1.392 . S
C214 H230 0.931 . S
C215 C214 1.392 . S
C215 C216 1.331 . S
C215 H233 0.932 . S
C216 C215 1.331 . S
C216 C217 1.336 . S
C217 C213 1.394 . S
C217 C216 1.336 . S
C217 H232 0.929 . S
C218 C208 1.386 . S
C218 C211 1.357 . S
C218 H231 0.928 . S
H219 C195 0.931 . S
H220 C197 0.930 . S
H221 C199 0.929 . S
H222 C200 0.931 . S
H223 C202 0.930 . S
H224 C206 0.931 . S
H225 C204 0.931 . S
H226 C208 0.931 . S
H227 C209 0.929 . S
H228 C210 0.930 . S
H229 C213 0.930 . S
H230 C214 0.931 . S
H231 C218 0.928 . S
H232 C217 0.929 . S
H233 C215 0.932 . S
C234 C235 1.386 . S
C234 C236 1.397 . S
C234 H258 0.931 . S
C235 C234 1.386 . S
C235 C239 1.397 . S
C236 C234 1.397 . S
C236 C237 1.384 . S
C236 H259 0.930 . S
C237 C236 1.384 . S
C237 C238 1.377 . S
C237 C240 1.481 . S
C238 C237 1.377 . S
C238 C239 1.389 . S
C238 H260 0.929 . S
C239 C235 1.397 . S
C239 C238 1.389 . S
C239 H261 0.931 . S
C240 C237 1.481 . S
C240 C241 1.387 . S
C240 C245 1.390 . S
C241 C240 1.387 . S
C241 C242 1.401 . S
C241 H262 0.930 . S
C242 C241 1.401 . S
C242 C243 1.376 . S
C242 C251 1.511 . S
C243 C242 1.376 . S
C243 C244 1.392 . S
C243 H264 0.931 . S
C244 C243 1.392 . S
C244 C245 1.361 . S
C244 C246 1.500 . S
C245 C240 1.390 . S
C245 C244 1.361 . S
C245 H263 0.931 . S
C246 C244 1.500 . S
C246 C247 1.371 . S
C246 C248 1.365 . S
C247 C246 1.371 . S
C247 C257 1.386 . S
C247 H265 0.931 . S
C248 C246 1.365 . S
C248 C249 1.409 . S
C248 H266 0.929 . S
C249 C248 1.409 . S
C249 C250 1.380 . S
C249 H267 0.930 . S
C250 C249 1.380 . S
C250 C257 1.357 . S
C251 C242 1.511 . S
C251 C252 1.341 . S
C251 C253 1.371 . S
C252 C251 1.341 . S
C252 C256 1.394 . S
C252 H268 0.930 . S
C253 C251 1.371 . S
C253 C254 1.392 . S
C253 H269 0.931 . S
C254 C253 1.392 . S
C254 C255 1.331 . S
C254 H272 0.932 . S
C255 C254 1.331 . S
C255 C256 1.336 . S
C256 C252 1.394 . S
C256 C255 1.336 . S
C256 H271 0.929 . S
C257 C247 1.386 . S
C257 C250 1.357 . S
C257 H270 0.928 . S
H258 C234 0.931 . S
H259 C236 0.930 . S
H260 C238 0.929 . S
H261 C239 0.931 . S
H262 C241 0.930 . S
H263 C245 0.931 . S
H264 C243 0.931 . S
H265 C247 0.931 . S
H266 C248 0.929 . S
H267 C249 0.930 . S
H268 C252 0.930 . S
H269 C253 0.931 . S
H270 C257 0.928 . S
H271 C256 0.929 . S
H272 C254 0.932 . S
C273 C274 1.386 . S
C273 C275 1.397 . S
C273 H297 0.931 . S
C274 C273 1.386 . S
C274 C278 1.397 . S
C275 C273 1.397 . S
C275 C276 1.384 . S
C275 H298 0.930 . S
C276 C275 1.384 . S
C276 C277 1.377 . S
C276 C279 1.481 . S
C277 C276 1.377 . S
C277 C278 1.389 . S
C277 H299 0.929 . S
C278 C274 1.397 . S
C278 C277 1.389 . S
C278 H300 0.931 . S
C279 C276 1.481 . S
C279 C280 1.387 . S
C279 C284 1.390 . S
C280 C279 1.387 . S
C280 C281 1.401 . S
C280 H301 0.930 . S
C281 C280 1.401 . S
C281 C282 1.376 . S
C281 C290 1.511 . S
C282 C281 1.376 . S
C282 C283 1.392 . S
C282 H303 0.931 . S
C283 C282 1.392 . S
C283 C284 1.361 . S
C283 C285 1.500 . S
C284 C279 1.390 . S
C284 C283 1.361 . S
C284 H302 0.931 . S
C285 C283 1.500 . S
C285 C286 1.371 . S
C285 C287 1.365 . S
C286 C285 1.371 . S
C286 C296 1.386 . S
C286 H304 0.931 . S
C287 C285 1.365 . S
C287 C288 1.409 . S
C287 H305 0.929 . S
C288 C287 1.409 . S
C288 C289 1.380 . S
C288 H306 0.930 . S
C289 C288 1.380 . S
C289 C296 1.357 . S
C290 C281 1.511 . S
C290 C291 1.341 . S
C290 C292 1.371 . S
C291 C290 1.341 . S
C291 C295 1.394 . S
C291 H307 0.930 . S
C292 C290 1.371 . S
C292 C293 1.392 . S
C292 H308 0.931 . S
C293 C292 1.392 . S
C293 C294 1.331 . S
C293 H311 0.932 . S
C294 C293 1.331 . S
C294 C295 1.336 . S
C295 C291 1.394 . S
C295 C294 1.336 . S
C295 H310 0.929 . S
C296 C286 1.386 . S
C296 C289 1.357 . S
C296 H309 0.928 . S
H297 C273 0.931 . S
H298 C275 0.930 . S
H299 C277 0.929 . S
H300 C278 0.931 . S
H301 C280 0.930 . S
H302 C284 0.931 . S
H303 C282 0.931 . S
H304 C286 0.931 . S
H305 C287 0.929 . S
H306 C288 0.930 . S
H307 C291 0.930 . S
H308 C292 0.931 . S
H309 C296 0.928 . S
H310 C295 0.929 . S
H311 C293 0.932 . S
Pr312 C314 2.880 . S
Pr312 O332 2.562 . S
Pr312 O333 2.490 . S
Pr312 O334 2.695 1_665 S
Pr312 O335 2.512 1_665 S
Pr312 O337 2.437 1_655 S
Pr312 O340 2.436 . S
Pr312 O342 2.438 1_565 S
Pr313 C323 2.880 . S
Pr313 O334 2.436 . S
Pr313 O336 2.438 1_545 S
Pr313 O338 2.562 . S
Pr313 O339 2.490 . S
Pr313 O340 2.695 1_445 S
Pr313 O341 2.512 1_545 S
Pr313 O343 2.437 1_455 S
C314 Pr312 2.880 . S
C314 C315 1.491 . S
C314 O332 1.254 . S
C314 O333 1.225 . S
C315 C314 1.491 . S
C315 C316 1.392 . S
C315 C320 1.356 . S
C316 C315 1.392 . S
C316 C317 1.368 . S
C316 H344 0.929 . S
C317 C316 1.368 . S
C317 C318 1.386 . S
C317 H345 0.929 . S
C318 C317 1.386 . S
C318 C319 1.373 . S
C319 C318 1.373 . S
C319 C320 1.409 . S
C319 H346 0.931 . S
C320 C315 1.356 . S
C320 C319 1.409 . S
C320 H347 0.930 . S
C321 O334 1.270 . S
C321 O335 1.248 . S
C322 O336 1.267 . S
C322 O337 1.278 . S
C323 Pr313 2.880 . S
C323 C324 1.491 . S
C323 O338 1.254 . S
C323 O339 1.225 . S
C324 C323 1.491 . S
C324 C325 1.392 . S
C324 C329 1.356 . S
C325 C324 1.392 . S
C325 C326 1.368 . S
C325 H348 0.929 . S
C326 C325 1.368 . S
C326 C327 1.386 . S
C326 H349 0.929 . S
C327 C326 1.386 . S
C327 C328 1.373 . S
C328 C327 1.373 . S
C328 C329 1.409 . S
C328 H350 0.931 . S
C329 C324 1.356 . S
C329 C328 1.409 . S
C329 H351 0.930 . S
C330 O340 1.270 . S
C330 O341 1.248 1_655 S
C331 O342 1.267 . S
C331 O343 1.278 . S
O332 Pr312 2.562 . S
O332 C314 1.254 . S
O333 Pr312 2.490 . S
O333 C314 1.225 . S
O334 Pr312 2.695 1_445 S
O334 Pr313 2.436 . S
O334 C321 1.270 . S
O335 Pr312 2.512 1_445 S
O335 C321 1.248 . S
O336 Pr313 2.438 1_565 S
O336 C322 1.267 . S
O337 Pr312 2.437 1_455 S
O337 C322 1.278 . S
O338 Pr313 2.562 . S
O338 C323 1.254 . S
O339 Pr313 2.490 . S
O339 C323 1.225 . S
O340 Pr312 2.436 . S
O340 Pr313 2.695 1_665 S
O340 C330 1.270 . S
O341 Pr313 2.512 1_565 S
O341 C330 1.248 1_455 S
O342 Pr312 2.438 1_545 S
O342 C331 1.267 . S
O343 Pr313 2.437 1_655 S
O343 C331 1.278 . S
H344 C316 0.929 . S
H345 C317 0.929 . S
H346 C319 0.931 . S
H347 C320 0.930 . S
H348 C325 0.929 . S
H349 C326 0.929 . S
H350 C328 0.931 . S
H351 C329 0.930 . S
Pr352 C354 2.880 . S
Pr352 O372 2.562 . S
Pr352 O373 2.490 . S
Pr352 O374 2.695 1_554 S
Pr352 O375 2.512 1_554 S
Pr352 O377 2.437 . S
Pr352 O380 2.436 1_545 S
Pr352 O382 2.438 1_544 S
Pr353 C363 2.855 1_554 S
Pr353 O374 2.422 1_564 S
Pr353 O376 2.462 1_565 S
Pr353 O378 2.530 1_554 S
Pr353 O379 2.478 1_554 S
Pr353 O380 2.716 . S
Pr353 O381 2.536 . S
Pr353 O383 2.423 1_554 S
C354 Pr352 2.880 . S
C354 C355 1.491 . S
C354 O372 1.254 . S
C354 O373 1.225 . S
C355 C354 1.491 . S
C355 C356 1.392 . S
C355 C360 1.356 . S
C356 C355 1.392 . S
C356 C357 1.368 . S
C356 H384 0.929 . S
C357 C356 1.368 . S
C357 C358 1.386 . S
C357 H385 0.929 . S
C358 C357 1.386 . S
C358 C359 1.373 . S
C359 C358 1.373 . S
C359 C360 1.409 . S
C359 H386 0.931 . S
C360 C355 1.356 . S
C360 C359 1.409 . S
C360 H387 0.930 . S
C361 O374 1.270 . S
C361 O375 1.248 . S
C362 O376 1.267 . S
C362 O377 1.278 . S
C363 Pr353 2.855 1_556 S
C363 C364 1.491 . S
C363 O378 1.254 . S
C363 O379 1.225 . S
C364 C363 1.491 . S
C364 C365 1.392 . S
C364 C369 1.356 . S
C365 C364 1.392 . S
C365 C366 1.368 . S
C365 H388 0.929 . S
C366 C365 1.368 . S
C366 C367 1.386 . S
C366 H389 0.929 . S
C367 C366 1.386 . S
C367 C368 1.373 . S
C368 C367 1.373 . S
C368 C369 1.409 . S
C368 H390 0.931 . S
C369 C364 1.356 . S
C369 C368 1.409 . S
C369 H391 0.930 . S
C370 O380 1.270 . S
C370 O381 1.248 . S
C371 O382 1.267 . S
C371 O383 1.278 . S
O372 Pr352 2.562 . S
O372 C354 1.254 . S
O373 Pr352 2.490 . S
O373 C354 1.225 . S
O374 Pr352 2.695 1_556 S
O374 Pr353 2.422 1_546 S
O374 C361 1.270 . S
O375 Pr352 2.512 1_556 S
O375 C361 1.248 . S
O376 Pr353 2.462 1_545 S
O376 C362 1.267 . S
O377 Pr352 2.437 . S
O377 C362 1.278 . S
O378 Pr353 2.530 1_556 S
O378 C363 1.254 . S
O379 Pr353 2.478 1_556 S
O379 C363 1.225 . S
O380 Pr352 2.436 1_565 S
O380 Pr353 2.716 . S
O380 C370 1.270 . S
O381 Pr353 2.536 . S
O381 C370 1.248 . S
O382 Pr352 2.438 1_566 S
O382 C371 1.267 . S
O383 Pr353 2.423 1_556 S
O383 C371 1.278 . S
H384 C356 0.929 . S
H385 C357 0.929 . S
H386 C359 0.931 . S
H387 C360 0.930 . S
H388 C365 0.929 . S
H389 C366 0.929 . S
H390 C368 0.931 . S
H391 C369 0.930 . S
Pr392 C394 2.880 . S
Pr392 O412 2.562 . S
Pr392 O413 2.490 . S
Pr392 O414 2.695 . S
Pr392 O415 2.512 . S
Pr392 O417 2.437 . S
Pr392 O420 2.436 . S
Pr392 O422 2.438 . S
Pr393 C403 2.880 . S
Pr393 O414 2.436 . S
Pr393 O416 2.438 . S
Pr393 O418 2.562 . S
Pr393 O419 2.490 . S
Pr393 O420 2.695 . S
Pr393 O421 2.512 . S
Pr393 O423 2.437 . S
C394 Pr392 2.880 . S
C394 C395 1.491 . S
C394 O412 1.254 . S
C394 O413 1.225 . S
C395 C394 1.491 . S
C395 C396 1.392 . S
C395 C400 1.356 . S
C396 C395 1.392 . S
C396 C397 1.368 . S
C396 H424 0.929 . S
C397 C396 1.368 . S
C397 C398 1.386 . S
C397 H425 0.929 . S
C398 C397 1.386 . S
C398 C399 1.373 . S
C399 C398 1.373 . S
C399 C400 1.409 . S
C399 H426 0.931 . S
C400 C395 1.356 . S
C400 C399 1.409 . S
C400 H427 0.930 . S
C401 O414 1.270 . S
C401 O415 1.248 . S
C402 O416 1.267 . S
C402 O417 1.278 . S
C403 Pr393 2.880 . S
C403 C404 1.491 . S
C403 O418 1.254 . S
C403 O419 1.225 . S
C404 C403 1.491 . S
C404 C405 1.392 . S
C404 C409 1.356 . S
C405 C404 1.392 . S
C405 C406 1.368 . S
C405 H428 0.929 . S
C406 C405 1.368 . S
C406 C407 1.386 . S
C406 H429 0.929 . S
C407 C406 1.386 . S
C407 C408 1.373 . S
C408 C407 1.373 . S
C408 C409 1.409 . S
C408 H430 0.931 . S
C409 C404 1.356 . S
C409 C408 1.409 . S
C409 H431 0.930 . S
C410 O420 1.270 . S
C410 O421 1.248 . S
C411 O422 1.267 . S
C411 O423 1.278 . S
O412 Pr392 2.562 . S
O412 C394 1.254 . S
O413 Pr392 2.490 . S
O413 C394 1.225 . S
O414 Pr392 2.695 . S
O414 Pr393 2.436 . S
O414 C401 1.270 . S
O415 Pr392 2.512 . S
O415 C401 1.248 . S
O416 Pr393 2.438 . S
O416 C402 1.267 . S
O417 Pr392 2.437 . S
O417 C402 1.278 . S
O418 Pr393 2.562 . S
O418 C403 1.254 . S
O419 Pr393 2.490 . S
O419 C403 1.225 . S
O420 Pr392 2.436 . S
O420 Pr393 2.695 . S
O420 C410 1.270 . S
O421 Pr393 2.512 . S
O421 C410 1.248 . S
O422 Pr392 2.438 . S
O422 C411 1.267 . S
O423 Pr393 2.437 . S
O423 C411 1.278 . S
H424 C396 0.929 . S
H425 C397 0.929 . S
H426 C399 0.931 . S
H427 C400 0.930 . S
H428 C405 0.929 . S
H429 C406 0.929 . S
H430 C408 0.931 . S
H431 C409 0.930 . S
Pr432 C434 2.880 . S
Pr432 O452 2.562 . S
Pr432 O453 2.490 . S
Pr432 O454 2.695 1_656 S
Pr432 O455 2.512 1_656 S
Pr432 O457 2.437 1_556 S
Pr432 O460 2.436 . S
Pr432 O462 2.438 1_655 S
Pr433 C443 2.880 . S
Pr433 O454 2.436 . S
Pr433 O456 2.438 1_455 S
Pr433 O458 2.562 . S
Pr433 O459 2.490 . S
Pr433 O460 2.695 1_454 S
Pr433 O461 2.512 1_454 S
Pr433 O463 2.437 1_554 S
C434 Pr432 2.880 . S
C434 C435 1.491 . S
C434 O452 1.254 . S
C434 O453 1.225 . S
C435 C434 1.491 . S
C435 C436 1.392 . S
C435 C440 1.356 . S
C436 C435 1.392 . S
C436 C437 1.368 . S
C436 H464 0.929 . S
C437 C436 1.368 . S
C437 C438 1.386 . S
C437 H465 0.929 . S
C438 C437 1.386 . S
C438 C439 1.373 . S
C439 C438 1.373 . S
C439 C440 1.409 . S
C439 H466 0.931 . S
C440 C435 1.356 . S
C440 C439 1.409 . S
C440 H467 0.930 . S
C441 O454 1.270 . S
C441 O455 1.248 . S
C442 O456 1.267 . S
C442 O457 1.278 . S
C443 Pr433 2.880 . S
C443 C444 1.491 . S
C443 O458 1.254 . S
C443 O459 1.225 . S
C444 C443 1.491 . S
C444 C445 1.392 . S
C444 C449 1.356 . S
C445 C444 1.392 . S
C445 C446 1.368 . S
C445 H468 0.929 . S
C446 C445 1.368 . S
C446 C447 1.386 . S
C446 H469 0.929 . S
C447 C446 1.386 . S
C447 C448 1.373 . S
C448 C447 1.373 . S
C448 C449 1.409 . S
C448 H470 0.931 . S
C449 C444 1.356 . S
C449 C448 1.409 . S
C449 H471 0.930 . S
C450 O460 1.270 . S
C450 O461 1.248 . S
C451 O462 1.267 . S
C451 O463 1.278 . S
O452 Pr432 2.562 . S
O452 C434 1.254 . S
O453 Pr432 2.490 . S
O453 C434 1.225 . S
O454 Pr432 2.695 1_454 S
O454 Pr433 2.436 . S
O454 C441 1.270 . S
O455 Pr432 2.512 1_454 S
O455 C441 1.248 . S
O456 Pr433 2.438 1_655 S
O456 C442 1.267 . S
O457 Pr432 2.437 1_554 S
O457 C442 1.278 . S
O458 Pr433 2.562 . S
O458 C443 1.254 . S
O459 Pr433 2.490 . S
O459 C443 1.225 . S
O460 Pr432 2.436 . S
O460 Pr433 2.695 1_656 S
O460 C450 1.270 . S
O461 Pr433 2.512 1_656 S
O461 C450 1.248 . S
O462 Pr432 2.438 1_455 S
O462 C451 1.267 . S
O463 Pr433 2.437 1_556 S
O463 C451 1.278 . S
H464 C436 0.929 . S
H465 C437 0.929 . S
H466 C439 0.931 . S
H467 C440 0.930 . S
H468 C445 0.929 . S
H469 C446 0.929 . S
H470 C448 0.931 . S
H471 C449 0.930 . S
H472 C478 0.930 . S
H473 C481 0.930 . S
H474 C482 0.930 . S
H475 C483 0.930 . S
H476 C486 0.930 . S
H477 C487 0.930 . S
C478 H472 0.930 . S
C478 C479 1.355 . S
C478 C480 1.415 . S
C479 C478 1.355 . S
C479 C481 1.419 . S
C480 C478 1.415 . S
C480 C485 1.425 . S
C480 C487 1.409 . S
C481 H473 0.930 . S
C481 C479 1.419 . S
C481 C482 1.362 . S
C482 H474 0.930 . S
C482 C481 1.362 . S
C482 C485 1.409 . S
C483 H475 0.930 . S
C483 C484 1.355 . S
C483 C485 1.415 . S
C484 C483 1.355 . S
C484 C486 1.419 . S
C485 C480 1.425 . S
C485 C482 1.409 . S
C485 C483 1.415 . S
C486 H476 0.930 . S
C486 C484 1.419 . S
C486 C487 1.362 . S
C487 H477 0.930 . S
C487 C480 1.409 . S
C487 C486 1.362 . S
H488 C494 0.930 . S
H489 C497 0.930 . S
H490 C498 0.930 . S
H491 C499 0.930 . S
H492 C502 0.930 . S
H493 C503 0.930 . S
C494 H488 0.930 . S
C494 C495 1.355 . S
C494 C496 1.415 . S
C495 C494 1.355 . S
C495 C497 1.419 . S
C496 C494 1.415 . S
C496 C501 1.425 . S
C496 C503 1.409 . S
C497 H489 0.930 . S
C497 C495 1.419 . S
C497 C498 1.362 . S
C498 H490 0.930 . S
C498 C497 1.362 . S
C498 C501 1.409 . S
C499 H491 0.930 . S
C499 C500 1.355 . S
C499 C501 1.415 . S
C500 C499 1.355 . S
C500 C502 1.419 . S
C501 C496 1.425 . S
C501 C498 1.409 . S
C501 C499 1.415 . S
C502 H492 0.930 . S
C502 C500 1.419 . S
C502 C503 1.362 . S
C503 H493 0.930 . S
C503 C496 1.409 . S
C503 C502 1.362 . S
H504 C510 0.930 . S
H505 C513 0.930 . S
H506 C514 0.930 . S
H507 C515 0.930 . S
H508 C518 0.930 . S
H509 C519 0.930 . S
C510 H504 0.930 . S
C510 C511 1.355 . S
C510 C512 1.415 . S
C511 C510 1.355 . S
C511 C513 1.419 . S
C512 C510 1.415 . S
C512 C517 1.425 . S
C512 C519 1.409 . S
C513 H505 0.930 . S
C513 C511 1.419 . S
C513 C514 1.362 . S
C514 H506 0.930 . S
C514 C513 1.362 . S
C514 C517 1.409 . S
C515 H507 0.930 . S
C515 C516 1.355 . S
C515 C517 1.415 . S
C516 C515 1.355 . S
C516 C518 1.419 . S
C517 C512 1.425 . S
C517 C514 1.409 . S
C517 C515 1.415 . S
C518 H508 0.930 . S
C518 C516 1.419 . S
C518 C519 1.362 . S
C519 H509 0.930 . S
C519 C512 1.409 . S
C519 C518 1.362 . S
H520 C526 0.930 . S
H521 C529 0.930 . S
H522 C530 0.930 . S
H523 C531 0.930 . S
H524 C534 0.930 . S
H525 C535 0.930 . S
C526 H520 0.930 . S
C526 C527 1.355 . S
C526 C528 1.415 . S
C527 C526 1.355 . S
C527 C529 1.419 . S
C528 C526 1.415 . S
C528 C533 1.425 . S
C528 C535 1.409 . S
C529 H521 0.930 . S
C529 C527 1.419 . S
C529 C530 1.362 . S
C530 H522 0.930 . S
C530 C529 1.362 . S
C530 C533 1.409 . S
C531 H523 0.930 . S
C531 C532 1.355 . S
C531 C533 1.415 . S
C532 C531 1.355 . S
C532 C534 1.419 . S
C533 C528 1.425 . S
C533 C530 1.409 . S
C533 C531 1.415 . S
C534 H524 0.930 . S
C534 C532 1.419 . S
C534 C535 1.362 . S
C535 H525 0.930 . S
C535 C528 1.409 . S
C535 C534 1.362 . S
H536 C542 0.930 . S
H537 C545 0.930 . S
H538 C546 0.930 . S
H539 C547 0.930 . S
H540 C550 0.930 . S
H541 C551 0.930 . S
C542 H536 0.930 . S
C542 C543 1.355 . S
C542 C544 1.415 . S
C543 C542 1.355 . S
C543 C545 1.419 . S
C544 C542 1.415 . S
C544 C549 1.425 . S
C544 C551 1.409 . S
C545 H537 0.930 . S
C545 C543 1.419 . S
C545 C546 1.362 . S
C546 H538 0.930 . S
C546 C545 1.362 . S
C546 C549 1.409 . S
C547 H539 0.930 . S
C547 C548 1.355 . S
C547 C549 1.415 . S
C548 C547 1.355 . S
C548 C550 1.419 . S
C549 C544 1.425 . S
C549 C546 1.409 . S
C549 C547 1.415 . S
C550 H540 0.930 . S
C550 C548 1.419 . S
C550 C551 1.362 . S
C551 H541 0.930 . S
C551 C544 1.409 . S
C551 C550 1.362 . S
H552 C558 0.930 . S
H553 C561 0.930 . S
H554 C562 0.930 . S
H555 C563 0.930 . S
H556 C566 0.930 . S
H557 C567 0.930 . S
C558 H552 0.930 . S
C558 C559 1.355 . S
C558 C560 1.415 . S
C559 C558 1.355 . S
C559 C561 1.419 . S
C560 C558 1.415 . S
C560 C565 1.425 . S
C560 C567 1.409 . S
C561 H553 0.930 . S
C561 C559 1.419 . S
C561 C562 1.362 . S
C562 H554 0.930 . S
C562 C561 1.362 . S
C562 C565 1.409 . S
C563 H555 0.930 . S
C563 C564 1.355 . S
C563 C565 1.415 . S
C564 C563 1.355 . S
C564 C566 1.419 . S
C565 C560 1.425 . S
C565 C562 1.409 . S
C565 C563 1.415 . S
C566 H556 0.930 . S
C566 C564 1.419 . S
C566 C567 1.362 . S
C567 H557 0.930 . S
C567 C560 1.409 . S
C567 C566 1.362 . S
H568 C574 0.930 . S
H569 C577 0.930 . S
H570 C578 0.930 . S
H571 C579 0.930 . S
H572 C582 0.930 . S
H573 C583 0.930 . S
C574 H568 0.930 . S
C574 C575 1.355 . S
C574 C576 1.415 . S
C575 C574 1.355 . S
C575 C577 1.419 . S
C576 C574 1.415 . S
C576 C581 1.425 . S
C576 C583 1.409 . S
C577 H569 0.930 . S
C577 C575 1.419 . S
C577 C578 1.362 . S
C578 H570 0.930 . S
C578 C577 1.362 . S
C578 C581 1.409 . S
C579 H571 0.930 . S
C579 C580 1.355 . S
C579 C581 1.415 . S
C580 C579 1.355 . S
C580 C582 1.419 . S
C581 C576 1.425 . S
C581 C578 1.409 . S
C581 C579 1.415 . S
C582 H572 0.930 . S
C582 C580 1.419 . S
C582 C583 1.362 . S
C583 H573 0.930 . S
C583 C576 1.409 . S
C583 C582 1.362 . S
H584 C590 0.930 . S
H585 C593 0.930 . S
H586 C594 0.930 . S
H587 C595 0.930 . S
H588 C598 0.930 . S
H589 C599 0.930 . S
C590 H584 0.930 . S
C590 C591 1.355 . S
C590 C592 1.415 . S
C591 C590 1.355 . S
C591 C593 1.419 . S
C592 C590 1.415 . S
C592 C597 1.425 . S
C592 C599 1.409 . S
C593 H585 0.930 . S
C593 C591 1.419 . S
C593 C594 1.362 . S
C594 H586 0.930 . S
C594 C593 1.362 . S
C594 C597 1.409 . S
C595 H587 0.930 . S
C595 C596 1.355 . S
C595 C597 1.415 . S
C596 C595 1.355 . S
C596 C598 1.419 . S
C597 C592 1.425 . S
C597 C594 1.409 . S
C597 C595 1.415 . S
C598 H588 0.930 . S
C598 C596 1.419 . S
C598 C599 1.362 . S
C599 H589 0.930 . S
C599 C592 1.409 . S
C599 C598 1.362 . S
H600 C606 0.930 . S
H601 C609 0.930 . S
H602 C610 0.930 . S
H603 C611 0.930 . S
H604 C614 0.930 . S
H605 C615 0.930 . S
C606 H600 0.930 . S
C606 C607 1.355 . S
C606 C608 1.415 . S
C607 C606 1.355 . S
C607 C609 1.419 . S
C608 C606 1.415 . S
C608 C613 1.425 . S
C608 C615 1.409 . S
C609 H601 0.930 . S
C609 C607 1.419 . S
C609 C610 1.362 . S
C610 H602 0.930 . S
C610 C609 1.362 . S
C610 C613 1.409 . S
C611 H603 0.930 . S
C611 C612 1.355 . S
C611 C613 1.415 . S
C612 C611 1.355 . S
C612 C614 1.419 . S
C613 C608 1.425 . S
C613 C610 1.409 . S
C613 C611 1.415 . S
C614 H604 0.930 . S
C614 C612 1.419 . S
C614 C615 1.362 . S
C615 H605 0.930 . S
C615 C608 1.409 . S
C615 C614 1.362 . S
H616 C622 0.930 . S
H617 C625 0.930 . S
H618 C626 0.930 . S
H619 C627 0.930 . S
H620 C630 0.930 . S
H621 C631 0.930 . S
C622 H616 0.930 . S
C622 C623 1.355 . S
C622 C624 1.415 . S
C623 C622 1.355 . S
C623 C625 1.419 . S
C624 C622 1.415 . S
C624 C629 1.425 . S
C624 C631 1.409 . S
C625 H617 0.930 . S
C625 C623 1.419 . S
C625 C626 1.362 . S
C626 H618 0.930 . S
C626 C625 1.362 . S
C626 C629 1.409 . S
C627 H619 0.930 . S
C627 C628 1.355 . S
C627 C629 1.415 . S
C628 C627 1.355 . S
C628 C630 1.419 . S
C629 C624 1.425 . S
C629 C626 1.409 . S
C629 C627 1.415 . S
C630 H620 0.930 . S
C630 C628 1.419 . S
C630 C631 1.362 . S
C631 H621 0.930 . S
C631 C624 1.409 . S
C631 C630 1.362 . S
H632 C638 0.930 . S
H633 C641 0.930 . S
H634 C642 0.930 . S
H635 C643 0.930 . S
H636 C646 0.930 . S
H637 C647 0.930 . S
C638 H632 0.930 . S
C638 C639 1.355 . S
C638 C640 1.415 . S
C639 C638 1.355 . S
C639 C641 1.419 . S
C640 C638 1.415 . S
C640 C645 1.425 . S
C640 C647 1.409 . S
C641 H633 0.930 . S
C641 C639 1.419 . S
C641 C642 1.362 . S
C642 H634 0.930 . S
C642 C641 1.362 . S
C642 C645 1.409 . S
C643 H635 0.930 . S
C643 C644 1.355 . S
C643 C645 1.415 . S
C644 C643 1.355 . S
C644 C646 1.419 . S
C645 C640 1.425 . S
C645 C642 1.409 . S
C645 C643 1.415 . S
C646 H636 0.930 . S
C646 C644 1.419 . S
C646 C647 1.362 . S
C647 H637 0.930 . S
C647 C640 1.409 . S
C647 C646 1.362 . S
H648 C654 0.930 . S
H649 C657 0.930 . S
H650 C658 0.930 . S
H651 C659 0.930 . S
H652 C662 0.930 . S
H653 C663 0.930 . S
C654 H648 0.930 . S
C654 C655 1.355 . S
C654 C656 1.415 . S
C655 C654 1.355 . S
C655 C657 1.419 . S
C656 C654 1.415 . S
C656 C661 1.425 . S
C656 C663 1.409 . S
C657 H649 0.930 . S
C657 C655 1.419 . S
C657 C658 1.362 . S
C658 H650 0.930 . S
C658 C657 1.362 . S
C658 C661 1.409 . S
C659 H651 0.930 . S
C659 C660 1.355 . S
C659 C661 1.415 . S
C660 C659 1.355 . S
C660 C662 1.419 . S
C661 C656 1.425 . S
C661 C658 1.409 . S
C661 C659 1.415 . S
C662 H652 0.930 . S
C662 C660 1.419 . S
C662 C663 1.362 . S
C663 H653 0.930 . S
C663 C656 1.409 . S
C663 C662 1.362 . S
H664 C670 0.930 . S
H665 C673 0.930 . S
H666 C674 0.930 . S
H667 C675 0.930 . S
H668 C678 0.930 . S
H669 C679 0.930 . S
C670 H664 0.930 . S
C670 C671 1.355 . S
C670 C672 1.415 . S
C671 C670 1.355 . S
C671 C673 1.419 . S
C672 C670 1.415 . S
C672 C677 1.425 . S
C672 C679 1.409 . S
C673 H665 0.930 . S
C673 C671 1.419 . S
C673 C674 1.362 . S
C674 H666 0.930 . S
C674 C673 1.362 . S
C674 C677 1.409 . S
C675 H667 0.930 . S
C675 C676 1.355 . S
C675 C677 1.415 . S
C676 C675 1.355 . S
C676 C678 1.419 . S
C677 C672 1.425 . S
C677 C674 1.409 . S
C677 C675 1.415 . S
C678 H668 0.930 . S
C678 C676 1.419 . S
C678 C679 1.362 . S
C679 H669 0.930 . S
C679 C672 1.409 . S
C679 C678 1.362 . S
H680 C686 0.930 . S
H681 C689 0.930 . S
H682 C690 0.930 . S
H683 C691 0.930 . S
H684 C694 0.930 . S
H685 C695 0.930 . S
C686 H680 0.930 . S
C686 C687 1.355 . S
C686 C688 1.415 . S
C687 C686 1.355 . S
C687 C689 1.419 . S
C688 C686 1.415 . S
C688 C693 1.425 . S
C688 C695 1.409 . S
C689 H681 0.930 . S
C689 C687 1.419 . S
C689 C690 1.362 . S
C690 H682 0.930 . S
C690 C689 1.362 . S
C690 C693 1.409 . S
C691 H683 0.930 . S
C691 C692 1.355 . S
C691 C693 1.415 . S
C692 C691 1.355 . S
C692 C694 1.419 . S
C693 C688 1.425 . S
C693 C690 1.409 . S
C693 C691 1.415 . S
C694 H684 0.930 . S
C694 C692 1.419 . S
C694 C695 1.362 . S
C695 H685 0.930 . S
C695 C688 1.409 . S
C695 C694 1.362 . S
H696 C702 0.930 . S
H697 C705 0.930 . S
H698 C706 0.930 . S
H699 C707 0.930 . S
H700 C710 0.930 . S
H701 C711 0.930 . S
C702 H696 0.930 . S
C702 C703 1.355 . S
C702 C704 1.415 . S
C703 C702 1.355 . S
C703 C705 1.419 . S
C704 C702 1.415 . S
C704 C709 1.425 . S
C704 C711 1.409 . S
C705 H697 0.930 . S
C705 C703 1.419 . S
C705 C706 1.362 . S
C706 H698 0.930 . S
C706 C705 1.362 . S
C706 C709 1.409 . S
C707 H699 0.930 . S
C707 C708 1.355 . S
C707 C709 1.415 . S
C708 C707 1.355 . S
C708 C710 1.419 . S
C709 C704 1.425 . S
C709 C706 1.409 . S
C709 C707 1.415 . S
C710 H700 0.930 . S
C710 C708 1.419 . S
C710 C711 1.362 . S
C711 H701 0.930 . S
C711 C704 1.409 . S
C711 C710 1.362 . S
H712 C718 0.930 . S
H713 C721 0.930 . S
H714 C722 0.930 . S
H715 C723 0.930 . S
H716 C726 0.930 . S
H717 C727 0.930 . S
C718 H712 0.930 . S
C718 C719 1.355 . S
C718 C720 1.415 . S
C719 C718 1.355 . S
C719 C721 1.419 . S
C720 C718 1.415 . S
C720 C725 1.425 . S
C720 C727 1.409 . S
C721 H713 0.930 . S
C721 C719 1.419 . S
C721 C722 1.362 . S
C722 H714 0.930 . S
C722 C721 1.362 . S
C722 C725 1.409 . S
C723 H715 0.930 . S
C723 C724 1.355 . S
C723 C725 1.415 . S
C724 C723 1.355 . S
C724 C726 1.419 . S
C725 C720 1.425 . S
C725 C722 1.409 . S
C725 C723 1.415 . S
C726 H716 0.930 . S
C726 C724 1.419 . S
C726 C727 1.362 . S
C727 H717 0.930 . S
C727 C720 1.409 . S
C727 C726 1.362 . S
H728 C734 0.930 . S
H729 C737 0.930 . S
H730 C738 0.930 . S
H731 C739 0.930 . S
H732 C742 0.930 . S
H733 C743 0.930 . S
C734 H728 0.930 . S
C734 C735 1.355 . S
C734 C736 1.415 . S
C735 C734 1.355 . S
C735 C737 1.419 . S
C736 C734 1.415 . S
C736 C741 1.425 . S
C736 C743 1.409 . S
C737 H729 0.930 . S
C737 C735 1.419 . S
C737 C738 1.362 . S
C738 H730 0.930 . S
C738 C737 1.362 . S
C738 C741 1.409 . S
C739 H731 0.930 . S
C739 C740 1.355 . S
C739 C741 1.415 . S
C740 C739 1.355 . S
C740 C742 1.419 . S
C741 C736 1.425 . S
C741 C738 1.409 . S
C741 C739 1.415 . S
C742 H732 0.930 . S
C742 C740 1.419 . S
C742 C743 1.362 . S
C743 H733 0.930 . S
C743 C736 1.409 . S
C743 C742 1.362 . S
H744 C750 0.930 . S
H745 C753 0.930 . S
H746 C754 0.930 . S
H747 C755 0.930 . S
H748 C758 0.930 . S
H749 C759 0.930 . S
C750 H744 0.930 . S
C750 C751 1.355 . S
C750 C752 1.415 . S
C751 C750 1.355 . S
C751 C753 1.419 . S
C752 C750 1.415 . S
C752 C757 1.425 . S
C752 C759 1.409 . S
C753 H745 0.930 . S
C753 C751 1.419 . S
C753 C754 1.362 . S
C754 H746 0.930 . S
C754 C753 1.362 . S
C754 C757 1.409 . S
C755 H747 0.930 . S
C755 C756 1.355 . S
C755 C757 1.415 . S
C756 C755 1.355 . S
C756 C758 1.419 . S
C757 C752 1.425 . S
C757 C754 1.409 . S
C757 C755 1.415 . S
C758 H748 0.930 . S
C758 C756 1.419 . S
C758 C759 1.362 . S
C759 H749 0.930 . S
C759 C752 1.409 . S
C759 C758 1.362 . S
H760 C766 0.930 . S
H761 C769 0.930 . S
H762 C770 0.930 . S
H763 C771 0.930 . S
H764 C774 0.930 . S
H765 C775 0.930 . S
C766 H760 0.930 . S
C766 C767 1.355 . S
C766 C768 1.415 . S
C767 C766 1.355 . S
C767 C769 1.419 . S
C768 C766 1.415 . S
C768 C773 1.425 . S
C768 C775 1.409 . S
C769 H761 0.930 . S
C769 C767 1.419 . S
C769 C770 1.362 . S
C770 H762 0.930 . S
C770 C769 1.362 . S
C770 C773 1.409 . S
C771 H763 0.930 . S
C771 C772 1.355 . S
C771 C773 1.415 . S
C772 C771 1.355 . S
C772 C774 1.419 . S
C773 C768 1.425 . S
C773 C770 1.409 . S
C773 C771 1.415 . S
C774 H764 0.930 . S
C774 C772 1.419 . S
C774 C775 1.362 . S
C775 H765 0.930 . S
C775 C768 1.409 . S
C775 C774 1.362 . S
H776 C782 0.930 . S
H777 C785 0.930 . S
H778 C786 0.930 . S
H779 C787 0.930 . S
H780 C790 0.930 . S
H781 C791 0.930 . S
C782 H776 0.930 . S
C782 C783 1.355 . S
C782 C784 1.415 . S
C783 C782 1.355 . S
C783 C785 1.419 . S
C784 C782 1.415 . S
C784 C789 1.425 . S
C784 C791 1.409 . S
C785 H777 0.930 . S
C785 C783 1.419 . S
C785 C786 1.362 . S
C786 H778 0.930 . S
C786 C785 1.362 . S
C786 C789 1.409 . S
C787 H779 0.930 . S
C787 C788 1.355 . S
C787 C789 1.415 . S
C788 C787 1.355 . S
C788 C790 1.419 . S
C789 C784 1.425 . S
C789 C786 1.409 . S
C789 C787 1.415 . S
C790 H780 0.930 . S
C790 C788 1.419 . S
C790 C791 1.362 . S
C791 H781 0.930 . S
C791 C784 1.409 . S
C791 C790 1.362 . S
H792 C798 0.930 . S
H793 C801 0.930 . S
H794 C802 0.930 . S
H795 C803 0.930 . S
H796 C806 0.930 . S
H797 C807 0.930 . S
C798 H792 0.930 . S
C798 C799 1.355 . S
C798 C800 1.415 . S
C799 C798 1.355 . S
C799 C801 1.419 . S
C800 C798 1.415 . S
C800 C805 1.425 . S
C800 C807 1.409 . S
C801 H793 0.930 . S
C801 C799 1.419 . S
C801 C802 1.362 . S
C802 H794 0.930 . S
C802 C801 1.362 . S
C802 C805 1.409 . S
C803 H795 0.930 . S
C803 C804 1.355 . S
C803 C805 1.415 . S
C804 C803 1.355 . S
C804 C806 1.419 . S
C805 C800 1.425 . S
C805 C802 1.409 . S
C805 C803 1.415 . S
C806 H796 0.930 . S
C806 C804 1.419 . S
C806 C807 1.362 . S
C807 H797 0.930 . S
C807 C800 1.409 . S
C807 C806 1.362 . S
H808 C814 0.930 . S
H809 C817 0.930 . S
H810 C818 0.930 . S
H811 C819 0.930 . S
H812 C822 0.930 . S
H813 C823 0.930 . S
C814 H808 0.930 . S
C814 C815 1.355 . S
C814 C816 1.415 . S
C815 C814 1.355 . S
C815 C817 1.419 . S
C816 C814 1.415 . S
C816 C821 1.425 . S
C816 C823 1.409 . S
C817 H809 0.930 . S
C817 C815 1.419 . S
C817 C818 1.362 . S
C818 H810 0.930 . S
C818 C817 1.362 . S
C818 C821 1.409 . S
C819 H811 0.930 . S
C819 C820 1.355 . S
C819 C821 1.415 . S
C820 C819 1.355 . S
C820 C822 1.419 . S
C821 C816 1.425 . S
C821 C818 1.409 . S
C821 C819 1.415 . S
C822 H812 0.930 . S
C822 C820 1.419 . S
C822 C823 1.362 . S
C823 H813 0.930 . S
C823 C816 1.409 . S
C823 C822 1.362 . S
H824 C830 0.930 . S
H825 C833 0.930 . S
H826 C834 0.930 . S
H827 C835 0.930 . S
H828 C838 0.930 . S
H829 C839 0.930 . S
C830 H824 0.930 . S
C830 C831 1.355 . S
C830 C832 1.415 . S
C831 C830 1.355 . S
C831 C833 1.419 . S
C832 C830 1.415 . S
C832 C837 1.425 . S
C832 C839 1.409 . S
C833 H825 0.930 . S
C833 C831 1.419 . S
C833 C834 1.362 . S
C834 H826 0.930 . S
C834 C833 1.362 . S
C834 C837 1.409 . S
C835 H827 0.930 . S
C835 C836 1.355 . S
C835 C837 1.415 . S
C836 C835 1.355 . S
C836 C838 1.419 . S
C837 C832 1.425 . S
C837 C834 1.409 . S
C837 C835 1.415 . S
C838 H828 0.930 . S
C838 C836 1.419 . S
C838 C839 1.362 . S
C839 H829 0.930 . S
C839 C832 1.409 . S
C839 C838 1.362 . S
H840 C846 0.930 . S
H841 C849 0.930 . S
H842 C850 0.930 . S
H843 C851 0.930 . S
H844 C854 0.930 . S
H845 C855 0.930 . S
C846 H840 0.930 . S
C846 C847 1.355 . S
C846 C848 1.415 . S
C847 C846 1.355 . S
C847 C849 1.419 . S
C848 C846 1.415 . S
C848 C853 1.425 . S
C848 C855 1.409 . S
C849 H841 0.930 . S
C849 C847 1.419 . S
C849 C850 1.362 . S
C850 H842 0.930 . S
C850 C849 1.362 . S
C850 C853 1.409 . S
C851 H843 0.930 . S
C851 C852 1.355 . S
C851 C853 1.415 . S
C852 C851 1.355 . S
C852 C854 1.419 . S
C853 C848 1.425 . S
C853 C850 1.409 . S
C853 C851 1.415 . S
C854 H844 0.930 . S
C854 C852 1.419 . S
C854 C855 1.362 . S
C855 H845 0.930 . S
C855 C848 1.409 . S
C855 C854 1.362 . S
C479 C1 1.107 . S
C484 C327 1.147 . S
C495 C40 1.673 . S
C500 C371 1.673 . S
C516 C401 2.256 . S
C511 C99 2.206 . S
C527 C118 2.772 . S
C532 C442 2.743 . S
C548 C358 0.881 . S
C543 C16 0.889 . S
C564 C322 2.526 . S
C559 C60 2.491 . S
C580 C450 1.228 . S
C575 C79 1.198 . S
C596 C411 2.334 . S
C591 C138 2.371 . S
C607 C21 1.156 . S
C612 C447 1.211 . S
C628 C361 2.067 . S
C623 C94 2.126 . S
C639 C133 2.076 . S
C644 C330 2.044 . S
C655 C55 1.995 . S
C660 C398 2.002 . S
C676 C318 1.252 . S
C671 C157 1.227 . S
C687 C196 1.648 . S
C692 C362 1.660 . S
C703 C255 2.231 . S
C708 C410 2.271 . S
C719 C289 2.773 . S
C724 C451 2.719 . S
C735 C172 0.852 . S
C740 C367 0.833 . S
C756 C331 2.533 . S
C751 C216 2.474 . S
C772 C441 1.179 . S
C767 C235 1.195 . S
C788 C402 2.329 . S
C783 C294 2.382 . S
C799 C177 1.214 . S
C804 C438 1.249 . S
C820 C370 2.103 . S
C815 C250 2.105 . S
C836 C321 2.065 . S
C831 C274 2.106 . S
C847 C211 1.972 . S
C852 C407 1.998 . S
