# Generated by pormake.
# Topology llj, (12,3)-cn, num edge types: 1
# Building blocks:
#     Node 0, Type 0, BuildingBlock: QEWDON_clean_sbu_0, # of connection points: 12
#     Node 1, Type 0, BuildingBlock: QEWDON_clean_sbu_0, # of connection points: 12
#     Node 2, Type 1, BuildingBlock: BETDIP_clean_linker_0, # of connection points: 3
#     Node 3, Type 1, BuildingBlock: BETDIP_clean_linker_0, # of connection points: 3
#     Node 4, Type 1, BuildingBlock: BETDIP_clean_linker_0, # of connection points: 3
#     Node 5, Type 1, BuildingBlock: BETDIP_clean_linker_0, # of connection points: 3
#     Node 6, Type 1, BuildingBlock: BETDIP_clean_linker_0, # of connection points: 3
#     Node 7, Type 1, BuildingBlock: BETDIP_clean_linker_0, # of connection points: 3
#     Node 8, Type 1, BuildingBlock: BETDIP_clean_linker_0, # of connection points: 3
#     Node 9, Type 1, BuildingBlock: BETDIP_clean_linker_0, # of connection points: 3
#     Edge 10, Type (0, 1), BuildingBlock: MIFKUJ_clean_linker_0, # of connection points: 2
#     Edge 11, Type (0, 1), BuildingBlock: MIFKUJ_clean_linker_0, # of connection points: 2
#     Edge 12, Type (0, 1), BuildingBlock: MIFKUJ_clean_linker_0, # of connection points: 2
#     Edge 13, Type (0, 1), BuildingBlock: MIFKUJ_clean_linker_0, # of connection points: 2
#     Edge 14, Type (0, 1), BuildingBlock: MIFKUJ_clean_linker_0, # of connection points: 2
#     Edge 15, Type (0, 1), BuildingBlock: MIFKUJ_clean_linker_0, # of connection points: 2
#     Edge 16, Type (0, 1), BuildingBlock: MIFKUJ_clean_linker_0, # of connection points: 2
#     Edge 17, Type (0, 1), BuildingBlock: MIFKUJ_clean_linker_0, # of connection points: 2
#     Edge 18, Type (0, 1), BuildingBlock: MIFKUJ_clean_linker_0, # of connection points: 2
#     Edge 19, Type (0, 1), BuildingBlock: MIFKUJ_clean_linker_0, # of connection points: 2
#     Edge 20, Type (0, 1), BuildingBlock: MIFKUJ_clean_linker_0, # of connection points: 2
#     Edge 21, Type (0, 1), BuildingBlock: MIFKUJ_clean_linker_0, # of connection points: 2
#     Edge 22, Type (0, 1), BuildingBlock: MIFKUJ_clean_linker_0, # of connection points: 2
#     Edge 23, Type (0, 1), BuildingBlock: MIFKUJ_clean_linker_0, # of connection points: 2
#     Edge 24, Type (0, 1), BuildingBlock: MIFKUJ_clean_linker_0, # of connection points: 2
#     Edge 25, Type (0, 1), BuildingBlock: MIFKUJ_clean_linker_0, # of connection points: 2
#     Edge 26, Type (0, 1), BuildingBlock: MIFKUJ_clean_linker_0, # of connection points: 2
#     Edge 27, Type (0, 1), BuildingBlock: MIFKUJ_clean_linker_0, # of connection points: 2
#     Edge 28, Type (0, 1), BuildingBlock: MIFKUJ_clean_linker_0, # of connection points: 2
#     Edge 29, Type (0, 1), BuildingBlock: MIFKUJ_clean_linker_0, # of connection points: 2
#     Edge 30, Type (0, 1), BuildingBlock: MIFKUJ_clean_linker_0, # of connection points: 2
#     Edge 31, Type (0, 1), BuildingBlock: MIFKUJ_clean_linker_0, # of connection points: 2
#     Edge 32, Type (0, 1), BuildingBlock: MIFKUJ_clean_linker_0, # of connection points: 2
#     Edge 33, Type (0, 1), BuildingBlock: MIFKUJ_clean_linker_0, # of connection points: 2
# Relax obj value: 0.010
# Max RMSD: 0.108
# Mean RMSD: 0.092
data_MOF--net-llj--node1-QEWDON_clean_sbu_0--node2-BETDIP_clean_linker_0--edge1-MIFKUJ_clean_linker_0
_symmetry_space_group_name_H-M    P1
_symmetry_Int_Tables_number       1
_symmetry_cell_setting            triclinic
loop_
_symmetry_equiv_pos_as_xyz
'x, y, z'
_cell_length_a     49.846867
_cell_length_b     49.840286
_cell_length_c     31.252727
_cell_angle_alpha  90.349073
_cell_angle_beta   90.946567
_cell_angle_gamma 90.120278
loop_
_atom_site_label
_atom_site_type_symbol
_atom_site_fract_x
_atom_site_fract_y
_atom_site_fract_z
_atom_type_partial_charge
Zn0 Zn 0.96581 0.04755 0.95627 0.0
Zn1 Zn 0.9667 0.04401 0.05669 0.0
O2 O 0.99061 0.03996 0.00671 0.0
H3 H 0.00664 0.02917 0.00512 0.0
C4 C 0.94126 0.99348 0.89232 0.0
O5 O 0.93728 0.00375 0.93045 0.0
Zn6 Zn 0.04658 0.95223 0.07142 0.0
Zn7 Zn 0.0461 0.95042 0.96793 0.0
O8 O 0.02582 0.96354 0.01959 0.0
H9 H 0.01466 0.97934 0.01932 0.0
Zn10 Zn 0.9599 0.95056 0.94567 0.0
O11 O 0.95999 0.97476 0.99767 0.0
Zn12 Zn 0.9528 0.95124 0.0473 0.0
H13 H 0.96968 0.99155 0.99821 0.0
Zn14 Zn 0.06238 0.04855 0.98058 0.0
O15 O 0.07235 0.01916 0.02228 0.0
H16 H 0.086 0.00568 0.01815 0.0
Zn17 Zn 0.06568 0.04106 0.0744 0.0
C18 C 0.04599 0.02107 0.90116 0.0
O19 O 0.02605 0.01299 0.92488 0.0
O20 O 0.93454 0.0726 0.97147 0.0
O21 O 0.93727 0.07047 0.04243 0.0
O22 O 0.07771 0.92542 0.9834 0.0
O23 O 0.0758 0.92621 0.05449 0.0
O24 O 0.94026 0.91509 0.95608 0.0
O25 O 0.93297 0.91794 0.02628 0.0
C26 C 0.01362 0.05716 0.10755 0.0
O27 O 0.07973 0.08459 -0.00132 0.0
O28 O 0.08305 0.07794 0.06884 0.0
O29 O 0.02231 0.93929 0.91599 0.0
C30 C 0.92652 0.07975 0.0083 0.0
O31 O 0.98525 0.05564 0.90038 0.0
C32 C 0.99736 0.93401 0.10696 0.0
O33 O 0.95092 0.97002 0.88916 0.0
C34 C 0.08621 0.91768 0.01999 0.0
O35 O 0.06351 0.03693 0.91713 0.0
C36 C 0.93532 0.99662 0.09351 0.0
O37 O 0.98823 0.05917 0.10631 0.0
O38 O 0.02552 0.04401 0.07873 0.0
C39 C 0.9301 0.90596 0.99018 0.0
O40 O 0.02233 0.93491 0.11544 0.0
O41 O 0.98912 0.94335 0.07154 0.0
C42 C 0.07606 0.99614 0.12459 0.0
O43 O 0.93152 0.97143 0.09166 0.0
O44 O 0.95203 0.007 0.0682 0.0
C45 C 0.08703 0.09248 0.036 0.0
O46 O 0.08125 0.02109 0.12485 0.0
O47 O 0.06201 0.98701 0.09348 0.0
C48 C 0.01117 0.9164 0.91804 0.0
O49 O 0.0157 0.90149 0.95193 0.0
C50 C 0.00359 0.07319 0.90434 0.0
O51 O 0.00815 0.08415 0.94213 0.0
Zn52 Zn 0.45127 0.56814 0.45735 0.0
Zn53 Zn 0.45171 0.55574 0.55794 0.0
O54 O 0.47448 0.55491 0.50622 0.0
H55 H 0.4907 0.54461 0.50274 0.0
C56 C 0.44081 0.50043 0.40584 0.0
O57 O 0.44043 0.5121 0.4436 0.0
Zn58 Zn 0.54792 0.44519 0.56836 0.0
Zn59 Zn 0.55688 0.44699 0.46736 0.0
O60 O 0.52811 0.44723 0.51207 0.0
H61 H 0.5104 0.45417 0.50599 0.0
Zn62 Zn 0.45712 0.45702 0.45983 0.0
O63 O 0.46275 0.48185 0.5108 0.0
Zn64 Zn 0.45599 0.45799 0.56002 0.0
H65 H 0.47539 0.49658 0.51113 0.0
Zn66 Zn 0.5502 0.53622 0.46797 0.0
O67 O 0.53937 0.5162 0.52058 0.0
H68 H 0.5264 0.50177 0.51979 0.0
Zn69 Zn 0.54436 0.54166 0.56926 0.0
C70 C 0.58836 0.50336 0.42581 0.0
O71 O 0.60173 0.51014 0.46082 0.0
O72 O 0.41508 0.58425 0.47475 0.0
O73 O 0.41625 0.57491 0.54421 0.0
O74 O 0.59069 0.42734 0.48878 0.0
O75 O 0.58284 0.42471 0.55867 0.0
O76 O 0.43199 0.42552 0.47321 0.0
O77 O 0.43006 0.42809 0.54411 0.0
C78 C 0.49708 0.57065 0.60698 0.0
O79 O 0.57213 0.57014 0.48188 0.0
O80 O 0.56799 0.57354 0.55255 0.0
O81 O 0.54248 0.43852 0.40624 0.0
C82 C 0.40446 0.58502 0.51152 0.0
O83 O 0.4705 0.58362 0.40508 0.0
C84 C 0.49977 0.43128 0.60862 0.0
O85 O 0.44822 0.47613 0.40312 0.0
C86 C 0.59735 0.41956 0.52628 0.0
O87 O 0.56474 0.51227 0.42006 0.0
C88 C 0.43985 0.50451 0.60857 0.0
O89 O 0.4722 0.57589 0.60432 0.0
O90 O 0.5067 0.5535 0.58139 0.0
C91 C 0.42282 0.41733 0.50863 0.0
O92 O 0.52477 0.42734 0.61358 0.0
O93 O 0.49189 0.44394 0.5759 0.0
C94 C 0.56359 0.49663 0.61912 0.0
O95 O 0.44143 0.47907 0.60922 0.0
O96 O 0.44732 0.51679 0.57519 0.0
C97 C 0.57735 0.58203 0.51724 0.0
O98 O 0.56185 0.52209 0.61907 0.0
O99 O 0.55399 0.48383 0.58694 0.0
C100 C 0.53133 0.41578 0.40101 0.0
O101 O 0.53087 0.39912 0.43342 0.0
C102 C 0.49353 0.57471 0.39576 0.0
O103 O 0.50423 0.55559 0.41917 0.0
H104 H 0.30943 0.33599 0.94684 0.0
H105 H 0.3295 0.32896 0.08042 0.0
H106 H 0.3805 0.37443 0.99816 0.0
H107 H 0.31476 0.28279 0.05804 0.0
C108 C 0.29559 0.28986 0.04546 0.0
C109 C 0.32273 0.34079 0.97359 0.0
C110 C 0.34546 0.35702 0.96752 0.0
C111 C 0.3174 0.33004 0.01392 0.0
C112 C 0.33427 0.33648 0.04901 0.0
C113 C 0.35676 0.35316 0.04384 0.0
C114 C 0.36235 0.36289 0.00284 0.0
N115 N 0.29494 0.31277 0.01861 0.0
H116 H 0.71238 0.33902 0.95109 0.0
H117 H 0.71409 0.33736 0.08866 0.0
H118 H 0.66731 0.39685 0.02338 0.0
H119 H 0.72614 0.29562 0.08069 0.0
C120 C 0.73659 0.29381 0.05065 0.0
C121 C 0.70587 0.34716 0.98142 0.0
C122 C 0.68891 0.36966 0.98238 0.0
C123 C 0.7146 0.33494 0.01938 0.0
C124 C 0.70697 0.34592 0.0589 0.0
C125 C 0.68981 0.36813 0.06043 0.0
C126 C 0.68076 0.37981 0.02213 0.0
N127 N 0.73122 0.31187 0.01654 0.0
H128 H 0.67144 0.70523 0.07462 0.0
H129 H 0.6701 0.70079 0.93692 0.0
H130 H 0.60439 0.66894 0.00757 0.0
H131 H 0.71535 0.69953 0.94746 0.0
C132 C 0.71838 0.71433 0.97275 0.0
C133 C 0.66143 0.69936 0.04495 0.0
C134 C 0.63617 0.68688 0.04579 0.0
C135 C 0.67403 0.70409 0.00594 0.0
C136 C 0.66091 0.69683 0.96738 0.0
C137 C 0.63591 0.68398 0.96796 0.0
C138 C 0.62363 0.67914 0.00715 0.0
N139 N 0.69971 0.71645 0.00649 0.0
H140 H 0.27656 0.64396 0.9382 0.0
H141 H 0.27942 0.64475 0.07596 0.0
H142 H 0.3301 0.59128 0.00647 0.0
H143 H 0.2412 0.66664 0.07028 0.0
C144 C 0.24221 0.678 0.04083 0.0
C145 C 0.2846 0.63615 0.96805 0.0
C146 C 0.30399 0.61578 0.96765 0.0
C147 C 0.27537 0.64659 0.00682 0.0
C148 C 0.28586 0.63663 0.0457 0.0
C149 C 0.30521 0.61623 0.0457 0.0
C150 C 0.31423 0.60612 0.0066 0.0
N151 N 0.25659 0.66796 0.00531 0.0
H152 H 0.82711 0.81137 0.43933 0.0
H153 H 0.82815 0.80541 0.57647 0.0
H154 H 0.88471 0.85679 0.51414 0.0
H155 H 0.81679 0.75965 0.55305 0.0
C156 C 0.80015 0.76581 0.53246 0.0
C157 C 0.83571 0.8172 0.4701 0.0
C158 C 0.8572 0.83549 0.47222 0.0
C159 C 0.82544 0.80599 0.50745 0.0
C160 C 0.83646 0.81353 0.54746 0.0
C161 C 0.85758 0.83223 0.55023 0.0
C162 C 0.86781 0.84309 0.5124 0.0
N163 N 0.80362 0.78765 0.50406 0.0
H164 H 0.16451 0.82923 0.61356 0.0
H165 H 0.18746 0.82527 0.48136 0.0
H166 H 0.12945 0.88329 0.52161 0.0
H167 H 0.22914 0.81689 0.51954 0.0
C168 C 0.22104 0.80038 0.53792 0.0
C169 C 0.16256 0.83638 0.58097 0.0
C170 C 0.14485 0.85747 0.57123 0.0
C171 C 0.17822 0.82485 0.5488 0.0
C172 C 0.17572 0.83423 0.50654 0.0
C173 C 0.1583 0.8554 0.49672 0.0
C174 C 0.14284 0.86678 0.52911 0.0
N175 N 0.19633 0.80385 0.55932 0.0
H176 H 0.14902 0.22214 0.57758 0.0
H177 H 0.15724 0.22272 0.44058 0.0
H178 H 0.11457 0.15871 0.5008 0.0
H179 H 0.16937 0.26538 0.45052 0.0
C180 C 0.17945 0.26575 0.48157 0.0
C181 C 0.14496 0.21314 0.54645 0.0
C182 C 0.13086 0.18885 0.54339 0.0
C183 C 0.15451 0.22566 0.50973 0.0
C184 C 0.14952 0.21379 0.46932 0.0
C185 C 0.13519 0.18957 0.46593 0.0
C186 C 0.12609 0.17716 0.50316 0.0
N187 N 0.17051 0.24906 0.51512 0.0
H188 H 0.81262 0.17447 0.42773 0.0
H189 H 0.82366 0.16707 0.56404 0.0
H190 H 0.8655 0.11433 0.4791 0.0
H191 H 0.787 0.19156 0.56788 0.0
C192 C 0.78569 0.20373 0.53928 0.0
C193 C 0.82183 0.16455 0.45501 0.0
C194 C 0.83978 0.14336 0.44861 0.0
C195 C 0.81582 0.17328 0.49641 0.0
C196 C 0.82795 0.16055 0.53186 0.0
C197 C 0.84573 0.13903 0.52585 0.0
C198 C 0.85166 0.13077 0.4841 0.0
N199 N 0.798 0.1953 0.50079 0.0
H200 H 0.1117 0.12004 0.97284 0.0
H201 H 0.14303 0.15719 0.98052 0.0
H202 H 0.12903 0.15999 0.11647 0.0
H203 H 0.09842 0.12161 0.10919 0.0
H204 H 0.14381 0.20563 0.00229 0.0
H205 H 0.18841 0.17838 0.16933 0.0
H206 H 0.19286 0.13875 0.21602 0.0
H207 H 0.18809 0.08684 0.10608 0.0
H208 H 0.18407 0.12611 0.05883 0.0
H209 H 0.24271 0.30453 0.0456 0.0
H210 H 0.20364 0.27501 0.05195 0.0
H211 H 0.25618 0.20622 0.05751 0.0
H212 H 0.29512 0.236 0.05476 0.0
H213 H 0.21939 0.19616 0.10619 0.0
H214 H 0.21871 0.22871 0.96202 0.0
H215 H 0.21842 0.26264 0.90487 0.0
H216 H 0.1439 0.29396 0.95049 0.0
H217 H 0.14392 0.26038 0.00822 0.0
C218 C 0.11499 0.12869 0.00438 0.0
C219 C 0.10282 0.1176 0.04048 0.0
C220 C 0.13291 0.15009 0.00872 0.0
C221 C 0.13886 0.16121 0.04917 0.0
C222 C 0.12532 0.15137 0.08502 0.0
C223 C 0.10772 0.12951 0.08081 0.0
C224 C 0.16047 0.18181 0.05347 0.0
C225 C 0.16024 0.20363 0.02524 0.0
C226 C 0.18232 0.17899 0.08269 0.0
C227 C 0.18529 0.1552 0.11073 0.0
C228 C 0.18821 0.1585 0.15523 0.0
C229 C 0.19069 0.13612 0.18176 0.0
C230 C 0.19047 0.11031 0.16407 0.0
C231 C 0.18805 0.10684 0.11978 0.0
C232 C 0.18567 0.12916 0.09313 0.0
C233 C 0.24578 0.28309 0.04836 0.0
C234 C 0.2718 0.2724 0.04925 0.0
C235 C 0.22346 0.26618 0.05175 0.0
C236 C 0.22673 0.23817 0.05421 0.0
C237 C 0.25291 0.22767 0.05573 0.0
C238 C 0.27519 0.24465 0.05386 0.0
C239 C 0.20313 0.21965 0.05418 0.0
C240 C 0.20286 0.19834 0.08349 0.0
C241 C 0.18155 0.22206 0.02432 0.0
C242 C 0.18148 0.24227 0.9897 0.0
C243 C 0.20236 0.24296 0.96001 0.0
C244 C 0.20224 0.2621 0.9275 0.0
C245 C 0.1812 0.2805 0.92413 0.0
C246 C 0.16021 0.27974 0.9532 0.0
C247 C 0.16026 0.26065 0.9858 0.0
H248 H 0.18114 0.29531 0.89894 0.0
H249 H 0.19235 0.09301 0.18466 0.0
H250 H 0.90324 0.09843 0.08099 0.0
H251 H 0.86969 0.13378 0.08726 0.0
H252 H 0.86839 0.14314 0.95014 0.0
H253 H 0.90187 0.10761 0.94347 0.0
H254 H 0.87407 0.19156 0.99582 0.0
H255 H 0.81696 0.11291 0.99518 0.0
H256 H 0.80339 0.06825 0.02075 0.0
H257 H 0.7927 0.10033 0.14715 0.0
H258 H 0.80648 0.14515 0.1224 0.0
H259 H 0.76231 0.2777 0.97783 0.0
H260 H 0.79369 0.24043 0.97063 0.0
H261 H 0.78577 0.22268 0.10487 0.0
H262 H 0.75369 0.25952 0.1119 0.0
H263 H 0.78498 0.17802 0.06096 0.0
H264 H 0.84155 0.25519 0.06615 0.0
H265 H 0.85813 0.29998 0.04628 0.0
H266 H 0.87326 0.27168 0.91892 0.0
H267 H 0.85642 0.22678 0.93786 0.0
C268 C 0.89561 0.10775 0.05213 0.0
C269 C 0.90515 0.10011 0.01176 0.0
C270 C 0.87646 0.12796 0.05577 0.0
C271 C 0.86654 0.14092 0.01913 0.0
C272 C 0.87586 0.13331 0.97876 0.0
C273 C 0.89489 0.11295 0.97505 0.0
C274 C 0.84695 0.16295 0.02308 0.0
C275 C 0.85439 0.18859 0.00939 0.0
C276 C 0.82178 0.15911 0.04231 0.0
C277 C 0.8129 0.13233 0.05699 0.0
C278 C 0.81182 0.11041 0.02847 0.0
C279 C 0.80408 0.08508 0.0428 0.0
C280 C 0.79723 0.08145 0.08556 0.0
C281 C 0.79801 0.10317 0.11403 0.0
C282 C 0.80573 0.12855 0.09985 0.0
C283 C 0.76727 0.26588 0.00581 0.0
C284 C 0.7557 0.27151 0.04554 0.0
C285 C 0.78529 0.24464 0.0017 0.0
C286 C 0.79238 0.22899 0.03735 0.0
C287 C 0.78062 0.23449 0.07694 0.0
C288 C 0.7624 0.25556 0.08096 0.0
C289 C 0.81194 0.20679 0.03331 0.0
C290 C 0.80456 0.18109 0.04715 0.0
C291 C 0.83742 0.21068 0.01492 0.0
C292 C 0.84744 0.2377 0.0033 0.0
C293 C 0.84818 0.25858 0.03379 0.0
C294 C 0.85768 0.28397 0.02272 0.0
C295 C 0.86667 0.2887 0.98133 0.0
C296 C 0.86625 0.26801 0.95095 0.0
C297 C 0.85674 0.24257 0.96184 0.0
H298 H 0.87403 0.30837 0.97283 0.0
H299 H 0.79129 0.06181 0.09662 0.0
H300 H 0.9318 0.86466 0.93226 0.0
H301 H 0.89965 0.82747 0.92444 0.0
H302 H 0.85431 0.85952 0.02929 0.0
H303 H 0.88707 0.89558 0.03891 0.0
H304 H 0.86319 0.8055 0.03722 0.0
H305 H 0.83116 0.86814 0.92805 0.0
H306 H 0.836 0.89589 0.86349 0.0
H307 H 0.85985 0.82648 0.79164 0.0
H308 H 0.85482 0.79824 0.85576 0.0
H309 H 0.73256 0.75468 0.02867 0.0
H310 H 0.77289 0.78239 0.02743 0.0
H311 H 0.80003 0.73932 0.91606 0.0
H312 H 0.75919 0.71173 0.91667 0.0
H313 H 0.80677 0.79209 0.90654 0.0
H314 H 0.8284 0.72832 0.01435 0.0
H315 H 0.82234 0.70133 0.07933 0.0
H316 H 0.81979 0.77317 0.15566 0.0
H317 H 0.82532 0.80064 0.09109 0.0
C318 C 0.91522 0.86338 0.9541 0.0
C319 C 0.91215 0.88258 0.9868 0.0
C320 C 0.89682 0.84232 0.94942 0.0
C321 C 0.87487 0.8406 0.97682 0.0
C322 C 0.87165 0.86002 0.00892 0.0
C323 C 0.89031 0.88061 0.01429 0.0
C324 C 0.85506 0.81862 0.97284 0.0
C325 C 0.85072 0.80258 0.00877 0.0
C326 C 0.83962 0.81426 0.93511 0.0
C327 C 0.84279 0.83116 0.89668 0.0
C328 C 0.83752 0.85883 0.89851 0.0
C329 C 0.84019 0.87461 0.86198 0.0
C330 C 0.84824 0.86295 0.82351 0.0
C331 C 0.85357 0.83546 0.82145 0.0
C332 C 0.85069 0.81954 0.85781 0.0
C333 C 0.74714 0.75099 0.00402 0.0
C334 C 0.7429 0.73095 0.97286 0.0
C335 C 0.77026 0.76677 0.00346 0.0
C336 C 0.78969 0.76261 0.97208 0.0
C337 C 0.78536 0.74275 0.94069 0.0
C338 C 0.76213 0.72701 0.94112 0.0
C339 C 0.81408 0.77961 0.97168 0.0
C340 C 0.81945 0.7946 0.93485 0.0
C341 C 0.83051 0.78304 0.00872 0.0
C342 C 0.82705 0.76656 0.04772 0.0
C343 C 0.82629 0.73839 0.04492 0.0
C344 C 0.82298 0.72299 0.08171 0.0
C345 C 0.82061 0.73553 0.12158 0.0
C346 C 0.82159 0.76349 0.12476 0.0
C347 C 0.82482 0.77898 0.08806 0.0
H348 H 0.81808 0.72357 0.15003 0.0
H349 H 0.85032 0.87521 0.79531 0.0
H350 H 0.10288 0.89009 0.09076 0.0
H351 H 0.13341 0.85207 0.09354 0.0
H352 H 0.14808 0.86024 0.95851 0.0
H353 H 0.11677 0.89785 0.9551 0.0
H354 H 0.13628 0.81057 0.9762 0.0
H355 H 0.1969 0.87561 0.03717 0.0
H356 H 0.21104 0.91178 0.08684 0.0
H357 H 0.19967 0.8595 0.19374 0.0
H358 H 0.18517 0.82308 0.14474 0.0
H359 H 0.23803 0.71164 0.97187 0.0
H360 H 0.21481 0.75469 0.96856 0.0
H361 H 0.19153 0.74612 0.10015 0.0
H362 H 0.21497 0.70295 0.10377 0.0
H363 H 0.20991 0.797 0.08258 0.0
H364 H 0.14693 0.73336 0.02251 0.0
H365 H 0.1316 0.69726 0.9736 0.0
H366 H 0.1468 0.74746 0.86545 0.0
H367 H 0.16258 0.78376 0.91374 0.0
C368 C 0.11286 0.88408 0.06171 0.0
C369 C 0.10724 0.89689 0.0226 0.0
C370 C 0.13047 0.8624 0.06343 0.0
C371 C 0.14322 0.85344 0.0263 0.0
C372 C 0.13843 0.86682 0.98754 0.0
C373 C 0.12057 0.88833 0.98567 0.0
C374 C 0.15973 0.82877 0.02724 0.0
C375 C 0.15276 0.80785 -0.00112 0.0
C376 C 0.18068 0.82491 0.05772 0.0
C377 C 0.18976 0.84666 0.08726 0.0
C378 C 0.19728 0.87186 0.07128 0.0
C379 C 0.20538 0.8924 0.09932 0.0
C380 C 0.2062 0.88795 0.14342 0.0
C381 C 0.19902 0.86291 0.15957 0.0
C382 C 0.1909 0.8423 0.13167 0.0
C383 C 0.22797 0.71888 0.00011 0.0
C384 C 0.22812 0.70393 0.0381 0.0
C385 C 0.2147 0.74347 0.99814 0.0
C386 C 0.20132 0.75345 0.03402 0.0
C387 C 0.20178 0.73873 0.07215 0.0
C388 C 0.215 0.71409 0.07411 0.0
C389 C 0.18644 0.77902 0.03149 0.0
C390 C 0.19364 0.79997 0.05962 0.0
C391 C 0.16567 0.78297 0.00082 0.0
C392 C 0.15622 0.76116 0.97173 0.0
C393 C 0.14724 0.73661 0.98829 0.0
C394 C 0.13842 0.71613 0.96068 0.0
C395 C 0.1383 0.72003 0.91644 0.0
C396 C 0.14695 0.74445 0.89972 0.0
C397 C 0.15581 0.76499 0.9272 0.0
H398 H 0.13146 0.70416 0.89512 0.0
H399 H 0.21244 0.90389 0.16508 0.0
H400 H 0.61207 0.59546 0.45449 0.0
H401 H 0.64724 0.62931 0.45715 0.0
H402 H 0.6209 0.65487 0.58182 0.0
H403 H 0.58631 0.61988 0.58024 0.0
H404 H 0.65238 0.67926 0.45993 0.0
H405 H 0.67123 0.67366 0.64335 0.0
H406 H 0.66617 0.64027 0.70082 0.0
H407 H 0.67516 0.57621 0.61006 0.0
H408 H 0.68041 0.60905 0.55206 0.0
H409 H 0.7496 0.77983 0.50504 0.0
H410 H 0.70939 0.75153 0.50332 0.0
H411 H 0.75623 0.68489 0.55084 0.0
H412 H 0.79588 0.71376 0.55531 0.0
H413 H 0.71319 0.68195 0.58709 0.0
H414 H 0.73406 0.69356 0.44065 0.0
H415 H 0.74358 0.71651 0.37288 0.0
H416 H 0.6658 0.75331 0.37432 0.0
H417 H 0.65598 0.73094 0.44253 0.0
C418 C 0.61356 0.6084 0.48241 0.0
C419 C 0.59655 0.60476 0.51739 0.0
C420 C 0.63369 0.62788 0.4838 0.0
C421 C 0.6371 0.64446 0.51994 0.0
C422 C 0.61914 0.64191 0.55397 0.0
C423 C 0.59928 0.62199 0.55298 0.0
C424 C 0.66036 0.66325 0.52267 0.0
C425 C 0.66561 0.68 0.48783 0.0
C426 C 0.67824 0.66354 0.55832 0.0
C427 C 0.67598 0.64381 0.59339 0.0
C428 C 0.67227 0.65245 0.63574 0.0
C429 C 0.66931 0.63365 0.66837 0.0
C430 C 0.67028 0.60622 0.65913 0.0
C431 C 0.67433 0.59747 0.6172 0.0
C432 C 0.67727 0.61615 0.58443 0.0
C433 C 0.75122 0.75912 0.51505 0.0
C434 C 0.77581 0.74884 0.53004 0.0
C435 C 0.72826 0.74288 0.51385 0.0
C436 C 0.72967 0.7158 0.52625 0.0
C437 C 0.75439 0.70566 0.54124 0.0
C438 C 0.77712 0.7221 0.54356 0.0
C439 C 0.70552 0.69802 0.52405 0.0
C440 C 0.69996 0.6815 0.5592 0.0
C441 C 0.68833 0.69672 0.48742 0.0
C442 C 0.69445 0.71087 0.44706 0.0
C443 C 0.71912 0.70681 0.42681 0.0
C444 C 0.72454 0.71967 0.38826 0.0
C445 C 0.70536 0.73645 0.36942 0.0
C446 C 0.68069 0.74039 0.38906 0.0
C447 C 0.67519 0.72765 0.42768 0.0
H448 H 0.70956 0.74632 0.3395 0.0
H449 H 0.66792 0.59174 0.68448 0.0
H450 H 0.37814 0.59507 0.58616 0.0
H451 H 0.34065 0.62577 0.59665 0.0
H452 H 0.33677 0.64074 0.46086 0.0
H453 H 0.37389 0.60982 0.44993 0.0
H454 H 0.34258 0.67796 0.58089 0.0
H455 H 0.27523 0.66026 0.43076 0.0
H456 H 0.26068 0.62265 0.38417 0.0
H457 H 0.27162 0.56776 0.48831 0.0
H458 H 0.28601 0.60505 0.53564 0.0
H459 H 0.27173 0.79251 0.51199 0.0
H460 H 0.2979 0.75103 0.51433 0.0
H461 H 0.2314 0.70989 0.57154 0.0
H462 H 0.20514 0.75155 0.56974 0.0
H463 H 0.25577 0.68172 0.5011 0.0
H464 H 0.28035 0.72404 0.63453 0.0
H465 H 0.29562 0.76144 0.68092 0.0
H466 H 0.36965 0.76557 0.61292 0.0
H467 H 0.35466 0.72844 0.56571 0.0
C468 C 0.36898 0.60447 0.55836 0.0
C469 C 0.37925 0.60023 0.51722 0.0
C470 C 0.34757 0.62206 0.56449 0.0
C471 C 0.3359 0.63556 0.5296 0.0
C472 C 0.34522 0.63031 0.48824 0.0
C473 C 0.3666 0.61272 0.48205 0.0
C474 C 0.31601 0.65715 0.53678 0.0
C475 C 0.32347 0.6786 0.56378 0.0
C476 C 0.29103 0.65796 0.51462 0.0
C477 C 0.28178 0.63547 0.4867 0.0
C478 C 0.27434 0.64019 0.44381 0.0
C479 C 0.26617 0.61892 0.41725 0.0
C480 C 0.2652 0.59284 0.43329 0.0
C481 C 0.27238 0.58797 0.47594 0.0
C482 C 0.28061 0.60916 0.50261 0.0
C483 C 0.26277 0.77465 0.5253 0.0
C484 C 0.23655 0.77524 0.54095 0.0
C485 C 0.2777 0.75102 0.5266 0.0
C486 C 0.26659 0.72749 0.54327 0.0
C487 C 0.24028 0.72789 0.55859 0.0
C488 C 0.2254 0.7517 0.55777 0.0
C489 C 0.28271 0.70259 0.54446 0.0
C490 C 0.27465 0.68072 0.5188 0.0
C491 C 0.30716 0.7013 0.56792 0.0
C492 C 0.31629 0.72356 0.5964 0.0
C493 C 0.2998 0.73305 0.62926 0.0
C494 C 0.30842 0.75419 0.65574 0.0
C495 C 0.33357 0.76591 0.64983 0.0
C496 C 0.35017 0.75648 0.61746 0.0
C497 C 0.34164 0.73537 0.59087 0.0
H498 H 0.3402 0.78227 0.67036 0.0
H499 H 0.25896 0.57639 0.41264 0.0
H500 H 0.39491 0.39837 0.43906 0.0
H501 H 0.3546 0.37067 0.43871 0.0
H502 H 0.36114 0.36226 0.57568 0.0
H503 H 0.40144 0.39059 0.57668 0.0
H504 H 0.34431 0.31468 0.53122 0.0
H505 H 0.32069 0.40767 0.54209 0.0
H506 H 0.32248 0.45536 0.52168 0.0
H507 H 0.29157 0.43542 0.3964 0.0
H508 H 0.28998 0.38753 0.41592 0.0
H509 H 0.20907 0.27386 0.55535 0.0
H510 H 0.25111 0.29878 0.56319 0.0
H511 H 0.2473 0.31927 0.42926 0.0
H512 H 0.20485 0.29471 0.4214 0.0
H513 H 0.26277 0.36146 0.47724 0.0
H514 H 0.28733 0.26827 0.46571 0.0
H515 H 0.28633 0.22049 0.48565 0.0
H516 H 0.31572 0.24052 0.61179 0.0
H517 H 0.31655 0.28849 0.59276 0.0
C518 C 0.3881 0.39037 0.46914 0.0
C519 C 0.40117 0.39703 0.508 0.0
C520 C 0.365 0.37459 0.46884 0.0
C521 C 0.35466 0.36503 0.50728 0.0
C522 C 0.36869 0.36988 0.54581 0.0
C523 C 0.39168 0.38602 0.54627 0.0
C524 C 0.32815 0.35175 0.50721 0.0
C525 C 0.32637 0.32495 0.52006 0.0
C526 C 0.30493 0.36519 0.49205 0.0
C527 C 0.30545 0.394 0.48036 0.0
C528 C 0.31447 0.41344 0.5101 0.0
C529 C 0.31542 0.4405 0.49871 0.0
C530 C 0.30721 0.44841 0.45773 0.0
C531 C 0.29795 0.42926 0.42812 0.0
C532 C 0.29699 0.40216 0.43935 0.0
C533 C 0.21708 0.2838 0.5276 0.0
C534 C 0.20384 0.28225 0.48759 0.0
C535 C 0.24117 0.29793 0.53212 0.0
C536 C 0.25254 0.31047 0.49665 0.0
C537 C 0.2389 0.30964 0.457 0.0
C538 C 0.21472 0.29562 0.45252 0.0
C539 C 0.27887 0.32413 0.50064 0.0
C540 C 0.28063 0.35113 0.48862 0.0
C541 C 0.30204 0.31083 0.51656 0.0
C542 C 0.30174 0.28199 0.52795 0.0
C543 C 0.29339 0.2625 0.4978 0.0
C544 C 0.29288 0.23538 0.50892 0.0
C545 C 0.30088 0.22748 0.55 0.0
C546 C 0.30949 0.24667 0.58001 0.0
C547 C 0.31 0.27383 0.56906 0.0
H548 H 0.30047 0.20647 0.55855 0.0
H549 H 0.30798 0.46936 0.44894 0.0
H550 H 0.63544 0.40816 0.46698 0.0
H551 H 0.67067 0.37438 0.47203 0.0
H552 H 0.64797 0.35704 0.6016 0.0
H553 H 0.61292 0.39118 0.59719 0.0
H554 H 0.70154 0.35488 0.59352 0.0
H555 H 0.62451 0.31858 0.51884 0.0
H556 H 0.58878 0.31641 0.46336 0.0
H557 H 0.64804 0.314 0.36529 0.0
H558 H 0.68415 0.31648 0.42018 0.0
H559 H 0.7558 0.22234 0.60483 0.0
H560 H 0.72662 0.26189 0.60541 0.0
H561 H 0.74894 0.27962 0.47576 0.0
H562 H 0.77767 0.24005 0.47477 0.0
H563 H 0.69602 0.28209 0.48467 0.0
H564 H 0.77333 0.31653 0.56115 0.0
H565 H 0.80834 0.31702 0.61781 0.0
H566 H 0.74787 0.32184 0.71382 0.0
H567 H 0.71246 0.32099 0.65773 0.0
C568 C 0.63813 0.39743 0.49678 0.0
C569 C 0.62108 0.40206 0.53147 0.0
C570 C 0.65824 0.37807 0.49955 0.0
C571 C 0.6615 0.36279 0.53684 0.0
C572 C 0.64565 0.3685 0.57243 0.0
C573 C 0.6256 0.388 0.5698 0.0
C574 C 0.68029 0.33981 0.53778 0.0
C575 C 0.70021 0.33881 0.56999 0.0
C576 C 0.67872 0.31906 0.50672 0.0
C577 C 0.65703 0.3179 0.47362 0.0
C578 C 0.62992 0.31779 0.48544 0.0
C579 C 0.60961 0.31643 0.45411 0.0
C580 C 0.61615 0.31495 0.41086 0.0
C581 C 0.64302 0.31504 0.39882 0.0
C582 C 0.66341 0.31641 0.43002 0.0
C583 C 0.75452 0.2348 0.57658 0.0
C584 C 0.76888 0.2281 0.53978 0.0
C585 C 0.73799 0.25743 0.57701 0.0
C586 C 0.73581 0.27383 0.54073 0.0
C587 C 0.75034 0.26724 0.50408 0.0
C588 C 0.76677 0.24461 0.5036 0.0
C589 C 0.7175 0.29722 0.54014 0.0
C590 C 0.69752 0.29822 0.50807 0.0
C591 C 0.71896 0.31784 0.57146 0.0
C592 C 0.74023 0.31843 0.60523 0.0
C593 C 0.76748 0.31747 0.59435 0.0
C594 C 0.7874 0.31785 0.62637 0.0
C595 C 0.78033 0.31938 0.66939 0.0
C596 C 0.75332 0.32061 0.68048 0.0
C597 C 0.73332 0.3202 0.64859 0.0
H598 H 0.79579 0.31968 0.69413 0.0
H599 H 0.60041 0.31376 0.38666 0.0
H600 H 0.04083 0.03498 0.17386 0.0
H601 H 0.06702 0.05848 0.2296 0.0
H602 H 0.04589 0.13448 0.17264 0.0
H603 H 0.02087 0.11069 0.11557 0.0
H604 H 0.09663 0.13574 0.20075 0.0
H605 H 0.01181 0.11165 0.25905 0.0
H606 H 0.97434 0.08155 0.27684 0.0
H607 H 0.02781 0.0326 0.35177 0.0
H608 H 0.06564 0.06247 0.33451 0.0
H609 H 0.11536 0.21421 0.39426 0.0
H610 H 0.09947 0.19259 0.32787 0.0
H611 H 0.12485 0.11569 0.37644 0.0
H612 H 0.14065 0.13715 0.44273 0.0
H613 H 0.07272 0.11586 0.35078 0.0
H614 H 0.15704 0.14774 0.29662 0.0
H615 H 0.19039 0.1828 0.28134 0.0
H616 H 0.13391 0.22188 0.1975 0.0
H617 H 0.0999 0.18753 0.21327 0.0
C618 C 0.04232 0.05665 0.17298 0.0
C619 C 0.02918 0.07119 0.14078 0.0
C620 C 0.057 0.07007 0.20488 0.0
C621 C 0.05809 0.09826 0.20554 0.0
C622 C 0.04532 0.11275 0.17269 0.0
C623 C 0.03092 0.09925 0.14045 0.0
C624 C 0.07128 0.11255 0.24182 0.0
C625 C 0.09129 0.13163 0.23359 0.0
C626 C 0.06429 0.1071 0.28456 0.0
C627 C 0.04158 0.08916 0.2952 0.0
C628 C 0.0156 0.09439 0.27914 0.0
C629 C 0.9943 0.07738 0.28914 0.0
C630 C 0.99871 0.05509 0.31519 0.0
C631 C 0.02443 0.04985 0.33153 0.0
C632 C 0.04579 0.06686 0.32177 0.0
C633 C 0.11808 0.19279 0.39029 0.0
C634 C 0.129 0.17728 0.42368 0.0
C635 C 0.109 0.18047 0.35242 0.0
C636 C 0.11101 0.15255 0.34731 0.0
C637 C 0.12303 0.13725 0.37987 0.0
C638 C 0.13198 0.1495 0.4177 0.0
C639 C 0.09843 0.13883 0.30997 0.0
C640 C 0.07829 0.1199 0.31801 0.0
C641 C 0.10492 0.14502 0.26719 0.0
C642 C 0.12572 0.16523 0.25672 0.0
C643 C 0.15157 0.16398 0.27536 0.0
C644 C 0.1706 0.18378 0.26667 0.0
C645 C 0.16417 0.20472 0.23885 0.0
C646 C 0.13879 0.20577 0.21932 0.0
C647 C 0.11962 0.18615 0.22816 0.0
H648 H 0.17896 0.21997 0.23205 0.0
H649 H 0.98219 0.04193 0.32284 0.0
H650 H 0.9046 0.0407 0.07879 0.0
H651 H 0.88235 0.06891 0.13235 0.0
H652 H 0.91034 0.01591 0.23208 0.0
H653 H 0.93237 0.98789 0.17862 0.0
H654 H 0.85922 0.03084 0.24455 0.0
H655 H 0.94364 0.07394 0.21477 0.0
H656 H 0.97811 0.09527 0.17097 0.0
H657 H 0.92092 0.15379 0.12742 0.0
H658 H 0.88614 0.13303 0.17196 0.0
H659 H 0.88904 0.13503 0.41525 0.0
H660 H 0.89946 0.11388 0.34675 0.0
H661 H 0.81496 0.10862 0.31546 0.0
H662 H 0.80442 0.12976 0.38436 0.0
H663 H 0.88875 0.12549 0.26219 0.0
H664 H 0.80666 0.04484 0.2688 0.0
H665 H 0.77792 0.02259 0.32158 0.0
H666 H 0.83783 0.03608 0.41974 0.0
H667 H 0.86703 0.05803 0.36742 0.0
C668 C 0.9065 0.03563 0.11227 0.0
C669 C 0.92111 0.01296 0.12504 0.0
C670 C 0.89356 0.05145 0.14266 0.0
C671 C 0.8952 0.04479 0.18619 0.0
C672 C 0.90891 0.02147 0.19866 0.0
C673 C 0.92162 0.00558 0.16824 0.0
C674 C 0.8836 0.06255 0.21915 0.0
C675 C 0.86537 0.05165 0.24806 0.0
C676 C 0.89176 0.08962 0.22387 0.0
C677 C 0.91229 0.10178 0.19628 0.0
C678 C 0.9384 0.09126 0.19566 0.0
C679 C 0.958 0.10329 0.17076 0.0
C680 C 0.9517 0.12573 0.146 0.0
C681 C 0.92579 0.13638 0.14654 0.0
C682 C 0.90614 0.12456 0.17176 0.0
C683 C 0.87273 0.12964 0.3935 0.0
C684 C 0.84596 0.13378 0.40506 0.0
C685 C 0.87868 0.11776 0.35434 0.0
C686 C 0.85796 0.10956 0.32628 0.0
C687 C 0.8312 0.11473 0.33686 0.0
C688 C 0.82523 0.12687 0.37601 0.0
C689 C 0.86464 0.0937 0.28782 0.0
C690 C 0.88191 0.10496 0.25785 0.0
C691 C 0.85606 0.06678 0.28269 0.0
C692 C 0.83881 0.0534 0.31434 0.0
C693 C 0.81368 0.04301 0.30164 0.0
C694 C 0.79733 0.03044 0.33146 0.0
C695 C 0.806 0.02803 0.37402 0.0
C696 C 0.83109 0.03806 0.38681 0.0
C697 C 0.84753 0.0506 0.3571 0.0
H698 H 0.7933 0.01831 0.39706 0.0
H699 H 0.96693 0.13493 0.12659 0.0
H700 H 0.97897 0.88323 0.11733 0.0
H701 H 0.95191 0.86637 0.17629 0.0
H702 H 0.94686 0.94673 0.22805 0.0
H703 H 0.97495 0.96314 0.17 0.0
H704 H 0.96065 0.91513 0.2879 0.0
H705 H 0.89011 0.90822 0.17766 0.0
H706 H 0.86702 0.89244 0.11167 0.0
H707 H 0.88002 0.81061 0.14862 0.0
H708 H 0.90318 0.82586 0.21474 0.0
H709 H 0.8694 0.88751 0.45317 0.0
H710 H 0.89109 0.90439 0.38896 0.0
H711 H 0.89518 0.82367 0.33863 0.0
H712 H 0.87269 0.80692 0.40216 0.0
H713 H 0.8816 0.85483 0.27779 0.0
H714 H 0.95102 0.85799 0.38427 0.0
H715 H 0.97274 0.86979 0.45331 0.0
H716 H 0.96526 0.95355 0.4242 0.0
H717 H 0.94311 0.94226 0.35521 0.0
C718 C 0.97158 0.89723 0.14101 0.0
C719 C 0.97858 0.92445 0.13922 0.0
C720 C 0.95592 0.88768 0.17447 0.0
C721 C 0.94679 0.90531 0.20643 0.0
C722 C 0.95343 0.9327 0.20378 0.0
C723 C 0.96933 0.94214 0.17062 0.0
C724 C 0.93284 0.89499 0.24488 0.0
C725 C 0.94305 0.90232 0.28554 0.0
C726 C 0.91069 0.87715 0.24223 0.0
C727 C 0.89854 0.8682 0.20097 0.0
C728 C 0.88838 0.88688 0.17139 0.0
C729 C 0.8752 0.87801 0.13404 0.0
C730 C 0.87213 0.85054 0.12599 0.0
C731 C 0.88245 0.83187 0.15494 0.0
C732 C 0.89555 0.84061 0.19234 0.0
C733 C 0.87492 0.87342 0.42831 0.0
C734 C 0.86937 0.84592 0.4326 0.0
C735 C 0.88746 0.88304 0.39174 0.0
C736 C 0.89527 0.86527 0.35915 0.0
C737 C 0.88939 0.83781 0.36324 0.0
C738 C 0.87649 0.82825 0.3995 0.0
C739 C 0.90919 0.87526 0.32053 0.0
C740 C 0.89912 0.86776 0.28001 0.0
C741 C 0.93186 0.8924 0.32326 0.0
C742 C 0.94512 0.89927 0.36477 0.0
C743 C 0.95379 0.87893 0.39274 0.0
C744 C 0.96622 0.88553 0.43184 0.0
C745 C 0.97031 0.9124 0.44319 0.0
C746 C 0.96203 0.93274 0.4154 0.0
C747 C 0.94955 0.92626 0.37629 0.0
H748 H 0.97994 0.91747 0.47347 0.0
H749 H 0.86152 0.8436 0.09763 0.0
H750 H 0.07489 0.94117 0.12941 0.0
H751 H 0.09362 0.91295 0.18551 0.0
H752 H 0.11863 0.98363 0.25606 0.0
H753 H 0.10084 0.01196 0.1989 0.0
H754 H 0.15721 0.94718 0.25745 0.0
H755 H 0.06101 0.94666 0.28038 0.0
H756 H 0.01344 0.93859 0.26101 0.0
H757 H 0.03042 0.85549 0.23704 0.0
H758 H 0.07813 0.86311 0.2557 0.0
H759 H 0.16244 0.9075 0.47305 0.0
H760 H 0.15419 0.92634 0.40209 0.0
H761 H 0.14121 0.84671 0.35069 0.0
H762 H 0.14942 0.82772 0.4221 0.0
H763 H 0.09999 0.88132 0.33197 0.0
H764 H 0.19468 0.88062 0.31904 0.0
H765 H 0.24185 0.88818 0.34092 0.0
H766 H 0.22789 0.97308 0.34737 0.0
H767 H 0.18052 0.96601 0.32612 0.0
C768 C 0.08444 0.95074 0.15653 0.0
C769 C 0.08645 0.9788 0.15931 0.0
C770 C 0.09505 0.93455 0.18886 0.0
C771 C 0.10733 0.94618 0.22518 0.0
C772 C 0.10933 0.97422 0.2282 0.0
C773 C 0.09904 0.99038 0.19556 0.0
C774 C 0.1179 0.92927 0.26038 0.0
C775 C 0.14465 0.93291 0.27398 0.0
C776 C 0.1018 0.90991 0.28083 0.0
C777 C 0.07318 0.90551 0.26902 0.0
C778 C 0.05464 0.92673 0.27059 0.0
C779 C 0.02766 0.92222 0.25981 0.0
C780 C 0.01898 0.89655 0.24779 0.0
C781 C 0.03722 0.87536 0.24634 0.0
C782 C 0.06421 0.87975 0.25702 0.0
C783 C 0.15815 0.89402 0.44647 0.0
C784 C 0.15634 0.86623 0.45291 0.0
C785 C 0.15367 0.90475 0.40594 0.0
C786 C 0.14727 0.88788 0.37115 0.0
C787 C 0.14627 0.86001 0.37718 0.0
C788 C 0.15102 0.84921 0.41779 0.0
C789 C 0.13901 0.89982 0.32983 0.0
C790 C 0.11269 0.89525 0.31502 0.0
C791 C 0.15548 0.91836 0.3084 0.0
C792 C 0.18397 0.92275 0.32124 0.0
C793 C 0.2016 0.90089 0.32546 0.0
C794 C 0.22839 0.90509 0.33768 0.0
C795 C 0.23785 0.93109 0.3456 0.0
C796 C 0.22054 0.95295 0.34123 0.0
C797 C 0.19372 0.94886 0.32903 0.0
H798 H 0.2586 0.9343 0.35506 0.0
H799 H 0.99813 0.893 0.23983 0.0
H800 H 0.09167 0.02124 0.85507 0.0
H801 H 0.10055 0.9963 0.79012 0.0
H802 H 0.0178 0.97038 0.78341 0.0
H803 H 0.0092 0.99437 0.85046 0.0
H804 H 0.04508 0.92995 0.7712 0.0
H805 H 0.04841 0.01335 0.70588 0.0
H806 H 0.05799 0.06085 0.69122 0.0
H807 H 0.14205 0.04318 0.68413 0.0
H808 H 0.13295 0.9956 0.69958 0.0
H809 H 0.09104 0.86691 0.57268 0.0
H810 H 0.06708 0.8964 0.62232 0.0
H811 H 0.14077 0.91042 0.69324 0.0
H812 H 0.16471 0.88062 0.64412 0.0
H813 H 0.10903 0.95855 0.66035 0.0
H814 H 0.09902 0.87361 0.74119 0.0
H815 H 0.08372 0.82652 0.74417 0.0
H816 H 0.00434 0.8506 0.70563 0.0
H817 H 0.01906 0.89783 0.70304 0.0
C818 C 0.07521 0.01062 0.83947 0.0
C819 C 0.04985 0.00944 0.85817 0.0
C820 C 0.08024 0.99651 0.80187 0.0
C821 C 0.05982 0.98157 0.78128 0.0
C822 C 0.03398 0.98159 0.79872 0.0
C823 C 0.02906 0.99532 0.83698 0.0
C824 C 0.06659 0.9636 0.74484 0.0
C825 C 0.05856 0.93654 0.74646 0.0
C826 C 0.08395 0.97195 0.7119 0.0
C827 C 0.08989 0.00079 0.70404 0.0
C828 C 0.06893 0.0196 0.7017 0.0
C829 C 0.07428 0.04656 0.69316 0.0
C830 C 0.1006 0.055 0.6866 0.0
C831 C 0.12164 0.03656 0.68906 0.0
C832 C 0.11637 0.00957 0.69768 0.0
C833 C 0.10194 0.8759 0.59942 0.0
C834 C 0.12965 0.87148 0.60485 0.0
C835 C 0.0883 0.89275 0.62754 0.0
C836 C 0.10227 0.90565 0.66109 0.0
C837 C 0.12975 0.90064 0.66735 0.0
C838 C 0.14331 0.88347 0.63964 0.0
C839 C 0.0886 0.92527 0.68878 0.0
C840 C 0.09523 0.95249 0.68499 0.0
C841 C 0.06918 0.91737 0.7185 0.0
C842 C 0.06017 0.88915 0.72166 0.0
C843 C 0.07829 0.86882 0.73342 0.0
C844 C 0.06969 0.84213 0.7352 0.0
C845 C 0.04302 0.83557 0.72523 0.0
C846 C 0.02489 0.85572 0.71371 0.0
C847 C 0.03333 0.88245 0.71224 0.0
H848 H 0.03641 0.81489 0.72637 0.0
H849 H 0.10468 0.07578 0.67942 0.0
H850 H 0.04182 0.11215 0.90201 0.0
H851 H 0.06607 0.12786 0.83989 0.0
H852 H 0.02677 0.06773 0.76111 0.0
H853 H 0.00161 0.05235 0.82303 0.0
H854 H 0.10041 0.10712 0.78549 0.0
H855 H 0.01445 0.09538 0.66137 0.0
H856 H 0.96508 0.09254 0.65774 0.0
H857 H 0.95998 0.13708 0.77535 0.0
H858 H 0.00931 0.14094 0.77893 0.0
H859 H 0.13917 0.13736 0.56876 0.0
H860 H 0.12012 0.11489 0.63107 0.0
H861 H 0.07976 0.1881 0.666 0.0
H862 H 0.09918 0.21077 0.60423 0.0
H863 H 0.04666 0.13985 0.66142 0.0
H864 H 0.12966 0.17415 0.72043 0.0
H865 H 0.17871 0.1802 0.72443 0.0
H866 H 0.18907 0.09541 0.7415 0.0
H867 H 0.1401 0.08881 0.73708 0.0
C868 C 0.03834 0.10219 0.87152 0.0
C869 C 0.01948 0.08134 0.86722 0.0
C870 C 0.05238 0.11105 0.83611 0.0
C871 C 0.04793 0.09916 0.79584 0.0
C872 C 0.03011 0.07742 0.79183 0.0
C873 C 0.01577 0.06872 0.82718 0.0
C874 C 0.0607 0.11087 0.75787 0.0
C875 C 0.08868 0.11412 0.75824 0.0
C876 C 0.04531 0.12016 0.72248 0.0
C877 C 0.0156 0.11818 0.72063 0.0
C878 C 0.00278 0.10468 0.68634 0.0
C879 C 0.9748 0.10295 0.68425 0.0
C880 C 0.95939 0.11452 0.71641 0.0
C881 C 0.97194 0.12804 0.75055 0.0
C882 C -8e-05 0.13007 0.75256 0.0
C883 C 0.12637 0.14862 0.59 0.0
C884 C 0.1206 0.17573 0.58201 0.0
C885 C 0.11558 0.13583 0.62543 0.0
C886 C 0.09858 0.14991 0.65287 0.0
C887 C 0.09285 0.17699 0.64501 0.0
C888 C 0.10403 0.18992 0.61004 0.0
C889 C 0.08624 0.13627 0.68936 0.0
C890 C 0.05837 0.13256 0.68852 0.0
C891 C 0.10167 0.12695 0.72454 0.0
C892 C 0.13117 0.1309 0.72743 0.0
C893 C 0.14239 0.15673 0.7244 0.0
C894 C 0.1702 0.16028 0.72695 0.0
C895 C 0.18701 0.13819 0.73294 0.0
C896 C 0.17604 0.1125 0.73663 0.0
C897 C 0.14824 0.10884 0.73409 0.0
H898 H 0.20854 0.14098 0.73493 0.0
H899 H 0.93773 0.11312 0.71482 0.0
H900 H 0.93486 0.97478 0.8106 0.0
H901 H 0.91945 -0.00011 0.74815 0.0
H902 H 0.91852 0.07263 0.82407 0.0
H903 H 0.93099 0.04698 0.88744 0.0
H904 H 0.87724 0.07255 0.77729 0.0
H905 H 0.96951 0.05412 0.74929 0.0
H906 H 0.00798 0.02349 0.74426 0.0
H907 H 0.96966 0.9821 0.63894 0.0
H908 H 0.93037 0.01184 0.64443 0.0
H909 H 0.86671 0.16069 0.60003 0.0
H910 H 0.88563 0.13664 0.66159 0.0
H911 H 0.8713 0.06121 0.59674 0.0
H912 H 0.85198 0.08497 0.53551 0.0
H913 H 0.9216 0.06383 0.63696 0.0
H914 H 0.82878 0.08105 0.66969 0.0
H915 H 0.78895 0.10961 0.67927 0.0
H916 H 0.83073 0.15487 0.77701 0.0
H917 H 0.87096 0.1268 0.76754 0.0
C918 C 0.93118 0.99609 0.81393 0.0
C919 C 0.93396 0.0089 0.85386 0.0
C920 C 0.92268 0.01053 0.77811 0.0
C921 C 0.91831 0.03834 0.78107 0.0
C922 C 0.92167 0.05121 0.82088 0.0
C923 C 0.92903 0.03656 0.85704 0.0
C924 C 0.90961 0.054 0.74306 0.0
C925 C 0.88736 0.07101 0.7469 0.0
C926 C 0.92239 0.05162 0.70303 0.0
C927 C 0.94686 0.03509 0.69751 0.0
C928 C 0.96926 0.03849 0.72504 0.0
C929 C 0.9912 0.02123 0.72218 0.0
C930 C 0.9913 0.00085 0.69128 0.0
C931 C 0.96953 0.99787 0.66291 0.0
C932 C 0.94739 0.0149 0.66593 0.0
C933 C 0.86744 0.13898 0.59901 0.0
C934 C 0.85776 0.12473 0.56297 0.0
C935 C 0.87839 0.12531 0.63404 0.0
C936 C 0.87973 0.09718 0.63365 0.0
C937 C 0.87058 0.08293 0.59747 0.0
C938 C 0.85958 0.09656 0.56253 0.0
C939 C 0.8896 0.08247 0.67167 0.0
C940 C 0.91189 0.06555 0.66766 0.0
C941 C 0.87717 0.08522 0.71176 0.0
C942 C 0.85295 0.10202 0.71759 0.0
C943 C 0.82954 0.09724 0.69297 0.0
C944 C 0.80689 0.11331 0.69842 0.0
C945 C 0.80734 0.13409 0.72864 0.0
C946 C 0.83042 0.13879 0.75356 0.0
C947 C 0.85315 0.1228 0.74818 0.0
H948 H 0.78977 0.14651 0.73282 0.0
H949 H 0.00818 0.9873 0.68935 0.0
H950 H 0.99319 0.94414 0.848 0.0
H951 H 0.9627 0.92816 0.79116 0.0
H952 H 0.9585 0.85079 0.85171 0.0
H953 H 0.98842 0.86676 0.90928 0.0
H954 H 0.97029 0.85026 0.7618 0.0
H955 H 0.9093 0.88626 0.86083 0.0
H956 H 0.88963 0.91976 0.90911 0.0
H957 H 0.87186 0.97077 0.80222 0.0
H958 H 0.89246 0.93807 0.75334 0.0
H959 H 0.87096 0.79965 0.61746 0.0
H960 H 0.8932 0.81247 0.68503 0.0
H961 H 0.89373 0.89522 0.64544 0.0
H962 H 0.8711 0.88262 0.57818 0.0
H963 H 0.88104 0.89008 0.73036 0.0
H964 H 0.94838 0.85842 0.63409 0.0
H965 H 0.97079 0.82672 0.58558 0.0
H966 H 0.97745 0.76924 0.68697 0.0
H967 H 0.95467 0.80047 0.73594 0.0
C968 C 0.98568 0.92377 0.84936 0.0
C969 C 0.99313 0.90675 0.88322 0.0
C970 C 0.96821 0.91472 0.81696 0.0
C971 C 0.95826 0.88839 0.81757 0.0
C972 C 0.96595 0.87121 0.85089 0.0
C973 C 0.98304 0.88039 0.88369 0.0
C974 C 0.9406 0.87851 0.78245 0.0
C975 C 0.95061 0.85867 0.75517 0.0
C976 C 0.91509 0.88984 0.77394 0.0
C977 C 0.90292 0.90981 0.80337 0.0
C978 C 0.90179 0.90487 0.84763 0.0
C979 C 0.89042 0.92372 0.87515 0.0
C980 C 0.87968 0.94748 0.8588 0.0
C981 C 0.88022 0.95237 0.81486 0.0
C982 C 0.89186 0.93371 0.78723 0.0
C983 C 0.87545 0.82062 0.62344 0.0
C984 C 0.86946 0.84011 0.59238 0.0
C985 C 0.88828 0.82789 0.66193 0.0
C986 C 0.89534 0.85476 0.67004 0.0
C987 C 0.88849 0.87437 0.63979 0.0
C988 C 0.87579 0.86711 0.60124 0.0
C989 C 0.91108 0.8623 0.70897 0.0
C990 C 0.90068 0.88162 0.73706 0.0
C991 C 0.93641 0.85071 0.71816 0.0
C992 C 0.9494 0.83159 0.68846 0.0
C993 C 0.95427 0.83887 0.64588 0.0
C994 C 0.96713 0.82102 0.61834 0.0
C995 C 0.97543 0.79593 0.63313 0.0
C996 C 0.97092 0.78864 0.67551 0.0
C997 C 0.95801 0.80639 0.70316 0.0
H998 H 0.98544 0.78217 0.61179 0.0
H999 H 0.87084 0.96204 0.88014 0.0
H1000 H 0.52871 0.54767 0.66731 0.0
H1001 H 0.55446 0.57036 0.72453 0.0
H1002 H 0.52861 0.64715 0.6763 0.0
H1003 H 0.50255 0.62436 0.61915 0.0
H1004 H 0.58869 0.63944 0.7044 0.0
H1005 H 0.49651 0.63493 0.75043 0.0
H1006 H 0.45315 0.61301 0.76369 0.0
H1007 H 0.49233 0.55556 0.84522 0.0
H1008 H 0.53604 0.57713 0.8321 0.0
H1009 H 0.62429 0.71272 0.89587 0.0
H1010 H 0.60166 0.69644 0.8303 0.0
H1011 H 0.59708 0.61705 0.88439 0.0
H1012 H 0.6187 0.63353 0.95018 0.0
H1013 H 0.55127 0.62956 0.84968 0.0
H1014 H 0.64372 0.63732 0.80831 0.0
H1015 H 0.68612 0.66184 0.79823 0.0
H1016 H 0.64717 0.71368 0.70739 0.0
H1017 H 0.60431 0.69001 0.7179 0.0
C1018 C 0.5292 0.56938 0.66832 0.0
C1019 C 0.51417 0.5844 0.63878 0.0
C1020 C 0.54367 0.58228 0.70104 0.0
C1021 C 0.54344 0.61036 0.70429 0.0
C1022 C 0.52912 0.62547 0.67393 0.0
C1023 C 0.51422 0.6125 0.64162 0.0
C1024 C 0.55637 0.62362 0.74154 0.0
C1025 C 0.58047 0.63767 0.73619 0.0
C1026 C 0.54564 0.62088 0.78277 0.0
C1027 C 0.51955 0.60743 0.78987 0.0
C1028 C 0.49592 0.61742 0.77075 0.0
C1029 C 0.47125 0.60511 0.77839 0.0
C1030 C 0.46996 0.58282 0.80521 0.0
C1031 C 0.49336 0.5728 0.82441 0.0
C1032 C 0.51808 0.58508 0.81693 0.0
C1033 C 0.61847 0.69181 0.89346 0.0
C1034 C 0.62306 0.67433 0.92787 0.0
C1035 C 0.60566 0.6825 0.85608 0.0
C1036 C 0.59791 0.65545 0.85228 0.0
C1037 C 0.60278 0.63801 0.88664 0.0
C1038 C 0.61512 0.64739 0.92415 0.0
C1039 C 0.58412 0.64514 0.81315 0.0
C1040 C 0.55969 0.63154 0.81804 0.0
C1041 C 0.59466 0.64838 0.77162 0.0
C1042 C 0.62067 0.66211 0.76438 0.0
C1043 C 0.6441 0.65413 0.78654 0.0
C1044 C 0.66822 0.66793 0.78083 0.0
C1045 C 0.66929 0.68943 0.75242 0.0
C1046 C 0.64627 0.69712 0.72957 0.0
C1047 C 0.62205 0.68354 0.73544 0.0
H1048 H 0.68801 0.70001 0.74788 0.0
H1049 H 0.45085 0.57336 0.81129 0.0
H1050 H 0.43558 0.48545 0.68936 0.0
H1051 H 0.41055 0.50535 0.74825 0.0
H1052 H 0.39594 0.576 0.67249 0.0
H1053 H 0.4198 0.55557 0.61324 0.0
H1054 H 0.41315 0.58486 0.76068 0.0
H1055 H 0.34614 0.53617 0.67695 0.0
H1056 H 0.32649 0.49647 0.64064 0.0
H1057 H 0.32978 0.45274 0.75854 0.0
H1058 H 0.34947 0.49219 0.79556 0.0
H1059 H 0.31772 0.64368 0.89592 0.0
H1060 H 0.33976 0.62607 0.83228 0.0
H1061 H 0.33768 0.54636 0.88543 0.0
H1062 H 0.31444 0.56356 0.9478 0.0
H1063 H 0.32781 0.54288 0.80509 0.0
H1064 H 0.3947 0.58627 0.89081 0.0
H1065 H 0.41763 0.62219 0.9319 0.0
H1066 H 0.42144 0.67041 0.81876 0.0
H1067 H 0.3981 0.63494 0.77712 0.0
C1068 C 0.42675 0.50509 0.68511 0.0
C1069 C 0.42887 0.51865 0.646 0.0
C1070 C 0.41266 0.51646 0.7188 0.0
C1071 C 0.40098 0.54183 0.71414 0.0
C1072 C 0.4046 0.55622 0.67634 0.0
C1073 C 0.41835 0.54461 0.64248 0.0
C1074 C 0.38473 0.55323 0.74861 0.0
C1075 C 0.39437 0.57597 0.77033 0.0
C1076 C 0.36061 0.54098 0.76138 0.0
C1077 C 0.34934 0.51709 0.73897 0.0
C1078 C 0.34282 0.51804 0.69506 0.0
C1079 C 0.33153 0.49564 0.67442 0.0
C1080 C 0.32668 0.47219 0.69738 0.0
C1081 C 0.33334 0.47099 0.74091 0.0
C1082 C 0.3445 0.49338 0.76175 0.0
C1083 C 0.32144 0.62233 0.89355 0.0
C1084 C 0.31463 0.60504 0.92704 0.0
C1085 C 0.33435 0.61234 0.85747 0.0
C1086 C 0.3409 0.585 0.85457 0.0
C1087 C 0.33301 0.56756 0.88709 0.0
C1088 C 0.31991 0.57745 0.92287 0.0
C1089 C 0.35648 0.5745 0.81821 0.0
C1090 C 0.34665 0.55192 0.79585 0.0
C1091 C 0.381 0.58636 0.80582 0.0
C1092 C 0.39425 0.60812 0.831 0.0
C1093 C 0.40008 0.60469 0.87482 0.0
C1094 C 0.41324 0.62493 0.89818 0.0
C1095 C 0.42089 0.64862 0.878 0.0
C1096 C 0.41541 0.6521 0.8344 0.0
C1097 C 0.40218 0.63194 0.81091 0.0
H1098 H 0.43114 0.66424 0.89611 0.0
H1099 H 0.31787 0.4549 0.68138 0.0
H1100 H 0.45766 0.39673 0.60131 0.0
H1101 H 0.42571 0.38469 0.6571 0.0
H1102 H 0.46615 0.43898 0.74502 0.0
H1103 H 0.49888 0.44975 0.68996 0.0
H1104 H 0.45816 0.39412 0.78278 0.0
H1105 H 0.40436 0.45167 0.6961 0.0
H1106 H 0.38363 0.46752 0.62867 0.0
H1107 H 0.33595 0.39578 0.62084 0.0
H1108 H 0.35768 0.37891 0.68685 0.0
H1109 H 0.36552 0.40624 0.94638 0.0
H1110 H 0.38572 0.41908 0.87885 0.0
H1111 H 0.36176 0.34341 0.82265 0.0
H1112 H 0.34233 0.32983 0.89075 0.0
H1113 H 0.35897 0.39668 0.76693 0.0
H1114 H 0.41673 0.33873 0.85333 0.0
H1115 H 0.43837 0.32531 0.9214 0.0
H1116 H 0.47708 0.4022 0.93131 0.0
H1117 H 0.45522 0.41625 0.86366 0.0
C1118 C 0.45962 0.40595 0.63268 0.0
C1119 C 0.48072 0.42386 0.64184 0.0
C1120 C 0.44131 0.39925 0.6644 0.0
C1121 C 0.44346 0.41098 0.70534 0.0
C1122 C 0.46429 0.42941 0.7139 0.0
C1123 C 0.48295 0.43555 0.68258 0.0
C1124 C 0.42501 0.40324 0.74013 0.0
C1125 C 0.43651 0.39492 0.77912 0.0
C1126 C 0.39662 0.40373 0.7354 0.0
C1127 C 0.38318 0.41383 0.6959 0.0
C1128 C 0.38994 0.43908 0.6794 0.0
C1129 C 0.37809 0.44816 0.64136 0.0
C1130 C 0.35875 0.43248 0.62013 0.0
C1131 C 0.35119 0.40775 0.63702 0.0
C1132 C 0.36342 0.39834 0.67463 0.0
C1133 C 0.36427 0.39238 0.91959 0.0
C1134 C 0.35278 0.36677 0.92429 0.0
C1135 C 0.37556 0.3999 0.88091 0.0
C1136 C 0.3753 0.38213 0.84598 0.0
C1137 C 0.36196 0.35744 0.84927 0.0
C1138 C 0.35088 0.34973 0.88823 0.0
C1139 C 0.3924 0.38783 0.80889 0.0
C1140 C 0.38066 0.39572 0.76986 0.0
C1141 C 0.42063 0.38719 0.8134 0.0
C1142 C 0.43406 0.37865 0.85377 0.0
C1143 C 0.42962 0.35287 0.87027 0.0
C1144 C 0.44197 0.34514 0.90872 0.0
C1145 C 0.45902 0.36293 0.93075 0.0
C1146 C 0.46382 0.38847 0.91427 0.0
C1147 C 0.45146 0.39632 0.87588 0.0
H1148 H 0.46856 0.3569 0.96052 0.0
H1149 H 0.34942 0.43963 0.59087 0.0
H1150 H 0.57305 0.44271 0.6303 0.0
H1151 H 0.59578 0.42092 0.68985 0.0
H1152 H 0.606 0.49758 0.75282 0.0
H1153 H 0.58357 0.51964 0.69254 0.0
H1154 H 0.65176 0.46859 0.7559 0.0
H1155 H 0.55865 0.45269 0.78915 0.0
H1156 H 0.51234 0.43747 0.77456 0.0
H1157 H 0.5409 0.35823 0.74596 0.0
H1158 H 0.58745 0.37299 0.76082 0.0
H1159 H 0.68407 0.42322 0.96514 0.0
H1160 H 0.66485 0.44389 0.90106 0.0
H1161 H 0.65332 0.36561 0.84386 0.0
H1162 H 0.67152 0.34471 0.90866 0.0
H1163 H 0.60932 0.39445 0.83574 0.0
H1164 H 0.70215 0.40906 0.80877 0.0
H1165 H 0.74854 0.42389 0.82424 0.0
H1166 H 0.72145 0.50508 0.83918 0.0
H1167 H 0.67482 0.49068 0.82438 0.0
C1168 C 0.57996 0.45499 0.65655 0.0
C1169 C 0.57639 0.48292 0.6562 0.0
C1170 C 0.59292 0.44245 0.6909 0.0
C1171 C 0.60239 0.45759 0.72601 0.0
C1172 C 0.59886 0.4855 0.72601 0.0
C1173 C 0.58594 0.49804 0.69153 0.0
C1174 C 0.6163 0.4443 0.76241 0.0
C1175 C 0.64239 0.45261 0.77378 0.0
C1176 C 0.60439 0.4229 0.78479 0.0
C1177 C 0.57649 0.414 0.7757 0.0
C1178 C 0.55505 0.43207 0.77951 0.0
C1179 C 0.52875 0.42349 0.77129 0.0
C1180 C 0.52367 0.39692 0.75904 0.0
C1181 C 0.54487 0.37881 0.75536 0.0
C1182 C 0.5712 0.38724 0.76386 0.0
C1183 C 0.67741 0.41038 0.93895 0.0
C1184 C 0.6792 0.3823 0.9421 0.0
C1185 C 0.66672 0.42226 0.90211 0.0
C1186 C 0.65787 0.40632 0.86747 0.0
C1187 C 0.6601 0.3783 0.87017 0.0
C1188 C 0.6707 0.36639 0.90709 0.0
C1189 C 0.6448 0.41881 0.82957 0.0
C1190 C 0.61883 0.41034 0.81785 0.0
C1191 C 0.65692 0.43999 0.80683 0.0
C1192 C 0.68494 0.44873 0.81586 0.0
C1193 C 0.70605 0.43004 0.81572 0.0
C1194 C 0.73239 0.43838 0.8243 0.0
C1195 C 0.73793 0.4654 0.83279 0.0
C1196 C 0.71713 0.48415 0.83264 0.0
C1197 C 0.69074 0.47592 0.82412 0.0
H1198 H 0.75835 0.47182 0.83941 0.0
H1199 H 0.50333 0.39031 0.75248 0.0
H1200 H 0.56409 0.48045 0.35576 0.0
H1201 H 0.58481 0.45257 0.301 0.0
H1202 H 0.66132 0.45972 0.36662 0.0
H1203 H 0.64061 0.48717 0.4223 0.0
H1204 H 0.66214 0.47201 0.27788 0.0
H1205 H 0.63508 0.40243 0.37008 0.0
H1206 H 0.60465 0.37729 0.41659 0.0
H1207 H 0.55166 0.3619 0.30965 0.0
H1208 H 0.58131 0.38782 0.26263 0.0
H1209 H 0.72112 0.38059 0.13022 0.0
H1210 H 0.70665 0.39948 0.19868 0.0
H1211 H 0.62452 0.39885 0.15292 0.0
H1212 H 0.63887 0.37989 0.0845 0.0
H1213 H 0.63122 0.38027 0.23835 0.0
H1214 H 0.65748 0.45487 0.14908 0.0
H1215 H 0.68876 0.48019 0.10414 0.0
H1216 H 0.74517 0.48546 0.2092 0.0
H1217 H 0.71436 0.4598 0.25459 0.0
C1218 C 0.58527 0.47591 0.3588 0.0
C1219 C 0.60073 0.48599 0.39331 0.0
C1220 C 0.59705 0.45992 0.32757 0.0
C1221 C 0.62453 0.45408 0.33002 0.0
C1222 C 0.64006 0.46404 0.36439 0.0
C1223 C 0.62818 0.47967 0.39609 0.0
C1224 C 0.63709 0.43869 0.29527 0.0
C1225 C 0.65586 0.45173 0.26973 0.0
C1226 C 0.62855 0.41241 0.2846 0.0
C1227 C 0.61042 0.39708 0.31277 0.0
C1228 C 0.6168 0.39393 0.35649 0.0
C1229 C 0.59968 0.37958 0.38297 0.0
C1230 C 0.57629 0.36795 0.366 0.0
C1231 C 0.56986 0.37083 0.32261 0.0
C1232 C 0.58677 0.3854 0.29605 0.0
C1233 C 0.69997 0.38428 0.13499 0.0
C1234 C 0.6811 0.37898 0.10211 0.0
C1235 C 0.69176 0.39508 0.17396 0.0
C1236 C 0.66455 0.40059 0.18066 0.0
C1237 C 0.6456 0.39467 0.14829 0.0
C1238 C 0.65382 0.38411 0.10919 0.0
C1239 C 0.65592 0.41381 0.22054 0.0
C1240 C 0.63783 0.40037 0.24695 0.0
C1241 C 0.66528 0.43968 0.23229 0.0
C1242 C 0.68377 0.45514 0.20505 0.0
C1243 C 0.67666 0.46121 0.16247 0.0
C1244 C 0.69428 0.47567 0.13694 0.0
C1245 C 0.71898 0.48435 0.15376 0.0
C1246 C 0.72607 0.47867 0.19619 0.0
C1247 C 0.70853 0.46418 0.22183 0.0
H1248 H 0.73258 0.49556 0.13395 0.0
H1249 H 0.56311 0.35673 0.38651 0.0
H1250 H 0.47511 0.61036 0.33632 0.0
H1251 H 0.5003 0.6311 0.27883 0.0
H1252 H 0.57085 0.58672 0.31707 0.0
H1253 H 0.54584 0.56597 0.37497 0.0
H1254 H 0.58111 0.64067 0.30295 0.0
H1255 H 0.5357 0.56731 0.23104 0.0
H1256 H 0.49634 0.54005 0.20951 0.0
H1257 H 0.46102 0.60834 0.14752 0.0
H1258 H 0.49998 0.63614 0.16926 0.0
H1259 H 0.65814 0.66174 0.11526 0.0
H1260 H 0.63459 0.64549 0.17821 0.0
H1261 H 0.56124 0.6815 0.13108 0.0
H1262 H 0.58462 0.69723 0.06778 0.0
H1263 H 0.55231 0.63196 0.15084 0.0
H1264 H 0.59625 0.70564 0.22057 0.0
H1265 H 0.63352 0.73494 0.24459 0.0
H1266 H 0.66958 0.66923 0.3124 0.0
H1267 H 0.63277 0.63935 0.28813 0.0
C1268 C 0.49597 0.60496 0.33247 0.0
C1269 C 0.5085 0.58652 0.36013 0.0
C1270 C 0.5103 0.61676 0.29954 0.0
C1271 C 0.53736 0.61029 0.29363 0.0
C1272 C 0.54996 0.59194 0.32119 0.0
C1273 C 0.53561 0.58002 0.35407 0.0
C1274 C 0.55254 0.62289 0.2588 0.0
C1275 C 0.57513 0.63851 0.26956 0.0
C1276 C 0.54406 0.62067 0.21554 0.0
C1277 C 0.52069 0.60388 0.20213 0.0
C1278 C 0.51945 0.57658 0.21311 0.0
C1279 C 0.49722 0.56102 0.20082 0.0
C1280 C 0.47617 0.57247 0.17723 0.0
C1281 C 0.47732 0.5995 0.16582 0.0
C1282 C 0.49949 0.61516 0.17809 0.0
C1283 C 0.63714 0.66666 0.11891 0.0
C1284 C 0.62312 0.6806 0.08669 0.0
C1285 C 0.62369 0.6574 0.15486 0.0
C1286 C 0.59613 0.66231 0.15943 0.0
C1287 C 0.58245 0.67733 0.12813 0.0
C1288 C 0.5958 0.68633 0.09205 0.0
C1289 C 0.58104 0.64996 0.19479 0.0
C1290 C 0.55841 0.63426 0.18415 0.0
C1291 C 0.58935 0.65238 0.23819 0.0
C1292 C 0.61187 0.67015 0.25206 0.0
C1293 C 0.61229 0.69732 0.24015 0.0
C1294 C 0.6333 0.71406 0.25391 0.0
C1295 C 0.65394 0.70393 0.27988 0.0
C1296 C 0.65361 0.67703 0.29218 0.0
C1297 C 0.63267 0.66018 0.27842 0.0
H1298 H 0.67016 0.71693 0.29056 0.0
H1299 H 0.45903 0.56037 0.16769 0.0
H1300 H 0.42485 0.55253 0.40084 0.0
H1301 H 0.40451 0.57527 0.33997 0.0
H1302 H 0.40994 0.50247 0.26515 0.0
H1303 H 0.43218 0.48011 0.32523 0.0
H1304 H 0.41957 0.5435 0.21696 0.0
H1305 H 0.35107 0.52235 0.31937 0.0
H1306 H 0.33136 0.52309 0.39127 0.0
H1307 H 0.32825 0.60915 0.38834 0.0
H1308 H 0.34829 0.60894 0.31661 0.0
H1309 H 0.31605 0.56418 0.06572 0.0
H1310 H 0.34045 0.54751 0.12845 0.0
H1311 H 0.34493 0.62779 0.18037 0.0
H1312 H 0.32119 0.64489 0.11689 0.0
H1313 H 0.3312 0.58644 0.24068 0.0
H1314 H 0.39772 0.60729 0.13701 0.0
H1315 H 0.41865 0.6066 0.0661 0.0
H1316 H 0.42536 0.52082 0.07192 0.0
H1317 H 0.40409 0.52097 0.1426 0.0
C1318 C 0.42238 0.54153 0.3712 0.0
C1319 C 0.43021 0.51456 0.36791 0.0
C1320 C 0.41037 0.55447 0.33653 0.0
C1321 C 0.40499 0.54034 0.29842 0.0
C1322 C 0.41368 0.51368 0.29442 0.0
C1323 C 0.42632 0.50091 0.32883 0.0
C1324 C 0.38944 0.55301 0.26331 0.0
C1325 C 0.40012 0.55261 0.22209 0.0
C1326 C 0.36435 0.56552 0.2703 0.0
C1327 C 0.35143 0.56563 0.31279 0.0
C1328 C 0.34626 0.54144 0.33411 0.0
C1329 C 0.33505 0.54176 0.37484 0.0
C1330 C 0.32869 0.56616 0.39443 0.0
C1331 C 0.33327 0.59027 0.37316 0.0
C1332 C 0.34452 0.59006 0.33245 0.0
C1333 C 0.32224 0.57832 0.09045 0.0
C1334 C 0.31701 0.6059 0.08615 0.0
C1335 C 0.33606 0.56875 0.12626 0.0
C1336 C 0.34472 0.58652 0.15852 0.0
C1337 C 0.33839 0.61385 0.15556 0.0
C1338 C 0.32474 0.62353 0.11946 0.0
C1339 C 0.36121 0.57648 0.19451 0.0
C1340 C 0.3507 0.57739 0.23577 0.0
C1341 C 0.38639 0.56434 0.18759 0.0
C1342 C 0.39901 0.56412 0.14491 0.0
C1343 C 0.40337 0.58825 0.12296 0.0
C1344 C 0.41536 0.58797 0.08285 0.0
C1345 C 0.42325 0.56368 0.06445 0.0
C1346 C 0.41919 0.53962 0.08617 0.0
C1347 C 0.40717 0.5398 0.12627 0.0
H1348 H 0.43257 0.5635 0.03341 0.0
H1349 H 0.32023 0.56637 0.42609 0.0
H1350 H 0.50532 0.3691 0.38068 0.0
H1351 H 0.47889 0.35896 0.31616 0.0
H1352 H 0.49861 0.43656 0.26491 0.0
H1353 H 0.52527 0.44689 0.32948 0.0
H1354 H 0.44435 0.42611 0.26277 0.0
H1355 H 0.52428 0.38152 0.21376 0.0
H1356 H 0.56301 0.35077 0.21787 0.0
H1357 H 0.51029 0.28487 0.24392 0.0
H1358 H 0.47119 0.31509 0.23898 0.0
H1359 H 0.38122 0.40143 0.06098 0.0
H1360 H 0.41269 0.4124 0.11903 0.0
H1361 H 0.40363 0.33262 0.16975 0.0
H1362 H 0.37325 0.32099 0.1103 0.0
H1363 H 0.45428 0.34566 0.17021 0.0
H1364 H 0.37405 0.38959 0.21561 0.0
H1365 H 0.33504 0.41979 0.21038 0.0
H1366 H 0.3875 0.4873 0.19482 0.0
H1367 H 0.42689 0.45748 0.19937 0.0
C1368 C 0.5043 0.38393 0.35553 0.0
C1369 C 0.51725 0.40889 0.36035 0.0
C1370 C 0.48932 0.37802 0.31852 0.0
C1371 C 0.48691 0.39695 0.28565 0.0
C1372 C 0.50028 0.42166 0.28991 0.0
C1373 C 0.51548 0.42752 0.32682 0.0
C1374 C 0.46869 0.39165 0.2486 0.0
C1375 C 0.44676 0.40882 0.24193 0.0
C1376 C 0.47141 0.36865 0.22238 0.0
C1377 C 0.49488 0.35058 0.22634 0.0
C1378 C 0.52098 0.36049 0.22057 0.0
C1379 C 0.54297 0.34315 0.22283 0.0
C1380 C 0.53913 0.31595 0.23147 0.0
C1381 C 0.51325 0.30596 0.23736 0.0
C1382 C 0.49115 0.32314 0.23453 0.0
C1383 C 0.38605 0.3861 0.08426 0.0
C1384 C 0.37472 0.36026 0.08079 0.0
C1385 C 0.40382 0.39254 0.11782 0.0
C1386 C 0.41031 0.37346 0.14914 0.0
C1387 C 0.39887 0.34772 0.14604 0.0
C1388 C 0.38127 0.34117 0.11224 0.0
C1389 C 0.4297 0.38004 0.18434 0.0
C1390 C 0.45186 0.36308 0.19076 0.0
C1391 C 0.42708 0.40322 0.21045 0.0
C1392 C 0.40342 0.42121 0.20727 0.0
C1393 C 0.37728 0.41083 0.21062 0.0
C1394 C 0.35511 0.4279 0.20787 0.0
C1395 C 0.35881 0.45543 0.2021 0.0
C1396 C 0.38469 0.46596 0.19913 0.0
C1397 C 0.40695 0.44899 0.20184 0.0
H1398 H 0.34162 0.46862 0.20005 0.0
H1399 H 0.5562 0.30261 0.23345 0.0
loop_
_geom_bond_atom_site_label_1
_geom_bond_atom_site_label_2
_geom_bond_distance
_geom_bond_site_symmetry_2
_ccdc_geom_bond_type
Zn0 O2 1.933 1_556 S
Zn0 O20 1.985 . S
Zn0 O31 1.955 . S
Zn1 O2 1.911 . S
Zn1 O21 1.970 . S
Zn1 O37 1.945 . S
Zn1 O44 1.981 . S
O2 Zn0 1.933 1_554 S
O2 Zn1 1.911 . S
O2 H3 0.841 1_655 S
H3 O2 0.841 1_455 S
C4 O5 1.246 . S
C4 O33 1.285 . S
O5 C4 1.246 . S
Zn6 O8 1.911 . S
Zn6 O23 1.970 . S
Zn6 O40 1.945 . S
Zn6 O47 1.981 . S
Zn7 O8 1.933 1_556 S
Zn7 O22 1.985 . S
Zn7 O29 1.955 . S
O8 Zn6 1.911 . S
O8 Zn7 1.933 1_554 S
O8 H9 0.841 1_455 S
H9 O8 0.841 1_655 S
Zn10 O11 1.933 1_556 S
Zn10 O24 1.985 . S
Zn10 O33 1.951 1_565 S
O11 Zn10 1.933 1_554 S
O11 Zn12 1.911 . S
O11 H13 0.841 1_565 S
Zn12 O11 1.911 . S
Zn12 O25 1.970 . S
Zn12 O41 1.981 . S
Zn12 O43 1.945 . S
H13 O11 0.841 1_545 S
Zn14 O15 1.933 1_556 S
Zn14 O27 1.985 . S
Zn14 O35 1.955 . S
O15 Zn14 1.933 1_554 S
O15 H16 0.841 1_545 S
O15 Zn17 1.911 . S
H16 O15 0.841 1_565 S
Zn17 O15 1.911 . S
Zn17 O28 1.970 . S
Zn17 O38 1.981 . S
Zn17 O46 1.945 . S
C18 O19 1.246 . S
C18 O35 1.276 1_565 S
O19 C18 1.246 . S
O20 Zn0 1.985 . S
O20 C30 1.245 1_556 S
O21 Zn1 1.970 . S
O21 C30 1.263 . S
O22 Zn7 1.985 . S
O22 C34 1.245 1_556 S
O23 Zn6 1.970 . S
O23 C34 1.263 . S
O24 Zn10 1.985 . S
O24 C39 1.245 1_556 S
O25 Zn12 1.970 . S
O25 C39 1.263 . S
C26 O37 1.262 1_455 S
C26 O38 1.245 . S
O27 Zn14 1.985 . S
O27 C45 1.245 1_556 S
O28 Zn17 1.970 . S
O28 C45 1.263 . S
O29 Zn7 1.955 . S
O29 C48 1.276 1_455 S
C30 O20 1.245 1_554 S
C30 O21 1.263 . S
O31 Zn0 1.955 . S
O31 C50 1.276 1_655 S
C32 O40 1.262 1_655 S
C32 O41 1.245 . S
O33 C4 1.285 . S
O33 Zn10 1.951 1_545 S
C34 O22 1.245 1_554 S
C34 O23 1.263 . S
O35 Zn14 1.955 . S
O35 C18 1.276 1_545 S
C36 O43 1.262 1_545 S
C36 O44 1.245 . S
O37 Zn1 1.945 . S
O37 C26 1.262 1_655 S
O38 Zn17 1.981 . S
O38 C26 1.245 . S
C39 O24 1.245 1_554 S
C39 O25 1.263 . S
O40 Zn6 1.945 . S
O40 C32 1.262 1_455 S
O41 Zn12 1.981 . S
O41 C32 1.245 . S
C42 O46 1.262 1_565 S
C42 O47 1.245 . S
O43 Zn12 1.945 . S
O43 C36 1.262 1_565 S
O44 Zn1 1.981 . S
O44 C36 1.245 . S
C45 O27 1.245 1_554 S
C45 O28 1.263 . S
O46 Zn17 1.945 . S
O46 C42 1.262 1_545 S
O47 Zn6 1.981 . S
O47 C42 1.245 . S
C48 O29 1.276 1_655 S
C48 O49 1.246 . S
O49 C48 1.246 . S
C50 O31 1.276 1_455 S
C50 O51 1.246 . S
O51 C50 1.246 . S
Zn52 O54 1.933 . S
Zn52 O72 1.985 . S
Zn52 O83 1.955 . S
Zn53 O54 1.911 . S
Zn53 O73 1.970 . S
Zn53 O89 1.945 . S
Zn53 O96 1.981 . S
O54 Zn52 1.933 . S
O54 Zn53 1.911 . S
O54 H55 0.841 . S
H55 O54 0.841 . S
C56 O57 1.246 . S
C56 O85 1.276 . S
O57 C56 1.246 . S
Zn58 O60 1.911 . S
Zn58 O75 1.970 . S
Zn58 O92 1.945 . S
Zn58 O99 1.981 . S
Zn59 O60 1.933 . S
Zn59 O74 1.985 . S
Zn59 O81 1.955 . S
O60 Zn58 1.911 . S
O60 Zn59 1.933 . S
O60 H61 0.841 . S
H61 O60 0.841 . S
Zn62 O63 1.933 . S
Zn62 O76 1.985 . S
Zn62 O85 1.955 . S
O63 Zn62 1.933 . S
O63 Zn64 1.911 . S
O63 H65 0.841 . S
Zn64 O63 1.911 . S
Zn64 O77 1.970 . S
Zn64 O93 1.981 . S
Zn64 O95 1.945 . S
H65 O63 0.841 . S
Zn66 O67 1.933 . S
Zn66 O79 1.985 . S
Zn66 O87 1.955 . S
O67 Zn66 1.933 . S
O67 H68 0.841 . S
O67 Zn69 1.911 . S
H68 O67 0.841 . S
Zn69 O67 1.911 . S
Zn69 O80 1.970 . S
Zn69 O90 1.981 . S
Zn69 O98 1.945 . S
C70 O71 1.246 . S
C70 O87 1.276 . S
O71 C70 1.246 . S
O72 Zn52 1.985 . S
O72 C82 1.245 . S
O73 Zn53 1.970 . S
O73 C82 1.263 . S
O74 Zn59 1.985 . S
O74 C86 1.245 . S
O75 Zn58 1.970 . S
O75 C86 1.263 . S
O76 Zn62 1.985 . S
O76 C91 1.245 . S
O77 Zn64 1.970 . S
O77 C91 1.263 . S
C78 O89 1.262 . S
C78 O90 1.245 . S
O79 Zn66 1.985 . S
O79 C97 1.245 . S
O80 Zn69 1.970 . S
O80 C97 1.263 . S
O81 Zn59 1.955 . S
O81 C100 1.276 . S
C82 O72 1.245 . S
C82 O73 1.263 . S
O83 Zn52 1.955 . S
O83 C102 1.276 . S
C84 O92 1.262 . S
C84 O93 1.245 . S
O85 C56 1.276 . S
O85 Zn62 1.955 . S
C86 O74 1.245 . S
C86 O75 1.263 . S
O87 Zn66 1.955 . S
O87 C70 1.276 . S
C88 O95 1.262 . S
C88 O96 1.245 . S
O89 Zn53 1.945 . S
O89 C78 1.262 . S
O90 Zn69 1.981 . S
O90 C78 1.245 . S
C91 O76 1.245 . S
C91 O77 1.263 . S
O92 Zn58 1.945 . S
O92 C84 1.262 . S
O93 Zn64 1.981 . S
O93 C84 1.245 . S
C94 O98 1.262 . S
C94 O99 1.245 . S
O95 Zn64 1.945 . S
O95 C88 1.262 . S
O96 Zn53 1.981 . S
O96 C88 1.245 . S
C97 O79 1.245 . S
C97 O80 1.263 . S
O98 Zn69 1.945 . S
O98 C94 1.262 . S
O99 Zn58 1.981 . S
O99 C94 1.245 . S
C100 O81 1.276 . S
C100 O101 1.246 . S
O101 C100 1.246 . S
C102 O83 1.276 . S
C102 O103 1.246 . S
O103 C102 1.246 . S
H104 C109 0.930 . S
H105 C112 0.930 . S
H106 C114 0.930 . S
H107 C108 1.016 . S
C108 H107 1.016 . S
C108 N115 1.286 1_554 S
C109 H104 0.930 . S
C109 C110 1.397 . S
C109 C111 1.361 1_556 S
C110 C109 1.397 . S
C110 C114 1.390 1_556 S
C111 C109 1.361 1_554 S
C111 C112 1.393 . S
C111 N115 1.413 1_554 S
C112 H105 0.930 . S
C112 C111 1.393 . S
C112 C113 1.399 . S
C113 C112 1.399 . S
C113 C114 1.381 . S
C114 H106 0.930 . S
C114 C110 1.390 1_554 S
C114 C113 1.381 . S
N115 C108 1.286 1_556 S
N115 C111 1.413 1_556 S
H116 C121 0.930 . S
H117 C124 0.930 . S
H118 C126 0.930 . S
H119 C120 1.016 . S
C120 H119 1.016 . S
C120 N127 1.272 1_554 S
C121 H116 0.930 . S
C121 C122 1.397 . S
C121 C123 1.361 1_556 S
C122 C121 1.397 . S
C122 C126 1.390 1_556 S
C123 C121 1.361 1_554 S
C123 C124 1.393 . S
C123 N127 1.409 1_554 S
C124 H117 0.930 . S
C124 C123 1.393 . S
C124 C125 1.399 . S
C125 C124 1.399 . S
C125 C126 1.381 . S
C126 H118 0.930 . S
C126 C122 1.390 1_554 S
C126 C125 1.381 . S
N127 C120 1.272 1_556 S
N127 C123 1.409 1_556 S
H128 C133 0.930 . S
H129 C136 0.930 . S
H130 C138 0.930 . S
H131 C132 1.016 1_556 S
C132 H131 1.016 1_554 S
C132 N139 1.286 . S
C133 H128 0.930 . S
C133 C134 1.397 . S
C133 C135 1.361 . S
C134 C133 1.397 . S
C134 C138 1.390 . S
C135 C133 1.361 . S
C135 C136 1.393 1_554 S
C135 N139 1.413 . S
C136 H129 0.930 . S
C136 C135 1.393 1_556 S
C136 C137 1.399 . S
C137 C136 1.399 . S
C137 C138 1.381 1_556 S
C138 H130 0.930 . S
C138 C134 1.390 . S
C138 C137 1.381 1_554 S
N139 C132 1.286 . S
N139 C135 1.413 . S
H140 C145 0.930 . S
H141 C148 0.930 . S
H142 C150 0.930 . S
H143 C144 1.016 . S
C144 H143 1.016 . S
C144 N151 1.286 1_554 S
C145 H140 0.930 . S
C145 C146 1.397 . S
C145 C147 1.371 . S
C146 C145 1.397 . S
C146 C150 1.390 1_556 S
C147 C145 1.371 . S
C147 C148 1.383 1_556 S
C147 N151 1.414 . S
C148 H141 0.930 . S
C148 C147 1.383 1_554 S
C148 C149 1.399 . S
C149 C148 1.399 . S
C149 C150 1.381 . S
C150 H142 0.930 . S
C150 C146 1.390 1_554 S
C150 C149 1.381 . S
N151 C144 1.286 1_556 S
N151 C147 1.414 . S
H152 C157 0.930 . S
H153 C160 0.930 . S
H154 C162 0.930 . S
H155 C156 1.016 . S
C156 H155 1.016 . S
C156 N163 1.286 . S
C157 H152 0.930 . S
C157 C158 1.397 . S
C157 C159 1.361 . S
C158 C157 1.397 . S
C158 C162 1.390 . S
C159 C157 1.361 . S
C159 C160 1.393 . S
C159 N163 1.413 . S
C160 H153 0.930 . S
C160 C159 1.393 . S
C160 C161 1.399 . S
C161 C160 1.399 . S
C161 C162 1.381 . S
C162 H154 0.930 . S
C162 C158 1.390 . S
C162 C161 1.381 . S
N163 C156 1.286 . S
N163 C159 1.413 . S
H164 C169 0.930 . S
H165 C172 0.930 . S
H166 C174 0.930 . S
H167 C168 1.016 . S
C168 H167 1.016 . S
C168 N175 1.286 . S
C169 H164 0.930 . S
C169 C170 1.397 . S
C169 C171 1.361 . S
C170 C169 1.397 . S
C170 C174 1.390 . S
C171 C169 1.361 . S
C171 C172 1.393 . S
C171 N175 1.413 . S
C172 H165 0.930 . S
C172 C171 1.393 . S
C172 C173 1.399 . S
C173 C172 1.399 . S
C173 C174 1.381 . S
C174 H166 0.930 . S
C174 C170 1.390 . S
C174 C173 1.381 . S
N175 C168 1.286 . S
N175 C171 1.413 . S
H176 C181 0.930 . S
H177 C184 0.930 . S
H178 C186 0.930 . S
H179 C180 1.016 . S
C180 H179 1.016 . S
C180 N187 1.286 . S
C181 H176 0.930 . S
C181 C182 1.397 . S
C181 C183 1.361 . S
C182 C181 1.397 . S
C182 C186 1.390 . S
C183 C181 1.361 . S
C183 C184 1.393 . S
C183 N187 1.413 . S
C184 H177 0.930 . S
C184 C183 1.393 . S
C184 C185 1.399 . S
C185 C184 1.399 . S
C185 C186 1.381 . S
C186 H178 0.930 . S
C186 C182 1.390 . S
C186 C185 1.381 . S
N187 C180 1.286 . S
N187 C183 1.413 . S
H188 C193 0.930 . S
H189 C196 0.930 . S
H190 C198 0.930 . S
H191 C192 1.016 . S
C192 H191 1.016 . S
C192 N199 1.286 . S
C193 H188 0.930 . S
C193 C194 1.397 . S
C193 C195 1.361 . S
C194 C193 1.397 . S
C194 C198 1.390 . S
C195 C193 1.361 . S
C195 C196 1.393 . S
C195 N199 1.413 . S
C196 H189 0.930 . S
C196 C195 1.393 . S
C196 C197 1.399 . S
C197 C196 1.399 . S
C197 C198 1.381 . S
C198 H190 0.930 . S
C198 C194 1.390 . S
C198 C197 1.381 . S
N199 C192 1.286 . S
N199 C195 1.413 . S
H200 C218 0.951 1_556 S
H201 C220 0.951 1_556 S
H202 C222 0.950 . S
H203 C223 0.950 . S
H204 C225 0.950 1_556 S
H205 C228 0.950 . S
H206 C229 0.950 . S
H207 C231 0.950 . S
H208 C232 0.950 . S
H209 C233 0.951 . S
H210 C235 0.951 . S
H211 C237 0.950 . S
H212 C238 0.957 . S
H213 C240 0.950 . S
H214 C243 0.950 . S
H215 C244 0.950 . S
H216 C246 0.950 . S
H217 C247 0.950 1_554 S
C218 H200 0.951 1_554 S
C218 C219 1.366 . S
C218 C220 1.388 . S
C219 C218 1.366 . S
C219 C223 1.385 . S
C220 H201 0.951 1_554 S
C220 C218 1.388 . S
C220 C221 1.366 . S
C221 C220 1.366 . S
C221 C222 1.414 . S
C221 C224 1.499 . S
C222 H202 0.950 . S
C222 C221 1.414 . S
C222 C223 1.374 . S
C223 H203 0.950 . S
C223 C219 1.385 . S
C223 C222 1.374 . S
C224 C221 1.499 . S
C224 C225 1.373 . S
C224 C226 1.389 . S
C225 H204 0.950 1_554 S
C225 C224 1.373 . S
C225 C241 1.376 1_554 S
C226 C224 1.389 . S
C226 C227 1.524 . S
C226 C240 1.377 . S
C227 C226 1.524 . S
C227 C228 1.397 . S
C227 C232 1.363 . S
C228 H205 0.950 . S
C228 C227 1.397 . S
C228 C229 1.334 . S
C229 H206 0.950 . S
C229 C228 1.334 . S
C229 C230 1.287 . S
C230 C229 1.287 . S
C230 C231 1.524 . S
C230 H249 0.913 . S
C231 H207 0.950 . S
C231 C230 1.524 . S
C231 C232 1.415 . S
C232 H208 0.950 . S
C232 C227 1.363 . S
C232 C231 1.415 . S
C233 H209 0.951 . S
C233 C234 1.366 . S
C233 C235 1.388 . S
C234 C233 1.366 . S
C234 C238 1.378 1_554 S
C235 H210 0.951 . S
C235 C233 1.388 . S
C235 C236 1.366 . S
C236 C235 1.366 . S
C236 C237 1.414 1_554 S
C236 C239 1.499 . S
C237 H211 0.950 . S
C237 C236 1.414 1_556 S
C237 C238 1.374 . S
C238 H212 0.957 . S
C238 C234 1.378 1_556 S
C238 C237 1.374 . S
C239 C236 1.499 . S
C239 C240 1.373 . S
C239 C241 1.388 1_554 S
C240 H213 0.950 . S
C240 C226 1.377 . S
C240 C239 1.373 . S
C241 C225 1.376 1_556 S
C241 C239 1.388 1_556 S
C241 C242 1.527 . S
C242 C241 1.527 . S
C242 C243 1.397 . S
C242 C247 1.363 . S
C243 H214 0.950 . S
C243 C242 1.397 . S
C243 C244 1.334 . S
C244 H215 0.950 . S
C244 C243 1.334 . S
C244 C245 1.287 . S
C245 C244 1.287 . S
C245 C246 1.524 . S
C245 H248 0.999 . S
C246 H216 0.950 . S
C246 C245 1.524 . S
C246 C247 1.415 . S
C247 H217 0.950 1_556 S
C247 C242 1.363 . S
C247 C246 1.415 . S
H248 C245 0.999 . S
H249 C230 0.913 . S
H250 C268 0.951 . S
H251 C270 0.951 . S
H252 C272 0.950 . S
H253 C273 0.950 . S
H254 C275 0.950 . S
H255 C278 0.950 . S
H256 C279 0.950 . S
H257 C281 0.950 . S
H258 C282 0.950 1_554 S
H259 C283 0.951 1_556 S
H260 C285 0.951 1_556 S
H261 C287 0.950 . S
H262 C288 0.950 . S
H263 C290 0.950 1_556 S
H264 C293 0.950 . S
H265 C294 0.950 . S
H266 C296 0.950 . S
H267 C297 0.950 . S
C268 H250 0.951 . S
C268 C269 1.366 . S
C268 C270 1.388 . S
C269 C268 1.366 . S
C269 C273 1.385 1_554 S
C270 H251 0.951 . S
C270 C268 1.388 . S
C270 C271 1.366 . S
C271 C270 1.366 . S
C271 C272 1.414 1_554 S
C271 C274 1.499 . S
C272 H252 0.950 . S
C272 C271 1.414 1_556 S
C272 C273 1.374 . S
C273 H253 0.950 . S
C273 C269 1.385 1_556 S
C273 C272 1.374 . S
C274 C271 1.499 . S
C274 C275 1.373 . S
C274 C276 1.389 . S
C275 H254 0.950 . S
C275 C274 1.373 . S
C275 C291 1.377 . S
C276 C274 1.389 . S
C276 C277 1.524 1_554 S
C276 C290 1.377 . S
C277 C276 1.524 1_556 S
C277 C278 1.397 . S
C277 C282 1.363 . S
C278 H255 0.950 . S
C278 C277 1.397 . S
C278 C279 1.334 . S
C279 H256 0.950 . S
C279 C278 1.334 . S
C279 C280 1.287 . S
C280 C279 1.287 . S
C280 C281 1.524 . S
C280 H299 0.913 . S
C281 H257 0.950 . S
C281 C280 1.524 . S
C281 C282 1.415 . S
C282 H258 0.950 1_556 S
C282 C277 1.363 . S
C282 C281 1.415 . S
C283 H259 0.951 1_554 S
C283 C284 1.366 . S
C283 C285 1.388 . S
C284 C283 1.366 . S
C284 C288 1.385 . S
C285 H260 0.951 1_554 S
C285 C283 1.388 . S
C285 C286 1.366 . S
C286 C285 1.366 . S
C286 C287 1.414 . S
C286 C289 1.499 . S
C287 H261 0.950 . S
C287 C286 1.414 . S
C287 C288 1.374 . S
C288 H262 0.950 . S
C288 C284 1.385 . S
C288 C287 1.374 . S
C289 C286 1.499 . S
C289 C290 1.373 . S
C289 C291 1.389 . S
C290 H263 0.950 1_554 S
C290 C276 1.377 . S
C290 C289 1.373 . S
C291 C275 1.377 . S
C291 C289 1.389 . S
C291 C292 1.524 . S
C292 C291 1.524 . S
C292 C293 1.397 . S
C292 C297 1.363 . S
C293 H264 0.950 . S
C293 C292 1.397 . S
C293 C294 1.334 . S
C294 H265 0.950 . S
C294 C293 1.334 . S
C294 C295 1.287 . S
C295 C294 1.287 . S
C295 C296 1.524 . S
C295 H298 0.999 . S
C296 H266 0.950 . S
C296 C295 1.524 . S
C296 C297 1.415 . S
C297 H267 0.950 . S
C297 C292 1.363 . S
C297 C296 1.415 . S
H298 C295 0.999 . S
H299 C280 0.913 . S
H300 C318 0.951 . S
H301 C320 0.951 . S
H302 C322 0.950 . S
H303 C323 0.950 . S
H304 C325 0.950 . S
H305 C328 0.950 . S
H306 C329 0.950 . S
H307 C331 0.950 . S
H308 C332 0.950 . S
H309 C333 0.951 . S
H310 C335 0.951 . S
H311 C337 0.950 . S
H312 C338 0.951 . S
H313 C340 0.950 . S
H314 C343 0.950 . S
H315 C344 0.950 . S
H316 C346 0.950 . S
H317 C347 0.950 . S
C318 H300 0.951 . S
C318 C319 1.366 . S
C318 C320 1.388 . S
C319 C318 1.366 . S
C319 C323 1.385 . S
C320 H301 0.951 . S
C320 C318 1.388 . S
C320 C321 1.366 . S
C321 C320 1.366 . S
C321 C322 1.414 . S
C321 C324 1.499 . S
C322 H302 0.950 . S
C322 C321 1.414 . S
C322 C323 1.374 . S
C323 H303 0.950 . S
C323 C319 1.385 . S
C323 C322 1.374 . S
C324 C321 1.499 . S
C324 C325 1.373 . S
C324 C326 1.389 1_554 S
C325 H304 0.950 . S
C325 C324 1.373 . S
C325 C341 1.377 . S
C326 C324 1.389 1_556 S
C326 C327 1.524 . S
C326 C340 1.377 . S
C327 C326 1.524 . S
C327 C328 1.397 . S
C327 C332 1.363 . S
C328 H305 0.950 . S
C328 C327 1.397 . S
C328 C329 1.334 . S
C329 H306 0.950 . S
C329 C328 1.334 . S
C329 C330 1.287 . S
C330 C329 1.287 . S
C330 C331 1.524 . S
C330 H349 0.913 . S
C331 H307 0.950 . S
C331 C330 1.524 . S
C331 C332 1.415 . S
C332 H308 0.950 . S
C332 C327 1.363 . S
C332 C331 1.415 . S
C333 H309 0.951 . S
C333 C334 1.366 . S
C333 C335 1.388 . S
C334 C333 1.366 . S
C334 C338 1.385 . S
C335 H310 0.951 . S
C335 C333 1.388 . S
C335 C336 1.366 . S
C336 C335 1.366 . S
C336 C337 1.414 . S
C336 C339 1.499 . S
C337 H311 0.950 . S
C337 C336 1.414 . S
C337 C338 1.374 . S
C338 H312 0.951 . S
C338 C334 1.385 . S
C338 C337 1.374 . S
C339 C336 1.499 . S
C339 C340 1.373 1_554 S
C339 C341 1.389 . S
C340 H313 0.950 . S
C340 C326 1.377 . S
C340 C339 1.373 1_556 S
C341 C325 1.377 . S
C341 C339 1.389 . S
C341 C342 1.524 . S
C342 C341 1.524 . S
C342 C343 1.397 . S
C342 C347 1.363 . S
C343 H314 0.950 . S
C343 C342 1.397 . S
C343 C344 1.334 . S
C344 H315 0.950 . S
C344 C343 1.334 . S
C344 C345 1.287 . S
C345 C344 1.287 . S
C345 C346 1.524 . S
C345 H348 0.999 . S
C346 H316 0.950 . S
C346 C345 1.524 . S
C346 C347 1.415 . S
C347 H317 0.950 . S
C347 C342 1.363 . S
C347 C346 1.415 . S
H348 C345 0.999 . S
H349 C330 0.913 . S
H350 C368 0.951 . S
H351 C370 0.951 . S
H352 C372 0.950 . S
H353 C373 0.950 . S
H354 C375 0.950 1_556 S
H355 C378 0.950 . S
H356 C379 0.950 1_556 S
H357 C381 0.950 . S
H358 C382 0.950 . S
H359 C383 0.951 . S
H360 C385 0.951 . S
H361 C387 0.950 . S
H362 C388 0.950 . S
H363 C390 0.950 . S
H364 C393 0.950 . S
H365 C394 0.950 . S
H366 C396 0.950 . S
H367 C397 0.950 . S
C368 H350 0.951 . S
C368 C369 1.366 . S
C368 C370 1.388 . S
C369 C368 1.366 . S
C369 C373 1.385 1_554 S
C370 H351 0.951 . S
C370 C368 1.388 . S
C370 C371 1.366 . S
C371 C370 1.366 . S
C371 C372 1.414 1_554 S
C371 C374 1.499 . S
C372 H352 0.950 . S
C372 C371 1.414 1_556 S
C372 C373 1.374 . S
C373 H353 0.950 . S
C373 C369 1.385 1_556 S
C373 C372 1.374 . S
C374 C371 1.499 . S
C374 C375 1.373 . S
C374 C376 1.389 . S
C375 H354 0.950 1_554 S
C375 C374 1.373 . S
C375 C391 1.377 . S
C376 C374 1.389 . S
C376 C377 1.524 . S
C376 C390 1.377 . S
C377 C376 1.524 . S
C377 C378 1.397 1_554 S
C377 C382 1.363 . S
C378 H355 0.950 . S
C378 C377 1.397 1_556 S
C378 C379 1.334 1_556 S
C379 H356 0.950 1_554 S
C379 C378 1.334 1_554 S
C379 C380 1.287 . S
C380 C379 1.287 . S
C380 C381 1.524 . S
C380 H399 0.913 . S
C381 H357 0.950 . S
C381 C380 1.524 . S
C381 C382 1.415 . S
C382 H358 0.950 . S
C382 C377 1.363 . S
C382 C381 1.415 . S
C383 H359 0.951 . S
C383 C384 1.366 1_556 S
C383 C385 1.388 . S
C384 C383 1.366 1_554 S
C384 C388 1.385 . S
C385 H360 0.951 . S
C385 C383 1.388 . S
C385 C386 1.366 1_556 S
C386 C385 1.366 1_554 S
C386 C387 1.414 . S
C386 C389 1.499 . S
C387 H361 0.950 . S
C387 C386 1.414 . S
C387 C388 1.374 . S
C388 H362 0.950 . S
C388 C384 1.385 . S
C388 C387 1.374 . S
C389 C386 1.499 . S
C389 C390 1.373 . S
C389 C391 1.389 . S
C390 H363 0.950 . S
C390 C376 1.377 . S
C390 C389 1.373 . S
C391 C375 1.377 . S
C391 C389 1.389 . S
C391 C392 1.521 1_554 S
C392 C391 1.521 1_556 S
C392 C393 1.377 1_556 S
C392 C397 1.384 . S
C393 H364 0.950 . S
C393 C392 1.377 1_554 S
C393 C394 1.334 . S
C394 H365 0.950 . S
C394 C393 1.334 . S
C394 C395 1.287 1_554 S
C395 C394 1.287 1_556 S
C395 C396 1.524 . S
C395 H398 0.999 . S
C396 H366 0.950 . S
C396 C395 1.524 . S
C396 C397 1.415 . S
C397 H367 0.950 . S
C397 C392 1.384 . S
C397 C396 1.415 . S
H398 C395 0.999 . S
H399 C380 0.913 . S
H400 C418 0.951 . S
H401 C420 0.951 . S
H402 C422 0.950 . S
H403 C423 0.950 . S
H404 C425 0.950 . S
H405 C428 0.950 . S
H406 C429 0.950 . S
H407 C431 0.950 . S
H408 C432 0.950 . S
H409 C433 0.951 . S
H410 C435 0.951 . S
H411 C437 0.950 . S
H412 C438 0.950 . S
H413 C440 0.950 . S
H414 C443 0.950 . S
H415 C444 0.950 . S
H416 C446 0.950 . S
H417 C447 0.950 . S
C418 H400 0.951 . S
C418 C419 1.366 . S
C418 C420 1.388 . S
C419 C418 1.366 . S
C419 C423 1.385 . S
C420 H401 0.951 . S
C420 C418 1.388 . S
C420 C421 1.366 . S
C421 C420 1.366 . S
C421 C422 1.414 . S
C421 C424 1.499 . S
C422 H402 0.950 . S
C422 C421 1.414 . S
C422 C423 1.374 . S
C423 H403 0.950 . S
C423 C419 1.385 . S
C423 C422 1.374 . S
C424 C421 1.499 . S
C424 C425 1.373 . S
C424 C426 1.389 . S
C425 H404 0.950 . S
C425 C424 1.373 . S
C425 C441 1.377 . S
C426 C424 1.389 . S
C426 C427 1.524 . S
C426 C440 1.377 . S
C427 C426 1.524 . S
C427 C428 1.397 . S
C427 C432 1.363 . S
C428 H405 0.950 . S
C428 C427 1.397 . S
C428 C429 1.334 . S
C429 H406 0.950 . S
C429 C428 1.334 . S
C429 C430 1.287 . S
C430 C429 1.287 . S
C430 C431 1.524 . S
C430 H449 0.913 . S
C431 H407 0.950 . S
C431 C430 1.524 . S
C431 C432 1.415 . S
C432 H408 0.950 . S
C432 C427 1.363 . S
C432 C431 1.415 . S
C433 H409 0.951 . S
C433 C434 1.366 . S
C433 C435 1.388 . S
C434 C433 1.366 . S
C434 C438 1.385 . S
C435 H410 0.951 . S
C435 C433 1.388 . S
C435 C436 1.366 . S
C436 C435 1.366 . S
C436 C437 1.414 . S
C436 C439 1.499 . S
C437 H411 0.950 . S
C437 C436 1.414 . S
C437 C438 1.374 . S
C438 H412 0.950 . S
C438 C434 1.385 . S
C438 C437 1.374 . S
C439 C436 1.499 . S
C439 C440 1.373 . S
C439 C441 1.389 . S
C440 H413 0.950 . S
C440 C426 1.377 . S
C440 C439 1.373 . S
C441 C425 1.377 . S
C441 C439 1.389 . S
C441 C442 1.524 . S
C442 C441 1.524 . S
C442 C443 1.397 . S
C442 C447 1.363 . S
C443 H414 0.950 . S
C443 C442 1.397 . S
C443 C444 1.334 . S
C444 H415 0.950 . S
C444 C443 1.334 . S
C444 C445 1.287 . S
C445 C444 1.287 . S
C445 C446 1.524 . S
C445 H448 0.999 . S
C446 H416 0.950 . S
C446 C445 1.524 . S
C446 C447 1.415 . S
C447 H417 0.950 . S
C447 C442 1.363 . S
C447 C446 1.415 . S
H448 C445 0.999 . S
H449 C430 0.913 . S
H450 C468 0.951 . S
H451 C470 0.951 . S
H452 C472 0.950 . S
H453 C473 0.950 . S
H454 C475 0.950 . S
H455 C478 0.950 . S
H456 C479 0.950 . S
H457 C481 0.950 . S
H458 C482 0.950 . S
H459 C483 0.951 . S
H460 C485 0.951 . S
H461 C487 0.950 . S
H462 C488 0.950 . S
H463 C490 0.950 . S
H464 C493 0.950 . S
H465 C494 0.950 . S
H466 C496 0.950 . S
H467 C497 0.950 . S
C468 H450 0.951 . S
C468 C469 1.366 . S
C468 C470 1.388 . S
C469 C468 1.366 . S
C469 C473 1.385 . S
C470 H451 0.951 . S
C470 C468 1.388 . S
C470 C471 1.366 . S
C471 C470 1.366 . S
C471 C472 1.414 . S
C471 C474 1.499 . S
C472 H452 0.950 . S
C472 C471 1.414 . S
C472 C473 1.374 . S
C473 H453 0.950 . S
C473 C469 1.385 . S
C473 C472 1.374 . S
C474 C471 1.499 . S
C474 C475 1.373 . S
C474 C476 1.389 . S
C475 H454 0.950 . S
C475 C474 1.373 . S
C475 C491 1.377 . S
C476 C474 1.389 . S
C476 C477 1.524 . S
C476 C490 1.377 . S
C477 C476 1.524 . S
C477 C478 1.397 . S
C477 C482 1.363 . S
C478 H455 0.950 . S
C478 C477 1.397 . S
C478 C479 1.334 . S
C479 H456 0.950 . S
C479 C478 1.334 . S
C479 C480 1.287 . S
C480 C479 1.287 . S
C480 C481 1.524 . S
C480 H499 0.913 . S
C481 H457 0.950 . S
C481 C480 1.524 . S
C481 C482 1.415 . S
C482 H458 0.950 . S
C482 C477 1.363 . S
C482 C481 1.415 . S
C483 H459 0.951 . S
C483 C484 1.366 . S
C483 C485 1.388 . S
C484 C483 1.366 . S
C484 C488 1.385 . S
C485 H460 0.951 . S
C485 C483 1.388 . S
C485 C486 1.366 . S
C486 C485 1.366 . S
C486 C487 1.414 . S
C486 C489 1.499 . S
C487 H461 0.950 . S
C487 C486 1.414 . S
C487 C488 1.374 . S
C488 H462 0.950 . S
C488 C484 1.385 . S
C488 C487 1.374 . S
C489 C486 1.499 . S
C489 C490 1.373 . S
C489 C491 1.389 . S
C490 H463 0.950 . S
C490 C476 1.377 . S
C490 C489 1.373 . S
C491 C475 1.377 . S
C491 C489 1.389 . S
C491 C492 1.524 . S
C492 C491 1.524 . S
C492 C493 1.397 . S
C492 C497 1.363 . S
C493 H464 0.950 . S
C493 C492 1.397 . S
C493 C494 1.334 . S
C494 H465 0.950 . S
C494 C493 1.334 . S
C494 C495 1.287 . S
C495 C494 1.287 . S
C495 C496 1.524 . S
C495 H498 0.999 . S
C496 H466 0.950 . S
C496 C495 1.524 . S
C496 C497 1.415 . S
C497 H467 0.950 . S
C497 C492 1.363 . S
C497 C496 1.415 . S
H498 C495 0.999 . S
H499 C480 0.913 . S
H500 C518 0.951 . S
H501 C520 0.951 . S
H502 C522 0.950 . S
H503 C523 0.950 . S
H504 C525 0.950 . S
H505 C528 0.950 . S
H506 C529 0.950 . S
H507 C531 0.950 . S
H508 C532 0.950 . S
H509 C533 0.951 . S
H510 C535 0.951 . S
H511 C537 0.950 . S
H512 C538 0.950 . S
H513 C540 0.950 . S
H514 C543 0.950 . S
H515 C544 0.950 . S
H516 C546 0.950 . S
H517 C547 0.950 . S
C518 H500 0.951 . S
C518 C519 1.366 . S
C518 C520 1.388 . S
C519 C518 1.366 . S
C519 C523 1.385 . S
C520 H501 0.951 . S
C520 C518 1.388 . S
C520 C521 1.366 . S
C521 C520 1.366 . S
C521 C522 1.414 . S
C521 C524 1.499 . S
C522 H502 0.950 . S
C522 C521 1.414 . S
C522 C523 1.374 . S
C523 H503 0.950 . S
C523 C519 1.385 . S
C523 C522 1.374 . S
C524 C521 1.499 . S
C524 C525 1.373 . S
C524 C526 1.389 . S
C525 H504 0.950 . S
C525 C524 1.373 . S
C525 C541 1.377 . S
C526 C524 1.389 . S
C526 C527 1.524 . S
C526 C540 1.377 . S
C527 C526 1.524 . S
C527 C528 1.397 . S
C527 C532 1.363 . S
C528 H505 0.950 . S
C528 C527 1.397 . S
C528 C529 1.334 . S
C529 H506 0.950 . S
C529 C528 1.334 . S
C529 C530 1.287 . S
C530 C529 1.287 . S
C530 C531 1.524 . S
C530 H549 0.913 . S
C531 H507 0.950 . S
C531 C530 1.524 . S
C531 C532 1.415 . S
C532 H508 0.950 . S
C532 C527 1.363 . S
C532 C531 1.415 . S
C533 H509 0.951 . S
C533 C534 1.366 . S
C533 C535 1.388 . S
C534 C533 1.366 . S
C534 C538 1.385 . S
C535 H510 0.951 . S
C535 C533 1.388 . S
C535 C536 1.366 . S
C536 C535 1.366 . S
C536 C537 1.414 . S
C536 C539 1.499 . S
C537 H511 0.950 . S
C537 C536 1.414 . S
C537 C538 1.374 . S
C538 H512 0.950 . S
C538 C534 1.385 . S
C538 C537 1.374 . S
C539 C536 1.499 . S
C539 C540 1.373 . S
C539 C541 1.389 . S
C540 H513 0.950 . S
C540 C526 1.377 . S
C540 C539 1.373 . S
C541 C525 1.377 . S
C541 C539 1.389 . S
C541 C542 1.524 . S
C542 C541 1.524 . S
C542 C543 1.397 . S
C542 C547 1.363 . S
C543 H514 0.950 . S
C543 C542 1.397 . S
C543 C544 1.334 . S
C544 H515 0.950 . S
C544 C543 1.334 . S
C544 C545 1.287 . S
C545 C544 1.287 . S
C545 C546 1.524 . S
C545 H548 0.999 . S
C546 H516 0.950 . S
C546 C545 1.524 . S
C546 C547 1.415 . S
C547 H517 0.950 . S
C547 C542 1.363 . S
C547 C546 1.415 . S
H548 C545 0.999 . S
H549 C530 0.913 . S
H550 C568 0.951 . S
H551 C570 0.951 . S
H552 C572 0.950 . S
H553 C573 0.950 . S
H554 C575 0.950 . S
H555 C578 0.950 . S
H556 C579 0.950 . S
H557 C581 0.950 . S
H558 C582 0.950 . S
H559 C583 0.951 . S
H560 C585 0.951 . S
H561 C587 0.950 . S
H562 C588 0.950 . S
H563 C590 0.950 . S
H564 C593 0.950 . S
H565 C594 0.950 . S
H566 C596 0.950 . S
H567 C597 0.950 . S
C568 H550 0.951 . S
C568 C569 1.366 . S
C568 C570 1.388 . S
C569 C568 1.366 . S
C569 C573 1.385 . S
C570 H551 0.951 . S
C570 C568 1.388 . S
C570 C571 1.366 . S
C571 C570 1.366 . S
C571 C572 1.414 . S
C571 C574 1.499 . S
C572 H552 0.950 . S
C572 C571 1.414 . S
C572 C573 1.374 . S
C573 H553 0.950 . S
C573 C569 1.385 . S
C573 C572 1.374 . S
C574 C571 1.499 . S
C574 C575 1.373 . S
C574 C576 1.389 . S
C575 H554 0.950 . S
C575 C574 1.373 . S
C575 C591 1.377 . S
C576 C574 1.389 . S
C576 C577 1.524 . S
C576 C590 1.377 . S
C577 C576 1.524 . S
C577 C578 1.397 . S
C577 C582 1.363 . S
C578 H555 0.950 . S
C578 C577 1.397 . S
C578 C579 1.334 . S
C579 H556 0.950 . S
C579 C578 1.334 . S
C579 C580 1.287 . S
C580 C579 1.287 . S
C580 C581 1.524 . S
C580 H599 0.913 . S
C581 H557 0.950 . S
C581 C580 1.524 . S
C581 C582 1.415 . S
C582 H558 0.950 . S
C582 C577 1.363 . S
C582 C581 1.415 . S
C583 H559 0.951 . S
C583 C584 1.366 . S
C583 C585 1.388 . S
C584 C583 1.366 . S
C584 C588 1.385 . S
C585 H560 0.951 . S
C585 C583 1.388 . S
C585 C586 1.366 . S
C586 C585 1.366 . S
C586 C587 1.414 . S
C586 C589 1.499 . S
C587 H561 0.950 . S
C587 C586 1.414 . S
C587 C588 1.374 . S
C588 H562 0.950 . S
C588 C584 1.385 . S
C588 C587 1.374 . S
C589 C586 1.499 . S
C589 C590 1.373 . S
C589 C591 1.389 . S
C590 H563 0.950 . S
C590 C576 1.377 . S
C590 C589 1.373 . S
C591 C575 1.377 . S
C591 C589 1.389 . S
C591 C592 1.524 . S
C592 C591 1.524 . S
C592 C593 1.397 . S
C592 C597 1.363 . S
C593 H564 0.950 . S
C593 C592 1.397 . S
C593 C594 1.334 . S
C594 H565 0.950 . S
C594 C593 1.334 . S
C594 C595 1.287 . S
C595 C594 1.287 . S
C595 C596 1.524 . S
C595 H598 0.999 . S
C596 H566 0.950 . S
C596 C595 1.524 . S
C596 C597 1.415 . S
C597 H567 0.950 . S
C597 C592 1.363 . S
C597 C596 1.415 . S
H598 C595 0.999 . S
H599 C580 0.913 . S
H600 C618 0.951 . S
H601 C620 0.951 . S
H602 C622 0.950 . S
H603 C623 0.950 . S
H604 C625 0.950 . S
H605 C628 0.950 . S
H606 C629 0.950 1_655 S
H607 C631 0.950 . S
H608 C632 0.950 . S
H609 C633 0.951 . S
H610 C635 0.951 . S
H611 C637 0.950 . S
H612 C638 0.950 . S
H613 C640 0.950 . S
H614 C643 0.950 . S
H615 C644 0.950 . S
H616 C646 0.950 . S
H617 C647 0.950 . S
C618 H600 0.951 . S
C618 C619 1.366 . S
C618 C620 1.388 . S
C619 C618 1.366 . S
C619 C623 1.385 . S
C620 H601 0.951 . S
C620 C618 1.388 . S
C620 C621 1.366 . S
C621 C620 1.366 . S
C621 C622 1.414 . S
C621 C624 1.499 . S
C622 H602 0.950 . S
C622 C621 1.414 . S
C622 C623 1.374 . S
C623 H603 0.950 . S
C623 C619 1.385 . S
C623 C622 1.374 . S
C624 C621 1.499 . S
C624 C625 1.373 . S
C624 C626 1.389 . S
C625 H604 0.950 . S
C625 C624 1.373 . S
C625 C641 1.377 . S
C626 C624 1.389 . S
C626 C627 1.524 . S
C626 C640 1.377 . S
C627 C626 1.524 . S
C627 C628 1.397 . S
C627 C632 1.363 . S
C628 H605 0.950 . S
C628 C627 1.397 . S
C628 C629 1.334 . S
C629 H606 0.950 1_455 S
C629 C628 1.334 . S
C629 C630 1.287 . S
C630 C629 1.287 . S
C630 C631 1.524 . S
C630 H649 0.913 . S
C631 H607 0.950 . S
C631 C630 1.524 . S
C631 C632 1.415 . S
C632 H608 0.950 . S
C632 C627 1.363 . S
C632 C631 1.415 . S
C633 H609 0.951 . S
C633 C634 1.366 . S
C633 C635 1.388 . S
C634 C633 1.366 . S
C634 C638 1.385 . S
C635 H610 0.951 . S
C635 C633 1.388 . S
C635 C636 1.366 . S
C636 C635 1.366 . S
C636 C637 1.414 . S
C636 C639 1.499 . S
C637 H611 0.950 . S
C637 C636 1.414 . S
C637 C638 1.374 . S
C638 H612 0.950 . S
C638 C634 1.385 . S
C638 C637 1.374 . S
C639 C636 1.499 . S
C639 C640 1.373 . S
C639 C641 1.389 . S
C640 H613 0.950 . S
C640 C626 1.377 . S
C640 C639 1.373 . S
C641 C625 1.377 . S
C641 C639 1.389 . S
C641 C642 1.524 . S
C642 C641 1.524 . S
C642 C643 1.397 . S
C642 C647 1.363 . S
C643 H614 0.950 . S
C643 C642 1.397 . S
C643 C644 1.334 . S
C644 H615 0.950 . S
C644 C643 1.334 . S
C644 C645 1.287 . S
C645 C644 1.287 . S
C645 C646 1.524 . S
C645 H648 0.999 . S
C646 H616 0.950 . S
C646 C645 1.524 . S
C646 C647 1.415 . S
C647 H617 0.950 . S
C647 C642 1.363 . S
C647 C646 1.415 . S
H648 C645 0.999 . S
H649 C630 0.913 . S
H650 C668 0.951 . S
H651 C670 0.951 . S
H652 C672 0.950 . S
H653 C673 0.950 . S
H654 C675 0.950 . S
H655 C678 0.950 . S
H656 C679 0.950 . S
H657 C681 0.950 . S
H658 C682 0.950 . S
H659 C683 0.951 . S
H660 C685 0.951 . S
H661 C687 0.950 . S
H662 C688 0.950 . S
H663 C690 0.950 . S
H664 C693 0.950 . S
H665 C694 0.950 . S
H666 C696 0.950 . S
H667 C697 0.950 . S
C668 H650 0.951 . S
C668 C669 1.366 . S
C668 C670 1.388 . S
C669 C668 1.366 . S
C669 C673 1.385 . S
C670 H651 0.951 . S
C670 C668 1.388 . S
C670 C671 1.366 . S
C671 C670 1.366 . S
C671 C672 1.414 . S
C671 C674 1.499 . S
C672 H652 0.950 . S
C672 C671 1.414 . S
C672 C673 1.374 . S
C673 H653 0.950 . S
C673 C669 1.385 . S
C673 C672 1.374 . S
C674 C671 1.499 . S
C674 C675 1.373 . S
C674 C676 1.389 . S
C675 H654 0.950 . S
C675 C674 1.373 . S
C675 C691 1.377 . S
C676 C674 1.389 . S
C676 C677 1.524 . S
C676 C690 1.377 . S
C677 C676 1.524 . S
C677 C678 1.397 . S
C677 C682 1.363 . S
C678 H655 0.950 . S
C678 C677 1.397 . S
C678 C679 1.334 . S
C679 H656 0.950 . S
C679 C678 1.334 . S
C679 C680 1.287 . S
C680 C679 1.287 . S
C680 C681 1.524 . S
C680 H699 0.913 . S
C681 H657 0.950 . S
C681 C680 1.524 . S
C681 C682 1.415 . S
C682 H658 0.950 . S
C682 C677 1.363 . S
C682 C681 1.415 . S
C683 H659 0.951 . S
C683 C684 1.366 . S
C683 C685 1.388 . S
C684 C683 1.366 . S
C684 C688 1.385 . S
C685 H660 0.951 . S
C685 C683 1.388 . S
C685 C686 1.366 . S
C686 C685 1.366 . S
C686 C687 1.414 . S
C686 C689 1.499 . S
C687 H661 0.950 . S
C687 C686 1.414 . S
C687 C688 1.374 . S
C688 H662 0.950 . S
C688 C684 1.385 . S
C688 C687 1.374 . S
C689 C686 1.499 . S
C689 C690 1.373 . S
C689 C691 1.389 . S
C690 H663 0.950 . S
C690 C676 1.377 . S
C690 C689 1.373 . S
C691 C675 1.377 . S
C691 C689 1.389 . S
C691 C692 1.524 . S
C692 C691 1.524 . S
C692 C693 1.397 . S
C692 C697 1.363 . S
C693 H664 0.950 . S
C693 C692 1.397 . S
C693 C694 1.334 1_545 S
C694 H665 0.950 . S
C694 C693 1.334 1_565 S
C694 C695 1.287 . S
C695 C694 1.287 . S
C695 C696 1.524 . S
C695 H698 0.999 . S
C696 H666 0.950 . S
C696 C695 1.524 . S
C696 C697 1.415 1_565 S
C697 H667 0.950 . S
C697 C692 1.363 . S
C697 C696 1.415 1_545 S
H698 C695 0.999 . S
H699 C680 0.913 . S
H700 C718 0.951 . S
H701 C720 0.951 . S
H702 C722 0.950 . S
H703 C723 0.950 . S
H704 C725 0.950 . S
H705 C728 0.950 . S
H706 C729 0.950 . S
H707 C731 0.950 . S
H708 C732 0.950 . S
H709 C733 0.951 . S
H710 C735 0.951 . S
H711 C737 0.950 . S
H712 C738 0.950 . S
H713 C740 0.950 . S
H714 C743 0.950 . S
H715 C744 0.950 1_455 S
H716 C746 0.950 . S
H717 C747 0.950 . S
C718 H700 0.951 . S
C718 C719 1.366 . S
C718 C720 1.388 . S
C719 C718 1.366 . S
C719 C723 1.385 . S
C720 H701 0.951 . S
C720 C718 1.388 . S
C720 C721 1.366 . S
C721 C720 1.366 . S
C721 C722 1.414 . S
C721 C724 1.499 . S
C722 H702 0.950 . S
C722 C721 1.414 . S
C722 C723 1.374 . S
C723 H703 0.950 . S
C723 C719 1.385 . S
C723 C722 1.374 . S
C724 C721 1.499 . S
C724 C725 1.373 . S
C724 C726 1.389 . S
C725 H704 0.950 . S
C725 C724 1.373 . S
C725 C741 1.377 . S
C726 C724 1.389 . S
C726 C727 1.524 . S
C726 C740 1.377 . S
C727 C726 1.524 . S
C727 C728 1.397 . S
C727 C732 1.363 . S
C728 H705 0.950 . S
C728 C727 1.397 . S
C728 C729 1.334 . S
C729 H706 0.950 . S
C729 C728 1.334 . S
C729 C730 1.287 . S
C730 C729 1.287 . S
C730 C731 1.524 . S
C730 H749 0.913 . S
C731 H707 0.950 . S
C731 C730 1.524 . S
C731 C732 1.415 . S
C732 H708 0.950 . S
C732 C727 1.363 . S
C732 C731 1.415 . S
C733 H709 0.951 . S
C733 C734 1.366 . S
C733 C735 1.388 . S
C734 C733 1.366 . S
C734 C738 1.385 . S
C735 H710 0.951 . S
C735 C733 1.388 . S
C735 C736 1.366 . S
C736 C735 1.366 . S
C736 C737 1.414 . S
C736 C739 1.499 . S
C737 H711 0.950 . S
C737 C736 1.414 . S
C737 C738 1.374 . S
C738 H712 0.950 . S
C738 C734 1.385 . S
C738 C737 1.374 . S
C739 C736 1.499 . S
C739 C740 1.373 . S
C739 C741 1.389 . S
C740 H713 0.950 . S
C740 C726 1.377 . S
C740 C739 1.373 . S
C741 C725 1.377 . S
C741 C739 1.389 . S
C741 C742 1.524 . S
C742 C741 1.524 . S
C742 C743 1.397 . S
C742 C747 1.363 . S
C743 H714 0.950 . S
C743 C742 1.397 . S
C743 C744 1.334 . S
C744 H715 0.950 1_655 S
C744 C743 1.334 . S
C744 C745 1.287 . S
C745 C744 1.287 . S
C745 C746 1.524 . S
C745 H748 0.999 1_655 S
C746 H716 0.950 . S
C746 C745 1.524 . S
C746 C747 1.415 . S
C747 H717 0.950 . S
C747 C742 1.363 . S
C747 C746 1.415 . S
H748 C745 0.999 1_455 S
H749 C730 0.913 . S
H750 C768 0.951 . S
H751 C770 0.951 . S
H752 C772 0.950 . S
H753 C773 0.950 1_545 S
H754 C775 0.950 . S
H755 C778 0.950 . S
H756 C779 0.950 . S
H757 C781 0.950 . S
H758 C782 0.950 . S
H759 C783 0.951 . S
H760 C785 0.951 . S
H761 C787 0.950 . S
H762 C788 0.950 . S
H763 C790 0.950 . S
H764 C793 0.950 . S
H765 C794 0.950 . S
H766 C796 0.991 . S
H767 C797 0.950 1_545 S
C768 H750 0.951 . S
C768 C769 1.366 . S
C768 C770 1.388 . S
C769 C768 1.366 . S
C769 C773 1.385 . S
C770 H751 0.951 . S
C770 C768 1.388 . S
C770 C771 1.366 . S
C771 C770 1.366 . S
C771 C772 1.414 . S
C771 C774 1.499 . S
C772 H752 0.950 . S
C772 C771 1.414 . S
C772 C773 1.374 . S
C773 H753 0.950 1_565 S
C773 C769 1.385 . S
C773 C772 1.374 . S
C774 C771 1.499 . S
C774 C775 1.373 . S
C774 C776 1.389 . S
C775 H754 0.950 . S
C775 C774 1.373 . S
C775 C791 1.377 . S
C776 C774 1.389 . S
C776 C777 1.524 . S
C776 C790 1.377 . S
C777 C776 1.524 . S
C777 C778 1.397 . S
C777 C782 1.363 . S
C778 H755 0.950 . S
C778 C777 1.397 . S
C778 C779 1.334 . S
C779 H756 0.950 . S
C779 C778 1.334 . S
C779 C780 1.287 . S
C780 C779 1.287 . S
C780 C781 1.524 . S
C780 H799 0.913 . S
C781 H757 0.950 . S
C781 C780 1.524 . S
C781 C782 1.415 . S
C782 H758 0.950 . S
C782 C777 1.363 . S
C782 C781 1.415 . S
C783 H759 0.951 . S
C783 C784 1.366 . S
C783 C785 1.388 . S
C784 C783 1.366 . S
C784 C788 1.385 . S
C785 H760 0.951 . S
C785 C783 1.388 . S
C785 C786 1.366 . S
C786 C785 1.366 . S
C786 C787 1.414 . S
C786 C789 1.499 . S
C787 H761 0.950 . S
C787 C786 1.414 . S
C787 C788 1.374 . S
C788 H762 0.950 . S
C788 C784 1.385 . S
C788 C787 1.374 . S
C789 C786 1.499 . S
C789 C790 1.373 . S
C789 C791 1.389 . S
C790 H763 0.950 . S
C790 C776 1.377 . S
C790 C789 1.373 . S
C791 C775 1.377 . S
C791 C789 1.389 . S
C791 C792 1.524 . S
C792 C791 1.524 . S
C792 C793 1.397 . S
C792 C797 1.363 . S
C793 H764 0.950 . S
C793 C792 1.397 . S
C793 C794 1.334 . S
C794 H765 0.950 . S
C794 C793 1.334 . S
C794 C795 1.287 . S
C795 C794 1.287 . S
C795 C796 1.494 1_565 S
C795 H798 0.999 . S
C796 H766 0.991 . S
C796 C795 1.494 1_545 S
C796 C797 1.399 1_545 S
C797 H767 0.950 1_565 S
C797 C792 1.363 . S
C797 C796 1.399 1_565 S
H798 C795 0.999 . S
H799 C780 0.913 . S
H800 C818 0.959 . S
H801 C820 0.951 . S
H802 C822 0.950 . S
H803 C823 0.950 . S
H804 C825 0.950 . S
H805 C828 0.950 . S
H806 C829 0.950 . S
H807 C831 0.950 . S
H808 C832 0.950 . S
H809 C833 0.951 . S
H810 C835 0.951 . S
H811 C837 0.950 . S
H812 C838 0.950 . S
H813 C840 0.950 . S
H814 C843 0.950 . S
H815 C844 0.950 . S
H816 C846 0.950 . S
H817 C847 0.950 . S
C818 H800 0.959 . S
C818 C819 1.366 . S
C818 C820 1.388 . S
C819 C818 1.366 . S
C819 C823 1.385 . S
C820 H801 0.951 . S
C820 C818 1.388 . S
C820 C821 1.366 . S
C821 C820 1.366 . S
C821 C822 1.414 . S
C821 C824 1.499 . S
C822 H802 0.950 . S
C822 C821 1.414 . S
C822 C823 1.374 . S
C823 H803 0.950 . S
C823 C819 1.385 . S
C823 C822 1.374 . S
C824 C821 1.499 . S
C824 C825 1.373 . S
C824 C826 1.389 . S
C825 H804 0.950 . S
C825 C824 1.373 . S
C825 C841 1.377 . S
C826 C824 1.389 . S
C826 C827 1.524 . S
C826 C840 1.377 . S
C827 C826 1.524 . S
C827 C828 1.397 . S
C827 C832 1.363 1_565 S
C828 H805 0.950 . S
C828 C827 1.397 . S
C828 C829 1.334 1_565 S
C829 H806 0.950 . S
C829 C828 1.334 1_545 S
C829 C830 1.287 . S
C830 C829 1.287 . S
C830 C831 1.524 . S
C830 H849 0.913 . S
C831 H807 0.950 . S
C831 C830 1.524 . S
C831 C832 1.415 . S
C832 H808 0.950 . S
C832 C827 1.363 1_545 S
C832 C831 1.415 . S
C833 H809 0.951 . S
C833 C834 1.366 . S
C833 C835 1.388 . S
C834 C833 1.366 . S
C834 C838 1.385 . S
C835 H810 0.951 . S
C835 C833 1.388 . S
C835 C836 1.366 . S
C836 C835 1.366 . S
C836 C837 1.414 . S
C836 C839 1.499 . S
C837 H811 0.950 . S
C837 C836 1.414 . S
C837 C838 1.374 . S
C838 H812 0.950 . S
C838 C834 1.385 . S
C838 C837 1.374 . S
C839 C836 1.499 . S
C839 C840 1.373 . S
C839 C841 1.389 . S
C840 H813 0.950 . S
C840 C826 1.377 . S
C840 C839 1.373 . S
C841 C825 1.377 . S
C841 C839 1.389 . S
C841 C842 1.524 . S
C842 C841 1.524 . S
C842 C843 1.397 . S
C842 C847 1.363 . S
C843 H814 0.950 . S
C843 C842 1.397 . S
C843 C844 1.334 . S
C844 H815 0.950 . S
C844 C843 1.334 . S
C844 C845 1.287 . S
C845 C844 1.287 . S
C845 C846 1.524 . S
C845 H848 0.999 . S
C846 H816 0.950 . S
C846 C845 1.524 . S
C846 C847 1.415 . S
C847 H817 0.950 . S
C847 C842 1.363 . S
C847 C846 1.415 . S
H848 C845 0.999 . S
H849 C830 0.913 . S
H850 C868 0.951 . S
H851 C870 0.951 . S
H852 C872 0.950 . S
H853 C873 0.950 . S
H854 C875 0.950 . S
H855 C878 0.950 . S
H856 C879 0.950 . S
H857 C881 0.950 . S
H858 C882 0.963 . S
H859 C883 0.951 . S
H860 C885 0.951 . S
H861 C887 0.950 . S
H862 C888 0.950 . S
H863 C890 0.950 . S
H864 C893 0.950 . S
H865 C894 0.950 . S
H866 C896 0.950 . S
H867 C897 0.950 . S
C868 H850 0.951 . S
C868 C869 1.366 . S
C868 C870 1.388 . S
C869 C868 1.366 . S
C869 C873 1.385 . S
C870 H851 0.951 . S
C870 C868 1.388 . S
C870 C871 1.366 . S
C871 C870 1.366 . S
C871 C872 1.414 . S
C871 C874 1.499 . S
C872 H852 0.950 . S
C872 C871 1.414 . S
C872 C873 1.374 . S
C873 H853 0.950 . S
C873 C869 1.385 . S
C873 C872 1.374 . S
C874 C871 1.499 . S
C874 C875 1.373 . S
C874 C876 1.389 . S
C875 H854 0.950 . S
C875 C874 1.373 . S
C875 C891 1.377 . S
C876 C874 1.389 . S
C876 C877 1.524 . S
C876 C890 1.377 . S
C877 C876 1.524 . S
C877 C878 1.397 1_455 S
C877 C882 1.369 . S
C878 H855 0.950 . S
C878 C877 1.397 1_655 S
C878 C879 1.334 . S
C879 H856 0.950 . S
C879 C878 1.334 . S
C879 C880 1.287 . S
C880 C879 1.287 . S
C880 C881 1.524 . S
C880 H899 0.913 . S
C881 H857 0.950 . S
C881 C880 1.524 . S
C881 C882 1.396 1_655 S
C882 H858 0.963 . S
C882 C877 1.369 . S
C882 C881 1.396 1_455 S
C883 H859 0.951 . S
C883 C884 1.366 . S
C883 C885 1.388 . S
C884 C883 1.366 . S
C884 C888 1.385 . S
C885 H860 0.951 . S
C885 C883 1.388 . S
C885 C886 1.366 . S
C886 C885 1.366 . S
C886 C887 1.414 . S
C886 C889 1.499 . S
C887 H861 0.950 . S
C887 C886 1.414 . S
C887 C888 1.374 . S
C888 H862 0.950 . S
C888 C884 1.385 . S
C888 C887 1.374 . S
C889 C886 1.499 . S
C889 C890 1.373 . S
C889 C891 1.389 . S
C890 H863 0.950 . S
C890 C876 1.377 . S
C890 C889 1.373 . S
C891 C875 1.377 . S
C891 C889 1.389 . S
C891 C892 1.524 . S
C892 C891 1.524 . S
C892 C893 1.397 . S
C892 C897 1.363 . S
C893 H864 0.950 . S
C893 C892 1.397 . S
C893 C894 1.334 . S
C894 H865 0.950 . S
C894 C893 1.334 . S
C894 C895 1.287 . S
C895 C894 1.287 . S
C895 C896 1.524 . S
C895 H898 0.999 . S
C896 H866 0.950 . S
C896 C895 1.524 . S
C896 C897 1.415 . S
C897 H867 0.950 . S
C897 C892 1.363 . S
C897 C896 1.415 . S
H898 C895 0.999 . S
H899 C880 0.913 . S
H900 C918 0.951 1_565 S
H901 C920 0.951 . S
H902 C922 0.950 . S
H903 C923 0.950 . S
H904 C925 0.950 . S
H905 C928 0.950 . S
H906 C929 0.950 . S
H907 C931 0.950 . S
H908 C932 0.952 . S
H909 C933 0.951 . S
H910 C935 0.951 . S
H911 C937 0.950 . S
H912 C938 0.950 . S
H913 C940 0.950 . S
H914 C943 0.950 . S
H915 C944 0.950 . S
H916 C946 0.950 . S
H917 C947 0.950 . S
C918 H900 0.951 1_545 S
C918 C919 1.366 . S
C918 C920 1.388 . S
C919 C918 1.366 . S
C919 C923 1.385 . S
C920 H901 0.951 . S
C920 C918 1.388 . S
C920 C921 1.366 . S
C921 C920 1.366 . S
C921 C922 1.414 . S
C921 C924 1.499 . S
C922 H902 0.950 . S
C922 C921 1.414 . S
C922 C923 1.374 . S
C923 H903 0.950 . S
C923 C919 1.385 . S
C923 C922 1.374 . S
C924 C921 1.499 . S
C924 C925 1.373 . S
C924 C926 1.389 . S
C925 H904 0.950 . S
C925 C924 1.373 . S
C925 C941 1.377 . S
C926 C924 1.389 . S
C926 C927 1.524 . S
C926 C940 1.377 . S
C927 C926 1.524 . S
C927 C928 1.397 . S
C927 C932 1.363 . S
C928 H905 0.950 . S
C928 C927 1.397 . S
C928 C929 1.334 . S
C929 H906 0.950 . S
C929 C928 1.334 . S
C929 C930 1.287 . S
C930 C929 1.287 . S
C930 C931 1.524 1_545 S
C930 H949 0.913 1_545 S
C931 H907 0.950 . S
C931 C930 1.524 1_565 S
C931 C932 1.415 1_565 S
C932 H908 0.952 . S
C932 C927 1.363 . S
C932 C931 1.415 1_545 S
C933 H909 0.951 . S
C933 C934 1.366 . S
C933 C935 1.388 . S
C934 C933 1.366 . S
C934 C938 1.385 . S
C935 H910 0.951 . S
C935 C933 1.388 . S
C935 C936 1.366 . S
C936 C935 1.366 . S
C936 C937 1.414 . S
C936 C939 1.499 . S
C937 H911 0.950 . S
C937 C936 1.414 . S
C937 C938 1.374 . S
C938 H912 0.950 . S
C938 C934 1.385 . S
C938 C937 1.374 . S
C939 C936 1.499 . S
C939 C940 1.373 . S
C939 C941 1.389 . S
C940 H913 0.950 . S
C940 C926 1.377 . S
C940 C939 1.373 . S
C941 C925 1.377 . S
C941 C939 1.389 . S
C941 C942 1.524 . S
C942 C941 1.524 . S
C942 C943 1.397 . S
C942 C947 1.363 . S
C943 H914 0.950 . S
C943 C942 1.397 . S
C943 C944 1.334 . S
C944 H915 0.950 . S
C944 C943 1.334 . S
C944 C945 1.287 . S
C945 C944 1.287 . S
C945 C946 1.524 . S
C945 H948 0.999 . S
C946 H916 0.950 . S
C946 C945 1.524 . S
C946 C947 1.415 . S
C947 H917 0.950 . S
C947 C942 1.363 . S
C947 C946 1.415 . S
H948 C945 0.999 . S
H949 C930 0.913 1_565 S
H950 C968 0.951 . S
H951 C970 0.951 . S
H952 C972 0.950 . S
H953 C973 0.950 . S
H954 C975 0.950 . S
H955 C978 0.950 . S
H956 C979 0.950 . S
H957 C981 0.950 . S
H958 C982 0.950 . S
H959 C983 0.951 . S
H960 C985 0.951 . S
H961 C987 0.950 . S
H962 C988 0.950 . S
H963 C990 0.950 . S
H964 C993 0.950 . S
H965 C994 0.946 1_455 S
H966 C996 0.950 . S
H967 C997 0.950 . S
C968 H950 0.951 . S
C968 C969 1.366 . S
C968 C970 1.388 . S
C969 C968 1.366 . S
C969 C973 1.385 . S
C970 H951 0.951 . S
C970 C968 1.388 . S
C970 C971 1.366 . S
C971 C970 1.366 . S
C971 C972 1.414 . S
C971 C974 1.499 . S
C972 H952 0.950 . S
C972 C971 1.414 . S
C972 C973 1.374 . S
C973 H953 0.950 . S
C973 C969 1.385 . S
C973 C972 1.374 . S
C974 C971 1.499 . S
C974 C975 1.373 . S
C974 C976 1.389 . S
C975 H954 0.950 . S
C975 C974 1.373 . S
C975 C991 1.377 . S
C976 C974 1.389 . S
C976 C977 1.524 . S
C976 C990 1.377 . S
C977 C976 1.524 . S
C977 C978 1.397 . S
C977 C982 1.363 . S
C978 H955 0.950 . S
C978 C977 1.397 . S
C978 C979 1.334 . S
C979 H956 0.950 . S
C979 C978 1.334 . S
C979 C980 1.287 . S
C980 C979 1.287 . S
C980 C981 1.524 . S
C980 H999 0.913 . S
C981 H957 0.950 . S
C981 C980 1.524 . S
C981 C982 1.415 . S
C982 H958 0.950 . S
C982 C977 1.363 . S
C982 C981 1.415 . S
C983 H959 0.951 . S
C983 C984 1.366 . S
C983 C985 1.388 . S
C984 C983 1.366 . S
C984 C988 1.385 . S
C985 H960 0.951 . S
C985 C983 1.388 . S
C985 C986 1.366 . S
C986 C985 1.366 . S
C986 C987 1.414 . S
C986 C989 1.499 . S
C987 H961 0.950 . S
C987 C986 1.414 . S
C987 C988 1.374 . S
C988 H962 0.950 . S
C988 C984 1.385 . S
C988 C987 1.374 . S
C989 C986 1.499 . S
C989 C990 1.373 . S
C989 C991 1.389 . S
C990 H963 0.950 . S
C990 C976 1.377 . S
C990 C989 1.373 . S
C991 C975 1.377 . S
C991 C989 1.389 . S
C991 C992 1.524 . S
C992 C991 1.524 . S
C992 C993 1.397 . S
C992 C997 1.363 . S
C993 H964 0.950 . S
C993 C992 1.397 . S
C993 C994 1.334 . S
C994 H965 0.946 1_655 S
C994 C993 1.334 . S
C994 C995 1.287 . S
C995 C994 1.287 . S
C995 C996 1.524 . S
C995 H998 0.999 . S
C996 H966 0.950 . S
C996 C995 1.524 . S
C996 C997 1.415 . S
C997 H967 0.950 . S
C997 C992 1.363 . S
C997 C996 1.415 . S
H998 C995 0.999 . S
H999 C980 0.913 . S
H1000 C1018 0.951 . S
H1001 C1020 0.951 . S
H1002 C1022 0.950 . S
H1003 C1023 0.950 . S
H1004 C1025 0.950 . S
H1005 C1028 0.950 . S
H1006 C1029 0.950 . S
H1007 C1031 0.950 . S
H1008 C1032 0.950 . S
H1009 C1033 0.951 . S
H1010 C1035 0.951 . S
H1011 C1037 0.950 . S
H1012 C1038 0.950 . S
H1013 C1040 0.950 . S
H1014 C1043 0.950 . S
H1015 C1044 0.950 . S
H1016 C1046 0.950 . S
H1017 C1047 0.950 . S
C1018 H1000 0.951 . S
C1018 C1019 1.366 . S
C1018 C1020 1.388 . S
C1019 C1018 1.366 . S
C1019 C1023 1.385 . S
C1020 H1001 0.951 . S
C1020 C1018 1.388 . S
C1020 C1021 1.366 . S
C1021 C1020 1.366 . S
C1021 C1022 1.414 . S
C1021 C1024 1.499 . S
C1022 H1002 0.950 . S
C1022 C1021 1.414 . S
C1022 C1023 1.374 . S
C1023 H1003 0.950 . S
C1023 C1019 1.385 . S
C1023 C1022 1.374 . S
C1024 C1021 1.499 . S
C1024 C1025 1.373 . S
C1024 C1026 1.389 . S
C1025 H1004 0.950 . S
C1025 C1024 1.373 . S
C1025 C1041 1.377 . S
C1026 C1024 1.389 . S
C1026 C1027 1.524 . S
C1026 C1040 1.377 . S
C1027 C1026 1.524 . S
C1027 C1028 1.397 . S
C1027 C1032 1.363 . S
C1028 H1005 0.950 . S
C1028 C1027 1.397 . S
C1028 C1029 1.334 . S
C1029 H1006 0.950 . S
C1029 C1028 1.334 . S
C1029 C1030 1.287 . S
C1030 C1029 1.287 . S
C1030 C1031 1.524 . S
C1030 H1049 0.913 . S
C1031 H1007 0.950 . S
C1031 C1030 1.524 . S
C1031 C1032 1.415 . S
C1032 H1008 0.950 . S
C1032 C1027 1.363 . S
C1032 C1031 1.415 . S
C1033 H1009 0.951 . S
C1033 C1034 1.366 . S
C1033 C1035 1.388 . S
C1034 C1033 1.366 . S
C1034 C1038 1.385 . S
C1035 H1010 0.951 . S
C1035 C1033 1.388 . S
C1035 C1036 1.366 . S
C1036 C1035 1.366 . S
C1036 C1037 1.414 . S
C1036 C1039 1.499 . S
C1037 H1011 0.950 . S
C1037 C1036 1.414 . S
C1037 C1038 1.374 . S
C1038 H1012 0.950 . S
C1038 C1034 1.385 . S
C1038 C1037 1.374 . S
C1039 C1036 1.499 . S
C1039 C1040 1.373 . S
C1039 C1041 1.389 . S
C1040 H1013 0.950 . S
C1040 C1026 1.377 . S
C1040 C1039 1.373 . S
C1041 C1025 1.377 . S
C1041 C1039 1.389 . S
C1041 C1042 1.524 . S
C1042 C1041 1.524 . S
C1042 C1043 1.397 . S
C1042 C1047 1.363 . S
C1043 H1014 0.950 . S
C1043 C1042 1.397 . S
C1043 C1044 1.334 . S
C1044 H1015 0.950 . S
C1044 C1043 1.334 . S
C1044 C1045 1.287 . S
C1045 C1044 1.287 . S
C1045 C1046 1.524 . S
C1045 H1048 0.999 . S
C1046 H1016 0.950 . S
C1046 C1045 1.524 . S
C1046 C1047 1.415 . S
C1047 H1017 0.950 . S
C1047 C1042 1.363 . S
C1047 C1046 1.415 . S
H1048 C1045 0.999 . S
H1049 C1030 0.913 . S
H1050 C1068 0.951 . S
H1051 C1070 0.951 . S
H1052 C1072 0.950 . S
H1053 C1073 0.950 . S
H1054 C1075 0.950 . S
H1055 C1078 0.950 . S
H1056 C1079 0.950 . S
H1057 C1081 0.950 . S
H1058 C1082 0.950 . S
H1059 C1083 0.951 . S
H1060 C1085 0.951 . S
H1061 C1087 0.950 . S
H1062 C1088 0.950 . S
H1063 C1090 0.950 . S
H1064 C1093 0.950 . S
H1065 C1094 0.950 . S
H1066 C1096 0.950 . S
H1067 C1097 0.950 . S
C1068 H1050 0.951 . S
C1068 C1069 1.366 . S
C1068 C1070 1.388 . S
C1069 C1068 1.366 . S
C1069 C1073 1.385 . S
C1070 H1051 0.951 . S
C1070 C1068 1.388 . S
C1070 C1071 1.366 . S
C1071 C1070 1.366 . S
C1071 C1072 1.414 . S
C1071 C1074 1.499 . S
C1072 H1052 0.950 . S
C1072 C1071 1.414 . S
C1072 C1073 1.374 . S
C1073 H1053 0.950 . S
C1073 C1069 1.385 . S
C1073 C1072 1.374 . S
C1074 C1071 1.499 . S
C1074 C1075 1.373 . S
C1074 C1076 1.389 . S
C1075 H1054 0.950 . S
C1075 C1074 1.373 . S
C1075 C1091 1.377 . S
C1076 C1074 1.389 . S
C1076 C1077 1.524 . S
C1076 C1090 1.377 . S
C1077 C1076 1.524 . S
C1077 C1078 1.397 . S
C1077 C1082 1.363 . S
C1078 H1055 0.950 . S
C1078 C1077 1.397 . S
C1078 C1079 1.334 . S
C1079 H1056 0.950 . S
C1079 C1078 1.334 . S
C1079 C1080 1.287 . S
C1080 C1079 1.287 . S
C1080 C1081 1.524 . S
C1080 H1099 0.913 . S
C1081 H1057 0.950 . S
C1081 C1080 1.524 . S
C1081 C1082 1.415 . S
C1082 H1058 0.950 . S
C1082 C1077 1.363 . S
C1082 C1081 1.415 . S
C1083 H1059 0.951 . S
C1083 C1084 1.366 . S
C1083 C1085 1.388 . S
C1084 C1083 1.366 . S
C1084 C1088 1.385 . S
C1085 H1060 0.951 . S
C1085 C1083 1.388 . S
C1085 C1086 1.366 . S
C1086 C1085 1.366 . S
C1086 C1087 1.414 . S
C1086 C1089 1.499 . S
C1087 H1061 0.950 . S
C1087 C1086 1.414 . S
C1087 C1088 1.374 . S
C1088 H1062 0.950 . S
C1088 C1084 1.385 . S
C1088 C1087 1.374 . S
C1089 C1086 1.499 . S
C1089 C1090 1.373 . S
C1089 C1091 1.389 . S
C1090 H1063 0.950 . S
C1090 C1076 1.377 . S
C1090 C1089 1.373 . S
C1091 C1075 1.377 . S
C1091 C1089 1.389 . S
C1091 C1092 1.524 . S
C1092 C1091 1.524 . S
C1092 C1093 1.397 . S
C1092 C1097 1.363 . S
C1093 H1064 0.950 . S
C1093 C1092 1.397 . S
C1093 C1094 1.334 . S
C1094 H1065 0.950 . S
C1094 C1093 1.334 . S
C1094 C1095 1.287 . S
C1095 C1094 1.287 . S
C1095 C1096 1.524 . S
C1095 H1098 0.999 . S
C1096 H1066 0.950 . S
C1096 C1095 1.524 . S
C1096 C1097 1.415 . S
C1097 H1067 0.950 . S
C1097 C1092 1.363 . S
C1097 C1096 1.415 . S
H1098 C1095 0.999 . S
H1099 C1080 0.913 . S
H1100 C1118 0.951 . S
H1101 C1120 0.951 . S
H1102 C1122 0.950 . S
H1103 C1123 0.950 . S
H1104 C1125 0.950 . S
H1105 C1128 0.950 . S
H1106 C1129 0.950 . S
H1107 C1131 0.950 . S
H1108 C1132 0.950 . S
H1109 C1133 0.951 . S
H1110 C1135 0.951 . S
H1111 C1137 0.950 . S
H1112 C1138 0.950 . S
H1113 C1140 0.950 . S
H1114 C1143 0.950 . S
H1115 C1144 0.950 . S
H1116 C1146 0.950 . S
H1117 C1147 0.950 . S
C1118 H1100 0.951 . S
C1118 C1119 1.366 . S
C1118 C1120 1.388 . S
C1119 C1118 1.366 . S
C1119 C1123 1.385 . S
C1120 H1101 0.951 . S
C1120 C1118 1.388 . S
C1120 C1121 1.366 . S
C1121 C1120 1.366 . S
C1121 C1122 1.414 . S
C1121 C1124 1.499 . S
C1122 H1102 0.950 . S
C1122 C1121 1.414 . S
C1122 C1123 1.374 . S
C1123 H1103 0.950 . S
C1123 C1119 1.385 . S
C1123 C1122 1.374 . S
C1124 C1121 1.499 . S
C1124 C1125 1.373 . S
C1124 C1126 1.389 . S
C1125 H1104 0.950 . S
C1125 C1124 1.373 . S
C1125 C1141 1.377 . S
C1126 C1124 1.389 . S
C1126 C1127 1.524 . S
C1126 C1140 1.377 . S
C1127 C1126 1.524 . S
C1127 C1128 1.397 . S
C1127 C1132 1.363 . S
C1128 H1105 0.950 . S
C1128 C1127 1.397 . S
C1128 C1129 1.334 . S
C1129 H1106 0.950 . S
C1129 C1128 1.334 . S
C1129 C1130 1.287 . S
C1130 C1129 1.287 . S
C1130 C1131 1.524 . S
C1130 H1149 0.913 . S
C1131 H1107 0.950 . S
C1131 C1130 1.524 . S
C1131 C1132 1.415 . S
C1132 H1108 0.950 . S
C1132 C1127 1.363 . S
C1132 C1131 1.415 . S
C1133 H1109 0.951 . S
C1133 C1134 1.366 . S
C1133 C1135 1.388 . S
C1134 C1133 1.366 . S
C1134 C1138 1.385 . S
C1135 H1110 0.951 . S
C1135 C1133 1.388 . S
C1135 C1136 1.366 . S
C1136 C1135 1.366 . S
C1136 C1137 1.414 . S
C1136 C1139 1.499 . S
C1137 H1111 0.950 . S
C1137 C1136 1.414 . S
C1137 C1138 1.374 . S
C1138 H1112 0.950 . S
C1138 C1134 1.385 . S
C1138 C1137 1.374 . S
C1139 C1136 1.499 . S
C1139 C1140 1.373 . S
C1139 C1141 1.389 . S
C1140 H1113 0.950 . S
C1140 C1126 1.377 . S
C1140 C1139 1.373 . S
C1141 C1125 1.377 . S
C1141 C1139 1.389 . S
C1141 C1142 1.524 . S
C1142 C1141 1.524 . S
C1142 C1143 1.397 . S
C1142 C1147 1.363 . S
C1143 H1114 0.950 . S
C1143 C1142 1.397 . S
C1143 C1144 1.334 . S
C1144 H1115 0.950 . S
C1144 C1143 1.334 . S
C1144 C1145 1.287 . S
C1145 C1144 1.287 . S
C1145 C1146 1.524 . S
C1145 H1148 0.999 . S
C1146 H1116 0.950 . S
C1146 C1145 1.524 . S
C1146 C1147 1.415 . S
C1147 H1117 0.950 . S
C1147 C1142 1.363 . S
C1147 C1146 1.415 . S
H1148 C1145 0.999 . S
H1149 C1130 0.913 . S
H1150 C1168 0.951 . S
H1151 C1170 0.951 . S
H1152 C1172 0.950 . S
H1153 C1173 0.950 . S
H1154 C1175 0.950 . S
H1155 C1178 0.950 . S
H1156 C1179 0.950 . S
H1157 C1181 0.950 . S
H1158 C1182 0.950 . S
H1159 C1183 0.951 . S
H1160 C1185 0.951 . S
H1161 C1187 0.950 . S
H1162 C1188 0.950 . S
H1163 C1190 0.950 . S
H1164 C1193 0.950 . S
H1165 C1194 0.950 . S
H1166 C1196 0.950 . S
H1167 C1197 0.950 . S
C1168 H1150 0.951 . S
C1168 C1169 1.366 . S
C1168 C1170 1.388 . S
C1169 C1168 1.366 . S
C1169 C1173 1.385 . S
C1170 H1151 0.951 . S
C1170 C1168 1.388 . S
C1170 C1171 1.366 . S
C1171 C1170 1.366 . S
C1171 C1172 1.414 . S
C1171 C1174 1.499 . S
C1172 H1152 0.950 . S
C1172 C1171 1.414 . S
C1172 C1173 1.374 . S
C1173 H1153 0.950 . S
C1173 C1169 1.385 . S
C1173 C1172 1.374 . S
C1174 C1171 1.499 . S
C1174 C1175 1.373 . S
C1174 C1176 1.389 . S
C1175 H1154 0.950 . S
C1175 C1174 1.373 . S
C1175 C1191 1.377 . S
C1176 C1174 1.389 . S
C1176 C1177 1.524 . S
C1176 C1190 1.377 . S
C1177 C1176 1.524 . S
C1177 C1178 1.397 . S
C1177 C1182 1.363 . S
C1178 H1155 0.950 . S
C1178 C1177 1.397 . S
C1178 C1179 1.334 . S
C1179 H1156 0.950 . S
C1179 C1178 1.334 . S
C1179 C1180 1.287 . S
C1180 C1179 1.287 . S
C1180 C1181 1.524 . S
C1180 H1199 0.913 . S
C1181 H1157 0.950 . S
C1181 C1180 1.524 . S
C1181 C1182 1.415 . S
C1182 H1158 0.950 . S
C1182 C1177 1.363 . S
C1182 C1181 1.415 . S
C1183 H1159 0.951 . S
C1183 C1184 1.366 . S
C1183 C1185 1.388 . S
C1184 C1183 1.366 . S
C1184 C1188 1.385 . S
C1185 H1160 0.951 . S
C1185 C1183 1.388 . S
C1185 C1186 1.366 . S
C1186 C1185 1.366 . S
C1186 C1187 1.414 . S
C1186 C1189 1.499 . S
C1187 H1161 0.950 . S
C1187 C1186 1.414 . S
C1187 C1188 1.374 . S
C1188 H1162 0.950 . S
C1188 C1184 1.385 . S
C1188 C1187 1.374 . S
C1189 C1186 1.499 . S
C1189 C1190 1.373 . S
C1189 C1191 1.389 . S
C1190 H1163 0.950 . S
C1190 C1176 1.377 . S
C1190 C1189 1.373 . S
C1191 C1175 1.377 . S
C1191 C1189 1.389 . S
C1191 C1192 1.524 . S
C1192 C1191 1.524 . S
C1192 C1193 1.397 . S
C1192 C1197 1.363 . S
C1193 H1164 0.950 . S
C1193 C1192 1.397 . S
C1193 C1194 1.334 . S
C1194 H1165 0.950 . S
C1194 C1193 1.334 . S
C1194 C1195 1.287 . S
C1195 C1194 1.287 . S
C1195 C1196 1.524 . S
C1195 H1198 0.999 . S
C1196 H1166 0.950 . S
C1196 C1195 1.524 . S
C1196 C1197 1.415 . S
C1197 H1167 0.950 . S
C1197 C1192 1.363 . S
C1197 C1196 1.415 . S
H1198 C1195 0.999 . S
H1199 C1180 0.913 . S
H1200 C1218 0.951 . S
H1201 C1220 0.951 . S
H1202 C1222 0.950 . S
H1203 C1223 0.950 . S
H1204 C1225 0.950 . S
H1205 C1228 0.950 . S
H1206 C1229 0.950 . S
H1207 C1231 0.950 . S
H1208 C1232 0.950 . S
H1209 C1233 0.951 . S
H1210 C1235 0.951 . S
H1211 C1237 0.950 . S
H1212 C1238 0.950 . S
H1213 C1240 0.950 . S
H1214 C1243 0.950 . S
H1215 C1244 0.950 . S
H1216 C1246 0.950 . S
H1217 C1247 0.950 . S
C1218 H1200 0.951 . S
C1218 C1219 1.366 . S
C1218 C1220 1.388 . S
C1219 C1218 1.366 . S
C1219 C1223 1.385 . S
C1220 H1201 0.951 . S
C1220 C1218 1.388 . S
C1220 C1221 1.366 . S
C1221 C1220 1.366 . S
C1221 C1222 1.414 . S
C1221 C1224 1.499 . S
C1222 H1202 0.950 . S
C1222 C1221 1.414 . S
C1222 C1223 1.374 . S
C1223 H1203 0.950 . S
C1223 C1219 1.385 . S
C1223 C1222 1.374 . S
C1224 C1221 1.499 . S
C1224 C1225 1.373 . S
C1224 C1226 1.389 . S
C1225 H1204 0.950 . S
C1225 C1224 1.373 . S
C1225 C1241 1.377 . S
C1226 C1224 1.389 . S
C1226 C1227 1.524 . S
C1226 C1240 1.377 . S
C1227 C1226 1.524 . S
C1227 C1228 1.397 . S
C1227 C1232 1.363 . S
C1228 H1205 0.950 . S
C1228 C1227 1.397 . S
C1228 C1229 1.334 . S
C1229 H1206 0.950 . S
C1229 C1228 1.334 . S
C1229 C1230 1.287 . S
C1230 C1229 1.287 . S
C1230 C1231 1.524 . S
C1230 H1249 0.913 . S
C1231 H1207 0.950 . S
C1231 C1230 1.524 . S
C1231 C1232 1.415 . S
C1232 H1208 0.950 . S
C1232 C1227 1.363 . S
C1232 C1231 1.415 . S
C1233 H1209 0.951 . S
C1233 C1234 1.366 . S
C1233 C1235 1.388 . S
C1234 C1233 1.366 . S
C1234 C1238 1.385 . S
C1235 H1210 0.951 . S
C1235 C1233 1.388 . S
C1235 C1236 1.366 . S
C1236 C1235 1.366 . S
C1236 C1237 1.414 . S
C1236 C1239 1.499 . S
C1237 H1211 0.950 . S
C1237 C1236 1.414 . S
C1237 C1238 1.374 . S
C1238 H1212 0.950 . S
C1238 C1234 1.385 . S
C1238 C1237 1.374 . S
C1239 C1236 1.499 . S
C1239 C1240 1.373 . S
C1239 C1241 1.389 . S
C1240 H1213 0.950 . S
C1240 C1226 1.377 . S
C1240 C1239 1.373 . S
C1241 C1225 1.377 . S
C1241 C1239 1.389 . S
C1241 C1242 1.524 . S
C1242 C1241 1.524 . S
C1242 C1243 1.397 . S
C1242 C1247 1.363 . S
C1243 H1214 0.950 . S
C1243 C1242 1.397 . S
C1243 C1244 1.334 . S
C1244 H1215 0.950 . S
C1244 C1243 1.334 . S
C1244 C1245 1.287 . S
C1245 C1244 1.287 . S
C1245 C1246 1.524 . S
C1245 H1248 0.999 . S
C1246 H1216 0.950 . S
C1246 C1245 1.524 . S
C1246 C1247 1.415 . S
C1247 H1217 0.950 . S
C1247 C1242 1.363 . S
C1247 C1246 1.415 . S
H1248 C1245 0.999 . S
H1249 C1230 0.913 . S
H1250 C1268 0.951 . S
H1251 C1270 0.951 . S
H1252 C1272 0.950 . S
H1253 C1273 0.950 . S
H1254 C1275 0.950 . S
H1255 C1278 0.950 . S
H1256 C1279 0.950 . S
H1257 C1281 0.950 . S
H1258 C1282 0.950 . S
H1259 C1283 0.951 . S
H1260 C1285 0.951 . S
H1261 C1287 0.950 . S
H1262 C1288 0.950 . S
H1263 C1290 0.950 . S
H1264 C1293 0.950 . S
H1265 C1294 0.950 . S
H1266 C1296 0.950 . S
H1267 C1297 0.950 . S
C1268 H1250 0.951 . S
C1268 C1269 1.366 . S
C1268 C1270 1.388 . S
C1269 C1268 1.366 . S
C1269 C1273 1.385 . S
C1270 H1251 0.951 . S
C1270 C1268 1.388 . S
C1270 C1271 1.366 . S
C1271 C1270 1.366 . S
C1271 C1272 1.414 . S
C1271 C1274 1.499 . S
C1272 H1252 0.950 . S
C1272 C1271 1.414 . S
C1272 C1273 1.374 . S
C1273 H1253 0.950 . S
C1273 C1269 1.385 . S
C1273 C1272 1.374 . S
C1274 C1271 1.499 . S
C1274 C1275 1.373 . S
C1274 C1276 1.389 . S
C1275 H1254 0.950 . S
C1275 C1274 1.373 . S
C1275 C1291 1.377 . S
C1276 C1274 1.389 . S
C1276 C1277 1.524 . S
C1276 C1290 1.377 . S
C1277 C1276 1.524 . S
C1277 C1278 1.397 . S
C1277 C1282 1.363 . S
C1278 H1255 0.950 . S
C1278 C1277 1.397 . S
C1278 C1279 1.334 . S
C1279 H1256 0.950 . S
C1279 C1278 1.334 . S
C1279 C1280 1.287 . S
C1280 C1279 1.287 . S
C1280 C1281 1.524 . S
C1280 H1299 0.913 . S
C1281 H1257 0.950 . S
C1281 C1280 1.524 . S
C1281 C1282 1.415 . S
C1282 H1258 0.950 . S
C1282 C1277 1.363 . S
C1282 C1281 1.415 . S
C1283 H1259 0.951 . S
C1283 C1284 1.366 . S
C1283 C1285 1.388 . S
C1284 C1283 1.366 . S
C1284 C1288 1.385 . S
C1285 H1260 0.951 . S
C1285 C1283 1.388 . S
C1285 C1286 1.366 . S
C1286 C1285 1.366 . S
C1286 C1287 1.414 . S
C1286 C1289 1.499 . S
C1287 H1261 0.950 . S
C1287 C1286 1.414 . S
C1287 C1288 1.374 . S
C1288 H1262 0.950 . S
C1288 C1284 1.385 . S
C1288 C1287 1.374 . S
C1289 C1286 1.499 . S
C1289 C1290 1.373 . S
C1289 C1291 1.389 . S
C1290 H1263 0.950 . S
C1290 C1276 1.377 . S
C1290 C1289 1.373 . S
C1291 C1275 1.377 . S
C1291 C1289 1.389 . S
C1291 C1292 1.524 . S
C1292 C1291 1.524 . S
C1292 C1293 1.397 . S
C1292 C1297 1.363 . S
C1293 H1264 0.950 . S
C1293 C1292 1.397 . S
C1293 C1294 1.334 . S
C1294 H1265 0.950 . S
C1294 C1293 1.334 . S
C1294 C1295 1.287 . S
C1295 C1294 1.287 . S
C1295 C1296 1.524 . S
C1295 H1298 0.999 . S
C1296 H1266 0.950 . S
C1296 C1295 1.524 . S
C1296 C1297 1.415 . S
C1297 H1267 0.950 . S
C1297 C1292 1.363 . S
C1297 C1296 1.415 . S
H1298 C1295 0.999 . S
H1299 C1280 0.913 . S
H1300 C1318 0.951 . S
H1301 C1320 0.951 . S
H1302 C1322 0.950 . S
H1303 C1323 0.950 . S
H1304 C1325 0.950 . S
H1305 C1328 0.950 . S
H1306 C1329 0.950 . S
H1307 C1331 0.950 . S
H1308 C1332 0.950 . S
H1309 C1333 0.951 . S
H1310 C1335 0.951 . S
H1311 C1337 0.950 . S
H1312 C1338 0.950 . S
H1313 C1340 0.950 . S
H1314 C1343 0.950 . S
H1315 C1344 0.950 . S
H1316 C1346 0.950 . S
H1317 C1347 0.950 . S
C1318 H1300 0.951 . S
C1318 C1319 1.366 . S
C1318 C1320 1.388 . S
C1319 C1318 1.366 . S
C1319 C1323 1.385 . S
C1320 H1301 0.951 . S
C1320 C1318 1.388 . S
C1320 C1321 1.366 . S
C1321 C1320 1.366 . S
C1321 C1322 1.414 . S
C1321 C1324 1.499 . S
C1322 H1302 0.950 . S
C1322 C1321 1.414 . S
C1322 C1323 1.374 . S
C1323 H1303 0.950 . S
C1323 C1319 1.385 . S
C1323 C1322 1.374 . S
C1324 C1321 1.499 . S
C1324 C1325 1.373 . S
C1324 C1326 1.389 . S
C1325 H1304 0.950 . S
C1325 C1324 1.373 . S
C1325 C1341 1.377 . S
C1326 C1324 1.389 . S
C1326 C1327 1.524 . S
C1326 C1340 1.377 . S
C1327 C1326 1.524 . S
C1327 C1328 1.397 . S
C1327 C1332 1.363 . S
C1328 H1305 0.950 . S
C1328 C1327 1.397 . S
C1328 C1329 1.334 . S
C1329 H1306 0.950 . S
C1329 C1328 1.334 . S
C1329 C1330 1.287 . S
C1330 C1329 1.287 . S
C1330 C1331 1.524 . S
C1330 H1349 0.913 . S
C1331 H1307 0.950 . S
C1331 C1330 1.524 . S
C1331 C1332 1.415 . S
C1332 H1308 0.950 . S
C1332 C1327 1.363 . S
C1332 C1331 1.415 . S
C1333 H1309 0.951 . S
C1333 C1334 1.366 . S
C1333 C1335 1.388 . S
C1334 C1333 1.366 . S
C1334 C1338 1.385 . S
C1335 H1310 0.951 . S
C1335 C1333 1.388 . S
C1335 C1336 1.366 . S
C1336 C1335 1.366 . S
C1336 C1337 1.414 . S
C1336 C1339 1.499 . S
C1337 H1311 0.950 . S
C1337 C1336 1.414 . S
C1337 C1338 1.374 . S
C1338 H1312 0.950 . S
C1338 C1334 1.385 . S
C1338 C1337 1.374 . S
C1339 C1336 1.499 . S
C1339 C1340 1.373 . S
C1339 C1341 1.389 . S
C1340 H1313 0.950 . S
C1340 C1326 1.377 . S
C1340 C1339 1.373 . S
C1341 C1325 1.377 . S
C1341 C1339 1.389 . S
C1341 C1342 1.524 . S
C1342 C1341 1.524 . S
C1342 C1343 1.397 . S
C1342 C1347 1.363 . S
C1343 H1314 0.950 . S
C1343 C1342 1.397 . S
C1343 C1344 1.334 . S
C1344 H1315 0.950 . S
C1344 C1343 1.334 . S
C1344 C1345 1.287 . S
C1345 C1344 1.287 . S
C1345 C1346 1.524 . S
C1345 H1348 0.999 . S
C1346 H1316 0.950 . S
C1346 C1345 1.524 . S
C1346 C1347 1.415 . S
C1347 H1317 0.950 . S
C1347 C1342 1.363 . S
C1347 C1346 1.415 . S
H1348 C1345 0.999 . S
H1349 C1330 0.913 . S
H1350 C1368 0.951 . S
H1351 C1370 0.951 . S
H1352 C1372 0.950 . S
H1353 C1373 0.950 . S
H1354 C1375 0.950 . S
H1355 C1378 0.950 . S
H1356 C1379 0.950 . S
H1357 C1381 0.950 . S
H1358 C1382 0.950 . S
H1359 C1383 0.951 . S
H1360 C1385 0.951 . S
H1361 C1387 0.950 . S
H1362 C1388 0.950 . S
H1363 C1390 0.950 . S
H1364 C1393 0.950 . S
H1365 C1394 0.950 . S
H1366 C1396 0.950 . S
H1367 C1397 0.950 . S
C1368 H1350 0.951 . S
C1368 C1369 1.366 . S
C1368 C1370 1.388 . S
C1369 C1368 1.366 . S
C1369 C1373 1.385 . S
C1370 H1351 0.951 . S
C1370 C1368 1.388 . S
C1370 C1371 1.366 . S
C1371 C1370 1.366 . S
C1371 C1372 1.414 . S
C1371 C1374 1.499 . S
C1372 H1352 0.950 . S
C1372 C1371 1.414 . S
C1372 C1373 1.374 . S
C1373 H1353 0.950 . S
C1373 C1369 1.385 . S
C1373 C1372 1.374 . S
C1374 C1371 1.499 . S
C1374 C1375 1.373 . S
C1374 C1376 1.389 . S
C1375 H1354 0.950 . S
C1375 C1374 1.373 . S
C1375 C1391 1.377 . S
C1376 C1374 1.389 . S
C1376 C1377 1.524 . S
C1376 C1390 1.377 . S
C1377 C1376 1.524 . S
C1377 C1378 1.397 . S
C1377 C1382 1.363 . S
C1378 H1355 0.950 . S
C1378 C1377 1.397 . S
C1378 C1379 1.334 . S
C1379 H1356 0.950 . S
C1379 C1378 1.334 . S
C1379 C1380 1.287 . S
C1380 C1379 1.287 . S
C1380 C1381 1.524 . S
C1380 H1399 0.913 . S
C1381 H1357 0.950 . S
C1381 C1380 1.524 . S
C1381 C1382 1.415 . S
C1382 H1358 0.950 . S
C1382 C1377 1.363 . S
C1382 C1381 1.415 . S
C1383 H1359 0.951 . S
C1383 C1384 1.366 . S
C1383 C1385 1.388 . S
C1384 C1383 1.366 . S
C1384 C1388 1.385 . S
C1385 H1360 0.951 . S
C1385 C1383 1.388 . S
C1385 C1386 1.366 . S
C1386 C1385 1.366 . S
C1386 C1387 1.414 . S
C1386 C1389 1.499 . S
C1387 H1361 0.950 . S
C1387 C1386 1.414 . S
C1387 C1388 1.374 . S
C1388 H1362 0.950 . S
C1388 C1384 1.385 . S
C1388 C1387 1.374 . S
C1389 C1386 1.499 . S
C1389 C1390 1.373 . S
C1389 C1391 1.389 . S
C1390 H1363 0.950 . S
C1390 C1376 1.377 . S
C1390 C1389 1.373 . S
C1391 C1375 1.377 . S
C1391 C1389 1.389 . S
C1391 C1392 1.524 . S
C1392 C1391 1.524 . S
C1392 C1393 1.397 . S
C1392 C1397 1.363 . S
C1393 H1364 0.950 . S
C1393 C1392 1.397 . S
C1393 C1394 1.334 . S
C1394 H1365 0.950 . S
C1394 C1393 1.334 . S
C1394 C1395 1.287 . S
C1395 C1394 1.287 . S
C1395 C1396 1.524 . S
C1395 H1398 0.999 . S
C1396 H1366 0.950 . S
C1396 C1395 1.524 . S
C1396 C1397 1.415 . S
C1397 H1367 0.950 . S
C1397 C1392 1.363 . S
C1397 C1396 1.415 . S
H1398 C1395 0.999 . S
H1399 C1380 0.913 . S
C219 C45 1.576 . S
C234 C108 1.581 . S
C269 C30 1.577 . S
C284 C120 1.584 . S
C319 C39 1.577 . S
C334 C132 1.573 . S
C384 C144 1.582 . S
C369 C34 1.576 . S
C419 C97 1.577 . S
C434 C156 1.582 . S
C484 C168 1.573 . S
C469 C82 1.577 . S
C534 C180 1.572 . S
C519 C91 1.576 . S
C584 C192 1.584 . S
C569 C86 1.577 . S
C634 C185 1.541 . S
C619 C26 1.502 . S
C684 C194 1.507 . S
C669 C36 1.471 . S
C734 C158 1.531 . S
C719 C32 1.496 . S
C784 C173 1.565 . S
C769 C42 1.528 . S
C819 C18 1.570 . S
C834 C170 1.639 . S
C884 C182 1.661 . S
C869 C50 1.595 . S
C919 C4 1.628 . S
C934 C197 1.671 . S
C969 C48 1.603 . S
C984 C161 1.648 . S
C1034 C137 1.570 . S
C1019 C78 1.531 . S
C1069 C88 1.485 . S
C1084 C146 1.521 . S
C1134 C110 1.553 . S
C1119 C84 1.517 . S
C1184 C122 1.475 . S
C1169 C94 1.442 . S
C1234 C125 1.705 . S
C1219 C70 1.659 . S
C1284 C134 1.634 . S
C1269 C102 1.567 . S
C1319 C56 1.615 . S
C1334 C149 1.658 . S
C1369 C100 1.583 . S
C1384 C113 1.627 . S
