# Generated by pormake.
# Topology zzz, (3,6)-cn, num edge types: 1
# Building blocks:
#     Node 0, Type 0, BuildingBlock: BETDIP_clean_linker_0, # of connection points: 3
#     Node 1, Type 0, BuildingBlock: BETDIP_clean_linker_0, # of connection points: 3
#     Node 2, Type 0, BuildingBlock: BETDIP_clean_linker_0, # of connection points: 3
#     Node 3, Type 0, BuildingBlock: BETDIP_clean_linker_0, # of connection points: 3
#     Node 4, Type 0, BuildingBlock: BETDIP_clean_linker_0, # of connection points: 3
#     Node 5, Type 0, BuildingBlock: BETDIP_clean_linker_0, # of connection points: 3
#     Node 6, Type 0, BuildingBlock: BETDIP_clean_linker_0, # of connection points: 3
#     Node 7, Type 0, BuildingBlock: BETDIP_clean_linker_0, # of connection points: 3
#     Node 8, Type 1, BuildingBlock: KUMBOL_clean_sbu_0, # of connection points: 6
#     Node 9, Type 1, BuildingBlock: KUMBOL_clean_sbu_0, # of connection points: 6
#     Node 10, Type 1, BuildingBlock: KUMBOL_clean_sbu_0, # of connection points: 6
#     Node 11, Type 1, BuildingBlock: KUMBOL_clean_sbu_0, # of connection points: 6
#     Edge 12, Type (0, 1), BuildingBlock: MIFKUJ_clean_linker_0, # of connection points: 2
#     Edge 13, Type (0, 1), BuildingBlock: MIFKUJ_clean_linker_0, # of connection points: 2
#     Edge 14, Type (0, 1), BuildingBlock: MIFKUJ_clean_linker_0, # of connection points: 2
#     Edge 15, Type (0, 1), BuildingBlock: MIFKUJ_clean_linker_0, # of connection points: 2
#     Edge 16, Type (0, 1), BuildingBlock: MIFKUJ_clean_linker_0, # of connection points: 2
#     Edge 17, Type (0, 1), BuildingBlock: MIFKUJ_clean_linker_0, # of connection points: 2
#     Edge 18, Type (0, 1), BuildingBlock: MIFKUJ_clean_linker_0, # of connection points: 2
#     Edge 19, Type (0, 1), BuildingBlock: MIFKUJ_clean_linker_0, # of connection points: 2
#     Edge 20, Type (0, 1), BuildingBlock: MIFKUJ_clean_linker_0, # of connection points: 2
#     Edge 21, Type (0, 1), BuildingBlock: MIFKUJ_clean_linker_0, # of connection points: 2
#     Edge 22, Type (0, 1), BuildingBlock: MIFKUJ_clean_linker_0, # of connection points: 2
#     Edge 23, Type (0, 1), BuildingBlock: MIFKUJ_clean_linker_0, # of connection points: 2
#     Edge 24, Type (0, 1), BuildingBlock: MIFKUJ_clean_linker_0, # of connection points: 2
#     Edge 25, Type (0, 1), BuildingBlock: MIFKUJ_clean_linker_0, # of connection points: 2
#     Edge 26, Type (0, 1), BuildingBlock: MIFKUJ_clean_linker_0, # of connection points: 2
#     Edge 27, Type (0, 1), BuildingBlock: MIFKUJ_clean_linker_0, # of connection points: 2
#     Edge 28, Type (0, 1), BuildingBlock: MIFKUJ_clean_linker_0, # of connection points: 2
#     Edge 29, Type (0, 1), BuildingBlock: MIFKUJ_clean_linker_0, # of connection points: 2
#     Edge 30, Type (0, 1), BuildingBlock: MIFKUJ_clean_linker_0, # of connection points: 2
#     Edge 31, Type (0, 1), BuildingBlock: MIFKUJ_clean_linker_0, # of connection points: 2
#     Edge 32, Type (0, 1), BuildingBlock: MIFKUJ_clean_linker_0, # of connection points: 2
#     Edge 33, Type (0, 1), BuildingBlock: MIFKUJ_clean_linker_0, # of connection points: 2
#     Edge 34, Type (0, 1), BuildingBlock: MIFKUJ_clean_linker_0, # of connection points: 2
#     Edge 35, Type (0, 1), BuildingBlock: MIFKUJ_clean_linker_0, # of connection points: 2
# Relax obj value: 0.146
# Max RMSD: 0.150
# Mean RMSD: 0.112
data_MOF--net-zzz--node1-KUMBOL_clean_sbu_0--node2-BETDIP_clean_linker_0--edge1-MIFKUJ_clean_linker_0
_symmetry_space_group_name_H-M    P1
_symmetry_Int_Tables_number       1
_symmetry_cell_setting            triclinic
loop_
_symmetry_equiv_pos_as_xyz
'x, y, z'
_cell_length_a     65.939461
_cell_length_b     65.818899
_cell_length_c     19.118116
_cell_angle_alpha  90.748947
_cell_angle_beta   90.029866
_cell_angle_gamma 90.026074
loop_
_atom_site_label
_atom_site_type_symbol
_atom_site_fract_x
_atom_site_fract_y
_atom_site_fract_z
_atom_type_partial_charge
H0 H 0.76627 0.53493 0.24475 0.0
H1 H 0.76846 0.56081 0.03813 0.0
H2 H 0.82104 0.56293 0.16905 0.0
H3 H 0.73609 0.5715 0.07674 0.0
C4 C 0.73065 0.55623 0.08709 0.0
C5 C 0.7744 0.54288 0.20424 0.0
C6 C 0.795 0.54861 0.21517 0.0
C7 C 0.76425 0.54811 0.14113 0.0
C8 C 0.77542 0.55779 0.08828 0.0
C9 C 0.79569 0.56335 0.09872 0.0
C10 C 0.80515 0.55903 0.16217 0.0
N11 N 0.74315 0.54347 0.12971 0.0
H12 H 0.99747 0.76562 0.24592 0.0
H13 H 0.97069 0.76752 0.03993 0.0
H14 H 0.97003 0.82064 0.17224 0.0
H15 H 0.9594 0.73563 0.07452 0.0
C16 C 0.97424 0.72962 0.08787 0.0
C17 C 0.98941 0.77376 0.20567 0.0
C18 C 0.98459 0.79468 0.21609 0.0
C19 C 0.98327 0.76336 0.14316 0.0
C20 C 0.97383 0.77467 0.09007 0.0
C21 C 0.96934 0.79537 0.09954 0.0
C22 C 0.97401 0.80481 0.16364 0.0
N23 N 0.98709 0.74196 0.13212 0.0
H24 H 0.76561 1.00103 0.29374 0.0
H25 H 0.77137 0.97141 0.09225 0.0
H26 H 0.71362 0.97304 0.19554 0.0
H27 H 0.80421 0.96101 0.16829 0.0
C28 C 0.80734 0.97716 0.16373 0.0
C29 C 0.75905 0.99218 0.25128 0.0
C30 C 0.73815 0.98697 0.25292 0.0
C31 C 0.77144 0.98578 0.19427 0.0
C32 C 0.7624 0.97519 0.1381 0.0
C33 C 0.74161 0.97075 0.13811 0.0
C34 C 0.72981 0.97606 0.1964 0.0
N35 N 0.79248 0.99118 0.19014 0.0
H36 H 0.54967 0.77894 0.31972 0.0
H37 H 0.5412 0.78681 0.09783 0.0
H38 H 0.54139 0.72691 0.18362 0.0
H39 H 0.57757 0.81007 0.16646 0.0
C40 C 0.56327 0.81765 0.17778 0.0
C41 C 0.54746 0.7725 0.26785 0.0
C42 C 0.54618 0.75117 0.25838 0.0
C43 C 0.54646 0.7854 0.20914 0.0
C44 C 0.54297 0.77695 0.14241 0.0
C45 C 0.5411 0.75593 0.13342 0.0
C46 C 0.54317 0.74321 0.19094 0.0
N47 N 0.5483 0.80689 0.21634 0.0
H48 H 0.28263 0.50663 0.93876 0.0
H49 H 0.29491 0.48431 0.14573 0.0
H50 H 0.23617 0.47541 0.05401 0.0
H51 H 0.30925 0.52654 0.12304 0.0
C52 C 0.3195 0.51576 0.098 0.0
C53 C 0.2777 0.49861 0.98483 0.0
C54 C 0.25755 0.49083 0.9884 0.0
C55 C 0.29133 0.49618 0.04214 0.0
C56 C 0.28466 0.48606 0.10183 0.0
C57 C 0.265 0.47828 0.10586 0.0
C58 C 0.25172 0.4806 0.04915 0.0
N59 N 0.31173 0.50363 0.0412 0.0
H60 H 0.02852 0.27218 0.93997 0.0
H61 H 0.04552 0.28709 0.15261 0.0
H62 H 0.05481 0.22681 0.07352 0.0
H63 H 1.00583 0.30143 0.11736 0.0
C64 C 0.01683 0.31154 0.09361 0.0
C65 C 0.03518 0.2678 0.98929 0.0
C66 C 0.04207 0.24739 0.99857 0.0
C67 C 0.03663 0.28237 0.04535 0.0
C68 C 0.04475 0.2763 0.1093 0.0
C69 C 0.05132 0.25645 0.11917 0.0
C70 C 0.05036 0.24235 0.06383 0.0
N71 N 0.02964 0.30295 0.04016 0.0
H72 H 0.26063 0.02801 0.9381 0.0
H73 H 0.2598 0.05608 0.14412 0.0
H74 H 0.31219 0.06168 0.01492 0.0
H75 H 0.2434 0.02444 0.16099 0.0
C76 C 0.23132 0.02805 0.12444 0.0
C77 C 0.26769 0.03744 0.97803 0.0
C78 C 0.2877 0.04499 0.96769 0.0
C79 C 0.25718 0.04168 0.04182 0.0
C80 C 0.26712 0.05316 0.09428 0.0
C81 C 0.28686 0.06026 0.08463 0.0
C82 C 0.29661 0.05677 0.02082 0.0
N83 N 0.23716 0.03393 0.05524 0.0
H84 H 0.49647 0.26456 0.96684 0.0
H85 H 0.47611 0.26712 0.18185 0.0
H86 H 0.4671 0.31815 0.05006 0.0
H87 H 0.50668 0.24946 0.19076 0.0
C88 C 0.50234 0.23738 0.15437 0.0
C89 C 0.48888 0.27248 0.00935 0.0
C90 C 0.48133 0.29244 0.99934 0.0
C91 C 0.48699 0.26304 0.07543 0.0
C92 C 0.47757 0.27383 0.13068 0.0
C93 C 0.47033 0.29352 0.12119 0.0
C94 C 0.47192 0.30249 0.05568 0.0
N95 N 0.49479 0.24303 0.08718 0.0
Gd96 Gd 0.99557 0.02126 0.55492 0.0
Gd97 Gd 0.03312 0.01157 0.68905 0.0
C98 C 0.05395 0.06091 0.84408 0.0
C99 C 0.08986 0.06352 0.81756 0.0
C100 C 0.06849 0.03978 0.75228 0.0
C101 C 0.05182 0.04582 0.79131 0.0
C102 C 0.08778 0.04831 0.76589 0.0
C103 C 0.07299 0.06982 0.8565 0.0
C104 C 0.03686 0.06674 0.88258 0.0
C105 C 0.01826 0.05749 0.86859 0.0
N106 N 0.03347 0.03725 0.77698 0.0
C107 C 0.01686 0.0426 0.81599 0.0
H108 H 1.00221 0.03601 0.80604 0.0
C109 C 0.08253 0.01716 0.66835 0.0
N110 N 0.06601 0.02521 0.7022 0.0
C111 C 0.10189 0.02517 0.67985 0.0
C112 C 0.1045 0.04101 0.72819 0.0
H113 H 0.08061 1.00482 0.63097 0.0
H114 H 0.07484 0.08151 0.89645 0.0
H115 H 0.02182 0.99666 0.42193 0.0
H116 H 0.03785 0.07835 0.92316 0.0
H117 H 1.00493 0.06188 0.89812 0.0
H118 H 0.10451 0.07034 0.82837 0.0
H119 H 0.94784 0.03312 0.60315 0.0
H120 H 0.9856 0.94798 0.34526 0.0
H121 H 0.01736 0.96778 0.34372 0.0
H122 H 0.92216 0.9574 0.46067 0.0
H123 H 0.11478 0.01912 0.65146 0.0
H124 H 0.11953 0.04718 0.73713 0.0
H125 H 0.95042 0.94388 0.39064 0.0
H126 H 0.91361 0.01811 0.59792 0.0
N127 N 0.99307 0.99375 0.47281 0.0
C128 C 0.98743 0.96085 0.38066 0.0
C129 C 1.00534 0.972 0.37958 0.0
C130 C 0.9718 0.96691 0.42546 0.0
C131 C 0.97497 0.98377 0.47091 0.0
C132 C 1.00779 0.98859 0.42516 0.0
N133 N 0.96201 1.00843 0.54928 0.0
C134 C 0.95905 0.99123 0.5108 0.0
C135 C 0.92627 1.01021 0.57398 0.0
C136 C 0.92329 0.99168 0.53937 0.0
C137 C 0.94568 0.01864 0.5769 0.0
C138 C 0.93964 0.98221 0.5057 0.0
H139 H 0.90818 0.98528 0.53616 0.0
O140 O 0.97524 0.03502 0.47955 0.0
O141 O 0.0161 0.03596 0.63405 0.0
O142 O 1.00199 1.00607 0.73807 0.0
O143 O 0.97802 0.01444 0.6537 0.0
O144 O 0.98687 0.04702 0.62884 0.0
O145 O 1.00517 0.04736 0.49443 0.0
O146 O 0.05417 0.98766 0.7155 0.0
O147 O 0.01176 0.99664 0.61194 0.0
O148 O 0.0275 0.02003 0.50749 0.0
O149 O 0.04878 0.02818 0.6005 0.0
O150 O 0.04137 0.98636 0.6128 0.0
O151 O 0.03037 0.99641 0.7886 0.0
C152 C 1.00438 0.04975 0.65794 0.0
C153 C 0.93688 0.96467 0.4643 0.0
C154 C 0.95294 0.95701 0.42431 0.0
C155 C 0.98701 0.05057 0.4704 0.0
C156 C 0.97835 0.0708 0.48643 0.0
C157 C 0.95911 0.07289 0.51738 0.0
C158 C 0.9904 0.0881 0.47781 0.0
C159 C 0.98402 0.10722 0.50334 0.0
C160 C 0.95258 0.09177 0.54247 0.0
C161 C 0.96503 0.10879 0.53654 0.0
C162 C 0.98298 1.00864 0.71731 0.0
C163 C 0.02368 0.98339 0.58608 0.0
C164 C 0.04513 0.98377 0.77428 0.0
C165 C 0.04163 0.96222 0.78772 0.0
C166 C 0.05799 0.95042 0.81053 0.0
C167 C 0.02249 0.95324 0.77775 0.0
C168 C 0.0197 0.93268 0.79329 0.0
C169 C 0.05526 0.92988 0.82472 0.0
C170 C 0.03615 0.92108 0.81692 0.0
C171 C 0.04537 0.02607 0.53243 0.0
H172 H 0.94924 0.05994 0.52371 0.0
H173 H 1.00487 0.08645 0.45153 0.0
H174 H 0.93792 0.09316 0.56754 0.0
H175 H 0.95977 0.12311 0.55828 0.0
H176 H 0.07287 0.95713 0.81763 0.0
H177 H 1.00977 0.96224 0.75993 0.0
H178 H 0.0679 0.92083 0.84258 0.0
H179 H 0.03414 0.9052 0.82953 0.0
Gd180 Gd 0.51596 1.00656 0.59168 0.0
Gd181 Gd 0.52424 0.04451 0.72928 0.0
C182 C 0.47802 0.05645 0.90344 0.0
C183 C 0.47239 0.09271 0.89337 0.0
C184 C 0.49353 0.0748 0.80829 0.0
C185 C 0.49054 0.05675 0.84346 0.0
C186 C 0.4842 0.09291 0.83248 0.0
C187 C 0.46951 0.07456 0.92912 0.0
C188 C 0.47461 0.03801 0.93674 0.0
C189 C 0.48355 0.0204 0.91027 0.0
N190 N 0.49992 0.0396 0.81966 0.0
C191 C 0.49627 0.02145 0.85203 0.0
H192 H 0.50236 1.00733 0.83276 0.0
C193 C 0.51017 0.09275 0.71872 0.0
N194 N 0.506 0.07485 0.75189 0.0
C195 C 0.5007 0.11084 0.73918 0.0
C196 C 0.48763 0.11093 0.79638 0.0
H197 H 0.52127 0.09318 0.67707 0.0
H198 H 0.46084 0.0747 0.97715 0.0
H199 H 0.54533 0.02841 0.4686 0.0
H200 H 0.46496 0.03718 0.98248 0.0
H201 H 0.48073 1.00596 0.93488 0.0
H202 H 0.46567 0.10658 0.91382 0.0
H203 H 0.49681 0.9622 0.64433 0.0
H204 H 0.58738 0.98438 0.39093 0.0
H205 H 0.57369 0.01933 0.39166 0.0
H206 H 0.56571 0.92285 0.49897 0.0
H207 H 0.50394 0.12479 0.71199 0.0
H208 H 0.48067 0.12507 0.81329 0.0
H209 H 0.5846 0.94847 0.4326 0.0
H210 H 0.50504 0.92571 0.63739 0.0
N211 N 0.54306 0.99912 0.51435 0.0
C212 C 0.57488 0.98829 0.42531 0.0
C213 C 0.56714 1.008 0.42538 0.0
C214 C 0.56584 0.97367 0.46756 0.0
C215 C 0.54958 0.97958 0.51135 0.0
C216 C 0.55095 0.01308 0.46949 0.0
N217 N 0.52269 0.97138 0.58602 0.0
C218 C 0.53901 0.96522 0.54833 0.0
C219 C 0.51479 0.93666 0.61236 0.0
C220 C 0.53214 0.93021 0.57669 0.0
C221 C 0.51017 0.95739 0.61605 0.0
C222 C 0.54434 0.9445 0.54319 0.0
H223 H 0.5357 0.91414 0.57388 0.0
O224 O 0.48853 0.99303 0.54898 0.0
O225 O 0.50087 0.02756 0.66944 0.0
O226 O 0.53134 0.01295 0.77161 0.0
O227 O 0.5315 0.98949 0.67838 0.0
O228 O 0.48969 0.99854 0.66268 0.0
O229 O 0.50478 0.0162 0.49119 0.0
O230 O 0.54204 0.06998 0.76613 0.0
O231 O 0.53926 0.02422 0.65072 0.0
O232 O 0.51881 0.03816 0.5454 0.0
O233 O 0.5092 0.05961 0.6364 0.0
O234 O 0.54986 0.0536 0.65614 0.0
O235 O 0.54547 0.04077 0.81543 0.0
C236 C 0.48721 0.01595 0.69264 0.0
C237 C 0.56123 0.93866 0.50293 0.0
C238 C 0.57198 0.95324 0.4652 0.0
C239 C 0.48946 1.00375 0.49235 0.0
C240 C 0.48398 0.99402 0.42618 0.0
C241 C 0.49221 0.97552 0.40259 0.0
C242 C 0.46957 1.00396 0.38607 0.0
C243 C 0.46273 0.99551 0.32308 0.0
C244 C 0.48549 0.96699 0.33903 0.0
C245 C 0.47055 0.97683 0.29955 0.0
C246 C 0.53414 0.99432 0.74537 0.0
C247 C 0.55279 0.036 0.62759 0.0
C248 C 0.55273 0.05913 0.8087 0.0
C249 C 0.5748 0.06159 0.80071 0.0
C250 C 0.58277 0.08124 0.79418 0.0
C251 C 0.58776 0.04473 0.79442 0.0
C252 C 0.60857 0.04738 0.78038 0.0
C253 C 0.60325 0.08404 0.77997 0.0
C254 C 0.61604 0.06731 0.77281 0.0
C255 C 0.51209 0.05591 0.56896 0.0
H256 H 0.50355 0.96772 0.43321 0.0
H257 H 0.46313 0.01818 0.40516 0.0
H258 H 0.49167 0.95264 0.32078 0.0
H259 H 0.46515 0.96994 0.25128 0.0
H260 H 0.57303 0.09445 0.79877 0.0
H261 H 0.58162 0.02964 0.8014 0.0
H262 H 0.60925 0.09924 0.77425 0.0
H263 H 0.6318 0.07019 0.76185 0.0
Gd264 Gd 0.50149 0.52333 0.66726 0.0
Gd265 Gd 0.54427 0.50945 0.55739 0.0
C266 C 0.60063 0.4844 0.67269 0.0
C267 C 0.62712 0.50678 0.63142 0.0
C268 C 0.59208 0.51162 0.59435 0.0
C269 C 0.58611 0.49499 0.63237 0.0
C270 C 0.61265 0.51776 0.59376 0.0
C271 C 0.62112 0.49012 0.67081 0.0
C272 C 0.59407 0.46901 0.71669 0.0
C273 C 0.57344 0.46557 0.72403 0.0
N274 N 0.56598 0.49041 0.63533 0.0
C275 C 0.55965 0.47692 0.68526 0.0
H276 H 0.54407 0.47551 0.70014 0.0
C277 C 0.58319 0.53879 0.52135 0.0
N278 N 0.5777 0.5224 0.56038 0.0
C279 C 0.60328 0.54545 0.5193 0.0
C280 C 0.6181 0.53494 0.5559 0.0
H281 H 0.57219 0.54662 0.48998 0.0
H282 H 0.63236 0.48211 0.7013 0.0
H283 H 0.47284 0.55012 0.55788 0.0
H284 H 0.60471 0.46059 0.74838 0.0
H285 H 0.56804 0.45474 0.7618 0.0
H286 H 0.64293 0.51127 0.63144 0.0
H287 H 0.50036 0.49166 0.80374 0.0
H288 H 0.41436 0.52233 0.54195 0.0
H289 H 0.43841 0.54929 0.50785 0.0
H290 H 0.41682 0.47082 0.7166 0.0
H291 H 0.60735 0.55855 0.48866 0.0
H292 H 0.63369 0.54011 0.55425 0.0
H293 H 0.40648 0.49286 0.6198 0.0
H294 H 0.477 0.46712 0.85742 0.0
N295 N 0.46878 0.52338 0.61756 0.0
C296 C 0.42951 0.52257 0.56393 0.0
C297 C 0.44302 0.53783 0.54468 0.0
C298 C 0.43541 0.50843 0.61395 0.0
C299 C 0.45533 0.50942 0.64073 0.0
C300 C 0.46259 0.53817 0.57299 0.0
N301 N 0.48002 0.49941 0.72163 0.0
C302 C 0.46106 0.49715 0.69512 0.0
C303 C 0.47234 0.47541 0.81161 0.0
C304 C 0.45314 0.47222 0.78269 0.0
C305 C 0.48554 0.48937 0.78104 0.0
C306 C 0.44716 0.48336 0.72434 0.0
H307 H 0.44292 0.46144 0.80658 0.0
O308 O 0.49793 0.53588 0.77243 0.0
O309 O 0.53525 0.52389 0.65673 0.0
O310 O 0.53044 0.47919 0.58871 0.0
O311 O 0.501 0.48866 0.65068 0.0
O312 O 0.52433 0.51608 0.75294 0.0
O313 O 0.4906 0.55405 0.68262 0.0
O314 O 0.54549 0.52299 0.45479 0.0
O315 O 0.51148 0.5188 0.55738 0.0
O316 O 0.50881 0.54932 0.59344 0.0
O317 O 0.54294 0.5441 0.57195 0.0
O318 O 0.51888 0.4935 0.498 0.0
O319 O 0.5611 0.49458 0.47348 0.0
C320 C 0.54055 0.51929 0.71779 0.0
C321 C 0.42764 0.48149 0.69544 0.0
C322 C 0.42178 0.494 0.64023 0.0
C323 C 0.49041 0.55286 0.75021 0.0
C324 C 0.4722 0.56083 0.78441 0.0
C325 C 0.45598 0.54845 0.80484 0.0
C326 C 0.471 0.5818 0.79443 0.0
C327 C 0.45388 0.59074 0.82529 0.0
C328 C 0.43885 0.55723 0.83629 0.0
C329 C 0.43783 0.57831 0.8471 0.0
C330 C 0.51355 0.47473 0.62388 0.0
C331 C 0.50439 0.50574 0.51453 0.0
C332 C 0.55519 0.50768 0.42685 0.0
C333 C 0.54602 0.49952 0.36223 0.0
C334 C 0.54544 0.5116 0.30234 0.0
C335 C 0.53548 0.48101 0.36247 0.0
C336 C 0.52303 0.47543 0.30607 0.0
C337 C 0.5339 0.50552 0.2444 0.0
C338 C 0.52237 0.48771 0.24669 0.0
C339 C 0.52687 0.55627 0.57479 0.0
H340 H 0.45657 0.53215 0.79669 0.0
H341 H 0.48374 0.59122 0.77917 0.0
H342 H 0.4264 0.54768 0.85255 0.0
H343 H 0.42459 0.58489 0.87213 0.0
H344 H 0.55345 0.52597 0.30118 0.0
H345 H 0.53596 0.47144 0.40813 0.0
H346 H 0.53346 0.51494 0.19844 0.0
H347 H 0.51301 0.48348 0.20225 0.0
Gd348 Gd 0.0168 0.49651 0.68041 0.0
Gd349 Gd 0.02633 0.53721 0.55864 0.0
C350 C 0.02583 0.60529 0.60904 0.0
C351 C 0.99938 0.61756 0.53193 0.0
C352 C 1.00763 0.58155 0.53464 0.0
C353 C 0.02232 0.58527 0.58473 0.0
C354 C 0.99604 0.59765 0.50737 0.0
C355 C 0.01429 0.62138 0.58251 0.0
C356 C 0.04079 0.60859 0.65956 0.0
C357 C 0.0514 0.59213 0.68635 0.0
N358 N 0.03295 0.56932 0.61049 0.0
C359 C 0.04728 0.57252 0.66126 0.0
H360 H 0.05548 0.56015 0.68405 0.0
C361 C 0.99132 0.55799 0.45915 0.0
N362 N 1.0048 0.56219 0.51195 0.0
C363 C 0.97935 0.57338 0.43103 0.0
C364 C 0.98162 0.5933 0.45556 0.0
H365 H 0.98959 0.54262 0.43952 0.0
H366 H 0.01676 0.63683 0.60089 0.0
H367 H 0.01867 0.45348 0.58618 0.0
H368 H 0.04416 0.6238 0.67798 0.0
H369 H 0.0628 0.59449 0.72635 0.0
H370 H 0.99061 0.63012 0.51175 0.0
H371 H 0.04436 0.52611 0.79422 0.0
H372 H 0.05643 0.41123 0.69264 0.0
H373 H 0.03341 0.41932 0.59479 0.0
H374 H 0.08282 0.45029 0.88513 0.0
H375 H 0.96843 0.56987 0.39033 0.0
H376 H 0.9724 0.60524 0.43351 0.0
H377 H 0.07436 0.42277 0.80192 0.0
H378 H 0.06776 0.52141 0.89223 0.0
N379 N 0.03337 0.46497 0.67702 0.0
C380 C 0.04998 0.42632 0.68904 0.0
C381 C 0.03723 0.4309 0.6332 0.0
C382 C 0.05424 0.44126 0.73964 0.0
C383 C 0.04522 0.46058 0.73301 0.0
C384 C 0.02908 0.4504 0.62788 0.0
N385 N 0.04107 0.49456 0.7716 0.0
C386 C 0.04931 0.47587 0.7816 0.0
C387 C 0.06228 0.50836 0.86282 0.0
C388 C 0.06948 0.48899 0.8777 0.0
C389 C 0.04839 0.51093 0.80838 0.0
C390 C 0.06348 0.47252 0.83564 0.0
H391 H 0.08046 0.48708 0.91929 0.0
O392 O 0.99985 0.4809 0.75993 0.0
O393 O 0.01793 0.52968 0.66703 0.0
O394 O 0.05431 0.52936 0.62506 0.0
O395 O 0.04957 0.49513 0.64396 0.0
O396 O 1.00866 0.52056 0.76346 0.0
O397 O 0.99316 0.47527 0.64963 0.0
O398 O 0.0323 0.5439 0.45011 0.0
O399 O 0.0254 0.50327 0.5714 0.0
O400 O 0.98776 0.50487 0.61925 0.0
O401 O 0.99277 0.53797 0.58223 0.0
O402 O 0.01259 0.51402 0.48226 0.0
O403 O 0.05736 0.53874 0.52022 0.0
C404 C 0.01171 0.53642 0.72574 0.0
C405 C 0.07207 0.45316 0.84352 0.0
C406 C 0.06736 0.43753 0.79588 0.0
C407 C 0.98776 0.47216 0.71435 0.0
C408 C 0.96609 0.47413 0.72906 0.0
C409 C 0.95362 0.45692 0.72547 0.0
C410 C 0.95785 0.49304 0.7485 0.0
C411 C 0.93737 0.49457 0.76707 0.0
C412 C 0.93312 0.45847 0.74285 0.0
C413 C 0.92506 0.47713 0.76439 0.0
C414 C 0.06155 0.51129 0.6429 0.0
C415 C 0.01647 0.4977 0.51593 0.0
C416 C 0.0515 0.53986 0.45526 0.0
C417 C 0.05942 0.52434 0.40595 0.0
C418 C 0.0476 0.51725 0.34932 0.0
C419 C 0.07873 0.51603 0.41648 0.0
C420 C 0.08644 0.50104 0.3707 0.0
C421 C 0.05497 0.50207 0.30458 0.0
C422 C 0.07428 0.49403 0.31488 0.0
C423 C 0.98075 0.52231 0.59427 0.0
H424 H 0.9598 0.44228 0.71009 0.0
H425 H 0.96749 0.50638 0.75144 0.0
H426 H 0.92353 0.44513 0.74062 0.0
H427 H 0.90925 0.47795 0.77923 0.0
H428 H 0.03259 0.52328 0.33976 0.0
H429 H 0.08774 0.52125 0.46061 0.0
H430 H 0.04575 0.49667 0.26131 0.0
H431 H 0.07986 0.48277 0.27789 0.0
H432 H 0.19304 0.02511 0.0612 0.0
H433 H 0.15987 0.02558 0.12086 0.0
H434 H 0.19 0.03732 0.31781 0.0
H435 H 0.22268 0.0356 0.25932 0.0
H436 H 0.16415 0.01173 0.34384 0.0
H437 H 0.15925 0.07396 0.21304 0.0
H438 H 0.15885 0.09501 0.10722 0.0
H439 H 0.10885 0.0603 0.02526 0.0
H440 H 0.10911 0.03888 0.1303 0.0
H441 H 0.08258 0.04375 0.55879 0.0
H442 H 0.11218 0.04509 0.48214 0.0
H443 H 0.07704 0.01901 0.31351 0.0
H444 H 0.04749 0.01726 0.39034 0.0
H445 H 0.10335 0.04969 0.26713 0.0
H446 H 0.10769 0.98904 0.40349 0.0
H447 H 0.10718 0.97 0.5137 0.0
H448 H 0.15864 1.00392 0.58829 0.0
H449 H 0.15923 0.02343 0.47896 0.0
C450 C 0.19246 0.02797 0.11707 0.0
C451 C 0.21054 0.03032 0.15546 0.0
C452 C 0.17343 0.02833 0.15143 0.0
C453 C 0.17206 0.03162 0.22464 0.0
C454 C 0.19026 0.03453 0.26185 0.0
C455 C 0.20908 0.03368 0.22808 0.0
C456 C 0.15214 0.03131 0.26416 0.0
C457 C 0.15106 0.02034 0.32698 0.0
C458 C 0.13446 0.04189 0.24236 0.0
C459 C 0.13436 0.05468 0.17913 0.0
C460 C 0.14828 0.07072 0.1722 0.0
C461 C 0.14805 0.08273 0.11242 0.0
C462 C 0.13388 0.07895 0.05946 0.0
C463 C 0.11985 0.06318 0.06626 0.0
C464 C 0.12002 0.05111 0.12591 0.0
C465 C 0.08114 0.03795 0.50588 0.0
C466 C 0.06269 0.02942 0.48248 0.0
C467 C 0.09811 0.03896 0.46158 0.0
C468 C 0.09713 0.03174 0.39202 0.0
C469 C 0.07839 0.02449 0.36698 0.0
C470 C 0.06143 0.02335 0.41153 0.0
C471 C 0.11588 0.03076 0.34714 0.0
C472 C 0.1166 0.04123 0.28348 0.0
C473 C 0.13335 0.01993 0.36832 0.0
C474 C 0.13342 1.00779 0.43321 0.0
C475 C 0.11884 0.9925 0.44351 0.0
C476 C 0.11854 0.98162 0.50583 0.0
C477 C 0.13287 0.98575 0.55797 0.0
C478 C 0.14756 1.00073 0.54782 0.0
C479 C 0.14789 0.01169 0.48568 0.0
H480 H 0.13257 0.97735 0.60625 0.0
H481 H 0.13372 0.08827 0.01324 0.0
H482 H 0.5097 0.19949 0.09375 0.0
H483 H 0.51038 0.16665 0.15415 0.0
H484 H 0.48978 0.19646 0.34375 0.0
H485 H 0.49052 0.22903 0.28496 0.0
H486 H 0.51767 0.17423 0.37945 0.0
H487 H 0.46028 0.16122 0.22745 0.0
H488 H 0.44215 0.15737 0.11515 0.0
H489 H 0.48373 0.11058 0.05063 0.0
H490 H 0.50229 0.11435 0.16218 0.0
H491 H 0.49065 0.09131 0.58848 0.0
H492 H 0.48754 0.11984 0.50873 0.0
H493 H 0.52179 0.08682 0.35263 0.0
H494 H 0.52518 0.05823 0.43259 0.0
H495 H 0.48932 0.10865 0.29438 0.0
H496 H 0.54551 0.12154 0.44996 0.0
H497 H 0.56125 0.12376 0.56687 0.0
H498 H 0.5192 0.1706 0.62708 0.0
H499 H 0.503 0.16845 0.5108 0.0
C500 C 0.50506 0.19885 0.148 0.0
C501 C 0.50003 0.21679 0.1847 0.0
C502 C 0.50537 0.18004 0.18268 0.0
C503 C 0.50005 0.17878 0.25413 0.0
C504 C 0.4942 0.19676 0.28921 0.0
C505 C 0.49447 0.21544 0.25535 0.0
C506 C 0.50163 0.15934 0.29459 0.0
C507 C 0.51113 0.16005 0.36068 0.0
C508 C 0.49386 0.14037 0.27021 0.0
C509 C 0.48284 0.13827 0.20283 0.0
C510 C 0.46568 0.15025 0.18905 0.0
C511 C 0.4553 0.14806 0.12558 0.0
C512 C 0.46184 0.1338 0.07568 0.0
C513 C 0.47872 0.12166 0.08924 0.0
C514 C 0.48918 0.12382 0.15258 0.0
C515 C 0.4977 0.09011 0.53751 0.0
C516 C 0.50868 0.07261 0.51805 0.0
C517 C 0.49574 0.10642 0.49156 0.0
C518 C 0.5047 0.10569 0.42481 0.0
C519 C 0.5148 0.08783 0.4038 0.0
C520 C 0.51679 0.0715 0.44988 0.0
C521 C 0.50459 0.12403 0.37925 0.0
C522 C 0.49568 0.12298 0.31247 0.0
C523 C 0.51269 0.1428 0.40297 0.0
C524 C 0.52298 0.14475 0.47181 0.0
C525 C 0.5396 0.13229 0.48819 0.0
C526 C 0.54858 0.13352 0.55436 0.0
C527 C 0.5412 0.14728 0.60441 0.0
C528 C 0.52489 0.15994 0.58825 0.0
C529 C 0.51582 0.15874 0.52218 0.0
H530 H 0.54814 0.14817 0.65569 0.0
H531 H 0.4538 0.13215 0.02657 0.0
H532 H 0.34485 0.48204 0.10453 0.0
H533 H 0.37696 0.47927 0.17043 0.0
H534 H 0.37318 0.54273 0.22693 0.0
H535 H 0.34096 0.54533 0.16378 0.0
H536 H 0.41374 0.52817 0.17904 0.0
H537 H 0.35986 0.51311 0.34335 0.0
H538 H 0.33004 0.49395 0.38377 0.0
H539 H 0.36452 0.43863 0.37703 0.0
H540 H 0.39448 0.45744 0.33545 0.0
H541 H 0.48939 0.53836 0.44277 0.0
H542 H 0.4593 0.53962 0.36808 0.0
H543 H 0.44891 0.47576 0.40319 0.0
H544 H 0.47801 0.4752 0.48268 0.0
H545 H 0.4152 0.48934 0.39938 0.0
H546 H 0.4672 0.50068 0.22411 0.0
H547 H 0.49668 0.51694 0.1683 0.0
H548 H 0.46749 0.57506 0.18451 0.0
H549 H 0.43759 0.55905 0.23873 0.0
C550 C 0.35108 0.49545 0.12999 0.0
C551 C 0.34043 0.51398 0.12816 0.0
C552 C 0.36937 0.49383 0.16815 0.0
C553 C 0.37761 0.5108 0.20403 0.0
C554 C 0.3673 0.52942 0.19983 0.0
C555 C 0.34886 0.5309 0.16344 0.0
C556 C 0.39653 0.50926 0.24783 0.0
C557 C 0.41406 0.51974 0.22741 0.0
C558 C 0.39728 0.4979 0.31019 0.0
C559 C 0.37932 0.48664 0.33546 0.0
C560 C 0.36102 0.49683 0.3498 0.0
C561 C 0.34411 0.48604 0.37306 0.0
C562 C 0.34536 0.46507 0.38274 0.0
C563 C 0.36355 0.45486 0.36937 0.0
C564 C 0.38051 0.46558 0.34598 0.0
C565 C 0.48037 0.52473 0.43558 0.0
C566 C 0.4855 0.50695 0.47149 0.0
C567 C 0.46334 0.52526 0.39104 0.0
C568 C 0.45151 0.5077 0.37782 0.0
C569 C 0.45723 0.48973 0.4123 0.0
C570 C 0.47397 0.48936 0.45804 0.0
C571 C 0.43296 0.50808 0.33051 0.0
C572 C 0.41527 0.49754 0.35056 0.0
C573 C 0.43223 0.51897 0.26666 0.0
C574 C 0.45037 0.52873 0.23648 0.0
C575 C 0.46721 0.51695 0.21654 0.0
C576 C 0.48394 0.5261 0.18498 0.0
C577 C 0.4841 0.54704 0.17385 0.0
C578 C 0.4674 0.55886 0.19351 0.0
C579 C 0.45051 0.54974 0.22421 0.0
H580 H 0.4971 0.55408 0.1495 0.0
H581 H 0.33225 0.45675 0.40078 0.0
H582 H 0.99028 0.32972 0.18103 0.0
H583 H 0.99304 0.36188 0.24492 0.0
H584 H 0.05097 0.37301 0.14839 0.0
H585 H 0.04819 0.34034 0.08358 0.0
H586 H 0.0523 0.38294 0.28861 0.0
H587 H 1.00955 0.40061 0.10036 0.0
H588 H 0.98107 0.39755 0.0173 0.0
H589 H 0.93864 0.40208 0.18706 0.0
H590 H 0.96688 0.40488 0.27131 0.0
H591 H 0.05095 0.48161 0.45872 0.0
H592 H 0.05389 0.45265 0.37826 0.0
H593 H 0.99044 0.43911 0.40955 0.0
H594 H 0.98722 0.46975 0.48284 0.0
H595 H 0.99547 0.43218 0.2877 0.0
H596 H 0.04108 0.40811 0.47681 0.0
H597 H 0.07094 0.41212 0.55443 0.0
H598 H 0.10904 0.42165 0.37597 0.0
H599 H 0.07951 0.41754 0.29757 0.0
C600 C 1.00355 0.33908 0.17247 0.0
C601 C 0.01887 0.33242 0.12626 0.0
C602 C 1.00511 0.3576 0.20928 0.0
C603 C 0.02211 0.37028 0.20161 0.0
C604 C 0.03761 0.3637 0.1555 0.0
C605 C 0.03595 0.34505 0.11785 0.0
C606 C 0.0234 0.39008 0.24284 0.0
C607 C 0.03994 0.3938 0.28781 0.0
C608 C 1.00742 0.40452 0.24263 0.0
C609 C 0.99035 0.40279 0.19223 0.0
C610 C 0.99415 0.40079 0.12006 0.0
C611 C 0.97805 0.39913 0.07274 0.0
C612 C 0.95806 0.39958 0.0969 0.0
C613 C 0.95413 0.40172 0.16843 0.0
C614 C 0.97018 0.40337 0.21599 0.0
C615 C 0.03771 0.47227 0.44886 0.0
C616 C 0.01893 0.47781 0.47826 0.0
C617 C 0.03942 0.45535 0.4032 0.0
C618 C 0.02256 0.44274 0.38795 0.0
C619 C 1.00386 0.44821 0.41918 0.0
C620 C 1.00198 0.46568 0.46216 0.0
C621 C 0.02381 0.42464 0.33738 0.0
C622 C 1.00778 0.4213 0.28961 0.0
C623 C 0.04036 0.41069 0.33472 0.0
C624 C 0.0581 0.41272 0.38169 0.0
C625 C 0.05584 0.41113 0.45443 0.0
C626 C 0.07267 0.41341 0.49843 0.0
C627 C 0.09181 0.41729 0.47018 0.0
C628 C 0.09421 0.41868 0.3978 0.0
C629 C 0.07745 0.41629 0.35357 0.0
H630 H 0.10479 0.41914 0.50437 0.0
H631 H 0.94561 0.3983 0.06018 0.0
H632 H 0.84096 0.95404 0.14817 0.0
H633 H 0.87174 0.96101 0.08104 0.0
H634 H 0.84829 0.01996 0.02832 0.0
H635 H 0.81747 0.01316 0.09742 0.0
H636 H 0.8624 0.99592 0.91076 0.0
H637 H 0.88691 0.01754 0.13744 0.0
H638 H 0.8943 0.01375 0.26304 0.0
H639 H 0.93253 0.96252 0.21707 0.0
H640 H 0.92514 0.96581 0.0912 0.0
H641 H 0.94805 0.03061 0.72757 0.0
H642 H 0.91972 0.02638 0.80767 0.0
H643 H 0.9508 0.9765 0.90512 0.0
H644 H 0.97969 0.98125 0.82548 0.0
H645 H 0.93274 0.9959 1.00271 0.0
H646 H 0.90814 0.97039 0.78592 0.0
H647 H 0.89975 0.96912 0.66029 0.0
H648 H 0.86132 0.02135 0.68559 0.0
H649 H 0.86958 0.02301 0.81144 0.0
C650 C 0.8425 0.96868 0.12343 0.0
C651 C 0.82679 0.9831 0.12883 0.0
C652 C 0.86017 0.97264 0.08494 0.0
C653 C 0.86255 0.99106 0.04953 0.0
C654 C 0.84694 1.00565 0.0553 0.0
C655 C 0.82936 1.00182 0.09519 0.0
C656 C 0.88073 0.9944 0.00345 0.0
C657 C 0.87776 0.99634 0.9311 0.0
C658 C 0.90093 0.99387 0.02909 0.0
C659 C 0.9053 0.99182 0.10485 0.0
C660 C 0.89673 1.00534 0.15412 0.0
C661 C 0.90096 1.00331 0.22538 0.0
C662 C 0.91384 0.98788 0.24805 0.0
C663 C 0.92254 0.97446 0.19946 0.0
C664 C 0.91835 0.97641 0.12814 0.0
C665 C 0.9488 0.01854 0.76533 0.0
C666 C 0.96604 1.00599 0.76871 0.0
C667 C 0.93247 0.0161 0.8115 0.0
C668 C 0.93255 1.0007 0.86198 0.0
C669 C 0.95006 0.98844 0.86674 0.0
C670 C 0.96663 0.99112 0.82099 0.0
C671 C 0.91446 0.99768 0.90951 0.0
C672 C 0.91742 0.99565 0.98211 0.0
C673 C 0.8942 0.99749 0.88395 0.0
C674 C 0.88962 0.99693 0.80798 0.0
C675 C 0.89804 0.98171 0.76458 0.0
C676 C 0.89325 0.98088 0.69338 0.0
C677 C 0.88 0.99514 0.66499 0.0
C678 C 0.87156 1.0103 0.70769 0.0
C679 C 0.87627 1.01118 0.77898 0.0
H680 H 0.87627 0.99445 0.60988 0.0
H681 H 0.91712 0.98634 0.30323 0.0
H682 H 0.52703 0.83672 0.14658 0.0
H683 H 0.52263 0.86814 0.08001 0.0
H684 H 0.58756 0.87624 0.07543 0.0
H685 H 0.59192 0.84446 0.13821 0.0
H686 H 0.52976 0.90665 0.08929 0.0
H687 H 0.60377 0.89655 0.92825 0.0
H688 H 0.62574 0.86894 0.88369 0.0
H689 H 0.57551 0.82743 0.88864 0.0
H690 H 0.5532 0.85485 0.93233 0.0
H691 H 0.54052 0.99661 0.88817 0.0
H692 H 0.54665 0.96865 0.96846 0.0
H693 H 0.54484 0.92612 0.79475 0.0
H694 H 0.54088 0.95406 0.71454 0.0
H695 H 0.57043 0.91297 0.87257 0.0
H696 H 0.50328 0.93761 0.92252 0.0
H697 H 0.47756 0.96307 0.95664 0.0
H698 H 0.50662 0.97129 0.15607 0.0
H699 H 0.53278 0.9462 0.12254 0.0
C700 C 0.54031 0.84537 0.132 0.0
C701 C 0.55984 0.83808 0.14726 0.0
C702 C 0.53781 0.86336 0.09386 0.0
C703 C 0.55477 0.87448 0.07082 0.0
C704 C 0.57419 0.86777 0.09033 0.0
C705 C 0.57669 0.84965 0.12689 0.0
C706 C 0.55234 0.89244 0.02375 0.0
C707 C 0.53865 0.90802 0.04186 0.0
C708 C 0.56359 0.89426 0.96087 0.0
C709 C 0.57689 0.87771 0.93426 0.0
C710 C 0.59741 0.88155 0.91961 0.0
C711 C 0.60992 0.86593 0.89454 0.0
C712 C 0.60204 0.84643 0.88357 0.0
C713 C 0.58162 0.84252 0.89741 0.0
C714 C 0.56904 0.85809 0.92238 0.0
C715 C 0.54166 0.98132 0.86693 0.0
C716 C 0.5396 0.97765 0.79447 0.0
C717 C 0.54491 0.96522 0.91326 0.0
C718 C 0.54556 0.94494 0.88868 0.0
C719 C 0.54424 0.94144 0.81605 0.0
C720 C 0.54164 0.95754 0.76977 0.0
C721 C 0.5477 0.92729 0.93746 0.0
C722 C 0.56148 0.91173 0.91989 0.0
C723 C 0.53593 0.92519 0.99928 0.0
C724 C 0.52012 0.94018 0.01969 0.0
C725 C 0.50427 0.94495 0.97345 0.0
C726 C 0.48962 0.95932 0.99268 0.0
C727 C 0.49049 0.96884 0.05839 0.0
C728 C 0.506 0.96396 0.10509 0.0
C729 C 0.52075 0.94967 0.08598 0.0
H730 H 0.47913 0.97995 0.07318 0.0
H731 H 0.61176 0.83436 0.86419 0.0
H732 H 0.70627 0.5216 0.10364 0.0
H733 H 0.67424 0.51377 0.04218 0.0
H734 H 0.68023 0.56896 0.92455 0.0
H735 H 0.71134 0.57705 0.98733 0.0
H736 H 0.64368 0.56681 0.95727 0.0
H737 H 0.68937 0.51732 0.85732 0.0
H738 H 0.71358 0.48877 0.85779 0.0
H739 H 0.66869 0.4506 0.95208 0.0
H740 H 0.64429 0.47901 0.95295 0.0
H741 H 0.57164 0.54565 0.68433 0.0
H742 H 0.60426 0.55011 0.74528 0.0
H743 H 0.58763 0.50338 0.89031 0.0
H744 H 0.55506 0.49907 0.83005 0.0
H745 H 0.62865 0.50017 0.8449 0.0
H746 H 0.58307 0.55031 0.94225 0.0
H747 H 0.55879 0.57872 0.93521 0.0
H748 H 0.60423 0.61571 0.83856 0.0
H749 H 0.62872 0.58742 0.84429 0.0
C750 C 0.70071 0.53199 0.06459 0.0
C751 C 0.71143 0.54998 0.05055 0.0
C752 C 0.68239 0.52747 0.02894 0.0
C753 C 0.67459 0.54065 0.97755 0.0
C754 C 0.68553 0.55848 0.96378 0.0
C755 C 0.7035 0.56308 0.99975 0.0
C756 C 0.65501 0.53646 0.93851 0.0
C757 C 0.64067 0.55224 0.93216 0.0
C758 C 0.65044 0.51741 0.90622 0.0
C759 C 0.6651 0.50036 0.90599 0.0
C760 C 0.68472 0.50288 0.87868 0.0
C761 C 0.69847 0.48672 0.8786 0.0
C762 C 0.6927 0.4679 0.90517 0.0
C763 C 0.67315 0.46519 0.93167 0.0
C764 C 0.65936 0.48132 0.93194 0.0
C765 C 0.5751 0.53612 0.72846 0.0
C766 C 0.56095 0.52164 0.75118 0.0
C767 C 0.59371 0.53876 0.76367 0.0
C768 C 0.59856 0.52704 0.82261 0.0
C769 C 0.58444 0.51251 0.84488 0.0
C770 C 0.56577 0.51012 0.81047 0.0
C771 C 0.61778 0.53057 0.86331 0.0
C772 C 0.63188 0.51468 0.87009 0.0
C773 C 0.62225 0.54955 0.89548 0.0
C774 C 0.60767 0.56669 0.89313 0.0
C775 C 0.58785 0.56447 0.91911 0.0
C776 C 0.57405 0.58055 0.91542 0.0
C777 C 0.57994 0.59899 0.88628 0.0
C778 C 0.59968 0.60141 0.86105 0.0
C779 C 0.61353 0.58537 0.86459 0.0
H780 H 0.56923 0.61141 0.88338 0.0
H781 H 0.70336 0.4554 0.90504 0.0
H782 H 0.95337 0.70984 0.9869 0.0
H783 H 0.96069 0.6778 0.9275 0.0
H784 H 0.01436 0.67079 0.0541 0.0
H785 H 1.0074 0.70377 0.11187 0.0
H786 H 0.02417 0.65798 0.93745 0.0
H787 H 0.96696 0.64039 0.06916 0.0
H788 H 0.93275 0.63924 0.12082 0.0
H789 H 0.90656 0.63249 0.91621 0.0
H790 H 0.94059 0.63396 0.86312 0.0
H791 H 0.02565 0.54937 0.85177 0.0
H792 H 0.02129 0.58191 0.91035 0.0
H793 H 0.9883 0.60418 0.733 0.0
H794 H 0.99186 0.57067 0.67457 0.0
H795 H 0.96993 0.60888 0.87475 0.0
H796 H 0.03766 0.6487 0.78347 0.0
H797 H 0.07407 0.64539 0.75503 0.0
H798 H 0.08114 0.60165 0.91789 0.0
H799 H 0.04501 0.60532 0.94865 0.0
C800 C 0.96676 0.70149 1.00247 0.0
C801 C 0.97974 0.70951 0.0545 0.0
C802 C 0.97083 0.68287 0.9687 0.0
C803 C 0.98788 0.67118 0.9866 0.0
C804 C 1.00102 0.67922 0.03875 0.0
C805 C 0.99704 0.69815 0.07213 0.0
C806 C 0.99231 0.6513 0.94831 0.0
C807 C 0.0122 0.64721 0.92519 0.0
C808 C 0.977 0.63676 0.93103 0.0
C809 C 0.95636 0.63763 0.96206 0.0
C810 C 0.9539 0.63907 0.03503 0.0
C811 C 0.93453 0.63825 0.06461 0.0
C812 C 0.91749 0.63589 0.02181 0.0
C813 C 0.91976 0.63444 0.94928 0.0
C814 C 0.93909 0.63529 0.91942 0.0
C815 C 0.01823 0.56134 0.82329 0.0
C816 C 0.01049 0.55765 0.75553 0.0
C817 C 0.01586 0.58021 0.85723 0.0
C818 C 1.0056 0.59623 0.82502 0.0
C819 C 0.99708 0.59246 0.75824 0.0
C820 C 0.99934 0.57334 0.72421 0.0
C821 C 1.00157 0.6157 0.86528 0.0
C822 C 0.98172 0.61975 0.88796 0.0
C823 C 0.01705 0.62953 0.88587 0.0
C824 C 0.03846 0.62649 0.86585 0.0
C825 C 0.04697 0.6382 0.81255 0.0
C826 C 0.0676 0.63644 0.79656 0.0
C827 C 0.07986 0.6231 0.83398 0.0
C828 C 0.07157 0.61172 0.88813 0.0
C829 C 0.051 0.6136 0.90471 0.0
H830 H 0.0958 0.62171 0.82139 0.0
H831 H 0.90252 0.63509 0.04485 0.0
H832 H 0.08391 0.23441 0.16437 0.0
H833 H 0.08434 0.21342 0.26929 0.0
H834 H 0.02757 0.24015 0.33519 0.0
H835 H 0.02764 0.26161 0.23304 0.0
H836 H 0.04515 0.22554 0.44412 0.0
H837 H 0.02838 0.20088 0.21101 0.0
H838 H 0.0351 0.19394 0.08607 0.0
H839 H 0.08608 0.15679 0.14063 0.0
H840 H 0.07974 0.1637 0.26611 0.0
H841 H 0.972 0.14657 0.48031 0.0
H842 H 0.99338 0.17548 0.45183 0.0
H843 H 0.04658 0.13806 0.46855 0.0
H844 H 0.02569 0.10936 0.50389 0.0
H845 H 0.04049 0.15643 0.33861 0.0
H846 H 0.03982 0.17395 0.58258 0.0
H847 H 0.02278 0.18107 0.69472 0.0
H848 H 0.99417 0.23351 0.60819 0.0
H849 H 1.01003 0.22618 0.49405 0.0
C850 C 0.07209 0.23641 0.20319 0.0
C851 C 0.05552 0.24921 0.19029 0.0
C852 C 0.07232 0.22446 0.26297 0.0
C853 C 0.05561 0.22471 0.30853 0.0
C854 C 0.04056 0.23956 0.30052 0.0
C855 C 0.04056 0.2518 0.24181 0.0
C856 C 0.05103 0.20701 0.35269 0.0
C857 C 0.04432 0.21035 0.42161 0.0
C858 C 0.04985 0.18722 0.32288 0.0
C859 C 0.05377 0.18302 0.2477 0.0
C860 C 0.04108 0.19131 0.19628 0.0
C861 C 0.04479 0.18735 0.12544 0.0
C862 C 0.06104 0.17498 0.10538 0.0
C863 C 0.07355 0.16644 0.15623 0.0
C864 C 0.0699 0.17036 0.22723 0.0
C865 C 0.98828 0.14455 0.48097 0.0
C866 C 0.99702 0.12543 0.49368 0.0
C867 C 1.00047 0.16113 0.46442 0.0
C868 C 0.02154 0.15881 0.4593 0.0
C869 C 0.03037 0.14004 0.47373 0.0
C870 C 0.0183 0.1236 0.49229 0.0
C871 C 0.03396 0.17508 0.42916 0.0
C872 C 0.0421 0.17139 0.3626 0.0
C873 C 0.03526 0.1947 0.45985 0.0
C874 C 0.02614 0.19945 0.52932 0.0
C875 C 0.02978 0.18692 0.58707 0.0
C876 C 0.02033 0.19099 0.65114 0.0
C877 C 1.00758 0.2078 0.65889 0.0
C878 C 1.00412 0.22052 0.60226 0.0
C879 C 0.01327 0.21637 0.53771 0.0
H880 H 1.00036 0.21091 0.70871 0.0
H881 H 0.06389 0.17197 0.05046 0.0
H882 H 0.3092 0.09516 0.1022 0.0
H883 H 0.34014 0.0973 0.173 0.0
H884 H 0.32532 0.03964 0.2655 0.0
H885 H 0.29394 0.03846 0.19986 0.0
H886 H 0.35038 0.05687 0.34631 0.0
H887 H 0.35069 0.04716 0.08145 0.0
H888 H 0.34556 0.06086 0.96344 0.0
H889 H 0.38248 0.1126 0.01584 0.0
H890 H 0.38794 0.09907 0.13433 0.0
H891 H 0.42401 0.98258 0.30959 0.0
H892 H 0.39456 1.00447 0.28943 0.0
H893 H 0.43445 0.05467 0.24503 0.0
H894 H 0.46388 0.03275 0.265 0.0
H895 H 0.40241 0.05381 0.15899 0.0
H896 H 0.4138 0.05261 0.40137 0.0
H897 H 0.42013 0.03868 0.5184 0.0
H898 H 0.36237 1.00858 0.51321 0.0
H899 H 0.35584 0.02194 0.39542 0.0
C900 C 0.31206 0.08364 0.14094 0.0
C901 C 0.29949 0.06646 0.14489 0.0
C902 C 0.32988 0.08468 0.18057 0.0
C903 C 0.33568 0.06806 0.22151 0.0
C904 C 0.32149 0.05254 0.23344 0.0
C905 C 0.30341 0.05186 0.19585 0.0
C906 C 0.35727 0.06417 0.23943 0.0
C907 C 0.36182 0.0563 0.30558 0.0
C908 C 0.37266 0.06429 0.18751 0.0
C909 C 0.36943 0.07231 0.11664 0.0
C910 C 0.35766 0.06147 0.06769 0.0
C911 C 0.3547 0.06921 1.00081 0.0
C912 C 0.36352 0.08769 0.98224 0.0
C913 C 0.37552 0.09838 0.03043 0.0
C914 C 0.3786 0.09067 0.09738 0.0
C915 C 0.4264 0.99805 0.29273 0.0
C916 C 0.44605 1.00602 0.28787 0.0
C917 C 0.40966 1.01064 0.2828 0.0
C918 C 0.41243 0.03131 0.26801 0.0
C919 C 0.43206 0.03884 0.25742 0.0
C920 C 0.44879 0.02628 0.26773 0.0
C921 C 0.39474 0.04496 0.26364 0.0
C922 C 0.39122 0.05484 0.20054 0.0
C923 C 0.38041 0.04665 0.31853 0.0
C924 C 0.38437 0.03823 0.38912 0.0
C925 C 0.40252 0.04285 0.42475 0.0
C926 C 0.40614 0.03507 0.49133 0.0
C927 C 0.39167 0.02274 0.52319 0.0
C928 C 0.37357 0.01813 0.48844 0.0
C929 C 0.3699 0.02582 0.42174 0.0
H930 H 0.39447 0.0168 0.57485 0.0
H931 H 0.36116 0.09367 0.93041 0.0
H932 H 0.49413 0.30401 0.23003 0.0
H933 H 0.49052 0.33453 0.30115 0.0
H934 H 0.43016 0.34345 0.219 0.0
H935 H 0.43453 0.3134 0.14352 0.0
H936 H 0.45068 0.37385 0.19038 0.0
H937 H 0.44238 0.3404 0.40614 0.0
H938 H 0.44926 0.31369 0.49218 0.0
H939 H 0.50993 0.33607 0.51957 0.0
H940 H 0.50366 0.36259 0.43269 0.0
H941 H 0.48208 0.47298 0.29022 0.0
H942 H 0.46078 0.44253 0.29879 0.0
H943 H 0.51406 0.40668 0.34232 0.0
H944 H 0.53509 0.43717 0.33642 0.0
H945 H 0.48283 0.39307 0.41611 0.0
H946 H 0.49459 0.41246 0.17005 0.0
H947 H 0.49169 0.43649 0.07244 0.0
H948 H 0.42711 0.43879 0.10042 0.0
H949 H 0.42969 0.41485 0.19847 0.0
C950 C 0.47973 0.31194 0.22974 0.0
C951 C 0.46464 0.30652 0.18136 0.0
C952 C 0.47756 0.32942 0.27094 0.0
C953 C 0.45999 0.34144 0.26596 0.0
C954 C 0.44387 0.33452 0.22372 0.0
C955 C 0.44629 0.31731 0.18094 0.0
C956 C 0.46067 0.36294 0.29085 0.0
C957 C 0.45697 0.37803 0.24101 0.0
C958 C 0.46909 0.36862 0.35651 0.0
C959 C 0.47252 0.35351 0.41247 0.0
C960 C 0.45719 0.33965 0.43048 0.0
C961 C 0.46102 0.32449 0.4793 0.0
C962 C 0.48008 0.3231 0.51081 0.0
C963 C 0.49521 0.33713 0.49484 0.0
C964 C 0.4915 0.35227 0.44592 0.0
C965 C 0.48911 0.45855 0.30166 0.0
C966 C 0.51018 0.4572 0.31121 0.0
C967 C 0.47697 0.44124 0.30712 0.0
C968 C 0.48586 0.42227 0.32039 0.0
C969 C 0.50684 0.42114 0.33242 0.0
C970 C 0.51888 0.43848 0.32826 0.0
C971 C 0.47411 0.40316 0.31383 0.0
C972 C 0.47559 0.38877 0.36716 0.0
C973 C 0.46391 0.39792 0.25111 0.0
C974 C 0.46234 0.41208 0.19181 0.0
C975 C 0.47979 0.41816 0.15541 0.0
C976 C 0.47821 0.43175 0.10007 0.0
C977 C 0.45923 0.43921 0.08037 0.0
C978 C 0.44179 0.43303 0.11581 0.0
C979 C 0.4433 0.41945 0.17121 0.0
H980 H 0.45804 0.44974 0.03755 0.0
H981 H 0.48319 0.31109 0.54733 0.0
H982 H 0.26952 0.49512 0.23557 0.0
H983 H 0.24586 0.49081 0.33185 0.0
H984 H 0.2182 0.44016 0.22311 0.0
H985 H 0.24197 0.44428 0.12643 0.0
H986 H 0.208 0.4966 0.25064 0.0
H987 H 0.18588 0.41843 0.36541 0.0
H988 H 0.20259 0.38842 0.41537 0.0
H989 H 0.25369 0.42505 0.47618 0.0
H990 H 0.23718 0.45535 0.42769 0.0
H991 H 0.10164 0.46263 0.34709 0.0
H992 H 0.13744 0.45303 0.33896 0.0
H993 H 0.15477 0.51333 0.40711 0.0
H994 H 0.11945 0.52346 0.41046 0.0
H995 H 0.17211 0.45205 0.4174 0.0
H996 H 0.19004 0.53129 0.30266 0.0
H997 H 0.17255 0.55857 0.23896 0.0
H998 H 0.12982 0.5153 0.15601 0.0
H999 H 0.14718 0.48776 0.21853 0.0
C1000 C 0.25924 0.48229 0.23388 0.0
C1001 C 0.25704 0.47046 0.17263 0.0
C1002 C 0.2458 0.47975 0.28936 0.0
C1003 C 0.23013 0.46541 0.28384 0.0
C1004 C 0.23024 0.4513 0.22827 0.0
C1005 C 0.24363 0.45386 0.1726 0.0
C1006 C 0.21047 0.47032 0.31625 0.0
C1007 C 0.2004 0.48718 0.28881 0.0
C1008 C 0.20028 0.4573 0.36265 0.0
C1009 C 0.21035 0.43916 0.39218 0.0
C1010 C 0.20065 0.42012 0.38965 0.0
C1011 C 0.2101 0.40305 0.41772 0.0
C1012 C 0.22922 0.40482 0.44872 0.0
C1013 C 0.23892 0.42368 0.45185 0.0
C1014 C 0.22954 0.44081 0.42389 0.0
C1015 C 0.1131 0.47382 0.36047 0.0
C1016 C 0.10766 0.49393 0.37793 0.0
C1017 C 0.1335 0.46821 0.35679 0.0
C1018 C 0.14867 0.48262 0.37111 0.0
C1019 C 0.14324 0.50211 0.39474 0.0
C1020 C 0.12296 0.50781 0.39724 0.0
C1021 C 0.16994 0.47841 0.35213 0.0
C1022 C 0.18005 0.46167 0.3808 0.0
C1023 C 0.18016 0.49108 0.30451 0.0
C1024 C 0.16973 0.50754 0.26612 0.0
C1025 C 0.17692 0.52761 0.27077 0.0
C1026 C 0.16702 0.54312 0.23495 0.0
C1027 C 0.15 0.5387 0.19392 0.0
C1028 C 0.14292 0.51873 0.18823 0.0
C1029 C 0.15276 0.50318 0.22391 0.0
H1030 H 0.14238 0.55071 0.16612 0.0
H1031 H 0.2365 0.39158 0.47043 0.0
H1032 H 0.97954 0.8343 0.06807 0.0
H1033 H 0.96688 0.85512 0.97454 0.0
H1034 H 0.92963 0.80565 0.89926 0.0
H1035 H 0.94139 0.7846 0.99698 0.0
H1036 H 0.96135 0.82878 0.80092 0.0
H1037 H 0.90052 0.8387 0.92603 0.0
H1038 H 0.87955 0.84196 0.03233 0.0
H1039 H 0.9115 0.89636 0.09163 0.0
H1040 H 0.93287 0.8933 0.9865 0.0
H1041 H 0.99728 0.92156 0.6787 0.0
H1042 H 0.96736 0.89909 0.67851 0.0
H1043 H 0.96815 0.89995 0.9047 0.0
H1044 H 0.99729 0.92245 0.90398 0.0
H1045 H 0.93 0.89525 0.85948 0.0
H1046 H 0.99982 0.85879 0.79682 0.0
H1047 H 0.02684 0.85405 0.70852 0.0
H1048 H 0.98212 0.85197 0.54513 0.0
H1049 H 0.95488 0.85669 0.63272 0.0
C1050 C 0.96818 0.82785 0.03343 0.0
C1051 C 0.96124 0.8078 0.04123 0.0
C1052 C 0.96105 0.8398 0.97951 0.0
C1053 C 0.9471 0.83199 0.9309 0.0
C1054 C 0.94022 0.81194 0.93703 0.0
C1055 C 0.94711 0.79994 0.99241 0.0
C1056 C 0.94164 0.84503 0.8716 0.0
C1057 C 0.95364 0.84306 0.8115 0.0
C1058 C 0.93133 0.86349 0.88498 0.0
C1059 C 0.91815 0.86587 0.94763 0.0
C1060 C 0.90306 0.85138 0.96166 0.0
C1061 C 0.89112 0.85318 0.02184 0.0
C1062 C 0.89414 0.8694 0.06856 0.0
C1063 C 0.90909 0.88387 0.05518 0.0
C1064 C 0.92108 0.88215 0.9951 0.0
C1065 C 0.99044 0.91739 0.72785 0.0
C1066 C 0.99946 0.92338 0.79134 0.0
C1067 C 0.97347 0.90454 0.72787 0.0
C1068 C 0.96559 0.89754 0.79156 0.0
C1069 C 0.97371 0.90517 0.85472 0.0
C1070 C 0.99049 0.91791 0.85455 0.0
C1071 C 0.95202 0.87959 0.79574 0.0
C1072 C 0.93619 0.88053 0.84485 0.0
C1073 C 0.95919 0.86028 0.77364 0.0
C1074 C 0.97543 0.85803 0.72097 0.0
C1075 C 0.99582 0.8573 0.74202 0.0
C1076 C 0.01113 0.8546 0.69222 0.0
C1077 C 1.00617 0.85252 0.6214 0.0
C1078 C 0.98591 0.85345 0.60006 0.0
C1079 C 0.97054 0.85614 0.64971 0.0
H1080 H 0.01804 0.8502 0.58313 0.0
H1081 H 0.88493 0.87073 0.11524 0.0
H1082 H 0.74359 0.98967 0.0146 0.0
H1083 H 0.72073 0.9857 0.91647 0.0
H1084 H 0.69363 0.93327 0.01349 0.0
H1085 H 0.71577 0.93849 0.11554 0.0
H1086 H 0.70955 0.96414 0.81881 0.0
H1087 H 0.64498 0.92872 0.96201 0.0
H1088 H 0.62958 0.92289 0.07777 0.0
H1089 H 0.65691 0.97782 0.15692 0.0
H1090 H 0.67253 0.98384 0.04167 0.0
H1091 H 0.60051 1.0078 0.73713 0.0
H1092 H 0.62228 0.97809 0.7512 0.0
H1093 H 0.67031 0.01677 0.82816 0.0
H1094 H 0.6485 0.04606 0.82022 0.0
H1095 H 0.63802 0.97146 0.89411 0.0
H1096 H 0.71285 0.99862 0.76383 0.0
H1097 H 0.7232 0.01253 0.65015 0.0
H1098 H 0.67249 0.9831 0.55089 0.0
H1099 H 0.66174 0.96922 0.66352 0.0
C1100 C 0.73311 0.97698 0.01425 0.0
C1101 C 0.73131 0.96449 0.07265 0.0
C1102 C 0.71998 0.97461 0.95778 0.0
C1103 C 0.70494 0.95942 0.95762 0.0
C1104 C 0.70455 0.94555 0.01302 0.0
C1105 C 0.71734 0.94836 0.07095 0.0
C1106 C 0.68849 0.96046 0.90419 0.0
C1107 C 0.69387 0.96551 0.83524 0.0
C1108 C 0.66767 0.96099 0.92308 0.0
C1109 C 0.6602 0.95648 0.99399 0.0
C1110 C 0.64793 0.93935 0.00455 0.0
C1111 C 0.6391 0.93606 0.06988 0.0
C1112 C 0.64229 0.94995 0.12468 0.0
C1113 C 0.65452 0.96703 0.11452 0.0
C1114 C 0.66344 0.97034 0.04935 0.0
C1115 C 0.61574 1.0101 0.75656 0.0
C1116 C 0.62257 0.02957 0.77769 0.0
C1117 C 0.62824 0.99306 0.76348 0.0
C1118 C 0.64796 0.99532 0.78954 0.0
C1119 C 0.65527 0.01478 0.80621 0.0
C1120 C 0.64267 0.03164 0.80136 0.0
C1121 C 0.65981 0.97777 0.81388 0.0
C1122 C 0.65351 0.96909 0.87655 0.0
C1123 C 0.67983 0.97467 0.7904 0.0
C1124 C 0.68656 0.98275 0.72216 0.0
C1125 C 0.704 0.99499 0.71759 0.0
C1126 C 0.70985 1.00301 0.65332 0.0
C1127 C 0.69847 0.9988 0.5932 0.0
C1128 C 0.68122 0.98655 0.59728 0.0
C1129 C 0.6752 0.97864 0.6614 0.0
H1130 H 0.70305 1.00501 0.54354 0.0
H1131 H 0.63519 0.94752 0.17489 0.0
H1132 H 0.56181 0.72946 0.05002 0.0
H1133 H 0.54667 0.70636 0.96329 0.0
H1134 H 0.48925 0.73721 0.98783 0.0
H1135 H 0.50474 0.76087 0.0713 0.0
H1136 H 0.52138 0.68108 1.0029 0.0
H1137 H 0.45571 0.72533 0.86431 0.0
H1138 H 0.45099 0.75781 0.80354 0.0
H1139 H 0.51483 0.76057 0.76048 0.0
H1140 H 0.51991 0.72798 0.8201 0.0
H1141 H 0.44736 0.61045 0.94931 0.0
H1142 H 0.45973 0.64453 0.9793 0.0
H1143 H 0.47503 0.65431 0.76293 0.0
H1144 H 0.46219 0.62057 0.7326 0.0
H1145 H 0.46738 0.68966 0.82506 0.0
H1146 H 0.50805 0.63157 0.8682 0.0
H1147 H 0.51777 0.59833 0.91532 0.0
H1148 H 0.51167 0.62187 0.12483 0.0
H1149 H 0.50156 0.6552 0.0789 0.0
C1150 C 0.54625 0.73187 0.03383 0.0
C1151 C 0.53438 0.74685 0.06667 0.0
C1152 C 0.53755 0.71862 0.98481 0.0
C1153 C 0.51674 0.71988 0.96934 0.0
C1154 C 0.50538 0.73606 0.99768 0.0
C1155 C 0.51421 0.74958 0.04558 0.0
C1156 C 0.50619 0.70236 0.93584 0.0
C1157 C 0.50974 0.68303 0.96344 0.0
C1158 C 0.49119 0.7047 0.88354 0.0
C1159 C 0.4882 0.72427 0.84725 0.0
C1160 C 0.46873 0.73281 0.84161 0.0
C1161 C 0.466 0.75126 0.80742 0.0
C1162 C 0.48261 0.76128 0.77835 0.0
C1163 C 0.50199 0.75284 0.78326 0.0
C1164 C 0.50481 0.7344 0.81739 0.0
C1165 C 0.45246 0.62026 0.9078 0.0
C1166 C 0.45425 0.61284 0.839 0.0
C1167 C 0.45971 0.63963 0.92498 0.0
C1168 C 0.469 0.65158 0.87366 0.0
C1169 C 0.46827 0.64521 0.8035 0.0
C1170 C 0.46093 0.62594 0.78625 0.0
C1171 C 0.48219 0.66882 0.89429 0.0
C1172 C 0.47914 0.68791 0.86419 0.0
C1173 C 0.49831 0.66616 0.94225 0.0
C1174 C 0.50394 0.64592 0.97004 0.0
C1175 C 0.50864 0.62967 0.9243 0.0
C1176 C 0.51422 0.61078 0.95081 0.0
C1177 C 0.5153 0.60797 0.02303 0.0
C1178 C 0.51079 0.62404 0.06889 0.0
C1179 C 0.50513 0.64294 0.04263 0.0
H1180 H 0.51966 0.59335 0.04345 0.0
H1181 H 0.48046 0.77556 0.75191 0.0
H1182 H 0.81829 0.59814 0.09896 0.0
H1183 H 0.84502 0.60676 0.01552 0.0
H1184 H 0.82888 0.55401 0.89041 0.0
H1185 H 0.80162 0.54635 0.97098 0.0
H1186 H 0.87577 0.58734 0.00406 0.0
H1187 H 0.84716 0.54971 0.73759 0.0
H1188 H 0.81798 0.55319 0.65843 0.0
H1189 H 0.80461 0.61184 0.74783 0.0
H1190 H 0.83399 0.60897 0.82678 0.0
H1191 H 0.91813 0.50154 0.8897 0.0
H1192 H 0.90112 0.53255 0.92814 0.0
H1193 H 0.92038 0.5626 0.74007 0.0
H1194 H 0.93783 0.53133 0.70195 0.0
H1195 H 0.87993 0.5642 0.75686 0.0
H1196 H 0.93393 0.58627 0.89249 0.0
H1197 H 0.9637 0.58577 0.97078 0.0
H1198 H 0.9269 0.56272 0.13687 0.0
H1199 H 0.89712 0.56235 0.0592 0.0
C1200 C 0.81999 0.589 0.05179 0.0
C1201 C 0.80802 0.57158 0.04115 0.0
C1202 C 0.83527 0.59388 0.00418 0.0
C1203 C 0.83913 0.58113 0.94609 0.0
C1204 C 0.82605 0.56458 0.93313 0.0
C1205 C 0.81049 0.56001 0.97974 0.0
C1206 C 0.85892 0.58202 0.90867 0.0
C1207 C 0.87665 0.5827 0.94956 0.0
C1208 C 0.86056 0.57732 0.83633 0.0
C1209 C 0.84292 0.57915 0.78823 0.0
C1210 C 0.8382 0.56349 0.73998 0.0
C1211 C 0.82155 0.56532 0.69521 0.0
C1212 C 0.80945 0.58273 0.69808 0.0
C1213 C 0.81399 0.59835 0.74572 0.0
C1214 C 0.83063 0.59662 0.79057 0.0
C1215 C 0.91906 0.51488 0.85728 0.0
C1216 C 0.92901 0.51408 0.79262 0.0
C1217 C 0.90961 0.53271 0.87965 0.0
C1218 C 0.90975 0.55004 0.83749 0.0
C1219 C 0.92038 0.54952 0.77387 0.0
C1220 C 0.9302 0.53168 0.75199 0.0
C1221 C 0.89558 0.56673 0.85529 0.0
C1222 C 0.87903 0.56968 0.8105 0.0
C1223 C 0.89507 0.57511 0.92361 0.0
C1224 C 0.91316 0.57455 0.97012 0.0
C1225 C 0.93219 0.58096 0.94554 0.0
C1226 C 0.94909 0.58084 0.9898 0.0
C1227 C 0.94716 0.57439 0.05878 0.0
C1228 C 0.92837 0.56785 0.08354 0.0
C1229 C 0.91146 0.56783 0.03945 0.0
H1230 H 0.96025 0.57438 0.09295 0.0
H1231 H 0.79656 0.5841 0.66341 0.0
H1232 H 1.00835 0.23563 0.92011 0.0
H1233 H 1.00339 0.20331 0.85609 0.0
H1234 H 0.06533 0.18666 0.89908 0.0
H1235 H 0.07052 0.21908 0.95945 0.0
H1236 H 0.05759 0.17152 0.78081 0.0
H1237 H 0.02215 0.16751 0.99693 0.0
H1238 H 0.99809 0.17828 0.08912 0.0
H1239 H 0.94881 0.17364 0.94283 0.0
H1240 H 0.97264 0.16304 0.84969 0.0
H1241 H 0.04264 0.0671 0.67713 0.0
H1242 H 0.05101 0.09866 0.73863 0.0
H1243 H 0.9873 0.11409 0.74434 0.0
H1244 H 0.97915 0.08036 0.69981 0.0
H1245 H 0.99808 0.12997 0.84533 0.0
H1246 H 0.03765 0.13242 0.62471 0.0
H1247 H 0.06434 0.11837 0.54653 0.0
H1248 H 0.10841 0.12546 0.70985 0.0
H1249 H 0.08197 0.13842 0.78986 0.0
C1250 C 0.02108 0.22537 0.91402 0.0
C1251 C 0.03985 0.23019 0.94548 0.0
C1252 C 0.01814 0.20658 0.87841 0.0
C1253 C 0.03378 0.19188 0.87384 0.0
C1254 C 0.05283 0.19731 0.90156 0.0
C1255 C 0.0558 0.21605 0.93639 0.0
C1256 C 0.03037 0.17074 0.84256 0.0
C1257 C 0.04452 0.16245 0.79495 0.0
C1258 C 0.01356 0.15843 0.86062 0.0
C1259 C 0.99918 0.16474 0.91631 0.0
C1260 C 1.0062 0.16896 0.98442 0.0
C1261 C 0.99261 0.17499 0.0368 0.0
C1262 C 0.97195 0.17672 0.02175 0.0
C1263 C 0.96483 0.17234 0.95436 0.0
C1264 C 0.97836 0.16629 0.90178 0.0
C1265 C 0.03044 0.0768 0.69517 0.0
C1266 C 1.01023 0.07031 0.688 0.0
C1267 C 0.03524 0.09563 0.72761 0.0
C1268 C 0.01999 0.10994 0.74589 0.0
C1269 C 0.99973 0.10381 0.73341 0.0
C1270 C 0.99498 0.08434 0.70669 0.0
C1271 C 0.02452 0.13092 0.77864 0.0
C1272 C 0.01083 0.13908 0.82863 0.0
C1273 C 0.04187 0.14307 0.7627 0.0
C1274 C 0.05781 0.13627 0.71314 0.0
C1275 C 0.05306 0.13102 0.64358 0.0
C1276 C 0.06809 0.1232 0.59916 0.0
C1277 C 0.08802 0.12126 0.62296 0.0
C1278 C 0.09298 0.12701 0.69141 0.0
C1279 C 0.07796 0.13446 0.73643 0.0
H1280 H 0.0996 0.11521 0.58841 0.0
H1281 H 0.96145 0.18141 0.06236 0.0
H1282 H 0.30179 0.06985 0.8657 0.0
H1283 H 0.33341 0.06549 0.80018 0.0
H1284 H 0.3386 1.00436 0.87613 0.0
H1285 H 0.3068 1.00874 0.94126 0.0
H1286 H 0.36812 0.06127 0.86288 0.0
H1287 H 0.37215 0.97659 0.77184 0.0
H1288 H 0.35 0.95077 0.71663 0.0
H1289 H 0.31271 0.99781 0.63117 0.0
H1290 H 0.33475 0.02391 0.68512 0.0
H1291 H 0.46133 0.9914 0.76145 0.0
H1292 H 0.42633 0.99778 0.79681 0.0
H1293 H 0.43123 0.05935 0.72446 0.0
H1294 H 0.4667 0.05304 0.69062 0.0
H1295 H 0.39534 1.00475 0.71854 0.0
H1296 H 0.40669 0.08519 0.77425 0.0
H1297 H 0.4212 0.11275 0.84759 0.0
H1298 H 0.42251 0.07304 0.02398 0.0
H1299 H 0.40884 0.04509 0.95078 0.0
C1300 C 0.30906 0.05509 0.8653 0.0
C1301 C 0.30136 0.03949 0.90752 0.0
C1302 C 0.32739 0.05268 0.82847 0.0
C1303 C 0.33871 0.03459 0.83281 0.0
C1304 C 0.33023 0.0184 0.8706 0.0
C1305 C 0.31183 0.02083 0.90751 0.0
C1306 C 0.36043 0.03382 0.80731 0.0
C1307 C 0.37392 0.04891 0.831 0.0
C1308 C 0.36841 0.01781 0.76538 0.0
C1309 C 0.35499 1.0022 0.73326 0.0
C1310 C 0.35924 0.98143 0.7412 0.0
C1311 C 0.3467 0.96674 0.71011 0.0
C1312 C 0.32992 0.97264 0.67063 0.0
C1313 C 0.32565 0.99325 0.66206 0.0
C1314 C 0.33813 1.008 0.69306 0.0
C1315 C 0.45512 1.00648 0.75441 0.0
C1316 C 0.467 0.02172 0.72357 0.0
C1317 C 0.43495 1.01012 0.77453 0.0
C1318 C 0.42573 0.02912 0.76413 0.0
C1319 C 0.4378 0.04467 0.73517 0.0
C1320 C 0.45819 0.04104 0.71534 0.0
C1321 C 0.40323 0.03168 0.77807 0.0
C1322 C 0.38953 0.01698 0.75132 0.0
C1323 C 0.39497 0.04788 0.81849 0.0
C1324 C 0.40752 0.06291 0.85647 0.0
C1325 C 0.41085 0.08216 0.82794 0.0
C1326 C 0.41872 0.0979 0.86964 0.0
C1327 C 0.42277 0.09464 0.94038 0.0
C1328 C 0.41948 0.07551 0.96908 0.0
C1329 C 0.41203 0.05963 0.92723 0.0
H1330 H 0.42846 0.10694 0.97297 0.0
H1331 H 0.32024 0.96125 0.64655 0.0
H1332 H 0.45301 0.31364 0.9267 0.0
H1333 H 0.45902 0.34125 0.84576 0.0
H1334 H 0.52292 0.3272 0.84455 0.0
H1335 H 0.51695 0.29998 0.92902 0.0
H1336 H 0.51841 0.36599 0.86608 0.0
H1337 H 0.48828 0.31938 0.70303 0.0
H1338 H 0.46211 0.29569 0.65948 0.0
H1339 H 0.41894 0.34439 0.65184 0.0
H1340 H 0.44453 0.36824 0.69848 0.0
H1341 H 0.54012 0.44252 0.61968 0.0
H1342 H 0.53486 0.40836 0.66483 0.0
H1343 H 0.47228 0.42269 0.70751 0.0
H1344 H 0.47747 0.45695 0.66219 0.0
H1345 H 0.47787 0.38241 0.65562 0.0
H1346 H 0.50398 0.42646 0.83588 0.0
H1347 H 0.52795 0.45121 0.88737 0.0
H1348 H 0.57648 0.40815 0.86437 0.0
H1349 H 0.55283 0.38324 0.81147 0.0
C1350 C 0.46829 0.31602 0.90764 0.0
C1351 C 0.48448 0.30448 0.93427 0.0
C1352 C 0.47174 0.3319 0.86107 0.0
C1353 C 0.49145 0.33647 0.83809 0.0
C1354 C 0.50754 0.32411 0.86122 0.0
C1355 C 0.5041 0.30829 0.9087 0.0
C1356 C 0.49533 0.35506 0.79506 0.0
C1357 C 0.50981 0.36924 0.81916 0.0
C1358 C 0.48368 0.35991 0.73483 0.0
C1359 C 0.46836 0.34562 0.70508 0.0
C1360 C 0.47315 0.32503 0.69304 0.0
C1361 C 0.45836 0.31154 0.66806 0.0
C1362 C 0.43886 0.31852 0.65311 0.0
C1363 C 0.43406 0.339 0.66349 0.0
C1364 C 0.44868 0.3525 0.68949 0.0
C1365 C 0.52515 0.43844 0.63792 0.0
C1366 C 0.50937 0.45287 0.63941 0.0
C1367 C 0.52217 0.41881 0.66386 0.0
C1368 C 0.50326 0.41296 0.69087 0.0
C1369 C 0.48707 0.42681 0.6876 0.0
C1370 C 0.49012 0.44653 0.66234 0.0
C1371 C 0.5008 0.39305 0.72711 0.0
C1372 C 0.4866 0.37881 0.70192 0.0
C1373 C 0.51245 0.38817 0.78684 0.0
C1374 C 0.52668 0.40305 0.81904 0.0
C1375 C 0.5198 0.42231 0.84126 0.0
C1376 C 0.53331 0.43636 0.87083 0.0
C1377 C 0.55372 0.43124 0.87922 0.0
C1378 C 0.56066 0.41208 0.85792 0.0
C1379 C 0.54721 0.39799 0.82811 0.0
H1380 H 0.56417 0.44214 0.90209 0.0
H1381 H 0.4275 0.30807 0.6332 0.0
H1382 H 0.2435 0.52643 0.9295 0.0
H1383 H 0.21206 0.53096 0.86189 0.0
H1384 H 0.20253 0.46614 0.86055 0.0
H1385 H 0.23399 0.46166 0.92595 0.0
H1386 H 0.18942 0.47887 0.74357 0.0
H1387 H 0.17801 0.50044 0.97944 0.0
H1388 H 0.18401 0.52022 0.08794 0.0
H1389 H 0.17241 0.57562 0.9787 0.0
H1390 H 0.16662 0.55617 0.86924 0.0
H1391 H 0.08251 0.47671 0.68002 0.0
H1392 H 0.11605 0.47403 0.73311 0.0
H1393 H 0.12383 0.53883 0.71719 0.0
H1394 H 0.08968 0.54172 0.6677 0.0
H1395 H 0.13842 0.52711 0.83884 0.0
H1396 H 0.14419 0.50066 0.60332 0.0
H1397 H 0.13426 0.47718 0.50835 0.0
H1398 H 0.15554 0.42653 0.62633 0.0
H1399 H 0.16405 0.44947 0.72497 0.0
C1400 C 0.23504 0.51313 0.91277 0.0
C1401 C 0.24147 0.49367 0.93308 0.0
C1402 C 0.21678 0.51572 0.87501 0.0
C1403 C 0.20434 0.49894 0.85686 0.0
C1404 C 0.2115 0.47946 0.87355 0.0
C1405 C 0.22966 0.47688 0.91102 0.0
C1406 C 0.1836 0.50147 0.82342 0.0
C1407 C 0.17827 0.48935 0.7649 0.0
C1408 C 0.16874 0.51512 0.85028 0.0
C1409 C 0.17215 0.52687 0.91595 0.0
C1410 C 0.1769 0.51686 0.97843 0.0
C1411 C 0.18025 0.528 0.04011 0.0
C1412 C 0.17869 0.54917 0.04011 0.0
C1413 C 0.17368 0.55923 0.97853 0.0
C1414 C 0.17036 0.54815 0.91666 0.0
C1415 C 0.0912 0.49047 0.68815 0.0
C1416 C 0.08303 0.50947 0.66962 0.0
C1417 C 0.11065 0.48889 0.71819 0.0
C1418 C 0.12298 0.50617 0.72876 0.0
C1419 C 0.11488 0.52516 0.7099 0.0
C1420 C 0.09528 0.52678 0.68084 0.0
C1421 C 0.14421 0.50452 0.75891 0.0
C1422 C 0.14962 0.51678 0.81699 0.0
C1423 C 0.15893 0.49054 0.73273 0.0
C1424 C 0.15462 0.47685 0.67204 0.0
C1425 C 0.14664 0.48451 0.60944 0.0
C1426 C 0.14124 0.47128 0.55483 0.0
C1427 C 0.14454 0.45043 0.56065 0.0
C1428 C 0.15303 0.4427 0.62171 0.0
C1429 C 0.15797 0.4558 0.67735 0.0
H1430 H 0.14043 0.44026 0.51797 0.0
H1431 H 0.18131 0.55779 0.08786 0.0
H1432 H 0.96062 0.80895 0.32216 0.0
H1433 H 0.96698 0.83909 0.39564 0.0
H1434 H 0.02801 0.84223 0.31587 0.0
H1435 H 0.02166 0.81182 0.2432 0.0
H1436 H 0.02781 0.85505 0.44915 0.0
H1437 H 0.98859 0.87002 0.24642 0.0
H1438 H 0.95994 0.86665 0.16416 0.0
H1439 H 0.91848 0.88454 0.32676 0.0
H1440 H 0.94685 0.8876 0.41045 0.0
H1441 H 0.0477 0.95981 0.50395 0.0
H1442 H 0.04087 0.92627 0.45288 0.0
H1443 H 0.98121 0.92686 0.54501 0.0
H1444 H 0.98816 0.96071 0.5967 0.0
H1445 H 0.97965 0.91174 0.41106 0.0
H1446 H 0.01974 0.89781 0.61274 0.0
H1447 H 0.04881 0.90094 0.69312 0.0
H1448 H 0.08921 0.8818 0.52921 0.0
H1449 H 0.06036 0.87866 0.44751 0.0
C1450 C 0.97569 0.81549 0.32279 0.0
C1451 C 0.99078 0.80753 0.278 0.0
C1452 C 0.97923 0.83306 0.36388 0.0
C1453 C 0.99787 0.84348 0.36056 0.0
C1454 C 0.01345 0.8347 0.3197 0.0
C1455 C 1.00991 0.81706 0.27868 0.0
C1456 C 1.00065 0.86407 0.39561 0.0
C1457 C 0.01735 0.86744 0.44009 0.0
C1458 C 0.98691 0.88045 0.38536 0.0
C1459 C 0.96983 0.87878 0.33499 0.0
C1460 C 0.97335 0.87306 0.26483 0.0
C1461 C 0.95716 0.87123 0.21791 0.0
C1462 C 0.93739 0.87532 0.24029 0.0
C1463 C 0.93379 0.88132 0.30957 0.0
C1464 C 0.94992 0.8831 0.35679 0.0
C1465 C 0.03308 0.95285 0.51327 0.0
C1466 C 0.01833 0.96324 0.55316 0.0
C1467 C 0.02919 0.93353 0.48419 0.0
C1468 C 0.01054 0.92366 0.49511 0.0
C1469 C 0.99572 0.93399 0.53525 0.0
C1470 C 0.99966 0.95343 0.56467 0.0
C1471 C 1.00679 0.90265 0.46468 0.0
C1472 C 0.98999 0.89927 0.42062 0.0
C1473 C 0.02049 0.88629 0.47497 0.0
C1474 C 0.0379 0.88821 0.52382 0.0
C1475 C 0.03484 0.89448 0.59362 0.0
C1476 C 0.05127 0.8962 0.63949 0.0
C1477 C 0.07085 0.89168 0.61627 0.0
C1478 C 0.07403 0.88533 0.54712 0.0
C1479 C 0.05764 0.88352 0.50104 0.0
H1480 H 0.08355 0.89305 0.65191 0.0
H1481 H 0.92487 0.87387 0.20395 0.0
H1482 H 0.72458 0.96597 0.36633 0.0
H1483 H 0.69468 0.97383 0.43844 0.0
H1484 H 0.68734 0.03041 0.33009 0.0
H1485 H 0.71757 0.02277 0.25983 0.0
H1486 H 0.67867 0.03551 0.46501 0.0
H1487 H 0.66319 0.98263 0.29233 0.0
H1488 H 0.66909 0.94832 0.24331 0.0
H1489 H 0.64891 0.9218 0.43484 0.0
H1490 H 0.64449 0.95589 0.48728 0.0
H1491 H 0.57668 0.05957 0.54635 0.0
H1492 H 0.60907 0.05127 0.49148 0.0
H1493 H 0.60738 0.9918 0.58339 0.0
H1494 H 0.57409 0.99979 0.63492 0.0
H1495 H 0.62136 0.98676 0.46206 0.0
H1496 H 0.65791 0.03051 0.63809 0.0
H1497 H 0.66447 0.06097 0.71131 0.0
H1498 H 0.64756 0.09933 0.54104 0.0
H1499 H 0.64243 0.06906 0.46523 0.0
C1500 C 0.71699 0.98042 0.35984 0.0
C1501 C 0.72376 0.994 0.30861 0.0
C1502 C 0.69962 0.98476 0.4002 0.0
C1503 C 0.68821 1.00253 0.38888 0.0
C1504 C 0.69563 0.01654 0.33998 0.0
C1505 C 0.71309 0.01229 0.3002 0.0
C1506 C 0.66839 1.00651 0.42613 0.0
C1507 C 0.66605 0.02493 0.46299 0.0
C1508 C 0.65204 0.99237 0.42736 0.0
C1509 C 0.65366 0.97191 0.394 0.0
C1510 C 0.66013 0.96952 0.32425 0.0
C1511 C 0.66328 0.95009 0.2959 0.0
C1512 C 0.65913 0.93291 0.33555 0.0
C1513 C 0.65207 0.93512 0.40406 0.0
C1514 C 0.64943 0.9545 0.43338 0.0
C1515 C 0.58322 0.04472 0.55499 0.0
C1516 C 0.5726 0.03029 0.59435 0.0
C1517 C 0.60207 0.04006 0.52448 0.0
C1518 C 0.61142 0.02106 0.53443 0.0
C1519 C 0.60082 1.00663 0.57455 0.0
C1520 C 0.58169 1.01117 0.60404 0.0
C1521 C 0.63151 0.01603 0.49983 0.0
C1522 C 0.63388 0.99743 0.46329 0.0
C1523 C 0.64827 0.02957 0.50081 0.0
C1524 C 0.64903 0.04762 0.5471 0.0
C1525 C 0.65526 0.04546 0.61678 0.0
C1526 C 0.65903 0.06266 0.65833 0.0
C1527 C 0.65596 0.08206 0.63143 0.0
C1528 C 0.64965 0.0843 0.56215 0.0
C1529 C 0.64657 0.06714 0.5196 0.0
H1530 H 0.65868 0.09535 0.66401 0.0
H1531 H 0.66148 0.9179 0.31326 0.0
H1532 H 0.57548 0.72319 0.28121 0.0
H1533 H 0.5722 0.69212 0.34916 0.0
H1534 H 0.51456 0.71296 0.42857 0.0
H1535 H 0.51798 0.74429 0.36062 0.0
H1536 H 0.53545 0.69087 0.5276 0.0
H1537 H 0.51577 0.6828 0.28996 0.0
H1538 H 0.51914 0.68482 0.16181 0.0
H1539 H 0.56982 0.64395 0.16716 0.0
H1540 H 0.56711 0.6421 0.29563 0.0
H1541 H 0.49749 0.58613 0.57323 0.0
H1542 H 0.50098 0.62157 0.53647 0.0
H1543 H 0.56432 0.61154 0.49363 0.0
H1544 H 0.56128 0.57667 0.53372 0.0
H1545 H 0.53832 0.62871 0.37841 0.0
H1546 H 0.55569 0.63661 0.62197 0.0
H1547 H 0.55153 0.63697 0.75 0.0
H1548 H 0.50244 0.67941 0.73269 0.0
H1549 H 0.5056 0.67855 0.60436 0.0
C1550 C 0.56251 0.72152 0.31544 0.0
C1551 C 0.54712 0.73631 0.31636 0.0
C1552 C 0.5605 0.70361 0.35358 0.0
C1553 C 0.54292 0.6999 0.39297 0.0
C1554 C 0.52824 0.71538 0.39848 0.0
C1555 C 0.53028 0.73339 0.36019 0.0
C1556 C 0.53921 0.67928 0.42279 0.0
C1557 C 0.53577 0.67728 0.49491 0.0
C1558 C 0.5397 0.66148 0.38016 0.0
C1559 C 0.54137 0.6625 0.3027 0.0
C1560 C 0.52777 0.67441 0.26397 0.0
C1561 C 0.52956 0.67552 0.19124 0.0
C1562 C 0.54472 0.66456 0.15641 0.0
C1563 C 0.55811 0.65247 0.19425 0.0
C1564 C 0.55647 0.6514 0.26706 0.0
C1565 C 0.51223 0.59145 0.55656 0.0
C1566 C 0.52902 0.57815 0.55502 0.0
C1567 C 0.51419 0.61179 0.53571 0.0
C1568 C 0.53291 0.61925 0.51197 0.0
C1569 C 0.5497 0.60614 0.51135 0.0
C1570 C 0.54786 0.58602 0.53367 0.0
C1571 C 0.53487 0.64022 0.48355 0.0
C1572 C 0.53789 0.64228 0.41124 0.0
C1573 C 0.53357 0.65803 0.526 0.0
C1574 C 0.53066 0.65721 0.60303 0.0
C1575 C 0.54361 0.64556 0.64511 0.0
C1576 C 0.54147 0.64591 0.71792 0.0
C1577 C 0.52665 0.65811 0.74945 0.0
C1578 C 0.51379 0.66981 0.70823 0.0
C1579 C 0.51569 0.66932 0.63542 0.0
H1580 H 0.52528 0.65869 0.80582 0.0
H1581 H 0.54604 0.6654 0.10009 0.0
H1582 H 0.81213 0.57554 0.30645 0.0
H1583 H 0.84086 0.56941 0.38441 0.0
H1584 H 0.83624 0.50512 0.34222 0.0
H1585 H 0.80738 0.51131 0.26327 0.0
H1586 H 0.84821 0.51614 0.48763 0.0
H1587 H 0.86703 0.53051 0.24881 0.0
H1588 H 0.86574 0.55115 0.14216 0.0
H1589 H 0.89107 0.60196 0.25493 0.0
H1590 H 0.89198 0.58182 0.36283 0.0
H1591 H 0.95208 0.49189 0.57554 0.0
H1592 H 0.91773 0.49503 0.52723 0.0
H1593 H 0.92539 0.55995 0.5155 0.0
H1594 H 0.95943 0.55693 0.56417 0.0
H1595 H 0.91122 0.5474 0.39681 0.0
H1596 H 0.88815 0.53847 0.63262 0.0
H1597 H 0.88359 0.52307 0.74857 0.0
H1598 H 0.86568 0.46676 0.65122 0.0
H1599 H 0.86955 0.48198 0.53459 0.0
C1600 C 0.81668 0.56 0.31595 0.0
C1601 C 0.80722 0.5439 0.27916 0.0
C1602 C 0.8333 0.55652 0.36007 0.0
C1603 C 0.84105 0.53682 0.36872 0.0
C1604 C 0.83062 0.52048 0.33663 0.0
C1605 C 0.81395 0.52399 0.29195 0.0
C1606 C 0.8611 0.53377 0.40487 0.0
C1607 C 0.86206 0.52267 0.46711 0.0
C1608 C 0.87918 0.54284 0.37979 0.0
C1609 C 0.87937 0.5547 0.31418 0.0
C1610 C 0.8722 0.54613 0.25104 0.0
C1611 C 0.87151 0.55775 0.19037 0.0
C1612 C 0.87823 0.57788 0.19187 0.0
C1613 C 0.8858 0.58639 0.25393 0.0
C1614 C 0.88639 0.57488 0.31488 0.0
C1615 C 0.94637 0.50688 0.56359 0.0
C1616 C 0.95888 0.5241 0.57264 0.0
C1617 C 0.92658 0.50868 0.53603 0.0
C1618 C 0.91871 0.52776 0.51688 0.0
C1619 C 0.93095 0.54499 0.52867 0.0
C1620 C 0.95059 0.54321 0.55643 0.0
C1621 C 0.89848 0.52976 0.48028 0.0
C1622 C 0.89748 0.54069 0.41745 0.0
C1623 C 0.88032 0.5209 0.50561 0.0
C1624 C 0.87937 0.51126 0.57501 0.0
C1625 C 0.88347 0.52273 0.63595 0.0
C1626 C 0.88089 0.51409 0.70175 0.0
C1627 C 0.87449 0.49394 0.70722 0.0
C1628 C 0.87065 0.48237 0.64688 0.0
C1629 C 0.87292 0.49102 0.58093 0.0
H1630 H 0.87243 0.48733 0.75825 0.0
H1631 H 0.87764 0.58687 0.14492 0.0
loop_
_geom_bond_atom_site_label_1
_geom_bond_atom_site_label_2
_geom_bond_distance
_geom_bond_site_symmetry_2
_ccdc_geom_bond_type
H0 C5 0.930 . S
H1 C8 0.930 . S
H2 C10 0.930 . S
H3 C4 1.016 . S
C4 H3 1.016 . S
C4 N11 1.286 . S
C5 H0 0.930 . S
C5 C6 1.397 . S
C5 C7 1.361 . S
C6 C5 1.397 . S
C6 C10 1.390 . S
C7 C5 1.361 . S
C7 C8 1.393 . S
C7 N11 1.413 . S
C8 H1 0.930 . S
C8 C7 1.393 . S
C8 C9 1.399 . S
C9 C8 1.399 . S
C9 C10 1.381 . S
C10 H2 0.930 . S
C10 C6 1.390 . S
C10 C9 1.381 . S
N11 C4 1.286 . S
N11 C7 1.413 . S
H12 C17 0.930 . S
H13 C20 0.930 . S
H14 C22 0.930 . S
H15 C16 1.016 . S
C16 H15 1.016 . S
C16 N23 1.286 . S
C17 H12 0.930 . S
C17 C18 1.397 . S
C17 C19 1.361 . S
C18 C17 1.397 . S
C18 C22 1.390 . S
C19 C17 1.361 . S
C19 C20 1.393 . S
C19 N23 1.413 . S
C20 H13 0.930 . S
C20 C19 1.393 . S
C20 C21 1.399 . S
C21 C20 1.399 . S
C21 C22 1.381 . S
C22 H14 0.930 . S
C22 C18 1.390 . S
C22 C21 1.381 . S
N23 C16 1.286 . S
N23 C19 1.413 . S
H24 C29 0.930 . S
H25 C32 0.930 . S
H26 C34 0.930 . S
H27 C28 1.016 . S
C28 H27 1.016 . S
C28 N35 1.286 . S
C29 H24 0.930 . S
C29 C30 1.397 . S
C29 C31 1.361 . S
C30 C29 1.397 . S
C30 C34 1.390 . S
C31 C29 1.361 . S
C31 C32 1.393 . S
C31 N35 1.413 . S
C32 H25 0.930 . S
C32 C31 1.393 . S
C32 C33 1.399 . S
C33 C32 1.399 . S
C33 C34 1.381 . S
C34 H26 0.930 . S
C34 C30 1.390 . S
C34 C33 1.381 . S
N35 C28 1.286 . S
N35 C31 1.413 . S
H36 C41 0.930 . S
H37 C44 0.930 . S
H38 C46 0.930 . S
H39 C40 1.016 . S
C40 H39 1.016 . S
C40 N47 1.286 . S
C41 H36 0.930 . S
C41 C42 1.397 . S
C41 C43 1.361 . S
C42 C41 1.397 . S
C42 C46 1.390 . S
C43 C41 1.361 . S
C43 C44 1.393 . S
C43 N47 1.413 . S
C44 H37 0.930 . S
C44 C43 1.393 . S
C44 C45 1.399 . S
C45 C44 1.399 . S
C45 C46 1.381 . S
C46 H38 0.930 . S
C46 C42 1.390 . S
C46 C45 1.381 . S
N47 C40 1.286 . S
N47 C43 1.413 . S
H48 C53 0.930 . S
H49 C56 0.930 . S
H50 C58 0.930 . S
H51 C52 1.016 . S
C52 H51 1.016 . S
C52 N59 1.286 . S
C53 H48 0.930 . S
C53 C54 1.397 . S
C53 C55 1.361 1_556 S
C54 C53 1.397 . S
C54 C58 1.390 . S
C55 C53 1.361 1_554 S
C55 C56 1.393 . S
C55 N59 1.413 . S
C56 H49 0.930 . S
C56 C55 1.393 . S
C56 C57 1.399 . S
C57 C56 1.399 . S
C57 C58 1.381 1_554 S
C58 H50 0.930 . S
C58 C54 1.390 . S
C58 C57 1.381 1_556 S
N59 C52 1.286 . S
N59 C55 1.413 . S
H60 C65 0.930 . S
H61 C68 0.930 . S
H62 C70 0.930 . S
H63 C64 1.016 . S
C64 H63 1.016 . S
C64 N71 1.286 . S
C65 H60 0.930 . S
C65 C66 1.397 . S
C65 C67 1.361 1_556 S
C66 C65 1.397 . S
C66 C70 1.390 . S
C67 C65 1.361 1_554 S
C67 C68 1.393 . S
C67 N71 1.413 . S
C68 H61 0.930 . S
C68 C67 1.393 . S
C68 C69 1.399 . S
C69 C68 1.399 . S
C69 C70 1.381 1_554 S
C70 H62 0.930 . S
C70 C66 1.390 . S
C70 C69 1.381 1_556 S
N71 C64 1.286 . S
N71 C67 1.413 . S
H72 C77 0.930 . S
H73 C80 0.930 . S
H74 C82 0.930 . S
H75 C76 1.016 . S
C76 H75 1.016 . S
C76 N83 1.286 . S
C77 H72 0.930 . S
C77 C78 1.397 . S
C77 C79 1.361 1_556 S
C78 C77 1.397 . S
C78 C82 1.390 . S
C79 C77 1.361 1_554 S
C79 C80 1.393 . S
C79 N83 1.413 . S
C80 H73 0.930 . S
C80 C79 1.393 . S
C80 C81 1.399 . S
C81 C80 1.399 . S
C81 C82 1.381 1_554 S
C82 H74 0.930 . S
C82 C78 1.390 . S
C82 C81 1.381 1_556 S
N83 C76 1.286 . S
N83 C79 1.413 . S
H84 C89 0.930 . S
H85 C92 0.930 . S
H86 C94 0.930 . S
H87 C88 1.016 . S
C88 H87 1.016 . S
C88 N95 1.286 . S
C89 H84 0.930 . S
C89 C90 1.397 . S
C89 C91 1.361 1_556 S
C90 C89 1.397 . S
C90 C94 1.390 . S
C91 C89 1.361 1_554 S
C91 C92 1.393 . S
C91 N95 1.413 . S
C92 H85 0.930 . S
C92 C91 1.393 . S
C92 C93 1.399 . S
C93 C92 1.399 . S
C93 C94 1.381 1_554 S
C94 H86 0.930 . S
C94 C90 1.390 . S
C94 C93 1.381 1_556 S
N95 C88 1.286 . S
N95 C91 1.413 . S
Gd96 N127 2.661 . S
Gd96 N133 2.601 . S
Gd96 O140 2.545 . S
Gd96 O141 2.606 1_655 S
Gd96 O143 2.429 . S
Gd96 O144 2.545 1_655 S
Gd96 O145 2.412 1_655 S
Gd96 O147 2.362 1_545 S
Gd96 O148 2.324 1_655 S
Gd96 C155 2.828 . S
Gd97 N106 2.661 1_565 S
Gd97 N110 2.594 1_565 S
Gd97 O141 2.362 1_565 S
Gd97 O142 2.333 1_455 S
Gd97 O146 2.545 . S
Gd97 O147 2.606 1_455 S
Gd97 O149 2.429 . S
Gd97 O150 2.545 . S
Gd97 O151 2.412 . S
Gd97 C164 2.828 . S
C98 C101 1.417 . S
C98 C103 1.431 . S
C98 C104 1.412 . S
C99 C102 1.437 . S
C99 C103 1.317 . S
C99 H118 0.929 . S
C100 C101 1.426 . S
C100 C102 1.413 . S
C100 N110 1.377 . S
C101 C98 1.417 . S
C101 C100 1.426 . S
C101 N106 1.350 . S
C102 C99 1.437 . S
C102 C100 1.413 . S
C102 C112 1.391 . S
C103 C98 1.431 . S
C103 C99 1.317 . S
C103 H114 0.930 . S
C104 C98 1.412 . S
C104 C105 1.355 . S
C104 H116 0.930 . S
C105 C104 1.355 . S
C105 C107 1.402 . S
C105 H117 0.930 1_455 S
N106 Gd97 2.661 1_545 S
N106 C101 1.350 . S
N106 C107 1.307 . S
C107 C105 1.402 . S
C107 N106 1.307 . S
C107 H108 0.930 1_455 S
H108 C107 0.930 1_655 S
C109 N110 1.321 1_565 S
C109 C111 1.394 . S
C109 H113 0.930 . S
N110 Gd97 2.594 1_545 S
N110 C100 1.377 . S
N110 C109 1.321 1_545 S
C111 C109 1.394 . S
C111 C112 1.359 1_565 S
C111 H123 0.930 . S
C112 C102 1.391 . S
C112 C111 1.359 1_545 S
C112 H124 0.929 . S
H113 C109 0.930 . S
H114 C103 0.930 . S
H115 C132 0.930 . S
H116 C104 0.930 . S
H117 C105 0.930 1_655 S
H118 C99 0.929 . S
H119 C137 0.930 . S
H120 C128 0.930 . S
H121 C129 0.930 . S
H122 C153 0.929 . S
H123 C111 0.930 . S
H124 C112 0.929 . S
H125 C154 0.930 . S
H126 C135 0.930 . S
N127 Gd96 2.661 . S
N127 C131 1.342 1_545 S
N127 C132 1.307 1_645 S
C128 H120 0.930 . S
C128 C129 1.355 1_655 S
C128 C130 1.412 . S
C129 H121 0.930 . S
C129 C128 1.355 1_455 S
C129 C132 1.402 . S
C130 C128 1.412 . S
C130 C131 1.445 . S
C130 C154 1.431 . S
C131 N127 1.342 1_565 S
C131 C130 1.445 . S
C131 C134 1.409 1_565 S
C132 H115 0.930 . S
C132 N127 1.307 1_465 S
C132 C129 1.402 . S
N133 Gd96 2.601 . S
N133 C134 1.359 . S
N133 C137 1.334 . S
C134 C131 1.409 1_545 S
C134 N133 1.359 . S
C134 C138 1.413 . S
C135 H126 0.930 . S
C135 C136 1.359 . S
C135 C137 1.394 . S
C136 C135 1.359 . S
C136 C138 1.391 . S
C136 H139 0.929 . S
C137 H119 0.930 . S
C137 N133 1.334 . S
C137 C135 1.394 . S
C138 C134 1.413 . S
C138 C136 1.391 . S
C138 C153 1.437 1_545 S
H139 C136 0.929 . S
O140 Gd96 2.545 . S
O140 C155 1.258 . S
O141 Gd96 2.606 1_455 S
O141 Gd97 2.362 1_545 S
O141 C152 1.284 . S
O142 Gd97 2.333 1_655 S
O142 C162 1.240 1_565 S
O143 Gd96 2.429 . S
O143 C162 1.268 . S
O144 Gd96 2.545 1_455 S
O144 C152 1.250 . S
O145 Gd96 2.412 1_455 S
O145 C155 1.251 1_455 S
O146 Gd97 2.545 . S
O146 C164 1.258 . S
O147 Gd96 2.362 1_565 S
O147 Gd97 2.606 1_655 S
O147 C163 1.284 . S
O148 Gd96 2.324 1_455 S
O148 C171 1.254 . S
O149 Gd97 2.429 . S
O149 C171 1.268 1_565 S
O150 Gd97 2.545 . S
O150 C163 1.250 1_455 S
O151 Gd97 2.412 . S
O151 C164 1.252 . S
C152 O141 1.284 . S
C152 O144 1.250 . S
C153 H122 0.929 . S
C153 C138 1.437 1_565 S
C153 C154 1.317 . S
C154 H125 0.930 . S
C154 C130 1.431 . S
C154 C153 1.317 . S
C155 Gd96 2.828 . S
C155 O140 1.258 . S
C155 O145 1.251 1_655 S
C155 C156 1.497 . S
C156 C155 1.497 . S
C156 C157 1.395 . S
C156 C158 1.339 1_655 S
C157 C156 1.395 . S
C157 C160 1.398 . S
C157 H172 0.930 . S
C158 C156 1.339 1_455 S
C158 C159 1.389 1_455 S
C158 H173 0.975 . S
C159 C158 1.389 1_655 S
C159 C161 1.396 . S
C160 C157 1.398 . S
C160 C161 1.380 . S
C160 H174 0.930 . S
C161 C159 1.396 . S
C161 C160 1.380 . S
C161 H175 0.930 . S
C162 O142 1.240 1_545 S
C162 O143 1.268 . S
C163 O147 1.284 . S
C163 O150 1.250 1_655 S
C164 Gd97 2.828 . S
C164 O146 1.258 . S
C164 O151 1.252 . S
C164 C165 1.497 . S
C165 C164 1.497 . S
C165 C166 1.395 . S
C165 C167 1.380 . S
C166 C165 1.395 . S
C166 C169 1.398 . S
C166 H176 0.930 . S
C167 C165 1.380 . S
C167 C168 1.391 . S
C167 H177 0.930 1_455 S
C168 C167 1.391 . S
C168 C170 1.387 . S
C169 C166 1.398 . S
C169 C170 1.380 . S
C169 H178 0.930 . S
C170 C168 1.387 . S
C170 C169 1.380 . S
C170 H179 0.930 . S
C171 O148 1.254 . S
C171 O149 1.268 1_545 S
H172 C157 0.930 . S
H173 C158 0.975 . S
H174 C160 0.930 . S
H175 C161 0.930 . S
H176 C166 0.930 . S
H177 C167 0.930 1_655 S
H178 C169 0.930 . S
H179 C170 0.930 . S
Gd180 N211 2.661 . S
Gd180 N217 2.601 . S
Gd180 O224 2.545 . S
Gd180 O225 2.606 1_565 S
Gd180 O227 2.429 . S
Gd180 O228 2.545 1_565 S
Gd180 O229 2.412 1_565 S
Gd180 O231 2.361 1_565 S
Gd180 O232 2.324 1_565 S
Gd180 C239 2.828 . S
Gd181 N190 2.661 . S
Gd181 N194 2.601 . S
Gd181 O225 2.362 . S
Gd181 O226 2.324 1_545 S
Gd181 O230 2.545 . S
Gd181 O231 2.608 . S
Gd181 O233 2.429 . S
Gd181 O234 2.545 . S
Gd181 O235 2.412 . S
Gd181 C248 2.828 . S
C182 C185 1.417 . S
C182 C187 1.431 . S
C182 C188 1.412 . S
C183 C186 1.437 . S
C183 C187 1.317 . S
C183 H202 0.929 . S
C184 C185 1.426 . S
C184 C186 1.413 . S
C184 N194 1.359 . S
C185 C182 1.417 . S
C185 C184 1.426 . S
C185 N190 1.350 . S
C186 C183 1.437 . S
C186 C184 1.413 . S
C186 C196 1.391 . S
C187 C182 1.431 . S
C187 C183 1.317 . S
C187 H198 0.930 . S
C188 C182 1.412 . S
C188 C189 1.355 . S
C188 H200 0.930 . S
C189 C188 1.355 . S
C189 C191 1.402 . S
C189 H201 0.930 1_545 S
N190 Gd181 2.661 . S
N190 C185 1.350 . S
N190 C191 1.307 . S
C191 C189 1.402 . S
C191 N190 1.307 . S
C191 H192 0.930 1_545 S
H192 C191 0.930 1_565 S
C193 N194 1.334 . S
C193 C195 1.394 . S
C193 H197 0.930 . S
N194 Gd181 2.601 . S
N194 C184 1.359 . S
N194 C193 1.334 . S
C195 C193 1.394 . S
C195 C196 1.359 . S
C195 H207 0.930 . S
C196 C186 1.391 . S
C196 C195 1.359 . S
C196 H208 0.929 . S
H197 C193 0.930 . S
H198 C187 0.930 . S
H199 C216 0.930 . S
H200 C188 0.930 . S
H201 C189 0.930 1_565 S
H202 C183 0.929 . S
H203 C221 0.930 . S
H204 C212 0.930 . S
H205 C213 0.930 . S
H206 C237 0.929 . S
H207 C195 0.930 . S
H208 C196 0.929 . S
H209 C238 0.930 . S
H210 C219 0.930 . S
N211 Gd180 2.661 . S
N211 C215 1.350 . S
N211 C216 1.307 1_565 S
C212 H204 0.930 . S
C212 C213 1.355 1_565 S
C212 C214 1.412 . S
C213 H205 0.930 . S
C213 C212 1.355 1_545 S
C213 C216 1.402 . S
C214 C212 1.412 . S
C214 C215 1.417 . S
C214 C238 1.431 . S
C215 N211 1.350 . S
C215 C214 1.417 . S
C215 C218 1.426 . S
C216 H199 0.930 . S
C216 N211 1.307 1_545 S
C216 C213 1.402 . S
N217 Gd180 2.601 . S
N217 C218 1.359 . S
N217 C221 1.334 . S
C218 C215 1.426 . S
C218 N217 1.359 . S
C218 C222 1.413 . S
C219 H210 0.930 . S
C219 C220 1.359 . S
C219 C221 1.394 . S
C220 C219 1.359 . S
C220 C222 1.391 . S
C220 H223 0.929 . S
C221 H203 0.930 . S
C221 N217 1.334 . S
C221 C219 1.394 . S
C222 C218 1.413 . S
C222 C220 1.391 . S
C222 C237 1.437 . S
H223 C220 0.929 . S
O224 Gd180 2.545 . S
O224 C239 1.258 . S
O225 Gd180 2.606 1_545 S
O225 Gd181 2.362 . S
O225 C236 1.284 . S
O226 Gd181 2.324 1_565 S
O226 C246 1.254 . S
O227 Gd180 2.429 . S
O227 C246 1.268 . S
O228 Gd180 2.545 1_545 S
O228 C236 1.250 . S
O229 Gd180 2.412 1_545 S
O229 C239 1.252 1_545 S
O230 Gd181 2.545 . S
O230 C248 1.258 . S
O231 Gd180 2.361 1_545 S
O231 Gd181 2.608 . S
O231 C247 1.284 . S
O232 Gd180 2.324 1_545 S
O232 C255 1.254 . S
O233 Gd181 2.429 . S
O233 C255 1.268 . S
O234 Gd181 2.545 . S
O234 C247 1.266 . S
O235 Gd181 2.412 . S
O235 C248 1.252 . S
C236 O225 1.284 . S
C236 O228 1.250 . S
C237 H206 0.929 . S
C237 C222 1.437 . S
C237 C238 1.317 . S
C238 H209 0.930 . S
C238 C214 1.431 . S
C238 C237 1.317 . S
C239 Gd180 2.828 . S
C239 O224 1.258 . S
C239 O229 1.252 1_565 S
C239 C240 1.497 . S
C240 C239 1.497 . S
C240 C241 1.395 . S
C240 C242 1.380 1_565 S
C241 C240 1.395 . S
C241 C244 1.398 . S
C241 H256 0.930 . S
C242 C240 1.380 1_545 S
C242 C243 1.391 . S
C242 H257 0.930 . S
C243 C242 1.391 . S
C243 C245 1.387 1_545 S
C244 C241 1.398 . S
C244 C245 1.380 . S
C244 H258 0.930 . S
C245 C243 1.387 1_565 S
C245 C244 1.380 . S
C245 H259 0.930 . S
C246 O226 1.254 . S
C246 O227 1.268 . S
C247 O231 1.284 . S
C247 O234 1.266 . S
C248 Gd181 2.828 . S
C248 O230 1.258 . S
C248 O235 1.252 . S
C248 C249 1.497 . S
C249 C248 1.497 . S
C249 C250 1.395 . S
C249 C251 1.380 . S
C250 C249 1.395 . S
C250 C253 1.398 . S
C250 H260 0.930 . S
C251 C249 1.380 . S
C251 C252 1.391 . S
C251 H261 0.930 . S
C252 C251 1.391 . S
C252 C254 1.387 . S
C253 C250 1.398 . S
C253 C254 1.380 . S
C253 H262 0.930 . S
C254 C252 1.387 . S
C254 C253 1.380 . S
C254 H263 0.930 . S
C255 O232 1.254 . S
C255 O233 1.268 . S
H256 C241 0.930 . S
H257 C242 0.930 . S
H258 C244 0.930 . S
H259 C245 0.930 . S
H260 C250 0.930 . S
H261 C251 0.930 . S
H262 C253 0.930 . S
H263 C254 0.930 . S
Gd264 N295 2.661 . S
Gd264 N301 2.601 . S
Gd264 O308 2.545 . S
Gd264 O309 2.606 . S
Gd264 O311 2.429 . S
Gd264 O312 2.545 . S
Gd264 O313 2.412 . S
Gd264 O315 2.362 . S
Gd264 O316 2.324 . S
Gd264 C323 2.828 . S
Gd265 N274 2.661 . S
Gd265 N278 2.601 . S
Gd265 O309 2.362 . S
Gd265 O310 2.324 . S
Gd265 O314 2.545 . S
Gd265 O315 2.606 . S
Gd265 O317 2.429 . S
Gd265 O318 2.545 . S
Gd265 O319 2.412 . S
Gd265 C332 2.828 . S
C266 C269 1.417 . S
C266 C271 1.431 . S
C266 C272 1.412 . S
C267 C270 1.437 . S
C267 C271 1.317 . S
C267 H286 0.929 . S
C268 C269 1.426 . S
C268 C270 1.413 . S
C268 N278 1.359 . S
C269 C266 1.417 . S
C269 C268 1.426 . S
C269 N274 1.350 . S
C270 C267 1.437 . S
C270 C268 1.413 . S
C270 C280 1.391 . S
C271 C266 1.431 . S
C271 C267 1.317 . S
C271 H282 0.930 . S
C272 C266 1.412 . S
C272 C273 1.355 . S
C272 H284 0.930 . S
C273 C272 1.355 . S
C273 C275 1.402 . S
C273 H285 0.930 . S
N274 Gd265 2.661 . S
N274 C269 1.350 . S
N274 C275 1.307 . S
C275 C273 1.402 . S
C275 N274 1.307 . S
C275 H276 0.930 . S
H276 C275 0.930 . S
C277 N278 1.334 . S
C277 C279 1.394 . S
C277 H281 0.930 . S
N278 Gd265 2.601 . S
N278 C268 1.359 . S
N278 C277 1.334 . S
C279 C277 1.394 . S
C279 C280 1.359 . S
C279 H291 0.930 . S
C280 C270 1.391 . S
C280 C279 1.359 . S
C280 H292 0.929 . S
H281 C277 0.930 . S
H282 C271 0.930 . S
H283 C300 0.930 . S
H284 C272 0.930 . S
H285 C273 0.930 . S
H286 C267 0.929 . S
H287 C305 0.930 . S
H288 C296 0.930 . S
H289 C297 0.930 . S
H290 C321 0.929 . S
H291 C279 0.930 . S
H292 C280 0.929 . S
H293 C322 0.930 . S
H294 C303 0.930 . S
N295 Gd264 2.661 . S
N295 C299 1.350 . S
N295 C300 1.307 . S
C296 H288 0.930 . S
C296 C297 1.355 . S
C296 C298 1.412 . S
C297 H289 0.930 . S
C297 C296 1.355 . S
C297 C300 1.402 . S
C298 C296 1.412 . S
C298 C299 1.417 . S
C298 C322 1.431 . S
C299 N295 1.350 . S
C299 C298 1.417 . S
C299 C302 1.426 . S
C300 H283 0.930 . S
C300 N295 1.307 . S
C300 C297 1.402 . S
N301 Gd264 2.601 . S
N301 C302 1.359 . S
N301 C305 1.334 . S
C302 C299 1.426 . S
C302 N301 1.359 . S
C302 C306 1.413 . S
C303 H294 0.930 . S
C303 C304 1.359 . S
C303 C305 1.394 . S
C304 C303 1.359 . S
C304 C306 1.391 . S
C304 H307 0.929 . S
C305 H287 0.930 . S
C305 N301 1.334 . S
C305 C303 1.394 . S
C306 C302 1.413 . S
C306 C304 1.391 . S
C306 C321 1.437 . S
H307 C304 0.929 . S
O308 Gd264 2.545 . S
O308 C323 1.258 . S
O309 Gd264 2.606 . S
O309 Gd265 2.362 . S
O309 C320 1.284 . S
O310 Gd265 2.324 . S
O310 C330 1.254 . S
O311 Gd264 2.429 . S
O311 C330 1.268 . S
O312 Gd264 2.545 . S
O312 C320 1.250 . S
O313 Gd264 2.412 . S
O313 C323 1.252 . S
O314 Gd265 2.545 . S
O314 C332 1.258 . S
O315 Gd264 2.362 . S
O315 Gd265 2.606 . S
O315 C331 1.284 . S
O316 Gd264 2.324 . S
O316 C339 1.254 . S
O317 Gd265 2.429 . S
O317 C339 1.268 . S
O318 Gd265 2.545 . S
O318 C331 1.250 . S
O319 Gd265 2.412 . S
O319 C332 1.252 . S
C320 O309 1.284 . S
C320 O312 1.250 . S
C321 H290 0.929 . S
C321 C306 1.437 . S
C321 C322 1.317 . S
C322 H293 0.930 . S
C322 C298 1.431 . S
C322 C321 1.317 . S
C323 Gd264 2.828 . S
C323 O308 1.258 . S
C323 O313 1.252 . S
C323 C324 1.497 . S
C324 C323 1.497 . S
C324 C325 1.395 . S
C324 C326 1.380 . S
C325 C324 1.395 . S
C325 C328 1.398 . S
C325 H340 0.930 . S
C326 C324 1.380 . S
C326 C327 1.391 . S
C326 H341 0.930 . S
C327 C326 1.391 . S
C327 C329 1.387 . S
C328 C325 1.398 . S
C328 C329 1.380 . S
C328 H342 0.930 1_556 S
C329 C327 1.387 . S
C329 C328 1.380 . S
C329 H343 0.930 . S
C330 O310 1.254 . S
C330 O311 1.268 . S
C331 O315 1.284 . S
C331 O318 1.250 . S
C332 Gd265 2.828 . S
C332 O314 1.258 . S
C332 O319 1.252 . S
C332 C333 1.497 . S
C333 C332 1.497 . S
C333 C334 1.395 . S
C333 C335 1.380 . S
C334 C333 1.395 . S
C334 C337 1.398 . S
C334 H344 0.930 . S
C335 C333 1.380 . S
C335 C336 1.391 . S
C335 H345 0.930 . S
C336 C335 1.391 . S
C336 C338 1.387 . S
C337 C334 1.398 . S
C337 C338 1.380 . S
C337 H346 0.930 . S
C338 C336 1.387 . S
C338 C337 1.380 . S
C338 H347 0.930 . S
C339 O316 1.254 . S
C339 O317 1.268 . S
H340 C325 0.930 . S
H341 C326 0.930 . S
H342 C328 0.930 1_554 S
H343 C329 0.930 . S
H344 C334 0.930 . S
H345 C335 0.930 . S
H346 C337 0.930 . S
H347 C338 0.930 . S
Gd348 N379 2.661 . S
Gd348 N385 2.601 . S
Gd348 O392 2.545 . S
Gd348 O393 2.606 1_655 S
Gd348 O395 2.429 1_655 S
Gd348 O396 2.545 . S
Gd348 O397 2.412 . S
Gd348 O399 2.362 1_655 S
Gd348 O400 2.324 . S
Gd348 C407 2.828 . S
Gd349 N358 2.661 . S
Gd349 N362 2.601 . S
Gd349 O393 2.362 . S
Gd349 O394 2.324 . S
Gd349 O398 2.545 . S
Gd349 O399 2.606 . S
Gd349 O401 2.429 1_455 S
Gd349 O402 2.545 . S
Gd349 O403 2.412 . S
Gd349 C416 2.828 . S
C350 C353 1.417 . S
C350 C355 1.431 . S
C350 C356 1.412 . S
C351 C354 1.437 . S
C351 C355 1.317 . S
C351 H370 0.929 . S
C352 C353 1.426 . S
C352 C354 1.413 . S
C352 N362 1.359 . S
C353 C350 1.417 . S
C353 C352 1.426 . S
C353 N358 1.350 . S
C354 C351 1.437 . S
C354 C352 1.413 . S
C354 C364 1.391 . S
C355 C350 1.431 . S
C355 C351 1.317 . S
C355 H366 0.930 . S
C356 C350 1.412 . S
C356 C357 1.355 . S
C356 H368 0.930 . S
C357 C356 1.355 . S
C357 C359 1.402 . S
C357 H369 0.930 . S
N358 Gd349 2.661 . S
N358 C353 1.350 . S
N358 C359 1.307 . S
C359 C357 1.402 . S
C359 N358 1.307 . S
C359 H360 0.930 . S
H360 C359 0.930 . S
C361 N362 1.334 . S
C361 C363 1.394 . S
C361 H365 0.930 1_455 S
N362 Gd349 2.601 . S
N362 C352 1.359 . S
N362 C361 1.334 . S
C363 C361 1.394 . S
C363 C364 1.359 . S
C363 H375 0.930 1_455 S
C364 C354 1.391 . S
C364 C363 1.359 . S
C364 H376 0.929 . S
H365 C361 0.930 1_655 S
H366 C355 0.930 . S
H367 C384 0.930 . S
H368 C356 0.930 . S
H369 C357 0.930 . S
H370 C351 0.929 . S
H371 C389 0.930 . S
H372 C380 0.930 . S
H373 C381 0.930 . S
H374 C405 0.929 . S
H375 C363 0.930 1_655 S
H376 C364 0.929 . S
H377 C406 0.930 . S
H378 C387 0.930 . S
N379 Gd348 2.661 . S
N379 C383 1.350 . S
N379 C384 1.307 . S
C380 H372 0.930 . S
C380 C381 1.355 . S
C380 C382 1.412 . S
C381 H373 0.930 . S
C381 C380 1.355 . S
C381 C384 1.402 . S
C382 C380 1.412 . S
C382 C383 1.417 . S
C382 C406 1.431 . S
C383 N379 1.350 . S
C383 C382 1.417 . S
C383 C386 1.426 . S
C384 H367 0.930 . S
C384 N379 1.307 . S
C384 C381 1.402 . S
N385 Gd348 2.601 . S
N385 C386 1.359 . S
N385 C389 1.334 1_655 S
C386 C383 1.426 . S
C386 N385 1.359 . S
C386 C390 1.413 . S
C387 H378 0.930 . S
C387 C388 1.359 . S
C387 C389 1.394 . S
C388 C387 1.359 . S
C388 C390 1.391 1_455 S
C388 H391 0.929 . S
C389 H371 0.930 . S
C389 N385 1.334 1_455 S
C389 C387 1.394 . S
C390 C386 1.413 . S
C390 C388 1.391 1_655 S
C390 C405 1.437 . S
H391 C388 0.929 . S
O392 Gd348 2.545 . S
O392 C407 1.258 . S
O393 Gd348 2.606 1_455 S
O393 Gd349 2.362 . S
O393 C404 1.284 1_455 S
O394 Gd349 2.324 . S
O394 C414 1.254 . S
O395 Gd348 2.429 1_455 S
O395 C414 1.268 . S
O396 Gd348 2.545 . S
O396 C404 1.250 . S
O397 Gd348 2.412 . S
O397 C407 1.252 . S
O398 Gd349 2.545 . S
O398 C416 1.258 . S
O399 Gd348 2.362 1_455 S
O399 Gd349 2.606 . S
O399 C415 1.284 . S
O400 Gd348 2.324 . S
O400 C423 1.254 . S
O401 Gd349 2.429 1_655 S
O401 C423 1.268 . S
O402 Gd349 2.545 . S
O402 C415 1.250 . S
O403 Gd349 2.412 . S
O403 C416 1.252 . S
C404 O393 1.284 1_655 S
C404 O396 1.250 . S
C405 H374 0.929 . S
C405 C390 1.437 . S
C405 C406 1.317 . S
C406 H377 0.930 . S
C406 C382 1.431 . S
C406 C405 1.317 . S
C407 Gd348 2.828 . S
C407 O392 1.258 . S
C407 O397 1.252 . S
C407 C408 1.497 . S
C408 C407 1.497 . S
C408 C409 1.395 . S
C408 C410 1.380 . S
C409 C408 1.395 . S
C409 C412 1.398 . S
C409 H424 0.930 . S
C410 C408 1.380 . S
C410 C411 1.391 . S
C410 H425 0.930 . S
C411 C410 1.391 . S
C411 C413 1.387 . S
C412 C409 1.398 . S
C412 C413 1.380 . S
C412 H426 0.930 1_556 S
C413 C411 1.387 . S
C413 C412 1.380 . S
C413 H427 0.930 . S
C414 O394 1.254 . S
C414 O395 1.268 . S
C415 O399 1.284 . S
C415 O402 1.250 . S
C416 Gd349 2.828 . S
C416 O398 1.258 . S
C416 O403 1.252 . S
C416 C417 1.497 . S
C417 C416 1.497 . S
C417 C418 1.395 . S
C417 C419 1.380 . S
C418 C417 1.395 . S
C418 C421 1.398 . S
C418 H428 0.930 . S
C419 C417 1.380 . S
C419 C420 1.391 . S
C419 H429 0.930 . S
C420 C419 1.391 . S
C420 C422 1.387 . S
C421 C418 1.398 . S
C421 C422 1.380 . S
C421 H430 0.930 . S
C422 C420 1.387 . S
C422 C421 1.380 . S
C422 H431 0.930 . S
C423 O400 1.254 . S
C423 O401 1.268 . S
H424 C409 0.930 . S
H425 C410 0.930 . S
H426 C412 0.930 1_554 S
H427 C413 0.930 . S
H428 C418 0.930 . S
H429 C419 0.930 . S
H430 C421 0.930 . S
H431 C422 0.930 . S
H432 C450 0.951 . S
H433 C452 0.951 . S
H434 C454 0.950 . S
H435 C455 0.950 . S
H436 C457 0.950 . S
H437 C460 0.950 . S
H438 C461 0.950 . S
H439 C463 0.950 . S
H440 C464 0.950 . S
H441 C465 0.951 . S
H442 C467 0.951 . S
H443 C469 0.950 . S
H444 C470 0.950 . S
H445 C472 0.950 . S
H446 C475 0.950 . S
H447 C476 0.950 . S
H448 C478 0.950 . S
H449 C479 0.950 . S
C450 H432 0.951 . S
C450 C451 1.366 . S
C450 C452 1.388 . S
C451 C450 1.366 . S
C451 C455 1.385 . S
C452 H433 0.951 . S
C452 C450 1.388 . S
C452 C453 1.366 . S
C453 C452 1.366 . S
C453 C454 1.414 . S
C453 C456 1.499 . S
C454 H434 0.950 . S
C454 C453 1.414 . S
C454 C455 1.374 . S
C455 H435 0.950 . S
C455 C451 1.385 . S
C455 C454 1.374 . S
C456 C453 1.499 . S
C456 C457 1.373 . S
C456 C458 1.389 . S
C457 H436 0.950 . S
C457 C456 1.373 . S
C457 C473 1.377 . S
C458 C456 1.389 . S
C458 C459 1.524 . S
C458 C472 1.377 . S
C459 C458 1.524 . S
C459 C460 1.397 . S
C459 C464 1.363 . S
C460 H437 0.950 . S
C460 C459 1.397 . S
C460 C461 1.334 . S
C461 H438 0.950 . S
C461 C460 1.334 . S
C461 C462 1.287 . S
C462 C461 1.287 . S
C462 C463 1.524 . S
C462 H481 0.913 . S
C463 H439 0.950 . S
C463 C462 1.524 . S
C463 C464 1.415 . S
C464 H440 0.950 . S
C464 C459 1.363 . S
C464 C463 1.415 . S
C465 H441 0.951 . S
C465 C466 1.366 . S
C465 C467 1.388 . S
C466 C465 1.366 . S
C466 C470 1.385 . S
C467 H442 0.951 . S
C467 C465 1.388 . S
C467 C468 1.366 . S
C468 C467 1.366 . S
C468 C469 1.414 . S
C468 C471 1.499 . S
C469 H443 0.950 . S
C469 C468 1.414 . S
C469 C470 1.374 . S
C470 H444 0.950 . S
C470 C466 1.385 . S
C470 C469 1.374 . S
C471 C468 1.499 . S
C471 C472 1.373 . S
C471 C473 1.389 . S
C472 H445 0.950 . S
C472 C458 1.377 . S
C472 C471 1.373 . S
C473 C457 1.377 . S
C473 C471 1.389 . S
C473 C474 1.524 . S
C474 C473 1.524 . S
C474 C475 1.397 1_545 S
C474 C479 1.363 . S
C475 H446 0.950 . S
C475 C474 1.397 1_565 S
C475 C476 1.334 . S
C476 H447 0.950 . S
C476 C475 1.334 . S
C476 C477 1.287 . S
C477 C476 1.287 . S
C477 C478 1.524 1_565 S
C477 H480 0.999 . S
C478 H448 0.950 . S
C478 C477 1.524 1_545 S
C478 C479 1.415 . S
C479 H449 0.950 . S
C479 C474 1.363 . S
C479 C478 1.415 . S
H480 C477 0.999 . S
H481 C462 0.913 . S
H482 C500 0.951 . S
H483 C502 0.951 . S
H484 C504 0.950 . S
H485 C505 0.950 . S
H486 C507 0.950 . S
H487 C510 0.950 . S
H488 C511 0.950 . S
H489 C513 0.950 . S
H490 C514 0.950 . S
H491 C515 0.951 . S
H492 C517 0.951 . S
H493 C519 0.950 . S
H494 C520 0.950 . S
H495 C522 0.950 . S
H496 C525 0.950 . S
H497 C526 0.950 . S
H498 C528 0.950 . S
H499 C529 0.950 . S
C500 H482 0.951 . S
C500 C501 1.366 . S
C500 C502 1.388 . S
C501 C500 1.366 . S
C501 C505 1.385 . S
C502 H483 0.951 . S
C502 C500 1.388 . S
C502 C503 1.366 . S
C503 C502 1.366 . S
C503 C504 1.414 . S
C503 C506 1.499 . S
C504 H484 0.950 . S
C504 C503 1.414 . S
C504 C505 1.374 . S
C505 H485 0.950 . S
C505 C501 1.385 . S
C505 C504 1.374 . S
C506 C503 1.499 . S
C506 C507 1.373 . S
C506 C508 1.389 . S
C507 H486 0.950 . S
C507 C506 1.373 . S
C507 C523 1.377 . S
C508 C506 1.389 . S
C508 C509 1.524 . S
C508 C522 1.377 . S
C509 C508 1.524 . S
C509 C510 1.397 . S
C509 C514 1.363 . S
C510 H487 0.950 . S
C510 C509 1.397 . S
C510 C511 1.334 . S
C511 H488 0.950 . S
C511 C510 1.334 . S
C511 C512 1.287 . S
C512 C511 1.287 . S
C512 C513 1.524 . S
C512 H531 0.913 . S
C513 H489 0.950 . S
C513 C512 1.524 . S
C513 C514 1.415 . S
C514 H490 0.950 . S
C514 C509 1.363 . S
C514 C513 1.415 . S
C515 H491 0.951 . S
C515 C516 1.366 . S
C515 C517 1.388 . S
C516 C515 1.366 . S
C516 C520 1.385 . S
C517 H492 0.951 . S
C517 C515 1.388 . S
C517 C518 1.366 . S
C518 C517 1.366 . S
C518 C519 1.414 . S
C518 C521 1.499 . S
C519 H493 0.950 . S
C519 C518 1.414 . S
C519 C520 1.374 . S
C520 H494 0.950 . S
C520 C516 1.385 . S
C520 C519 1.374 . S
C521 C518 1.499 . S
C521 C522 1.373 . S
C521 C523 1.389 . S
C522 H495 0.950 . S
C522 C508 1.377 . S
C522 C521 1.373 . S
C523 C507 1.377 . S
C523 C521 1.389 . S
C523 C524 1.524 . S
C524 C523 1.524 . S
C524 C525 1.397 . S
C524 C529 1.363 . S
C525 H496 0.950 . S
C525 C524 1.397 . S
C525 C526 1.334 . S
C526 H497 0.950 . S
C526 C525 1.334 . S
C526 C527 1.287 . S
C527 C526 1.287 . S
C527 C528 1.524 . S
C527 H530 0.999 . S
C528 H498 0.950 . S
C528 C527 1.524 . S
C528 C529 1.415 . S
C529 H499 0.950 . S
C529 C524 1.363 . S
C529 C528 1.415 . S
H530 C527 0.999 . S
H531 C512 0.913 . S
H532 C550 0.951 . S
H533 C552 0.951 . S
H534 C554 0.950 . S
H535 C555 0.950 . S
H536 C557 0.950 . S
H537 C560 0.950 . S
H538 C561 0.950 . S
H539 C563 0.950 . S
H540 C564 0.950 . S
H541 C565 0.951 . S
H542 C567 0.951 . S
H543 C569 0.950 . S
H544 C570 0.950 . S
H545 C572 0.950 . S
H546 C575 0.950 . S
H547 C576 0.950 . S
H548 C578 0.950 . S
H549 C579 0.950 . S
C550 H532 0.951 . S
C550 C551 1.366 . S
C550 C552 1.388 . S
C551 C550 1.366 . S
C551 C555 1.385 . S
C552 H533 0.951 . S
C552 C550 1.388 . S
C552 C553 1.366 . S
C553 C552 1.366 . S
C553 C554 1.414 . S
C553 C556 1.499 . S
C554 H534 0.950 . S
C554 C553 1.414 . S
C554 C555 1.374 . S
C555 H535 0.950 . S
C555 C551 1.385 . S
C555 C554 1.374 . S
C556 C553 1.499 . S
C556 C557 1.373 . S
C556 C558 1.389 . S
C557 H536 0.950 . S
C557 C556 1.373 . S
C557 C573 1.377 . S
C558 C556 1.389 . S
C558 C559 1.524 . S
C558 C572 1.377 . S
C559 C558 1.524 . S
C559 C560 1.397 . S
C559 C564 1.363 . S
C560 H537 0.950 . S
C560 C559 1.397 . S
C560 C561 1.334 . S
C561 H538 0.950 . S
C561 C560 1.334 . S
C561 C562 1.287 . S
C562 C561 1.287 . S
C562 C563 1.524 . S
C562 H581 0.913 . S
C563 H539 0.950 . S
C563 C562 1.524 . S
C563 C564 1.415 . S
C564 H540 0.950 . S
C564 C559 1.363 . S
C564 C563 1.415 . S
C565 H541 0.951 . S
C565 C566 1.366 . S
C565 C567 1.388 . S
C566 C565 1.366 . S
C566 C570 1.385 . S
C567 H542 0.951 . S
C567 C565 1.388 . S
C567 C568 1.366 . S
C568 C567 1.366 . S
C568 C569 1.414 . S
C568 C571 1.499 . S
C569 H543 0.950 . S
C569 C568 1.414 . S
C569 C570 1.374 . S
C570 H544 0.950 . S
C570 C566 1.385 . S
C570 C569 1.374 . S
C571 C568 1.499 . S
C571 C572 1.373 . S
C571 C573 1.389 . S
C572 H545 0.950 . S
C572 C558 1.377 . S
C572 C571 1.373 . S
C573 C557 1.377 . S
C573 C571 1.389 . S
C573 C574 1.524 . S
C574 C573 1.524 . S
C574 C575 1.397 . S
C574 C579 1.363 . S
C575 H546 0.950 . S
C575 C574 1.397 . S
C575 C576 1.334 . S
C576 H547 0.950 . S
C576 C575 1.334 . S
C576 C577 1.287 . S
C577 C576 1.287 . S
C577 C578 1.524 . S
C577 H580 0.999 . S
C578 H548 0.950 . S
C578 C577 1.524 . S
C578 C579 1.415 . S
C579 H549 0.950 . S
C579 C574 1.363 . S
C579 C578 1.415 . S
H580 C577 0.999 . S
H581 C562 0.913 . S
H582 C600 0.951 . S
H583 C602 0.951 . S
H584 C604 0.950 . S
H585 C605 0.950 . S
H586 C607 0.950 . S
H587 C610 0.950 . S
H588 C611 0.950 . S
H589 C613 0.950 . S
H590 C614 0.950 . S
H591 C615 0.951 . S
H592 C617 0.951 . S
H593 C619 0.950 . S
H594 C620 0.950 1_655 S
H595 C622 0.950 . S
H596 C625 0.950 . S
H597 C626 0.950 . S
H598 C628 0.950 . S
H599 C629 0.950 . S
C600 H582 0.951 . S
C600 C601 1.366 . S
C600 C602 1.388 . S
C601 C600 1.366 . S
C601 C605 1.385 . S
C602 H583 0.951 . S
C602 C600 1.388 . S
C602 C603 1.366 . S
C603 C602 1.366 . S
C603 C604 1.414 . S
C603 C606 1.499 . S
C604 H584 0.950 . S
C604 C603 1.414 . S
C604 C605 1.374 . S
C605 H585 0.950 . S
C605 C601 1.385 . S
C605 C604 1.374 . S
C606 C603 1.499 . S
C606 C607 1.373 . S
C606 C608 1.389 . S
C607 H586 0.950 . S
C607 C606 1.373 . S
C607 C623 1.377 . S
C608 C606 1.389 . S
C608 C609 1.524 . S
C608 C622 1.377 . S
C609 C608 1.524 . S
C609 C610 1.397 . S
C609 C614 1.363 1_455 S
C610 H587 0.950 . S
C610 C609 1.397 . S
C610 C611 1.334 . S
C611 H588 0.950 . S
C611 C610 1.334 . S
C611 C612 1.287 1_455 S
C612 C611 1.287 1_655 S
C612 C613 1.524 . S
C612 H631 0.913 . S
C613 H589 0.950 . S
C613 C612 1.524 . S
C613 C614 1.415 . S
C614 H590 0.950 . S
C614 C609 1.363 1_655 S
C614 C613 1.415 . S
C615 H591 0.951 . S
C615 C616 1.366 . S
C615 C617 1.388 . S
C616 C615 1.366 . S
C616 C620 1.385 . S
C617 H592 0.951 . S
C617 C615 1.388 . S
C617 C618 1.366 . S
C618 C617 1.366 . S
C618 C619 1.414 . S
C618 C621 1.499 . S
C619 H593 0.950 . S
C619 C618 1.414 . S
C619 C620 1.374 . S
C620 H594 0.950 1_455 S
C620 C616 1.385 . S
C620 C619 1.374 . S
C621 C618 1.499 . S
C621 C622 1.373 . S
C621 C623 1.389 . S
C622 H595 0.950 . S
C622 C608 1.377 . S
C622 C621 1.373 . S
C623 C607 1.377 . S
C623 C621 1.389 . S
C623 C624 1.524 . S
C624 C623 1.524 . S
C624 C625 1.397 . S
C624 C629 1.363 . S
C625 H596 0.950 . S
C625 C624 1.397 . S
C625 C626 1.334 . S
C626 H597 0.950 . S
C626 C625 1.334 . S
C626 C627 1.287 . S
C627 C626 1.287 . S
C627 C628 1.524 . S
C627 H630 0.999 . S
C628 H598 0.950 . S
C628 C627 1.524 . S
C628 C629 1.415 . S
C629 H599 0.950 . S
C629 C624 1.363 . S
C629 C628 1.415 . S
H630 C627 0.999 . S
H631 C612 0.913 . S
H632 C650 0.951 . S
H633 C652 0.951 . S
H634 C654 0.950 1_556 S
H635 C655 0.950 . S
H636 C657 0.950 . S
H637 C660 0.950 . S
H638 C661 0.950 . S
H639 C663 0.950 . S
H640 C664 0.950 . S
H641 C665 0.951 . S
H642 C667 0.951 1_545 S
H643 C669 0.950 . S
H644 C670 0.950 . S
H645 C672 0.950 . S
H646 C675 0.950 . S
H647 C676 0.950 . S
H648 C678 0.950 . S
H649 C679 0.950 . S
C650 H632 0.951 . S
C650 C651 1.366 . S
C650 C652 1.388 . S
C651 C650 1.366 . S
C651 C655 1.385 . S
C652 H633 0.951 . S
C652 C650 1.388 . S
C652 C653 1.366 . S
C653 C652 1.366 . S
C653 C654 1.414 . S
C653 C656 1.499 1_554 S
C654 H634 0.950 1_554 S
C654 C653 1.414 . S
C654 C655 1.374 . S
C655 H635 0.950 . S
C655 C651 1.385 . S
C655 C654 1.374 . S
C656 C653 1.499 1_556 S
C656 C657 1.373 . S
C656 C658 1.392 . S
C657 H636 0.950 . S
C657 C656 1.373 . S
C657 C673 1.377 . S
C658 C656 1.392 . S
C658 C659 1.515 1_556 S
C658 C672 1.384 . S
C659 C658 1.515 1_554 S
C659 C660 1.397 1_565 S
C659 C664 1.363 . S
C660 H637 0.950 . S
C660 C659 1.397 1_545 S
C660 C661 1.334 . S
C661 H638 0.950 . S
C661 C660 1.334 . S
C661 C662 1.287 . S
C662 C661 1.287 . S
C662 C663 1.524 1_545 S
C662 H681 0.913 . S
C663 H639 0.950 . S
C663 C662 1.524 1_565 S
C663 C664 1.415 . S
C664 H640 0.950 . S
C664 C659 1.363 . S
C664 C663 1.415 . S
C665 H641 0.951 . S
C665 C666 1.366 1_545 S
C665 C667 1.388 1_545 S
C666 C665 1.366 1_565 S
C666 C670 1.385 . S
C667 H642 0.951 1_565 S
C667 C665 1.388 1_565 S
C667 C668 1.366 . S
C668 C667 1.366 . S
C668 C669 1.414 . S
C668 C671 1.499 . S
C669 H643 0.950 . S
C669 C668 1.414 . S
C669 C670 1.374 . S
C670 H644 0.950 . S
C670 C666 1.385 . S
C670 C669 1.374 . S
C671 C668 1.499 . S
C671 C672 1.373 . S
C671 C673 1.389 . S
C672 H645 0.950 . S
C672 C658 1.384 . S
C672 C671 1.373 . S
C673 C657 1.377 . S
C673 C671 1.389 . S
C673 C674 1.524 . S
C674 C673 1.524 . S
C674 C675 1.397 . S
C674 C679 1.363 . S
C675 H646 0.950 . S
C675 C674 1.397 . S
C675 C676 1.334 . S
C676 H647 0.950 . S
C676 C675 1.334 . S
C676 C677 1.287 . S
C677 C676 1.287 . S
C677 C678 1.524 . S
C677 H680 0.999 . S
C678 H648 0.950 . S
C678 C677 1.524 . S
C678 C679 1.415 . S
C679 H649 0.950 . S
C679 C674 1.363 . S
C679 C678 1.415 . S
H680 C677 0.999 . S
H681 C662 0.913 . S
H682 C700 0.951 . S
H683 C702 0.951 1_556 S
H684 C704 0.950 . S
H685 C705 0.950 . S
H686 C707 0.950 1_554 S
H687 C710 0.950 . S
H688 C711 0.950 . S
H689 C713 0.950 . S
H690 C714 0.950 . S
H691 C715 0.951 . S
H692 C717 0.951 . S
H693 C719 0.950 . S
H694 C720 0.950 . S
H695 C722 0.950 . S
H696 C725 0.950 . S
H697 C726 0.950 . S
H698 C728 0.950 . S
H699 C729 0.950 . S
C700 H682 0.951 . S
C700 C701 1.366 . S
C700 C702 1.388 . S
C701 C700 1.366 . S
C701 C705 1.385 . S
C702 H683 0.951 1_554 S
C702 C700 1.388 . S
C702 C703 1.366 . S
C703 C702 1.366 . S
C703 C704 1.414 . S
C703 C706 1.499 1_554 S
C704 H684 0.950 . S
C704 C703 1.414 . S
C704 C705 1.374 . S
C705 H685 0.950 . S
C705 C701 1.385 . S
C705 C704 1.374 . S
C706 C703 1.499 1_556 S
C706 C707 1.373 . S
C706 C708 1.389 . S
C707 H686 0.950 1_556 S
C707 C706 1.373 . S
C707 C723 1.377 . S
C708 C706 1.389 . S
C708 C709 1.524 . S
C708 C722 1.377 . S
C709 C708 1.524 . S
C709 C710 1.397 . S
C709 C714 1.363 . S
C710 H687 0.950 . S
C710 C709 1.397 . S
C710 C711 1.334 . S
C711 H688 0.950 . S
C711 C710 1.334 . S
C711 C712 1.287 . S
C712 C711 1.287 . S
C712 C713 1.524 . S
C712 H731 0.913 . S
C713 H689 0.950 . S
C713 C712 1.524 . S
C713 C714 1.415 . S
C714 H690 0.950 . S
C714 C709 1.363 . S
C714 C713 1.415 . S
C715 H691 0.951 . S
C715 C716 1.366 . S
C715 C717 1.388 . S
C716 C715 1.366 . S
C716 C720 1.385 . S
C717 H692 0.951 . S
C717 C715 1.388 . S
C717 C718 1.366 . S
C718 C717 1.366 . S
C718 C719 1.414 . S
C718 C721 1.499 . S
C719 H693 0.950 . S
C719 C718 1.414 . S
C719 C720 1.374 . S
C720 H694 0.950 . S
C720 C716 1.385 . S
C720 C719 1.374 . S
C721 C718 1.499 . S
C721 C722 1.373 . S
C721 C723 1.389 . S
C722 H695 0.950 . S
C722 C708 1.377 . S
C722 C721 1.373 . S
C723 C707 1.377 . S
C723 C721 1.389 . S
C723 C724 1.524 . S
C724 C723 1.524 . S
C724 C725 1.397 . S
C724 C729 1.363 1_556 S
C725 H696 0.950 . S
C725 C724 1.397 . S
C725 C726 1.334 . S
C726 H697 0.950 . S
C726 C725 1.334 . S
C726 C727 1.287 1_556 S
C727 C726 1.287 1_554 S
C727 C728 1.524 . S
C727 H730 0.999 . S
C728 H698 0.950 . S
C728 C727 1.524 . S
C728 C729 1.415 . S
C729 H699 0.950 . S
C729 C724 1.363 1_554 S
C729 C728 1.415 . S
H730 C727 0.999 . S
H731 C712 0.913 . S
H732 C750 0.951 . S
H733 C752 0.951 . S
H734 C754 0.951 . S
H735 C755 0.950 . S
H736 C757 0.950 . S
H737 C760 0.950 . S
H738 C761 0.950 . S
H739 C763 0.950 . S
H740 C764 0.950 . S
H741 C765 0.951 . S
H742 C767 0.951 . S
H743 C769 0.950 . S
H744 C770 0.950 . S
H745 C772 0.950 . S
H746 C775 0.950 . S
H747 C776 0.950 . S
H748 C778 0.950 . S
H749 C779 0.950 . S
C750 H732 0.951 . S
C750 C751 1.366 . S
C750 C752 1.388 . S
C751 C750 1.366 . S
C751 C755 1.385 . S
C752 H733 0.951 . S
C752 C750 1.388 . S
C752 C753 1.366 . S
C753 C752 1.366 . S
C753 C754 1.414 1_554 S
C753 C756 1.499 1_554 S
C754 H734 0.951 . S
C754 C753 1.414 1_556 S
C754 C755 1.373 1_556 S
C755 H735 0.950 . S
C755 C751 1.385 . S
C755 C754 1.373 1_554 S
C756 C753 1.499 1_556 S
C756 C757 1.373 . S
C756 C758 1.389 . S
C757 H736 0.950 . S
C757 C756 1.373 . S
C757 C773 1.377 . S
C758 C756 1.389 . S
C758 C759 1.524 1_556 S
C758 C772 1.377 . S
C759 C758 1.524 1_554 S
C759 C760 1.397 . S
C759 C764 1.363 . S
C760 H737 0.950 . S
C760 C759 1.397 . S
C760 C761 1.334 . S
C761 H738 0.950 . S
C761 C760 1.334 . S
C761 C762 1.287 . S
C762 C761 1.287 . S
C762 C763 1.524 . S
C762 H781 0.913 . S
C763 H739 0.950 . S
C763 C762 1.524 . S
C763 C764 1.415 . S
C764 H740 0.950 . S
C764 C759 1.363 . S
C764 C763 1.415 . S
C765 H741 0.951 . S
C765 C766 1.366 . S
C765 C767 1.388 . S
C766 C765 1.366 . S
C766 C770 1.385 . S
C767 H742 0.951 . S
C767 C765 1.388 . S
C767 C768 1.366 . S
C768 C767 1.366 . S
C768 C769 1.414 . S
C768 C771 1.499 . S
C769 H743 0.950 . S
C769 C768 1.414 . S
C769 C770 1.374 . S
C770 H744 0.950 . S
C770 C766 1.385 . S
C770 C769 1.374 . S
C771 C768 1.499 . S
C771 C772 1.373 . S
C771 C773 1.389 . S
C772 H745 0.950 . S
C772 C758 1.377 . S
C772 C771 1.373 . S
C773 C757 1.377 . S
C773 C771 1.389 . S
C773 C774 1.524 . S
C774 C773 1.524 . S
C774 C775 1.397 . S
C774 C779 1.363 . S
C775 H746 0.950 . S
C775 C774 1.397 . S
C775 C776 1.334 . S
C776 H747 0.950 . S
C776 C775 1.334 . S
C776 C777 1.287 . S
C777 C776 1.287 . S
C777 C778 1.524 . S
C777 H780 0.999 . S
C778 H748 0.950 . S
C778 C777 1.524 . S
C778 C779 1.415 . S
C779 H749 0.950 . S
C779 C774 1.363 . S
C779 C778 1.415 . S
H780 C777 0.999 . S
H781 C762 0.913 . S
H782 C800 0.951 . S
H783 C802 0.951 1_556 S
H784 C804 0.950 . S
H785 C805 0.950 . S
H786 C807 0.950 . S
H787 C810 0.950 . S
H788 C811 0.950 . S
H789 C813 0.950 . S
H790 C814 0.950 . S
H791 C815 0.951 1_455 S
H792 C817 0.971 . S
H793 C819 0.950 . S
H794 C820 0.950 . S
H795 C822 0.950 . S
H796 C825 0.950 . S
H797 C826 0.950 . S
H798 C828 0.950 . S
H799 C829 0.950 1_554 S
C800 H782 0.951 . S
C800 C801 1.366 . S
C800 C802 1.388 . S
C801 C800 1.366 . S
C801 C805 1.385 . S
C802 H783 0.951 1_554 S
C802 C800 1.388 . S
C802 C803 1.366 . S
C803 C802 1.366 . S
C803 C804 1.414 . S
C803 C806 1.499 1_554 S
C804 H784 0.950 . S
C804 C803 1.414 . S
C804 C805 1.374 . S
C805 H785 0.950 . S
C805 C801 1.385 . S
C805 C804 1.374 . S
C806 C803 1.499 1_556 S
C806 C807 1.373 . S
C806 C808 1.389 . S
C807 H786 0.950 . S
C807 C806 1.373 . S
C807 C823 1.377 . S
C808 C806 1.389 . S
C808 C809 1.524 . S
C808 C822 1.377 . S
C809 C808 1.524 . S
C809 C810 1.397 1_556 S
C809 C814 1.363 . S
C810 H787 0.950 . S
C810 C809 1.397 1_554 S
C810 C811 1.334 . S
C811 H788 0.950 . S
C811 C810 1.334 . S
C811 C812 1.287 1_554 S
C812 C811 1.287 1_556 S
C812 C813 1.524 . S
C812 H831 0.913 . S
C813 H789 0.950 . S
C813 C812 1.524 . S
C813 C814 1.415 . S
C814 H790 0.950 . S
C814 C809 1.363 . S
C814 C813 1.415 . S
C815 H791 0.951 1_655 S
C815 C816 1.366 . S
C815 C817 1.388 . S
C816 C815 1.366 . S
C816 C820 1.385 . S
C817 H792 0.971 . S
C817 C815 1.388 . S
C817 C818 1.366 . S
C818 C817 1.366 . S
C818 C819 1.414 . S
C818 C821 1.499 . S
C819 H793 0.950 . S
C819 C818 1.414 . S
C819 C820 1.374 . S
C820 H794 0.950 . S
C820 C816 1.385 . S
C820 C819 1.374 . S
C821 C818 1.499 . S
C821 C822 1.373 . S
C821 C823 1.389 . S
C822 H795 0.950 . S
C822 C808 1.377 . S
C822 C821 1.373 . S
C823 C807 1.377 . S
C823 C821 1.389 . S
C823 C824 1.524 1_655 S
C824 C823 1.524 1_455 S
C824 C825 1.397 . S
C824 C829 1.363 . S
C825 H796 0.950 . S
C825 C824 1.397 . S
C825 C826 1.334 . S
C826 H797 0.950 . S
C826 C825 1.334 . S
C826 C827 1.287 . S
C827 C826 1.287 . S
C827 C828 1.524 . S
C827 H830 0.999 . S
C828 H798 0.950 . S
C828 C827 1.524 . S
C828 C829 1.415 . S
C829 H799 0.950 1_556 S
C829 C824 1.363 . S
C829 C828 1.415 . S
H830 C827 0.999 . S
H831 C812 0.913 . S
H832 C850 0.951 . S
H833 C852 0.951 . S
H834 C854 0.950 . S
H835 C855 0.950 . S
H836 C857 0.950 . S
H837 C860 0.950 . S
H838 C861 0.950 . S
H839 C863 0.950 . S
H840 C864 0.950 . S
H841 C865 0.951 . S
H842 C867 0.951 1_655 S
H843 C869 0.950 . S
H844 C870 0.950 . S
H845 C872 0.950 . S
H846 C875 0.950 1_455 S
H847 C876 0.950 . S
H848 C878 0.950 . S
H849 C879 0.950 . S
C850 H832 0.951 . S
C850 C851 1.366 . S
C850 C852 1.388 . S
C851 C850 1.366 . S
C851 C855 1.385 . S
C852 H833 0.951 . S
C852 C850 1.388 . S
C852 C853 1.366 . S
C853 C852 1.366 . S
C853 C854 1.414 . S
C853 C856 1.499 . S
C854 H834 0.950 . S
C854 C853 1.414 . S
C854 C855 1.374 . S
C855 H835 0.950 . S
C855 C851 1.385 . S
C855 C854 1.374 . S
C856 C853 1.499 . S
C856 C857 1.373 . S
C856 C858 1.389 . S
C857 H836 0.950 . S
C857 C856 1.373 . S
C857 C873 1.377 . S
C858 C856 1.389 . S
C858 C859 1.524 . S
C858 C872 1.377 . S
C859 C858 1.524 . S
C859 C860 1.397 . S
C859 C864 1.363 . S
C860 H837 0.950 . S
C860 C859 1.397 . S
C860 C861 1.334 . S
C861 H838 0.950 . S
C861 C860 1.334 . S
C861 C862 1.287 . S
C862 C861 1.287 . S
C862 C863 1.524 . S
C862 H881 0.913 . S
C863 H839 0.950 . S
C863 C862 1.524 . S
C863 C864 1.415 . S
C864 H840 0.950 . S
C864 C859 1.363 . S
C864 C863 1.415 . S
C865 H841 0.951 . S
C865 C866 1.366 1_655 S
C865 C867 1.388 1_655 S
C866 C865 1.366 1_455 S
C866 C870 1.385 . S
C867 H842 0.951 1_455 S
C867 C865 1.388 1_455 S
C867 C868 1.366 . S
C868 C867 1.366 . S
C868 C869 1.414 . S
C868 C871 1.499 . S
C869 H843 0.950 . S
C869 C868 1.414 . S
C869 C870 1.374 . S
C870 H844 0.950 . S
C870 C866 1.385 . S
C870 C869 1.374 . S
C871 C868 1.499 . S
C871 C872 1.373 . S
C871 C873 1.389 . S
C872 H845 0.950 . S
C872 C858 1.377 . S
C872 C871 1.373 . S
C873 C857 1.377 . S
C873 C871 1.389 . S
C873 C874 1.524 1_455 S
C874 C873 1.524 1_655 S
C874 C875 1.397 . S
C874 C879 1.363 . S
C875 H846 0.950 1_655 S
C875 C874 1.397 . S
C875 C876 1.334 . S
C876 H847 0.950 . S
C876 C875 1.334 . S
C876 C877 1.287 . S
C877 C876 1.287 . S
C877 C878 1.524 . S
C877 H880 0.999 . S
C878 H848 0.950 . S
C878 C877 1.524 . S
C878 C879 1.415 . S
C879 H849 0.950 . S
C879 C874 1.363 . S
C879 C878 1.415 . S
H880 C877 0.999 . S
H881 C862 0.913 . S
H882 C900 0.951 . S
H883 C902 0.951 . S
H884 C904 0.950 . S
H885 C905 0.950 . S
H886 C907 0.950 . S
H887 C910 0.950 . S
H888 C911 0.950 . S
H889 C913 0.950 . S
H890 C914 0.950 . S
H891 C915 0.951 . S
H892 C917 0.951 1_565 S
H893 C919 0.950 . S
H894 C920 0.950 . S
H895 C922 0.950 . S
H896 C925 0.950 . S
H897 C926 0.950 . S
H898 C928 0.950 . S
H899 C929 0.950 . S
C900 H882 0.951 . S
C900 C901 1.366 . S
C900 C902 1.388 . S
C901 C900 1.366 . S
C901 C905 1.385 . S
C902 H883 0.951 . S
C902 C900 1.388 . S
C902 C903 1.366 . S
C903 C902 1.366 . S
C903 C904 1.414 . S
C903 C906 1.499 . S
C904 H884 0.950 . S
C904 C903 1.414 . S
C904 C905 1.374 . S
C905 H885 0.950 . S
C905 C901 1.385 . S
C905 C904 1.374 . S
C906 C903 1.499 . S
C906 C907 1.373 . S
C906 C908 1.389 . S
C907 H886 0.950 . S
C907 C906 1.373 . S
C907 C923 1.377 . S
C908 C906 1.389 . S
C908 C909 1.524 . S
C908 C922 1.377 . S
C909 C908 1.524 . S
C909 C910 1.397 . S
C909 C914 1.363 . S
C910 H887 0.950 . S
C910 C909 1.397 . S
C910 C911 1.334 1_554 S
C911 H888 0.950 . S
C911 C910 1.334 1_556 S
C911 C912 1.287 . S
C912 C911 1.287 . S
C912 C913 1.524 . S
C912 H931 0.913 . S
C913 H889 0.950 . S
C913 C912 1.524 . S
C913 C914 1.415 1_556 S
C914 H890 0.950 . S
C914 C909 1.363 . S
C914 C913 1.415 1_554 S
C915 H891 0.951 . S
C915 C916 1.366 1_565 S
C915 C917 1.388 1_565 S
C916 C915 1.366 1_545 S
C916 C920 1.385 . S
C917 H892 0.951 1_545 S
C917 C915 1.388 1_545 S
C917 C918 1.366 . S
C918 C917 1.366 . S
C918 C919 1.414 . S
C918 C921 1.499 . S
C919 H893 0.950 . S
C919 C918 1.414 . S
C919 C920 1.374 . S
C920 H894 0.950 . S
C920 C916 1.385 . S
C920 C919 1.374 . S
C921 C918 1.499 . S
C921 C922 1.373 . S
C921 C923 1.389 . S
C922 H895 0.950 . S
C922 C908 1.377 . S
C922 C921 1.373 . S
C923 C907 1.377 . S
C923 C921 1.389 . S
C923 C924 1.524 . S
C924 C923 1.524 . S
C924 C925 1.397 . S
C924 C929 1.363 . S
C925 H896 0.950 . S
C925 C924 1.397 . S
C925 C926 1.334 . S
C926 H897 0.950 . S
C926 C925 1.334 . S
C926 C927 1.287 . S
C927 C926 1.287 . S
C927 C928 1.524 . S
C927 H930 0.999 . S
C928 H898 0.950 . S
C928 C927 1.524 . S
C928 C929 1.415 . S
C929 H899 0.950 . S
C929 C924 1.363 . S
C929 C928 1.415 . S
H930 C927 0.999 . S
H931 C912 0.913 . S
H932 C950 0.951 . S
H933 C952 0.951 . S
H934 C954 0.950 . S
H935 C955 0.950 . S
H936 C957 0.950 . S
H937 C960 0.950 . S
H938 C961 0.950 . S
H939 C963 0.950 . S
H940 C964 0.950 . S
H941 C965 0.951 . S
H942 C967 0.951 . S
H943 C969 0.950 . S
H944 C970 0.950 . S
H945 C972 0.950 . S
H946 C975 0.950 . S
H947 C976 0.950 . S
H948 C978 0.950 . S
H949 C979 0.950 . S
C950 H932 0.951 . S
C950 C951 1.366 . S
C950 C952 1.388 . S
C951 C950 1.366 . S
C951 C955 1.385 . S
C952 H933 0.951 . S
C952 C950 1.388 . S
C952 C953 1.366 . S
C953 C952 1.366 . S
C953 C954 1.414 . S
C953 C956 1.499 . S
C954 H934 0.950 . S
C954 C953 1.414 . S
C954 C955 1.374 . S
C955 H935 0.950 . S
C955 C951 1.385 . S
C955 C954 1.374 . S
C956 C953 1.499 . S
C956 C957 1.373 . S
C956 C958 1.389 . S
C957 H936 0.950 . S
C957 C956 1.373 . S
C957 C973 1.377 . S
C958 C956 1.389 . S
C958 C959 1.524 . S
C958 C972 1.377 . S
C959 C958 1.524 . S
C959 C960 1.397 . S
C959 C964 1.363 . S
C960 H937 0.950 . S
C960 C959 1.397 . S
C960 C961 1.334 . S
C961 H938 0.950 . S
C961 C960 1.334 . S
C961 C962 1.287 . S
C962 C961 1.287 . S
C962 C963 1.524 . S
C962 H981 0.913 . S
C963 H939 0.950 . S
C963 C962 1.524 . S
C963 C964 1.415 . S
C964 H940 0.950 . S
C964 C959 1.363 . S
C964 C963 1.415 . S
C965 H941 0.951 . S
C965 C966 1.366 . S
C965 C967 1.388 . S
C966 C965 1.366 . S
C966 C970 1.385 . S
C967 H942 0.951 . S
C967 C965 1.388 . S
C967 C968 1.366 . S
C968 C967 1.366 . S
C968 C969 1.414 . S
C968 C971 1.499 . S
C969 H943 0.950 . S
C969 C968 1.414 . S
C969 C970 1.374 . S
C970 H944 0.950 . S
C970 C966 1.385 . S
C970 C969 1.374 . S
C971 C968 1.499 . S
C971 C972 1.373 . S
C971 C973 1.389 . S
C972 H945 0.950 . S
C972 C958 1.377 . S
C972 C971 1.373 . S
C973 C957 1.377 . S
C973 C971 1.389 . S
C973 C974 1.524 . S
C974 C973 1.524 . S
C974 C975 1.397 . S
C974 C979 1.363 . S
C975 H946 0.950 . S
C975 C974 1.397 . S
C975 C976 1.334 . S
C976 H947 0.950 . S
C976 C975 1.334 . S
C976 C977 1.287 . S
C977 C976 1.287 . S
C977 C978 1.524 . S
C977 H980 0.999 . S
C978 H948 0.950 . S
C978 C977 1.524 . S
C978 C979 1.415 . S
C979 H949 0.950 . S
C979 C974 1.363 . S
C979 C978 1.415 . S
H980 C977 0.999 . S
H981 C962 0.913 . S
H982 C1000 0.951 . S
H983 C1002 0.951 . S
H984 C1004 0.950 . S
H985 C1005 0.950 . S
H986 C1007 0.950 . S
H987 C1010 0.950 . S
H988 C1011 0.950 . S
H989 C1013 0.950 . S
H990 C1014 0.950 . S
H991 C1015 0.951 . S
H992 C1017 0.951 . S
H993 C1019 0.950 . S
H994 C1020 0.950 . S
H995 C1022 0.950 . S
H996 C1025 0.950 . S
H997 C1026 0.950 . S
H998 C1028 0.950 1_556 S
H999 C1029 0.950 . S
C1000 H982 0.951 . S
C1000 C1001 1.366 . S
C1000 C1002 1.388 . S
C1001 C1000 1.366 . S
C1001 C1005 1.385 . S
C1002 H983 0.951 . S
C1002 C1000 1.388 . S
C1002 C1003 1.366 . S
C1003 C1002 1.366 . S
C1003 C1004 1.414 . S
C1003 C1006 1.499 . S
C1004 H984 0.950 . S
C1004 C1003 1.414 . S
C1004 C1005 1.374 . S
C1005 H985 0.950 . S
C1005 C1001 1.385 . S
C1005 C1004 1.374 . S
C1006 C1003 1.499 . S
C1006 C1007 1.373 . S
C1006 C1008 1.389 . S
C1007 H986 0.950 . S
C1007 C1006 1.373 . S
C1007 C1023 1.377 . S
C1008 C1006 1.389 . S
C1008 C1009 1.524 . S
C1008 C1022 1.377 . S
C1009 C1008 1.524 . S
C1009 C1010 1.397 . S
C1009 C1014 1.363 . S
C1010 H987 0.950 . S
C1010 C1009 1.397 . S
C1010 C1011 1.334 . S
C1011 H988 0.950 . S
C1011 C1010 1.334 . S
C1011 C1012 1.287 . S
C1012 C1011 1.287 . S
C1012 C1013 1.524 . S
C1012 H1031 0.913 . S
C1013 H989 0.950 . S
C1013 C1012 1.524 . S
C1013 C1014 1.415 . S
C1014 H990 0.950 . S
C1014 C1009 1.363 . S
C1014 C1013 1.415 . S
C1015 H991 0.951 . S
C1015 C1016 1.366 . S
C1015 C1017 1.388 . S
C1016 C1015 1.366 . S
C1016 C1020 1.385 . S
C1017 H992 0.951 . S
C1017 C1015 1.388 . S
C1017 C1018 1.366 . S
C1018 C1017 1.366 . S
C1018 C1019 1.414 . S
C1018 C1021 1.499 . S
C1019 H993 0.950 . S
C1019 C1018 1.414 . S
C1019 C1020 1.374 . S
C1020 H994 0.950 . S
C1020 C1016 1.385 . S
C1020 C1019 1.374 . S
C1021 C1018 1.499 . S
C1021 C1022 1.373 . S
C1021 C1023 1.389 . S
C1022 H995 0.950 . S
C1022 C1008 1.377 . S
C1022 C1021 1.373 . S
C1023 C1007 1.377 . S
C1023 C1021 1.389 . S
C1023 C1024 1.524 . S
C1024 C1023 1.524 . S
C1024 C1025 1.397 . S
C1024 C1029 1.363 . S
C1025 H996 0.950 . S
C1025 C1024 1.397 . S
C1025 C1026 1.334 . S
C1026 H997 0.950 . S
C1026 C1025 1.334 . S
C1026 C1027 1.287 . S
C1027 C1026 1.287 . S
C1027 C1028 1.524 . S
C1027 H1030 0.999 . S
C1028 H998 0.950 1_554 S
C1028 C1027 1.524 . S
C1028 C1029 1.415 . S
C1029 H999 0.950 . S
C1029 C1024 1.363 . S
C1029 C1028 1.415 . S
H1030 C1027 0.999 . S
H1031 C1012 0.913 . S
H1032 C1050 0.951 . S
H1033 C1052 0.951 . S
H1034 C1054 0.950 1_556 S
H1035 C1055 0.950 . S
H1036 C1057 0.950 . S
H1037 C1060 0.950 . S
H1038 C1061 0.950 . S
H1039 C1063 0.950 . S
H1040 C1064 0.950 . S
H1041 C1065 0.951 . S
H1042 C1067 0.951 . S
H1043 C1069 0.950 1_554 S
H1044 C1070 0.950 . S
H1045 C1072 0.950 . S
H1046 C1075 0.950 . S
H1047 C1076 0.950 . S
H1048 C1078 0.950 . S
H1049 C1079 0.950 1_655 S
C1050 H1032 0.951 . S
C1050 C1051 1.366 . S
C1050 C1052 1.388 . S
C1051 C1050 1.366 . S
C1051 C1055 1.385 . S
C1052 H1033 0.951 . S
C1052 C1050 1.388 . S
C1052 C1053 1.366 . S
C1053 C1052 1.366 . S
C1053 C1054 1.414 . S
C1053 C1056 1.499 . S
C1054 H1034 0.950 1_554 S
C1054 C1053 1.414 . S
C1054 C1055 1.374 . S
C1055 H1035 0.950 . S
C1055 C1051 1.385 . S
C1055 C1054 1.374 . S
C1056 C1053 1.499 . S
C1056 C1057 1.373 1_554 S
C1056 C1058 1.389 . S
C1057 H1036 0.950 . S
C1057 C1056 1.373 1_556 S
C1057 C1073 1.377 . S
C1058 C1056 1.389 . S
C1058 C1059 1.524 . S
C1058 C1072 1.377 . S
C1059 C1058 1.524 . S
C1059 C1060 1.397 . S
C1059 C1064 1.363 . S
C1060 H1037 0.950 . S
C1060 C1059 1.397 . S
C1060 C1061 1.334 . S
C1061 H1038 0.950 . S
C1061 C1060 1.334 . S
C1061 C1062 1.287 . S
C1062 C1061 1.287 . S
C1062 C1063 1.524 . S
C1062 H1081 0.913 . S
C1063 H1039 0.950 . S
C1063 C1062 1.524 . S
C1063 C1064 1.415 . S
C1064 H1040 0.950 . S
C1064 C1059 1.363 . S
C1064 C1063 1.415 . S
C1065 H1041 0.951 . S
C1065 C1066 1.366 1_655 S
C1065 C1067 1.388 . S
C1066 C1065 1.366 1_455 S
C1066 C1070 1.385 . S
C1067 H1042 0.951 . S
C1067 C1065 1.388 . S
C1067 C1068 1.366 . S
C1068 C1067 1.366 . S
C1068 C1069 1.414 . S
C1068 C1071 1.499 . S
C1069 H1043 0.950 1_556 S
C1069 C1068 1.414 . S
C1069 C1070 1.374 1_655 S
C1070 H1044 0.950 . S
C1070 C1066 1.385 . S
C1070 C1069 1.374 1_455 S
C1071 C1068 1.499 . S
C1071 C1072 1.373 1_556 S
C1071 C1073 1.389 . S
C1072 H1045 0.950 . S
C1072 C1058 1.377 . S
C1072 C1071 1.373 1_554 S
C1073 C1057 1.377 . S
C1073 C1071 1.389 . S
C1073 C1074 1.524 1_655 S
C1074 C1073 1.524 1_455 S
C1074 C1075 1.397 . S
C1074 C1079 1.363 . S
C1075 H1046 0.950 . S
C1075 C1074 1.397 . S
C1075 C1076 1.334 . S
C1076 H1047 0.950 . S
C1076 C1075 1.334 . S
C1076 C1077 1.287 . S
C1077 C1076 1.287 . S
C1077 C1078 1.524 . S
C1077 H1080 0.999 . S
C1078 H1048 0.950 . S
C1078 C1077 1.524 . S
C1078 C1079 1.415 . S
C1079 H1049 0.950 1_455 S
C1079 C1074 1.363 . S
C1079 C1078 1.415 . S
H1080 C1077 0.999 . S
H1081 C1062 0.913 . S
H1082 C1100 0.951 . S
H1083 C1102 0.951 . S
H1084 C1104 0.957 . S
H1085 C1105 0.950 . S
H1086 C1107 0.950 . S
H1087 C1110 0.950 . S
H1088 C1111 0.950 . S
H1089 C1113 0.950 . S
H1090 C1114 0.950 . S
H1091 C1115 0.951 . S
H1092 C1117 0.951 . S
H1093 C1119 0.950 1_554 S
H1094 C1120 0.950 . S
H1095 C1122 0.950 . S
H1096 C1125 0.950 . S
H1097 C1126 0.950 . S
H1098 C1128 0.950 . S
H1099 C1129 0.950 . S
C1100 H1082 0.951 . S
C1100 C1101 1.366 . S
C1100 C1102 1.388 . S
C1101 C1100 1.366 . S
C1101 C1105 1.385 . S
C1102 H1083 0.951 . S
C1102 C1100 1.388 . S
C1102 C1103 1.366 . S
C1103 C1102 1.366 . S
C1103 C1104 1.414 . S
C1103 C1106 1.499 . S
C1104 H1084 0.957 . S
C1104 C1103 1.414 . S
C1104 C1105 1.374 . S
C1105 H1085 0.950 . S
C1105 C1101 1.385 . S
C1105 C1104 1.374 . S
C1106 C1103 1.499 . S
C1106 C1107 1.373 1_554 S
C1106 C1108 1.389 . S
C1107 H1086 0.950 . S
C1107 C1106 1.373 1_556 S
C1107 C1123 1.377 . S
C1108 C1106 1.389 . S
C1108 C1109 1.524 . S
C1108 C1122 1.377 . S
C1109 C1108 1.524 . S
C1109 C1110 1.397 . S
C1109 C1114 1.363 . S
C1110 H1087 0.950 . S
C1110 C1109 1.397 . S
C1110 C1111 1.334 . S
C1111 H1088 0.950 . S
C1111 C1110 1.334 . S
C1111 C1112 1.287 . S
C1112 C1111 1.287 . S
C1112 C1113 1.524 . S
C1112 H1131 0.913 . S
C1113 H1089 0.950 . S
C1113 C1112 1.524 . S
C1113 C1114 1.415 . S
C1114 H1090 0.950 . S
C1114 C1109 1.363 . S
C1114 C1113 1.415 . S
C1115 H1091 0.951 . S
C1115 C1116 1.366 1_565 S
C1115 C1117 1.388 . S
C1116 C1115 1.366 1_545 S
C1116 C1120 1.385 . S
C1117 H1092 0.951 . S
C1117 C1115 1.388 . S
C1117 C1118 1.366 . S
C1118 C1117 1.366 . S
C1118 C1119 1.414 1_565 S
C1118 C1121 1.499 . S
C1119 H1093 0.950 1_556 S
C1119 C1118 1.414 1_545 S
C1119 C1120 1.374 . S
C1120 H1094 0.950 . S
C1120 C1116 1.385 . S
C1120 C1119 1.374 . S
C1121 C1118 1.499 . S
C1121 C1122 1.373 1_556 S
C1121 C1123 1.389 . S
C1122 H1095 0.950 . S
C1122 C1108 1.377 . S
C1122 C1121 1.373 1_554 S
C1123 C1107 1.377 . S
C1123 C1121 1.389 . S
C1123 C1124 1.524 1_565 S
C1124 C1123 1.524 1_545 S
C1124 C1125 1.397 . S
C1124 C1129 1.363 1_545 S
C1125 H1096 0.950 . S
C1125 C1124 1.397 . S
C1125 C1126 1.334 . S
C1126 H1097 0.950 . S
C1126 C1125 1.334 . S
C1126 C1127 1.287 . S
C1127 C1126 1.287 . S
C1127 C1128 1.524 . S
C1127 H1130 0.999 . S
C1128 H1098 0.950 . S
C1128 C1127 1.524 . S
C1128 C1129 1.415 1_545 S
C1129 H1099 0.950 . S
C1129 C1124 1.363 1_565 S
C1129 C1128 1.415 1_565 S
H1130 C1127 0.999 . S
H1131 C1112 0.913 . S
H1132 C1150 0.951 . S
H1133 C1152 0.951 1_556 S
H1134 C1154 0.950 . S
H1135 C1155 0.950 . S
H1136 C1157 0.950 . S
H1137 C1160 0.950 . S
H1138 C1161 0.950 1_554 S
H1139 C1163 0.950 . S
H1140 C1164 0.950 . S
H1141 C1165 0.951 . S
H1142 C1167 0.951 1_554 S
H1143 C1169 0.950 . S
H1144 C1170 0.950 . S
H1145 C1172 0.950 . S
H1146 C1175 0.950 1_556 S
H1147 C1176 0.939 1_556 S
H1148 C1178 0.950 . S
H1149 C1179 0.950 . S
C1150 H1132 0.951 . S
C1150 C1151 1.366 . S
C1150 C1152 1.388 . S
C1151 C1150 1.366 . S
C1151 C1155 1.385 . S
C1152 H1133 0.951 1_554 S
C1152 C1150 1.388 . S
C1152 C1153 1.366 . S
C1153 C1152 1.366 . S
C1153 C1154 1.414 . S
C1153 C1156 1.499 . S
C1154 H1134 0.950 . S
C1154 C1153 1.414 . S
C1154 C1155 1.374 . S
C1155 H1135 0.950 . S
C1155 C1151 1.385 . S
C1155 C1154 1.374 . S
C1156 C1153 1.499 . S
C1156 C1157 1.373 . S
C1156 C1158 1.389 1_554 S
C1157 H1136 0.950 . S
C1157 C1156 1.373 . S
C1157 C1173 1.377 . S
C1158 C1156 1.389 1_556 S
C1158 C1159 1.524 . S
C1158 C1172 1.377 . S
C1159 C1158 1.524 . S
C1159 C1160 1.397 1_556 S
C1159 C1164 1.363 . S
C1160 H1137 0.950 . S
C1160 C1159 1.397 1_554 S
C1160 C1161 1.334 1_554 S
C1161 H1138 0.950 1_556 S
C1161 C1160 1.334 1_556 S
C1161 C1162 1.287 . S
C1162 C1161 1.287 . S
C1162 C1163 1.524 . S
C1162 H1181 0.913 . S
C1163 H1139 0.950 . S
C1163 C1162 1.524 . S
C1163 C1164 1.415 . S
C1164 H1140 0.950 . S
C1164 C1159 1.363 . S
C1164 C1163 1.415 . S
C1165 H1141 0.951 . S
C1165 C1166 1.366 . S
C1165 C1167 1.388 . S
C1166 C1165 1.366 . S
C1166 C1170 1.385 . S
C1167 H1142 0.951 1_556 S
C1167 C1165 1.388 . S
C1167 C1168 1.366 . S
C1168 C1167 1.366 . S
C1168 C1169 1.414 . S
C1168 C1171 1.499 . S
C1169 H1143 0.950 . S
C1169 C1168 1.414 . S
C1169 C1170 1.374 . S
C1170 H1144 0.950 . S
C1170 C1166 1.385 . S
C1170 C1169 1.374 . S
C1171 C1168 1.499 . S
C1171 C1172 1.373 . S
C1171 C1173 1.389 1_556 S
C1172 H1145 0.950 . S
C1172 C1158 1.377 . S
C1172 C1171 1.373 . S
C1173 C1157 1.377 . S
C1173 C1171 1.389 1_554 S
C1173 C1174 1.524 . S
C1174 C1173 1.524 . S
C1174 C1175 1.397 . S
C1174 C1179 1.363 . S
C1175 H1146 0.950 1_554 S
C1175 C1174 1.397 . S
C1175 C1176 1.334 . S
C1176 H1147 0.939 1_554 S
C1176 C1175 1.334 . S
C1176 C1177 1.287 . S
C1177 C1176 1.287 . S
C1177 C1178 1.524 . S
C1177 H1180 0.999 . S
C1178 H1148 0.950 . S
C1178 C1177 1.524 . S
C1178 C1179 1.415 . S
C1179 H1149 0.950 . S
C1179 C1174 1.363 . S
C1179 C1178 1.415 . S
H1180 C1177 0.999 . S
H1181 C1162 0.913 . S
H1182 C1200 0.951 . S
H1183 C1202 0.951 1_556 S
H1184 C1204 0.950 . S
H1185 C1205 0.950 . S
H1186 C1207 0.950 . S
H1187 C1210 0.950 1_554 S
H1188 C1211 0.950 . S
H1189 C1213 0.950 . S
H1190 C1214 0.950 . S
H1191 C1215 0.951 . S
H1192 C1217 0.951 1_554 S
H1193 C1219 0.950 . S
H1194 C1220 0.950 . S
H1195 C1222 0.950 . S
H1196 C1225 0.950 1_556 S
H1197 C1226 0.950 . S
H1198 C1228 0.950 . S
H1199 C1229 0.950 . S
C1200 H1182 0.951 . S
C1200 C1201 1.366 . S
C1200 C1202 1.388 . S
C1201 C1200 1.366 . S
C1201 C1205 1.385 . S
C1202 H1183 0.951 1_554 S
C1202 C1200 1.388 . S
C1202 C1203 1.366 . S
C1203 C1202 1.366 . S
C1203 C1204 1.414 . S
C1203 C1206 1.499 . S
C1204 H1184 0.950 . S
C1204 C1203 1.414 . S
C1204 C1205 1.374 . S
C1205 H1185 0.950 . S
C1205 C1201 1.385 . S
C1205 C1204 1.374 . S
C1206 C1203 1.499 . S
C1206 C1207 1.373 . S
C1206 C1208 1.389 1_554 S
C1207 H1186 0.950 . S
C1207 C1206 1.373 . S
C1207 C1223 1.377 . S
C1208 C1206 1.389 1_556 S
C1208 C1209 1.524 . S
C1208 C1222 1.377 . S
C1209 C1208 1.524 . S
C1209 C1210 1.397 . S
C1209 C1214 1.363 . S
C1210 H1187 0.950 1_556 S
C1210 C1209 1.397 . S
C1210 C1211 1.334 . S
C1211 H1188 0.950 . S
C1211 C1210 1.334 . S
C1211 C1212 1.287 . S
C1212 C1211 1.287 . S
C1212 C1213 1.524 . S
C1212 H1231 0.913 . S
C1213 H1189 0.950 . S
C1213 C1212 1.524 . S
C1213 C1214 1.415 . S
C1214 H1190 0.950 . S
C1214 C1209 1.363 . S
C1214 C1213 1.415 . S
C1215 H1191 0.951 . S
C1215 C1216 1.366 . S
C1215 C1217 1.388 . S
C1216 C1215 1.366 . S
C1216 C1220 1.385 . S
C1217 H1192 0.951 1_556 S
C1217 C1215 1.388 . S
C1217 C1218 1.366 . S
C1218 C1217 1.366 . S
C1218 C1219 1.414 . S
C1218 C1221 1.499 . S
C1219 H1193 0.950 . S
C1219 C1218 1.414 . S
C1219 C1220 1.374 . S
C1220 H1194 0.950 . S
C1220 C1216 1.385 . S
C1220 C1219 1.374 . S
C1221 C1218 1.499 . S
C1221 C1222 1.373 . S
C1221 C1223 1.389 1_556 S
C1222 H1195 0.950 . S
C1222 C1208 1.377 . S
C1222 C1221 1.373 . S
C1223 C1207 1.377 . S
C1223 C1221 1.389 1_554 S
C1223 C1224 1.524 . S
C1224 C1223 1.524 . S
C1224 C1225 1.397 . S
C1224 C1229 1.363 . S
C1225 H1196 0.950 1_554 S
C1225 C1224 1.397 . S
C1225 C1226 1.334 . S
C1226 H1197 0.950 . S
C1226 C1225 1.334 . S
C1226 C1227 1.287 . S
C1227 C1226 1.287 . S
C1227 C1228 1.524 . S
C1227 H1230 0.999 . S
C1228 H1198 0.950 . S
C1228 C1227 1.524 . S
C1228 C1229 1.415 . S
C1229 H1199 0.950 . S
C1229 C1224 1.363 . S
C1229 C1228 1.415 . S
H1230 C1227 0.999 . S
H1231 C1212 0.913 . S
H1232 C1250 0.951 . S
H1233 C1252 0.951 . S
H1234 C1254 0.950 . S
H1235 C1255 0.950 . S
H1236 C1257 0.950 . S
H1237 C1260 0.950 . S
H1238 C1261 0.950 . S
H1239 C1263 0.950 . S
H1240 C1264 0.959 . S
H1241 C1265 0.951 . S
H1242 C1267 0.951 . S
H1243 C1269 0.950 . S
H1244 C1270 0.950 1_655 S
H1245 C1272 0.950 . S
H1246 C1275 0.950 . S
H1247 C1276 0.950 . S
H1248 C1278 0.950 . S
H1249 C1279 0.950 . S
C1250 H1232 0.951 . S
C1250 C1251 1.366 . S
C1250 C1252 1.388 . S
C1251 C1250 1.366 . S
C1251 C1255 1.385 . S
C1252 H1233 0.951 . S
C1252 C1250 1.388 . S
C1252 C1253 1.366 . S
C1253 C1252 1.366 . S
C1253 C1254 1.414 . S
C1253 C1256 1.499 . S
C1254 H1234 0.950 . S
C1254 C1253 1.414 . S
C1254 C1255 1.374 . S
C1255 H1235 0.950 . S
C1255 C1251 1.385 . S
C1255 C1254 1.374 . S
C1256 C1253 1.499 . S
C1256 C1257 1.373 . S
C1256 C1258 1.389 . S
C1257 H1236 0.950 . S
C1257 C1256 1.373 . S
C1257 C1273 1.377 . S
C1258 C1256 1.389 . S
C1258 C1259 1.524 . S
C1258 C1272 1.377 . S
C1259 C1258 1.524 . S
C1259 C1260 1.397 . S
C1259 C1264 1.345 1_455 S
C1260 H1237 0.950 . S
C1260 C1259 1.397 . S
C1260 C1261 1.334 1_556 S
C1261 H1238 0.950 . S
C1261 C1260 1.334 1_554 S
C1261 C1262 1.287 . S
C1262 C1261 1.287 . S
C1262 C1263 1.524 1_454 S
C1262 H1281 0.913 1_455 S
C1263 H1239 0.950 . S
C1263 C1262 1.524 1_656 S
C1263 C1264 1.424 . S
C1264 H1240 0.959 . S
C1264 C1259 1.345 1_655 S
C1264 C1263 1.424 . S
C1265 H1241 0.951 . S
C1265 C1266 1.366 . S
C1265 C1267 1.388 . S
C1266 C1265 1.366 . S
C1266 C1270 1.385 . S
C1267 H1242 0.951 . S
C1267 C1265 1.388 . S
C1267 C1268 1.366 . S
C1268 C1267 1.366 . S
C1268 C1269 1.414 . S
C1268 C1271 1.499 . S
C1269 H1243 0.950 . S
C1269 C1268 1.414 . S
C1269 C1270 1.374 . S
C1270 H1244 0.950 1_455 S
C1270 C1266 1.385 . S
C1270 C1269 1.374 . S
C1271 C1268 1.499 . S
C1271 C1272 1.373 . S
C1271 C1273 1.389 . S
C1272 H1245 0.950 . S
C1272 C1258 1.377 . S
C1272 C1271 1.373 . S
C1273 C1257 1.377 . S
C1273 C1271 1.389 . S
C1273 C1274 1.524 . S
C1274 C1273 1.524 . S
C1274 C1275 1.397 . S
C1274 C1279 1.363 . S
C1275 H1246 0.950 . S
C1275 C1274 1.397 . S
C1275 C1276 1.334 . S
C1276 H1247 0.950 . S
C1276 C1275 1.334 . S
C1276 C1277 1.287 . S
C1277 C1276 1.287 . S
C1277 C1278 1.524 . S
C1277 H1280 0.999 . S
C1278 H1248 0.950 . S
C1278 C1277 1.524 . S
C1278 C1279 1.415 . S
C1279 H1249 0.950 . S
C1279 C1274 1.363 . S
C1279 C1278 1.415 . S
H1280 C1277 0.999 . S
H1281 C1262 0.913 1_655 S
H1282 C1300 0.951 . S
H1283 C1302 0.951 . S
H1284 C1304 0.950 . S
H1285 C1305 0.950 . S
H1286 C1307 0.950 . S
H1287 C1310 0.950 . S
H1288 C1311 0.950 . S
H1289 C1313 0.950 . S
H1290 C1314 0.950 . S
H1291 C1315 0.951 . S
H1292 C1317 0.951 . S
H1293 C1319 0.950 . S
H1294 C1320 0.950 . S
H1295 C1322 0.950 . S
H1296 C1325 0.950 . S
H1297 C1326 0.950 . S
H1298 C1328 0.939 1_554 S
H1299 C1329 0.950 . S
C1300 H1282 0.951 . S
C1300 C1301 1.366 . S
C1300 C1302 1.388 . S
C1301 C1300 1.366 . S
C1301 C1305 1.385 . S
C1302 H1283 0.951 . S
C1302 C1300 1.388 . S
C1302 C1303 1.366 . S
C1303 C1302 1.366 . S
C1303 C1304 1.414 . S
C1303 C1306 1.499 . S
C1304 H1284 0.950 . S
C1304 C1303 1.414 . S
C1304 C1305 1.374 . S
C1305 H1285 0.950 . S
C1305 C1301 1.385 . S
C1305 C1304 1.374 . S
C1306 C1303 1.499 . S
C1306 C1307 1.373 . S
C1306 C1308 1.389 . S
C1307 H1286 0.950 . S
C1307 C1306 1.373 . S
C1307 C1323 1.377 . S
C1308 C1306 1.389 . S
C1308 C1309 1.524 . S
C1308 C1322 1.377 . S
C1309 C1308 1.524 . S
C1309 C1310 1.397 . S
C1309 C1314 1.363 . S
C1310 H1287 0.950 . S
C1310 C1309 1.397 . S
C1310 C1311 1.334 . S
C1311 H1288 0.950 . S
C1311 C1310 1.334 . S
C1311 C1312 1.287 . S
C1312 C1311 1.287 . S
C1312 C1313 1.524 . S
C1312 H1331 0.913 . S
C1313 H1289 0.950 . S
C1313 C1312 1.524 . S
C1313 C1314 1.415 . S
C1314 H1290 0.950 . S
C1314 C1309 1.363 . S
C1314 C1313 1.415 . S
C1315 H1291 0.951 . S
C1315 C1316 1.366 . S
C1315 C1317 1.388 . S
C1316 C1315 1.366 . S
C1316 C1320 1.385 . S
C1317 H1292 0.951 . S
C1317 C1315 1.388 . S
C1317 C1318 1.366 . S
C1318 C1317 1.366 . S
C1318 C1319 1.414 . S
C1318 C1321 1.499 . S
C1319 H1293 0.950 . S
C1319 C1318 1.414 . S
C1319 C1320 1.374 . S
C1320 H1294 0.950 . S
C1320 C1316 1.385 . S
C1320 C1319 1.374 . S
C1321 C1318 1.499 . S
C1321 C1322 1.373 . S
C1321 C1323 1.389 . S
C1322 H1295 0.950 . S
C1322 C1308 1.377 . S
C1322 C1321 1.373 . S
C1323 C1307 1.377 . S
C1323 C1321 1.389 . S
C1323 C1324 1.524 . S
C1324 C1323 1.524 . S
C1324 C1325 1.397 . S
C1324 C1329 1.363 . S
C1325 H1296 0.950 . S
C1325 C1324 1.397 . S
C1325 C1326 1.334 . S
C1326 H1297 0.950 . S
C1326 C1325 1.334 . S
C1326 C1327 1.287 . S
C1327 C1326 1.287 . S
C1327 C1328 1.529 . S
C1327 H1330 0.999 1_556 S
C1328 H1298 0.939 1_556 S
C1328 C1327 1.529 . S
C1328 C1329 1.422 . S
C1329 H1299 0.950 . S
C1329 C1324 1.363 . S
C1329 C1328 1.422 . S
H1330 C1327 0.999 1_554 S
H1331 C1312 0.913 . S
H1332 C1350 0.951 . S
H1333 C1352 0.951 . S
H1334 C1354 0.950 . S
H1335 C1355 0.950 . S
H1336 C1357 0.950 . S
H1337 C1360 0.950 . S
H1338 C1361 0.950 . S
H1339 C1363 0.950 . S
H1340 C1364 0.950 . S
H1341 C1365 0.951 . S
H1342 C1367 0.951 . S
H1343 C1369 0.950 . S
H1344 C1370 0.950 . S
H1345 C1372 0.950 . S
H1346 C1375 0.950 . S
H1347 C1376 0.950 . S
H1348 C1378 0.950 . S
H1349 C1379 0.950 . S
C1350 H1332 0.951 . S
C1350 C1351 1.366 . S
C1350 C1352 1.388 . S
C1351 C1350 1.366 . S
C1351 C1355 1.385 . S
C1352 H1333 0.951 . S
C1352 C1350 1.388 . S
C1352 C1353 1.366 . S
C1353 C1352 1.366 . S
C1353 C1354 1.414 . S
C1353 C1356 1.499 . S
C1354 H1334 0.950 . S
C1354 C1353 1.414 . S
C1354 C1355 1.374 . S
C1355 H1335 0.950 . S
C1355 C1351 1.385 . S
C1355 C1354 1.374 . S
C1356 C1353 1.499 . S
C1356 C1357 1.373 . S
C1356 C1358 1.389 . S
C1357 H1336 0.950 . S
C1357 C1356 1.373 . S
C1357 C1373 1.377 . S
C1358 C1356 1.389 . S
C1358 C1359 1.524 . S
C1358 C1372 1.377 . S
C1359 C1358 1.524 . S
C1359 C1360 1.397 . S
C1359 C1364 1.363 . S
C1360 H1337 0.950 . S
C1360 C1359 1.397 . S
C1360 C1361 1.334 . S
C1361 H1338 0.950 . S
C1361 C1360 1.334 . S
C1361 C1362 1.287 . S
C1362 C1361 1.287 . S
C1362 C1363 1.524 . S
C1362 H1381 0.913 . S
C1363 H1339 0.950 . S
C1363 C1362 1.524 . S
C1363 C1364 1.415 . S
C1364 H1340 0.950 . S
C1364 C1359 1.363 . S
C1364 C1363 1.415 . S
C1365 H1341 0.951 . S
C1365 C1366 1.366 . S
C1365 C1367 1.388 . S
C1366 C1365 1.366 . S
C1366 C1370 1.385 . S
C1367 H1342 0.951 . S
C1367 C1365 1.388 . S
C1367 C1368 1.366 . S
C1368 C1367 1.366 . S
C1368 C1369 1.414 . S
C1368 C1371 1.499 . S
C1369 H1343 0.950 . S
C1369 C1368 1.414 . S
C1369 C1370 1.374 . S
C1370 H1344 0.950 . S
C1370 C1366 1.385 . S
C1370 C1369 1.374 . S
C1371 C1368 1.499 . S
C1371 C1372 1.373 . S
C1371 C1373 1.389 . S
C1372 H1345 0.950 . S
C1372 C1358 1.377 . S
C1372 C1371 1.373 . S
C1373 C1357 1.377 . S
C1373 C1371 1.389 . S
C1373 C1374 1.524 . S
C1374 C1373 1.524 . S
C1374 C1375 1.397 . S
C1374 C1379 1.363 . S
C1375 H1346 0.950 . S
C1375 C1374 1.397 . S
C1375 C1376 1.334 . S
C1376 H1347 0.950 . S
C1376 C1375 1.334 . S
C1376 C1377 1.287 . S
C1377 C1376 1.287 . S
C1377 C1378 1.524 . S
C1377 H1380 0.999 . S
C1378 H1348 0.950 . S
C1378 C1377 1.524 . S
C1378 C1379 1.415 . S
C1379 H1349 0.950 . S
C1379 C1374 1.363 . S
C1379 C1378 1.415 . S
H1380 C1377 0.999 . S
H1381 C1362 0.913 . S
H1382 C1400 0.951 . S
H1383 C1402 0.951 . S
H1384 C1404 0.950 . S
H1385 C1405 0.950 . S
H1386 C1407 0.950 . S
H1387 C1410 0.950 . S
H1388 C1411 0.950 . S
H1389 C1413 0.950 . S
H1390 C1414 0.950 . S
H1391 C1415 0.951 . S
H1392 C1417 0.951 . S
H1393 C1419 0.950 . S
H1394 C1420 0.950 . S
H1395 C1422 0.950 . S
H1396 C1425 0.950 . S
H1397 C1426 0.950 . S
H1398 C1428 0.950 . S
H1399 C1429 0.950 . S
C1400 H1382 0.951 . S
C1400 C1401 1.366 . S
C1400 C1402 1.388 . S
C1401 C1400 1.366 . S
C1401 C1405 1.385 . S
C1402 H1383 0.951 . S
C1402 C1400 1.388 . S
C1402 C1403 1.366 . S
C1403 C1402 1.366 . S
C1403 C1404 1.414 . S
C1403 C1406 1.499 . S
C1404 H1384 0.950 . S
C1404 C1403 1.414 . S
C1404 C1405 1.374 . S
C1405 H1385 0.950 . S
C1405 C1401 1.385 . S
C1405 C1404 1.374 . S
C1406 C1403 1.499 . S
C1406 C1407 1.373 . S
C1406 C1408 1.389 . S
C1407 H1386 0.950 . S
C1407 C1406 1.373 . S
C1407 C1423 1.377 . S
C1408 C1406 1.389 . S
C1408 C1409 1.524 . S
C1408 C1422 1.377 . S
C1409 C1408 1.524 . S
C1409 C1410 1.397 . S
C1409 C1414 1.363 . S
C1410 H1387 0.950 . S
C1410 C1409 1.397 . S
C1410 C1411 1.334 1_556 S
C1411 H1388 0.950 . S
C1411 C1410 1.334 1_554 S
C1411 C1412 1.287 . S
C1412 C1411 1.287 . S
C1412 C1413 1.524 . S
C1412 H1431 0.913 . S
C1413 H1389 0.950 . S
C1413 C1412 1.524 . S
C1413 C1414 1.415 1_554 S
C1414 H1390 0.950 . S
C1414 C1409 1.363 . S
C1414 C1413 1.415 1_556 S
C1415 H1391 0.951 . S
C1415 C1416 1.366 . S
C1415 C1417 1.388 . S
C1416 C1415 1.366 . S
C1416 C1420 1.385 . S
C1417 H1392 0.951 . S
C1417 C1415 1.388 . S
C1417 C1418 1.366 . S
C1418 C1417 1.366 . S
C1418 C1419 1.414 . S
C1418 C1421 1.499 . S
C1419 H1393 0.950 . S
C1419 C1418 1.414 . S
C1419 C1420 1.374 . S
C1420 H1394 0.950 . S
C1420 C1416 1.385 . S
C1420 C1419 1.374 . S
C1421 C1418 1.499 . S
C1421 C1422 1.373 . S
C1421 C1423 1.389 . S
C1422 H1395 0.950 . S
C1422 C1408 1.377 . S
C1422 C1421 1.373 . S
C1423 C1407 1.377 . S
C1423 C1421 1.389 . S
C1423 C1424 1.524 . S
C1424 C1423 1.524 . S
C1424 C1425 1.397 . S
C1424 C1429 1.363 . S
C1425 H1396 0.950 . S
C1425 C1424 1.397 . S
C1425 C1426 1.334 . S
C1426 H1397 0.950 . S
C1426 C1425 1.334 . S
C1426 C1427 1.287 . S
C1427 C1426 1.287 . S
C1427 C1428 1.524 . S
C1427 H1430 0.999 . S
C1428 H1398 0.950 . S
C1428 C1427 1.524 . S
C1428 C1429 1.415 . S
C1429 H1399 0.950 . S
C1429 C1424 1.363 . S
C1429 C1428 1.415 . S
H1430 C1427 0.999 . S
H1431 C1412 0.913 . S
H1432 C1450 0.951 . S
H1433 C1452 0.951 . S
H1434 C1454 0.950 . S
H1435 C1455 0.950 . S
H1436 C1457 0.950 . S
H1437 C1460 0.950 . S
H1438 C1461 0.950 . S
H1439 C1463 0.950 . S
H1440 C1464 0.950 . S
H1441 C1465 0.951 1_455 S
H1442 C1467 0.951 1_455 S
H1443 C1469 0.950 . S
H1444 C1470 0.950 . S
H1445 C1472 0.950 . S
H1446 C1475 0.950 1_655 S
H1447 C1476 0.950 . S
H1448 C1478 0.950 . S
H1449 C1479 0.950 . S
C1450 H1432 0.951 . S
C1450 C1451 1.366 . S
C1450 C1452 1.388 . S
C1451 C1450 1.366 . S
C1451 C1455 1.385 . S
C1452 H1433 0.951 . S
C1452 C1450 1.388 . S
C1452 C1453 1.366 . S
C1453 C1452 1.366 . S
C1453 C1454 1.414 . S
C1453 C1456 1.499 . S
C1454 H1434 0.950 . S
C1454 C1453 1.414 . S
C1454 C1455 1.374 . S
C1455 H1435 0.950 . S
C1455 C1451 1.385 . S
C1455 C1454 1.374 . S
C1456 C1453 1.499 . S
C1456 C1457 1.373 . S
C1456 C1458 1.389 . S
C1457 H1436 0.950 . S
C1457 C1456 1.373 . S
C1457 C1473 1.377 . S
C1458 C1456 1.389 . S
C1458 C1459 1.524 . S
C1458 C1472 1.377 . S
C1459 C1458 1.524 . S
C1459 C1460 1.397 . S
C1459 C1464 1.363 . S
C1460 H1437 0.950 . S
C1460 C1459 1.397 . S
C1460 C1461 1.334 . S
C1461 H1438 0.950 . S
C1461 C1460 1.334 . S
C1461 C1462 1.287 . S
C1462 C1461 1.287 . S
C1462 C1463 1.524 . S
C1462 H1481 0.913 . S
C1463 H1439 0.950 . S
C1463 C1462 1.524 . S
C1463 C1464 1.415 . S
C1464 H1440 0.950 . S
C1464 C1459 1.363 . S
C1464 C1463 1.415 . S
C1465 H1441 0.951 1_655 S
C1465 C1466 1.366 . S
C1465 C1467 1.388 . S
C1466 C1465 1.366 . S
C1466 C1470 1.385 . S
C1467 H1442 0.951 1_655 S
C1467 C1465 1.388 . S
C1467 C1468 1.366 . S
C1468 C1467 1.366 . S
C1468 C1469 1.414 . S
C1468 C1471 1.499 . S
C1469 H1443 0.950 . S
C1469 C1468 1.414 . S
C1469 C1470 1.374 . S
C1470 H1444 0.950 . S
C1470 C1466 1.385 . S
C1470 C1469 1.374 . S
C1471 C1468 1.499 . S
C1471 C1472 1.373 . S
C1471 C1473 1.389 . S
C1472 H1445 0.950 . S
C1472 C1458 1.377 . S
C1472 C1471 1.373 . S
C1473 C1457 1.377 . S
C1473 C1471 1.389 . S
C1473 C1474 1.524 1_655 S
C1474 C1473 1.524 1_455 S
C1474 C1475 1.397 . S
C1474 C1479 1.363 . S
C1475 H1446 0.950 1_455 S
C1475 C1474 1.397 . S
C1475 C1476 1.334 . S
C1476 H1447 0.950 . S
C1476 C1475 1.334 . S
C1476 C1477 1.287 . S
C1477 C1476 1.287 . S
C1477 C1478 1.524 . S
C1477 H1480 0.999 . S
C1478 H1448 0.950 . S
C1478 C1477 1.524 . S
C1478 C1479 1.415 . S
C1479 H1449 0.950 . S
C1479 C1474 1.363 . S
C1479 C1478 1.415 . S
H1480 C1477 0.999 . S
H1481 C1462 0.913 . S
H1482 C1500 0.951 . S
H1483 C1502 0.951 . S
H1484 C1504 0.950 . S
H1485 C1505 0.950 . S
H1486 C1507 0.950 . S
H1487 C1510 0.950 . S
H1488 C1511 0.950 . S
H1489 C1513 0.950 . S
H1490 C1514 0.950 . S
H1491 C1515 0.951 . S
H1492 C1517 0.993 . S
H1493 C1519 0.950 . S
H1494 C1520 0.950 . S
H1495 C1522 0.950 . S
H1496 C1525 0.950 1_565 S
H1497 C1526 0.950 . S
H1498 C1528 0.950 . S
H1499 C1529 0.950 . S
C1500 H1482 0.951 . S
C1500 C1501 1.366 . S
C1500 C1502 1.388 . S
C1501 C1500 1.366 . S
C1501 C1505 1.385 . S
C1502 H1483 0.951 . S
C1502 C1500 1.388 . S
C1502 C1503 1.366 . S
C1503 C1502 1.366 . S
C1503 C1504 1.414 . S
C1503 C1506 1.499 . S
C1504 H1484 0.950 . S
C1504 C1503 1.414 . S
C1504 C1505 1.374 . S
C1505 H1485 0.950 . S
C1505 C1501 1.385 . S
C1505 C1504 1.374 . S
C1506 C1503 1.499 . S
C1506 C1507 1.373 . S
C1506 C1508 1.389 . S
C1507 H1486 0.950 . S
C1507 C1506 1.373 . S
C1507 C1523 1.377 . S
C1508 C1506 1.389 . S
C1508 C1509 1.524 . S
C1508 C1522 1.377 . S
C1509 C1508 1.524 . S
C1509 C1510 1.397 . S
C1509 C1514 1.363 . S
C1510 H1487 0.950 . S
C1510 C1509 1.397 . S
C1510 C1511 1.334 . S
C1511 H1488 0.950 . S
C1511 C1510 1.334 . S
C1511 C1512 1.287 . S
C1512 C1511 1.287 . S
C1512 C1513 1.524 . S
C1512 H1531 0.913 . S
C1513 H1489 0.950 . S
C1513 C1512 1.524 . S
C1513 C1514 1.415 . S
C1514 H1490 0.950 . S
C1514 C1509 1.363 . S
C1514 C1513 1.415 . S
C1515 H1491 0.951 . S
C1515 C1516 1.366 1_545 S
C1515 C1517 1.399 . S
C1516 C1515 1.366 1_565 S
C1516 C1520 1.385 . S
C1517 H1492 0.993 . S
C1517 C1515 1.399 . S
C1517 C1518 1.315 1_545 S
C1518 C1517 1.315 1_565 S
C1518 C1519 1.414 . S
C1518 C1521 1.499 . S
C1519 H1493 0.950 . S
C1519 C1518 1.414 . S
C1519 C1520 1.374 . S
C1520 H1494 0.950 . S
C1520 C1516 1.385 . S
C1520 C1519 1.374 . S
C1521 C1518 1.499 . S
C1521 C1522 1.373 . S
C1521 C1523 1.389 . S
C1522 H1495 0.950 . S
C1522 C1508 1.377 . S
C1522 C1521 1.373 . S
C1523 C1507 1.377 . S
C1523 C1521 1.389 . S
C1523 C1524 1.524 1_565 S
C1524 C1523 1.524 1_545 S
C1524 C1525 1.397 . S
C1524 C1529 1.363 . S
C1525 H1496 0.950 1_545 S
C1525 C1524 1.397 . S
C1525 C1526 1.334 . S
C1526 H1497 0.950 . S
C1526 C1525 1.334 . S
C1526 C1527 1.287 . S
C1527 C1526 1.287 . S
C1527 C1528 1.524 . S
C1527 H1530 0.999 . S
C1528 H1498 0.950 . S
C1528 C1527 1.524 . S
C1528 C1529 1.415 . S
C1529 H1499 0.950 . S
C1529 C1524 1.363 . S
C1529 C1528 1.415 . S
H1530 C1527 0.999 . S
H1531 C1512 0.913 . S
H1532 C1550 0.951 . S
H1533 C1552 0.951 . S
H1534 C1554 0.950 . S
H1535 C1555 0.950 . S
H1536 C1557 0.950 . S
H1537 C1560 0.950 . S
H1538 C1561 0.950 . S
H1539 C1563 0.950 . S
H1540 C1564 0.950 . S
H1541 C1565 0.951 . S
H1542 C1567 0.951 . S
H1543 C1569 0.950 . S
H1544 C1570 0.950 . S
H1545 C1572 0.950 . S
H1546 C1575 0.950 . S
H1547 C1576 0.950 . S
H1548 C1578 0.950 . S
H1549 C1579 0.950 . S
C1550 H1532 0.951 . S
C1550 C1551 1.366 . S
C1550 C1552 1.388 . S
C1551 C1550 1.366 . S
C1551 C1555 1.385 . S
C1552 H1533 0.951 . S
C1552 C1550 1.388 . S
C1552 C1553 1.366 . S
C1553 C1552 1.366 . S
C1553 C1554 1.414 . S
C1553 C1556 1.499 . S
C1554 H1534 0.950 . S
C1554 C1553 1.414 . S
C1554 C1555 1.374 . S
C1555 H1535 0.950 . S
C1555 C1551 1.385 . S
C1555 C1554 1.374 . S
C1556 C1553 1.499 . S
C1556 C1557 1.373 . S
C1556 C1558 1.389 . S
C1557 H1536 0.950 . S
C1557 C1556 1.373 . S
C1557 C1573 1.377 . S
C1558 C1556 1.389 . S
C1558 C1559 1.524 . S
C1558 C1572 1.377 . S
C1559 C1558 1.524 . S
C1559 C1560 1.397 . S
C1559 C1564 1.363 . S
C1560 H1537 0.950 . S
C1560 C1559 1.397 . S
C1560 C1561 1.334 . S
C1561 H1538 0.950 . S
C1561 C1560 1.334 . S
C1561 C1562 1.287 . S
C1562 C1561 1.287 . S
C1562 C1563 1.524 . S
C1562 H1581 0.913 . S
C1563 H1539 0.950 . S
C1563 C1562 1.524 . S
C1563 C1564 1.415 . S
C1564 H1540 0.950 . S
C1564 C1559 1.363 . S
C1564 C1563 1.415 . S
C1565 H1541 0.951 . S
C1565 C1566 1.366 . S
C1565 C1567 1.388 . S
C1566 C1565 1.366 . S
C1566 C1570 1.385 . S
C1567 H1542 0.951 . S
C1567 C1565 1.388 . S
C1567 C1568 1.366 . S
C1568 C1567 1.366 . S
C1568 C1569 1.414 . S
C1568 C1571 1.499 . S
C1569 H1543 0.950 . S
C1569 C1568 1.414 . S
C1569 C1570 1.374 . S
C1570 H1544 0.950 . S
C1570 C1566 1.385 . S
C1570 C1569 1.374 . S
C1571 C1568 1.499 . S
C1571 C1572 1.373 . S
C1571 C1573 1.389 . S
C1572 H1545 0.950 . S
C1572 C1558 1.377 . S
C1572 C1571 1.373 . S
C1573 C1557 1.377 . S
C1573 C1571 1.389 . S
C1573 C1574 1.524 . S
C1574 C1573 1.524 . S
C1574 C1575 1.397 . S
C1574 C1579 1.363 . S
C1575 H1546 0.950 . S
C1575 C1574 1.397 . S
C1575 C1576 1.334 . S
C1576 H1547 0.950 . S
C1576 C1575 1.334 . S
C1576 C1577 1.287 . S
C1577 C1576 1.287 . S
C1577 C1578 1.524 . S
C1577 H1580 0.999 . S
C1578 H1548 0.950 . S
C1578 C1577 1.524 . S
C1578 C1579 1.415 . S
C1579 H1549 0.950 . S
C1579 C1574 1.363 . S
C1579 C1578 1.415 . S
H1580 C1577 0.999 . S
H1581 C1562 0.913 . S
H1582 C1600 0.951 . S
H1583 C1602 0.951 . S
H1584 C1604 0.950 . S
H1585 C1605 0.950 . S
H1586 C1607 0.950 . S
H1587 C1610 0.950 . S
H1588 C1611 0.950 . S
H1589 C1613 0.950 . S
H1590 C1614 0.950 . S
H1591 C1615 0.951 . S
H1592 C1617 0.951 . S
H1593 C1619 0.950 . S
H1594 C1620 0.950 . S
H1595 C1622 0.950 . S
H1596 C1625 0.950 . S
H1597 C1626 0.950 . S
H1598 C1628 0.950 . S
H1599 C1629 0.950 . S
C1600 H1582 0.951 . S
C1600 C1601 1.366 . S
C1600 C1602 1.388 . S
C1601 C1600 1.366 . S
C1601 C1605 1.385 . S
C1602 H1583 0.951 . S
C1602 C1600 1.388 . S
C1602 C1603 1.366 . S
C1603 C1602 1.366 . S
C1603 C1604 1.414 . S
C1603 C1606 1.499 . S
C1604 H1584 0.950 . S
C1604 C1603 1.414 . S
C1604 C1605 1.374 . S
C1605 H1585 0.950 . S
C1605 C1601 1.385 . S
C1605 C1604 1.374 . S
C1606 C1603 1.499 . S
C1606 C1607 1.373 . S
C1606 C1608 1.389 . S
C1607 H1586 0.950 . S
C1607 C1606 1.373 . S
C1607 C1623 1.377 . S
C1608 C1606 1.389 . S
C1608 C1609 1.524 . S
C1608 C1622 1.377 . S
C1609 C1608 1.524 . S
C1609 C1610 1.397 . S
C1609 C1614 1.363 . S
C1610 H1587 0.950 . S
C1610 C1609 1.397 . S
C1610 C1611 1.334 . S
C1611 H1588 0.950 . S
C1611 C1610 1.334 . S
C1611 C1612 1.287 . S
C1612 C1611 1.287 . S
C1612 C1613 1.524 . S
C1612 H1631 0.913 . S
C1613 H1589 0.950 . S
C1613 C1612 1.524 . S
C1613 C1614 1.415 . S
C1614 H1590 0.950 . S
C1614 C1609 1.363 . S
C1614 C1613 1.415 . S
C1615 H1591 0.951 . S
C1615 C1616 1.366 . S
C1615 C1617 1.388 . S
C1616 C1615 1.366 . S
C1616 C1620 1.385 . S
C1617 H1592 0.951 . S
C1617 C1615 1.388 . S
C1617 C1618 1.366 . S
C1618 C1617 1.366 . S
C1618 C1619 1.414 . S
C1618 C1621 1.499 . S
C1619 H1593 0.950 . S
C1619 C1618 1.414 . S
C1619 C1620 1.374 . S
C1620 H1594 0.950 . S
C1620 C1616 1.385 . S
C1620 C1619 1.374 . S
C1621 C1618 1.499 . S
C1621 C1622 1.373 . S
C1621 C1623 1.389 . S
C1622 H1595 0.950 . S
C1622 C1608 1.377 . S
C1622 C1621 1.373 . S
C1623 C1607 1.377 . S
C1623 C1621 1.389 . S
C1623 C1624 1.524 . S
C1624 C1623 1.524 . S
C1624 C1625 1.397 . S
C1624 C1629 1.363 . S
C1625 H1596 0.950 . S
C1625 C1624 1.397 . S
C1625 C1626 1.334 . S
C1626 H1597 0.950 . S
C1626 C1625 1.334 . S
C1626 C1627 1.287 . S
C1627 C1626 1.287 . S
C1627 C1628 1.524 . S
C1627 H1630 0.999 . S
C1628 H1598 0.950 . S
C1628 C1627 1.524 . S
C1628 C1629 1.415 . S
C1629 H1599 0.950 . S
C1629 C1624 1.363 . S
C1629 C1628 1.415 . S
H1630 C1627 0.999 . S
H1631 C1612 0.913 . S
C451 C76 1.791 . S
C466 C171 1.860 . S
C516 C255 1.889 . S
C501 C88 1.819 . S
C566 C331 1.902 . S
C551 C52 1.933 . S
C616 C415 1.876 . S
C601 C64 1.907 . S
C666 C162 1.859 1_565 S
C651 C28 1.803 . S
C701 C40 1.833 . S
C716 C246 1.889 . S
C751 C4 1.946 . S
C766 C320 1.902 . S
C801 C16 1.919 . S
C816 C404 1.876 . S
C866 C159 0.516 1_455 S
C851 C69 0.479 . S
C916 C243 0.509 . S
C901 C81 0.451 . S
C966 C336 0.503 . S
C951 C93 0.428 . S
C1001 C57 0.454 . S
C1016 C420 0.514 . S
C1051 C21 0.494 . S
C1066 C168 0.526 . S
C1116 C252 0.511 . S
C1101 C33 0.466 . S
C1166 C327 0.501 . S
C1151 C45 0.450 . S
C1201 C9 0.474 . S
C1216 C411 0.513 . S
C1251 C66 1.964 . S
C1266 C152 1.996 . S
C1301 C78 1.927 . S
C1316 C236 1.960 . S
C1366 C330 1.949 . S
C1351 C90 1.825 . S
C1416 C414 1.982 . S
C1401 C54 1.858 . S
C1451 C18 1.946 . S
C1466 C163 1.997 . S
C1516 C247 1.951 1_565 S
C1501 C30 1.912 . S
C1566 C339 1.949 . S
C1551 C42 1.809 . S
C1601 C6 1.839 . S
C1616 C423 1.982 . S
