# Generated by pormake.
# Topology zzz, (3,6)-cn, num edge types: 1
# Building blocks:
#     Node 0, Type 0, BuildingBlock: BETDAH_clean_linker_0, # of connection points: 3
#     Node 1, Type 0, BuildingBlock: BETDAH_clean_linker_0, # of connection points: 3
#     Node 2, Type 0, BuildingBlock: BETDAH_clean_linker_0, # of connection points: 3
#     Node 3, Type 0, BuildingBlock: BETDAH_clean_linker_0, # of connection points: 3
#     Node 4, Type 0, BuildingBlock: BETDAH_clean_linker_0, # of connection points: 3
#     Node 5, Type 0, BuildingBlock: BETDAH_clean_linker_0, # of connection points: 3
#     Node 6, Type 0, BuildingBlock: BETDAH_clean_linker_0, # of connection points: 3
#     Node 7, Type 0, BuildingBlock: BETDAH_clean_linker_0, # of connection points: 3
#     Node 8, Type 1, BuildingBlock: VOLQOD_clean_sbu_1, # of connection points: 6
#     Node 9, Type 1, BuildingBlock: VOLQOD_clean_sbu_1, # of connection points: 6
#     Node 10, Type 1, BuildingBlock: VOLQOD_clean_sbu_1, # of connection points: 6
#     Node 11, Type 1, BuildingBlock: VOLQOD_clean_sbu_1, # of connection points: 6
#     Edge 12, Type (0, 1), BuildingBlock: MIFKUJ_clean_linker_0, # of connection points: 2
#     Edge 13, Type (0, 1), BuildingBlock: MIFKUJ_clean_linker_0, # of connection points: 2
#     Edge 14, Type (0, 1), BuildingBlock: MIFKUJ_clean_linker_0, # of connection points: 2
#     Edge 15, Type (0, 1), BuildingBlock: MIFKUJ_clean_linker_0, # of connection points: 2
#     Edge 16, Type (0, 1), BuildingBlock: MIFKUJ_clean_linker_0, # of connection points: 2
#     Edge 17, Type (0, 1), BuildingBlock: MIFKUJ_clean_linker_0, # of connection points: 2
#     Edge 18, Type (0, 1), BuildingBlock: MIFKUJ_clean_linker_0, # of connection points: 2
#     Edge 19, Type (0, 1), BuildingBlock: MIFKUJ_clean_linker_0, # of connection points: 2
#     Edge 20, Type (0, 1), BuildingBlock: MIFKUJ_clean_linker_0, # of connection points: 2
#     Edge 21, Type (0, 1), BuildingBlock: MIFKUJ_clean_linker_0, # of connection points: 2
#     Edge 22, Type (0, 1), BuildingBlock: MIFKUJ_clean_linker_0, # of connection points: 2
#     Edge 23, Type (0, 1), BuildingBlock: MIFKUJ_clean_linker_0, # of connection points: 2
#     Edge 24, Type (0, 1), BuildingBlock: MIFKUJ_clean_linker_0, # of connection points: 2
#     Edge 25, Type (0, 1), BuildingBlock: MIFKUJ_clean_linker_0, # of connection points: 2
#     Edge 26, Type (0, 1), BuildingBlock: MIFKUJ_clean_linker_0, # of connection points: 2
#     Edge 27, Type (0, 1), BuildingBlock: MIFKUJ_clean_linker_0, # of connection points: 2
#     Edge 28, Type (0, 1), BuildingBlock: MIFKUJ_clean_linker_0, # of connection points: 2
#     Edge 29, Type (0, 1), BuildingBlock: MIFKUJ_clean_linker_0, # of connection points: 2
#     Edge 30, Type (0, 1), BuildingBlock: MIFKUJ_clean_linker_0, # of connection points: 2
#     Edge 31, Type (0, 1), BuildingBlock: MIFKUJ_clean_linker_0, # of connection points: 2
#     Edge 32, Type (0, 1), BuildingBlock: MIFKUJ_clean_linker_0, # of connection points: 2
#     Edge 33, Type (0, 1), BuildingBlock: MIFKUJ_clean_linker_0, # of connection points: 2
#     Edge 34, Type (0, 1), BuildingBlock: MIFKUJ_clean_linker_0, # of connection points: 2
#     Edge 35, Type (0, 1), BuildingBlock: MIFKUJ_clean_linker_0, # of connection points: 2
# Relax obj value: 0.203
# Max RMSD: 0.239
# Mean RMSD: 0.111
data_MOF--net-zzz--node1-VOLQOD_clean_sbu_1--node2-BETDAH_clean_linker_0--edge1-MIFKUJ_clean_linker_0
_symmetry_space_group_name_H-M    P1
_symmetry_Int_Tables_number       1
_symmetry_cell_setting            triclinic
loop_
_symmetry_equiv_pos_as_xyz
'x, y, z'
_cell_length_a     66.055945
_cell_length_b     65.63827
_cell_length_c     22.363118
_cell_angle_alpha  90.098217
_cell_angle_beta   89.813594
_cell_angle_gamma 90.767388
loop_
_atom_site_label
_atom_site_type_symbol
_atom_site_fract_x
_atom_site_fract_y
_atom_site_fract_z
_atom_type_partial_charge
H0 H 0.82524 0.53597 0.13882 0.0
H1 H 0.76649 0.51485 0.08242 0.0
H2 H 0.77489 0.53872 0.26031 0.0
C3 C 0.80913 0.53414 0.14734 0.0
C4 C 0.80147 0.5389 0.20401 0.0
C5 C 0.79666 0.52532 0.10343 0.0
C6 C 0.77605 0.52188 0.11604 0.0
C7 C 0.76808 0.52707 0.17256 0.0
C8 C 0.78092 0.53529 0.21635 0.0
N9 N 0.74745 0.52362 0.18776 0.0
C10 C 0.73255 0.51839 0.14667 0.0
H11 H 0.98281 0.80646 0.18866 0.0
H12 H 0.00437 0.75094 0.11023 0.0
H13 H 0.99025 0.75361 0.29839 0.0
C14 C 0.9862 0.79038 0.1924 0.0
C15 C 0.98514 0.78111 0.24855 0.0
C16 C 0.99332 0.77971 0.14238 0.0
C17 C 0.99865 0.75916 0.1486 0.0
C18 C 0.99707 0.74955 0.20489 0.0
C19 C 0.99075 0.76076 0.25473 0.0
N20 N 0.00233 0.7289 0.2136 0.0
C21 C 0.00468 0.71497 0.16748 0.0
H22 H 0.68626 0.03092 0.16042 0.0
H23 H 0.74593 0.03652 0.08551 0.0
H24 H 0.73805 0.02841 0.27583 0.0
C25 C 0.70254 0.03173 0.16674 0.0
C26 C 0.71057 0.02973 0.22416 0.0
C27 C 0.71517 0.0341 0.11692 0.0
C28 C 0.73623 0.03468 0.12434 0.0
C29 C 0.74457 0.0326 0.18206 0.0
C30 C 0.73165 0.03014 0.2316 0.0
N31 N 0.76578 0.03266 0.19195 0.0
C32 C 0.78008 0.0309 0.14665 0.0
H33 H 0.49188 0.6815 0.13789 0.0
H34 H 0.49328 0.7435 0.07878 0.0
H35 H 0.51166 0.72886 0.25844 0.0
C36 C 0.49452 0.69749 0.14793 0.0
C37 C 0.50198 0.70332 0.20405 0.0
C38 C 0.49121 0.71189 0.10318 0.0
C39 C 0.49561 0.73249 0.11404 0.0
C40 C 0.50298 0.73863 0.17059 0.0
C41 C 0.50602 0.72402 0.21516 0.0
N42 N 0.5077 0.75927 0.18411 0.0
C43 C 0.50739 0.77474 0.142 0.0
H44 H 0.19204 0.50594 0.23234 0.0
H45 H 0.25256 0.51261 0.29851 0.0
H46 H 0.24189 0.48445 0.12674 0.0
C47 C 0.20812 0.50357 0.22634 0.0
C48 C 0.2152 0.49411 0.17439 0.0
C49 C 0.22146 0.51031 0.27074 0.0
C50 C 0.24232 0.50743 0.26381 0.0
C51 C 0.24972 0.49807 0.21137 0.0
C52 C 0.23612 0.49172 0.16675 0.0
N53 N 0.27066 0.49479 0.20169 0.0
C54 C 0.28527 0.49608 0.24606 0.0
H55 H 0.0419 0.18618 0.22075 0.0
H56 H 0.05424 0.24148 0.31684 0.0
H57 H 0.0792 0.23269 0.13992 0.0
C58 C 0.04882 0.20126 0.22241 0.0
C59 C 0.06058 0.20809 0.17426 0.0
C60 C 0.04666 0.21309 0.27388 0.0
C61 C 0.05589 0.23239 0.27668 0.0
C62 C 0.06736 0.23974 0.2276 0.0
C63 C 0.07014 0.22725 0.17724 0.0
N64 N 0.07607 0.25961 0.22749 0.0
C65 C 0.06898 0.27502 0.26426 0.0
H66 H 0.31841 0.03279 0.23028 0.0
H67 H 0.2588 0.01729 0.29288 0.0
H68 H 0.26676 0.04757 0.12313 0.0
C69 C 0.3021 0.03341 0.2247 0.0
C70 C 0.29411 0.04158 0.17228 0.0
C71 C 0.28944 0.02449 0.26775 0.0
C72 C 0.26842 0.02447 0.25963 0.0
C73 C 0.26008 0.03339 0.20813 0.0
C74 C 0.27306 0.04146 0.16393 0.0
N75 N 0.23884 0.03409 0.19884 0.0
C76 C 0.22454 0.02914 0.24247 0.0
H77 H 0.46985 0.31295 0.21129 0.0
H78 H 0.47267 0.25307 0.28655 0.0
H79 H 0.44227 0.26248 0.11839 0.0
C80 C 0.46603 0.29683 0.20903 0.0
C81 C 0.45494 0.28934 0.16046 0.0
C82 C 0.4727 0.28377 0.25398 0.0
C83 C 0.46762 0.263 0.25129 0.0
C84 C 0.4566 0.25518 0.20218 0.0
C85 C 0.45049 0.26844 0.15661 0.0
N86 N 0.45171 0.23413 0.19676 0.0
C87 C 0.45664 0.21963 0.23936 0.0
O88 O 0.05647 0.99479 0.69104 0.0
Zn89 Zn 0.0334 0.99564 0.75174 0.0
O90 O 0.00683 0.99861 0.71192 0.0
Zn91 Zn 0.99418 0.02414 0.73341 0.0
Zn92 Zn 0.01034 0.99738 0.62546 0.0
Zn93 Zn 0.98839 0.97701 0.7367 0.0
O94 O 0.96633 0.02051 0.76922 0.0
O95 O 0.96188 0.98703 0.769 0.0
O96 O 0.03888 0.02007 0.80551 0.0
O97 O 0.01135 0.03873 0.79314 0.0
O98 O 0.99195 0.04238 0.66218 0.0
O99 O 0.00083 0.02305 0.58506 0.0
O100 O 0.99771 0.9718 0.5908 0.0
O101 O 0.03367 0.96988 0.80294 0.0
O102 O 0.98314 0.95733 0.66987 0.0
O103 O 0.00112 0.96078 0.80052 0.0
C104 C 0.0563 0.99541 0.63404 0.0
C105 C 0.95545 0.00481 0.78026 0.0
C106 C 0.99475 0.03993 0.60633 0.0
C107 C 0.02849 0.03584 0.81725 0.0
C108 C 0.98781 0.9571 0.61465 0.0
C109 C 0.01896 0.95855 0.8204 0.0
O110 O 0.03974 0.99632 0.60539 0.0
O111 O 0.49693 0.04787 0.66703 0.0
Zn112 Zn 0.50084 0.02446 0.72492 0.0
O113 O 0.49912 0.99804 0.68222 0.0
Zn114 Zn 0.47628 0.9819 0.71125 0.0
Zn115 Zn 0.4959 0.00238 0.59663 0.0
Zn116 Zn 0.52362 0.98255 0.69481 0.0
O117 O 0.485 0.95564 0.74845 0.0
O118 O 0.51839 0.95615 0.73796 0.0
O119 O 0.47829 0.02656 0.78714 0.0
O120 O 0.46124 0.99753 0.77339 0.0
O121 O 0.45656 0.97528 0.64568 0.0
O122 O 0.47102 0.9882 0.56427 0.0
O123 O 0.52075 0.99402 0.55079 0.0
O124 O 0.52852 0.02843 0.76374 0.0
O125 O 0.53837 0.97712 0.61829 0.0
O126 O 0.54334 0.99915 0.74197 0.0
C127 C 0.49312 0.04823 0.61121 0.0
C128 C 0.50216 0.94748 0.75613 0.0
C129 C 0.45652 0.97854 0.5896 0.0
C130 C 0.46347 0.01461 0.79971 0.0
C131 C 0.53613 0.98364 0.56525 0.0
C132 C 0.54384 0.0168 0.76546 0.0
O133 O 0.49205 0.03195 0.58043 0.0
O134 O 0.46352 0.49565 0.66383 0.0
Zn135 Zn 0.48688 0.49751 0.72193 0.0
O136 O 0.51294 0.49434 0.67915 0.0
Zn137 Zn 0.52751 0.47108 0.70952 0.0
Zn138 Zn 0.5082 0.49029 0.59386 0.0
Zn139 Zn 0.53002 0.51834 0.69077 0.0
O140 O 0.55366 0.47889 0.74971 0.0
O141 O 0.55555 0.51228 0.73564 0.0
O142 O 0.48238 0.47458 0.78224 0.0
O143 O 0.51019 0.45648 0.76831 0.0
O144 O 0.53316 0.45046 0.6458 0.0
O145 O 0.51908 0.46354 0.56494 0.0
O146 O 0.52031 0.51325 0.54572 0.0
O147 O 0.48522 0.52543 0.7614 0.0
O148 O 0.53708 0.5317 0.61292 0.0
O149 O 0.51496 0.53929 0.73703 0.0
C150 C 0.46252 0.49229 0.60778 0.0
C151 C 0.56284 0.49591 0.75636 0.0
C152 C 0.52857 0.44928 0.59073 0.0
C153 C 0.49309 0.459 0.79332 0.0
C154 C 0.53159 0.52844 0.55924 0.0
C155 C 0.49767 0.54046 0.76197 0.0
O156 O 0.47843 0.48979 0.5765 0.0
O157 O 0.98169 0.52951 0.59635 0.0
Zn158 Zn 0.0067 0.52531 0.64651 0.0
O159 O 0.00672 0.49751 0.67929 0.0
Zn160 Zn 0.00609 0.49821 0.76683 0.0
Zn161 Zn 0.98371 0.48157 0.64938 0.0
Zn162 Zn 0.03115 0.48425 0.65386 0.0
O163 O 0.03103 0.48557 0.8031 0.0
O164 O 0.04988 0.48023 0.72239 0.0
O165 O 0.0066 0.54609 0.71282 0.0
O166 O 0.00647 0.52729 0.79524 0.0
O167 O 0.98027 0.48537 0.79897 0.0
O168 O 0.96508 0.47396 0.71686 0.0
O169 O 0.99211 0.45561 0.60665 0.0
O170 O 0.03165 0.53115 0.59581 0.0
O171 O 0.02545 0.45715 0.6173 0.0
O172 O 0.04632 0.50089 0.59403 0.0
C173 C 0.96737 0.51754 0.58006 0.0
C174 C 0.04772 0.48049 0.77889 0.0
C175 C 0.96533 0.47656 0.77327 0.0
C176 C 0.00666 0.54459 0.76958 0.0
C177 C 0.00955 0.44787 0.59964 0.0
C178 C 0.0455 0.51935 0.57736 0.0
O179 O 0.96685 0.49888 0.59563 0.0
H180 H 0.2299 0.01884 0.35851 0.0
H181 H 0.20325 0.01215 0.433 0.0
H182 H 0.15775 0.02304 0.29909 0.0
H183 H 0.18442 0.02983 0.22484 0.0
H184 H 0.14933 0.04275 0.40162 0.0
H185 H 0.16855 0.97496 0.34399 0.0
H186 H 0.19219 0.9467 0.32807 0.0
H187 H 0.20733 0.94734 0.51467 0.0
H188 H 0.18395 0.97582 0.53154 0.0
H189 H 0.06064 0.999 0.51335 0.0
H190 H 0.09167 0.00394 0.4563 0.0
H191 H 0.12681 0.9993 0.61768 0.0
H192 H 0.09552 0.99441 0.67612 0.0
H193 H 0.14289 0.97767 0.51324 0.0
H194 H 0.12085 0.04402 0.57102 0.0
H195 H 0.09586 0.0712 0.58494 0.0
H196 H 0.08529 0.07262 0.39566 0.0
H197 H 0.11 0.04521 0.38068 0.0
C198 C 0.2142 0.01966 0.34512 0.0
C199 C 0.20904 0.02471 0.28626 0.0
C200 C 0.19901 0.01581 0.38756 0.0
C201 C 0.1785 0.01696 0.37152 0.0
C202 C 0.17346 0.02209 0.31247 0.0
C203 C 0.18864 0.02588 0.27012 0.0
C204 C 0.1622 0.01319 0.41618 0.0
C205 C 0.14788 0.02847 0.4257 0.0
C206 C 0.16062 0.99477 0.44894 0.0
C207 C 0.17469 0.97768 0.43888 0.0
C208 C 0.17706 0.9692 0.38152 0.0
C209 C 0.19038 0.95312 0.37235 0.0
C210 C 0.20131 0.94527 0.42029 0.0
C211 C 0.19888 0.95346 0.47755 0.0
C212 C 0.18559 0.96957 0.48695 0.0
C213 C 0.0749 0.99884 0.53707 0.0
C214 C 0.07552 0.99646 0.59959 0.0
C215 C 0.09265 0.0017 0.50421 0.0
C216 C 0.11147 0.00223 0.53289 0.0
C217 C 0.11237 0.999 0.59486 0.0
C218 C 0.0945 0.99625 0.6281 0.0
C219 C 0.12991 0.00707 0.49755 0.0
C220 C 0.14459 0.99205 0.48978 0.0
C221 C 0.13182 0.02569 0.46614 0.0
C222 C 0.11718 0.04244 0.47479 0.0
C223 C 0.1131 0.05002 0.53239 0.0
C224 C 0.09899 0.06549 0.54047 0.0
C225 C 0.08896 0.0736 0.49123 0.0
C226 C 0.09307 0.06631 0.43377 0.0
C227 C 0.10714 0.05083 0.42545 0.0
H228 H 0.07802 0.08556 0.49759 0.0
H229 H 0.21161 0.93281 0.4131 0.0
H230 H 0.44156 0.18155 0.24031 0.0
H231 H 0.44844 0.15486 0.31368 0.0
H232 H 0.48828 0.19614 0.40906 0.0
H233 H 0.48175 0.22268 0.33465 0.0
H234 H 0.50466 0.15933 0.40139 0.0
H235 H 0.4412 0.18521 0.4636 0.0
H236 H 0.40594 0.19649 0.45328 0.0
H237 H 0.3877 0.13624 0.39889 0.0
H238 H 0.42292 0.12465 0.40803 0.0
H239 H 0.50522 0.08666 0.64595 0.0
H240 H 0.49967 0.11875 0.59214 0.0
H241 H 0.46693 0.08589 0.45524 0.0
H242 H 0.47262 0.05396 0.50773 0.0
H243 H 0.4476 0.12205 0.49853 0.0
H244 H 0.5128 0.09811 0.427 0.0
H245 H 0.54808 0.08734 0.44142 0.0
H246 H 0.56283 0.14538 0.51997 0.0
H247 H 0.52753 0.15637 0.50689 0.0
C248 C 0.45178 0.18483 0.277 0.0
C249 C 0.46103 0.20404 0.28247 0.0
C250 C 0.45563 0.16968 0.319 0.0
C251 C 0.46861 0.17362 0.36749 0.0
C252 C 0.47814 0.19281 0.37223 0.0
C253 C 0.47434 0.20796 0.32995 0.0
C254 C 0.47224 0.15756 0.41267 0.0
C255 C 0.4922 0.15145 0.42352 0.0
C256 C 0.45599 0.14723 0.44154 0.0
C257 C 0.43475 0.1541 0.4361 0.0
C258 C 0.4297 0.1744 0.44901 0.0
C259 C 0.40972 0.18084 0.44344 0.0
C260 C 0.3946 0.1671 0.42534 0.0
C261 C 0.39943 0.14687 0.41288 0.0
C262 C 0.4194 0.14035 0.41832 0.0
C263 C 0.49678 0.08634 0.6045 0.0
C264 C 0.48944 0.06781 0.58088 0.0
C265 C 0.49367 0.10462 0.57386 0.0
C266 C 0.48293 0.10459 0.5198 0.0
C267 C 0.47523 0.08619 0.49696 0.0
C268 C 0.4786 0.06796 0.52689 0.0
C269 C 0.47987 0.12356 0.48569 0.0
C270 C 0.46003 0.1302 0.47707 0.0
C271 C 0.49621 0.13448 0.4595 0.0
C272 C 0.51747 0.12796 0.46669 0.0
C273 C 0.52352 0.1085 0.44785 0.0
C274 C 0.54353 0.10237 0.45569 0.0
C275 C 0.55767 0.11564 0.48179 0.0
C276 C 0.55185 0.1351 0.49989 0.0
C277 C 0.53185 0.14129 0.49227 0.0
H278 H 0.57315 0.11087 0.48783 0.0
H279 H 0.37913 0.17213 0.42106 0.0
H280 H 0.2844 0.50845 0.36168 0.0
H281 H 0.31259 0.50717 0.43324 0.0
H282 H 0.35093 0.48198 0.29577 0.0
H283 H 0.32276 0.48309 0.22484 0.0
H284 H 0.35436 0.46141 0.3994 0.0
H285 H 0.35486 0.53193 0.33654 0.0
H286 H 0.34002 0.56582 0.32167 0.0
H287 H 0.32863 0.57075 0.51027 0.0
H288 H 0.34318 0.53675 0.52614 0.0
H289 H 0.45424 0.47951 0.49416 0.0
H290 H 0.42167 0.4791 0.44332 0.0
H291 H 0.39289 0.5027 0.60189 0.0
H292 H 0.42559 0.50325 0.65342 0.0
H293 H 0.38172 0.52316 0.50062 0.0
H294 H 0.38468 0.45424 0.56485 0.0
H295 H 0.39931 0.42027 0.57983 0.0
H296 H 0.40408 0.41213 0.38982 0.0
H297 H 0.38973 0.44617 0.37362 0.0
C298 C 0.29891 0.50273 0.34708 0.0
C299 C 0.30166 0.49593 0.28822 0.0
C300 C 0.31496 0.50203 0.38774 0.0
C301 C 0.33389 0.49457 0.3697 0.0
C302 C 0.33646 0.48773 0.31067 0.0
C303 C 0.32046 0.48845 0.2702 0.0
C304 C 0.35112 0.49374 0.41191 0.0
C305 C 0.36045 0.47493 0.4212 0.0
C306 C 0.3586 0.51127 0.44192 0.0
C307 C 0.34988 0.5317 0.43242 0.0
C308 C 0.34903 0.54016 0.37476 0.0
C309 C 0.3407 0.55941 0.36617 0.0
C310 C 0.33332 0.5704 0.41497 0.0
C311 C 0.33431 0.5622 0.47249 0.0
C312 C 0.3426 0.54295 0.48132 0.0
C313 C 0.44101 0.48456 0.51846 0.0
C314 C 0.44255 0.49144 0.57789 0.0
C315 C 0.42236 0.4842 0.48938 0.0
C316 C 0.40484 0.49069 0.51902 0.0
C317 C 0.40625 0.49757 0.57833 0.0
C318 C 0.42493 0.49781 0.60771 0.0
C319 C 0.38527 0.49091 0.48683 0.0
C320 C 0.37548 0.50958 0.47947 0.0
C321 C 0.37735 0.47324 0.45857 0.0
C322 C 0.38622 0.45283 0.46805 0.0
C323 C 0.389 0.44528 0.52624 0.0
C324 C 0.39719 0.42599 0.53495 0.0
C325 C 0.40256 0.41404 0.4858 0.0
C326 C 0.39984 0.42139 0.42783 0.0
C327 C 0.39166 0.44067 0.41886 0.0
H328 H 0.40886 0.39909 0.49265 0.0
H329 H 0.32689 0.5853 0.40823 0.0
H330 H 0.03035 0.28712 0.26372 0.0
H331 H 0.01552 0.31423 0.32511 0.0
H332 H 0.07359 0.32502 0.40829 0.0
H333 H 0.0883 0.29777 0.3472 0.0
H334 H 0.04282 0.32476 0.48978 0.0
H335 H 0.05711 0.35578 0.29779 0.0
H336 H 0.05474 0.35889 0.18815 0.0
H337 H 0.99015 0.36404 0.20147 0.0
H338 H 0.99212 0.3607 0.31121 0.0
H339 H 0.04338 0.42477 0.59514 0.0
H340 H 0.0482 0.39273 0.54285 0.0
H341 H 0.98604 0.39317 0.48439 0.0
H342 H 0.98102 0.42565 0.53683 0.0
H343 H 0.01282 0.38519 0.39282 0.0
H344 H 0.99943 0.35928 0.58726 0.0
H345 H 0.00236 0.35698 0.69689 0.0
H346 H 0.06532 0.34257 0.67981 0.0
H347 H 0.06287 0.34508 0.57007 0.0
C348 C 0.03983 0.29534 0.29529 0.0
C349 C 0.06037 0.29068 0.301 0.0
C350 C 0.03141 0.31077 0.33014 0.0
C351 C 0.04351 0.32174 0.37086 0.0
C352 C 0.06401 0.31672 0.37717 0.0
C353 C 0.07241 0.30129 0.34227 0.0
C354 C 0.03501 0.33875 0.40612 0.0
C355 C 0.03635 0.33803 0.46866 0.0
C356 C 0.02593 0.35572 0.3785 0.0
C357 C 0.02474 0.35774 0.31259 0.0
C358 C 0.04239 0.3574 0.27728 0.0
C359 C 0.04112 0.35924 0.21514 0.0
C360 C 0.0223 0.3616 0.18784 0.0
C361 C 0.00471 0.36218 0.22266 0.0
C362 C 0.00589 0.36032 0.28482 0.0
C363 C 0.03063 0.41808 0.57154 0.0
C364 C 0.0118 0.42783 0.57007 0.0
C365 C 0.0334 0.39964 0.54197 0.0
C366 C 0.01742 0.39045 0.51036 0.0
C367 C 0.99853 0.4 0.50889 0.0
C368 C 0.99568 0.4185 0.53893 0.0
C369 C 0.02112 0.37145 0.47647 0.0
C370 C 0.0189 0.37176 0.41413 0.0
C371 C 0.02941 0.35412 0.50428 0.0
C372 C 0.03098 0.35248 0.57035 0.0
C373 C 0.01394 0.35576 0.60686 0.0
C374 C 0.01551 0.35439 0.66905 0.0
C375 C 0.03402 0.34966 0.6953 0.0
C376 C 0.05099 0.34623 0.65941 0.0
C377 C 0.04951 0.34759 0.59719 0.0
H378 H 0.03521 0.34861 0.74346 0.0
H379 H 0.02135 0.36302 0.13973 0.0
H380 H 0.79304 0.99534 0.10221 0.0
H381 H 0.82128 0.99043 0.03222 0.0
H382 H 0.83061 0.05558 0.02308 0.0
H383 H 0.80217 0.06043 0.09266 0.0
H384 H 0.83425 0.03775 0.91324 0.0
H385 H 0.86016 0.02725 0.11123 0.0
H386 H 0.8612 0.01187 0.21167 0.0
H387 H 0.86871 0.95265 0.13342 0.0
H388 H 0.86743 0.96766 0.03243 0.0
H389 H 0.93642 0.04029 0.80983 0.0
H390 H 0.90463 0.04408 0.86456 0.0
H391 H 0.89737 0.97873 0.87188 0.0
H392 H 0.92923 0.97475 0.81764 0.0
H393 H 0.89194 0.99591 0.98002 0.0
H394 H 0.86765 0.00679 0.78145 0.0
H395 H 0.86706 0.02247 0.68138 0.0
H396 H 0.85697 0.08113 0.76047 0.0
H397 H 0.85778 0.06585 0.86114 0.0
C398 C 0.80106 0.00855 0.08463 0.0
C399 C 0.79568 0.02822 0.10238 0.0
C400 C 0.81718 0.00576 0.04498 0.0
C401 C 0.8282 0.02264 0.02303 0.0
C402 C 0.82232 0.04237 0.0395 0.0
C403 C 0.80618 0.04513 0.07919 0.0
C404 C 0.8463 0.01967 0.98473 0.0
C405 C 0.84697 0.02878 0.92801 0.0
C406 C 0.8627 0.00762 0.00359 0.0
C407 C 0.86347 0.99855 0.06427 0.0
C408 C 0.86186 0.01093 0.11543 0.0
C409 C 0.86253 0.00228 0.17246 0.0
C410 C 0.86496 0.98129 0.17892 0.0
C411 C 0.86679 0.9689 0.12835 0.0
C412 C 0.8661 0.97747 0.0712 0.0
C413 C 0.92799 0.02671 0.82255 0.0
C414 C 0.93543 0.00721 0.80942 0.0
C415 C 0.90976 0.02891 0.85363 0.0
C416 C 0.89856 0.01168 0.87197 0.0
C417 C 0.90577 0.99222 0.85811 0.0
C418 C 0.92397 0.98999 0.82695 0.0
C419 C 0.87991 0.01395 0.90838 0.0
C420 C 0.87917 0.00476 0.96495 0.0
C421 C 0.86351 0.02596 0.88936 0.0
C422 C 0.86297 0.0352 0.82888 0.0
C423 C 0.86547 0.02307 0.77755 0.0
C424 C 0.86506 0.03187 0.7207 0.0
C425 C 0.86203 0.05279 0.71458 0.0
C426 C 0.85934 0.06493 0.76529 0.0
C427 C 0.85975 0.0562 0.82225 0.0
H428 H 0.86171 0.05958 0.67052 0.0
H429 H 0.86549 0.97462 0.22311 0.0
H430 H 0.47501 0.78989 0.08576 0.0
H431 H 0.47506 0.81795 0.01323 0.0
H432 H 0.54009 0.82325 0.02803 0.0
H433 H 0.53991 0.7954 0.10124 0.0
H434 H 0.52273 0.85967 0.03549 0.0
H435 H 0.51834 0.80209 0.90473 0.0
H436 H 0.50446 0.76952 0.86671 0.0
H437 H 0.44741 0.7978 0.83289 0.0
H438 H 0.46084 0.83049 0.87156 0.0
H439 H 0.53612 0.92773 0.79321 0.0
H440 H 0.53773 0.89665 0.85291 0.0
H441 H 0.47254 0.89198 0.85296 0.0
H442 H 0.47072 0.92299 0.79306 0.0
H443 H 0.49109 0.85465 0.83492 0.0
H444 H 0.49523 0.91161 0.97083 0.0
H445 H 0.50917 0.94408 0.0094 0.0
H446 H 0.56715 0.91648 0.03332 0.0
H447 H 0.55361 0.8839 0.99406 0.0
C448 C 0.48925 0.79709 0.0731 0.0
C449 C 0.50745 0.79076 0.09845 0.0
C450 C 0.48931 0.81297 0.03162 0.0
C451 C 0.50762 0.82253 0.01482 0.0
C452 C 0.52583 0.81605 0.04033 0.0
C453 C 0.52574 0.8002 0.08187 0.0
C454 C 0.50769 0.83982 0.9724 0.0
C455 C 0.51612 0.85847 0.99124 0.0
C456 C 0.49866 0.83833 0.91521 0.0
C457 C 0.49055 0.81871 0.89157 0.0
C458 C 0.50278 0.80134 0.88962 0.0
C459 C 0.495 0.78285 0.86789 0.0
C460 C 0.47505 0.78158 0.84753 0.0
C461 C 0.46285 0.79881 0.84874 0.0
C462 C 0.47055 0.81732 0.8705 0.0
C463 C 0.52211 0.92002 0.80544 0.0
C464 C 0.50327 0.92795 0.78876 0.0
C465 C 0.52307 0.90229 0.83965 0.0
C466 C 0.50524 0.89219 0.85776 0.0
C467 C 0.48646 0.8996 0.83941 0.0
C468 C 0.48547 0.91738 0.80542 0.0
C469 C 0.50613 0.87441 0.89815 0.0
C470 C 0.49783 0.85574 0.87901 0.0
C471 C 0.51532 0.87583 0.95506 0.0
C472 C 0.52346 0.89538 0.97888 0.0
C473 C 0.51099 0.91251 0.98383 0.0
C474 C 0.51881 0.93092 0.00591 0.0
C475 C 0.53905 0.93236 0.02363 0.0
C476 C 0.55149 0.91535 0.01947 0.0
C477 C 0.54375 0.89691 0.99735 0.0
H478 H 0.54508 0.94662 0.04072 0.0
H479 H 0.46906 0.76725 0.83072 0.0
H480 H 0.73481 0.49926 0.03977 0.0
H481 H 0.70673 0.49303 0.96991 0.0
H482 H 0.6656 0.52168 0.09359 0.0
H483 H 0.69362 0.52771 0.1634 0.0
H484 H 0.64894 0.48759 0.04631 0.0
H485 H 0.6841 0.54772 0.97502 0.0
H486 H 0.71384 0.56754 0.94022 0.0
H487 H 0.7215 0.5261 0.79335 0.0
H488 H 0.69194 0.50587 0.82778 0.0
H489 H 0.58487 0.52977 0.78812 0.0
H490 H 0.61491 0.53142 0.85119 0.0
H491 H 0.61435 0.46587 0.86515 0.0
H492 H 0.58402 0.46405 0.80297 0.0
H493 H 0.65239 0.51705 0.84222 0.0
H494 H 0.62935 0.45298 0.0053 0.0
H495 H 0.59833 0.43564 0.04193 0.0
H496 H 0.56421 0.48977 0.0104 0.0
H497 H 0.59505 0.50749 0.97426 0.0
C498 C 0.71972 0.50411 0.05182 0.0
C499 C 0.71617 0.51399 0.10633 0.0
C500 C 0.70375 0.50059 0.01206 0.0
C501 C 0.68412 0.50703 0.02644 0.0
C502 C 0.6806 0.51655 0.08172 0.0
C503 C 0.69656 0.52005 0.12135 0.0
C504 C 0.66729 0.50452 0.98333 0.0
C505 C 0.64974 0.49392 0.00156 0.0
C506 C 0.66825 0.51298 0.92522 0.0
C507 C 0.68596 0.52516 0.90434 0.0
C508 C 0.69223 0.54275 0.93557 0.0
C509 C 0.70903 0.55407 0.91587 0.0
C510 C 0.71959 0.54805 0.86471 0.0
C511 C 0.71333 0.53072 0.83304 0.0
C512 C 0.69654 0.51933 0.85259 0.0
C513 C 0.59117 0.51568 0.80425 0.0
C514 C 0.58191 0.49679 0.79091 0.0
C515 C 0.6084 0.51664 0.84015 0.0
C516 C 0.61671 0.49878 0.86341 0.0
C517 C 0.60798 0.47985 0.84841 0.0
C518 C 0.59067 0.47887 0.81274 0.0
C519 C 0.63404 0.50014 0.90517 0.0
C520 C 0.65169 0.5105 0.8867 0.0
C521 C 0.63302 0.49179 0.96346 0.0
C522 C 0.61447 0.48147 0.98652 0.0
C523 C 0.61524 0.4612 0.00646 0.0
C524 C 0.59769 0.4513 0.02706 0.0
C525 C 0.5793 0.46157 0.02829 0.0
C526 C 0.57844 0.4818 0.00922 0.0
C527 C 0.59595 0.49177 0.98861 0.0
H528 H 0.56572 0.45387 0.04414 0.0
H529 H 0.73259 0.55684 0.84953 0.0
H530 H 0.00139 0.71897 0.04761 0.0
H531 H 0.00327 0.69144 0.97319 0.0
H532 H 0.01321 0.64806 0.11471 0.0
H533 H 0.01168 0.67562 0.18864 0.0
H534 H 0.03816 0.64142 0.02285 0.0
H535 H 0.96673 0.65304 0.04934 0.0
H536 H 0.93572 0.67354 0.05046 0.0
H537 H 0.94424 0.68781 0.86468 0.0
H538 H 0.97547 0.66758 0.86267 0.0
H539 H 0.01122 0.54732 0.89077 0.0
H540 H 0.01272 0.57811 0.9519 0.0
H541 H 0.00536 0.61501 0.79427 0.0
H542 H 0.00373 0.58423 0.73246 0.0
H543 H 0.98075 0.62697 0.88597 0.0
H544 H 0.05089 0.6125 0.85837 0.0
H545 H 0.08209 0.59232 0.85894 0.0
H546 H 0.0759 0.58308 0.04816 0.0
H547 H 0.04449 0.60298 0.04864 0.0
C548 C 0.0041 0.70354 0.0624 0.0
C549 C 0.00644 0.69919 0.12326 0.0
C550 C 0.00507 0.68786 0.02012 0.0
C551 C 0.00819 0.66768 0.03851 0.0
C552 C 0.01082 0.66351 0.09955 0.0
C553 C 0.00991 0.67918 0.14166 0.0
C554 C 0.00857 0.65076 0.99461 0.0
C555 C 0.02553 0.63814 0.99328 0.0
C556 C 0.99232 0.64685 0.9549 0.0
C557 C 0.97356 0.659 0.95604 0.0
C558 C 0.96208 0.66069 0.00886 0.0
C559 C 0.94445 0.67223 0.00963 0.0
C560 C 0.93805 0.68203 0.95773 0.0
C561 C 0.94924 0.68025 0.90488 0.0
C562 C 0.9669 0.66874 0.90389 0.0
C563 C 0.00992 0.56196 0.86894 0.0
C564 C 0.00738 0.5633 0.80665 0.0
C565 C 0.0109 0.57955 0.90397 0.0
C566 C 0.0094 0.59883 0.87748 0.0
C567 C 0.00663 0.60026 0.81547 0.0
C568 C 0.00574 0.58265 0.78028 0.0
C569 C 0.0102 0.61741 0.91504 0.0
C570 C 0.99346 0.63035 0.91514 0.0
C571 C 0.02662 0.62155 0.95385 0.0
C572 C 0.04524 0.60913 0.95344 0.0
C573 C 0.05605 0.60599 0.9 0.0
C574 C 0.07381 0.59463 0.90017 0.0
C575 C 0.08098 0.58644 0.95357 0.0
C576 C 0.07034 0.58946 0.00685 0.0
C577 C 0.05257 0.60079 0.00694 0.0
H578 H 0.09482 0.5778 0.95376 0.0
H579 H 0.92439 0.69095 0.95841 0.0
H580 H 0.06335 0.20079 0.37783 0.0
H581 H 0.04939 0.17398 0.4425 0.0
H582 H 0.99268 0.17644 0.3477 0.0
H583 H 0.00687 0.20283 0.28203 0.0
H584 H 0.01898 0.16399 0.51572 0.0
H585 H 0.97884 0.12822 0.30909 0.0
H586 H 0.98148 0.12937 0.19896 0.0
H587 H 0.04441 0.14591 0.21185 0.0
H588 H 0.04222 0.1446 0.32194 0.0
H589 H 0.97305 0.07454 0.62422 0.0
H590 H 0.97669 0.10672 0.5701 0.0
H591 H 0.01916 0.07877 0.44901 0.0
H592 H 0.01486 0.04639 0.50125 0.0
H593 H 0.99892 0.1047 0.38999 0.0
H594 H 0.03468 0.10644 0.57495 0.0
H595 H 0.03909 0.10334 0.68402 0.0
H596 H 0.99663 0.15138 0.71274 0.0
H597 H 0.99176 0.15457 0.60378 0.0
C598 C 0.04761 0.19626 0.37284 0.0
C599 C 0.03612 0.20376 0.32527 0.0
C600 C 0.03967 0.18086 0.40948 0.0
C601 C 0.02018 0.17287 0.39882 0.0
C602 C 0.00788 0.18215 0.35591 0.0
C603 C 0.01589 0.19735 0.31891 0.0
C604 C 0.01394 0.15318 0.42601 0.0
C605 C 0.01436 0.15109 0.48836 0.0
C606 C 0.00872 0.13609 0.39007 0.0
C607 C 0.01026 0.1366 0.32379 0.0
C608 C 0.99324 0.13205 0.2884 0.0
C609 C 0.99466 0.13274 0.226 0.0
C610 C 0.01306 0.13785 0.19848 0.0
C611 C 0.03014 0.14208 0.23326 0.0
C612 C 0.02881 0.14139 0.29565 0.0
C613 C 0.98278 0.07515 0.58516 0.0
C614 C 0.99378 0.058 0.5672 0.0
C615 C 0.98498 0.09359 0.55455 0.0
C616 C 0.99862 0.09533 0.50648 0.0
C617 C 0.00859 0.07785 0.48611 0.0
C618 C 0.0061 0.05931 0.51597 0.0
C619 C 0.00359 0.11554 0.47998 0.0
C620 C 0.0031 0.11769 0.41758 0.0
C621 C 0.00972 0.13238 0.51575 0.0
C622 C 0.01268 0.13058 0.58127 0.0
C623 C 0.02617 0.11624 0.60456 0.0
C624 C 0.02877 0.11448 0.66634 0.0
C625 C 0.0181 0.12711 0.70529 0.0
C626 C 0.00485 0.14157 0.68251 0.0
C627 C 0.00217 0.14337 0.62075 0.0
H628 H 0.02013 0.12572 0.75312 0.0
H629 H 0.01409 0.13853 0.15023 0.0
H630 H 0.28955 0.98373 0.28677 0.0
H631 H 0.31277 0.96539 0.35263 0.0
H632 H 0.3347 0.02276 0.42335 0.0
H633 H 0.31176 0.04097 0.35718 0.0
H634 H 0.35381 0.97066 0.34026 0.0
H635 H 0.35069 0.01619 0.56454 0.0
H636 H 0.32485 0.03104 0.63071 0.0
H637 H 0.28023 0.98897 0.56247 0.0
H638 H 0.30586 0.97364 0.49656 0.0
H639 H 0.44713 0.99061 0.47627 0.0
H640 H 0.41436 0.98779 0.42746 0.0
H641 H 0.39132 0.95186 0.57473 0.0
H642 H 0.42401 0.95513 0.6249 0.0
H643 H 0.36743 0.98176 0.55587 0.0
H644 H 0.39634 0.93186 0.42944 0.0
H645 H 0.42151 0.91631 0.3624 0.0
H646 H 0.41332 0.96438 0.23511 0.0
H647 H 0.3884 0.98044 0.30174 0.0
C648 C 0.29879 0.99228 0.3182 0.0
C649 C 0.29886 0.01366 0.31775 0.0
C650 C 0.31211 0.98185 0.35533 0.0
C651 C 0.32535 0.99273 0.39297 0.0
C652 C 0.32438 0.01407 0.39533 0.0
C653 C 0.3113 0.02447 0.35771 0.0
C654 C 0.34219 0.98238 0.42333 0.0
C655 C 0.35673 0.97276 0.3876 0.0
C656 C 0.34568 0.98479 0.4852 0.0
C657 C 0.33022 0.99381 0.52536 0.0
C658 C 0.33541 0.01 0.56391 0.0
C659 C 0.32078 0.01853 0.60133 0.0
C660 C 0.30091 0.01098 0.60073 0.0
C661 C 0.29562 0.99485 0.56278 0.0
C662 C 0.31019 0.98625 0.52532 0.0
C663 C 0.43528 0.98167 0.49772 0.0
C664 C 0.43814 0.97328 0.55483 0.0
C665 C 0.41652 0.97996 0.4695 0.0
C666 C 0.40035 0.96952 0.49724 0.0
C667 C 0.40356 0.96002 0.55252 0.0
C668 C 0.42227 0.96188 0.58109 0.0
C669 C 0.37962 0.97094 0.47222 0.0
C670 C 0.36438 0.97902 0.50889 0.0
C671 C 0.37545 0.96699 0.41118 0.0
C672 C 0.39051 0.9574 0.37085 0.0
C673 C 0.40001 0.93921 0.38736 0.0
C674 C 0.41423 0.93029 0.34938 0.0
C675 C 0.41903 0.93936 0.29457 0.0
C676 C 0.4096 0.95736 0.27758 0.0
C677 C 0.39539 0.96637 0.31542 0.0
H678 H 0.43004 0.93242 0.26523 0.0
H679 H 0.2896 0.01761 0.6297 0.0
H680 H 0.50779 0.30512 0.24297 0.0
H681 H 0.52382 0.32652 0.31891 0.0
H682 H 0.48133 0.30384 0.45075 0.0
H683 H 0.46505 0.28244 0.37396 0.0
H684 H 0.47976 0.34396 0.44145 0.0
H685 H 0.53234 0.29682 0.46942 0.0
H686 H 0.55888 0.27257 0.44099 0.0
H687 H 0.59249 0.32063 0.35439 0.0
H688 H 0.56601 0.34513 0.38147 0.0
H689 H 0.54415 0.41389 0.63504 0.0
H690 H 0.54108 0.37999 0.59022 0.0
H691 H 0.5163 0.40637 0.43043 0.0
H692 H 0.51915 0.44027 0.47464 0.0
H693 H 0.55236 0.35963 0.4791 0.0
H694 H 0.47229 0.38236 0.40725 0.0
H695 H 0.44655 0.40741 0.43663 0.0
H696 H 0.46793 0.40611 0.6177 0.0
H697 H 0.49364 0.3809 0.5895 0.0
C698 C 0.5023 0.30425 0.28863 0.0
C699 C 0.48513 0.29236 0.3028 0.0
C700 C 0.51155 0.31635 0.33211 0.0
C701 C 0.5038 0.31676 0.39058 0.0
C702 C 0.48757 0.30368 0.40589 0.0
C703 C 0.47834 0.29144 0.36225 0.0
C704 C 0.51036 0.33332 0.43152 0.0
C705 C 0.49562 0.34711 0.45058 0.0
C706 C 0.53105 0.33747 0.44366 0.0
C707 C 0.54711 0.32282 0.42737 0.0
C708 C 0.54532 0.30221 0.44397 0.0
C709 C 0.56037 0.28842 0.42814 0.0
C710 C 0.57735 0.29505 0.39587 0.0
C711 C 0.57933 0.31551 0.37944 0.0
C712 C 0.56432 0.32937 0.39513 0.0
C713 C 0.53856 0.41257 0.5897 0.0
C714 C 0.53149 0.42976 0.55886 0.0
C715 C 0.53689 0.39317 0.56419 0.0
C716 C 0.52813 0.39074 0.50765 0.0
C717 C 0.52288 0.40801 0.47453 0.0
C718 C 0.52452 0.42737 0.49991 0.0
C719 C 0.52182 0.37033 0.48634 0.0
C720 C 0.53653 0.35603 0.47106 0.0
C721 C 0.50109 0.36551 0.47812 0.0
C722 C 0.48495 0.37983 0.49616 0.0
C723 C 0.47136 0.38728 0.45344 0.0
C724 C 0.45681 0.40154 0.46986 0.0
C725 C 0.45563 0.40838 0.52897 0.0
C726 C 0.46889 0.40084 0.57189 0.0
C727 C 0.48346 0.38658 0.55571 0.0
H728 H 0.44446 0.41953 0.54153 0.0
H729 H 0.58899 0.28435 0.38365 0.0
H730 H 0.20901 0.49165 0.37193 0.0
H731 H 0.18156 0.50373 0.43573 0.0
H732 H 0.1847 0.56237 0.34899 0.0
H733 H 0.21192 0.55002 0.28419 0.0
H734 H 0.16928 0.53296 0.51157 0.0
H735 H 0.13859 0.57485 0.30925 0.0
H736 H 0.14194 0.57604 0.19923 0.0
H737 H 0.15698 0.51262 0.19616 0.0
H738 H 0.15401 0.51116 0.30623 0.0
H739 H 0.06668 0.55493 0.59175 0.0
H740 H 0.09942 0.56365 0.54497 0.0
H741 H 0.09477 0.50992 0.43431 0.0
H742 H 0.06254 0.50087 0.48204 0.0
H743 H 0.11162 0.54544 0.37508 0.0
H744 H 0.11833 0.50299 0.55194 0.0
H745 H 0.11224 0.4954 0.65854 0.0
H746 H 0.1426 0.55116 0.70797 0.0
H747 H 0.14865 0.55915 0.60153 0.0
C748 C 0.20458 0.50745 0.36894 0.0
C749 C 0.21256 0.52 0.32377 0.0
C750 C 0.18881 0.51434 0.40509 0.0
C751 C 0.18079 0.53381 0.39617 0.0
C752 C 0.19049 0.54721 0.35604 0.0
C753 C 0.2062 0.54026 0.31961 0.0
C754 C 0.16041 0.53837 0.42033 0.0
C755 C 0.15677 0.53622 0.48191 0.0
C756 C 0.14392 0.54215 0.38159 0.0
C757 C 0.1463 0.54299 0.31578 0.0
C758 C 0.14273 0.56121 0.28502 0.0
C759 C 0.1446 0.56193 0.22275 0.0
C760 C 0.14982 0.54444 0.1908 0.0
C761 C 0.15315 0.52619 0.22106 0.0
C762 C 0.15145 0.52542 0.28336 0.0
C763 C 0.0724 0.54539 0.55609 0.0
C764 C 0.06222 0.52725 0.54027 0.0
C765 C 0.09107 0.55032 0.5297 0.0
C766 C 0.09944 0.53737 0.48643 0.0
C767 C 0.08847 0.52013 0.46741 0.0
C768 C 0.07012 0.51496 0.49468 0.0
C769 C 0.12059 0.54005 0.46597 0.0
C770 C 0.12429 0.54328 0.40507 0.0
C771 C 0.13701 0.53667 0.505 0.0
C772 C 0.13373 0.53177 0.56894 0.0
C773 C 0.12358 0.51368 0.5856 0.0
C774 C 0.12015 0.50929 0.64595 0.0
C775 C 0.12696 0.52281 0.69005 0.0
C776 C 0.13729 0.54071 0.67384 0.0
C777 C 0.14074 0.54518 0.6135 0.0
H778 H 0.12426 0.51935 0.7367 0.0
H779 H 0.15118 0.545 0.14258 0.0
H780 H 0.02825 0.7813 0.07679 0.0
H781 H 0.0377 0.80781 0.00439 0.0
H782 H 0.97715 0.83152 0.01351 0.0
H783 H 0.96758 0.80484 0.0843 0.0
H784 H 0.99263 0.83787 0.9053 0.0
H785 H 0.01331 0.84764 0.10999 0.0
H786 H 0.03089 0.83843 0.20307 0.0
H787 H 0.0879 0.83978 0.11009 0.0
H788 H 0.07053 0.84877 0.01628 0.0
H789 H 0.9923 0.94224 0.89927 0.0
H790 H 0.99367 0.90853 0.94435 0.0
H791 H 0.054 0.90075 0.87447 0.0
H792 H 0.05277 0.93483 0.82897 0.0
H793 H 0.04501 0.88324 0.99551 0.0
H794 H 0.01889 0.8859 0.79561 0.0
H795 H 0.99666 0.89929 0.7172 0.0
H796 H 0.94442 0.87706 0.81254 0.0
H797 H 0.9662 0.86456 0.89333 0.0
C798 C 0.01676 0.79164 0.06126 0.0
C799 C 0.99726 0.79123 0.08659 0.0
C800 C 0.02222 0.80688 0.02034 0.0
C801 C 0.00826 0.82192 0.00466 0.0
C802 C 0.98821 0.82015 0.02511 0.0
C803 C 0.98276 0.80494 0.06573 0.0
C804 C 0.0149 0.84106 0.97476 0.0
C805 C 0.00417 0.84775 0.92462 0.0
C806 C 0.03009 0.85388 -8e-05 0.0
C807 C 0.04061 0.8486 0.05612 0.0
C808 C 0.02957 0.84585 0.10943 0.0
C809 C 0.03949 0.84068 0.16227 0.0
C810 C 0.0605 0.83845 0.16245 0.0
C811 C 0.07162 0.84146 0.10983 0.0
C812 C 0.06175 0.84658 0.05681 0.0
C813 C 0.00609 0.9336 0.89479 0.0
C814 C 0.02232 0.94097 0.85988 0.0
C815 C 0.00683 0.91436 0.92053 0.0
C816 C 0.02372 0.90205 0.91134 0.0
C817 C 0.04079 0.91006 0.88152 0.0
C818 C 0.04009 0.9295 0.85578 0.0
C819 C 0.0223 0.88024 0.92728 0.0
C820 C 0.03398 0.8731 0.97477 0.0
C821 C 0.00744 0.86731 0.90087 0.0
C822 C 0.99429 0.87436 0.85108 0.0
C823 C 0.00266 0.88413 0.80055 0.0
C824 C 0.99011 0.89163 0.75564 0.0
C825 C 0.96915 0.88898 0.75982 0.0
C826 C 0.96068 0.87904 0.80925 0.0
C827 C 0.97313 0.87183 0.85479 0.0
H828 H 0.95947 0.89459 0.72472 0.0
H829 H 0.06817 0.83445 0.2034 0.0
H830 H 0.71019 0.06774 0.04775 0.0
H831 H 0.68409 0.07137 0.97035 0.0
H832 H 0.67094 0.00696 0.98081 0.0
H833 H 0.69694 0.00332 0.05748 0.0
H834 H 0.67039 0.04672 0.8532 0.0
H835 H 0.62277 0.00798 0.03426 0.0
H836 H 0.62279 0.00381 0.14401 0.0
H837 H 0.65143 0.06252 0.16403 0.0
H838 H 0.65134 0.06713 0.05457 0.0
H839 H 0.58108 0.0005 0.74972 0.0
H840 H 0.61286 0.01098 0.79549 0.0
H841 H 0.58264 0.05981 0.88741 0.0
H842 H 0.55039 0.04933 0.84136 0.0
H843 H 0.60535 0.03711 0.96241 0.0
H844 H 0.61679 0.07195 0.77881 0.0
H845 H 0.61801 0.0768 0.66954 0.0
H846 H 0.66116 0.02877 0.65342 0.0
H847 H 0.66023 0.02362 0.76266 0.0
C848 C 0.70243 0.05426 0.03103 0.0
C849 C 0.70554 0.03524 0.05784 0.0
C850 C 0.68752 0.05635 0.98714 0.0
C851 C 0.67557 0.03944 0.97046 0.0
C852 C 0.68008 0.02013 0.99312 0.0
C853 C 0.69495 0.01805 0.03662 0.0
C854 C 0.65621 0.0422 0.93891 0.0
C855 C 0.65612 0.04485 0.87681 0.0
C856 C 0.63768 0.0402 0.97031 0.0
C857 C 0.63713 0.03784 0.03628 0.0
C858 C 0.62894 0.02005 0.06216 0.0
C859 C 0.62899 0.01759 0.12428 0.0
C860 C 0.6371 0.0329 0.16093 0.0
C861 C 0.64516 0.05068 0.13558 0.0
C862 C 0.64514 0.0532 0.07352 0.0
C863 C 0.5811 0.01354 0.77949 0.0
C864 C 0.56312 0.02396 0.79242 0.0
C865 C 0.59939 0.01966 0.80507 0.0
C866 C 0.60019 0.03633 0.84425 0.0
C867 C 0.58235 0.04698 0.85687 0.0
C868 C 0.56396 0.04096 0.83069 0.0
C869 C 0.61935 0.04114 0.87591 0.0
C870 C 0.61947 0.03962 0.93845 0.0
C871 C 0.63783 0.04445 0.84477 0.0
C872 C 0.6384 0.04737 0.77897 0.0
C873 C 0.62648 0.06236 0.75195 0.0
C874 C 0.62717 0.06521 0.69004 0.0
C875 C 0.63968 0.05312 0.65458 0.0
C876 C 0.65154 0.03816 0.68098 0.0
C877 C 0.65099 0.03533 0.74293 0.0
H878 H 0.64014 0.05531 0.60662 0.0
H879 H 0.63707 0.03103 0.20897 0.0
H880 H 0.51414 0.70594 0.00465 0.0
H881 H 0.50643 0.68134 0.92568 0.0
H882 H 0.44541 0.67477 0.99346 0.0
H883 H 0.45347 0.69895 0.07373 0.0
H884 H 0.46307 0.64011 0.99594 0.0
H885 H 0.45559 0.68987 0.84569 0.0
H886 H 0.46371 0.72075 0.78737 0.0
H887 H 0.51941 0.69426 0.72847 0.0
H888 H 0.51186 0.66335 0.78732 0.0
H889 H 0.46058 0.55166 0.80707 0.0
H890 H 0.45129 0.58504 0.84742 0.0
H891 H 0.51229 0.60712 0.81768 0.0
H892 H 0.5216 0.5742 0.77689 0.0
H893 H 0.48523 0.63529 0.78448 0.0
H894 H 0.49609 0.5908 0.95584 0.0
H895 H 0.48915 0.56047 0.01803 0.0
H896 H 0.42715 0.57823 0.03788 0.0
H897 H 0.4337 0.60855 0.97519 0.0
C898 C 0.4988 0.70003 0.00059 0.0
C899 C 0.48433 0.70434 0.0446 0.0
C900 C 0.49436 0.68593 0.95549 0.0
C901 C 0.47531 0.67611 0.95359 0.0
C902 C 0.4602 0.68211 0.99404 0.0
C903 C 0.46472 0.69605 0.03949 0.0
C904 C 0.47271 0.6571 0.91809 0.0
C905 C 0.4673 0.63922 0.94909 0.0
C906 C 0.47859 0.65576 0.85732 0.0
C907 C 0.48316 0.67427 0.82121 0.0
C908 C 0.46964 0.69065 0.82063 0.0
C909 C 0.47414 0.70818 0.78743 0.0
C910 C 0.49207 0.70947 0.75427 0.0
C911 C 0.50552 0.69323 0.75415 0.0
C912 C 0.50112 0.67568 0.78737 0.0
C913 C 0.47201 0.56362 0.80932 0.0
C914 C 0.49187 0.56018 0.78905 0.0
C915 C 0.46666 0.5827 0.83215 0.0
C916 C 0.48111 0.59858 0.83551 0.0
C917 C 0.50084 0.59517 0.815 0.0
C918 C 0.50618 0.57623 0.79213 0.0
C919 C 0.47629 0.61851 0.86314 0.0
C920 C 0.48035 0.63644 0.8307 0.0
C921 C 0.46922 0.61998 0.92269 0.0
C922 C 0.46531 0.60175 0.96022 0.0
C923 C 0.48094 0.58813 0.97308 0.0
C924 C 0.47709 0.57097 0.00848 0.0
C925 C 0.4577 0.56738 0.0317 0.0
C926 C 0.44214 0.58099 0.01972 0.0
C927 C 0.44591 0.59816 0.98428 0.0
H928 H 0.45475 0.55409 0.05912 0.0
H929 H 0.49553 0.72305 0.72862 0.0
H930 H 0.79362 0.48711 0.05578 0.0
H931 H 0.81704 0.47206 0.98336 0.0
H932 H 0.84542 0.53093 0.95655 0.0
H933 H 0.82192 0.54602 0.02803 0.0
H934 H 0.84679 0.50738 0.85431 0.0
H935 H 0.85953 0.50112 0.06848 0.0
H936 H 0.85028 0.48958 0.17009 0.0
H937 H 0.84896 0.42747 0.10967 0.0
H938 H 0.85759 0.43869 0.00731 0.0
H939 H 0.95704 0.48651 0.88974 0.0
H940 H 0.92368 0.48717 0.93681 0.0
H941 H 0.89758 0.45774 0.78214 0.0
H942 H 0.93083 0.45722 0.73422 0.0
H943 H 0.89182 0.46125 0.96695 0.0
H944 H 0.85589 0.4836 0.74666 0.0
H945 H 0.86663 0.49554 0.64662 0.0
H946 H 0.91691 0.52795 0.72455 0.0
H947 H 0.90638 0.51632 0.82502 0.0
C948 C 0.80428 0.49696 0.03242 0.0
C949 C 0.8062 0.51766 0.04794 0.0
C950 C 0.81772 0.48834 0.99135 0.0
C951 C 0.83321 0.50032 0.96558 0.0
C952 C 0.83363 0.5214 0.97608 0.0
C953 C 0.82027 0.52999 0.0171 0.0
C954 C 0.85091 0.49081 0.93639 0.0
C955 C 0.85641 0.49699 0.87848 0.0
C956 C 0.86366 0.47747 0.96827 0.0
C957 C 0.85897 0.47075 0.03014 0.0
C958 C 0.85715 0.48501 0.07681 0.0
C959 C 0.852 0.47854 0.1345 0.0
C960 C 0.84905 0.45782 0.1463 0.0
C961 C 0.85122 0.44352 0.10044 0.0
C962 C 0.85619 0.44993 0.04256 0.0
C963 C 0.94434 0.47965 0.86631 0.0
C964 C 0.94656 0.47221 0.80766 0.0
C965 C 0.92526 0.47999 0.8934 0.0
C966 C 0.90812 0.47289 0.86241 0.0
C967 C 0.91059 0.46359 0.8064 0.0
C968 C 0.92964 0.4633 0.77913 0.0
C969 C 0.88768 0.47787 0.88511 0.0
C970 C 0.8818 0.47104 0.94198 0.0
C971 C 0.87471 0.49081 0.85267 0.0
C972 C 0.88045 0.49894 0.79311 0.0
C973 C 0.86915 0.49338 0.7424 0.0
C974 C 0.87526 0.5 0.68567 0.0
C975 C 0.89256 0.51231 0.67925 0.0
C976 C 0.90362 0.51828 0.72959 0.0
C977 C 0.89758 0.51169 0.78641 0.0
H978 H 0.89724 0.51742 0.63534 0.0
H979 H 0.8451 0.45284 0.191 0.0
H980 H 0.09524 0.19118 0.13111 0.0
H981 H 0.0969 0.16089 0.06615 0.0
H982 H 0.03228 0.16322 0.04034 0.0
H983 H 0.03062 0.19325 0.10461 0.0
H984 H 0.04672 0.12709 0.09424 0.0
H985 H 0.06173 0.17241 0.92689 0.0
H986 H 0.08233 0.19823 0.87358 0.0
H987 H 0.13355 0.15866 0.87734 0.0
H988 H 0.1133 0.13269 0.93144 0.0
H989 H 0.0071 0.06534 0.87305 0.0
H990 H 0.0199 0.093 0.93519 0.0
H991 H 0.08062 0.07043 0.91661 0.0
H992 H 0.06782 0.04234 0.85362 0.0
H993 H 0.07717 0.11299 0.89569 0.0
H994 H 0.06002 0.06534 0.04725 0.0
H995 H 0.03954 0.03964 0.10143 0.0
H996 H 0.99286 0.08352 0.13027 0.0
H997 H 0.01282 0.10933 0.07507 0.0
C998 C 0.0816 0.18565 0.10936 0.0
C999 C 0.0628 0.1944 0.1225 0.0
C1000 C 0.08253 0.16834 0.07275 0.0
C1001 C 0.06467 0.15979 0.04916 0.0
C1002 C 0.04619 0.16959 0.05843 0.0
C1003 C 0.04527 0.18677 0.09472 0.0
C1004 C 0.06442 0.13936 0.02146 0.0
C1005 C 0.05331 0.12399 0.05073 0.0
C1006 C 0.07396 0.13512 0.96632 0.0
C1007 C 0.08609 0.15074 0.93394 0.0
C1008 C 0.07745 0.16931 0.91694 0.0
C1009 C 0.08904 0.18394 0.88643 0.0
C1010 C 0.10926 0.18012 0.87229 0.0
C1011 C 0.1179 0.16162 0.88845 0.0
C1012 C 0.10637 0.14694 0.91901 0.0
C1013 C 0.02317 0.06609 0.88236 0.0
C1014 C 0.03645 0.05163 0.8584 0.0
C1015 C 0.03045 0.08189 0.91814 0.0
C1016 C 0.05117 0.08363 0.93083 0.0
C1017 C 0.06456 0.06923 0.9074 0.0
C1018 C 0.05722 0.05318 0.8718 0.0
C1019 C 0.05842 0.10111 0.96698 0.0
C1020 C 0.07095 0.1159 0.93979 0.0
C1021 C 0.0502 0.10488 0.02431 0.0
C1022 C 0.03794 0.08929 0.05686 0.0
C1023 C 0.04531 0.06946 0.06466 0.0
C1024 C 0.03379 0.05487 0.0956 0.0
C1025 C 0.0149 0.05994 0.11925 0.0
C1026 C 0.00749 0.07961 0.11195 0.0
C1027 C 0.01892 0.09423 0.08089 0.0
H1028 H 0.00603 0.04862 0.14326 0.0
H1029 H 0.11821 0.19147 0.84864 0.0
H1030 H 0.29805 0.02407 0.0634 0.0
H1031 H 0.32808 0.02621 -0.00106 0.0
H1032 H 0.35293 0.0739 0.11048 0.0
H1033 H 0.32314 0.07137 0.17618 0.0
H1034 H 0.35844 0.07237 0.96041 0.0
H1035 H 0.37207 0.04145 0.1561 0.0
H1036 H 0.36223 0.01905 0.24012 0.0
H1037 H 0.35713 0.96819 0.11986 0.0
H1038 H 0.36651 0.99043 0.03491 0.0
H1039 H 0.45942 0.05154 0.85728 0.0
H1040 H 0.43163 0.06193 0.92329 0.0
H1041 H 0.40401 0.00232 0.90493 0.0
H1042 H 0.43162 0.99177 0.84054 0.0
H1043 H 0.40191 0.0144 0.0171 0.0
H1044 H 0.38818 0.04382 0.82285 0.0
H1045 H 0.39583 0.06534 0.7351 0.0
H1046 H 0.40001 0.11816 0.84819 0.0
H1047 H 0.39262 0.09688 0.93674 0.0
C1048 C 0.30951 0.03561 0.07257 0.0
C1049 C 0.30835 0.04761 0.12438 0.0
C1050 C 0.32666 0.03676 0.03599 0.0
C1051 C 0.34266 0.05015 0.05034 0.0
C1052 C 0.34064 0.06358 0.09869 0.0
C1053 C 0.32366 0.06216 0.13598 0.0
C1054 C 0.36255 0.04745 0.02132 0.0
C1055 C 0.36822 0.06 0.97335 0.0
C1056 C 0.37503 0.03112 0.03802 0.0
C1057 C 0.36974 0.01765 0.08911 0.0
C1058 C 0.36864 0.02554 0.14751 0.0
C1059 C 0.36318 0.01287 0.1953 0.0
C1060 C 0.359 0.99222 0.18532 0.0
C1061 C 0.36033 0.9842 0.12752 0.0
C1062 C 0.36571 0.99683 0.07953 0.0
C1063 C 0.44752 0.04061 0.86786 0.0
C1064 C 0.44773 0.02085 0.84331 0.0
C1065 C 0.4316 0.0466 0.9053 0.0
C1066 C 0.41562 0.03297 0.91853 0.0
C1067 C 0.41616 0.01311 0.89544 0.0
C1068 C 0.43199 0.00712 0.85834 0.0
C1069 C 0.39794 0.03918 0.95513 0.0
C1070 C 0.39252 0.02714 0.00468 0.0
C1071 C 0.38572 0.05596 0.93961 0.0
C1072 C 0.3901 0.06874 0.88644 0.0
C1073 C 0.39089 0.06 0.82903 0.0
C1074 C 0.39515 0.07215 0.77916 0.0
C1075 C 0.39848 0.09309 0.78609 0.0
C1076 C 0.39748 0.10193 0.84291 0.0
C1077 C 0.39325 0.08984 0.89294 0.0
H1078 H 0.40177 0.10248 0.74743 0.0
H1079 H 0.35479 0.98244 0.22237 0.0
H1080 H 0.4305 0.32216 0.16845 0.0
H1081 H 0.43048 0.35132 0.09996 0.0
H1082 H 0.46945 0.31881 0.97887 0.0
H1083 H 0.46916 0.28949 0.04677 0.0
H1084 H 0.48506 0.35685 0.03517 0.0
H1085 H 0.42737 0.32957 0.92708 0.0
H1086 H 0.39233 0.31655 0.91821 0.0
H1087 H 0.36982 0.37309 0.98663 0.0
H1088 H 0.40477 0.38635 0.99675 0.0
H1089 H 0.50738 0.42061 0.80067 0.0
H1090 H 0.49505 0.39275 0.86203 0.0
H1091 H 0.44878 0.43123 0.93593 0.0
H1092 H 0.46082 0.45954 0.87233 0.0
H1093 H 0.4342 0.39276 0.91281 0.0
H1094 H 0.48986 0.42126 0.01827 0.0
H1095 H 0.52426 0.4355 0.03227 0.0
H1096 H 0.54983 0.37841 0.97947 0.0
H1097 H 0.5156 0.36391 0.96423 0.0
C1098 C 0.43828 0.32096 0.12589 0.0
C1099 C 0.44976 0.30367 0.11241 0.0
C1100 C 0.4383 0.33759 0.08699 0.0
C1101 C 0.45002 0.33717 0.03467 0.0
C1102 C 0.46024 0.3193 0.01902 0.0
C1103 C 0.45997 0.30256 0.05748 0.0
C1104 C 0.45449 0.35627 0.00217 0.0
C1105 C 0.47404 0.36459 0.00775 0.0
C1106 C 0.4397 0.36684 0.96942 0.0
C1107 C 0.4187 0.35886 0.96334 0.0
C1108 C 0.41496 0.33915 0.94086 0.0
C1109 C 0.39511 0.33174 0.93544 0.0
C1110 C 0.37886 0.34396 0.95203 0.0
C1111 C 0.38243 0.36363 0.9739 0.0
C1112 C 0.40225 0.3711 0.97943 0.0
C1113 C 0.49463 0.42335 0.83009 0.0
C1114 C 0.48528 0.44246 0.8323 0.0
C1115 C 0.48759 0.40732 0.8652 0.0
C1116 C 0.47128 0.41003 0.90448 0.0
C1117 C 0.4615 0.4289 0.90612 0.0
C1118 C 0.46844 0.44505 0.8701 0.0
C1119 C 0.46505 0.39295 0.94399 0.0
C1120 C 0.4452 0.38511 0.94048 0.0
C1121 C 0.47944 0.38296 0.97996 0.0
C1122 C 0.50012 0.39153 0.98977 0.0
C1123 C 0.50282 0.41177 0.00929 0.0
C1124 C 0.52229 0.41989 0.01748 0.0
C1125 C 0.53922 0.40788 0.00668 0.0
C1126 C 0.5367 0.3877 0.98782 0.0
C1127 C 0.51726 0.37951 0.97948 0.0
H1128 H 0.55428 0.4142 0.013 0.0
H1129 H 0.3635 0.3382 0.94779 0.0
H1130 H 0.17941 0.47388 0.1926 0.0
H1131 H 0.15272 0.46726 0.11993 0.0
H1132 H 0.19091 0.49161 0.97958 0.0
H1133 H 0.21748 0.49911 0.05296 0.0
H1134 H 0.15495 0.50849 0.97752 0.0
H1135 H 0.17848 0.44014 0.98757 0.0
H1136 H 0.18889 0.4083 0.03629 0.0
H1137 H 0.1296 0.40113 0.11332 0.0
H1138 H 0.11891 0.43309 0.06574 0.0
H1139 H 0.08729 0.48194 0.74468 0.0
H1140 H 0.11709 0.48008 0.80845 0.0
H1141 H 0.07884 0.46889 0.96184 0.0
H1142 H 0.04871 0.47116 0.89837 0.0
H1143 H 0.11563 0.44408 0.95307 0.0
H1144 H 0.09247 0.51287 0.94077 0.0
H1145 H 0.08249 0.54441 0.89014 0.0
H1146 H 0.14257 0.5516 0.81885 0.0
H1147 H 0.15258 0.51935 0.86578 0.0
C1148 C 0.1822 0.47768 0.14615 0.0
C1149 C 0.20046 0.48722 0.12853 0.0
C1150 C 0.167 0.47368 0.10453 0.0
C1151 C 0.16986 0.4788 0.04421 0.0
C1152 C 0.18842 0.4875 0.02595 0.0
C1153 C 0.20363 0.49163 0.06776 0.0
C1154 C 0.15281 0.47677 0.00158 0.0
C1155 C 0.14663 0.49428 0.97113 0.0
C1156 C 0.14158 0.45838 0.99483 0.0
C1157 C 0.14794 0.43911 0.02343 0.0
C1158 C 0.16771 0.43186 0.01527 0.0
C1159 C 0.17365 0.41377 0.04262 0.0
C1160 C 0.15993 0.40272 0.07798 0.0
C1161 C 0.14022 0.40972 0.08595 0.0
C1162 C 0.1342 0.4278 0.05873 0.0
C1163 C 0.08516 0.47876 0.79181 0.0
C1164 C 0.06562 0.47679 0.81662 0.0
C1165 C 0.10223 0.47774 0.82812 0.0
C1166 C 0.10009 0.47447 0.8897 0.0
C1167 C 0.08071 0.47141 0.91427 0.0
C1168 C 0.06356 0.47279 0.87808 0.0
C1169 C 0.118 0.47574 0.92891 0.0
C1170 C 0.12418 0.45817 0.95893 0.0
C1171 C 0.12932 0.49408 0.93506 0.0
C1172 C 0.12317 0.51338 0.90591 0.0
C1173 C 0.10344 0.52086 0.91313 0.0
C1174 C 0.09776 0.5389 0.885 0.0
C1175 C 0.11184 0.54993 0.85087 0.0
C1176 C 0.13162 0.54294 0.8448 0.0
C1177 C 0.13726 0.52469 0.87178 0.0
H1178 H 0.10747 0.56396 0.82943 0.0
H1179 H 0.16457 0.38872 0.09911 0.0
H1180 H 0.9503 0.80124 0.27202 0.0
H1181 H 0.94579 0.8284 0.34612 0.0
H1182 H 0.00612 0.81798 0.41236 0.0
H1183 H 0.01011 0.7902 0.34053 0.0
H1184 H 0.98443 0.83012 0.4996 0.0
H1185 H 0.99622 0.85268 0.29958 0.0
H1186 H 0.98958 0.85485 0.19143 0.0
H1187 H 0.93174 0.88147 0.22686 0.0
H1188 H 0.93786 0.87906 0.33547 0.0
H1189 H 0.00098 0.94805 0.50181 0.0
H1190 H 0.99729 0.91579 0.44871 0.0
H1191 H 0.96138 0.89146 0.59426 0.0
H1192 H 0.96544 0.9236 0.6484 0.0
H1193 H 0.96814 0.89598 0.4039 0.0
H1194 H 0.96863 0.84014 0.60702 0.0
H1195 H 0.98591 0.83477 0.70331 0.0
H1196 H 0.0339 0.87552 0.64923 0.0
H1197 H 0.01697 0.88108 0.5526 0.0
C1198 C 0.96223 0.80436 0.304 0.0
C1199 C 0.98053 0.79379 0.30101 0.0
C1200 C 0.95975 0.81993 0.34588 0.0
C1201 C 0.97582 0.82558 0.38372 0.0
C1202 C 0.99352 0.81394 0.3836 0.0
C1203 C 0.99581 0.79807 0.34266 0.0
C1204 C 0.97523 0.84483 0.41845 0.0
C1205 C 0.98061 0.84451 0.479 0.0
C1206 C 0.97101 0.86371 0.39086 0.0
C1207 C 0.96738 0.86546 0.32563 0.0
C1208 C 0.98203 0.85888 0.28432 0.0
C1209 C 0.97837 0.86015 0.22293 0.0
C1210 C 0.96024 0.86825 0.20225 0.0
C1211 C 0.94576 0.87515 0.24296 0.0
C1212 C 0.9493 0.87382 0.30444 0.0
C1213 C 0.99212 0.93593 0.52236 0.0
C1214 C 0.98353 0.93843 0.57942 0.0
C1215 C 0.99004 0.91745 0.49195 0.0
C1216 C 0.97925 0.90107 0.51773 0.0
C1217 C 0.97011 0.90372 0.5739 0.0
C1218 C 0.97229 0.92218 0.60456 0.0
C1219 C 0.97755 0.88137 0.48533 0.0
C1220 C 0.97159 0.88159 0.4251 0.0
C1221 C 0.98239 0.86255 0.51239 0.0
C1222 C 0.99141 0.86118 0.57285 0.0
C1223 C 0.98277 0.84811 0.61596 0.0
C1224 C 0.99256 0.84493 0.6704 0.0
C1225 C 0.01111 0.8546 0.682 0.0
C1226 C 0.01961 0.86793 0.63995 0.0
C1227 C 0.00984 0.87122 0.5855 0.0
H1228 H 0.01883 0.85186 0.72377 0.0
H1229 H 0.95744 0.86922 0.15468 0.0
H1230 H 0.71178 0.999 0.30611 0.0
H1231 H 0.6845 0.98868 0.37489 0.0
H1232 H 0.65015 0.04113 0.32229 0.0
H1233 H 0.67739 0.05154 0.2543 0.0
H1234 H 0.64477 0.03271 0.44029 0.0
H1235 H 0.64288 0.99695 0.25168 0.0
H1236 H 0.65689 0.9756 0.17117 0.0
H1237 H 0.66489 0.9266 0.2956 0.0
H1238 H 0.65116 0.94786 0.37702 0.0
H1239 H 0.54286 0.00616 0.46452 0.0
H1240 H 0.57509 0.01051 0.41214 0.0
H1241 H 0.60119 0.96319 0.51943 0.0
H1242 H 0.56903 0.95886 0.57305 0.0
H1243 H 0.61293 0.96634 0.38492 0.0
H1244 H 0.61095 0.00316 0.57303 0.0
H1245 H 0.59342 0.02505 0.64588 0.0
H1246 H 0.59054 0.07291 0.51566 0.0
H1247 H 0.60771 0.05113 0.44162 0.0
C1248 C 0.69868 0.00863 0.3108 0.0
C1249 C 0.69655 0.02595 0.27473 0.0
C1250 C 0.68307 0.00266 0.34966 0.0
C1251 C 0.66518 0.01397 0.35286 0.0
C1252 C 0.66379 0.03216 0.3204 0.0
C1253 C 0.67931 0.03805 0.28146 0.0
C1254 C 0.64708 0.00596 0.38471 0.0
C1255 C 0.63789 0.01817 0.42834 0.0
C1256 C 0.63811 0.98693 0.36929 0.0
C1257 C 0.64625 0.97407 0.32049 0.0
C1258 C 0.64778 0.98169 0.2619 0.0
C1259 C 0.65565 0.9696 0.21611 0.0
C1260 C 0.66185 0.94977 0.2283 0.0
C1261 C 0.66013 0.94198 0.28627 0.0
C1262 C 0.65231 0.95405 0.33224 0.0
C1263 C 0.55521 0.9962 0.47584 0.0
C1264 C 0.55346 0.98234 0.5235 0.0
C1265 C 0.57363 0.99878 0.44597 0.0
C1266 C 0.59047 0.98735 0.46268 0.0
C1267 C 0.58831 0.97216 0.5062 0.0
C1268 C 0.56994 0.96975 0.53675 0.0
C1269 C 0.61071 0.99314 0.43988 0.0
C1270 C 0.62017 0.9806 0.39786 0.0
C1271 C 0.61983 0.01194 0.45631 0.0
C1272 C 0.61043 0.02544 0.50161 0.0
C1273 C 0.60645 0.0183 0.5598 0.0
C1274 C 0.59654 0.03066 0.60126 0.0
C1275 C 0.59074 0.0503 0.58525 0.0
C1276 C 0.59499 0.05767 0.52792 0.0
C1277 C 0.60483 0.04533 0.4862 0.0
H1278 H 0.58308 0.05985 0.61742 0.0
H1279 H 0.66793 0.94041 0.1928 0.0
H1280 H 0.47917 0.66953 0.23024 0.0
H1281 H 0.48836 0.64103 0.29313 0.0
H1282 H 0.54309 0.67281 0.34598 0.0
H1283 H 0.53464 0.70097 0.27923 0.0
H1284 H 0.5517 0.6353 0.32123 0.0
H1285 H 0.50206 0.66596 0.4441 0.0
H1286 H 0.46955 0.68178 0.47015 0.0
H1287 H 0.4378 0.62661 0.42276 0.0
H1288 H 0.47009 0.61053 0.39563 0.0
H1289 H 0.55785 0.56097 0.56698 0.0
H1290 H 0.55753 0.59161 0.50474 0.0
H1291 H 0.5131 0.56336 0.38953 0.0
H1292 H 0.51348 0.53261 0.45055 0.0
H1293 H 0.50206 0.6013 0.45617 0.0
H1294 H 0.55383 0.57217 0.32853 0.0
H1295 H 0.58732 0.55741 0.30884 0.0
H1296 H 0.61632 0.6116 0.37666 0.0
H1297 H 0.58296 0.62658 0.39757 0.0
C1298 C 0.49319 0.6705 0.25513 0.0
C1299 C 0.50625 0.68746 0.2493 0.0
C1300 C 0.49831 0.65427 0.29178 0.0
C1301 C 0.5163 0.65486 0.32497 0.0
C1302 C 0.52911 0.67205 0.32086 0.0
C1303 C 0.52413 0.68823 0.28329 0.0
C1304 C 0.52199 0.63699 0.36134 0.0
C1305 C 0.54098 0.6281 0.35165 0.0
C1306 C 0.50801 0.62751 0.40088 0.0
C1307 C 0.48851 0.63708 0.41749 0.0
C1308 C 0.48814 0.65724 0.43887 0.0
C1309 C 0.46974 0.66625 0.45388 0.0
C1310 C 0.45162 0.65522 0.44802 0.0
C1311 C 0.45185 0.63514 0.42727 0.0
C1312 C 0.4702 0.62605 0.41217 0.0
C1313 C 0.54848 0.56103 0.52733 0.0
C1314 C 0.53545 0.54448 0.51421 0.0
C1315 C 0.54835 0.57853 0.49187 0.0
C1316 C 0.53515 0.57969 0.44316 0.0
C1317 C 0.52335 0.56265 0.42719 0.0
C1318 C 0.52365 0.54508 0.46206 0.0
C1319 C 0.53136 0.59943 0.41436 0.0
C1320 C 0.51278 0.60869 0.4261 0.0
C1321 C 0.54587 0.6094 0.37793 0.0
C1322 C 0.5659 0.60039 0.36531 0.0
C1323 C 0.56734 0.58085 0.33987 0.0
C1324 C 0.5863 0.57247 0.32832 0.0
C1325 C 0.60394 0.58353 0.34168 0.0
C1326 C 0.60264 0.60303 0.36644 0.0
C1327 C 0.58372 0.61148 0.3781 0.0
H1328 H 0.61861 0.57701 0.3327 0.0
H1329 H 0.4374 0.66223 0.45964 0.0
H1330 H 0.82962 0.56974 0.20042 0.0
H1331 H 0.85711 0.57593 0.27187 0.0
H1332 H 0.83343 0.52763 0.38391 0.0
H1333 H 0.80565 0.52198 0.31384 0.0
H1334 H 0.84918 0.55664 0.45112 0.0
H1335 H 0.87064 0.52014 0.27062 0.0
H1336 H 0.87626 0.51696 0.16186 0.0
H1337 H 0.91412 0.57058 0.16384 0.0
H1338 H 0.90861 0.57421 0.27256 0.0
H1339 H 0.92963 0.50087 0.56887 0.0
H1340 H 0.90106 0.51418 0.51308 0.0
H1341 H 0.93747 0.56574 0.45693 0.0
H1342 H 0.96627 0.55264 0.51369 0.0
H1343 H 0.91713 0.54492 0.36343 0.0
H1344 H 0.90269 0.57471 0.55005 0.0
H1345 H 0.89701 0.57789 0.65853 0.0
H1346 H 0.84575 0.5372 0.64688 0.0
H1347 H 0.85153 0.53315 0.53866 0.0
C1348 C 0.83009 0.56083 0.24112 0.0
C1349 C 0.81565 0.54532 0.25165 0.0
C1350 C 0.8458 0.5643 0.2817 0.0
C1351 C 0.8476 0.55192 0.33253 0.0
C1352 C 0.83239 0.53736 0.34497 0.0
C1353 C 0.8165 0.53414 0.30497 0.0
C1354 C 0.86614 0.5525 0.3698 0.0
C1355 C 0.86405 0.55401 0.43212 0.0
C1356 C 0.88566 0.54988 0.3447 0.0
C1357 C 0.88902 0.54759 0.27949 0.0
C1358 C 0.88006 0.53132 0.24777 0.0
C1359 C 0.88323 0.52942 0.18618 0.0
C1360 C 0.89544 0.54359 0.15593 0.0
C1361 C 0.90461 0.55965 0.18728 0.0
C1362 C 0.90149 0.56163 0.24887 0.0
C1363 C 0.93162 0.51505 0.5447 0.0
C1364 C 0.95026 0.52565 0.54534 0.0
C1365 C 0.9152 0.52273 0.51336 0.0
C1366 C 0.91712 0.54105 0.48161 0.0
C1367 C 0.9357 0.55166 0.48172 0.0
C1368 C 0.95211 0.54414 0.51397 0.0
C1369 C 0.9 0.54805 0.4449 0.0
C1370 C 0.90237 0.54798 0.38262 0.0
C1371 C 0.88074 0.55182 0.4702 0.0
C1372 C 0.87765 0.55353 0.53596 0.0
C1373 C 0.89039 0.56617 0.57063 0.0
C1374 C 0.88711 0.56818 0.63215 0.0
C1375 C 0.87098 0.55781 0.65954 0.0
C1376 C 0.85818 0.54531 0.62554 0.0
C1377 C 0.86151 0.54308 0.56412 0.0
H1378 H 0.86846 0.55939 0.70716 0.0
H1379 H 0.89786 0.54208 0.10824 0.0
loop_
_geom_bond_atom_site_label_1
_geom_bond_atom_site_label_2
_geom_bond_distance
_geom_bond_site_symmetry_2
_ccdc_geom_bond_type
H0 C3 0.929 . S
H1 C6 0.929 . S
H2 C8 0.930 . S
C3 H0 0.929 . S
C3 C4 1.398 . S
C3 C5 1.396 . S
C4 C3 1.398 . S
C4 C8 1.407 . S
C5 C3 1.396 . S
C5 C6 1.394 1_554 S
C6 H1 0.929 . S
C6 C5 1.394 1_556 S
C6 C7 1.382 1_556 S
C7 C6 1.382 1_554 S
C7 C8 1.392 . S
C7 N9 1.420 . S
C8 H2 0.930 . S
C8 C4 1.407 . S
C8 C7 1.392 . S
N9 C7 1.420 . S
N9 C10 1.244 1_554 S
C10 N9 1.244 1_556 S
H11 C14 0.937 . S
H12 C17 0.929 . S
H13 C19 0.930 . S
C14 H11 0.937 . S
C14 C15 1.395 1_655 S
C14 C16 1.391 1_655 S
C15 C14 1.395 1_455 S
C15 C19 1.407 . S
C16 C14 1.391 1_455 S
C16 C17 1.404 . S
C17 H12 0.929 . S
C17 C16 1.404 . S
C17 C18 1.382 . S
C18 C17 1.382 . S
C18 C19 1.392 . S
C18 N20 1.420 . S
C19 H13 0.930 . S
C19 C15 1.407 . S
C19 C18 1.392 . S
N20 C18 1.420 . S
N20 C21 1.244 1_455 S
C21 N20 1.244 1_655 S
H22 C25 0.929 . S
H23 C28 0.929 . S
H24 C30 0.930 . S
C25 H22 0.929 . S
C25 C26 1.395 1_565 S
C25 C27 1.394 1_565 S
C26 C25 1.395 1_545 S
C26 C30 1.415 . S
C27 C25 1.394 1_545 S
C27 C28 1.398 . S
C28 H23 0.929 . S
C28 C27 1.398 . S
C28 C29 1.382 . S
C29 C28 1.382 . S
C29 C30 1.392 . S
C29 N31 1.420 . S
C30 H24 0.930 . S
C30 C26 1.415 . S
C30 C29 1.392 . S
N31 C29 1.420 . S
N31 C32 1.218 1_545 S
C32 N31 1.218 1_565 S
H33 C36 0.929 . S
H34 C39 0.929 1_556 S
H35 C41 0.930 . S
C36 H33 0.929 . S
C36 C37 1.398 . S
C36 C38 1.396 . S
C37 C36 1.398 . S
C37 C41 1.407 . S
C38 C36 1.396 . S
C38 C39 1.394 . S
C39 H34 0.929 1_554 S
C39 C38 1.394 . S
C39 C40 1.382 . S
C40 C39 1.382 . S
C40 C41 1.392 . S
C40 N42 1.420 . S
C41 H35 0.930 . S
C41 C37 1.407 . S
C41 C40 1.392 . S
N42 C40 1.420 . S
N42 C43 1.244 . S
C43 N42 1.244 . S
H44 C47 0.929 . S
H45 C50 0.929 . S
H46 C52 0.930 . S
C47 H44 0.929 . S
C47 C48 1.398 . S
C47 C49 1.396 . S
C48 C47 1.398 . S
C48 C52 1.407 . S
C49 C47 1.396 . S
C49 C50 1.394 . S
C50 H45 0.929 . S
C50 C49 1.394 . S
C50 C51 1.382 . S
C51 C50 1.382 . S
C51 C52 1.392 . S
C51 N53 1.420 . S
C52 H46 0.930 . S
C52 C48 1.407 . S
C52 C51 1.392 . S
N53 C51 1.420 . S
N53 C54 1.244 . S
C54 N53 1.244 . S
H55 C58 0.929 . S
H56 C61 0.929 . S
H57 C63 0.930 . S
C58 H55 0.929 . S
C58 C59 1.398 . S
C58 C60 1.396 . S
C59 C58 1.398 . S
C59 C63 1.407 . S
C60 C58 1.396 . S
C60 C61 1.394 . S
C61 H56 0.929 . S
C61 C60 1.394 . S
C61 C62 1.382 . S
C62 C61 1.382 . S
C62 C63 1.392 . S
C62 N64 1.420 . S
C63 H57 0.930 . S
C63 C59 1.407 . S
C63 C62 1.392 . S
N64 C62 1.420 . S
N64 C65 1.244 . S
C65 N64 1.244 . S
H66 C69 0.929 . S
H67 C72 0.929 . S
H68 C74 0.930 . S
C69 H66 0.929 . S
C69 C70 1.398 . S
C69 C71 1.396 . S
C70 C69 1.398 . S
C70 C74 1.407 . S
C71 C69 1.396 . S
C71 C72 1.394 . S
C72 H67 0.929 . S
C72 C71 1.394 . S
C72 C73 1.382 . S
C73 C72 1.382 . S
C73 C74 1.392 . S
C73 N75 1.420 . S
C74 H68 0.930 . S
C74 C70 1.407 . S
C74 C73 1.392 . S
N75 C73 1.420 . S
N75 C76 1.244 . S
C76 N75 1.244 . S
H77 C80 0.929 . S
H78 C83 0.929 . S
H79 C85 0.930 . S
C80 H77 0.929 . S
C80 C81 1.398 . S
C80 C82 1.396 . S
C81 C80 1.398 . S
C81 C85 1.407 . S
C82 C80 1.396 . S
C82 C83 1.394 . S
C83 H78 0.929 . S
C83 C82 1.394 . S
C83 C84 1.382 . S
C84 C83 1.382 . S
C84 C85 1.392 . S
C84 N86 1.420 . S
C85 H79 0.930 . S
C85 C81 1.407 . S
C85 C84 1.392 . S
N86 C84 1.420 . S
N86 C87 1.244 . S
C87 N86 1.244 . S
O88 Zn89 1.956 . S
O88 C104 1.225 1_545 S
Zn89 O88 1.956 . S
Zn89 O90 1.948 1_545 S
Zn89 O96 1.950 . S
Zn89 O101 1.887 1_545 S
O90 Zn89 1.948 1_565 S
O90 Zn91 1.903 1_465 S
O90 Zn92 1.952 . S
O90 Zn93 1.963 1_455 S
Zn91 O90 1.903 1_645 S
Zn91 O94 1.933 . S
Zn91 O97 1.941 1_655 S
Zn91 O98 1.965 1_655 S
Zn92 O90 1.952 . S
Zn92 O99 1.938 1_565 S
Zn92 O100 1.906 . S
Zn92 O110 1.953 . S
Zn93 O90 1.963 1_655 S
Zn93 O95 1.932 . S
Zn93 O102 1.977 . S
Zn93 O103 1.910 1_655 S
O94 Zn91 1.933 . S
O94 C105 1.226 . S
O95 Zn93 1.932 . S
O95 C105 1.307 1_565 S
O96 Zn89 1.950 . S
O96 C107 1.253 . S
O97 Zn91 1.941 1_455 S
O97 C107 1.283 . S
O98 Zn91 1.965 1_455 S
O98 C106 1.303 . S
O99 Zn92 1.938 1_545 S
O99 C106 1.247 . S
O100 Zn92 1.906 . S
O100 C108 1.304 1_455 S
O101 Zn89 1.887 1_565 S
O101 C109 1.311 . S
O102 Zn93 1.977 . S
O102 C108 1.272 . S
O103 Zn93 1.910 1_455 S
O103 C109 1.231 . S
C104 O88 1.225 1_565 S
C104 O110 1.298 . S
C105 O94 1.226 . S
C105 O95 1.307 1_545 S
C106 O98 1.303 . S
C106 O99 1.247 . S
C107 O96 1.253 . S
C107 O97 1.283 . S
C108 O100 1.304 1_655 S
C108 O102 1.272 . S
C109 O101 1.311 . S
C109 O103 1.231 . S
O110 Zn92 1.953 . S
O110 C104 1.298 . S
O111 Zn112 1.953 . S
O111 C127 1.225 . S
Zn112 O111 1.953 . S
Zn112 O113 1.949 . S
Zn112 O119 1.919 . S
Zn112 O124 1.924 . S
O113 Zn112 1.949 . S
O113 Zn114 1.923 1_545 S
O113 Zn115 1.950 . S
O113 Zn116 1.945 1_545 S
Zn114 O113 1.923 1_565 S
Zn114 O117 1.933 . S
Zn114 O120 1.941 . S
Zn114 O121 1.965 . S
Zn115 O113 1.950 . S
Zn115 O122 1.938 . S
Zn115 O123 1.906 . S
Zn115 O133 1.953 . S
Zn116 O113 1.945 1_565 S
Zn116 O118 1.932 . S
Zn116 O125 1.977 . S
Zn116 O126 1.910 1_565 S
O117 Zn114 1.933 . S
O117 C128 1.226 . S
O118 Zn116 1.932 . S
O118 C128 1.307 . S
O119 Zn112 1.919 . S
O119 C130 1.253 . S
O120 Zn114 1.941 . S
O120 C130 1.283 1_565 S
O121 Zn114 1.965 . S
O121 C129 1.303 1_565 S
O122 Zn115 1.938 . S
O122 C129 1.247 . S
O123 Zn115 1.906 . S
O123 C131 1.304 1_545 S
O124 Zn112 1.924 . S
O124 C132 1.311 . S
O125 Zn116 1.977 . S
O125 C131 1.272 . S
O126 Zn116 1.910 1_545 S
O126 C132 1.231 . S
C127 O111 1.225 . S
C127 O133 1.298 . S
C128 O117 1.226 . S
C128 O118 1.307 . S
C129 O121 1.303 1_545 S
C129 O122 1.247 . S
C130 O119 1.253 . S
C130 O120 1.283 1_545 S
C131 O123 1.304 1_565 S
C131 O125 1.272 . S
C132 O124 1.311 . S
C132 O126 1.231 . S
O133 Zn115 1.953 . S
O133 C127 1.298 . S
O134 Zn135 1.953 . S
O134 C150 1.225 . S
Zn135 O134 1.953 . S
Zn135 O136 1.949 . S
Zn135 O142 1.919 . S
Zn135 O147 1.924 . S
O136 Zn135 1.949 . S
O136 Zn137 1.923 . S
O136 Zn138 1.950 . S
O136 Zn139 1.945 . S
Zn137 O136 1.923 . S
Zn137 O140 1.933 . S
Zn137 O143 1.941 . S
Zn137 O144 1.965 . S
Zn138 O136 1.950 . S
Zn138 O145 1.938 . S
Zn138 O146 1.906 . S
Zn138 O156 1.953 . S
Zn139 O136 1.945 . S
Zn139 O141 1.932 . S
Zn139 O148 1.977 . S
Zn139 O149 1.910 . S
O140 Zn137 1.933 . S
O140 C151 1.226 . S
O141 Zn139 1.932 . S
O141 C151 1.307 . S
O142 Zn135 1.919 . S
O142 C153 1.253 . S
O143 Zn137 1.941 . S
O143 C153 1.283 . S
O144 Zn137 1.965 . S
O144 C152 1.303 . S
O145 Zn138 1.938 . S
O145 C152 1.247 . S
O146 Zn138 1.906 . S
O146 C154 1.304 . S
O147 Zn135 1.924 . S
O147 C155 1.311 . S
O148 Zn139 1.977 . S
O148 C154 1.272 . S
O149 Zn139 1.910 . S
O149 C155 1.231 . S
C150 O134 1.225 . S
C150 O156 1.298 . S
C151 O140 1.226 . S
C151 O141 1.307 . S
C152 O144 1.303 . S
C152 O145 1.247 . S
C153 O142 1.253 . S
C153 O143 1.283 . S
C154 O146 1.304 . S
C154 O148 1.272 . S
C155 O147 1.311 . S
C155 O149 1.231 . S
O156 Zn138 1.953 . S
O156 C150 1.298 . S
O157 Zn158 1.927 1_655 S
O157 C173 1.225 . S
Zn158 O157 1.927 1_455 S
Zn158 O159 1.949 . S
Zn158 O165 1.919 . S
Zn158 O170 1.952 . S
O159 Zn158 1.949 . S
O159 Zn160 1.918 1_455 S
O159 Zn161 1.929 1_455 S
O159 Zn162 1.973 . S
Zn160 O159 1.918 1_655 S
Zn160 O163 1.933 1_655 S
Zn160 O166 1.941 . S
Zn160 O167 1.965 . S
Zn161 O159 1.929 1_655 S
Zn161 O168 1.938 . S
Zn161 O169 1.906 . S
Zn161 O179 1.953 . S
Zn162 O159 1.973 . S
Zn162 O164 1.932 . S
Zn162 O171 1.977 . S
Zn162 O172 1.910 . S
O163 Zn160 1.933 1_455 S
O163 C174 1.226 . S
O164 Zn162 1.932 . S
O164 C174 1.307 . S
O165 Zn158 1.919 . S
O165 C176 1.252 . S
O166 Zn160 1.941 . S
O166 C176 1.285 1_655 S
O167 Zn160 1.965 . S
O167 C175 1.303 . S
O168 Zn161 1.938 . S
O168 C175 1.247 . S
O169 Zn161 1.906 . S
O169 C177 1.304 1_655 S
O170 Zn158 1.952 . S
O170 C178 1.311 . S
O171 Zn162 1.977 . S
O171 C177 1.272 . S
O172 Zn162 1.910 . S
O172 C178 1.231 . S
C173 O157 1.225 . S
C173 O179 1.298 . S
C174 O163 1.226 . S
C174 O164 1.307 . S
C175 O167 1.303 . S
C175 O168 1.247 . S
C176 O165 1.252 . S
C176 O166 1.285 1_455 S
C177 O169 1.304 1_455 S
C177 O171 1.272 . S
C178 O170 1.311 . S
C178 O172 1.231 . S
O179 Zn161 1.953 . S
O179 C173 1.298 . S
H180 C198 0.946 1_565 S
H181 C200 0.941 1_565 S
H182 C202 0.950 . S
H183 C203 0.950 . S
H184 C205 0.950 . S
H185 C208 0.950 . S
H186 C209 0.950 . S
H187 C211 0.950 . S
H188 C212 0.950 . S
H189 C213 0.951 . S
H190 C215 0.951 . S
H191 C217 0.950 . S
H192 C218 0.950 . S
H193 C220 0.950 . S
H194 C223 0.950 . S
H195 C224 0.950 . S
H196 C226 0.950 . S
H197 C227 0.950 . S
C198 H180 0.946 1_545 S
C198 C199 1.366 . S
C198 C200 1.391 . S
C199 C198 1.366 . S
C199 C203 1.385 . S
C200 H181 0.941 1_545 S
C200 C198 1.391 . S
C200 C201 1.374 . S
C201 C200 1.374 . S
C201 C202 1.414 . S
C201 C204 1.499 . S
C202 H182 0.950 . S
C202 C201 1.414 . S
C202 C203 1.374 . S
C203 H183 0.950 . S
C203 C199 1.385 . S
C203 C202 1.374 . S
C204 C201 1.499 . S
C204 C205 1.373 . S
C204 C206 1.389 1_545 S
C205 H184 0.950 . S
C205 C204 1.373 . S
C205 C221 1.377 . S
C206 C204 1.389 1_565 S
C206 C207 1.524 . S
C206 C220 1.377 . S
C207 C206 1.524 . S
C207 C208 1.397 . S
C207 C212 1.363 . S
C208 H185 0.950 . S
C208 C207 1.397 . S
C208 C209 1.334 . S
C209 H186 0.950 . S
C209 C208 1.334 . S
C209 C210 1.287 . S
C210 C209 1.287 . S
C210 C211 1.524 . S
C210 H229 0.913 . S
C211 H187 0.950 . S
C211 C210 1.524 . S
C211 C212 1.415 . S
C212 H188 0.950 . S
C212 C207 1.363 . S
C212 C211 1.415 . S
C213 H189 0.951 . S
C213 C214 1.366 1_545 S
C213 C215 1.388 . S
C214 C213 1.366 1_565 S
C214 C218 1.385 . S
C215 H190 0.951 . S
C215 C213 1.388 . S
C215 C216 1.366 . S
C216 C215 1.366 . S
C216 C217 1.414 1_545 S
C216 C219 1.499 . S
C217 H191 0.950 . S
C217 C216 1.414 1_565 S
C217 C218 1.374 . S
C218 H192 0.950 . S
C218 C214 1.385 . S
C218 C217 1.374 . S
C219 C216 1.499 . S
C219 C220 1.373 1_545 S
C219 C221 1.389 . S
C220 H193 0.950 . S
C220 C206 1.377 . S
C220 C219 1.373 1_565 S
C221 C205 1.377 . S
C221 C219 1.389 . S
C221 C222 1.524 . S
C222 C221 1.524 . S
C222 C223 1.397 . S
C222 C227 1.363 . S
C223 H194 0.950 . S
C223 C222 1.397 . S
C223 C224 1.334 . S
C224 H195 0.950 . S
C224 C223 1.334 . S
C224 C225 1.287 . S
C225 C224 1.287 . S
C225 C226 1.524 . S
C225 H228 0.999 . S
C226 H196 0.950 . S
C226 C225 1.524 . S
C226 C227 1.415 . S
C227 H197 0.950 . S
C227 C222 1.363 . S
C227 C226 1.415 . S
H228 C225 0.999 . S
H229 C210 0.913 . S
H230 C248 0.951 . S
H231 C250 0.951 . S
H232 C252 0.950 . S
H233 C253 0.950 . S
H234 C255 0.950 . S
H235 C258 0.950 . S
H236 C259 0.950 . S
H237 C261 0.950 . S
H238 C262 0.950 . S
H239 C263 0.951 . S
H240 C265 0.951 . S
H241 C267 0.950 . S
H242 C268 0.950 . S
H243 C270 0.950 . S
H244 C273 0.950 . S
H245 C274 0.950 . S
H246 C276 0.950 . S
H247 C277 0.950 . S
C248 H230 0.951 . S
C248 C249 1.366 . S
C248 C250 1.388 . S
C249 C248 1.366 . S
C249 C253 1.385 . S
C250 H231 0.951 . S
C250 C248 1.388 . S
C250 C251 1.366 . S
C251 C250 1.366 . S
C251 C252 1.414 . S
C251 C254 1.499 . S
C252 H232 0.950 . S
C252 C251 1.414 . S
C252 C253 1.374 . S
C253 H233 0.950 . S
C253 C249 1.385 . S
C253 C252 1.374 . S
C254 C251 1.499 . S
C254 C255 1.373 . S
C254 C256 1.389 . S
C255 H234 0.950 . S
C255 C254 1.373 . S
C255 C271 1.377 . S
C256 C254 1.389 . S
C256 C257 1.524 . S
C256 C270 1.377 . S
C257 C256 1.524 . S
C257 C258 1.397 . S
C257 C262 1.363 . S
C258 H235 0.950 . S
C258 C257 1.397 . S
C258 C259 1.334 . S
C259 H236 0.950 . S
C259 C258 1.334 . S
C259 C260 1.287 . S
C260 C259 1.287 . S
C260 C261 1.524 . S
C260 H279 0.913 . S
C261 H237 0.950 . S
C261 C260 1.524 . S
C261 C262 1.415 . S
C262 H238 0.950 . S
C262 C257 1.363 . S
C262 C261 1.415 . S
C263 H239 0.951 . S
C263 C264 1.366 . S
C263 C265 1.388 . S
C264 C263 1.366 . S
C264 C268 1.385 . S
C265 H240 0.951 . S
C265 C263 1.388 . S
C265 C266 1.366 . S
C266 C265 1.366 . S
C266 C267 1.414 . S
C266 C269 1.499 . S
C267 H241 0.950 . S
C267 C266 1.414 . S
C267 C268 1.374 . S
C268 H242 0.950 . S
C268 C264 1.385 . S
C268 C267 1.374 . S
C269 C266 1.499 . S
C269 C270 1.373 . S
C269 C271 1.389 . S
C270 H243 0.950 . S
C270 C256 1.377 . S
C270 C269 1.373 . S
C271 C255 1.377 . S
C271 C269 1.389 . S
C271 C272 1.524 . S
C272 C271 1.524 . S
C272 C273 1.397 . S
C272 C277 1.363 . S
C273 H244 0.950 . S
C273 C272 1.397 . S
C273 C274 1.334 . S
C274 H245 0.950 . S
C274 C273 1.334 . S
C274 C275 1.287 . S
C275 C274 1.287 . S
C275 C276 1.524 . S
C275 H278 0.999 . S
C276 H246 0.950 . S
C276 C275 1.524 . S
C276 C277 1.415 . S
C277 H247 0.950 . S
C277 C272 1.363 . S
C277 C276 1.415 . S
H278 C275 0.999 . S
H279 C260 0.913 . S
H280 C298 0.951 . S
H281 C300 0.951 . S
H282 C302 0.950 . S
H283 C303 0.950 . S
H284 C305 0.950 . S
H285 C308 0.950 . S
H286 C309 0.950 . S
H287 C311 0.950 . S
H288 C312 0.950 . S
H289 C313 0.951 . S
H290 C315 0.951 . S
H291 C317 0.950 . S
H292 C318 0.950 . S
H293 C320 0.950 . S
H294 C323 0.950 . S
H295 C324 0.950 . S
H296 C326 0.950 . S
H297 C327 0.950 . S
C298 H280 0.951 . S
C298 C299 1.366 . S
C298 C300 1.388 . S
C299 C298 1.366 . S
C299 C303 1.385 . S
C300 H281 0.951 . S
C300 C298 1.388 . S
C300 C301 1.366 . S
C301 C300 1.366 . S
C301 C302 1.414 . S
C301 C304 1.499 . S
C302 H282 0.950 . S
C302 C301 1.414 . S
C302 C303 1.374 . S
C303 H283 0.950 . S
C303 C299 1.385 . S
C303 C302 1.374 . S
C304 C301 1.499 . S
C304 C305 1.373 . S
C304 C306 1.389 . S
C305 H284 0.950 . S
C305 C304 1.373 . S
C305 C321 1.377 . S
C306 C304 1.389 . S
C306 C307 1.524 . S
C306 C320 1.377 . S
C307 C306 1.524 . S
C307 C308 1.397 . S
C307 C312 1.363 . S
C308 H285 0.950 . S
C308 C307 1.397 . S
C308 C309 1.334 . S
C309 H286 0.950 . S
C309 C308 1.334 . S
C309 C310 1.287 . S
C310 C309 1.287 . S
C310 C311 1.524 . S
C310 H329 0.913 . S
C311 H287 0.950 . S
C311 C310 1.524 . S
C311 C312 1.415 . S
C312 H288 0.950 . S
C312 C307 1.363 . S
C312 C311 1.415 . S
C313 H289 0.951 . S
C313 C314 1.366 . S
C313 C315 1.388 . S
C314 C313 1.366 . S
C314 C318 1.385 . S
C315 H290 0.951 . S
C315 C313 1.388 . S
C315 C316 1.366 . S
C316 C315 1.366 . S
C316 C317 1.414 . S
C316 C319 1.499 . S
C317 H291 0.950 . S
C317 C316 1.414 . S
C317 C318 1.374 . S
C318 H292 0.950 . S
C318 C314 1.385 . S
C318 C317 1.374 . S
C319 C316 1.499 . S
C319 C320 1.373 . S
C319 C321 1.389 . S
C320 H293 0.950 . S
C320 C306 1.377 . S
C320 C319 1.373 . S
C321 C305 1.377 . S
C321 C319 1.389 . S
C321 C322 1.524 . S
C322 C321 1.524 . S
C322 C323 1.397 . S
C322 C327 1.363 . S
C323 H294 0.950 . S
C323 C322 1.397 . S
C323 C324 1.334 . S
C324 H295 0.950 . S
C324 C323 1.334 . S
C324 C325 1.287 . S
C325 C324 1.287 . S
C325 C326 1.524 . S
C325 H328 0.999 . S
C326 H296 0.950 . S
C326 C325 1.524 . S
C326 C327 1.415 . S
C327 H297 0.950 . S
C327 C322 1.363 . S
C327 C326 1.415 . S
H328 C325 0.999 . S
H329 C310 0.913 . S
H330 C348 0.951 . S
H331 C350 0.951 . S
H332 C352 0.950 . S
H333 C353 0.950 . S
H334 C355 0.950 . S
H335 C358 0.950 . S
H336 C359 0.950 . S
H337 C361 0.950 1_655 S
H338 C362 0.950 1_655 S
H339 C363 0.951 . S
H340 C365 0.951 . S
H341 C367 0.980 . S
H342 C368 0.950 . S
H343 C370 0.950 . S
H344 C373 0.950 1_655 S
H345 C374 0.950 1_655 S
H346 C376 0.950 . S
H347 C377 0.950 . S
C348 H330 0.951 . S
C348 C349 1.366 . S
C348 C350 1.388 . S
C349 C348 1.366 . S
C349 C353 1.385 . S
C350 H331 0.951 . S
C350 C348 1.388 . S
C350 C351 1.366 . S
C351 C350 1.366 . S
C351 C352 1.414 . S
C351 C354 1.499 . S
C352 H332 0.950 . S
C352 C351 1.414 . S
C352 C353 1.374 . S
C353 H333 0.950 . S
C353 C349 1.385 . S
C353 C352 1.374 . S
C354 C351 1.499 . S
C354 C355 1.373 . S
C354 C356 1.389 . S
C355 H334 0.950 . S
C355 C354 1.373 . S
C355 C371 1.377 . S
C356 C354 1.389 . S
C356 C357 1.524 . S
C356 C370 1.377 . S
C357 C356 1.524 . S
C357 C358 1.397 . S
C357 C362 1.363 . S
C358 H335 0.950 . S
C358 C357 1.397 . S
C358 C359 1.334 . S
C359 H336 0.950 . S
C359 C358 1.334 . S
C359 C360 1.287 . S
C360 C359 1.287 . S
C360 C361 1.524 . S
C360 H379 0.913 . S
C361 H337 0.950 1_455 S
C361 C360 1.524 . S
C361 C362 1.415 . S
C362 H338 0.950 1_455 S
C362 C357 1.363 . S
C362 C361 1.415 . S
C363 H339 0.951 . S
C363 C364 1.366 . S
C363 C365 1.388 . S
C364 C363 1.366 . S
C364 C368 1.385 1_455 S
C365 H340 0.951 . S
C365 C363 1.388 . S
C365 C366 1.366 . S
C366 C365 1.366 . S
C366 C367 1.379 1_455 S
C366 C369 1.499 . S
C367 H341 0.980 . S
C367 C366 1.379 1_655 S
C367 C368 1.382 . S
C368 H342 0.950 . S
C368 C364 1.385 1_655 S
C368 C367 1.382 . S
C369 C366 1.499 . S
C369 C370 1.373 . S
C369 C371 1.389 . S
C370 H343 0.950 . S
C370 C356 1.377 . S
C370 C369 1.373 . S
C371 C355 1.377 . S
C371 C369 1.389 . S
C371 C372 1.524 . S
C372 C371 1.524 . S
C372 C373 1.397 . S
C372 C377 1.363 . S
C373 H344 0.950 1_455 S
C373 C372 1.397 . S
C373 C374 1.334 . S
C374 H345 0.950 1_455 S
C374 C373 1.334 . S
C374 C375 1.287 . S
C375 C374 1.287 . S
C375 C376 1.524 . S
C375 H378 0.999 . S
C376 H346 0.950 . S
C376 C375 1.524 . S
C376 C377 1.415 . S
C377 H347 0.950 . S
C377 C372 1.363 . S
C377 C376 1.415 . S
H378 C375 0.999 . S
H379 C360 0.913 . S
H380 C398 0.951 . S
H381 C400 0.951 . S
H382 C402 0.950 . S
H383 C403 0.950 . S
H384 C405 0.950 . S
H385 C408 0.950 . S
H386 C409 0.950 . S
H387 C411 0.950 . S
H388 C412 0.950 . S
H389 C413 0.951 . S
H390 C415 0.951 . S
H391 C417 0.950 . S
H392 C418 0.950 . S
H393 C420 0.950 . S
H394 C423 0.950 . S
H395 C424 0.950 . S
H396 C426 0.950 . S
H397 C427 0.950 . S
C398 H380 0.951 . S
C398 C399 1.378 . S
C398 C400 1.388 . S
C399 C398 1.378 . S
C399 C403 1.372 1_564 S
C400 H381 0.951 . S
C400 C398 1.388 . S
C400 C401 1.332 1_564 S
C401 C400 1.332 1_546 S
C401 C402 1.447 . S
C401 C404 1.501 . S
C402 H382 0.950 . S
C402 C401 1.447 . S
C402 C403 1.374 . S
C403 H383 0.950 . S
C403 C399 1.372 1_546 S
C403 C402 1.374 . S
C404 C401 1.501 . S
C404 C405 1.373 . S
C404 C406 1.389 1_545 S
C405 H384 0.950 . S
C405 C404 1.373 . S
C405 C421 1.377 . S
C406 C404 1.389 1_565 S
C406 C407 1.524 1_556 S
C406 C420 1.377 . S
C407 C406 1.524 1_554 S
C407 C408 1.397 1_565 S
C407 C412 1.363 . S
C408 H385 0.950 . S
C408 C407 1.397 1_545 S
C408 C409 1.334 . S
C409 H386 0.950 . S
C409 C408 1.334 . S
C409 C410 1.287 . S
C410 C409 1.287 . S
C410 C411 1.524 1_545 S
C410 H429 0.913 . S
C411 H387 0.950 . S
C411 C410 1.524 1_565 S
C411 C412 1.415 . S
C412 H388 0.950 . S
C412 C407 1.363 . S
C412 C411 1.415 . S
C413 H389 0.951 . S
C413 C414 1.366 . S
C413 C415 1.388 . S
C414 C413 1.366 . S
C414 C418 1.385 1_545 S
C415 H390 0.951 . S
C415 C413 1.388 . S
C415 C416 1.389 . S
C416 C415 1.389 . S
C416 C417 1.392 1_545 S
C416 C419 1.498 1_545 S
C417 H391 0.950 . S
C417 C416 1.392 1_565 S
C417 C418 1.374 . S
C418 H392 0.950 . S
C418 C414 1.385 1_565 S
C418 C417 1.374 . S
C419 C416 1.498 1_565 S
C419 C420 1.374 . S
C419 C421 1.388 1_565 S
C420 H393 0.950 . S
C420 C406 1.377 . S
C420 C419 1.374 . S
C421 C405 1.377 . S
C421 C419 1.388 1_545 S
C421 C422 1.524 . S
C422 C421 1.524 . S
C422 C423 1.397 1_545 S
C422 C427 1.363 . S
C423 H394 0.950 . S
C423 C422 1.397 1_565 S
C423 C424 1.334 . S
C424 H395 0.950 . S
C424 C423 1.334 . S
C424 C425 1.322 . S
C425 C424 1.322 . S
C425 C426 1.484 1_565 S
C425 H428 0.999 . S
C426 H396 0.950 . S
C426 C425 1.484 1_545 S
C426 C427 1.415 . S
C427 H397 0.950 . S
C427 C422 1.363 . S
C427 C426 1.415 . S
H428 C425 0.999 . S
H429 C410 0.913 . S
H430 C448 0.951 . S
H431 C450 0.951 . S
H432 C452 0.950 . S
H433 C453 0.950 1_554 S
H434 C455 0.950 . S
H435 C458 0.950 . S
H436 C459 0.950 . S
H437 C461 0.950 . S
H438 C462 0.950 . S
H439 C463 0.951 . S
H440 C465 0.951 . S
H441 C467 0.950 . S
H442 C468 0.950 . S
H443 C470 0.950 . S
H444 C473 0.950 . S
H445 C474 0.950 . S
H446 C476 0.950 1_554 S
H447 C477 0.950 . S
C448 H430 0.951 . S
C448 C449 1.365 1_556 S
C448 C450 1.388 . S
C449 C448 1.365 1_554 S
C449 C453 1.384 1_554 S
C450 H431 0.951 . S
C450 C448 1.388 . S
C450 C451 1.366 . S
C451 C450 1.366 . S
C451 C452 1.414 . S
C451 C454 1.499 . S
C452 H432 0.950 . S
C452 C451 1.414 . S
C452 C453 1.374 . S
C453 H433 0.950 1_556 S
C453 C449 1.384 1_556 S
C453 C452 1.374 . S
C454 C451 1.499 . S
C454 C455 1.373 . S
C454 C456 1.389 . S
C455 H434 0.950 . S
C455 C454 1.373 . S
C455 C471 1.377 . S
C456 C454 1.389 . S
C456 C457 1.524 . S
C456 C470 1.377 . S
C457 C456 1.524 . S
C457 C458 1.397 . S
C457 C462 1.363 . S
C458 H435 0.950 . S
C458 C457 1.397 . S
C458 C459 1.334 . S
C459 H436 0.950 . S
C459 C458 1.334 . S
C459 C460 1.287 . S
C460 C459 1.287 . S
C460 C461 1.524 . S
C460 H479 0.913 . S
C461 H437 0.950 . S
C461 C460 1.524 . S
C461 C462 1.415 . S
C462 H438 0.950 . S
C462 C457 1.363 . S
C462 C461 1.415 . S
C463 H439 0.951 . S
C463 C464 1.366 . S
C463 C465 1.388 . S
C464 C463 1.366 . S
C464 C468 1.385 . S
C465 H440 0.951 . S
C465 C463 1.388 . S
C465 C466 1.366 . S
C466 C465 1.366 . S
C466 C467 1.414 . S
C466 C469 1.499 . S
C467 H441 0.950 . S
C467 C466 1.414 . S
C467 C468 1.374 . S
C468 H442 0.950 . S
C468 C464 1.385 . S
C468 C467 1.374 . S
C469 C466 1.499 . S
C469 C470 1.373 . S
C469 C471 1.389 . S
C470 H443 0.950 . S
C470 C456 1.377 . S
C470 C469 1.373 . S
C471 C455 1.377 . S
C471 C469 1.389 . S
C471 C472 1.524 . S
C472 C471 1.524 . S
C472 C473 1.397 . S
C472 C477 1.363 . S
C473 H444 0.950 . S
C473 C472 1.397 . S
C473 C474 1.334 . S
C474 H445 0.950 . S
C474 C473 1.334 . S
C474 C475 1.287 1_556 S
C475 C474 1.287 1_554 S
C475 C476 1.524 1_554 S
C475 H478 0.999 . S
C476 H446 0.950 1_556 S
C476 C475 1.524 1_556 S
C476 C477 1.415 . S
C477 H447 0.950 . S
C477 C472 1.363 . S
C477 C476 1.415 . S
H478 C475 0.999 . S
H479 C460 0.913 . S
H480 C498 0.951 . S
H481 C500 0.951 . S
H482 C502 0.950 . S
H483 C503 0.950 . S
H484 C505 0.950 . S
H485 C508 0.950 . S
H486 C509 0.950 . S
H487 C511 0.950 . S
H488 C512 0.950 . S
H489 C513 0.951 . S
H490 C515 0.951 . S
H491 C517 0.950 . S
H492 C518 0.950 . S
H493 C520 0.950 . S
H494 C523 0.950 . S
H495 C524 0.950 . S
H496 C526 0.959 . S
H497 C527 0.950 . S
C498 H480 0.951 . S
C498 C499 1.366 . S
C498 C500 1.388 . S
C499 C498 1.366 . S
C499 C503 1.385 1_556 S
C500 H481 0.951 . S
C500 C498 1.388 . S
C500 C501 1.366 . S
C501 C500 1.366 . S
C501 C502 1.414 . S
C501 C504 1.499 . S
C502 H482 0.950 . S
C502 C501 1.414 . S
C502 C503 1.374 1_556 S
C503 H483 0.950 . S
C503 C499 1.385 1_554 S
C503 C502 1.374 1_554 S
C504 C501 1.499 . S
C504 C505 1.373 . S
C504 C506 1.389 . S
C505 H484 0.950 . S
C505 C504 1.373 . S
C505 C521 1.377 . S
C506 C504 1.389 . S
C506 C507 1.524 . S
C506 C520 1.377 . S
C507 C506 1.524 . S
C507 C508 1.397 . S
C507 C512 1.363 . S
C508 H485 0.950 . S
C508 C507 1.397 . S
C508 C509 1.334 . S
C509 H486 0.950 . S
C509 C508 1.334 . S
C509 C510 1.287 . S
C510 C509 1.287 . S
C510 C511 1.524 . S
C510 H529 0.913 . S
C511 H487 0.950 . S
C511 C510 1.524 . S
C511 C512 1.415 . S
C512 H488 0.950 . S
C512 C507 1.363 . S
C512 C511 1.415 . S
C513 H489 0.951 . S
C513 C514 1.366 . S
C513 C515 1.388 . S
C514 C513 1.366 . S
C514 C518 1.385 . S
C515 H490 0.951 . S
C515 C513 1.388 . S
C515 C516 1.366 . S
C516 C515 1.366 . S
C516 C517 1.414 . S
C516 C519 1.499 . S
C517 H491 0.950 . S
C517 C516 1.414 . S
C517 C518 1.374 . S
C518 H492 0.950 . S
C518 C514 1.385 . S
C518 C517 1.374 . S
C519 C516 1.499 . S
C519 C520 1.373 . S
C519 C521 1.389 . S
C520 H493 0.950 . S
C520 C506 1.377 . S
C520 C519 1.373 . S
C521 C505 1.377 . S
C521 C519 1.389 . S
C521 C522 1.524 . S
C522 C521 1.524 . S
C522 C523 1.397 . S
C522 C527 1.363 . S
C523 H494 0.950 . S
C523 C522 1.397 . S
C523 C524 1.334 . S
C524 H495 0.950 . S
C524 C523 1.334 . S
C524 C525 1.287 . S
C525 C524 1.287 . S
C525 C526 1.518 1_556 S
C525 H528 0.999 . S
C526 H496 0.959 . S
C526 C525 1.518 1_554 S
C526 C527 1.410 1_554 S
C527 H497 0.950 . S
C527 C522 1.363 . S
C527 C526 1.410 1_556 S
H528 C525 0.999 . S
H529 C510 0.913 . S
H530 C548 0.951 1_455 S
H531 C550 0.950 1_455 S
H532 C552 0.950 . S
H533 C553 0.950 . S
H534 C555 0.950 . S
H535 C558 0.950 . S
H536 C559 0.950 . S
H537 C561 0.950 . S
H538 C562 0.950 . S
H539 C563 0.951 . S
H540 C565 0.951 . S
H541 C567 0.950 . S
H542 C568 0.950 . S
H543 C570 0.950 . S
H544 C573 0.950 . S
H545 C574 0.950 . S
H546 C576 0.950 . S
H547 C577 0.950 1_554 S
C548 H530 0.951 1_655 S
C548 C549 1.367 1_556 S
C548 C550 1.388 . S
C549 C548 1.367 1_554 S
C549 C553 1.385 . S
C550 H531 0.950 1_655 S
C550 C548 1.388 . S
C550 C551 1.366 . S
C551 C550 1.366 . S
C551 C552 1.414 1_556 S
C551 C554 1.500 . S
C552 H532 0.950 . S
C552 C551 1.414 1_554 S
C552 C553 1.374 . S
C553 H533 0.950 . S
C553 C549 1.385 . S
C553 C552 1.374 . S
C554 C551 1.500 . S
C554 C555 1.350 1_655 S
C554 C556 1.410 . S
C555 H534 0.950 . S
C555 C554 1.350 1_455 S
C555 C571 1.377 . S
C556 C554 1.410 . S
C556 C557 1.524 . S
C556 C570 1.377 . S
C557 C556 1.524 . S
C557 C558 1.397 . S
C557 C562 1.363 . S
C558 H535 0.950 . S
C558 C557 1.397 . S
C558 C559 1.334 . S
C559 H536 0.950 . S
C559 C558 1.334 . S
C559 C560 1.287 . S
C560 C559 1.287 . S
C560 C561 1.524 . S
C560 H579 0.913 . S
C561 H537 0.950 . S
C561 C560 1.524 . S
C561 C562 1.415 . S
C562 H538 0.950 . S
C562 C557 1.363 . S
C562 C561 1.415 . S
C563 H539 0.951 . S
C563 C564 1.366 . S
C563 C565 1.388 . S
C564 C563 1.366 . S
C564 C568 1.385 . S
C565 H540 0.951 . S
C565 C563 1.388 . S
C565 C566 1.366 . S
C566 C565 1.366 . S
C566 C567 1.414 . S
C566 C569 1.499 . S
C567 H541 0.950 . S
C567 C566 1.414 . S
C567 C568 1.374 . S
C568 H542 0.950 . S
C568 C564 1.385 . S
C568 C567 1.374 . S
C569 C566 1.499 . S
C569 C570 1.373 1_455 S
C569 C571 1.389 . S
C570 H543 0.950 . S
C570 C556 1.377 . S
C570 C569 1.373 1_655 S
C571 C555 1.377 . S
C571 C569 1.389 . S
C571 C572 1.524 . S
C572 C571 1.524 . S
C572 C573 1.397 . S
C572 C577 1.363 . S
C573 H544 0.950 . S
C573 C572 1.397 . S
C573 C574 1.334 . S
C574 H545 0.950 . S
C574 C573 1.334 . S
C574 C575 1.287 . S
C575 C574 1.287 . S
C575 C576 1.524 1_556 S
C575 H578 0.999 . S
C576 H546 0.950 . S
C576 C575 1.524 1_554 S
C576 C577 1.415 1_554 S
C577 H547 0.950 1_556 S
C577 C572 1.363 . S
C577 C576 1.415 1_556 S
H578 C575 0.999 . S
H579 C560 0.913 . S
H580 C598 0.951 . S
H581 C600 0.951 . S
H582 C602 0.950 . S
H583 C603 0.950 . S
H584 C605 0.950 . S
H585 C608 0.950 . S
H586 C609 0.950 . S
H587 C611 0.950 . S
H588 C612 0.950 . S
H589 C613 0.951 1_655 S
H590 C615 0.951 1_655 S
H591 C617 0.950 . S
H592 C618 0.950 . S
H593 C620 0.950 . S
H594 C623 0.950 1_455 S
H595 C624 0.950 . S
H596 C626 0.950 . S
H597 C627 0.950 . S
C598 H580 0.951 . S
C598 C599 1.366 . S
C598 C600 1.388 . S
C599 C598 1.366 . S
C599 C603 1.385 . S
C600 H581 0.951 . S
C600 C598 1.388 . S
C600 C601 1.366 . S
C601 C600 1.366 . S
C601 C602 1.414 . S
C601 C604 1.499 . S
C602 H582 0.950 . S
C602 C601 1.414 . S
C602 C603 1.374 . S
C603 H583 0.950 . S
C603 C599 1.385 . S
C603 C602 1.374 . S
C604 C601 1.499 . S
C604 C605 1.373 . S
C604 C606 1.389 . S
C605 H584 0.950 . S
C605 C604 1.373 . S
C605 C621 1.377 . S
C606 C604 1.389 . S
C606 C607 1.524 . S
C606 C620 1.377 . S
C607 C606 1.524 . S
C607 C608 1.397 . S
C607 C612 1.363 . S
C608 H585 0.950 . S
C608 C607 1.397 . S
C608 C609 1.334 . S
C609 H586 0.950 . S
C609 C608 1.334 . S
C609 C610 1.287 . S
C610 C609 1.287 . S
C610 C611 1.524 . S
C610 H629 0.913 . S
C611 H587 0.950 . S
C611 C610 1.524 . S
C611 C612 1.415 . S
C612 H588 0.950 . S
C612 C607 1.363 . S
C612 C611 1.415 . S
C613 H589 0.951 1_455 S
C613 C614 1.366 . S
C613 C615 1.388 . S
C614 C613 1.366 . S
C614 C618 1.385 . S
C615 H590 0.951 1_455 S
C615 C613 1.388 . S
C615 C616 1.366 . S
C616 C615 1.366 . S
C616 C617 1.414 . S
C616 C619 1.499 . S
C617 H591 0.950 . S
C617 C616 1.414 . S
C617 C618 1.374 . S
C618 H592 0.950 . S
C618 C614 1.385 . S
C618 C617 1.374 . S
C619 C616 1.499 . S
C619 C620 1.373 . S
C619 C621 1.389 . S
C620 H593 0.950 . S
C620 C606 1.377 . S
C620 C619 1.373 . S
C621 C605 1.377 . S
C621 C619 1.389 . S
C621 C622 1.524 1_455 S
C622 C621 1.524 1_655 S
C622 C623 1.397 . S
C622 C627 1.363 . S
C623 H594 0.950 1_655 S
C623 C622 1.397 . S
C623 C624 1.334 . S
C624 H595 0.950 . S
C624 C623 1.334 . S
C624 C625 1.287 . S
C625 C624 1.287 . S
C625 C626 1.524 . S
C625 H628 0.999 . S
C626 H596 0.950 . S
C626 C625 1.524 . S
C626 C627 1.415 . S
C627 H597 0.950 . S
C627 C622 1.363 . S
C627 C626 1.415 . S
H628 C625 0.999 . S
H629 C610 0.913 . S
H630 C648 0.951 . S
H631 C650 0.951 . S
H632 C652 0.950 . S
H633 C653 0.950 . S
H634 C655 0.950 . S
H635 C658 0.950 1_545 S
H636 C659 0.950 . S
H637 C661 0.950 . S
H638 C662 0.950 . S
H639 C663 0.951 . S
H640 C665 0.951 . S
H641 C667 0.950 . S
H642 C668 0.950 . S
H643 C670 0.950 . S
H644 C673 0.950 . S
H645 C674 0.950 . S
H646 C676 0.950 . S
H647 C677 0.950 . S
C648 H630 0.951 . S
C648 C649 1.366 1_565 S
C648 C650 1.388 . S
C649 C648 1.366 1_545 S
C649 C653 1.385 . S
C650 H631 0.951 . S
C650 C648 1.388 . S
C650 C651 1.366 1_565 S
C651 C650 1.366 1_545 S
C651 C652 1.414 . S
C651 C654 1.499 . S
C652 H632 0.950 . S
C652 C651 1.414 . S
C652 C653 1.374 . S
C653 H633 0.950 . S
C653 C649 1.385 . S
C653 C652 1.374 . S
C654 C651 1.499 . S
C654 C655 1.373 . S
C654 C656 1.389 1_545 S
C655 H634 0.950 . S
C655 C654 1.373 . S
C655 C671 1.377 . S
C656 C654 1.389 1_565 S
C656 C657 1.524 . S
C656 C670 1.377 . S
C657 C656 1.524 . S
C657 C658 1.397 . S
C657 C662 1.363 . S
C658 H635 0.950 1_565 S
C658 C657 1.397 . S
C658 C659 1.334 . S
C659 H636 0.950 . S
C659 C658 1.334 . S
C659 C660 1.287 . S
C660 C659 1.287 . S
C660 C661 1.524 . S
C660 H679 0.913 . S
C661 H637 0.950 . S
C661 C660 1.524 . S
C661 C662 1.415 . S
C662 H638 0.950 . S
C662 C657 1.363 . S
C662 C661 1.415 . S
C663 H639 0.951 . S
C663 C664 1.366 . S
C663 C665 1.388 . S
C664 C663 1.366 . S
C664 C668 1.385 1_545 S
C665 H640 0.951 . S
C665 C663 1.388 . S
C665 C666 1.366 . S
C666 C665 1.366 . S
C666 C667 1.414 1_545 S
C666 C669 1.499 . S
C667 H641 0.950 . S
C667 C666 1.414 1_565 S
C667 C668 1.374 . S
C668 H642 0.950 . S
C668 C664 1.385 1_565 S
C668 C667 1.374 . S
C669 C666 1.499 . S
C669 C670 1.373 1_545 S
C669 C671 1.389 . S
C670 H643 0.950 . S
C670 C656 1.377 . S
C670 C669 1.373 1_565 S
C671 C655 1.377 . S
C671 C669 1.389 . S
C671 C672 1.524 . S
C672 C671 1.524 . S
C672 C673 1.397 . S
C672 C677 1.363 . S
C673 H644 0.950 . S
C673 C672 1.397 . S
C673 C674 1.334 . S
C674 H645 0.950 . S
C674 C673 1.334 . S
C674 C675 1.287 . S
C675 C674 1.287 . S
C675 C676 1.524 . S
C675 H678 0.999 . S
C676 H646 0.950 . S
C676 C675 1.524 . S
C676 C677 1.415 . S
C677 H647 0.950 . S
C677 C672 1.363 . S
C677 C676 1.415 . S
H678 C675 0.999 . S
H679 C660 0.913 . S
H680 C698 0.951 . S
H681 C700 0.951 . S
H682 C702 0.950 . S
H683 C703 0.950 . S
H684 C705 0.950 . S
H685 C708 0.950 . S
H686 C709 0.950 . S
H687 C711 0.950 . S
H688 C712 0.950 . S
H689 C713 0.951 . S
H690 C715 0.951 . S
H691 C717 0.950 . S
H692 C718 0.950 . S
H693 C720 0.950 . S
H694 C723 0.950 . S
H695 C724 0.950 . S
H696 C726 0.950 . S
H697 C727 0.950 . S
C698 H680 0.951 . S
C698 C699 1.366 . S
C698 C700 1.388 . S
C699 C698 1.366 . S
C699 C703 1.385 . S
C700 H681 0.951 . S
C700 C698 1.388 . S
C700 C701 1.366 . S
C701 C700 1.366 . S
C701 C702 1.414 . S
C701 C704 1.499 . S
C702 H682 0.950 . S
C702 C701 1.414 . S
C702 C703 1.374 . S
C703 H683 0.950 . S
C703 C699 1.385 . S
C703 C702 1.374 . S
C704 C701 1.499 . S
C704 C705 1.373 . S
C704 C706 1.389 . S
C705 H684 0.950 . S
C705 C704 1.373 . S
C705 C721 1.377 . S
C706 C704 1.389 . S
C706 C707 1.524 . S
C706 C720 1.377 . S
C707 C706 1.524 . S
C707 C708 1.397 . S
C707 C712 1.363 . S
C708 H685 0.950 . S
C708 C707 1.397 . S
C708 C709 1.334 . S
C709 H686 0.950 . S
C709 C708 1.334 . S
C709 C710 1.287 . S
C710 C709 1.287 . S
C710 C711 1.524 . S
C710 H729 0.913 . S
C711 H687 0.950 . S
C711 C710 1.524 . S
C711 C712 1.415 . S
C712 H688 0.950 . S
C712 C707 1.363 . S
C712 C711 1.415 . S
C713 H689 0.951 . S
C713 C714 1.366 . S
C713 C715 1.388 . S
C714 C713 1.366 . S
C714 C718 1.385 . S
C715 H690 0.951 . S
C715 C713 1.388 . S
C715 C716 1.366 . S
C716 C715 1.366 . S
C716 C717 1.414 . S
C716 C719 1.499 . S
C717 H691 0.950 . S
C717 C716 1.414 . S
C717 C718 1.374 . S
C718 H692 0.950 . S
C718 C714 1.385 . S
C718 C717 1.374 . S
C719 C716 1.499 . S
C719 C720 1.373 . S
C719 C721 1.389 . S
C720 H693 0.950 . S
C720 C706 1.377 . S
C720 C719 1.373 . S
C721 C705 1.377 . S
C721 C719 1.389 . S
C721 C722 1.524 . S
C722 C721 1.524 . S
C722 C723 1.397 . S
C722 C727 1.363 . S
C723 H694 0.950 . S
C723 C722 1.397 . S
C723 C724 1.334 . S
C724 H695 0.950 . S
C724 C723 1.334 . S
C724 C725 1.287 . S
C725 C724 1.287 . S
C725 C726 1.524 . S
C725 H728 0.999 . S
C726 H696 0.950 . S
C726 C725 1.524 . S
C726 C727 1.415 . S
C727 H697 0.950 . S
C727 C722 1.363 . S
C727 C726 1.415 . S
H728 C725 0.999 . S
H729 C710 0.913 . S
H730 C748 0.951 . S
H731 C750 0.951 . S
H732 C752 0.950 . S
H733 C753 0.950 . S
H734 C755 0.950 . S
H735 C758 0.950 . S
H736 C759 0.950 . S
H737 C761 0.950 . S
H738 C762 0.950 . S
H739 C763 0.951 . S
H740 C765 0.951 . S
H741 C767 0.950 . S
H742 C768 0.950 . S
H743 C770 0.950 . S
H744 C773 0.950 . S
H745 C774 0.950 . S
H746 C776 0.950 . S
H747 C777 0.950 . S
C748 H730 0.951 . S
C748 C749 1.366 . S
C748 C750 1.388 . S
C749 C748 1.366 . S
C749 C753 1.385 . S
C750 H731 0.951 . S
C750 C748 1.388 . S
C750 C751 1.366 . S
C751 C750 1.366 . S
C751 C752 1.414 . S
C751 C754 1.499 . S
C752 H732 0.950 . S
C752 C751 1.414 . S
C752 C753 1.374 . S
C753 H733 0.950 . S
C753 C749 1.385 . S
C753 C752 1.374 . S
C754 C751 1.499 . S
C754 C755 1.373 . S
C754 C756 1.389 . S
C755 H734 0.950 . S
C755 C754 1.373 . S
C755 C771 1.377 . S
C756 C754 1.389 . S
C756 C757 1.524 . S
C756 C770 1.377 . S
C757 C756 1.524 . S
C757 C758 1.397 . S
C757 C762 1.363 . S
C758 H735 0.950 . S
C758 C757 1.397 . S
C758 C759 1.334 . S
C759 H736 0.950 . S
C759 C758 1.334 . S
C759 C760 1.287 . S
C760 C759 1.287 . S
C760 C761 1.524 . S
C760 H779 0.913 . S
C761 H737 0.950 . S
C761 C760 1.524 . S
C761 C762 1.415 . S
C762 H738 0.950 . S
C762 C757 1.363 . S
C762 C761 1.415 . S
C763 H739 0.951 . S
C763 C764 1.366 . S
C763 C765 1.388 . S
C764 C763 1.366 . S
C764 C768 1.385 . S
C765 H740 0.951 . S
C765 C763 1.388 . S
C765 C766 1.366 . S
C766 C765 1.366 . S
C766 C767 1.414 . S
C766 C769 1.499 . S
C767 H741 0.950 . S
C767 C766 1.414 . S
C767 C768 1.374 . S
C768 H742 0.950 . S
C768 C764 1.385 . S
C768 C767 1.374 . S
C769 C766 1.499 . S
C769 C770 1.373 . S
C769 C771 1.389 . S
C770 H743 0.950 . S
C770 C756 1.377 . S
C770 C769 1.373 . S
C771 C755 1.377 . S
C771 C769 1.389 . S
C771 C772 1.524 . S
C772 C771 1.524 . S
C772 C773 1.397 . S
C772 C777 1.363 . S
C773 H744 0.950 . S
C773 C772 1.397 . S
C773 C774 1.334 . S
C774 H745 0.950 . S
C774 C773 1.334 . S
C774 C775 1.287 . S
C775 C774 1.287 . S
C775 C776 1.524 . S
C775 H778 0.999 . S
C776 H746 0.950 . S
C776 C775 1.524 . S
C776 C777 1.415 . S
C777 H747 0.950 . S
C777 C772 1.363 . S
C777 C776 1.415 . S
H778 C775 0.999 . S
H779 C760 0.913 . S
H780 C798 0.951 . S
H781 C800 0.951 . S
H782 C802 0.950 . S
H783 C803 0.950 . S
H784 C805 0.950 . S
H785 C808 0.950 . S
H786 C809 0.950 . S
H787 C811 0.950 . S
H788 C812 0.950 . S
H789 C813 0.951 . S
H790 C815 0.951 . S
H791 C817 0.950 . S
H792 C818 0.950 . S
H793 C820 0.950 . S
H794 C823 0.950 . S
H795 C824 0.950 . S
H796 C826 0.950 . S
H797 C827 0.950 1_554 S
C798 H780 0.951 . S
C798 C799 1.355 1_455 S
C798 C800 1.388 1_554 S
C799 C798 1.355 1_655 S
C799 C803 1.391 . S
C800 H781 0.951 . S
C800 C798 1.388 1_556 S
C800 C801 1.366 1_556 S
C801 C800 1.366 1_554 S
C801 C802 1.414 1_455 S
C801 C804 1.499 1_554 S
C802 H782 0.950 . S
C802 C801 1.414 1_655 S
C802 C803 1.374 . S
C803 H783 0.950 . S
C803 C799 1.391 . S
C803 C802 1.374 . S
C804 C801 1.499 1_556 S
C804 C805 1.373 1_455 S
C804 C806 1.389 . S
C805 H784 0.950 . S
C805 C804 1.373 1_655 S
C805 C821 1.373 1_655 S
C806 C804 1.389 . S
C806 C807 1.524 . S
C806 C820 1.377 . S
C807 C806 1.524 . S
C807 C808 1.397 1_556 S
C807 C812 1.363 . S
C808 H785 0.950 . S
C808 C807 1.397 1_554 S
C808 C809 1.334 . S
C809 H786 0.950 . S
C809 C808 1.334 . S
C809 C810 1.287 . S
C810 C809 1.287 . S
C810 C811 1.524 1_554 S
C810 H829 0.913 . S
C811 H787 0.950 . S
C811 C810 1.524 1_556 S
C811 C812 1.415 . S
C812 H788 0.950 . S
C812 C807 1.363 . S
C812 C811 1.415 . S
C813 H789 0.951 . S
C813 C814 1.366 . S
C813 C815 1.388 . S
C814 C813 1.366 . S
C814 C818 1.385 . S
C815 H790 0.951 . S
C815 C813 1.388 . S
C815 C816 1.366 . S
C816 C815 1.366 . S
C816 C817 1.414 . S
C816 C819 1.499 . S
C817 H791 0.950 . S
C817 C816 1.414 . S
C817 C818 1.374 . S
C818 H792 0.950 . S
C818 C814 1.385 . S
C818 C817 1.374 . S
C819 C816 1.499 . S
C819 C820 1.373 . S
C819 C821 1.411 . S
C820 H793 0.950 . S
C820 C806 1.377 . S
C820 C819 1.373 . S
C821 C805 1.373 1_455 S
C821 C819 1.411 . S
C821 C822 1.505 1_455 S
C822 C821 1.505 1_655 S
C822 C823 1.397 . S
C822 C827 1.363 . S
C823 H794 0.950 . S
C823 C822 1.397 . S
C823 C824 1.334 . S
C824 H795 0.950 . S
C824 C823 1.334 . S
C824 C825 1.287 . S
C825 C824 1.287 . S
C825 C826 1.524 . S
C825 H828 0.999 . S
C826 H796 0.950 . S
C826 C825 1.524 . S
C826 C827 1.415 . S
C827 H797 0.950 1_556 S
C827 C822 1.363 . S
C827 C826 1.415 . S
H828 C825 0.999 . S
H829 C810 0.913 . S
H830 C848 0.951 . S
H831 C850 0.951 . S
H832 C852 0.950 . S
H833 C853 0.950 . S
H834 C855 0.950 . S
H835 C858 0.950 1_556 S
H836 C859 0.950 . S
H837 C861 0.950 . S
H838 C862 0.950 1_545 S
H839 C863 0.951 . S
H840 C865 0.951 . S
H841 C867 0.950 . S
H842 C868 0.950 . S
H843 C870 0.950 . S
H844 C873 0.950 . S
H845 C874 0.950 . S
H846 C876 0.950 . S
H847 C877 0.950 . S
C848 H830 0.951 . S
C848 C849 1.347 1_545 S
C848 C850 1.388 . S
C849 C848 1.347 1_565 S
C849 C853 1.398 1_554 S
C850 H831 0.951 . S
C850 C848 1.388 . S
C850 C851 1.366 1_554 S
C851 C850 1.366 1_556 S
C851 C852 1.414 1_545 S
C851 C854 1.499 . S
C852 H832 0.950 . S
C852 C851 1.414 1_565 S
C852 C853 1.374 . S
C853 H833 0.950 . S
C853 C849 1.398 1_556 S
C853 C852 1.374 . S
C854 C851 1.499 . S
C854 C855 1.373 . S
C854 C856 1.389 . S
C855 H834 0.950 . S
C855 C854 1.373 . S
C855 C871 1.377 . S
C856 C854 1.389 . S
C856 C857 1.524 1_546 S
C856 C870 1.377 . S
C857 C856 1.524 1_564 S
C857 C858 1.397 . S
C857 C862 1.363 . S
C858 H835 0.950 1_554 S
C858 C857 1.397 . S
C858 C859 1.334 . S
C859 H836 0.950 . S
C859 C858 1.334 . S
C859 C860 1.287 . S
C860 C859 1.287 . S
C860 C861 1.524 . S
C860 H879 0.913 . S
C861 H837 0.950 . S
C861 C860 1.524 . S
C861 C862 1.415 . S
C862 H838 0.950 1_565 S
C862 C857 1.363 . S
C862 C861 1.415 . S
C863 H839 0.951 . S
C863 C864 1.366 . S
C863 C865 1.388 . S
C864 C863 1.366 . S
C864 C868 1.385 . S
C865 H840 0.951 . S
C865 C863 1.388 . S
C865 C866 1.366 . S
C866 C865 1.366 . S
C866 C867 1.414 . S
C866 C869 1.499 . S
C867 H841 0.950 . S
C867 C866 1.414 . S
C867 C868 1.374 . S
C868 H842 0.950 . S
C868 C864 1.385 . S
C868 C867 1.374 . S
C869 C866 1.499 . S
C869 C870 1.373 . S
C869 C871 1.389 . S
C870 H843 0.950 . S
C870 C856 1.377 . S
C870 C869 1.373 . S
C871 C855 1.377 . S
C871 C869 1.389 . S
C871 C872 1.524 . S
C872 C871 1.524 . S
C872 C873 1.397 . S
C872 C877 1.363 . S
C873 H844 0.950 . S
C873 C872 1.397 . S
C873 C874 1.334 . S
C874 H845 0.950 . S
C874 C873 1.334 . S
C874 C875 1.287 . S
C875 C874 1.287 . S
C875 C876 1.524 . S
C875 H878 0.999 . S
C876 H846 0.950 . S
C876 C875 1.524 . S
C876 C877 1.415 . S
C877 H847 0.950 . S
C877 C872 1.363 . S
C877 C876 1.415 . S
H878 C875 0.999 . S
H879 C860 0.913 . S
H880 C898 0.951 . S
H881 C900 0.951 . S
H882 C902 0.950 . S
H883 C903 0.950 . S
H884 C905 0.950 . S
H885 C908 0.950 . S
H886 C909 0.950 . S
H887 C911 0.950 . S
H888 C912 0.950 . S
H889 C913 0.951 . S
H890 C915 0.951 . S
H891 C917 0.950 . S
H892 C918 0.950 . S
H893 C920 0.950 . S
H894 C923 0.950 . S
H895 C924 0.950 . S
H896 C926 0.950 . S
H897 C927 0.950 . S
C898 H880 0.951 . S
C898 C899 1.366 1_556 S
C898 C900 1.388 . S
C899 C898 1.366 1_554 S
C899 C903 1.385 . S
C900 H881 0.951 . S
C900 C898 1.388 . S
C900 C901 1.366 . S
C901 C900 1.366 . S
C901 C902 1.414 . S
C901 C904 1.499 . S
C902 H882 0.950 . S
C902 C901 1.414 . S
C902 C903 1.374 1_556 S
C903 H883 0.950 . S
C903 C899 1.385 . S
C903 C902 1.374 1_554 S
C904 C901 1.499 . S
C904 C905 1.373 . S
C904 C906 1.389 . S
C905 H884 0.950 . S
C905 C904 1.373 . S
C905 C921 1.377 . S
C906 C904 1.389 . S
C906 C907 1.524 . S
C906 C920 1.377 . S
C907 C906 1.524 . S
C907 C908 1.397 . S
C907 C912 1.363 . S
C908 H885 0.950 . S
C908 C907 1.397 . S
C908 C909 1.334 . S
C909 H886 0.950 . S
C909 C908 1.334 . S
C909 C910 1.287 . S
C910 C909 1.287 . S
C910 C911 1.524 . S
C910 H929 0.913 . S
C911 H887 0.950 . S
C911 C910 1.524 . S
C911 C912 1.415 . S
C912 H888 0.950 . S
C912 C907 1.363 . S
C912 C911 1.415 . S
C913 H889 0.951 . S
C913 C914 1.366 . S
C913 C915 1.388 . S
C914 C913 1.366 . S
C914 C918 1.385 . S
C915 H890 0.951 . S
C915 C913 1.388 . S
C915 C916 1.366 . S
C916 C915 1.366 . S
C916 C917 1.414 . S
C916 C919 1.499 . S
C917 H891 0.950 . S
C917 C916 1.414 . S
C917 C918 1.374 . S
C918 H892 0.950 . S
C918 C914 1.385 . S
C918 C917 1.374 . S
C919 C916 1.499 . S
C919 C920 1.373 . S
C919 C921 1.389 . S
C920 H893 0.950 . S
C920 C906 1.377 . S
C920 C919 1.373 . S
C921 C905 1.377 . S
C921 C919 1.389 . S
C921 C922 1.524 . S
C922 C921 1.524 . S
C922 C923 1.397 . S
C922 C927 1.363 . S
C923 H894 0.950 . S
C923 C922 1.397 . S
C923 C924 1.334 . S
C924 H895 0.950 . S
C924 C923 1.334 . S
C924 C925 1.287 1_556 S
C925 C924 1.287 1_554 S
C925 C926 1.524 . S
C925 H928 0.999 . S
C926 H896 0.950 . S
C926 C925 1.524 . S
C926 C927 1.415 1_554 S
C927 H897 0.950 . S
C927 C922 1.363 . S
C927 C926 1.415 1_556 S
H928 C925 0.999 . S
H929 C910 0.913 . S
H930 C948 0.951 . S
H931 C950 0.951 . S
H932 C952 0.950 . S
H933 C953 0.950 . S
H934 C955 0.950 . S
H935 C958 0.950 . S
H936 C959 0.950 1_554 S
H937 C961 0.950 . S
H938 C962 0.950 . S
H939 C963 0.951 . S
H940 C965 0.951 . S
H941 C967 0.950 . S
H942 C968 0.950 . S
H943 C970 0.950 . S
H944 C973 0.950 . S
H945 C974 0.950 . S
H946 C976 0.950 . S
H947 C977 0.950 . S
C948 H930 0.951 . S
C948 C949 1.366 . S
C948 C950 1.388 . S
C949 C948 1.366 . S
C949 C953 1.385 1_556 S
C950 H931 0.951 . S
C950 C948 1.388 . S
C950 C951 1.366 . S
C951 C950 1.366 . S
C951 C952 1.414 . S
C951 C954 1.499 . S
C952 H932 0.950 . S
C952 C951 1.414 . S
C952 C953 1.374 1_556 S
C953 H933 0.950 . S
C953 C949 1.385 1_554 S
C953 C952 1.374 1_554 S
C954 C951 1.499 . S
C954 C955 1.373 . S
C954 C956 1.389 . S
C955 H934 0.950 . S
C955 C954 1.373 . S
C955 C971 1.377 . S
C956 C954 1.389 . S
C956 C957 1.524 . S
C956 C970 1.377 . S
C957 C956 1.524 . S
C957 C958 1.397 . S
C957 C962 1.363 . S
C958 H935 0.950 . S
C958 C957 1.397 . S
C958 C959 1.334 . S
C959 H936 0.950 1_556 S
C959 C958 1.334 . S
C959 C960 1.287 . S
C960 C959 1.287 . S
C960 C961 1.524 . S
C960 H979 0.913 . S
C961 H937 0.950 . S
C961 C960 1.524 . S
C961 C962 1.415 . S
C962 H938 0.950 . S
C962 C957 1.363 . S
C962 C961 1.415 . S
C963 H939 0.951 . S
C963 C964 1.366 . S
C963 C965 1.388 . S
C964 C963 1.366 . S
C964 C968 1.385 . S
C965 H940 0.951 . S
C965 C963 1.388 . S
C965 C966 1.366 . S
C966 C965 1.366 . S
C966 C967 1.414 . S
C966 C969 1.499 . S
C967 H941 0.950 . S
C967 C966 1.414 . S
C967 C968 1.374 . S
C968 H942 0.950 . S
C968 C964 1.385 . S
C968 C967 1.374 . S
C969 C966 1.499 . S
C969 C970 1.373 . S
C969 C971 1.389 . S
C970 H943 0.950 . S
C970 C956 1.377 . S
C970 C969 1.373 . S
C971 C955 1.377 . S
C971 C969 1.389 . S
C971 C972 1.524 . S
C972 C971 1.524 . S
C972 C973 1.397 . S
C972 C977 1.363 . S
C973 H944 0.950 . S
C973 C972 1.397 . S
C973 C974 1.334 . S
C974 H945 0.950 . S
C974 C973 1.334 . S
C974 C975 1.287 . S
C975 C974 1.287 . S
C975 C976 1.524 . S
C975 H978 0.999 . S
C976 H946 0.950 . S
C976 C975 1.524 . S
C976 C977 1.415 . S
C977 H947 0.950 . S
C977 C972 1.363 . S
C977 C976 1.415 . S
H978 C975 0.999 . S
H979 C960 0.913 . S
H980 C998 0.951 . S
H981 C1000 0.951 . S
H982 C1002 0.950 . S
H983 C1003 0.950 . S
H984 C1005 0.950 . S
H985 C1008 0.950 . S
H986 C1009 0.950 . S
H987 C1011 0.950 . S
H988 C1012 0.950 . S
H989 C1013 0.951 1_655 S
H990 C1015 0.951 1_655 S
H991 C1017 0.950 . S
H992 C1018 0.950 . S
H993 C1020 0.950 1_556 S
H994 C1023 0.950 . S
H995 C1024 0.950 . S
H996 C1026 0.950 . S
H997 C1027 0.950 . S
C998 H980 0.951 . S
C998 C999 1.366 . S
C998 C1000 1.388 . S
C999 C998 1.366 . S
C999 C1003 1.385 . S
C1000 H981 0.951 . S
C1000 C998 1.388 . S
C1000 C1001 1.366 . S
C1001 C1000 1.366 . S
C1001 C1002 1.414 . S
C1001 C1004 1.499 . S
C1002 H982 0.950 . S
C1002 C1001 1.414 . S
C1002 C1003 1.374 . S
C1003 H983 0.950 . S
C1003 C999 1.385 . S
C1003 C1002 1.374 . S
C1004 C1001 1.499 . S
C1004 C1005 1.373 . S
C1004 C1006 1.389 . S
C1005 H984 0.950 . S
C1005 C1004 1.373 . S
C1005 C1021 1.377 . S
C1006 C1004 1.389 . S
C1006 C1007 1.524 . S
C1006 C1020 1.377 . S
C1007 C1006 1.524 . S
C1007 C1008 1.397 . S
C1007 C1012 1.363 . S
C1008 H985 0.950 . S
C1008 C1007 1.397 . S
C1008 C1009 1.334 . S
C1009 H986 0.950 . S
C1009 C1008 1.334 . S
C1009 C1010 1.287 1_554 S
C1010 C1009 1.287 1_556 S
C1010 C1011 1.524 . S
C1010 H1029 0.913 . S
C1011 H987 0.950 . S
C1011 C1010 1.524 . S
C1011 C1012 1.415 1_556 S
C1012 H988 0.950 . S
C1012 C1007 1.363 . S
C1012 C1011 1.415 1_554 S
C1013 H989 0.951 1_455 S
C1013 C1014 1.366 . S
C1013 C1015 1.388 . S
C1014 C1013 1.366 . S
C1014 C1018 1.385 . S
C1015 H990 0.951 1_455 S
C1015 C1013 1.388 . S
C1015 C1016 1.366 . S
C1016 C1015 1.366 . S
C1016 C1017 1.414 . S
C1016 C1019 1.499 1_556 S
C1017 H991 0.950 . S
C1017 C1016 1.414 . S
C1017 C1018 1.374 . S
C1018 H992 0.950 . S
C1018 C1014 1.385 . S
C1018 C1017 1.374 . S
C1019 C1016 1.499 1_554 S
C1019 C1020 1.373 . S
C1019 C1021 1.389 . S
C1020 H993 0.950 1_554 S
C1020 C1006 1.377 . S
C1020 C1019 1.373 . S
C1021 C1005 1.377 . S
C1021 C1019 1.389 . S
C1021 C1022 1.524 . S
C1022 C1021 1.524 . S
C1022 C1023 1.397 . S
C1022 C1027 1.363 1_455 S
C1023 H994 0.950 . S
C1023 C1022 1.397 . S
C1023 C1024 1.334 . S
C1024 H995 0.950 . S
C1024 C1023 1.334 . S
C1024 C1025 1.287 1_455 S
C1025 C1024 1.287 1_655 S
C1025 C1026 1.524 . S
C1025 H1028 0.999 . S
C1026 H996 0.950 . S
C1026 C1025 1.524 . S
C1026 C1027 1.415 . S
C1027 H997 0.950 . S
C1027 C1022 1.363 1_655 S
C1027 C1026 1.415 . S
H1028 C1025 0.999 . S
H1029 C1010 0.913 . S
H1030 C1048 0.951 . S
H1031 C1050 0.951 . S
H1032 C1052 0.950 . S
H1033 C1053 0.950 . S
H1034 C1055 0.950 . S
H1035 C1058 0.950 . S
H1036 C1059 0.950 . S
H1037 C1061 0.950 . S
H1038 C1062 0.950 . S
H1039 C1063 0.951 . S
H1040 C1065 0.951 1_554 S
H1041 C1067 0.950 . S
H1042 C1068 0.950 . S
H1043 C1070 0.950 . S
H1044 C1073 0.950 . S
H1045 C1074 0.950 . S
H1046 C1076 0.950 . S
H1047 C1077 0.950 . S
C1048 H1030 0.951 . S
C1048 C1049 1.366 . S
C1048 C1050 1.388 . S
C1049 C1048 1.366 . S
C1049 C1053 1.385 . S
C1050 H1031 0.951 . S
C1050 C1048 1.388 . S
C1050 C1051 1.366 . S
C1051 C1050 1.366 . S
C1051 C1052 1.414 . S
C1051 C1054 1.499 . S
C1052 H1032 0.950 . S
C1052 C1051 1.414 . S
C1052 C1053 1.374 . S
C1053 H1033 0.950 . S
C1053 C1049 1.385 . S
C1053 C1052 1.374 . S
C1054 C1051 1.499 . S
C1054 C1055 1.373 . S
C1054 C1056 1.389 1_545 S
C1055 H1034 0.950 . S
C1055 C1054 1.373 . S
C1055 C1071 1.377 . S
C1056 C1054 1.389 1_565 S
C1056 C1057 1.524 . S
C1056 C1070 1.377 1_554 S
C1057 C1056 1.524 . S
C1057 C1058 1.397 . S
C1057 C1062 1.363 1_554 S
C1058 H1035 0.950 . S
C1058 C1057 1.397 . S
C1058 C1059 1.334 . S
C1059 H1036 0.950 . S
C1059 C1058 1.334 . S
C1059 C1060 1.287 . S
C1060 C1059 1.287 . S
C1060 C1061 1.524 1_554 S
C1060 H1079 0.913 . S
C1061 H1037 0.950 . S
C1061 C1060 1.524 1_556 S
C1061 C1062 1.415 . S
C1062 H1038 0.950 . S
C1062 C1057 1.363 1_556 S
C1062 C1061 1.415 . S
C1063 H1039 0.951 . S
C1063 C1064 1.366 . S
C1063 C1065 1.388 . S
C1064 C1063 1.366 . S
C1064 C1068 1.385 . S
C1065 H1040 0.951 1_556 S
C1065 C1063 1.388 . S
C1065 C1066 1.366 . S
C1066 C1065 1.366 . S
C1066 C1067 1.414 . S
C1066 C1069 1.499 . S
C1067 H1041 0.950 . S
C1067 C1066 1.414 . S
C1067 C1068 1.374 . S
C1068 H1042 0.950 . S
C1068 C1064 1.385 . S
C1068 C1067 1.374 . S
C1069 C1066 1.499 . S
C1069 C1070 1.373 1_545 S
C1069 C1071 1.389 1_556 S
C1070 H1043 0.950 . S
C1070 C1056 1.377 1_556 S
C1070 C1069 1.373 1_565 S
C1071 C1055 1.377 . S
C1071 C1069 1.389 1_554 S
C1071 C1072 1.524 . S
C1072 C1071 1.524 . S
C1072 C1073 1.397 1_554 S
C1072 C1077 1.363 . S
C1073 H1044 0.950 . S
C1073 C1072 1.397 1_556 S
C1073 C1074 1.334 . S
C1074 H1045 0.950 . S
C1074 C1073 1.334 . S
C1074 C1075 1.287 1_556 S
C1075 C1074 1.287 1_554 S
C1075 C1076 1.524 . S
C1075 H1078 0.999 . S
C1076 H1046 0.950 . S
C1076 C1075 1.524 . S
C1076 C1077 1.415 . S
C1077 H1047 0.950 . S
C1077 C1072 1.363 . S
C1077 C1076 1.415 . S
H1078 C1075 0.999 . S
H1079 C1060 0.913 . S
H1080 C1098 0.951 . S
H1081 C1100 0.951 . S
H1082 C1102 0.950 . S
H1083 C1103 0.950 . S
H1084 C1105 0.950 . S
H1085 C1108 0.950 . S
H1086 C1109 0.950 . S
H1087 C1111 0.950 . S
H1088 C1112 0.950 . S
H1089 C1113 0.951 . S
H1090 C1115 0.951 . S
H1091 C1117 0.950 . S
H1092 C1118 0.950 . S
H1093 C1120 0.950 . S
H1094 C1123 0.950 . S
H1095 C1124 0.950 . S
H1096 C1126 0.950 . S
H1097 C1127 0.950 . S
C1098 H1080 0.951 . S
C1098 C1099 1.366 . S
C1098 C1100 1.388 . S
C1099 C1098 1.366 . S
C1099 C1103 1.385 . S
C1100 H1081 0.951 . S
C1100 C1098 1.388 . S
C1100 C1101 1.366 . S
C1101 C1100 1.366 . S
C1101 C1102 1.414 . S
C1101 C1104 1.499 . S
C1102 H1082 0.950 . S
C1102 C1101 1.414 . S
C1102 C1103 1.374 . S
C1103 H1083 0.950 . S
C1103 C1099 1.385 . S
C1103 C1102 1.374 . S
C1104 C1101 1.499 . S
C1104 C1105 1.373 . S
C1104 C1106 1.389 . S
C1105 H1084 0.950 . S
C1105 C1104 1.373 . S
C1105 C1121 1.377 1_554 S
C1106 C1104 1.389 . S
C1106 C1107 1.524 . S
C1106 C1120 1.377 1_554 S
C1107 C1106 1.524 . S
C1107 C1108 1.397 . S
C1107 C1112 1.363 . S
C1108 H1085 0.950 . S
C1108 C1107 1.397 . S
C1108 C1109 1.334 . S
C1109 H1086 0.950 . S
C1109 C1108 1.334 . S
C1109 C1110 1.287 . S
C1110 C1109 1.287 . S
C1110 C1111 1.524 . S
C1110 H1129 0.913 . S
C1111 H1087 0.950 . S
C1111 C1110 1.524 . S
C1111 C1112 1.415 . S
C1112 H1088 0.950 . S
C1112 C1107 1.363 . S
C1112 C1111 1.415 . S
C1113 H1089 0.951 . S
C1113 C1114 1.366 . S
C1113 C1115 1.388 . S
C1114 C1113 1.366 . S
C1114 C1118 1.385 . S
C1115 H1090 0.951 . S
C1115 C1113 1.388 . S
C1115 C1116 1.366 . S
C1116 C1115 1.366 . S
C1116 C1117 1.414 . S
C1116 C1119 1.499 . S
C1117 H1091 0.950 . S
C1117 C1116 1.414 . S
C1117 C1118 1.374 . S
C1118 H1092 0.950 . S
C1118 C1114 1.385 . S
C1118 C1117 1.374 . S
C1119 C1116 1.499 . S
C1119 C1120 1.373 . S
C1119 C1121 1.389 . S
C1120 H1093 0.950 . S
C1120 C1106 1.377 1_556 S
C1120 C1119 1.373 . S
C1121 C1105 1.377 1_556 S
C1121 C1119 1.389 . S
C1121 C1122 1.524 . S
C1122 C1121 1.524 . S
C1122 C1123 1.397 . S
C1122 C1127 1.363 . S
C1123 H1094 0.950 . S
C1123 C1122 1.397 . S
C1123 C1124 1.334 . S
C1124 H1095 0.950 . S
C1124 C1123 1.334 . S
C1124 C1125 1.287 . S
C1125 C1124 1.287 . S
C1125 C1126 1.524 . S
C1125 H1128 0.999 . S
C1126 H1096 0.950 . S
C1126 C1125 1.524 . S
C1126 C1127 1.415 . S
C1127 H1097 0.950 . S
C1127 C1122 1.363 . S
C1127 C1126 1.415 . S
H1128 C1125 0.999 . S
H1129 C1110 0.913 . S
H1130 C1148 0.951 . S
H1131 C1150 0.951 . S
H1132 C1152 0.950 . S
H1133 C1153 0.950 . S
H1134 C1155 0.950 . S
H1135 C1158 0.950 . S
H1136 C1159 0.950 . S
H1137 C1161 0.950 . S
H1138 C1162 0.950 . S
H1139 C1163 0.951 . S
H1140 C1165 0.951 . S
H1141 C1167 0.950 . S
H1142 C1168 0.950 . S
H1143 C1170 0.950 . S
H1144 C1173 0.950 . S
H1145 C1174 0.950 . S
H1146 C1176 0.950 . S
H1147 C1177 0.950 . S
C1148 H1130 0.951 . S
C1148 C1149 1.366 . S
C1148 C1150 1.388 . S
C1149 C1148 1.366 . S
C1149 C1153 1.385 . S
C1150 H1131 0.951 . S
C1150 C1148 1.388 . S
C1150 C1151 1.366 . S
C1151 C1150 1.366 . S
C1151 C1152 1.414 . S
C1151 C1154 1.499 . S
C1152 H1132 0.950 . S
C1152 C1151 1.414 . S
C1152 C1153 1.374 . S
C1153 H1133 0.950 . S
C1153 C1149 1.385 . S
C1153 C1152 1.374 . S
C1154 C1151 1.499 . S
C1154 C1155 1.373 . S
C1154 C1156 1.389 . S
C1155 H1134 0.950 . S
C1155 C1154 1.373 . S
C1155 C1171 1.377 1_554 S
C1156 C1154 1.389 . S
C1156 C1157 1.524 . S
C1156 C1170 1.377 1_554 S
C1157 C1156 1.524 . S
C1157 C1158 1.397 . S
C1157 C1162 1.363 . S
C1158 H1135 0.950 . S
C1158 C1157 1.397 . S
C1158 C1159 1.334 . S
C1159 H1136 0.950 . S
C1159 C1158 1.334 . S
C1159 C1160 1.287 . S
C1160 C1159 1.287 . S
C1160 C1161 1.524 . S
C1160 H1179 0.913 . S
C1161 H1137 0.950 . S
C1161 C1160 1.524 . S
C1161 C1162 1.415 . S
C1162 H1138 0.950 . S
C1162 C1157 1.363 . S
C1162 C1161 1.415 . S
C1163 H1139 0.951 . S
C1163 C1164 1.366 . S
C1163 C1165 1.388 . S
C1164 C1163 1.366 . S
C1164 C1168 1.385 . S
C1165 H1140 0.951 . S
C1165 C1163 1.388 . S
C1165 C1166 1.366 . S
C1166 C1165 1.366 . S
C1166 C1167 1.414 . S
C1166 C1169 1.499 . S
C1167 H1141 0.950 . S
C1167 C1166 1.414 . S
C1167 C1168 1.374 . S
C1168 H1142 0.950 . S
C1168 C1164 1.385 . S
C1168 C1167 1.374 . S
C1169 C1166 1.499 . S
C1169 C1170 1.373 . S
C1169 C1171 1.389 . S
C1170 H1143 0.950 . S
C1170 C1156 1.377 1_556 S
C1170 C1169 1.373 . S
C1171 C1155 1.377 1_556 S
C1171 C1169 1.389 . S
C1171 C1172 1.524 . S
C1172 C1171 1.524 . S
C1172 C1173 1.397 . S
C1172 C1177 1.363 . S
C1173 H1144 0.950 . S
C1173 C1172 1.397 . S
C1173 C1174 1.334 . S
C1174 H1145 0.950 . S
C1174 C1173 1.334 . S
C1174 C1175 1.287 . S
C1175 C1174 1.287 . S
C1175 C1176 1.524 . S
C1175 H1178 0.999 . S
C1176 H1146 0.950 . S
C1176 C1175 1.524 . S
C1176 C1177 1.415 . S
C1177 H1147 0.950 . S
C1177 C1172 1.363 . S
C1177 C1176 1.415 . S
H1178 C1175 0.999 . S
H1179 C1160 0.913 . S
H1180 C1198 0.951 . S
H1181 C1200 0.951 . S
H1182 C1202 0.950 . S
H1183 C1203 0.950 . S
H1184 C1205 0.950 . S
H1185 C1208 0.950 1_455 S
H1186 C1209 0.950 . S
H1187 C1211 0.950 . S
H1188 C1212 0.950 . S
H1189 C1213 0.951 . S
H1190 C1215 0.951 . S
H1191 C1217 0.950 . S
H1192 C1218 0.950 . S
H1193 C1220 0.950 . S
H1194 C1223 0.916 1_655 S
H1195 C1224 0.950 1_655 S
H1196 C1226 0.950 . S
H1197 C1227 0.950 . S
C1198 H1180 0.951 . S
C1198 C1199 1.369 . S
C1198 C1200 1.388 . S
C1199 C1198 1.369 . S
C1199 C1203 1.382 1_655 S
C1200 H1181 0.951 . S
C1200 C1198 1.388 . S
C1200 C1201 1.366 . S
C1201 C1200 1.366 . S
C1201 C1202 1.414 1_655 S
C1201 C1204 1.499 . S
C1202 H1182 0.950 . S
C1202 C1201 1.414 1_455 S
C1202 C1203 1.374 . S
C1203 H1183 0.950 . S
C1203 C1199 1.382 1_455 S
C1203 C1202 1.374 . S
C1204 C1201 1.499 . S
C1204 C1205 1.373 1_655 S
C1204 C1206 1.389 . S
C1205 H1184 0.950 . S
C1205 C1204 1.373 1_455 S
C1205 C1221 1.377 . S
C1206 C1204 1.389 . S
C1206 C1207 1.524 . S
C1206 C1220 1.377 . S
C1207 C1206 1.524 . S
C1207 C1208 1.397 . S
C1207 C1212 1.363 . S
C1208 H1185 0.950 1_655 S
C1208 C1207 1.397 . S
C1208 C1209 1.334 . S
C1209 H1186 0.950 . S
C1209 C1208 1.334 . S
C1209 C1210 1.287 . S
C1210 C1209 1.287 . S
C1210 C1211 1.524 . S
C1210 H1229 0.913 . S
C1211 H1187 0.950 . S
C1211 C1210 1.524 . S
C1211 C1212 1.415 . S
C1212 H1188 0.950 . S
C1212 C1207 1.363 . S
C1212 C1211 1.415 . S
C1213 H1189 0.951 . S
C1213 C1214 1.366 1_455 S
C1213 C1215 1.388 . S
C1214 C1213 1.366 1_655 S
C1214 C1218 1.385 . S
C1215 H1190 0.951 . S
C1215 C1213 1.388 . S
C1215 C1216 1.366 1_455 S
C1216 C1215 1.366 1_655 S
C1216 C1217 1.414 . S
C1216 C1219 1.499 . S
C1217 H1191 0.950 . S
C1217 C1216 1.414 . S
C1217 C1218 1.374 . S
C1218 H1192 0.950 . S
C1218 C1214 1.385 . S
C1218 C1217 1.374 . S
C1219 C1216 1.499 . S
C1219 C1220 1.373 . S
C1219 C1221 1.389 1_655 S
C1220 H1193 0.950 . S
C1220 C1206 1.377 . S
C1220 C1219 1.373 . S
C1221 C1205 1.377 . S
C1221 C1219 1.389 1_455 S
C1221 C1222 1.524 . S
C1222 C1221 1.524 . S
C1222 C1223 1.418 . S
C1222 C1227 1.363 . S
C1223 H1194 0.916 1_455 S
C1223 C1222 1.418 . S
C1223 C1224 1.346 . S
C1224 H1195 0.950 1_455 S
C1224 C1223 1.346 . S
C1224 C1225 1.287 . S
C1225 C1224 1.287 . S
C1225 C1226 1.524 . S
C1225 H1228 0.999 . S
C1226 H1196 0.950 . S
C1226 C1225 1.524 . S
C1226 C1227 1.415 . S
C1227 H1197 0.950 . S
C1227 C1222 1.363 . S
C1227 C1226 1.415 . S
H1228 C1225 0.999 . S
H1229 C1210 0.913 . S
H1230 C1248 0.951 . S
H1231 C1250 0.951 . S
H1232 C1252 0.950 . S
H1233 C1253 0.950 . S
H1234 C1255 0.950 . S
H1235 C1258 0.950 . S
H1236 C1259 0.950 . S
H1237 C1261 0.950 . S
H1238 C1262 0.950 . S
H1239 C1263 0.951 . S
H1240 C1265 0.951 . S
H1241 C1267 0.950 . S
H1242 C1268 0.950 . S
H1243 C1270 0.950 . S
H1244 C1273 0.950 . S
H1245 C1274 0.950 . S
H1246 C1276 0.950 . S
H1247 C1277 0.950 . S
C1248 H1230 0.951 . S
C1248 C1249 1.399 . S
C1248 C1250 1.388 . S
C1249 C1248 1.399 . S
C1249 C1253 1.355 1_565 S
C1250 H1231 0.951 . S
C1250 C1248 1.388 . S
C1250 C1251 1.366 . S
C1251 C1250 1.366 . S
C1251 C1252 1.414 1_565 S
C1251 C1254 1.499 . S
C1252 H1232 0.950 . S
C1252 C1251 1.414 1_545 S
C1252 C1253 1.374 . S
C1253 H1233 0.950 . S
C1253 C1249 1.355 1_545 S
C1253 C1252 1.374 . S
C1254 C1251 1.499 . S
C1254 C1255 1.373 1_565 S
C1254 C1256 1.389 . S
C1255 H1234 0.950 . S
C1255 C1254 1.373 1_545 S
C1255 C1271 1.377 . S
C1256 C1254 1.389 . S
C1256 C1257 1.524 . S
C1256 C1270 1.377 . S
C1257 C1256 1.524 . S
C1257 C1258 1.397 . S
C1257 C1262 1.363 . S
C1258 H1235 0.950 . S
C1258 C1257 1.397 . S
C1258 C1259 1.334 . S
C1259 H1236 0.950 . S
C1259 C1258 1.334 . S
C1259 C1260 1.287 . S
C1260 C1259 1.287 . S
C1260 C1261 1.524 . S
C1260 H1279 0.913 . S
C1261 H1237 0.950 . S
C1261 C1260 1.524 . S
C1261 C1262 1.415 . S
C1262 H1238 0.950 . S
C1262 C1257 1.363 . S
C1262 C1261 1.415 . S
C1263 H1239 0.951 . S
C1263 C1264 1.366 1_545 S
C1263 C1265 1.388 . S
C1264 C1263 1.366 1_565 S
C1264 C1268 1.385 . S
C1265 H1240 0.951 . S
C1265 C1263 1.388 . S
C1265 C1266 1.366 1_545 S
C1266 C1265 1.366 1_565 S
C1266 C1267 1.414 . S
C1266 C1269 1.499 . S
C1267 H1241 0.950 . S
C1267 C1266 1.414 . S
C1267 C1268 1.374 . S
C1268 H1242 0.950 . S
C1268 C1264 1.385 . S
C1268 C1267 1.374 . S
C1269 C1266 1.499 . S
C1269 C1270 1.373 . S
C1269 C1271 1.389 1_565 S
C1270 H1243 0.950 . S
C1270 C1256 1.377 . S
C1270 C1269 1.373 . S
C1271 C1255 1.377 . S
C1271 C1269 1.389 1_545 S
C1271 C1272 1.524 . S
C1272 C1271 1.524 . S
C1272 C1273 1.397 . S
C1272 C1277 1.363 . S
C1273 H1244 0.950 . S
C1273 C1272 1.397 . S
C1273 C1274 1.334 . S
C1274 H1245 0.950 . S
C1274 C1273 1.334 . S
C1274 C1275 1.287 . S
C1275 C1274 1.287 . S
C1275 C1276 1.524 . S
C1275 H1278 0.999 . S
C1276 H1246 0.950 . S
C1276 C1275 1.524 . S
C1276 C1277 1.415 . S
C1277 H1247 0.950 . S
C1277 C1272 1.363 . S
C1277 C1276 1.415 . S
H1278 C1275 0.999 . S
H1279 C1260 0.913 . S
H1280 C1298 0.951 . S
H1281 C1300 0.951 . S
H1282 C1302 0.950 . S
H1283 C1303 0.950 . S
H1284 C1305 0.950 . S
H1285 C1308 0.950 . S
H1286 C1309 0.950 . S
H1287 C1311 0.950 . S
H1288 C1312 0.950 . S
H1289 C1313 0.951 . S
H1290 C1315 0.951 . S
H1291 C1317 0.950 . S
H1292 C1318 0.950 . S
H1293 C1320 0.950 . S
H1294 C1323 0.950 . S
H1295 C1324 0.950 . S
H1296 C1326 0.950 . S
H1297 C1327 0.950 . S
C1298 H1280 0.951 . S
C1298 C1299 1.366 . S
C1298 C1300 1.388 . S
C1299 C1298 1.366 . S
C1299 C1303 1.385 . S
C1300 H1281 0.951 . S
C1300 C1298 1.388 . S
C1300 C1301 1.366 . S
C1301 C1300 1.366 . S
C1301 C1302 1.414 . S
C1301 C1304 1.499 . S
C1302 H1282 0.950 . S
C1302 C1301 1.414 . S
C1302 C1303 1.374 . S
C1303 H1283 0.950 . S
C1303 C1299 1.385 . S
C1303 C1302 1.374 . S
C1304 C1301 1.499 . S
C1304 C1305 1.373 . S
C1304 C1306 1.389 . S
C1305 H1284 0.950 . S
C1305 C1304 1.373 . S
C1305 C1321 1.377 . S
C1306 C1304 1.389 . S
C1306 C1307 1.524 . S
C1306 C1320 1.377 . S
C1307 C1306 1.524 . S
C1307 C1308 1.397 . S
C1307 C1312 1.363 . S
C1308 H1285 0.950 . S
C1308 C1307 1.397 . S
C1308 C1309 1.334 . S
C1309 H1286 0.950 . S
C1309 C1308 1.334 . S
C1309 C1310 1.287 . S
C1310 C1309 1.287 . S
C1310 C1311 1.524 . S
C1310 H1329 0.913 . S
C1311 H1287 0.950 . S
C1311 C1310 1.524 . S
C1311 C1312 1.415 . S
C1312 H1288 0.950 . S
C1312 C1307 1.363 . S
C1312 C1311 1.415 . S
C1313 H1289 0.951 . S
C1313 C1314 1.366 . S
C1313 C1315 1.388 . S
C1314 C1313 1.366 . S
C1314 C1318 1.385 . S
C1315 H1290 0.951 . S
C1315 C1313 1.388 . S
C1315 C1316 1.366 . S
C1316 C1315 1.366 . S
C1316 C1317 1.414 . S
C1316 C1319 1.499 . S
C1317 H1291 0.950 . S
C1317 C1316 1.414 . S
C1317 C1318 1.374 . S
C1318 H1292 0.950 . S
C1318 C1314 1.385 . S
C1318 C1317 1.374 . S
C1319 C1316 1.499 . S
C1319 C1320 1.373 . S
C1319 C1321 1.389 . S
C1320 H1293 0.950 . S
C1320 C1306 1.377 . S
C1320 C1319 1.373 . S
C1321 C1305 1.377 . S
C1321 C1319 1.389 . S
C1321 C1322 1.524 . S
C1322 C1321 1.524 . S
C1322 C1323 1.397 . S
C1322 C1327 1.363 . S
C1323 H1294 0.950 . S
C1323 C1322 1.397 . S
C1323 C1324 1.334 . S
C1324 H1295 0.950 . S
C1324 C1323 1.334 . S
C1324 C1325 1.287 . S
C1325 C1324 1.287 . S
C1325 C1326 1.524 . S
C1325 H1328 0.999 . S
C1326 H1296 0.950 . S
C1326 C1325 1.524 . S
C1326 C1327 1.415 . S
C1327 H1297 0.950 . S
C1327 C1322 1.363 . S
C1327 C1326 1.415 . S
H1328 C1325 0.999 . S
H1329 C1310 0.913 . S
H1330 C1348 0.951 . S
H1331 C1350 0.951 . S
H1332 C1352 0.950 . S
H1333 C1353 0.950 . S
H1334 C1355 0.950 . S
H1335 C1358 0.950 . S
H1336 C1359 0.950 . S
H1337 C1361 0.950 . S
H1338 C1362 0.950 . S
H1339 C1363 0.951 . S
H1340 C1365 0.951 . S
H1341 C1367 0.950 . S
H1342 C1368 0.950 . S
H1343 C1370 0.950 . S
H1344 C1373 0.950 . S
H1345 C1374 0.950 . S
H1346 C1376 0.950 . S
H1347 C1377 0.950 . S
C1348 H1330 0.951 . S
C1348 C1349 1.366 . S
C1348 C1350 1.388 . S
C1349 C1348 1.366 . S
C1349 C1353 1.385 . S
C1350 H1331 0.951 . S
C1350 C1348 1.388 . S
C1350 C1351 1.366 . S
C1351 C1350 1.366 . S
C1351 C1352 1.414 . S
C1351 C1354 1.499 . S
C1352 H1332 0.950 . S
C1352 C1351 1.414 . S
C1352 C1353 1.374 . S
C1353 H1333 0.950 . S
C1353 C1349 1.385 . S
C1353 C1352 1.374 . S
C1354 C1351 1.499 . S
C1354 C1355 1.373 . S
C1354 C1356 1.389 . S
C1355 H1334 0.950 . S
C1355 C1354 1.373 . S
C1355 C1371 1.377 . S
C1356 C1354 1.389 . S
C1356 C1357 1.524 . S
C1356 C1370 1.377 . S
C1357 C1356 1.524 . S
C1357 C1358 1.397 . S
C1357 C1362 1.363 . S
C1358 H1335 0.950 . S
C1358 C1357 1.397 . S
C1358 C1359 1.334 . S
C1359 H1336 0.950 . S
C1359 C1358 1.334 . S
C1359 C1360 1.287 . S
C1360 C1359 1.287 . S
C1360 C1361 1.524 . S
C1360 H1379 0.913 . S
C1361 H1337 0.950 . S
C1361 C1360 1.524 . S
C1361 C1362 1.415 . S
C1362 H1338 0.950 . S
C1362 C1357 1.363 . S
C1362 C1361 1.415 . S
C1363 H1339 0.951 . S
C1363 C1364 1.366 . S
C1363 C1365 1.388 . S
C1364 C1363 1.366 . S
C1364 C1368 1.385 . S
C1365 H1340 0.951 . S
C1365 C1363 1.388 . S
C1365 C1366 1.366 . S
C1366 C1365 1.366 . S
C1366 C1367 1.414 . S
C1366 C1369 1.499 . S
C1367 H1341 0.950 . S
C1367 C1366 1.414 . S
C1367 C1368 1.374 . S
C1368 H1342 0.950 . S
C1368 C1364 1.385 . S
C1368 C1367 1.374 . S
C1369 C1366 1.499 . S
C1369 C1370 1.373 . S
C1369 C1371 1.389 . S
C1370 H1343 0.950 . S
C1370 C1356 1.377 . S
C1370 C1369 1.373 . S
C1371 C1355 1.377 . S
C1371 C1369 1.389 . S
C1371 C1372 1.524 . S
C1372 C1371 1.524 . S
C1372 C1373 1.397 . S
C1372 C1377 1.363 . S
C1373 H1344 0.950 . S
C1373 C1372 1.397 . S
C1373 C1374 1.334 . S
C1374 H1345 0.950 . S
C1374 C1373 1.334 . S
C1374 C1375 1.287 . S
C1375 C1374 1.287 . S
C1375 C1376 1.524 . S
C1375 H1378 0.999 . S
C1376 H1346 0.950 . S
C1376 C1375 1.524 . S
C1376 C1377 1.415 . S
C1377 H1347 0.950 . S
C1377 C1372 1.363 . S
C1377 C1376 1.415 . S
H1378 C1375 0.999 . S
H1379 C1360 0.913 . S
C199 C76 1.542 . S
C214 C104 1.564 . S
C264 C127 1.612 . S
C249 C87 1.588 . S
C314 C150 1.641 . S
C299 C54 1.618 . S
C364 C177 1.496 . S
C349 C65 1.540 . S
C414 C105 1.563 . S
C399 C32 1.541 . S
C449 C43 1.462 . S
C464 C128 1.484 . S
C499 C10 1.442 . S
C514 C151 1.461 . S
C549 C21 1.579 . S
C564 C176 1.585 . S
C614 C106 0.140 . S
C599 C60 0.389 . S
C664 C129 0.193 . S
C649 C71 0.324 . S
C714 C152 0.199 . S
C699 C82 0.327 . S
C749 C49 0.366 . S
C764 C178 0.470 . S
C799 C16 0.408 1_655 S
C814 C109 0.505 . S
C864 C132 0.509 . S
C849 C27 0.401 1_565 S
C914 C155 0.507 . S
C899 C38 0.384 . S
C949 C5 0.332 1_556 S
C964 C175 0.158 . S
C999 C59 1.579 . S
C1014 C107 1.563 . S
C1049 C70 1.521 . S
C1064 C130 1.526 . S
C1114 C153 1.541 . S
C1099 C81 1.539 . S
C1164 C174 1.321 . S
C1149 C48 1.281 . S
C1199 C15 1.565 1_655 S
C1214 C108 1.521 . S
C1264 C131 1.469 . S
C1249 C26 1.519 1_565 S
C1314 C154 1.453 . S
C1299 C37 1.500 . S
C1349 C4 1.721 . S
C1364 C173 1.768 . S
