# Generated by pormake.
# Topology pts, (4,4)-cn, num edge types: 1
# Building blocks:
#     Node 0, Type 0, BuildingBlock: NAHDIM_clean_linker_0, # of connection points: 4
#     Node 1, Type 0, BuildingBlock: NAHDIM_clean_linker_0, # of connection points: 4
#     Node 2, Type 1, BuildingBlock: UXUYUI_clean_sbu_0, # of connection points: 4
#     Node 3, Type 1, BuildingBlock: UXUYUI_clean_sbu_0, # of connection points: 4
#     Edge 4, Type (0, 1), BuildingBlock: KIFKEQ_clean_linker_1, # of connection points: 2
#     Edge 5, Type (0, 1), BuildingBlock: KIFKEQ_clean_linker_1, # of connection points: 2
#     Edge 6, Type (0, 1), BuildingBlock: KIFKEQ_clean_linker_1, # of connection points: 2
#     Edge 7, Type (0, 1), BuildingBlock: KIFKEQ_clean_linker_1, # of connection points: 2
#     Edge 8, Type (0, 1), BuildingBlock: KIFKEQ_clean_linker_1, # of connection points: 2
#     Edge 9, Type (0, 1), BuildingBlock: KIFKEQ_clean_linker_1, # of connection points: 2
#     Edge 10, Type (0, 1), BuildingBlock: KIFKEQ_clean_linker_1, # of connection points: 2
#     Edge 11, Type (0, 1), BuildingBlock: KIFKEQ_clean_linker_1, # of connection points: 2
# Relax obj value: 0.021
# Max RMSD: 0.066
# Mean RMSD: 0.065
data_MOF--net-pts--node1-UXUYUI_clean_sbu_0--node2-NAHDIM_clean_linker_0--edge1-KIFKEQ_clean_linker_1
_symmetry_space_group_name_H-M    P1
_symmetry_Int_Tables_number       1
_symmetry_cell_setting            triclinic
loop_
_symmetry_equiv_pos_as_xyz
'x, y, z'
_cell_length_a     38.514807
_cell_length_b     38.559549
_cell_length_c     62.675839
_cell_angle_alpha  90.345173
_cell_angle_beta   89.586789
_cell_angle_gamma 90.011015
loop_
_atom_site_label
_atom_site_type_symbol
_atom_site_fract_x
_atom_site_fract_y
_atom_site_fract_z
_atom_type_partial_charge
C0 C 0.67987 0.07067 0.13983 0.0
C1 C 0.69699 0.03955 0.12873 0.0
C2 C 0.67465 0.03526 0.09303 0.0
C3 C 0.66876 -3e-05 0.08924 0.0
C4 C 0.64238 0.98915 0.07537 0.0
C5 C 0.62118 0.0143 0.06547 0.0
C6 C 0.62754 0.05005 0.06912 0.0
C7 C 0.65476 0.06006 0.08258 0.0
C8 C 0.63686 0.95088 0.07156 0.0
C9 C 0.60504 0.07767 0.05932 0.0
C10 C 0.42972 0.90503 0.14085 0.0
C11 C 0.42402 0.93756 0.1275 0.0
C12 C 0.44997 0.94252 0.09224 0.0
C13 C 0.45575 0.97837 0.0913 0.0
C14 C 0.48116 0.99204 0.07756 0.0
C15 C 0.50155 0.96924 0.06485 0.0
C16 C 0.49512 0.93307 0.06548 0.0
C17 C 0.46877 0.92029 0.07886 0.0
C18 C 0.48664 0.03077 0.07694 0.0
C19 C 0.51676 0.90776 0.0526 0.0
C20 C 0.43311 0.97746 0.92919 0.0
C21 C 0.44203 0.01082 0.9364 0.0
C22 C 0.47371 0.01681 0.94668 0.0
C23 C 0.49702 0.98893 0.94965 0.0
C24 C 0.48883 0.95567 0.94149 0.0
C25 C 0.457 0.95044 0.93118 0.0
C26 C 0.48212 0.05283 0.95467 0.0
C27 C 0.51335 0.92553 0.94416 0.0
C28 C 0.76532 0.0702 0.94425 0.0
C29 C 0.74802 0.04188 0.93082 0.0
C30 C 0.6848 0.04226 0.93142 0.0
C31 C 0.6587 0.06658 0.93549 0.0
C32 C 0.62706 0.05659 0.94485 0.0
C33 C 0.62137 0.02128 0.9498 0.0
C34 C 0.64679 0.99622 0.94432 0.0
C35 C 0.6783 0.00698 0.93514 0.0
C36 C 0.60024 0.08387 0.95015 0.0
C37 C 0.64104 0.95823 0.94876 0.0
C38 C 0.59106 0.00328 0.05242 0.0
C39 C 0.56133 0.99195 0.06319 0.0
C40 C 0.53123 0.98286 0.05217 0.0
C41 C 0.53032 0.98592 0.02972 0.0
C42 C 0.49993 0.97886 0.0182 0.0
C43 C 0.49946 0.98159 0.99607 0.0
C44 C 0.5294 0.99143 0.98461 0.0
C45 C 0.52917 0.99439 0.96212 0.0
C46 C 0.55947 0.00385 0.95119 0.0
C47 C 0.59012 0.01096 0.96219 0.0
C48 C 0.59072 0.00872 0.98472 0.0
C49 C 0.62099 0.01629 0.99631 0.0
C50 C 0.62125 0.01433 0.01846 0.0
C51 C 0.59126 0.00476 0.02989 0.0
C52 C 0.56063 0.99645 0.01852 0.0
C53 C 0.56027 0.99878 0.99593 0.0
C54 C 0.35577 0.95989 0.9447 0.0
C55 C 0.37012 0.98316 0.92699 0.0
O56 O 0.69917 0.04573 0.10701 0.0
O57 O 0.71594 0.05361 0.924 0.0
O58 O 0.402 0.97056 0.92001 0.0
O59 O 0.4267 0.92868 0.10608 0.0
H60 H 0.68061 0.01625 0.13185 0.0
H61 H 0.65335 0.07463 0.13342 0.0
H62 H 0.69529 0.09462 0.13708 0.0
H63 H 0.6776 0.0661 0.15727 0.0
H64 H 0.68476 0.981 0.09723 0.0
H65 H 0.65981 0.08728 0.08565 0.0
H66 H 0.61254 0.94259 0.07965 0.0
H67 H 0.65863 0.93505 0.07777 0.0
H68 H 0.63397 0.94549 0.05424 0.0
H69 H 0.6109 0.10394 0.06573 0.0
H70 H 0.57718 0.0719 0.06229 0.0
H71 H 0.60923 0.07797 0.04179 0.0
H72 H 0.44475 0.95639 0.13198 0.0
H73 H 0.42842 0.91146 0.15815 0.0
H74 H 0.45578 0.89398 0.13728 0.0
H75 H 0.40977 0.88509 0.13716 0.0
H76 H 0.44041 0.99557 0.10133 0.0
H77 H 0.46376 0.89267 0.07964 0.0
H78 H 0.51119 0.03735 0.0852 0.0
H79 H 0.46509 0.04512 0.0849 0.0
H80 H 0.48902 0.03973 0.06019 0.0
H81 H 0.51125 0.88039 0.05692 0.0
H82 H 0.54484 0.91291 0.05502 0.0
H83 H 0.51129 0.91105 0.03538 0.0
H84 H 0.37272 0.00965 0.93382 0.0
H85 H 0.42459 0.03236 0.93388 0.0
H86 H 0.45015 0.92494 0.92518 0.0
H87 H 0.48457 0.05254 0.97231 0.0
H88 H 0.46193 0.07206 0.95032 0.0
H89 H 0.50746 0.06138 0.94797 0.0
H90 H 0.50355 0.90145 0.93645 0.0
H91 H 0.51721 0.92052 0.96141 0.0
H92 H 0.53909 0.93203 0.93716 0.0
H93 H 0.7452 0.01899 0.94143 0.0
H94 H 0.79135 0.06151 0.94958 0.0
H95 H 0.74916 0.07578 0.95862 0.0
H96 H 0.76821 0.09456 0.93503 0.0
H97 H 0.66377 0.09365 0.93212 0.0
H98 H 0.69788 0.98789 0.931 0.0
H99 H 0.59528 0.08432 0.96763 0.0
H100 H 0.57538 0.07735 0.94222 0.0
H101 H 0.60848 0.11018 0.94506 0.0
H102 H 0.66182 0.94168 0.94172 0.0
H103 H 0.6156 0.94982 0.94229 0.0
H104 H 0.64032 0.95404 0.96627 0.0
H105 H 0.56162 0.99019 0.08047 0.0
H106 H 0.47613 0.97125 0.02618 0.0
H107 H 0.47532 0.97578 0.98806 0.0
H108 H 0.55909 0.00606 0.93394 0.0
H109 H 0.64484 0.02396 0.98841 0.0
H110 H 0.64528 0.02039 0.02652 0.0
H111 H 0.32985 0.96927 0.95007 0.0
H112 H 0.37351 0.96048 0.95859 0.0
H113 H 0.35342 0.93262 0.93906 0.0
C114 C 0.10858 0.39149 0.64222 0.0
C115 C 0.08129 0.37033 0.63016 0.0
C116 C 0.08174 0.39174 0.59395 0.0
C117 C 0.04717 0.40207 0.59122 0.0
C118 C 0.03881 0.42875 0.57703 0.0
C119 C 0.06565 0.44538 0.56545 0.0
C120 C 0.10037 0.43378 0.56744 0.0
C121 C 0.10787 0.40663 0.58149 0.0
C122 C 0.00145 0.43985 0.57488 0.0
C123 C 0.12973 0.45098 0.55543 0.0
C124 C 0.08581 0.71172 0.62152 0.0
C125 C 0.09216 0.67952 0.60893 0.0
C126 C 0.06063 0.63104 0.59304 0.0
C127 C 0.08928 0.6185 0.58128 0.0
C128 C 0.08627 0.58909 0.56819 0.0
C129 C 0.05387 0.57202 0.5666 0.0
C130 C 0.02485 0.58478 0.57815 0.0
C131 C 0.02866 0.61414 0.59129 0.0
C132 C 0.11794 0.57589 0.55632 0.0
C133 C 0.98995 0.5672 0.57672 0.0
C134 C 0.04088 0.63786 0.42973 0.0
C135 C 0.07242 0.62638 0.43828 0.0
C136 C 0.07443 0.59458 0.44898 0.0
C137 C 0.04421 0.57401 0.45133 0.0
C138 C 0.01262 0.58508 0.44222 0.0
C139 C 0.01151 0.61674 0.43129 0.0
C140 C 0.10888 0.58299 0.4578 0.0
C141 C 0.97998 0.56371 0.44429 0.0
C142 C 0.08222 0.30553 0.44698 0.0
C143 C 0.0642 0.31981 0.42716 0.0
C144 C 0.07223 0.38239 0.42981 0.0
C145 C 0.09975 0.40479 0.43428 0.0
C146 C 0.09393 0.43679 0.44446 0.0
C147 C 0.0596 0.44672 0.44989 0.0
C148 C 0.03146 0.4251 0.44421 0.0
C149 C 0.03805 0.39312 0.43418 0.0
C150 C 0.1245 0.45953 0.45 0.0
C151 C 0.9945 0.43548 0.44921 0.0
C152 C 0.05797 0.47705 0.55301 0.0
C153 C 0.05586 0.50834 0.56426 0.0
C154 C 0.05114 0.53976 0.55373 0.0
C155 C 0.0477 0.54015 0.53131 0.0
C156 C 0.04243 0.57129 0.52025 0.0
C157 C 0.04099 0.57162 0.49807 0.0
C158 C 0.04506 0.54086 0.48612 0.0
C159 C 0.04568 0.54117 0.46354 0.0
C160 C 0.04977 0.5101 0.45218 0.0
C161 C 0.05343 0.47853 0.46278 0.0
C162 C 0.05291 0.47768 0.48534 0.0
C163 C 0.05664 0.44634 0.4965 0.0
C164 C 0.05751 0.44594 0.51868 0.0
C165 C 0.0551 0.47688 0.53054 0.0
C166 C 0.05025 0.50864 0.51965 0.0
C167 C 0.04908 0.50902 0.49702 0.0
C168 C 0.03175 0.71643 0.44355 0.0
C169 C 0.05321 0.69973 0.42559 0.0
O170 O 0.09056 0.36795 0.60879 0.0
O171 O 0.07956 0.35082 0.42119 0.0
O172 O 0.03799 0.66864 0.41945 0.0
O173 O 0.06285 0.65911 0.6062 0.0
H174 H 0.05606 0.38412 0.63209 0.0
H175 H 0.10956 0.41829 0.63585 0.0
H176 H 0.13475 0.37967 0.64036 0.0
H177 H 0.10181 0.39299 0.65947 0.0
H178 H 0.02678 0.3895 0.60032 0.0
H179 H 0.1344 0.39801 0.58355 0.0
H180 H 0.99796 0.46582 0.58233 0.0
H181 H 0.98325 0.42143 0.58269 0.0
H182 H 0.99455 0.44208 0.55776 0.0
H183 H 0.15543 0.43986 0.5595 0.0
H184 H 0.13007 0.4792 0.55905 0.0
H185 H 0.12572 0.44792 0.53801 0.0
H186 H 0.11537 0.66435 0.6139 0.0
H187 H 0.10185 0.70871 0.63635 0.0
H188 H 0.0602 0.7081 0.63004 0.0
H189 H 0.09459 0.75141 0.5994 0.0
H190 H 0.11421 0.6313 0.58237 0.0
H191 H 0.00667 0.62402 0.60034 0.0
H192 H 0.11336 0.57701 0.53888 0.0
H193 H 0.12277 0.54837 0.56047 0.0
H194 H 0.1416 0.59121 0.56001 0.0
H195 H 0.96934 0.58177 0.58543 0.0
H196 H 0.99173 0.54074 0.58353 0.0
H197 H 0.98233 0.56437 0.55974 0.0
H198 H 0.0799 0.69534 0.43157 0.0
H199 H 0.09573 0.64169 0.43631 0.0
H200 H 0.98743 0.62557 0.42432 0.0
H201 H 0.10768 0.58339 0.4755 0.0
H202 H 0.13063 0.59993 0.45258 0.0
H203 H 0.11453 0.55593 0.4527 0.0
H204 H 0.95707 0.57681 0.43729 0.0
H205 H 0.97451 0.55837 0.46138 0.0
H206 H 0.98373 0.53835 0.43611 0.0
H207 H 0.03645 0.3237 0.43147 0.0
H208 H 0.07099 0.27998 0.4514 0.0
H209 H 0.07835 0.32366 0.46063 0.0
H210 H 0.11057 0.30251 0.44416 0.0
H211 H 0.12597 0.39655 0.43043 0.0
H212 H 0.01642 0.37679 0.4297 0.0
H213 H 0.12581 0.46301 0.46757 0.0
H214 H 0.12106 0.4856 0.44289 0.0
H215 H 0.14951 0.44846 0.44423 0.0
H216 H 0.97535 0.41695 0.44246 0.0
H217 H 0.98924 0.46173 0.44278 0.0
H218 H 0.99071 0.43678 0.46677 0.0
H219 H 0.05916 0.50839 0.58145 0.0
H220 H 0.03964 0.59578 0.52863 0.0
H221 H 0.03712 0.59639 0.4904 0.0
H222 H 0.05079 0.51056 0.43488 0.0
H223 H 0.05921 0.42175 0.48821 0.0
H224 H 0.06064 0.42112 0.52643 0.0
H225 H 0.04358 0.74144 0.44858 0.0
H226 H 0.03099 0.69901 0.4576 0.0
H227 H 0.00471 0.72119 0.43824 0.0
Li228 Li 0.06967 0.04139 0.26491 0.0
Li229 Li 0.06631 0.97762 0.264 0.0
Li230 Li 0.09732 0.01045 0.23627 0.0
Li231 Li 0.03397 0.0112 0.23821 0.0
C232 C 0.12671 0.01915 0.28383 0.0
N233 N 0.16199 0.045 0.31872 0.0
C234 C 0.12635 0.00109 0.3031 0.0
C235 C 0.14524 0.05024 0.28226 0.0
C236 C 0.14433 0.01461 0.32056 0.0
C237 C 0.16281 0.06293 0.3001 0.0
C238 C 0.9945 0.0148 0.27367 0.0
C239 C 0.93647 0.99132 0.27404 0.0
N240 N 0.92399 0.02274 0.28041 0.0
C241 C 0.98115 0.04681 0.28034 0.0
C242 C 0.97206 0.98675 0.27062 0.0
C243 C 0.9454 0.05031 0.28363 0.0
C244 C 0.07299 0.11286 0.27629 0.0
N245 N 0.07089 0.07996 0.28385 0.0
C246 C 0.07043 0.10066 0.31983 0.0
C247 C 0.06905 0.07345 0.30512 0.0
C248 C 0.07284 0.13491 0.31252 0.0
C249 C 0.07383 0.14096 0.29046 0.0
H250 H 0.07387 0.11727 0.25928 0.0
H251 H 0.06662 0.04703 0.31062 0.0
C252 C 0.08842 0.91128 0.27932 0.0
N253 N 0.06524 0.93763 0.28177 0.0
C254 C 0.08733 0.88277 0.29299 0.0
C255 C 0.03953 0.90976 0.31193 0.0
C256 C 0.04127 0.93745 0.29777 0.0
C257 C 0.06265 0.88176 0.30964 0.0
H258 H 0.10797 0.91252 0.26691 0.0
H259 H 0.02388 0.9592 0.29983 0.0
C260 C 0.0795 0.06673 0.21671 0.0
N261 N 0.10945 0.09541 0.18075 0.0
C262 C 0.06558 0.0599 0.19659 0.0
C263 C 0.10854 0.08825 0.21858 0.0
C264 C 0.08112 0.07465 0.17859 0.0
C265 C 0.12335 0.10245 0.20019 0.0
C266 C 0.06549 0.93625 0.2296 0.0
C267 C 0.09638 0.9201 0.2232 0.0
C268 C 0.03592 0.9162 0.2335 0.0
C269 C 0.09717 0.88404 0.22089 0.0
C270 C 0.03779 0.88021 0.23106 0.0
N271 N 0.06812 0.86501 0.22486 0.0
C272 C 0.16748 0.02016 0.22422 0.0
C273 C 0.13162 0.99732 0.19695 0.0
C274 C 0.19652 0.0182 0.21086 0.0
N275 N 0.13594 0.00953 0.21716 0.0
C276 C 0.16009 0.99448 0.18311 0.0
C277 C 0.19311 0.00471 0.19012 0.0
H278 H 0.17024 0.02952 0.24037 0.0
H279 H 0.10617 0.98909 0.19177 0.0
C280 C 0.97121 0.04169 0.22541 0.0
N281 N 0.99216 0.0137 0.22239 0.0
C282 C 0.93955 0.04385 0.21484 0.0
C283 C 0.95257 0.98937 0.19722 0.0
C284 C 0.98376 0.98798 0.20843 0.0
C285 C 0.92986 0.01737 0.20062 0.0
H286 H 0.97902 0.06222 0.23617 0.0
H287 H 0.00123 0.96637 0.20601 0.0
O288 O 0.10892 0.00653 0.26663 0.0
O289 O 0.02939 0.01093 0.27019 0.0
O290 O 0.0652 0.05184 0.23445 0.0
O291 O 0.06418 0.97151 0.23196 0.0
H292 H 0.11223 0.97698 0.30461 0.0
H293 H 0.14541 0.06484 0.26758 0.0
H294 H 0.14418 0.00096 0.33559 0.0
H295 H 0.17695 0.08713 0.29917 0.0
H296 H 0.91878 0.96988 0.27163 0.0
H297 H 0.99815 0.0688 0.28277 0.0
H298 H 0.98201 0.96177 0.26557 0.0
H299 H 0.93467 0.07497 0.28869 0.0
H300 H 0.06904 0.09505 0.33673 0.0
H301 H 0.07563 0.16708 0.28427 0.0
H302 H 0.10562 0.8618 0.2905 0.0
H303 H 0.02073 0.91076 0.32485 0.0
H304 H 0.04323 0.04313 0.19487 0.0
H305 H 0.11978 0.09354 0.23403 0.0
H306 H 0.07072 0.0695 0.1629 0.0
H307 H 0.14596 0.11898 0.20137 0.0
H308 H 0.1196 0.93515 0.22028 0.0
H309 H 0.01182 0.92827 0.23845 0.0
H310 H 0.12092 0.87118 0.21602 0.0
H311 H 0.01514 0.86436 0.23411 0.0
H312 H 0.22162 0.02591 0.21696 0.0
H313 H 0.15642 0.98407 0.16719 0.0
H314 H 0.92295 0.06612 0.21761 0.0
H315 H 0.94596 0.96849 0.18635 0.0
Li316 Li 0.02418 0.00165 0.76952 0.0
Li317 Li 0.08782 0.99781 0.76952 0.0
Li318 Li 0.05668 0.03552 0.74276 0.0
Li319 Li 0.05682 0.97215 0.73931 0.0
C320 C 0.04726 0.06446 0.78825 0.0
N321 N 0.0247 0.11526 0.81638 0.0
C322 C 0.06062 0.0661 0.80891 0.0
C323 C 0.02288 0.08901 0.78179 0.0
C324 C 0.04875 0.09186 0.82293 0.0
C325 C 0.01169 0.1144 0.79627 0.0
C326 C 0.06536 0.93295 0.78251 0.0
C327 C 0.10469 0.88543 0.78862 0.0
N328 N 0.08983 0.88037 0.80811 0.0
C329 C 0.05021 0.92702 0.80249 0.0
C330 C 0.09258 0.91178 0.77542 0.0
C331 C 0.06306 0.90041 0.81524 0.0
C332 C 0.95237 0.99455 0.78046 0.0
N333 N 0.98482 0.00081 0.78796 0.0
C334 C 0.96292 0.00708 0.82351 0.0
C335 C 0.99055 0.00643 0.80905 0.0
C336 C 0.92894 0.0013 0.81627 0.0
C337 C 0.92386 0.99476 0.79441 0.0
H338 H 0.94861 0.98935 0.76367 0.0
H339 H 0.01671 0.0103 0.81469 0.0
C340 C 0.159 0.00318 0.78023 0.0
N341 N 0.12693 0.9946 0.78771 0.0
C342 C 0.18782 0.00127 0.79359 0.0
C343 C 0.14995 0.98198 0.82208 0.0
C344 C 0.12188 0.98465 0.80826 0.0
C345 C 0.18345 0.99033 0.81478 0.0
H346 H 0.16218 0.01174 0.76395 0.0
H347 H 0.09597 0.97925 0.81403 0.0
C348 C 0.9908 0.01822 0.72599 0.0
N349 N 0.93926 0.04693 0.70125 0.0
C350 C 0.98576 0.00651 0.70509 0.0
C351 C 0.96928 0.04414 0.73441 0.0
C352 C 0.95967 0.02147 0.69281 0.0
C353 C 0.94346 0.05843 0.72163 0.0
C354 C 0.12131 0.99411 0.72389 0.0
C355 C 0.12442 0.01171 0.70454 0.0
C356 C 0.14329 0.96618 0.72809 0.0
C357 C 0.14901 0.00057 0.6895 0.0
C358 C 0.16756 0.95583 0.71266 0.0
N359 N 0.16986 0.97307 0.69383 0.0
C360 C 0.07392 0.10569 0.73662 0.0
C361 C 0.04742 0.07877 0.70679 0.0
C362 C 0.07683 0.13689 0.72556 0.0
N363 N 0.05909 0.07758 0.72719 0.0
C364 C 0.04951 0.10949 0.69521 0.0
C365 C 0.06437 0.13905 0.7046 0.0
H366 H 0.08363 0.10382 0.75272 0.0
H367 H 0.03704 0.05573 0.69935 0.0
C368 C 0.05043 0.90245 0.72472 0.0
N369 N 0.05701 0.9357 0.71883 0.0
C370 C 0.05287 0.87558 0.70971 0.0
C371 C 0.06799 0.91788 0.68287 0.0
C372 C 0.06471 0.94389 0.69828 0.0
C373 C 0.06244 0.88321 0.6886 0.0
H374 H 0.04372 0.89673 0.7411 0.0
H375 H 0.0686 0.97065 0.69388 0.0
O376 O 0.05867 0.03941 0.77432 0.0
O377 O 0.05321 0.95902 0.76986 0.0
O378 O 0.01625 0.00383 0.73822 0.0
O379 O 0.09729 0.00462 0.73876 0.0
H380 H 0.07978 0.04753 0.81411 0.0
H381 H 0.01301 0.08874 0.76571 0.0
H382 H 0.05868 0.09329 0.83901 0.0
H383 H 0.99277 0.13351 0.79148 0.0
H384 H 0.12582 0.86893 0.78335 0.0
H385 H 0.02888 0.94289 0.80814 0.0
H386 H 0.10407 0.91549 0.75983 0.0
H387 H 0.05173 0.89569 0.83079 0.0
H388 H 0.96816 0.01259 0.84013 0.0
H389 H 0.89823 0.98957 0.78817 0.0
H390 H 0.21325 0.00801 0.7874 0.0
H391 H 0.1454 0.97419 0.83844 0.0
H392 H 0.00194 0.98622 0.69839 0.0
H393 H 0.9722 0.05287 0.7507 0.0
H394 H 0.95562 0.01281 0.67656 0.0
H395 H 0.92667 0.07856 0.72794 0.0
H396 H 0.10783 0.03358 0.7011 0.0
H397 H 0.14183 0.95281 0.74316 0.0
H398 H 0.15152 0.0138 0.6744 0.0
H399 H 0.18465 0.93418 0.71568 0.0
H400 H 0.08837 0.15915 0.73338 0.0
H401 H 0.04023 0.10993 0.67894 0.0
H402 H 0.04836 0.84909 0.71467 0.0
H403 H 0.0748 0.92478 0.66664 0.0
H404 H 0.36044 0.92312 0.10912 0.0
H405 H 0.40825 0.98531 0.15826 0.0
H406 H 0.30332 0.94376 0.12047 0.0
H407 H 0.35126 0.00478 0.17032 0.0
H408 H 0.24638 0.04992 0.18243 0.0
H409 H 0.30087 0.03802 0.16364 0.0
H410 H 0.26523 0.93406 0.14956 0.0
H411 H 0.21058 0.94649 0.16773 0.0
C412 C 0.35874 0.94165 0.12213 0.0
C413 C 0.38884 0.9531 0.13259 0.0
C414 C 0.32599 0.9532 0.12881 0.0
C415 C 0.32255 0.9759 0.14637 0.0
C416 C 0.3528 0.98787 0.15649 0.0
C417 C 0.38551 0.9766 0.14968 0.0
C418 C 0.25015 0.0247 0.17506 0.0
C419 C 0.22436 0.99907 0.17662 0.0
C420 C 0.28139 0.0178 0.16437 0.0
C421 C 0.2877 0.98494 0.15523 0.0
C422 C 0.26121 0.95982 0.15609 0.0
C423 C 0.22985 0.96688 0.16657 0.0
H424 H 0.02775 0.34393 0.65412 0.0
H425 H 0.12792 0.31635 0.62773 0.0
H426 H 0.02371 0.28721 0.67106 0.0
H427 H 0.1239 0.25944 0.6447 0.0
H428 H 0.12029 0.18232 0.70142 0.0
H429 H 0.12412 0.23719 0.68224 0.0
H430 H 0.01832 0.2245 0.66118 0.0
H431 H 0.01434 0.16986 0.68062 0.0
C432 C 0.04872 0.32556 0.65177 0.0
C433 C 0.07806 0.33443 0.63953 0.0
C434 C 0.04637 0.29309 0.66141 0.0
C435 C 0.07348 0.26893 0.65918 0.0
C436 C 0.10275 0.27768 0.64682 0.0
C437 C 0.10498 0.31009 0.63704 0.0
C438 C 0.09785 0.19135 0.69275 0.0
C439 C 0.06698 0.17192 0.69257 0.0
C440 C 0.10015 0.22254 0.6816 0.0
C441 C 0.07151 0.23509 0.67022 0.0
C442 C 0.04071 0.21556 0.66995 0.0
C443 C 0.03852 0.18421 0.68093 0.0
H444 H 0.71368 2e-05 0.1631 0.0
H445 H 0.76024 0.06692 0.11587 0.0
H446 H 0.7702 0.99303 0.18008 0.0
H447 H 0.81682 0.05958 0.13271 0.0
H448 H 0.91729 0.00772 0.15816 0.0
H449 H 0.86132 0.01127 0.13993 0.0
H450 H 0.81055 0.03401 0.20005 0.0
H451 H 0.86638 0.03049 0.21822 0.0
C452 C 0.73612 0.01276 0.15618 0.0
C453 C 0.73268 0.03337 0.13791 0.0
C454 C 0.76835 0.00896 0.16596 0.0
C455 C 0.79785 0.02566 0.15764 0.0
C456 C 0.79456 0.04602 0.13926 0.0
C457 C 0.76222 0.05017 0.12962 0.0
C458 C 0.89409 0.01329 0.16744 0.0
C459 C 0.89608 0.01892 0.18956 0.0
C460 C 0.86219 0.01553 0.15701 0.0
C461 C 0.83167 0.02287 0.1686 0.0
C462 C 0.83365 0.02805 0.19077 0.0
C463 C 0.86557 0.02631 0.20112 0.0
H464 H 0.03218 0.7135 0.58311 0.0
H465 H 0.16202 0.71275 0.60188 0.0
H466 H 0.02256 0.77005 0.61321 0.0
H467 H 0.14923 0.76917 0.63132 0.0
H468 H 0.1183 0.87373 0.66255 0.0
H469 H 0.12753 0.82785 0.63613 0.0
H470 H 0.02792 0.78349 0.65243 0.0
H471 H 0.01865 0.82965 0.67895 0.0
C472 C 0.054 0.72481 0.5914 0.0
C473 C 0.09723 0.70315 0.59225 0.0
C474 C 0.04805 0.75884 0.6109 0.0
C475 C 0.08428 0.77443 0.62646 0.0
C476 C 0.12799 0.75858 0.62217 0.0
C477 C 0.1366 0.72455 0.60313 0.0
C478 C 0.09836 0.85421 0.66042 0.0
C479 C 0.06775 0.85518 0.67271 0.0
C480 C 0.10377 0.82778 0.64546 0.0
C481 C 0.07846 0.80214 0.64231 0.0
C482 C 0.0477 0.80318 0.65445 0.0
C483 C 0.04251 0.82935 0.6697 0.0
H484 H 0.32883 0.03733 0.91469 0.0
H485 H 0.3547 0.93162 0.89798 0.0
H486 H 0.28604 0.0386 0.88616 0.0
H487 H 0.31181 0.93286 0.86934 0.0
H488 H 0.19966 0.93788 0.84195 0.0
H489 H 0.24695 0.93605 0.86768 0.0
H490 H 0.28221 0.03644 0.84632 0.0
H491 H 0.2346 0.03843 0.82074 0.0
C492 C 0.3256 0.0145 0.90474 0.0
C493 C 0.34517 0.98442 0.90848 0.0
C494 C 0.30123 0.01526 0.88837 0.0
C495 C 0.29563 0.98584 0.87552 0.0
C496 C 0.31541 0.95583 0.87911 0.0
C497 C 0.34 0.95515 0.8954 0.0
C498 C 0.21758 0.9595 0.84274 0.0
C499 C 0.2134 0.98836 0.82942 0.0
C500 C 0.24481 0.95832 0.85732 0.0
C501 C 0.26823 0.98613 0.85902 0.0
C502 C 0.26438 0.01475 0.84545 0.0
C503 C 0.23734 0.01577 0.83072 0.0
H504 H 0.01098 0.28527 0.40738 0.0
H505 H 0.12249 0.2969 0.40557 0.0
H506 H 0.01449 0.24254 0.37852 0.0
H507 H 0.12601 0.25369 0.37682 0.0
H508 H 0.11405 0.1418 0.34744 0.0
H509 H 0.11311 0.18843 0.37411 0.0
H510 H 0.0322 0.24011 0.33911 0.0
H511 H 0.03321 0.19348 0.31242 0.0
C512 C 0.03622 0.27876 0.40075 0.0
C513 C 0.06648 0.29422 0.40881 0.0
C514 C 0.0382 0.25445 0.38419 0.0
C515 C 0.07051 0.24484 0.37549 0.0
C516 C 0.1008 0.26047 0.38339 0.0
C517 C 0.09879 0.28514 0.39979 0.0
C518 C 0.0962 0.16324 0.34545 0.0
C519 C 0.07363 0.16408 0.32795 0.0
C520 C 0.09584 0.18998 0.36058 0.0
C521 C 0.07253 0.21778 0.35866 0.0
C522 C 0.05027 0.21884 0.34101 0.0
C523 C 0.051 0.19235 0.3257 0.0
H524 H 0.76335 0.08134 0.8956 0.0
H525 H 0.78358 0.9813 0.92338 0.0
H526 H 0.80436 0.06843 0.86681 0.0
H527 H 0.82354 0.96762 0.89416 0.0
H528 H 0.9263 0.97714 0.85723 0.0
H529 H 0.88008 0.98478 0.88335 0.0
H530 H 0.81686 0.03447 0.83573 0.0
H531 H 0.8641 0.0287 0.80987 0.0
C532 C 0.7762 0.05636 0.89531 0.0
C533 C 0.77051 0.03243 0.91179 0.0
C534 C 0.7995 0.0488 0.87874 0.0
C535 C 0.81746 0.01702 0.87819 0.0
C536 C 0.81067 0.99258 0.89428 0.0
C537 C 0.7876 0.00028 0.91094 0.0
C538 C 0.90264 0.98988 0.85233 0.0
C539 C 0.89917 0.00273 0.83151 0.0
C540 C 0.87584 0.9938 0.86725 0.0
C541 C 0.8447 0.01037 0.86171 0.0
C542 C 0.84069 0.02205 0.84065 0.0
C543 C 0.86763 0.01834 0.82573 0.0
H544 H 0.10253 0.74902 0.41777 0.0
H545 H 0.00797 0.70675 0.39177 0.0
H546 H 0.10503 0.7912 0.389 0.0
H547 H 0.01116 0.74782 0.36241 0.0
H548 H 0.00537 0.852 0.32827 0.0
H549 H 0.0037 0.80743 0.35545 0.0
H550 H 0.11547 0.79848 0.35199 0.0
H551 H 0.11735 0.84484 0.32588 0.0
C552 C 0.08267 0.74835 0.40562 0.0
C553 C 0.05552 0.72409 0.40677 0.0
C554 C 0.08416 0.77239 0.38906 0.0
C555 C 0.05846 0.77282 0.37322 0.0
C556 C 0.03126 0.74849 0.37439 0.0
C557 C 0.02962 0.72465 0.39109 0.0
C558 C 0.02967 0.84081 0.33343 0.0
C559 C 0.06152 0.85238 0.32496 0.0
C560 C 0.02866 0.81478 0.34883 0.0
C561 C 0.05946 0.79932 0.35602 0.0
C562 C 0.09126 0.81017 0.34711 0.0
C563 C 0.09229 0.83646 0.33185 0.0
loop_
_geom_bond_atom_site_label_1
_geom_bond_atom_site_label_2
_geom_bond_distance
_geom_bond_site_symmetry_2
_ccdc_geom_bond_type
C0 C1 1.560 . S
C0 H61 0.959 . S
C0 H62 0.959 . S
C0 H63 0.960 . S
C1 C0 1.560 . S
C1 O56 1.426 . S
C1 H60 0.980 . S
C2 C3 1.407 1_545 S
C2 C7 1.418 . S
C2 O56 1.334 . S
C3 C2 1.407 1_565 S
C3 C4 1.360 . S
C3 H64 0.929 . S
C4 C3 1.360 . S
C4 C5 1.401 1_565 S
C4 C8 1.527 . S
C5 C4 1.401 1_545 S
C5 C6 1.405 . S
C5 C38 1.587 1_545 S
C6 C5 1.405 . S
C6 C7 1.332 . S
C6 C9 1.496 . S
C7 C2 1.418 . S
C7 C6 1.332 . S
C7 H65 0.929 . S
C8 C4 1.527 . S
C8 H66 0.959 . S
C8 H67 0.961 . S
C8 H68 0.961 . S
C9 C6 1.496 . S
C9 H69 0.960 . S
C9 H70 0.960 . S
C9 H71 0.961 . S
C10 C11 1.517 . S
C10 H73 0.961 . S
C10 H74 0.960 . S
C10 H75 0.959 . S
C11 C10 1.517 . S
C11 O59 1.468 . S
C11 H72 0.980 1_565 S
C12 C13 1.349 . S
C12 C17 1.367 . S
C12 O59 1.408 . S
C13 C12 1.349 . S
C13 C14 1.407 1_565 S
C13 H76 0.930 1_565 S
C14 C13 1.407 1_545 S
C14 C15 1.449 1_545 S
C14 C18 1.535 . S
C15 C14 1.449 1_565 S
C15 C16 1.384 . S
C15 C40 1.553 . S
C16 C15 1.384 . S
C16 C17 1.364 . S
C16 C19 1.450 . S
C17 C12 1.367 . S
C17 C16 1.364 . S
C17 H77 0.931 . S
C18 C14 1.535 . S
C18 H78 0.959 . S
C18 H79 0.961 . S
C18 H80 0.959 . S
C19 C16 1.450 . S
C19 H81 0.960 . S
C19 H82 0.960 . S
C19 H83 0.960 . S
C20 C21 1.309 1_565 S
C20 C25 1.304 . S
C20 O58 1.435 . S
C21 C20 1.309 1_545 S
C21 C22 1.476 . S
C21 H85 0.930 . S
C22 C21 1.476 . S
C22 C23 1.400 1_545 S
C22 C26 1.567 . S
C23 C22 1.400 1_565 S
C23 C24 1.373 . S
C23 C45 1.432 . S
C24 C23 1.373 . S
C24 C25 1.339 . S
C24 C27 1.530 . S
C25 C20 1.304 . S
C25 C24 1.339 . S
C25 H86 0.930 . S
C26 C22 1.567 . S
C26 H87 0.961 . S
C26 H88 0.960 . S
C26 H89 0.958 . S
C27 C24 1.530 . S
C27 H90 0.961 . S
C27 H91 0.960 . S
C27 H92 0.960 . S
C28 C29 1.530 . S
C28 H94 0.961 . S
C28 H95 0.961 . S
C28 H96 0.959 . S
C29 C28 1.530 . S
C29 O57 1.412 . S
C29 H93 0.996 . S
C30 C31 1.288 . S
C30 C35 1.377 1_545 S
C30 O57 1.393 . S
C31 C30 1.288 . S
C31 C32 1.369 . S
C31 H97 0.932 . S
C32 C31 1.369 . S
C32 C33 1.398 . S
C32 C36 1.527 . S
C33 C32 1.398 . S
C33 C34 1.380 1_545 S
C33 C47 1.493 1_545 S
C34 C33 1.380 1_565 S
C34 C35 1.383 . S
C34 C37 1.603 . S
C35 C30 1.377 1_565 S
C35 C34 1.383 . S
C35 H98 0.929 . S
C36 C32 1.527 . S
C36 H99 0.961 . S
C36 H100 0.959 . S
C36 H101 0.959 . S
C37 C34 1.603 . S
C37 H102 0.960 . S
C37 H103 0.962 . S
C37 H104 0.961 . S
C38 C5 1.587 1_565 S
C38 C39 1.360 . S
C38 C51 1.412 . S
C39 C38 1.360 . S
C39 C40 1.365 . S
C39 H105 0.929 . S
C40 C15 1.553 . S
C40 C39 1.365 . S
C40 C41 1.404 . S
C41 C40 1.404 . S
C41 C42 1.395 . S
C41 C52 1.451 . S
C42 C41 1.395 . S
C42 C43 1.322 . S
C42 H106 0.930 . S
C43 C42 1.322 . S
C43 C44 1.459 1_554 S
C43 H107 0.929 1_554 S
C44 C43 1.459 1_556 S
C44 C45 1.445 . S
C44 C53 1.395 1_556 S
C45 C23 1.432 . S
C45 C44 1.445 . S
C45 C46 1.370 . S
C46 C45 1.370 . S
C46 C47 1.440 . S
C46 H108 0.930 . S
C47 C33 1.493 1_565 S
C47 C46 1.440 . S
C47 C48 1.362 . S
C48 C47 1.362 . S
C48 C49 1.400 1_566 S
C48 C53 1.446 1_556 S
C49 C48 1.400 1_544 S
C49 C50 1.346 1_545 S
C49 H109 0.931 1_554 S
C50 C49 1.346 1_565 S
C50 C51 1.455 . S
C50 H110 0.930 1_565 S
C51 C38 1.412 . S
C51 C50 1.455 . S
C51 C52 1.331 . S
C52 C41 1.451 . S
C52 C51 1.331 . S
C52 C53 1.497 . S
C53 C44 1.395 1_554 S
C53 C48 1.446 1_554 S
C53 C52 1.497 . S
C54 C55 1.582 . S
C54 H111 0.962 . S
C54 H112 0.959 . S
C54 H113 0.958 . S
C55 C54 1.582 . S
C55 O58 1.458 . S
C55 H84 0.980 1_565 S
O56 C1 1.426 . S
O56 C2 1.334 . S
O57 C29 1.412 . S
O57 C30 1.393 . S
O58 C20 1.435 . S
O58 C55 1.458 . S
O59 C11 1.468 . S
O59 C12 1.408 . S
H60 C1 0.980 . S
H61 C0 0.959 . S
H62 C0 0.959 . S
H63 C0 0.960 . S
H64 C3 0.929 . S
H65 C7 0.929 . S
H66 C8 0.959 . S
H67 C8 0.961 . S
H68 C8 0.961 . S
H69 C9 0.960 . S
H70 C9 0.960 . S
H71 C9 0.961 . S
H72 C11 0.980 1_545 S
H73 C10 0.961 . S
H74 C10 0.960 . S
H75 C10 0.959 . S
H76 C13 0.930 1_545 S
H77 C17 0.931 . S
H78 C18 0.959 . S
H79 C18 0.961 . S
H80 C18 0.959 . S
H81 C19 0.960 . S
H82 C19 0.960 . S
H83 C19 0.960 . S
H84 C55 0.980 1_545 S
H85 C21 0.930 . S
H86 C25 0.930 . S
H87 C26 0.961 . S
H88 C26 0.960 . S
H89 C26 0.958 . S
H90 C27 0.961 . S
H91 C27 0.960 . S
H92 C27 0.960 . S
H93 C29 0.996 . S
H94 C28 0.961 . S
H95 C28 0.961 . S
H96 C28 0.959 . S
H97 C31 0.932 . S
H98 C35 0.929 . S
H99 C36 0.961 . S
H100 C36 0.959 . S
H101 C36 0.959 . S
H102 C37 0.960 . S
H103 C37 0.962 . S
H104 C37 0.961 . S
H105 C39 0.929 . S
H106 C42 0.930 . S
H107 C43 0.929 1_556 S
H108 C46 0.930 . S
H109 C49 0.931 1_556 S
H110 C50 0.930 1_545 S
H111 C54 0.962 . S
H112 C54 0.959 . S
H113 C54 0.958 . S
C114 C115 1.560 . S
C114 H175 0.959 . S
C114 H176 0.959 . S
C114 H177 0.960 . S
C115 C114 1.560 . S
C115 O170 1.426 . S
C115 H174 0.980 . S
C116 C117 1.407 . S
C116 C121 1.418 . S
C116 O170 1.334 . S
C117 C116 1.407 . S
C117 C118 1.360 . S
C117 H178 0.929 . S
C118 C117 1.360 . S
C118 C119 1.401 . S
C118 C122 1.554 . S
C119 C118 1.401 . S
C119 C120 1.405 . S
C119 C152 1.587 . S
C120 C119 1.405 . S
C120 C121 1.332 . S
C120 C123 1.496 . S
C121 C116 1.418 . S
C121 C120 1.332 . S
C121 H179 0.929 . S
C122 C118 1.554 . S
C122 H180 0.954 1_455 S
C122 H181 0.947 1_455 S
C122 H182 0.955 1_455 S
C123 C120 1.496 . S
C123 H183 0.960 . S
C123 H184 0.960 . S
C123 H185 0.961 . S
C124 C125 1.517 . S
C124 H187 0.961 . S
C124 H188 0.960 . S
C124 H189 0.959 . S
C125 C124 1.517 . S
C125 O173 1.468 . S
C125 H186 0.980 . S
C126 C127 1.349 . S
C126 C131 1.367 1_455 S
C126 O173 1.408 . S
C127 C126 1.349 . S
C127 C128 1.407 . S
C127 H190 0.930 . S
C128 C127 1.407 . S
C128 C129 1.449 . S
C128 C132 1.535 . S
C129 C128 1.449 . S
C129 C130 1.384 1_455 S
C129 C154 1.553 . S
C130 C129 1.384 1_655 S
C130 C131 1.364 . S
C130 C133 1.450 . S
C131 C126 1.367 1_655 S
C131 C130 1.364 . S
C131 H191 0.931 . S
C132 C128 1.535 . S
C132 H192 0.959 . S
C132 H193 0.961 . S
C132 H194 0.959 . S
C133 C130 1.450 . S
C133 H195 0.960 . S
C133 H196 0.960 . S
C133 H197 0.960 . S
C134 C135 1.309 . S
C134 C139 1.304 . S
C134 O172 1.435 . S
C135 C134 1.309 . S
C135 C136 1.476 . S
C135 H199 0.930 . S
C136 C135 1.476 . S
C136 C137 1.400 . S
C136 C140 1.567 . S
C137 C136 1.400 . S
C137 C138 1.373 . S
C137 C159 1.432 . S
C138 C137 1.373 . S
C138 C139 1.339 . S
C138 C141 1.530 1_455 S
C139 C134 1.304 . S
C139 C138 1.339 . S
C139 H200 0.930 1_455 S
C140 C136 1.567 . S
C140 H201 0.961 . S
C140 H202 0.960 . S
C140 H203 0.958 . S
C141 C138 1.530 1_655 S
C141 H204 0.961 . S
C141 H205 0.960 . S
C141 H206 0.960 . S
C142 C143 1.530 . S
C142 H208 0.961 . S
C142 H209 0.961 . S
C142 H210 0.959 . S
C143 C142 1.530 . S
C143 O171 1.412 . S
C143 H207 0.980 . S
C144 C145 1.288 . S
C144 C149 1.377 . S
C144 O171 1.393 . S
C145 C144 1.288 . S
C145 C146 1.369 . S
C145 H211 0.932 . S
C146 C145 1.369 . S
C146 C147 1.398 . S
C146 C150 1.527 . S
C147 C146 1.398 . S
C147 C148 1.380 . S
C147 C161 1.497 . S
C148 C147 1.380 . S
C148 C149 1.383 . S
C148 C151 1.603 . S
C149 C144 1.377 . S
C149 C148 1.383 . S
C149 H212 0.929 . S
C150 C146 1.527 . S
C150 H213 0.961 . S
C150 H214 0.959 . S
C150 H215 0.959 . S
C151 C148 1.603 . S
C151 H216 0.960 1_455 S
C151 H217 0.960 1_455 S
C151 H218 0.961 1_455 S
C152 C119 1.587 . S
C152 C153 1.360 . S
C152 C165 1.412 . S
C153 C152 1.360 . S
C153 C154 1.365 . S
C153 H219 0.929 . S
C154 C129 1.553 . S
C154 C153 1.365 . S
C154 C155 1.404 . S
C155 C154 1.404 . S
C155 C156 1.395 . S
C155 C166 1.451 . S
C156 C155 1.395 . S
C156 C157 1.322 . S
C156 H220 0.930 . S
C157 C156 1.322 . S
C157 C158 1.459 . S
C157 H221 0.929 . S
C158 C157 1.459 . S
C158 C159 1.445 . S
C158 C167 1.395 . S
C159 C137 1.432 . S
C159 C158 1.445 . S
C159 C160 1.370 . S
C160 C159 1.370 . S
C160 C161 1.438 . S
C160 H222 0.930 . S
C161 C147 1.497 . S
C161 C160 1.438 . S
C161 C162 1.360 . S
C162 C161 1.360 . S
C162 C163 1.401 . S
C162 C167 1.446 . S
C163 C162 1.401 . S
C163 C164 1.347 . S
C163 H223 0.929 . S
C164 C163 1.347 . S
C164 C165 1.455 . S
C164 H224 0.930 . S
C165 C152 1.412 . S
C165 C164 1.455 . S
C165 C166 1.331 . S
C166 C155 1.451 . S
C166 C165 1.331 . S
C166 C167 1.497 . S
C167 C158 1.395 . S
C167 C162 1.446 . S
C167 C166 1.497 . S
C168 C169 1.582 . S
C168 H225 0.962 . S
C168 H226 0.959 . S
C168 H227 0.958 . S
C169 C168 1.582 . S
C169 O172 1.458 . S
C169 H198 0.980 . S
O170 C115 1.426 . S
O170 C116 1.334 . S
O171 C143 1.412 . S
O171 C144 1.393 . S
O172 C134 1.435 . S
O172 C169 1.458 . S
O173 C125 1.468 . S
O173 C126 1.408 . S
H174 C115 0.980 . S
H175 C114 0.959 . S
H176 C114 0.959 . S
H177 C114 0.960 . S
H178 C117 0.929 . S
H179 C121 0.929 . S
H180 C122 0.954 1_655 S
H181 C122 0.947 1_655 S
H182 C122 0.955 1_655 S
H183 C123 0.960 . S
H184 C123 0.960 . S
H185 C123 0.961 . S
H186 C125 0.980 . S
H187 C124 0.961 . S
H188 C124 0.960 . S
H189 C124 0.959 . S
H190 C127 0.930 . S
H191 C131 0.931 . S
H192 C132 0.959 . S
H193 C132 0.961 . S
H194 C132 0.959 . S
H195 C133 0.960 . S
H196 C133 0.960 . S
H197 C133 0.960 . S
H198 C169 0.980 . S
H199 C135 0.930 . S
H200 C139 0.930 1_655 S
H201 C140 0.961 . S
H202 C140 0.960 . S
H203 C140 0.958 . S
H204 C141 0.961 . S
H205 C141 0.960 . S
H206 C141 0.960 . S
H207 C143 0.980 . S
H208 C142 0.961 . S
H209 C142 0.961 . S
H210 C142 0.959 . S
H211 C145 0.932 . S
H212 C149 0.929 . S
H213 C150 0.961 . S
H214 C150 0.959 . S
H215 C150 0.959 . S
H216 C151 0.960 1_655 S
H217 C151 0.960 1_655 S
H218 C151 0.961 1_655 S
H219 C153 0.929 . S
H220 C156 0.930 . S
H221 C157 0.929 . S
H222 C160 0.930 . S
H223 C163 0.929 . S
H224 C164 0.930 . S
H225 C168 0.962 . S
H226 C168 0.959 . S
H227 C168 0.958 . S
Li228 N245 1.990 . S
Li228 O288 1.956 . S
Li228 O289 1.970 . S
Li228 O290 1.961 . S
Li229 N253 1.990 . S
Li229 O288 1.970 1_565 S
Li229 O289 1.956 1_565 S
Li229 O291 1.961 . S
Li230 N275 1.990 . S
Li230 O288 1.961 . S
Li230 O290 1.956 . S
Li230 O291 1.970 1_545 S
Li231 N281 1.990 1_455 S
Li231 O289 1.961 . S
Li231 O290 1.970 . S
Li231 O291 1.956 1_545 S
C232 C234 1.348 1_545 S
C232 C235 1.356 . S
C232 O288 1.325 . S
N233 C236 1.314 1_545 S
N233 C237 1.279 . S
C234 C232 1.348 1_565 S
C234 C236 1.353 . S
C234 H292 0.929 . S
C235 C232 1.356 . S
C235 C237 1.358 . S
C235 H293 0.930 . S
C236 N233 1.314 1_565 S
C236 C234 1.353 . S
C236 H294 0.930 . S
C237 N233 1.279 . S
C237 C235 1.358 . S
C237 H295 0.930 . S
C238 C241 1.346 1_455 S
C238 C242 1.339 1_445 S
C238 O289 1.343 . S
C239 N240 1.279 1_565 S
C239 C242 1.358 . S
C239 H296 0.930 . S
N240 C239 1.279 1_545 S
N240 C243 1.314 . S
C241 C238 1.346 1_655 S
C241 C243 1.353 . S
C241 H297 0.929 1_655 S
C242 C238 1.339 1_665 S
C242 C239 1.358 . S
C242 H298 0.930 . S
C243 N240 1.314 . S
C243 C241 1.353 . S
C243 H299 0.930 . S
C244 N245 1.314 . S
C244 C249 1.353 . S
C244 H250 0.930 . S
N245 Li228 1.990 . S
N245 C244 1.314 . S
N245 C247 1.279 . S
C246 C247 1.358 . S
C246 C248 1.356 . S
C246 H300 0.930 . S
C247 N245 1.279 . S
C247 C246 1.358 . S
C247 H251 0.930 . S
C248 C246 1.356 . S
C248 C249 1.348 . S
C249 C244 1.353 . S
C249 C248 1.348 . S
C249 H301 0.929 . S
H250 C244 0.930 . S
H251 C247 0.930 . S
C252 N253 1.314 . S
C252 C254 1.353 . S
C252 H258 0.930 . S
N253 Li229 1.990 . S
N253 C252 1.314 . S
N253 C256 1.279 . S
C254 C252 1.353 . S
C254 C257 1.348 . S
C254 H302 0.929 . S
C255 C256 1.358 . S
C255 C257 1.356 . S
C255 H303 0.930 . S
C256 N253 1.279 . S
C256 C255 1.358 . S
C256 H259 0.930 . S
C257 C254 1.348 . S
C257 C255 1.356 . S
H258 C252 0.930 . S
H259 C256 0.930 . S
C260 C262 1.348 . S
C260 C263 1.356 . S
C260 O290 1.325 . S
N261 C264 1.314 . S
N261 C265 1.279 . S
C262 C260 1.348 . S
C262 C264 1.353 . S
C262 H304 0.929 . S
C263 C260 1.356 . S
C263 C265 1.358 . S
C263 H305 0.930 . S
C264 N261 1.314 . S
C264 C262 1.353 . S
C264 H306 0.930 . S
C265 N261 1.279 . S
C265 C263 1.358 . S
C265 H307 0.930 . S
C266 C267 1.348 . S
C266 C268 1.356 . S
C266 O291 1.325 . S
C267 C266 1.348 . S
C267 C269 1.353 . S
C267 H308 0.929 . S
C268 C266 1.356 . S
C268 C270 1.358 . S
C268 H309 0.930 . S
C269 C267 1.353 . S
C269 N271 1.314 . S
C269 H310 0.930 . S
C270 C268 1.358 . S
C270 N271 1.279 . S
C270 H311 0.930 . S
N271 C269 1.314 . S
N271 C270 1.279 . S
C272 C274 1.353 . S
C272 N275 1.314 1_565 S
C272 H278 0.930 . S
C273 N275 1.279 . S
C273 C276 1.358 . S
C273 H279 0.930 . S
C274 C272 1.353 . S
C274 C277 1.348 1_565 S
C274 H312 0.929 . S
N275 Li230 1.990 . S
N275 C272 1.314 1_545 S
N275 C273 1.279 . S
C276 C273 1.358 . S
C276 C277 1.356 . S
C276 H313 0.930 . S
C277 C274 1.348 1_545 S
C277 C276 1.356 . S
H278 C272 0.930 . S
H279 C273 0.930 . S
C280 N281 1.314 . S
C280 C282 1.353 . S
C280 H286 0.930 . S
N281 Li231 1.990 1_655 S
N281 C280 1.314 . S
N281 C284 1.279 1_545 S
C282 C280 1.353 . S
C282 C285 1.348 . S
C282 H314 0.929 . S
C283 C284 1.358 . S
C283 C285 1.356 1_565 S
C283 H315 0.930 . S
C284 N281 1.279 1_565 S
C284 C283 1.358 . S
C284 H287 0.930 1_655 S
C285 C282 1.348 . S
C285 C283 1.356 1_545 S
H286 C280 0.930 . S
H287 C284 0.930 1_455 S
O288 Li228 1.956 . S
O288 Li229 1.970 1_545 S
O288 Li230 1.961 . S
O288 C232 1.325 . S
O289 Li228 1.970 . S
O289 Li229 1.956 1_545 S
O289 Li231 1.961 . S
O289 C238 1.343 . S
O290 Li228 1.961 . S
O290 Li230 1.956 . S
O290 Li231 1.970 . S
O290 C260 1.325 . S
O291 Li229 1.961 . S
O291 Li230 1.970 1_565 S
O291 Li231 1.956 1_565 S
O291 C266 1.325 . S
H292 C234 0.929 . S
H293 C235 0.930 . S
H294 C236 0.930 . S
H295 C237 0.930 . S
H296 C239 0.930 . S
H297 C241 0.929 1_455 S
H298 C242 0.930 . S
H299 C243 0.930 . S
H300 C246 0.930 . S
H301 C249 0.929 . S
H302 C254 0.929 . S
H303 C255 0.930 . S
H304 C262 0.929 . S
H305 C263 0.930 . S
H306 C264 0.930 . S
H307 C265 0.930 . S
H308 C267 0.929 . S
H309 C268 0.930 . S
H310 C269 0.930 . S
H311 C270 0.930 . S
H312 C274 0.929 . S
H313 C276 0.930 . S
H314 C282 0.929 . S
H315 C283 0.930 . S
Li316 N333 1.990 1_455 S
Li316 O376 1.956 . S
Li316 O377 1.970 1_545 S
Li316 O378 1.961 . S
Li317 N341 1.990 . S
Li317 O376 1.970 . S
Li317 O377 1.956 1_545 S
Li317 O379 1.961 . S
Li318 N363 1.990 . S
Li318 O376 1.961 . S
Li318 O378 1.956 . S
Li318 O379 1.970 . S
Li319 N369 1.990 . S
Li319 O377 1.961 . S
Li319 O378 1.970 1_565 S
Li319 O379 1.956 1_565 S
C320 C322 1.348 . S
C320 C323 1.356 . S
C320 O376 1.325 . S
N321 C324 1.314 . S
N321 C325 1.279 . S
C322 C320 1.348 . S
C322 C324 1.353 . S
C322 H380 0.929 . S
C323 C320 1.356 . S
C323 C325 1.358 . S
C323 H381 0.930 . S
C324 N321 1.314 . S
C324 C322 1.353 . S
C324 H382 0.930 . S
C325 N321 1.279 . S
C325 C323 1.358 . S
C325 H383 0.930 . S
C326 C329 1.348 . S
C326 C330 1.356 . S
C326 O377 1.325 . S
C327 N328 1.279 . S
C327 C330 1.358 . S
C327 H384 0.930 . S
N328 C327 1.279 . S
N328 C331 1.314 . S
C329 C326 1.348 . S
C329 C331 1.353 . S
C329 H385 0.929 . S
C330 C326 1.356 . S
C330 C327 1.358 . S
C330 H386 0.930 . S
C331 N328 1.314 . S
C331 C329 1.353 . S
C331 H387 0.930 . S
C332 N333 1.314 1_565 S
C332 C337 1.353 . S
C332 H338 0.930 . S
N333 Li316 1.990 1_655 S
N333 C332 1.314 1_545 S
N333 C335 1.279 . S
C334 C335 1.358 . S
C334 C336 1.356 . S
C334 H388 0.930 . S
C335 N333 1.279 . S
C335 C334 1.358 . S
C335 H339 0.930 . S
C336 C334 1.356 . S
C336 C337 1.348 1_545 S
C337 C332 1.353 . S
C337 C336 1.348 1_565 S
C337 H389 0.929 . S
H338 C332 0.930 . S
H339 C335 0.930 . S
C340 N341 1.314 . S
C340 C342 1.353 . S
C340 H346 0.930 . S
N341 Li317 1.990 . S
N341 C340 1.314 . S
N341 C344 1.279 1_545 S
C342 C340 1.353 . S
C342 C345 1.348 . S
C342 H390 0.929 . S
C343 C344 1.358 . S
C343 C345 1.356 1_565 S
C343 H391 0.930 . S
C344 N341 1.279 1_565 S
C344 C343 1.358 . S
C344 H347 0.930 . S
C345 C342 1.348 . S
C345 C343 1.356 1_545 S
H346 C340 0.930 . S
H347 C344 0.930 . S
C348 C350 1.348 1_545 S
C348 C351 1.356 . S
C348 O378 1.325 1_655 S
N349 C352 1.314 1_545 S
N349 C353 1.279 . S
C350 C348 1.348 1_565 S
C350 C352 1.353 . S
C350 H392 0.929 1_655 S
C351 C348 1.356 . S
C351 C353 1.358 . S
C351 H393 0.930 . S
C352 N349 1.314 1_565 S
C352 C350 1.353 . S
C352 H394 0.930 . S
C353 N349 1.279 . S
C353 C351 1.358 . S
C353 H395 0.930 . S
C354 C355 1.348 . S
C354 C356 1.356 1_545 S
C354 O379 1.325 . S
C355 C354 1.348 . S
C355 C357 1.353 . S
C355 H396 0.929 . S
C356 C354 1.356 1_565 S
C356 C358 1.358 . S
C356 H397 0.930 . S
C357 C355 1.353 . S
C357 N359 1.314 . S
C357 H398 0.930 . S
C358 C356 1.358 . S
C358 N359 1.279 1_565 S
C358 H399 0.930 . S
N359 C357 1.314 . S
N359 C358 1.279 1_545 S
C360 C362 1.353 . S
C360 N363 1.314 . S
C360 H366 0.930 . S
C361 N363 1.279 . S
C361 C364 1.358 . S
C361 H367 0.930 . S
C362 C360 1.353 . S
C362 C365 1.348 . S
C362 H400 0.929 . S
N363 Li318 1.990 . S
N363 C360 1.314 . S
N363 C361 1.279 . S
C364 C361 1.358 . S
C364 C365 1.356 . S
C364 H401 0.930 . S
C365 C362 1.348 . S
C365 C364 1.356 . S
H366 C360 0.930 . S
H367 C361 0.930 . S
C368 N369 1.314 . S
C368 C370 1.353 . S
C368 H374 0.930 . S
N369 Li319 1.990 . S
N369 C368 1.314 . S
N369 C372 1.279 . S
C370 C368 1.353 . S
C370 C373 1.348 . S
C370 H402 0.929 . S
C371 C372 1.358 . S
C371 C373 1.356 . S
C371 H403 0.930 . S
C372 N369 1.279 . S
C372 C371 1.358 . S
C372 H375 0.930 . S
C373 C370 1.348 . S
C373 C371 1.356 . S
H374 C368 0.930 . S
H375 C372 0.930 . S
O376 Li316 1.956 . S
O376 Li317 1.970 . S
O376 Li318 1.961 . S
O376 C320 1.325 . S
O377 Li316 1.970 1_565 S
O377 Li317 1.956 1_565 S
O377 Li319 1.961 . S
O377 C326 1.325 . S
O378 Li316 1.961 . S
O378 Li318 1.956 . S
O378 Li319 1.970 1_545 S
O378 C348 1.325 1_455 S
O379 Li317 1.961 . S
O379 Li318 1.970 . S
O379 Li319 1.956 1_545 S
O379 C354 1.325 . S
H380 C322 0.929 . S
H381 C323 0.930 . S
H382 C324 0.930 . S
H383 C325 0.930 . S
H384 C327 0.930 . S
H385 C329 0.929 . S
H386 C330 0.930 . S
H387 C331 0.930 . S
H388 C334 0.930 . S
H389 C337 0.929 . S
H390 C342 0.929 . S
H391 C343 0.930 . S
H392 C350 0.929 1_455 S
H393 C351 0.930 . S
H394 C352 0.930 . S
H395 C353 0.930 . S
H396 C355 0.929 . S
H397 C356 0.930 . S
H398 C357 0.930 . S
H399 C358 0.930 . S
H400 C362 0.929 . S
H401 C364 0.930 . S
H402 C370 0.929 . S
H403 C371 0.930 . S
H404 C412 0.950 . S
H405 C417 0.950 . S
H406 C414 0.950 . S
H407 C416 0.950 . S
H408 C418 0.950 . S
H409 C420 0.950 . S
H410 C422 0.950 . S
H411 C423 0.950 . S
C412 H404 0.950 . S
C412 C413 1.386 1_565 S
C412 C414 1.391 . S
C413 C412 1.386 1_545 S
C413 C417 1.393 . S
C414 H406 0.950 . S
C414 C412 1.391 . S
C414 C415 1.400 1_565 S
C415 C414 1.400 1_545 S
C415 C416 1.398 . S
C415 C421 1.491 . S
C416 H407 0.950 . S
C416 C415 1.398 . S
C416 C417 1.391 . S
C417 H405 0.950 . S
C417 C413 1.393 . S
C417 C416 1.391 . S
C418 H408 0.950 . S
C418 C419 1.386 . S
C418 C420 1.391 . S
C419 C418 1.386 . S
C419 C423 1.393 1_545 S
C420 H409 0.950 . S
C420 C418 1.391 . S
C420 C421 1.400 . S
C421 C415 1.491 . S
C421 C420 1.400 . S
C421 C422 1.398 1_545 S
C422 H410 0.950 . S
C422 C421 1.398 1_565 S
C422 C423 1.391 . S
C423 H411 0.950 . S
C423 C419 1.393 1_565 S
C423 C422 1.391 . S
H424 C432 0.950 . S
H425 C437 0.950 . S
H426 C434 0.950 . S
H427 C436 0.950 . S
H428 C438 0.950 . S
H429 C440 0.950 . S
H430 C442 0.950 . S
H431 C443 0.950 . S
C432 H424 0.950 . S
C432 C433 1.386 . S
C432 C434 1.391 . S
C433 C432 1.386 . S
C433 C437 1.393 . S
C434 H426 0.950 . S
C434 C432 1.391 . S
C434 C435 1.400 . S
C435 C434 1.400 . S
C435 C436 1.398 . S
C435 C441 1.491 . S
C436 H427 0.950 . S
C436 C435 1.398 . S
C436 C437 1.391 . S
C437 H425 0.950 . S
C437 C433 1.393 . S
C437 C436 1.391 . S
C438 H428 0.950 . S
C438 C439 1.386 . S
C438 C440 1.391 . S
C439 C438 1.386 . S
C439 C443 1.393 . S
C440 H429 0.950 . S
C440 C438 1.391 . S
C440 C441 1.400 . S
C441 C435 1.491 . S
C441 C440 1.400 . S
C441 C442 1.398 . S
C442 H430 0.950 . S
C442 C441 1.398 . S
C442 C443 1.391 . S
C443 H431 0.950 . S
C443 C439 1.393 . S
C443 C442 1.391 . S
H444 C452 0.950 . S
H445 C457 0.950 1_565 S
H446 C454 0.950 . S
H447 C456 0.950 1_565 S
H448 C458 0.950 1_565 S
H449 C460 0.950 1_565 S
H450 C462 0.950 . S
H451 C463 0.950 . S
C452 H444 0.950 . S
C452 C453 1.386 . S
C452 C454 1.391 . S
C453 C452 1.386 . S
C453 C457 1.393 . S
C454 H446 0.950 . S
C454 C452 1.391 . S
C454 C455 1.400 . S
C455 C454 1.400 . S
C455 C456 1.398 . S
C455 C461 1.491 . S
C456 H447 0.950 1_545 S
C456 C455 1.398 . S
C456 C457 1.391 . S
C457 H445 0.950 1_545 S
C457 C453 1.393 . S
C457 C456 1.391 . S
C458 H448 0.950 1_545 S
C458 C459 1.386 . S
C458 C460 1.391 . S
C459 C458 1.386 . S
C459 C463 1.393 . S
C460 H449 0.950 1_545 S
C460 C458 1.391 . S
C460 C461 1.400 . S
C461 C455 1.491 . S
C461 C460 1.400 . S
C461 C462 1.398 . S
C462 H450 0.950 . S
C462 C461 1.398 . S
C462 C463 1.391 . S
C463 H451 0.950 . S
C463 C459 1.393 . S
C463 C462 1.391 . S
H464 C472 0.950 . S
H465 C477 0.950 . S
H466 C474 0.950 . S
H467 C476 0.950 . S
H468 C478 0.950 . S
H469 C480 0.950 . S
H470 C482 0.950 . S
H471 C483 0.950 . S
C472 H464 0.950 . S
C472 C473 1.386 . S
C472 C474 1.391 . S
C473 C472 1.386 . S
C473 C477 1.393 . S
C474 H466 0.950 . S
C474 C472 1.391 . S
C474 C475 1.400 . S
C475 C474 1.400 . S
C475 C476 1.398 . S
C475 C481 1.491 . S
C476 H467 0.950 . S
C476 C475 1.398 . S
C476 C477 1.391 . S
C477 H465 0.950 . S
C477 C473 1.393 . S
C477 C476 1.391 . S
C478 H468 0.950 . S
C478 C479 1.386 . S
C478 C480 1.391 . S
C479 C478 1.386 . S
C479 C483 1.393 . S
C480 H469 0.950 . S
C480 C478 1.391 . S
C480 C481 1.400 . S
C481 C475 1.491 . S
C481 C480 1.400 . S
C481 C482 1.398 . S
C482 H470 0.950 . S
C482 C481 1.398 . S
C482 C483 1.391 . S
C483 H471 0.950 . S
C483 C479 1.393 . S
C483 C482 1.391 . S
H484 C492 0.950 . S
H485 C497 0.950 . S
H486 C494 0.950 . S
H487 C496 0.950 . S
H488 C498 0.950 . S
H489 C500 0.950 . S
H490 C502 0.950 . S
H491 C503 0.950 . S
C492 H484 0.950 . S
C492 C493 1.386 . S
C492 C494 1.391 . S
C493 C492 1.386 . S
C493 C497 1.393 1_545 S
C494 H486 0.950 . S
C494 C492 1.391 . S
C494 C495 1.400 . S
C495 C494 1.400 . S
C495 C496 1.398 1_545 S
C495 C501 1.491 . S
C496 H487 0.950 . S
C496 C495 1.398 1_565 S
C496 C497 1.391 . S
C497 H485 0.950 . S
C497 C493 1.393 1_565 S
C497 C496 1.391 . S
C498 H488 0.950 . S
C498 C499 1.386 1_565 S
C498 C500 1.391 . S
C499 C498 1.386 1_545 S
C499 C503 1.393 . S
C500 H489 0.950 . S
C500 C498 1.391 . S
C500 C501 1.400 1_565 S
C501 C495 1.491 . S
C501 C500 1.400 1_545 S
C501 C502 1.398 . S
C502 H490 0.950 . S
C502 C501 1.398 . S
C502 C503 1.391 . S
C503 H491 0.950 . S
C503 C499 1.393 . S
C503 C502 1.391 . S
H504 C512 0.950 . S
H505 C517 0.950 . S
H506 C514 0.950 . S
H507 C516 0.950 . S
H508 C518 0.950 . S
H509 C520 0.950 . S
H510 C522 0.950 . S
H511 C523 0.950 . S
C512 H504 0.950 . S
C512 C513 1.386 . S
C512 C514 1.391 . S
C513 C512 1.386 . S
C513 C517 1.393 . S
C514 H506 0.950 . S
C514 C512 1.391 . S
C514 C515 1.400 . S
C515 C514 1.400 . S
C515 C516 1.398 . S
C515 C521 1.491 . S
C516 H507 0.950 . S
C516 C515 1.398 . S
C516 C517 1.391 . S
C517 H505 0.950 . S
C517 C513 1.393 . S
C517 C516 1.391 . S
C518 H508 0.950 . S
C518 C519 1.386 . S
C518 C520 1.391 . S
C519 C518 1.386 . S
C519 C523 1.393 . S
C520 H509 0.950 . S
C520 C518 1.391 . S
C520 C521 1.400 . S
C521 C515 1.491 . S
C521 C520 1.400 . S
C521 C522 1.398 . S
C522 H510 0.950 . S
C522 C521 1.398 . S
C522 C523 1.391 . S
C523 H511 0.950 . S
C523 C519 1.393 . S
C523 C522 1.391 . S
H524 C532 0.950 . S
H525 C537 0.950 . S
H526 C534 0.950 . S
H527 C536 0.950 . S
H528 C538 0.950 . S
H529 C540 0.950 . S
H530 C542 0.950 . S
H531 C543 0.950 . S
C532 H524 0.950 . S
C532 C533 1.386 1_565 S
C532 C534 1.391 . S
C533 C532 1.386 1_545 S
C533 C537 1.393 . S
C534 H526 0.950 . S
C534 C532 1.391 . S
C534 C535 1.400 1_565 S
C535 C534 1.400 1_545 S
C535 C536 1.398 . S
C535 C541 1.491 . S
C536 H527 0.950 . S
C536 C535 1.398 . S
C536 C537 1.391 . S
C537 H525 0.950 . S
C537 C533 1.393 . S
C537 C536 1.391 . S
C538 H528 0.950 . S
C538 C539 1.386 . S
C538 C540 1.391 . S
C539 C538 1.386 . S
C539 C543 1.393 1_545 S
C540 H529 0.950 . S
C540 C538 1.391 . S
C540 C541 1.400 . S
C541 C535 1.491 . S
C541 C540 1.400 . S
C541 C542 1.398 1_545 S
C542 H530 0.950 . S
C542 C541 1.398 1_565 S
C542 C543 1.391 . S
C543 H531 0.950 . S
C543 C539 1.393 1_565 S
C543 C542 1.391 . S
H544 C552 0.950 . S
H545 C557 0.950 . S
H546 C554 0.950 . S
H547 C556 0.950 . S
H548 C558 0.950 . S
H549 C560 0.950 . S
H550 C562 0.950 . S
H551 C563 0.950 . S
C552 H544 0.950 . S
C552 C553 1.386 . S
C552 C554 1.391 . S
C553 C552 1.386 . S
C553 C557 1.393 . S
C554 H546 0.950 . S
C554 C552 1.391 . S
C554 C555 1.400 . S
C555 C554 1.400 . S
C555 C556 1.398 . S
C555 C561 1.491 . S
C556 H547 0.950 . S
C556 C555 1.398 . S
C556 C557 1.391 . S
C557 H545 0.950 . S
C557 C553 1.393 . S
C557 C556 1.391 . S
C558 H548 0.950 . S
C558 C559 1.386 . S
C558 C560 1.391 . S
C559 C558 1.386 . S
C559 C563 1.393 . S
C560 H549 0.950 . S
C560 C558 1.391 . S
C560 C561 1.400 . S
C561 C555 1.491 . S
C561 C560 1.400 . S
C561 C562 1.398 . S
C562 H550 0.950 . S
C562 C561 1.398 . S
C562 C563 1.391 . S
C563 H551 0.950 . S
C563 C559 1.393 . S
C563 C562 1.391 . S
C419 C277 1.477 . S
C413 C11 0.875 1_545 S
C439 C365 1.314 . S
C433 C115 1.085 . S
C459 C285 1.311 . S
C453 C1 1.062 . S
C479 C373 1.474 . S
C473 C125 0.875 . S
C499 C345 1.570 . S
C493 C55 1.180 1_545 S
C519 C248 1.405 . S
C513 C143 1.146 . S
C539 C336 1.408 . S
C533 C29 1.093 . S
C553 C169 1.169 . S
C559 C257 1.572 . S
