# Generated by pormake.
# Topology tsx, (6,3)-cn, num edge types: 1
# Building blocks:
#     Node 0, Type 0, BuildingBlock: MIDCAF_clean_sbu_0, # of connection points: 6
#     Node 1, Type 0, BuildingBlock: MIDCAF_clean_sbu_0, # of connection points: 6
#     Node 2, Type 1, BuildingBlock: BELTOD_clean_linker_0, # of connection points: 3
#     Node 3, Type 1, BuildingBlock: BELTOD_clean_linker_0, # of connection points: 3
#     Node 4, Type 1, BuildingBlock: BELTOD_clean_linker_0, # of connection points: 3
#     Node 5, Type 1, BuildingBlock: BELTOD_clean_linker_0, # of connection points: 3
#     Edge 6, Type (0, 1), BuildingBlock: ZUJKAS_clean_linker_0, # of connection points: 2
#     Edge 7, Type (0, 1), BuildingBlock: ZUJKAS_clean_linker_0, # of connection points: 2
#     Edge 8, Type (0, 1), BuildingBlock: ZUJKAS_clean_linker_0, # of connection points: 2
#     Edge 9, Type (0, 1), BuildingBlock: ZUJKAS_clean_linker_0, # of connection points: 2
#     Edge 10, Type (0, 1), BuildingBlock: ZUJKAS_clean_linker_0, # of connection points: 2
#     Edge 11, Type (0, 1), BuildingBlock: ZUJKAS_clean_linker_0, # of connection points: 2
#     Edge 12, Type (0, 1), BuildingBlock: ZUJKAS_clean_linker_0, # of connection points: 2
#     Edge 13, Type (0, 1), BuildingBlock: ZUJKAS_clean_linker_0, # of connection points: 2
#     Edge 14, Type (0, 1), BuildingBlock: ZUJKAS_clean_linker_0, # of connection points: 2
#     Edge 15, Type (0, 1), BuildingBlock: ZUJKAS_clean_linker_0, # of connection points: 2
#     Edge 16, Type (0, 1), BuildingBlock: ZUJKAS_clean_linker_0, # of connection points: 2
#     Edge 17, Type (0, 1), BuildingBlock: ZUJKAS_clean_linker_0, # of connection points: 2
# Relax obj value: 0.110
# Max RMSD: 0.178
# Mean RMSD: 0.105
data_MOF--net-tsx--node1-MIDCAF_clean_sbu_0--node2-BELTOD_clean_linker_0--edge1-ZUJKAS_clean_linker_0
_symmetry_space_group_name_H-M    P1
_symmetry_Int_Tables_number       1
_symmetry_cell_setting            triclinic
loop_
_symmetry_equiv_pos_as_xyz
'x, y, z'
_cell_length_a     28.021806
_cell_length_b     28.961032
_cell_length_c     54.117571
_cell_angle_alpha  91.030812
_cell_angle_beta   94.344296
_cell_angle_gamma 90.055691
loop_
_atom_site_label
_atom_site_type_symbol
_atom_site_fract_x
_atom_site_fract_y
_atom_site_fract_z
_atom_type_partial_charge
Zn0 Zn 0.93528 0.01458 0.97932 0.0
Zn1 Zn 0.0967 0.01899 0.03624 0.0
Zn2 Zn 0.01706 0.01892 0.00827 0.0
C3 C 0.06828 0.11077 0.0322 0.0
C4 C 0.11929 0.97824 0.99266 0.0
O5 O 0.96374 0.97777 0.02681 0.0
O6 O 0.89668 0.98102 0.00252 0.0
C7 C 0.95763 0.10839 0.98866 0.0
O8 O 0.03579 0.09223 0.01705 0.0
O9 O 0.09845 0.0859 0.04422 0.0
O10 O 0.14033 0.99443 0.01236 0.0
O11 O 0.07371 0.9834 0.98837 0.0
O12 O 0.92797 0.08248 0.97633 0.0
O13 O 0.99282 0.09088 0.00206 0.0
O14 O 0.03197 0.98696 0.9722 0.0
O15 O 0.96132 0.98006 0.95121 0.0
C16 C 0.00612 0.97438 0.9525 0.0
O17 O 0.0051 0.98286 0.0432 0.0
O18 O 0.07756 0.97706 0.0621 0.0
C19 C 0.91924 0.96714 0.02206 0.0
C20 C 0.03327 0.96881 0.06147 0.0
Zn21 Zn 0.5985 0.51203 0.53644 0.0
Zn22 Zn 0.43731 0.51028 0.4803 0.0
Zn23 Zn 0.51903 0.51421 0.50843 0.0
C24 C 0.50587 0.46799 0.45312 0.0
C25 C 0.46116 0.60413 0.48861 0.0
O26 O 0.50628 0.47929 0.5436 0.0
O27 O 0.57826 0.47185 0.56282 0.0
C28 C 0.6198 0.46988 0.49287 0.0
O29 O 0.53255 0.48081 0.47249 0.0
O30 O 0.46121 0.47437 0.4522 0.0
O31 O 0.43112 0.57799 0.47671 0.0
O32 O 0.49649 0.5868 0.502 0.0
O33 O 0.6411 0.48507 0.51273 0.0
O34 O 0.5745 0.47674 0.48842 0.0
O35 O 0.54061 0.58726 0.51635 0.0
O36 O 0.60301 0.57924 0.54349 0.0
C37 C 0.57418 0.60505 0.53116 0.0
O38 O 0.46454 0.47502 0.52757 0.0
O39 O 0.39728 0.4788 0.5035 0.0
C40 C 0.53373 0.46488 0.56206 0.0
C41 C 0.41974 0.46528 0.52313 0.0
P42 P 0.11415 0.10557 0.38368 0.0
H43 H 0.10025 0.19241 0.41029 0.0
H44 H 0.02843 0.23155 0.42269 0.0
H45 H 0.94358 0.11174 0.39917 0.0
H46 H 0.01586 0.07245 0.38728 0.0
H47 H 0.21727 0.09393 0.39083 0.0
H48 H 0.2681 0.04165 0.41576 0.0
H49 H 0.14316 0.98519 0.44653 0.0
H50 H 0.09215 0.03794 0.42122 0.0
H51 H 0.06835 0.13595 0.33715 0.0
H52 H 0.11188 0.00622 0.36955 0.0
O53 O 0.14758 0.14925 0.37494 0.0
H54 H 0.03904 0.09556 0.29904 0.0
H55 H 0.0818 0.96534 0.33159 0.0
C56 C 0.06318 0.12993 0.39746 0.0
C57 C 0.06631 0.1743 0.40816 0.0
C58 C 0.02514 0.19678 0.41503 0.0
C59 C 0.9801 0.17515 0.4114 0.0
C60 C 0.97765 0.12942 0.40216 0.0
C61 C 0.01895 0.10695 0.3953 0.0
C62 C 0.15101 0.07031 0.40447 0.0
C63 C 0.20077 0.07098 0.40328 0.0
C64 C 0.2299 0.04111 0.41764 0.0
C65 C 0.20976 0.00943 0.43328 0.0
C66 C 0.15975 0.00914 0.43462 0.0
C67 C 0.13059 0.0394 0.42032 0.0
C68 C 0.09297 0.07424 0.35599 0.0
C69 C 0.07148 0.0987 0.33604 0.0
C70 C 0.0542 0.07546 0.31438 0.0
C71 C 0.0579 0.02714 0.31228 0.0
C72 C 0.07881 0.0026 0.33253 0.0
C73 C 0.09605 0.02597 0.35427 0.0
P74 P 0.07312 0.9463 0.61305 0.0
H75 H 0.03294 0.90676 0.56607 0.0
H76 H 0.95088 0.8931 0.54902 0.0
H77 H 0.89805 0.96604 0.61171 0.0
H78 H 0.98057 0.97942 0.62872 0.0
H79 H 0.16805 0.96415 0.59656 0.0
H80 H 0.21092 0.03498 0.58871 0.0
H81 H 0.08609 0.11488 0.60422 0.0
H82 H 0.0436 0.04344 0.61255 0.0
H83 H 0.01882 0.89039 0.64561 0.0
H84 H 0.13222 0.99166 0.65374 0.0
O85 O 0.10338 0.90099 0.60296 0.0
H86 H 0.02132 0.88359 0.6907 0.0
H87 H 0.13473 0.98513 0.69869 0.0
C88 C 0.01276 0.94294 0.59898 0.0
C89 C 0.00373 0.92027 0.57601 0.0
C90 C 0.95673 0.9128 0.56618 0.0
C91 C 0.91784 0.92805 0.57914 0.0
C92 C 0.9272 0.9532 0.60148 0.0
C93 C 0.97432 0.96091 0.61121 0.0
C94 C 0.1023 0.99851 0.60462 0.0
C95 C 0.14959 0.99681 0.59791 0.0
C96 C 0.17411 0.03743 0.59341 0.0
C97 C 0.15191 0.08068 0.59571 0.0
C98 C 0.10437 0.0822 0.60246 0.0
C99 C 0.07984 0.0414 0.60695 0.0
C100 C 0.07426 0.94256 0.6463 0.0
C101 C 0.04385 0.91156 0.65708 0.0
C102 C 0.04537 0.90764 0.68284 0.0
C103 C 0.07805 0.93402 0.69825 0.0
C104 C 0.10934 0.96416 0.68732 0.0
C105 C 0.10755 0.96827 0.66157 0.0
P106 P 0.61272 0.61032 0.8858 0.0
H107 H 0.60047 0.70056 0.90946 0.0
H108 H 0.52979 0.74025 0.92279 0.0
H109 H 0.44645 0.61565 0.90853 0.0
H110 H 0.51776 0.57585 0.89576 0.0
H111 H 0.71586 0.59782 0.89252 0.0
H112 H 0.76657 0.54468 0.9169 0.0
H113 H 0.64136 0.48644 0.94663 0.0
H114 H 0.59052 0.53957 0.92164 0.0
H115 H 0.53565 0.63374 0.84934 0.0
H116 H 0.63733 0.52299 0.86076 0.0
O117 O 0.64685 0.65309 0.87664 0.0
H118 H 0.5045 0.59759 0.81049 0.0
H119 H 0.60762 0.48744 0.8212 0.0
C120 C 0.56409 0.63555 0.90122 0.0
C121 C 0.56723 0.68151 0.90965 0.0
C122 C 0.52665 0.70429 0.91704 0.0
C123 C 0.4822 0.68144 0.91613 0.0
C124 C 0.48007 0.63429 0.90941 0.0
C125 C 0.52081 0.61148 0.9021 0.0
C126 C 0.64948 0.57318 0.90559 0.0
C127 C 0.69927 0.57412 0.90454 0.0
C128 C 0.72833 0.54378 0.91862 0.0
C129 C 0.70814 0.51152 0.93393 0.0
C130 C 0.65806 0.51074 0.93497 0.0
C131 C 0.62896 0.54127 0.92083 0.0
C132 C 0.5882 0.58066 0.85819 0.0
C133 C 0.55094 0.60129 0.84362 0.0
C134 C 0.53342 0.58076 0.82125 0.0
C135 C 0.55362 0.53965 0.81264 0.0
C136 C 0.5907 0.51869 0.82746 0.0
C137 C 0.60795 0.53914 0.85004 0.0
P138 P 0.58053 0.44227 0.11368 0.0
H139 H 0.5354 0.39243 0.07072 0.0
H140 H 0.45217 0.37953 0.056 0.0
H141 H 0.40754 0.47388 0.11264 0.0
H142 H 0.4913 0.48502 0.12789 0.0
H143 H 0.67679 0.45892 0.09895 0.0
H144 H 0.72022 0.52905 0.09043 0.0
H145 H 0.593 0.6096 0.10024 0.0
H146 H 0.55011 0.53909 0.10942 0.0
H147 H 0.52699 0.38888 0.14762 0.0
H148 H 0.64148 0.48912 0.15314 0.0
O149 O 0.60992 0.39619 0.10385 0.0
H150 H 0.53082 0.38468 0.19281 0.0
H151 H 0.64625 0.48432 0.19814 0.0
C152 C 0.51944 0.43895 0.10068 0.0
C153 C 0.50775 0.41067 0.07984 0.0
C154 C 0.45996 0.40372 0.07126 0.0
C155 C 0.42282 0.4254 0.0832 0.0
C156 C 0.43504 0.45595 0.10325 0.0
C157 C 0.48295 0.4626 0.11191 0.0
C158 C 0.6099 0.49364 0.10425 0.0
C159 C 0.65797 0.49155 0.09886 0.0
C160 C 0.6828 0.53177 0.09398 0.0
C161 C 0.66009 0.57503 0.09453 0.0
C162 C 0.61171 0.57693 0.09987 0.0
C163 C 0.58693 0.53657 0.10481 0.0
C164 C 0.58296 0.44025 0.147 0.0
C165 C 0.55279 0.41014 0.15855 0.0
C166 C 0.55542 0.40738 0.18438 0.0
C167 C 0.58874 0.43433 0.19912 0.0
C168 C 0.61961 0.46373 0.18738 0.0
C169 C 0.61688 0.46649 0.16157 0.0
H170 H 0.06823 0.16219 0.07419 0.0
H171 H 0.10831 0.23667 0.08138 0.0
H172 H 0.12875 0.24451 0.00335 0.0
H173 H 0.08659 0.17074 0.99605 0.0
H174 H 0.20074 0.23205 0.07169 0.0
H175 H 0.11734 0.38081 0.02199 0.0
H176 H 0.08404 0.32947 0.02846 0.0
H177 H 0.12168 0.32972 0.003 0.0
C178 C 0.0789 0.18117 0.05842 0.0
C179 C 0.07452 0.16104 0.03461 0.0
C180 C 0.10196 0.22361 0.06253 0.0
C181 C 0.12192 0.24611 0.04296 0.0
C182 C 0.11307 0.2283 0.01869 0.0
H183 H 0.37926 0.40699 0.03668 0.0
H184 H 0.30126 0.37025 0.02683 0.0
C185 C 0.08904 0.18608 0.01451 0.0
C186 C 0.16053 0.28066 0.04879 0.0
H187 H 0.2004 0.38877 0.03624 0.0
C188 C 0.20017 0.26659 0.06424 0.0
C189 C 0.16033 0.32532 0.03862 0.0
C190 C 0.11838 0.34247 0.02225 0.0
C191 C 0.23977 0.29546 0.0696 0.0
C192 C 0.23962 0.34024 0.05961 0.0
C193 C 0.20014 0.35457 0.04406 0.0
C194 C 0.28145 0.37127 0.06467 0.0
C195 C 0.28221 0.27711 0.08531 0.0
C196 C 0.29523 0.38573 0.08905 0.0
C197 C 0.34012 0.40583 0.09485 0.0
C198 C 0.37196 0.41237 0.07629 0.0
C199 C 0.35619 0.40147 0.05153 0.0
C200 C 0.31136 0.38098 0.04579 0.0
H201 H 0.28101 0.23891 0.08678 0.0
H202 H 0.31633 0.28684 0.07758 0.0
H203 H 0.28224 0.29219 0.10431 0.0
H204 H 0.27242 0.37885 0.10386 0.0
H205 H 0.35089 0.41343 0.11413 0.0
H206 H 0.21153 0.99163 0.98309 0.0
H207 H 0.26389 0.93657 0.9638 0.0
H208 H 0.14413 0.84481 0.94681 0.0
H209 H 0.09127 0.90011 0.96622 0.0
H210 H 0.26988 0.84473 0.98515 0.0
H211 H 0.22395 0.84238 0.88311 0.0
H212 H 0.21244 0.89212 0.9024 0.0
H213 H 0.17596 0.84149 0.90348 0.0
C214 C 0.19609 0.9603 0.97463 0.0
C215 C 0.14743 0.95007 0.9761 0.0
C216 C 0.22599 0.92894 0.96362 0.0
C217 C 0.20784 0.88671 0.95394 0.0
C218 C 0.15864 0.87751 0.95394 0.0
H219 H 0.40635 0.65395 0.94177 0.0
H220 H 0.33421 0.69825 0.94939 0.0
C221 C 0.12852 0.90911 0.96496 0.0
C222 C 0.24182 0.85043 0.9472 0.0
H223 H 0.28617 0.79306 0.89833 0.0
C224 C 0.2732 0.833 0.9662 0.0
C225 C 0.2458 0.83544 0.92249 0.0
C226 C 0.21301 0.85378 0.90155 0.0
C227 C 0.30966 0.80202 0.96109 0.0
C228 C 0.31436 0.78751 0.93632 0.0
C229 C 0.28217 0.80405 0.91732 0.0
C230 C 0.35516 0.75852 0.92972 0.0
C231 C 0.34419 0.78671 0.98213 0.0
C232 C 0.39009 0.7773 0.91562 0.0
C233 C 0.43108 0.75211 0.91117 0.0
C234 C 0.43798 0.70753 0.92071 0.0
C235 C 0.40216 0.6882 0.93421 0.0
C236 C 0.36105 0.7135 0.93865 0.0
H237 H 0.34104 0.8079 0.99925 0.0
H238 H 0.3366 0.75024 0.98644 0.0
H239 H 0.38167 0.78879 0.97688 0.0
H240 H 0.38616 0.81196 0.90853 0.0
H241 H 0.45739 0.76759 0.90019 0.0
H242 H 0.95791 0.89344 0.04716 0.0
H243 H 0.91391 0.83079 0.06517 0.0
H244 H 0.78159 0.90419 0.0494 0.0
H245 H 0.82532 0.96666 0.03121 0.0
H246 H 0.84684 0.82093 0.10209 0.0
H247 H 0.76613 0.78547 0.0067 0.0
H248 H 0.81611 0.82426 0.01309 0.0
H249 H 0.75639 0.84307 0.01804 0.0
C250 C 0.9197 0.89696 0.04835 0.0
C251 C 0.89497 0.93483 0.03778 0.0
C252 C 0.89455 0.86101 0.05849 0.0
C253 C 0.84442 0.86248 0.05811 0.0
C254 C 0.82018 0.90203 0.04941 0.0
H255 H 0.65611 0.6592 0.11848 0.0
H256 H 0.70095 0.72935 0.11073 0.0
C257 C 0.84519 0.93772 0.03913 0.0
C258 C 0.81713 0.82092 0.06423 0.0
H259 H 0.73773 0.7409 0.03861 0.0
C260 C 0.8229 0.80338 0.08828 0.0
C261 C 0.78666 0.79766 0.046 0.0
C262 C 0.78117 0.81321 0.01944 0.0
C263 C 0.79843 0.7634 0.09465 0.0
C264 C 0.76694 0.74094 0.07655 0.0
C265 C 0.76157 0.75838 0.0525 0.0
C266 C 0.7402 0.69842 0.08176 0.0
C267 C 0.80739 0.74496 0.12047 0.0
C268 C 0.74631 0.65813 0.06756 0.0
C269 C 0.72012 0.6183 0.0716 0.0
C270 C 0.68716 0.61786 0.08995 0.0
C271 C 0.68087 0.65842 0.10406 0.0
C272 C 0.70701 0.69837 0.09992 0.0
H273 H 0.84116 0.7588 0.12989 0.0
H274 H 0.77751 0.75544 0.13168 0.0
H275 H 0.8092 0.70665 0.1201 0.0
H276 H 0.77138 0.65754 0.05326 0.0
H277 H 0.72533 0.58797 0.06012 0.0
H278 H 0.92455 0.1567 0.94882 0.0
H279 H 0.89843 0.23692 0.94787 0.0
H280 H 0.94484 0.25391 0.02534 0.0
H281 H 0.97108 0.1728 0.02638 0.0
H282 H 0.84752 0.27774 0.01261 0.0
H283 H 0.96717 0.36266 0.95061 0.0
H284 H 0.94546 0.30806 0.93819 0.0
H285 H 0.9832 0.31 0.96663 0.0
C286 C 0.93026 0.17782 0.96552 0.0
C287 C 0.95005 0.15872 0.98764 0.0
C288 C 0.91562 0.22375 0.96491 0.0
C289 C 0.9202 0.25154 0.98645 0.0
C290 C 0.94151 0.23312 0.00845 0.0
H291 H 0.79621 0.52605 0.95867 0.0
H292 H 0.85093 0.46796 0.97697 0.0
C293 C 0.95678 0.187 0.00899 0.0
C294 C 0.8971 0.29753 0.98613 0.0
H295 H 0.88759 0.39515 0.95181 0.0
C296 C 0.85696 0.30405 -0.00019 0.0
C297 C 0.90973 0.33204 0.96967 0.0
C298 C 0.95407 0.3281 0.95563 0.0
C299 C 0.82693 0.34245 0.99594 0.0
C300 C 0.83704 0.37467 0.97769 0.0
C301 C 0.87938 0.37009 0.96554 0.0
C302 C 0.80221 0.41067 0.96919 0.0
C303 C 0.78384 0.34736 0.01086 0.0
C304 C 0.75657 0.39778 0.95883 0.0
C305 C 0.72537 0.43078 0.94822 0.0
C306 C 0.73929 0.47737 0.94758 0.0
C307 C 0.78458 0.49037 0.95859 0.0
C308 C 0.81581 0.4573 0.96918 0.0
H309 H 0.78982 0.33025 0.02905 0.0
H310 H 0.775 0.38423 0.01412 0.0
H311 H 0.75259 0.33045 0.00059 0.0
H312 H 0.74576 0.36184 0.95803 0.0
H313 H 0.69118 0.41939 0.93954 0.0
H314 H 0.56802 0.66713 0.4934 0.0
H315 H 0.60638 0.74368 0.49449 0.0
H316 H 0.6423 0.73087 0.57297 0.0
H317 H 0.60399 0.65517 0.57199 0.0
H318 H 0.62063 0.82423 0.55731 0.0
H319 H 0.75475 0.73473 0.5023 0.0
H320 H 0.69359 0.73596 0.4896 0.0
H321 H 0.70929 0.70318 0.51683 0.0
C322 C 0.58244 0.68159 0.51101 0.0
C323 C 0.58349 0.65522 0.53259 0.0
C324 C 0.60466 0.72508 0.51158 0.0
C325 C 0.62799 0.74249 0.53374 0.0
C326 C 0.62468 0.71808 0.55567 0.0
H327 H 0.84832 0.89547 0.60695 0.0
H328 H 0.77164 0.86134 0.59235 0.0
C329 C 0.60285 0.67477 0.55509 0.0
C330 C 0.66213 0.78171 0.53396 0.0
H331 H 0.77683 0.80531 0.52097 0.0
C332 C 0.65439 0.82073 0.54889 0.0
C333 C 0.70616 0.77712 0.52294 0.0
C334 C 0.7169 0.7355 0.5071 0.0
C335 C 0.69042 0.85409 0.5541 0.0
C336 C 0.73573 0.8476 0.54463 0.0
C337 C 0.74221 0.81027 0.52832 0.0
C338 C 0.77856 0.87529 0.55359 0.0
C339 C 0.67988 0.89532 0.57019 0.0
C340 C 0.80846 0.89445 0.53674 0.0
C341 C 0.8528 0.91364 0.54507 0.0
C342 C 0.86817 0.91399 0.57044 0.0
C343 C 0.83728 0.89657 0.58735 0.0
C344 C 0.79316 0.87716 0.579 0.0
H345 H 0.6414 0.90474 0.56778 0.0
H346 H 0.68803 0.88657 0.58994 0.0
H347 H 0.70171 0.92577 0.56592 0.0
H348 H 0.79817 0.89317 0.51703 0.0
H349 H 0.87561 0.92711 0.5316 0.0
H350 H 0.71232 0.4819 0.48356 0.0
H351 H 0.76357 0.42709 0.46331 0.0
H352 H 0.64221 0.3379 0.44516 0.0
H353 H 0.59043 0.39286 0.46566 0.0
H354 H 0.76532 0.33064 0.483 0.0
H355 H 0.72472 0.34273 0.38086 0.0
H356 H 0.71628 0.39136 0.40147 0.0
H357 H 0.67635 0.34304 0.40106 0.0
C358 C 0.69629 0.45118 0.4747 0.0
C359 C 0.64745 0.44161 0.4761 0.0
C360 C 0.72557 0.41997 0.46314 0.0
C361 C 0.70661 0.37858 0.45278 0.0
C362 C 0.65731 0.36997 0.45284 0.0
H363 H 0.90083 0.14456 0.43329 0.0
H364 H 0.82889 0.18873 0.44147 0.0
C365 C 0.62781 0.40139 0.46445 0.0
C366 C 0.73993 0.34242 0.44513 0.0
H367 H 0.78686 0.29224 0.39486 0.0
C368 C 0.76969 0.32168 0.46375 0.0
C369 C 0.74537 0.3312 0.42002 0.0
C370 C 0.71422 0.35315 0.39954 0.0
C371 C 0.806 0.29102 0.45794 0.0
C372 C 0.81229 0.28039 0.43279 0.0
C373 C 0.78167 0.30026 0.41412 0.0
C374 C 0.85314 0.25193 0.42569 0.0
C375 C 0.83879 0.27195 0.47871 0.0
C376 C 0.88996 0.27253 0.4136 0.0
C377 C 0.93092 0.24745 0.40887 0.0
C378 C 0.93584 0.20115 0.41608 0.0
C379 C 0.89815 0.18013 0.42751 0.0
C380 C 0.85714 0.20534 0.43228 0.0
H381 H 0.83448 0.2901 0.49667 0.0
H382 H 0.83057 0.23484 0.48096 0.0
H383 H 0.87678 0.27478 0.47438 0.0
H384 H 0.88753 0.30843 0.40835 0.0
H385 H 0.95878 0.26438 0.39953 0.0
H386 H 0.3268 0.47018 0.53364 0.0
H387 H 0.28069 0.4111 0.55311 0.0
H388 H 0.40899 0.33046 0.56702 0.0
H389 H 0.45535 0.39002 0.54796 0.0
H390 H 0.27061 0.32712 0.53319 0.0
H391 H 0.34483 0.31146 0.63044 0.0
H392 H 0.35677 0.36074 0.61185 0.0
H393 H 0.39004 0.30813 0.6087 0.0
C394 C 0.34537 0.44049 0.54157 0.0
C395 C 0.39466 0.43476 0.53947 0.0
C396 C 0.31901 0.40674 0.55265 0.0
C397 C 0.34131 0.36637 0.56165 0.0
C398 C 0.3911 0.36172 0.56076 0.0
H399 H 0.21237 0.09647 0.55935 0.0
H400 H 0.25768 0.16658 0.55258 0.0
C401 C 0.41763 0.39581 0.54986 0.0
C402 C 0.31157 0.32682 0.56855 0.0
H403 H 0.29679 0.24788 0.61354 0.0
C404 C 0.27605 0.31019 0.55089 0.0
C405 C 0.31839 0.30482 0.59168 0.0
C406 C 0.35425 0.32247 0.61185 0.0
C407 C 0.248 0.27162 0.55545 0.0
C408 C 0.25634 0.24826 0.57807 0.0
C409 C 0.29085 0.26556 0.59608 0.0
C410 C 0.23017 0.20526 0.58298 0.0
C411 C 0.20954 0.25633 0.53596 0.0
C412 C 0.20052 0.20334 0.6027 0.0
C413 C 0.17482 0.16306 0.60677 0.0
C414 C 0.17861 0.12384 0.59129 0.0
C415 C 0.20886 0.12585 0.57174 0.0
C416 C 0.23449 0.16605 0.5677 0.0
H417 H 0.19876 0.28477 0.52322 0.0
H418 H 0.22342 0.22762 0.52472 0.0
H419 H 0.17732 0.2438 0.54457 0.0
H420 H 0.19689 0.23318 0.61477 0.0
H421 H 0.15246 0.16244 0.62223 0.0
H422 H 0.47677 0.67047 0.5254 0.0
H423 H 0.44902 0.75113 0.52381 0.0
H424 H 0.39768 0.73018 0.44725 0.0
H425 H 0.42583 0.65067 0.44863 0.0
H426 H 0.44072 0.81705 0.45717 0.0
H427 H 0.30326 0.77569 0.52272 0.0
H428 H 0.36505 0.76618 0.53285 0.0
H429 H 0.33703 0.73121 0.50816 0.0
C430 C 0.46084 0.68367 0.50809 0.0
C431 C 0.45333 0.65443 0.48714 0.0
C432 C 0.44454 0.72949 0.50727 0.0
C433 C 0.42058 0.74637 0.48551 0.0
C434 C 0.41592 0.7179 0.46424 0.0
H435 H 0.19279 0.91717 0.43794 0.0
H436 H 0.24797 0.8588 0.45528 0.0
C437 C 0.43192 0.67242 0.46507 0.0
C438 C 0.39642 0.79194 0.48479 0.0
H439 H 0.29544 0.84587 0.50205 0.0
C440 C 0.40958 0.824 0.46737 0.0
C441 C 0.35545 0.80047 0.49794 0.0
C442 C 0.33893 0.76662 0.51639 0.0
C443 C 0.38147 0.8631 0.46175 0.0
C444 C 0.33948 0.87073 0.47424 0.0
C445 C 0.3277 0.83995 0.49258 0.0
C446 C 0.30466 0.9073 0.4665 0.0
C447 C 0.39525 0.89417 0.44134 0.0
C448 C 0.31761 0.95415 0.46777 0.0
C449 C 0.28608 0.98764 0.45783 0.0
C450 C 0.24086 0.97491 0.44664 0.0
C451 C 0.22712 0.92821 0.4466 0.0
C452 C 0.25872 0.89478 0.45643 0.0
H453 H 0.42356 0.87868 0.43053 0.0
H454 H 0.36366 0.90176 0.42841 0.0
H455 H 0.40905 0.92738 0.44956 0.0
H456 H 0.35248 0.9647 0.47594 0.0
H457 H 0.29741 0.02343 0.45851 0.0
H458 H 0.95535 0.99706 0.08478 0.0
H459 H 0.94475 0.98607 0.12887 0.0
H460 H 0.05933 0.8866 0.13268 0.0
H461 H 0.07113 0.89872 0.08897 0.0
H462 H 0.93809 0.91263 0.16644 0.0
H463 H 0.11274 0.00502 0.17012 0.0
H464 H 0.07445 0.99882 0.14195 0.0
H465 H 0.11086 0.9513 0.15299 0.0
C466 C 0.97676 0.97135 0.09478 0.0
C467 C 0.01462 0.94933 0.08375 0.0
C468 C 0.97073 0.96513 0.11996 0.0
C469 C 1.0021 0.93639 0.13409 0.0
C470 C 0.03528 0.90945 0.12213 0.0
H471 H 0.10384 0.95751 0.28894 0.0
H472 H 0.08478 0.92627 0.24712 0.0
C473 C 0.04192 0.9163 0.09718 0.0
C474 C 0.00723 0.94194 0.16141 0.0
H475 H 0.08392 0.98544 0.20806 0.0
C476 C 0.97 0.92826 0.17564 0.0
C477 C 0.04874 0.96293 0.17326 0.0
C478 C 0.08884 0.98079 0.15885 0.0
C479 C 0.9736 0.93459 0.20158 0.0
C480 C 0.01519 0.95552 0.21334 0.0
C481 C 0.05234 0.96885 0.19904 0.0
C482 C 0.02056 0.96692 0.24021 0.0
C483 C 0.93312 0.91867 0.21619 0.0
C484 C 0.99018 0.99938 0.25041 0.0
C485 C 1.0009 0.0172 0.27437 0.0
C486 C 0.04243 0.00316 0.28849 0.0
C487 C 0.07137 0.96878 0.27869 0.0
C488 C 0.06059 0.95096 0.25475 0.0
H489 H 0.91068 0.89213 0.20576 0.0
H490 H 0.9469 0.90425 0.23422 0.0
H491 H 0.90994 0.9486 0.22002 0.0
H492 H 0.95963 0.01287 0.23938 0.0
H493 H 0.97754 0.04319 0.28151 0.0
H494 H 0.09198 0.0002 0.93629 0.0
H495 H 0.12028 0.98456 0.89517 0.0
H496 H 0.99706 0.898 0.87657 0.0
H497 H 0.96895 0.91297 0.91768 0.0
H498 H 0.09248 0.86791 0.85744 0.0
H499 H 0.03306 0.048 0.83728 0.0
H500 H 0.07371 0.0391 0.86415 0.0
H501 H 0.01378 0.01705 0.86342 0.0
C502 C 0.07192 0.97646 0.92377 0.0
C503 C 0.02834 0.95768 0.93015 0.0
C504 C 0.08796 0.96781 0.90027 0.0
C505 C 0.06051 0.94043 0.88286 0.0
C506 C 0.01877 0.9191 0.88981 0.0
H507 H 1.00161 0.93278 0.72661 0.0
H508 H 1.0027 0.93155 0.77186 0.0
C509 C 1.00267 0.92784 0.91322 0.0
C510 C 0.07097 0.9392 0.85649 0.0
H511 H 0.058 0.00336 0.80411 0.0
C512 C 0.0857 0.89762 0.84578 0.0
C513 C 0.06142 0.97798 0.8414 0.0
C514 C 0.04436 0.02311 0.85197 0.0
C515 C 0.09038 0.89368 0.82013 0.0
C516 C 0.07981 0.93221 0.80504 0.0
C517 C 0.0661 0.97398 0.81585 0.0
C518 C 0.07986 0.92939 0.77774 0.0
C519 C 0.10478 0.84808 0.80911 0.0
C520 C 0.12295 0.92851 0.76617 0.0
C521 C 0.12246 0.92936 0.74031 0.0
C522 C 0.07882 0.93094 0.72564 0.0
C523 C 0.03574 0.93101 0.73737 0.0
C524 C 0.0363 0.93049 0.76319 0.0
H525 H 0.10777 0.82036 0.82306 0.0
H526 H 0.07825 0.83736 0.79378 0.0
H527 H 0.13989 0.85194 0.80115 0.0
H528 H 0.1569 0.92807 0.77716 0.0
H529 H 0.1562 0.9289 0.73178 0.0
H530 H 0.45486 0.49495 0.58394 0.0
H531 H 0.4428 0.48726 0.62805 0.0
H532 H 0.55678 0.38738 0.63494 0.0
H533 H 0.56997 0.39607 0.59113 0.0
H534 H 0.43666 0.41723 0.66828 0.0
H535 H 0.61003 0.5113 0.66761 0.0
H536 H 0.5713 0.50152 0.63988 0.0
H537 H 0.60788 0.45548 0.65256 0.0
C538 C 0.47576 0.46974 0.59461 0.0
C539 C 0.514 0.4468 0.58441 0.0
C540 C 0.46883 0.46535 0.6198 0.0
C541 C 0.49971 0.43758 0.63479 0.0
C542 C 0.53302 0.40941 0.6237 0.0
H543 H 0.54098 0.44874 0.79761 0.0
H544 H 0.52309 0.41904 0.75512 0.0
C545 C 0.54053 0.4144 0.5987 0.0
C546 C 0.50513 0.44655 0.66185 0.0
H547 H 0.58046 0.49918 0.70624 0.0
C548 C 0.46819 0.43474 0.67671 0.0
C549 C 0.54609 0.47013 0.67262 0.0
C550 C 0.58598 0.48576 0.65739 0.0
C551 C 0.47124 0.44616 0.7022 0.0
C552 C 0.5122 0.46978 0.71281 0.0
C553 C 0.54923 0.48089 0.69798 0.0
C554 C 0.51663 0.48662 0.73884 0.0
C555 C 0.43025 0.43444 0.71747 0.0
C556 C 0.51902 0.53431 0.74365 0.0
C557 C 0.52984 0.55129 0.76767 0.0
C558 C 0.53852 0.52092 0.78749 0.0
C559 C 0.53484 0.47302 0.78273 0.0
C560 C 0.52403 0.456 0.75855 0.0
H561 H 0.39853 0.42142 0.70583 0.0
H562 H 0.44181 0.40744 0.73092 0.0
H563 H 0.41967 0.46531 0.72822 0.0
H564 H 0.51399 0.55847 0.72862 0.0
H565 H 0.53322 0.5883 0.7705 0.0
H566 H 0.59173 0.49152 0.43604 0.0
H567 H 0.61747 0.47571 0.39443 0.0
H568 H 0.49193 0.39155 0.37731 0.0
H569 H 0.46619 0.40688 0.41887 0.0
H570 H 0.62742 0.38927 0.36137 0.0
H571 H 0.48065 0.51074 0.33262 0.0
H572 H 0.50486 0.50649 0.36436 0.0
H573 H 0.46418 0.4632 0.35114 0.0
C574 C 0.57062 0.4682 0.42374 0.0
C575 C 0.52696 0.45041 0.43063 0.0
C576 C 0.58528 0.45935 0.39997 0.0
C577 C 0.55626 0.43292 0.38281 0.0
C578 C 0.51461 0.41223 0.39031 0.0
H579 H 0.58125 0.35841 0.22827 0.0
H580 H 0.57854 0.35705 0.27337 0.0
C581 C 0.49994 0.42108 0.414 0.0
C582 C 0.56531 0.43268 0.35627 0.0
H583 H 0.52068 0.4747 0.30077 0.0
C584 C 0.60426 0.40791 0.34805 0.0
C585 C 0.53534 0.45769 0.33912 0.0
C586 C 0.49409 0.48639 0.34716 0.0
C587 C 0.61341 0.40681 0.32283 0.0
C588 C 0.58257 0.43086 0.3056 0.0
C589 C 0.54416 0.45616 0.31401 0.0
C590 C 0.58901 0.4307 0.27868 0.0
C591 C 0.65624 0.38052 0.31488 0.0
C592 C 0.59523 0.47259 0.26669 0.0
C593 C 0.59609 0.47359 0.24095 0.0
C594 C 0.59051 0.43268 0.22662 0.0
C595 C 0.58518 0.39059 0.23874 0.0
C596 C 0.58432 0.38964 0.26454 0.0
H597 H 0.68255 0.37373 0.3308 0.0
H598 H 0.6442 0.34678 0.30658 0.0
H599 H 0.67437 0.39976 0.30068 0.0
H600 H 0.59839 0.50474 0.27725 0.0
H601 H 0.59959 0.50666 0.23222 0.0
loop_
_geom_bond_atom_site_label_1
_geom_bond_atom_site_label_2
_geom_bond_distance
_geom_bond_site_symmetry_2
_ccdc_geom_bond_type
Zn0 O6 1.920 1_545 S
Zn0 O12 1.898 . S
Zn0 O15 1.905 1_545 S
Zn1 O9 1.905 . S
Zn1 O10 1.898 1_545 S
Zn1 O18 1.920 1_545 S
Zn2 O5 2.080 1_445 S
Zn2 O8 2.114 . S
Zn2 O11 2.120 1_545 S
Zn2 O13 2.120 1_455 S
Zn2 O14 2.114 1_554 S
Zn2 O17 2.080 . S
C3 O8 1.166 . S
C3 O9 1.182 . S
C4 O10 1.167 . S
C4 O11 1.299 . S
O5 Zn2 2.080 1_665 S
O5 C19 1.305 . S
O6 Zn0 1.920 1_565 S
O6 C19 1.234 1_556 S
C7 O12 1.167 . S
C7 O13 1.299 1_556 S
O8 Zn2 2.114 . S
O8 C3 1.166 . S
O9 Zn1 1.905 . S
O9 C3 1.182 . S
O10 Zn1 1.898 1_565 S
O10 C4 1.167 . S
O11 Zn2 2.120 1_565 S
O11 C4 1.299 . S
O12 Zn0 1.898 . S
O12 C7 1.167 . S
O13 Zn2 2.120 1_655 S
O13 C7 1.299 1_554 S
O14 Zn2 2.114 1_556 S
O14 C16 1.166 1_545 S
O15 Zn0 1.905 1_565 S
O15 C16 1.182 1_655 S
C16 O14 1.166 1_565 S
C16 O15 1.182 1_455 S
O17 Zn2 2.080 . S
O17 C20 1.305 1_545 S
O18 Zn1 1.920 1_565 S
O18 C20 1.234 . S
C19 O5 1.305 . S
C19 O6 1.234 1_554 S
C20 O17 1.305 1_565 S
C20 O18 1.234 . S
Zn21 O27 1.920 . S
Zn21 O33 1.898 . S
Zn21 O36 1.905 . S
Zn22 O30 1.905 . S
Zn22 O31 1.898 . S
Zn22 O39 1.920 . S
Zn23 O26 2.080 . S
Zn23 O29 2.114 . S
Zn23 O32 2.120 . S
Zn23 O34 2.120 . S
Zn23 O35 2.114 . S
Zn23 O38 2.080 . S
C24 O29 1.166 . S
C24 O30 1.182 . S
C25 O31 1.167 . S
C25 O32 1.299 . S
O26 Zn23 2.080 . S
O26 C40 1.305 . S
O27 Zn21 1.920 . S
O27 C40 1.234 . S
C28 O33 1.167 . S
C28 O34 1.299 . S
O29 Zn23 2.114 . S
O29 C24 1.166 . S
O30 Zn22 1.905 . S
O30 C24 1.182 . S
O31 Zn22 1.898 . S
O31 C25 1.167 . S
O32 Zn23 2.120 . S
O32 C25 1.299 . S
O33 Zn21 1.898 . S
O33 C28 1.167 . S
O34 Zn23 2.120 . S
O34 C28 1.299 . S
O35 Zn23 2.114 . S
O35 C37 1.166 . S
O36 Zn21 1.905 . S
O36 C37 1.182 . S
C37 O35 1.166 . S
C37 O36 1.182 . S
O38 Zn23 2.080 . S
O38 C41 1.305 . S
O39 Zn22 1.920 . S
O39 C41 1.234 . S
C40 O26 1.305 . S
C40 O27 1.234 . S
C41 O38 1.305 . S
C41 O39 1.234 . S
P42 O53 1.490 . S
P42 C56 1.812 . S
P42 C62 1.803 . S
P42 C68 1.819 . S
H43 C57 0.941 . S
H44 C58 0.939 . S
H45 C60 0.940 . S
H46 C61 0.940 . S
H47 C63 0.939 . S
H48 C64 0.942 . S
H49 C66 0.940 . S
H50 C67 0.938 1_545 S
H51 C69 0.941 . S
H52 C73 0.939 1_565 S
O53 P42 1.490 . S
H54 C70 0.939 . S
H55 C72 0.940 1_565 S
C56 P42 1.812 . S
C56 C57 1.389 . S
C56 C61 1.391 . S
C57 H43 0.941 . S
C57 C56 1.389 . S
C57 C58 1.397 . S
C58 H44 0.939 . S
C58 C57 1.397 . S
C58 C59 1.378 1_455 S
C59 C58 1.378 1_655 S
C59 C60 1.378 . S
C60 H45 0.940 . S
C60 C59 1.378 . S
C60 C61 1.396 1_655 S
C61 H46 0.940 . S
C61 C56 1.391 . S
C61 C60 1.396 1_455 S
C62 P42 1.803 . S
C62 C63 1.378 . S
C62 C67 1.400 1_545 S
C63 H47 0.939 . S
C63 C62 1.378 . S
C63 C64 1.361 1_545 S
C64 H48 0.942 . S
C64 C63 1.361 1_565 S
C64 C65 1.369 . S
C65 C64 1.369 . S
C65 C66 1.404 . S
C66 H49 0.940 . S
C66 C65 1.404 . S
C66 C67 1.389 . S
C67 H50 0.938 1_565 S
C67 C62 1.400 1_565 S
C67 C66 1.389 . S
C68 P42 1.819 . S
C68 C69 1.391 . S
C68 C73 1.391 . S
C69 H51 0.941 . S
C69 C68 1.391 . S
C69 C70 1.396 . S
C70 H54 0.939 . S
C70 C69 1.396 . S
C70 C71 1.397 . S
C71 C70 1.397 . S
C71 C72 1.385 . S
C72 H55 0.940 1_545 S
C72 C71 1.385 . S
C72 C73 1.388 . S
C73 H52 0.939 1_545 S
C73 C68 1.391 . S
C73 C72 1.388 . S
P74 O85 1.490 . S
P74 C88 1.812 1_455 S
P74 C94 1.803 1_565 S
P74 C100 1.814 1_565 S
H75 C89 0.941 1_455 S
H76 C90 0.939 . S
H77 C92 0.940 . S
H78 C93 0.940 1_545 S
H79 C95 0.939 . S
H80 C96 0.942 . S
H81 C98 0.940 . S
H82 C99 0.939 . S
H83 C101 0.941 . S
H84 C105 0.939 . S
O85 P74 1.490 . S
H86 C102 0.939 . S
H87 C104 0.940 . S
C88 P74 1.812 1_655 S
C88 C89 1.389 . S
C88 C93 1.391 . S
C89 H75 0.941 1_655 S
C89 C88 1.389 . S
C89 C90 1.397 . S
C90 H76 0.939 . S
C90 C89 1.397 . S
C90 C91 1.378 . S
C91 C90 1.378 . S
C91 C92 1.378 . S
C92 H77 0.940 . S
C92 C91 1.378 . S
C92 C93 1.396 . S
C93 H78 0.940 1_565 S
C93 C88 1.391 . S
C93 C92 1.396 . S
C94 P74 1.803 1_545 S
C94 C95 1.378 . S
C94 C99 1.400 . S
C95 H79 0.939 . S
C95 C94 1.378 . S
C95 C96 1.361 . S
C96 H80 0.942 . S
C96 C95 1.361 . S
C96 C97 1.369 . S
C97 C96 1.369 . S
C97 C98 1.404 . S
C98 H81 0.940 . S
C98 C97 1.404 . S
C98 C99 1.389 . S
C99 H82 0.939 . S
C99 C94 1.400 . S
C99 C98 1.389 . S
C100 P74 1.814 1_545 S
C100 C101 1.378 1_545 S
C100 C105 1.409 . S
C101 H83 0.941 . S
C101 C100 1.378 1_565 S
C101 C102 1.396 . S
C102 H86 0.939 . S
C102 C101 1.396 . S
C102 C103 1.397 1_565 S
C103 C102 1.397 1_545 S
C103 C104 1.385 . S
C104 H87 0.940 . S
C104 C103 1.385 . S
C104 C105 1.388 . S
C105 H84 0.939 . S
C105 C100 1.409 . S
C105 C104 1.388 . S
P106 O117 1.490 . S
P106 C120 1.812 . S
P106 C126 1.803 . S
P106 C132 1.819 . S
H107 C121 0.941 . S
H108 C122 0.939 . S
H109 C124 0.940 . S
H110 C125 0.940 . S
H111 C127 0.939 . S
H112 C128 0.942 . S
H113 C130 0.940 . S
H114 C131 0.939 . S
H115 C133 0.941 . S
H116 C137 0.939 . S
O117 P106 1.490 . S
H118 C134 0.939 . S
H119 C136 0.940 . S
C120 P106 1.812 . S
C120 C121 1.389 . S
C120 C125 1.391 . S
C121 H107 0.941 . S
C121 C120 1.389 . S
C121 C122 1.397 . S
C122 H108 0.939 . S
C122 C121 1.397 . S
C122 C123 1.378 . S
C123 C122 1.378 . S
C123 C124 1.378 . S
C124 H109 0.940 . S
C124 C123 1.378 . S
C124 C125 1.396 . S
C125 H110 0.940 . S
C125 C120 1.391 . S
C125 C124 1.396 . S
C126 P106 1.803 . S
C126 C127 1.378 . S
C126 C131 1.400 . S
C127 H111 0.939 . S
C127 C126 1.378 . S
C127 C128 1.361 . S
C128 H112 0.942 . S
C128 C127 1.361 . S
C128 C129 1.369 . S
C129 C128 1.369 . S
C129 C130 1.404 . S
C130 H113 0.940 . S
C130 C129 1.404 . S
C130 C131 1.389 . S
C131 H114 0.939 . S
C131 C126 1.400 . S
C131 C130 1.389 . S
C132 P106 1.819 . S
C132 C133 1.391 . S
C132 C137 1.391 . S
C133 H115 0.941 . S
C133 C132 1.391 . S
C133 C134 1.396 . S
C134 H118 0.939 . S
C134 C133 1.396 . S
C134 C135 1.397 . S
C135 C134 1.397 . S
C135 C136 1.385 . S
C136 H119 0.940 . S
C136 C135 1.385 . S
C136 C137 1.388 . S
C137 H116 0.939 . S
C137 C132 1.391 . S
C137 C136 1.388 . S
P138 O149 1.490 . S
P138 C152 1.812 . S
P138 C158 1.803 . S
P138 C164 1.819 . S
H139 C153 0.941 . S
H140 C154 0.939 . S
H141 C156 0.940 . S
H142 C157 0.940 . S
H143 C159 0.939 . S
H144 C160 0.942 . S
H145 C162 0.940 . S
H146 C163 0.939 . S
H147 C165 0.941 . S
H148 C169 0.939 . S
O149 P138 1.490 . S
H150 C166 0.939 . S
H151 C168 0.940 . S
C152 P138 1.812 . S
C152 C153 1.389 . S
C152 C157 1.391 . S
C153 H139 0.941 . S
C153 C152 1.389 . S
C153 C154 1.397 . S
C154 H140 0.939 . S
C154 C153 1.397 . S
C154 C155 1.378 . S
C155 C154 1.378 . S
C155 C156 1.378 . S
C156 H141 0.940 . S
C156 C155 1.378 . S
C156 C157 1.396 . S
C157 H142 0.940 . S
C157 C152 1.391 . S
C157 C156 1.396 . S
C158 P138 1.803 . S
C158 C159 1.378 . S
C158 C163 1.400 . S
C159 H143 0.939 . S
C159 C158 1.378 . S
C159 C160 1.361 . S
C160 H144 0.942 . S
C160 C159 1.361 . S
C160 C161 1.369 . S
C161 C160 1.369 . S
C161 C162 1.404 . S
C162 H145 0.940 . S
C162 C161 1.404 . S
C162 C163 1.389 . S
C163 H146 0.939 . S
C163 C158 1.400 . S
C163 C162 1.389 . S
C164 P138 1.819 . S
C164 C165 1.391 . S
C164 C169 1.391 . S
C165 H147 0.941 . S
C165 C164 1.391 . S
C165 C166 1.396 . S
C166 H150 0.939 . S
C166 C165 1.396 . S
C166 C167 1.397 . S
C167 C166 1.397 . S
C167 C168 1.385 . S
C168 H151 0.940 . S
C168 C167 1.385 . S
C168 C169 1.388 . S
C169 H148 0.939 . S
C169 C164 1.391 . S
C169 C168 1.388 . S
H170 C178 0.929 . S
H171 C180 0.930 . S
H172 C182 0.930 1_556 S
H173 C185 0.929 1_556 S
H174 C188 0.930 . S
H175 C190 0.960 . S
H176 C190 0.960 . S
H177 C190 0.960 1_556 S
C178 H170 0.929 . S
C178 C179 1.377 . S
C178 C180 1.384 . S
C179 C178 1.377 . S
C179 C185 1.390 . S
C180 H171 0.930 . S
C180 C178 1.384 . S
C180 C181 1.372 . S
C181 C180 1.372 . S
C181 C182 1.400 . S
C181 C186 1.490 . S
C182 H172 0.930 1_554 S
C182 C181 1.400 . S
C182 C185 1.386 . S
H183 C199 0.930 . S
H184 C200 0.931 . S
C185 H173 0.929 1_554 S
C185 C179 1.390 . S
C185 C182 1.386 . S
C186 C181 1.490 . S
C186 C188 1.395 . S
C186 C189 1.403 . S
H187 C193 0.930 . S
C188 H174 0.930 . S
C188 C186 1.395 . S
C188 C191 1.403 . S
C189 C186 1.403 . S
C189 C190 1.524 . S
C189 C193 1.400 . S
C190 H175 0.960 . S
C190 H176 0.960 . S
C190 H177 0.960 1_554 S
C190 C189 1.524 . S
C191 C188 1.403 . S
C191 C192 1.392 . S
C191 C195 1.495 . S
C192 C191 1.392 . S
C192 C193 1.385 . S
C192 C194 1.478 . S
C193 H187 0.930 . S
C193 C189 1.400 . S
C193 C192 1.385 . S
C194 C192 1.478 . S
C194 C196 1.381 . S
C194 C200 1.383 . S
C195 C191 1.495 . S
C195 H201 0.959 . S
C195 H202 0.961 . S
C195 H203 0.960 . S
C196 C194 1.381 . S
C196 C197 1.394 . S
C196 H204 0.930 . S
C197 C196 1.394 . S
C197 C198 1.383 . S
C197 H205 0.929 . S
C198 C197 1.383 . S
C198 C199 1.377 . S
C199 H183 0.930 . S
C199 C198 1.377 . S
C199 C200 1.379 . S
C200 H184 0.931 . S
C200 C194 1.383 . S
C200 C199 1.379 . S
H201 C195 0.959 . S
H202 C195 0.961 . S
H203 C195 0.960 . S
H204 C196 0.930 . S
H205 C197 0.929 . S
H206 C214 0.929 . S
H207 C216 0.930 . S
H208 C218 0.930 1_554 S
H209 C221 0.929 . S
H210 C224 0.930 . S
H211 C226 0.960 . S
H212 C226 0.960 . S
H213 C226 0.960 . S
C214 H206 0.929 . S
C214 C215 1.377 . S
C214 C216 1.384 . S
C215 C214 1.377 . S
C215 C221 1.390 1_556 S
C216 H207 0.930 . S
C216 C214 1.384 . S
C216 C217 1.372 . S
C217 C216 1.372 . S
C217 C218 1.400 . S
C217 C222 1.490 . S
C218 H208 0.930 1_556 S
C218 C217 1.400 . S
C218 C221 1.386 1_556 S
H219 C235 0.930 . S
H220 C236 0.931 . S
C221 H209 0.929 . S
C221 C215 1.390 1_554 S
C221 C218 1.386 1_554 S
C222 C217 1.490 . S
C222 C224 1.395 . S
C222 C225 1.403 . S
H223 C229 0.930 . S
C224 H210 0.930 . S
C224 C222 1.395 . S
C224 C227 1.403 . S
C225 C222 1.403 . S
C225 C226 1.524 . S
C225 C229 1.400 . S
C226 H211 0.960 . S
C226 H212 0.960 . S
C226 H213 0.960 . S
C226 C225 1.524 . S
C227 C224 1.403 . S
C227 C228 1.392 . S
C227 C231 1.495 . S
C228 C227 1.392 . S
C228 C229 1.385 . S
C228 C230 1.478 . S
C229 H223 0.930 . S
C229 C225 1.400 . S
C229 C228 1.385 . S
C230 C228 1.478 . S
C230 C232 1.381 . S
C230 C236 1.383 . S
C231 C227 1.495 . S
C231 H237 0.959 . S
C231 H238 0.961 . S
C231 H239 0.960 . S
C232 C230 1.381 . S
C232 C233 1.394 . S
C232 H240 0.930 . S
C233 C232 1.394 . S
C233 C234 1.383 . S
C233 H241 0.929 . S
C234 C233 1.383 . S
C234 C235 1.377 . S
C235 H219 0.930 . S
C235 C234 1.377 . S
C235 C236 1.379 . S
C236 H220 0.931 . S
C236 C230 1.383 . S
C236 C235 1.379 . S
H237 C231 0.959 . S
H238 C231 0.961 . S
H239 C231 0.960 . S
H240 C232 0.930 . S
H241 C233 0.929 . S
H242 C250 0.929 1_556 S
H243 C252 0.903 1_556 S
H244 C254 0.930 . S
H245 C257 0.929 . S
H246 C260 0.930 . S
H247 C262 0.960 . S
H248 C262 0.960 . S
H249 C262 0.960 . S
C250 H242 0.929 1_554 S
C250 C251 1.377 . S
C250 C252 1.384 . S
C251 C250 1.377 . S
C251 C257 1.390 . S
C252 H243 0.903 1_554 S
C252 C250 1.384 . S
C252 C253 1.372 . S
C253 C252 1.372 . S
C253 C254 1.400 . S
C253 C258 1.490 . S
C254 H244 0.930 . S
C254 C253 1.400 . S
C254 C257 1.386 . S
H255 C271 0.930 . S
H256 C272 0.931 . S
C257 H245 0.929 . S
C257 C251 1.390 . S
C257 C254 1.386 . S
C258 C253 1.490 . S
C258 C260 1.395 . S
C258 C261 1.403 . S
H259 C265 0.930 . S
C260 H246 0.930 . S
C260 C258 1.395 . S
C260 C263 1.403 . S
C261 C258 1.403 . S
C261 C262 1.524 . S
C261 C265 1.400 . S
C262 H247 0.960 . S
C262 H248 0.960 . S
C262 H249 0.960 . S
C262 C261 1.524 . S
C263 C260 1.403 . S
C263 C264 1.392 . S
C263 C267 1.495 . S
C264 C263 1.392 . S
C264 C265 1.385 . S
C264 C266 1.478 . S
C265 H259 0.930 . S
C265 C261 1.400 . S
C265 C264 1.385 . S
C266 C264 1.478 . S
C266 C268 1.381 . S
C266 C272 1.383 . S
C267 C263 1.495 . S
C267 H273 0.959 . S
C267 H274 0.961 . S
C267 H275 0.960 . S
C268 C266 1.381 . S
C268 C269 1.394 . S
C268 H276 0.930 . S
C269 C268 1.394 . S
C269 C270 1.383 . S
C269 H277 0.929 . S
C270 C269 1.383 . S
C270 C271 1.377 . S
C271 H255 0.930 . S
C271 C270 1.377 . S
C271 C272 1.379 . S
C272 H256 0.931 . S
C272 C266 1.383 . S
C272 C271 1.379 . S
H273 C267 0.959 . S
H274 C267 0.961 . S
H275 C267 0.960 . S
H276 C268 0.930 . S
H277 C269 0.929 . S
H278 C286 0.929 . S
H279 C288 0.930 . S
H280 C290 0.930 . S
H281 C293 0.929 1_554 S
H282 C296 0.930 1_554 S
H283 C298 0.960 . S
H284 C298 0.960 . S
H285 C298 0.960 . S
C286 H278 0.929 . S
C286 C287 1.377 . S
C286 C288 1.384 . S
C287 C286 1.377 . S
C287 C293 1.390 . S
C288 H279 0.930 . S
C288 C286 1.384 . S
C288 C289 1.372 . S
C289 C288 1.372 . S
C289 C290 1.400 . S
C289 C294 1.490 . S
C290 H280 0.930 . S
C290 C289 1.400 . S
C290 C293 1.386 . S
H291 C307 0.930 . S
H292 C308 0.931 . S
C293 H281 0.929 1_556 S
C293 C287 1.390 . S
C293 C290 1.386 . S
C294 C289 1.490 . S
C294 C296 1.395 . S
C294 C297 1.403 . S
H295 C301 0.930 . S
C296 H282 0.930 1_556 S
C296 C294 1.395 . S
C296 C299 1.403 . S
C297 C294 1.403 . S
C297 C298 1.524 . S
C297 C301 1.400 . S
C298 H283 0.960 . S
C298 H284 0.960 . S
C298 H285 0.960 . S
C298 C297 1.524 . S
C299 C296 1.403 . S
C299 C300 1.392 . S
C299 C303 1.495 1_556 S
C300 C299 1.392 . S
C300 C301 1.385 . S
C300 C302 1.478 . S
C301 H295 0.930 . S
C301 C297 1.400 . S
C301 C300 1.385 . S
C302 C300 1.478 . S
C302 C304 1.381 . S
C302 C308 1.383 . S
C303 C299 1.495 1_554 S
C303 H309 0.959 . S
C303 H310 0.961 . S
C303 H311 0.960 1_554 S
C304 C302 1.381 . S
C304 C305 1.394 . S
C304 H312 0.930 . S
C305 C304 1.394 . S
C305 C306 1.383 . S
C305 H313 0.929 . S
C306 C305 1.383 . S
C306 C307 1.377 . S
C307 H291 0.930 . S
C307 C306 1.377 . S
C307 C308 1.379 . S
C308 H292 0.931 . S
C308 C302 1.383 . S
C308 C307 1.379 . S
H309 C303 0.959 . S
H310 C303 0.961 . S
H311 C303 0.960 1_556 S
H312 C304 0.930 . S
H313 C305 0.929 . S
H314 C322 0.929 . S
H315 C324 0.930 . S
H316 C326 0.930 . S
H317 C329 0.929 . S
H318 C332 0.930 . S
H319 C334 0.960 . S
H320 C334 0.960 . S
H321 C334 0.960 . S
C322 H314 0.929 . S
C322 C323 1.377 . S
C322 C324 1.384 . S
C323 C322 1.377 . S
C323 C329 1.390 . S
C324 H315 0.930 . S
C324 C322 1.384 . S
C324 C325 1.372 . S
C325 C324 1.372 . S
C325 C326 1.400 . S
C325 C330 1.490 . S
C326 H316 0.930 . S
C326 C325 1.400 . S
C326 C329 1.386 . S
H327 C343 0.930 . S
H328 C344 0.931 . S
C329 H317 0.929 . S
C329 C323 1.390 . S
C329 C326 1.386 . S
C330 C325 1.490 . S
C330 C332 1.395 . S
C330 C333 1.403 . S
H331 C337 0.930 . S
C332 H318 0.930 . S
C332 C330 1.395 . S
C332 C335 1.403 . S
C333 C330 1.403 . S
C333 C334 1.524 . S
C333 C337 1.400 . S
C334 H319 0.960 . S
C334 H320 0.960 . S
C334 H321 0.960 . S
C334 C333 1.524 . S
C335 C332 1.403 . S
C335 C336 1.392 . S
C335 C339 1.495 . S
C336 C335 1.392 . S
C336 C337 1.385 . S
C336 C338 1.478 . S
C337 H331 0.930 . S
C337 C333 1.400 . S
C337 C336 1.385 . S
C338 C336 1.478 . S
C338 C340 1.381 . S
C338 C344 1.383 . S
C339 C335 1.495 . S
C339 H345 0.959 . S
C339 H346 0.961 . S
C339 H347 0.960 . S
C340 C338 1.381 . S
C340 C341 1.394 . S
C340 H348 0.930 . S
C341 C340 1.394 . S
C341 C342 1.383 . S
C341 H349 0.929 . S
C342 C341 1.383 . S
C342 C343 1.377 . S
C343 H327 0.930 . S
C343 C342 1.377 . S
C343 C344 1.379 . S
C344 H328 0.931 . S
C344 C338 1.383 . S
C344 C343 1.379 . S
H345 C339 0.959 . S
H346 C339 0.961 . S
H347 C339 0.960 . S
H348 C340 0.930 . S
H349 C341 0.929 . S
H350 C358 0.929 . S
H351 C360 0.930 . S
H352 C362 0.930 . S
H353 C365 0.929 . S
H354 C368 0.930 . S
H355 C370 0.960 . S
H356 C370 0.960 . S
H357 C370 0.960 . S
C358 H350 0.929 . S
C358 C359 1.377 . S
C358 C360 1.384 . S
C359 C358 1.377 . S
C359 C365 1.390 . S
C360 H351 0.930 . S
C360 C358 1.384 . S
C360 C361 1.372 . S
C361 C360 1.372 . S
C361 C362 1.400 . S
C361 C366 1.490 . S
C362 H352 0.930 . S
C362 C361 1.400 . S
C362 C365 1.386 . S
H363 C379 0.930 . S
H364 C380 0.931 . S
C365 H353 0.929 . S
C365 C359 1.390 . S
C365 C362 1.386 . S
C366 C361 1.490 . S
C366 C368 1.395 . S
C366 C369 1.403 . S
H367 C373 0.930 . S
C368 H354 0.930 . S
C368 C366 1.395 . S
C368 C371 1.403 . S
C369 C366 1.403 . S
C369 C370 1.524 . S
C369 C373 1.400 . S
C370 H355 0.960 . S
C370 H356 0.960 . S
C370 H357 0.960 . S
C370 C369 1.524 . S
C371 C368 1.403 . S
C371 C372 1.392 . S
C371 C375 1.495 . S
C372 C371 1.392 . S
C372 C373 1.385 . S
C372 C374 1.478 . S
C373 H367 0.930 . S
C373 C369 1.400 . S
C373 C372 1.385 . S
C374 C372 1.478 . S
C374 C376 1.381 . S
C374 C380 1.383 . S
C375 C371 1.495 . S
C375 H381 0.959 . S
C375 H382 0.961 . S
C375 H383 0.960 . S
C376 C374 1.381 . S
C376 C377 1.394 . S
C376 H384 0.930 . S
C377 C376 1.394 . S
C377 C378 1.383 . S
C377 H385 0.929 . S
C378 C377 1.383 . S
C378 C379 1.377 . S
C379 H363 0.930 . S
C379 C378 1.377 . S
C379 C380 1.379 . S
C380 H364 0.931 . S
C380 C374 1.383 . S
C380 C379 1.379 . S
H381 C375 0.959 . S
H382 C375 0.961 . S
H383 C375 0.960 . S
H384 C376 0.930 . S
H385 C377 0.929 . S
H386 C394 0.929 . S
H387 C396 0.930 . S
H388 C398 0.930 . S
H389 C401 0.929 . S
H390 C404 0.930 . S
H391 C406 0.960 . S
H392 C406 0.960 . S
H393 C406 0.960 . S
C394 H386 0.929 . S
C394 C395 1.377 . S
C394 C396 1.384 . S
C395 C394 1.377 . S
C395 C401 1.390 . S
C396 H387 0.930 . S
C396 C394 1.384 . S
C396 C397 1.372 . S
C397 C396 1.372 . S
C397 C398 1.400 . S
C397 C402 1.490 . S
C398 H388 0.930 . S
C398 C397 1.400 . S
C398 C401 1.386 . S
H399 C415 0.930 . S
H400 C416 0.931 . S
C401 H389 0.929 . S
C401 C395 1.390 . S
C401 C398 1.386 . S
C402 C397 1.490 . S
C402 C404 1.395 . S
C402 C405 1.403 . S
H403 C409 0.930 . S
C404 H390 0.930 . S
C404 C402 1.395 . S
C404 C407 1.403 . S
C405 C402 1.403 . S
C405 C406 1.524 . S
C405 C409 1.400 . S
C406 H391 0.960 . S
C406 H392 0.960 . S
C406 H393 0.960 . S
C406 C405 1.524 . S
C407 C404 1.403 . S
C407 C408 1.392 . S
C407 C411 1.495 . S
C408 C407 1.392 . S
C408 C409 1.385 . S
C408 C410 1.478 . S
C409 H403 0.930 . S
C409 C405 1.400 . S
C409 C408 1.385 . S
C410 C408 1.478 . S
C410 C412 1.381 . S
C410 C416 1.383 . S
C411 C407 1.495 . S
C411 H417 0.959 . S
C411 H418 0.961 . S
C411 H419 0.960 . S
C412 C410 1.381 . S
C412 C413 1.394 . S
C412 H420 0.930 . S
C413 C412 1.394 . S
C413 C414 1.383 . S
C413 H421 0.929 . S
C414 C413 1.383 . S
C414 C415 1.377 . S
C415 H399 0.930 . S
C415 C414 1.377 . S
C415 C416 1.379 . S
C416 H400 0.931 . S
C416 C410 1.383 . S
C416 C415 1.379 . S
H417 C411 0.959 . S
H418 C411 0.961 . S
H419 C411 0.960 . S
H420 C412 0.930 . S
H421 C413 0.929 . S
H422 C430 0.929 . S
H423 C432 0.930 . S
H424 C434 0.930 . S
H425 C437 0.929 . S
H426 C440 0.930 . S
H427 C442 0.960 . S
H428 C442 0.960 . S
H429 C442 0.960 . S
C430 H422 0.929 . S
C430 C431 1.377 . S
C430 C432 1.384 . S
C431 C430 1.377 . S
C431 C437 1.390 . S
C432 H423 0.930 . S
C432 C430 1.384 . S
C432 C433 1.372 . S
C433 C432 1.372 . S
C433 C434 1.400 . S
C433 C438 1.490 . S
C434 H424 0.930 . S
C434 C433 1.400 . S
C434 C437 1.386 . S
H435 C451 0.930 . S
H436 C452 0.931 . S
C437 H425 0.929 . S
C437 C431 1.390 . S
C437 C434 1.386 . S
C438 C433 1.490 . S
C438 C440 1.395 . S
C438 C441 1.403 . S
H439 C445 0.930 . S
C440 H426 0.930 . S
C440 C438 1.395 . S
C440 C443 1.403 . S
C441 C438 1.403 . S
C441 C442 1.524 . S
C441 C445 1.400 . S
C442 H427 0.960 . S
C442 H428 0.960 . S
C442 H429 0.960 . S
C442 C441 1.524 . S
C443 C440 1.403 . S
C443 C444 1.392 . S
C443 C447 1.495 . S
C444 C443 1.392 . S
C444 C445 1.385 . S
C444 C446 1.478 . S
C445 H439 0.930 . S
C445 C441 1.400 . S
C445 C444 1.385 . S
C446 C444 1.478 . S
C446 C448 1.381 . S
C446 C452 1.383 . S
C447 C443 1.495 . S
C447 H453 0.959 . S
C447 H454 0.961 . S
C447 H455 0.960 . S
C448 C446 1.381 . S
C448 C449 1.394 . S
C448 H456 0.930 . S
C449 C448 1.394 . S
C449 C450 1.383 . S
C449 H457 0.929 . S
C450 C449 1.383 . S
C450 C451 1.377 . S
C451 H435 0.930 . S
C451 C450 1.377 . S
C451 C452 1.379 . S
C452 H436 0.931 . S
C452 C446 1.383 . S
C452 C451 1.379 . S
H453 C447 0.959 . S
H454 C447 0.961 . S
H455 C447 0.960 . S
H456 C448 0.930 . S
H457 C449 0.929 . S
H458 C466 0.929 1_655 S
H459 C468 0.930 1_655 S
H460 C470 0.930 . S
H461 C473 0.929 . S
H462 C476 0.930 1_655 S
H463 C478 0.960 . S
H464 C478 0.960 . S
H465 C478 0.960 . S
C466 H458 0.929 1_455 S
C466 C467 1.377 1_545 S
C466 C468 1.384 . S
C467 C466 1.377 1_565 S
C467 C473 1.390 . S
C468 H459 0.930 1_455 S
C468 C466 1.384 . S
C468 C469 1.372 . S
C469 C468 1.372 . S
C469 C470 1.400 1_545 S
C469 C474 1.490 . S
C470 H460 0.930 . S
C470 C469 1.400 1_565 S
C470 C473 1.386 . S
H471 C487 0.930 1_565 S
H472 C488 0.931 . S
C473 H461 0.929 . S
C473 C467 1.390 . S
C473 C470 1.386 . S
C474 C469 1.490 . S
C474 C476 1.395 1_545 S
C474 C477 1.403 . S
H475 C481 0.930 . S
C476 H462 0.930 1_455 S
C476 C474 1.395 1_565 S
C476 C479 1.403 . S
C477 C474 1.403 . S
C477 C478 1.524 . S
C477 C481 1.400 . S
C478 H463 0.960 . S
C478 H464 0.960 . S
C478 H465 0.960 . S
C478 C477 1.524 . S
C479 C476 1.403 . S
C479 C480 1.392 1_565 S
C479 C483 1.495 1_455 S
C480 C479 1.392 1_545 S
C480 C481 1.385 . S
C480 C482 1.478 . S
C481 H475 0.930 . S
C481 C477 1.400 . S
C481 C480 1.385 . S
C482 C480 1.478 . S
C482 C484 1.381 . S
C482 C488 1.383 1_545 S
C483 C479 1.495 1_655 S
C483 H489 0.959 . S
C483 H490 0.961 . S
C483 H491 0.960 1_565 S
C484 C482 1.381 . S
C484 C485 1.394 . S
C484 H492 0.930 . S
C485 C484 1.394 . S
C485 C486 1.383 . S
C485 H493 0.929 . S
C486 C485 1.383 . S
C486 C487 1.377 . S
C487 H471 0.930 1_545 S
C487 C486 1.377 . S
C487 C488 1.379 1_545 S
C488 H472 0.931 . S
C488 C482 1.383 1_565 S
C488 C487 1.379 1_565 S
H489 C483 0.959 . S
H490 C483 0.961 . S
H491 C483 0.960 1_545 S
H492 C484 0.930 . S
H493 C485 0.929 . S
H494 C502 0.929 . S
H495 C504 0.930 . S
H496 C506 0.930 . S
H497 C509 0.930 . S
H498 C512 0.930 . S
H499 C514 0.960 . S
H500 C514 0.960 1_455 S
H501 C514 0.960 . S
C502 H494 0.929 . S
C502 C503 1.377 . S
C502 C504 1.384 . S
C503 C502 1.377 . S
C503 C509 1.390 1_455 S
C504 H495 0.930 . S
C504 C502 1.384 . S
C504 C505 1.372 . S
C505 C504 1.372 . S
C505 C506 1.400 1_465 S
C505 C510 1.490 1_565 S
C506 H496 0.930 . S
C506 C505 1.400 1_645 S
C506 C509 1.386 1_545 S
H507 C523 0.930 . S
H508 C524 0.931 . S
C509 H497 0.930 . S
C509 C503 1.390 1_655 S
C509 C506 1.386 1_565 S
C510 C505 1.490 1_545 S
C510 C512 1.395 1_545 S
C510 C513 1.403 . S
H511 C517 0.930 1_655 S
C512 H498 0.930 . S
C512 C510 1.395 1_565 S
C512 C515 1.403 . S
C513 C510 1.403 . S
C513 C514 1.524 1_455 S
C513 C517 1.400 . S
C514 H499 0.960 . S
C514 H500 0.960 1_655 S
C514 H501 0.960 . S
C514 C513 1.524 1_655 S
C515 C512 1.403 . S
C515 C516 1.392 1_565 S
C515 C519 1.495 . S
C516 C515 1.392 1_545 S
C516 C517 1.385 . S
C516 C518 1.478 . S
C517 H511 0.930 1_455 S
C517 C513 1.400 . S
C517 C516 1.385 . S
C518 C516 1.478 . S
C518 C520 1.381 . S
C518 C524 1.383 1_455 S
C519 C515 1.495 . S
C519 H525 0.959 . S
C519 H526 0.961 . S
C519 H527 0.960 . S
C520 C518 1.381 . S
C520 C521 1.394 . S
C520 H528 0.930 . S
C521 C520 1.394 . S
C521 C522 1.383 . S
C521 H529 0.929 . S
C522 C521 1.383 . S
C522 C523 1.377 1_455 S
C523 H507 0.930 . S
C523 C522 1.377 1_655 S
C523 C524 1.379 . S
C524 H508 0.931 . S
C524 C518 1.383 1_655 S
C524 C523 1.379 . S
H525 C519 0.959 . S
H526 C519 0.961 . S
H527 C519 0.960 . S
H528 C520 0.930 . S
H529 C521 0.929 . S
H530 C538 0.929 . S
H531 C540 0.930 . S
H532 C542 0.930 . S
H533 C545 0.929 . S
H534 C548 0.930 . S
H535 C550 0.960 . S
H536 C550 0.960 . S
H537 C550 0.960 . S
C538 H530 0.929 . S
C538 C539 1.377 . S
C538 C540 1.384 . S
C539 C538 1.377 . S
C539 C545 1.390 . S
C540 H531 0.930 . S
C540 C538 1.384 . S
C540 C541 1.372 . S
C541 C540 1.372 . S
C541 C542 1.400 . S
C541 C546 1.490 . S
C542 H532 0.930 . S
C542 C541 1.400 . S
C542 C545 1.386 . S
H543 C559 0.930 . S
H544 C560 0.931 . S
C545 H533 0.929 . S
C545 C539 1.390 . S
C545 C542 1.386 . S
C546 C541 1.490 . S
C546 C548 1.395 . S
C546 C549 1.403 . S
H547 C553 0.930 . S
C548 H534 0.930 . S
C548 C546 1.395 . S
C548 C551 1.403 . S
C549 C546 1.403 . S
C549 C550 1.524 . S
C549 C553 1.400 . S
C550 H535 0.960 . S
C550 H536 0.960 . S
C550 H537 0.960 . S
C550 C549 1.524 . S
C551 C548 1.403 . S
C551 C552 1.392 . S
C551 C555 1.495 . S
C552 C551 1.392 . S
C552 C553 1.385 . S
C552 C554 1.478 . S
C553 H547 0.930 . S
C553 C549 1.400 . S
C553 C552 1.385 . S
C554 C552 1.478 . S
C554 C556 1.381 . S
C554 C560 1.383 . S
C555 C551 1.495 . S
C555 H561 0.959 . S
C555 H562 0.961 . S
C555 H563 0.960 . S
C556 C554 1.381 . S
C556 C557 1.394 . S
C556 H564 0.930 . S
C557 C556 1.394 . S
C557 C558 1.383 . S
C557 H565 0.929 . S
C558 C557 1.383 . S
C558 C559 1.377 . S
C559 H543 0.930 . S
C559 C558 1.377 . S
C559 C560 1.379 . S
C560 H544 0.931 . S
C560 C554 1.383 . S
C560 C559 1.379 . S
H561 C555 0.959 . S
H562 C555 0.961 . S
H563 C555 0.960 . S
H564 C556 0.930 . S
H565 C557 0.929 . S
H566 C574 0.929 . S
H567 C576 0.930 . S
H568 C578 0.930 . S
H569 C581 0.929 . S
H570 C584 0.930 . S
H571 C586 0.960 . S
H572 C586 0.960 . S
H573 C586 0.960 . S
C574 H566 0.929 . S
C574 C575 1.377 . S
C574 C576 1.384 . S
C575 C574 1.377 . S
C575 C581 1.390 . S
C576 H567 0.930 . S
C576 C574 1.384 . S
C576 C577 1.372 . S
C577 C576 1.372 . S
C577 C578 1.400 . S
C577 C582 1.490 . S
C578 H568 0.930 . S
C578 C577 1.400 . S
C578 C581 1.386 . S
H579 C595 0.930 . S
H580 C596 0.931 . S
C581 H569 0.929 . S
C581 C575 1.390 . S
C581 C578 1.386 . S
C582 C577 1.490 . S
C582 C584 1.395 . S
C582 C585 1.403 . S
H583 C589 0.930 . S
C584 H570 0.930 . S
C584 C582 1.395 . S
C584 C587 1.403 . S
C585 C582 1.403 . S
C585 C586 1.524 . S
C585 C589 1.400 . S
C586 H571 0.960 . S
C586 H572 0.960 . S
C586 H573 0.960 . S
C586 C585 1.524 . S
C587 C584 1.403 . S
C587 C588 1.392 . S
C587 C591 1.495 . S
C588 C587 1.392 . S
C588 C589 1.385 . S
C588 C590 1.478 . S
C589 H583 0.930 . S
C589 C585 1.400 . S
C589 C588 1.385 . S
C590 C588 1.478 . S
C590 C592 1.381 . S
C590 C596 1.383 . S
C591 C587 1.495 . S
C591 H597 0.959 . S
C591 H598 0.961 . S
C591 H599 0.960 . S
C592 C590 1.381 . S
C592 C593 1.394 . S
C592 H600 0.930 . S
C593 C592 1.394 . S
C593 C594 1.383 . S
C593 H601 0.929 . S
C594 C593 1.383 . S
C594 C595 1.377 . S
C595 H579 0.930 . S
C595 C594 1.377 . S
C595 C596 1.379 . S
C596 H580 0.931 . S
C596 C590 1.383 . S
C596 C595 1.379 . S
H597 C591 0.959 . S
H598 C591 0.961 . S
H599 C591 0.960 . S
H600 C592 0.930 . S
H601 C593 0.929 . S
C198 C155 1.103 . S
C179 C3 1.046 . S
C215 C4 1.501 1_556 S
C234 C123 1.573 . S
C251 C19 1.512 . S
C270 C161 1.560 . S
C287 C7 1.027 . S
C306 C129 1.162 . S
C323 C37 1.035 . S
C342 C91 1.158 . S
C359 C28 1.501 . S
C378 C59 1.574 . S
C414 C97 1.596 . S
C395 C41 1.522 . S
C450 C65 1.117 . S
C431 C25 1.048 . S
C467 C20 1.275 . S
C486 C71 1.429 . S
C503 C16 1.335 . S
C522 C103 1.414 . S
C558 C135 1.425 . S
C539 C40 1.269 . S
C575 C24 1.323 . S
C594 C167 1.435 . S
