# Generated by pormake.
# Topology bwt, (3,3)-cn, num edge types: 1
# Building blocks:
#     Node 0, Type 0, BuildingBlock: WUSLED_clean_sbu_0, # of connection points: 3
#     Node 1, Type 0, BuildingBlock: WUSLED_clean_sbu_0, # of connection points: 3
#     Node 2, Type 0, BuildingBlock: WUSLED_clean_sbu_0, # of connection points: 3
#     Node 3, Type 0, BuildingBlock: WUSLED_clean_sbu_0, # of connection points: 3
#     Node 4, Type 0, BuildingBlock: WUSLED_clean_sbu_0, # of connection points: 3
#     Node 5, Type 0, BuildingBlock: WUSLED_clean_sbu_0, # of connection points: 3
#     Node 6, Type 0, BuildingBlock: WUSLED_clean_sbu_0, # of connection points: 3
#     Node 7, Type 0, BuildingBlock: WUSLED_clean_sbu_0, # of connection points: 3
#     Node 8, Type 0, BuildingBlock: WUSLED_clean_sbu_0, # of connection points: 3
#     Node 9, Type 0, BuildingBlock: WUSLED_clean_sbu_0, # of connection points: 3
#     Node 10, Type 0, BuildingBlock: WUSLED_clean_sbu_0, # of connection points: 3
#     Node 11, Type 0, BuildingBlock: WUSLED_clean_sbu_0, # of connection points: 3
#     Node 12, Type 0, BuildingBlock: WUSLED_clean_sbu_0, # of connection points: 3
#     Node 13, Type 0, BuildingBlock: WUSLED_clean_sbu_0, # of connection points: 3
#     Node 14, Type 0, BuildingBlock: WUSLED_clean_sbu_0, # of connection points: 3
#     Node 15, Type 0, BuildingBlock: WUSLED_clean_sbu_0, # of connection points: 3
#     Node 16, Type 0, BuildingBlock: WUSLED_clean_sbu_0, # of connection points: 3
#     Node 17, Type 0, BuildingBlock: WUSLED_clean_sbu_0, # of connection points: 3
#     Node 18, Type 0, BuildingBlock: WUSLED_clean_sbu_0, # of connection points: 3
#     Node 19, Type 0, BuildingBlock: WUSLED_clean_sbu_0, # of connection points: 3
#     Node 20, Type 0, BuildingBlock: WUSLED_clean_sbu_0, # of connection points: 3
#     Node 21, Type 0, BuildingBlock: WUSLED_clean_sbu_0, # of connection points: 3
#     Node 22, Type 0, BuildingBlock: WUSLED_clean_sbu_0, # of connection points: 3
#     Node 23, Type 0, BuildingBlock: WUSLED_clean_sbu_0, # of connection points: 3
#     Node 24, Type 1, BuildingBlock: BETDAH_clean_linker_0, # of connection points: 3
#     Node 25, Type 1, BuildingBlock: BETDAH_clean_linker_0, # of connection points: 3
#     Node 26, Type 1, BuildingBlock: BETDAH_clean_linker_0, # of connection points: 3
#     Node 27, Type 1, BuildingBlock: BETDAH_clean_linker_0, # of connection points: 3
#     Node 28, Type 1, BuildingBlock: BETDAH_clean_linker_0, # of connection points: 3
#     Node 29, Type 1, BuildingBlock: BETDAH_clean_linker_0, # of connection points: 3
#     Node 30, Type 1, BuildingBlock: BETDAH_clean_linker_0, # of connection points: 3
#     Node 31, Type 1, BuildingBlock: BETDAH_clean_linker_0, # of connection points: 3
#     Node 32, Type 1, BuildingBlock: BETDAH_clean_linker_0, # of connection points: 3
#     Node 33, Type 1, BuildingBlock: BETDAH_clean_linker_0, # of connection points: 3
#     Node 34, Type 1, BuildingBlock: BETDAH_clean_linker_0, # of connection points: 3
#     Node 35, Type 1, BuildingBlock: BETDAH_clean_linker_0, # of connection points: 3
#     Node 36, Type 1, BuildingBlock: BETDAH_clean_linker_0, # of connection points: 3
#     Node 37, Type 1, BuildingBlock: BETDAH_clean_linker_0, # of connection points: 3
#     Node 38, Type 1, BuildingBlock: BETDAH_clean_linker_0, # of connection points: 3
#     Node 39, Type 1, BuildingBlock: BETDAH_clean_linker_0, # of connection points: 3
#     Node 40, Type 1, BuildingBlock: BETDAH_clean_linker_0, # of connection points: 3
#     Node 41, Type 1, BuildingBlock: BETDAH_clean_linker_0, # of connection points: 3
#     Node 42, Type 1, BuildingBlock: BETDAH_clean_linker_0, # of connection points: 3
#     Node 43, Type 1, BuildingBlock: BETDAH_clean_linker_0, # of connection points: 3
#     Node 44, Type 1, BuildingBlock: BETDAH_clean_linker_0, # of connection points: 3
#     Node 45, Type 1, BuildingBlock: BETDAH_clean_linker_0, # of connection points: 3
#     Node 46, Type 1, BuildingBlock: BETDAH_clean_linker_0, # of connection points: 3
#     Node 47, Type 1, BuildingBlock: BETDAH_clean_linker_0, # of connection points: 3
#     Edge 48, Type (0, 1), None
#     Edge 49, Type (0, 1), None
#     Edge 50, Type (0, 1), None
#     Edge 51, Type (0, 1), None
#     Edge 52, Type (0, 1), None
#     Edge 53, Type (0, 1), None
#     Edge 54, Type (0, 1), None
#     Edge 55, Type (0, 1), None
#     Edge 56, Type (0, 1), None
#     Edge 57, Type (0, 1), None
#     Edge 58, Type (0, 1), None
#     Edge 59, Type (0, 1), None
#     Edge 60, Type (0, 1), None
#     Edge 61, Type (0, 1), None
#     Edge 62, Type (0, 1), None
#     Edge 63, Type (0, 1), None
#     Edge 64, Type (0, 1), None
#     Edge 65, Type (0, 1), None
#     Edge 66, Type (0, 1), None
#     Edge 67, Type (0, 1), None
#     Edge 68, Type (0, 1), None
#     Edge 69, Type (0, 1), None
#     Edge 70, Type (0, 1), None
#     Edge 71, Type (0, 1), None
#     Edge 72, Type (0, 1), None
#     Edge 73, Type (0, 1), None
#     Edge 74, Type (0, 1), None
#     Edge 75, Type (0, 1), None
#     Edge 76, Type (0, 1), None
#     Edge 77, Type (0, 1), None
#     Edge 78, Type (0, 1), None
#     Edge 79, Type (0, 1), None
#     Edge 80, Type (0, 1), None
#     Edge 81, Type (0, 1), None
#     Edge 82, Type (0, 1), None
#     Edge 83, Type (0, 1), None
#     Edge 84, Type (0, 1), None
#     Edge 85, Type (0, 1), None
#     Edge 86, Type (0, 1), None
#     Edge 87, Type (0, 1), None
#     Edge 88, Type (0, 1), None
#     Edge 89, Type (0, 1), None
#     Edge 90, Type (0, 1), None
#     Edge 91, Type (0, 1), None
#     Edge 92, Type (0, 1), None
#     Edge 93, Type (0, 1), None
#     Edge 94, Type (0, 1), None
#     Edge 95, Type (0, 1), None
#     Edge 96, Type (0, 1), None
#     Edge 97, Type (0, 1), None
#     Edge 98, Type (0, 1), None
#     Edge 99, Type (0, 1), None
#     Edge 100, Type (0, 1), None
#     Edge 101, Type (0, 1), None
#     Edge 102, Type (0, 1), None
#     Edge 103, Type (0, 1), None
#     Edge 104, Type (0, 1), None
#     Edge 105, Type (0, 1), None
#     Edge 106, Type (0, 1), None
#     Edge 107, Type (0, 1), None
#     Edge 108, Type (0, 1), None
#     Edge 109, Type (0, 1), None
#     Edge 110, Type (0, 1), None
#     Edge 111, Type (0, 1), None
#     Edge 112, Type (0, 1), None
#     Edge 113, Type (0, 1), None
#     Edge 114, Type (0, 1), None
#     Edge 115, Type (0, 1), None
#     Edge 116, Type (0, 1), None
#     Edge 117, Type (0, 1), None
#     Edge 118, Type (0, 1), None
#     Edge 119, Type (0, 1), None
# Relax obj value: 0.111
# Max RMSD: 0.182
# Mean RMSD: 0.091
data_MOF--net-bwt--node1-WUSLED_clean_sbu_0--node2-BETDAH_clean_linker_0--edge1-none
_symmetry_space_group_name_H-M    P1
_symmetry_Int_Tables_number       1
_symmetry_cell_setting            triclinic
loop_
_symmetry_equiv_pos_as_xyz
'x, y, z'
_cell_length_a     38.746176
_cell_length_b     38.747733
_cell_length_c     38.736211
_cell_angle_alpha  94.993609
_cell_angle_beta   94.98535
_cell_angle_gamma 94.984431
loop_
_atom_site_label
_atom_site_type_symbol
_atom_site_fract_x
_atom_site_fract_y
_atom_site_fract_z
_atom_type_partial_charge
C0 C 0.36284 0.64815 0.34713 0.0
C1 C 0.38948 0.64835 0.37435 0.0
C2 C 0.43264 0.643 0.33244 0.0
C3 C 0.42414 0.64596 0.36702 0.0
C4 C 0.40599 0.6419 0.30532 0.0
C5 C 0.3714 0.64439 0.3126 0.0
U6 U 0.28673 0.63707 0.40332 0.0
O7 O 0.248 0.67339 0.41808 0.0
O8 O 0.23078 0.62229 0.39003 0.0
C9 C 0.22146 0.65193 0.40374 0.0
C10 C 0.32638 0.65296 0.3541 0.0
C11 C 0.1915 0.66642 0.38515 0.0
C12 C 0.15169 0.66654 0.33284 0.0
C13 C 0.1846 0.66137 0.34876 0.0
C14 C 0.13304 0.68498 0.38889 0.0
C15 C 0.12485 0.67646 0.35296 0.0
C16 C 0.16602 0.68 0.40479 0.0
C17 C 0.30778 0.58809 0.48555 0.0
C18 C 0.26792 0.56873 0.52646 0.0
C19 C 0.32974 0.56478 0.53877 0.0
C20 C 0.33558 0.57855 0.5073 0.0
C21 C 0.29593 0.56043 0.54908 0.0
C22 C 0.27379 0.5825 0.49499 0.0
C23 C 0.31524 0.60379 0.45335 0.0
O24 O 0.3048 0.62454 0.35153 0.0
O25 O 0.32237 0.67464 0.38118 0.0
O26 O 0.31665 0.63791 0.45457 0.0
O27 O 0.29912 0.58813 0.42421 0.0
H28 H 0.38365 0.6512 0.40124 0.0
H29 H 0.4444 0.64758 0.38839 0.0
H30 H 0.41205 0.64033 0.27847 0.0
H31 H 0.3514 0.64425 0.29121 0.0
H32 H 0.14607 0.65937 0.30513 0.0
H33 H 0.20362 0.65089 0.3329 0.0
H34 H 0.11289 0.69198 0.4052 0.0
H35 H 0.17057 0.68397 0.43291 0.0
H36 H 0.24157 0.56592 0.53389 0.0
H37 H 0.35184 0.55943 0.55591 0.0
H38 H 0.36202 0.58264 0.50035 0.0
H39 H 0.25196 0.58954 0.4785 0.0
C40 C 0.14206 0.3225 0.78306 0.0
C41 C 0.12864 0.33149 0.81493 0.0
C42 C 0.07065 0.33148 0.78497 0.0
C43 C 0.09306 0.33582 0.81586 0.0
C44 C 0.0842 0.32298 0.75328 0.0
C45 C 0.11949 0.31832 0.75236 0.0
U46 U 0.23911 0.35082 0.80813 0.0
O47 O 0.27882 0.35343 0.77129 0.0
O48 O 0.28565 0.32148 0.81495 0.0
C49 C 0.29866 0.33282 0.78727 0.0
C50 C 0.1794 0.31852 0.78047 0.0
C51 C 0.33642 0.34314 0.7887 0.0
C52 C 0.3896 0.33735 0.76016 0.0
C53 C 0.35626 0.32397 0.76669 0.0
C54 C 0.38504 0.3879 0.80015 0.0
C55 C 0.40368 0.37045 0.77528 0.0
C56 C 0.35158 0.37457 0.80653 0.0
C57 C 0.25848 0.4289 0.8802 0.0
C58 C 0.29645 0.44073 0.93361 0.0
C59 C 0.27222 0.48861 0.9069 0.0
C60 C 0.25474 0.46474 0.88036 0.0
C61 C 0.29349 0.47682 0.93376 0.0
C62 C 0.27978 0.41727 0.90701 0.0
C63 C 0.23655 0.40361 0.85499 0.0
O64 O 0.19635 0.3436 0.76626 0.0
O65 O 0.19725 0.30831 0.80759 0.0
O66 O 0.23519 0.37092 0.86196 0.0
O67 O 0.23756 0.40735 0.82167 0.0
H68 H 0.14558 0.33526 0.83898 0.0
H69 H 0.08311 0.34252 0.84061 0.0
H70 H 0.06757 0.31994 0.72912 0.0
H71 H 0.12927 0.31168 0.72749 0.0
H72 H 0.40312 0.32283 0.74132 0.0
H73 H 0.34503 0.29962 0.7526 0.0
H74 H 0.39548 0.41292 0.81328 0.0
H75 H 0.33683 0.38975 0.82373 0.0
H76 H 0.31125 0.43018 0.95459 0.0
H77 H 0.26905 0.51606 0.90644 0.0
H78 H 0.23773 0.47419 0.86032 0.0
H79 H 0.28278 0.38985 0.90823 0.0
C80 C 0.76425 0.99613 0.63649 0.0
C81 C 0.78648 0.9838 0.6125 0.0
C82 C 0.83503 0.99595 0.65691 0.0
C83 C 0.82192 0.98373 0.62278 0.0
C84 C 0.81341 0.01061 0.67999 0.0
C85 C 0.77811 0.01079 0.66974 0.0
U86 U 0.66747 0.98672 0.59244 0.0
O87 O 0.62854 0.94376 0.60026 0.0
O88 O 0.62574 0.99676 0.62501 0.0
C89 C 0.61047 0.96496 0.618 0.0
C90 C 0.7265 0.98843 0.63075 0.0
C91 C 0.5731 0.963 0.60801 0.0
C92 C 0.51945 0.9495 0.63299 0.0
C93 C 0.55174 0.94007 0.62454 0.0
C94 C 0.52666 1.00031 0.60128 0.0
C95 C 0.50963 0.98252 0.62601 0.0
C96 C 0.55884 0.99064 0.59241 0.0
C97 C 0.68178 0.01404 0.5004 0.0
C98 C 0.67809 0.0123 0.4376 0.0
C99 C 0.73212 1.00221 0.47007 0.0
C100 C 0.71698 0.00795 0.50124 0.0
C101 C 0.71198 1.00233 0.43819 0.0
C102 C 0.66311 0.0184 0.46869 0.0
C103 C 0.66159 0.0055 0.52907 0.0
O104 O 0.70749 0.0149 0.63082 0.0
O105 O 0.71377 0.96137 0.60902 0.0
O106 O 0.6632 0.02809 0.55669 0.0
O107 O 0.66258 0.97313 0.53644 0.0
H108 H 0.77621 0.97228 0.58677 0.0
H109 H 0.83857 0.97213 0.60486 0.0
H110 H 0.8233 0.01979 0.70654 0.0
H111 H 0.76119 0.0201 0.68867 0.0
H112 H 0.50613 0.9344 0.65096 0.0
H113 H 0.56206 0.91802 0.63585 0.0
H114 H 0.51877 0.02517 0.59439 0.0
H115 H 0.57473 0.008 0.57843 0.0
H116 H 0.66221 0.01216 0.41311 0.0
H117 H 0.75824 0.99414 0.47078 0.0
H118 H 0.73153 1.00401 0.52554 0.0
H119 H 0.63577 0.02266 0.46768 0.0
C120 C 0.7022 0.01126 0.26646 0.0
C121 C 0.67941 0.01895 0.23853 0.0
C122 C 0.63155 0.01895 0.27575 0.0
C123 C 0.6442 0.02265 0.24315 0.0
C124 C 0.65411 0.01041 0.30321 0.0
C125 C 0.68896 0.00645 0.2985 0.0
U126 U 0.80265 1.00387 0.24497 0.0
O127 O 0.8447 0.04316 0.26872 0.0
O128 O 0.83988 0.99135 0.28715 0.0
C129 C 0.859 0.02117 0.28828 0.0
C130 C 0.74021 0.0107 0.26454 0.0
C131 C 0.89657 0.01817 0.28618 0.0
C132 C 0.95501 0.0196 0.31558 0.0
C133 C 0.92017 0.02692 0.31589 0.0
C134 C 0.94343 0.99627 0.25526 0.0
C135 C 0.9668 1.00313 0.28557 0.0
C136 C 0.90868 1.00365 0.25558 0.0
C137 C 0.79388 0.96347 0.14892 0.0
C138 C 0.79725 0.94648 0.08772 0.0
C139 C 0.74111 0.95292 0.10954 0.0
C140 C 0.7575 0.96164 0.1432 0.0
C141 C 0.76105 0.94615 0.08153 0.0
C142 C 0.81354 0.95494 0.12126 0.0
C143 C 0.81248 0.97698 0.18248 0.0
O144 O 0.75554 0.98196 0.26715 0.0
O145 O 0.75792 0.03502 0.24979 0.0
O146 O 0.80822 0.95818 0.20869 0.0
O147 O 0.81217 0.01057 0.19082 0.0
H148 H 0.68895 0.0229 0.21357 0.0
H149 H 0.6272 0.02957 0.22166 0.0
H150 H 0.64516 0.008 0.32872 0.0
H151 H 0.70592 1.00109 0.32054 0.0
H152 H 0.97219 0.02515 0.33937 0.0
H153 H 0.91132 0.03815 0.33977 0.0
H154 H 0.95177 0.98419 0.2315 0.0
H155 H 0.89096 0.99683 0.2323 0.0
H156 H 0.81306 0.94226 0.06627 0.0
H157 H 0.71322 0.95379 0.10498 0.0
H158 H 0.74206 0.9685 0.16435 0.0
H159 H 0.84169 0.95651 0.12531 0.0
C160 C 0.34737 0.36189 0.64835 0.0
C161 C 0.3746 0.38852 0.64861 0.0
C162 C 0.33273 0.43171 0.64325 0.0
C163 C 0.3673 0.42319 0.64625 0.0
C164 C 0.3056 0.40507 0.6421 0.0
C165 C 0.31286 0.37047 0.64456 0.0
U166 U 0.40361 0.28588 0.63726 0.0
O167 O 0.41837 0.2471 0.67351 0.0
O168 O 0.39047 0.22996 0.6223 0.0
C169 C 0.40415 0.22059 0.65192 0.0
C170 C 0.35431 0.32542 0.65312 0.0
C171 C 0.38566 0.1905 0.66627 0.0
C172 C 0.33371 0.1501 0.66568 0.0
C173 C 0.34935 0.18315 0.66067 0.0
C174 C 0.38983 0.1322 0.68506 0.0
C175 C 0.35404 0.12359 0.67603 0.0
C176 C 0.40545 0.16532 0.68021 0.0
C177 C 0.48588 0.30705 0.58845 0.0
C178 C 0.52603 0.26713 0.56737 0.0
C179 C 0.53928 0.32917 0.56568 0.0
C180 C 0.50805 0.33498 0.57989 0.0
C181 C 0.54899 0.29523 0.55986 0.0
C182 C 0.49477 0.27298 0.5816 0.0
C183 C 0.4537 0.31447 0.60417 0.0
O184 O 0.35183 0.3039 0.62466 0.0
O185 O 0.38133 0.3214 0.67485 0.0
O186 O 0.45487 0.31583 0.63829 0.0
O187 O 0.42457 0.29845 0.58841 0.0
H188 H 0.40148 0.38267 0.65149 0.0
H189 H 0.38867 0.44345 0.64791 0.0
H190 H 0.27877 0.41114 0.6405 0.0
H191 H 0.29146 0.35048 0.64438 0.0
H192 H 0.30611 0.14412 0.6581 0.0
H193 H 0.33339 0.20194 0.64989 0.0
H194 H 0.40628 0.11229 0.69239 0.0
H195 H 0.43352 0.17022 0.68459 0.0
H196 H 0.53291 0.24067 0.56339 0.0
H197 H 0.55667 0.35136 0.56103 0.0
H198 H 0.50155 0.36148 0.58496 0.0
H199 H 0.47793 0.25105 0.58787 0.0
C200 C 0.26667 0.70198 0.01034 0.0
C201 C 0.23922 0.67854 0.01793 0.0
C202 C 0.2772 0.63135 0.0164 0.0
C203 C 0.24448 0.64334 0.02089 0.0
C204 C 0.30428 0.65467 0.00837 0.0
C205 C 0.29896 0.68949 0.00519 0.0
U206 U 0.24519 0.80263 1.00304 0.0
O207 O 0.2696 0.84431 0.04241 0.0
O208 O 0.28778 0.83932 0.99047 0.0
C209 C 0.28917 0.85845 0.02033 0.0
C210 C 0.2635 0.73971 0.00912 0.0
C211 C 0.2873 0.89602 0.01732 0.0
C212 C 0.31695 0.95434 0.01892 0.0
C213 C 0.31707 0.91948 0.02619 0.0
C214 C 0.25671 0.94304 0.99528 0.0
C215 C 0.28707 0.9663 1.00237 0.0
C216 C 0.25684 0.90827 1.00262 0.0
C217 C 0.1493 0.7945 0.96303 0.0
C218 C 0.08803 0.79756 0.94625 0.0
C219 C 0.11014 0.74156 0.95274 0.0
C220 C 0.14375 0.75811 0.9613 0.0
C221 C 0.08202 0.76135 0.946 0.0
C222 C 0.12152 0.81401 0.95456 0.0
C223 C 0.18284 0.81321 0.97641 0.0
O224 O 0.26667 0.75525 0.98058 0.0
O225 O 0.24924 0.75753 0.03373 0.0
O226 O 0.20897 0.80885 0.95752 0.0
O227 O 0.19128 0.81288 0.00998 0.0
H228 H 0.21406 0.68749 0.02207 0.0
H229 H 0.2233 0.62576 0.0275 0.0
H230 H 0.32991 0.64622 0.00544 0.0
H231 H 0.3206 0.70694 0.99989 0.0
H232 H 0.34078 0.97142 0.02465 0.0
H233 H 0.34084 0.91052 0.03754 0.0
H234 H 0.23304 0.95151 0.98316 0.0
H235 H 0.23352 0.89063 0.99568 0.0
H236 H 0.06648 0.81325 0.94205 0.0
H237 H 0.10572 0.71368 0.95367 0.0
H238 H 0.16499 0.74279 0.96812 0.0
H239 H 0.12543 0.84216 0.95605 0.0
C240 C 0.78426 0.14159 0.32247 0.0
C241 C 0.81634 0.12774 0.32918 0.0
C242 C 0.78623 0.07041 0.33269 0.0
C243 C 0.81727 0.0923 0.33414 0.0
C244 C 0.75435 0.08437 0.32641 0.0
C245 C 0.75339 0.11952 0.32113 0.0
U246 U 0.80911 0.23883 0.34998 0.0
O247 O 0.77213 0.27843 0.35211 0.0
O248 O 0.81608 0.28529 0.32054 0.0
C249 C 0.78825 0.29825 0.33158 0.0
C250 C 0.78173 0.17888 0.31794 0.0
C251 C 0.7895 0.33603 0.34182 0.0
C252 C 0.76052 0.38896 0.3361 0.0
C253 C 0.76723 0.35568 0.32272 0.0
C254 C 0.80087 0.38479 0.38645 0.0
C255 C 0.77565 0.40317 0.36916 0.0
C256 C 0.80744 0.35139 0.37312 0.0
C257 C 0.88031 0.25847 0.42886 0.0
C258 C 0.93298 0.29742 0.44129 0.0
C259 C 0.90711 0.27125 0.48864 0.0
C260 C 0.88077 0.25381 0.46454 0.0
C261 C 0.93349 0.29344 0.47724 0.0
C262 C 0.90656 0.28073 0.41762 0.0
C263 C 0.85544 0.23651 0.40328 0.0
O264 O 0.76722 0.19611 0.34262 0.0
O265 O 0.80894 0.19665 0.30779 0.0
O266 O 0.86281 0.2352 0.37071 0.0
O267 O 0.82204 0.23743 0.40663 0.0
H268 H 0.84058 0.14423 0.3307 0.0
H269 H 0.84218 0.08205 0.3391 0.0
H270 H 0.73008 0.06812 0.32552 0.0
H271 H 0.72838 0.1296 0.31622 0.0
H272 H 0.74154 0.40233 0.3216 0.0
H273 H 0.75309 0.34432 0.29844 0.0
H274 H 0.81415 0.39536 0.41137 0.0
H275 H 0.82489 0.33681 0.38823 0.0
H276 H 0.9536 0.31294 0.43097 0.0
H277 H 0.90693 0.26727 0.51595 0.0
H278 H 0.86115 0.23606 0.47366 0.0
H279 H 0.90751 0.28445 0.3903 0.0
C280 C 0.63748 0.7637 0.99576 0.0
C281 C 0.61344 0.78589 0.98347 0.0
C282 C 0.65781 0.8345 0.99551 0.0
C283 C 0.62367 0.82134 0.98337 0.0
C284 C 0.68094 0.8129 0.01011 0.0
C285 C 0.67075 0.77759 0.01033 0.0
U286 U 0.59326 0.66701 0.98662 0.0
O287 O 0.6011 0.62793 0.94378 0.0
O288 O 0.62564 0.62519 0.99688 0.0
C289 C 0.61874 0.60988 0.96508 0.0
C290 C 0.63172 0.72594 0.98818 0.0
C291 C 0.60877 0.5725 0.96309 0.0
C292 C 0.63352 0.51879 0.94914 0.0
C293 C 0.62513 0.55118 0.93994 0.0
C294 C 0.60212 0.52586 1.00019 0.0
C295 C 0.62669 0.50882 0.98215 0.0
C296 C 0.59333 0.55814 0.99077 0.0
C297 C 0.50129 0.68178 0.01381 0.0
C298 C 0.43852 0.6784 0.01229 0.0
C299 C 0.47116 0.73223 1.0019 0.0
C300 C 0.50225 0.71696 0.0076 0.0
C301 C 0.43922 0.71226 1.0022 0.0
C302 C 0.46954 0.66329 0.01832 0.0
C303 C 0.52987 0.66143 0.00532 0.0
O304 O 0.6317 0.70703 0.01473 0.0
O305 O 0.61002 0.71315 0.96111 0.0
O306 O 0.55745 0.66299 0.02795 0.0
O307 O 0.53729 0.66228 0.97295 0.0
H308 H 0.5877 0.7756 0.97203 0.0
H309 H 0.6057 0.83797 0.97182 0.0
H310 H 0.7075 0.82283 0.01924 0.0
H311 H 0.68971 0.7607 0.0196 0.0
H312 H 0.65134 0.50549 0.93384 0.0
H313 H 0.63632 0.56157 0.91787 0.0
H314 H 0.59534 0.51786 0.02504 0.0
H315 H 0.57948 0.574 0.00831 0.0
H316 H 0.41399 0.66263 0.01223 0.0
H317 H 0.47195 0.7583 0.99372 0.0
H318 H 0.52658 0.73137 1.00354 0.0
H319 H 0.46842 0.63596 0.02267 0.0
C320 C 0.6504 0.34855 0.36305 0.0
C321 C 0.6566 0.37614 0.38968 0.0
C322 C 0.64789 0.33584 0.43378 0.0
C323 C 0.65553 0.36976 0.42469 0.0
C324 C 0.64043 0.30844 0.40728 0.0
C325 C 0.64174 0.31475 0.37221 0.0
U326 U 0.6379 0.40296 0.28583 0.0
O327 O 0.67373 0.41762 0.24666 0.0
O328 O 0.62271 0.38913 0.22998 0.0
C329 C 0.65212 0.40304 0.22033 0.0
C330 C 0.65428 0.35433 0.32605 0.0
C331 C 0.66651 0.38474 0.19012 0.0
C332 C 0.66654 0.3329 0.14966 0.0
C333 C 0.66129 0.34842 0.18272 0.0
C334 C 0.6853 0.3892 0.13181 0.0
C335 C 0.6767 0.35335 0.12316 0.0
C336 C 0.68025 0.4047 0.16494 0.0
C337 C 0.58961 0.48566 0.30715 0.0
C338 C 0.5696 0.52637 0.26735 0.0
C339 C 0.56678 0.53908 0.32932 0.0
C340 C 0.58064 0.50764 0.33508 0.0
C341 C 0.56177 0.54914 0.29546 0.0
C342 C 0.58344 0.49492 0.27313 0.0
C343 C 0.60524 0.45341 0.31449 0.0
O344 O 0.62545 0.35159 0.30503 0.0
O345 O 0.67606 0.38088 0.3208 0.0
O346 O 0.63932 0.45441 0.31552 0.0
O347 O 0.58928 0.42428 0.29865 0.0
H348 H 0.6632 0.40252 0.38355 0.0
H349 H 0.66178 0.39123 0.44475 0.0
H350 H 0.635 0.28198 0.41373 0.0
H351 H 0.6369 0.29306 0.35225 0.0
H352 H 0.65928 0.30525 0.14366 0.0
H353 H 0.65069 0.33233 0.2015 0.0
H354 H 0.69246 0.40576 0.11192 0.0
H355 H 0.68434 0.43278 0.16987 0.0
H356 H 0.56633 0.53364 0.24096 0.0
H357 H 0.56185 0.55638 0.35148 0.0
H358 H 0.58519 0.50086 0.36154 0.0
H359 H 0.59005 0.47827 0.25121 0.0
C360 C 0.01034 0.26559 0.70053 0.0
C361 C 0.01851 0.23839 0.67714 0.0
C362 C 0.01884 0.27688 0.63047 0.0
C363 C 0.02261 0.24398 0.64227 0.0
C364 C 0.00992 0.30374 0.65361 0.0
C365 C 1.00546 0.29801 0.68818 0.0
U366 U 1.00229 0.2448 0.80154 0.0
O367 O 0.04197 0.26972 0.84269 0.0
O368 O 0.98994 0.28769 0.83802 0.0
C369 C 0.01992 0.28922 0.85698 0.0
C370 C 0.00782 0.26124 0.73792 0.0
C371 C 0.01718 0.28734 0.89463 0.0
C372 C 0.01909 0.31689 0.95307 0.0
C373 C 0.02611 0.31709 0.91812 0.0
C374 C 0.99562 0.25661 0.94181 0.0
C375 C 1.00274 0.28695 0.9651 0.0
C376 C 1.00271 0.25682 0.90696 0.0
C377 C 0.96292 0.14887 0.79423 0.0
C378 C 0.94679 0.08749 0.79735 0.0
C379 C 0.95248 0.1097 0.74127 0.0
C380 C 0.96089 0.14334 0.7578 0.0
C381 C 0.94622 0.08152 0.76109 0.0
C382 C 0.95493 0.12101 0.81379 0.0
C383 C 0.97609 0.18252 0.81288 0.0
O384 O 0.9795 0.26541 0.75358 0.0
O385 O 0.03264 0.24778 0.75623 0.0
O386 O 0.95704 0.2085 0.80841 0.0
O387 O 0.00961 0.19114 0.81249 0.0
H388 H 0.0222 0.21307 0.68594 0.0
H389 H 0.02974 0.22293 0.62483 0.0
H390 H 0.00741 0.32947 0.64527 0.0
H391 H 0.99949 0.31942 0.70556 0.0
H392 H 0.02485 0.3407 0.97019 0.0
H393 H 0.03731 0.34091 0.90913 0.0
H394 H 0.98365 0.2329 0.95032 0.0
H395 H 0.99575 0.2335 0.88932 0.0
H396 H 0.94295 0.06591 0.81306 0.0
H397 H 0.95316 0.10533 0.71333 0.0
H398 H 0.96735 0.16464 0.74243 0.0
H399 H 0.95667 0.12491 0.84196 0.0
C400 C 0.32292 0.7841 0.14096 0.0
C401 C 0.33023 0.81609 0.12714 0.0
C402 C 0.33286 0.78582 0.06969 0.0
C403 C 0.33506 0.81691 0.09165 0.0
C404 C 0.32596 0.75404 0.08362 0.0
C405 C 0.32082 0.75319 0.11882 0.0
U406 U 0.35095 0.80902 0.23812 0.0
O407 O 0.35327 0.77201 0.27767 0.0
O408 O 0.32174 0.81596 0.28476 0.0
C409 C 0.33286 0.78813 0.29764 0.0
C410 C 0.31861 0.78164 0.1783 0.0
C411 C 0.34333 0.78939 0.33537 0.0
C412 C 0.33778 0.76055 0.38841 0.0
C413 C 0.32427 0.76723 0.35516 0.0
C414 C 0.38825 0.80065 0.38388 0.0
C415 C 0.37089 0.77569 0.40247 0.0
C416 C 0.37479 0.80717 0.3505 0.0
C417 C 0.42984 0.88009 0.25765 0.0
C418 C 0.44239 0.93255 0.29692 0.0
C419 C 0.48958 0.90699 0.27017 0.0
C420 C 0.46546 0.88067 0.25274 0.0
C421 C 0.47828 0.93323 0.29261 0.0
C422 C 0.41869 0.90615 0.28024 0.0
C423 C 0.40421 0.85532 0.23566 0.0
O424 O 0.34337 0.76713 0.19539 0.0
O425 O 0.3086 0.8089 0.19611 0.0
O426 O 0.37166 0.86272 0.23449 0.0
O427 O 0.40754 0.82191 0.23647 0.0
H428 H 0.33236 0.84033 0.1437 0.0
H429 H 0.34052 0.84174 0.08142 0.0
H430 H 0.32454 0.72974 0.06733 0.0
H431 H 0.31546 0.72824 0.12889 0.0
H432 H 0.32336 0.74159 0.40187 0.0
H433 H 0.29992 0.75316 0.34394 0.0
H434 H 0.41328 0.81377 0.3943 0.0
H435 H 0.3899 0.82447 0.33577 0.0
H436 H 0.43212 0.95306 0.31264 0.0
H437 H 0.51683 0.90693 0.26594 0.0
H438 H 0.47451 0.8612 0.23478 0.0
H439 H 0.39142 0.90698 0.28417 0.0
C440 C 0.99694 0.63634 0.76383 0.0
C441 C 0.98452 0.61264 0.78629 0.0
C442 C 0.99644 0.65754 0.83443 0.0
C443 C 0.9843 0.62331 0.82164 0.0
C444 C 0.01121 0.68033 0.8126 0.0
C445 C 0.01155 0.6697 0.77739 0.0
U446 U 0.98783 0.59187 0.66709 0.0
O447 O 0.94478 0.59942 0.62813 0.0
O448 O 0.99765 0.62451 0.62537 0.0
C449 C 0.96586 0.61736 0.6101 0.0
C450 C 0.98932 0.63022 0.72608 0.0
C451 C 0.96391 0.60755 0.57269 0.0
C452 C 0.95009 0.63277 0.51922 0.0
C453 C 0.94077 0.624 0.55146 0.0
C454 C 1.00128 0.60157 0.5262 0.0
C455 C 0.98318 0.62617 0.50932 0.0
C456 C 0.99171 0.59236 0.55831 0.0
C457 C 0.01582 0.50013 0.68156 0.0
C458 C 0.01426 0.43736 0.67801 0.0
C459 C 1.00402 0.46989 0.73197 0.0
C460 C 0.00972 0.50102 0.71678 0.0
C461 C 1.0042 0.43799 0.71189 0.0
C462 C 0.02031 0.46842 0.66297 0.0
C463 C 0.00708 0.52869 0.66128 0.0
O464 O 0.0158 0.63043 0.70707 0.0
O465 O 0.9624 0.60827 0.71342 0.0
O466 O 0.02948 0.55645 0.66288 0.0
O467 O 0.97464 0.53583 0.6622 0.0
H468 H 0.97303 0.58684 0.77625 0.0
H469 H 0.97262 0.60561 0.83846 0.0
H470 H 0.02034 0.70696 0.82223 0.0
H471 H 0.02091 0.68841 0.76029 0.0
H472 H 0.93479 0.65067 0.50603 0.0
H473 H 0.91862 0.63501 0.56188 0.0
H474 H 0.02621 0.595 0.51825 0.0
H475 H 0.00925 0.57846 0.57409 0.0
H476 H 0.01412 0.41286 0.66215 0.0
H477 H 0.99586 0.47063 0.75806 0.0
H478 H 0.00568 0.52531 0.73126 0.0
H479 H 0.02458 0.46736 0.63563 0.0
C480 C 0.65396 0.37992 0.68571 0.0
C481 C 0.63275 0.40426 0.67203 0.0
C482 C 0.58376 0.38084 0.70154 0.0
C483 C 0.59785 0.40473 0.67995 0.0
C484 C 0.60486 0.35634 0.71455 0.0
C485 C 0.63948 0.35593 0.70679 0.0
U486 U 0.73494 0.39397 0.63329 0.0
O487 O 0.78911 0.41292 0.652 0.0
O488 O 0.77746 0.35976 0.62677 0.0
C489 C 0.80147 0.38335 0.64253 0.0
C490 C 0.6914 0.37925 0.67984 0.0
C491 C 0.83009 0.3718 0.66588 0.0
C492 C 0.86766 0.37951 0.72066 0.0
C493 C 0.83596 0.38374 0.70149 0.0
C494 C 0.88715 0.34921 0.66982 0.0
C495 C 0.89407 0.36329 0.70467 0.0
C496 C 0.85549 0.35326 0.65074 0.0
C497 C 0.71977 0.43307 0.54368 0.0
C498 C 0.76138 0.44434 0.50159 0.0
C499 C 0.70137 0.45577 0.48894 0.0
C500 C 0.69382 0.44482 0.5212 0.0
C501 C 0.73507 0.45499 0.47841 0.0
C502 C 0.75381 0.43344 0.53394 0.0
C503 C 0.71007 0.42013 0.57663 0.0
O504 O 0.6989 0.35636 0.65524 0.0
O505 O 0.71013 0.40933 0.68072 0.0
O506 O 0.72238 0.43921 0.60548 0.0
O507 O 0.71056 0.38656 0.5792 0.0
H508 H 0.64316 0.42289 0.65543 0.0
H509 H 0.58192 0.42347 0.66904 0.0
H510 H 0.59455 0.33735 0.73087 0.0
H511 H 0.65511 0.33685 0.71755 0.0
H512 H 0.87263 0.39141 0.74719 0.0
H513 H 0.81708 0.39834 0.71392 0.0
H514 H 0.90732 0.33742 0.65655 0.0
H515 H 0.85194 0.34408 0.62332 0.0
H516 H 0.78762 0.44338 0.49416 0.0
H517 H 0.68042 0.46309 0.4715 0.0
H518 H 0.66736 0.44468 0.52827 0.0
H519 H 0.77426 0.42461 0.55093 0.0
C520 C 0.83837 0.70578 0.25497 0.0
C521 C 0.8646 0.68879 0.23977 0.0
C522 C 0.9083 0.71871 0.2842 0.0
C523 C 0.89928 0.69527 0.25425 0.0
C524 C 0.88226 0.73668 0.29854 0.0
C525 C 0.84757 0.73026 0.284 0.0
U526 U 0.76065 0.6574 0.19379 0.0
O527 O 0.71203 0.63162 0.20734 0.0
O528 O 0.71031 0.67762 0.17811 0.0
C529 C 0.69256 0.65378 0.19334 0.0
C530 C 0.80119 0.69708 0.24255 0.0
C531 C 0.66412 0.6641 0.21366 0.0
C532 C 0.63939 0.66378 0.26905 0.0
C533 C 0.66845 0.66722 0.25019 0.0
C534 C 0.60134 0.65888 0.21553 0.0
C535 C 0.60576 0.65788 0.25172 0.0
C536 C 0.63042 0.66198 0.19658 0.0
C537 C 0.76548 0.59039 0.11829 0.0
C538 C 0.72072 0.57491 0.06997 0.0
C539 C 0.7539 0.53033 0.09255 0.0
C540 C 0.77268 0.55541 0.11693 0.0
C541 C 0.72759 0.53972 0.06875 0.0
C542 C 0.73917 0.59983 0.09459 0.0
C543 C 0.78401 0.61614 0.14579 0.0
O544 O 0.79043 0.70771 0.21247 0.0
O545 O 0.78816 0.66532 0.24642 0.0
O546 O 0.78155 0.60803 0.17778 0.0
O547 O 0.78036 0.64918 0.14233 0.0
H548 H 0.85815 0.66986 0.21735 0.0
H549 H 0.91874 0.68107 0.24248 0.0
H550 H 0.88846 0.75464 0.32172 0.0
H551 H 0.82768 0.74366 0.29612 0.0
H552 H 0.64334 0.66181 0.29676 0.0
H553 H 0.69419 0.66855 0.26391 0.0
H554 H 0.57567 0.65353 0.20161 0.0
H555 H 0.62654 0.65915 0.16839 0.0
H556 H 0.70133 0.58349 0.05161 0.0
H557 H 0.75972 0.50351 0.09268 0.0
H558 H 0.79257 0.54736 0.13513 0.0
H559 H 0.73265 0.62647 0.09506 0.0
C560 C 0.23805 0.00667 0.34786 0.0
C561 C 0.21536 1.00254 0.37396 0.0
C562 C 0.16527 0.00564 0.33213 0.0
C563 C 0.17927 1.00203 0.36613 0.0
C564 C 0.18781 0.009 0.30588 0.0
C565 C 0.22395 0.00948 0.31369 0.0
U566 U 0.31414 0.018 0.41698 0.0
O567 O 0.36493 0.99651 0.42312 0.0
O568 O 0.36273 0.05301 0.42377 0.0
C569 C 0.38263 0.02733 0.42602 0.0
C570 C 0.27625 0.01045 0.35671 0.0
C571 C 0.41563 0.02986 0.40958 0.0
C572 C 0.45008 0.04353 0.36215 0.0
C573 C 0.41899 0.0447 0.37812 0.0
C574 C 0.47542 0.01504 0.41008 0.0
C575 C 0.47804 0.02731 0.37727 0.0
C576 C 0.44451 0.01634 0.42606 0.0
C577 C 0.2931 0.02132 0.51069 0.0
C578 C 0.33922 0.03371 0.55789 0.0
C579 C 0.27881 0.02764 0.5704 0.0
C580 C 0.26828 0.02124 0.53488 0.0
C581 C 0.31426 0.03438 0.58199 0.0
C582 C 0.32868 0.0271 0.52231 0.0
C583 C 0.28158 0.01708 0.47345 0.0
O584 O 0.28891 0.04092 0.37244 0.0
O585 O 0.28934 0.98431 0.3711 0.0
O586 O 0.28999 0.98877 0.45627 0.0
O587 O 0.28723 0.04516 0.45728 0.0
H588 H 0.22565 1.00063 0.40058 0.0
H589 H 0.16238 0.99985 0.38687 0.0
H590 H 0.17757 0.01224 0.27955 0.0
H591 H 0.24095 0.01294 0.29323 0.0
H592 H 0.45105 0.05224 0.33639 0.0
H593 H 0.39715 0.05555 0.36508 0.0
H594 H 0.49614 1.00156 0.42182 0.0
H595 H 0.44258 0.00508 0.45055 0.0
H596 H 0.36668 0.03874 0.56659 0.0
H597 H 0.25932 0.02809 0.58884 0.0
H598 H 0.24076 0.01685 0.52624 0.0
H599 H 0.34814 0.02715 0.50384 0.0
C600 C 0.2734 0.00575 0.69825 0.0
C601 C 0.30401 0.03075 0.73498 0.0
C602 C 0.36962 0.98912 0.70834 0.0
C603 C 0.35241 0.02215 0.74012 0.0
C604 C 0.33909 0.96262 0.67238 0.0
C605 C 0.28994 0.97118 0.66698 0.0
U606 U 0.18737 0.00723 0.7417 0.0
O607 O 0.14485 0.96669 0.72462 0.0
O608 O 0.13895 0.02134 0.71558 0.0
C609 C 0.12449 0.98911 0.7126 0.0
C610 C 0.23637 1.00499 0.69939 0.0
C611 C 0.08888 0.98495 0.72116 0.0
C612 C 0.02851 0.97592 0.69929 0.0
C613 C 0.06323 0.97444 0.69393 0.0
C614 C 0.04487 0.99544 0.76028 0.0
C615 C 0.019 0.98779 0.73216 0.0
C616 C 0.07987 0.99423 0.75473 0.0
C617 C 0.21938 0.03163 0.84214 0.0
C618 C 0.22224 0.04697 0.90465 0.0
C619 C 0.27398 0.03178 0.87823 0.0
C620 C 0.25503 0.02711 0.84529 0.0
C621 C 0.25747 0.04113 0.90814 0.0
C622 C 0.2034 0.04232 0.87191 0.0
C623 C 0.19679 0.02187 0.80955 0.0
O624 O 0.22312 0.97787 0.71344 0.0
O625 O 0.22353 0.03412 0.70951 0.0
O626 O 0.19208 0.04571 0.78784 0.0
O627 O 0.19761 0.99039 0.79408 0.0
H628 H 0.29394 0.04846 0.75391 0.0
H629 H 0.36969 0.03584 0.76131 0.0
H630 H 0.34879 0.94282 0.65536 0.0
H631 H 0.2721 0.95565 0.64743 0.0
H632 H 0.00951 0.97046 0.67685 0.0
H633 H 0.07013 0.96717 0.66793 0.0
H634 H 0.0382 1.00426 0.78595 0.0
H635 H 0.09981 1.00215 0.77601 0.0
H636 H 0.20886 0.05334 0.92747 0.0
H637 H 0.30106 0.02656 0.88059 0.0
H638 H 0.26777 0.01862 0.82265 0.0
H639 H 0.17579 0.04549 0.87007 0.0
C640 C 0.68744 0.65347 0.38135 0.0
C641 C 0.66106 0.62744 0.38624 0.0
C642 C 0.70236 0.58309 0.38323 0.0
C643 C 0.66847 0.59245 0.38704 0.0
C644 C 0.72852 0.60919 0.3786 0.0
C645 C 0.72115 0.64392 0.37771 0.0
U646 U 0.63391 0.73387 0.39282 0.0
O647 O 0.65209 0.78825 0.41133 0.0
O648 O 0.62755 0.77596 0.35797 0.0
C649 C 0.64291 0.80025 0.3815 0.0
C650 C 0.68096 0.69055 0.37903 0.0
C651 C 0.66638 0.82889 0.37009 0.0
C652 C 0.72113 0.86652 0.37837 0.0
C653 C 0.70191 0.83476 0.38229 0.0
C654 C 0.67051 0.88612 0.34782 0.0
C655 C 0.70527 0.89303 0.36219 0.0
C656 C 0.65138 0.85439 0.35157 0.0
C657 C 0.54458 0.71887 0.43255 0.0
C658 C 0.50299 0.76075 0.44471 0.0
C659 C 0.48952 0.70045 0.45468 0.0
C660 C 0.52173 0.6928 0.44362 0.0
C661 C 0.47947 0.73438 0.45473 0.0
C662 C 0.53526 0.75308 0.43371 0.0
C663 C 0.57752 0.70917 0.41958 0.0
O664 O 0.65575 0.69688 0.35618 0.0
O665 O 0.682 0.71021 0.40857 0.0
O666 O 0.6064 0.72182 0.4384 0.0
O667 O 0.57991 0.70925 0.38593 0.0
H668 H 0.63475 0.63404 0.38889 0.0
H669 H 0.64762 0.57268 0.38989 0.0
H670 H 0.75463 0.60261 0.3748 0.0
H671 H 0.74184 0.66337 0.37359 0.0
H672 H 0.74756 0.87147 0.39051 0.0
H673 H 0.71423 0.81582 0.3969 0.0
H674 H 0.65731 0.90636 0.33607 0.0
H675 H 0.62401 0.85087 0.34221 0.0
H676 H 0.49585 0.78715 0.44429 0.0
H677 H 0.47177 0.67948 0.46146 0.0
H678 H 0.52846 0.6662 0.44287 0.0
H679 H 0.55252 0.77362 0.4254 0.0
C680 C 0.69887 0.27306 0.00527 0.0
C681 C 0.73566 0.30368 0.03016 0.0
C682 C 0.70906 0.36918 0.98834 0.0
C683 C 0.74085 0.35203 0.02141 0.0
C684 C 0.67306 0.33864 0.96197 0.0
C685 C 0.66759 0.28956 0.97068 0.0
U686 U 0.74234 0.18706 0.00667 0.0
O687 O 0.72518 0.14446 0.96621 0.0
O688 O 0.7163 0.13866 0.02093 0.0
C689 C 0.71325 0.12414 0.98871 0.0
C690 C 0.70001 0.23603 1.00453 0.0
C691 C 0.7218 0.08853 0.98456 0.0
C692 C 0.6999 0.02816 0.97547 0.0
C693 C 0.69458 0.06289 0.97397 0.0
C694 C 0.76085 0.04451 0.99517 0.0
C695 C 0.73273 0.01864 0.98745 0.0
C696 C 0.75533 0.07951 0.99393 0.0
C697 C 0.84281 0.21905 0.03084 0.0
C698 C 0.90534 0.22184 0.04595 0.0
C699 C 0.87889 0.27366 0.03106 0.0
C700 C 0.84595 0.25473 0.02644 0.0
C701 C 0.90882 0.25711 0.04023 0.0
C702 C 0.8726 0.20302 0.04135 0.0
C703 C 0.81019 0.1965 0.02116 0.0
O704 O 0.71394 0.22275 0.97734 0.0
O705 O 0.71022 0.22323 0.03365 0.0
O706 O 0.78855 0.19182 0.04506 0.0
O707 O 0.79465 0.19731 0.9897 0.0
H708 H 0.75462 0.29363 0.04785 0.0
H709 H 0.76214 0.36929 0.03493 0.0
H710 H 0.65612 0.34828 0.94205 0.0
H711 H 0.64803 0.27169 0.95519 0.0
H712 H 0.67748 0.00916 0.96995 0.0
H713 H 0.6686 0.0698 0.96662 0.0
H714 H 0.78648 0.03782 1.00409 0.0
H715 H 0.7766 0.09944 1.00191 0.0
H716 H 0.92816 0.20844 0.05218 0.0
H717 H 0.88124 0.30076 0.02593 0.0
H718 H 0.82331 0.26751 0.0181 0.0
H719 H 0.87076 0.1754 0.04443 0.0
C720 C 0.25794 0.83762 0.70446 0.0
C721 C 0.24031 0.86445 0.69121 0.0
C722 C 0.28608 0.90775 0.71943 0.0
C723 C 0.25429 0.89922 0.69866 0.0
C724 C 0.30334 0.88094 0.73313 0.0
C725 C 0.2893 0.84617 0.72578 0.0
U726 U 0.19559 0.76037 0.65657 0.0
O727 O 0.20849 0.71146 0.63077 0.0
O728 O 0.1798 0.71029 0.67719 0.0
C729 C 0.19468 0.69227 0.65327 0.0
C730 C 0.24508 0.80057 0.69561 0.0
C731 C 0.21505 0.6639 0.66368 0.0
C732 C 0.27035 0.63905 0.66321 0.0
C733 C 0.25157 0.66817 0.66645 0.0
C734 C 0.21681 0.60113 0.65926 0.0
C735 C 0.25295 0.60543 0.65787 0.0
C736 C 0.19794 0.63027 0.66214 0.0
C737 C 0.11955 0.76543 0.59028 0.0
C738 C 0.07094 0.7209 0.57533 0.0
C739 C 0.09352 0.75351 0.53034 0.0
C740 C 0.11807 0.77235 0.55521 0.0
C741 C 0.06964 0.72744 0.54004 0.0
C742 C 0.09574 0.73941 0.60005 0.0
C743 C 0.14735 0.7839 0.61575 0.0
O744 O 0.21512 0.79007 0.70665 0.0
O745 O 0.2484 0.78758 0.66369 0.0
O746 O 0.17917 0.78122 0.60728 0.0
O747 O 0.14424 0.7804 0.6489 0.0
H748 H 0.21616 0.85848 0.67461 0.0
H749 H 0.24059 0.91924 0.6873 0.0
H750 H 0.32804 0.88676 0.74881 0.0
H751 H 0.30335 0.82581 0.73621 0.0
H752 H 0.298 0.6429 0.66094 0.0
H753 H 0.26531 0.69386 0.66734 0.0
H754 H 0.20285 0.57546 0.65433 0.0
H755 H 0.16976 0.62644 0.6596 0.0
H756 H 0.05253 0.7017 0.58413 0.0
H757 H 0.0936 0.75908 0.50344 0.0
H758 H 0.13634 0.79201 0.5469 0.0
H759 H 0.09629 0.73312 0.62678 0.0
C760 C 0.34919 0.23662 0.00476 0.0
C761 C 0.3758 0.21417 1.00393 0.0
C762 C 0.33373 0.16412 0.00612 0.0
C763 C 0.36811 0.17823 0.00467 0.0
C764 C 0.30692 0.18629 0.0055 0.0
C765 C 0.31463 0.22234 0.00489 0.0
U766 U 0.4183 0.31246 0.0166 0.0
O767 O 0.42485 0.36348 0.99562 0.0
O768 O 0.42527 0.36072 0.05206 0.0
C769 C 0.42774 0.38088 0.02661 0.0
C770 C 0.3579 0.27482 0.00846 0.0
C771 C 0.41145 0.41392 0.02947 0.0
C772 C 0.36419 0.44839 0.0436 0.0
C773 C 0.3801 0.41726 0.04451 0.0
C774 C 0.41201 0.47381 0.01501 0.0
C775 C 0.37928 0.47638 0.02742 0.0
C776 C 0.42793 0.44287 0.01606 0.0
C777 C 0.51183 0.29139 0.02038 0.0
C778 C 0.55878 0.33782 0.03201 0.0
C779 C 0.57156 0.27747 0.02814 0.0
C780 C 0.53611 0.2667 0.0215 0.0
C781 C 0.58297 0.31301 0.03385 0.0
C782 C 0.52328 0.32704 0.02523 0.0
C783 C 0.47463 0.27974 0.01582 0.0
O784 O 0.37337 0.28751 0.03905 0.0
O785 O 0.3726 0.28787 0.98246 0.0
O786 O 0.45766 0.28832 0.98747 0.0
O787 O 0.45825 0.28516 0.0438 0.0
H788 H 0.40268 0.22461 1.00402 0.0
H789 H 0.38923 0.16164 0.00551 0.0
H790 H 0.28026 0.17597 0.00705 0.0
H791 H 0.29375 0.23917 0.00573 0.0
H792 H 0.33847 0.44934 0.0524 0.0
H793 H 0.36706 0.39536 0.05529 0.0
H794 H 0.42369 0.49457 1.00154 0.0
H795 H 0.45235 0.44094 0.00467 0.0
H796 H 0.56735 0.36535 0.03626 0.0
H797 H 0.59007 0.2581 0.02947 0.0
H798 H 0.5276 0.23913 0.01784 0.0
H799 H 0.50473 0.3464 0.02439 0.0
C800 C 0.38036 0.6858 0.65262 0.0
C801 C 0.40484 0.67231 0.63147 0.0
C802 C 0.38138 0.70175 0.58245 0.0
C803 C 0.40536 0.68029 0.59659 0.0
C804 C 0.35674 0.71458 0.60349 0.0
C805 C 0.35627 0.70677 0.63808 0.0
U806 U 0.39449 0.63343 0.73361 0.0
O807 O 0.4134 0.65217 0.7878 0.0
O808 O 0.36025 0.62693 0.77614 0.0
C809 C 0.38381 0.64275 0.80015 0.0
C810 C 0.37965 0.6799 0.69004 0.0
C811 C 0.37223 0.66624 0.82866 0.0
C812 C 0.38011 0.72108 0.86613 0.0
C813 C 0.38431 0.7018 0.83447 0.0
C814 C 0.3495 0.67046 0.88568 0.0
C815 C 0.36377 0.70525 0.89256 0.0
C816 C 0.35353 0.65127 0.85406 0.0
C817 C 0.43389 0.54397 0.71848 0.0
C818 C 0.4462 0.50247 0.76041 0.0
C819 C 0.45598 0.4889 0.70004 0.0
C820 C 0.44487 0.52109 0.69238 0.0
C821 C 0.45614 0.47892 0.734 0.0
C822 C 0.43516 0.53472 0.75273 0.0
C823 C 0.42083 0.57686 0.70876 0.0
O824 O 0.35683 0.65522 0.6975 0.0
O825 O 0.40972 0.68088 0.70883 0.0
O826 O 0.43982 0.60576 0.72107 0.0
O827 O 0.38725 0.57932 0.70925 0.0
H828 H 0.42356 0.65581 0.64192 0.0
H829 H 0.42423 0.66953 0.58071 0.0
H830 H 0.33768 0.73081 0.59313 0.0
H831 H 0.33707 0.71738 0.65367 0.0
H832 H 0.39216 0.74754 0.87107 0.0
H833 H 0.39901 0.71411 0.8156 0.0
H834 H 0.33764 0.6573 0.90587 0.0
H835 H 0.34424 0.62388 0.85056 0.0
H836 H 0.44585 0.49536 0.78683 0.0
H837 H 0.46268 0.47111 0.67906 0.0
H838 H 0.44403 0.52777 0.66576 0.0
H839 H 0.4269 0.55201 0.77328 0.0
C840 C 0.00618 0.69664 0.2727 0.0
C841 C 0.03076 0.73395 0.30288 0.0
C842 C 0.98977 0.70752 0.36895 0.0
C843 C 0.02225 0.7395 0.35128 0.0
C844 C 0.96375 0.67093 0.3389 0.0
C845 C 0.97218 0.66511 0.28974 0.0
U846 U 0.00653 0.74018 0.1868 0.0
O847 O 0.96624 0.72295 0.14406 0.0
O848 O 0.02108 0.71462 0.1383 0.0
C849 C 0.98891 0.71146 0.12368 0.0
C850 C 1.00507 0.6976 0.23561 0.0
C851 C 0.98484 0.72044 0.0882 0.0
C852 C 0.97587 0.69921 0.02763 0.0
C853 C 0.9742 0.69351 0.06225 0.0
C854 C 0.99587 0.75997 0.04466 0.0
C855 C 0.98808 0.73213 0.0185 0.0
C856 C 0.99446 0.75407 0.07957 0.0
C857 C 0.02995 0.84102 0.21847 0.0
C858 C 0.04365 0.90365 0.22025 0.0
C859 C 0.03194 0.87747 0.27312 0.0
C860 C 0.02714 0.84437 0.25447 0.0
C861 C 0.03966 0.90732 0.25592 0.0
C862 C 0.03893 0.87077 0.20174 0.0
C863 C 0.02047 0.80807 0.19642 0.0
O864 O 0.97762 0.71123 0.22247 0.0
O865 O 0.03398 0.70813 0.22263 0.0
O866 O 0.04456 0.78667 0.1917 0.0
O867 O 0.98915 0.79229 0.19743 0.0
H868 H 0.0481 0.75302 0.29253 0.0
H869 H 0.03563 0.76105 0.36829 0.0
H870 H 0.94424 0.65378 0.34888 0.0
H871 H 0.95699 0.64507 0.27219 0.0
H872 H 0.9703 0.67697 0.00839 0.0
H873 H 0.96669 0.66746 0.06885 0.0
H874 H 1.00496 0.78566 0.03829 0.0
H875 H 1.00251 0.77511 0.09973 0.0
H876 H 0.04881 0.92639 0.2064 0.0
H877 H 0.02817 0.87997 0.30057 0.0
H878 H 0.02 0.82173 0.26779 0.0
H879 H 0.04082 0.86875 0.17389 0.0
C880 C 0.70526 0.25801 0.83665 0.0
C881 C 0.6917 0.24034 0.86332 0.0
C882 C 0.72004 0.28573 0.90698 0.0
C883 C 0.69908 0.2541 0.89819 0.0
C884 C 0.73406 0.30301 0.88034 0.0
C885 C 0.72681 0.28919 0.84548 0.0
U886 U 0.65734 0.19634 0.75885 0.0
O887 O 0.63185 0.20979 0.70998 0.0
O888 O 0.67785 0.18049 0.70869 0.0
C889 C 0.65401 0.19549 0.6907 0.0
C890 C 0.69649 0.24545 0.79947 0.0
C891 C 0.6642 0.21512 0.66172 0.0
C892 C 0.66455 0.26988 0.63573 0.0
C893 C 0.66781 0.25165 0.66527 0.0
C894 C 0.65842 0.21562 0.59876 0.0
C895 C 0.65809 0.2519 0.6024 0.0
C896 C 0.66157 0.19733 0.62829 0.0
C897 C 0.59083 0.12025 0.76383 0.0
C898 C 0.57576 0.0713 0.71967 0.0
C899 C 0.53093 0.09403 0.7524 0.0
C900 C 0.55582 0.11876 0.77094 0.0
C901 C 0.54053 0.06998 0.72643 0.0
C902 C 0.6005 0.09628 0.73789 0.0
C903 C 0.61636 0.14807 0.78219 0.0
O904 O 0.70743 0.2155 0.78874 0.0
O905 O 0.66466 0.249 0.78642 0.0
O906 O 0.60795 0.17991 0.77951 0.0
O907 O 0.64947 0.1449 0.77865 0.0
H908 H 0.67494 0.21633 0.85715 0.0
H909 H 0.68753 0.24036 0.9181 0.0
H910 H 0.74992 0.32759 0.88636 0.0
H911 H 0.73749 0.30328 0.82526 0.0
H912 H 0.66303 0.29768 0.6391 0.0
H913 H 0.66948 0.26591 0.69079 0.0
H914 H 0.6526 0.20121 0.57336 0.0
H915 H 0.65834 0.16913 0.62501 0.0
H916 H 0.58451 0.05277 0.70055 0.0
H917 H 0.50408 0.09409 0.75813 0.0
H918 H 0.54759 0.13712 0.79057 0.0
H919 H 0.62719 0.09681 0.73148 0.0
C920 C 0.00563 0.34826 0.2358 0.0
C921 C 1.00495 0.37498 0.21348 0.0
C922 C 0.00704 0.33309 0.16321 0.0
C923 C 0.0057 0.36744 0.1775 0.0
C924 C 0.00632 0.30618 0.18526 0.0
C925 C 0.00568 0.31373 0.22135 0.0
U926 U 0.01772 0.41699 0.31205 0.0
O927 O 0.99634 0.42356 0.3629 0.0
O928 O 0.05278 0.42333 0.36058 0.0
C929 C 0.02718 0.42608 0.38053 0.0
C930 C 0.00916 0.35677 0.27405 0.0
C931 C 0.02958 0.40987 0.41366 0.0
C932 C 0.04339 0.36286 0.44861 0.0
C933 C 0.04451 0.37851 0.41734 0.0
C934 C 0.01479 0.41094 0.47349 0.0
C935 C 0.02715 0.37823 0.47643 0.0
C936 C 0.01602 0.42659 0.4424 0.0
C937 C 0.0228 0.51073 0.29108 0.0
C938 C 0.03366 0.55789 0.33739 0.0
C939 C 0.03176 0.57031 0.27696 0.0
C940 C 0.02497 0.53485 0.2663 0.0
C941 C 0.03653 0.5819 0.3125 0.0
C942 C 0.0268 0.52236 0.32671 0.0
C943 C 0.01795 0.47351 0.27953 0.0
O944 O 0.03981 0.37186 0.287 0.0
O945 O 0.98326 0.37171 0.28702 0.0
O946 O 0.98934 0.45682 0.28788 0.0
O947 O 0.04567 0.45682 0.2852 0.0
H948 H 1.00509 0.40183 0.22404 0.0
H949 H 0.00662 0.38865 0.16101 0.0
H950 H 0.00778 0.27954 0.17482 0.0
H951 H 0.00641 0.29276 0.23807 0.0
H952 H 0.05218 0.33716 0.44984 0.0
H953 H 0.05542 0.36531 0.39561 0.0
H954 H 1.0013 0.42284 0.49412 0.0
H955 H 1.00474 0.45103 0.44023 0.0
H956 H 0.03714 0.56661 0.36492 0.0
H957 H 0.0338 0.58869 0.25752 0.0
H958 H 0.02195 0.52621 0.23875 0.0
H959 H 0.02516 0.50394 0.34615 0.0
H960 H 0.2625 0.59985 0.59161 0.0
H961 H 0.31952 0.5091 0.58919 0.0
H962 H 0.28291 0.55062 0.68502 0.0
C963 C 0.27301 0.5787 0.60446 0.0
C964 C 0.2702 0.57753 0.63998 0.0
C965 C 0.29058 0.55437 0.58572 0.0
C966 C 0.30517 0.52765 0.60316 0.0
C967 C 0.30197 0.52594 0.63914 0.0
C968 C 0.28471 0.55126 0.65731 0.0
N969 N 0.31775 0.50112 0.65882 0.0
C970 C 0.32514 0.46784 0.64674 0.0
H971 H 0.35763 0.47215 0.96192 0.0
H972 H 0.27252 0.53563 0.97067 0.0
H973 H 0.34751 0.53155 0.05845 0.0
C974 C 0.3445 0.49129 0.9767 0.0
C975 C 0.35593 0.50011 0.01167 0.0
C976 C 0.31254 0.50067 0.96281 0.0
C977 C 0.29693 0.52732 0.98117 0.0
C978 C 0.31115 0.54046 0.01511 0.0
C979 C 0.33914 0.52478 0.03109 0.0
N980 N 0.29483 0.56556 0.03537 0.0
C981 C 0.28449 0.59641 0.0235 0.0
H982 H 0.68984 0.93771 0.41261 0.0
H983 H 0.75817 0.0263 0.39574 0.0
H984 H 0.75516 0.93083 0.32833 0.0
C985 C 0.70914 0.94957 0.39745 0.0
C986 C 0.72067 0.92985 0.36948 0.0
C987 C 0.72292 0.98398 0.40695 0.0
C988 C 0.74783 0.9996 0.38798 0.0
C989 C 0.75941 0.98084 0.35922 0.0
C990 C 0.74624 0.94554 0.35036 0.0
N991 N 0.78333 0.99749 0.33859 0.0
C992 C 0.78654 0.03352 0.33668 0.0
H993 H 0.7667 1.00067 0.04603 0.0
H994 H 0.71766 0.89654 0.0401 0.0
H995 H 0.70203 0.95794 0.95374 0.0
C996 C 0.75155 0.97884 0.03073 0.0
C997 C 0.73515 0.98321 0.99799 0.0
C998 C 0.7457 0.94757 0.04572 0.0
C999 C 0.72322 0.9202 0.02781 0.0
C1000 C 0.70768 0.92417 0.99425 0.0
C1001 C 0.71477 0.95505 0.97924 0.0
N1002 N 0.68284 0.89901 0.97546 0.0
C1003 C 0.67064 0.86832 0.98778 0.0
H1004 H 0.59115 0.25736 0.59497 0.0
H1005 H 0.58921 0.32357 0.5111 0.0
H1006 H 0.68557 0.28748 0.55105 0.0
C1007 C 0.60407 0.27006 0.57505 0.0
C1008 C 0.63994 0.26905 0.57456 0.0
C1009 C 0.58535 0.28972 0.55267 0.0
C1010 C 0.60302 0.30735 0.52789 0.0
C1011 C 0.6392 0.3058 0.52659 0.0
C1012 C 0.65754 0.28714 0.55057 0.0
N1013 N 0.65879 0.32728 0.50592 0.0
C1014 C 0.65256 0.32895 0.47009 0.0
H1015 H 0.04672 0.76628 1.00076 0.0
H1016 H 0.04055 0.71827 0.89617 0.0
H1017 H 0.95428 0.70213 0.95755 0.0
C1018 C 0.03138 0.75134 0.97883 0.0
C1019 C 0.99863 0.73491 0.9831 0.0
C1020 C 0.04629 0.74582 0.94745 0.0
C1021 C 0.02833 0.72359 0.91992 0.0
C1022 C 0.99477 0.70802 0.92381 0.0
C1023 C 0.97981 0.71486 0.95477 0.0
N1024 N 0.97591 0.68343 0.89846 0.0
C1025 C 0.98849 0.67086 0.86803 0.0
H1026 H 0.96133 0.35805 0.47417 0.0
H1027 H 0.97107 0.27094 0.53481 0.0
H1028 H 0.0589 0.34548 0.53042 0.0
C1029 C 0.97639 0.34439 0.49262 0.0
C1030 C 0.0116 0.35523 0.50063 0.0
C1031 C 0.96259 0.31211 0.50133 0.0
C1032 C 0.98136 0.2957 0.5271 0.0
C1033 C 0.01551 0.30947 0.53984 0.0
C1034 C 0.03134 0.33771 0.52442 0.0
N1035 N 0.03634 0.29161 0.56306 0.0
C1036 C 0.02778 0.28431 0.59608 0.0
H1037 H 0.41414 0.69018 0.93745 0.0
H1038 H 0.39633 0.75823 0.02595 0.0
H1039 H 0.3294 0.75484 0.93011 0.0
C1040 C 0.39881 0.70938 0.94922 0.0
C1041 C 0.37085 0.72072 0.92937 0.0
C1042 C 0.40805 0.72316 0.98367 0.0
C1043 C 0.38881 0.74792 0.99919 0.0
C1044 C 0.36005 0.75931 0.98025 0.0
C1045 C 0.35146 0.74611 0.94492 0.0
N1046 N 0.33897 0.78285 0.99679 0.0
C1047 C 0.33688 0.78603 0.03279 0.0
H1048 H 0.60061 0.59165 0.26148 0.0
H1049 H 0.51045 0.58906 0.31937 0.0
H1050 H 0.55109 0.68484 0.28209 0.0
C1051 C 0.5795 0.60444 0.27213 0.0
C1052 C 0.5781 0.63991 0.26922 0.0
C1053 C 0.55546 0.58569 0.29002 0.0
C1054 C 0.52877 0.60305 0.30479 0.0
C1055 C 0.52682 0.63896 0.30148 0.0
C1056 C 0.55188 0.65716 0.28394 0.0
N1057 N 0.50206 0.65857 0.31746 0.0
C1058 C 0.46877 0.64648 0.32483 0.0
H1059 H 1.00087 0.04613 0.7665 0.0
H1060 H 0.89679 0.04025 0.71731 0.0
H1061 H 0.95836 0.95411 0.70131 0.0
C1062 C 0.97909 0.03087 0.75125 0.0
C1063 C 0.98354 0.99824 0.73466 0.0
C1064 C 0.94777 0.04582 0.74547 0.0
C1065 C 0.92047 0.02799 0.72284 0.0
C1066 C 0.92453 0.99453 0.70711 0.0
C1067 C 0.95542 0.97954 0.71418 0.0
N1068 N 0.89946 0.97584 0.68211 0.0
C1069 C 0.86882 0.9882 0.66984 0.0
H1070 H 0.47562 0.96144 0.35724 0.0
H1071 H 0.53548 0.97073 0.2695 0.0
H1072 H 0.53166 0.0589 0.3438 0.0
C1073 C 0.49391 0.97643 0.34334 0.0
C1074 C 0.50199 0.01167 0.35402 0.0
C1075 C 0.50239 0.96247 0.31102 0.0
C1076 C 0.52797 0.98114 0.29431 0.0
C1077 C 0.54078 0.01534 0.30781 0.0
C1078 C 0.52562 0.03131 0.33618 0.0
N1079 N 0.56372 0.03602 0.2895 0.0
C1080 C 0.59689 0.02772 0.28243 0.0
H1081 H 0.93939 0.41332 0.68959 0.0
H1082 H 0.02751 0.39479 0.7578 0.0
H1083 H 0.93114 0.32873 0.75436 0.0
C1084 C 0.95098 0.3979 0.70882 0.0
C1085 C 0.93086 0.37013 0.72018 0.0
C1086 C 0.98545 0.40688 0.72266 0.0
C1087 C 1.00073 0.3875 0.74743 0.0
C1088 C 0.98152 0.3589 0.7588 0.0
C1089 C 0.94616 0.35065 0.74562 0.0
N1090 N 0.99779 0.33762 0.78229 0.0
C1091 C 0.03369 0.33499 0.78532 0.0
H1092 H 0.76507 0.4116 0.43677 0.0
H1093 H 0.7159 0.50689 0.43734 0.0
H1094 H 0.75101 0.46177 0.34257 0.0
C1095 C 0.7576 0.4336 0.42336 0.0
C1096 C 0.76157 0.43382 0.38775 0.0
C1097 C 0.74148 0.45963 0.44161 0.0
C1098 C 0.72904 0.48706 0.4237 0.0
C1099 C 0.73271 0.488 0.38782 0.0
C1100 C 0.74875 0.46119 0.37019 0.0
N1101 N 0.71881 0.51376 0.36776 0.0
C1102 C 0.70995 0.54674 0.37964 0.0
H1103 H 0.65986 0.53706 0.04316 0.0
H1104 H 0.75234 0.48487 0.03205 0.0
H1105 H 0.65996 0.4518 0.9643 0.0
C1106 C 0.67286 0.51614 0.03119 0.0
C1107 C 0.65564 0.49491 1.00229 0.0
C1108 C 0.70797 0.51329 0.04216 0.0
C1109 C 0.725 0.48714 0.02512 0.0
C1110 C 0.70723 0.46439 0.99806 0.0
C1111 C 0.67255 0.46793 0.98696 0.0
N1112 N 0.72521 0.43947 0.98025 0.0
C1113 C 0.71536 0.40457 0.98164 0.0
H1114 H 0.33077 0.09717 0.6132 0.0
H1115 H 0.32484 0.99321 0.62555 0.0
H1116 H 0.34606 0.07374 0.71562 0.0
C1117 C 0.33119 0.07746 0.6315 0.0
C1118 C 0.34068 0.08628 0.66629 0.0
C1119 C 0.32475 0.04335 0.61946 0.0
C1120 C 0.32712 0.01746 0.64224 0.0
C1121 C 0.32834 0.02077 0.68209 0.0
C1122 C 0.33944 0.06011 0.68997 0.0
N1123 N 0.31598 0.97872 0.71934 0.0
C1124 C 0.30232 0.94341 0.72342 0.0
H1125 H 0.26074 0.9834 0.93978 0.0
H1126 H 0.29179 0.09327 0.95402 0.0
H1127 H 0.31693 0.0287 0.03611 0.0
C1128 C 0.27334 0.00586 0.9562 0.0
C1129 C 0.28831 1.00175 0.98974 0.0
C1130 C 0.27478 0.03856 0.94319 0.0
C1131 C 0.29111 0.06799 0.96401 0.0
C1132 C 0.30656 0.06443 0.99767 0.0
C1133 C 0.30515 0.03128 0.01016 0.0
N1134 N 0.32382 0.09315 0.01987 0.0
C1135 C 0.32698 0.12804 0.01305 0.0
H1136 H 0.43826 0.76411 0.41083 0.0
H1137 H 0.43818 0.71636 0.50702 0.0
H1138 H 0.34431 0.75316 0.46176 0.0
C1139 C 0.4248 0.75715 0.43298 0.0
C1140 C 0.38937 0.76186 0.43328 0.0
C1141 C 0.44277 0.74111 0.45926 0.0
C1142 C 0.42475 0.72938 0.48696 0.0
C1143 C 0.38909 0.73406 0.48804 0.0
C1144 C 0.37178 0.7501 0.46105 0.0
N1145 N 0.36877 0.72183 0.51437 0.0
C1146 C 0.37969 0.70972 0.54619 0.0
H1147 H 0.94029 0.26051 0.9824 0.0
H1148 H 0.95481 0.29131 0.09234 0.0
H1149 H 0.03664 0.31674 0.02753 0.0
C1150 C 0.95676 0.27308 0.00484 0.0
C1151 C 0.99025 0.2881 1.00065 0.0
C1152 C 0.94385 0.27443 0.03759 0.0
C1153 C 0.96473 0.29071 0.06702 0.0
C1154 C 0.99834 0.3062 0.06339 0.0
C1155 C 0.01073 0.30491 0.03018 0.0
N1156 N 0.02059 0.32342 0.09212 0.0
C1157 C 0.01386 0.32646 0.12706 0.0
H1158 H 0.04378 0.65981 0.53801 0.0
H1159 H 0.03309 0.75177 0.48483 0.0
H1160 H 0.96547 0.65922 0.45214 0.0
C1161 C 0.03193 0.67265 0.5169 0.0
C1162 C 1.00321 0.65525 0.49555 0.0
C1163 C 0.04297 0.70769 0.51379 0.0
C1164 C 0.02607 0.7245 0.48737 0.0
C1165 C 0.99911 0.70658 0.46462 0.0
C1166 C 0.98799 0.67196 0.46838 0.0
N1167 N 0.98169 0.72423 0.43917 0.0
C1168 C 0.98357 0.71377 0.40448 0.0
H1169 H 0.61416 0.32901 0.09672 0.0
H1170 H 0.6263 0.3249 0.99272 0.0
H1171 H 0.71638 0.34614 0.07308 0.0
C1172 C 0.63243 0.3299 0.07699 0.0
C1173 C 0.66711 0.33994 0.0858 0.0
C1174 C 0.62034 0.32381 0.04285 0.0
C1175 C 0.64301 0.32691 0.01695 0.0
C1176 C 0.68283 0.32806 0.02018 0.0
C1177 C 0.69075 0.3392 0.05954 0.0
N1178 N 0.71998 0.3155 0.97808 0.0
C1179 C 0.72398 0.30182 0.94274 0.0
H1180 H 0.41218 0.43779 0.76369 0.0
H1181 H 0.50838 0.43757 0.71603 0.0
H1182 H 0.46296 0.34376 0.7528 0.0
C1183 C 0.43431 0.42429 0.75677 0.0
C1184 C 0.43455 0.38886 0.76149 0.0
C1185 C 0.46062 0.44222 0.74076 0.0
C1186 C 0.4883 0.42417 0.72905 0.0
C1187 C 0.48932 0.3885 0.73372 0.0
C1188 C 0.4623 0.37123 0.74974 0.0
N1189 N 0.51564 0.36816 0.7215 0.0
C1190 C 0.54748 0.37907 0.70943 0.0
H1191 H 0.98261 0.94009 0.25947 0.0
H1192 H 0.0925 0.95215 0.28999 0.0
H1193 H 0.02995 0.03609 0.31486 0.0
C1194 C 1.00538 0.95615 0.27192 0.0
C1195 C 1.00201 0.98994 0.28671 0.0
C1196 C 0.03771 0.94243 0.27332 0.0
C1197 C 0.06751 0.96273 0.28946 0.0
C1198 C 0.06479 0.99669 0.30463 0.0
C1199 C 0.03196 0.00994 0.30328 0.0
N1200 N 0.0942 0.01839 0.32129 0.0
C1201 C 0.12843 0.00952 0.32518 0.0
H1202 H 0.5382 0.04354 0.65893 0.0
H1203 H 0.48562 0.0335 0.75138 0.0
H1204 H 0.45257 0.96518 0.65936 0.0
C1205 C 0.51719 0.03178 0.67198 0.0
C1206 C 0.49586 1.00289 0.6549 0.0
C1207 C 0.51425 0.0431 0.707 0.0
C1208 C 0.48799 0.0263 0.7241 0.0
C1209 C 0.4652 0.9992 0.70646 0.0
C1210 C 0.46879 0.98783 0.67186 0.0
N1211 N 0.44006 0.98173 0.72445 0.0
C1212 C 0.40524 0.98311 0.71419 0.0
H1213 H 0.09922 0.61392 0.32738 0.0
H1214 H 0.9951 0.62459 0.32576 0.0
H1215 H 0.07423 0.71561 0.34576 0.0
C1216 C 0.07925 0.63189 0.3287 0.0
C1217 C 0.08765 0.66657 0.33915 0.0
C1218 C 0.04522 0.61934 0.32323 0.0
C1219 C 0.01908 0.64159 0.32715 0.0
C1220 C 0.02173 0.68136 0.32788 0.0
C1221 C 0.06104 0.68984 0.33878 0.0
N1222 N 0.97895 0.71775 0.31511 0.0
C1223 C 0.9432 0.72091 0.30214 0.0
loop_
_geom_bond_atom_site_label_1
_geom_bond_atom_site_label_2
_geom_bond_distance
_geom_bond_site_symmetry_2
_ccdc_geom_bond_type
C0 C1 1.264 . S
C0 C5 1.479 . S
C0 C10 1.465 . S
C1 C0 1.264 . S
C1 C3 1.339 . S
C1 H28 0.931 . S
C2 C3 1.395 . S
C2 C4 1.320 . S
C3 C1 1.339 . S
C3 C2 1.395 . S
C3 H29 0.929 . S
C4 C2 1.320 . S
C4 C5 1.405 . S
C4 H30 0.930 . S
C5 C0 1.479 . S
C5 C4 1.405 . S
C5 H31 0.931 . S
U6 O7 2.454 . S
U6 O8 2.458 . S
U6 C9 2.984 . S
U6 C10 2.847 . S
U6 C23 2.882 . S
U6 O24 2.441 . S
U6 O25 2.420 . S
U6 O26 2.455 . S
U6 O27 2.449 . S
O7 U6 2.454 . S
O7 C9 1.353 . S
O8 U6 2.458 . S
O8 C9 1.286 . S
C9 U6 2.984 . S
C9 O7 1.353 . S
C9 O8 1.286 . S
C9 C11 1.363 . S
C10 C0 1.465 . S
C10 U6 2.847 . S
C10 O24 1.249 . S
C10 O25 1.202 . S
C11 C9 1.363 . S
C11 C13 1.408 . S
C11 C16 1.342 . S
C12 C13 1.310 . S
C12 C15 1.461 . S
C12 H32 0.932 . S
C13 C11 1.408 . S
C13 C12 1.310 . S
C13 H33 0.930 . S
C14 C15 1.474 . S
C14 C16 1.285 . S
C14 H34 0.929 . S
C15 C12 1.461 . S
C15 C14 1.474 . S
C16 C11 1.342 . S
C16 C14 1.285 . S
C16 H35 0.930 . S
C17 C20 1.424 . S
C17 C22 1.245 . S
C17 C23 1.428 . S
C18 C21 1.260 . S
C18 C22 1.477 . S
C18 H36 0.932 . S
C19 C20 1.384 . S
C19 C21 1.479 . S
C19 H37 0.929 . S
C20 C17 1.424 . S
C20 C19 1.384 . S
C20 H38 0.928 . S
C21 C18 1.260 . S
C21 C19 1.479 . S
C22 C17 1.245 . S
C22 C18 1.477 . S
C22 H39 0.932 . S
C23 U6 2.882 . S
C23 C17 1.428 . S
C23 O26 1.301 . S
C23 O27 1.282 . S
O24 U6 2.441 . S
O24 C10 1.249 . S
O25 U6 2.420 . S
O25 C10 1.202 . S
O26 U6 2.455 . S
O26 C23 1.301 . S
O27 U6 2.449 . S
O27 C23 1.282 . S
H28 C1 0.931 . S
H29 C3 0.929 . S
H30 C4 0.930 . S
H31 C5 0.931 . S
H32 C12 0.932 . S
H33 C13 0.930 . S
H34 C14 0.929 . S
H35 C16 0.930 . S
H36 C18 0.932 . S
H37 C19 0.929 . S
H38 C20 0.928 . S
H39 C22 0.932 . S
C40 C41 1.264 . S
C40 C45 1.479 . S
C40 C50 1.465 . S
C41 C40 1.264 . S
C41 C43 1.339 . S
C41 H68 0.931 . S
C42 C43 1.395 . S
C42 C44 1.320 . S
C43 C41 1.339 . S
C43 C42 1.395 . S
C43 H69 0.929 . S
C44 C42 1.320 . S
C44 C45 1.405 . S
C44 H70 0.930 . S
C45 C40 1.479 . S
C45 C44 1.405 . S
C45 H71 0.931 . S
U46 O47 2.454 . S
U46 O48 2.458 . S
U46 C49 2.984 . S
U46 C50 2.847 . S
U46 C63 2.882 . S
U46 O64 2.441 . S
U46 O65 2.420 . S
U46 O66 2.455 . S
U46 O67 2.449 . S
O47 U46 2.454 . S
O47 C49 1.353 . S
O48 U46 2.458 . S
O48 C49 1.286 . S
C49 U46 2.984 . S
C49 O47 1.353 . S
C49 O48 1.286 . S
C49 C51 1.363 . S
C50 C40 1.465 . S
C50 U46 2.847 . S
C50 O64 1.249 . S
C50 O65 1.202 . S
C51 C49 1.363 . S
C51 C53 1.408 . S
C51 C56 1.342 . S
C52 C53 1.310 . S
C52 C55 1.461 . S
C52 H72 0.932 . S
C53 C51 1.408 . S
C53 C52 1.310 . S
C53 H73 0.930 . S
C54 C55 1.474 . S
C54 C56 1.285 . S
C54 H74 0.929 . S
C55 C52 1.461 . S
C55 C54 1.474 . S
C56 C51 1.342 . S
C56 C54 1.285 . S
C56 H75 0.930 . S
C57 C60 1.424 . S
C57 C62 1.245 . S
C57 C63 1.428 . S
C58 C61 1.260 . S
C58 C62 1.477 . S
C58 H76 0.932 . S
C59 C60 1.384 . S
C59 C61 1.479 . S
C59 H77 0.929 . S
C60 C57 1.424 . S
C60 C59 1.384 . S
C60 H78 0.928 . S
C61 C58 1.260 . S
C61 C59 1.479 . S
C62 C57 1.245 . S
C62 C58 1.477 . S
C62 H79 0.932 . S
C63 U46 2.882 . S
C63 C57 1.428 . S
C63 O66 1.301 . S
C63 O67 1.282 . S
O64 U46 2.441 . S
O64 C50 1.249 . S
O65 U46 2.420 . S
O65 C50 1.202 . S
O66 U46 2.455 . S
O66 C63 1.301 . S
O67 U46 2.449 . S
O67 C63 1.282 . S
H68 C41 0.931 . S
H69 C43 0.929 . S
H70 C44 0.930 . S
H71 C45 0.931 . S
H72 C52 0.932 . S
H73 C53 0.930 . S
H74 C54 0.929 . S
H75 C56 0.930 . S
H76 C58 0.932 . S
H77 C59 0.929 . S
H78 C60 0.928 . S
H79 C62 0.932 . S
C80 C81 1.264 . S
C80 C85 1.479 . S
C80 C90 1.465 . S
C81 C80 1.264 . S
C81 C83 1.339 . S
C81 H108 0.931 . S
C82 C83 1.395 . S
C82 C84 1.320 . S
C83 C81 1.339 . S
C83 C82 1.395 . S
C83 H109 0.929 . S
C84 C82 1.320 . S
C84 C85 1.405 . S
C84 H110 0.930 1_565 S
C85 C80 1.479 . S
C85 C84 1.405 . S
C85 H111 0.931 . S
U86 O87 2.454 . S
U86 O88 2.458 . S
U86 C89 2.984 . S
U86 C90 2.847 . S
U86 C103 2.882 . S
U86 O104 2.441 . S
U86 O105 2.420 . S
U86 O106 2.455 . S
U86 O107 2.449 . S
O87 U86 2.454 . S
O87 C89 1.353 . S
O88 U86 2.458 . S
O88 C89 1.286 . S
C89 U86 2.984 . S
C89 O87 1.353 . S
C89 O88 1.286 . S
C89 C91 1.363 . S
C90 C80 1.465 . S
C90 U86 2.847 . S
C90 O104 1.249 . S
C90 O105 1.202 . S
C91 C89 1.363 . S
C91 C93 1.408 . S
C91 C96 1.342 . S
C92 C93 1.310 . S
C92 C95 1.462 . S
C92 H112 0.932 . S
C93 C91 1.408 . S
C93 C92 1.310 . S
C93 H113 0.930 . S
C94 C95 1.472 1_545 S
C94 C96 1.284 1_545 S
C94 H114 0.932 . S
C95 C92 1.462 . S
C95 C94 1.472 1_565 S
C96 C91 1.342 . S
C96 C94 1.284 1_565 S
C96 H115 0.930 . S
C97 C100 1.424 . S
C97 C102 1.245 . S
C97 C103 1.428 . S
C98 C101 1.260 . S
C98 C102 1.477 . S
C98 H116 0.932 . S
C99 C100 1.384 . S
C99 C101 1.479 . S
C99 H117 0.929 . S
C100 C97 1.424 . S
C100 C99 1.384 . S
C100 H118 0.928 . S
C101 C98 1.260 . S
C101 C99 1.479 . S
C102 C97 1.245 . S
C102 C98 1.477 . S
C102 H119 0.932 . S
C103 U86 2.882 . S
C103 C97 1.428 . S
C103 O106 1.301 . S
C103 O107 1.282 . S
O104 U86 2.441 . S
O104 C90 1.249 . S
O105 U86 2.420 . S
O105 C90 1.202 . S
O106 U86 2.455 . S
O106 C103 1.301 . S
O107 U86 2.449 . S
O107 C103 1.282 . S
H108 C81 0.931 . S
H109 C83 0.929 . S
H110 C84 0.930 1_545 S
H111 C85 0.931 . S
H112 C92 0.932 . S
H113 C93 0.930 . S
H114 C94 0.932 . S
H115 C96 0.930 . S
H116 C98 0.932 . S
H117 C99 0.929 . S
H118 C100 0.928 . S
H119 C102 0.932 . S
C120 C121 1.264 . S
C120 C125 1.479 . S
C120 C130 1.465 . S
C121 C120 1.264 . S
C121 C123 1.339 . S
C121 H148 0.931 . S
C122 C123 1.395 . S
C122 C124 1.320 . S
C123 C121 1.339 . S
C123 C122 1.395 . S
C123 H149 0.929 . S
C124 C122 1.320 . S
C124 C125 1.405 . S
C124 H150 0.930 . S
C125 C120 1.479 . S
C125 C124 1.405 . S
C125 H151 0.931 . S
U126 O127 2.454 . S
U126 O128 2.458 . S
U126 C129 2.984 . S
U126 C130 2.847 . S
U126 C143 2.882 . S
U126 O144 2.441 . S
U126 O145 2.420 . S
U126 O146 2.455 . S
U126 O147 2.449 . S
O127 U126 2.454 . S
O127 C129 1.353 . S
O128 U126 2.458 . S
O128 C129 1.286 . S
C129 U126 2.984 . S
C129 O127 1.353 . S
C129 O128 1.286 . S
C129 C131 1.363 . S
C130 C120 1.465 . S
C130 U126 2.847 . S
C130 O144 1.249 . S
C130 O145 1.202 . S
C131 C129 1.363 . S
C131 C133 1.408 . S
C131 C136 1.342 . S
C132 C133 1.310 . S
C132 C135 1.461 . S
C132 H152 0.932 . S
C133 C131 1.408 . S
C133 C132 1.310 . S
C133 H153 0.930 . S
C134 C135 1.474 . S
C134 C136 1.285 . S
C134 H154 0.929 . S
C135 C132 1.461 . S
C135 C134 1.474 . S
C136 C131 1.342 . S
C136 C134 1.285 . S
C136 H155 0.930 . S
C137 C140 1.424 . S
C137 C142 1.245 . S
C137 C143 1.428 1_565 S
C138 C141 1.260 . S
C138 C142 1.477 . S
C138 H156 0.932 . S
C139 C140 1.384 . S
C139 C141 1.479 . S
C139 H157 0.929 . S
C140 C137 1.424 . S
C140 C139 1.384 . S
C140 H158 0.928 . S
C141 C138 1.260 . S
C141 C139 1.479 . S
C142 C137 1.245 . S
C142 C138 1.477 . S
C142 H159 0.932 . S
C143 U126 2.882 . S
C143 C137 1.428 1_545 S
C143 O146 1.301 . S
C143 O147 1.282 . S
O144 U126 2.441 . S
O144 C130 1.249 . S
O145 U126 2.420 . S
O145 C130 1.202 . S
O146 U126 2.455 . S
O146 C143 1.301 . S
O147 U126 2.449 . S
O147 C143 1.282 . S
H148 C121 0.931 . S
H149 C123 0.929 . S
H150 C124 0.930 . S
H151 C125 0.931 . S
H152 C132 0.932 . S
H153 C133 0.930 . S
H154 C134 0.929 . S
H155 C136 0.930 . S
H156 C138 0.932 . S
H157 C139 0.929 . S
H158 C140 0.928 . S
H159 C142 0.932 . S
C160 C161 1.264 . S
C160 C165 1.479 . S
C160 C170 1.465 . S
C161 C160 1.264 . S
C161 C163 1.339 . S
C161 H188 0.931 . S
C162 C163 1.395 . S
C162 C164 1.320 . S
C163 C161 1.339 . S
C163 C162 1.395 . S
C163 H189 0.929 . S
C164 C162 1.320 . S
C164 C165 1.405 . S
C164 H190 0.930 . S
C165 C160 1.479 . S
C165 C164 1.405 . S
C165 H191 0.931 . S
U166 O167 2.454 . S
U166 O168 2.458 . S
U166 C169 2.984 . S
U166 C170 2.847 . S
U166 C183 2.882 . S
U166 O184 2.441 . S
U166 O185 2.420 . S
U166 O186 2.455 . S
U166 O187 2.449 . S
O167 U166 2.454 . S
O167 C169 1.353 . S
O168 U166 2.458 . S
O168 C169 1.286 . S
C169 U166 2.984 . S
C169 O167 1.353 . S
C169 O168 1.286 . S
C169 C171 1.363 . S
C170 C160 1.465 . S
C170 U166 2.847 . S
C170 O184 1.249 . S
C170 O185 1.202 . S
C171 C169 1.363 . S
C171 C173 1.408 . S
C171 C176 1.342 . S
C172 C173 1.310 . S
C172 C175 1.461 . S
C172 H192 0.932 . S
C173 C171 1.408 . S
C173 C172 1.310 . S
C173 H193 0.930 . S
C174 C175 1.474 . S
C174 C176 1.285 . S
C174 H194 0.929 . S
C175 C172 1.461 . S
C175 C174 1.474 . S
C176 C171 1.342 . S
C176 C174 1.285 . S
C176 H195 0.930 . S
C177 C180 1.424 . S
C177 C182 1.245 . S
C177 C183 1.428 . S
C178 C181 1.260 . S
C178 C182 1.477 . S
C178 H196 0.932 . S
C179 C180 1.384 . S
C179 C181 1.479 . S
C179 H197 0.929 . S
C180 C177 1.424 . S
C180 C179 1.384 . S
C180 H198 0.928 . S
C181 C178 1.260 . S
C181 C179 1.479 . S
C182 C177 1.245 . S
C182 C178 1.477 . S
C182 H199 0.932 . S
C183 U166 2.882 . S
C183 C177 1.428 . S
C183 O186 1.301 . S
C183 O187 1.282 . S
O184 U166 2.441 . S
O184 C170 1.249 . S
O185 U166 2.420 . S
O185 C170 1.202 . S
O186 U166 2.455 . S
O186 C183 1.301 . S
O187 U166 2.449 . S
O187 C183 1.282 . S
H188 C161 0.931 . S
H189 C163 0.929 . S
H190 C164 0.930 . S
H191 C165 0.931 . S
H192 C172 0.932 . S
H193 C173 0.930 . S
H194 C174 0.929 . S
H195 C176 0.930 . S
H196 C178 0.932 . S
H197 C179 0.929 . S
H198 C180 0.928 . S
H199 C182 0.932 . S
C200 C201 1.264 . S
C200 C205 1.479 . S
C200 C210 1.465 . S
C201 C200 1.264 . S
C201 C203 1.339 . S
C201 H228 0.931 . S
C202 C203 1.395 . S
C202 C204 1.320 . S
C203 C201 1.339 . S
C203 C202 1.395 . S
C203 H229 0.929 . S
C204 C202 1.320 . S
C204 C205 1.405 . S
C204 H230 0.930 . S
C205 C200 1.479 . S
C205 C204 1.405 . S
C205 H231 0.931 . S
U206 O207 2.454 . S
U206 O208 2.458 . S
U206 C209 2.984 . S
U206 C210 2.847 . S
U206 C223 2.882 . S
U206 O224 2.441 . S
U206 O225 2.420 . S
U206 O226 2.455 . S
U206 O227 2.449 . S
O207 U206 2.454 . S
O207 C209 1.353 . S
O208 U206 2.458 . S
O208 C209 1.286 . S
C209 U206 2.984 . S
C209 O207 1.353 . S
C209 O208 1.286 . S
C209 C211 1.363 . S
C210 C200 1.465 . S
C210 U206 2.847 . S
C210 O224 1.249 . S
C210 O225 1.202 . S
C211 C209 1.363 . S
C211 C213 1.408 . S
C211 C216 1.342 . S
C212 C213 1.310 . S
C212 C215 1.461 . S
C212 H232 0.932 . S
C213 C211 1.408 . S
C213 C212 1.310 . S
C213 H233 0.930 . S
C214 C215 1.474 . S
C214 C216 1.285 . S
C214 H234 0.929 . S
C215 C212 1.461 . S
C215 C214 1.474 . S
C216 C211 1.342 . S
C216 C214 1.285 . S
C216 H235 0.930 . S
C217 C220 1.424 . S
C217 C222 1.245 . S
C217 C223 1.428 1_556 S
C218 C221 1.260 . S
C218 C222 1.477 . S
C218 H236 0.932 . S
C219 C220 1.384 . S
C219 C221 1.479 . S
C219 H237 0.929 . S
C220 C217 1.424 . S
C220 C219 1.384 . S
C220 H238 0.928 . S
C221 C218 1.260 . S
C221 C219 1.479 . S
C222 C217 1.245 . S
C222 C218 1.477 . S
C222 H239 0.932 . S
C223 U206 2.882 . S
C223 C217 1.428 1_554 S
C223 O226 1.301 . S
C223 O227 1.282 . S
O224 U206 2.441 . S
O224 C210 1.249 . S
O225 U206 2.420 . S
O225 C210 1.202 . S
O226 U206 2.455 . S
O226 C223 1.301 . S
O227 U206 2.449 . S
O227 C223 1.282 . S
H228 C201 0.931 . S
H229 C203 0.929 . S
H230 C204 0.930 . S
H231 C205 0.931 . S
H232 C212 0.932 . S
H233 C213 0.930 . S
H234 C214 0.929 . S
H235 C216 0.930 . S
H236 C218 0.932 . S
H237 C219 0.929 . S
H238 C220 0.928 . S
H239 C222 0.932 . S
C240 C241 1.264 . S
C240 C245 1.479 . S
C240 C250 1.465 . S
C241 C240 1.264 . S
C241 C243 1.339 . S
C241 H268 0.931 . S
C242 C243 1.395 . S
C242 C244 1.320 . S
C243 C241 1.339 . S
C243 C242 1.395 . S
C243 H269 0.929 . S
C244 C242 1.320 . S
C244 C245 1.405 . S
C244 H270 0.930 . S
C245 C240 1.479 . S
C245 C244 1.405 . S
C245 H271 0.931 . S
U246 O247 2.454 . S
U246 O248 2.458 . S
U246 C249 2.984 . S
U246 C250 2.847 . S
U246 C263 2.882 . S
U246 O264 2.441 . S
U246 O265 2.420 . S
U246 O266 2.455 . S
U246 O267 2.449 . S
O247 U246 2.454 . S
O247 C249 1.353 . S
O248 U246 2.458 . S
O248 C249 1.286 . S
C249 U246 2.984 . S
C249 O247 1.353 . S
C249 O248 1.286 . S
C249 C251 1.363 . S
C250 C240 1.465 . S
C250 U246 2.847 . S
C250 O264 1.249 . S
C250 O265 1.202 . S
C251 C249 1.363 . S
C251 C253 1.408 . S
C251 C256 1.342 . S
C252 C253 1.310 . S
C252 C255 1.461 . S
C252 H272 0.932 . S
C253 C251 1.408 . S
C253 C252 1.310 . S
C253 H273 0.930 . S
C254 C255 1.474 . S
C254 C256 1.285 . S
C254 H274 0.929 . S
C255 C252 1.461 . S
C255 C254 1.474 . S
C256 C251 1.342 . S
C256 C254 1.285 . S
C256 H275 0.930 . S
C257 C260 1.424 . S
C257 C262 1.245 . S
C257 C263 1.428 . S
C258 C261 1.260 . S
C258 C262 1.477 . S
C258 H276 0.932 . S
C259 C260 1.384 . S
C259 C261 1.479 . S
C259 H277 0.929 . S
C260 C257 1.424 . S
C260 C259 1.384 . S
C260 H278 0.928 . S
C261 C258 1.260 . S
C261 C259 1.479 . S
C262 C257 1.245 . S
C262 C258 1.477 . S
C262 H279 0.932 . S
C263 U246 2.882 . S
C263 C257 1.428 . S
C263 O266 1.301 . S
C263 O267 1.282 . S
O264 U246 2.441 . S
O264 C250 1.249 . S
O265 U246 2.420 . S
O265 C250 1.202 . S
O266 U246 2.455 . S
O266 C263 1.301 . S
O267 U246 2.449 . S
O267 C263 1.282 . S
H268 C241 0.931 . S
H269 C243 0.929 . S
H270 C244 0.930 . S
H271 C245 0.931 . S
H272 C252 0.932 . S
H273 C253 0.930 . S
H274 C254 0.929 . S
H275 C256 0.930 . S
H276 C258 0.932 . S
H277 C259 0.929 . S
H278 C260 0.928 . S
H279 C262 0.932 . S
C280 C281 1.264 . S
C280 C285 1.479 . S
C280 C290 1.465 . S
C281 C280 1.264 . S
C281 C283 1.339 . S
C281 H308 0.931 . S
C282 C283 1.395 . S
C282 C284 1.320 . S
C283 C281 1.339 . S
C283 C282 1.395 . S
C283 H309 0.929 . S
C284 C282 1.320 . S
C284 C285 1.405 . S
C284 H310 0.930 1_556 S
C285 C280 1.479 . S
C285 C284 1.405 . S
C285 H311 0.931 . S
U286 O287 2.454 . S
U286 O288 2.458 . S
U286 C289 2.984 . S
U286 C290 2.847 . S
U286 C303 2.882 . S
U286 O304 2.441 . S
U286 O305 2.420 . S
U286 O306 2.455 . S
U286 O307 2.449 . S
O287 U286 2.454 . S
O287 C289 1.353 . S
O288 U286 2.458 . S
O288 C289 1.286 . S
C289 U286 2.984 . S
C289 O287 1.353 . S
C289 O288 1.286 . S
C289 C291 1.363 . S
C290 C280 1.465 . S
C290 U286 2.847 . S
C290 O304 1.249 . S
C290 O305 1.202 . S
C291 C289 1.363 . S
C291 C293 1.408 . S
C291 C296 1.342 . S
C292 C293 1.310 . S
C292 C295 1.462 . S
C292 H312 0.932 . S
C293 C291 1.408 . S
C293 C292 1.310 . S
C293 H313 0.930 . S
C294 C295 1.472 1_554 S
C294 C296 1.284 1_554 S
C294 H314 0.932 . S
C295 C292 1.462 . S
C295 C294 1.472 1_556 S
C296 C291 1.342 . S
C296 C294 1.284 1_556 S
C296 H315 0.930 . S
C297 C300 1.424 . S
C297 C302 1.245 . S
C297 C303 1.428 . S
C298 C301 1.260 . S
C298 C302 1.477 . S
C298 H316 0.932 . S
C299 C300 1.384 . S
C299 C301 1.479 . S
C299 H317 0.929 . S
C300 C297 1.424 . S
C300 C299 1.384 . S
C300 H318 0.928 . S
C301 C298 1.260 . S
C301 C299 1.479 . S
C302 C297 1.245 . S
C302 C298 1.477 . S
C302 H319 0.932 . S
C303 U286 2.882 . S
C303 C297 1.428 . S
C303 O306 1.301 . S
C303 O307 1.282 . S
O304 U286 2.441 . S
O304 C290 1.249 . S
O305 U286 2.420 . S
O305 C290 1.202 . S
O306 U286 2.455 . S
O306 C303 1.301 . S
O307 U286 2.449 . S
O307 C303 1.282 . S
H308 C281 0.931 . S
H309 C283 0.929 . S
H310 C284 0.930 1_554 S
H311 C285 0.931 . S
H312 C292 0.932 . S
H313 C293 0.930 . S
H314 C294 0.932 . S
H315 C296 0.930 . S
H316 C298 0.932 . S
H317 C299 0.929 . S
H318 C300 0.928 . S
H319 C302 0.932 . S
C320 C321 1.264 . S
C320 C325 1.479 . S
C320 C330 1.465 . S
C321 C320 1.264 . S
C321 C323 1.339 . S
C321 H348 0.931 . S
C322 C323 1.395 . S
C322 C324 1.320 . S
C323 C321 1.339 . S
C323 C322 1.395 . S
C323 H349 0.929 . S
C324 C322 1.320 . S
C324 C325 1.405 . S
C324 H350 0.930 . S
C325 C320 1.479 . S
C325 C324 1.405 . S
C325 H351 0.931 . S
U326 O327 2.454 . S
U326 O328 2.458 . S
U326 C329 2.984 . S
U326 C330 2.847 . S
U326 C343 2.882 . S
U326 O344 2.441 . S
U326 O345 2.420 . S
U326 O346 2.455 . S
U326 O347 2.449 . S
O327 U326 2.454 . S
O327 C329 1.353 . S
O328 U326 2.458 . S
O328 C329 1.286 . S
C329 U326 2.984 . S
C329 O327 1.353 . S
C329 O328 1.286 . S
C329 C331 1.363 . S
C330 C320 1.465 . S
C330 U326 2.847 . S
C330 O344 1.249 . S
C330 O345 1.202 . S
C331 C329 1.363 . S
C331 C333 1.408 . S
C331 C336 1.342 . S
C332 C333 1.310 . S
C332 C335 1.461 . S
C332 H352 0.932 . S
C333 C331 1.408 . S
C333 C332 1.310 . S
C333 H353 0.930 . S
C334 C335 1.474 . S
C334 C336 1.285 . S
C334 H354 0.929 . S
C335 C332 1.461 . S
C335 C334 1.474 . S
C336 C331 1.342 . S
C336 C334 1.285 . S
C336 H355 0.930 . S
C337 C340 1.424 . S
C337 C342 1.245 . S
C337 C343 1.428 . S
C338 C341 1.260 . S
C338 C342 1.477 . S
C338 H356 0.932 . S
C339 C340 1.384 . S
C339 C341 1.479 . S
C339 H357 0.929 . S
C340 C337 1.424 . S
C340 C339 1.384 . S
C340 H358 0.928 . S
C341 C338 1.260 . S
C341 C339 1.479 . S
C342 C337 1.245 . S
C342 C338 1.477 . S
C342 H359 0.932 . S
C343 U326 2.882 . S
C343 C337 1.428 . S
C343 O346 1.301 . S
C343 O347 1.282 . S
O344 U326 2.441 . S
O344 C330 1.249 . S
O345 U326 2.420 . S
O345 C330 1.202 . S
O346 U326 2.455 . S
O346 C343 1.301 . S
O347 U326 2.449 . S
O347 C343 1.282 . S
H348 C321 0.931 . S
H349 C323 0.929 . S
H350 C324 0.930 . S
H351 C325 0.931 . S
H352 C332 0.932 . S
H353 C333 0.930 . S
H354 C334 0.929 . S
H355 C336 0.930 . S
H356 C338 0.932 . S
H357 C339 0.929 . S
H358 C340 0.928 . S
H359 C342 0.932 . S
C360 C361 1.264 . S
C360 C365 1.479 . S
C360 C370 1.465 . S
C361 C360 1.264 . S
C361 C363 1.339 . S
C361 H388 0.931 . S
C362 C363 1.395 . S
C362 C364 1.320 . S
C363 C361 1.339 . S
C363 C362 1.395 . S
C363 H389 0.929 . S
C364 C362 1.320 . S
C364 C365 1.405 . S
C364 H390 0.930 . S
C365 C360 1.479 . S
C365 C364 1.405 . S
C365 H391 0.931 . S
U366 O367 2.454 . S
U366 O368 2.458 . S
U366 C369 2.984 . S
U366 C370 2.847 . S
U366 C383 2.882 . S
U366 O384 2.441 . S
U366 O385 2.420 . S
U366 O386 2.455 . S
U366 O387 2.449 . S
O367 U366 2.454 . S
O367 C369 1.353 . S
O368 U366 2.458 . S
O368 C369 1.286 . S
C369 U366 2.984 . S
C369 O367 1.353 . S
C369 O368 1.286 . S
C369 C371 1.363 . S
C370 C360 1.465 . S
C370 U366 2.847 . S
C370 O384 1.249 . S
C370 O385 1.202 . S
C371 C369 1.363 . S
C371 C373 1.408 . S
C371 C376 1.342 . S
C372 C373 1.310 . S
C372 C375 1.461 . S
C372 H392 0.932 . S
C373 C371 1.408 . S
C373 C372 1.310 . S
C373 H393 0.930 . S
C374 C375 1.474 . S
C374 C376 1.285 . S
C374 H394 0.929 . S
C375 C372 1.461 . S
C375 C374 1.474 . S
C376 C371 1.342 . S
C376 C374 1.285 . S
C376 H395 0.930 . S
C377 C380 1.424 . S
C377 C382 1.245 . S
C377 C383 1.428 1_655 S
C378 C381 1.260 . S
C378 C382 1.477 . S
C378 H396 0.932 . S
C379 C380 1.384 . S
C379 C381 1.479 . S
C379 H397 0.929 . S
C380 C377 1.424 . S
C380 C379 1.384 . S
C380 H398 0.928 . S
C381 C378 1.260 . S
C381 C379 1.479 . S
C382 C377 1.245 . S
C382 C378 1.477 . S
C382 H399 0.932 . S
C383 U366 2.882 . S
C383 C377 1.428 1_455 S
C383 O386 1.301 . S
C383 O387 1.282 . S
O384 U366 2.441 . S
O384 C370 1.249 . S
O385 U366 2.420 . S
O385 C370 1.202 . S
O386 U366 2.455 . S
O386 C383 1.301 . S
O387 U366 2.449 . S
O387 C383 1.282 . S
H388 C361 0.931 . S
H389 C363 0.929 . S
H390 C364 0.930 . S
H391 C365 0.931 . S
H392 C372 0.932 . S
H393 C373 0.930 . S
H394 C374 0.929 . S
H395 C376 0.930 . S
H396 C378 0.932 . S
H397 C379 0.929 . S
H398 C380 0.928 . S
H399 C382 0.932 . S
C400 C401 1.264 . S
C400 C405 1.479 . S
C400 C410 1.465 . S
C401 C400 1.264 . S
C401 C403 1.339 . S
C401 H428 0.931 . S
C402 C403 1.395 . S
C402 C404 1.320 . S
C403 C401 1.339 . S
C403 C402 1.395 . S
C403 H429 0.929 . S
C404 C402 1.320 . S
C404 C405 1.405 . S
C404 H430 0.930 . S
C405 C400 1.479 . S
C405 C404 1.405 . S
C405 H431 0.931 . S
U406 O407 2.454 . S
U406 O408 2.458 . S
U406 C409 2.984 . S
U406 C410 2.847 . S
U406 C423 2.882 . S
U406 O424 2.441 . S
U406 O425 2.420 . S
U406 O426 2.455 . S
U406 O427 2.449 . S
O407 U406 2.454 . S
O407 C409 1.353 . S
O408 U406 2.458 . S
O408 C409 1.286 . S
C409 U406 2.984 . S
C409 O407 1.353 . S
C409 O408 1.286 . S
C409 C411 1.363 . S
C410 C400 1.465 . S
C410 U406 2.847 . S
C410 O424 1.249 . S
C410 O425 1.202 . S
C411 C409 1.363 . S
C411 C413 1.408 . S
C411 C416 1.342 . S
C412 C413 1.310 . S
C412 C415 1.461 . S
C412 H432 0.932 . S
C413 C411 1.408 . S
C413 C412 1.310 . S
C413 H433 0.930 . S
C414 C415 1.474 . S
C414 C416 1.285 . S
C414 H434 0.929 . S
C415 C412 1.461 . S
C415 C414 1.474 . S
C416 C411 1.342 . S
C416 C414 1.285 . S
C416 H435 0.930 . S
C417 C420 1.424 . S
C417 C422 1.245 . S
C417 C423 1.428 . S
C418 C421 1.260 . S
C418 C422 1.477 . S
C418 H436 0.932 . S
C419 C420 1.384 . S
C419 C421 1.479 . S
C419 H437 0.929 . S
C420 C417 1.424 . S
C420 C419 1.384 . S
C420 H438 0.928 . S
C421 C418 1.260 . S
C421 C419 1.479 . S
C422 C417 1.245 . S
C422 C418 1.477 . S
C422 H439 0.932 . S
C423 U406 2.882 . S
C423 C417 1.428 . S
C423 O426 1.301 . S
C423 O427 1.282 . S
O424 U406 2.441 . S
O424 C410 1.249 . S
O425 U406 2.420 . S
O425 C410 1.202 . S
O426 U406 2.455 . S
O426 C423 1.301 . S
O427 U406 2.449 . S
O427 C423 1.282 . S
H428 C401 0.931 . S
H429 C403 0.929 . S
H430 C404 0.930 . S
H431 C405 0.931 . S
H432 C412 0.932 . S
H433 C413 0.930 . S
H434 C414 0.929 . S
H435 C416 0.930 . S
H436 C418 0.932 . S
H437 C419 0.929 . S
H438 C420 0.928 . S
H439 C422 0.932 . S
C440 C441 1.264 . S
C440 C445 1.479 . S
C440 C450 1.465 . S
C441 C440 1.264 . S
C441 C443 1.339 . S
C441 H468 0.931 . S
C442 C443 1.395 . S
C442 C444 1.320 . S
C443 C441 1.339 . S
C443 C442 1.395 . S
C443 H469 0.929 . S
C444 C442 1.320 . S
C444 C445 1.405 . S
C444 H470 0.930 1_655 S
C445 C440 1.479 . S
C445 C444 1.405 . S
C445 H471 0.931 . S
U446 O447 2.454 . S
U446 O448 2.458 . S
U446 C449 2.984 . S
U446 C450 2.847 . S
U446 C463 2.882 . S
U446 O464 2.441 . S
U446 O465 2.420 . S
U446 O466 2.455 . S
U446 O467 2.449 . S
O447 U446 2.454 . S
O447 C449 1.353 . S
O448 U446 2.458 . S
O448 C449 1.286 . S
C449 U446 2.984 . S
C449 O447 1.353 . S
C449 O448 1.286 . S
C449 C451 1.363 . S
C450 C440 1.465 . S
C450 U446 2.847 . S
C450 O464 1.249 . S
C450 O465 1.202 . S
C451 C449 1.363 . S
C451 C453 1.408 . S
C451 C456 1.342 . S
C452 C453 1.310 . S
C452 C455 1.462 . S
C452 H472 0.932 . S
C453 C451 1.408 . S
C453 C452 1.310 . S
C453 H473 0.930 . S
C454 C455 1.472 1_455 S
C454 C456 1.284 1_455 S
C454 H474 0.932 . S
C455 C452 1.462 . S
C455 C454 1.472 1_655 S
C456 C451 1.342 . S
C456 C454 1.284 1_655 S
C456 H475 0.930 . S
C457 C460 1.424 . S
C457 C462 1.245 . S
C457 C463 1.428 . S
C458 C461 1.260 . S
C458 C462 1.477 . S
C458 H476 0.932 . S
C459 C460 1.384 . S
C459 C461 1.479 . S
C459 H477 0.929 . S
C460 C457 1.424 . S
C460 C459 1.384 . S
C460 H478 0.928 . S
C461 C458 1.260 . S
C461 C459 1.479 . S
C462 C457 1.245 . S
C462 C458 1.477 . S
C462 H479 0.932 . S
C463 U446 2.882 . S
C463 C457 1.428 . S
C463 O466 1.301 . S
C463 O467 1.282 . S
O464 U446 2.441 . S
O464 C450 1.249 . S
O465 U446 2.420 . S
O465 C450 1.202 . S
O466 U446 2.455 . S
O466 C463 1.301 . S
O467 U446 2.449 . S
O467 C463 1.282 . S
H468 C441 0.931 . S
H469 C443 0.929 . S
H470 C444 0.930 1_455 S
H471 C445 0.931 . S
H472 C452 0.932 . S
H473 C453 0.930 . S
H474 C454 0.932 . S
H475 C456 0.930 . S
H476 C458 0.932 . S
H477 C459 0.929 . S
H478 C460 0.928 . S
H479 C462 0.932 . S
C480 C481 1.264 . S
C480 C485 1.479 . S
C480 C490 1.465 . S
C481 C480 1.264 . S
C481 C483 1.339 . S
C481 H508 0.931 . S
C482 C483 1.395 . S
C482 C484 1.320 . S
C483 C481 1.339 . S
C483 C482 1.395 . S
C483 H509 0.929 . S
C484 C482 1.320 . S
C484 C485 1.405 . S
C484 H510 0.930 . S
C485 C480 1.479 . S
C485 C484 1.405 . S
C485 H511 0.931 . S
U486 O487 2.454 . S
U486 O488 2.458 . S
U486 C489 2.984 . S
U486 C490 2.847 . S
U486 C503 2.882 . S
U486 O504 2.441 . S
U486 O505 2.420 . S
U486 O506 2.455 . S
U486 O507 2.449 . S
O487 U486 2.454 . S
O487 C489 1.353 . S
O488 U486 2.458 . S
O488 C489 1.286 . S
C489 U486 2.984 . S
C489 O487 1.353 . S
C489 O488 1.286 . S
C489 C491 1.363 . S
C490 C480 1.465 . S
C490 U486 2.847 . S
C490 O504 1.249 . S
C490 O505 1.202 . S
C491 C489 1.363 . S
C491 C493 1.408 . S
C491 C496 1.342 . S
C492 C493 1.310 . S
C492 C495 1.461 . S
C492 H512 0.932 . S
C493 C491 1.408 . S
C493 C492 1.310 . S
C493 H513 0.930 . S
C494 C495 1.474 . S
C494 C496 1.285 . S
C494 H514 0.929 . S
C495 C492 1.461 . S
C495 C494 1.474 . S
C496 C491 1.342 . S
C496 C494 1.285 . S
C496 H515 0.930 . S
C497 C500 1.424 . S
C497 C502 1.245 . S
C497 C503 1.428 . S
C498 C501 1.260 . S
C498 C502 1.477 . S
C498 H516 0.932 . S
C499 C500 1.384 . S
C499 C501 1.479 . S
C499 H517 0.929 . S
C500 C497 1.424 . S
C500 C499 1.384 . S
C500 H518 0.928 . S
C501 C498 1.260 . S
C501 C499 1.479 . S
C502 C497 1.245 . S
C502 C498 1.477 . S
C502 H519 0.932 . S
C503 U486 2.882 . S
C503 C497 1.428 . S
C503 O506 1.301 . S
C503 O507 1.282 . S
O504 U486 2.441 . S
O504 C490 1.249 . S
O505 U486 2.420 . S
O505 C490 1.202 . S
O506 U486 2.455 . S
O506 C503 1.301 . S
O507 U486 2.449 . S
O507 C503 1.282 . S
H508 C481 0.931 . S
H509 C483 0.929 . S
H510 C484 0.930 . S
H511 C485 0.931 . S
H512 C492 0.932 . S
H513 C493 0.930 . S
H514 C494 0.929 . S
H515 C496 0.930 . S
H516 C498 0.932 . S
H517 C499 0.929 . S
H518 C500 0.928 . S
H519 C502 0.932 . S
C520 C521 1.264 . S
C520 C525 1.479 . S
C520 C530 1.465 . S
C521 C520 1.264 . S
C521 C523 1.339 . S
C521 H548 0.931 . S
C522 C523 1.395 . S
C522 C524 1.320 . S
C523 C521 1.339 . S
C523 C522 1.395 . S
C523 H549 0.929 . S
C524 C522 1.320 . S
C524 C525 1.405 . S
C524 H550 0.930 . S
C525 C520 1.479 . S
C525 C524 1.405 . S
C525 H551 0.931 . S
U526 O527 2.454 . S
U526 O528 2.458 . S
U526 C529 2.984 . S
U526 C530 2.847 . S
U526 C543 2.882 . S
U526 O544 2.441 . S
U526 O545 2.420 . S
U526 O546 2.455 . S
U526 O547 2.449 . S
O527 U526 2.454 . S
O527 C529 1.353 . S
O528 U526 2.458 . S
O528 C529 1.286 . S
C529 U526 2.984 . S
C529 O527 1.353 . S
C529 O528 1.286 . S
C529 C531 1.363 . S
C530 C520 1.465 . S
C530 U526 2.847 . S
C530 O544 1.249 . S
C530 O545 1.202 . S
C531 C529 1.363 . S
C531 C533 1.408 . S
C531 C536 1.342 . S
C532 C533 1.310 . S
C532 C535 1.461 . S
C532 H552 0.932 . S
C533 C531 1.408 . S
C533 C532 1.310 . S
C533 H553 0.930 . S
C534 C535 1.474 . S
C534 C536 1.285 . S
C534 H554 0.929 . S
C535 C532 1.461 . S
C535 C534 1.474 . S
C536 C531 1.342 . S
C536 C534 1.285 . S
C536 H555 0.930 . S
C537 C540 1.424 . S
C537 C542 1.245 . S
C537 C543 1.428 . S
C538 C541 1.260 . S
C538 C542 1.477 . S
C538 H556 0.932 . S
C539 C540 1.384 . S
C539 C541 1.479 . S
C539 H557 0.929 . S
C540 C537 1.424 . S
C540 C539 1.384 . S
C540 H558 0.928 . S
C541 C538 1.260 . S
C541 C539 1.479 . S
C542 C537 1.245 . S
C542 C538 1.477 . S
C542 H559 0.932 . S
C543 U526 2.882 . S
C543 C537 1.428 . S
C543 O546 1.301 . S
C543 O547 1.282 . S
O544 U526 2.441 . S
O544 C530 1.249 . S
O545 U526 2.420 . S
O545 C530 1.202 . S
O546 U526 2.455 . S
O546 C543 1.301 . S
O547 U526 2.449 . S
O547 C543 1.282 . S
H548 C521 0.931 . S
H549 C523 0.929 . S
H550 C524 0.930 . S
H551 C525 0.931 . S
H552 C532 0.932 . S
H553 C533 0.930 . S
H554 C534 0.929 . S
H555 C536 0.930 . S
H556 C538 0.932 . S
H557 C539 0.929 . S
H558 C540 0.928 . S
H559 C542 0.932 . S
C560 C561 1.264 . S
C560 C565 1.479 . S
C560 C570 1.465 . S
C561 C560 1.264 . S
C561 C563 1.339 . S
C561 H588 0.931 . S
C562 C563 1.395 . S
C562 C564 1.320 . S
C563 C561 1.339 . S
C563 C562 1.395 . S
C563 H589 0.929 . S
C564 C562 1.320 . S
C564 C565 1.405 . S
C564 H590 0.930 1_565 S
C565 C560 1.479 . S
C565 C564 1.405 . S
C565 H591 0.931 . S
U566 O567 2.454 . S
U566 O568 2.458 . S
U566 C569 2.984 . S
U566 C570 2.847 . S
U566 C583 2.882 . S
U566 O584 2.441 . S
U566 O585 2.420 . S
U566 O586 2.455 . S
U566 O587 2.449 . S
O567 U566 2.454 . S
O567 C569 1.353 . S
O568 U566 2.458 . S
O568 C569 1.286 . S
C569 U566 2.984 . S
C569 O567 1.353 . S
C569 O568 1.286 . S
C569 C571 1.363 . S
C570 C560 1.465 . S
C570 U566 2.847 . S
C570 O584 1.249 . S
C570 O585 1.202 . S
C571 C569 1.363 . S
C571 C573 1.408 . S
C571 C576 1.342 . S
C572 C573 1.310 . S
C572 C575 1.460 . S
C572 H592 0.932 . S
C573 C571 1.408 . S
C573 C572 1.310 . S
C573 H593 0.930 . S
C574 C575 1.475 1_545 S
C574 C576 1.285 1_545 S
C574 H594 0.929 . S
C575 C572 1.460 . S
C575 C574 1.475 1_565 S
C576 C571 1.342 . S
C576 C574 1.285 1_565 S
C576 H595 0.930 . S
C577 C580 1.424 . S
C577 C582 1.245 . S
C577 C583 1.428 . S
C578 C581 1.260 . S
C578 C582 1.477 . S
C578 H596 0.932 . S
C579 C580 1.384 . S
C579 C581 1.479 . S
C579 H597 0.929 . S
C580 C577 1.424 . S
C580 C579 1.384 . S
C580 H598 0.928 . S
C581 C578 1.260 . S
C581 C579 1.479 . S
C582 C577 1.245 . S
C582 C578 1.477 . S
C582 H599 0.932 . S
C583 U566 2.882 . S
C583 C577 1.428 . S
C583 O586 1.301 . S
C583 O587 1.282 . S
O584 U566 2.441 . S
O584 C570 1.249 . S
O585 U566 2.420 . S
O585 C570 1.202 . S
O586 U566 2.455 . S
O586 C583 1.301 . S
O587 U566 2.449 . S
O587 C583 1.282 . S
H588 C561 0.931 . S
H589 C563 0.929 . S
H590 C564 0.930 1_545 S
H591 C565 0.931 . S
H592 C572 0.932 . S
H593 C573 0.930 . S
H594 C574 0.929 . S
H595 C576 0.930 . S
H596 C578 0.932 . S
H597 C579 0.929 . S
H598 C580 0.928 . S
H599 C582 0.932 . S
C600 C601 1.264 . S
C600 C605 1.479 1_545 S
C600 C610 1.465 . S
C601 C600 1.264 . S
C601 C603 1.339 1_545 S
C601 H628 0.931 . S
C602 C603 1.395 . S
C602 C604 1.320 . S
C603 C601 1.339 1_565 S
C603 C602 1.395 . S
C603 H629 0.929 1_565 S
C604 C602 1.320 . S
C604 C605 1.405 . S
C604 H630 0.930 . S
C605 C600 1.479 1_565 S
C605 C604 1.405 . S
C605 H631 0.931 . S
U606 O607 2.454 1_545 S
U606 O608 2.458 . S
U606 C609 2.988 . S
U606 C610 2.847 . S
U606 C623 2.882 . S
U606 O624 2.441 . S
U606 O625 2.420 . S
U606 O626 2.455 . S
U606 O627 2.449 . S
O607 U606 2.454 1_565 S
O607 C609 1.350 1_565 S
O608 U606 2.458 . S
O608 C609 1.290 . S
C609 U606 2.988 . S
C609 O607 1.350 1_545 S
C609 O608 1.290 . S
C609 C611 1.361 1_545 S
C610 C600 1.465 . S
C610 U606 2.847 . S
C610 O624 1.249 . S
C610 O625 1.202 . S
C611 C609 1.361 1_565 S
C611 C613 1.408 . S
C611 C616 1.342 . S
C612 C613 1.310 . S
C612 C615 1.461 . S
C612 H632 0.932 . S
C613 C611 1.408 . S
C613 C612 1.310 . S
C613 H633 0.930 . S
C614 C615 1.474 . S
C614 C616 1.285 . S
C614 H634 0.929 . S
C615 C612 1.461 . S
C615 C614 1.474 . S
C616 C611 1.342 . S
C616 C614 1.285 . S
C616 H635 0.930 . S
C617 C620 1.424 . S
C617 C622 1.245 . S
C617 C623 1.428 . S
C618 C621 1.260 . S
C618 C622 1.477 . S
C618 H636 0.932 . S
C619 C620 1.384 . S
C619 C621 1.479 . S
C619 H637 0.929 . S
C620 C617 1.424 . S
C620 C619 1.384 . S
C620 H638 0.928 . S
C621 C618 1.260 . S
C621 C619 1.479 . S
C622 C617 1.245 . S
C622 C618 1.477 . S
C622 H639 0.932 . S
C623 U606 2.882 . S
C623 C617 1.428 . S
C623 O626 1.301 . S
C623 O627 1.282 . S
O624 U606 2.441 . S
O624 C610 1.249 . S
O625 U606 2.420 . S
O625 C610 1.202 . S
O626 U606 2.455 . S
O626 C623 1.301 . S
O627 U606 2.449 . S
O627 C623 1.282 . S
H628 C601 0.931 . S
H629 C603 0.929 1_545 S
H630 C604 0.930 . S
H631 C605 0.931 . S
H632 C612 0.932 . S
H633 C613 0.930 . S
H634 C614 0.929 . S
H635 C616 0.930 . S
H636 C618 0.932 . S
H637 C619 0.929 . S
H638 C620 0.928 . S
H639 C622 0.932 . S
C640 C641 1.264 . S
C640 C645 1.479 . S
C640 C650 1.465 . S
C641 C640 1.264 . S
C641 C643 1.339 . S
C641 H668 0.931 . S
C642 C643 1.395 . S
C642 C644 1.320 . S
C643 C641 1.339 . S
C643 C642 1.395 . S
C643 H669 0.929 . S
C644 C642 1.320 . S
C644 C645 1.405 . S
C644 H670 0.930 . S
C645 C640 1.479 . S
C645 C644 1.405 . S
C645 H671 0.931 . S
U646 O647 2.454 . S
U646 O648 2.458 . S
U646 C649 2.984 . S
U646 C650 2.847 . S
U646 C663 2.882 . S
U646 O664 2.441 . S
U646 O665 2.420 . S
U646 O666 2.455 . S
U646 O667 2.449 . S
O647 U646 2.454 . S
O647 C649 1.353 . S
O648 U646 2.458 . S
O648 C649 1.286 . S
C649 U646 2.984 . S
C649 O647 1.353 . S
C649 O648 1.286 . S
C649 C651 1.363 . S
C650 C640 1.465 . S
C650 U646 2.847 . S
C650 O664 1.249 . S
C650 O665 1.202 . S
C651 C649 1.363 . S
C651 C653 1.408 . S
C651 C656 1.342 . S
C652 C653 1.310 . S
C652 C655 1.461 . S
C652 H672 0.932 . S
C653 C651 1.408 . S
C653 C652 1.310 . S
C653 H673 0.930 . S
C654 C655 1.474 . S
C654 C656 1.285 . S
C654 H674 0.929 . S
C655 C652 1.461 . S
C655 C654 1.474 . S
C656 C651 1.342 . S
C656 C654 1.285 . S
C656 H675 0.930 . S
C657 C660 1.424 . S
C657 C662 1.245 . S
C657 C663 1.428 . S
C658 C661 1.260 . S
C658 C662 1.477 . S
C658 H676 0.932 . S
C659 C660 1.384 . S
C659 C661 1.479 . S
C659 H677 0.929 . S
C660 C657 1.424 . S
C660 C659 1.384 . S
C660 H678 0.928 . S
C661 C658 1.260 . S
C661 C659 1.479 . S
C662 C657 1.245 . S
C662 C658 1.477 . S
C662 H679 0.932 . S
C663 U646 2.882 . S
C663 C657 1.428 . S
C663 O666 1.301 . S
C663 O667 1.282 . S
O664 U646 2.441 . S
O664 C650 1.249 . S
O665 U646 2.420 . S
O665 C650 1.202 . S
O666 U646 2.455 . S
O666 C663 1.301 . S
O667 U646 2.449 . S
O667 C663 1.282 . S
H668 C641 0.931 . S
H669 C643 0.929 . S
H670 C644 0.930 . S
H671 C645 0.931 . S
H672 C652 0.932 . S
H673 C653 0.930 . S
H674 C654 0.929 . S
H675 C656 0.930 . S
H676 C658 0.932 . S
H677 C659 0.929 . S
H678 C660 0.928 . S
H679 C662 0.932 . S
C680 C681 1.264 . S
C680 C685 1.479 1_554 S
C680 C690 1.465 . S
C681 C680 1.264 . S
C681 C683 1.339 1_554 S
C681 H708 0.931 . S
C682 C683 1.395 . S
C682 C684 1.320 . S
C683 C681 1.339 1_556 S
C683 C682 1.395 . S
C683 H709 0.929 1_556 S
C684 C682 1.320 . S
C684 C685 1.405 . S
C684 H710 0.930 . S
C685 C680 1.479 1_556 S
C685 C684 1.405 . S
C685 H711 0.931 . S
U686 O687 2.454 1_554 S
U686 O688 2.458 . S
U686 C689 2.988 . S
U686 C690 2.847 . S
U686 C703 2.882 . S
U686 O704 2.441 . S
U686 O705 2.420 . S
U686 O706 2.455 . S
U686 O707 2.449 . S
O687 U686 2.454 1_556 S
O687 C689 1.350 1_556 S
O688 U686 2.458 . S
O688 C689 1.290 . S
C689 U686 2.988 . S
C689 O687 1.350 1_554 S
C689 O688 1.290 . S
C689 C691 1.361 1_554 S
C690 C680 1.465 . S
C690 U686 2.847 . S
C690 O704 1.249 . S
C690 O705 1.202 . S
C691 C689 1.361 1_556 S
C691 C693 1.408 . S
C691 C696 1.342 . S
C692 C693 1.310 . S
C692 C695 1.461 . S
C692 H712 0.932 . S
C693 C691 1.408 . S
C693 C692 1.310 . S
C693 H713 0.930 . S
C694 C695 1.474 . S
C694 C696 1.285 . S
C694 H714 0.929 . S
C695 C692 1.461 . S
C695 C694 1.474 . S
C696 C691 1.342 . S
C696 C694 1.285 . S
C696 H715 0.930 . S
C697 C700 1.424 . S
C697 C702 1.245 . S
C697 C703 1.428 . S
C698 C701 1.260 . S
C698 C702 1.477 . S
C698 H716 0.932 . S
C699 C700 1.384 . S
C699 C701 1.479 . S
C699 H717 0.929 . S
C700 C697 1.424 . S
C700 C699 1.384 . S
C700 H718 0.928 . S
C701 C698 1.260 . S
C701 C699 1.479 . S
C702 C697 1.245 . S
C702 C698 1.477 . S
C702 H719 0.932 . S
C703 U686 2.882 . S
C703 C697 1.428 . S
C703 O706 1.301 . S
C703 O707 1.282 . S
O704 U686 2.441 . S
O704 C690 1.249 . S
O705 U686 2.420 . S
O705 C690 1.202 . S
O706 U686 2.455 . S
O706 C703 1.301 . S
O707 U686 2.449 . S
O707 C703 1.282 . S
H708 C681 0.931 . S
H709 C683 0.929 1_554 S
H710 C684 0.930 . S
H711 C685 0.931 . S
H712 C692 0.932 . S
H713 C693 0.930 . S
H714 C694 0.929 . S
H715 C696 0.930 . S
H716 C698 0.932 . S
H717 C699 0.929 . S
H718 C700 0.928 . S
H719 C702 0.932 . S
C720 C721 1.264 . S
C720 C725 1.479 . S
C720 C730 1.465 . S
C721 C720 1.264 . S
C721 C723 1.339 . S
C721 H748 0.931 . S
C722 C723 1.395 . S
C722 C724 1.320 . S
C723 C721 1.339 . S
C723 C722 1.395 . S
C723 H749 0.929 . S
C724 C722 1.320 . S
C724 C725 1.405 . S
C724 H750 0.930 . S
C725 C720 1.479 . S
C725 C724 1.405 . S
C725 H751 0.931 . S
U726 O727 2.454 . S
U726 O728 2.458 . S
U726 C729 2.984 . S
U726 C730 2.847 . S
U726 C743 2.882 . S
U726 O744 2.441 . S
U726 O745 2.420 . S
U726 O746 2.455 . S
U726 O747 2.449 . S
O727 U726 2.454 . S
O727 C729 1.353 . S
O728 U726 2.458 . S
O728 C729 1.286 . S
C729 U726 2.984 . S
C729 O727 1.353 . S
C729 O728 1.286 . S
C729 C731 1.363 . S
C730 C720 1.465 . S
C730 U726 2.847 . S
C730 O744 1.249 . S
C730 O745 1.202 . S
C731 C729 1.363 . S
C731 C733 1.408 . S
C731 C736 1.342 . S
C732 C733 1.310 . S
C732 C735 1.461 . S
C732 H752 0.932 . S
C733 C731 1.408 . S
C733 C732 1.310 . S
C733 H753 0.930 . S
C734 C735 1.474 . S
C734 C736 1.285 . S
C734 H754 0.929 . S
C735 C732 1.461 . S
C735 C734 1.474 . S
C736 C731 1.342 . S
C736 C734 1.285 . S
C736 H755 0.930 . S
C737 C740 1.424 . S
C737 C742 1.245 . S
C737 C743 1.428 . S
C738 C741 1.260 . S
C738 C742 1.477 . S
C738 H756 0.932 . S
C739 C740 1.384 . S
C739 C741 1.479 . S
C739 H757 0.929 . S
C740 C737 1.424 . S
C740 C739 1.384 . S
C740 H758 0.928 . S
C741 C738 1.260 . S
C741 C739 1.479 . S
C742 C737 1.245 . S
C742 C738 1.477 . S
C742 H759 0.932 . S
C743 U726 2.882 . S
C743 C737 1.428 . S
C743 O746 1.301 . S
C743 O747 1.282 . S
O744 U726 2.441 . S
O744 C730 1.249 . S
O745 U726 2.420 . S
O745 C730 1.202 . S
O746 U726 2.455 . S
O746 C743 1.301 . S
O747 U726 2.449 . S
O747 C743 1.282 . S
H748 C721 0.931 . S
H749 C723 0.929 . S
H750 C724 0.930 . S
H751 C725 0.931 . S
H752 C732 0.932 . S
H753 C733 0.930 . S
H754 C734 0.929 . S
H755 C736 0.930 . S
H756 C738 0.932 . S
H757 C739 0.929 . S
H758 C740 0.928 . S
H759 C742 0.932 . S
C760 C761 1.264 . S
C760 C765 1.479 . S
C760 C770 1.465 . S
C761 C760 1.264 . S
C761 C763 1.339 . S
C761 H788 0.931 . S
C762 C763 1.395 . S
C762 C764 1.320 . S
C763 C761 1.339 . S
C763 C762 1.395 . S
C763 H789 0.929 . S
C764 C762 1.320 . S
C764 C765 1.405 . S
C764 H790 0.930 1_556 S
C765 C760 1.479 . S
C765 C764 1.405 . S
C765 H791 0.931 . S
U766 O767 2.454 . S
U766 O768 2.458 . S
U766 C769 2.984 . S
U766 C770 2.847 . S
U766 C783 2.882 . S
U766 O784 2.441 . S
U766 O785 2.420 . S
U766 O786 2.455 . S
U766 O787 2.449 . S
O767 U766 2.454 . S
O767 C769 1.353 . S
O768 U766 2.458 . S
O768 C769 1.286 . S
C769 U766 2.984 . S
C769 O767 1.353 . S
C769 O768 1.286 . S
C769 C771 1.363 . S
C770 C760 1.465 . S
C770 U766 2.847 . S
C770 O784 1.249 . S
C770 O785 1.202 . S
C771 C769 1.363 . S
C771 C773 1.408 . S
C771 C776 1.342 . S
C772 C773 1.310 . S
C772 C775 1.460 . S
C772 H792 0.932 . S
C773 C771 1.408 . S
C773 C772 1.310 . S
C773 H793 0.930 . S
C774 C775 1.475 1_554 S
C774 C776 1.285 1_554 S
C774 H794 0.929 . S
C775 C772 1.460 . S
C775 C774 1.475 1_556 S
C776 C771 1.342 . S
C776 C774 1.285 1_556 S
C776 H795 0.930 . S
C777 C780 1.424 . S
C777 C782 1.245 . S
C777 C783 1.428 . S
C778 C781 1.260 . S
C778 C782 1.477 . S
C778 H796 0.932 . S
C779 C780 1.384 . S
C779 C781 1.479 . S
C779 H797 0.929 . S
C780 C777 1.424 . S
C780 C779 1.384 . S
C780 H798 0.928 . S
C781 C778 1.260 . S
C781 C779 1.479 . S
C782 C777 1.245 . S
C782 C778 1.477 . S
C782 H799 0.932 . S
C783 U766 2.882 . S
C783 C777 1.428 . S
C783 O786 1.301 . S
C783 O787 1.282 . S
O784 U766 2.441 . S
O784 C770 1.249 . S
O785 U766 2.420 . S
O785 C770 1.202 . S
O786 U766 2.455 . S
O786 C783 1.301 . S
O787 U766 2.449 . S
O787 C783 1.282 . S
H788 C761 0.931 . S
H789 C763 0.929 . S
H790 C764 0.930 1_554 S
H791 C765 0.931 . S
H792 C772 0.932 . S
H793 C773 0.930 . S
H794 C774 0.929 . S
H795 C776 0.930 . S
H796 C778 0.932 . S
H797 C779 0.929 . S
H798 C780 0.928 . S
H799 C782 0.932 . S
C800 C801 1.264 . S
C800 C805 1.479 . S
C800 C810 1.465 . S
C801 C800 1.264 . S
C801 C803 1.339 . S
C801 H828 0.931 . S
C802 C803 1.395 . S
C802 C804 1.320 . S
C803 C801 1.339 . S
C803 C802 1.395 . S
C803 H829 0.929 . S
C804 C802 1.320 . S
C804 C805 1.405 . S
C804 H830 0.930 . S
C805 C800 1.479 . S
C805 C804 1.405 . S
C805 H831 0.931 . S
U806 O807 2.454 . S
U806 O808 2.458 . S
U806 C809 2.984 . S
U806 C810 2.847 . S
U806 C823 2.882 . S
U806 O824 2.441 . S
U806 O825 2.420 . S
U806 O826 2.455 . S
U806 O827 2.449 . S
O807 U806 2.454 . S
O807 C809 1.353 . S
O808 U806 2.458 . S
O808 C809 1.286 . S
C809 U806 2.984 . S
C809 O807 1.353 . S
C809 O808 1.286 . S
C809 C811 1.363 . S
C810 C800 1.465 . S
C810 U806 2.847 . S
C810 O824 1.249 . S
C810 O825 1.202 . S
C811 C809 1.363 . S
C811 C813 1.408 . S
C811 C816 1.342 . S
C812 C813 1.310 . S
C812 C815 1.461 . S
C812 H832 0.932 . S
C813 C811 1.408 . S
C813 C812 1.310 . S
C813 H833 0.930 . S
C814 C815 1.474 . S
C814 C816 1.285 . S
C814 H834 0.929 . S
C815 C812 1.461 . S
C815 C814 1.474 . S
C816 C811 1.342 . S
C816 C814 1.285 . S
C816 H835 0.930 . S
C817 C820 1.424 . S
C817 C822 1.245 . S
C817 C823 1.428 . S
C818 C821 1.260 . S
C818 C822 1.477 . S
C818 H836 0.932 . S
C819 C820 1.384 . S
C819 C821 1.479 . S
C819 H837 0.929 . S
C820 C817 1.424 . S
C820 C819 1.384 . S
C820 H838 0.928 . S
C821 C818 1.260 . S
C821 C819 1.479 . S
C822 C817 1.245 . S
C822 C818 1.477 . S
C822 H839 0.932 . S
C823 U806 2.882 . S
C823 C817 1.428 . S
C823 O826 1.301 . S
C823 O827 1.282 . S
O824 U806 2.441 . S
O824 C810 1.249 . S
O825 U806 2.420 . S
O825 C810 1.202 . S
O826 U806 2.455 . S
O826 C823 1.301 . S
O827 U806 2.449 . S
O827 C823 1.282 . S
H828 C801 0.931 . S
H829 C803 0.929 . S
H830 C804 0.930 . S
H831 C805 0.931 . S
H832 C812 0.932 . S
H833 C813 0.930 . S
H834 C814 0.929 . S
H835 C816 0.930 . S
H836 C818 0.932 . S
H837 C819 0.929 . S
H838 C820 0.928 . S
H839 C822 0.932 . S
C840 C841 1.264 . S
C840 C845 1.479 1_455 S
C840 C850 1.465 . S
C841 C840 1.264 . S
C841 C843 1.339 1_455 S
C841 H868 0.931 . S
C842 C843 1.395 . S
C842 C844 1.320 . S
C843 C841 1.339 1_655 S
C843 C842 1.395 . S
C843 H869 0.929 1_655 S
C844 C842 1.320 . S
C844 C845 1.405 . S
C844 H870 0.930 . S
C845 C840 1.479 1_655 S
C845 C844 1.405 . S
C845 H871 0.931 . S
U846 O847 2.454 1_455 S
U846 O848 2.458 . S
U846 C849 2.988 . S
U846 C850 2.847 . S
U846 C863 2.882 . S
U846 O864 2.441 . S
U846 O865 2.420 . S
U846 O866 2.455 . S
U846 O867 2.449 . S
O847 U846 2.454 1_655 S
O847 C849 1.350 1_655 S
O848 U846 2.458 . S
O848 C849 1.290 . S
C849 U846 2.988 . S
C849 O847 1.350 1_455 S
C849 O848 1.290 . S
C849 C851 1.361 1_455 S
C850 C840 1.465 . S
C850 U846 2.847 . S
C850 O864 1.249 . S
C850 O865 1.202 . S
C851 C849 1.361 1_655 S
C851 C853 1.408 . S
C851 C856 1.342 . S
C852 C853 1.310 . S
C852 C855 1.461 . S
C852 H872 0.932 . S
C853 C851 1.408 . S
C853 C852 1.310 . S
C853 H873 0.930 . S
C854 C855 1.474 . S
C854 C856 1.285 . S
C854 H874 0.929 . S
C855 C852 1.461 . S
C855 C854 1.474 . S
C856 C851 1.342 . S
C856 C854 1.285 . S
C856 H875 0.930 . S
C857 C860 1.424 . S
C857 C862 1.245 . S
C857 C863 1.428 . S
C858 C861 1.260 . S
C858 C862 1.477 . S
C858 H876 0.932 . S
C859 C860 1.384 . S
C859 C861 1.479 . S
C859 H877 0.929 . S
C860 C857 1.424 . S
C860 C859 1.384 . S
C860 H878 0.928 . S
C861 C858 1.260 . S
C861 C859 1.479 . S
C862 C857 1.245 . S
C862 C858 1.477 . S
C862 H879 0.932 . S
C863 U846 2.882 . S
C863 C857 1.428 . S
C863 O866 1.301 . S
C863 O867 1.282 . S
O864 U846 2.441 . S
O864 C850 1.249 . S
O865 U846 2.420 . S
O865 C850 1.202 . S
O866 U846 2.455 . S
O866 C863 1.301 . S
O867 U846 2.449 . S
O867 C863 1.282 . S
H868 C841 0.931 . S
H869 C843 0.929 1_455 S
H870 C844 0.930 . S
H871 C845 0.931 . S
H872 C852 0.932 . S
H873 C853 0.930 . S
H874 C854 0.929 . S
H875 C856 0.930 . S
H876 C858 0.932 . S
H877 C859 0.929 . S
H878 C860 0.928 . S
H879 C862 0.932 . S
C880 C881 1.264 . S
C880 C885 1.479 . S
C880 C890 1.465 . S
C881 C880 1.264 . S
C881 C883 1.339 . S
C881 H908 0.931 . S
C882 C883 1.395 . S
C882 C884 1.320 . S
C883 C881 1.339 . S
C883 C882 1.395 . S
C883 H909 0.929 . S
C884 C882 1.320 . S
C884 C885 1.405 . S
C884 H910 0.930 . S
C885 C880 1.479 . S
C885 C884 1.405 . S
C885 H911 0.931 . S
U886 O887 2.454 . S
U886 O888 2.458 . S
U886 C889 2.984 . S
U886 C890 2.847 . S
U886 C903 2.882 . S
U886 O904 2.441 . S
U886 O905 2.420 . S
U886 O906 2.455 . S
U886 O907 2.449 . S
O887 U886 2.454 . S
O887 C889 1.353 . S
O888 U886 2.458 . S
O888 C889 1.286 . S
C889 U886 2.984 . S
C889 O887 1.353 . S
C889 O888 1.286 . S
C889 C891 1.363 . S
C890 C880 1.465 . S
C890 U886 2.847 . S
C890 O904 1.249 . S
C890 O905 1.202 . S
C891 C889 1.363 . S
C891 C893 1.408 . S
C891 C896 1.342 . S
C892 C893 1.310 . S
C892 C895 1.461 . S
C892 H912 0.932 . S
C893 C891 1.408 . S
C893 C892 1.310 . S
C893 H913 0.930 . S
C894 C895 1.474 . S
C894 C896 1.285 . S
C894 H914 0.929 . S
C895 C892 1.461 . S
C895 C894 1.474 . S
C896 C891 1.342 . S
C896 C894 1.285 . S
C896 H915 0.930 . S
C897 C900 1.424 . S
C897 C902 1.245 . S
C897 C903 1.428 . S
C898 C901 1.260 . S
C898 C902 1.477 . S
C898 H916 0.932 . S
C899 C900 1.384 . S
C899 C901 1.479 . S
C899 H917 0.929 . S
C900 C897 1.424 . S
C900 C899 1.384 . S
C900 H918 0.928 . S
C901 C898 1.260 . S
C901 C899 1.479 . S
C902 C897 1.245 . S
C902 C898 1.477 . S
C902 H919 0.932 . S
C903 U886 2.882 . S
C903 C897 1.428 . S
C903 O906 1.301 . S
C903 O907 1.282 . S
O904 U886 2.441 . S
O904 C890 1.249 . S
O905 U886 2.420 . S
O905 C890 1.202 . S
O906 U886 2.455 . S
O906 C903 1.301 . S
O907 U886 2.449 . S
O907 C903 1.282 . S
H908 C881 0.931 . S
H909 C883 0.929 . S
H910 C884 0.930 . S
H911 C885 0.931 . S
H912 C892 0.932 . S
H913 C893 0.930 . S
H914 C894 0.929 . S
H915 C896 0.930 . S
H916 C898 0.932 . S
H917 C899 0.929 . S
H918 C900 0.928 . S
H919 C902 0.932 . S
C920 C921 1.264 . S
C920 C925 1.479 . S
C920 C930 1.465 . S
C921 C920 1.264 . S
C921 C923 1.339 . S
C921 H948 0.931 . S
C922 C923 1.395 . S
C922 C924 1.320 . S
C923 C921 1.339 . S
C923 C922 1.395 . S
C923 H949 0.929 . S
C924 C922 1.320 . S
C924 C925 1.405 . S
C924 H950 0.930 1_655 S
C925 C920 1.479 . S
C925 C924 1.405 . S
C925 H951 0.931 . S
U926 O927 2.454 . S
U926 O928 2.458 . S
U926 C929 2.984 . S
U926 C930 2.847 . S
U926 C943 2.882 . S
U926 O944 2.441 . S
U926 O945 2.420 . S
U926 O946 2.455 . S
U926 O947 2.449 . S
O927 U926 2.454 . S
O927 C929 1.353 . S
O928 U926 2.458 . S
O928 C929 1.286 . S
C929 U926 2.984 . S
C929 O927 1.353 . S
C929 O928 1.286 . S
C929 C931 1.363 . S
C930 C920 1.465 . S
C930 U926 2.847 . S
C930 O944 1.249 . S
C930 O945 1.202 . S
C931 C929 1.363 . S
C931 C933 1.408 . S
C931 C936 1.342 . S
C932 C933 1.310 . S
C932 C935 1.460 . S
C932 H952 0.932 . S
C933 C931 1.408 . S
C933 C932 1.310 . S
C933 H953 0.930 . S
C934 C935 1.475 1_455 S
C934 C936 1.285 1_455 S
C934 H954 0.929 . S
C935 C932 1.460 . S
C935 C934 1.475 1_655 S
C936 C931 1.342 . S
C936 C934 1.285 1_655 S
C936 H955 0.930 . S
C937 C940 1.424 . S
C937 C942 1.245 . S
C937 C943 1.428 . S
C938 C941 1.260 . S
C938 C942 1.477 . S
C938 H956 0.932 . S
C939 C940 1.384 . S
C939 C941 1.479 . S
C939 H957 0.929 . S
C940 C937 1.424 . S
C940 C939 1.384 . S
C940 H958 0.928 . S
C941 C938 1.260 . S
C941 C939 1.479 . S
C942 C937 1.245 . S
C942 C938 1.477 . S
C942 H959 0.932 . S
C943 U926 2.882 . S
C943 C937 1.428 . S
C943 O946 1.301 . S
C943 O947 1.282 . S
O944 U926 2.441 . S
O944 C930 1.249 . S
O945 U926 2.420 . S
O945 C930 1.202 . S
O946 U926 2.455 . S
O946 C943 1.301 . S
O947 U926 2.449 . S
O947 C943 1.282 . S
H948 C921 0.931 . S
H949 C923 0.929 . S
H950 C924 0.930 1_455 S
H951 C925 0.931 . S
H952 C932 0.932 . S
H953 C933 0.930 . S
H954 C934 0.929 . S
H955 C936 0.930 . S
H956 C938 0.932 . S
H957 C939 0.929 . S
H958 C940 0.928 . S
H959 C942 0.932 . S
H960 C963 0.929 . S
H961 C966 0.929 . S
H962 C968 0.930 . S
C963 H960 0.929 . S
C963 C964 1.398 . S
C963 C965 1.396 . S
C964 C963 1.398 . S
C964 C968 1.407 . S
C965 C963 1.396 . S
C965 C966 1.394 . S
C966 H961 0.929 . S
C966 C965 1.394 . S
C966 C967 1.382 . S
C967 C966 1.382 . S
C967 C968 1.392 . S
C967 N969 1.420 . S
C968 H962 0.930 . S
C968 C964 1.407 . S
C968 C967 1.392 . S
N969 C967 1.420 . S
N969 C970 1.244 . S
C970 N969 1.244 . S
H971 C974 0.929 . S
H972 C977 0.929 . S
H973 C979 0.930 . S
C974 H971 0.929 . S
C974 C975 1.398 1_556 S
C974 C976 1.396 . S
C975 C974 1.398 1_554 S
C975 C979 1.407 . S
C976 C974 1.396 . S
C976 C977 1.394 . S
C977 H972 0.929 . S
C977 C976 1.394 . S
C977 C978 1.382 1_556 S
C978 C977 1.382 1_554 S
C978 C979 1.392 . S
C978 N980 1.420 . S
C979 H973 0.930 . S
C979 C975 1.407 . S
C979 C978 1.392 . S
N980 C978 1.420 . S
N980 C981 1.244 . S
C981 N980 1.244 . S
H982 C985 0.929 . S
H983 C988 0.929 . S
H984 C990 0.930 . S
C985 H982 0.929 . S
C985 C986 1.398 . S
C985 C987 1.396 . S
C986 C985 1.398 . S
C986 C990 1.407 . S
C987 C985 1.396 . S
C987 C988 1.394 1_565 S
C988 H983 0.929 . S
C988 C987 1.394 1_545 S
C988 C989 1.382 . S
C989 C988 1.382 . S
C989 C990 1.392 1_545 S
C989 N991 1.420 . S
C990 H984 0.930 . S
C990 C986 1.407 . S
C990 C989 1.392 1_565 S
N991 C989 1.420 . S
N991 C992 1.244 . S
C992 N991 1.244 . S
H993 C996 0.929 . S
H994 C999 0.929 . S
H995 C1001 0.930 . S
C996 H993 0.929 . S
C996 C997 1.398 1_554 S
C996 C998 1.396 . S
C997 C996 1.398 1_556 S
C997 C1001 1.407 . S
C998 C996 1.396 . S
C998 C999 1.394 . S
C999 H994 0.929 . S
C999 C998 1.394 . S
C999 C1000 1.382 1_554 S
C1000 C999 1.382 1_556 S
C1000 C1001 1.392 . S
C1000 N1002 1.420 . S
C1001 H995 0.930 . S
C1001 C997 1.407 . S
C1001 C1000 1.392 . S
N1002 C1000 1.420 . S
N1002 C1003 1.244 . S
C1003 N1002 1.244 . S
H1004 C1007 0.929 . S
H1005 C1010 0.929 . S
H1006 C1012 0.930 . S
C1007 H1004 0.929 . S
C1007 C1008 1.398 . S
C1007 C1009 1.396 . S
C1008 C1007 1.398 . S
C1008 C1012 1.407 . S
C1009 C1007 1.396 . S
C1009 C1010 1.394 . S
C1010 H1005 0.929 . S
C1010 C1009 1.394 . S
C1010 C1011 1.382 . S
C1011 C1010 1.382 . S
C1011 C1012 1.392 . S
C1011 N1013 1.420 . S
C1012 H1006 0.930 . S
C1012 C1008 1.407 . S
C1012 C1011 1.392 . S
N1013 C1011 1.420 . S
N1013 C1014 1.244 . S
C1014 N1013 1.244 . S
H1015 C1018 0.929 . S
H1016 C1021 0.929 . S
H1017 C1023 0.930 . S
C1018 H1015 0.929 . S
C1018 C1019 1.398 1_455 S
C1018 C1020 1.396 . S
C1019 C1018 1.398 1_655 S
C1019 C1023 1.407 . S
C1020 C1018 1.396 . S
C1020 C1021 1.394 . S
C1021 H1016 0.929 . S
C1021 C1020 1.394 . S
C1021 C1022 1.382 1_455 S
C1022 C1021 1.382 1_655 S
C1022 C1023 1.392 . S
C1022 N1024 1.420 . S
C1023 H1017 0.930 . S
C1023 C1019 1.407 . S
C1023 C1022 1.392 . S
N1024 C1022 1.420 . S
N1024 C1025 1.244 . S
C1025 N1024 1.244 . S
H1026 C1029 0.929 . S
H1027 C1032 0.929 . S
H1028 C1034 0.930 . S
C1029 H1026 0.929 . S
C1029 C1030 1.398 1_655 S
C1029 C1031 1.396 . S
C1030 C1029 1.398 1_455 S
C1030 C1034 1.407 . S
C1031 C1029 1.396 . S
C1031 C1032 1.394 . S
C1032 H1027 0.929 . S
C1032 C1031 1.394 . S
C1032 C1033 1.382 1_655 S
C1033 C1032 1.382 1_455 S
C1033 C1034 1.392 . S
C1033 N1035 1.420 . S
C1034 H1028 0.930 . S
C1034 C1030 1.407 . S
C1034 C1033 1.392 . S
N1035 C1033 1.420 . S
N1035 C1036 1.244 . S
C1036 N1035 1.244 . S
H1037 C1040 0.929 . S
H1038 C1043 0.929 . S
H1039 C1045 0.930 . S
C1040 H1037 0.929 . S
C1040 C1041 1.398 . S
C1040 C1042 1.396 . S
C1041 C1040 1.398 . S
C1041 C1045 1.407 . S
C1042 C1040 1.396 . S
C1042 C1043 1.394 1_556 S
C1043 H1038 0.929 . S
C1043 C1042 1.394 1_554 S
C1043 C1044 1.382 . S
C1044 C1043 1.382 . S
C1044 C1045 1.392 1_554 S
C1044 N1046 1.420 . S
C1045 H1039 0.930 . S
C1045 C1041 1.407 . S
C1045 C1044 1.392 1_556 S
N1046 C1044 1.420 . S
N1046 C1047 1.244 . S
C1047 N1046 1.244 . S
H1048 C1051 0.929 . S
H1049 C1054 0.929 . S
H1050 C1056 0.930 . S
C1051 H1048 0.929 . S
C1051 C1052 1.398 . S
C1051 C1053 1.396 . S
C1052 C1051 1.398 . S
C1052 C1056 1.407 . S
C1053 C1051 1.396 . S
C1053 C1054 1.394 . S
C1054 H1049 0.929 . S
C1054 C1053 1.394 . S
C1054 C1055 1.382 . S
C1055 C1054 1.382 . S
C1055 C1056 1.392 . S
C1055 N1057 1.420 . S
C1056 H1050 0.930 . S
C1056 C1052 1.407 . S
C1056 C1055 1.392 . S
N1057 C1055 1.420 . S
N1057 C1058 1.244 . S
C1058 N1057 1.244 . S
H1059 C1062 0.929 . S
H1060 C1065 0.929 . S
H1061 C1067 0.930 . S
C1062 H1059 0.929 . S
C1062 C1063 1.398 1_545 S
C1062 C1064 1.396 . S
C1063 C1062 1.398 1_565 S
C1063 C1067 1.407 . S
C1064 C1062 1.396 . S
C1064 C1065 1.394 . S
C1065 H1060 0.929 . S
C1065 C1064 1.394 . S
C1065 C1066 1.382 1_545 S
C1066 C1065 1.382 1_565 S
C1066 C1067 1.392 . S
C1066 N1068 1.420 . S
C1067 H1061 0.930 . S
C1067 C1063 1.407 . S
C1067 C1066 1.392 . S
N1068 C1066 1.420 . S
N1068 C1069 1.244 . S
C1069 N1068 1.244 . S
H1070 C1073 0.929 . S
H1071 C1076 0.929 . S
H1072 C1078 0.930 . S
C1073 H1070 0.929 . S
C1073 C1074 1.398 1_565 S
C1073 C1075 1.396 . S
C1074 C1073 1.398 1_545 S
C1074 C1078 1.407 . S
C1075 C1073 1.396 . S
C1075 C1076 1.394 . S
C1076 H1071 0.929 . S
C1076 C1075 1.394 . S
C1076 C1077 1.382 1_565 S
C1077 C1076 1.382 1_545 S
C1077 C1078 1.392 . S
C1077 N1079 1.420 . S
C1078 H1072 0.930 . S
C1078 C1074 1.407 . S
C1078 C1077 1.392 . S
N1079 C1077 1.420 . S
N1079 C1080 1.244 . S
C1080 N1079 1.244 . S
H1081 C1084 0.929 . S
H1082 C1087 0.929 . S
H1083 C1089 0.930 . S
C1084 H1081 0.929 . S
C1084 C1085 1.398 . S
C1084 C1086 1.396 . S
C1085 C1084 1.398 . S
C1085 C1089 1.407 . S
C1086 C1084 1.396 . S
C1086 C1087 1.394 1_655 S
C1087 H1082 0.929 . S
C1087 C1086 1.394 1_455 S
C1087 C1088 1.382 . S
C1088 C1087 1.382 . S
C1088 C1089 1.392 1_455 S
C1088 N1090 1.420 . S
C1089 H1083 0.930 . S
C1089 C1085 1.407 . S
C1089 C1088 1.392 1_655 S
N1090 C1088 1.420 . S
N1090 C1091 1.244 . S
C1091 N1090 1.244 . S
H1092 C1095 0.929 . S
H1093 C1098 0.929 . S
H1094 C1100 0.930 . S
C1095 H1092 0.929 . S
C1095 C1096 1.398 . S
C1095 C1097 1.396 . S
C1096 C1095 1.398 . S
C1096 C1100 1.407 . S
C1097 C1095 1.396 . S
C1097 C1098 1.394 . S
C1098 H1093 0.929 . S
C1098 C1097 1.394 . S
C1098 C1099 1.382 . S
C1099 C1098 1.382 . S
C1099 C1100 1.392 . S
C1099 N1101 1.420 . S
C1100 H1094 0.930 . S
C1100 C1096 1.407 . S
C1100 C1099 1.392 . S
N1101 C1099 1.420 . S
N1101 C1102 1.244 . S
C1102 N1101 1.244 . S
H1103 C1106 0.929 . S
H1104 C1109 0.929 . S
H1105 C1111 0.930 . S
C1106 H1103 0.929 . S
C1106 C1107 1.398 1_554 S
C1106 C1108 1.396 . S
C1107 C1106 1.398 1_556 S
C1107 C1111 1.407 . S
C1108 C1106 1.396 . S
C1108 C1109 1.394 . S
C1109 H1104 0.929 . S
C1109 C1108 1.394 . S
C1109 C1110 1.382 1_554 S
C1110 C1109 1.382 1_556 S
C1110 C1111 1.392 . S
C1110 N1112 1.420 . S
C1111 H1105 0.930 . S
C1111 C1107 1.407 . S
C1111 C1110 1.392 . S
N1112 C1110 1.420 . S
N1112 C1113 1.244 . S
C1113 N1112 1.244 . S
H1114 C1117 0.929 . S
H1115 C1120 0.929 . S
H1116 C1122 0.930 . S
C1117 H1114 0.929 . S
C1117 C1118 1.398 . S
C1117 C1119 1.396 . S
C1118 C1117 1.398 . S
C1118 C1122 1.407 . S
C1119 C1117 1.396 . S
C1119 C1120 1.394 1_545 S
C1120 H1115 0.929 . S
C1120 C1119 1.394 1_565 S
C1120 C1121 1.382 . S
C1121 C1120 1.382 . S
C1121 C1122 1.392 1_565 S
C1121 N1123 1.420 . S
C1122 H1116 0.930 . S
C1122 C1118 1.407 . S
C1122 C1121 1.392 1_545 S
N1123 C1121 1.420 . S
N1123 C1124 1.244 . S
C1124 N1123 1.244 . S
H1125 C1128 0.926 . S
H1126 C1131 0.929 . S
H1127 C1133 0.930 . S
C1128 H1125 0.926 . S
C1128 C1129 1.398 1_556 S
C1128 C1130 1.396 . S
C1129 C1128 1.398 1_554 S
C1129 C1133 1.407 . S
C1130 C1128 1.396 . S
C1130 C1131 1.394 . S
C1131 H1126 0.929 . S
C1131 C1130 1.394 . S
C1131 C1132 1.382 1_556 S
C1132 C1131 1.382 1_554 S
C1132 C1133 1.392 . S
C1132 N1134 1.420 . S
C1133 H1127 0.930 . S
C1133 C1129 1.407 . S
C1133 C1132 1.392 . S
N1134 C1132 1.420 . S
N1134 C1135 1.244 . S
C1135 N1134 1.244 . S
H1136 C1139 0.929 . S
H1137 C1142 0.929 . S
H1138 C1144 0.930 . S
C1139 H1136 0.929 . S
C1139 C1140 1.398 . S
C1139 C1141 1.396 . S
C1140 C1139 1.398 . S
C1140 C1144 1.407 . S
C1141 C1139 1.396 . S
C1141 C1142 1.394 . S
C1142 H1137 0.929 . S
C1142 C1141 1.394 . S
C1142 C1143 1.382 . S
C1143 C1142 1.382 . S
C1143 C1144 1.392 . S
C1143 N1145 1.420 . S
C1144 H1138 0.930 . S
C1144 C1140 1.407 . S
C1144 C1143 1.392 . S
N1145 C1143 1.420 . S
N1145 C1146 1.244 . S
C1146 N1145 1.244 . S
H1147 C1150 0.926 . S
H1148 C1153 0.929 . S
H1149 C1155 0.930 . S
C1150 H1147 0.926 . S
C1150 C1151 1.398 1_655 S
C1150 C1152 1.396 . S
C1151 C1150 1.398 1_455 S
C1151 C1155 1.407 . S
C1152 C1150 1.396 . S
C1152 C1153 1.394 . S
C1153 H1148 0.929 . S
C1153 C1152 1.394 . S
C1153 C1154 1.382 1_655 S
C1154 C1153 1.382 1_455 S
C1154 C1155 1.392 . S
C1154 N1156 1.420 . S
C1155 H1149 0.930 . S
C1155 C1151 1.407 . S
C1155 C1154 1.392 . S
N1156 C1154 1.420 . S
N1156 C1157 1.244 . S
C1157 N1156 1.244 . S
H1158 C1161 0.929 . S
H1159 C1164 0.929 . S
H1160 C1166 0.930 . S
C1161 H1158 0.929 . S
C1161 C1162 1.398 1_455 S
C1161 C1163 1.396 . S
C1162 C1161 1.398 1_655 S
C1162 C1166 1.407 . S
C1163 C1161 1.396 . S
C1163 C1164 1.394 . S
C1164 H1159 0.929 . S
C1164 C1163 1.394 . S
C1164 C1165 1.382 1_455 S
C1165 C1164 1.382 1_655 S
C1165 C1166 1.392 . S
C1165 N1167 1.420 . S
C1166 H1160 0.930 . S
C1166 C1162 1.407 . S
C1166 C1165 1.392 . S
N1167 C1165 1.420 . S
N1167 C1168 1.244 . S
C1168 N1167 1.244 . S
H1169 C1172 0.929 . S
H1170 C1175 0.929 . S
H1171 C1177 0.930 . S
C1172 H1169 0.929 . S
C1172 C1173 1.398 . S
C1172 C1174 1.396 . S
C1173 C1172 1.398 . S
C1173 C1177 1.407 . S
C1174 C1172 1.396 . S
C1174 C1175 1.394 1_554 S
C1175 H1170 0.929 . S
C1175 C1174 1.394 1_556 S
C1175 C1176 1.382 . S
C1176 C1175 1.382 . S
C1176 C1177 1.392 1_556 S
C1176 N1178 1.420 . S
C1177 H1171 0.930 . S
C1177 C1173 1.407 . S
C1177 C1176 1.392 1_554 S
N1178 C1176 1.420 . S
N1178 C1179 1.244 . S
C1179 N1178 1.244 . S
H1180 C1183 0.929 . S
H1181 C1186 0.929 . S
H1182 C1188 0.930 . S
C1183 H1180 0.929 . S
C1183 C1184 1.398 . S
C1183 C1185 1.396 . S
C1184 C1183 1.398 . S
C1184 C1188 1.407 . S
C1185 C1183 1.396 . S
C1185 C1186 1.394 . S
C1186 H1181 0.929 . S
C1186 C1185 1.394 . S
C1186 C1187 1.382 . S
C1187 C1186 1.382 . S
C1187 C1188 1.392 . S
C1187 N1189 1.420 . S
C1188 H1182 0.930 . S
C1188 C1184 1.407 . S
C1188 C1187 1.392 . S
N1189 C1187 1.420 . S
N1189 C1190 1.244 . S
C1190 N1189 1.244 . S
H1191 C1194 0.926 . S
H1192 C1197 0.929 . S
H1193 C1199 0.930 . S
C1194 H1191 0.926 . S
C1194 C1195 1.398 1_565 S
C1194 C1196 1.396 . S
C1195 C1194 1.398 1_545 S
C1195 C1199 1.407 . S
C1196 C1194 1.396 . S
C1196 C1197 1.394 . S
C1197 H1192 0.929 . S
C1197 C1196 1.394 . S
C1197 C1198 1.382 1_565 S
C1198 C1197 1.382 1_545 S
C1198 C1199 1.392 . S
C1198 N1200 1.420 . S
C1199 H1193 0.930 . S
C1199 C1195 1.407 . S
C1199 C1198 1.392 . S
N1200 C1198 1.420 . S
N1200 C1201 1.244 . S
C1201 N1200 1.244 . S
H1202 C1205 0.929 . S
H1203 C1208 0.929 . S
H1204 C1210 0.930 . S
C1205 H1202 0.929 . S
C1205 C1206 1.398 1_545 S
C1205 C1207 1.396 . S
C1206 C1205 1.398 1_565 S
C1206 C1210 1.407 . S
C1207 C1205 1.396 . S
C1207 C1208 1.394 . S
C1208 H1203 0.929 . S
C1208 C1207 1.394 . S
C1208 C1209 1.382 1_545 S
C1209 C1208 1.382 1_565 S
C1209 C1210 1.392 . S
C1209 N1211 1.420 . S
C1210 H1204 0.930 . S
C1210 C1206 1.407 . S
C1210 C1209 1.392 . S
N1211 C1209 1.420 . S
N1211 C1212 1.244 . S
C1212 N1211 1.244 . S
H1213 C1216 0.929 . S
H1214 C1219 0.929 . S
H1215 C1221 0.930 . S
C1216 H1213 0.929 . S
C1216 C1217 1.398 . S
C1216 C1218 1.396 . S
C1217 C1216 1.398 . S
C1217 C1221 1.407 . S
C1218 C1216 1.396 . S
C1218 C1219 1.394 1_455 S
C1219 H1214 0.929 . S
C1219 C1218 1.394 1_655 S
C1219 C1220 1.382 . S
C1220 C1219 1.382 . S
C1220 C1221 1.392 1_655 S
C1220 N1222 1.420 . S
C1221 H1215 0.930 . S
C1221 C1217 1.407 . S
C1221 C1220 1.392 1_455 S
N1222 C1220 1.420 . S
N1222 C1223 1.244 . S
C1223 N1222 1.244 . S
C1217 C15 1.924 . S
C1184 C55 2.723 . S
C1206 C95 1.119 . S
C1195 C135 2.259 1_455 S
C1118 C175 1.924 . S
C215 C1129 2.259 1_565 S
C1096 C255 2.723 . S
C295 C1107 1.119 . S
C1173 C335 1.924 . S
C375 C1151 2.259 1_556 S
C415 C1140 2.723 . S
C1162 C455 1.119 . S
C1085 C495 1.893 . S
C535 C1052 2.677 . S
C1074 C575 1.130 1_545 S
C615 C1063 2.194 1_455 S
C986 C655 1.893 . S
C997 C695 2.194 1_565 S
C735 C964 2.677 . S
C775 C975 1.130 1_556 S
C815 C1041 1.893 . S
C855 C1019 2.194 1_554 S
C1008 C895 2.677 . S
C935 C1030 1.130 1_655 S
C965 C21 1.847 . S
C976 C61 3.234 . S
C101 C987 0.795 . S
C141 C998 0.947 . S
C1009 C181 1.847 . S
C221 C1020 0.947 . S
C1031 C261 3.234 . S
C1042 C301 0.796 . S
C1053 C341 1.847 . S
C381 C1064 0.947 . S
C421 C1075 3.234 . S
C461 C1086 0.795 . S
C501 C1097 1.681 . S
C541 C1108 2.931 . S
C581 C1119 0.924 1_565 S
C621 C1130 0.855 . S
C661 C1141 1.681 . S
C1152 C701 0.855 . S
C1163 C741 2.931 . S
C1174 C781 0.924 1_554 S
C1185 C821 1.681 . S
C861 C1196 0.855 . S
C901 C1207 2.931 . S
C941 C1218 0.924 1_655 S
C2 C1058 1.896 . S
C1091 C42 2.384 . S
C82 C1069 1.666 . S
C1080 C122 2.379 . S
C162 C970 1.896 . S
C202 C981 2.379 . S
C242 C992 2.384 . S
C282 C1003 1.666 . S
C1014 C322 1.896 . S
C1036 C362 2.379 . S
C402 C1047 2.384 . S
C442 C1025 1.666 . S
C1190 C482 1.818 . S
C1223 C522 2.113 . S
C562 C1201 1.818 1_565 S
C1212 C602 2.384 . S
C642 C1102 1.818 . S
C682 C1113 2.384 . S
C722 C1124 2.113 . S
C1135 C762 1.818 1_554 S
C1146 C802 1.818 . S
C1168 C842 2.384 . S
C882 C1179 2.113 . S
C1157 C922 1.818 1_455 S
