# Generated by pormake.
# Topology eea, (3,6)-cn, num edge types: 1
# Building blocks:
#     Node 0, Type 0, BuildingBlock: BELTOD_clean_linker_0, # of connection points: 3
#     Node 1, Type 0, BuildingBlock: BELTOD_clean_linker_0, # of connection points: 3
#     Node 2, Type 0, BuildingBlock: BELTOD_clean_linker_0, # of connection points: 3
#     Node 3, Type 0, BuildingBlock: BELTOD_clean_linker_0, # of connection points: 3
#     Node 4, Type 0, BuildingBlock: BELTOD_clean_linker_0, # of connection points: 3
#     Node 5, Type 0, BuildingBlock: BELTOD_clean_linker_0, # of connection points: 3
#     Node 6, Type 0, BuildingBlock: BELTOD_clean_linker_0, # of connection points: 3
#     Node 7, Type 0, BuildingBlock: BELTOD_clean_linker_0, # of connection points: 3
#     Node 8, Type 0, BuildingBlock: BELTOD_clean_linker_0, # of connection points: 3
#     Node 9, Type 0, BuildingBlock: BELTOD_clean_linker_0, # of connection points: 3
#     Node 10, Type 0, BuildingBlock: BELTOD_clean_linker_0, # of connection points: 3
#     Node 11, Type 0, BuildingBlock: BELTOD_clean_linker_0, # of connection points: 3
#     Node 12, Type 0, BuildingBlock: BELTOD_clean_linker_0, # of connection points: 3
#     Node 13, Type 0, BuildingBlock: BELTOD_clean_linker_0, # of connection points: 3
#     Node 14, Type 0, BuildingBlock: BELTOD_clean_linker_0, # of connection points: 3
#     Node 15, Type 0, BuildingBlock: BELTOD_clean_linker_0, # of connection points: 3
#     Node 16, Type 0, BuildingBlock: BELTOD_clean_linker_0, # of connection points: 3
#     Node 17, Type 0, BuildingBlock: BELTOD_clean_linker_0, # of connection points: 3
#     Node 18, Type 1, BuildingBlock: HISSIN_clean_sbu_0, # of connection points: 6
#     Node 19, Type 1, BuildingBlock: HISSIN_clean_sbu_0, # of connection points: 6
#     Node 20, Type 1, BuildingBlock: HISSIN_clean_sbu_0, # of connection points: 6
#     Node 21, Type 1, BuildingBlock: HISSIN_clean_sbu_0, # of connection points: 6
#     Node 22, Type 1, BuildingBlock: HISSIN_clean_sbu_0, # of connection points: 6
#     Node 23, Type 1, BuildingBlock: HISSIN_clean_sbu_0, # of connection points: 6
#     Node 24, Type 1, BuildingBlock: HISSIN_clean_sbu_0, # of connection points: 6
#     Node 25, Type 1, BuildingBlock: HISSIN_clean_sbu_0, # of connection points: 6
#     Node 26, Type 1, BuildingBlock: HISSIN_clean_sbu_0, # of connection points: 6
#     Edge 27, Type (0, 1), BuildingBlock: ZUJKAS_clean_linker_0, # of connection points: 2
#     Edge 28, Type (0, 1), BuildingBlock: ZUJKAS_clean_linker_0, # of connection points: 2
#     Edge 29, Type (0, 1), BuildingBlock: ZUJKAS_clean_linker_0, # of connection points: 2
#     Edge 30, Type (0, 1), BuildingBlock: ZUJKAS_clean_linker_0, # of connection points: 2
#     Edge 31, Type (0, 1), BuildingBlock: ZUJKAS_clean_linker_0, # of connection points: 2
#     Edge 32, Type (0, 1), BuildingBlock: ZUJKAS_clean_linker_0, # of connection points: 2
#     Edge 33, Type (0, 1), BuildingBlock: ZUJKAS_clean_linker_0, # of connection points: 2
#     Edge 34, Type (0, 1), BuildingBlock: ZUJKAS_clean_linker_0, # of connection points: 2
#     Edge 35, Type (0, 1), BuildingBlock: ZUJKAS_clean_linker_0, # of connection points: 2
#     Edge 36, Type (0, 1), BuildingBlock: ZUJKAS_clean_linker_0, # of connection points: 2
#     Edge 37, Type (0, 1), BuildingBlock: ZUJKAS_clean_linker_0, # of connection points: 2
#     Edge 38, Type (0, 1), BuildingBlock: ZUJKAS_clean_linker_0, # of connection points: 2
#     Edge 39, Type (0, 1), BuildingBlock: ZUJKAS_clean_linker_0, # of connection points: 2
#     Edge 40, Type (0, 1), BuildingBlock: ZUJKAS_clean_linker_0, # of connection points: 2
#     Edge 41, Type (0, 1), BuildingBlock: ZUJKAS_clean_linker_0, # of connection points: 2
#     Edge 42, Type (0, 1), BuildingBlock: ZUJKAS_clean_linker_0, # of connection points: 2
#     Edge 43, Type (0, 1), BuildingBlock: ZUJKAS_clean_linker_0, # of connection points: 2
#     Edge 44, Type (0, 1), BuildingBlock: ZUJKAS_clean_linker_0, # of connection points: 2
#     Edge 45, Type (0, 1), BuildingBlock: ZUJKAS_clean_linker_0, # of connection points: 2
#     Edge 46, Type (0, 1), BuildingBlock: ZUJKAS_clean_linker_0, # of connection points: 2
#     Edge 47, Type (0, 1), BuildingBlock: ZUJKAS_clean_linker_0, # of connection points: 2
#     Edge 48, Type (0, 1), BuildingBlock: ZUJKAS_clean_linker_0, # of connection points: 2
#     Edge 49, Type (0, 1), BuildingBlock: ZUJKAS_clean_linker_0, # of connection points: 2
#     Edge 50, Type (0, 1), BuildingBlock: ZUJKAS_clean_linker_0, # of connection points: 2
#     Edge 51, Type (0, 1), BuildingBlock: ZUJKAS_clean_linker_0, # of connection points: 2
#     Edge 52, Type (0, 1), BuildingBlock: ZUJKAS_clean_linker_0, # of connection points: 2
#     Edge 53, Type (0, 1), BuildingBlock: ZUJKAS_clean_linker_0, # of connection points: 2
#     Edge 54, Type (0, 1), BuildingBlock: ZUJKAS_clean_linker_0, # of connection points: 2
#     Edge 55, Type (0, 1), BuildingBlock: ZUJKAS_clean_linker_0, # of connection points: 2
#     Edge 56, Type (0, 1), BuildingBlock: ZUJKAS_clean_linker_0, # of connection points: 2
#     Edge 57, Type (0, 1), BuildingBlock: ZUJKAS_clean_linker_0, # of connection points: 2
#     Edge 58, Type (0, 1), BuildingBlock: ZUJKAS_clean_linker_0, # of connection points: 2
#     Edge 59, Type (0, 1), BuildingBlock: ZUJKAS_clean_linker_0, # of connection points: 2
#     Edge 60, Type (0, 1), BuildingBlock: ZUJKAS_clean_linker_0, # of connection points: 2
#     Edge 61, Type (0, 1), BuildingBlock: ZUJKAS_clean_linker_0, # of connection points: 2
#     Edge 62, Type (0, 1), BuildingBlock: ZUJKAS_clean_linker_0, # of connection points: 2
#     Edge 63, Type (0, 1), BuildingBlock: ZUJKAS_clean_linker_0, # of connection points: 2
#     Edge 64, Type (0, 1), BuildingBlock: ZUJKAS_clean_linker_0, # of connection points: 2
#     Edge 65, Type (0, 1), BuildingBlock: ZUJKAS_clean_linker_0, # of connection points: 2
#     Edge 66, Type (0, 1), BuildingBlock: ZUJKAS_clean_linker_0, # of connection points: 2
#     Edge 67, Type (0, 1), BuildingBlock: ZUJKAS_clean_linker_0, # of connection points: 2
#     Edge 68, Type (0, 1), BuildingBlock: ZUJKAS_clean_linker_0, # of connection points: 2
#     Edge 69, Type (0, 1), BuildingBlock: ZUJKAS_clean_linker_0, # of connection points: 2
#     Edge 70, Type (0, 1), BuildingBlock: ZUJKAS_clean_linker_0, # of connection points: 2
#     Edge 71, Type (0, 1), BuildingBlock: ZUJKAS_clean_linker_0, # of connection points: 2
#     Edge 72, Type (0, 1), BuildingBlock: ZUJKAS_clean_linker_0, # of connection points: 2
#     Edge 73, Type (0, 1), BuildingBlock: ZUJKAS_clean_linker_0, # of connection points: 2
#     Edge 74, Type (0, 1), BuildingBlock: ZUJKAS_clean_linker_0, # of connection points: 2
#     Edge 75, Type (0, 1), BuildingBlock: ZUJKAS_clean_linker_0, # of connection points: 2
#     Edge 76, Type (0, 1), BuildingBlock: ZUJKAS_clean_linker_0, # of connection points: 2
#     Edge 77, Type (0, 1), BuildingBlock: ZUJKAS_clean_linker_0, # of connection points: 2
#     Edge 78, Type (0, 1), BuildingBlock: ZUJKAS_clean_linker_0, # of connection points: 2
#     Edge 79, Type (0, 1), BuildingBlock: ZUJKAS_clean_linker_0, # of connection points: 2
#     Edge 80, Type (0, 1), BuildingBlock: ZUJKAS_clean_linker_0, # of connection points: 2
# Relax obj value: 0.032
# Max RMSD: 0.130
# Mean RMSD: 0.071
data_MOF--net-eea--node1-HISSIN_clean_sbu_0--node2-BELTOD_clean_linker_0--edge1-ZUJKAS_clean_linker_0
_symmetry_space_group_name_H-M    P1
_symmetry_Int_Tables_number       1
_symmetry_cell_setting            triclinic
loop_
_symmetry_equiv_pos_as_xyz
'x, y, z'
_cell_length_a     74.417604
_cell_length_b     74.352835
_cell_length_c     100.89564
_cell_angle_alpha  93.525123
_cell_angle_beta   93.658291
_cell_angle_gamma 119.67884
loop_
_atom_site_label
_atom_site_type_symbol
_atom_site_fract_x
_atom_site_fract_y
_atom_site_fract_z
_atom_type_partial_charge
P0 P 0.31774 0.16446 0.40614 0.0
H1 H 0.32115 0.14401 0.38164 0.0
H2 H 0.30254 0.10781 0.37155 0.0
H3 H 0.266 0.08995 0.40498 0.0
H4 H 0.28435 0.12618 0.41483 0.0
H5 H 0.3345 0.20525 0.39599 0.0
H6 H 0.3177 0.22334 0.38621 0.0
H7 H 0.25743 0.1703 0.38972 0.0
H8 H 0.27424 0.15225 0.39935 0.0
H9 H 0.34027 0.15693 0.4276 0.0
H10 H 0.2937 0.17531 0.42402 0.0
O11 O 0.34251 0.17559 0.40294 0.0
H12 H 0.33955 0.15834 0.45181 0.0
H13 H 0.29249 0.17624 0.44812 0.0
C14 C 0.30448 0.13766 0.39912 0.0
C15 C 0.30923 0.13224 0.38683 0.0
C16 C 0.29859 0.11155 0.38108 0.0
C17 C 0.28285 0.09595 0.38749 0.0
C18 C 0.27791 0.10158 0.39972 0.0
C19 C 0.28857 0.12227 0.40545 0.0
C20 C 0.30558 0.17737 0.39829 0.0
C21 C 0.31768 0.19744 0.39451 0.0
C22 C 0.30809 0.20774 0.38891 0.0
C23 C 0.2863 0.1982 0.38726 0.0
C24 C 0.27427 0.17804 0.39098 0.0
C25 C 0.28384 0.16768 0.39641 0.0
C26 C 0.31727 0.16625 0.424 0.0
C27 C 0.32992 0.16131 0.43203 0.0
C28 C 0.32934 0.16194 0.44586 0.0
C29 C 0.31593 0.16738 0.45193 0.0
C30 C 0.3032 0.17227 0.44381 0.0
C31 C 0.30382 0.17165 0.42997 0.0
P32 P 0.88322 0.13795 0.41909 0.0
H33 H 0.88073 0.12013 0.39222 0.0
H34 H 0.85222 0.09038 0.37825 0.0
H35 H 0.80934 0.08835 0.40584 0.0
H36 H 0.83771 0.11841 0.41951 0.0
H37 H 0.92746 0.16367 0.42664 0.0
H38 H 0.95523 0.1916 0.41648 0.0
H39 H 0.90977 0.19085 0.3872 0.0
H40 H 0.88189 0.16235 0.39739 0.0
H41 H 0.86468 0.11345 0.4406 0.0
H42 H 0.88389 0.17571 0.43098 0.0
O43 O 0.89433 0.1239 0.42289 0.0
H44 H 0.85552 0.12125 0.46205 0.0
H45 H 0.87439 0.18368 0.45254 0.0
C46 C 0.86141 0.12135 0.40696 0.0
C47 C 0.86505 0.11376 0.39499 0.0
C48 C 0.84878 0.09664 0.38708 0.0
C49 C 0.82862 0.08672 0.39111 0.0
C50 C 0.82467 0.09562 0.40246 0.0
C51 C 0.84098 0.1128 0.41035 0.0
C52 C 0.90274 0.16071 0.41259 0.0
C53 C 0.92343 0.16968 0.41814 0.0
C54 C 0.9393 0.18581 0.41237 0.0
C55 C 0.93474 0.19344 0.40099 0.0
C56 C 0.91379 0.18513 0.39586 0.0
C57 C 0.89786 0.1689 0.40168 0.0
C58 C 0.87527 0.1441 0.43435 0.0
C59 C 0.86678 0.1288 0.4431 0.0
C60 C 0.86133 0.13323 0.45532 0.0
C61 C 0.8642 0.1531 0.45903 0.0
C62 C 0.8722 0.1683 0.45003 0.0
C63 C 0.8776 0.16377 0.43771 0.0
P64 P 0.86732 0.71629 0.41666 0.0
H65 H 0.8454 0.71279 0.39087 0.0
H66 H 0.82548 0.72869 0.38275 0.0
H67 H 0.84028 0.76489 0.42111 0.0
H68 H 0.86 0.74864 0.42921 0.0
H69 H 0.89712 0.70194 0.41761 0.0
H70 H 0.9324 0.71643 0.41125 0.0
H71 H 0.92947 0.76937 0.39825 0.0
H72 H 0.8945 0.75509 0.4051 0.0
H73 H 0.83564 0.69363 0.43401 0.0
H74 H 0.90108 0.73933 0.43863 0.0
O75 O 0.85393 0.69151 0.41 0.0
H76 H 0.83672 0.69178 0.45813 0.0
H77 H 0.90228 0.73754 0.46277 0.0
C78 C 0.85382 0.72923 0.4107 0.0
C79 C 0.84437 0.72416 0.39753 0.0
C80 C 0.8331 0.73339 0.39287 0.0
C81 C 0.83115 0.74799 0.4013 0.0
C82 C 0.84117 0.75344 0.41443 0.0
C83 C 0.8525 0.74422 0.41906 0.0
C84 C 0.89313 0.72728 0.41164 0.0
C85 C 0.90411 0.71666 0.41336 0.0
C86 C 0.92426 0.72494 0.40968 0.0
C87 C 0.93378 0.74402 0.40415 0.0
C88 C 0.92274 0.75476 0.40261 0.0
C89 C 0.90261 0.7465 0.40639 0.0
C90 C 0.8683 0.71632 0.43452 0.0
C91 C 0.85021 0.70332 0.44023 0.0
C92 C 0.85084 0.70237 0.45402 0.0
C93 C 0.86962 0.71445 0.46233 0.0
C94 C 0.88766 0.72784 0.45659 0.0
C95 C 0.88697 0.72889 0.44279 0.0
P96 P 0.13414 0.2816 0.60022 0.0
H97 H 0.11863 0.28635 0.6252 0.0
H98 H 0.08369 0.27166 0.63212 0.0
H99 H 0.05816 0.23481 0.59375 0.0
H100 H 0.09329 0.24892 0.58719 0.0
H101 H 0.17623 0.29799 0.6132 0.0
H102 H 0.19583 0.28161 0.6207 0.0
H103 H 0.1435 0.22113 0.60593 0.0
H104 H 0.12368 0.23781 0.59878 0.0
H105 H 0.11174 0.29529 0.58294 0.0
H106 H 0.15266 0.27032 0.57843 0.0
O107 O 0.14667 0.30623 0.6072 0.0
H108 H 0.10927 0.29771 0.55897 0.0
H109 H 0.15088 0.27335 0.55447 0.0
C110 C 0.10849 0.26906 0.6056 0.0
C111 C 0.1055 0.275 0.61833 0.0
C112 C 0.08546 0.26673 0.62221 0.0
C113 C 0.06799 0.25232 0.6134 0.0
C114 C 0.07119 0.24582 0.60081 0.0
C115 C 0.09129 0.25399 0.597 0.0
C116 C 0.1484 0.2691 0.60559 0.0
C117 C 0.1689 0.2812 0.61162 0.0
C118 C 0.1802 0.27178 0.61579 0.0
C119 C 0.17132 0.25 0.61391 0.0
C120 C 0.15076 0.2379 0.60772 0.0
C121 C 0.13942 0.2474 0.60357 0.0
C122 C 0.13218 0.28243 0.58243 0.0
C123 C 0.12016 0.29028 0.57676 0.0
C124 C 0.1189 0.2918 0.56305 0.0
C125 C 0.12992 0.28578 0.55476 0.0
C126 C 0.14193 0.27783 0.56051 0.0
C127 C 0.14307 0.27619 0.57425 0.0
P128 P 0.72574 0.85453 0.60693 0.0
H129 H 0.74554 0.87253 0.63363 0.0
H130 H 0.75062 0.90329 0.64716 0.0
H131 H 0.70813 0.90851 0.61852 0.0
H132 H 0.70233 0.87706 0.60538 0.0
H133 H 0.73111 0.82062 0.59702 0.0
H134 H 0.73307 0.79333 0.60811 0.0
H135 H 0.71146 0.80944 0.64314 0.0
H136 H 0.7089 0.83652 0.63183 0.0
H137 H 0.73001 0.88226 0.58698 0.0
H138 H 0.69185 0.8168 0.59094 0.0
O139 O 0.75085 0.86606 0.6045 0.0
H140 H 0.71786 0.87579 0.56322 0.0
H141 H 0.68035 0.81005 0.56705 0.0
C142 C 0.72374 0.87266 0.61846 0.0
C143 C 0.7367 0.87982 0.63053 0.0
C144 C 0.73974 0.89753 0.63819 0.0
C145 C 0.73019 0.90863 0.63373 0.0
C146 C 0.71573 0.90032 0.62223 0.0
C147 C 0.71251 0.8824 0.61463 0.0
C148 C 0.72029 0.83082 0.6137 0.0
C149 C 0.72607 0.81783 0.6069 0.0
C150 C 0.72722 0.8023 0.61323 0.0
C151 C 0.72276 0.79967 0.6265 0.0
C152 C 0.71499 0.81128 0.63289 0.0
C153 C 0.71371 0.82684 0.62647 0.0
C154 C 0.71204 0.85001 0.59067 0.0
C155 C 0.71869 0.86654 0.58278 0.0
C156 C 0.71193 0.86278 0.56917 0.0
C157 C 0.69857 0.84234 0.56319 0.0
C158 C 0.69068 0.82597 0.57134 0.0
C159 C 0.69734 0.8298 0.58501 0.0
P160 P 0.14071 0.8347 0.60774 0.0
H161 H 0.16527 0.85601 0.63333 0.0
H162 H 0.18555 0.89289 0.64209 0.0
H163 H 0.16548 0.90931 0.60597 0.0
H164 H 0.14529 0.87253 0.59731 0.0
H165 H 0.1176 0.79605 0.62001 0.0
H166 H 0.08318 0.77876 0.62772 0.0
H167 H 0.07227 0.82697 0.61421 0.0
H168 H 0.10718 0.84459 0.60697 0.0
H169 H 0.17414 0.85024 0.59083 0.0
H170 H 0.10706 0.81633 0.58527 0.0
O171 O 0.15395 0.82359 0.61352 0.0
H172 H 0.17501 0.84982 0.56667 0.0
H173 H 0.10776 0.81547 0.56108 0.0
C174 C 0.15424 0.86162 0.61455 0.0
C175 C 0.16522 0.86757 0.62733 0.0
C176 C 0.1767 0.88862 0.63235 0.0
C177 C 0.17733 0.904 0.62463 0.0
C178 C 0.16564 0.89784 0.61203 0.0
C179 C 0.15406 0.87682 0.60708 0.0
C180 C 0.11499 0.8217 0.61303 0.0
C181 C 0.10783 0.80294 0.61873 0.0
C182 C 0.08801 0.79295 0.62304 0.0
C183 C 0.07484 0.80142 0.6216 0.0
C184 C 0.08206 0.82015 0.61569 0.0
C185 C 0.10197 0.8302 0.61147 0.0
C186 C 0.14058 0.83332 0.58985 0.0
C187 C 0.15959 0.84257 0.58438 0.0
C188 C 0.16005 0.84224 0.57056 0.0
C189 C 0.14144 0.83257 0.5619 0.0
C190 C 0.12237 0.82329 0.56745 0.0
C191 C 0.12195 0.82365 0.58131 0.0
P192 P 0.985 0.49756 0.73887 0.0
H193 H 0.99289 0.47646 0.7165 0.0
H194 H 0.97487 0.44004 0.70651 0.0
H195 H 0.92953 0.42394 0.73477 0.0
H196 H 0.94783 0.46018 0.745 0.0
H197 H 0.00183 0.538 0.7282 0.0
H198 H 0.98513 0.55637 0.71873 0.0
H199 H 0.92484 0.50429 0.72348 0.0
H200 H 0.94151 0.48606 0.7329 0.0
H201 H 0.00276 0.4842 0.75984 0.0
H202 H 0.96505 0.51329 0.75714 0.0
O203 O 0.00992 0.50898 0.73597 0.0
H204 H 0.00199 0.48546 0.78407 0.0
H205 H 0.96438 0.51478 0.78129 0.0
C206 C 0.97192 0.47088 0.73165 0.0
C207 C 0.97918 0.46507 0.72062 0.0
C208 C 0.96887 0.44438 0.71487 0.0
C209 C 0.95091 0.42942 0.71992 0.0
C210 C 0.94335 0.43534 0.73073 0.0
C211 C 0.95384 0.45595 0.7366 0.0
C212 C 0.97288 0.51059 0.73112 0.0
C213 C 0.98501 0.53045 0.72706 0.0
C214 C 0.97549 0.54091 0.72164 0.0
C215 C 0.95373 0.53174 0.72042 0.0
C216 C 0.94166 0.51177 0.72442 0.0
C217 C 0.95116 0.50128 0.7297 0.0
C218 C 0.98407 0.4987 0.75668 0.0
C219 C 0.99437 0.49091 0.76447 0.0
C220 C 0.99398 0.49172 0.77832 0.0
C221 C 0.98318 0.5003 0.78463 0.0
C222 C 0.97266 0.50788 0.77674 0.0
C223 C 0.97312 0.50712 0.76289 0.0
P224 P 0.55067 0.47231 0.75261 0.0
H225 H 0.54674 0.44312 0.73073 0.0
H226 H 0.51669 0.414 0.71742 0.0
H227 H 0.4759 0.4307 0.73655 0.0
H228 H 0.50617 0.46016 0.7497 0.0
H229 H 0.59198 0.50705 0.76115 0.0
H230 H 0.61839 0.53353 0.74911 0.0
H231 H 0.57501 0.51078 0.71339 0.0
H232 H 0.54834 0.4847 0.72557 0.0
H233 H 0.52374 0.44781 0.77165 0.0
H234 H 0.56024 0.51301 0.76636 0.0
O235 O 0.56371 0.46058 0.7576 0.0
H236 H 0.51541 0.45687 0.79317 0.0
H237 H 0.55236 0.52217 0.78811 0.0
C238 C 0.52861 0.45338 0.74143 0.0
C239 C 0.53136 0.44073 0.73189 0.0
C240 C 0.5142 0.42421 0.72422 0.0
C241 C 0.49397 0.42001 0.72605 0.0
C242 C 0.49134 0.43349 0.73507 0.0
C243 C 0.5086 0.45025 0.74261 0.0
C244 C 0.56823 0.49395 0.74428 0.0
C245 C 0.58795 0.50814 0.75084 0.0
C246 C 0.60299 0.52326 0.74397 0.0
C247 C 0.59864 0.52413 0.73036 0.0
C248 C 0.57866 0.51036 0.7239 0.0
C249 C 0.56346 0.49546 0.73086 0.0
C250 C 0.54263 0.47969 0.76743 0.0
C251 C 0.52971 0.46408 0.77504 0.0
C252 C 0.52491 0.46926 0.7873 0.0
C253 C 0.53328 0.49022 0.79229 0.0
C254 C 0.54582 0.5059 0.7845 0.0
C255 C 0.55034 0.50065 0.77208 0.0
P256 P 0.53319 0.04933 0.74954 0.0
H257 H 0.51062 0.04566 0.724 0.0
H258 H 0.49081 0.06181 0.71611 0.0
H259 H 0.50637 0.09802 0.75454 0.0
H260 H 0.52598 0.08154 0.7624 0.0
H261 H 0.56264 0.03457 0.74785 0.0
H262 H 0.59761 0.04989 0.74065 0.0
H263 H 0.59542 0.10535 0.73301 0.0
H264 H 0.56053 0.08998 0.74022 0.0
H265 H 0.50139 0.02777 0.76699 0.0
H266 H 0.56749 0.071 0.77135 0.0
O267 O 0.52003 0.02458 0.7428 0.0
H268 H 0.50249 0.02595 0.79111 0.0
H269 H 0.56869 0.06928 0.79548 0.0
C270 C 0.51937 0.06207 0.74385 0.0
C271 C 0.50973 0.05705 0.73073 0.0
C272 C 0.49855 0.06643 0.72621 0.0
C273 C 0.4969 0.08114 0.73472 0.0
C274 C 0.50704 0.0865 0.74781 0.0
C275 C 0.51829 0.07713 0.7523 0.0
C276 C 0.55886 0.06096 0.74427 0.0
C277 C 0.5697 0.05001 0.74458 0.0
C278 C 0.58971 0.05882 0.74058 0.0
C279 C 0.59914 0.07874 0.73618 0.0
C280 C 0.58837 0.08984 0.73616 0.0
C281 C 0.56843 0.08106 0.74027 0.0
C282 C 0.53435 0.04925 0.76738 0.0
C283 C 0.51611 0.03692 0.77316 0.0
C284 C 0.51676 0.03601 0.78694 0.0
C285 C 0.5357 0.04744 0.79518 0.0
C286 C 0.55393 0.06011 0.78936 0.0
C287 C 0.55323 0.06111 0.77556 0.0
P288 P 0.8008 0.61484 0.93365 0.0
H289 H 0.78192 0.62732 0.95413 0.0
H290 H 0.74654 0.61165 0.96042 0.0
H291 H 0.72728 0.55912 0.93096 0.0
H292 H 0.76273 0.57523 0.92434 0.0
H293 H 0.84271 0.63222 0.94725 0.0
H294 H 0.86274 0.61663 0.95562 0.0
H295 H 0.81164 0.55549 0.941 0.0
H296 H 0.79151 0.57121 0.93267 0.0
H297 H 0.78846 0.6379 0.91695 0.0
H298 H 0.80791 0.59241 0.91112 0.0
O299 O 0.81328 0.63965 0.94032 0.0
H300 H 0.78605 0.63995 0.89294 0.0
H301 H 0.80496 0.59389 0.88699 0.0
C302 C 0.77499 0.6024 0.9388 0.0
C303 C 0.77015 0.61244 0.94899 0.0
C304 C 0.7499 0.60354 0.95255 0.0
C305 C 0.7342 0.58425 0.94612 0.0
C306 C 0.73915 0.57397 0.93609 0.0
C307 C 0.75938 0.5831 0.93236 0.0
C308 C 0.81546 0.60289 0.93947 0.0
C309 C 0.8357 0.61545 0.94588 0.0
C310 C 0.84715 0.60652 0.9507 0.0
C311 C 0.83871 0.58483 0.94906 0.0
C312 C 0.81857 0.57226 0.94239 0.0
C313 C 0.807 0.58123 0.93768 0.0
C314 C 0.79865 0.61525 0.91583 0.0
C315 C 0.79212 0.62826 0.91047 0.0
C316 C 0.79055 0.62926 0.89671 0.0
C317 C 0.79532 0.61709 0.888 0.0
C318 C 0.80146 0.6037 0.89342 0.0
C319 C 0.80308 0.60276 0.90724 0.0
P320 P 0.39671 0.1888 0.94028 0.0
H321 H 0.41883 0.21265 0.96554 0.0
H322 H 0.42045 0.24298 0.97769 0.0
H323 H 0.36984 0.23615 0.9504 0.0
H324 H 0.3678 0.20536 0.93851 0.0
H325 H 0.40594 0.15641 0.93283 0.0
H326 H 0.40626 0.12892 0.94478 0.0
H327 H 0.3811 0.14529 0.97772 0.0
H328 H 0.38017 0.17257 0.96558 0.0
H329 H 0.39438 0.21373 0.91998 0.0
H330 H 0.36683 0.14831 0.92482 0.0
O331 O 0.42158 0.20128 0.93726 0.0
H332 H 0.37951 0.2049 0.89656 0.0
H333 H 0.35298 0.1396 0.90122 0.0
C334 C 0.39351 0.20705 0.95097 0.0
C335 C 0.40764 0.21727 0.96243 0.0
C336 C 0.40851 0.23454 0.96939 0.0
C337 C 0.39542 0.24198 0.96486 0.0
C338 C 0.38022 0.23077 0.95398 0.0
C339 C 0.37913 0.21326 0.94716 0.0
C340 C 0.39311 0.16654 0.94833 0.0
C341 C 0.39996 0.15376 0.94247 0.0
C342 C 0.40009 0.13807 0.94924 0.0
C343 C 0.39356 0.13509 0.96203 0.0
C344 C 0.38594 0.14729 0.96776 0.0
C345 C 0.38555 0.1629 0.96087 0.0
C346 C 0.38173 0.18173 0.92418 0.0
C347 C 0.38476 0.19749 0.91611 0.0
C348 C 0.37634 0.19246 0.90275 0.0
C349 C 0.36524 0.17161 0.89719 0.0
C350 C 0.36153 0.15578 0.90536 0.0
C351 C 0.36952 0.16081 0.91883 0.0
P352 P 0.80736 0.16763 0.93997 0.0
H353 H 0.83158 0.18841 0.96568 0.0
H354 H 0.85178 0.22512 0.97479 0.0
H355 H 0.83364 0.24259 0.93843 0.0
H356 H 0.81367 0.20601 0.92937 0.0
H357 H 0.77988 0.12495 0.94548 0.0
H358 H 0.74561 0.1076 0.95355 0.0
H359 H 0.74383 0.16487 0.954 0.0
H360 H 0.77834 0.1822 0.94618 0.0
H361 H 0.83697 0.16908 0.92201 0.0
H362 H 0.77632 0.16357 0.91855 0.0
O363 O 0.82012 0.156 0.94567 0.0
H364 H 0.83699 0.16843 0.89767 0.0
H365 H 0.77653 0.16333 0.89419 0.0
C366 C 0.82158 0.19456 0.94674 0.0
C367 C 0.83202 0.20018 0.95967 0.0
C368 C 0.84343 0.22112 0.9649 0.0
C369 C 0.84449 0.23674 0.95725 0.0
C370 C 0.83348 0.23094 0.94443 0.0
C371 C 0.82202 0.21001 0.93926 0.0
C372 C 0.78178 0.15492 0.94546 0.0
C373 C 0.77212 0.13377 0.94735 0.0
C374 C 0.75245 0.12383 0.95187 0.0
C375 C 0.74198 0.13485 0.95447 0.0
C376 C 0.7516 0.15601 0.95231 0.0
C377 C 0.7713 0.16593 0.94779 0.0
C378 C 0.80643 0.16583 0.92204 0.0
C379 C 0.82356 0.16747 0.916 0.0
C380 C 0.82361 0.16719 0.90215 0.0
C381 C 0.80671 0.16572 0.89415 0.0
C382 C 0.7897 0.16444 0.9002 0.0
C383 C 0.78953 0.16444 0.91407 0.0
P384 P 0.65022 0.83048 0.072 0.0
H385 H 0.65734 0.80794 0.05004 0.0
H386 H 0.63937 0.77121 0.04112 0.0
H387 H 0.59492 0.75731 0.06998 0.0
H388 H 0.61342 0.79384 0.07909 0.0
H389 H 0.66657 0.8736 0.06638 0.0
H390 H 0.65023 0.89195 0.05646 0.0
H391 H 0.59094 0.83474 0.05129 0.0
H392 H 0.60737 0.81654 0.06096 0.0
H393 H 0.67142 0.82126 0.09333 0.0
H394 H 0.62734 0.84284 0.08987 0.0
O395 O 0.67499 0.84161 0.0688 0.0
H396 H 0.67043 0.82236 0.11751 0.0
H397 H 0.62664 0.8445 0.11406 0.0
C398 C 0.63698 0.80348 0.06542 0.0
C399 C 0.64383 0.79692 0.0545 0.0
C400 C 0.63341 0.77593 0.04933 0.0
C401 C 0.61578 0.76122 0.05491 0.0
C402 C 0.60871 0.76808 0.06564 0.0
C403 C 0.61924 0.78899 0.07085 0.0
C404 C 0.63828 0.84364 0.06416 0.0
C405 C 0.6501 0.86499 0.06296 0.0
C406 C 0.64072 0.87547 0.05737 0.0
C407 C 0.61931 0.86476 0.053 0.0
C408 C 0.60754 0.84335 0.05429 0.0
C409 C 0.61693 0.83292 0.05988 0.0
C410 C 0.64975 0.83229 0.08984 0.0
C411 C 0.66171 0.82647 0.09781 0.0
C412 C 0.66117 0.82718 0.11164 0.0
C413 C 0.64857 0.83368 0.11777 0.0
C414 C 0.63639 0.83928 0.10968 0.0
C415 C 0.63693 0.83852 0.09583 0.0
P416 P 0.21606 0.80428 0.08462 0.0
H417 H 0.2124 0.77571 0.06241 0.0
H418 H 0.18213 0.74539 0.04994 0.0
H419 H 0.14135 0.76179 0.06919 0.0
H420 H 0.1717 0.79229 0.08165 0.0
H421 H 0.25803 0.83667 0.09354 0.0
H422 H 0.28459 0.86444 0.08256 0.0
H423 H 0.23959 0.84985 0.04847 0.0
H424 H 0.21302 0.82166 0.05955 0.0
H425 H 0.19417 0.77859 0.10485 0.0
H426 H 0.21996 0.843 0.09779 0.0
O427 O 0.22931 0.79243 0.08885 0.0
H428 H 0.18721 0.7866 0.12715 0.0
H429 H 0.21289 0.85107 0.12019 0.0
C430 C 0.1942 0.78588 0.07314 0.0
C431 C 0.19699 0.77315 0.06367 0.0
C432 C 0.17977 0.75594 0.05652 0.0
C433 C 0.15962 0.75146 0.0587 0.0
C434 C 0.15685 0.76516 0.06736 0.0
C435 C 0.17413 0.78244 0.07451 0.0
C436 C 0.23372 0.82703 0.07729 0.0
C437 C 0.25378 0.83971 0.08381 0.0
C438 C 0.26891 0.85569 0.07754 0.0
C439 C 0.26421 0.85933 0.06461 0.0
C440 C 0.24371 0.84726 0.05837 0.0
C441 C 0.22852 0.83121 0.0647 0.0
C442 C 0.20789 0.81025 0.09982 0.0
C443 C 0.19806 0.7944 0.10805 0.0
C444 C 0.19413 0.79898 0.12075 0.0
C445 C 0.19981 0.81947 0.12538 0.0
C446 C 0.20843 0.83516 0.1168 0.0
C447 C 0.21254 0.83057 0.10406 0.0
P448 P 0.20084 0.38348 0.08313 0.0
H449 H 0.17115 0.37403 0.05986 0.0
H450 H 0.15052 0.38956 0.05251 0.0
H451 H 0.17889 0.43625 0.08656 0.0
H452 H 0.19952 0.42046 0.09393 0.0
H453 H 0.22514 0.36668 0.07163 0.0
H454 H 0.26017 0.38275 0.065 0.0
H455 H 0.2694 0.4436 0.07784 0.0
H456 H 0.23378 0.42728 0.0839 0.0
H457 H 0.16866 0.35949 0.09979 0.0
H458 H 0.23393 0.40575 0.10569 0.0
O459 O 0.18805 0.35883 0.07618 0.0
H460 H 0.16891 0.35626 0.12377 0.0
H461 H 0.23433 0.40247 0.12961 0.0
C462 C 0.18664 0.39592 0.07754 0.0
C463 C 0.17293 0.38758 0.06578 0.0
C464 C 0.16107 0.39642 0.06161 0.0
C465 C 0.1629 0.414 0.06903 0.0
C466 C 0.17716 0.42274 0.08062 0.0
C467 C 0.18891 0.41371 0.08486 0.0
C468 C 0.22671 0.39579 0.07804 0.0
C469 C 0.2346 0.38349 0.07291 0.0
C470 C 0.25482 0.39273 0.06928 0.0
C471 C 0.26775 0.41452 0.07091 0.0
C472 C 0.25982 0.42681 0.07623 0.0
C473 C 0.23945 0.41751 0.07973 0.0
C474 C 0.20129 0.38265 0.10093 0.0
C475 C 0.18303 0.36898 0.10625 0.0
C476 C 0.18323 0.36707 0.11993 0.0
C477 C 0.2017 0.37896 0.12856 0.0
C478 C 0.21984 0.39317 0.12323 0.0
C479 C 0.21964 0.39499 0.10951 0.0
P480 P 0.46661 0.94794 0.26666 0.0
H481 H 0.44914 0.95919 0.2887 0.0
H482 H 0.4139 0.94405 0.29522 0.0
H483 H 0.39207 0.89524 0.26256 0.0
H484 H 0.42751 0.91047 0.25614 0.0
H485 H 0.51078 0.96188 0.26995 0.0
H486 H 0.53074 0.94585 0.2778 0.0
H487 H 0.47358 0.89011 0.2831 0.0
H488 H 0.4537 0.9063 0.2753 0.0
H489 H 0.44351 0.96056 0.2491 0.0
H490 H 0.48487 0.93603 0.24498 0.0
O491 O 0.4798 0.97273 0.27332 0.0
H492 H 0.44081 0.96234 0.22505 0.0
H493 H 0.48294 0.93852 0.22099 0.0
C494 C 0.44087 0.93602 0.27189 0.0
C495 C 0.43679 0.94523 0.28294 0.0
C496 C 0.4166 0.93665 0.2866 0.0
C497 C 0.40016 0.91856 0.27932 0.0
C498 C 0.40442 0.90914 0.26838 0.0
C499 C 0.42462 0.91783 0.2647 0.0
C500 C 0.48079 0.93541 0.27218 0.0
C501 C 0.50254 0.94621 0.2728 0.0
C502 C 0.51393 0.93697 0.2772 0.0
C503 C 0.50375 0.91671 0.2811 0.0
C504 C 0.48188 0.90583 0.28032 0.0
C505 C 0.47049 0.91506 0.27582 0.0
C506 C 0.46428 0.94807 0.24882 0.0
C507 C 0.45199 0.95551 0.24299 0.0
C508 C 0.45059 0.95668 0.22925 0.0
C509 C 0.46172 0.95066 0.22105 0.0
C510 C 0.47391 0.94301 0.22695 0.0
C511 C 0.47517 0.94172 0.24072 0.0
P512 P 0.06593 0.52539 0.27323 0.0
H513 H 0.0868 0.54874 0.29878 0.0
H514 H 0.08699 0.57821 0.31101 0.0
H515 H 0.0354 0.56928 0.28373 0.0
H516 H 0.03514 0.53962 0.2716 0.0
H517 H 0.08621 0.50115 0.27003 0.0
H518 H 0.08336 0.47119 0.28031 0.0
H519 H 0.03657 0.47062 0.30378 0.0
H520 H 0.03938 0.50086 0.29325 0.0
H521 H 0.06144 0.54871 0.25257 0.0
H522 H 0.03737 0.48407 0.25846 0.0
O523 O 0.09067 0.53929 0.27012 0.0
H524 H 0.04563 0.53855 0.22944 0.0
H525 H 0.02172 0.47384 0.23529 0.0
C526 C 0.06132 0.54236 0.28412 0.0
C527 C 0.0751 0.55272 0.29568 0.0
C528 C 0.07513 0.56951 0.3027 0.0
C529 C 0.06141 0.57623 0.29818 0.0
C530 C 0.04635 0.5646 0.28729 0.0
C531 C 0.04624 0.54768 0.28034 0.0
C532 C 0.06335 0.50342 0.28113 0.0
C533 C 0.07531 0.4946 0.27737 0.0
C534 C 0.07347 0.47733 0.28311 0.0
C535 C 0.05957 0.46852 0.2927 0.0
C536 C 0.04732 0.47717 0.29636 0.0
C537 C 0.04902 0.49443 0.29045 0.0
C538 C 0.05051 0.51721 0.25727 0.0
C539 C 0.05231 0.53231 0.24898 0.0
C540 C 0.04324 0.52647 0.23577 0.0
C541 C 0.03248 0.50539 0.23055 0.0
C542 C 0.03005 0.4902 0.23902 0.0
C543 C 0.03895 0.49607 0.25231 0.0
P544 P 0.47412 0.50096 0.27431 0.0
H545 H 0.50689 0.52318 0.29656 0.0
H546 H 0.52701 0.55994 0.30557 0.0
H547 H 0.49256 0.57465 0.27642 0.0
H548 H 0.47299 0.53802 0.2671 0.0
H549 H 0.44829 0.45941 0.28242 0.0
H550 H 0.41392 0.44208 0.2903 0.0
H551 H 0.40842 0.49651 0.28512 0.0
H552 H 0.44299 0.51392 0.27768 0.0
H553 H 0.50374 0.50236 0.25644 0.0
H554 H 0.44357 0.49788 0.25285 0.0
O555 O 0.48672 0.48903 0.27978 0.0
H556 H 0.50416 0.50218 0.23224 0.0
H557 H 0.4438 0.49755 0.2286 0.0
C558 C 0.48849 0.52788 0.28114 0.0
C559 C 0.5037 0.53429 0.29206 0.0
C560 C 0.51517 0.55526 0.29721 0.0
C561 C 0.51125 0.57002 0.29168 0.0
C562 C 0.49573 0.5635 0.2809 0.0
C563 C 0.48459 0.54261 0.27559 0.0
C564 C 0.44842 0.48812 0.27968 0.0
C565 C 0.43973 0.46766 0.28303 0.0
C566 C 0.41996 0.45768 0.28743 0.0
C567 C 0.40839 0.46792 0.28841 0.0
C568 C 0.41703 0.48829 0.28475 0.0
C569 C 0.43684 0.49828 0.28043 0.0
C570 C 0.47343 0.49966 0.25641 0.0
C571 C 0.49049 0.50106 0.25042 0.0
C572 C 0.4907 0.50094 0.23659 0.0
C573 C 0.47394 0.49969 0.2285 0.0
C574 C 0.45698 0.49861 0.23458 0.0
C575 C 0.45675 0.49862 0.24843 0.0
Eu576 Eu 0.49263 0.98708 0.99249 0.0
Eu577 Eu 0.50947 0.01367 0.02592 0.0
C578 C 0.49554 0.03219 1.00576 0.0
C579 C 0.49057 0.98796 0.95452 0.0
C580 C 0.4959 0.00822 0.95168 0.0
C581 C 0.50177 0.9824 0.93328 0.0
C582 C 0.50384 0.01535 0.93968 0.0
C583 C 0.4937 0.97522 0.94522 0.0
C584 C 0.50668 0.00244 0.9303 0.0
C585 C 0.48122 0.9796 0.96684 0.0
O586 O 0.47485 0.99039 0.0238 0.0
O587 O 0.4643 0.9703 1.00309 0.0
C588 C 0.46069 0.97517 0.01503 0.0
O589 O 0.50106 0.96641 1.00277 0.0
O590 O 0.50675 0.02967 0.04389 0.0
O591 O 0.52814 0.01792 0.04473 0.0
O592 O 0.51388 0.9856 0.0238 0.0
C593 C 0.51011 0.96983 0.01502 0.0
O594 O 0.52721 0.00792 0.99381 0.0
O595 O 0.53674 0.02994 0.01373 0.0
O596 O 0.50382 0.03829 0.01796 0.0
O597 O 0.48855 0.96947 0.9733 0.0
O598 O 0.47744 0.99155 0.97484 0.0
O599 O 0.49446 0.01535 1.00082 0.0
C600 C 0.51017 0.01614 0.06364 0.0
C601 C 0.49896 0.9944 0.06363 0.0
C602 C 0.50279 0.01995 0.0864 0.0
C603 C 0.48989 0.98549 0.075 0.0
C604 C 0.51191 0.02882 0.07506 0.0
C605 C 0.4917 0.99818 0.08654 0.0
C606 C 0.51888 0.02579 0.05156 0.0
C607 C 0.54085 0.02407 1.00218 0.0
H608 H 0.49374 0.0185 0.95864 0.0
H609 H 0.50352 0.97199 0.92618 0.0
H610 H 0.50766 0.03094 0.9377 0.0
H611 H 0.48961 0.95952 0.94712 0.0
H612 H 0.49709 0.98432 0.0548 0.0
H613 H 0.50476 0.03021 0.09516 0.0
H614 H 0.48127 0.96869 0.07472 0.0
H615 H 0.52027 0.04562 0.0752 0.0
Eu616 Eu 0.00628 0.49741 0.99239 0.0
Eu617 Eu 0.99065 0.49345 0.02268 0.0
C618 C 0.97065 0.45489 1.00071 0.0
C619 C 0.01051 0.50287 0.95452 0.0
C620 C 0.99103 0.48901 0.94734 0.0
C621 C 0.02091 0.52182 0.93499 0.0
C622 C 0.98676 0.49125 0.93403 0.0
C623 C 0.02522 0.51951 0.94828 0.0
C624 C 0.00183 0.50741 0.92758 0.0
C625 C 0.01643 0.49905 0.96792 0.0
O626 O 0.01151 0.47961 0.02221 0.0
O627 O 0.03154 0.49668 1.00575 0.0
C628 C 0.02823 0.48568 0.01599 0.0
O629 O 0.01663 0.52961 1.00185 0.0
O630 O 0.97579 0.47414 0.03849 0.0
O631 O 0.98785 0.50742 0.04155 0.0
O632 O 0.02123 0.5234 0.0233 0.0
C633 C 0.02508 0.53641 0.01422 0.0
O634 O 0.9761 0.49777 0.98998 0.0
O635 O 0.97425 0.50768 0.01171 0.0
O636 O 0.966 0.4655 0.00931 0.0
O637 O 0.02594 0.5148 0.97717 0.0
O638 O 0.00305 0.48208 0.97262 0.0
O639 O 0.98858 0.46372 0.9958 0.0
C640 C 0.98795 0.49015 0.06079 0.0
C641 C 0.00338 0.50871 0.06823 0.0
C642 C 0.98515 0.47176 0.0804 0.0
C643 C 0.00926 0.50884 0.0817 0.0
C644 C 0.97908 0.47166 0.06699 0.0
C645 C -2e-05 0.49042 0.08794 0.0
C646 C 0.97978 0.48994 0.04697 0.0
C647 C 0.96853 0.50527 0.99881 0.0
H648 H 0.97931 0.47597 0.95183 0.0
H649 H 0.03274 0.5347 0.93045 0.0
H650 H 0.97197 0.47976 0.92864 0.0
H651 H 0.04034 0.53041 0.95356 0.0
H652 H 0.01055 0.52323 0.06377 0.0
H653 H 0.9776 0.4574 0.08503 0.0
H654 H 0.02082 0.5234 0.08733 0.0
H655 H 0.96701 0.45718 0.06154 0.0
Eu656 Eu 0.5099 0.49958 0.02478 0.0
Eu657 Eu 0.49291 0.50153 0.99371 0.0
C658 C 0.51485 0.54138 0.01496 0.0
C659 C 0.51276 0.49853 0.06303 0.0
C660 C 0.51442 0.51666 0.06955 0.0
C661 C 0.49794 0.48021 0.08221 0.0
C662 C 0.50816 0.5166 0.08236 0.0
C663 C 0.5043 0.4803 0.06947 0.0
C664 C 0.50011 0.49843 0.08894 0.0
C665 C 0.52045 0.49841 0.04984 0.0
O666 O 0.52365 0.50342 0.99188 0.0
O667 O 0.5386 0.51228 0.01385 0.0
C668 C 0.53975 0.51036 1.00092 0.0
O669 O 0.50493 0.47056 0.01299 0.0
O670 O 0.48983 0.51892 0.97777 0.0
O671 O 0.47629 0.48552 0.97428 0.0
O672 O 0.48038 0.46788 0.99677 0.0
C673 C 0.48968 0.45967 1.00348 0.0
O674 O 0.47508 0.48381 0.02331 0.0
O675 O 0.46864 0.50023 0.00663 0.0
O676 O 0.51499 0.53423 1.0028 0.0
O677 O 0.50912 0.48188 0.04141 0.0
O678 O 0.52812 0.51549 0.04398 0.0
O679 O 0.50773 0.52876 0.02426 0.0
C680 C 0.48952 0.50478 0.95595 0.0
C681 C 0.49941 0.49369 0.95191 0.0
C682 C 0.49318 0.51826 0.93436 0.0
C683 C 0.50586 0.4947 0.9391 0.0
C684 C 0.48688 0.51738 0.94717 0.0
C685 C 0.50242 0.50669 0.93017 0.0
C686 C 0.48098 0.50261 0.96895 0.0
C687 C 0.46289 0.48913 0.01681 0.0
H688 H 0.5209 0.531 0.06488 0.0
H689 H 0.49144 0.46582 0.08682 0.0
H690 H 0.51025 0.53098 0.08726 0.0
H691 H 0.50281 0.4661 0.0647 0.0
H692 H 0.50174 0.48391 0.95852 0.0
H693 H 0.4905 0.52768 0.92761 0.0
H694 H 0.51286 0.48557 0.93601 0.0
H695 H 0.47943 0.52615 0.95011 0.0
Eu696 Eu 0.16069 0.32204 0.32596 0.0
Eu697 Eu 0.17511 0.34175 0.35788 0.0
C698 C 0.15675 0.36021 0.33694 0.0
C699 C 0.15999 0.31732 0.28791 0.0
C700 C 0.16247 0.33629 0.28421 0.0
C701 C 0.17369 0.31294 0.26747 0.0
C702 C 0.17021 0.34334 0.27215 0.0
C703 C 0.1658 0.30582 0.27947 0.0
C704 C 0.17576 0.33167 0.26356 0.0
C705 C 0.15146 0.30921 0.30044 0.0
O706 O 0.14466 0.31192 0.35758 0.0
O707 O 0.13114 0.30913 0.33592 0.0
C708 C 0.12877 0.3046 0.34832 0.0
O709 O 0.16357 0.29758 0.33641 0.0
O710 O 0.17225 0.35961 0.37483 0.0
O711 O 0.19279 0.34703 0.37722 0.0
O712 O 0.18584 0.31865 0.35475 0.0
C713 C 0.17708 0.30129 0.34671 0.0
O714 O 0.19548 0.3403 0.32862 0.0
O715 O 0.20154 0.36367 0.34669 0.0
O716 O 0.15498 0.3531 0.3486 0.0
O717 O 0.16286 0.30479 0.30842 0.0
O718 O 0.14286 0.31819 0.30691 0.0
O719 O 0.16481 0.35424 0.32767 0.0
C720 C 0.1749 0.34777 0.39557 0.0
C721 C 0.16351 0.32624 0.39645 0.0
C722 C 0.16943 0.3541 0.41844 0.0
C723 C 0.15539 0.31869 0.40834 0.0
C724 C 0.1776 0.36161 0.40658 0.0
C725 C 0.15839 0.33256 0.41952 0.0
C726 C 0.18382 0.35599 0.38322 0.0
C727 C 0.20778 0.35773 0.33623 0.0
H728 H 0.15824 0.34558 0.29056 0.0
H729 H 0.17814 0.30372 0.26125 0.0
H730 H 0.17135 0.3577 0.26941 0.0
H731 H 0.16418 0.29124 0.28215 0.0
H732 H 0.161 0.31527 0.38797 0.0
H733 H 0.17225 0.36523 0.42689 0.0
H734 H 0.14674 0.30202 0.40877 0.0
H735 H 0.18622 0.37827 0.40604 0.0
Eu736 Eu 0.67412 0.83227 0.32558 0.0
Eu737 Eu 0.65757 0.82944 0.3559 0.0
C738 C 0.63848 0.7884 0.33464 0.0
C739 C 0.67909 0.83763 0.28776 0.0
C740 C 0.66012 0.82141 0.28122 0.0
C741 C 0.68611 0.85447 0.2673 0.0
C742 C 0.65441 0.82158 0.26771 0.0
C743 C 0.6918 0.85428 0.28073 0.0
C744 C 0.66758 0.83793 0.26052 0.0
C745 C 0.68653 0.83738 0.30167 0.0
O746 O 0.68652 0.82674 0.35851 0.0
O747 O 0.69217 0.82018 0.33697 0.0
C748 C 0.69581 0.82094 0.34997 0.0
O749 O 0.69691 0.86102 0.33924 0.0
O750 O 0.63824 0.81574 0.37204 0.0
O751 O 0.66462 0.84714 0.37533 0.0
O752 O 0.67178 0.86199 0.35018 0.0
C753 C 0.69027 0.87161 0.34616 0.0
O754 O 0.64918 0.84113 0.32406 0.0
O755 O 0.63227 0.83026 0.3429 0.0
O756 O 0.64226 0.796 0.34725 0.0
O757 O 0.6895 0.85263 0.3103 0.0
O758 O 0.67849 0.8196 0.30671 0.0
O759 O 0.64664 0.79986 0.32487 0.0
C760 C 0.65652 0.82796 0.39411 0.0
C761 C 0.67208 0.84476 0.40282 0.0
C762 C 0.65131 0.80529 0.41166 0.0
C763 C 0.67704 0.84194 0.41582 0.0
C764 C 0.64634 0.80812 0.39862 0.0
C765 C 0.66648 0.82225 0.42049 0.0
C766 C 0.65023 0.83173 0.38079 0.0
C767 C 0.63372 0.83748 0.33118 0.0
H768 H 0.64992 0.80843 0.28644 0.0
H769 H 0.69641 0.86753 0.26217 0.0
H770 H 0.64006 0.80857 0.2628 0.0
H771 H 0.7064 0.86703 0.28558 0.0
H772 H 0.68008 0.8603 0.39972 0.0
H773 H 0.64304 0.78987 0.41488 0.0
H774 H 0.68855 0.85544 0.42238 0.0
H775 H 0.63423 0.79485 0.39218 0.0
Eu776 Eu 0.17639 0.83501 0.35768 0.0
Eu777 Eu 0.15962 0.83639 0.3268 0.0
C778 C 0.18275 0.87654 0.34713 0.0
C779 C 0.17835 0.83162 0.39568 0.0
C780 C 0.17015 0.84378 0.40076 0.0
C781 C 0.17238 0.81488 0.4162 0.0
C782 C 0.16361 0.84185 0.41356 0.0
C783 C 0.17903 0.8169 0.40343 0.0
C784 C 0.16503 0.82766 0.42156 0.0
C785 C 0.18754 0.83506 0.38282 0.0
O786 O 0.19412 0.8498 0.32739 0.0
O787 O 0.2008 0.83529 0.34526 0.0
C788 C 0.20623 0.84492 0.33443 0.0
O789 O 0.15443 0.802 0.34883 0.0
O790 O 0.16001 0.85494 0.31075 0.0
O791 O 0.14121 0.82131 0.30758 0.0
O792 O 0.16108 0.80689 0.32717 0.0
C793 C 0.15399 0.79452 0.33661 0.0
O794 O 0.14654 0.83572 0.35872 0.0
O795 O 0.13097 0.82089 0.33748 0.0
O796 O 0.16514 0.86513 0.33951 0.0
O797 O 0.18098 0.81894 0.37398 0.0
O798 O 0.19038 0.85161 0.37739 0.0
O799 O 0.19272 0.86796 0.3525 0.0
C800 C 0.15643 0.83925 0.28891 0.0
C801 C 0.15947 0.82324 0.2834 0.0
C802 C 0.16705 0.8567 0.26888 0.0
C803 C 0.16591 0.82382 0.27061 0.0
C804 C 0.16055 0.85607 0.2816 0.0
C805 C 0.16945 0.84041 0.26312 0.0
C806 C 0.14869 0.83871 0.3021 0.0
C807 C 0.12991 0.82557 0.35004 0.0
H808 H 0.16932 0.85524 0.39502 0.0
H809 H 0.17328 0.80347 0.42195 0.0
H810 H 0.15819 0.85205 0.41736 0.0
H811 H 0.18518 0.80728 0.39974 0.0
H812 H 0.15657 0.81011 0.28885 0.0
H813 H 0.17004 0.86991 0.2635 0.0
H814 H 0.16749 0.81096 0.26643 0.0
H815 H 0.1585 0.86868 0.28569 0.0
Eu816 Eu 0.82872 0.65502 0.65945 0.0
Eu817 Eu 0.84208 0.67496 0.69155 0.0
C818 C 0.82083 0.69035 0.67047 0.0
C819 C 0.82914 0.65261 0.62153 0.0
C820 C 0.83255 0.67248 0.61926 0.0
C821 C 0.84156 0.64997 0.60021 0.0
C822 C 0.84012 0.68087 0.60744 0.0
C823 C 0.83384 0.64152 0.61196 0.0
C824 C 0.84462 0.66965 0.59776 0.0
C825 C 0.82093 0.64321 0.6338 0.0
O826 O 0.81106 0.64595 0.69129 0.0
O827 O 0.79869 0.63978 0.66887 0.0
C828 C 0.79587 0.63702 0.68148 0.0
O829 O 0.8306 0.63025 0.66998 0.0
O830 O 0.83917 0.6931 0.70837 0.0
O831 O 0.85976 0.68058 0.71093 0.0
O832 O 0.85165 0.6508 0.68892 0.0
C833 C 0.84322 0.6336 0.6807 0.0
O834 O 0.86351 0.67318 0.66312 0.0
O835 O 0.86796 0.69731 0.68018 0.0
O836 O 0.81989 0.6837 0.68221 0.0
O837 O 0.83346 0.64014 0.64172 0.0
O838 O 0.81069 0.65023 0.64033 0.0
O839 O 0.83062 0.68625 0.66149 0.0
C840 C 0.84142 0.68106 0.72926 0.0
C841 C 0.8379 0.66155 0.73256 0.0
C842 C 0.82819 0.68554 0.74992 0.0
C843 C 0.83005 0.65435 0.74455 0.0
C844 C 0.83625 0.69286 0.73796 0.0
C845 C 0.82535 0.66636 0.75344 0.0
C846 C 0.85049 0.68929 0.71685 0.0
C847 C 0.8751 0.69112 0.67035 0.0
H848 H 0.82929 0.68149 0.62656 0.0
H849 H 0.84463 0.64083 0.59288 0.0
H850 H 0.8425 0.69615 0.60587 0.0
H851 H 0.8314 0.62622 0.61355 0.0
H852 H 0.8414 0.65193 0.72595 0.0
H853 H 0.82479 0.69517 0.75661 0.0
H854 H 0.82774 0.63938 0.74692 0.0
H855 H 0.8387 0.70787 0.73559 0.0
Eu856 Eu 0.34136 0.16715 0.65956 0.0
Eu857 Eu 0.32339 0.16144 0.68949 0.0
C858 C 0.30539 0.12332 0.66663 0.0
C859 C 0.34496 0.17145 0.62168 0.0
C860 C 0.32798 0.15328 0.61487 0.0
C861 C 0.34808 0.18895 0.60161 0.0
C862 C 0.32135 0.15289 0.60148 0.0
C863 C 0.35476 0.18931 0.61495 0.0
C864 C 0.33149 0.17065 0.59464 0.0
C865 C 0.35334 0.17203 0.63554 0.0
O866 O 0.35369 0.16167 0.69268 0.0
O867 O 0.35826 0.15381 0.67111 0.0
C868 C 0.36257 0.15535 0.68415 0.0
O869 O 0.36473 0.19521 0.67337 0.0
O870 O 0.30472 0.14262 0.7046 0.0
O871 O 0.32311 0.17614 0.70874 0.0
O872 O 0.34139 0.19545 0.68693 0.0
C873 C 0.35936 0.20498 0.68211 0.0
O874 O 0.31957 0.17996 0.65968 0.0
O875 O 0.29877 0.16236 0.67569 0.0
O876 O 0.31202 0.12936 0.67935 0.0
O877 O 0.35606 0.18731 0.64405 0.0
O878 O 0.34621 0.15451 0.64086 0.0
O879 O 0.31117 0.13664 0.65766 0.0
C880 C 0.3182 0.15652 0.72723 0.0
C881 C 0.33872 0.16942 0.73326 0.0
C882 C 0.3084 0.14177 0.7482 0.0
C883 C 0.34388 0.16881 0.74676 0.0
C884 C 0.30325 0.14241 0.73474 0.0
C885 C 0.32862 0.15533 0.75447 0.0
C886 C 0.31157 0.15861 0.71356 0.0
C887 C 0.30249 0.17358 0.66555 0.0
H888 H 0.31999 0.13928 0.6198 0.0
H889 H 0.35643 0.20283 0.59662 0.0
H890 H 0.30838 0.13861 0.59645 0.0
H891 H 0.36793 0.20349 0.61994 0.0
H892 H 0.35061 0.18042 0.72767 0.0
H893 H 0.29639 0.13092 0.75378 0.0
H894 H 0.35958 0.1795 0.7513 0.0
H895 H 0.28738 0.13226 0.73029 0.0
Eu896 Eu 0.84451 0.1669 0.69164 0.0
Eu897 Eu 0.82583 0.16896 0.66106 0.0
C898 C 0.84903 0.2094 0.68275 0.0
C899 C 0.8489 0.16356 0.72927 0.0
C900 C 0.83831 0.17427 0.73236 0.0
C901 C 0.84576 0.15257 0.75161 0.0
C902 C 0.83167 0.17428 0.74506 0.0
C903 C 0.85241 0.15261 0.73895 0.0
C904 C 0.83537 0.16347 0.75489 0.0
C905 C 0.85589 0.16312 0.71594 0.0
O906 O 0.85491 0.16716 0.6591 0.0
O907 O 0.87231 0.18141 0.68003 0.0
C908 C 0.87222 0.17683 0.66723 0.0
O909 O 0.83707 0.13789 0.67845 0.0
O910 O 0.82357 0.18574 0.64448 0.0
O911 O 0.80841 0.15214 0.64195 0.0
O912 O 0.80942 0.13612 0.6662 0.0
C913 C 0.81921 0.127 0.67099 0.0
O914 O 0.8107 0.15621 0.69242 0.0
O915 O 0.80166 0.168 0.67388 0.0
O916 O 0.84605 0.20214 0.67013 0.0
O917 O 0.84302 0.14738 0.70735 0.0
O918 O 0.86449 0.18058 0.71052 0.0
O919 O 0.8451 0.19743 0.69246 0.0
C920 C 0.82238 0.1697 0.62302 0.0
C921 C 0.82684 0.15435 0.61814 0.0
C922 C 0.83189 0.18586 0.6024 0.0
C923 C 0.83339 0.15456 0.60543 0.0
C924 C 0.82522 0.18557 0.61509 0.0
C925 C 0.83574 0.17017 0.59734 0.0
C926 C 0.81402 0.16895 0.63605 0.0
C927 C 0.79776 0.16013 0.68541 0.0
H928 H 0.83515 0.18258 0.72496 0.0
H929 H 0.84917 0.14431 0.75892 0.0
H930 H 0.82347 0.1826 0.74714 0.0
H931 H 0.86041 0.14412 0.73673 0.0
H932 H 0.825 0.14198 0.62405 0.0
H933 H 0.83335 0.19799 0.59639 0.0
H934 H 0.83649 0.14242 0.6019 0.0
H935 H 0.82187 0.19756 0.6186 0.0
H936 H 0.27072 0.85372 0.0387 0.0
H937 H 0.30247 0.8746 0.02826 0.0
H938 H 0.32836 0.91854 0.06363 0.0
H939 H 0.29658 0.89798 0.0741 0.0
H940 H 0.32743 0.91943 0.02407 0.0
H941 H 0.36637 0.89182 0.05952 0.0
H942 H 0.33843 0.87979 0.05652 0.0
H943 H 0.35322 0.90384 0.06718 0.0
C944 C 0.28289 0.86818 0.0441 0.0
C945 C 0.28128 0.87406 0.0573 0.0
C946 C 0.30104 0.88001 0.03814 0.0
C947 C 0.31781 0.89781 0.0453 0.0
C948 C 0.31564 0.90462 0.05805 0.0
H949 H 0.44677 0.97989 0.03871 0.0
H950 H 0.41151 0.96071 0.04496 0.0
C951 C 0.29752 0.89285 0.06401 0.0
C952 C 0.33824 0.90814 0.04007 0.0
H953 H 0.38795 0.91766 0.04623 0.0
C954 C 0.34068 0.91901 0.02883 0.0
C955 C 0.35534 0.90727 0.04626 0.0
C956 C 0.35326 0.89491 0.05797 0.0
C957 C 0.36013 0.9298 0.02393 0.0
C958 C 0.37736 0.92935 0.03035 0.0
C959 C 0.37473 0.91805 0.04139 0.0
C960 C 0.3985 0.94114 0.02618 0.0
C961 C 0.36227 0.94208 0.01219 0.0
C962 C 0.40289 0.9363 0.01358 0.0
C963 C 0.42311 0.94726 0.00993 0.0
C964 C 0.43929 0.96317 0.01887 0.0
C965 C 0.43476 0.96779 0.03154 0.0
C966 C 0.41459 0.95686 0.03515 0.0
H967 H 0.34874 0.9444 0.01021 0.0
H968 H 0.37668 0.95754 0.01391 0.0
H969 H 0.3633 0.93353 1.00313 0.0
H970 H 0.39074 0.92392 0.00662 0.0
H971 H 0.42601 0.94323 1.00011 0.0
H972 H 0.12132 0.39311 0.06055 0.0
H973 H 0.10003 0.40752 0.05217 0.0
H974 H 0.15331 0.46942 0.05931 0.0
H975 H 0.17482 0.4551 0.06765 0.0
H976 H 0.09426 0.441 0.06607 0.0
H977 H 0.13023 0.46053 0.01846 0.0
H978 H 0.13186 0.44185 0.02835 0.0
H979 H 0.14741 0.46916 0.03375 0.0
C980 C 0.12853 0.40979 0.0603 0.0
C981 C 0.1498 0.42296 0.06464 0.0
C982 C 0.11632 0.418 0.05559 0.0
C983 C 0.12516 0.43949 0.05499 0.0
C984 C 0.14626 0.45276 0.05958 0.0
H985 H 0.07087 0.50791 0.01777 0.0
H986 H 0.09515 0.49783 0.0278 0.0
C987 C 0.15848 0.44457 0.06441 0.0
C988 C 0.11228 0.44787 0.04935 0.0
H989 H 0.10375 0.46835 0.02186 0.0
C990 C 0.09635 0.44708 0.05643 0.0
C991 C 0.11519 0.45592 0.03684 0.0
C992 C 0.132 0.45688 0.02881 0.0
C993 C 0.0832 0.45414 0.05134 0.0
C994 C 0.08558 0.46152 0.03856 0.0
C995 C 0.10182 0.46265 0.03161 0.0
C996 C 0.07104 0.46753 0.03209 0.0
C997 C 0.06716 0.45392 0.05987 0.0
C998 C 0.04948 0.45368 0.03075 0.0
C999 C 0.03571 0.45959 0.02533 0.0
C1000 C 0.04318 0.47922 0.02067 0.0
C1001 C 0.06474 0.49269 0.02128 0.0
C1002 C 0.07858 0.48694 0.02704 0.0
H1003 H 0.07207 0.45498 0.07066 0.0
H1004 H 0.06432 0.46698 0.05826 0.0
H1005 H 0.05231 0.43903 0.05732 0.0
H1006 H 0.04324 0.43829 0.03401 0.0
H1007 H 0.01914 0.44876 0.02476 0.0
H1008 H 0.5993 0.72764 0.0693 0.0
H1009 H 0.58113 0.69077 0.06092 0.0
H1010 H 0.58993 0.70677 0.02058 0.0
H1011 H 0.60776 0.74384 0.02883 0.0
H1012 H 0.54433 0.66894 0.04153 0.0
H1013 H 0.61312 0.66618 0.02529 0.0
H1014 H 0.6156 0.6871 0.03677 0.0
H1015 H 0.60859 0.68604 0.01928 0.0
C1016 C 0.59721 0.72339 0.05862 0.0
C1017 C 0.60497 0.73876 0.04974 0.0
C1018 C 0.58692 0.7023 0.05387 0.0
C1019 C 0.58435 0.69609 0.04016 0.0
C1020 C 0.59204 0.71129 0.03122 0.0
H1021 H 0.53045 0.57168 0.99804 0.0
H1022 H 0.54603 0.60922 1.00354 0.0
C1023 C 0.60227 0.73245 0.03596 0.0
C1024 C 0.57336 0.67365 0.03532 0.0
H1025 H 0.58076 0.63505 0.02154 0.0
C1026 C 0.55224 0.66151 0.03712 0.0
C1027 C 0.58375 0.66409 0.02952 0.0
C1028 C 0.60655 0.67642 0.02765 0.0
C1029 C 0.54122 0.63996 0.03331 0.0
C1030 C 0.55175 0.63029 0.02784 0.0
C1031 C 0.57276 0.64251 0.02578 0.0
C1032 C 0.5414 0.60743 0.02446 0.0
C1033 C 0.51836 0.62777 0.03505 0.0
C1034 C 0.53368 0.59397 0.03443 0.0
C1035 C 0.52471 0.57246 0.03133 0.0
C1036 C 0.52345 0.56404 0.01821 0.0
C1037 C 0.53113 0.5776 0.00824 0.0
C1038 C 0.54007 0.59908 0.01136 0.0
H1039 H 0.51146 0.63801 0.0358 0.0
H1040 H 0.50961 0.61543 0.02661 0.0
H1041 H 0.51638 0.62019 0.04441 0.0
H1042 H 0.53493 0.60013 0.04467 0.0
H1043 H 0.51908 0.56248 0.03926 0.0
H1044 H 0.87096 0.26902 0.9441 0.0
H1045 H 0.89155 0.30589 0.95255 0.0
H1046 H 0.86725 0.29185 0.9906 0.0
H1047 H 0.84674 0.25486 0.98224 0.0
H1048 H 0.87816 0.3319 0.96137 0.0
H1049 H 0.92925 0.32686 1.00173 0.0
H1050 H 0.91335 0.30556 0.98901 0.0
H1051 H 0.90201 0.3104 1.00304 0.0
C1052 C 0.86999 0.27379 0.95427 0.0
C1053 C 0.85723 0.25905 0.96251 0.0
C1054 C 0.88182 0.29484 0.95909 0.0
C1055 C 0.88114 0.30158 0.97225 0.0
C1056 C 0.86838 0.28693 0.98051 0.0
H1057 H 0.93804 0.42765 0.01353 0.0
H1058 H 0.91491 0.39018 0.00692 0.0
C1059 C 0.85663 0.26582 0.97571 0.0
C1060 C 0.89322 0.32407 0.9771 0.0
H1061 H 0.93108 0.35959 1.00091 0.0
C1062 C 0.88972 0.33794 0.97002 0.0
C1063 C 0.90835 0.33192 0.98836 0.0
C1064 C 0.91365 0.31796 0.99591 0.0
C1065 C 0.90092 0.35943 0.97392 0.0
C1066 C 0.91595 0.36721 0.98517 0.0
C1067 C 0.91932 0.35342 0.99236 0.0
C1068 C 0.92934 0.38978 0.98905 0.0
C1069 C 0.89676 0.37377 0.96596 0.0
C1070 C 0.94501 0.40174 0.98118 0.0
C1071 C 0.95826 0.42295 0.98495 0.0
C1072 C 0.95598 0.4326 0.99664 0.0
C1073 C 0.94006 0.42063 1.00444 0.0
C1074 C 0.92692 0.39928 1.00072 0.0
H1075 H 0.88207 0.36513 0.95915 0.0
H1076 H 0.89593 0.38563 0.97272 0.0
H1077 H 0.90976 0.3821 0.95983 0.0
H1078 H 0.94715 0.39459 0.97218 0.0
H1079 H 0.97032 0.43178 0.9787 0.0
H1080 H 0.70984 0.54501 0.953 0.0
H1081 H 0.67574 0.5309 0.96157 0.0
H1082 H 0.67642 0.58843 0.95669 0.0
H1083 H 0.71057 0.6027 0.94826 0.0
H1084 H 0.6701 0.55707 0.98568 0.0
H1085 H 0.61676 0.53516 0.93882 0.0
H1086 H 0.64129 0.53558 0.93912 0.0
H1087 H 0.64097 0.55956 0.94064 0.0
C1088 C 0.70254 0.5545 0.95358 0.0
C1089 C 0.71282 0.57496 0.95005 0.0
C1090 C 0.68316 0.54647 0.95849 0.0
C1091 C 0.67366 0.55865 0.95971 0.0
C1092 C 0.68354 0.57881 0.95576 0.0
H1093 H 0.55697 0.53941 0.98399 0.0
H1094 H 0.59025 0.55149 0.97485 0.0
C1095 C 0.70302 0.58694 0.95102 0.0
C1096 C 0.65413 0.55092 0.96598 0.0
H1097 H 0.60203 0.53178 0.95912 0.0
C1098 C 0.65514 0.55141 0.97992 0.0
C1099 C 0.63484 0.54391 0.95839 0.0
C1100 C 0.63319 0.54337 0.94339 0.0
C1101 C 0.63731 0.54541 0.98656 0.0
C1102 C 0.61782 0.53799 0.97897 0.0
C1103 C 0.6169 0.53738 0.96496 0.0
C1104 C 0.59825 0.53136 0.98526 0.0
C1105 C 0.63979 0.54789 1.00163 0.0
C1106 C 0.59168 0.51615 0.99428 0.0
C1107 C 0.57292 0.50972 0.99984 0.0
C1108 C 0.56019 0.51789 0.99606 0.0
C1109 C 0.56662 0.53291 0.98699 0.0
C1110 C 0.58557 0.53974 0.98175 0.0
H1111 H 0.65598 0.55959 1.00574 0.0
H1112 H 0.6291 0.55272 1.00565 0.0
H1113 H 0.63622 0.5328 1.00526 0.0
H1114 H 0.60081 0.50894 0.99684 0.0
H1115 H 0.56803 0.4979 0.00669 0.0
H1116 H 0.36811 0.09364 0.96378 0.0
H1117 H 0.37856 0.07 0.97325 0.0
H1118 H 0.4398 0.12241 0.98591 0.0
H1119 H 0.42916 0.14581 0.97689 0.0
H1120 H 0.40843 0.06392 0.96431 0.0
H1121 H 0.42991 0.09128 0.01799 0.0
H1122 H 0.41442 0.09855 0.00755 0.0
H1123 H 0.44244 0.11286 0.00842 0.0
C1124 C 0.3835 0.10002 0.96906 0.0
C1125 C 0.39781 0.12141 0.96988 0.0
C1126 C 0.38948 0.08659 0.97438 0.0
C1127 C 0.40983 0.0945 0.98049 0.0
C1128 C 0.42383 0.11602 0.98165 0.0
H1129 H 0.50582 0.07191 1.00244 0.0
H1130 H 0.48187 0.08353 0.99435 0.0
C1131 C 0.41782 0.12938 0.97646 0.0
C1132 C 0.41759 0.0804 0.9841 0.0
H1133 H 0.44862 0.07559 0.00819 0.0
C1134 C 0.41683 0.06607 0.974 0.0
C1135 C 0.42833 0.08308 0.99677 0.0
C1136 C 0.42861 0.09714 0.00832 0.0
C1137 C 0.42816 0.05577 0.97588 0.0
C1138 C 0.44033 0.05994 0.9882 0.0
C1139 C 0.43966 0.07289 0.99863 0.0
C1140 C 0.4551 0.05241 0.99043 0.0
C1141 C 0.42799 0.04154 0.96448 0.0
C1142 C 0.44807 0.03108 0.99026 0.0
C1143 C 0.46186 0.02454 0.9945 0.0
C1144 C 0.48252 0.0393 0.99936 0.0
C1145 C 0.48982 0.06047 0.99891 0.0
C1146 C 0.4762 0.067 0.99429 0.0
H1147 H 0.42091 0.04307 0.95489 0.0
H1148 H 0.44402 0.04484 0.96323 0.0
H1149 H 0.41875 0.02514 0.96669 0.0
H1150 H 0.43182 0.01961 0.98756 0.0
H1151 H 0.45605 0.00802 0.99483 0.0
H1152 H 0.70941 0.0955 0.9466 0.0
H1153 H 0.67562 0.07792 0.95535 0.0
H1154 H 0.69366 0.13259 0.9825 0.0
H1155 H 0.72755 0.15027 0.97388 0.0
H1156 H 0.66741 0.06909 0.98127 0.0
H1157 H 0.63716 0.11982 0.96461 0.0
H1158 H 0.65942 0.12012 0.95824 0.0
H1159 H 0.66216 0.13362 0.97431 0.0
C1160 C 0.70623 0.10378 0.95446 0.0
C1161 C 0.72119 0.12433 0.95952 0.0
C1162 C 0.68687 0.09374 0.9594 0.0
C1163 C 0.68202 0.10404 0.96944 0.0
C1164 C 0.69689 0.12451 0.97454 0.0
H1165 H 0.57295 0.06215 0.01352 0.0
H1166 H 0.60781 0.08196 1.00625 0.0
C1167 C 0.71626 0.13459 0.9696 0.0
C1168 C 0.66165 0.09306 0.97488 0.0
H1169 H 0.61729 0.0948 0.97899 0.0
C1170 C 0.65645 0.0747 0.98076 0.0
C1171 C 0.64737 0.10042 0.97419 0.0
C1172 C 0.65167 0.11947 0.96739 0.0
C1173 C 0.63739 0.06356 0.98605 0.0
C1174 C 0.62315 0.07091 0.98535 0.0
C1175 C 0.62838 0.08935 0.97959 0.0
C1176 C 0.60225 0.05901 0.98989 0.0
C1177 C 0.63264 0.04404 0.9924 0.0
C1178 C 0.58764 0.03971 0.983 0.0
C1179 C 0.5678 0.02844 0.98705 0.0
C1180 C 0.56211 0.03623 0.99811 0.0
C1181 C 0.57683 0.05564 1.00501 0.0
C1182 C 0.59671 0.067 1.00086 0.0
H1183 H 0.64689 0.04309 0.99487 0.0
H1184 H 0.62509 0.04328 1.00165 0.0
H1185 H 0.62172 0.03023 0.98534 0.0
H1186 H 0.59156 0.03342 0.9744 0.0
H1187 H 0.55695 0.01356 0.98148 0.0
H1188 H 0.86035 0.59364 0.97371 0.0
H1189 H 0.88153 0.57912 0.98221 0.0
H1190 H 0.86606 0.54053 0.9449 0.0
H1191 H 0.84477 0.55496 0.93632 0.0
H1192 H 0.86708 0.53282 0.98289 0.0
H1193 H 0.93266 0.57626 0.95275 0.0
H1194 H 0.91456 0.5849 0.95653 0.0
H1195 H 0.90673 0.56326 0.94417 0.0
C1196 C 0.8615 0.58209 0.96731 0.0
C1197 C 0.85097 0.57548 0.95433 0.0
C1198 C 0.87352 0.57376 0.9722 0.0
C1199 C 0.87545 0.55889 0.96414 0.0
C1200 C 0.86483 0.5521 0.95123 0.0
H1201 H 0.95056 0.50007 0.97327 0.0
H1202 H 0.92724 0.51229 0.96522 0.0
C1203 C 0.8526 0.56025 0.94638 0.0
C1204 C 0.88868 0.55056 0.96925 0.0
H1205 H 0.93475 0.55207 0.96588 0.0
C1206 C 0.88189 0.537 0.97921 0.0
C1207 C 0.90794 0.55608 0.96439 0.0
C1208 C 0.91609 0.57102 0.95392 0.0
C1209 C 0.89374 0.52849 0.9843 0.0
C1210 C 0.91313 0.53411 0.9795 0.0
C1211 C 0.91989 0.54774 0.96954 0.0
C1212 C 0.92666 0.52603 0.98461 0.0
C1213 C 0.88515 0.51319 0.99452 0.0
C1214 C 0.93418 0.52973 0.9982 0.0
C1215 C 0.94743 0.52263 1.00287 0.0
C1216 C 0.95363 0.51188 0.994 0.0
C1217 C 0.94608 0.50823 0.9804 0.0
C1218 C 0.93276 0.51525 0.97576 0.0
H1219 H 0.86801 0.50612 0.99428 0.0
H1220 H 0.88885 0.50053 0.99289 0.0
H1221 H 0.89223 0.52145 1.00465 0.0
H1222 H 0.93012 0.53846 1.00518 0.0
H1223 H 0.9531 0.52592 0.01339 0.0
H1224 H 0.39968 0.25732 0.99097 0.0
H1225 H 0.41219 0.29367 0.99955 0.0
H1226 H 0.41576 0.31029 0.95917 0.0
H1227 H 0.4025 0.27408 0.95064 0.0
H1228 H 0.44903 0.32564 0.99703 0.0
H1229 H 0.3901 0.34193 0.97378 0.0
H1230 H 0.38559 0.31577 0.974 0.0
H1231 H 0.39989 0.33173 0.96144 0.0
C1232 C 0.4026 0.26871 0.98397 0.0
C1233 C 0.39987 0.26293 0.97016 0.0
C1234 C 0.40979 0.28943 0.98885 0.0
C1235 C 0.41458 0.30469 0.98 0.0
C1236 C 0.41149 0.29876 0.9662 0.0
H1237 H 0.47848 0.43686 0.97939 0.0
H1238 H 0.46091 0.39891 0.9749 0.0
C1239 C 0.40397 0.27805 0.96132 0.0
C1240 C 0.42479 0.32706 0.9851 0.0
H1241 H 0.42372 0.37176 0.98111 0.0
C1242 C 0.44334 0.3357 0.99372 0.0
C1243 C 0.41738 0.34019 0.98077 0.0
C1244 C 0.39703 0.33186 0.9721 0.0
C1245 C 0.45525 0.35722 0.99756 0.0
C1246 C 0.44821 0.37043 0.99282 0.0
C1247 C 0.42926 0.36168 0.98462 0.0
C1248 C 0.4605 0.39344 0.99575 0.0
C1249 C 0.47566 0.3656 1.00617 0.0
C1250 C 0.46646 0.40304 0.00896 0.0
C1251 C 0.4771 0.42476 0.0115 0.0
C1252 C 0.48131 0.43713 1.00089 0.0
C1253 C 0.47545 0.42758 0.98771 0.0
C1254 C 0.46533 0.40594 0.98516 0.0
H1255 H 0.48142 0.35437 1.00584 0.0
H1256 H 0.48779 0.38049 1.00302 0.0
H1257 H 0.47343 0.36848 0.0167 0.0
H1258 H 0.46238 0.39377 0.0173 0.0
H1259 H 0.48109 0.43185 0.02175 0.0
H1260 H 0.13371 0.73915 0.0354 0.0
H1261 H 0.1069 0.70315 0.02692 0.0
H1262 H 0.12071 0.68145 0.06278 0.0
H1263 H 0.14698 0.71719 0.07125 0.0
H1264 H 0.11466 0.67072 0.0221 0.0
H1265 H 0.05771 0.65105 0.05912 0.0
H1266 H 0.07706 0.67757 0.05728 0.0
H1267 H 0.08381 0.66171 0.06686 0.0
C1268 C 0.13056 0.72663 0.04151 0.0
C1269 C 0.14204 0.73068 0.05397 0.0
C1270 C 0.11537 0.70618 0.0367 0.0
C1271 C 0.11157 0.6897 0.04434 0.0
C1272 C 0.12294 0.69396 0.05689 0.0
H1273 H 0.04987 0.55636 0.03765 0.0
H1274 H 0.0707 0.59396 0.04407 0.0
C1275 C 0.13799 0.71429 0.06168 0.0
C1276 C 0.09724 0.6678 0.03885 0.0
H1277 H 0.05669 0.62218 0.04631 0.0
C1278 C 0.10175 0.66014 0.02724 0.0
C1279 C 0.08052 0.65405 0.04566 0.0
C1280 C 0.07435 0.66156 0.05785 0.0
C1281 C 0.0906 0.63887 0.02259 0.0
C1282 C 0.07427 0.62502 0.02962 0.0
C1283 C 0.06935 0.63281 0.041 0.0
C1284 C 0.06222 0.60233 0.02548 0.0
C1285 C 0.09698 0.63131 0.01052 0.0
C1286 C 0.05056 0.59462 0.01293 0.0
C1287 C 0.03882 0.5732 0.00919 0.0
C1288 C 0.03828 0.55907 0.01803 0.0
C1289 C 0.04995 0.56683 0.03063 0.0
C1290 C 0.06183 0.58829 0.03431 0.0
H1291 H 0.11291 0.64285 0.00841 0.0
H1292 H 0.09644 0.61636 0.0119 0.0
H1293 H 0.08606 0.62873 1.00165 0.0
H1294 H 0.05026 0.60517 1.00609 0.0
H1295 H 0.02984 0.56773 0.99947 0.0
H1296 H 0.28852 0.45056 0.05899 0.0
H1297 H 0.3225 0.46484 0.05052 0.0
H1298 H 0.32926 0.41461 0.06435 0.0
H1299 H 0.29566 0.40056 0.07333 0.0
H1300 H 0.36569 0.4729 0.06592 0.0
H1301 H 0.33041 0.41485 0.02081 0.0
H1302 H 0.31526 0.42279 0.03031 0.0
H1303 H 0.32354 0.40592 0.03693 0.0
C1304 C 0.29738 0.44276 0.06053 0.0
C1305 C 0.28917 0.42424 0.06674 0.0
C1306 C 0.31676 0.45092 0.05562 0.0
C1307 C 0.3282 0.44066 0.05675 0.0
C1308 C 0.32051 0.42264 0.06333 0.0
H1309 H 0.43929 0.45333 0.02756 0.0
H1310 H 0.40626 0.44222 0.03682 0.0
C1311 C 0.30122 0.41455 0.06834 0.0
C1312 C 0.34755 0.44802 0.05029 0.0
H1313 H 0.36671 0.43759 0.02282 0.0
C1314 C 0.36595 0.46532 0.05647 0.0
C1315 C 0.34773 0.43793 0.03801 0.0
C1316 C 0.32821 0.41938 0.03102 0.0
C1317 C 0.38471 0.47265 0.05069 0.0
C1318 C 0.38484 0.46264 0.03835 0.0
C1319 C 0.36643 0.44535 0.0322 0.0
C1320 C 0.40425 0.46917 0.03208 0.0
C1321 C 0.40441 0.49067 0.05793 0.0
C1322 C 0.41372 0.48778 0.02606 0.0
C1323 C 0.4325 0.49406 0.02056 0.0
C1324 C 0.44212 0.48192 0.02124 0.0
C1325 C 0.4323 0.46308 0.02702 0.0
C1326 C 0.41345 0.45669 0.03229 0.0
H1327 H 0.40223 0.49491 0.06821 0.0
H1328 H 0.41704 0.48679 0.05851 0.0
H1329 H 0.40954 0.50444 0.05229 0.0
H1330 H 0.40669 0.49751 0.02575 0.0
H1331 H 0.43982 0.50867 0.01621 0.0
H1332 H 0.58975 0.85163 0.03154 0.0
H1333 H 0.57101 0.8689 0.02363 0.0
H1334 H 0.60669 0.92012 0.05427 0.0
H1335 H 0.62541 0.90293 0.06228 0.0
H1336 H 0.54672 0.87934 0.0385 0.0
H1337 H 0.61079 0.94954 0.02074 0.0
H1338 H 0.61289 0.92696 0.02387 0.0
H1339 H 0.61651 0.94559 0.03751 0.0
C1340 C 0.59366 0.86661 0.03656 0.0
C1341 C 0.60905 0.87591 0.04755 0.0
C1342 C 0.58301 0.87648 0.03199 0.0
C1343 C 0.58764 0.89587 0.03827 0.0
C1344 C 0.6032 0.90536 0.0491 0.0
H1345 H 0.5348 0.97506 0.03777 0.0
H1346 H 0.55243 0.95572 0.04291 0.0
C1347 C 0.61388 0.89552 0.05367 0.0
C1348 C 0.57529 0.90556 0.03407 0.0
H1349 H 0.57931 0.94991 0.02333 0.0
C1350 C 0.55378 0.89466 0.03503 0.0
C1351 C 0.5846 0.92555 0.02956 0.0
C1352 C 0.60743 0.93753 0.02772 0.0
C1353 C 0.54142 0.90354 0.03197 0.0
C1354 C 0.55084 0.92368 0.02779 0.0
C1355 C 0.57224 0.93445 0.0266 0.0
C1356 C 0.53886 0.93415 0.02498 0.0
C1357 C 0.51851 0.89168 0.03359 0.0
C1358 C 0.52519 0.92812 0.01327 0.0
C1359 C 0.51507 0.93916 0.01023 0.0
C1360 C 0.51849 0.95638 0.01891 0.0
C1361 C 0.5317 0.96186 0.03087 0.0
C1362 C 0.54189 0.95091 0.03382 0.0
H1363 H 0.51407 0.87724 0.03844 0.0
H1364 H 0.51417 0.90164 0.03965 0.0
H1365 H 0.50939 0.88734 0.02363 0.0
H1366 H 0.5228 0.91523 1.00632 0.0
H1367 H 0.50503 0.93455 1.00093 0.0
H1368 H 0.97139 0.22756 0.41195 0.0
H1369 H 0.00234 0.24795 0.40065 0.0
H1370 H 0.96846 0.21386 0.36288 0.0
H1371 H 0.93747 0.19312 0.37407 0.0
H1372 H 0.01073 0.21518 0.37637 0.0
H1373 H 0.01307 0.28959 0.36762 0.0
H1374 H 0.00382 0.27784 0.38272 0.0
H1375 H 0.98876 0.26531 0.36697 0.0
C1376 C 0.9704 0.22462 0.4012 0.0
C1377 C 0.95203 0.20855 0.39393 0.0
C1378 C 0.98804 0.23637 0.39477 0.0
C1379 C 0.98757 0.23233 0.38097 0.0
C1380 C 0.96899 0.21722 0.37354 0.0
H1381 H 0.0917 0.29116 0.33309 0.0
H1382 H 0.05669 0.2726 0.34013 0.0
C1383 C 0.95129 0.20547 0.37996 0.0
C1384 C 0.00714 0.24197 0.3747 0.0
H1385 H 0.0423 0.28673 0.3628 0.0
C1386 C 0.0176 0.23075 0.37329 0.0
C1387 C 0.01587 0.26222 0.37072 0.0
C1388 C 0.00489 0.27457 0.372 0.0
C1389 C 0.03695 0.23949 0.36823 0.0
C1390 C 0.04605 0.26001 0.3646 0.0
C1391 C 0.03527 0.27101 0.36565 0.0
C1392 C 0.06712 0.27057 0.36019 0.0
C1393 C 0.04758 0.22678 0.36686 0.0
C1394 C 0.08449 0.27549 0.36916 0.0
C1395 C 0.1045 0.2861 0.3652 0.0
C1396 C 0.10749 0.29198 0.35218 0.0
C1397 C 0.08997 0.28676 0.34316 0.0
C1398 C 0.06996 0.27624 0.34717 0.0
H1399 H 0.03654 0.2099 0.36707 0.0
H1400 H 0.05497 0.22906 0.35742 0.0
H1401 H 0.05997 0.23192 0.3753 0.0
H1402 H 0.0826 0.27144 0.37931 0.0
H1403 H 0.11762 0.28994 0.37242 0.0
H1404 H 0.82928 0.76153 0.37686 0.0
H1405 H 0.80701 0.77489 0.36858 0.0
H1406 H 0.78152 0.76808 0.40636 0.0
H1407 H 0.80373 0.7547 0.41471 0.0
H1408 H 0.7641 0.75504 0.3658 0.0
H1409 H 0.79704 0.82749 0.40052 0.0
H1410 H 0.81008 0.81263 0.39864 0.0
H1411 H 0.78873 0.80425 0.40864 0.0
C1412 C 0.81895 0.76288 0.38342 0.0
C1413 C 0.81834 0.75708 0.39647 0.0
C1414 C 0.80628 0.77059 0.37869 0.0
C1415 C 0.79279 0.77277 0.3869 0.0
C1416 C 0.79215 0.76702 0.39994 0.0
H1417 H 0.70086 0.81166 0.37528 0.0
H1418 H 0.72412 0.79972 0.38389 0.0
C1419 C 0.80487 0.75936 0.4047 0.0
C1420 C 0.77883 0.78026 0.3816 0.0
H1421 H 0.76622 0.81837 0.38659 0.0
C1422 C 0.76463 0.76895 0.3703 0.0
C1423 C 0.77943 0.79833 0.38753 0.0
C1424 C 0.79475 0.81151 0.39943 0.0
C1425 C 0.75083 0.77503 0.36488 0.0
C1426 C 0.75154 0.79321 0.37074 0.0
C1427 C 0.7657 0.80448 0.38207 0.0
C1428 C 0.73758 0.80068 0.36538 0.0
C1429 C 0.73525 0.76156 0.35315 0.0
C1430 C 0.73758 0.80554 0.35214 0.0
C1431 C 0.72414 0.81223 0.34712 0.0
C1432 C 0.71066 0.81456 0.35532 0.0
C1433 C 0.71107 0.81015 0.36868 0.0
C1434 C 0.72436 0.80328 0.37363 0.0
H1435 H 0.7328 0.74551 0.3523 0.0
H1436 H 0.72001 0.76064 0.35398 0.0
H1437 H 0.74113 0.76841 0.34381 0.0
H1438 H 0.74802 0.8042 0.34567 0.0
H1439 H 0.72437 0.81566 0.33683 0.0
H1440 H 0.2996 0.07446 0.37552 0.0
H1441 H 0.28177 0.03767 0.36674 0.0
H1442 H 0.22371 0.03041 0.37781 0.0
H1443 H 0.24127 0.06731 0.38626 0.0
H1444 H 0.26024 0.00435 0.38188 0.0
H1445 H 0.20825 0.00257 0.3392 0.0
H1446 H 0.23032 0.02647 0.34712 0.0
H1447 H 0.20658 0.01425 0.35485 0.0
C1448 C 0.28296 0.06515 0.37585 0.0
C1449 C 0.27186 0.07384 0.3816 0.0
C1450 C 0.27283 0.04411 0.37089 0.0
C1451 C 0.25139 0.03139 0.37148 0.0
C1452 C 0.2402 0.04003 0.37705 0.0
H1453 H 0.1634 0.89902 0.3518 0.0
H1454 H 0.1802 0.93686 0.35762 0.0
C1455 C 0.25032 0.06107 0.38203 0.0
C1456 C 0.24104 0.00879 0.36711 0.0
H1457 H 0.20258 0.96991 0.34518 0.0
C1458 C 0.2477 0.99681 0.37381 0.0
C1459 C 0.22456 -0.00099 0.35667 0.0
C1460 C 0.21707 0.01123 0.34895 0.0
C1461 C 0.23811 0.9752 0.37054 0.0
C1462 C 0.22177 0.96538 0.35996 0.0
C1463 C 0.2151 0.97741 0.35326 0.0
C1464 C 0.21144 0.94268 0.35573 0.0
C1465 C 0.24522 0.96313 0.37877 0.0
C1466 C 0.22329 0.93347 0.35234 0.0
C1467 C 0.2138 0.91193 0.34939 0.0
C1468 C 0.19219 0.89929 0.34927 0.0
C1469 C 0.1801 0.90852 0.35184 0.0
C1470 C 0.18969 0.93008 0.35517 0.0
H1471 H 0.2527 0.97157 0.38881 0.0
H1472 H 0.23205 0.94753 0.38007 0.0
H1473 H 0.25695 0.96105 0.37367 0.0
H1474 H 0.23994 0.94289 0.35217 0.0
H1475 H 0.22338 0.90514 0.3472 0.0
H1476 H 0.49694 0.5955 0.30057 0.0
H1477 H 0.51768 0.63269 0.30888 0.0
H1478 H 0.57397 0.63172 0.30261 0.0
H1479 H 0.55336 0.59451 0.29451 0.0
H1480 H 0.55775 0.65221 0.33157 0.0
H1481 H 0.56871 0.67936 0.28093 0.0
H1482 H 0.54667 0.65492 0.28397 0.0
H1483 H 0.57191 0.65743 0.28402 0.0
C1484 C 0.51375 0.60327 0.30101 0.0
C1485 C 0.52363 0.59226 0.29694 0.0
C1486 C 0.52552 0.6244 0.30578 0.0
C1487 C 0.54728 0.63482 0.30631 0.0
C1488 C 0.55718 0.62385 0.30228 0.0
H1489 H 0.64542 0.7629 0.31815 0.0
H1490 H 0.62308 0.72532 0.3124 0.0
C1491 C 0.54544 0.60267 0.2977 0.0
C1492 C 0.55974 0.6573 0.31084 0.0
H1493 H 0.58649 0.70474 0.2993 0.0
C1494 C 0.56402 0.6638 0.32457 0.0
C1495 C 0.56787 0.67218 0.30164 0.0
C1496 C 0.56356 0.66578 0.28679 0.0
C1497 C 0.5768 0.68493 0.32939 0.0
C1498 C 0.58497 0.69995 0.32016 0.0
C1499 C 0.58031 0.69331 0.3064 0.0
C1500 C 0.59888 0.72256 0.32441 0.0
C1501 C 0.58198 0.69076 0.34428 0.0
C1502 C 0.59284 0.7336 0.33314 0.0
C1503 C 0.60592 0.755 0.33672 0.0
C1504 C 0.62485 0.76581 0.33124 0.0
C1505 C 0.63078 0.75488 0.3224 0.0
C1506 C 0.61803 0.73343 0.31913 0.0
H1507 H 0.57982 0.67728 0.3496 0.0
H1508 H 0.59827 0.70362 0.34683 0.0
H1509 H 0.57141 0.69593 0.34805 0.0
H1510 H 0.5779 0.72578 0.33701 0.0
H1511 H 0.60099 0.76322 0.34347 0.0
H1512 H 0.37965 0.93901 0.28655 0.0
H1513 H 0.34556 0.92428 0.29501 0.0
H1514 H 0.33815 0.86293 0.28941 0.0
H1515 H 0.37235 0.87753 0.28111 0.0
H1516 H 0.3039 0.8891 0.28259 0.0
H1517 H 0.3342 0.87498 0.33038 0.0
H1518 H 0.3511 0.89296 0.31951 0.0
H1519 H 0.33945 0.86544 0.31513 0.0
C1520 C 0.37075 0.92238 0.28712 0.0
C1521 C 0.37879 0.90945 0.28333 0.0
C1522 C 0.35125 0.91399 0.29185 0.0
C1523 C 0.33955 0.8926 0.29297 0.0
C1524 C 0.34711 0.87952 0.28872 0.0
H1525 H 0.22679 0.82298 0.33239 0.0
H1526 H 0.2591 0.83355 0.32193 0.0
C1527 C 0.36657 0.88787 0.28392 0.0
C1528 C 0.31992 0.88416 0.29922 0.0
H1529 H 0.29874 0.86509 0.32775 0.0
C1530 C 0.30268 0.88376 0.29243 0.0
C1531 C 0.31846 0.87715 0.31202 0.0
C1532 C 0.33678 0.87771 0.31979 0.0
C1533 C 0.2839 0.87647 0.29814 0.0
C1534 C 0.2826 0.87 0.31115 0.0
C1535 C 0.29977 0.87007 0.31781 0.0
C1536 C 0.26384 0.86391 0.31819 0.0
C1537 C 0.26559 0.87555 0.2901 0.0
C1538 C 0.25634 0.87776 0.32004 0.0
C1539 C 0.23792 0.87166 0.32578 0.0
C1540 C 0.22695 0.85182 0.33014 0.0
C1541 C 0.23508 0.83838 0.32913 0.0
C1542 C 0.25341 0.84437 0.32311 0.0
H1543 H 0.2669 0.87445 0.2792 0.0
H1544 H 0.25067 0.86205 0.29212 0.0
H1545 H 0.26515 0.89002 0.29278 0.0
H1546 H 0.26454 0.8932 0.31681 0.0
H1547 H 0.23206 0.88239 0.32665 0.0
H1548 H 0.05497 0.43222 0.28124 0.0
H1549 H 0.06621 0.41017 0.29182 0.0
H1550 H 0.07697 0.44536 0.32996 0.0
H1551 H 0.06559 0.46742 0.31942 0.0
H1552 H 0.11341 0.44665 0.31618 0.0
H1553 H 0.04866 0.36722 0.32201 0.0
H1554 H 0.04684 0.37913 0.30732 0.0
H1555 H 0.04559 0.38991 0.32339 0.0
C1556 C 0.05891 0.43466 0.29197 0.0
C1557 C 0.05967 0.45159 0.29953 0.0
C1558 C 0.06523 0.42204 0.298 0.0
C1559 C 0.07242 0.42625 0.31162 0.0
C1560 C 0.0713 0.44186 0.31943 0.0
H1561 H 0.1373 0.37337 0.35366 0.0
H1562 H 0.11759 0.39056 0.34804 0.0
C1563 C 0.06476 0.45438 0.31342 0.0
C1564 C 0.08511 0.41759 0.31685 0.0
H1565 H 0.08297 0.37273 0.32482 0.0
C1566 C 0.1068 0.43056 0.31823 0.0
C1567 C 0.0763 0.39659 0.31934 0.0
C1568 C 0.05306 0.3823 0.31802 0.0
C1569 C 0.12003 0.4229 0.3218 0.0
C1570 C 0.11125 0.40179 0.32403 0.0
C1571 C 0.08954 0.38892 0.32299 0.0
C1572 C 0.1244 0.39276 0.32751 0.0
C1573 C 0.14327 0.4373 0.32306 0.0
C1574 C 0.13499 0.38869 0.31781 0.0
C1575 C 0.14626 0.37877 0.32095 0.0
C1576 C 0.14704 0.37283 0.33384 0.0
C1577 C 0.13696 0.37766 0.34362 0.0
C1578 C 0.12565 0.38743 0.34045 0.0
H1579 H 0.1475 0.45387 0.32295 0.0
H1580 H 0.15066 0.43561 0.33246 0.0
H1581 H 0.14977 0.43307 0.3146 0.0
H1582 H 0.13408 0.3927 0.30775 0.0
H1583 H 0.15382 0.37525 0.31321 0.0
H1584 H 0.37758 0.42696 0.28325 0.0
H1585 H 0.34387 0.40983 0.29215 0.0
H1586 H 0.35817 0.46809 0.31364 0.0
H1587 H 0.39207 0.48528 0.30506 0.0
H1588 H 0.33707 0.40804 0.31975 0.0
H1589 H 0.29986 0.44646 0.29309 0.0
H1590 H 0.32238 0.44603 0.28778 0.0
H1591 H 0.32525 0.4638 0.30173 0.0
C1592 C 0.37363 0.43613 0.28993 0.0
C1593 C 0.38757 0.45753 0.29342 0.0
C1594 C 0.3543 0.42633 0.29493 0.0
C1595 C 0.34846 0.43776 0.30341 0.0
C1596 C 0.36224 0.45909 0.30689 0.0
H1597 H 0.23663 0.39872 0.34493 0.0
H1598 H 0.27171 0.4193 0.33795 0.0
C1599 C 0.3816 0.46889 0.30195 0.0
C1600 C 0.32829 0.42718 0.30906 0.0
H1601 H 0.28147 0.42516 0.30955 0.0
C1602 C 0.32492 0.41179 0.31754 0.0
C1603 C 0.3125 0.43214 0.30614 0.0
C1604 C 0.31501 0.44788 0.2966 0.0
C1605 C 0.30616 0.40126 0.32324 0.0
C1606 C 0.29035 0.40615 0.32028 0.0
C1607 C 0.29377 0.42168 0.31192 0.0
C1608 C 0.26951 0.39398 0.32484 0.0
C1609 C 0.30335 0.38492 0.33236 0.0
C1610 C 0.25678 0.37311 0.3197 0.0
C1611 C 0.23691 0.36146 0.32357 0.0
C1612 C 0.22927 0.37043 0.3327 0.0
C1613 C 0.24211 0.39137 0.33795 0.0
C1614 C 0.26207 0.40313 0.33394 0.0
H1615 H 0.31848 0.38656 0.33619 0.0
H1616 H 0.29513 0.3858 0.34097 0.0
H1617 H 0.29376 0.36925 0.32674 0.0
H1618 H 0.26216 0.36586 0.31254 0.0
H1619 H 0.22752 0.34537 0.31935 0.0
H1620 H 0.49812 0.89483 0.30281 0.0
H1621 H 0.51938 0.88068 0.31172 0.0
H1622 H 0.55801 0.9026 0.27963 0.0
H1623 H 0.53702 0.91702 0.2708 0.0
H1624 H 0.52782 0.85161 0.30118 0.0
H1625 H 0.60105 0.92745 0.31169 0.0
H1626 H 0.57621 0.92557 0.30748 0.0
H1627 H 0.59022 0.92217 0.29457 0.0
C1628 C 0.51108 0.89653 0.29761 0.0
C1629 C 0.516 0.90721 0.28616 0.0
C1630 C 0.52326 0.8885 0.30274 0.0
C1631 C 0.54058 0.89097 0.29652 0.0
C1632 C 0.54512 0.90105 0.28484 0.0
H1633 H 0.63144 0.85204 0.30729 0.0
H1634 H 0.60813 0.86428 0.29946 0.0
C1635 C 0.53306 0.90922 0.27977 0.0
C1636 C 0.55378 0.88285 0.30217 0.0
H1637 H 0.60388 0.89705 0.31318 0.0
C1638 C 0.54442 0.86158 0.30391 0.0
C1639 C 0.57545 0.89588 0.30579 0.0
C1640 C 0.58631 0.91907 0.30492 0.0
C1641 C 0.55622 0.8529 0.3088 0.0
C1642 C 0.57791 0.86586 0.31215 0.0
C1643 C 0.58724 0.88714 0.31056 0.0
C1644 C 0.59135 0.85754 0.31689 0.0
C1645 C 0.54554 0.82983 0.31002 0.0
C1646 C 0.58962 0.84961 0.32932 0.0
C1647 C 0.60299 0.84255 0.33388 0.0
C1648 C 0.61837 0.84337 0.3261 0.0
C1649 C 0.61981 0.85112 0.31358 0.0
C1650 C 0.60651 0.85819 0.30907 0.0
H1651 H 0.52955 0.82139 0.30471 0.0
H1652 H 0.55465 0.82303 0.30596 0.0
H1653 H 0.54445 0.82727 0.32073 0.0
H1654 H 0.57819 0.84924 0.33559 0.0
H1655 H 0.60153 0.83685 0.3436 0.0
H1656 H 0.0638 0.60681 0.28374 0.0
H1657 H 0.07684 0.64317 0.29178 0.0
H1658 H 0.08081 0.62929 0.3324 0.0
H1659 H 0.0683 0.59281 0.32432 0.0
H1660 H 0.06576 0.66476 0.30793 0.0
H1661 H 0.14008 0.67272 0.32981 0.0
H1662 H 0.12064 0.64966 0.3195 0.0
H1663 H 0.11766 0.65371 0.33681 0.0
C1664 C 0.06698 0.61137 0.29441 0.0
C1665 C 0.06518 0.59701 0.30341 0.0
C1666 C 0.07455 0.63221 0.29899 0.0
C1667 C 0.08035 0.63909 0.31266 0.0
C1668 C 0.07706 0.62446 0.32177 0.0
H1669 H 0.13959 0.7645 0.35378 0.0
H1670 H 0.12121 0.72673 0.34817 0.0
C1671 C 0.06976 0.60362 0.31717 0.0
C1672 C 0.09092 0.66171 0.31713 0.0
H1673 H 0.1363 0.70239 0.33287 0.0
C1674 C 0.08116 0.67296 0.31342 0.0
C1675 C 0.11115 0.67247 0.32416 0.0
C1676 C 0.12311 0.66159 0.3277 0.0
C1677 C 0.09103 0.69463 0.31655 0.0
C1678 C 0.11116 0.70528 0.3236 0.0
C1679 C 0.12082 0.69407 0.3275 0.0
C1680 C 0.12256 0.72814 0.3269 0.0
C1681 C 0.07991 0.70602 0.31234 0.0
C1682 C 0.12975 0.74137 0.31678 0.0
C1683 C 0.14039 0.76298 0.31994 0.0
C1684 C 0.14399 0.7717 0.33329 0.0
C1685 C 0.13706 0.75833 0.3434 0.0
C1686 C 0.12653 0.73674 0.34023 0.0
H1687 H 0.06307 0.69521 0.3093 0.0
H1688 H 0.08168 0.71759 0.32058 0.0
H1689 H 0.08691 0.71459 0.30372 0.0
H1690 H 0.12707 0.73496 0.30644 0.0
H1691 H 0.14551 0.77282 0.31191 0.0
H1692 H 0.78658 0.07096 0.38465 0.0
H1693 H 0.76033 0.03471 0.37661 0.0
H1694 H 0.80867 0.01883 0.37554 0.0
H1695 H 0.83473 0.05456 0.38374 0.0
H1696 H 0.75739 0.00859 0.35282 0.0
H1697 H 0.76743 0.97833 0.3999 0.0
H1698 H 0.77636 0.00558 0.39878 0.0
H1699 H 0.79154 0.99438 0.39325 0.0
C1700 C 0.79157 0.05973 0.38262 0.0
C1701 C 0.81274 0.06565 0.38477 0.0
C1702 C 0.7766 0.03909 0.37802 0.0
C1703 C 0.7826 0.0241 0.3757 0.0
C1704 C 0.80373 0.03013 0.37745 0.0
H1705 H 0.73223 0.89622 0.3451 0.0
H1706 H 0.75362 0.93381 0.35194 0.0
C1707 C 0.81863 0.05065 0.38196 0.0
C1708 C 0.767 0.00199 0.37161 0.0
H1709 H 0.75 0.95316 0.38082 0.0
C1710 C 0.75554 0.99646 0.35899 0.0
C1711 C 0.76453 0.98626 0.37976 0.0
C1712 C 0.77545 0.9914 0.39374 0.0
C1713 C 0.74237 0.97545 0.35405 0.0
C1714 C 0.74077 0.95979 0.36194 0.0
C1715 C 0.75162 0.96531 0.37474 0.0
C1716 C 0.72778 0.93748 0.35713 0.0
C1717 C 0.73062 0.97 0.34033 0.0
C1718 C 0.70629 0.92732 0.35782 0.0
C1719 C 0.69413 0.90594 0.35406 0.0
C1720 C 0.70325 0.89439 0.34948 0.0
C1721 C 0.72477 0.90473 0.34854 0.0
C1722 C 0.73698 0.92613 0.35245 0.0
H1723 H 0.7346 0.98399 0.33508 0.0
H1724 H 0.73404 0.95936 0.3342 0.0
H1725 H 0.71365 0.96163 0.34119 0.0
H1726 H 0.699 0.93587 0.36148 0.0
H1727 H 0.67756 0.89845 0.35483 0.0
H1728 H 0.94993 0.72231 0.39166 0.0
H1729 H 0.98404 0.73614 0.38354 0.0
H1730 H 0.99909 0.79848 0.39759 0.0
H1731 H 0.9654 0.78472 0.40635 0.0
H1732 H 0.9983 0.7626 0.36445 0.0
H1733 H 0.05125 0.79829 0.4114 0.0
H1734 H 0.02373 0.78047 0.41127 0.0
H1735 H 0.03311 0.80736 0.40889 0.0
C1736 C 0.96065 0.73893 0.39332 0.0
C1737 C 0.95488 0.7524 0.39968 0.0
C1738 C 0.9801 0.74681 0.38858 0.0
C1739 C 0.9942 0.76831 0.39009 0.0
C1740 C 0.98863 0.7818 0.39654 0.0
H1741 H 0.11604 0.8472 0.3647 0.0
H1742 H 0.08223 0.83316 0.3736 0.0
C1743 C 0.96921 0.77392 0.40136 0.0
C1744 C 0.0141 0.77666 0.38409 0.0
H1745 H 0.06678 0.8066 0.39115 0.0
C1746 C 0.01331 0.77214 0.37029 0.0
C1747 C 0.03362 0.78917 0.39172 0.0
C1748 C 0.03555 0.79397 0.40666 0.0
C1749 C 0.03145 0.78015 0.36383 0.0
C1750 C 0.05102 0.79269 0.37145 0.0
C1751 C 0.0518 0.7971 0.38529 0.0
C1752 C 0.07092 0.80131 0.36537 0.0
C1753 C 0.02931 0.77552 0.34885 0.0
C1754 C 0.07579 0.78814 0.35777 0.0
C1755 C 0.09473 0.79627 0.35233 0.0
C1756 C 0.10941 0.81756 0.35485 0.0
C1757 C 0.10481 0.83073 0.36262 0.0
C1758 C 0.08559 0.8227 0.36772 0.0
H1759 H 0.01371 0.77172 0.34422 0.0
H1760 H 0.04131 0.78888 0.34424 0.0
H1761 H 0.03111 0.76177 0.34645 0.0
H1762 H 0.06513 0.77151 0.35624 0.0
H1763 H 0.09825 0.78581 0.34659 0.0
H1764 H 0.29344 0.21892 0.36495 0.0
H1765 H 0.27542 0.23666 0.35624 0.0
H1766 H 0.23827 0.22056 0.38929 0.0
H1767 H 0.25606 0.20279 0.39799 0.0
H1768 H 0.22652 0.21497 0.35136 0.0
H1769 H 0.26736 0.28703 0.38695 0.0
H1770 H 0.27895 0.27133 0.38272 0.0
H1771 H 0.2591 0.26271 0.39386 0.0
C1772 C 0.28151 0.21931 0.37037 0.0
C1773 C 0.27603 0.20943 0.38209 0.0
C1774 C 0.27123 0.22934 0.36538 0.0
C1775 C 0.25563 0.22989 0.37218 0.0
C1776 C 0.25034 0.22029 0.38396 0.0
H1777 H 0.1796 0.28596 0.36986 0.0
H1778 H 0.19753 0.26664 0.37474 0.0
C1779 C 0.26041 0.21009 0.38886 0.0
C1780 C 0.24435 0.24002 0.36693 0.0
H1781 H 0.23741 0.28147 0.37367 0.0
C1782 C 0.22894 0.22961 0.3561 0.0
C1783 C 0.24763 0.25902 0.37324 0.0
C1784 C 0.26424 0.27084 0.3848 0.0
C1785 C 0.21601 0.23732 0.35174 0.0
C1786 C 0.21901 0.2562 0.35822 0.0
C1787 C 0.23496 0.26691 0.36878 0.0
C1788 C 0.20557 0.26503 0.3546 0.0
C1789 C 0.19876 0.22472 0.34064 0.0
C1790 C 0.20351 0.26993 0.34156 0.0
C1791 C 0.19264 0.28035 0.33869 0.0
C1792 C 0.18427 0.28651 0.34891 0.0
C1793 C 0.18583 0.28115 0.36183 0.0
C1794 C 0.19618 0.27028 0.36462 0.0
H1795 H 0.19485 0.20818 0.33947 0.0
H1796 H 0.18447 0.22525 0.34245 0.0
H1797 H 0.20387 0.23122 0.33108 0.0
H1798 H 0.21109 0.26659 0.33376 0.0
H1799 H 0.192 0.28482 0.32873 0.0
H1800 H 0.61111 0.51274 0.70829 0.0
H1801 H 0.64321 0.5338 0.6982 0.0
H1802 H 0.65651 0.58736 0.7251 0.0
H1803 H 0.62481 0.56605 0.73558 0.0
H1804 H 0.66042 0.56945 0.68595 0.0
H1805 H 0.70648 0.58131 0.73449 0.0
H1806 H 0.67884 0.56348 0.73168 0.0
H1807 H 0.68875 0.59101 0.73514 0.0
C1808 C 0.62071 0.52911 0.71185 0.0
C1809 C 0.6157 0.5378 0.72275 0.0
C1810 C 0.63904 0.54111 0.70612 0.0
C1811 C 0.6525 0.56199 0.71114 0.0
C1812 C 0.64664 0.57111 0.72134 0.0
H1813 H 0.77967 0.65026 0.70018 0.0
H1814 H 0.74403 0.63264 0.7061 0.0
C1815 C 0.62851 0.55902 0.72725 0.0
C1816 C 0.67328 0.57365 0.70638 0.0
H1817 H 0.72517 0.59816 0.71689 0.0
C1818 C 0.67462 0.5758 0.69269 0.0
C1819 C 0.69175 0.58175 0.7152 0.0
C1820 C 0.69146 0.57913 0.72992 0.0
C1821 C 0.69397 0.58619 0.68762 0.0
C1822 C 0.71243 0.59428 0.69646 0.0
C1823 C 0.71102 0.59206 0.71013 0.0
C1824 C 0.73351 0.60534 0.69196 0.0
C1825 C 0.69437 0.58873 0.6729 0.0
C1826 C 0.7395 0.59592 0.682 0.0
C1827 C 0.7598 0.60625 0.67839 0.0
C1828 C 0.77452 0.62573 0.68507 0.0
C1829 C 0.7686 0.63505 0.69507 0.0
C1830 C 0.74825 0.62505 0.6984 0.0
H1831 H 0.67967 0.58743 0.66844 0.0
H1832 H 0.70758 0.60399 0.67107 0.0
H1833 H 0.69611 0.57621 0.66767 0.0
H1834 H 0.72862 0.58047 0.67718 0.0
H1835 H 0.76414 0.59885 0.67064 0.0
H1836 H 0.46996 0.08841 0.74832 0.0
H1837 H 0.44782 0.10195 0.73998 0.0
H1838 H 0.47316 0.1085 0.70216 0.0
H1839 H 0.49536 0.09507 0.71041 0.0
H1840 H 0.45792 0.13984 0.72992 0.0
H1841 H 0.41039 0.07296 0.69143 0.0
H1842 H 0.42733 0.07225 0.70475 0.0
H1843 H 0.43788 0.08521 0.69033 0.0
C1844 C 0.47097 0.09293 0.73827 0.0
C1845 C 0.4843 0.09047 0.72998 0.0
C1846 C 0.45824 0.10057 0.7335 0.0
C1847 C 0.45854 0.10583 0.72036 0.0
C1848 C 0.47228 0.10403 0.71222 0.0
H1849 H 0.39043 0.14897 0.67091 0.0
H1850 H 0.41429 0.13787 0.67999 0.0
C1851 C 0.48497 0.09636 0.71696 0.0
C1852 C 0.44449 0.11322 0.71514 0.0
H1853 H 0.40547 0.10209 0.69066 0.0
C1854 C 0.44639 0.13157 0.72137 0.0
C1855 C 0.42942 0.10236 0.704 0.0
C1856 C 0.42594 0.082 0.6973 0.0
C1857 C 0.43399 0.13966 0.71656 0.0
C1858 C 0.41901 0.12888 0.70535 0.0
C1859 C 0.41704 0.11044 0.69918 0.0
C1860 C 0.40498 0.13623 0.69997 0.0
C1861 C 0.43743 0.15995 0.72336 0.0
C1862 C 0.39168 0.13884 0.70813 0.0
C1863 C 0.37824 0.1454 0.70303 0.0
C1864 C 0.3775 0.14915 0.68955 0.0
C1865 C 0.39064 0.14628 0.68133 0.0
C1866 C 0.40427 0.13992 0.6865 0.0
H1867 H 0.45314 0.16913 0.72901 0.0
H1868 H 0.43559 0.16961 0.71603 0.0
H1869 H 0.42581 0.1566 0.73059 0.0
H1870 H 0.39146 0.13549 0.71844 0.0
H1871 H 0.36812 0.14712 0.70961 0.0
H1872 H 0.96448 0.40222 0.72348 0.0
H1873 H 0.94617 0.36484 0.71575 0.0
H1874 H 0.89584 0.36995 0.69624 0.0
H1875 H 0.91403 0.40735 0.7042 0.0
H1876 H 0.90153 0.33606 0.72189 0.0
H1877 H 0.91376 0.3373 0.66799 0.0
H1878 H 0.93092 0.35878 0.68036 0.0
H1879 H 0.90547 0.35444 0.67517 0.0
C1880 C 0.94962 0.39533 0.71741 0.0
C1881 C 0.94058 0.40743 0.71436 0.0
C1882 C 0.93921 0.37408 0.71302 0.0
C1883 C 0.91978 0.36476 0.70537 0.0
C1884 C 0.91093 0.37696 0.70204 0.0
H1885 H 0.84035 0.23601 0.67012 0.0
H1886 H 0.85632 0.27374 0.67584 0.0
C1887 C 0.92123 0.3982 0.70659 0.0
C1888 C 0.90821 0.34201 0.70168 0.0
H1889 H 0.89379 0.30444 0.67564 0.0
C1890 C 0.89976 0.32908 0.71178 0.0
C1891 C 0.90574 0.3331 0.68847 0.0
C1892 C 0.91449 0.34652 0.67732 0.0
C1893 C 0.88886 0.30733 0.70903 0.0
C1894 C 0.88705 0.29827 0.69588 0.0
C1895 C 0.89525 0.31132 0.68573 0.0
C1896 C 0.8771 0.27537 0.69253 0.0
C1897 C 0.87903 0.29441 0.72024 0.0
C1898 C 0.88356 0.26373 0.69988 0.0
C1899 C 0.87397 0.24218 0.69691 0.0
C1900 C 0.85833 0.23197 0.68618 0.0
C1901 C 0.85232 0.2436 0.6785 0.0
C1902 C 0.86148 0.26511 0.68174 0.0
H1903 H 0.87552 0.30321 0.72795 0.0
H1904 H 0.86439 0.27982 0.71651 0.0
H1905 H 0.89008 0.29033 0.72519 0.0
H1906 H 0.89615 0.27132 0.70788 0.0
H1907 H 0.87919 0.23356 0.70276 0.0
H1908 H 0.20339 0.9353 0.61069 0.0
H1909 H 0.22501 0.97234 0.61849 0.0
H1910 H 0.20269 0.96056 0.65722 0.0
H1911 H 0.18117 0.92336 0.64951 0.0
H1912 H 0.21261 -0.00058 0.62759 0.0
H1913 H 0.26518 0.99459 0.66699 0.0
H1914 H 0.24838 0.97297 0.65467 0.0
H1915 H 0.23803 0.97888 0.66885 0.0
C1916 C 0.20306 0.94061 0.62087 0.0
C1917 C 0.19057 0.92644 0.62949 0.0
C1918 C 0.21549 0.96176 0.62533 0.0
C1919 C 0.21568 0.96919 0.63849 0.0
C1920 C 0.20316 0.95511 0.64712 0.0
H1921 H 0.28061 0.09318 0.68178 0.0
H1922 H 0.25806 0.05594 0.6748 0.0
C1923 C 0.19083 0.93388 0.64269 0.0
C1924 C 0.22842 0.9918 0.64293 0.0
H1925 H 0.26803 0.0276 0.66568 0.0
C1926 C 0.22477 0.00561 0.6359 0.0
C1927 C 0.24421 -0.00019 0.65381 0.0
C1928 C 0.24936 0.98583 0.66146 0.0
C1929 C 0.23632 0.02719 0.63952 0.0
C1930 C 0.25225 0.03524 0.65031 0.0
C1931 C 0.25581 0.02142 0.65741 0.0
C1932 C 0.26553 0.05793 0.65436 0.0
C1933 C 0.23102 0.04109 0.63189 0.0
C1934 C 0.27731 0.07143 0.64522 0.0
C1935 C 0.28994 0.09276 0.64912 0.0
C1936 C 0.2914 0.10091 0.66234 0.0
C1937 C 0.27982 0.08735 0.67153 0.0
C1938 C 0.26694 0.06607 0.66756 0.0
H1939 H 0.21487 0.03239 0.62682 0.0
H1940 H 0.2327 0.05439 0.63858 0.0
H1941 H 0.24172 0.04738 0.62408 0.0
H1942 H 0.27696 0.06544 0.63509 0.0
H1943 H 0.29893 0.10279 0.64188 0.0
H1944 H 0.053 0.27361 0.62774 0.0
H1945 H 0.01881 0.25975 0.63575 0.0
H1946 H -0.00027 0.19939 0.6153 0.0
H1947 H 0.03428 0.21278 0.60788 0.0
H1948 H 0.9793 0.24145 0.62336 0.0
H1949 H 0.98891 0.18577 0.65313 0.0
H1950 H 0.01016 0.20601 0.64574 0.0
H1951 H 0.99128 0.18242 0.63569 0.0
C1952 C 0.04166 0.25731 0.62508 0.0
C1953 C 0.04661 0.24422 0.61739 0.0
C1954 C 0.02202 0.24947 0.62954 0.0
C1955 C 0.00688 0.22842 0.62638 0.0
C1956 C 0.01136 0.21556 0.61815 0.0
H1957 H 0.87836 0.16038 0.6442 0.0
H1958 H 0.91097 0.17279 0.63403 0.0
C1959 C 0.03108 0.22332 0.61378 0.0
C1960 C 0.98671 0.21987 0.6321 0.0
H1961 H 0.95612 0.18386 0.65221 0.0
C1962 C 0.97423 0.22885 0.62965 0.0
C1963 C 0.9802 0.20354 0.64042 0.0
C1964 C 0.99341 0.19398 0.64402 0.0
C1965 C 0.95535 0.22181 0.63523 0.0
C1966 C 0.94888 0.20544 0.64342 0.0
C1967 C 0.96122 0.19638 0.64585 0.0
C1968 C 0.92941 0.19771 0.64974 0.0
C1969 C 0.94241 0.23188 0.63245 0.0
C1970 C 0.92924 0.20746 0.66203 0.0
C1971 C 0.91073 0.20027 0.66796 0.0
C1972 C 0.89211 0.18334 0.66159 0.0
C1973 C 0.89246 0.17349 0.64933 0.0
C1974 C 0.91101 0.18054 0.6435 0.0
H1975 H 0.94895 0.24358 0.62519 0.0
H1976 H 0.92628 0.21982 0.62847 0.0
H1977 H 0.9415 0.23969 0.64192 0.0
H1978 H 0.94338 0.22074 0.66696 0.0
H1979 H 0.9109 0.2083 0.67733 0.0
H1980 H 0.69998 0.76659 0.64063 0.0
H1981 H 0.71262 0.74573 0.65188 0.0
H1982 H 0.77402 0.7855 0.64056 0.0
H1983 H 0.76161 0.8061 0.6295 0.0
H1984 H 0.73115 0.72478 0.63844 0.0
H1985 H 0.78505 0.78147 0.68029 0.0
H1986 H 0.76467 0.78418 0.67158 0.0
H1987 H 0.78903 0.79263 0.66473 0.0
C1988 C 0.71619 0.77089 0.64076 0.0
C1989 C 0.72983 0.78768 0.63413 0.0
C1990 C 0.72336 0.75907 0.64714 0.0
C1991 C 0.74428 0.76431 0.64716 0.0
C1992 C 0.75792 0.78145 0.64086 0.0
H1993 H 0.82553 0.71556 0.65071 0.0
H1994 H 0.80426 0.73162 0.64541 0.0
C1995 C 0.75078 0.79305 0.63444 0.0
C1996 C 0.75195 0.75113 0.6526 0.0
H1997 H 0.79252 0.75459 0.67253 0.0
C1998 C 0.74423 0.73104 0.64612 0.0
C1999 C 0.76903 0.75944 0.6626 0.0
C2000 C 0.77729 0.78055 0.67029 0.0
C2001 C 0.75411 0.71957 0.64882 0.0
C2002 C 0.77199 0.72853 0.65816 0.0
C2003 C 0.77897 0.74805 0.66519 0.0
C2004 C 0.78388 0.71797 0.66072 0.0
C2005 C 0.74598 0.69832 0.6414 0.0
C2006 C 0.7793 0.70519 0.67104 0.0
C2007 C 0.79145 0.6963 0.67417 0.0
C2008 C 0.80833 0.70002 0.66696 0.0
C2009 C 0.81265 0.71253 0.65642 0.0
C2010 C 0.80054 0.72161 0.65338 0.0
H2011 H 0.73159 0.69335 0.63463 0.0
H2012 H 0.75805 0.69844 0.63542 0.0
H2013 H 0.74265 0.68668 0.64865 0.0
H2014 H 0.76646 0.70229 0.67676 0.0
H2015 H 0.78752 0.68641 0.6822 0.0
H2016 H 0.04715 0.75944 0.62041 0.0
H2017 H 0.01355 0.74232 0.62943 0.0
H2018 H 0.02098 0.80215 0.64243 0.0
H2019 H 0.05493 0.8195 0.63388 0.0
H2020 H 0.0073 0.7501 0.65791 0.0
H2021 H 0.9614 0.76675 0.61992 0.0
H2022 H 0.98466 0.76616 0.61651 0.0
H2023 H 0.98668 0.78802 0.62649 0.0
C2024 C 0.04176 0.76902 0.62527 0.0
C2025 C 0.05386 0.79091 0.62644 0.0
C2026 C 0.02248 0.75918 0.63033 0.0
C2027 C 0.01478 0.77099 0.6365 0.0
C2028 C 0.02658 0.79278 0.63754 0.0
H2029 H 0.90045 0.7337 0.67483 0.0
H2030 H 0.93533 0.75452 0.66755 0.0
C2031 C 0.04595 0.80266 0.63259 0.0
C2032 C 0.99475 0.76053 0.64231 0.0
H2033 H 0.94452 0.75032 0.63832 0.0
C2034 C 0.99358 0.75018 0.65366 0.0
C2035 C 0.97693 0.76068 0.6367 0.0
C2036 C 0.97727 0.77085 0.62418 0.0
C2037 C 0.975 0.74 0.65961 0.0
C2038 C 0.95716 0.74009 0.65399 0.0
C2039 C 0.95835 0.75057 0.64269 0.0
C2040 C 0.9367 0.72787 0.65902 0.0
C2041 C 0.97447 0.72911 0.67183 0.0
C2042 C 0.92612 0.70612 0.65664 0.0
C2043 C 0.90633 0.69433 0.66064 0.0
C2044 C 0.89672 0.70403 0.66719 0.0
C2045 C 0.90754 0.72583 0.66988 0.0
C2046 C 0.92736 0.73771 0.66569 0.0
H2047 H 0.99035 0.73393 0.67647 0.0
H2048 H 0.96591 0.73237 0.67936 0.0
H2049 H 0.96614 0.71204 0.66895 0.0
H2050 H 0.93304 0.69828 0.65145 0.0
H2051 H 0.89847 0.67755 0.65849 0.0
H2052 H 0.15749 0.21369 0.62573 0.0
H2053 H 0.17816 0.19883 0.63455 0.0
H2054 H 0.23331 0.24918 0.6218 0.0
H2055 H 0.2128 0.26386 0.61263 0.0
H2056 H 0.20686 0.18801 0.62054 0.0
H2057 H 0.24558 0.24967 0.66345 0.0
H2058 H 0.22136 0.24395 0.65429 0.0
H2059 H 0.24544 0.25852 0.64726 0.0
C2060 C 0.17395 0.22145 0.6246 0.0
C2061 C 0.18349 0.24013 0.61857 0.0
C2062 C 0.18574 0.21298 0.62971 0.0
C2063 C 0.20727 0.22308 0.62898 0.0
C2064 C 0.21675 0.24134 0.62264 0.0
H2065 H 0.3104 0.20611 0.65127 0.0
H2066 H 0.28614 0.21697 0.6429 0.0
C2067 C 0.20499 0.24975 0.61747 0.0
C2068 C 0.22002 0.21489 0.63511 0.0
H2069 H 0.25838 0.22637 0.66017 0.0
C2070 C 0.21797 0.19624 0.62928 0.0
C2071 C 0.23452 0.22574 0.6465 0.0
C2072 C 0.23685 0.24551 0.65335 0.0
C2073 C 0.23051 0.18846 0.63436 0.0
C2074 C 0.24517 0.19946 0.64564 0.0
C2075 C 0.24702 0.21794 0.65157 0.0
C2076 C 0.25961 0.19267 0.65093 0.0
C2077 C 0.22858 0.16893 0.62743 0.0
C2078 C 0.25271 0.17551 0.65837 0.0
C2079 C 0.26663 0.16933 0.66331 0.0
C2080 C 0.28757 0.1801 0.66074 0.0
C2081 C 0.29434 0.19733 0.65333 0.0
C2082 C 0.28053 0.20362 0.64856 0.0
H2083 H 0.21792 0.16335 0.61801 0.0
H2084 H 0.24412 0.17177 0.62512 0.0
H2085 H 0.22258 0.15643 0.63418 0.0
H2086 H 0.2366 0.16695 0.66035 0.0
H2087 H 0.26096 0.156 0.66897 0.0
H2088 H 0.77025 0.93853 0.64159 0.0
H2089 H 0.78358 0.975 0.64921 0.0
H2090 H 0.72106 0.96475 0.64623 0.0
H2091 H 0.70738 0.92775 0.63894 0.0
H2092 H 0.77763 0.00221 0.63389 0.0
H2093 H 0.74734 0.99821 0.68329 0.0
H2094 H 0.74851 0.97671 0.67488 0.0
H2095 H 0.72843 0.98218 0.66945 0.0
C2096 C 0.75922 0.9438 0.64293 0.0
C2097 C 0.73771 0.93016 0.63979 0.0
C2098 C 0.76691 0.96473 0.64716 0.0
C2099 C 0.75331 0.9725 0.64835 0.0
C2100 C 0.73178 0.95894 0.64554 0.0
H2101 H 0.77897 0.09948 0.66163 0.0
H2102 H 0.76288 0.06191 0.65606 0.0
C2103 C 0.72402 0.93788 0.64129 0.0
C2104 C 0.762 0.99509 0.65172 0.0
H2105 H 0.76533 0.03149 0.67558 0.0
C2106 C 0.77497 0.00862 0.64301 0.0
C2107 C 0.75841 0.00332 0.6636 0.0
C2108 C 0.74504 0.98941 0.67343 0.0
C2109 C 0.78454 0.03026 0.64592 0.0
C2110 C 0.78115 0.03845 0.65786 0.0
C2111 C 0.76794 0.02499 0.66648 0.0
C2112 C 0.791 0.06106 0.66146 0.0
C2113 C 0.79811 0.0443 0.63622 0.0
C2114 C 0.81211 0.07285 0.66642 0.0
C2115 C 0.82137 0.09435 0.66973 0.0
C2116 C 0.80963 0.10427 0.66797 0.0
C2117 C 0.78846 0.0923 0.66303 0.0
C2118 C 0.77921 0.07085 0.65987 0.0
H2119 H 0.79722 0.03546 0.62667 0.0
H2120 H 0.79347 0.05598 0.63403 0.0
H2121 H 0.81453 0.0529 0.64078 0.0
H2122 H 0.82137 0.0654 0.66771 0.0
H2123 H 0.83771 0.1032 0.67347 0.0
H2124 H 0.46152 0.39173 0.73813 0.0
H2125 H 0.43609 0.35595 0.72912 0.0
H2126 H 0.46041 0.36767 0.69096 0.0
H2127 H 0.48612 0.40345 0.69998 0.0
H2128 H 0.40525 0.33617 0.70716 0.0
H2129 H 0.47127 0.32181 0.70284 0.0
H2130 H 0.47433 0.34514 0.71171 0.0
H2131 H 0.47265 0.34241 0.69377 0.0
C2132 C 0.46106 0.38686 0.72771 0.0
C2133 C 0.47592 0.40024 0.71978 0.0
C2134 C 0.44659 0.36639 0.7226 0.0
C2135 C 0.44676 0.35908 0.70949 0.0
C2136 C 0.4604 0.37293 0.70121 0.0
H2137 H 0.38805 0.2341 0.66796 0.0
H2138 H 0.40859 0.27182 0.67425 0.0
C2139 C 0.47499 0.39334 0.70634 0.0
C2140 C 0.43402 0.33659 0.70492 0.0
H2141 H 0.43778 0.29394 0.69508 0.0
C2142 C 0.4123 0.3269 0.70447 0.0
C2143 C 0.44335 0.32457 0.70157 0.0
C2144 C 0.46668 0.33392 0.7026 0.0
C2145 C 0.39959 0.30549 0.7005 0.0
C2146 C 0.40895 0.29348 0.69713 0.0
C2147 C 0.43066 0.30322 0.69757 0.0
C2148 C 0.39659 0.2707 0.69337 0.0
C2149 C 0.37628 0.29605 0.6998 0.0
C2150 C 0.3835 0.25757 0.70217 0.0
C2151 C 0.37164 0.23615 0.69854 0.0
C2152 C 0.37304 0.22742 0.68617 0.0
C2153 C 0.38676 0.24045 0.67757 0.0
C2154 C 0.39839 0.26196 0.68113 0.0
H2155 H 0.37159 0.30799 0.69881 0.0
H2156 H 0.36825 0.28374 0.69126 0.0
H2157 H 0.37087 0.28893 0.70915 0.0
H2158 H 0.38243 0.26388 0.71186 0.0
H2159 H 0.36139 0.2264 0.70544 0.0
H2160 H 0.6341 0.07977 0.74758 0.0
H2161 H 0.66828 0.09459 0.73916 0.0
H2162 H 0.64472 0.11182 0.70497 0.0
H2163 H 0.61079 0.09745 0.71345 0.0
H2164 H 0.67973 0.08461 0.7162 0.0
H2165 H 0.69647 0.16612 0.71818 0.0
H2166 H 0.6756 0.14656 0.72621 0.0
H2167 H 0.67211 0.14831 0.7086 0.0
C2168 C 0.63628 0.08678 0.73829 0.0
C2169 C 0.61988 0.08769 0.73123 0.0
C2170 C 0.65578 0.09526 0.73351 0.0
C2171 C 0.65916 0.10471 0.72158 0.0
C2172 C 0.64266 0.1052 0.7144 0.0
H2173 H 0.76152 0.15415 0.67194 0.0
H2174 H 0.72742 0.14032 0.68052 0.0
C2175 C 0.62327 0.09694 0.71923 0.0
C2176 C 0.67976 0.11363 0.71642 0.0
H2177 H 0.71816 0.15789 0.70574 0.0
C2178 C 0.68819 0.10066 0.71399 0.0
C2179 C 0.69085 0.13463 0.71362 0.0
C2180 C 0.68341 0.14976 0.71692 0.0
C2181 C 0.70718 0.10802 0.70854 0.0
C2182 C 0.71793 0.12883 0.70544 0.0
C2183 C 0.70963 0.14184 0.70794 0.0
C2184 C 0.73842 0.13772 0.70028 0.0
C2185 C 0.71559 0.0935 0.70602 0.0
C2186 C 0.7558 0.14129 0.7087 0.0
C2187 C 0.77516 0.14926 0.70391 0.0
C2188 C 0.77755 0.15385 0.69058 0.0
C2189 C 0.7602 0.15087 0.68226 0.0
C2190 C 0.74074 0.14287 0.6871 0.0
H2191 H 0.70371 0.077 0.70669 0.0
H2192 H 0.72125 0.09485 0.69601 0.0
H2193 H 0.72898 0.09787 0.71358 0.0
H2194 H 0.75434 0.13775 0.71896 0.0
H2195 H 0.78822 0.15155 0.71065 0.0
H2196 H 0.96036 0.55214 0.698 0.0
H2197 H 0.94219 0.56983 0.68945 0.0
H2198 H 0.90617 0.55455 0.72305 0.0
H2199 H 0.92414 0.5369 0.73161 0.0
H2200 H 0.89381 0.54828 0.6849 0.0
H2201 H 0.93421 0.62043 0.7204 0.0
H2202 H 0.94587 0.60477 0.71629 0.0
H2203 H 0.92609 0.59628 0.72748 0.0
C2204 C 0.94868 0.55274 0.70358 0.0
C2205 C 0.94353 0.5431 0.71541 0.0
C2206 C 0.93831 0.56273 0.69868 0.0
C2207 C 0.92297 0.56347 0.70568 0.0
C2208 C 0.91805 0.55416 0.71758 0.0
H2209 H 0.84579 0.6182 0.70387 0.0
H2210 H 0.86381 0.59892 0.70864 0.0
C2211 C 0.92822 0.54401 0.7224 0.0
C2212 C 0.91146 0.57338 0.70048 0.0
H2213 H 0.9037 0.61423 0.70744 0.0
C2214 C 0.89602 0.5628 0.68969 0.0
C2215 C 0.91447 0.59222 0.70685 0.0
C2216 C 0.93115 0.60424 0.71835 0.0
C2217 C 0.88275 0.57018 0.68545 0.0
C2218 C 0.88545 0.58887 0.69202 0.0
C2219 C 0.90146 0.59977 0.70251 0.0
C2220 C 0.87177 0.59743 0.68847 0.0
C2221 C 0.86549 0.55742 0.67438 0.0
C2222 C 0.86964 0.60234 0.67546 0.0
C2223 C 0.85872 0.6127 0.67265 0.0
C2224 C 0.85041 0.61883 0.68292 0.0
C2225 C 0.85199 0.61343 0.69582 0.0
C2226 C 0.86237 0.60257 0.69854 0.0
H2227 H 0.86181 0.54094 0.67321 0.0
H2228 H 0.8511 0.55773 0.67622 0.0
H2229 H 0.87049 0.56394 0.6648 0.0
H2230 H 0.87724 0.59909 0.66762 0.0
H2231 H 0.85804 0.61719 0.6627 0.0
H2232 H 0.46097 0.92452 0.20026 0.0
H2233 H 0.46255 0.93004 0.1766 0.0
H2234 H 0.46182 0.98719 0.18521 0.0
H2235 H 0.46136 0.98243 0.20889 0.0
H2236 H 0.43676 0.93466 0.15784 0.0
H2237 H 0.51407 0.00649 0.16678 0.0
H2238 H 0.50309 0.98923 0.17947 0.0
H2239 H 0.49504 0.00785 0.17618 0.0
C2240 C 0.46135 0.93837 0.19714 0.0
C2241 C 0.46126 0.95313 0.20653 0.0
C2242 C 0.46204 0.94139 0.18359 0.0
C2243 C 0.46268 0.95921 0.17919 0.0
C2244 C 0.46177 0.97354 0.18843 0.0
H2245 H 0.47161 0.01028 0.10371 0.0
H2246 H 0.46168 -0.00157 0.12557 0.0
C2247 C 0.46124 0.97064 0.20197 0.0
C2248 C 0.46497 0.96323 0.16501 0.0
H2249 H 0.49626 -0.00116 0.14501 0.0
C2250 C 0.4498 0.94863 0.15501 0.0
C2251 C 0.4821 0.9814 0.16134 0.0
C2252 C 0.49961 0.99704 0.17149 0.0
C2253 C 0.45116 0.952 0.14146 0.0
C2254 C 0.46803 0.97038 0.1379 0.0
C2255 C 0.48322 0.98486 0.14785 0.0
C2256 C 0.47071 0.97494 0.12388 0.0
C2257 C 0.4345 0.93614 0.13101 0.0
C2258 C 0.47875 0.96538 0.11566 0.0
C2259 C 0.48473 0.9723 0.10324 0.0
C2260 C 0.48282 0.98896 0.09887 0.0
C2261 C 0.47369 0.99771 0.10688 0.0
C2262 C 0.46782 0.99085 0.11932 0.0
H2263 H 0.42142 0.92355 0.1355 0.0
H2264 H 0.42832 0.94387 0.12457 0.0
H2265 H 0.44133 0.92905 0.12452 0.0
H2266 H 0.48133 0.95325 0.11913 0.0
H2267 H 0.49184 0.96531 0.09738 0.0
H2268 H 0.03757 0.47841 0.21374 0.0
H2269 H 0.0312 0.47316 0.18932 0.0
H2270 H 0.00595 0.51434 0.19019 0.0
H2271 H 0.0123 0.51971 0.2146 0.0
H2272 H 0.99523 0.45989 0.17065 0.0
H2273 H 0.05575 0.54212 0.16811 0.0
H2274 H 0.05279 0.52948 0.18318 0.0
H2275 H 0.03563 0.53899 0.17825 0.0
C2276 C 0.03023 0.48598 0.20874 0.0
C2277 C 0.02563 0.49966 0.21605 0.0
C2278 C 0.0267 0.48304 0.1948 0.0
C2279 C 0.01855 0.49373 0.18798 0.0
C2280 C 0.0127 0.50633 0.19529 0.0
H2281 H 0.99794 0.51568 0.10761 0.0
H2282 H 0.00279 0.51515 0.13174 0.0
C2283 C 0.0163 0.50935 0.2092 0.0
C2284 C 0.01727 0.49274 0.17324 0.0
H2285 H 0.03543 0.52307 0.14782 0.0
C2286 C 0.00405 0.47363 0.1656 0.0
C2287 C 0.02901 0.51069 0.16676 0.0
C2288 C 0.04425 0.53146 0.17447 0.0
C2289 C 0.00149 0.47217 0.15158 0.0
C2290 C 0.01288 0.49028 0.14507 0.0
C2291 C 0.02658 0.50924 0.15278 0.0
C2292 C 0.01014 0.49035 0.13036 0.0
C2293 C 0.98604 0.45142 0.14396 0.0
C2294 C 0.01297 0.47682 0.12152 0.0
C2295 C 0.00985 0.47689 0.10769 0.0
C2296 C 0.00444 0.4909 0.10251 0.0
C2297 C 0.00229 0.50486 0.11136 0.0
C2298 C 0.005 0.50451 0.12514 0.0
H2299 H 0.97472 0.44082 0.15043 0.0
H2300 H 0.97729 0.45336 0.13537 0.0
H2301 H 0.99451 0.44378 0.14007 0.0
H2302 H 0.01759 0.46623 0.12528 0.0
H2303 H 0.01176 0.4661 0.10104 0.0
H2304 H 0.46321 0.52144 0.21187 0.0
H2305 H 0.46435 0.52146 0.18762 0.0
H2306 H 0.48687 0.47804 0.18778 0.0
H2307 H 0.48554 0.47773 0.21193 0.0
H2308 H 0.50081 0.53203 0.17349 0.0
H2309 H 0.43604 0.45138 0.15845 0.0
H2310 H 0.43913 0.46538 0.1745 0.0
H2311 H 0.45485 0.45372 0.17155 0.0
C2312 C 0.46817 0.51172 0.2067 0.0
C2313 C 0.47424 0.49954 0.2138 0.0
C2314 C 0.46892 0.51184 0.19288 0.0
C2315 C 0.47546 0.49957 0.18592 0.0
C2316 C 0.48151 0.4874 0.19296 0.0
H2317 H 0.50683 0.4787 0.10908 0.0
H2318 H 0.49897 0.4794 0.13214 0.0
C2319 C 0.48091 0.48738 0.20676 0.0
C2320 C 0.47663 0.49986 0.17133 0.0
H2321 H 0.45815 0.46845 0.14181 0.0
C2322 C 0.4913 0.51825 0.16651 0.0
C2323 C 0.46415 0.48183 0.1623 0.0
C2324 C 0.44751 0.46198 0.1669 0.0
C2325 C 0.49445 0.51882 0.15292 0.0
C2326 C 0.48243 0.50059 0.14396 0.0
C2327 C 0.46735 0.48238 0.14873 0.0
C2328 C 0.48627 0.49976 0.12978 0.0
C2329 C 0.51119 0.5386 0.14831 0.0
C2330 C 0.48146 0.51077 0.12075 0.0
C2331 C 0.4857 0.51022 0.10745 0.0
C2332 C 0.49487 0.49864 0.10295 0.0
C2333 C 0.49944 0.48748 0.11207 0.0
C2334 C 0.49509 0.48796 0.1253 0.0
H2335 H 0.52098 0.55047 0.15681 0.0
H2336 H 0.52137 0.53524 0.14229 0.0
H2337 H 0.50387 0.54529 0.14185 0.0
H2338 H 0.47441 0.51978 0.12401 0.0
H2339 H 0.48169 0.51875 0.10069 0.0
H2340 H 0.01586 0.5112 0.80352 0.0
H2341 H 0.0159 0.51292 0.82778 0.0
H2342 H 0.95097 0.495 0.82353 0.0
H2343 H 0.95061 0.4926 0.79918 0.0
H2344 H 0.00656 0.53774 0.8446 0.0
H2345 H 0.95252 0.45355 0.84784 0.0
H2346 H 0.96447 0.46319 0.83288 0.0
H2347 H 0.94283 0.46598 0.83712 0.0
C2348 C 0.0015 0.50734 0.80772 0.0
C2349 C 0.98319 0.50158 0.7994 0.0
C2350 C 0.00159 0.50849 0.82159 0.0
C2351 C 0.98338 0.50382 0.82745 0.0
C2352 C 0.96511 0.49832 0.81921 0.0
H2353 H 0.96566 0.49938 0.91282 0.0
H2354 H 0.95984 0.49943 0.88862 0.0
C2355 C 0.965 0.49717 0.8053 0.0
C2356 C 0.98379 0.50504 0.84221 0.0
H2357 H 0.96503 0.47566 0.86807 0.0
C2358 C 0.99741 0.52418 0.84973 0.0
C2359 C 0.97169 0.48738 0.84888 0.0
C2360 C 0.95715 0.4663 0.84131 0.0
C2361 C -0.00045 0.52609 0.86375 0.0
C2362 C 0.98803 0.50828 0.87042 0.0
C2363 C 0.97387 0.48928 0.86292 0.0
C2364 C 0.99152 0.50877 0.88512 0.0
C2365 C 0.01415 0.54718 0.87127 0.0
C2366 C 0.01116 0.51376 0.89115 0.0
C2367 C 0.01451 0.51363 0.90491 0.0
C2368 C 0.99825 0.50842 0.913 0.0
C2369 C 0.97851 0.50336 0.90691 0.0
C2370 C 0.97517 0.50346 0.89309 0.0
H2371 H 0.01673 0.55996 0.8651 0.0
H2372 H 0.00808 0.54942 0.88063 0.0
H2373 H 0.02945 0.54842 0.87395 0.0
H2374 H 0.02387 0.51737 0.88515 0.0
H2375 H 0.02976 0.51707 0.90914 0.0
H2376 H 0.56286 0.51748 0.81196 0.0
H2377 H 0.55865 0.52196 0.83559 0.0
H2378 H 0.49262 0.47938 0.82722 0.0
H2379 H 0.49686 0.47446 0.80364 0.0
H2380 H 0.53652 0.53482 0.8497 0.0
H2381 H 0.50881 0.45157 0.85488 0.0
H2382 H 0.51975 0.4635 0.84017 0.0
H2383 H 0.49302 0.45516 0.84234 0.0
C2384 C 0.54741 0.50936 0.81514 0.0
C2385 C 0.5302 0.49544 0.80604 0.0
C2386 C 0.54503 0.51185 0.82864 0.0
C2387 C 0.52542 0.50054 0.83322 0.0
C2388 C 0.508 0.48774 0.82397 0.0
H2389 H 0.47469 0.49181 0.90809 0.0
H2390 H 0.48169 0.49075 0.88471 0.0
C2391 C 0.5104 0.48504 0.81051 0.0
C2392 C 0.5233 0.50152 0.84772 0.0
H2393 H 0.50582 0.47122 0.8733 0.0
C2394 C 0.52995 0.52094 0.85489 0.0
C2395 C 0.51498 0.4834 0.85451 0.0
C2396 C 0.50893 0.46227 0.84762 0.0
C2397 C 0.52783 0.52263 0.86857 0.0
C2398 C 0.51889 0.50445 0.8752 0.0
C2399 C 0.51258 0.48509 0.86812 0.0
C2400 C 0.515 0.50505 0.88936 0.0
C2401 C 0.53471 0.54374 0.87582 0.0
C2402 C 0.53144 0.51314 0.89967 0.0
C2403 C 0.52743 0.51347 0.91303 0.0
C2404 C 0.50697 0.50599 0.91618 0.0
C2405 C 0.49059 0.49782 0.90584 0.0
C2406 C 0.49456 0.49719 0.89254 0.0
H2407 H 0.5387 0.55588 0.86887 0.0
H2408 H 0.52229 0.54309 0.88166 0.0
H2409 H 0.54864 0.54841 0.88296 0.0
H2410 H 0.54731 0.51911 0.89736 0.0
H2411 H 0.54026 0.51981 0.92089 0.0
H2412 H 0.50881 0.04793 0.81215 0.0
H2413 H 0.50816 0.04202 0.83572 0.0
H2414 H 0.56316 0.03663 0.83463 0.0
H2415 H 0.56395 0.04259 0.811 0.0
H2416 H 0.50416 0.00607 0.8453 0.0
H2417 H 0.57691 0.07622 0.86868 0.0
H2418 H 0.56527 0.07487 0.85211 0.0
H2419 H 0.57978 0.06178 0.85483 0.0
C2420 C 0.52084 0.04561 0.81695 0.0
C2421 C 0.53638 0.04564 0.80973 0.0
C2422 C 0.5205 0.04232 0.83041 0.0
C2423 C 0.5357 0.03905 0.83693 0.0
C2424 C 0.55152 0.03952 0.82985 0.0
H2425 H 0.53544 0.99811 0.91684 0.0
H2426 H 0.54432 0.007 0.89419 0.0
C2427 C 0.55193 0.0429 0.81636 0.0
C2428 C 0.53395 0.03371 0.85086 0.0
H2429 H 0.55756 0.05071 0.88285 0.0
C2430 C 0.51587 0.01581 0.8535 0.0
C2431 C 0.54937 0.04635 0.8615 0.0
C2432 C 0.56888 0.06598 0.85922 0.0
C2433 C 0.51258 0.01041 0.86654 0.0
C2434 C 0.52766 0.02334 0.8772 0.0
C2435 C 0.54606 0.0409 0.87458 0.0
C2436 C 0.52374 0.01945 0.89118 0.0
C2437 C 0.49285 0.99106 0.8689 0.0
C2438 C 0.50952 0.02386 0.89694 0.0
C2439 C 0.50447 0.01887 0.9098 0.0
C2440 C 0.51348 0.00928 0.9171 0.0
C2441 C 0.52813 0.00533 0.91139 0.0
C2442 C 0.5333 0.01048 0.89853 0.0
H2443 H 0.48457 0.98082 0.85948 0.0
H2444 H 0.49634 0.98207 0.87599 0.0
H2445 H 0.48228 0.99561 0.87342 0.0
H2446 H 0.50201 0.03077 0.89136 0.0
H2447 H 0.49296 0.02188 0.91385 0.0
H2448 H 0.13028 0.31813 0.54297 0.0
H2449 H 0.13037 0.32316 0.51933 0.0
H2450 H 0.12999 0.26554 0.51011 0.0
H2451 H 0.1288 0.25982 0.53372 0.0
H2452 H 0.16005 0.32822 0.50402 0.0
H2453 H 0.08565 0.25942 0.48204 0.0
H2454 H 0.09167 0.26733 0.49978 0.0
H2455 H 0.10206 0.2527 0.49179 0.0
C2456 C 0.1297 0.30624 0.53591 0.0
C2457 C 0.12943 0.2885 0.54027 0.0
C2458 C 0.1299 0.30923 0.52238 0.0
C2459 C 0.12988 0.29459 0.51291 0.0
C2460 C 0.12953 0.27682 0.51719 0.0
H2461 H 0.1597 0.30094 0.43133 0.0
H2462 H 0.15054 0.29051 0.45359 0.0
C2463 C 0.12919 0.27373 0.53073 0.0
C2464 C 0.13182 0.29883 0.49873 0.0
H2465 H 0.1095 0.27888 0.46669 0.0
C2466 C 0.14888 0.3175 0.49589 0.0
C2467 C 0.11724 0.28481 0.48811 0.0
C2468 C 0.09801 0.26504 0.49057 0.0
C2469 C 0.15196 0.32239 0.48273 0.0
C2470 C 0.13759 0.30828 0.47212 0.0
C2471 C 0.12049 0.28962 0.47489 0.0
C2472 C 0.1405 0.31274 0.4581 0.0
C2473 C 0.17078 0.34248 0.48019 0.0
C2474 C 0.13737 0.32833 0.4532 0.0
C2475 C 0.14248 0.33428 0.44048 0.0
C2476 C 0.15087 0.32475 0.43244 0.0
C2477 C 0.15312 0.30849 0.4372 0.0
C2478 C 0.14796 0.30253 0.44992 0.0
H2479 H 0.1819 0.35034 0.48933 0.0
H2480 H 0.179 0.33951 0.47229 0.0
H2481 H 0.16569 0.35324 0.47661 0.0
H2482 H 0.13148 0.33627 0.45937 0.0
H2483 H 0.14018 0.34657 0.43702 0.0
H2484 H 0.72622 0.85967 0.54498 0.0
H2485 H 0.71982 0.85284 0.52069 0.0
H2486 H 0.65568 0.80753 0.52362 0.0
H2487 H 0.66177 0.8148 0.54803 0.0
H2488 H 0.70537 0.81537 0.50427 0.0
H2489 H 0.65196 0.84716 0.49839 0.0
H2490 H 0.66824 0.85192 0.51373 0.0
H2491 H 0.64473 0.82731 0.50954 0.0
C2492 C 0.71064 0.84849 0.54047 0.0
C2493 C 0.6944 0.83804 0.54843 0.0
C2494 C 0.70709 0.84444 0.5266 0.0
C2495 C 0.68725 0.82988 0.52038 0.0
C2496 C 0.67105 0.81908 0.52825 0.0
H2497 H 0.63761 0.79896 0.43691 0.0
H2498 H 0.64296 0.79819 0.46092 0.0
C2499 C 0.67458 0.82314 0.54218 0.0
C2500 C 0.68358 0.82634 0.50563 0.0
H2501 H 0.65714 0.83201 0.47887 0.0
C2502 C 0.69478 0.81892 0.49868 0.0
C2503 C 0.66984 0.8311 0.49842 0.0
C2504 C 0.65812 0.83999 0.50535 0.0
C2505 C 0.69245 0.81596 0.48466 0.0
C2506 C 0.67879 0.82086 0.47744 0.0
C2507 C 0.6675 0.82813 0.48442 0.0
C2508 C 0.67623 0.81918 0.46264 0.0
C2509 C 0.70446 0.80742 0.47775 0.0
C2510 C 0.69322 0.83095 0.45557 0.0
C2511 C 0.69025 0.83122 0.44177 0.0
C2512 C 0.67017 0.81991 0.4348 0.0
C2513 C 0.65331 0.80761 0.44188 0.0
C2514 C 0.65631 0.80728 0.45564 0.0
H2515 H 0.70901 0.79867 0.48444 0.0
H2516 H 0.69526 0.79698 0.46858 0.0
H2517 H 0.71893 0.82054 0.47486 0.0
H2518 H 0.70868 0.84056 0.46079 0.0
H2519 H 0.70362 0.84069 0.43662 0.0
H2520 H 0.16771 0.82594 0.54725 0.0
H2521 H 0.16898 0.82532 0.52312 0.0
H2522 H 0.11727 0.83628 0.5189 0.0
H2523 H 0.11639 0.83773 0.54315 0.0
H2524 H 0.13822 0.79844 0.50339 0.0
H2525 H 0.15921 0.88027 0.49767 0.0
H2526 H 0.16133 0.87157 0.51371 0.0
H2527 H 0.13637 0.8657 0.50593 0.0
C2528 C 0.1568 0.82856 0.54124 0.0
C2529 C 0.14202 0.83201 0.54717 0.0
C2530 C 0.15746 0.82805 0.52742 0.0
C2531 C 0.14341 0.83102 0.51922 0.0
C2532 C 0.12852 0.83433 0.52506 0.0
H2533 H 0.13336 0.83123 0.4319 0.0
H2534 H 0.12633 0.83137 0.45531 0.0
C2535 C 0.12787 0.83488 0.53891 0.0
C2536 C 0.14406 0.82993 0.50453 0.0
H2537 H 0.15312 0.85841 0.47789 0.0
C2538 C 0.14143 0.81154 0.49781 0.0
C2539 C 0.14806 0.84698 0.49725 0.0
C2540 C 0.15158 0.86733 0.50399 0.0
C2541 C 0.14295 0.8098 0.48406 0.0
C2542 C 0.14759 0.82704 0.47684 0.0
C2543 C 0.1496 0.84523 0.48345 0.0
C2544 C 0.15162 0.82686 0.46263 0.0
C2545 C 0.13958 0.78949 0.47737 0.0
C2546 C 0.16832 0.82457 0.45902 0.0
C2547 C 0.17246 0.8246 0.44571 0.0
C2548 C 0.16002 0.827 0.43567 0.0
C2549 C 0.14334 0.82946 0.43935 0.0
C2550 C 0.13925 0.82947 0.45272 0.0
H2551 H 0.13037 0.77629 0.48319 0.0
H2552 H 0.13145 0.78603 0.46713 0.0
H2553 H 0.15489 0.79058 0.47661 0.0
H2554 H 0.17839 0.82303 0.46655 0.0
H2555 H 0.18575 0.82322 0.44335 0.0
H2556 H 0.61499 0.82245 0.13203 0.0
H2557 H 0.61479 0.82416 0.15636 0.0
H2558 H 0.681 0.84799 0.16116 0.0
H2559 H 0.68148 0.84706 0.13698 0.0
H2560 H 0.62655 0.80423 0.1744 0.0
H2561 H 0.67529 0.8897 0.18592 0.0
H2562 H 0.66364 0.8774 0.16924 0.0
H2563 H 0.68741 0.87887 0.1759 0.0
C2564 C 0.62956 0.82836 0.13828 0.0
C2565 C 0.64827 0.83469 0.13254 0.0
C2566 C 0.62939 0.82919 0.15217 0.0
C2567 C 0.64793 0.83652 0.16058 0.0
C2568 C 0.66656 0.84268 0.15488 0.0
H2569 H 0.69451 0.84847 0.24148 0.0
H2570 H 0.6872 0.84795 0.21754 0.0
C2571 C 0.66676 0.84188 0.14103 0.0
C2572 C 0.64786 0.83718 0.17532 0.0
H2573 H 0.6714 0.86944 0.20423 0.0
C2574 C 0.63611 0.81851 0.18095 0.0
C2575 C 0.66021 0.85587 0.18384 0.0
C2576 C 0.67218 0.87663 0.17842 0.0
C2577 C 0.63732 0.81783 0.19487 0.0
C2578 C 0.65043 0.83639 0.20336 0.0
C2579 C 0.66148 0.85519 0.19772 0.0
C2580 C 0.6543 0.83651 0.21801 0.0
C2581 C 0.62532 0.79712 0.20032 0.0
C2582 C 0.63823 0.83035 0.22632 0.0
C2583 C 0.64239 0.83068 0.24012 0.0
C2584 C 0.66275 0.83738 0.24587 0.0
C2585 C 0.67873 0.84357 0.23747 0.0
C2586 C 0.67456 0.84319 0.22374 0.0
H2587 H 0.61942 0.78385 0.1924 0.0
H2588 H 0.63516 0.79528 0.20824 0.0
H2589 H 0.61175 0.79634 0.2048 0.0
H2590 H 0.62253 0.82551 0.22216 0.0
H2591 H 0.62976 0.82602 0.24632 0.0
H2592 H 0.21674 0.81141 0.14704 0.0
H2593 H 0.21301 0.81765 0.17054 0.0
H2594 H 0.17584 0.84505 0.15904 0.0
H2595 H 0.17968 0.8389 0.13539 0.0
H2596 H 0.22317 0.85627 0.18626 0.0
H2597 H 0.13923 0.79599 0.18123 0.0
H2598 H 0.15623 0.7974 0.16884 0.0
H2599 H 0.14676 0.8154 0.1697 0.0
C2600 C 0.20782 0.81881 0.14956 0.0
C2601 C 0.1983 0.8245 0.13949 0.0
C2602 C 0.20579 0.82244 0.16294 0.0
C2603 C 0.19399 0.83159 0.16647 0.0
C2604 C 0.18486 0.83779 0.15646 0.0
H2605 H 0.15409 0.85138 0.24176 0.0
H2606 H 0.16154 0.85057 0.21862 0.0
C2607 C 0.1871 0.83437 0.14302 0.0
C2608 C 0.19079 0.83392 0.18063 0.0
H2609 H 0.15392 0.8152 0.20236 0.0
C2610 C 0.20804 0.84737 0.18981 0.0
C2611 C 0.17107 0.82209 0.18518 0.0
C2612 C 0.15224 0.80676 0.17578 0.0
C2613 C 0.206 0.84954 0.20347 0.0
C2614 C 0.18625 0.8377 0.20802 0.0
C2615 C 0.16903 0.82427 0.19882 0.0
C2616 C 0.18292 0.83921 0.22227 0.0
C2617 C 0.22489 0.8647 0.21287 0.0
C2618 C 0.19247 0.83303 0.23201 0.0
C2619 C 0.18833 0.83359 0.24533 0.0
C2620 C 0.17454 0.8403 0.2491 0.0
C2621 C 0.16508 0.8465 0.23927 0.0
C2622 C 0.1692 0.84591 0.22601 0.0
H2623 H 0.23758 0.87598 0.20744 0.0
H2624 H 0.22086 0.87347 0.22026 0.0
H2625 H 0.23086 0.85597 0.21842 0.0
H2626 H 0.20284 0.82746 0.22927 0.0
H2627 H 0.19594 0.8288 0.25266 0.0
H2628 H 0.18404 0.3424 0.13985 0.0
H2629 H 0.18404 0.33761 0.16361 0.0
H2630 H 0.2207 0.40412 0.17366 0.0
H2631 H 0.22045 0.40909 0.14986 0.0
H2632 H 0.21922 0.35162 0.18354 0.0
H2633 H 0.16905 0.38546 0.19464 0.0
H2634 H 0.17086 0.3771 0.17784 0.0
H2635 H 0.19157 0.40115 0.18633 0.0
C2636 C 0.19195 0.35603 0.14711 0.0
C2637 C 0.20208 0.37614 0.14299 0.0
C2638 C 0.19207 0.35325 0.16067 0.0
C2639 C 0.2022 0.37052 0.17036 0.0
C2640 C 0.21261 0.39062 0.16631 0.0
H2641 H 0.20104 0.37149 0.25724 0.0
H2642 H 0.21036 0.38251 0.2351 0.0
C2643 C 0.21257 0.39341 0.15273 0.0
C2644 C 0.20153 0.36733 0.18469 0.0
H2645 H 0.18075 0.37375 0.21257 0.0
C2646 C 0.21094 0.35657 0.18993 0.0
C2647 C 0.19076 0.37388 0.19297 0.0
C2648 C 0.17983 0.38492 0.1877 0.0
C2649 C 0.20961 0.35191 0.20323 0.0
C2650 C 0.19831 0.35792 0.21139 0.0
C2651 C 0.18944 0.36923 0.20627 0.0
C2652 C 0.19412 0.35128 0.22493 0.0
C2653 C 0.22022 0.34055 0.20845 0.0
C2654 C 0.18186 0.33009 0.2265 0.0
C2655 C 0.17625 0.32376 0.23906 0.0
C2656 C 0.18282 0.33849 0.25035 0.0
C2657 C 0.19546 0.35974 0.24876 0.0
C2658 C 0.20095 0.36607 0.23614 0.0
H2659 H 0.23264 0.34203 0.20228 0.0
H2660 H 0.22714 0.34656 0.21896 0.0
H2661 H 0.20858 0.32376 0.20816 0.0
H2662 H 0.17605 0.31847 0.21792 0.0
H2663 H 0.16618 0.30733 0.23982 0.0
H2664 H 0.76645 0.62116 0.8721 0.0
H2665 H 0.76674 0.62676 0.84844 0.0
H2666 H 0.82253 0.62286 0.84719 0.0
H2667 H 0.82262 0.61766 0.87085 0.0
H2668 H 0.79922 0.6598 0.83695 0.0
H2669 H 0.78392 0.58286 0.81468 0.0
H2670 H 0.77859 0.58712 0.83145 0.0
H2671 H 0.80467 0.59458 0.82807 0.0
C2672 C 0.7788 0.62149 0.8668 0.0
C2673 C 0.79453 0.61896 0.8734 0.0
C2674 C 0.77886 0.62458 0.85326 0.0
C2675 C 0.7945 0.62496 0.84603 0.0
C2676 C 0.81006 0.62217 0.85252 0.0
H2677 H 0.84241 0.65124 0.77102 0.0
H2678 H 0.83239 0.64072 0.79304 0.0
C2679 C 0.81006 0.61916 0.86605 0.0
C2680 C 0.79535 0.62946 0.83191 0.0
H2681 H 0.79717 0.61045 0.80069 0.0
C2682 C 0.79851 0.64895 0.82895 0.0
C2683 C 0.79431 0.61521 0.82154 0.0
C2684 C 0.78999 0.59369 0.82403 0.0
C2685 C 0.80186 0.65507 0.81602 0.0
C2686 C 0.80157 0.64107 0.8057 0.0
C2687 C 0.79752 0.62123 0.80859 0.0
C2688 C 0.807 0.64716 0.79213 0.0
C2689 C 0.80669 0.67682 0.81371 0.0
C2690 C 0.79593 0.65409 0.78417 0.0
C2691 C 0.80181 0.66036 0.77158 0.0
C2692 C 0.81859 0.65938 0.76663 0.0
C2693 C 0.82929 0.65197 0.7745 0.0
C2694 C 0.8236 0.64599 0.7871 0.0
H2695 H 0.81129 0.68712 0.82323 0.0
H2696 H 0.81941 0.68397 0.80721 0.0
H2697 H 0.79262 0.67612 0.80869 0.0
H2698 H 0.78273 0.65463 0.78767 0.0
H2699 H 0.79313 0.66576 0.76566 0.0
H2700 H 0.33848 0.17879 0.88183 0.0
H2701 H 0.33194 0.17369 0.85736 0.0
H2702 H 0.37475 0.15046 0.85551 0.0
H2703 H 0.38028 0.15446 0.87993 0.0
H2704 H 0.3582 0.19238 0.84025 0.0
H2705 H 0.32892 0.10784 0.82959 0.0
H2706 H 0.33156 0.11986 0.84622 0.0
H2707 H 0.35385 0.12118 0.83929 0.0
C2708 C 0.34604 0.17214 0.87613 0.0
C2709 C 0.35961 0.16672 0.88264 0.0
C2710 C 0.34241 0.16931 0.86219 0.0
C2711 C 0.35259 0.16136 0.85455 0.0
C2712 C 0.36616 0.15594 0.86113 0.0
H2713 H 0.36332 0.15839 0.76833 0.0
H2714 H 0.37056 0.16032 0.79266 0.0
C2715 C 0.36941 0.15833 0.87507 0.0
C2716 C 0.35011 0.16018 0.83973 0.0
H2717 H 0.338 0.12774 0.81098 0.0
C2718 C 0.35368 0.17819 0.83389 0.0
C2719 C 0.34435 0.1417 0.83138 0.0
C2720 C 0.33925 0.12151 0.83694 0.0
C2721 C 0.35156 0.1782 0.81998 0.0
C2722 C 0.34585 0.1598 0.81169 0.0
C2723 C 0.34258 0.14187 0.81744 0.0
C2724 C 0.34169 0.15854 0.79704 0.0
C2725 C 0.3553 0.19785 0.81418 0.0
C2726 C 0.32308 0.15683 0.79156 0.0
C2727 C 0.3189 0.15569 0.77776 0.0
C2728 C 0.33326 0.15624 0.76914 0.0
C2729 C 0.35199 0.15802 0.77469 0.0
C2730 C 0.35611 0.15903 0.78856 0.0
H2731 H 0.36248 0.21157 0.82185 0.0
H2732 H 0.36556 0.20106 0.80607 0.0
H2733 H 0.34025 0.19575 0.80976 0.0
H2734 H 0.3118 0.15645 0.79798 0.0
H2735 H 0.30451 0.15471 0.77385 0.0
H2736 H 0.80772 0.19499 0.87879 0.0
H2737 H 0.80987 0.19548 0.85455 0.0
H2738 H 0.80846 0.13668 0.85255 0.0
H2739 H 0.80675 0.13639 0.87678 0.0
H2740 H 0.84265 0.19203 0.84061 0.0
H2741 H 0.76176 0.12985 0.82287 0.0
H2742 H 0.76899 0.14399 0.83934 0.0
H2743 H 0.77513 0.12382 0.83579 0.0
C2744 C 0.8077 0.18214 0.8731 0.0
C2745 C 0.80699 0.16561 0.87953 0.0
C2746 C 0.80896 0.18244 0.85932 0.0
C2747 C 0.80909 0.166 0.85177 0.0
C2748 C 0.80814 0.14938 0.85819 0.0
H2749 H 0.81934 0.13163 0.77087 0.0
H2750 H 0.81229 0.13334 0.79408 0.0
C2751 C 0.80723 0.14925 0.87198 0.0
C2752 C 0.81114 0.16657 0.83726 0.0
H2753 H 0.78575 0.14147 0.80663 0.0
C2754 C 0.83018 0.18114 0.83314 0.0
C2755 C 0.79485 0.15227 0.8276 0.0
C2756 C 0.77394 0.13666 0.83155 0.0
C2757 C 0.83366 0.18132 0.8196 0.0
C2758 C 0.8174 0.16688 0.80988 0.0
C2759 C 0.7982 0.15256 0.81404 0.0
C2760 C 0.8204 0.1657 0.79546 0.0
C2761 C 0.85501 0.19639 0.81596 0.0
C2762 C 0.82672 0.18313 0.78832 0.0
C2763 C 0.8311 0.1823 0.77507 0.0
C2764 C 0.82901 0.16393 0.76861 0.0
C2765 C 0.82164 0.1462 0.7756 0.0
C2766 C 0.8174 0.14709 0.78886 0.0
H2767 H 0.86699 0.20227 0.82473 0.0
H2768 H 0.85971 0.18902 0.80804 0.0
H2769 H 0.85482 0.20999 0.81216 0.0
H2770 H 0.82863 0.19752 0.79307 0.0
H2771 H 0.83675 0.19628 0.77005 0.0
H2772 H 0.31297 0.19584 0.469 0.0
H2773 H 0.31323 0.19709 0.49335 0.0
H2774 H 0.31748 0.14128 0.49248 0.0
H2775 H 0.31701 0.13976 0.46821 0.0
H2776 H 0.28687 0.16761 0.51011 0.0
H2777 H 0.3681 0.18368 0.51832 0.0
H2778 H 0.35705 0.18635 0.50262 0.0
H2779 H 0.35159 0.16107 0.50677 0.0
C2780 C 0.31374 0.18371 0.47398 0.0
C2781 C 0.31523 0.16783 0.46665 0.0
C2782 C 0.31395 0.18449 0.48789 0.0
C2783 C 0.31575 0.16949 0.49473 0.0
C2784 C 0.31656 0.15328 0.48742 0.0
H2785 H 0.32233 0.13942 0.575 0.0
H2786 H 0.31654 0.1395 0.55087 0.0
C2787 C 0.31635 0.15248 0.47355 0.0
C2788 C 0.31722 0.17087 0.50953 0.0
H2789 H 0.34849 0.17424 0.53698 0.0
C2790 C 0.3004 0.16925 0.51602 0.0
C2791 C 0.33498 0.17322 0.51721 0.0
C2792 C 0.35405 0.1764 0.51091 0.0
C2793 C 0.30059 0.1691 0.52997 0.0
C2794 C 0.31805 0.17067 0.53755 0.0
C2795 C 0.33503 0.1728 0.53109 0.0
C2796 C 0.31904 0.1698 0.5522 0.0
C2797 C 0.28197 0.16667 0.53651 0.0
C2798 C 0.32213 0.18674 0.56093 0.0
C2799 C 0.32549 0.18678 0.57476 0.0
C2800 C 0.32578 0.16983 0.58009 0.0
C2801 C 0.32196 0.1526 0.57127 0.0
C2802 C 0.31875 0.15265 0.55747 0.0
H2803 H 0.26869 0.16318 0.52907 0.0
H2804 H 0.27688 0.154 0.54313 0.0
H2805 H 0.28634 0.1813 0.54282 0.0
H2806 H 0.32261 0.20021 0.55704 0.0
H2807 H 0.32819 0.20021 0.58127 0.0
H2808 H 0.83146 0.12849 0.47262 0.0
H2809 H 0.82776 0.13403 0.4962 0.0
H2810 H 0.88342 0.19423 0.49975 0.0
H2811 H 0.88763 0.18862 0.47622 0.0
H2812 H 0.86495 0.14469 0.51728 0.0
H2813 H 0.83536 0.20046 0.51824 0.0
H2814 H 0.82996 0.18232 0.50374 0.0
H2815 H 0.85557 0.20432 0.50786 0.0
C2816 C 0.84285 0.14298 0.47838 0.0
C2817 C 0.85999 0.158 0.47259 0.0
C2818 C 0.84064 0.14615 0.49182 0.0
C2819 C 0.85534 0.16449 0.49965 0.0
C2820 C 0.87186 0.18003 0.49378 0.0
H2821 H 0.86276 0.20269 0.5843 0.0
H2822 H 0.8694 0.20176 0.56086 0.0
C2823 C 0.87416 0.17683 0.48033 0.0
C2824 C 0.85439 0.16648 0.51421 0.0
H2825 H 0.84139 0.19003 0.53884 0.0
C2826 C 0.85985 0.15462 0.52204 0.0
C2827 C 0.84795 0.17961 0.52031 0.0
C2828 C 0.84177 0.19242 0.51217 0.0
C2829 C 0.85895 0.15548 0.5359 0.0
C2830 C 0.85189 0.16816 0.54201 0.0
C2831 C 0.84678 0.18031 0.53416 0.0
C2832 C 0.84895 0.1685 0.55642 0.0
C2833 C 0.86583 0.14301 0.54385 0.0
C2834 C 0.8353 0.15011 0.56172 0.0
C2835 C 0.83151 0.15059 0.57509 0.0
C2836 C 0.8411 0.16953 0.58342 0.0
C2837 C 0.85497 0.18789 0.57812 0.0
C2838 C 0.85883 0.18738 0.56475 0.0
H2839 H 0.87669 0.13964 0.5386 0.0
H2840 H 0.87361 0.15131 0.55387 0.0
H2841 H 0.85202 0.12788 0.5452 0.0
H2842 H 0.8271 0.13544 0.55542 0.0
H2843 H 0.82048 0.13622 0.57878 0.0
H2844 H 0.89891 0.71146 0.47842 0.0
H2845 H 0.89835 0.70576 0.50212 0.0
H2846 H 0.84153 0.70787 0.50275 0.0
H2847 H 0.84194 0.71349 0.47913 0.0
H2848 H 0.89732 0.7287 0.52523 0.0
H2849 H 0.82615 0.65106 0.51527 0.0
H2850 H 0.84132 0.66464 0.5022 0.0
H2851 H 0.82303 0.67125 0.50853 0.0
C2852 C 0.88644 0.71095 0.48367 0.0
C2853 C 0.87032 0.71267 0.47689 0.0
C2854 C 0.88612 0.70764 0.49718 0.0
C2855 C 0.86968 0.70598 0.50409 0.0
C2856 C 0.85409 0.7086 0.49749 0.0
H2857 H 0.82885 0.68798 0.58179 0.0
H2858 H 0.83765 0.69833 0.55948 0.0
C2859 C 0.85434 0.71181 0.48401 0.0
C2860 C 0.86834 0.70094 0.51809 0.0
H2861 H 0.83616 0.66588 0.53801 0.0
C2862 C 0.88408 0.71488 0.52803 0.0
C2863 C 0.85118 0.68273 0.52167 0.0
C2864 C 0.83456 0.66644 0.51135 0.0
C2865 C 0.88256 0.7115 0.54158 0.0
C2866 C 0.8649 0.69382 0.54515 0.0
C2867 C 0.84955 0.67958 0.53519 0.0
C2868 C 0.8616 0.68992 0.55921 0.0
C2869 C 0.89944 0.72706 0.55204 0.0
C2870 C 0.87234 0.68197 0.56642 0.0
C2871 C 0.8673 0.67597 0.57915 0.0
C2872 C 0.85146 0.67787 0.58486 0.0
C2873 C 0.84126 0.68653 0.57774 0.0
C2874 C 0.84621 0.69238 0.56499 0.0
H2875 H 0.91136 0.74087 0.54771 0.0
H2876 H 0.89255 0.73232 0.55975 0.0
H2877 H 0.90723 0.71951 0.55711 0.0
H2878 H 0.88415 0.67982 0.56204 0.0
H2879 H 0.87554 0.66953 0.58446 0.0
loop_
_geom_bond_atom_site_label_1
_geom_bond_atom_site_label_2
_geom_bond_distance
_geom_bond_site_symmetry_2
_ccdc_geom_bond_type
P0 O11 1.490 . S
P0 C14 1.812 . S
P0 C20 1.803 . S
P0 C26 1.819 . S
H1 C15 0.941 . S
H2 C16 0.939 . S
H3 C18 0.940 . S
H4 C19 0.940 . S
H5 C21 0.939 . S
H6 C22 0.942 . S
H7 C24 0.940 . S
H8 C25 0.939 . S
H9 C27 0.941 . S
H10 C31 0.939 . S
O11 P0 1.490 . S
H12 C28 0.939 . S
H13 C30 0.940 . S
C14 P0 1.812 . S
C14 C15 1.389 . S
C14 C19 1.391 . S
C15 H1 0.941 . S
C15 C14 1.389 . S
C15 C16 1.397 . S
C16 H2 0.939 . S
C16 C15 1.397 . S
C16 C17 1.378 . S
C17 C16 1.378 . S
C17 C18 1.378 . S
C18 H3 0.940 . S
C18 C17 1.378 . S
C18 C19 1.396 . S
C19 H4 0.940 . S
C19 C14 1.391 . S
C19 C18 1.396 . S
C20 P0 1.803 . S
C20 C21 1.378 . S
C20 C25 1.400 . S
C21 H5 0.939 . S
C21 C20 1.378 . S
C21 C22 1.361 . S
C22 H6 0.942 . S
C22 C21 1.361 . S
C22 C23 1.369 . S
C23 C22 1.369 . S
C23 C24 1.404 . S
C24 H7 0.940 . S
C24 C23 1.404 . S
C24 C25 1.389 . S
C25 H8 0.939 . S
C25 C20 1.400 . S
C25 C24 1.389 . S
C26 P0 1.819 . S
C26 C27 1.391 . S
C26 C31 1.391 . S
C27 H9 0.941 . S
C27 C26 1.391 . S
C27 C28 1.396 . S
C28 H12 0.939 . S
C28 C27 1.396 . S
C28 C29 1.397 . S
C29 C28 1.397 . S
C29 C30 1.385 . S
C30 H13 0.940 . S
C30 C29 1.385 . S
C30 C31 1.388 . S
C31 H10 0.939 . S
C31 C26 1.391 . S
C31 C30 1.388 . S
P32 O43 1.490 . S
P32 C46 1.812 . S
P32 C52 1.803 . S
P32 C58 1.819 . S
H33 C47 0.941 . S
H34 C48 0.939 . S
H35 C50 0.940 . S
H36 C51 0.940 . S
H37 C53 0.939 . S
H38 C54 0.942 . S
H39 C56 0.940 . S
H40 C57 0.939 . S
H41 C59 0.941 . S
H42 C63 0.939 . S
O43 P32 1.490 . S
H44 C60 0.939 . S
H45 C62 0.940 . S
C46 P32 1.812 . S
C46 C47 1.389 . S
C46 C51 1.391 . S
C47 H33 0.941 . S
C47 C46 1.389 . S
C47 C48 1.397 . S
C48 H34 0.939 . S
C48 C47 1.397 . S
C48 C49 1.378 . S
C49 C48 1.378 . S
C49 C50 1.378 . S
C50 H35 0.940 . S
C50 C49 1.378 . S
C50 C51 1.396 . S
C51 H36 0.940 . S
C51 C46 1.391 . S
C51 C50 1.396 . S
C52 P32 1.803 . S
C52 C53 1.378 . S
C52 C57 1.400 . S
C53 H37 0.939 . S
C53 C52 1.378 . S
C53 C54 1.361 . S
C54 H38 0.942 . S
C54 C53 1.361 . S
C54 C55 1.369 . S
C55 C54 1.369 . S
C55 C56 1.404 . S
C56 H39 0.940 . S
C56 C55 1.404 . S
C56 C57 1.389 . S
C57 H40 0.939 . S
C57 C52 1.400 . S
C57 C56 1.389 . S
C58 P32 1.819 . S
C58 C59 1.391 . S
C58 C63 1.391 . S
C59 H41 0.941 . S
C59 C58 1.391 . S
C59 C60 1.396 . S
C60 H44 0.939 . S
C60 C59 1.396 . S
C60 C61 1.397 . S
C61 C60 1.397 . S
C61 C62 1.385 . S
C62 H45 0.940 . S
C62 C61 1.385 . S
C62 C63 1.388 . S
C63 H42 0.939 . S
C63 C58 1.391 . S
C63 C62 1.388 . S
P64 O75 1.490 . S
P64 C78 1.812 . S
P64 C84 1.803 . S
P64 C90 1.819 . S
H65 C79 0.941 . S
H66 C80 0.939 . S
H67 C82 0.940 . S
H68 C83 0.940 . S
H69 C85 0.939 . S
H70 C86 0.942 . S
H71 C88 0.940 . S
H72 C89 0.939 . S
H73 C91 0.941 . S
H74 C95 0.939 . S
O75 P64 1.490 . S
H76 C92 0.939 . S
H77 C94 0.940 . S
C78 P64 1.812 . S
C78 C79 1.389 . S
C78 C83 1.391 . S
C79 H65 0.941 . S
C79 C78 1.389 . S
C79 C80 1.397 . S
C80 H66 0.939 . S
C80 C79 1.397 . S
C80 C81 1.378 . S
C81 C80 1.378 . S
C81 C82 1.378 . S
C82 H67 0.940 . S
C82 C81 1.378 . S
C82 C83 1.396 . S
C83 H68 0.940 . S
C83 C78 1.391 . S
C83 C82 1.396 . S
C84 P64 1.803 . S
C84 C85 1.378 . S
C84 C89 1.400 . S
C85 H69 0.939 . S
C85 C84 1.378 . S
C85 C86 1.361 . S
C86 H70 0.942 . S
C86 C85 1.361 . S
C86 C87 1.369 . S
C87 C86 1.369 . S
C87 C88 1.404 . S
C88 H71 0.940 . S
C88 C87 1.404 . S
C88 C89 1.389 . S
C89 H72 0.939 . S
C89 C84 1.400 . S
C89 C88 1.389 . S
C90 P64 1.819 . S
C90 C91 1.391 . S
C90 C95 1.391 . S
C91 H73 0.941 . S
C91 C90 1.391 . S
C91 C92 1.396 . S
C92 H76 0.939 . S
C92 C91 1.396 . S
C92 C93 1.397 . S
C93 C92 1.397 . S
C93 C94 1.385 . S
C94 H77 0.940 . S
C94 C93 1.385 . S
C94 C95 1.388 . S
C95 H74 0.939 . S
C95 C90 1.391 . S
C95 C94 1.388 . S
P96 O107 1.490 . S
P96 C110 1.812 . S
P96 C116 1.803 . S
P96 C122 1.819 . S
H97 C111 0.941 . S
H98 C112 0.939 . S
H99 C114 0.940 . S
H100 C115 0.940 . S
H101 C117 0.939 . S
H102 C118 0.942 . S
H103 C120 0.940 . S
H104 C121 0.939 . S
H105 C123 0.941 . S
H106 C127 0.939 . S
O107 P96 1.490 . S
H108 C124 0.939 . S
H109 C126 0.940 . S
C110 P96 1.812 . S
C110 C111 1.389 . S
C110 C115 1.391 . S
C111 H97 0.941 . S
C111 C110 1.389 . S
C111 C112 1.397 . S
C112 H98 0.939 . S
C112 C111 1.397 . S
C112 C113 1.378 . S
C113 C112 1.378 . S
C113 C114 1.378 . S
C114 H99 0.940 . S
C114 C113 1.378 . S
C114 C115 1.396 . S
C115 H100 0.940 . S
C115 C110 1.391 . S
C115 C114 1.396 . S
C116 P96 1.803 . S
C116 C117 1.378 . S
C116 C121 1.400 . S
C117 H101 0.939 . S
C117 C116 1.378 . S
C117 C118 1.361 . S
C118 H102 0.942 . S
C118 C117 1.361 . S
C118 C119 1.369 . S
C119 C118 1.369 . S
C119 C120 1.404 . S
C120 H103 0.940 . S
C120 C119 1.404 . S
C120 C121 1.389 . S
C121 H104 0.939 . S
C121 C116 1.400 . S
C121 C120 1.389 . S
C122 P96 1.819 . S
C122 C123 1.391 . S
C122 C127 1.391 . S
C123 H105 0.941 . S
C123 C122 1.391 . S
C123 C124 1.396 . S
C124 H108 0.939 . S
C124 C123 1.396 . S
C124 C125 1.397 . S
C125 C124 1.397 . S
C125 C126 1.385 . S
C126 H109 0.940 . S
C126 C125 1.385 . S
C126 C127 1.388 . S
C127 H106 0.939 . S
C127 C122 1.391 . S
C127 C126 1.388 . S
P128 O139 1.490 . S
P128 C142 1.812 . S
P128 C148 1.803 . S
P128 C154 1.819 . S
H129 C143 0.941 . S
H130 C144 0.939 . S
H131 C146 0.940 . S
H132 C147 0.940 . S
H133 C149 0.939 . S
H134 C150 0.942 . S
H135 C152 0.940 . S
H136 C153 0.939 . S
H137 C155 0.941 . S
H138 C159 0.939 . S
O139 P128 1.490 . S
H140 C156 0.939 . S
H141 C158 0.940 . S
C142 P128 1.812 . S
C142 C143 1.389 . S
C142 C147 1.391 . S
C143 H129 0.941 . S
C143 C142 1.389 . S
C143 C144 1.397 . S
C144 H130 0.939 . S
C144 C143 1.397 . S
C144 C145 1.378 . S
C145 C144 1.378 . S
C145 C146 1.378 . S
C146 H131 0.940 . S
C146 C145 1.378 . S
C146 C147 1.396 . S
C147 H132 0.940 . S
C147 C142 1.391 . S
C147 C146 1.396 . S
C148 P128 1.803 . S
C148 C149 1.378 . S
C148 C153 1.400 . S
C149 H133 0.939 . S
C149 C148 1.378 . S
C149 C150 1.361 . S
C150 H134 0.942 . S
C150 C149 1.361 . S
C150 C151 1.369 . S
C151 C150 1.369 . S
C151 C152 1.404 . S
C152 H135 0.940 . S
C152 C151 1.404 . S
C152 C153 1.389 . S
C153 H136 0.939 . S
C153 C148 1.400 . S
C153 C152 1.389 . S
C154 P128 1.819 . S
C154 C155 1.391 . S
C154 C159 1.391 . S
C155 H137 0.941 . S
C155 C154 1.391 . S
C155 C156 1.396 . S
C156 H140 0.939 . S
C156 C155 1.396 . S
C156 C157 1.397 . S
C157 C156 1.397 . S
C157 C158 1.385 . S
C158 H141 0.940 . S
C158 C157 1.385 . S
C158 C159 1.388 . S
C159 H138 0.939 . S
C159 C154 1.391 . S
C159 C158 1.388 . S
P160 O171 1.490 . S
P160 C174 1.812 . S
P160 C180 1.803 . S
P160 C186 1.819 . S
H161 C175 0.941 . S
H162 C176 0.939 . S
H163 C178 0.940 . S
H164 C179 0.940 . S
H165 C181 0.939 . S
H166 C182 0.942 . S
H167 C184 0.940 . S
H168 C185 0.939 . S
H169 C187 0.941 . S
H170 C191 0.939 . S
O171 P160 1.490 . S
H172 C188 0.939 . S
H173 C190 0.940 . S
C174 P160 1.812 . S
C174 C175 1.389 . S
C174 C179 1.391 . S
C175 H161 0.941 . S
C175 C174 1.389 . S
C175 C176 1.397 . S
C176 H162 0.939 . S
C176 C175 1.397 . S
C176 C177 1.378 . S
C177 C176 1.378 . S
C177 C178 1.378 . S
C178 H163 0.940 . S
C178 C177 1.378 . S
C178 C179 1.396 . S
C179 H164 0.940 . S
C179 C174 1.391 . S
C179 C178 1.396 . S
C180 P160 1.803 . S
C180 C181 1.378 . S
C180 C185 1.400 . S
C181 H165 0.939 . S
C181 C180 1.378 . S
C181 C182 1.361 . S
C182 H166 0.942 . S
C182 C181 1.361 . S
C182 C183 1.369 . S
C183 C182 1.369 . S
C183 C184 1.404 . S
C184 H167 0.940 . S
C184 C183 1.404 . S
C184 C185 1.389 . S
C185 H168 0.939 . S
C185 C180 1.400 . S
C185 C184 1.389 . S
C186 P160 1.819 . S
C186 C187 1.391 . S
C186 C191 1.391 . S
C187 H169 0.941 . S
C187 C186 1.391 . S
C187 C188 1.396 . S
C188 H172 0.939 . S
C188 C187 1.396 . S
C188 C189 1.397 . S
C189 C188 1.397 . S
C189 C190 1.385 . S
C190 H173 0.940 . S
C190 C189 1.385 . S
C190 C191 1.388 . S
C191 H170 0.939 . S
C191 C186 1.391 . S
C191 C190 1.388 . S
P192 O203 1.490 1_655 S
P192 C206 1.812 . S
P192 C212 1.803 . S
P192 C218 1.819 . S
H193 C207 0.941 . S
H194 C208 0.939 . S
H195 C210 0.940 . S
H196 C211 0.940 . S
H197 C213 0.939 . S
H198 C214 0.942 . S
H199 C216 0.940 . S
H200 C217 0.939 . S
H201 C219 0.941 1_455 S
H202 C223 0.939 . S
O203 P192 1.490 1_455 S
H204 C220 0.939 1_455 S
H205 C222 0.940 . S
C206 P192 1.812 . S
C206 C207 1.389 . S
C206 C211 1.391 . S
C207 H193 0.941 . S
C207 C206 1.389 . S
C207 C208 1.397 . S
C208 H194 0.939 . S
C208 C207 1.397 . S
C208 C209 1.378 . S
C209 C208 1.378 . S
C209 C210 1.378 . S
C210 H195 0.940 . S
C210 C209 1.378 . S
C210 C211 1.396 . S
C211 H196 0.940 . S
C211 C206 1.391 . S
C211 C210 1.396 . S
C212 P192 1.803 . S
C212 C213 1.378 . S
C212 C217 1.400 . S
C213 H197 0.939 . S
C213 C212 1.378 . S
C213 C214 1.361 . S
C214 H198 0.942 . S
C214 C213 1.361 . S
C214 C215 1.369 . S
C215 C214 1.369 . S
C215 C216 1.404 . S
C216 H199 0.940 . S
C216 C215 1.404 . S
C216 C217 1.389 . S
C217 H200 0.939 . S
C217 C212 1.400 . S
C217 C216 1.389 . S
C218 P192 1.819 . S
C218 C219 1.391 . S
C218 C223 1.391 . S
C219 H201 0.941 1_655 S
C219 C218 1.391 . S
C219 C220 1.396 . S
C220 H204 0.939 1_655 S
C220 C219 1.396 . S
C220 C221 1.397 . S
C221 C220 1.397 . S
C221 C222 1.385 . S
C222 H205 0.940 . S
C222 C221 1.385 . S
C222 C223 1.388 . S
C223 H202 0.939 . S
C223 C218 1.391 . S
C223 C222 1.388 . S
P224 O235 1.490 . S
P224 C238 1.812 . S
P224 C244 1.803 . S
P224 C250 1.819 . S
H225 C239 0.941 . S
H226 C240 0.939 . S
H227 C242 0.940 . S
H228 C243 0.940 . S
H229 C245 0.939 . S
H230 C246 0.942 . S
H231 C248 0.940 . S
H232 C249 0.939 . S
H233 C251 0.941 . S
H234 C255 0.939 . S
O235 P224 1.490 . S
H236 C252 0.939 . S
H237 C254 0.940 . S
C238 P224 1.812 . S
C238 C239 1.389 . S
C238 C243 1.391 . S
C239 H225 0.941 . S
C239 C238 1.389 . S
C239 C240 1.397 . S
C240 H226 0.939 . S
C240 C239 1.397 . S
C240 C241 1.378 . S
C241 C240 1.378 . S
C241 C242 1.378 . S
C242 H227 0.940 . S
C242 C241 1.378 . S
C242 C243 1.396 . S
C243 H228 0.940 . S
C243 C238 1.391 . S
C243 C242 1.396 . S
C244 P224 1.803 . S
C244 C245 1.378 . S
C244 C249 1.400 . S
C245 H229 0.939 . S
C245 C244 1.378 . S
C245 C246 1.361 . S
C246 H230 0.942 . S
C246 C245 1.361 . S
C246 C247 1.369 . S
C247 C246 1.369 . S
C247 C248 1.404 . S
C248 H231 0.940 . S
C248 C247 1.404 . S
C248 C249 1.389 . S
C249 H232 0.939 . S
C249 C244 1.400 . S
C249 C248 1.389 . S
C250 P224 1.819 . S
C250 C251 1.391 . S
C250 C255 1.391 . S
C251 H233 0.941 . S
C251 C250 1.391 . S
C251 C252 1.396 . S
C252 H236 0.939 . S
C252 C251 1.396 . S
C252 C253 1.397 . S
C253 C252 1.397 . S
C253 C254 1.385 . S
C254 H237 0.940 . S
C254 C253 1.385 . S
C254 C255 1.388 . S
C255 H234 0.939 . S
C255 C250 1.391 . S
C255 C254 1.388 . S
P256 O267 1.490 . S
P256 C270 1.812 . S
P256 C276 1.803 . S
P256 C282 1.819 . S
H257 C271 0.941 . S
H258 C272 0.939 . S
H259 C274 0.940 . S
H260 C275 0.940 . S
H261 C277 0.939 . S
H262 C278 0.942 . S
H263 C280 0.940 . S
H264 C281 0.939 . S
H265 C283 0.941 . S
H266 C287 0.939 . S
O267 P256 1.490 . S
H268 C284 0.939 . S
H269 C286 0.940 . S
C270 P256 1.812 . S
C270 C271 1.389 . S
C270 C275 1.391 . S
C271 H257 0.941 . S
C271 C270 1.389 . S
C271 C272 1.397 . S
C272 H258 0.939 . S
C272 C271 1.397 . S
C272 C273 1.378 . S
C273 C272 1.378 . S
C273 C274 1.378 . S
C274 H259 0.940 . S
C274 C273 1.378 . S
C274 C275 1.396 . S
C275 H260 0.940 . S
C275 C270 1.391 . S
C275 C274 1.396 . S
C276 P256 1.803 . S
C276 C277 1.378 . S
C276 C281 1.400 . S
C277 H261 0.939 . S
C277 C276 1.378 . S
C277 C278 1.361 . S
C278 H262 0.942 . S
C278 C277 1.361 . S
C278 C279 1.369 . S
C279 C278 1.369 . S
C279 C280 1.404 . S
C280 H263 0.940 . S
C280 C279 1.404 . S
C280 C281 1.389 . S
C281 H264 0.939 . S
C281 C276 1.400 . S
C281 C280 1.389 . S
C282 P256 1.819 . S
C282 C283 1.391 . S
C282 C287 1.391 . S
C283 H265 0.941 . S
C283 C282 1.391 . S
C283 C284 1.396 . S
C284 H268 0.939 . S
C284 C283 1.396 . S
C284 C285 1.397 . S
C285 C284 1.397 . S
C285 C286 1.385 . S
C286 H269 0.940 . S
C286 C285 1.385 . S
C286 C287 1.388 . S
C287 H266 0.939 . S
C287 C282 1.391 . S
C287 C286 1.388 . S
P288 O299 1.490 . S
P288 C302 1.812 . S
P288 C308 1.803 . S
P288 C314 1.819 . S
H289 C303 0.941 . S
H290 C304 0.939 . S
H291 C306 0.940 . S
H292 C307 0.940 . S
H293 C309 0.939 . S
H294 C310 0.942 . S
H295 C312 0.940 . S
H296 C313 0.939 . S
H297 C315 0.941 . S
H298 C319 0.939 . S
O299 P288 1.490 . S
H300 C316 0.939 . S
H301 C318 0.940 . S
C302 P288 1.812 . S
C302 C303 1.389 . S
C302 C307 1.391 . S
C303 H289 0.941 . S
C303 C302 1.389 . S
C303 C304 1.397 . S
C304 H290 0.939 . S
C304 C303 1.397 . S
C304 C305 1.378 . S
C305 C304 1.378 . S
C305 C306 1.378 . S
C306 H291 0.940 . S
C306 C305 1.378 . S
C306 C307 1.396 . S
C307 H292 0.940 . S
C307 C302 1.391 . S
C307 C306 1.396 . S
C308 P288 1.803 . S
C308 C309 1.378 . S
C308 C313 1.400 . S
C309 H293 0.939 . S
C309 C308 1.378 . S
C309 C310 1.361 . S
C310 H294 0.942 . S
C310 C309 1.361 . S
C310 C311 1.369 . S
C311 C310 1.369 . S
C311 C312 1.404 . S
C312 H295 0.940 . S
C312 C311 1.404 . S
C312 C313 1.389 . S
C313 H296 0.939 . S
C313 C308 1.400 . S
C313 C312 1.389 . S
C314 P288 1.819 . S
C314 C315 1.391 . S
C314 C319 1.391 . S
C315 H297 0.941 . S
C315 C314 1.391 . S
C315 C316 1.396 . S
C316 H300 0.939 . S
C316 C315 1.396 . S
C316 C317 1.397 . S
C317 C316 1.397 . S
C317 C318 1.385 . S
C318 H301 0.940 . S
C318 C317 1.385 . S
C318 C319 1.388 . S
C319 H298 0.939 . S
C319 C314 1.391 . S
C319 C318 1.388 . S
P320 O331 1.490 . S
P320 C334 1.812 . S
P320 C340 1.803 . S
P320 C346 1.819 . S
H321 C335 0.941 . S
H322 C336 0.939 . S
H323 C338 0.940 . S
H324 C339 0.940 . S
H325 C341 0.939 . S
H326 C342 0.942 . S
H327 C344 0.940 . S
H328 C345 0.939 . S
H329 C347 0.941 . S
H330 C351 0.939 . S
O331 P320 1.490 . S
H332 C348 0.939 . S
H333 C350 0.940 . S
C334 P320 1.812 . S
C334 C335 1.389 . S
C334 C339 1.391 . S
C335 H321 0.941 . S
C335 C334 1.389 . S
C335 C336 1.397 . S
C336 H322 0.939 . S
C336 C335 1.397 . S
C336 C337 1.378 . S
C337 C336 1.378 . S
C337 C338 1.378 . S
C338 H323 0.940 . S
C338 C337 1.378 . S
C338 C339 1.396 . S
C339 H324 0.940 . S
C339 C334 1.391 . S
C339 C338 1.396 . S
C340 P320 1.803 . S
C340 C341 1.378 . S
C340 C345 1.400 . S
C341 H325 0.939 . S
C341 C340 1.378 . S
C341 C342 1.361 . S
C342 H326 0.942 . S
C342 C341 1.361 . S
C342 C343 1.369 . S
C343 C342 1.369 . S
C343 C344 1.404 . S
C344 H327 0.940 . S
C344 C343 1.404 . S
C344 C345 1.389 . S
C345 H328 0.939 . S
C345 C340 1.400 . S
C345 C344 1.389 . S
C346 P320 1.819 . S
C346 C347 1.391 . S
C346 C351 1.391 . S
C347 H329 0.941 . S
C347 C346 1.391 . S
C347 C348 1.396 . S
C348 H332 0.939 . S
C348 C347 1.396 . S
C348 C349 1.397 . S
C349 C348 1.397 . S
C349 C350 1.385 . S
C350 H333 0.940 . S
C350 C349 1.385 . S
C350 C351 1.388 . S
C351 H330 0.939 . S
C351 C346 1.391 . S
C351 C350 1.388 . S
P352 O363 1.490 . S
P352 C366 1.812 . S
P352 C372 1.803 . S
P352 C378 1.819 . S
H353 C367 0.941 . S
H354 C368 0.939 . S
H355 C370 0.940 . S
H356 C371 0.940 . S
H357 C373 0.939 . S
H358 C374 0.942 . S
H359 C376 0.940 . S
H360 C377 0.939 . S
H361 C379 0.941 . S
H362 C383 0.939 . S
O363 P352 1.490 . S
H364 C380 0.939 . S
H365 C382 0.940 . S
C366 P352 1.812 . S
C366 C367 1.389 . S
C366 C371 1.391 . S
C367 H353 0.941 . S
C367 C366 1.389 . S
C367 C368 1.397 . S
C368 H354 0.939 . S
C368 C367 1.397 . S
C368 C369 1.378 . S
C369 C368 1.378 . S
C369 C370 1.378 . S
C370 H355 0.940 . S
C370 C369 1.378 . S
C370 C371 1.396 . S
C371 H356 0.940 . S
C371 C366 1.391 . S
C371 C370 1.396 . S
C372 P352 1.803 . S
C372 C373 1.378 . S
C372 C377 1.400 . S
C373 H357 0.939 . S
C373 C372 1.378 . S
C373 C374 1.361 . S
C374 H358 0.942 . S
C374 C373 1.361 . S
C374 C375 1.369 . S
C375 C374 1.369 . S
C375 C376 1.404 . S
C376 H359 0.940 . S
C376 C375 1.404 . S
C376 C377 1.389 . S
C377 H360 0.939 . S
C377 C372 1.400 . S
C377 C376 1.389 . S
C378 P352 1.819 . S
C378 C379 1.391 . S
C378 C383 1.391 . S
C379 H361 0.941 . S
C379 C378 1.391 . S
C379 C380 1.396 . S
C380 H364 0.939 . S
C380 C379 1.396 . S
C380 C381 1.397 . S
C381 C380 1.397 . S
C381 C382 1.385 . S
C382 H365 0.940 . S
C382 C381 1.385 . S
C382 C383 1.388 . S
C383 H362 0.939 . S
C383 C378 1.391 . S
C383 C382 1.388 . S
P384 O395 1.490 . S
P384 C398 1.812 . S
P384 C404 1.803 . S
P384 C410 1.819 . S
H385 C399 0.941 . S
H386 C400 0.939 . S
H387 C402 0.940 . S
H388 C403 0.940 . S
H389 C405 0.939 . S
H390 C406 0.942 . S
H391 C408 0.940 . S
H392 C409 0.939 . S
H393 C411 0.941 . S
H394 C415 0.939 . S
O395 P384 1.490 . S
H396 C412 0.939 . S
H397 C414 0.940 . S
C398 P384 1.812 . S
C398 C399 1.389 . S
C398 C403 1.391 . S
C399 H385 0.941 . S
C399 C398 1.389 . S
C399 C400 1.397 . S
C400 H386 0.939 . S
C400 C399 1.397 . S
C400 C401 1.378 . S
C401 C400 1.378 . S
C401 C402 1.378 . S
C402 H387 0.940 . S
C402 C401 1.378 . S
C402 C403 1.396 . S
C403 H388 0.940 . S
C403 C398 1.391 . S
C403 C402 1.396 . S
C404 P384 1.803 . S
C404 C405 1.378 . S
C404 C409 1.400 . S
C405 H389 0.939 . S
C405 C404 1.378 . S
C405 C406 1.361 . S
C406 H390 0.942 . S
C406 C405 1.361 . S
C406 C407 1.369 . S
C407 C406 1.369 . S
C407 C408 1.404 . S
C408 H391 0.940 . S
C408 C407 1.404 . S
C408 C409 1.389 . S
C409 H392 0.939 . S
C409 C404 1.400 . S
C409 C408 1.389 . S
C410 P384 1.819 . S
C410 C411 1.391 . S
C410 C415 1.391 . S
C411 H393 0.941 . S
C411 C410 1.391 . S
C411 C412 1.396 . S
C412 H396 0.939 . S
C412 C411 1.396 . S
C412 C413 1.397 . S
C413 C412 1.397 . S
C413 C414 1.385 . S
C414 H397 0.940 . S
C414 C413 1.385 . S
C414 C415 1.388 . S
C415 H394 0.939 . S
C415 C410 1.391 . S
C415 C414 1.388 . S
P416 O427 1.490 . S
P416 C430 1.812 . S
P416 C436 1.803 . S
P416 C442 1.819 . S
H417 C431 0.941 . S
H418 C432 0.939 . S
H419 C434 0.940 . S
H420 C435 0.940 . S
H421 C437 0.939 . S
H422 C438 0.942 . S
H423 C440 0.940 . S
H424 C441 0.939 . S
H425 C443 0.941 . S
H426 C447 0.939 . S
O427 P416 1.490 . S
H428 C444 0.939 . S
H429 C446 0.940 . S
C430 P416 1.812 . S
C430 C431 1.389 . S
C430 C435 1.391 . S
C431 H417 0.941 . S
C431 C430 1.389 . S
C431 C432 1.397 . S
C432 H418 0.939 . S
C432 C431 1.397 . S
C432 C433 1.378 . S
C433 C432 1.378 . S
C433 C434 1.378 . S
C434 H419 0.940 . S
C434 C433 1.378 . S
C434 C435 1.396 . S
C435 H420 0.940 . S
C435 C430 1.391 . S
C435 C434 1.396 . S
C436 P416 1.803 . S
C436 C437 1.378 . S
C436 C441 1.400 . S
C437 H421 0.939 . S
C437 C436 1.378 . S
C437 C438 1.361 . S
C438 H422 0.942 . S
C438 C437 1.361 . S
C438 C439 1.369 . S
C439 C438 1.369 . S
C439 C440 1.404 . S
C440 H423 0.940 . S
C440 C439 1.404 . S
C440 C441 1.389 . S
C441 H424 0.939 . S
C441 C436 1.400 . S
C441 C440 1.389 . S
C442 P416 1.819 . S
C442 C443 1.391 . S
C442 C447 1.391 . S
C443 H425 0.941 . S
C443 C442 1.391 . S
C443 C444 1.396 . S
C444 H428 0.939 . S
C444 C443 1.396 . S
C444 C445 1.397 . S
C445 C444 1.397 . S
C445 C446 1.385 . S
C446 H429 0.940 . S
C446 C445 1.385 . S
C446 C447 1.388 . S
C447 H426 0.939 . S
C447 C442 1.391 . S
C447 C446 1.388 . S
P448 O459 1.490 . S
P448 C462 1.812 . S
P448 C468 1.803 . S
P448 C474 1.819 . S
H449 C463 0.941 . S
H450 C464 0.939 . S
H451 C466 0.940 . S
H452 C467 0.940 . S
H453 C469 0.939 . S
H454 C470 0.942 . S
H455 C472 0.940 . S
H456 C473 0.939 . S
H457 C475 0.941 . S
H458 C479 0.939 . S
O459 P448 1.490 . S
H460 C476 0.939 . S
H461 C478 0.940 . S
C462 P448 1.812 . S
C462 C463 1.389 . S
C462 C467 1.391 . S
C463 H449 0.941 . S
C463 C462 1.389 . S
C463 C464 1.397 . S
C464 H450 0.939 . S
C464 C463 1.397 . S
C464 C465 1.378 . S
C465 C464 1.378 . S
C465 C466 1.378 . S
C466 H451 0.940 . S
C466 C465 1.378 . S
C466 C467 1.396 . S
C467 H452 0.940 . S
C467 C462 1.391 . S
C467 C466 1.396 . S
C468 P448 1.803 . S
C468 C469 1.378 . S
C468 C473 1.400 . S
C469 H453 0.939 . S
C469 C468 1.378 . S
C469 C470 1.361 . S
C470 H454 0.942 . S
C470 C469 1.361 . S
C470 C471 1.369 . S
C471 C470 1.369 . S
C471 C472 1.404 . S
C472 H455 0.940 . S
C472 C471 1.404 . S
C472 C473 1.389 . S
C473 H456 0.939 . S
C473 C468 1.400 . S
C473 C472 1.389 . S
C474 P448 1.819 . S
C474 C475 1.391 . S
C474 C479 1.391 . S
C475 H457 0.941 . S
C475 C474 1.391 . S
C475 C476 1.396 . S
C476 H460 0.939 . S
C476 C475 1.396 . S
C476 C477 1.397 . S
C477 C476 1.397 . S
C477 C478 1.385 . S
C478 H461 0.940 . S
C478 C477 1.385 . S
C478 C479 1.388 . S
C479 H458 0.939 . S
C479 C474 1.391 . S
C479 C478 1.388 . S
P480 O491 1.490 . S
P480 C494 1.812 . S
P480 C500 1.803 . S
P480 C506 1.819 . S
H481 C495 0.941 . S
H482 C496 0.939 . S
H483 C498 0.940 . S
H484 C499 0.940 . S
H485 C501 0.939 . S
H486 C502 0.942 . S
H487 C504 0.940 . S
H488 C505 0.939 . S
H489 C507 0.941 . S
H490 C511 0.939 . S
O491 P480 1.490 . S
H492 C508 0.939 . S
H493 C510 0.940 . S
C494 P480 1.812 . S
C494 C495 1.389 . S
C494 C499 1.391 . S
C495 H481 0.941 . S
C495 C494 1.389 . S
C495 C496 1.397 . S
C496 H482 0.939 . S
C496 C495 1.397 . S
C496 C497 1.378 . S
C497 C496 1.378 . S
C497 C498 1.378 . S
C498 H483 0.940 . S
C498 C497 1.378 . S
C498 C499 1.396 . S
C499 H484 0.940 . S
C499 C494 1.391 . S
C499 C498 1.396 . S
C500 P480 1.803 . S
C500 C501 1.378 . S
C500 C505 1.400 . S
C501 H485 0.939 . S
C501 C500 1.378 . S
C501 C502 1.361 . S
C502 H486 0.942 . S
C502 C501 1.361 . S
C502 C503 1.369 . S
C503 C502 1.369 . S
C503 C504 1.404 . S
C504 H487 0.940 . S
C504 C503 1.404 . S
C504 C505 1.389 . S
C505 H488 0.939 . S
C505 C500 1.400 . S
C505 C504 1.389 . S
C506 P480 1.819 . S
C506 C507 1.391 . S
C506 C511 1.391 . S
C507 H489 0.941 . S
C507 C506 1.391 . S
C507 C508 1.396 . S
C508 H492 0.939 . S
C508 C507 1.396 . S
C508 C509 1.397 . S
C509 C508 1.397 . S
C509 C510 1.385 . S
C510 H493 0.940 . S
C510 C509 1.385 . S
C510 C511 1.388 . S
C511 H490 0.939 . S
C511 C506 1.391 . S
C511 C510 1.388 . S
P512 O523 1.490 . S
P512 C526 1.812 . S
P512 C532 1.803 . S
P512 C538 1.819 . S
H513 C527 0.941 . S
H514 C528 0.939 . S
H515 C530 0.940 . S
H516 C531 0.940 . S
H517 C533 0.939 . S
H518 C534 0.942 . S
H519 C536 0.940 . S
H520 C537 0.939 . S
H521 C539 0.941 . S
H522 C543 0.939 . S
O523 P512 1.490 . S
H524 C540 0.939 . S
H525 C542 0.940 . S
C526 P512 1.812 . S
C526 C527 1.389 . S
C526 C531 1.391 . S
C527 H513 0.941 . S
C527 C526 1.389 . S
C527 C528 1.397 . S
C528 H514 0.939 . S
C528 C527 1.397 . S
C528 C529 1.378 . S
C529 C528 1.378 . S
C529 C530 1.378 . S
C530 H515 0.940 . S
C530 C529 1.378 . S
C530 C531 1.396 . S
C531 H516 0.940 . S
C531 C526 1.391 . S
C531 C530 1.396 . S
C532 P512 1.803 . S
C532 C533 1.378 . S
C532 C537 1.400 . S
C533 H517 0.939 . S
C533 C532 1.378 . S
C533 C534 1.361 . S
C534 H518 0.942 . S
C534 C533 1.361 . S
C534 C535 1.369 . S
C535 C534 1.369 . S
C535 C536 1.404 . S
C536 H519 0.940 . S
C536 C535 1.404 . S
C536 C537 1.389 . S
C537 H520 0.939 . S
C537 C532 1.400 . S
C537 C536 1.389 . S
C538 P512 1.819 . S
C538 C539 1.391 . S
C538 C543 1.391 . S
C539 H521 0.941 . S
C539 C538 1.391 . S
C539 C540 1.396 . S
C540 H524 0.939 . S
C540 C539 1.396 . S
C540 C541 1.397 . S
C541 C540 1.397 . S
C541 C542 1.385 . S
C542 H525 0.940 . S
C542 C541 1.385 . S
C542 C543 1.388 . S
C543 H522 0.939 . S
C543 C538 1.391 . S
C543 C542 1.388 . S
P544 O555 1.490 . S
P544 C558 1.812 . S
P544 C564 1.803 . S
P544 C570 1.819 . S
H545 C559 0.941 . S
H546 C560 0.939 . S
H547 C562 0.940 . S
H548 C563 0.940 . S
H549 C565 0.939 . S
H550 C566 0.942 . S
H551 C568 0.940 . S
H552 C569 0.939 . S
H553 C571 0.941 . S
H554 C575 0.939 . S
O555 P544 1.490 . S
H556 C572 0.939 . S
H557 C574 0.940 . S
C558 P544 1.812 . S
C558 C559 1.389 . S
C558 C563 1.391 . S
C559 H545 0.941 . S
C559 C558 1.389 . S
C559 C560 1.397 . S
C560 H546 0.939 . S
C560 C559 1.397 . S
C560 C561 1.378 . S
C561 C560 1.378 . S
C561 C562 1.378 . S
C562 H547 0.940 . S
C562 C561 1.378 . S
C562 C563 1.396 . S
C563 H548 0.940 . S
C563 C558 1.391 . S
C563 C562 1.396 . S
C564 P544 1.803 . S
C564 C565 1.378 . S
C564 C569 1.400 . S
C565 H549 0.939 . S
C565 C564 1.378 . S
C565 C566 1.361 . S
C566 H550 0.942 . S
C566 C565 1.361 . S
C566 C567 1.369 . S
C567 C566 1.369 . S
C567 C568 1.404 . S
C568 H551 0.940 . S
C568 C567 1.404 . S
C568 C569 1.389 . S
C569 H552 0.939 . S
C569 C564 1.400 . S
C569 C568 1.389 . S
C570 P544 1.819 . S
C570 C571 1.391 . S
C570 C575 1.391 . S
C571 H553 0.941 . S
C571 C570 1.391 . S
C571 C572 1.396 . S
C572 H556 0.939 . S
C572 C571 1.396 . S
C572 C573 1.397 . S
C573 C572 1.397 . S
C573 C574 1.385 . S
C574 H557 0.940 . S
C574 C573 1.385 . S
C574 C575 1.388 . S
C575 H554 0.939 . S
C575 C570 1.391 . S
C575 C574 1.388 . S
Eu576 C585 2.828 . S
Eu576 O587 2.406 . S
Eu576 O589 2.418 . S
Eu576 O594 2.373 1_565 S
Eu576 O597 2.488 . S
Eu576 O598 2.471 1_565 S
Eu576 O599 2.349 1_565 S
Eu577 O586 2.373 1_545 S
Eu577 O590 2.488 . S
Eu577 O591 2.471 1_545 S
Eu577 O592 2.349 1_545 S
Eu577 O595 2.392 . S
Eu577 O596 2.418 . S
Eu577 C606 2.828 . S
C578 O596 1.253 . S
C578 O599 1.261 1_554 S
C579 C580 1.379 1_565 S
C579 C583 1.373 . S
C579 C585 1.505 . S
C580 C579 1.379 1_545 S
C580 C582 1.369 . S
C580 H608 0.930 . S
C581 C583 1.383 . S
C581 C584 1.382 1_565 S
C581 H609 0.930 . S
C582 C580 1.369 . S
C582 C584 1.392 . S
C582 H610 0.930 . S
C583 C579 1.373 . S
C583 C581 1.383 . S
C583 H611 0.931 . S
C584 C581 1.382 1_545 S
C584 C582 1.392 . S
C585 Eu576 2.828 . S
C585 C579 1.505 . S
C585 O597 1.249 . S
C585 O598 1.244 1_565 S
O586 Eu577 2.373 1_565 S
O586 C588 1.258 . S
O587 Eu576 2.406 . S
O587 C588 1.226 1_556 S
C588 O586 1.258 . S
C588 O587 1.226 1_554 S
O589 Eu576 2.418 . S
O589 C593 1.244 1_556 S
O590 Eu577 2.488 . S
O590 C606 1.249 . S
O591 Eu577 2.471 1_565 S
O591 C606 1.244 1_565 S
O592 Eu577 2.349 1_565 S
O592 C593 1.265 . S
C593 O589 1.244 1_554 S
C593 O592 1.265 . S
O594 Eu576 2.373 1_545 S
O594 C607 1.258 . S
O595 Eu577 2.392 . S
O595 C607 1.242 1_554 S
O596 Eu577 2.418 . S
O596 C578 1.253 . S
O597 Eu576 2.488 . S
O597 C585 1.249 . S
O598 Eu576 2.471 1_545 S
O598 C585 1.244 1_545 S
O599 Eu576 2.349 1_545 S
O599 C578 1.261 1_556 S
C600 C601 1.379 1_545 S
C600 C604 1.373 . S
C600 C606 1.505 . S
C601 C600 1.379 1_565 S
C601 C603 1.369 . S
C601 H612 0.930 . S
C602 C604 1.383 . S
C602 C605 1.382 1_545 S
C602 H613 0.930 . S
C603 C601 1.369 . S
C603 C605 1.392 . S
C603 H614 0.930 . S
C604 C600 1.373 . S
C604 C602 1.383 . S
C604 H615 0.931 . S
C605 C602 1.382 1_565 S
C605 C603 1.392 . S
C606 Eu577 2.828 . S
C606 O590 1.249 . S
C606 O591 1.244 1_545 S
C606 C600 1.505 . S
C607 O594 1.258 . S
C607 O595 1.242 1_556 S
H608 C580 0.930 . S
H609 C581 0.930 . S
H610 C582 0.930 . S
H611 C583 0.931 . S
H612 C601 0.930 . S
H613 C602 0.930 . S
H614 C603 0.930 . S
H615 C604 0.931 . S
Eu616 C625 2.828 . S
Eu616 O627 2.392 1_556 S
Eu616 O629 2.418 . S
Eu616 O634 2.373 1_455 S
Eu616 O637 2.488 . S
Eu616 O638 2.471 1_455 S
Eu616 O639 2.349 1_455 S
Eu617 O626 2.373 1_655 S
Eu617 O630 2.488 . S
Eu617 O631 2.471 1_655 S
Eu617 O632 2.349 1_655 S
Eu617 O635 2.392 . S
Eu617 O636 2.418 . S
Eu617 C646 2.828 . S
C618 O636 1.244 1_556 S
C618 O639 1.265 . S
C619 C620 1.369 1_455 S
C619 C623 1.379 . S
C619 C625 1.510 . S
C620 C619 1.369 1_655 S
C620 C622 1.369 . S
C620 H648 0.930 . S
C621 C623 1.383 . S
C621 C624 1.382 1_455 S
C621 H649 0.930 . S
C622 C620 1.369 . S
C622 C624 1.392 . S
C622 H650 0.930 . S
C623 C619 1.379 . S
C623 C621 1.383 . S
C623 H651 0.931 . S
C624 C621 1.382 1_655 S
C624 C622 1.392 . S
C625 Eu616 2.828 . S
C625 C619 1.510 . S
C625 O637 1.249 . S
C625 O638 1.244 1_455 S
O626 Eu617 2.373 1_455 S
O626 C628 1.258 . S
O627 Eu616 2.392 1_554 S
O627 C628 1.242 . S
C628 O626 1.258 . S
C628 O627 1.242 . S
O629 Eu616 2.418 . S
O629 C633 1.244 1_556 S
O630 Eu617 2.488 . S
O630 C646 1.249 . S
O631 Eu617 2.471 1_455 S
O631 C646 1.244 1_455 S
O632 Eu617 2.349 1_455 S
O632 C633 1.265 . S
C633 O629 1.244 1_554 S
C633 O632 1.265 . S
O634 Eu616 2.373 1_655 S
O634 C647 1.258 . S
O635 Eu617 2.392 . S
O635 C647 1.242 1_554 S
O636 Eu617 2.418 . S
O636 C618 1.244 1_554 S
O637 Eu616 2.488 . S
O637 C625 1.249 . S
O638 Eu616 2.471 1_655 S
O638 C625 1.244 1_655 S
O639 Eu616 2.349 1_655 S
O639 C618 1.265 . S
C640 C641 1.379 . S
C640 C644 1.373 1_455 S
C640 C646 1.505 1_455 S
C641 C640 1.379 . S
C641 C643 1.369 . S
C641 H652 0.930 . S
C642 C644 1.383 . S
C642 C645 1.382 1_655 S
C642 H653 0.930 . S
C643 C641 1.369 . S
C643 C645 1.392 . S
C643 H654 0.930 . S
C644 C640 1.373 1_655 S
C644 C642 1.383 . S
C644 H655 0.931 . S
C645 C642 1.382 1_455 S
C645 C643 1.392 . S
C646 Eu617 2.828 . S
C646 O630 1.249 . S
C646 O631 1.244 1_655 S
C646 C640 1.505 1_655 S
C647 O634 1.258 . S
C647 O635 1.242 1_556 S
H648 C620 0.930 . S
H649 C621 0.930 . S
H650 C622 0.930 . S
H651 C623 0.931 . S
H652 C641 0.930 . S
H653 C642 0.930 . S
H654 C643 0.930 . S
H655 C644 0.931 . S
Eu656 C665 2.828 . S
Eu656 O667 2.392 . S
Eu656 O669 2.418 . S
Eu656 O674 2.373 . S
Eu656 O677 2.488 . S
Eu656 O678 2.471 . S
Eu656 O679 2.349 . S
Eu657 O666 2.373 . S
Eu657 O670 2.488 . S
Eu657 O671 2.471 . S
Eu657 O672 2.349 . S
Eu657 O675 2.392 1_556 S
Eu657 O676 2.418 . S
Eu657 C686 2.828 . S
C658 O676 1.244 1_554 S
C658 O679 1.265 . S
C659 C660 1.379 . S
C659 C663 1.373 . S
C659 C665 1.505 . S
C660 C659 1.379 . S
C660 C662 1.369 . S
C660 H688 0.930 . S
C661 C663 1.383 . S
C661 C664 1.382 . S
C661 H689 0.930 . S
C662 C660 1.369 . S
C662 C664 1.392 . S
C662 H690 0.930 . S
C663 C659 1.373 . S
C663 C661 1.383 . S
C663 H691 0.931 . S
C664 C661 1.382 . S
C664 C662 1.392 . S
C665 Eu656 2.828 . S
C665 C659 1.505 . S
C665 O677 1.249 . S
C665 O678 1.244 . S
O666 Eu657 2.373 . S
O666 C668 1.258 . S
O667 Eu656 2.392 . S
O667 C668 1.242 1_554 S
C668 O666 1.258 . S
C668 O667 1.242 1_556 S
O669 Eu656 2.418 . S
O669 C673 1.244 1_554 S
O670 Eu657 2.488 . S
O670 C686 1.249 . S
O671 Eu657 2.471 . S
O671 C686 1.244 . S
O672 Eu657 2.349 . S
O672 C673 1.265 . S
C673 O669 1.244 1_556 S
C673 O672 1.265 . S
O674 Eu656 2.373 . S
O674 C687 1.258 . S
O675 Eu657 2.392 1_554 S
O675 C687 1.242 . S
O676 Eu657 2.418 . S
O676 C658 1.244 1_556 S
O677 Eu656 2.488 . S
O677 C665 1.249 . S
O678 Eu656 2.471 . S
O678 C665 1.244 . S
O679 Eu656 2.349 . S
O679 C658 1.265 . S
C680 C681 1.379 . S
C680 C684 1.373 . S
C680 C686 1.505 . S
C681 C680 1.379 . S
C681 C683 1.369 . S
C681 H692 0.930 . S
C682 C684 1.383 . S
C682 C685 1.382 . S
C682 H693 0.930 . S
C683 C681 1.369 . S
C683 C685 1.392 . S
C683 H694 0.930 . S
C684 C680 1.373 . S
C684 C682 1.383 . S
C684 H695 0.931 . S
C685 C682 1.382 . S
C685 C683 1.392 . S
C686 Eu657 2.828 . S
C686 O670 1.249 . S
C686 O671 1.244 . S
C686 C680 1.505 . S
C687 O674 1.258 . S
C687 O675 1.242 . S
H688 C660 0.930 . S
H689 C661 0.930 . S
H690 C662 0.930 . S
H691 C663 0.931 . S
H692 C681 0.930 . S
H693 C682 0.930 . S
H694 C683 0.930 . S
H695 C684 0.931 . S
Eu696 C705 2.828 . S
Eu696 O707 2.392 . S
Eu696 O709 2.418 . S
Eu696 O714 2.373 . S
Eu696 O717 2.488 . S
Eu696 O718 2.471 . S
Eu696 O719 2.349 . S
Eu697 O706 2.373 . S
Eu697 O710 2.488 . S
Eu697 O711 2.471 . S
Eu697 O712 2.349 . S
Eu697 O715 2.392 . S
Eu697 O716 2.418 . S
Eu697 C726 2.828 . S
C698 O716 1.244 . S
C698 O719 1.265 . S
C699 C700 1.379 . S
C699 C703 1.373 . S
C699 C705 1.505 . S
C700 C699 1.379 . S
C700 C702 1.369 . S
C700 H728 0.930 . S
C701 C703 1.383 . S
C701 C704 1.382 . S
C701 H729 0.930 . S
C702 C700 1.369 . S
C702 C704 1.392 . S
C702 H730 0.930 . S
C703 C699 1.373 . S
C703 C701 1.383 . S
C703 H731 0.931 . S
C704 C701 1.382 . S
C704 C702 1.392 . S
C705 Eu696 2.828 . S
C705 C699 1.505 . S
C705 O717 1.249 . S
C705 O718 1.244 . S
O706 Eu697 2.373 . S
O706 C708 1.258 . S
O707 Eu696 2.392 . S
O707 C708 1.242 . S
C708 O706 1.258 . S
C708 O707 1.242 . S
O709 Eu696 2.418 . S
O709 C713 1.244 . S
O710 Eu697 2.488 . S
O710 C726 1.249 . S
O711 Eu697 2.471 . S
O711 C726 1.244 . S
O712 Eu697 2.349 . S
O712 C713 1.265 . S
C713 O709 1.244 . S
C713 O712 1.265 . S
O714 Eu696 2.373 . S
O714 C727 1.258 . S
O715 Eu697 2.392 . S
O715 C727 1.242 . S
O716 Eu697 2.418 . S
O716 C698 1.244 . S
O717 Eu696 2.488 . S
O717 C705 1.249 . S
O718 Eu696 2.471 . S
O718 C705 1.244 . S
O719 Eu696 2.349 . S
O719 C698 1.265 . S
C720 C721 1.379 . S
C720 C724 1.373 . S
C720 C726 1.505 . S
C721 C720 1.379 . S
C721 C723 1.369 . S
C721 H732 0.930 . S
C722 C724 1.383 . S
C722 C725 1.382 . S
C722 H733 0.930 . S
C723 C721 1.369 . S
C723 C725 1.392 . S
C723 H734 0.930 . S
C724 C720 1.373 . S
C724 C722 1.383 . S
C724 H735 0.931 . S
C725 C722 1.382 . S
C725 C723 1.392 . S
C726 Eu697 2.828 . S
C726 O710 1.249 . S
C726 O711 1.244 . S
C726 C720 1.505 . S
C727 O714 1.258 . S
C727 O715 1.242 . S
H728 C700 0.930 . S
H729 C701 0.930 . S
H730 C702 0.930 . S
H731 C703 0.931 . S
H732 C721 0.930 . S
H733 C722 0.930 . S
H734 C723 0.930 . S
H735 C724 0.931 . S
Eu736 C745 2.828 . S
Eu736 O747 2.392 . S
Eu736 O749 2.418 . S
Eu736 O754 2.373 . S
Eu736 O757 2.488 . S
Eu736 O758 2.471 . S
Eu736 O759 2.349 . S
Eu737 O746 2.373 . S
Eu737 O750 2.488 . S
Eu737 O751 2.471 . S
Eu737 O752 2.349 . S
Eu737 O755 2.392 . S
Eu737 O756 2.418 . S
Eu737 C766 2.828 . S
C738 O756 1.244 . S
C738 O759 1.265 . S
C739 C740 1.379 . S
C739 C743 1.373 . S
C739 C745 1.505 . S
C740 C739 1.379 . S
C740 C742 1.369 . S
C740 H768 0.930 . S
C741 C743 1.383 . S
C741 C744 1.382 . S
C741 H769 0.930 . S
C742 C740 1.369 . S
C742 C744 1.392 . S
C742 H770 0.930 . S
C743 C739 1.373 . S
C743 C741 1.383 . S
C743 H771 0.931 . S
C744 C741 1.382 . S
C744 C742 1.392 . S
C745 Eu736 2.828 . S
C745 C739 1.505 . S
C745 O757 1.249 . S
C745 O758 1.244 . S
O746 Eu737 2.373 . S
O746 C748 1.258 . S
O747 Eu736 2.392 . S
O747 C748 1.242 . S
C748 O746 1.258 . S
C748 O747 1.242 . S
O749 Eu736 2.418 . S
O749 C753 1.244 . S
O750 Eu737 2.488 . S
O750 C766 1.249 . S
O751 Eu737 2.471 . S
O751 C766 1.244 . S
O752 Eu737 2.349 . S
O752 C753 1.265 . S
C753 O749 1.244 . S
C753 O752 1.265 . S
O754 Eu736 2.373 . S
O754 C767 1.258 . S
O755 Eu737 2.392 . S
O755 C767 1.242 . S
O756 Eu737 2.418 . S
O756 C738 1.244 . S
O757 Eu736 2.488 . S
O757 C745 1.249 . S
O758 Eu736 2.471 . S
O758 C745 1.244 . S
O759 Eu736 2.349 . S
O759 C738 1.265 . S
C760 C761 1.379 . S
C760 C764 1.373 . S
C760 C766 1.505 . S
C761 C760 1.379 . S
C761 C763 1.369 . S
C761 H772 0.930 . S
C762 C764 1.383 . S
C762 C765 1.382 . S
C762 H773 0.930 . S
C763 C761 1.369 . S
C763 C765 1.392 . S
C763 H774 0.930 . S
C764 C760 1.373 . S
C764 C762 1.383 . S
C764 H775 0.931 . S
C765 C762 1.382 . S
C765 C763 1.392 . S
C766 Eu737 2.828 . S
C766 O750 1.249 . S
C766 O751 1.244 . S
C766 C760 1.505 . S
C767 O754 1.258 . S
C767 O755 1.242 . S
H768 C740 0.930 . S
H769 C741 0.930 . S
H770 C742 0.930 . S
H771 C743 0.931 . S
H772 C761 0.930 . S
H773 C762 0.930 . S
H774 C763 0.930 . S
H775 C764 0.931 . S
Eu776 C785 2.828 . S
Eu776 O787 2.392 . S
Eu776 O789 2.418 . S
Eu776 O794 2.373 . S
Eu776 O797 2.488 . S
Eu776 O798 2.471 . S
Eu776 O799 2.349 . S
Eu777 O786 2.373 . S
Eu777 O790 2.488 . S
Eu777 O791 2.471 . S
Eu777 O792 2.349 . S
Eu777 O795 2.392 . S
Eu777 O796 2.418 . S
Eu777 C806 2.828 . S
C778 O796 1.244 . S
C778 O799 1.265 . S
C779 C780 1.379 . S
C779 C783 1.373 . S
C779 C785 1.505 . S
C780 C779 1.379 . S
C780 C782 1.369 . S
C780 H808 0.930 . S
C781 C783 1.383 . S
C781 C784 1.382 . S
C781 H809 0.930 . S
C782 C780 1.369 . S
C782 C784 1.392 . S
C782 H810 0.930 . S
C783 C779 1.373 . S
C783 C781 1.383 . S
C783 H811 0.931 . S
C784 C781 1.382 . S
C784 C782 1.392 . S
C785 Eu776 2.828 . S
C785 C779 1.505 . S
C785 O797 1.249 . S
C785 O798 1.244 . S
O786 Eu777 2.373 . S
O786 C788 1.258 . S
O787 Eu776 2.392 . S
O787 C788 1.242 . S
C788 O786 1.258 . S
C788 O787 1.242 . S
O789 Eu776 2.418 . S
O789 C793 1.244 . S
O790 Eu777 2.488 . S
O790 C806 1.249 . S
O791 Eu777 2.471 . S
O791 C806 1.244 . S
O792 Eu777 2.349 . S
O792 C793 1.265 . S
C793 O789 1.244 . S
C793 O792 1.265 . S
O794 Eu776 2.373 . S
O794 C807 1.258 . S
O795 Eu777 2.392 . S
O795 C807 1.242 . S
O796 Eu777 2.418 . S
O796 C778 1.244 . S
O797 Eu776 2.488 . S
O797 C785 1.249 . S
O798 Eu776 2.471 . S
O798 C785 1.244 . S
O799 Eu776 2.349 . S
O799 C778 1.265 . S
C800 C801 1.379 . S
C800 C804 1.373 . S
C800 C806 1.505 . S
C801 C800 1.379 . S
C801 C803 1.369 . S
C801 H812 0.930 . S
C802 C804 1.383 . S
C802 C805 1.382 . S
C802 H813 0.930 . S
C803 C801 1.369 . S
C803 C805 1.392 . S
C803 H814 0.930 . S
C804 C800 1.373 . S
C804 C802 1.383 . S
C804 H815 0.931 . S
C805 C802 1.382 . S
C805 C803 1.392 . S
C806 Eu777 2.828 . S
C806 O790 1.249 . S
C806 O791 1.244 . S
C806 C800 1.505 . S
C807 O794 1.258 . S
C807 O795 1.242 . S
H808 C780 0.930 . S
H809 C781 0.930 . S
H810 C782 0.930 . S
H811 C783 0.931 . S
H812 C801 0.930 . S
H813 C802 0.930 . S
H814 C803 0.930 . S
H815 C804 0.931 . S
Eu816 C825 2.828 . S
Eu816 O827 2.392 . S
Eu816 O829 2.418 . S
Eu816 O834 2.373 . S
Eu816 O837 2.488 . S
Eu816 O838 2.471 . S
Eu816 O839 2.349 . S
Eu817 O826 2.373 . S
Eu817 O830 2.488 . S
Eu817 O831 2.471 . S
Eu817 O832 2.349 . S
Eu817 O835 2.392 . S
Eu817 O836 2.418 . S
Eu817 C846 2.828 . S
C818 O836 1.244 . S
C818 O839 1.265 . S
C819 C820 1.379 . S
C819 C823 1.373 . S
C819 C825 1.505 . S
C820 C819 1.379 . S
C820 C822 1.369 . S
C820 H848 0.930 . S
C821 C823 1.383 . S
C821 C824 1.382 . S
C821 H849 0.930 . S
C822 C820 1.369 . S
C822 C824 1.392 . S
C822 H850 0.930 . S
C823 C819 1.373 . S
C823 C821 1.383 . S
C823 H851 0.931 . S
C824 C821 1.382 . S
C824 C822 1.392 . S
C825 Eu816 2.828 . S
C825 C819 1.505 . S
C825 O837 1.249 . S
C825 O838 1.244 . S
O826 Eu817 2.373 . S
O826 C828 1.258 . S
O827 Eu816 2.392 . S
O827 C828 1.242 . S
C828 O826 1.258 . S
C828 O827 1.242 . S
O829 Eu816 2.418 . S
O829 C833 1.244 . S
O830 Eu817 2.488 . S
O830 C846 1.249 . S
O831 Eu817 2.471 . S
O831 C846 1.244 . S
O832 Eu817 2.349 . S
O832 C833 1.265 . S
C833 O829 1.244 . S
C833 O832 1.265 . S
O834 Eu816 2.373 . S
O834 C847 1.258 . S
O835 Eu817 2.392 . S
O835 C847 1.242 . S
O836 Eu817 2.418 . S
O836 C818 1.244 . S
O837 Eu816 2.488 . S
O837 C825 1.249 . S
O838 Eu816 2.471 . S
O838 C825 1.244 . S
O839 Eu816 2.349 . S
O839 C818 1.265 . S
C840 C841 1.379 . S
C840 C844 1.373 . S
C840 C846 1.505 . S
C841 C840 1.379 . S
C841 C843 1.369 . S
C841 H852 0.930 . S
C842 C844 1.383 . S
C842 C845 1.382 . S
C842 H853 0.930 . S
C843 C841 1.369 . S
C843 C845 1.392 . S
C843 H854 0.930 . S
C844 C840 1.373 . S
C844 C842 1.383 . S
C844 H855 0.931 . S
C845 C842 1.382 . S
C845 C843 1.392 . S
C846 Eu817 2.828 . S
C846 O830 1.249 . S
C846 O831 1.244 . S
C846 C840 1.505 . S
C847 O834 1.258 . S
C847 O835 1.242 . S
H848 C820 0.930 . S
H849 C821 0.930 . S
H850 C822 0.930 . S
H851 C823 0.931 . S
H852 C841 0.930 . S
H853 C842 0.930 . S
H854 C843 0.930 . S
H855 C844 0.931 . S
Eu856 C865 2.828 . S
Eu856 O867 2.392 . S
Eu856 O869 2.418 . S
Eu856 O874 2.373 . S
Eu856 O877 2.488 . S
Eu856 O878 2.471 . S
Eu856 O879 2.349 . S
Eu857 O866 2.373 . S
Eu857 O870 2.488 . S
Eu857 O871 2.471 . S
Eu857 O872 2.349 . S
Eu857 O875 2.392 . S
Eu857 O876 2.418 . S
Eu857 C886 2.828 . S
C858 O876 1.244 . S
C858 O879 1.265 . S
C859 C860 1.379 . S
C859 C863 1.373 . S
C859 C865 1.505 . S
C860 C859 1.379 . S
C860 C862 1.369 . S
C860 H888 0.930 . S
C861 C863 1.383 . S
C861 C864 1.382 . S
C861 H889 0.930 . S
C862 C860 1.369 . S
C862 C864 1.392 . S
C862 H890 0.930 . S
C863 C859 1.373 . S
C863 C861 1.383 . S
C863 H891 0.931 . S
C864 C861 1.382 . S
C864 C862 1.392 . S
C865 Eu856 2.828 . S
C865 C859 1.505 . S
C865 O877 1.249 . S
C865 O878 1.244 . S
O866 Eu857 2.373 . S
O866 C868 1.258 . S
O867 Eu856 2.392 . S
O867 C868 1.242 . S
C868 O866 1.258 . S
C868 O867 1.242 . S
O869 Eu856 2.418 . S
O869 C873 1.244 . S
O870 Eu857 2.488 . S
O870 C886 1.249 . S
O871 Eu857 2.471 . S
O871 C886 1.244 . S
O872 Eu857 2.349 . S
O872 C873 1.265 . S
C873 O869 1.244 . S
C873 O872 1.265 . S
O874 Eu856 2.373 . S
O874 C887 1.258 . S
O875 Eu857 2.392 . S
O875 C887 1.242 . S
O876 Eu857 2.418 . S
O876 C858 1.244 . S
O877 Eu856 2.488 . S
O877 C865 1.249 . S
O878 Eu856 2.471 . S
O878 C865 1.244 . S
O879 Eu856 2.349 . S
O879 C858 1.265 . S
C880 C881 1.379 . S
C880 C884 1.373 . S
C880 C886 1.505 . S
C881 C880 1.379 . S
C881 C883 1.369 . S
C881 H892 0.930 . S
C882 C884 1.383 . S
C882 C885 1.382 . S
C882 H893 0.930 . S
C883 C881 1.369 . S
C883 C885 1.392 . S
C883 H894 0.930 . S
C884 C880 1.373 . S
C884 C882 1.383 . S
C884 H895 0.931 . S
C885 C882 1.382 . S
C885 C883 1.392 . S
C886 Eu857 2.828 . S
C886 O870 1.249 . S
C886 O871 1.244 . S
C886 C880 1.505 . S
C887 O874 1.258 . S
C887 O875 1.242 . S
H888 C860 0.930 . S
H889 C861 0.930 . S
H890 C862 0.930 . S
H891 C863 0.931 . S
H892 C881 0.930 . S
H893 C882 0.930 . S
H894 C883 0.930 . S
H895 C884 0.931 . S
Eu896 C905 2.828 . S
Eu896 O907 2.392 . S
Eu896 O909 2.418 . S
Eu896 O914 2.373 . S
Eu896 O917 2.488 . S
Eu896 O918 2.471 . S
Eu896 O919 2.349 . S
Eu897 O906 2.373 . S
Eu897 O910 2.488 . S
Eu897 O911 2.471 . S
Eu897 O912 2.349 . S
Eu897 O915 2.392 . S
Eu897 O916 2.418 . S
Eu897 C926 2.828 . S
C898 O916 1.244 . S
C898 O919 1.265 . S
C899 C900 1.379 . S
C899 C903 1.373 . S
C899 C905 1.505 . S
C900 C899 1.379 . S
C900 C902 1.369 . S
C900 H928 0.930 . S
C901 C903 1.383 . S
C901 C904 1.382 . S
C901 H929 0.930 . S
C902 C900 1.369 . S
C902 C904 1.392 . S
C902 H930 0.930 . S
C903 C899 1.373 . S
C903 C901 1.383 . S
C903 H931 0.931 . S
C904 C901 1.382 . S
C904 C902 1.392 . S
C905 Eu896 2.828 . S
C905 C899 1.505 . S
C905 O917 1.249 . S
C905 O918 1.244 . S
O906 Eu897 2.373 . S
O906 C908 1.258 . S
O907 Eu896 2.392 . S
O907 C908 1.242 . S
C908 O906 1.258 . S
C908 O907 1.242 . S
O909 Eu896 2.418 . S
O909 C913 1.244 . S
O910 Eu897 2.488 . S
O910 C926 1.249 . S
O911 Eu897 2.471 . S
O911 C926 1.244 . S
O912 Eu897 2.349 . S
O912 C913 1.265 . S
C913 O909 1.244 . S
C913 O912 1.265 . S
O914 Eu896 2.373 . S
O914 C927 1.258 . S
O915 Eu897 2.392 . S
O915 C927 1.242 . S
O916 Eu897 2.418 . S
O916 C898 1.244 . S
O917 Eu896 2.488 . S
O917 C905 1.249 . S
O918 Eu896 2.471 . S
O918 C905 1.244 . S
O919 Eu896 2.349 . S
O919 C898 1.265 . S
C920 C921 1.379 . S
C920 C924 1.373 . S
C920 C926 1.505 . S
C921 C920 1.379 . S
C921 C923 1.369 . S
C921 H932 0.930 . S
C922 C924 1.383 . S
C922 C925 1.382 . S
C922 H933 0.930 . S
C923 C921 1.369 . S
C923 C925 1.392 . S
C923 H934 0.930 . S
C924 C920 1.373 . S
C924 C922 1.383 . S
C924 H935 0.931 . S
C925 C922 1.382 . S
C925 C923 1.392 . S
C926 Eu897 2.828 . S
C926 O910 1.249 . S
C926 O911 1.244 . S
C926 C920 1.505 . S
C927 O914 1.258 . S
C927 O915 1.242 . S
H928 C900 0.930 . S
H929 C901 0.930 . S
H930 C902 0.930 . S
H931 C903 0.931 . S
H932 C921 0.930 . S
H933 C922 0.930 . S
H934 C923 0.930 . S
H935 C924 0.931 . S
H936 C944 0.929 . S
H937 C946 0.930 . S
H938 C948 0.930 . S
H939 C951 0.929 . S
H940 C954 0.930 . S
H941 C956 0.960 . S
H942 C956 0.960 . S
H943 C956 0.960 . S
C944 H936 0.929 . S
C944 C945 1.377 . S
C944 C946 1.384 . S
C945 C944 1.377 . S
C945 C951 1.390 . S
C946 H937 0.930 . S
C946 C944 1.384 . S
C946 C947 1.372 . S
C947 C946 1.372 . S
C947 C948 1.400 . S
C947 C952 1.490 . S
C948 H938 0.930 . S
C948 C947 1.400 . S
C948 C951 1.386 . S
H949 C965 0.930 . S
H950 C966 0.931 . S
C951 H939 0.929 . S
C951 C945 1.390 . S
C951 C948 1.386 . S
C952 C947 1.490 . S
C952 C954 1.395 . S
C952 C955 1.403 . S
H953 C959 0.930 . S
C954 H940 0.930 . S
C954 C952 1.395 . S
C954 C957 1.403 . S
C955 C952 1.403 . S
C955 C956 1.524 . S
C955 C959 1.400 . S
C956 H941 0.960 . S
C956 H942 0.960 . S
C956 H943 0.960 . S
C956 C955 1.524 . S
C957 C954 1.403 . S
C957 C958 1.392 . S
C957 C961 1.495 . S
C958 C957 1.392 . S
C958 C959 1.385 . S
C958 C960 1.478 . S
C959 H953 0.930 . S
C959 C955 1.400 . S
C959 C958 1.385 . S
C960 C958 1.478 . S
C960 C962 1.381 . S
C960 C966 1.383 . S
C961 C957 1.495 . S
C961 H967 0.959 . S
C961 H968 0.961 . S
C961 H969 0.960 . S
C962 C960 1.381 . S
C962 C963 1.394 . S
C962 H970 0.930 . S
C963 C962 1.394 . S
C963 C964 1.383 . S
C963 H971 0.885 1_554 S
C964 C963 1.383 . S
C964 C965 1.377 . S
C965 H949 0.930 . S
C965 C964 1.377 . S
C965 C966 1.379 . S
C966 H950 0.931 . S
C966 C960 1.383 . S
C966 C965 1.379 . S
H967 C961 0.959 . S
H968 C961 0.961 . S
H969 C961 0.960 . S
H970 C962 0.930 . S
H971 C963 0.885 1_556 S
H972 C980 0.929 . S
H973 C982 0.930 . S
H974 C984 0.930 . S
H975 C987 0.929 . S
H976 C990 0.930 . S
H977 C992 0.960 . S
H978 C992 0.960 . S
H979 C992 0.960 . S
C980 H972 0.929 . S
C980 C981 1.377 . S
C980 C982 1.384 . S
C981 C980 1.377 . S
C981 C987 1.390 . S
C982 H973 0.930 . S
C982 C980 1.384 . S
C982 C983 1.372 . S
C983 C982 1.372 . S
C983 C984 1.400 . S
C983 C988 1.490 . S
C984 H974 0.930 . S
C984 C983 1.400 . S
C984 C987 1.386 . S
H985 C1001 0.930 . S
H986 C1002 0.931 . S
C987 H975 0.929 . S
C987 C981 1.390 . S
C987 C984 1.386 . S
C988 C983 1.490 . S
C988 C990 1.395 . S
C988 C991 1.403 . S
H989 C995 0.930 . S
C990 H976 0.930 . S
C990 C988 1.395 . S
C990 C993 1.403 . S
C991 C988 1.403 . S
C991 C992 1.524 . S
C991 C995 1.400 . S
C992 H977 0.960 . S
C992 H978 0.960 . S
C992 H979 0.960 . S
C992 C991 1.524 . S
C993 C990 1.403 . S
C993 C994 1.392 . S
C993 C997 1.495 . S
C994 C993 1.392 . S
C994 C995 1.385 . S
C994 C996 1.478 . S
C995 H989 0.930 . S
C995 C991 1.400 . S
C995 C994 1.385 . S
C996 C994 1.478 . S
C996 C998 1.381 . S
C996 C1002 1.383 . S
C997 C993 1.495 . S
C997 H1003 0.959 . S
C997 H1004 0.961 . S
C997 H1005 0.960 . S
C998 C996 1.381 . S
C998 C999 1.394 . S
C998 H1006 0.930 . S
C999 C998 1.394 . S
C999 C1000 1.383 . S
C999 H1007 0.929 . S
C1000 C999 1.383 . S
C1000 C1001 1.377 . S
C1001 H985 0.930 . S
C1001 C1000 1.377 . S
C1001 C1002 1.379 . S
C1002 H986 0.931 . S
C1002 C996 1.383 . S
C1002 C1001 1.379 . S
H1003 C997 0.959 . S
H1004 C997 0.961 . S
H1005 C997 0.960 . S
H1006 C998 0.930 . S
H1007 C999 0.929 . S
H1008 C1016 0.929 . S
H1009 C1018 0.930 . S
H1010 C1020 0.930 . S
H1011 C1023 0.929 . S
H1012 C1026 0.930 . S
H1013 C1028 0.960 . S
H1014 C1028 0.960 . S
H1015 C1028 0.960 . S
C1016 H1008 0.929 . S
C1016 C1017 1.377 . S
C1016 C1018 1.384 . S
C1017 C1016 1.377 . S
C1017 C1023 1.390 . S
C1018 H1009 0.930 . S
C1018 C1016 1.384 . S
C1018 C1019 1.372 . S
C1019 C1018 1.372 . S
C1019 C1020 1.400 . S
C1019 C1024 1.490 . S
C1020 H1010 0.930 . S
C1020 C1019 1.400 . S
C1020 C1023 1.386 . S
H1021 C1037 0.930 1_556 S
H1022 C1038 0.919 1_556 S
C1023 H1011 0.929 . S
C1023 C1017 1.390 . S
C1023 C1020 1.386 . S
C1024 C1019 1.490 . S
C1024 C1026 1.395 . S
C1024 C1027 1.403 . S
H1025 C1031 0.930 . S
C1026 H1012 0.930 . S
C1026 C1024 1.395 . S
C1026 C1029 1.403 . S
C1027 C1024 1.403 . S
C1027 C1028 1.524 . S
C1027 C1031 1.400 . S
C1028 H1013 0.960 . S
C1028 H1014 0.960 . S
C1028 H1015 0.960 . S
C1028 C1027 1.524 . S
C1029 C1026 1.403 . S
C1029 C1030 1.392 . S
C1029 C1033 1.495 . S
C1030 C1029 1.392 . S
C1030 C1031 1.385 . S
C1030 C1032 1.478 . S
C1031 H1025 0.930 . S
C1031 C1027 1.400 . S
C1031 C1030 1.385 . S
C1032 C1030 1.478 . S
C1032 C1034 1.381 . S
C1032 C1038 1.383 . S
C1033 C1029 1.495 . S
C1033 H1039 0.959 . S
C1033 H1040 0.961 . S
C1033 H1041 0.960 . S
C1034 C1032 1.381 . S
C1034 C1035 1.394 . S
C1034 H1042 0.930 . S
C1035 C1034 1.394 . S
C1035 C1036 1.383 . S
C1035 H1043 0.929 . S
C1036 C1035 1.383 . S
C1036 C1037 1.377 . S
C1037 H1021 0.930 1_554 S
C1037 C1036 1.377 . S
C1037 C1038 1.379 . S
C1038 H1022 0.919 1_554 S
C1038 C1032 1.383 . S
C1038 C1037 1.379 . S
H1039 C1033 0.959 . S
H1040 C1033 0.961 . S
H1041 C1033 0.960 . S
H1042 C1034 0.930 . S
H1043 C1035 0.929 . S
H1044 C1052 0.929 . S
H1045 C1054 0.930 . S
H1046 C1056 0.930 . S
H1047 C1059 0.929 . S
H1048 C1062 0.930 . S
H1049 C1064 0.960 . S
H1050 C1064 0.960 . S
H1051 C1064 0.960 . S
C1052 H1044 0.929 . S
C1052 C1053 1.377 . S
C1052 C1054 1.384 . S
C1053 C1052 1.377 . S
C1053 C1059 1.390 . S
C1054 H1045 0.930 . S
C1054 C1052 1.384 . S
C1054 C1055 1.372 . S
C1055 C1054 1.372 . S
C1055 C1056 1.400 . S
C1055 C1060 1.490 . S
C1056 H1046 0.930 . S
C1056 C1055 1.400 . S
C1056 C1059 1.386 . S
H1057 C1073 0.930 1_554 S
H1058 C1074 0.931 . S
C1059 H1047 0.929 . S
C1059 C1053 1.390 . S
C1059 C1056 1.386 . S
C1060 C1055 1.490 . S
C1060 C1062 1.395 . S
C1060 C1063 1.403 . S
H1061 C1067 0.930 . S
C1062 H1048 0.930 . S
C1062 C1060 1.395 . S
C1062 C1065 1.403 . S
C1063 C1060 1.403 . S
C1063 C1064 1.524 . S
C1063 C1067 1.400 . S
C1064 H1049 0.960 . S
C1064 H1050 0.960 . S
C1064 H1051 0.960 . S
C1064 C1063 1.524 . S
C1065 C1062 1.403 . S
C1065 C1066 1.392 . S
C1065 C1069 1.495 . S
C1066 C1065 1.392 . S
C1066 C1067 1.385 . S
C1066 C1068 1.478 . S
C1067 H1061 0.930 . S
C1067 C1063 1.400 . S
C1067 C1066 1.385 . S
C1068 C1066 1.478 . S
C1068 C1070 1.381 . S
C1068 C1074 1.383 . S
C1069 C1065 1.495 . S
C1069 H1075 0.959 . S
C1069 H1076 0.961 . S
C1069 H1077 0.960 . S
C1070 C1068 1.381 . S
C1070 C1071 1.394 . S
C1070 H1078 0.930 . S
C1071 C1070 1.394 . S
C1071 C1072 1.383 . S
C1071 H1079 0.929 . S
C1072 C1071 1.383 . S
C1072 C1073 1.377 . S
C1073 H1057 0.930 1_556 S
C1073 C1072 1.377 . S
C1073 C1074 1.379 . S
C1074 H1058 0.931 . S
C1074 C1068 1.383 . S
C1074 C1073 1.379 . S
H1075 C1069 0.959 . S
H1076 C1069 0.961 . S
H1077 C1069 0.960 . S
H1078 C1070 0.930 . S
H1079 C1071 0.929 . S
H1080 C1088 0.929 . S
H1081 C1090 0.930 . S
H1082 C1092 0.930 . S
H1083 C1095 0.929 . S
H1084 C1098 0.930 . S
H1085 C1100 0.960 . S
H1086 C1100 0.960 . S
H1087 C1100 0.960 . S
C1088 H1080 0.929 . S
C1088 C1089 1.377 . S
C1088 C1090 1.384 . S
C1089 C1088 1.377 . S
C1089 C1095 1.390 . S
C1090 H1081 0.930 . S
C1090 C1088 1.384 . S
C1090 C1091 1.372 . S
C1091 C1090 1.372 . S
C1091 C1092 1.400 . S
C1091 C1096 1.490 . S
C1092 H1082 0.930 . S
C1092 C1091 1.400 . S
C1092 C1095 1.386 . S
H1093 C1109 0.930 . S
H1094 C1110 0.931 . S
C1095 H1083 0.929 . S
C1095 C1089 1.390 . S
C1095 C1092 1.386 . S
C1096 C1091 1.490 . S
C1096 C1098 1.395 . S
C1096 C1099 1.403 . S
H1097 C1103 0.930 . S
C1098 H1084 0.930 . S
C1098 C1096 1.395 . S
C1098 C1101 1.403 . S
C1099 C1096 1.403 . S
C1099 C1100 1.524 . S
C1099 C1103 1.400 . S
C1100 H1085 0.960 . S
C1100 H1086 0.960 . S
C1100 H1087 0.960 . S
C1100 C1099 1.524 . S
C1101 C1098 1.403 . S
C1101 C1102 1.392 . S
C1101 C1105 1.495 . S
C1102 C1101 1.392 . S
C1102 C1103 1.385 . S
C1102 C1104 1.478 . S
C1103 H1097 0.930 . S
C1103 C1099 1.400 . S
C1103 C1102 1.385 . S
C1104 C1102 1.478 . S
C1104 C1106 1.381 . S
C1104 C1110 1.383 . S
C1105 C1101 1.495 . S
C1105 H1111 0.959 . S
C1105 H1112 0.961 . S
C1105 H1113 0.960 . S
C1106 C1104 1.381 . S
C1106 C1107 1.394 . S
C1106 H1114 0.930 . S
C1107 C1106 1.394 . S
C1107 C1108 1.383 . S
C1107 H1115 0.929 . S
C1108 C1107 1.383 . S
C1108 C1109 1.377 . S
C1109 H1093 0.930 . S
C1109 C1108 1.377 . S
C1109 C1110 1.379 . S
C1110 H1094 0.931 . S
C1110 C1104 1.383 . S
C1110 C1109 1.379 . S
H1111 C1105 0.959 . S
H1112 C1105 0.961 . S
H1113 C1105 0.960 . S
H1114 C1106 0.930 . S
H1115 C1107 0.929 . S
H1116 C1124 0.929 . S
H1117 C1126 0.930 . S
H1118 C1128 0.930 . S
H1119 C1131 0.929 . S
H1120 C1134 0.930 . S
H1121 C1136 0.960 1_554 S
H1122 C1136 0.943 1_554 S
H1123 C1136 0.960 . S
C1124 H1116 0.929 . S
C1124 C1125 1.377 . S
C1124 C1126 1.384 . S
C1125 C1124 1.377 . S
C1125 C1131 1.390 . S
C1126 H1117 0.930 . S
C1126 C1124 1.384 . S
C1126 C1127 1.372 . S
C1127 C1126 1.372 . S
C1127 C1128 1.400 . S
C1127 C1132 1.490 . S
C1128 H1118 0.930 . S
C1128 C1127 1.400 . S
C1128 C1131 1.386 . S
H1129 C1145 0.930 . S
H1130 C1146 0.931 . S
C1131 H1119 0.929 . S
C1131 C1125 1.390 . S
C1131 C1128 1.386 . S
C1132 C1127 1.490 . S
C1132 C1134 1.395 . S
C1132 C1135 1.403 . S
H1133 C1139 0.930 . S
C1134 H1120 0.930 . S
C1134 C1132 1.395 . S
C1134 C1137 1.403 . S
C1135 C1132 1.403 . S
C1135 C1136 1.524 . S
C1135 C1139 1.400 . S
C1136 H1121 0.960 1_556 S
C1136 H1122 0.943 1_556 S
C1136 H1123 0.960 . S
C1136 C1135 1.524 . S
C1137 C1134 1.403 . S
C1137 C1138 1.392 . S
C1137 C1141 1.495 . S
C1138 C1137 1.392 . S
C1138 C1139 1.385 . S
C1138 C1140 1.478 . S
C1139 H1133 0.930 . S
C1139 C1135 1.400 . S
C1139 C1138 1.385 . S
C1140 C1138 1.478 . S
C1140 C1142 1.381 . S
C1140 C1146 1.383 . S
C1141 C1137 1.495 . S
C1141 H1147 0.959 . S
C1141 H1148 0.961 . S
C1141 H1149 0.960 . S
C1142 C1140 1.381 . S
C1142 C1143 1.394 . S
C1142 H1150 0.930 . S
C1143 C1142 1.394 . S
C1143 C1144 1.383 . S
C1143 H1151 0.929 . S
C1144 C1143 1.383 . S
C1144 C1145 1.377 . S
C1145 H1129 0.930 . S
C1145 C1144 1.377 . S
C1145 C1146 1.379 . S
C1146 H1130 0.931 . S
C1146 C1140 1.383 . S
C1146 C1145 1.379 . S
H1147 C1141 0.959 . S
H1148 C1141 0.961 . S
H1149 C1141 0.960 . S
H1150 C1142 0.930 . S
H1151 C1143 0.929 . S
H1152 C1160 0.929 . S
H1153 C1162 0.930 . S
H1154 C1164 0.930 . S
H1155 C1167 0.929 . S
H1156 C1170 0.930 . S
H1157 C1172 0.960 . S
H1158 C1172 0.960 . S
H1159 C1172 0.960 . S
C1160 H1152 0.929 . S
C1160 C1161 1.377 . S
C1160 C1162 1.384 . S
C1161 C1160 1.377 . S
C1161 C1167 1.390 . S
C1162 H1153 0.930 . S
C1162 C1160 1.384 . S
C1162 C1163 1.372 . S
C1163 C1162 1.372 . S
C1163 C1164 1.400 . S
C1163 C1168 1.490 . S
C1164 H1154 0.930 . S
C1164 C1163 1.400 . S
C1164 C1167 1.386 . S
H1165 C1181 0.930 1_554 S
H1166 C1182 0.931 . S
C1167 H1155 0.929 . S
C1167 C1161 1.390 . S
C1167 C1164 1.386 . S
C1168 C1163 1.490 . S
C1168 C1170 1.395 . S
C1168 C1171 1.403 . S
H1169 C1175 0.930 . S
C1170 H1156 0.930 . S
C1170 C1168 1.395 . S
C1170 C1173 1.403 . S
C1171 C1168 1.403 . S
C1171 C1172 1.524 . S
C1171 C1175 1.400 . S
C1172 H1157 0.960 . S
C1172 H1158 0.960 . S
C1172 H1159 0.960 . S
C1172 C1171 1.524 . S
C1173 C1170 1.403 . S
C1173 C1174 1.392 . S
C1173 C1177 1.495 . S
C1174 C1173 1.392 . S
C1174 C1175 1.385 . S
C1174 C1176 1.478 . S
C1175 H1169 0.930 . S
C1175 C1171 1.400 . S
C1175 C1174 1.385 . S
C1176 C1174 1.478 . S
C1176 C1178 1.381 . S
C1176 C1182 1.383 . S
C1177 C1173 1.495 . S
C1177 H1183 0.959 . S
C1177 H1184 0.961 . S
C1177 H1185 0.960 . S
C1178 C1176 1.381 . S
C1178 C1179 1.394 . S
C1178 H1186 0.930 . S
C1179 C1178 1.394 . S
C1179 C1180 1.383 . S
C1179 H1187 0.929 . S
C1180 C1179 1.383 . S
C1180 C1181 1.377 . S
C1181 H1165 0.930 1_556 S
C1181 C1180 1.377 . S
C1181 C1182 1.379 . S
C1182 H1166 0.931 . S
C1182 C1176 1.383 . S
C1182 C1181 1.379 . S
H1183 C1177 0.959 . S
H1184 C1177 0.961 . S
H1185 C1177 0.960 . S
H1186 C1178 0.930 . S
H1187 C1179 0.929 . S
H1188 C1196 0.929 . S
H1189 C1198 0.930 . S
H1190 C1200 0.930 . S
H1191 C1203 0.929 . S
H1192 C1206 0.930 . S
H1193 C1208 0.960 . S
H1194 C1208 0.960 . S
H1195 C1208 0.960 . S
C1196 H1188 0.929 . S
C1196 C1197 1.377 . S
C1196 C1198 1.384 . S
C1197 C1196 1.377 . S
C1197 C1203 1.390 . S
C1198 H1189 0.930 . S
C1198 C1196 1.384 . S
C1198 C1199 1.372 . S
C1199 C1198 1.372 . S
C1199 C1200 1.400 . S
C1199 C1204 1.490 . S
C1200 H1190 0.930 . S
C1200 C1199 1.400 . S
C1200 C1203 1.386 . S
H1201 C1217 0.930 . S
H1202 C1218 0.931 . S
C1203 H1191 0.929 . S
C1203 C1197 1.390 . S
C1203 C1200 1.386 . S
C1204 C1199 1.490 . S
C1204 C1206 1.395 . S
C1204 C1207 1.403 . S
H1205 C1211 0.930 . S
C1206 H1192 0.930 . S
C1206 C1204 1.395 . S
C1206 C1209 1.403 . S
C1207 C1204 1.403 . S
C1207 C1208 1.524 . S
C1207 C1211 1.400 . S
C1208 H1193 0.960 . S
C1208 H1194 0.960 . S
C1208 H1195 0.960 . S
C1208 C1207 1.524 . S
C1209 C1206 1.403 . S
C1209 C1210 1.392 . S
C1209 C1213 1.495 . S
C1210 C1209 1.392 . S
C1210 C1211 1.385 . S
C1210 C1212 1.478 . S
C1211 H1205 0.930 . S
C1211 C1207 1.400 . S
C1211 C1210 1.385 . S
C1212 C1210 1.478 . S
C1212 C1214 1.381 . S
C1212 C1218 1.383 . S
C1213 C1209 1.495 . S
C1213 H1219 0.959 . S
C1213 H1220 0.961 . S
C1213 H1221 0.960 . S
C1214 C1212 1.381 . S
C1214 C1215 1.394 . S
C1214 H1222 0.930 . S
C1215 C1214 1.394 . S
C1215 C1216 1.383 . S
C1215 H1223 0.929 1_556 S
C1216 C1215 1.383 . S
C1216 C1217 1.377 . S
C1217 H1201 0.930 . S
C1217 C1216 1.377 . S
C1217 C1218 1.379 . S
C1218 H1202 0.931 . S
C1218 C1212 1.383 . S
C1218 C1217 1.379 . S
H1219 C1213 0.959 . S
H1220 C1213 0.961 . S
H1221 C1213 0.960 . S
H1222 C1214 0.930 . S
H1223 C1215 0.929 1_554 S
H1224 C1232 0.929 . S
H1225 C1234 0.930 . S
H1226 C1236 0.930 . S
H1227 C1239 0.929 . S
H1228 C1242 0.930 . S
H1229 C1244 0.960 . S
H1230 C1244 0.960 . S
H1231 C1244 0.960 . S
C1232 H1224 0.929 . S
C1232 C1233 1.377 . S
C1232 C1234 1.384 . S
C1233 C1232 1.377 . S
C1233 C1239 1.390 . S
C1234 H1225 0.930 . S
C1234 C1232 1.384 . S
C1234 C1235 1.372 . S
C1235 C1234 1.372 . S
C1235 C1236 1.400 . S
C1235 C1240 1.490 . S
C1236 H1226 0.930 . S
C1236 C1235 1.400 . S
C1236 C1239 1.386 . S
H1237 C1253 0.930 . S
H1238 C1254 0.931 . S
C1239 H1227 0.929 . S
C1239 C1233 1.390 . S
C1239 C1236 1.386 . S
C1240 C1235 1.490 . S
C1240 C1242 1.395 . S
C1240 C1243 1.403 . S
H1241 C1247 0.930 . S
C1242 H1228 0.930 . S
C1242 C1240 1.395 . S
C1242 C1245 1.403 . S
C1243 C1240 1.403 . S
C1243 C1244 1.524 . S
C1243 C1247 1.400 . S
C1244 H1229 0.960 . S
C1244 H1230 0.960 . S
C1244 H1231 0.960 . S
C1244 C1243 1.524 . S
C1245 C1242 1.403 . S
C1245 C1246 1.392 . S
C1245 C1249 1.439 1_556 S
C1246 C1245 1.392 . S
C1246 C1247 1.385 . S
C1246 C1248 1.478 . S
C1247 H1241 0.930 . S
C1247 C1243 1.400 . S
C1247 C1246 1.385 . S
C1248 C1246 1.478 . S
C1248 C1250 1.438 . S
C1248 C1254 1.383 . S
C1249 C1245 1.439 1_554 S
C1249 H1255 0.998 . S
C1249 H1256 0.919 1_554 S
C1249 H1257 1.030 . S
C1250 C1248 1.438 . S
C1250 C1251 1.391 1_556 S
C1250 H1258 0.879 1_556 S
C1251 C1250 1.391 1_554 S
C1251 C1252 1.383 1_554 S
C1251 H1259 0.929 . S
C1252 C1251 1.383 1_556 S
C1252 C1253 1.377 . S
C1253 H1237 0.930 . S
C1253 C1252 1.377 . S
C1253 C1254 1.379 . S
C1254 H1238 0.931 . S
C1254 C1248 1.383 . S
C1254 C1253 1.379 . S
H1255 C1249 0.998 . S
H1256 C1249 0.919 1_556 S
H1257 C1249 1.030 . S
H1258 C1250 0.879 1_554 S
H1259 C1251 0.929 . S
H1260 C1268 0.929 . S
H1261 C1270 0.930 . S
H1262 C1272 0.930 . S
H1263 C1275 0.929 . S
H1264 C1278 0.930 . S
H1265 C1280 0.960 . S
H1266 C1280 0.960 . S
H1267 C1280 0.960 . S
C1268 H1260 0.929 . S
C1268 C1269 1.377 . S
C1268 C1270 1.384 . S
C1269 C1268 1.377 . S
C1269 C1275 1.390 . S
C1270 H1261 0.930 . S
C1270 C1268 1.384 . S
C1270 C1271 1.372 . S
C1271 C1270 1.372 . S
C1271 C1272 1.400 . S
C1271 C1276 1.490 . S
C1272 H1262 0.930 . S
C1272 C1271 1.400 . S
C1272 C1275 1.386 . S
H1273 C1289 0.930 . S
H1274 C1290 0.931 . S
C1275 H1263 0.929 . S
C1275 C1269 1.390 . S
C1275 C1272 1.386 . S
C1276 C1271 1.490 . S
C1276 C1278 1.395 . S
C1276 C1279 1.403 . S
H1277 C1283 0.930 . S
C1278 H1264 0.930 . S
C1278 C1276 1.395 . S
C1278 C1281 1.403 . S
C1279 C1276 1.403 . S
C1279 C1280 1.524 . S
C1279 C1283 1.400 . S
C1280 H1265 0.960 . S
C1280 H1266 0.960 . S
C1280 H1267 0.960 . S
C1280 C1279 1.524 . S
C1281 C1278 1.403 . S
C1281 C1282 1.392 . S
C1281 C1285 1.495 . S
C1282 C1281 1.392 . S
C1282 C1283 1.385 . S
C1282 C1284 1.478 . S
C1283 H1277 0.930 . S
C1283 C1279 1.400 . S
C1283 C1282 1.385 . S
C1284 C1282 1.478 . S
C1284 C1286 1.381 . S
C1284 C1290 1.383 . S
C1285 C1281 1.495 . S
C1285 H1291 0.986 . S
C1285 H1292 0.961 . S
C1285 H1293 0.960 1_554 S
C1286 C1284 1.381 . S
C1286 C1287 1.394 . S
C1286 H1294 0.930 . S
C1287 C1286 1.394 . S
C1287 C1288 1.383 . S
C1287 H1295 0.929 1_554 S
C1288 C1287 1.383 . S
C1288 C1289 1.377 . S
C1289 H1273 0.930 . S
C1289 C1288 1.377 . S
C1289 C1290 1.379 . S
C1290 H1274 0.931 . S
C1290 C1284 1.383 . S
C1290 C1289 1.379 . S
H1291 C1285 0.986 . S
H1292 C1285 0.961 . S
H1293 C1285 0.960 1_556 S
H1294 C1286 0.930 . S
H1295 C1287 0.929 1_556 S
H1296 C1304 0.929 . S
H1297 C1306 0.930 . S
H1298 C1308 0.930 . S
H1299 C1311 0.929 . S
H1300 C1314 0.930 . S
H1301 C1316 0.960 . S
H1302 C1316 0.960 . S
H1303 C1316 0.960 . S
C1304 H1296 0.929 . S
C1304 C1305 1.377 . S
C1304 C1306 1.384 . S
C1305 C1304 1.377 . S
C1305 C1311 1.390 . S
C1306 H1297 0.930 . S
C1306 C1304 1.384 . S
C1306 C1307 1.372 . S
C1307 C1306 1.372 . S
C1307 C1308 1.400 . S
C1307 C1312 1.490 . S
C1308 H1298 0.930 . S
C1308 C1307 1.400 . S
C1308 C1311 1.386 . S
H1309 C1325 0.930 . S
H1310 C1326 0.931 . S
C1311 H1299 0.929 . S
C1311 C1305 1.390 . S
C1311 C1308 1.386 . S
C1312 C1307 1.490 . S
C1312 C1314 1.395 . S
C1312 C1315 1.403 . S
H1313 C1319 0.930 . S
C1314 H1300 0.930 . S
C1314 C1312 1.395 . S
C1314 C1317 1.403 . S
C1315 C1312 1.403 . S
C1315 C1316 1.524 . S
C1315 C1319 1.400 . S
C1316 H1301 0.960 . S
C1316 H1302 0.960 . S
C1316 H1303 0.960 . S
C1316 C1315 1.524 . S
C1317 C1314 1.403 . S
C1317 C1318 1.392 . S
C1317 C1321 1.495 . S
C1318 C1317 1.392 . S
C1318 C1319 1.385 . S
C1318 C1320 1.478 . S
C1319 H1313 0.930 . S
C1319 C1315 1.400 . S
C1319 C1318 1.385 . S
C1320 C1318 1.478 . S
C1320 C1322 1.381 . S
C1320 C1326 1.383 . S
C1321 C1317 1.495 . S
C1321 H1327 0.959 . S
C1321 H1328 0.961 . S
C1321 H1329 0.960 . S
C1322 C1320 1.381 . S
C1322 C1323 1.394 . S
C1322 H1330 0.930 . S
C1323 C1322 1.394 . S
C1323 C1324 1.383 . S
C1323 H1331 0.929 . S
C1324 C1323 1.383 . S
C1324 C1325 1.377 . S
C1325 H1309 0.930 . S
C1325 C1324 1.377 . S
C1325 C1326 1.379 . S
C1326 H1310 0.931 . S
C1326 C1320 1.383 . S
C1326 C1325 1.379 . S
H1327 C1321 0.959 . S
H1328 C1321 0.961 . S
H1329 C1321 0.960 . S
H1330 C1322 0.930 . S
H1331 C1323 0.929 . S
H1332 C1340 0.929 . S
H1333 C1342 0.930 . S
H1334 C1344 0.930 . S
H1335 C1347 0.929 . S
H1336 C1350 0.930 . S
H1337 C1352 0.960 . S
H1338 C1352 0.960 . S
H1339 C1352 0.960 . S
C1340 H1332 0.929 . S
C1340 C1341 1.377 . S
C1340 C1342 1.384 . S
C1341 C1340 1.377 . S
C1341 C1347 1.390 . S
C1342 H1333 0.930 . S
C1342 C1340 1.384 . S
C1342 C1343 1.372 . S
C1343 C1342 1.372 . S
C1343 C1344 1.400 . S
C1343 C1348 1.490 . S
C1344 H1334 0.930 . S
C1344 C1343 1.400 . S
C1344 C1347 1.386 . S
H1345 C1361 0.930 . S
H1346 C1362 0.931 . S
C1347 H1335 0.929 . S
C1347 C1341 1.390 . S
C1347 C1344 1.386 . S
C1348 C1343 1.490 . S
C1348 C1350 1.395 . S
C1348 C1351 1.403 . S
H1349 C1355 0.930 . S
C1350 H1336 0.930 . S
C1350 C1348 1.395 . S
C1350 C1353 1.403 . S
C1351 C1348 1.403 . S
C1351 C1352 1.524 . S
C1351 C1355 1.400 . S
C1352 H1337 0.960 . S
C1352 H1338 0.960 . S
C1352 H1339 0.960 . S
C1352 C1351 1.524 . S
C1353 C1350 1.403 . S
C1353 C1354 1.392 . S
C1353 C1357 1.495 . S
C1354 C1353 1.392 . S
C1354 C1355 1.385 . S
C1354 C1356 1.478 . S
C1355 H1349 0.930 . S
C1355 C1351 1.400 . S
C1355 C1354 1.385 . S
C1356 C1354 1.478 . S
C1356 C1358 1.381 . S
C1356 C1362 1.383 . S
C1357 C1353 1.495 . S
C1357 H1363 0.959 . S
C1357 H1364 0.961 . S
C1357 H1365 0.960 . S
C1358 C1356 1.381 . S
C1358 C1359 1.394 . S
C1358 H1366 0.930 . S
C1359 C1358 1.394 . S
C1359 C1360 1.383 . S
C1359 H1367 0.929 1_554 S
C1360 C1359 1.383 . S
C1360 C1361 1.377 . S
C1361 H1345 0.930 . S
C1361 C1360 1.377 . S
C1361 C1362 1.379 . S
C1362 H1346 0.931 . S
C1362 C1356 1.383 . S
C1362 C1361 1.379 . S
H1363 C1357 0.959 . S
H1364 C1357 0.961 . S
H1365 C1357 0.960 . S
H1366 C1358 0.930 . S
H1367 C1359 0.929 1_556 S
H1368 C1376 0.929 . S
H1369 C1378 0.930 . S
H1370 C1380 0.930 . S
H1371 C1383 0.929 . S
H1372 C1386 0.930 . S
H1373 C1388 0.960 . S
H1374 C1388 0.960 . S
H1375 C1388 0.960 1_655 S
C1376 H1368 0.929 . S
C1376 C1377 1.377 . S
C1376 C1378 1.384 . S
C1377 C1376 1.377 . S
C1377 C1383 1.390 . S
C1378 H1369 0.930 . S
C1378 C1376 1.384 . S
C1378 C1379 1.372 . S
C1379 C1378 1.372 . S
C1379 C1380 1.400 . S
C1379 C1384 1.490 1_655 S
C1380 H1370 0.930 . S
C1380 C1379 1.400 . S
C1380 C1383 1.386 . S
H1381 C1397 0.930 . S
H1382 C1398 0.931 . S
C1383 H1371 0.929 . S
C1383 C1377 1.390 . S
C1383 C1380 1.386 . S
C1384 C1379 1.490 1_455 S
C1384 C1386 1.395 . S
C1384 C1387 1.403 . S
H1385 C1391 0.930 . S
C1386 H1372 0.930 . S
C1386 C1384 1.395 . S
C1386 C1389 1.403 . S
C1387 C1384 1.403 . S
C1387 C1388 1.524 . S
C1387 C1391 1.400 . S
C1388 H1373 0.960 . S
C1388 H1374 0.960 . S
C1388 H1375 0.960 1_455 S
C1388 C1387 1.524 . S
C1389 C1386 1.403 . S
C1389 C1390 1.392 . S
C1389 C1393 1.495 . S
C1390 C1389 1.392 . S
C1390 C1391 1.385 . S
C1390 C1392 1.478 . S
C1391 H1385 0.930 . S
C1391 C1387 1.400 . S
C1391 C1390 1.385 . S
C1392 C1390 1.478 . S
C1392 C1394 1.381 . S
C1392 C1398 1.383 . S
C1393 C1389 1.495 . S
C1393 H1399 0.959 . S
C1393 H1400 0.961 . S
C1393 H1401 0.960 . S
C1394 C1392 1.381 . S
C1394 C1395 1.394 . S
C1394 H1402 0.930 . S
C1395 C1394 1.394 . S
C1395 C1396 1.383 . S
C1395 H1403 0.929 . S
C1396 C1395 1.383 . S
C1396 C1397 1.377 . S
C1397 H1381 0.930 . S
C1397 C1396 1.377 . S
C1397 C1398 1.379 . S
C1398 H1382 0.931 . S
C1398 C1392 1.383 . S
C1398 C1397 1.379 . S
H1399 C1393 0.959 . S
H1400 C1393 0.961 . S
H1401 C1393 0.960 . S
H1402 C1394 0.930 . S
H1403 C1395 0.929 . S
H1404 C1412 0.929 . S
H1405 C1414 0.930 . S
H1406 C1416 0.930 . S
H1407 C1419 0.929 . S
H1408 C1422 0.930 . S
H1409 C1424 0.960 . S
H1410 C1424 0.960 . S
H1411 C1424 0.960 . S
C1412 H1404 0.929 . S
C1412 C1413 1.377 . S
C1412 C1414 1.384 . S
C1413 C1412 1.377 . S
C1413 C1419 1.390 . S
C1414 H1405 0.930 . S
C1414 C1412 1.384 . S
C1414 C1415 1.372 . S
C1415 C1414 1.372 . S
C1415 C1416 1.400 . S
C1415 C1420 1.490 . S
C1416 H1406 0.930 . S
C1416 C1415 1.400 . S
C1416 C1419 1.386 . S
H1417 C1433 0.930 . S
H1418 C1434 0.931 . S
C1419 H1407 0.929 . S
C1419 C1413 1.390 . S
C1419 C1416 1.386 . S
C1420 C1415 1.490 . S
C1420 C1422 1.395 . S
C1420 C1423 1.403 . S
H1421 C1427 0.930 . S
C1422 H1408 0.930 . S
C1422 C1420 1.395 . S
C1422 C1425 1.403 . S
C1423 C1420 1.403 . S
C1423 C1424 1.524 . S
C1423 C1427 1.400 . S
C1424 H1409 0.960 . S
C1424 H1410 0.960 . S
C1424 H1411 0.960 . S
C1424 C1423 1.524 . S
C1425 C1422 1.403 . S
C1425 C1426 1.392 . S
C1425 C1429 1.495 . S
C1426 C1425 1.392 . S
C1426 C1427 1.385 . S
C1426 C1428 1.478 . S
C1427 H1421 0.930 . S
C1427 C1423 1.400 . S
C1427 C1426 1.385 . S
C1428 C1426 1.478 . S
C1428 C1430 1.381 . S
C1428 C1434 1.383 . S
C1429 C1425 1.495 . S
C1429 H1435 0.959 . S
C1429 H1436 0.961 . S
C1429 H1437 0.960 . S
C1430 C1428 1.381 . S
C1430 C1431 1.394 . S
C1430 H1438 0.930 . S
C1431 C1430 1.394 . S
C1431 C1432 1.383 . S
C1431 H1439 0.929 . S
C1432 C1431 1.383 . S
C1432 C1433 1.377 . S
C1433 H1417 0.930 . S
C1433 C1432 1.377 . S
C1433 C1434 1.379 . S
C1434 H1418 0.931 . S
C1434 C1428 1.383 . S
C1434 C1433 1.379 . S
H1435 C1429 0.959 . S
H1436 C1429 0.961 . S
H1437 C1429 0.960 . S
H1438 C1430 0.930 . S
H1439 C1431 0.929 . S
H1440 C1448 0.929 . S
H1441 C1450 0.930 . S
H1442 C1452 0.930 . S
H1443 C1455 0.929 . S
H1444 C1458 0.930 1_545 S
H1445 C1460 0.960 1_565 S
H1446 C1460 0.960 . S
H1447 C1460 0.960 . S
C1448 H1440 0.929 . S
C1448 C1449 1.377 . S
C1448 C1450 1.384 . S
C1449 C1448 1.377 . S
C1449 C1455 1.390 . S
C1450 H1441 0.930 . S
C1450 C1448 1.384 . S
C1450 C1451 1.372 . S
C1451 C1450 1.372 . S
C1451 C1452 1.400 . S
C1451 C1456 1.490 . S
C1452 H1442 0.930 . S
C1452 C1451 1.400 . S
C1452 C1455 1.386 . S
H1453 C1469 0.930 . S
H1454 C1470 0.931 . S
C1455 H1443 0.929 . S
C1455 C1449 1.390 . S
C1455 C1452 1.386 . S
C1456 C1451 1.490 . S
C1456 C1458 1.395 1_545 S
C1456 C1459 1.403 1_545 S
H1457 C1463 0.930 . S
C1458 H1444 0.930 1_565 S
C1458 C1456 1.395 1_565 S
C1458 C1461 1.403 . S
C1459 C1456 1.403 1_565 S
C1459 C1460 1.524 1_565 S
C1459 C1463 1.400 . S
C1460 H1445 0.960 1_545 S
C1460 H1446 0.960 . S
C1460 H1447 0.960 . S
C1460 C1459 1.524 1_545 S
C1461 C1458 1.403 . S
C1461 C1462 1.392 . S
C1461 C1465 1.495 . S
C1462 C1461 1.392 . S
C1462 C1463 1.385 . S
C1462 C1464 1.478 . S
C1463 H1457 0.930 . S
C1463 C1459 1.400 . S
C1463 C1462 1.385 . S
C1464 C1462 1.478 . S
C1464 C1466 1.381 . S
C1464 C1470 1.383 . S
C1465 C1461 1.495 . S
C1465 H1471 0.959 . S
C1465 H1472 0.961 . S
C1465 H1473 0.960 . S
C1466 C1464 1.381 . S
C1466 C1467 1.394 . S
C1466 H1474 0.930 . S
C1467 C1466 1.394 . S
C1467 C1468 1.383 . S
C1467 H1475 0.929 . S
C1468 C1467 1.383 . S
C1468 C1469 1.377 . S
C1469 H1453 0.930 . S
C1469 C1468 1.377 . S
C1469 C1470 1.379 . S
C1470 H1454 0.931 . S
C1470 C1464 1.383 . S
C1470 C1469 1.379 . S
H1471 C1465 0.959 . S
H1472 C1465 0.961 . S
H1473 C1465 0.960 . S
H1474 C1466 0.930 . S
H1475 C1467 0.929 . S
H1476 C1484 0.929 . S
H1477 C1486 0.930 . S
H1478 C1488 0.930 . S
H1479 C1491 0.929 . S
H1480 C1494 0.930 . S
H1481 C1496 0.960 . S
H1482 C1496 0.960 . S
H1483 C1496 0.960 . S
C1484 H1476 0.929 . S
C1484 C1485 1.377 . S
C1484 C1486 1.384 . S
C1485 C1484 1.377 . S
C1485 C1491 1.390 . S
C1486 H1477 0.930 . S
C1486 C1484 1.384 . S
C1486 C1487 1.372 . S
C1487 C1486 1.372 . S
C1487 C1488 1.400 . S
C1487 C1492 1.490 . S
C1488 H1478 0.930 . S
C1488 C1487 1.400 . S
C1488 C1491 1.386 . S
H1489 C1505 0.930 . S
H1490 C1506 0.931 . S
C1491 H1479 0.929 . S
C1491 C1485 1.390 . S
C1491 C1488 1.386 . S
C1492 C1487 1.490 . S
C1492 C1494 1.395 . S
C1492 C1495 1.403 . S
H1493 C1499 0.930 . S
C1494 H1480 0.930 . S
C1494 C1492 1.395 . S
C1494 C1497 1.403 . S
C1495 C1492 1.403 . S
C1495 C1496 1.524 . S
C1495 C1499 1.400 . S
C1496 H1481 0.960 . S
C1496 H1482 0.960 . S
C1496 H1483 0.960 . S
C1496 C1495 1.524 . S
C1497 C1494 1.403 . S
C1497 C1498 1.392 . S
C1497 C1501 1.495 . S
C1498 C1497 1.392 . S
C1498 C1499 1.385 . S
C1498 C1500 1.478 . S
C1499 H1493 0.930 . S
C1499 C1495 1.400 . S
C1499 C1498 1.385 . S
C1500 C1498 1.478 . S
C1500 C1502 1.381 . S
C1500 C1506 1.383 . S
C1501 C1497 1.495 . S
C1501 H1507 0.959 . S
C1501 H1508 0.961 . S
C1501 H1509 0.960 . S
C1502 C1500 1.381 . S
C1502 C1503 1.394 . S
C1502 H1510 0.930 . S
C1503 C1502 1.394 . S
C1503 C1504 1.383 . S
C1503 H1511 0.929 . S
C1504 C1503 1.383 . S
C1504 C1505 1.377 . S
C1505 H1489 0.930 . S
C1505 C1504 1.377 . S
C1505 C1506 1.379 . S
C1506 H1490 0.931 . S
C1506 C1500 1.383 . S
C1506 C1505 1.379 . S
H1507 C1501 0.959 . S
H1508 C1501 0.961 . S
H1509 C1501 0.960 . S
H1510 C1502 0.930 . S
H1511 C1503 0.929 . S
H1512 C1520 0.929 . S
H1513 C1522 0.930 . S
H1514 C1524 0.930 . S
H1515 C1527 0.929 . S
H1516 C1530 0.930 . S
H1517 C1532 0.960 . S
H1518 C1532 0.960 . S
H1519 C1532 0.960 . S
C1520 H1512 0.929 . S
C1520 C1521 1.377 . S
C1520 C1522 1.384 . S
C1521 C1520 1.377 . S
C1521 C1527 1.390 . S
C1522 H1513 0.930 . S
C1522 C1520 1.384 . S
C1522 C1523 1.372 . S
C1523 C1522 1.372 . S
C1523 C1524 1.400 . S
C1523 C1528 1.490 . S
C1524 H1514 0.930 . S
C1524 C1523 1.400 . S
C1524 C1527 1.386 . S
H1525 C1541 0.930 . S
H1526 C1542 0.931 . S
C1527 H1515 0.929 . S
C1527 C1521 1.390 . S
C1527 C1524 1.386 . S
C1528 C1523 1.490 . S
C1528 C1530 1.395 . S
C1528 C1531 1.403 . S
H1529 C1535 0.930 . S
C1530 H1516 0.930 . S
C1530 C1528 1.395 . S
C1530 C1533 1.403 . S
C1531 C1528 1.403 . S
C1531 C1532 1.524 . S
C1531 C1535 1.400 . S
C1532 H1517 0.960 . S
C1532 H1518 0.960 . S
C1532 H1519 0.960 . S
C1532 C1531 1.524 . S
C1533 C1530 1.403 . S
C1533 C1534 1.392 . S
C1533 C1537 1.495 . S
C1534 C1533 1.392 . S
C1534 C1535 1.385 . S
C1534 C1536 1.478 . S
C1535 H1529 0.930 . S
C1535 C1531 1.400 . S
C1535 C1534 1.385 . S
C1536 C1534 1.478 . S
C1536 C1538 1.381 . S
C1536 C1542 1.383 . S
C1537 C1533 1.495 . S
C1537 H1543 0.959 . S
C1537 H1544 0.961 . S
C1537 H1545 0.960 . S
C1538 C1536 1.381 . S
C1538 C1539 1.394 . S
C1538 H1546 0.930 . S
C1539 C1538 1.394 . S
C1539 C1540 1.383 . S
C1539 H1547 0.929 . S
C1540 C1539 1.383 . S
C1540 C1541 1.377 . S
C1541 H1525 0.930 . S
C1541 C1540 1.377 . S
C1541 C1542 1.379 . S
C1542 H1526 0.931 . S
C1542 C1536 1.383 . S
C1542 C1541 1.379 . S
H1543 C1537 0.959 . S
H1544 C1537 0.961 . S
H1545 C1537 0.960 . S
H1546 C1538 0.930 . S
H1547 C1539 0.929 . S
H1548 C1556 0.929 . S
H1549 C1558 0.930 . S
H1550 C1560 0.930 . S
H1551 C1563 0.929 . S
H1552 C1566 0.930 . S
H1553 C1568 0.960 . S
H1554 C1568 0.960 . S
H1555 C1568 0.960 . S
C1556 H1548 0.929 . S
C1556 C1557 1.377 . S
C1556 C1558 1.384 . S
C1557 C1556 1.377 . S
C1557 C1563 1.390 . S
C1558 H1549 0.930 . S
C1558 C1556 1.384 . S
C1558 C1559 1.372 . S
C1559 C1558 1.372 . S
C1559 C1560 1.400 . S
C1559 C1564 1.490 . S
C1560 H1550 0.930 . S
C1560 C1559 1.400 . S
C1560 C1563 1.386 . S
H1561 C1577 0.930 . S
H1562 C1578 0.931 . S
C1563 H1551 0.929 . S
C1563 C1557 1.390 . S
C1563 C1560 1.386 . S
C1564 C1559 1.490 . S
C1564 C1566 1.395 . S
C1564 C1567 1.403 . S
H1565 C1571 0.930 . S
C1566 H1552 0.930 . S
C1566 C1564 1.395 . S
C1566 C1569 1.403 . S
C1567 C1564 1.403 . S
C1567 C1568 1.524 . S
C1567 C1571 1.400 . S
C1568 H1553 0.960 . S
C1568 H1554 0.960 . S
C1568 H1555 0.960 . S
C1568 C1567 1.524 . S
C1569 C1566 1.403 . S
C1569 C1570 1.392 . S
C1569 C1573 1.495 . S
C1570 C1569 1.392 . S
C1570 C1571 1.385 . S
C1570 C1572 1.478 . S
C1571 H1565 0.930 . S
C1571 C1567 1.400 . S
C1571 C1570 1.385 . S
C1572 C1570 1.478 . S
C1572 C1574 1.381 . S
C1572 C1578 1.383 . S
C1573 C1569 1.495 . S
C1573 H1579 0.959 . S
C1573 H1580 0.961 . S
C1573 H1581 0.960 . S
C1574 C1572 1.381 . S
C1574 C1575 1.394 . S
C1574 H1582 0.930 . S
C1575 C1574 1.394 . S
C1575 C1576 1.383 . S
C1575 H1583 0.929 . S
C1576 C1575 1.383 . S
C1576 C1577 1.377 . S
C1577 H1561 0.930 . S
C1577 C1576 1.377 . S
C1577 C1578 1.379 . S
C1578 H1562 0.931 . S
C1578 C1572 1.383 . S
C1578 C1577 1.379 . S
H1579 C1573 0.959 . S
H1580 C1573 0.961 . S
H1581 C1573 0.960 . S
H1582 C1574 0.930 . S
H1583 C1575 0.929 . S
H1584 C1592 0.929 . S
H1585 C1594 0.930 . S
H1586 C1596 0.930 . S
H1587 C1599 0.929 . S
H1588 C1602 0.930 . S
H1589 C1604 0.960 . S
H1590 C1604 0.960 . S
H1591 C1604 0.960 . S
C1592 H1584 0.929 . S
C1592 C1593 1.377 . S
C1592 C1594 1.384 . S
C1593 C1592 1.377 . S
C1593 C1599 1.390 . S
C1594 H1585 0.930 . S
C1594 C1592 1.384 . S
C1594 C1595 1.372 . S
C1595 C1594 1.372 . S
C1595 C1596 1.400 . S
C1595 C1600 1.490 . S
C1596 H1586 0.930 . S
C1596 C1595 1.400 . S
C1596 C1599 1.386 . S
H1597 C1613 0.930 . S
H1598 C1614 0.931 . S
C1599 H1587 0.929 . S
C1599 C1593 1.390 . S
C1599 C1596 1.386 . S
C1600 C1595 1.490 . S
C1600 C1602 1.395 . S
C1600 C1603 1.403 . S
H1601 C1607 0.930 . S
C1602 H1588 0.930 . S
C1602 C1600 1.395 . S
C1602 C1605 1.403 . S
C1603 C1600 1.403 . S
C1603 C1604 1.524 . S
C1603 C1607 1.400 . S
C1604 H1589 0.960 . S
C1604 H1590 0.960 . S
C1604 H1591 0.960 . S
C1604 C1603 1.524 . S
C1605 C1602 1.403 . S
C1605 C1606 1.392 . S
C1605 C1609 1.495 . S
C1606 C1605 1.392 . S
C1606 C1607 1.385 . S
C1606 C1608 1.478 . S
C1607 H1601 0.930 . S
C1607 C1603 1.400 . S
C1607 C1606 1.385 . S
C1608 C1606 1.478 . S
C1608 C1610 1.381 . S
C1608 C1614 1.383 . S
C1609 C1605 1.495 . S
C1609 H1615 0.959 . S
C1609 H1616 0.961 . S
C1609 H1617 0.960 . S
C1610 C1608 1.381 . S
C1610 C1611 1.394 . S
C1610 H1618 0.930 . S
C1611 C1610 1.394 . S
C1611 C1612 1.383 . S
C1611 H1619 0.929 . S
C1612 C1611 1.383 . S
C1612 C1613 1.377 . S
C1613 H1597 0.930 . S
C1613 C1612 1.377 . S
C1613 C1614 1.379 . S
C1614 H1598 0.931 . S
C1614 C1608 1.383 . S
C1614 C1613 1.379 . S
H1615 C1609 0.959 . S
H1616 C1609 0.961 . S
H1617 C1609 0.960 . S
H1618 C1610 0.930 . S
H1619 C1611 0.929 . S
H1620 C1628 0.929 . S
H1621 C1630 0.930 . S
H1622 C1632 0.930 . S
H1623 C1635 0.929 . S
H1624 C1638 0.930 . S
H1625 C1640 0.960 . S
H1626 C1640 0.960 . S
H1627 C1640 0.960 . S
C1628 H1620 0.929 . S
C1628 C1629 1.377 . S
C1628 C1630 1.384 . S
C1629 C1628 1.377 . S
C1629 C1635 1.390 . S
C1630 H1621 0.930 . S
C1630 C1628 1.384 . S
C1630 C1631 1.372 . S
C1631 C1630 1.372 . S
C1631 C1632 1.400 . S
C1631 C1636 1.490 . S
C1632 H1622 0.930 . S
C1632 C1631 1.400 . S
C1632 C1635 1.386 . S
H1633 C1649 0.930 . S
H1634 C1650 0.931 . S
C1635 H1623 0.929 . S
C1635 C1629 1.390 . S
C1635 C1632 1.386 . S
C1636 C1631 1.490 . S
C1636 C1638 1.395 . S
C1636 C1639 1.403 . S
H1637 C1643 0.930 . S
C1638 H1624 0.930 . S
C1638 C1636 1.395 . S
C1638 C1641 1.403 . S
C1639 C1636 1.403 . S
C1639 C1640 1.524 . S
C1639 C1643 1.400 . S
C1640 H1625 0.960 . S
C1640 H1626 0.960 . S
C1640 H1627 0.960 . S
C1640 C1639 1.524 . S
C1641 C1638 1.403 . S
C1641 C1642 1.392 . S
C1641 C1645 1.495 . S
C1642 C1641 1.392 . S
C1642 C1643 1.385 . S
C1642 C1644 1.478 . S
C1643 H1637 0.930 . S
C1643 C1639 1.400 . S
C1643 C1642 1.385 . S
C1644 C1642 1.478 . S
C1644 C1646 1.381 . S
C1644 C1650 1.383 . S
C1645 C1641 1.495 . S
C1645 H1651 0.959 . S
C1645 H1652 0.961 . S
C1645 H1653 0.960 . S
C1646 C1644 1.381 . S
C1646 C1647 1.394 . S
C1646 H1654 0.930 . S
C1647 C1646 1.394 . S
C1647 C1648 1.383 . S
C1647 H1655 0.929 . S
C1648 C1647 1.383 . S
C1648 C1649 1.377 . S
C1649 H1633 0.930 . S
C1649 C1648 1.377 . S
C1649 C1650 1.379 . S
C1650 H1634 0.931 . S
C1650 C1644 1.383 . S
C1650 C1649 1.379 . S
H1651 C1645 0.959 . S
H1652 C1645 0.961 . S
H1653 C1645 0.960 . S
H1654 C1646 0.930 . S
H1655 C1647 0.929 . S
H1656 C1664 0.929 . S
H1657 C1666 0.930 . S
H1658 C1668 0.930 . S
H1659 C1671 0.929 . S
H1660 C1674 0.930 . S
H1661 C1676 0.960 . S
H1662 C1676 0.960 . S
H1663 C1676 0.960 . S
C1664 H1656 0.929 . S
C1664 C1665 1.377 . S
C1664 C1666 1.384 . S
C1665 C1664 1.377 . S
C1665 C1671 1.390 . S
C1666 H1657 0.930 . S
C1666 C1664 1.384 . S
C1666 C1667 1.372 . S
C1667 C1666 1.372 . S
C1667 C1668 1.400 . S
C1667 C1672 1.490 . S
C1668 H1658 0.930 . S
C1668 C1667 1.400 . S
C1668 C1671 1.386 . S
H1669 C1685 0.930 . S
H1670 C1686 0.931 . S
C1671 H1659 0.929 . S
C1671 C1665 1.390 . S
C1671 C1668 1.386 . S
C1672 C1667 1.490 . S
C1672 C1674 1.395 . S
C1672 C1675 1.403 . S
H1673 C1679 0.930 . S
C1674 H1660 0.930 . S
C1674 C1672 1.395 . S
C1674 C1677 1.403 . S
C1675 C1672 1.403 . S
C1675 C1676 1.524 . S
C1675 C1679 1.400 . S
C1676 H1661 0.960 . S
C1676 H1662 0.960 . S
C1676 H1663 0.960 . S
C1676 C1675 1.524 . S
C1677 C1674 1.403 . S
C1677 C1678 1.392 . S
C1677 C1681 1.495 . S
C1678 C1677 1.392 . S
C1678 C1679 1.385 . S
C1678 C1680 1.478 . S
C1679 H1673 0.930 . S
C1679 C1675 1.400 . S
C1679 C1678 1.385 . S
C1680 C1678 1.478 . S
C1680 C1682 1.381 . S
C1680 C1686 1.383 . S
C1681 C1677 1.495 . S
C1681 H1687 0.959 . S
C1681 H1688 0.961 . S
C1681 H1689 0.960 . S
C1682 C1680 1.381 . S
C1682 C1683 1.394 . S
C1682 H1690 0.930 . S
C1683 C1682 1.394 . S
C1683 C1684 1.383 . S
C1683 H1691 0.929 . S
C1684 C1683 1.383 . S
C1684 C1685 1.377 . S
C1685 H1669 0.930 . S
C1685 C1684 1.377 . S
C1685 C1686 1.379 . S
C1686 H1670 0.931 . S
C1686 C1680 1.383 . S
C1686 C1685 1.379 . S
H1687 C1681 0.959 . S
H1688 C1681 0.961 . S
H1689 C1681 0.960 . S
H1690 C1682 0.930 . S
H1691 C1683 0.929 . S
H1692 C1700 0.929 . S
H1693 C1702 0.930 . S
H1694 C1704 0.930 . S
H1695 C1707 0.929 . S
H1696 C1710 0.930 1_545 S
H1697 C1712 0.960 . S
H1698 C1712 0.920 1_545 S
H1699 C1712 0.960 1_545 S
C1700 H1692 0.929 . S
C1700 C1701 1.377 . S
C1700 C1702 1.384 . S
C1701 C1700 1.377 . S
C1701 C1707 1.390 . S
C1702 H1693 0.930 . S
C1702 C1700 1.384 . S
C1702 C1703 1.372 . S
C1703 C1702 1.372 . S
C1703 C1704 1.400 . S
C1703 C1708 1.490 . S
C1704 H1694 0.930 . S
C1704 C1703 1.400 . S
C1704 C1707 1.386 . S
H1705 C1721 0.930 . S
H1706 C1722 0.931 . S
C1707 H1695 0.929 . S
C1707 C1701 1.390 . S
C1707 C1704 1.386 . S
C1708 C1703 1.490 . S
C1708 C1710 1.395 1_545 S
C1708 C1711 1.403 1_545 S
H1709 C1715 0.930 . S
C1710 H1696 0.930 1_565 S
C1710 C1708 1.395 1_565 S
C1710 C1713 1.403 . S
C1711 C1708 1.403 1_565 S
C1711 C1712 1.524 . S
C1711 C1715 1.400 . S
C1712 H1697 0.960 . S
C1712 H1698 0.920 1_565 S
C1712 H1699 0.960 1_565 S
C1712 C1711 1.524 . S
C1713 C1710 1.403 . S
C1713 C1714 1.392 . S
C1713 C1717 1.495 . S
C1714 C1713 1.392 . S
C1714 C1715 1.385 . S
C1714 C1716 1.478 . S
C1715 H1709 0.930 . S
C1715 C1711 1.400 . S
C1715 C1714 1.385 . S
C1716 C1714 1.478 . S
C1716 C1718 1.381 . S
C1716 C1722 1.383 . S
C1717 C1713 1.495 . S
C1717 H1723 0.959 . S
C1717 H1724 0.961 . S
C1717 H1725 0.960 . S
C1718 C1716 1.381 . S
C1718 C1719 1.394 . S
C1718 H1726 0.930 . S
C1719 C1718 1.394 . S
C1719 C1720 1.383 . S
C1719 H1727 0.929 . S
C1720 C1719 1.383 . S
C1720 C1721 1.377 . S
C1721 H1705 0.930 . S
C1721 C1720 1.377 . S
C1721 C1722 1.379 . S
C1722 H1706 0.931 . S
C1722 C1716 1.383 . S
C1722 C1721 1.379 . S
H1723 C1717 0.959 . S
H1724 C1717 0.961 . S
H1725 C1717 0.960 . S
H1726 C1718 0.930 . S
H1727 C1719 0.929 . S
H1728 C1736 0.929 . S
H1729 C1738 0.930 . S
H1730 C1740 0.927 1_455 S
H1731 C1743 0.929 . S
H1732 C1746 0.930 . S
H1733 C1748 0.960 . S
H1734 C1748 0.960 . S
H1735 C1748 0.960 . S
C1736 H1728 0.929 . S
C1736 C1737 1.377 . S
C1736 C1738 1.384 . S
C1737 C1736 1.377 . S
C1737 C1743 1.390 . S
C1738 H1729 0.930 . S
C1738 C1736 1.384 . S
C1738 C1739 1.372 . S
C1739 C1738 1.372 . S
C1739 C1740 1.400 . S
C1739 C1744 1.490 1_655 S
C1740 H1730 0.927 1_655 S
C1740 C1739 1.400 . S
C1740 C1743 1.386 . S
H1741 C1757 0.930 . S
H1742 C1758 0.931 . S
C1743 H1731 0.929 . S
C1743 C1737 1.390 . S
C1743 C1740 1.386 . S
C1744 C1739 1.490 1_455 S
C1744 C1746 1.395 . S
C1744 C1747 1.403 . S
H1745 C1751 0.930 . S
C1746 H1732 0.930 . S
C1746 C1744 1.395 . S
C1746 C1749 1.403 . S
C1747 C1744 1.403 . S
C1747 C1748 1.524 . S
C1747 C1751 1.400 . S
C1748 H1733 0.960 . S
C1748 H1734 0.960 . S
C1748 H1735 0.960 . S
C1748 C1747 1.524 . S
C1749 C1746 1.403 . S
C1749 C1750 1.392 . S
C1749 C1753 1.495 . S
C1750 C1749 1.392 . S
C1750 C1751 1.385 . S
C1750 C1752 1.478 . S
C1751 H1745 0.930 . S
C1751 C1747 1.400 . S
C1751 C1750 1.385 . S
C1752 C1750 1.478 . S
C1752 C1754 1.381 . S
C1752 C1758 1.383 . S
C1753 C1749 1.495 . S
C1753 H1759 0.959 . S
C1753 H1760 0.961 . S
C1753 H1761 0.960 . S
C1754 C1752 1.381 . S
C1754 C1755 1.394 . S
C1754 H1762 0.930 . S
C1755 C1754 1.394 . S
C1755 C1756 1.383 . S
C1755 H1763 0.929 . S
C1756 C1755 1.383 . S
C1756 C1757 1.377 . S
C1757 H1741 0.930 . S
C1757 C1756 1.377 . S
C1757 C1758 1.379 . S
C1758 H1742 0.931 . S
C1758 C1752 1.383 . S
C1758 C1757 1.379 . S
H1759 C1753 0.959 . S
H1760 C1753 0.961 . S
H1761 C1753 0.960 . S
H1762 C1754 0.930 . S
H1763 C1755 0.929 . S
H1764 C1772 0.929 . S
H1765 C1774 0.930 . S
H1766 C1776 0.930 . S
H1767 C1779 0.929 . S
H1768 C1782 0.930 . S
H1769 C1784 0.960 . S
H1770 C1784 0.960 . S
H1771 C1784 0.960 . S
C1772 H1764 0.929 . S
C1772 C1773 1.377 . S
C1772 C1774 1.384 . S
C1773 C1772 1.377 . S
C1773 C1779 1.390 . S
C1774 H1765 0.930 . S
C1774 C1772 1.384 . S
C1774 C1775 1.372 . S
C1775 C1774 1.372 . S
C1775 C1776 1.400 . S
C1775 C1780 1.490 . S
C1776 H1766 0.930 . S
C1776 C1775 1.400 . S
C1776 C1779 1.386 . S
H1777 C1793 0.930 . S
H1778 C1794 0.931 . S
C1779 H1767 0.929 . S
C1779 C1773 1.390 . S
C1779 C1776 1.386 . S
C1780 C1775 1.490 . S
C1780 C1782 1.395 . S
C1780 C1783 1.403 . S
H1781 C1787 0.930 . S
C1782 H1768 0.930 . S
C1782 C1780 1.395 . S
C1782 C1785 1.403 . S
C1783 C1780 1.403 . S
C1783 C1784 1.524 . S
C1783 C1787 1.400 . S
C1784 H1769 0.960 . S
C1784 H1770 0.960 . S
C1784 H1771 0.960 . S
C1784 C1783 1.524 . S
C1785 C1782 1.403 . S
C1785 C1786 1.392 . S
C1785 C1789 1.495 . S
C1786 C1785 1.392 . S
C1786 C1787 1.385 . S
C1786 C1788 1.478 . S
C1787 H1781 0.930 . S
C1787 C1783 1.400 . S
C1787 C1786 1.385 . S
C1788 C1786 1.478 . S
C1788 C1790 1.381 . S
C1788 C1794 1.383 . S
C1789 C1785 1.495 . S
C1789 H1795 0.959 . S
C1789 H1796 0.961 . S
C1789 H1797 0.960 . S
C1790 C1788 1.381 . S
C1790 C1791 1.394 . S
C1790 H1798 0.930 . S
C1791 C1790 1.394 . S
C1791 C1792 1.383 . S
C1791 H1799 0.929 . S
C1792 C1791 1.383 . S
C1792 C1793 1.377 . S
C1793 H1777 0.930 . S
C1793 C1792 1.377 . S
C1793 C1794 1.379 . S
C1794 H1778 0.931 . S
C1794 C1788 1.383 . S
C1794 C1793 1.379 . S
H1795 C1789 0.959 . S
H1796 C1789 0.961 . S
H1797 C1789 0.960 . S
H1798 C1790 0.930 . S
H1799 C1791 0.929 . S
H1800 C1808 0.929 . S
H1801 C1810 0.930 . S
H1802 C1812 0.930 . S
H1803 C1815 0.929 . S
H1804 C1818 0.930 . S
H1805 C1820 0.960 . S
H1806 C1820 0.960 . S
H1807 C1820 0.960 . S
C1808 H1800 0.929 . S
C1808 C1809 1.377 . S
C1808 C1810 1.384 . S
C1809 C1808 1.377 . S
C1809 C1815 1.390 . S
C1810 H1801 0.930 . S
C1810 C1808 1.384 . S
C1810 C1811 1.372 . S
C1811 C1810 1.372 . S
C1811 C1812 1.400 . S
C1811 C1816 1.490 . S
C1812 H1802 0.930 . S
C1812 C1811 1.400 . S
C1812 C1815 1.386 . S
H1813 C1829 0.930 . S
H1814 C1830 0.931 . S
C1815 H1803 0.929 . S
C1815 C1809 1.390 . S
C1815 C1812 1.386 . S
C1816 C1811 1.490 . S
C1816 C1818 1.395 . S
C1816 C1819 1.403 . S
H1817 C1823 0.930 . S
C1818 H1804 0.930 . S
C1818 C1816 1.395 . S
C1818 C1821 1.403 . S
C1819 C1816 1.403 . S
C1819 C1820 1.524 . S
C1819 C1823 1.400 . S
C1820 H1805 0.960 . S
C1820 H1806 0.960 . S
C1820 H1807 0.960 . S
C1820 C1819 1.524 . S
C1821 C1818 1.403 . S
C1821 C1822 1.392 . S
C1821 C1825 1.495 . S
C1822 C1821 1.392 . S
C1822 C1823 1.385 . S
C1822 C1824 1.478 . S
C1823 H1817 0.930 . S
C1823 C1819 1.400 . S
C1823 C1822 1.385 . S
C1824 C1822 1.478 . S
C1824 C1826 1.381 . S
C1824 C1830 1.383 . S
C1825 C1821 1.495 . S
C1825 H1831 0.959 . S
C1825 H1832 0.961 . S
C1825 H1833 0.960 . S
C1826 C1824 1.381 . S
C1826 C1827 1.394 . S
C1826 H1834 0.930 . S
C1827 C1826 1.394 . S
C1827 C1828 1.383 . S
C1827 H1835 0.929 . S
C1828 C1827 1.383 . S
C1828 C1829 1.377 . S
C1829 H1813 0.930 . S
C1829 C1828 1.377 . S
C1829 C1830 1.379 . S
C1830 H1814 0.931 . S
C1830 C1824 1.383 . S
C1830 C1829 1.379 . S
H1831 C1825 0.959 . S
H1832 C1825 0.961 . S
H1833 C1825 0.960 . S
H1834 C1826 0.930 . S
H1835 C1827 0.929 . S
H1836 C1844 0.929 . S
H1837 C1846 0.930 . S
H1838 C1848 0.930 . S
H1839 C1851 0.929 . S
H1840 C1854 0.930 . S
H1841 C1856 0.960 . S
H1842 C1856 0.960 . S
H1843 C1856 0.960 . S
C1844 H1836 0.929 . S
C1844 C1845 1.377 . S
C1844 C1846 1.384 . S
C1845 C1844 1.377 . S
C1845 C1851 1.390 . S
C1846 H1837 0.930 . S
C1846 C1844 1.384 . S
C1846 C1847 1.372 . S
C1847 C1846 1.372 . S
C1847 C1848 1.400 . S
C1847 C1852 1.490 . S
C1848 H1838 0.930 . S
C1848 C1847 1.400 . S
C1848 C1851 1.386 . S
H1849 C1865 0.930 . S
H1850 C1866 0.931 . S
C1851 H1839 0.929 . S
C1851 C1845 1.390 . S
C1851 C1848 1.386 . S
C1852 C1847 1.490 . S
C1852 C1854 1.395 . S
C1852 C1855 1.403 . S
H1853 C1859 0.930 . S
C1854 H1840 0.930 . S
C1854 C1852 1.395 . S
C1854 C1857 1.403 . S
C1855 C1852 1.403 . S
C1855 C1856 1.524 . S
C1855 C1859 1.400 . S
C1856 H1841 0.960 . S
C1856 H1842 0.960 . S
C1856 H1843 0.960 . S
C1856 C1855 1.524 . S
C1857 C1854 1.403 . S
C1857 C1858 1.392 . S
C1857 C1861 1.495 . S
C1858 C1857 1.392 . S
C1858 C1859 1.385 . S
C1858 C1860 1.478 . S
C1859 H1853 0.930 . S
C1859 C1855 1.400 . S
C1859 C1858 1.385 . S
C1860 C1858 1.478 . S
C1860 C1862 1.381 . S
C1860 C1866 1.383 . S
C1861 C1857 1.495 . S
C1861 H1867 0.959 . S
C1861 H1868 0.961 . S
C1861 H1869 0.960 . S
C1862 C1860 1.381 . S
C1862 C1863 1.394 . S
C1862 H1870 0.930 . S
C1863 C1862 1.394 . S
C1863 C1864 1.383 . S
C1863 H1871 0.929 . S
C1864 C1863 1.383 . S
C1864 C1865 1.377 . S
C1865 H1849 0.930 . S
C1865 C1864 1.377 . S
C1865 C1866 1.379 . S
C1866 H1850 0.931 . S
C1866 C1860 1.383 . S
C1866 C1865 1.379 . S
H1867 C1861 0.959 . S
H1868 C1861 0.961 . S
H1869 C1861 0.960 . S
H1870 C1862 0.930 . S
H1871 C1863 0.929 . S
H1872 C1880 0.929 . S
H1873 C1882 0.930 . S
H1874 C1884 0.930 . S
H1875 C1887 0.929 . S
H1876 C1890 0.930 . S
H1877 C1892 0.960 . S
H1878 C1892 0.960 . S
H1879 C1892 0.960 . S
C1880 H1872 0.929 . S
C1880 C1881 1.377 . S
C1880 C1882 1.384 . S
C1881 C1880 1.377 . S
C1881 C1887 1.390 . S
C1882 H1873 0.930 . S
C1882 C1880 1.384 . S
C1882 C1883 1.372 . S
C1883 C1882 1.372 . S
C1883 C1884 1.400 . S
C1883 C1888 1.490 . S
C1884 H1874 0.930 . S
C1884 C1883 1.400 . S
C1884 C1887 1.386 . S
H1885 C1901 0.930 . S
H1886 C1902 0.931 . S
C1887 H1875 0.929 . S
C1887 C1881 1.390 . S
C1887 C1884 1.386 . S
C1888 C1883 1.490 . S
C1888 C1890 1.395 . S
C1888 C1891 1.403 . S
H1889 C1895 0.930 . S
C1890 H1876 0.930 . S
C1890 C1888 1.395 . S
C1890 C1893 1.403 . S
C1891 C1888 1.403 . S
C1891 C1892 1.524 . S
C1891 C1895 1.400 . S
C1892 H1877 0.960 . S
C1892 H1878 0.960 . S
C1892 H1879 0.960 . S
C1892 C1891 1.524 . S
C1893 C1890 1.403 . S
C1893 C1894 1.392 . S
C1893 C1897 1.495 . S
C1894 C1893 1.392 . S
C1894 C1895 1.385 . S
C1894 C1896 1.478 . S
C1895 H1889 0.930 . S
C1895 C1891 1.400 . S
C1895 C1894 1.385 . S
C1896 C1894 1.478 . S
C1896 C1898 1.381 . S
C1896 C1902 1.383 . S
C1897 C1893 1.495 . S
C1897 H1903 0.959 . S
C1897 H1904 0.961 . S
C1897 H1905 0.960 . S
C1898 C1896 1.381 . S
C1898 C1899 1.394 . S
C1898 H1906 0.930 . S
C1899 C1898 1.394 . S
C1899 C1900 1.383 . S
C1899 H1907 0.929 . S
C1900 C1899 1.383 . S
C1900 C1901 1.377 . S
C1901 H1885 0.930 . S
C1901 C1900 1.377 . S
C1901 C1902 1.379 . S
C1902 H1886 0.931 . S
C1902 C1896 1.383 . S
C1902 C1901 1.379 . S
H1903 C1897 0.959 . S
H1904 C1897 0.961 . S
H1905 C1897 0.960 . S
H1906 C1898 0.930 . S
H1907 C1899 0.929 . S
H1908 C1916 0.929 . S
H1909 C1918 0.930 . S
H1910 C1920 0.930 . S
H1911 C1923 0.929 . S
H1912 C1926 0.930 . S
H1913 C1928 0.961 1_545 S
H1914 C1928 0.960 . S
H1915 C1928 0.960 . S
C1916 H1908 0.929 . S
C1916 C1917 1.377 . S
C1916 C1918 1.384 . S
C1917 C1916 1.377 . S
C1917 C1923 1.390 . S
C1918 H1909 0.930 . S
C1918 C1916 1.384 . S
C1918 C1919 1.372 . S
C1919 C1918 1.372 . S
C1919 C1920 1.400 . S
C1919 C1924 1.490 . S
C1920 H1910 0.930 . S
C1920 C1919 1.400 . S
C1920 C1923 1.386 . S
H1921 C1937 0.930 . S
H1922 C1938 0.931 . S
C1923 H1911 0.929 . S
C1923 C1917 1.390 . S
C1923 C1920 1.386 . S
C1924 C1919 1.490 . S
C1924 C1926 1.395 1_565 S
C1924 C1927 1.403 1_565 S
H1925 C1931 0.930 . S
C1926 H1912 0.930 . S
C1926 C1924 1.395 1_545 S
C1926 C1929 1.403 . S
C1927 C1924 1.403 1_545 S
C1927 C1928 1.524 1_545 S
C1927 C1931 1.400 . S
C1928 H1913 0.961 1_565 S
C1928 H1914 0.960 . S
C1928 H1915 0.960 . S
C1928 C1927 1.524 1_565 S
C1929 C1926 1.403 . S
C1929 C1930 1.392 . S
C1929 C1933 1.495 . S
C1930 C1929 1.392 . S
C1930 C1931 1.385 . S
C1930 C1932 1.478 . S
C1931 H1925 0.930 . S
C1931 C1927 1.400 . S
C1931 C1930 1.385 . S
C1932 C1930 1.478 . S
C1932 C1934 1.381 . S
C1932 C1938 1.383 . S
C1933 C1929 1.495 . S
C1933 H1939 0.959 . S
C1933 H1940 0.961 . S
C1933 H1941 0.960 . S
C1934 C1932 1.381 . S
C1934 C1935 1.394 . S
C1934 H1942 0.930 . S
C1935 C1934 1.394 . S
C1935 C1936 1.383 . S
C1935 H1943 0.929 . S
C1936 C1935 1.383 . S
C1936 C1937 1.377 . S
C1937 H1921 0.930 . S
C1937 C1936 1.377 . S
C1937 C1938 1.379 . S
C1938 H1922 0.931 . S
C1938 C1932 1.383 . S
C1938 C1937 1.379 . S
H1939 C1933 0.959 . S
H1940 C1933 0.961 . S
H1941 C1933 0.960 . S
H1942 C1934 0.930 . S
H1943 C1935 0.929 . S
H1944 C1952 0.929 . S
H1945 C1954 0.930 . S
H1946 C1956 0.930 1_655 S
H1947 C1959 0.929 . S
H1948 C1962 0.930 . S
H1949 C1964 0.960 . S
H1950 C1964 0.960 1_455 S
H1951 C1964 0.960 . S
C1952 H1944 0.929 . S
C1952 C1953 1.377 . S
C1952 C1954 1.384 . S
C1953 C1952 1.377 . S
C1953 C1959 1.390 . S
C1954 H1945 0.930 . S
C1954 C1952 1.384 . S
C1954 C1955 1.372 . S
C1955 C1954 1.372 . S
C1955 C1956 1.400 . S
C1955 C1960 1.490 1_455 S
C1956 H1946 0.930 1_455 S
C1956 C1955 1.400 . S
C1956 C1959 1.386 . S
H1957 C1973 0.930 . S
H1958 C1974 0.931 . S
C1959 H1947 0.929 . S
C1959 C1953 1.390 . S
C1959 C1956 1.386 . S
C1960 C1955 1.490 1_655 S
C1960 C1962 1.395 . S
C1960 C1963 1.403 . S
H1961 C1967 0.930 . S
C1962 H1948 0.930 . S
C1962 C1960 1.395 . S
C1962 C1965 1.403 . S
C1963 C1960 1.403 . S
C1963 C1964 1.524 . S
C1963 C1967 1.400 . S
C1964 H1949 0.960 . S
C1964 H1950 0.960 1_655 S
C1964 H1951 0.960 . S
C1964 C1963 1.524 . S
C1965 C1962 1.403 . S
C1965 C1966 1.392 . S
C1965 C1969 1.495 . S
C1966 C1965 1.392 . S
C1966 C1967 1.385 . S
C1966 C1968 1.478 . S
C1967 H1961 0.930 . S
C1967 C1963 1.400 . S
C1967 C1966 1.385 . S
C1968 C1966 1.478 . S
C1968 C1970 1.381 . S
C1968 C1974 1.383 . S
C1969 C1965 1.495 . S
C1969 H1975 0.959 . S
C1969 H1976 0.961 . S
C1969 H1977 0.960 . S
C1970 C1968 1.381 . S
C1970 C1971 1.394 . S
C1970 H1978 0.930 . S
C1971 C1970 1.394 . S
C1971 C1972 1.383 . S
C1971 H1979 0.929 . S
C1972 C1971 1.383 . S
C1972 C1973 1.377 . S
C1973 H1957 0.930 . S
C1973 C1972 1.377 . S
C1973 C1974 1.379 . S
C1974 H1958 0.931 . S
C1974 C1968 1.383 . S
C1974 C1973 1.379 . S
H1975 C1969 0.959 . S
H1976 C1969 0.961 . S
H1977 C1969 0.960 . S
H1978 C1970 0.930 . S
H1979 C1971 0.929 . S
H1980 C1988 0.929 . S
H1981 C1990 0.930 . S
H1982 C1992 0.930 . S
H1983 C1995 0.929 . S
H1984 C1998 0.930 . S
H1985 C2000 0.960 . S
H1986 C2000 0.960 . S
H1987 C2000 0.960 . S
C1988 H1980 0.929 . S
C1988 C1989 1.377 . S
C1988 C1990 1.384 . S
C1989 C1988 1.377 . S
C1989 C1995 1.390 . S
C1990 H1981 0.930 . S
C1990 C1988 1.384 . S
C1990 C1991 1.372 . S
C1991 C1990 1.372 . S
C1991 C1992 1.400 . S
C1991 C1996 1.490 . S
C1992 H1982 0.930 . S
C1992 C1991 1.400 . S
C1992 C1995 1.386 . S
H1993 C2009 0.930 . S
H1994 C2010 0.931 . S
C1995 H1983 0.929 . S
C1995 C1989 1.390 . S
C1995 C1992 1.386 . S
C1996 C1991 1.490 . S
C1996 C1998 1.395 . S
C1996 C1999 1.403 . S
H1997 C2003 0.930 . S
C1998 H1984 0.930 . S
C1998 C1996 1.395 . S
C1998 C2001 1.403 . S
C1999 C1996 1.403 . S
C1999 C2000 1.524 . S
C1999 C2003 1.400 . S
C2000 H1985 0.960 . S
C2000 H1986 0.960 . S
C2000 H1987 0.960 . S
C2000 C1999 1.524 . S
C2001 C1998 1.403 . S
C2001 C2002 1.392 . S
C2001 C2005 1.495 . S
C2002 C2001 1.392 . S
C2002 C2003 1.385 . S
C2002 C2004 1.478 . S
C2003 H1997 0.930 . S
C2003 C1999 1.400 . S
C2003 C2002 1.385 . S
C2004 C2002 1.478 . S
C2004 C2006 1.381 . S
C2004 C2010 1.383 . S
C2005 C2001 1.495 . S
C2005 H2011 0.959 . S
C2005 H2012 0.961 . S
C2005 H2013 0.960 . S
C2006 C2004 1.381 . S
C2006 C2007 1.394 . S
C2006 H2014 0.930 . S
C2007 C2006 1.394 . S
C2007 C2008 1.383 . S
C2007 H2015 0.929 . S
C2008 C2007 1.383 . S
C2008 C2009 1.377 . S
C2009 H1993 0.930 . S
C2009 C2008 1.377 . S
C2009 C2010 1.379 . S
C2010 H1994 0.931 . S
C2010 C2004 1.383 . S
C2010 C2009 1.379 . S
H2011 C2005 0.959 . S
H2012 C2005 0.961 . S
H2013 C2005 0.960 . S
H2014 C2006 0.930 . S
H2015 C2007 0.929 . S
H2016 C2024 0.929 . S
H2017 C2026 0.930 . S
H2018 C2028 0.930 . S
H2019 C2031 0.929 . S
H2020 C2034 0.930 1_455 S
H2021 C2036 0.960 . S
H2022 C2036 0.960 . S
H2023 C2036 0.960 . S
C2024 H2016 0.929 . S
C2024 C2025 1.377 . S
C2024 C2026 1.384 . S
C2025 C2024 1.377 . S
C2025 C2031 1.390 . S
C2026 H2017 0.930 . S
C2026 C2024 1.384 . S
C2026 C2027 1.372 . S
C2027 C2026 1.372 . S
C2027 C2028 1.400 . S
C2027 C2032 1.490 1_455 S
C2028 H2018 0.930 . S
C2028 C2027 1.400 . S
C2028 C2031 1.386 . S
H2029 C2045 0.930 . S
H2030 C2046 0.931 . S
C2031 H2019 0.929 . S
C2031 C2025 1.390 . S
C2031 C2028 1.386 . S
C2032 C2027 1.490 1_655 S
C2032 C2034 1.395 . S
C2032 C2035 1.403 . S
H2033 C2039 0.930 . S
C2034 H2020 0.930 1_655 S
C2034 C2032 1.395 . S
C2034 C2037 1.403 . S
C2035 C2032 1.403 . S
C2035 C2036 1.524 . S
C2035 C2039 1.400 . S
C2036 H2021 0.960 . S
C2036 H2022 0.960 . S
C2036 H2023 0.960 . S
C2036 C2035 1.524 . S
C2037 C2034 1.403 . S
C2037 C2038 1.392 . S
C2037 C2041 1.495 . S
C2038 C2037 1.392 . S
C2038 C2039 1.385 . S
C2038 C2040 1.478 . S
C2039 H2033 0.930 . S
C2039 C2035 1.400 . S
C2039 C2038 1.385 . S
C2040 C2038 1.478 . S
C2040 C2042 1.381 . S
C2040 C2046 1.383 . S
C2041 C2037 1.495 . S
C2041 H2047 0.959 . S
C2041 H2048 0.961 . S
C2041 H2049 0.960 . S
C2042 C2040 1.381 . S
C2042 C2043 1.394 . S
C2042 H2050 0.930 . S
C2043 C2042 1.394 . S
C2043 C2044 1.383 . S
C2043 H2051 0.929 . S
C2044 C2043 1.383 . S
C2044 C2045 1.377 . S
C2045 H2029 0.930 . S
C2045 C2044 1.377 . S
C2045 C2046 1.379 . S
C2046 H2030 0.931 . S
C2046 C2040 1.383 . S
C2046 C2045 1.379 . S
H2047 C2041 0.959 . S
H2048 C2041 0.961 . S
H2049 C2041 0.960 . S
H2050 C2042 0.930 . S
H2051 C2043 0.929 . S
H2052 C2060 0.929 . S
H2053 C2062 0.930 . S
H2054 C2064 0.930 . S
H2055 C2067 0.929 . S
H2056 C2070 0.930 . S
H2057 C2072 0.960 . S
H2058 C2072 0.960 . S
H2059 C2072 0.960 . S
C2060 H2052 0.929 . S
C2060 C2061 1.377 . S
C2060 C2062 1.384 . S
C2061 C2060 1.377 . S
C2061 C2067 1.390 . S
C2062 H2053 0.930 . S
C2062 C2060 1.384 . S
C2062 C2063 1.372 . S
C2063 C2062 1.372 . S
C2063 C2064 1.400 . S
C2063 C2068 1.490 . S
C2064 H2054 0.930 . S
C2064 C2063 1.400 . S
C2064 C2067 1.386 . S
H2065 C2081 0.930 . S
H2066 C2082 0.931 . S
C2067 H2055 0.929 . S
C2067 C2061 1.390 . S
C2067 C2064 1.386 . S
C2068 C2063 1.490 . S
C2068 C2070 1.395 . S
C2068 C2071 1.403 . S
H2069 C2075 0.930 . S
C2070 H2056 0.930 . S
C2070 C2068 1.395 . S
C2070 C2073 1.403 . S
C2071 C2068 1.403 . S
C2071 C2072 1.524 . S
C2071 C2075 1.400 . S
C2072 H2057 0.960 . S
C2072 H2058 0.960 . S
C2072 H2059 0.960 . S
C2072 C2071 1.524 . S
C2073 C2070 1.403 . S
C2073 C2074 1.392 . S
C2073 C2077 1.495 . S
C2074 C2073 1.392 . S
C2074 C2075 1.385 . S
C2074 C2076 1.478 . S
C2075 H2069 0.930 . S
C2075 C2071 1.400 . S
C2075 C2074 1.385 . S
C2076 C2074 1.478 . S
C2076 C2078 1.381 . S
C2076 C2082 1.383 . S
C2077 C2073 1.495 . S
C2077 H2083 0.959 . S
C2077 H2084 0.961 . S
C2077 H2085 0.960 . S
C2078 C2076 1.381 . S
C2078 C2079 1.394 . S
C2078 H2086 0.930 . S
C2079 C2078 1.394 . S
C2079 C2080 1.383 . S
C2079 H2087 0.929 . S
C2080 C2079 1.383 . S
C2080 C2081 1.377 . S
C2081 H2065 0.930 . S
C2081 C2080 1.377 . S
C2081 C2082 1.379 . S
C2082 H2066 0.931 . S
C2082 C2076 1.383 . S
C2082 C2081 1.379 . S
H2083 C2077 0.959 . S
H2084 C2077 0.961 . S
H2085 C2077 0.960 . S
H2086 C2078 0.930 . S
H2087 C2079 0.929 . S
H2088 C2096 0.929 . S
H2089 C2098 0.930 . S
H2090 C2100 0.930 . S
H2091 C2103 0.929 . S
H2092 C2106 0.899 1_565 S
H2093 C2108 0.963 1_545 S
H2094 C2108 0.960 . S
H2095 C2108 0.960 . S
C2096 H2088 0.929 . S
C2096 C2097 1.377 . S
C2096 C2098 1.384 . S
C2097 C2096 1.377 . S
C2097 C2103 1.390 . S
C2098 H2089 0.930 . S
C2098 C2096 1.384 . S
C2098 C2099 1.372 . S
C2099 C2098 1.372 . S
C2099 C2100 1.400 . S
C2099 C2104 1.490 . S
C2100 H2090 0.930 . S
C2100 C2099 1.400 . S
C2100 C2103 1.386 . S
H2101 C2117 0.930 . S
H2102 C2118 0.931 . S
C2103 H2091 0.929 . S
C2103 C2097 1.390 . S
C2103 C2100 1.386 . S
C2104 C2099 1.490 . S
C2104 C2106 1.395 1_565 S
C2104 C2107 1.403 1_565 S
H2105 C2111 0.930 . S
C2106 H2092 0.899 1_545 S
C2106 C2104 1.395 1_545 S
C2106 C2109 1.403 . S
C2107 C2104 1.403 1_545 S
C2107 C2108 1.524 1_545 S
C2107 C2111 1.400 . S
C2108 H2093 0.963 1_565 S
C2108 H2094 0.960 . S
C2108 H2095 0.960 . S
C2108 C2107 1.524 1_565 S
C2109 C2106 1.403 . S
C2109 C2110 1.392 . S
C2109 C2113 1.495 . S
C2110 C2109 1.392 . S
C2110 C2111 1.385 . S
C2110 C2112 1.478 . S
C2111 H2105 0.930 . S
C2111 C2107 1.400 . S
C2111 C2110 1.385 . S
C2112 C2110 1.478 . S
C2112 C2114 1.381 . S
C2112 C2118 1.383 . S
C2113 C2109 1.495 . S
C2113 H2119 0.959 . S
C2113 H2120 0.961 . S
C2113 H2121 0.960 . S
C2114 C2112 1.381 . S
C2114 C2115 1.394 . S
C2114 H2122 0.930 . S
C2115 C2114 1.394 . S
C2115 C2116 1.383 . S
C2115 H2123 0.929 . S
C2116 C2115 1.383 . S
C2116 C2117 1.377 . S
C2117 H2101 0.930 . S
C2117 C2116 1.377 . S
C2117 C2118 1.379 . S
C2118 H2102 0.931 . S
C2118 C2112 1.383 . S
C2118 C2117 1.379 . S
H2119 C2113 0.959 . S
H2120 C2113 0.961 . S
H2121 C2113 0.960 . S
H2122 C2114 0.930 . S
H2123 C2115 0.929 . S
H2124 C2132 0.929 . S
H2125 C2134 0.930 . S
H2126 C2136 0.930 . S
H2127 C2139 0.929 . S
H2128 C2142 0.930 . S
H2129 C2144 0.960 . S
H2130 C2144 0.960 . S
H2131 C2144 0.960 . S
C2132 H2124 0.929 . S
C2132 C2133 1.377 . S
C2132 C2134 1.384 . S
C2133 C2132 1.377 . S
C2133 C2139 1.390 . S
C2134 H2125 0.930 . S
C2134 C2132 1.384 . S
C2134 C2135 1.372 . S
C2135 C2134 1.372 . S
C2135 C2136 1.400 . S
C2135 C2140 1.490 . S
C2136 H2126 0.930 . S
C2136 C2135 1.400 . S
C2136 C2139 1.386 . S
H2137 C2153 0.930 . S
H2138 C2154 0.931 . S
C2139 H2127 0.929 . S
C2139 C2133 1.390 . S
C2139 C2136 1.386 . S
C2140 C2135 1.490 . S
C2140 C2142 1.395 . S
C2140 C2143 1.403 . S
H2141 C2147 0.930 . S
C2142 H2128 0.930 . S
C2142 C2140 1.395 . S
C2142 C2145 1.403 . S
C2143 C2140 1.403 . S
C2143 C2144 1.524 . S
C2143 C2147 1.400 . S
C2144 H2129 0.960 . S
C2144 H2130 0.960 . S
C2144 H2131 0.960 . S
C2144 C2143 1.524 . S
C2145 C2142 1.403 . S
C2145 C2146 1.392 . S
C2145 C2149 1.495 . S
C2146 C2145 1.392 . S
C2146 C2147 1.385 . S
C2146 C2148 1.478 . S
C2147 H2141 0.930 . S
C2147 C2143 1.400 . S
C2147 C2146 1.385 . S
C2148 C2146 1.478 . S
C2148 C2150 1.381 . S
C2148 C2154 1.383 . S
C2149 C2145 1.495 . S
C2149 H2155 0.959 . S
C2149 H2156 0.961 . S
C2149 H2157 0.960 . S
C2150 C2148 1.381 . S
C2150 C2151 1.394 . S
C2150 H2158 0.930 . S
C2151 C2150 1.394 . S
C2151 C2152 1.383 . S
C2151 H2159 0.929 . S
C2152 C2151 1.383 . S
C2152 C2153 1.377 . S
C2153 H2137 0.930 . S
C2153 C2152 1.377 . S
C2153 C2154 1.379 . S
C2154 H2138 0.931 . S
C2154 C2148 1.383 . S
C2154 C2153 1.379 . S
H2155 C2149 0.959 . S
H2156 C2149 0.961 . S
H2157 C2149 0.960 . S
H2158 C2150 0.930 . S
H2159 C2151 0.929 . S
H2160 C2168 0.929 . S
H2161 C2170 0.930 . S
H2162 C2172 0.930 . S
H2163 C2175 0.929 . S
H2164 C2178 0.930 . S
H2165 C2180 0.960 . S
H2166 C2180 0.960 . S
H2167 C2180 0.960 . S
C2168 H2160 0.929 . S
C2168 C2169 1.377 . S
C2168 C2170 1.384 . S
C2169 C2168 1.377 . S
C2169 C2175 1.390 . S
C2170 H2161 0.930 . S
C2170 C2168 1.384 . S
C2170 C2171 1.372 . S
C2171 C2170 1.372 . S
C2171 C2172 1.400 . S
C2171 C2176 1.490 . S
C2172 H2162 0.930 . S
C2172 C2171 1.400 . S
C2172 C2175 1.386 . S
H2173 C2189 0.930 . S
H2174 C2190 0.931 . S
C2175 H2163 0.929 . S
C2175 C2169 1.390 . S
C2175 C2172 1.386 . S
C2176 C2171 1.490 . S
C2176 C2178 1.395 . S
C2176 C2179 1.403 . S
H2177 C2183 0.930 . S
C2178 H2164 0.930 . S
C2178 C2176 1.395 . S
C2178 C2181 1.403 . S
C2179 C2176 1.403 . S
C2179 C2180 1.524 . S
C2179 C2183 1.400 . S
C2180 H2165 0.960 . S
C2180 H2166 0.960 . S
C2180 H2167 0.960 . S
C2180 C2179 1.524 . S
C2181 C2178 1.403 . S
C2181 C2182 1.392 . S
C2181 C2185 1.495 . S
C2182 C2181 1.392 . S
C2182 C2183 1.385 . S
C2182 C2184 1.478 . S
C2183 H2177 0.930 . S
C2183 C2179 1.400 . S
C2183 C2182 1.385 . S
C2184 C2182 1.478 . S
C2184 C2186 1.381 . S
C2184 C2190 1.383 . S
C2185 C2181 1.495 . S
C2185 H2191 0.959 . S
C2185 H2192 0.961 . S
C2185 H2193 0.960 . S
C2186 C2184 1.381 . S
C2186 C2187 1.394 . S
C2186 H2194 0.930 . S
C2187 C2186 1.394 . S
C2187 C2188 1.383 . S
C2187 H2195 0.929 . S
C2188 C2187 1.383 . S
C2188 C2189 1.377 . S
C2189 H2173 0.930 . S
C2189 C2188 1.377 . S
C2189 C2190 1.379 . S
C2190 H2174 0.931 . S
C2190 C2184 1.383 . S
C2190 C2189 1.379 . S
H2191 C2185 0.959 . S
H2192 C2185 0.961 . S
H2193 C2185 0.960 . S
H2194 C2186 0.930 . S
H2195 C2187 0.929 . S
H2196 C2204 0.929 . S
H2197 C2206 0.930 . S
H2198 C2208 0.930 . S
H2199 C2211 0.929 . S
H2200 C2214 0.930 . S
H2201 C2216 0.960 . S
H2202 C2216 0.960 . S
H2203 C2216 0.960 . S
C2204 H2196 0.929 . S
C2204 C2205 1.377 . S
C2204 C2206 1.384 . S
C2205 C2204 1.377 . S
C2205 C2211 1.390 . S
C2206 H2197 0.930 . S
C2206 C2204 1.384 . S
C2206 C2207 1.372 . S
C2207 C2206 1.372 . S
C2207 C2208 1.400 . S
C2207 C2212 1.490 . S
C2208 H2198 0.930 . S
C2208 C2207 1.400 . S
C2208 C2211 1.386 . S
H2209 C2225 0.930 . S
H2210 C2226 0.931 . S
C2211 H2199 0.929 . S
C2211 C2205 1.390 . S
C2211 C2208 1.386 . S
C2212 C2207 1.490 . S
C2212 C2214 1.395 . S
C2212 C2215 1.403 . S
H2213 C2219 0.930 . S
C2214 H2200 0.930 . S
C2214 C2212 1.395 . S
C2214 C2217 1.403 . S
C2215 C2212 1.403 . S
C2215 C2216 1.524 . S
C2215 C2219 1.400 . S
C2216 H2201 0.960 . S
C2216 H2202 0.960 . S
C2216 H2203 0.960 . S
C2216 C2215 1.524 . S
C2217 C2214 1.403 . S
C2217 C2218 1.392 . S
C2217 C2221 1.495 . S
C2218 C2217 1.392 . S
C2218 C2219 1.385 . S
C2218 C2220 1.478 . S
C2219 H2213 0.930 . S
C2219 C2215 1.400 . S
C2219 C2218 1.385 . S
C2220 C2218 1.478 . S
C2220 C2222 1.381 . S
C2220 C2226 1.383 . S
C2221 C2217 1.495 . S
C2221 H2227 0.959 . S
C2221 H2228 0.961 . S
C2221 H2229 0.960 . S
C2222 C2220 1.381 . S
C2222 C2223 1.394 . S
C2222 H2230 0.930 . S
C2223 C2222 1.394 . S
C2223 C2224 1.383 . S
C2223 H2231 0.929 . S
C2224 C2223 1.383 . S
C2224 C2225 1.377 . S
C2225 H2209 0.930 . S
C2225 C2224 1.377 . S
C2225 C2226 1.379 . S
C2226 H2210 0.931 . S
C2226 C2220 1.383 . S
C2226 C2225 1.379 . S
H2227 C2221 0.959 . S
H2228 C2221 0.961 . S
H2229 C2221 0.960 . S
H2230 C2222 0.930 . S
H2231 C2223 0.929 . S
H2232 C2240 0.929 . S
H2233 C2242 0.930 . S
H2234 C2244 0.930 . S
H2235 C2247 0.929 . S
H2236 C2250 0.930 . S
H2237 C2252 0.960 1_545 S
H2238 C2252 0.960 . S
H2239 C2252 0.960 1_545 S
C2240 H2232 0.929 . S
C2240 C2241 1.377 . S
C2240 C2242 1.384 . S
C2241 C2240 1.377 . S
C2241 C2247 1.390 . S
C2242 H2233 0.930 . S
C2242 C2240 1.384 . S
C2242 C2243 1.372 . S
C2243 C2242 1.372 . S
C2243 C2244 1.400 . S
C2243 C2248 1.490 . S
C2244 H2234 0.930 . S
C2244 C2243 1.400 . S
C2244 C2247 1.386 . S
H2245 C2261 0.930 1_545 S
H2246 C2262 0.941 . S
C2247 H2235 0.929 . S
C2247 C2241 1.390 . S
C2247 C2244 1.386 . S
C2248 C2243 1.490 . S
C2248 C2250 1.395 . S
C2248 C2251 1.403 . S
H2249 C2255 0.930 . S
C2250 H2236 0.930 . S
C2250 C2248 1.395 . S
C2250 C2253 1.403 . S
C2251 C2248 1.403 . S
C2251 C2252 1.524 . S
C2251 C2255 1.400 . S
C2252 H2237 0.960 1_565 S
C2252 H2238 0.960 . S
C2252 H2239 0.960 1_565 S
C2252 C2251 1.524 . S
C2253 C2250 1.403 . S
C2253 C2254 1.392 . S
C2253 C2257 1.495 . S
C2254 C2253 1.392 . S
C2254 C2255 1.385 . S
C2254 C2256 1.478 . S
C2255 H2249 0.930 . S
C2255 C2251 1.400 . S
C2255 C2254 1.385 . S
C2256 C2254 1.478 . S
C2256 C2258 1.381 . S
C2256 C2262 1.383 . S
C2257 C2253 1.495 . S
C2257 H2263 0.959 . S
C2257 H2264 0.961 . S
C2257 H2265 0.960 . S
C2258 C2256 1.381 . S
C2258 C2259 1.394 . S
C2258 H2266 0.930 . S
C2259 C2258 1.394 . S
C2259 C2260 1.383 . S
C2259 H2267 0.929 . S
C2260 C2259 1.383 . S
C2260 C2261 1.377 . S
C2261 H2245 0.930 1_565 S
C2261 C2260 1.377 . S
C2261 C2262 1.379 . S
C2262 H2246 0.941 . S
C2262 C2256 1.383 . S
C2262 C2261 1.379 . S
H2263 C2257 0.959 . S
H2264 C2257 0.961 . S
H2265 C2257 0.960 . S
H2266 C2258 0.930 . S
H2267 C2259 0.929 . S
H2268 C2276 0.929 . S
H2269 C2278 0.930 . S
H2270 C2280 0.930 . S
H2271 C2283 0.929 . S
H2272 C2286 0.930 1_655 S
H2273 C2288 0.960 . S
H2274 C2288 0.960 . S
H2275 C2288 0.960 . S
C2276 H2268 0.929 . S
C2276 C2277 1.377 . S
C2276 C2278 1.384 . S
C2277 C2276 1.377 . S
C2277 C2283 1.390 . S
C2278 H2269 0.930 . S
C2278 C2276 1.384 . S
C2278 C2279 1.372 . S
C2279 C2278 1.372 . S
C2279 C2280 1.400 . S
C2279 C2284 1.490 . S
C2280 H2270 0.930 . S
C2280 C2279 1.400 . S
C2280 C2283 1.386 . S
H2281 C2297 0.935 . S
H2282 C2298 0.906 1_655 S
C2283 H2271 0.929 . S
C2283 C2277 1.390 . S
C2283 C2280 1.386 . S
C2284 C2279 1.490 . S
C2284 C2286 1.395 . S
C2284 C2287 1.403 . S
H2285 C2291 0.930 . S
C2286 H2272 0.930 1_455 S
C2286 C2284 1.395 . S
C2286 C2289 1.403 . S
C2287 C2284 1.403 . S
C2287 C2288 1.524 . S
C2287 C2291 1.400 . S
C2288 H2273 0.960 . S
C2288 H2274 0.960 . S
C2288 H2275 0.960 . S
C2288 C2287 1.524 . S
C2289 C2286 1.403 . S
C2289 C2290 1.392 . S
C2289 C2293 1.495 1_455 S
C2290 C2289 1.392 . S
C2290 C2291 1.385 . S
C2290 C2292 1.478 . S
C2291 H2285 0.930 . S
C2291 C2287 1.400 . S
C2291 C2290 1.385 . S
C2292 C2290 1.478 . S
C2292 C2294 1.381 . S
C2292 C2298 1.383 . S
C2293 C2289 1.495 1_655 S
C2293 H2299 0.959 . S
C2293 H2300 0.961 . S
C2293 H2301 0.960 . S
C2294 C2292 1.381 . S
C2294 C2295 1.394 . S
C2294 H2302 0.930 . S
C2295 C2294 1.394 . S
C2295 C2296 1.383 . S
C2295 H2303 0.929 . S
C2296 C2295 1.383 . S
C2296 C2297 1.377 . S
C2297 H2281 0.935 . S
C2297 C2296 1.377 . S
C2297 C2298 1.379 . S
C2298 H2282 0.906 1_455 S
C2298 C2292 1.383 . S
C2298 C2297 1.379 . S
H2299 C2293 0.959 . S
H2300 C2293 0.961 . S
H2301 C2293 0.960 . S
H2302 C2294 0.930 . S
H2303 C2295 0.929 . S
H2304 C2312 0.929 . S
H2305 C2314 0.930 . S
H2306 C2316 0.930 . S
H2307 C2319 0.929 . S
H2308 C2322 0.930 . S
H2309 C2324 0.960 . S
H2310 C2324 0.960 . S
H2311 C2324 0.960 . S
C2312 H2304 0.929 . S
C2312 C2313 1.377 . S
C2312 C2314 1.384 . S
C2313 C2312 1.377 . S
C2313 C2319 1.390 . S
C2314 H2305 0.930 . S
C2314 C2312 1.384 . S
C2314 C2315 1.372 . S
C2315 C2314 1.372 . S
C2315 C2316 1.400 . S
C2315 C2320 1.490 . S
C2316 H2306 0.930 . S
C2316 C2315 1.400 . S
C2316 C2319 1.386 . S
H2317 C2333 0.930 . S
H2318 C2334 0.931 . S
C2319 H2307 0.929 . S
C2319 C2313 1.390 . S
C2319 C2316 1.386 . S
C2320 C2315 1.490 . S
C2320 C2322 1.395 . S
C2320 C2323 1.403 . S
H2321 C2327 0.930 . S
C2322 H2308 0.930 . S
C2322 C2320 1.395 . S
C2322 C2325 1.403 . S
C2323 C2320 1.403 . S
C2323 C2324 1.524 . S
C2323 C2327 1.400 . S
C2324 H2309 0.960 . S
C2324 H2310 0.960 . S
C2324 H2311 0.960 . S
C2324 C2323 1.524 . S
C2325 C2322 1.403 . S
C2325 C2326 1.392 . S
C2325 C2329 1.495 . S
C2326 C2325 1.392 . S
C2326 C2327 1.385 . S
C2326 C2328 1.478 . S
C2327 H2321 0.930 . S
C2327 C2323 1.400 . S
C2327 C2326 1.385 . S
C2328 C2326 1.478 . S
C2328 C2330 1.381 . S
C2328 C2334 1.383 . S
C2329 C2325 1.495 . S
C2329 H2335 0.959 . S
C2329 H2336 0.961 . S
C2329 H2337 0.960 . S
C2330 C2328 1.381 . S
C2330 C2331 1.394 . S
C2330 H2338 0.930 . S
C2331 C2330 1.394 . S
C2331 C2332 1.383 . S
C2331 H2339 0.929 . S
C2332 C2331 1.383 . S
C2332 C2333 1.377 . S
C2333 H2317 0.930 . S
C2333 C2332 1.377 . S
C2333 C2334 1.379 . S
C2334 H2318 0.931 . S
C2334 C2328 1.383 . S
C2334 C2333 1.379 . S
H2335 C2329 0.959 . S
H2336 C2329 0.961 . S
H2337 C2329 0.960 . S
H2338 C2330 0.930 . S
H2339 C2331 0.929 . S
H2340 C2348 0.929 1_455 S
H2341 C2350 0.975 . S
H2342 C2352 0.930 . S
H2343 C2355 0.929 . S
H2344 C2358 0.930 1_455 S
H2345 C2360 0.960 . S
H2346 C2360 0.960 . S
H2347 C2360 0.960 . S
C2348 H2340 0.929 1_655 S
C2348 C2349 1.378 . S
C2348 C2350 1.387 1_655 S
C2349 C2348 1.378 . S
C2349 C2355 1.390 . S
C2350 H2341 0.975 . S
C2350 C2348 1.387 1_455 S
C2350 C2351 1.326 1_455 S
C2351 C2350 1.326 1_655 S
C2351 C2352 1.400 . S
C2351 C2356 1.490 . S
C2352 H2342 0.930 . S
C2352 C2351 1.400 . S
C2352 C2355 1.386 . S
H2353 C2369 0.930 . S
H2354 C2370 0.931 . S
C2355 H2343 0.929 . S
C2355 C2349 1.390 . S
C2355 C2352 1.386 . S
C2356 C2351 1.490 . S
C2356 C2358 1.395 . S
C2356 C2359 1.403 . S
H2357 C2363 0.930 . S
C2358 H2344 0.930 1_655 S
C2358 C2356 1.395 . S
C2358 C2361 1.404 1_655 S
C2359 C2356 1.403 . S
C2359 C2360 1.524 . S
C2359 C2363 1.400 . S
C2360 H2345 0.960 . S
C2360 H2346 0.960 . S
C2360 H2347 0.960 . S
C2360 C2359 1.524 . S
C2361 C2358 1.404 1_455 S
C2361 C2362 1.390 1_455 S
C2361 C2365 1.497 . S
C2362 C2361 1.390 1_655 S
C2362 C2363 1.385 . S
C2362 C2364 1.478 . S
C2363 H2357 0.930 . S
C2363 C2359 1.400 . S
C2363 C2362 1.385 . S
C2364 C2362 1.478 . S
C2364 C2366 1.381 1_655 S
C2364 C2370 1.383 . S
C2365 C2361 1.497 . S
C2365 H2371 0.959 . S
C2365 H2372 0.961 . S
C2365 H2373 0.960 . S
C2366 C2364 1.381 1_455 S
C2366 C2367 1.394 . S
C2366 H2374 0.930 . S
C2367 C2366 1.394 . S
C2367 C2368 1.383 1_455 S
C2367 H2375 0.929 . S
C2368 C2367 1.383 1_655 S
C2368 C2369 1.377 . S
C2369 H2353 0.930 . S
C2369 C2368 1.377 . S
C2369 C2370 1.379 . S
C2370 H2354 0.931 . S
C2370 C2364 1.383 . S
C2370 C2369 1.379 . S
H2371 C2365 0.959 . S
H2372 C2365 0.961 . S
H2373 C2365 0.960 . S
H2374 C2366 0.930 . S
H2375 C2367 0.929 . S
H2376 C2384 0.929 . S
H2377 C2386 0.930 . S
H2378 C2388 0.930 . S
H2379 C2391 0.929 . S
H2380 C2394 0.930 . S
H2381 C2396 0.960 . S
H2382 C2396 0.960 . S
H2383 C2396 0.960 . S
C2384 H2376 0.929 . S
C2384 C2385 1.377 . S
C2384 C2386 1.384 . S
C2385 C2384 1.377 . S
C2385 C2391 1.390 . S
C2386 H2377 0.930 . S
C2386 C2384 1.384 . S
C2386 C2387 1.372 . S
C2387 C2386 1.372 . S
C2387 C2388 1.400 . S
C2387 C2392 1.490 . S
C2388 H2378 0.930 . S
C2388 C2387 1.400 . S
C2388 C2391 1.386 . S
H2389 C2405 0.930 . S
H2390 C2406 0.931 . S
C2391 H2379 0.929 . S
C2391 C2385 1.390 . S
C2391 C2388 1.386 . S
C2392 C2387 1.490 . S
C2392 C2394 1.395 . S
C2392 C2395 1.403 . S
H2393 C2399 0.930 . S
C2394 H2380 0.930 . S
C2394 C2392 1.395 . S
C2394 C2397 1.403 . S
C2395 C2392 1.403 . S
C2395 C2396 1.524 . S
C2395 C2399 1.400 . S
C2396 H2381 0.960 . S
C2396 H2382 0.960 . S
C2396 H2383 0.960 . S
C2396 C2395 1.524 . S
C2397 C2394 1.403 . S
C2397 C2398 1.392 . S
C2397 C2401 1.495 . S
C2398 C2397 1.392 . S
C2398 C2399 1.385 . S
C2398 C2400 1.478 . S
C2399 H2393 0.930 . S
C2399 C2395 1.400 . S
C2399 C2398 1.385 . S
C2400 C2398 1.478 . S
C2400 C2402 1.381 . S
C2400 C2406 1.383 . S
C2401 C2397 1.495 . S
C2401 H2407 0.959 . S
C2401 H2408 0.961 . S
C2401 H2409 0.960 . S
C2402 C2400 1.381 . S
C2402 C2403 1.394 . S
C2402 H2410 0.930 . S
C2403 C2402 1.394 . S
C2403 C2404 1.383 . S
C2403 H2411 0.929 . S
C2404 C2403 1.383 . S
C2404 C2405 1.377 . S
C2405 H2389 0.930 . S
C2405 C2404 1.377 . S
C2405 C2406 1.379 . S
C2406 H2390 0.931 . S
C2406 C2400 1.383 . S
C2406 C2405 1.379 . S
H2407 C2401 0.959 . S
H2408 C2401 0.961 . S
H2409 C2401 0.960 . S
H2410 C2402 0.930 . S
H2411 C2403 0.929 . S
H2412 C2420 0.929 . S
H2413 C2422 0.930 . S
H2414 C2424 0.930 . S
H2415 C2427 0.929 . S
H2416 C2430 0.930 . S
H2417 C2432 0.960 . S
H2418 C2432 0.960 . S
H2419 C2432 0.960 . S
C2420 H2412 0.929 . S
C2420 C2421 1.377 . S
C2420 C2422 1.384 . S
C2421 C2420 1.377 . S
C2421 C2427 1.390 . S
C2422 H2413 0.930 . S
C2422 C2420 1.384 . S
C2422 C2423 1.372 . S
C2423 C2422 1.372 . S
C2423 C2424 1.400 . S
C2423 C2428 1.490 . S
C2424 H2414 0.930 . S
C2424 C2423 1.400 . S
C2424 C2427 1.386 . S
H2425 C2441 0.930 . S
H2426 C2442 0.931 . S
C2427 H2415 0.929 . S
C2427 C2421 1.390 . S
C2427 C2424 1.386 . S
C2428 C2423 1.490 . S
C2428 C2430 1.395 . S
C2428 C2431 1.403 . S
H2429 C2435 0.930 . S
C2430 H2416 0.930 . S
C2430 C2428 1.395 . S
C2430 C2433 1.403 . S
C2431 C2428 1.403 . S
C2431 C2432 1.524 . S
C2431 C2435 1.400 . S
C2432 H2417 0.960 . S
C2432 H2418 0.960 . S
C2432 H2419 0.960 . S
C2432 C2431 1.524 . S
C2433 C2430 1.403 . S
C2433 C2434 1.392 . S
C2433 C2437 1.495 1_545 S
C2434 C2433 1.392 . S
C2434 C2435 1.385 . S
C2434 C2436 1.478 . S
C2435 H2429 0.930 . S
C2435 C2431 1.400 . S
C2435 C2434 1.385 . S
C2436 C2434 1.478 . S
C2436 C2438 1.381 . S
C2436 C2442 1.383 . S
C2437 C2433 1.495 1_565 S
C2437 H2443 0.959 . S
C2437 H2444 0.961 . S
C2437 H2445 0.960 . S
C2438 C2436 1.381 . S
C2438 C2439 1.394 . S
C2438 H2446 0.930 . S
C2439 C2438 1.394 . S
C2439 C2440 1.383 . S
C2439 H2447 0.929 . S
C2440 C2439 1.383 . S
C2440 C2441 1.377 . S
C2441 H2425 0.930 . S
C2441 C2440 1.377 . S
C2441 C2442 1.379 . S
C2442 H2426 0.931 . S
C2442 C2436 1.383 . S
C2442 C2441 1.379 . S
H2443 C2437 0.959 . S
H2444 C2437 0.961 . S
H2445 C2437 0.960 . S
H2446 C2438 0.930 . S
H2447 C2439 0.929 . S
H2448 C2456 0.929 . S
H2449 C2458 0.930 . S
H2450 C2460 0.930 . S
H2451 C2463 0.929 . S
H2452 C2466 0.930 . S
H2453 C2468 0.960 . S
H2454 C2468 0.960 . S
H2455 C2468 0.960 . S
C2456 H2448 0.929 . S
C2456 C2457 1.377 . S
C2456 C2458 1.384 . S
C2457 C2456 1.377 . S
C2457 C2463 1.390 . S
C2458 H2449 0.930 . S
C2458 C2456 1.384 . S
C2458 C2459 1.372 . S
C2459 C2458 1.372 . S
C2459 C2460 1.400 . S
C2459 C2464 1.490 . S
C2460 H2450 0.930 . S
C2460 C2459 1.400 . S
C2460 C2463 1.386 . S
H2461 C2477 0.930 . S
H2462 C2478 0.931 . S
C2463 H2451 0.929 . S
C2463 C2457 1.390 . S
C2463 C2460 1.386 . S
C2464 C2459 1.490 . S
C2464 C2466 1.395 . S
C2464 C2467 1.403 . S
H2465 C2471 0.930 . S
C2466 H2452 0.930 . S
C2466 C2464 1.395 . S
C2466 C2469 1.403 . S
C2467 C2464 1.403 . S
C2467 C2468 1.524 . S
C2467 C2471 1.400 . S
C2468 H2453 0.960 . S
C2468 H2454 0.960 . S
C2468 H2455 0.960 . S
C2468 C2467 1.524 . S
C2469 C2466 1.403 . S
C2469 C2470 1.392 . S
C2469 C2473 1.495 . S
C2470 C2469 1.392 . S
C2470 C2471 1.385 . S
C2470 C2472 1.478 . S
C2471 H2465 0.930 . S
C2471 C2467 1.400 . S
C2471 C2470 1.385 . S
C2472 C2470 1.478 . S
C2472 C2474 1.381 . S
C2472 C2478 1.383 . S
C2473 C2469 1.495 . S
C2473 H2479 0.959 . S
C2473 H2480 0.961 . S
C2473 H2481 0.960 . S
C2474 C2472 1.381 . S
C2474 C2475 1.394 . S
C2474 H2482 0.930 . S
C2475 C2474 1.394 . S
C2475 C2476 1.383 . S
C2475 H2483 0.929 . S
C2476 C2475 1.383 . S
C2476 C2477 1.377 . S
C2477 H2461 0.930 . S
C2477 C2476 1.377 . S
C2477 C2478 1.379 . S
C2478 H2462 0.931 . S
C2478 C2472 1.383 . S
C2478 C2477 1.379 . S
H2479 C2473 0.959 . S
H2480 C2473 0.961 . S
H2481 C2473 0.960 . S
H2482 C2474 0.930 . S
H2483 C2475 0.929 . S
H2484 C2492 0.929 . S
H2485 C2494 0.930 . S
H2486 C2496 0.930 . S
H2487 C2499 0.929 . S
H2488 C2502 0.930 . S
H2489 C2504 0.960 . S
H2490 C2504 0.960 . S
H2491 C2504 0.960 . S
C2492 H2484 0.929 . S
C2492 C2493 1.377 . S
C2492 C2494 1.384 . S
C2493 C2492 1.377 . S
C2493 C2499 1.390 . S
C2494 H2485 0.930 . S
C2494 C2492 1.384 . S
C2494 C2495 1.372 . S
C2495 C2494 1.372 . S
C2495 C2496 1.400 . S
C2495 C2500 1.490 . S
C2496 H2486 0.930 . S
C2496 C2495 1.400 . S
C2496 C2499 1.386 . S
H2497 C2513 0.930 . S
H2498 C2514 0.931 . S
C2499 H2487 0.929 . S
C2499 C2493 1.390 . S
C2499 C2496 1.386 . S
C2500 C2495 1.490 . S
C2500 C2502 1.395 . S
C2500 C2503 1.403 . S
H2501 C2507 0.930 . S
C2502 H2488 0.930 . S
C2502 C2500 1.395 . S
C2502 C2505 1.403 . S
C2503 C2500 1.403 . S
C2503 C2504 1.524 . S
C2503 C2507 1.400 . S
C2504 H2489 0.960 . S
C2504 H2490 0.960 . S
C2504 H2491 0.960 . S
C2504 C2503 1.524 . S
C2505 C2502 1.403 . S
C2505 C2506 1.392 . S
C2505 C2509 1.495 . S
C2506 C2505 1.392 . S
C2506 C2507 1.385 . S
C2506 C2508 1.478 . S
C2507 H2501 0.930 . S
C2507 C2503 1.400 . S
C2507 C2506 1.385 . S
C2508 C2506 1.478 . S
C2508 C2510 1.381 . S
C2508 C2514 1.383 . S
C2509 C2505 1.495 . S
C2509 H2515 0.959 . S
C2509 H2516 0.961 . S
C2509 H2517 0.960 . S
C2510 C2508 1.381 . S
C2510 C2511 1.394 . S
C2510 H2518 0.930 . S
C2511 C2510 1.394 . S
C2511 C2512 1.383 . S
C2511 H2519 0.929 . S
C2512 C2511 1.383 . S
C2512 C2513 1.377 . S
C2513 H2497 0.930 . S
C2513 C2512 1.377 . S
C2513 C2514 1.379 . S
C2514 H2498 0.931 . S
C2514 C2508 1.383 . S
C2514 C2513 1.379 . S
H2515 C2509 0.959 . S
H2516 C2509 0.961 . S
H2517 C2509 0.960 . S
H2518 C2510 0.930 . S
H2519 C2511 0.929 . S
H2520 C2528 0.929 . S
H2521 C2530 0.930 . S
H2522 C2532 0.930 . S
H2523 C2535 0.929 . S
H2524 C2538 0.930 . S
H2525 C2540 0.960 . S
H2526 C2540 0.960 . S
H2527 C2540 0.960 . S
C2528 H2520 0.929 . S
C2528 C2529 1.377 . S
C2528 C2530 1.384 . S
C2529 C2528 1.377 . S
C2529 C2535 1.390 . S
C2530 H2521 0.930 . S
C2530 C2528 1.384 . S
C2530 C2531 1.372 . S
C2531 C2530 1.372 . S
C2531 C2532 1.400 . S
C2531 C2536 1.490 . S
C2532 H2522 0.930 . S
C2532 C2531 1.400 . S
C2532 C2535 1.386 . S
H2533 C2549 0.930 . S
H2534 C2550 0.931 . S
C2535 H2523 0.929 . S
C2535 C2529 1.390 . S
C2535 C2532 1.386 . S
C2536 C2531 1.490 . S
C2536 C2538 1.395 . S
C2536 C2539 1.403 . S
H2537 C2543 0.930 . S
C2538 H2524 0.930 . S
C2538 C2536 1.395 . S
C2538 C2541 1.403 . S
C2539 C2536 1.403 . S
C2539 C2540 1.524 . S
C2539 C2543 1.400 . S
C2540 H2525 0.960 . S
C2540 H2526 0.960 . S
C2540 H2527 0.960 . S
C2540 C2539 1.524 . S
C2541 C2538 1.403 . S
C2541 C2542 1.392 . S
C2541 C2545 1.495 . S
C2542 C2541 1.392 . S
C2542 C2543 1.385 . S
C2542 C2544 1.478 . S
C2543 H2537 0.930 . S
C2543 C2539 1.400 . S
C2543 C2542 1.385 . S
C2544 C2542 1.478 . S
C2544 C2546 1.381 . S
C2544 C2550 1.383 . S
C2545 C2541 1.495 . S
C2545 H2551 0.959 . S
C2545 H2552 0.961 . S
C2545 H2553 0.960 . S
C2546 C2544 1.381 . S
C2546 C2547 1.394 . S
C2546 H2554 0.930 . S
C2547 C2546 1.394 . S
C2547 C2548 1.383 . S
C2547 H2555 0.929 . S
C2548 C2547 1.383 . S
C2548 C2549 1.377 . S
C2549 H2533 0.930 . S
C2549 C2548 1.377 . S
C2549 C2550 1.379 . S
C2550 H2534 0.931 . S
C2550 C2544 1.383 . S
C2550 C2549 1.379 . S
H2551 C2545 0.959 . S
H2552 C2545 0.961 . S
H2553 C2545 0.960 . S
H2554 C2546 0.930 . S
H2555 C2547 0.929 . S
H2556 C2564 0.929 . S
H2557 C2566 0.930 . S
H2558 C2568 0.930 . S
H2559 C2571 0.929 . S
H2560 C2574 0.930 . S
H2561 C2576 0.960 . S
H2562 C2576 0.960 . S
H2563 C2576 0.960 . S
C2564 H2556 0.929 . S
C2564 C2565 1.377 . S
C2564 C2566 1.384 . S
C2565 C2564 1.377 . S
C2565 C2571 1.390 . S
C2566 H2557 0.930 . S
C2566 C2564 1.384 . S
C2566 C2567 1.372 . S
C2567 C2566 1.372 . S
C2567 C2568 1.400 . S
C2567 C2572 1.490 . S
C2568 H2558 0.930 . S
C2568 C2567 1.400 . S
C2568 C2571 1.386 . S
H2569 C2585 0.930 . S
H2570 C2586 0.931 . S
C2571 H2559 0.929 . S
C2571 C2565 1.390 . S
C2571 C2568 1.386 . S
C2572 C2567 1.490 . S
C2572 C2574 1.395 . S
C2572 C2575 1.403 . S
H2573 C2579 0.930 . S
C2574 H2560 0.930 . S
C2574 C2572 1.395 . S
C2574 C2577 1.403 . S
C2575 C2572 1.403 . S
C2575 C2576 1.524 . S
C2575 C2579 1.400 . S
C2576 H2561 0.960 . S
C2576 H2562 0.960 . S
C2576 H2563 0.960 . S
C2576 C2575 1.524 . S
C2577 C2574 1.403 . S
C2577 C2578 1.392 . S
C2577 C2581 1.495 . S
C2578 C2577 1.392 . S
C2578 C2579 1.385 . S
C2578 C2580 1.478 . S
C2579 H2573 0.930 . S
C2579 C2575 1.400 . S
C2579 C2578 1.385 . S
C2580 C2578 1.478 . S
C2580 C2582 1.381 . S
C2580 C2586 1.383 . S
C2581 C2577 1.495 . S
C2581 H2587 0.959 . S
C2581 H2588 0.961 . S
C2581 H2589 0.960 . S
C2582 C2580 1.381 . S
C2582 C2583 1.394 . S
C2582 H2590 0.930 . S
C2583 C2582 1.394 . S
C2583 C2584 1.383 . S
C2583 H2591 0.929 . S
C2584 C2583 1.383 . S
C2584 C2585 1.377 . S
C2585 H2569 0.930 . S
C2585 C2584 1.377 . S
C2585 C2586 1.379 . S
C2586 H2570 0.931 . S
C2586 C2580 1.383 . S
C2586 C2585 1.379 . S
H2587 C2581 0.959 . S
H2588 C2581 0.961 . S
H2589 C2581 0.960 . S
H2590 C2582 0.930 . S
H2591 C2583 0.929 . S
H2592 C2600 0.929 . S
H2593 C2602 0.930 . S
H2594 C2604 0.930 . S
H2595 C2607 0.929 . S
H2596 C2610 0.930 . S
H2597 C2612 0.960 . S
H2598 C2612 0.960 . S
H2599 C2612 0.960 . S
C2600 H2592 0.929 . S
C2600 C2601 1.377 . S
C2600 C2602 1.384 . S
C2601 C2600 1.377 . S
C2601 C2607 1.390 . S
C2602 H2593 0.930 . S
C2602 C2600 1.384 . S
C2602 C2603 1.372 . S
C2603 C2602 1.372 . S
C2603 C2604 1.400 . S
C2603 C2608 1.490 . S
C2604 H2594 0.930 . S
C2604 C2603 1.400 . S
C2604 C2607 1.386 . S
H2605 C2621 0.930 . S
H2606 C2622 0.931 . S
C2607 H2595 0.929 . S
C2607 C2601 1.390 . S
C2607 C2604 1.386 . S
C2608 C2603 1.490 . S
C2608 C2610 1.395 . S
C2608 C2611 1.403 . S
H2609 C2615 0.930 . S
C2610 H2596 0.930 . S
C2610 C2608 1.395 . S
C2610 C2613 1.403 . S
C2611 C2608 1.403 . S
C2611 C2612 1.524 . S
C2611 C2615 1.400 . S
C2612 H2597 0.960 . S
C2612 H2598 0.960 . S
C2612 H2599 0.960 . S
C2612 C2611 1.524 . S
C2613 C2610 1.403 . S
C2613 C2614 1.392 . S
C2613 C2617 1.495 . S
C2614 C2613 1.392 . S
C2614 C2615 1.385 . S
C2614 C2616 1.478 . S
C2615 H2609 0.930 . S
C2615 C2611 1.400 . S
C2615 C2614 1.385 . S
C2616 C2614 1.478 . S
C2616 C2618 1.381 . S
C2616 C2622 1.383 . S
C2617 C2613 1.495 . S
C2617 H2623 0.959 . S
C2617 H2624 0.961 . S
C2617 H2625 0.960 . S
C2618 C2616 1.381 . S
C2618 C2619 1.394 . S
C2618 H2626 0.930 . S
C2619 C2618 1.394 . S
C2619 C2620 1.383 . S
C2619 H2627 0.929 . S
C2620 C2619 1.383 . S
C2620 C2621 1.377 . S
C2621 H2605 0.930 . S
C2621 C2620 1.377 . S
C2621 C2622 1.379 . S
C2622 H2606 0.931 . S
C2622 C2616 1.383 . S
C2622 C2621 1.379 . S
H2623 C2617 0.959 . S
H2624 C2617 0.961 . S
H2625 C2617 0.960 . S
H2626 C2618 0.930 . S
H2627 C2619 0.929 . S
H2628 C2636 0.929 . S
H2629 C2638 0.930 . S
H2630 C2640 0.930 . S
H2631 C2643 0.929 . S
H2632 C2646 0.930 . S
H2633 C2648 0.960 . S
H2634 C2648 0.960 . S
H2635 C2648 0.960 . S
C2636 H2628 0.929 . S
C2636 C2637 1.377 . S
C2636 C2638 1.384 . S
C2637 C2636 1.377 . S
C2637 C2643 1.390 . S
C2638 H2629 0.930 . S
C2638 C2636 1.384 . S
C2638 C2639 1.372 . S
C2639 C2638 1.372 . S
C2639 C2640 1.400 . S
C2639 C2644 1.490 . S
C2640 H2630 0.930 . S
C2640 C2639 1.400 . S
C2640 C2643 1.386 . S
H2641 C2657 0.930 . S
H2642 C2658 0.931 . S
C2643 H2631 0.929 . S
C2643 C2637 1.390 . S
C2643 C2640 1.386 . S
C2644 C2639 1.490 . S
C2644 C2646 1.395 . S
C2644 C2647 1.403 . S
H2645 C2651 0.930 . S
C2646 H2632 0.930 . S
C2646 C2644 1.395 . S
C2646 C2649 1.403 . S
C2647 C2644 1.403 . S
C2647 C2648 1.524 . S
C2647 C2651 1.400 . S
C2648 H2633 0.960 . S
C2648 H2634 0.960 . S
C2648 H2635 0.960 . S
C2648 C2647 1.524 . S
C2649 C2646 1.403 . S
C2649 C2650 1.392 . S
C2649 C2653 1.495 . S
C2650 C2649 1.392 . S
C2650 C2651 1.385 . S
C2650 C2652 1.478 . S
C2651 H2645 0.930 . S
C2651 C2647 1.400 . S
C2651 C2650 1.385 . S
C2652 C2650 1.478 . S
C2652 C2654 1.381 . S
C2652 C2658 1.383 . S
C2653 C2649 1.495 . S
C2653 H2659 0.959 . S
C2653 H2660 0.961 . S
C2653 H2661 0.960 . S
C2654 C2652 1.381 . S
C2654 C2655 1.394 . S
C2654 H2662 0.930 . S
C2655 C2654 1.394 . S
C2655 C2656 1.383 . S
C2655 H2663 0.929 . S
C2656 C2655 1.383 . S
C2656 C2657 1.377 . S
C2657 H2641 0.930 . S
C2657 C2656 1.377 . S
C2657 C2658 1.379 . S
C2658 H2642 0.931 . S
C2658 C2652 1.383 . S
C2658 C2657 1.379 . S
H2659 C2653 0.959 . S
H2660 C2653 0.961 . S
H2661 C2653 0.960 . S
H2662 C2654 0.930 . S
H2663 C2655 0.929 . S
H2664 C2672 0.929 . S
H2665 C2674 0.930 . S
H2666 C2676 0.930 . S
H2667 C2679 0.929 . S
H2668 C2682 0.930 . S
H2669 C2684 0.960 . S
H2670 C2684 0.960 . S
H2671 C2684 0.960 . S
C2672 H2664 0.929 . S
C2672 C2673 1.377 . S
C2672 C2674 1.384 . S
C2673 C2672 1.377 . S
C2673 C2679 1.390 . S
C2674 H2665 0.930 . S
C2674 C2672 1.384 . S
C2674 C2675 1.372 . S
C2675 C2674 1.372 . S
C2675 C2676 1.400 . S
C2675 C2680 1.490 . S
C2676 H2666 0.930 . S
C2676 C2675 1.400 . S
C2676 C2679 1.386 . S
H2677 C2693 0.930 . S
H2678 C2694 0.931 . S
C2679 H2667 0.929 . S
C2679 C2673 1.390 . S
C2679 C2676 1.386 . S
C2680 C2675 1.490 . S
C2680 C2682 1.395 . S
C2680 C2683 1.403 . S
H2681 C2687 0.930 . S
C2682 H2668 0.930 . S
C2682 C2680 1.395 . S
C2682 C2685 1.403 . S
C2683 C2680 1.403 . S
C2683 C2684 1.524 . S
C2683 C2687 1.400 . S
C2684 H2669 0.960 . S
C2684 H2670 0.960 . S
C2684 H2671 0.960 . S
C2684 C2683 1.524 . S
C2685 C2682 1.403 . S
C2685 C2686 1.392 . S
C2685 C2689 1.495 . S
C2686 C2685 1.392 . S
C2686 C2687 1.385 . S
C2686 C2688 1.478 . S
C2687 H2681 0.930 . S
C2687 C2683 1.400 . S
C2687 C2686 1.385 . S
C2688 C2686 1.478 . S
C2688 C2690 1.381 . S
C2688 C2694 1.383 . S
C2689 C2685 1.495 . S
C2689 H2695 0.959 . S
C2689 H2696 0.961 . S
C2689 H2697 0.960 . S
C2690 C2688 1.381 . S
C2690 C2691 1.394 . S
C2690 H2698 0.930 . S
C2691 C2690 1.394 . S
C2691 C2692 1.383 . S
C2691 H2699 0.929 . S
C2692 C2691 1.383 . S
C2692 C2693 1.377 . S
C2693 H2677 0.930 . S
C2693 C2692 1.377 . S
C2693 C2694 1.379 . S
C2694 H2678 0.931 . S
C2694 C2688 1.383 . S
C2694 C2693 1.379 . S
H2695 C2689 0.959 . S
H2696 C2689 0.961 . S
H2697 C2689 0.960 . S
H2698 C2690 0.930 . S
H2699 C2691 0.929 . S
H2700 C2708 0.929 . S
H2701 C2710 0.930 . S
H2702 C2712 0.930 . S
H2703 C2715 0.929 . S
H2704 C2718 0.930 . S
H2705 C2720 0.960 . S
H2706 C2720 0.960 . S
H2707 C2720 0.960 . S
C2708 H2700 0.929 . S
C2708 C2709 1.377 . S
C2708 C2710 1.384 . S
C2709 C2708 1.377 . S
C2709 C2715 1.390 . S
C2710 H2701 0.930 . S
C2710 C2708 1.384 . S
C2710 C2711 1.372 . S
C2711 C2710 1.372 . S
C2711 C2712 1.400 . S
C2711 C2716 1.490 . S
C2712 H2702 0.930 . S
C2712 C2711 1.400 . S
C2712 C2715 1.386 . S
H2713 C2729 0.930 . S
H2714 C2730 0.931 . S
C2715 H2703 0.929 . S
C2715 C2709 1.390 . S
C2715 C2712 1.386 . S
C2716 C2711 1.490 . S
C2716 C2718 1.395 . S
C2716 C2719 1.403 . S
H2717 C2723 0.930 . S
C2718 H2704 0.930 . S
C2718 C2716 1.395 . S
C2718 C2721 1.403 . S
C2719 C2716 1.403 . S
C2719 C2720 1.524 . S
C2719 C2723 1.400 . S
C2720 H2705 0.960 . S
C2720 H2706 0.960 . S
C2720 H2707 0.960 . S
C2720 C2719 1.524 . S
C2721 C2718 1.403 . S
C2721 C2722 1.392 . S
C2721 C2725 1.495 . S
C2722 C2721 1.392 . S
C2722 C2723 1.385 . S
C2722 C2724 1.478 . S
C2723 H2717 0.930 . S
C2723 C2719 1.400 . S
C2723 C2722 1.385 . S
C2724 C2722 1.478 . S
C2724 C2726 1.381 . S
C2724 C2730 1.383 . S
C2725 C2721 1.495 . S
C2725 H2731 0.959 . S
C2725 H2732 0.961 . S
C2725 H2733 0.960 . S
C2726 C2724 1.381 . S
C2726 C2727 1.394 . S
C2726 H2734 0.930 . S
C2727 C2726 1.394 . S
C2727 C2728 1.383 . S
C2727 H2735 0.929 . S
C2728 C2727 1.383 . S
C2728 C2729 1.377 . S
C2729 H2713 0.930 . S
C2729 C2728 1.377 . S
C2729 C2730 1.379 . S
C2730 H2714 0.931 . S
C2730 C2724 1.383 . S
C2730 C2729 1.379 . S
H2731 C2725 0.959 . S
H2732 C2725 0.961 . S
H2733 C2725 0.960 . S
H2734 C2726 0.930 . S
H2735 C2727 0.929 . S
H2736 C2744 0.929 . S
H2737 C2746 0.930 . S
H2738 C2748 0.930 . S
H2739 C2751 0.929 . S
H2740 C2754 0.930 . S
H2741 C2756 0.960 . S
H2742 C2756 0.960 . S
H2743 C2756 0.960 . S
C2744 H2736 0.929 . S
C2744 C2745 1.377 . S
C2744 C2746 1.384 . S
C2745 C2744 1.377 . S
C2745 C2751 1.390 . S
C2746 H2737 0.930 . S
C2746 C2744 1.384 . S
C2746 C2747 1.372 . S
C2747 C2746 1.372 . S
C2747 C2748 1.400 . S
C2747 C2752 1.490 . S
C2748 H2738 0.930 . S
C2748 C2747 1.400 . S
C2748 C2751 1.386 . S
H2749 C2765 0.930 . S
H2750 C2766 0.931 . S
C2751 H2739 0.929 . S
C2751 C2745 1.390 . S
C2751 C2748 1.386 . S
C2752 C2747 1.490 . S
C2752 C2754 1.395 . S
C2752 C2755 1.403 . S
H2753 C2759 0.930 . S
C2754 H2740 0.930 . S
C2754 C2752 1.395 . S
C2754 C2757 1.403 . S
C2755 C2752 1.403 . S
C2755 C2756 1.524 . S
C2755 C2759 1.400 . S
C2756 H2741 0.960 . S
C2756 H2742 0.960 . S
C2756 H2743 0.960 . S
C2756 C2755 1.524 . S
C2757 C2754 1.403 . S
C2757 C2758 1.392 . S
C2757 C2761 1.495 . S
C2758 C2757 1.392 . S
C2758 C2759 1.385 . S
C2758 C2760 1.478 . S
C2759 H2753 0.930 . S
C2759 C2755 1.400 . S
C2759 C2758 1.385 . S
C2760 C2758 1.478 . S
C2760 C2762 1.381 . S
C2760 C2766 1.383 . S
C2761 C2757 1.495 . S
C2761 H2767 0.959 . S
C2761 H2768 0.961 . S
C2761 H2769 0.960 . S
C2762 C2760 1.381 . S
C2762 C2763 1.394 . S
C2762 H2770 0.930 . S
C2763 C2762 1.394 . S
C2763 C2764 1.383 . S
C2763 H2771 0.929 . S
C2764 C2763 1.383 . S
C2764 C2765 1.377 . S
C2765 H2749 0.930 . S
C2765 C2764 1.377 . S
C2765 C2766 1.379 . S
C2766 H2750 0.931 . S
C2766 C2760 1.383 . S
C2766 C2765 1.379 . S
H2767 C2761 0.959 . S
H2768 C2761 0.961 . S
H2769 C2761 0.960 . S
H2770 C2762 0.930 . S
H2771 C2763 0.929 . S
H2772 C2780 0.929 . S
H2773 C2782 0.930 . S
H2774 C2784 0.930 . S
H2775 C2787 0.929 . S
H2776 C2790 0.930 . S
H2777 C2792 0.960 . S
H2778 C2792 0.960 . S
H2779 C2792 0.960 . S
C2780 H2772 0.929 . S
C2780 C2781 1.377 . S
C2780 C2782 1.384 . S
C2781 C2780 1.377 . S
C2781 C2787 1.390 . S
C2782 H2773 0.930 . S
C2782 C2780 1.384 . S
C2782 C2783 1.372 . S
C2783 C2782 1.372 . S
C2783 C2784 1.400 . S
C2783 C2788 1.490 . S
C2784 H2774 0.930 . S
C2784 C2783 1.400 . S
C2784 C2787 1.386 . S
H2785 C2801 0.930 . S
H2786 C2802 0.931 . S
C2787 H2775 0.929 . S
C2787 C2781 1.390 . S
C2787 C2784 1.386 . S
C2788 C2783 1.490 . S
C2788 C2790 1.395 . S
C2788 C2791 1.403 . S
H2789 C2795 0.930 . S
C2790 H2776 0.930 . S
C2790 C2788 1.395 . S
C2790 C2793 1.403 . S
C2791 C2788 1.403 . S
C2791 C2792 1.524 . S
C2791 C2795 1.400 . S
C2792 H2777 0.960 . S
C2792 H2778 0.960 . S
C2792 H2779 0.960 . S
C2792 C2791 1.524 . S
C2793 C2790 1.403 . S
C2793 C2794 1.392 . S
C2793 C2797 1.495 . S
C2794 C2793 1.392 . S
C2794 C2795 1.385 . S
C2794 C2796 1.478 . S
C2795 H2789 0.930 . S
C2795 C2791 1.400 . S
C2795 C2794 1.385 . S
C2796 C2794 1.478 . S
C2796 C2798 1.381 . S
C2796 C2802 1.383 . S
C2797 C2793 1.495 . S
C2797 H2803 0.959 . S
C2797 H2804 0.961 . S
C2797 H2805 0.960 . S
C2798 C2796 1.381 . S
C2798 C2799 1.394 . S
C2798 H2806 0.930 . S
C2799 C2798 1.394 . S
C2799 C2800 1.383 . S
C2799 H2807 0.929 . S
C2800 C2799 1.383 . S
C2800 C2801 1.377 . S
C2801 H2785 0.930 . S
C2801 C2800 1.377 . S
C2801 C2802 1.379 . S
C2802 H2786 0.931 . S
C2802 C2796 1.383 . S
C2802 C2801 1.379 . S
H2803 C2797 0.959 . S
H2804 C2797 0.961 . S
H2805 C2797 0.960 . S
H2806 C2798 0.930 . S
H2807 C2799 0.929 . S
H2808 C2816 0.929 . S
H2809 C2818 0.930 . S
H2810 C2820 0.930 . S
H2811 C2823 0.929 . S
H2812 C2826 0.930 . S
H2813 C2828 0.960 . S
H2814 C2828 0.960 . S
H2815 C2828 0.960 . S
C2816 H2808 0.929 . S
C2816 C2817 1.377 . S
C2816 C2818 1.384 . S
C2817 C2816 1.377 . S
C2817 C2823 1.390 . S
C2818 H2809 0.930 . S
C2818 C2816 1.384 . S
C2818 C2819 1.372 . S
C2819 C2818 1.372 . S
C2819 C2820 1.400 . S
C2819 C2824 1.490 . S
C2820 H2810 0.930 . S
C2820 C2819 1.400 . S
C2820 C2823 1.386 . S
H2821 C2837 0.930 . S
H2822 C2838 0.931 . S
C2823 H2811 0.929 . S
C2823 C2817 1.390 . S
C2823 C2820 1.386 . S
C2824 C2819 1.490 . S
C2824 C2826 1.395 . S
C2824 C2827 1.403 . S
H2825 C2831 0.930 . S
C2826 H2812 0.930 . S
C2826 C2824 1.395 . S
C2826 C2829 1.403 . S
C2827 C2824 1.403 . S
C2827 C2828 1.524 . S
C2827 C2831 1.400 . S
C2828 H2813 0.960 . S
C2828 H2814 0.960 . S
C2828 H2815 0.960 . S
C2828 C2827 1.524 . S
C2829 C2826 1.403 . S
C2829 C2830 1.392 . S
C2829 C2833 1.495 . S
C2830 C2829 1.392 . S
C2830 C2831 1.385 . S
C2830 C2832 1.478 . S
C2831 H2825 0.930 . S
C2831 C2827 1.400 . S
C2831 C2830 1.385 . S
C2832 C2830 1.478 . S
C2832 C2834 1.381 . S
C2832 C2838 1.383 . S
C2833 C2829 1.495 . S
C2833 H2839 0.959 . S
C2833 H2840 0.961 . S
C2833 H2841 0.960 . S
C2834 C2832 1.381 . S
C2834 C2835 1.394 . S
C2834 H2842 0.930 . S
C2835 C2834 1.394 . S
C2835 C2836 1.383 . S
C2835 H2843 0.929 . S
C2836 C2835 1.383 . S
C2836 C2837 1.377 . S
C2837 H2821 0.930 . S
C2837 C2836 1.377 . S
C2837 C2838 1.379 . S
C2838 H2822 0.931 . S
C2838 C2832 1.383 . S
C2838 C2837 1.379 . S
H2839 C2833 0.959 . S
H2840 C2833 0.961 . S
H2841 C2833 0.960 . S
H2842 C2834 0.930 . S
H2843 C2835 0.929 . S
H2844 C2852 0.929 . S
H2845 C2854 0.930 . S
H2846 C2856 0.930 . S
H2847 C2859 0.929 . S
H2848 C2862 0.930 . S
H2849 C2864 0.960 . S
H2850 C2864 0.960 . S
H2851 C2864 0.960 . S
C2852 H2844 0.929 . S
C2852 C2853 1.377 . S
C2852 C2854 1.384 . S
C2853 C2852 1.377 . S
C2853 C2859 1.390 . S
C2854 H2845 0.930 . S
C2854 C2852 1.384 . S
C2854 C2855 1.372 . S
C2855 C2854 1.372 . S
C2855 C2856 1.400 . S
C2855 C2860 1.490 . S
C2856 H2846 0.930 . S
C2856 C2855 1.400 . S
C2856 C2859 1.386 . S
H2857 C2873 0.930 . S
H2858 C2874 0.931 . S
C2859 H2847 0.929 . S
C2859 C2853 1.390 . S
C2859 C2856 1.386 . S
C2860 C2855 1.490 . S
C2860 C2862 1.395 . S
C2860 C2863 1.403 . S
H2861 C2867 0.930 . S
C2862 H2848 0.930 . S
C2862 C2860 1.395 . S
C2862 C2865 1.403 . S
C2863 C2860 1.403 . S
C2863 C2864 1.524 . S
C2863 C2867 1.400 . S
C2864 H2849 0.960 . S
C2864 H2850 0.960 . S
C2864 H2851 0.960 . S
C2864 C2863 1.524 . S
C2865 C2862 1.403 . S
C2865 C2866 1.392 . S
C2865 C2869 1.495 . S
C2866 C2865 1.392 . S
C2866 C2867 1.385 . S
C2866 C2868 1.478 . S
C2867 H2861 0.930 . S
C2867 C2863 1.400 . S
C2867 C2866 1.385 . S
C2868 C2866 1.478 . S
C2868 C2870 1.381 . S
C2868 C2874 1.383 . S
C2869 C2865 1.495 . S
C2869 H2875 0.959 . S
C2869 H2876 0.961 . S
C2869 H2877 0.960 . S
C2870 C2868 1.381 . S
C2870 C2871 1.394 . S
C2870 H2878 0.930 . S
C2871 C2870 1.394 . S
C2871 C2872 1.383 . S
C2871 H2879 0.929 . S
C2872 C2871 1.383 . S
C2872 C2873 1.377 . S
C2873 H2857 0.930 . S
C2873 C2872 1.377 . S
C2873 C2874 1.379 . S
C2874 H2858 0.931 . S
C2874 C2868 1.383 . S
C2874 C2873 1.379 . S
H2875 C2869 0.959 . S
H2876 C2869 0.961 . S
H2877 C2869 0.960 . S
H2878 C2870 0.930 . S
H2879 C2871 0.929 . S
C945 C439 1.505 . S
C964 C588 1.589 . S
C981 C465 1.846 . S
C1000 C628 1.848 . S
C1017 C401 1.701 . S
C1036 C658 1.665 . S
C1053 C369 1.523 . S
C1072 C618 1.500 . S
C1108 C668 1.478 . S
C1089 C305 1.478 . S
C1125 C343 1.212 . S
C1144 C578 1.291 1_556 S
C1180 C607 1.627 . S
C1161 C375 1.648 . S
C1216 C647 1.798 . S
C1197 C311 1.802 . S
C1233 C337 1.601 . S
C1252 C673 1.653 . S
C1269 C433 1.447 . S
C1288 C633 1.471 . S
C1305 C471 1.434 . S
C1324 C687 1.443 . S
C1360 C593 1.331 . S
C1341 C407 1.344 . S
C1396 C708 1.606 . S
C1377 C55 1.511 . S
C1413 C81 1.847 . S
C1432 C748 1.837 . S
C1449 C17 1.703 . S
C1468 C778 1.679 . S
C1485 C561 1.523 . S
C1504 C738 1.472 . S
C1521 C497 1.473 . S
C1540 C788 1.480 . S
C1557 C535 1.206 . S
C1576 C698 1.281 . S
C1593 C567 1.649 . S
C1612 C727 1.629 . S
C1629 C503 1.802 . S
C1648 C767 1.803 . S
C1684 C793 1.676 . S
C1665 C529 1.587 . S
C1701 C49 1.443 . S
C1720 C753 1.474 . S
C1756 C807 1.435 . S
C1737 C87 1.436 . S
C1773 C23 1.343 . S
C1792 C713 1.311 . S
C1828 C828 1.594 . S
C1809 C247 1.503 . S
C1845 C273 1.846 . S
C1864 C868 1.849 . S
C1900 C898 1.681 . S
C1881 C209 1.702 . S
C1936 C858 1.501 . S
C1917 C177 1.523 . S
C1972 C908 1.478 . S
C1953 C113 1.474 . S
C1989 C151 1.210 . S
C2008 C818 1.291 . S
C2025 C183 1.648 . S
C2044 C847 1.630 . S
C2061 C119 1.804 . S
C2080 C887 1.807 . S
C2116 C913 1.683 . S
C2097 C145 1.593 . S
C2133 C241 1.435 . S
C2152 C873 1.497 . S
C2169 C279 1.437 . S
C2188 C927 1.432 . S
C2205 C215 1.343 . S
C2224 C833 1.311 . S
C2241 C509 1.277 . S
C2260 C605 1.295 . S
C2296 C645 1.832 . S
C2277 C541 1.747 . S
C2313 C573 1.562 . S
C2332 C664 1.552 . S
C2349 C221 1.886 . S
C2368 C624 1.860 . S
C2385 C253 1.459 . S
C2404 C685 1.526 . S
C2440 C584 1.270 . S
C2421 C285 1.274 . S
C2457 C125 1.278 . S
C2476 C725 1.277 . S
C2493 C157 1.750 . S
C2512 C765 1.846 . S
C2529 C189 1.560 . S
C2548 C784 1.556 . S
C2565 C413 1.886 . S
C2584 C744 1.859 . S
C2620 C805 1.533 . S
C2601 C445 1.460 . S
C2637 C477 1.269 . S
C2656 C704 1.291 . S
C2673 C317 1.281 . S
C2692 C845 1.289 . S
C2709 C349 1.758 . S
C2728 C885 1.827 . S
C2764 C904 1.549 . S
C2745 C381 1.562 . S
C2781 C29 1.885 . S
C2800 C864 1.873 . S
C2817 C61 1.470 . S
C2836 C925 1.534 . S
C2853 C93 1.267 . S
C2872 C824 1.286 . S
