# Generated by pormake.
# Topology tsx, (6,3)-cn, num edge types: 1
# Building blocks:
#     Node 0, Type 0, BuildingBlock: CIFDUS_clean_sbu_1, # of connection points: 6
#     Node 1, Type 0, BuildingBlock: CIFDUS_clean_sbu_1, # of connection points: 6
#     Node 2, Type 1, BuildingBlock: MIDCAF_clean_linker_0, # of connection points: 3
#     Node 3, Type 1, BuildingBlock: MIDCAF_clean_linker_0, # of connection points: 3
#     Node 4, Type 1, BuildingBlock: MIDCAF_clean_linker_0, # of connection points: 3
#     Node 5, Type 1, BuildingBlock: MIDCAF_clean_linker_0, # of connection points: 3
#     Edge 6, Type (0, 1), BuildingBlock: FUNLAD_clean_linker_1, # of connection points: 2
#     Edge 7, Type (0, 1), BuildingBlock: FUNLAD_clean_linker_1, # of connection points: 2
#     Edge 8, Type (0, 1), BuildingBlock: FUNLAD_clean_linker_1, # of connection points: 2
#     Edge 9, Type (0, 1), BuildingBlock: FUNLAD_clean_linker_1, # of connection points: 2
#     Edge 10, Type (0, 1), BuildingBlock: FUNLAD_clean_linker_1, # of connection points: 2
#     Edge 11, Type (0, 1), BuildingBlock: FUNLAD_clean_linker_1, # of connection points: 2
#     Edge 12, Type (0, 1), BuildingBlock: FUNLAD_clean_linker_1, # of connection points: 2
#     Edge 13, Type (0, 1), BuildingBlock: FUNLAD_clean_linker_1, # of connection points: 2
#     Edge 14, Type (0, 1), BuildingBlock: FUNLAD_clean_linker_1, # of connection points: 2
#     Edge 15, Type (0, 1), BuildingBlock: FUNLAD_clean_linker_1, # of connection points: 2
#     Edge 16, Type (0, 1), BuildingBlock: FUNLAD_clean_linker_1, # of connection points: 2
#     Edge 17, Type (0, 1), BuildingBlock: FUNLAD_clean_linker_1, # of connection points: 2
# Relax obj value: 0.129
# Max RMSD: 0.156
# Mean RMSD: 0.119
data_MOF--net-tsx--node1-CIFDUS_clean_sbu_1--node2-MIDCAF_clean_linker_0--edge1-FUNLAD_clean_linker_1
_symmetry_space_group_name_H-M    P1
_symmetry_Int_Tables_number       1
_symmetry_cell_setting            triclinic
loop_
_symmetry_equiv_pos_as_xyz
'x, y, z'
_cell_length_a     22.25767
_cell_length_b     27.467976
_cell_length_c     46.179941
_cell_angle_alpha  96.987526
_cell_angle_beta   92.250994
_cell_angle_gamma 90.337553
loop_
_atom_site_label
_atom_site_type_symbol
_atom_site_fract_x
_atom_site_fract_y
_atom_site_fract_z
_atom_type_partial_charge
O0 O 0.98772 0.1284 0.01878 0.0
Mn1 Mn 0.04677 0.06849 0.02036 0.0
O2 O 0.90496 0.09837 0.99245 0.0
Mn3 Mn 0.93707 0.03918 0.97716 0.0
O4 O 0.104 0.00844 0.0214 0.0
O5 O 0.11439 0.11577 0.03463 0.0
Mn6 Mn 0.15333 0.09394 0.06452 0.0
O7 O 0.02197 0.06217 0.06312 0.0
O8 O 0.18475 0.03355 0.0503 0.0
O9 O 0.07095 0.07261 0.97734 0.0
O10 O 0.99171 0.04322 0.94822 0.0
O11 O 0.19189 0.15127 0.05876 0.0
O12 O 0.09851 0.09222 0.09345 0.0
C13 C 0.94909 0.98223 0.0055 0.0
C14 C 0.93371 0.13299 0.00814 0.0
C15 C 0.15598 1.00095 0.03307 0.0
C16 C 0.15262 0.15186 0.03739 0.0
C17 C 0.04578 0.07404 0.08885 0.0
C18 C 0.0456 0.05984 0.952 0.0
O19 O 0.98087 0.02144 0.00632 0.0
O20 O 0.90673 0.97909 0.98535 0.0
O21 O 0.4938 0.61782 0.5075 0.0
Mn22 Mn 0.54982 0.55679 0.51095 0.0
O23 O 0.41878 0.59056 0.47491 0.0
Mn24 Mn 0.4495 0.52944 0.46234 0.0
O25 O 0.60387 0.49485 0.51309 0.0
O26 O 0.6168 0.6025 0.52839 0.0
Mn27 Mn 0.65255 0.57602 0.55755 0.0
O28 O 0.51745 0.55075 0.55252 0.0
O29 O 0.68591 0.51796 0.54133 0.0
O30 O 0.58248 0.56163 0.46937 0.0
O31 O 0.51121 0.52887 0.43657 0.0
O32 O 0.69179 0.63456 0.55591 0.0
O33 O 0.59499 0.56968 0.58475 0.0
C34 C 0.44867 0.47402 0.49186 0.0
C35 C 0.444 0.62394 0.49309 0.0
C36 C 0.65621 0.48631 0.52399 0.0
C37 C 0.65493 0.63854 0.53392 0.0
C38 C 0.54024 0.557 0.57876 0.0
C39 C 0.564 0.54629 0.44306 0.0
O40 O 0.4841 0.51139 0.49397 0.0
O41 O 0.4114 0.47185 0.46952 0.0
C42 C 0.86097 0.1473 0.42905 0.0
C43 C 0.85388 0.15238 0.45935 0.0
C44 C 0.88367 0.11964 0.47603 0.0
C45 C 0.921 0.08316 0.46271 0.0
H46 H 0.07258 0.9913 0.47594 0.0
H47 H 0.15452 0.95289 0.50117 0.0
H48 H 0.21628 0.88652 0.41802 0.0
H49 H 0.13431 0.92373 0.39311 0.0
H50 H 0.06353 0.95009 0.33116 0.0
H51 H 0.0427 0.9376 0.27835 0.0
H52 H 0.86139 0.98866 0.29124 0.0
H53 H 0.88194 1.00081 0.34371 0.0
H54 H 0.90132 0.10786 0.39231 0.0
H55 H 0.83744 0.171 0.41541 0.0
H56 H 0.87843 0.12255 0.4994 0.0
H57 H 0.94353 0.05845 0.47606 0.0
N58 N 1.0105 0.01752 0.43158 0.0
N59 N 0.03434 0.96991 0.38766 0.0
N60 N 0.95415 0.02474 0.38844 0.0
C61 C 0.04565 0.98306 0.41685 0.0
C62 C 0.98811 0.99039 0.37341 0.0
C63 C 0.96488 0.03876 0.41734 0.0
C64 C 0.0962 0.96033 0.4324 0.0
C65 C 0.10355 0.96837 0.46303 0.0
C66 C 0.15066 0.94635 0.47754 0.0
C67 C 0.19169 0.91565 0.46194 0.0
C68 C 0.18509 0.90851 0.43121 0.0
C69 C 0.13786 0.93032 0.41672 0.0
C70 C 0.97479 0.97723 0.34165 0.0
C71 C 1.01911 0.95815 0.32269 0.0
C72 C 1.00725 0.95147 0.29236 0.0
C73 C 0.95061 0.96341 0.28052 0.0
C74 C 0.90553 0.97958 0.29965 0.0
C75 C 0.91751 0.98678 0.32976 0.0
C76 C 0.92776 0.07806 0.43234 0.0
C77 C 0.89723 0.1106 0.41575 0.0
C78 C 0.89507 0.95018 0.58252 0.0
C79 C 0.89219 0.93647 0.55222 0.0
C80 C 0.93719 0.95428 0.53539 0.0
C81 C 0.98457 0.98403 0.54895 0.0
H82 H 0.10815 0.11849 0.54419 0.0
H83 H 0.17605 0.17652 0.52508 0.0
H84 H 0.30614 0.15884 0.59495 0.0
H85 H 0.23856 0.10278 0.6141 0.0
H86 H 0.12522 0.13222 0.67755 0.0
H87 H 0.13159 0.13895 0.73096 0.0
H88 H 0.08037 0.98651 0.72715 0.0
H89 H 0.07156 0.98014 0.67368 0.0
H90 H 0.9424 0.98831 0.61944 0.0
H91 H 0.86124 0.93739 0.59615 0.0
H92 H 0.93698 0.94469 0.51199 0.0
H93 H 1.01911 0.99642 0.53558 0.0
N94 N 0.07838 0.05094 0.58041 0.0
N95 N 0.1301 0.07814 0.62488 0.0
N96 N 0.04684 0.0259 0.62442 0.0
C97 C 0.12432 0.07733 0.59547 0.0
C98 C 0.09185 0.05255 0.63947 0.0
C99 C 0.03935 0.02496 0.59494 0.0
C100 C 0.16743 0.10681 0.58096 0.0
C101 C 0.15149 0.12687 0.55523 0.0
C102 C 0.19026 0.16023 0.54441 0.0
C103 C 0.24564 0.17401 0.55903 0.0
C104 C 0.26299 0.15129 0.58369 0.0
C105 C 0.22422 0.11847 0.59457 0.0
C106 C 0.0979 0.05563 0.67157 0.0
C107 C 0.11573 0.10007 0.68813 0.0
C108 C 0.1194 0.10398 0.71859 0.0
C109 C 0.10756 0.0631 0.73296 0.0
C110 C 0.09091 0.01831 0.71645 0.0
C111 C 0.08534 0.01479 0.68597 0.0
C112 C 0.98806 0.9962 0.57951 0.0
C113 C 0.94208 0.97938 0.59594 0.0
C114 C 0.31437 0.6242 0.94499 0.0
C115 C 0.32914 0.65497 0.97082 0.0
C116 C 0.38445 0.64809 0.98568 0.0
C117 C 0.42514 0.61274 0.97402 0.0
H118 H 0.56492 0.50573 0.99232 0.0
H119 H 0.64435 0.4644 0.01795 0.0
H120 H 0.71625 0.40822 0.9351 0.0
H121 H 0.63711 0.44796 0.90975 0.0
H122 H 0.58079 0.47638 0.85049 0.0
H123 H 0.57936 0.47322 0.7974 0.0
H124 H 0.40319 0.53843 0.79855 0.0
H125 H 0.40428 0.54125 0.85122 0.0
H126 H 0.34287 0.56774 0.91264 0.0
H127 H 0.27195 0.62822 0.93322 0.0
H128 H 0.39672 0.67023 0.00609 0.0
H129 H 0.46808 0.60925 0.98541 0.0
N130 N 0.5025 0.53167 0.94731 0.0
N131 N 0.54058 0.49557 0.90302 0.0
N132 N 0.4539 0.54319 0.90262 0.0
C133 C 0.54438 0.50309 0.93277 0.0
C134 C 0.49547 0.51548 0.88778 0.0
C135 C 0.4569 0.55164 0.93223 0.0
C136 C 0.59374 0.47975 0.94887 0.0
C137 C 0.59747 0.48428 0.9796 0.0
C138 C 0.64306 0.46065 0.99431 0.0
C139 C 0.68578 0.43167 0.97872 0.0
C140 C 0.68306 0.42841 0.94804 0.0
C141 C 0.63763 0.45187 0.93338 0.0
C142 C 0.49277 0.50925 0.85528 0.0
C143 C 0.54131 0.4893 0.83939 0.0
C144 C 0.54052 0.48747 0.80894 0.0
C145 C 0.491 0.50488 0.79355 0.0
C146 C 0.44166 0.52355 0.80935 0.0
C147 C 0.44259 0.52567 0.8398 0.0
C148 C 0.41157 0.58413 0.94717 0.0
C149 C 0.35517 0.5896 0.93317 0.0
C150 C 0.48794 0.39242 0.05915 0.0
C151 C 0.44886 0.41646 0.04095 0.0
C152 C 0.46352 0.46458 0.03598 0.0
C153 C 0.51501 0.48859 0.04956 0.0
H154 H 0.66446 0.59696 0.04483 0.0
H155 H 0.72331 0.66587 0.03147 0.0
H156 H 0.83504 0.66511 0.11008 0.0
H157 H 0.77763 0.59682 0.12309 0.0
H158 H 0.73787 0.54564 0.17396 0.0
H159 H 0.74192 0.54142 0.22598 0.0
H160 H 0.58088 0.45107 0.21686 0.0
H161 H 0.57751 0.45461 0.16438 0.0
H162 H 0.56622 0.39762 0.0878 0.0
H163 H 0.47788 0.3559 0.06424 0.0
H164 H 0.43407 0.48421 0.0223 0.0
H165 H 0.52402 0.52623 0.04615 0.0
N166 N 0.63447 0.52759 0.07724 0.0
N167 N 0.68554 0.54214 0.123 0.0
N168 N 0.60884 0.48304 0.11551 0.0
C169 C 0.678 0.5522 0.09503 0.0
C170 C 0.65119 0.50795 0.13352 0.0
C171 C 0.60028 0.49236 0.08738 0.0
C172 C 0.71592 0.59131 0.0851 0.0
C173 C 0.70214 0.61107 0.059 0.0
C174 C 0.73583 0.6506 0.05138 0.0
C175 C 0.78443 0.67083 0.06942 0.0
C176 C 0.79901 0.65022 0.09516 0.0
C177 C 0.76533 0.61102 0.10283 0.0
C178 C 0.65687 0.50104 0.1649 0.0
C179 C 0.7034 0.52462 0.18297 0.0
C180 C 0.70543 0.52245 0.21309 0.0
C181 C 0.66056 0.49691 0.22595 0.0
C182 C 0.61576 0.47148 0.20769 0.0
C183 C 0.61386 0.47346 0.17756 0.0
C184 C 0.55197 0.46525 0.06892 0.0
C185 C 0.53854 0.4166 0.07302 0.0
H186 H 0.1911 0.17825 1.00017 0.0
C187 C 0.15879 0.18833 0.01684 0.0
H188 H 0.12187 0.2454 0.04406 0.0
H189 H 0.36734 0.34991 0.08125 0.0
H190 H 0.33037 0.32866 0.12668 0.0
H191 H 0.23733 0.27977 0.12727 0.0
H192 H 0.18077 0.25221 0.08277 0.0
C193 C 0.15437 0.23596 0.0274 0.0
C194 C 0.2073 0.26989 0.02696 0.0
C195 C 0.23993 0.28598 0.0536 0.0
C196 C 0.29431 0.31347 0.0533 0.0
C197 C 0.32614 0.32861 0.08012 0.0
C198 C 0.30542 0.31672 0.10644 0.0
C199 C 0.25302 0.28929 0.10677 0.0
C200 C 0.22068 0.27386 0.08082 0.0
H201 H 0.35155 0.41918 0.02863 0.0
C202 C 0.38914 0.3945 0.03046 0.0
H203 H 0.41557 0.32035 0.0275 0.0
H204 H 0.15177 0.25199 0.9729 0.0
H205 H 0.18935 0.27399 0.92744 0.0
H206 H 0.28562 0.31884 0.92689 0.0
H207 H 0.34473 0.34265 0.97191 0.0
C208 C 0.3786 0.34572 0.02638 0.0
C209 C 0.31671 0.32448 0.0265 0.0
C210 C 0.28292 0.31052 1.00013 0.0
C211 C 0.22786 0.28368 1.00037 0.0
C212 C 0.19452 0.27121 0.97378 0.0
C213 C 0.21543 0.28384 0.9476 0.0
C214 C 0.26963 0.30918 0.9473 0.0
C215 C 0.30317 0.32252 0.97321 0.0
H216 H 0.23258 0.95063 0.03309 0.0
C217 C 0.18545 0.9531 0.0263 0.0
H218 H 0.1094 0.91337 0.00682 0.0
H219 H 0.34293 0.78391 0.95549 0.0
H220 H 0.35402 0.84908 0.92501 0.0
H221 H 0.28966 0.92214 0.93101 0.0
H222 H 0.21406 0.93062 0.96767 0.0
C223 C 0.15713 0.91284 0.01269 0.0
C224 C 0.19056 0.86604 0.00657 0.0
C225 C 0.23402 0.86128 0.98479 0.0
C226 C 0.2706 0.81885 0.9811 0.0
C227 C 0.31402 0.81538 0.95933 0.0
C228 C 0.32076 0.85246 0.94161 0.0
C229 C 0.28457 0.89361 0.945 0.0
C230 C 0.24159 0.89815 0.96626 0.0
H231 H 0.24016 0.69091 0.97229 0.0
C232 C 0.28658 0.69477 0.9806 0.0
H233 H 0.3511 0.74462 1.00219 0.0
H234 H 0.10832 0.86198 0.04865 0.0
H235 H 0.09333 0.7949 0.07743 0.0
H236 H 0.15577 0.72076 0.07063 0.0
H237 H 0.23385 0.71327 0.03508 0.0
C238 C 0.3041 0.73781 0.99573 0.0
C239 C 0.26289 0.78067 0.99878 0.0
C240 C 0.21722 0.78427 0.01951 0.0
C241 C 0.18111 0.82707 0.02344 0.0
C242 C 0.13684 0.83026 0.04476 0.0
C243 C 0.12781 0.79206 0.06143 0.0
C244 C 0.16291 0.75027 0.05755 0.0
C245 C 0.2074 0.74634 0.037 0.0
H246 H 0.99162 0.95004 0.04321 0.0
C247 C 0.95833 0.94426 0.02525 0.0
H248 H 0.89168 0.89754 0.00286 0.0
H249 H 0.95997 0.69808 0.04241 0.0
H250 H 0.03398 0.69651 0.00483 0.0
H251 H 0.05923 0.77171 0.98335 0.0
H252 H 1.01106 0.84916 0.99951 0.0
C253 C 0.92417 0.90329 0.02117 0.0
C254 C 0.92643 0.8641 0.04062 0.0
C255 C 0.95548 0.81956 0.03134 0.0
C256 C 0.94078 0.77623 0.04366 0.0
C257 C 0.96948 0.73194 0.0336 0.0
C258 C 1.01192 0.73059 0.01209 0.0
C259 C 0.02606 0.77293 0.99995 0.0
C260 C 0.99808 0.81701 0.0093 0.0
H261 H 0.79311 0.73618 0.04616 0.0
C262 C 0.81601 0.71527 0.06177 0.0
H263 H 0.8971 0.71062 0.08726 0.0
H264 H 0.87278 0.94574 0.06747 0.0
H265 H 0.808 0.94919 0.10884 0.0
H266 H 0.78385 0.87422 0.13079 0.0
H267 H 0.82402 0.79521 0.11133 0.0
C268 C 0.87052 0.73132 0.07294 0.0
C269 C 0.89657 0.77773 0.06497 0.0
C270 C 0.87375 0.82353 0.07696 0.0
C271 C 0.88836 0.86681 0.06459 0.0
C272 C 0.86314 0.91183 0.07616 0.0
C273 C 0.8261 0.9143 0.09992 0.0
C274 C 0.81253 0.87208 0.11229 0.0
C275 C 0.83565 0.82702 0.1009 0.0
H276 H 0.85477 0.17898 0.00436 0.0
C277 C 0.90153 0.18014 0.01231 0.0
H278 H 0.97384 0.22711 0.02836 0.0
H279 H 0.85465 0.39263 0.95952 0.0
H280 H 0.95475 0.38546 0.94033 0.0
H281 H 0.02657 0.32543 0.95674 0.0
H282 H 0.99904 0.27239 0.99249 0.0
C283 C 0.92644 0.22419 0.02179 0.0
C284 C 0.89065 0.26944 0.01832 0.0
C285 C 0.90798 0.30097 0.99793 0.0
C286 C 0.86625 0.33528 0.98821 0.0
C287 C 0.88433 0.36554 0.96732 0.0
C288 C 0.94166 0.36192 0.95623 0.0
C289 C 0.98212 0.32814 0.96548 0.0
C290 C 0.96567 0.29783 0.986 0.0
H291 H 0.74352 0.4195 0.01764 0.0
C292 C 0.7328 0.40574 0.99494 0.0
H293 H 0.74935 0.34959 0.9607 0.0
H294 H 0.85023 0.22522 0.06361 0.0
H295 H 0.75126 0.2339 0.08414 0.0
H296 H 0.67638 0.28924 0.06524 0.0
H297 H 0.70002 0.3368 0.02626 0.0
C298 C 0.76005 0.36466 0.98312 0.0
C299 C 0.80726 0.33817 0.99887 0.0
C300 C 0.7921 0.31014 0.02147 0.0
C301 C 0.8344 0.27662 0.03161 0.0
C302 C 0.81883 0.24985 0.05457 0.0
C303 C 0.76246 0.25472 0.06661 0.0
C304 C 0.72036 0.28599 0.05601 0.0
C305 C 0.73464 0.31329 0.03365 0.0
H306 H 0.63626 0.6795 0.49556 0.0
C307 C 0.6605 0.68011 0.51647 0.0
H308 H 0.7232 0.71659 0.54722 0.0
H309 H 0.89779 0.81963 0.48028 0.0
H310 H 0.93529 0.73816 0.46455 0.0
H311 H 0.87372 0.66445 0.46868 0.0
H312 H 0.77393 0.67193 0.48867 0.0
C313 C 0.69958 0.71674 0.52618 0.0
C314 C 0.71927 0.75645 0.50942 0.0
C315 C 0.77588 0.75191 0.49649 0.0
C316 C 0.81117 0.79447 0.49401 0.0
C317 C 0.86906 0.78857 0.48257 0.0
C318 C 0.89104 0.74202 0.47344 0.0
C319 C 0.85639 0.70049 0.47578 0.0
C320 C 0.79951 0.70517 0.48733 0.0
H321 H 0.81565 0.88683 0.55619 0.0
C322 C 0.84334 0.90129 0.54022 0.0
H323 H 0.85955 0.89526 0.49497 0.0
H324 H 0.6062 0.77701 0.52675 0.0
H325 H 0.56315 0.85854 0.53724 0.0
H326 H 0.62321 0.93272 0.53213 0.0
H327 H 0.72678 0.92597 0.51665 0.0
C328 C 0.83275 0.88342 0.51196 0.0
C329 C 0.78935 0.84143 0.50452 0.0
C330 C 0.72852 0.84602 0.5125 0.0
C331 C 0.69358 0.80334 0.51511 0.0
C332 C 0.63412 0.80865 0.5245 0.0
C333 C 0.60909 0.85503 0.53045 0.0
C334 C 0.64293 0.89682 0.52756 0.0
C335 C 0.70216 0.89257 0.51882 0.0
H336 H 0.73353 0.43704 0.5199 0.0
C337 C 0.68513 0.43869 0.51594 0.0
H338 H 0.60658 0.39882 0.50052 0.0
H339 H 0.74456 0.23936 0.4182 0.0
H340 H 0.67477 0.27285 0.3844 0.0
H341 H 0.61074 0.34297 0.4009 0.0
H342 H 0.6156 0.37967 0.45131 0.0
C343 C 0.65493 0.39777 0.50466 0.0
C344 C 0.68793 0.35147 0.49563 0.0
C345 C 0.68471 0.33055 0.466 0.0
C346 C 0.72278 0.29086 0.45634 0.0
C347 C 0.71785 0.27027 0.42666 0.0
C348 C 0.67772 0.28898 0.40701 0.0
C349 C 0.64161 0.32839 0.4163 0.0
C350 C 0.6449 0.34913 0.44538 0.0
H351 H 0.78763 0.18163 0.49157 0.0
C352 C 0.81372 0.19047 0.47346 0.0
H353 H 0.83637 0.24444 0.44687 0.0
H354 H 0.6932 0.37328 0.55508 0.0
H355 H 0.76526 0.34213 0.58894 0.0
H356 H 0.84107 0.28161 0.57129 0.0
H357 H 0.84387 0.25061 0.52004 0.0
C358 C 0.80945 0.23537 0.46463 0.0
C359 C 0.76511 0.27277 0.47616 0.0
C360 C 0.76687 0.29267 0.50606 0.0
C361 C 0.72632 0.33046 0.51595 0.0
C362 C 0.7255 0.34679 0.54622 0.0
C363 C 0.76624 0.32892 0.5659 0.0
C364 C 0.80867 0.29465 0.55598 0.0
C365 C 0.80934 0.27674 0.52645 0.0
H366 H 0.4811 0.4399 0.53088 0.0
C367 C 0.44874 0.43698 0.5125 0.0
H368 H 0.37705 0.39702 0.48946 0.0
H369 H 0.39418 0.19122 0.52551 0.0
H370 H 0.45216 0.17835 0.48178 0.0
H371 H 0.48891 0.24866 0.45863 0.0
H372 H 0.46808 0.33234 0.47921 0.0
C373 C 0.40798 0.40018 0.50843 0.0
C374 C 0.40356 0.36032 0.5273 0.0
C375 C 0.41617 0.31178 0.5152 0.0
C376 C 0.39444 0.27133 0.52835 0.0
C377 C 0.40828 0.22324 0.51592 0.0
C378 C 0.44188 0.21537 0.49097 0.0
C379 C 0.46259 0.25495 0.47793 0.0
C380 C 0.45003 0.3027 0.48982 0.0
H381 H 0.27225 0.22256 0.52665 0.0
C382 C 0.28339 0.21261 0.5483 0.0
H383 H 0.33778 0.23168 0.58686 0.0
H384 H 0.38144 0.4488 0.55905 0.0
H385 H 0.33069 0.46181 0.6048 0.0
H386 H 0.29264 0.39176 0.6277 0.0
H387 H 0.30503 0.30829 0.60496 0.0
C388 C 0.32765 0.23806 0.5645 0.0
C389 C 0.35953 0.27962 0.55347 0.0
C390 C 0.35312 0.32815 0.56753 0.0
C391 C 0.37508 0.36865 0.55434 0.0
C392 C 0.36588 0.41678 0.56812 0.0
C393 C 0.33671 0.42477 0.59439 0.0
C394 C 0.31534 0.38531 0.6073 0.0
C395 C 0.32296 0.33752 0.59404 0.0
H396 H 0.36802 0.67091 0.48517 0.0
C397 C 0.41206 0.67114 0.49632 0.0
H398 H 0.47907 0.71673 0.51959 0.0
H399 H 0.37111 0.88886 0.45165 0.0
H400 H 0.47674 0.88933 0.43993 0.0
H401 H 0.54735 0.8306 0.45877 0.0
H402 H 0.5129 0.771 0.48937 0.0
C403 C 0.43401 0.71421 0.50958 0.0
C404 C 0.39821 0.75954 0.50661 0.0
C405 C 0.41925 0.79466 0.48926 0.0
C406 C 0.37835 0.82833 0.47823 0.0
C407 C 0.40023 0.86223 0.46032 0.0
C408 C 0.46068 0.86295 0.45352 0.0
C409 C 0.50046 0.82987 0.46413 0.0
C410 C 0.48014 0.79582 0.48164 0.0
H411 H 0.24723 0.90448 0.50165 0.0
C412 C 0.23994 0.89163 0.47855 0.0
H413 H 0.26612 0.83845 0.44431 0.0
H414 H 0.349 0.70809 0.54669 0.0
H415 H 0.24459 0.70984 0.56066 0.0
H416 H 0.17176 0.76417 0.5393 0.0
H417 H 0.20267 0.81757 0.50446 0.0
C418 C 0.27191 0.85286 0.46714 0.0
C419 C 0.31659 0.82697 0.48468 0.0
C420 C 0.29716 0.79562 0.50483 0.0
C421 C 0.3385 0.76278 0.5163 0.0
C422 C 0.31861 0.73246 0.53674 0.0
C423 C 0.25909 0.73334 0.54501 0.0
C424 C 0.21813 0.76402 0.53304 0.0
C425 C 0.2366 0.79471 0.51309 0.0
H426 H 0.03408 0.07862 0.13587 0.0
C427 C 1.01478 0.06258 0.11481 0.0
H428 H 0.95485 0.00885 0.09339 0.0
H429 H 0.99431 0.88506 0.20032 0.0
H430 H 1.0173 0.82643 0.15843 0.0
H431 H 1.01397 0.85087 0.1087 0.0
H432 H 0.98761 0.93367 0.10048 0.0
C433 C 0.97195 0.02768 0.11414 0.0
C434 C 0.95718 0.00854 0.14198 0.0
C435 C 0.97291 0.95992 0.14633 0.0
C436 C 0.97579 0.94602 0.17507 0.0
C437 C 0.99215 0.89748 0.17894 0.0
C438 C 1.00532 0.86355 0.15512 0.0
C439 C 1.00346 0.87729 0.12712 0.0
C440 C 0.9881 0.925 0.12268 0.0
H441 H 0.89039 0.96234 0.24103 0.0
C442 C 0.93732 0.9625 0.24859 0.0
H443 H 0.02682 0.97207 0.23626 0.0
H444 H 0.90735 0.09838 0.13969 0.0
H445 H 0.87969 0.15619 0.18111 0.0
H446 H 0.89217 0.13494 0.23138 0.0
H447 H 0.93086 0.05585 0.24057 0.0
C448 C 0.97955 0.96995 0.22952 0.0
C449 C 0.96356 0.98083 0.19932 0.0
C450 C 0.9419 0.02787 0.19458 0.0
C451 C 0.93715 0.04109 0.16576 0.0
C452 C 0.91372 0.08751 0.16135 0.0
C453 C 0.89741 0.12078 0.18486 0.0
C454 C 0.90428 0.10874 0.21315 0.0
C455 C 0.9264 0.063 0.2181 0.0
H456 H 0.12957 0.06545 0.92807 0.0
C457 C 0.0809 0.06213 0.92571 0.0
H458 H 1.00481 0.05338 0.89683 0.0
H459 H 0.19443 0.11572 0.8017 0.0
H460 H 0.2141 0.19149 0.8338 0.0
H461 H 0.17323 0.20378 0.88303 0.0
H462 H 0.11394 0.14009 0.90075 0.0
C463 C 0.05345 0.05743 0.89901 0.0
C464 C 0.08599 0.04936 0.87136 0.0
C465 C 0.1189 0.08775 0.86118 0.0
C466 C 0.13972 0.08172 0.83222 0.0
C467 C 0.17513 0.11947 0.82299 0.0
C468 C 0.18714 0.1629 0.84127 0.0
C469 C 0.1643 0.16975 0.86903 0.0
C470 C 0.13044 0.13278 0.87897 0.0
H471 H 0.08569 0.10072 0.77612 0.0
C472 C 0.10785 0.06883 0.76519 0.0
H473 H 0.15666 1.0048 0.77005 0.0
H474 H 0.03516 0.96541 0.88622 0.0
H475 H 1.01671 0.88939 0.8544 0.0
H476 H 0.04648 0.88087 0.80316 0.0
H477 H 0.09537 0.94782 0.78355 0.0
C478 C 0.13352 0.03607 0.78105 0.0
C479 C 0.12448 0.03858 0.81305 0.0
C480 C 0.09584 0.99878 0.82404 0.0
C481 C 0.07723 1.00407 0.85333 0.0
C482 C 0.04896 0.96373 0.86391 0.0
C483 C 0.03834 0.9198 0.84593 0.0
C484 C 0.0552 0.91499 0.81711 0.0
C485 C 0.08342 0.95387 0.80615 0.0
H486 H 0.45455 0.54071 0.59926 0.0
C487 C 0.5024 0.54785 0.60332 0.0
H488 H 0.57501 0.55482 0.63446 0.0
H489 H 0.45565 0.60609 0.75134 0.0
H490 H 0.48287 0.68813 0.7416 0.0
H491 H 0.51415 0.70319 0.69276 0.0
H492 H 0.51829 0.63628 0.65332 0.0
C493 C 0.5273 0.54705 0.63035 0.0
C494 C 0.49299 0.53968 0.65651 0.0
C495 C 0.48972 0.57919 0.67917 0.0
C496 C 0.47172 0.57052 0.7073 0.0
C497 C 0.46958 0.61062 0.72962 0.0
C498 C 0.48487 0.65789 0.7243 0.0
C499 C 0.5025 0.66637 0.69681 0.0
C500 C 0.50497 0.62764 0.67442 0.0
H501 H 0.53967 0.5063 0.75281 0.0
C502 C 0.49498 0.50725 0.76161 0.0
H503 H 0.40173 0.51164 0.75043 0.0
H504 H 0.48832 0.4564 0.61717 0.0
H505 H 0.45608 0.37538 0.62637 0.0
H506 H 0.42266 0.36091 0.67495 0.0
H507 H 0.42224 0.42749 0.71488 0.0
C508 C 0.44749 0.51235 0.74325 0.0
C509 C 0.45715 0.52229 0.71276 0.0
C510 C 0.45529 0.48353 0.68949 0.0
C511 C 0.47368 0.49211 0.66131 0.0
C512 C 0.4742 0.45217 0.63886 0.0
C513 C 0.45586 0.40543 0.64387 0.0
C514 C 0.43704 0.39727 0.67124 0.0
C515 C 0.43698 0.4357 0.69392 0.0
H516 H 0.64756 0.56921 0.42332 0.0
C517 C 0.60509 0.54946 0.41893 0.0
H518 H 0.54854 0.50752 0.38731 0.0
H519 H 0.66089 0.61837 0.28755 0.0
H520 H 0.61399 0.69146 0.31094 0.0
H521 H 0.57266 0.69283 0.35982 0.0
H522 H 0.57816 0.62113 0.38561 0.0
C523 C 0.58989 0.52884 0.39165 0.0
C524 C 0.6275 0.53258 0.36615 0.0
C525 C 0.62512 0.57523 0.3517 0.0
C526 C 0.64885 0.57436 0.32347 0.0
C527 C 0.64404 0.61696 0.30908 0.0
C528 C 0.61709 0.6592 0.32224 0.0
C529 C 0.59382 0.65998 0.34975 0.0
C530 C 0.59735 0.61853 0.36434 0.0
H531 H 0.62286 0.47369 0.26575 0.0
C532 C 0.65694 0.49716 0.25814 0.0
H533 H 0.7215 0.55319 0.27213 0.0
H534 H 0.64681 0.44742 0.38992 0.0
H535 H 0.69897 0.37562 0.36773 0.0
H536 H 0.74183 0.37464 0.31921 0.0
H537 H 0.73267 0.44534 0.29246 0.0
C538 C 0.68909 0.52721 0.27836 0.0
C539 C 0.67442 0.53071 0.30977 0.0
C540 C 0.68164 0.48964 0.3254 0.0
C541 C 0.65765 0.49045 0.35353 0.0
C542 C 0.66406 0.44854 0.36841 0.0
C543 C 0.69404 0.40723 0.35599 0.0
C544 C 0.71819 0.40669 0.32866 0.0
C545 C 0.71229 0.44733 0.31346 0.0
loop_
_geom_bond_atom_site_label_1
_geom_bond_atom_site_label_2
_geom_bond_distance
_geom_bond_site_symmetry_2
_ccdc_geom_bond_type
O0 Mn1 2.163 . S
O0 C14 1.244 1_455 S
Mn1 O0 2.163 . S
Mn1 O4 2.160 1_545 S
Mn1 O5 2.221 . S
Mn1 O7 2.163 . S
Mn1 O9 2.160 1_554 S
Mn1 O19 2.221 1_444 S
O2 Mn3 2.087 . S
O2 C14 1.256 1_556 S
Mn3 O2 2.087 . S
Mn3 O10 2.089 . S
Mn3 O19 2.290 1_545 S
Mn3 O20 2.251 1_546 S
O4 Mn1 2.160 1_565 S
O4 C15 1.236 . S
O5 Mn1 2.221 . S
O5 Mn6 2.290 . S
O5 C16 1.278 . S
Mn6 O5 2.290 . S
Mn6 O8 2.089 1_545 S
Mn6 O11 2.251 . S
Mn6 O12 2.087 . S
O7 Mn1 2.163 . S
O7 C17 1.244 . S
O8 Mn6 2.089 1_565 S
O8 C15 1.256 . S
O9 Mn1 2.160 1_556 S
O9 C18 1.239 . S
O10 Mn3 2.089 . S
O10 C18 1.256 1_655 S
O11 Mn6 2.251 . S
O11 C16 1.241 . S
O12 Mn6 2.087 . S
O12 C17 1.256 . S
C13 O19 1.278 1_554 S
C13 O20 1.241 . S
C14 O0 1.244 1_655 S
C14 O2 1.256 1_554 S
C15 O4 1.236 . S
C15 O8 1.256 . S
C16 O5 1.278 . S
C16 O11 1.241 . S
C17 O7 1.244 . S
C17 O12 1.256 . S
C18 O9 1.239 . S
C18 O10 1.256 1_455 S
O19 Mn1 2.221 1_666 S
O19 Mn3 2.290 1_565 S
O19 C13 1.278 1_556 S
O20 Mn3 2.251 1_564 S
O20 C13 1.241 . S
O21 Mn22 2.163 . S
O21 C35 1.244 . S
Mn22 O21 2.163 . S
Mn22 O25 2.160 . S
Mn22 O26 2.221 . S
Mn22 O28 2.163 . S
Mn22 O30 2.160 . S
Mn22 O40 2.221 . S
O23 Mn24 2.087 . S
O23 C35 1.256 . S
Mn24 O23 2.087 . S
Mn24 O31 2.089 . S
Mn24 O40 2.290 . S
Mn24 O41 2.251 . S
O25 Mn22 2.160 . S
O25 C36 1.239 . S
O26 Mn22 2.221 . S
O26 Mn27 2.290 . S
O26 C37 1.278 . S
Mn27 O26 2.290 . S
Mn27 O29 2.089 . S
Mn27 O32 2.251 . S
Mn27 O33 2.087 . S
O28 Mn22 2.163 . S
O28 C38 1.244 . S
O29 Mn27 2.089 . S
O29 C36 1.256 . S
O30 Mn22 2.160 . S
O30 C39 1.239 . S
O31 Mn24 2.089 . S
O31 C39 1.256 . S
O32 Mn27 2.251 . S
O32 C37 1.241 . S
O33 Mn27 2.087 . S
O33 C38 1.256 . S
C34 O40 1.278 . S
C34 O41 1.241 . S
C35 O21 1.244 . S
C35 O23 1.256 . S
C36 O25 1.239 . S
C36 O29 1.256 . S
C37 O26 1.278 . S
C37 O32 1.241 . S
C38 O28 1.244 . S
C38 O33 1.256 . S
C39 O30 1.239 . S
C39 O31 1.256 . S
O40 Mn22 2.221 . S
O40 Mn24 2.290 . S
O40 C34 1.278 . S
O41 Mn24 2.251 . S
O41 C34 1.241 . S
C42 C43 1.384 . S
C42 H55 0.947 . S
C42 C77 1.382 . S
C43 C42 1.384 . S
C43 C44 1.378 . S
C44 C43 1.378 . S
C44 C45 1.378 . S
C44 H56 0.952 . S
C45 C44 1.378 . S
C45 H57 0.950 1_655 S
C45 C76 1.383 . S
H46 C65 0.947 . S
H47 C66 0.946 . S
H48 C68 0.953 . S
H49 C69 0.945 . S
H50 C71 0.952 . S
H51 C72 0.949 . S
H52 C74 0.950 . S
H53 C75 0.948 . S
H54 C77 0.951 . S
H55 C42 0.947 . S
H56 C44 0.952 . S
H57 C45 0.950 1_455 S
N58 C61 1.382 1_545 S
N58 C63 1.363 . S
N59 C61 1.371 . S
N59 C62 1.372 1_565 S
N60 C62 1.361 . S
N60 C63 1.377 . S
C61 N58 1.382 1_565 S
C61 N59 1.371 . S
C61 C64 1.480 . S
C62 N59 1.372 1_545 S
C62 N60 1.361 . S
C62 C70 1.457 . S
C63 N58 1.363 . S
C63 N60 1.377 . S
C63 C76 1.479 1_455 S
C64 C61 1.480 . S
C64 C65 1.383 . S
C64 C69 1.385 . S
C65 H46 0.947 . S
C65 C64 1.383 . S
C65 C66 1.388 . S
C66 H47 0.946 . S
C66 C65 1.388 . S
C66 C67 1.384 . S
C67 C66 1.384 . S
C67 C68 1.377 . S
C68 H48 0.953 . S
C68 C67 1.377 . S
C68 C69 1.369 . S
C69 H49 0.945 . S
C69 C64 1.385 . S
C69 C68 1.369 . S
C70 C62 1.457 . S
C70 C71 1.372 1_545 S
C70 C75 1.364 . S
C71 H50 0.952 . S
C71 C70 1.372 1_565 S
C71 C72 1.389 . S
C72 H51 0.949 . S
C72 C71 1.389 . S
C72 C73 1.387 . S
C73 C72 1.387 . S
C73 C74 1.372 1_565 S
C74 H52 0.950 . S
C74 C73 1.372 1_545 S
C74 C75 1.379 . S
C75 H53 0.948 . S
C75 C70 1.364 . S
C75 C74 1.379 . S
C76 C45 1.383 . S
C76 C63 1.479 1_655 S
C76 C77 1.398 . S
C77 C42 1.382 . S
C77 H54 0.951 . S
C77 C76 1.398 . S
C78 C79 1.384 . S
C78 H91 0.947 . S
C78 C113 1.382 . S
C79 C78 1.384 . S
C79 C80 1.378 . S
C80 C79 1.378 . S
C80 C81 1.372 1_565 S
C80 H92 0.952 . S
C81 C80 1.372 1_545 S
C81 H93 0.955 . S
C81 C112 1.383 . S
H82 C101 0.947 . S
H83 C102 0.946 . S
H84 C104 0.953 . S
H85 C105 0.945 . S
H86 C107 0.952 . S
H87 C108 0.949 . S
H88 C110 0.950 . S
H89 C111 0.948 . S
H90 C113 0.951 . S
H91 C78 0.947 . S
H92 C80 0.952 . S
H93 C81 0.955 . S
N94 C97 1.382 . S
N94 C99 1.363 1_455 S
N95 C97 1.371 . S
N95 C98 1.372 . S
N96 C98 1.361 1_655 S
N96 C99 1.377 . S
C97 N94 1.382 . S
C97 N95 1.371 . S
C97 C100 1.480 . S
C98 N95 1.372 . S
C98 N96 1.361 1_455 S
C98 C106 1.457 . S
C99 N94 1.363 1_655 S
C99 N96 1.377 . S
C99 C112 1.479 . S
C100 C97 1.480 . S
C100 C101 1.383 . S
C100 C105 1.385 . S
C101 H82 0.947 . S
C101 C100 1.383 . S
C101 C102 1.388 . S
C102 H83 0.946 . S
C102 C101 1.388 . S
C102 C103 1.384 . S
C103 C102 1.384 . S
C103 C104 1.377 . S
C104 H84 0.953 . S
C104 C103 1.377 . S
C104 C105 1.369 . S
C105 H85 0.945 . S
C105 C100 1.385 . S
C105 C104 1.369 . S
C106 C98 1.457 . S
C106 C107 1.372 . S
C106 C111 1.364 1_455 S
C107 H86 0.952 . S
C107 C106 1.372 . S
C107 C108 1.389 . S
C108 H87 0.949 . S
C108 C107 1.389 . S
C108 C109 1.387 . S
C109 C108 1.387 . S
C109 C110 1.372 1_455 S
C110 H88 0.950 . S
C110 C109 1.372 1_655 S
C110 C111 1.379 . S
C111 H89 0.948 . S
C111 C106 1.364 1_655 S
C111 C110 1.379 . S
C112 C81 1.383 . S
C112 C99 1.479 . S
C112 C113 1.398 1_545 S
C113 C78 1.382 . S
C113 H90 0.951 . S
C113 C112 1.398 1_565 S
C114 C115 1.384 . S
C114 H127 0.947 . S
C114 C149 1.382 . S
C115 C114 1.384 . S
C115 C116 1.378 . S
C116 C115 1.378 . S
C116 C117 1.378 . S
C116 H128 0.952 1_556 S
C117 C116 1.378 . S
C117 H129 0.950 . S
C117 C148 1.383 . S
H118 C137 0.947 . S
H119 C138 0.946 1_554 S
H120 C140 0.953 . S
H121 C141 0.945 . S
H122 C143 0.952 . S
H123 C144 0.949 . S
H124 C146 0.950 . S
H125 C147 0.948 . S
H126 C149 0.951 . S
H127 C114 0.947 . S
H128 C116 0.952 1_554 S
H129 C117 0.950 . S
N130 C133 1.382 . S
N130 C135 1.363 . S
N131 C133 1.371 . S
N131 C134 1.372 . S
N132 C134 1.361 . S
N132 C135 1.377 . S
C133 N130 1.382 . S
C133 N131 1.371 . S
C133 C136 1.480 . S
C134 N131 1.372 . S
C134 N132 1.361 . S
C134 C142 1.457 . S
C135 N130 1.363 . S
C135 N132 1.377 . S
C135 C148 1.479 . S
C136 C133 1.480 . S
C136 C137 1.383 . S
C136 C141 1.385 . S
C137 H118 0.947 . S
C137 C136 1.383 . S
C137 C138 1.388 . S
C138 H119 0.946 1_556 S
C138 C137 1.388 . S
C138 C139 1.384 . S
C139 C138 1.384 . S
C139 C140 1.377 . S
C140 H120 0.953 . S
C140 C139 1.377 . S
C140 C141 1.369 . S
C141 H121 0.945 . S
C141 C136 1.385 . S
C141 C140 1.369 . S
C142 C134 1.457 . S
C142 C143 1.372 . S
C142 C147 1.364 . S
C143 H122 0.952 . S
C143 C142 1.372 . S
C143 C144 1.389 . S
C144 H123 0.949 . S
C144 C143 1.389 . S
C144 C145 1.387 . S
C145 C144 1.387 . S
C145 C146 1.372 . S
C146 H124 0.950 . S
C146 C145 1.372 . S
C146 C147 1.379 . S
C147 H125 0.948 . S
C147 C142 1.364 . S
C147 C146 1.379 . S
C148 C117 1.383 . S
C148 C135 1.479 . S
C148 C149 1.398 . S
C149 C114 1.382 . S
C149 H126 0.951 . S
C149 C148 1.398 . S
C150 C151 1.384 . S
C150 H163 0.947 . S
C150 C185 1.382 . S
C151 C150 1.384 . S
C151 C152 1.378 . S
C152 C151 1.378 . S
C152 C153 1.378 . S
C152 H164 0.952 . S
C153 C152 1.378 . S
C153 H165 0.950 . S
C153 C184 1.383 . S
H154 C173 0.947 . S
H155 C174 0.946 . S
H156 C176 0.953 . S
H157 C177 0.945 . S
H158 C179 0.952 . S
H159 C180 0.949 . S
H160 C182 0.950 . S
H161 C183 0.948 . S
H162 C185 0.951 . S
H163 C150 0.947 . S
H164 C152 0.952 . S
H165 C153 0.950 . S
N166 C169 1.382 . S
N166 C171 1.363 . S
N167 C169 1.371 . S
N167 C170 1.372 . S
N168 C170 1.361 . S
N168 C171 1.377 . S
C169 N166 1.382 . S
C169 N167 1.371 . S
C169 C172 1.480 . S
C170 N167 1.372 . S
C170 N168 1.361 . S
C170 C178 1.457 . S
C171 N166 1.363 . S
C171 N168 1.377 . S
C171 C184 1.479 . S
C172 C169 1.480 . S
C172 C173 1.383 . S
C172 C177 1.385 . S
C173 H154 0.947 . S
C173 C172 1.383 . S
C173 C174 1.388 . S
C174 H155 0.946 . S
C174 C173 1.388 . S
C174 C175 1.384 . S
C175 C174 1.384 . S
C175 C176 1.377 . S
C176 H156 0.953 . S
C176 C175 1.377 . S
C176 C177 1.369 . S
C177 H157 0.945 . S
C177 C172 1.385 . S
C177 C176 1.369 . S
C178 C170 1.457 . S
C178 C179 1.372 . S
C178 C183 1.364 . S
C179 H158 0.952 . S
C179 C178 1.372 . S
C179 C180 1.389 . S
C180 H159 0.949 . S
C180 C179 1.389 . S
C180 C181 1.387 . S
C181 C180 1.387 . S
C181 C182 1.372 . S
C182 H160 0.950 . S
C182 C181 1.372 . S
C182 C183 1.379 . S
C183 H161 0.948 . S
C183 C178 1.364 . S
C183 C182 1.379 . S
C184 C153 1.383 . S
C184 C171 1.479 . S
C184 C185 1.398 . S
C185 C150 1.382 . S
C185 H162 0.951 . S
C185 C184 1.398 . S
H186 C187 0.951 . S
C187 H186 0.951 . S
C187 C193 1.265 . S
H188 C193 0.950 . S
H189 C197 0.949 . S
H190 C198 0.950 . S
H191 C199 0.951 . S
H192 C200 0.951 . S
C193 C187 1.265 . S
C193 H188 0.950 . S
C193 C194 1.478 . S
C194 C193 1.478 . S
C194 C195 1.397 . S
C194 C211 1.394 1_554 S
C195 C194 1.397 . S
C195 C196 1.438 . S
C195 C200 1.429 . S
C196 C195 1.438 . S
C196 C197 1.428 . S
C196 C209 1.394 . S
C197 H189 0.949 . S
C197 C196 1.428 . S
C197 C198 1.345 . S
C198 H190 0.950 . S
C198 C197 1.345 . S
C198 C199 1.424 . S
C199 H191 0.951 . S
C199 C198 1.424 . S
C199 C200 1.347 . S
C200 H192 0.951 . S
C200 C195 1.429 . S
C200 C199 1.347 . S
H201 C202 0.951 . S
C202 H201 0.951 . S
C202 C208 1.265 . S
H203 C208 0.950 . S
H204 C212 0.949 . S
H205 C213 0.950 . S
H206 C214 0.951 . S
H207 C215 0.951 . S
C208 C202 1.265 . S
C208 H203 0.950 . S
C208 C209 1.478 . S
C209 C196 1.394 . S
C209 C208 1.478 . S
C209 C210 1.397 1_554 S
C210 C209 1.397 1_556 S
C210 C211 1.438 . S
C210 C215 1.429 . S
C211 C194 1.394 1_556 S
C211 C210 1.438 . S
C211 C212 1.428 . S
C212 H204 0.949 . S
C212 C211 1.428 . S
C212 C213 1.345 . S
C213 H205 0.950 . S
C213 C212 1.345 . S
C213 C214 1.424 . S
C214 H206 0.951 . S
C214 C213 1.424 . S
C214 C215 1.347 . S
C215 H207 0.951 . S
C215 C210 1.429 . S
C215 C214 1.347 . S
H216 C217 0.951 . S
C217 H216 0.951 . S
C217 C223 1.265 1_554 S
H218 C223 0.950 . S
H219 C227 0.949 . S
H220 C228 0.950 . S
H221 C229 0.951 . S
H222 C230 0.951 . S
C223 C217 1.265 1_556 S
C223 H218 0.950 . S
C223 C224 1.478 . S
C224 C223 1.478 . S
C224 C225 1.397 . S
C224 C241 1.394 1_556 S
C225 C224 1.397 . S
C225 C226 1.438 . S
C225 C230 1.429 . S
C226 C225 1.438 . S
C226 C227 1.428 . S
C226 C239 1.394 1_556 S
C227 H219 0.949 . S
C227 C226 1.428 . S
C227 C228 1.345 . S
C228 H220 0.950 . S
C228 C227 1.345 . S
C228 C229 1.424 . S
C229 H221 0.951 . S
C229 C228 1.424 . S
C229 C230 1.347 . S
C230 H222 0.951 . S
C230 C225 1.429 . S
C230 C229 1.347 . S
H231 C232 0.951 . S
C232 H231 0.951 . S
C232 C238 1.265 1_556 S
H233 C238 0.950 . S
H234 C242 0.949 . S
H235 C243 0.950 . S
H236 C244 0.951 . S
H237 C245 0.951 . S
C238 C232 1.265 1_554 S
C238 H233 0.950 . S
C238 C239 1.478 . S
C239 C226 1.394 1_554 S
C239 C238 1.478 . S
C239 C240 1.397 . S
C240 C239 1.397 . S
C240 C241 1.438 . S
C240 C245 1.429 . S
C241 C224 1.394 1_554 S
C241 C240 1.438 . S
C241 C242 1.428 . S
C242 H234 0.949 . S
C242 C241 1.428 . S
C242 C243 1.345 . S
C243 H235 0.950 . S
C243 C242 1.345 . S
C243 C244 1.424 . S
C244 H236 0.951 . S
C244 C243 1.424 . S
C244 C245 1.347 . S
C245 H237 0.951 . S
C245 C240 1.429 . S
C245 C244 1.347 . S
H246 C247 0.951 . S
C247 H246 0.951 . S
C247 C253 1.265 . S
H248 C253 0.950 . S
H249 C257 0.949 . S
H250 C258 0.950 . S
H251 C259 0.951 . S
H252 C260 0.951 . S
C253 C247 1.265 . S
C253 H248 0.950 . S
C253 C254 1.478 . S
C254 C253 1.478 . S
C254 C255 1.397 . S
C254 C271 1.394 . S
C255 C254 1.397 . S
C255 C256 1.438 . S
C255 C260 1.429 . S
C256 C255 1.438 . S
C256 C257 1.428 . S
C256 C269 1.394 . S
C257 H249 0.949 . S
C257 C256 1.428 . S
C257 C258 1.345 . S
C258 H250 0.950 . S
C258 C257 1.345 . S
C258 C259 1.424 . S
C259 H251 0.951 . S
C259 C258 1.424 . S
C259 C260 1.347 . S
C260 H252 0.951 . S
C260 C255 1.429 . S
C260 C259 1.347 . S
H261 C262 0.951 . S
C262 H261 0.951 . S
C262 C268 1.265 . S
H263 C268 0.950 . S
H264 C272 0.949 . S
H265 C273 0.950 . S
H266 C274 0.951 . S
H267 C275 0.951 . S
C268 C262 1.265 . S
C268 H263 0.950 . S
C268 C269 1.478 . S
C269 C256 1.394 . S
C269 C268 1.478 . S
C269 C270 1.397 . S
C270 C269 1.397 . S
C270 C271 1.438 . S
C270 C275 1.429 1_554 S
C271 C254 1.394 . S
C271 C270 1.438 . S
C271 C272 1.428 1_554 S
C272 H264 0.949 . S
C272 C271 1.428 1_556 S
C272 C273 1.345 . S
C273 H265 0.950 . S
C273 C272 1.345 . S
C273 C274 1.424 . S
C274 H266 0.951 . S
C274 C273 1.424 . S
C274 C275 1.347 . S
C275 H267 0.951 . S
C275 C270 1.429 1_556 S
C275 C274 1.347 . S
H276 C277 0.951 . S
C277 H276 0.951 . S
C277 C283 1.266 . S
H278 C283 0.949 1_556 S
H279 C287 0.949 . S
H280 C288 0.950 . S
H281 C289 0.951 . S
H282 C290 0.951 . S
C283 C277 1.266 . S
C283 H278 0.949 1_554 S
C283 C284 1.477 1_554 S
C284 C283 1.477 1_556 S
C284 C285 1.397 . S
C284 C301 1.394 1_556 S
C285 C284 1.397 . S
C285 C286 1.438 . S
C285 C290 1.429 . S
C286 C285 1.438 . S
C286 C287 1.428 . S
C286 C299 1.394 . S
C287 H279 0.949 . S
C287 C286 1.428 . S
C287 C288 1.345 . S
C288 H280 0.950 . S
C288 C287 1.345 . S
C288 C289 1.424 . S
C289 H281 0.951 . S
C289 C288 1.424 . S
C289 C290 1.347 . S
C290 H282 0.951 . S
C290 C285 1.429 . S
C290 C289 1.347 . S
H291 C292 0.951 . S
C292 H291 0.951 . S
C292 C298 1.265 . S
H293 C298 0.950 . S
H294 C302 0.949 . S
H295 C303 0.950 . S
H296 C304 0.951 . S
H297 C305 0.951 . S
C298 C292 1.265 . S
C298 H293 0.950 . S
C298 C299 1.478 . S
C299 C286 1.394 . S
C299 C298 1.478 . S
C299 C300 1.397 1_556 S
C300 C299 1.397 1_554 S
C300 C301 1.438 . S
C300 C305 1.429 . S
C301 C284 1.394 1_554 S
C301 C300 1.438 . S
C301 C302 1.428 . S
C302 H294 0.949 . S
C302 C301 1.428 . S
C302 C303 1.345 . S
C303 H295 0.950 . S
C303 C302 1.345 . S
C303 C304 1.424 . S
C304 H296 0.951 . S
C304 C303 1.424 . S
C304 C305 1.347 . S
C305 H297 0.951 . S
C305 C300 1.429 . S
C305 C304 1.347 . S
H306 C307 0.951 . S
C307 H306 0.951 . S
C307 C313 1.265 . S
H308 C313 0.950 . S
H309 C317 0.949 . S
H310 C318 0.950 . S
H311 C319 0.951 . S
H312 C320 0.951 . S
C313 C307 1.265 . S
C313 H308 0.950 . S
C313 C314 1.478 . S
C314 C313 1.478 . S
C314 C315 1.397 . S
C314 C331 1.394 . S
C315 C314 1.397 . S
C315 C316 1.438 . S
C315 C320 1.429 . S
C316 C315 1.438 . S
C316 C317 1.428 . S
C316 C329 1.394 . S
C317 H309 0.949 . S
C317 C316 1.428 . S
C317 C318 1.345 . S
C318 H310 0.950 . S
C318 C317 1.345 . S
C318 C319 1.424 . S
C319 H311 0.951 . S
C319 C318 1.424 . S
C319 C320 1.347 . S
C320 H312 0.951 . S
C320 C315 1.429 . S
C320 C319 1.347 . S
H321 C322 0.951 . S
C322 H321 0.951 . S
C322 C328 1.265 . S
H323 C328 0.950 . S
H324 C332 0.949 . S
H325 C333 0.950 . S
H326 C334 0.951 . S
H327 C335 0.951 . S
C328 C322 1.265 . S
C328 H323 0.950 . S
C328 C329 1.478 . S
C329 C316 1.394 . S
C329 C328 1.478 . S
C329 C330 1.397 . S
C330 C329 1.397 . S
C330 C331 1.438 . S
C330 C335 1.429 . S
C331 C314 1.394 . S
C331 C330 1.438 . S
C331 C332 1.428 . S
C332 H324 0.949 . S
C332 C331 1.428 . S
C332 C333 1.345 . S
C333 H325 0.950 . S
C333 C332 1.345 . S
C333 C334 1.424 . S
C334 H326 0.951 . S
C334 C333 1.424 . S
C334 C335 1.347 . S
C335 H327 0.951 . S
C335 C330 1.429 . S
C335 C334 1.347 . S
H336 C337 0.951 . S
C337 H336 0.951 . S
C337 C343 1.265 . S
H338 C343 0.950 . S
H339 C347 0.949 . S
H340 C348 0.950 . S
H341 C349 0.951 . S
H342 C350 0.951 . S
C343 C337 1.265 . S
C343 H338 0.950 . S
C343 C344 1.478 . S
C344 C343 1.478 . S
C344 C345 1.397 . S
C344 C361 1.394 . S
C345 C344 1.397 . S
C345 C346 1.438 . S
C345 C350 1.429 . S
C346 C345 1.438 . S
C346 C347 1.428 . S
C346 C359 1.394 . S
C347 H339 0.949 . S
C347 C346 1.428 . S
C347 C348 1.345 . S
C348 H340 0.950 . S
C348 C347 1.345 . S
C348 C349 1.424 . S
C349 H341 0.951 . S
C349 C348 1.424 . S
C349 C350 1.347 . S
C350 H342 0.951 . S
C350 C345 1.429 . S
C350 C349 1.347 . S
H351 C352 0.951 . S
C352 H351 0.951 . S
C352 C358 1.265 . S
H353 C358 0.950 . S
H354 C362 0.949 . S
H355 C363 0.950 . S
H356 C364 0.951 . S
H357 C365 0.951 . S
C358 C352 1.265 . S
C358 H353 0.950 . S
C358 C359 1.478 . S
C359 C346 1.394 . S
C359 C358 1.478 . S
C359 C360 1.397 . S
C360 C359 1.397 . S
C360 C361 1.438 . S
C360 C365 1.429 . S
C361 C344 1.394 . S
C361 C360 1.438 . S
C361 C362 1.428 . S
C362 H354 0.949 . S
C362 C361 1.428 . S
C362 C363 1.345 . S
C363 H355 0.950 . S
C363 C362 1.345 . S
C363 C364 1.424 . S
C364 H356 0.951 . S
C364 C363 1.424 . S
C364 C365 1.347 . S
C365 H357 0.951 . S
C365 C360 1.429 . S
C365 C364 1.347 . S
H366 C367 0.951 . S
C367 H366 0.951 . S
C367 C373 1.265 . S
H368 C373 0.950 . S
H369 C377 0.949 . S
H370 C378 0.950 . S
H371 C379 0.951 . S
H372 C380 0.951 . S
C373 C367 1.265 . S
C373 H368 0.950 . S
C373 C374 1.478 . S
C374 C373 1.478 . S
C374 C375 1.397 . S
C374 C391 1.394 . S
C375 C374 1.397 . S
C375 C376 1.438 . S
C375 C380 1.429 . S
C376 C375 1.438 . S
C376 C377 1.428 . S
C376 C389 1.394 . S
C377 H369 0.949 . S
C377 C376 1.428 . S
C377 C378 1.345 . S
C378 H370 0.950 . S
C378 C377 1.345 . S
C378 C379 1.424 . S
C379 H371 0.951 . S
C379 C378 1.424 . S
C379 C380 1.347 . S
C380 H372 0.951 . S
C380 C375 1.429 . S
C380 C379 1.347 . S
H381 C382 0.951 . S
C382 H381 0.951 . S
C382 C388 1.265 . S
H383 C388 0.950 . S
H384 C392 0.949 . S
H385 C393 0.950 . S
H386 C394 0.951 . S
H387 C395 0.951 . S
C388 C382 1.265 . S
C388 H383 0.950 . S
C388 C389 1.478 . S
C389 C376 1.394 . S
C389 C388 1.478 . S
C389 C390 1.397 . S
C390 C389 1.397 . S
C390 C391 1.438 . S
C390 C395 1.429 . S
C391 C374 1.394 . S
C391 C390 1.438 . S
C391 C392 1.428 . S
C392 H384 0.949 . S
C392 C391 1.428 . S
C392 C393 1.345 . S
C393 H385 0.950 . S
C393 C392 1.345 . S
C393 C394 1.424 . S
C394 H386 0.951 . S
C394 C393 1.424 . S
C394 C395 1.347 . S
C395 H387 0.951 . S
C395 C390 1.429 . S
C395 C394 1.347 . S
H396 C397 0.951 . S
C397 H396 0.951 . S
C397 C403 1.265 . S
H398 C403 0.950 . S
H399 C407 0.949 . S
H400 C408 0.950 . S
H401 C409 0.951 . S
H402 C410 0.951 . S
C403 C397 1.265 . S
C403 H398 0.950 . S
C403 C404 1.478 . S
C404 C403 1.478 . S
C404 C405 1.397 . S
C404 C421 1.394 . S
C405 C404 1.397 . S
C405 C406 1.438 . S
C405 C410 1.429 . S
C406 C405 1.438 . S
C406 C407 1.428 . S
C406 C419 1.394 . S
C407 H399 0.949 . S
C407 C406 1.428 . S
C407 C408 1.345 . S
C408 H400 0.950 . S
C408 C407 1.345 . S
C408 C409 1.424 . S
C409 H401 0.951 . S
C409 C408 1.424 . S
C409 C410 1.347 . S
C410 H402 0.951 . S
C410 C405 1.429 . S
C410 C409 1.347 . S
H411 C412 0.951 . S
C412 H411 0.951 . S
C412 C418 1.265 . S
H413 C418 0.950 . S
H414 C422 0.949 . S
H415 C423 0.950 . S
H416 C424 0.951 . S
H417 C425 0.951 . S
C418 C412 1.265 . S
C418 H413 0.950 . S
C418 C419 1.478 . S
C419 C406 1.394 . S
C419 C418 1.478 . S
C419 C420 1.397 . S
C420 C419 1.397 . S
C420 C421 1.438 . S
C420 C425 1.429 . S
C421 C404 1.394 . S
C421 C420 1.438 . S
C421 C422 1.428 . S
C422 H414 0.949 . S
C422 C421 1.428 . S
C422 C423 1.345 . S
C423 H415 0.950 . S
C423 C422 1.345 . S
C423 C424 1.424 . S
C424 H416 0.951 . S
C424 C423 1.424 . S
C424 C425 1.347 . S
C425 H417 0.951 . S
C425 C420 1.429 . S
C425 C424 1.347 . S
H426 C427 0.951 . S
C427 H426 0.951 . S
C427 C433 1.265 . S
H428 C433 0.950 1_655 S
H429 C437 0.949 . S
H430 C438 0.950 . S
H431 C439 0.951 1_655 S
H432 C440 0.951 . S
C433 C427 1.265 . S
C433 H428 0.950 1_455 S
C433 C434 1.478 . S
C434 C433 1.478 . S
C434 C435 1.397 1_545 S
C434 C451 1.394 . S
C435 C434 1.397 1_565 S
C435 C436 1.438 . S
C435 C440 1.429 . S
C436 C435 1.438 . S
C436 C437 1.428 . S
C436 C449 1.394 1_565 S
C437 H429 0.949 . S
C437 C436 1.428 . S
C437 C438 1.345 . S
C438 H430 0.950 . S
C438 C437 1.345 . S
C438 C439 1.424 . S
C439 H431 0.951 1_455 S
C439 C438 1.424 . S
C439 C440 1.347 . S
C440 H432 0.951 . S
C440 C435 1.429 . S
C440 C439 1.347 . S
H441 C442 0.951 . S
C442 H441 0.951 . S
C442 C448 1.265 1_565 S
H443 C448 0.950 . S
H444 C452 0.949 . S
H445 C453 0.950 . S
H446 C454 0.951 . S
H447 C455 0.951 . S
C448 C442 1.265 1_545 S
C448 H443 0.950 . S
C448 C449 1.478 . S
C449 C436 1.394 1_545 S
C449 C448 1.478 . S
C449 C450 1.397 . S
C450 C449 1.397 . S
C450 C451 1.438 . S
C450 C455 1.429 . S
C451 C434 1.394 . S
C451 C450 1.438 . S
C451 C452 1.428 . S
C452 H444 0.949 . S
C452 C451 1.428 . S
C452 C453 1.345 . S
C453 H445 0.950 . S
C453 C452 1.345 . S
C453 C454 1.424 . S
C454 H446 0.951 . S
C454 C453 1.424 . S
C454 C455 1.347 . S
C455 H447 0.951 . S
C455 C450 1.429 . S
C455 C454 1.347 . S
H456 C457 0.951 . S
C457 H456 0.951 . S
C457 C463 1.265 . S
H458 C463 0.950 . S
H459 C467 0.949 . S
H460 C468 0.950 . S
H461 C469 0.951 . S
H462 C470 0.951 . S
C463 C457 1.265 . S
C463 H458 0.950 . S
C463 C464 1.478 . S
C464 C463 1.478 . S
C464 C465 1.397 . S
C464 C481 1.394 1_455 S
C465 C464 1.397 . S
C465 C466 1.438 . S
C465 C470 1.429 . S
C466 C465 1.438 . S
C466 C467 1.428 . S
C466 C479 1.394 . S
C467 H459 0.949 . S
C467 C466 1.428 . S
C467 C468 1.345 . S
C468 H460 0.950 . S
C468 C467 1.345 . S
C468 C469 1.424 . S
C469 H461 0.951 . S
C469 C468 1.424 . S
C469 C470 1.347 . S
C470 H462 0.951 . S
C470 C465 1.429 . S
C470 C469 1.347 . S
H471 C472 0.951 . S
C472 H471 0.951 . S
C472 C478 1.265 . S
H473 C478 0.950 . S
H474 C482 0.949 . S
H475 C483 0.950 . S
H476 C484 0.951 . S
H477 C485 0.951 . S
C478 C472 1.265 . S
C478 H473 0.950 . S
C478 C479 1.478 . S
C479 C466 1.394 . S
C479 C478 1.478 . S
C479 C480 1.397 1_455 S
C480 C479 1.397 1_655 S
C480 C481 1.438 . S
C480 C485 1.429 . S
C481 C464 1.394 1_655 S
C481 C480 1.438 . S
C481 C482 1.428 . S
C482 H474 0.949 . S
C482 C481 1.428 . S
C482 C483 1.345 1_545 S
C483 H475 0.950 . S
C483 C482 1.345 1_565 S
C483 C484 1.424 . S
C484 H476 0.951 . S
C484 C483 1.424 . S
C484 C485 1.347 1_565 S
C485 H477 0.951 . S
C485 C480 1.429 . S
C485 C484 1.347 1_545 S
H486 C487 0.951 . S
C487 H486 0.951 . S
C487 C493 1.265 . S
H488 C493 0.950 . S
H489 C497 0.949 . S
H490 C498 0.950 . S
H491 C499 0.951 . S
H492 C500 0.951 . S
C493 C487 1.265 . S
C493 H488 0.950 . S
C493 C494 1.478 . S
C494 C493 1.478 . S
C494 C495 1.397 . S
C494 C511 1.394 . S
C495 C494 1.397 . S
C495 C496 1.438 . S
C495 C500 1.429 . S
C496 C495 1.438 . S
C496 C497 1.428 . S
C496 C509 1.394 . S
C497 H489 0.949 . S
C497 C496 1.428 . S
C497 C498 1.345 . S
C498 H490 0.950 . S
C498 C497 1.345 . S
C498 C499 1.424 . S
C499 H491 0.951 . S
C499 C498 1.424 . S
C499 C500 1.347 . S
C500 H492 0.951 . S
C500 C495 1.429 . S
C500 C499 1.347 . S
H501 C502 0.951 . S
C502 H501 0.951 . S
C502 C508 1.265 . S
H503 C508 0.950 . S
H504 C512 0.949 . S
H505 C513 0.950 . S
H506 C514 0.951 . S
H507 C515 0.951 . S
C508 C502 1.265 . S
C508 H503 0.950 . S
C508 C509 1.478 . S
C509 C496 1.394 . S
C509 C508 1.478 . S
C509 C510 1.397 . S
C510 C509 1.397 . S
C510 C511 1.438 . S
C510 C515 1.429 . S
C511 C494 1.394 . S
C511 C510 1.438 . S
C511 C512 1.428 . S
C512 H504 0.949 . S
C512 C511 1.428 . S
C512 C513 1.345 . S
C513 H505 0.950 . S
C513 C512 1.345 . S
C513 C514 1.424 . S
C514 H506 0.951 . S
C514 C513 1.424 . S
C514 C515 1.347 . S
C515 H507 0.951 . S
C515 C510 1.429 . S
C515 C514 1.347 . S
H516 C517 0.951 . S
C517 H516 0.951 . S
C517 C523 1.265 . S
H518 C523 0.950 . S
H519 C527 0.949 . S
H520 C528 0.950 . S
H521 C529 0.951 . S
H522 C530 0.951 . S
C523 C517 1.265 . S
C523 H518 0.950 . S
C523 C524 1.478 . S
C524 C523 1.478 . S
C524 C525 1.397 . S
C524 C541 1.394 . S
C525 C524 1.397 . S
C525 C526 1.438 . S
C525 C530 1.429 . S
C526 C525 1.438 . S
C526 C527 1.428 . S
C526 C539 1.394 . S
C527 H519 0.949 . S
C527 C526 1.428 . S
C527 C528 1.345 . S
C528 H520 0.950 . S
C528 C527 1.345 . S
C528 C529 1.424 . S
C529 H521 0.951 . S
C529 C528 1.424 . S
C529 C530 1.347 . S
C530 H522 0.951 . S
C530 C525 1.429 . S
C530 C529 1.347 . S
H531 C532 0.951 . S
C532 H531 0.951 . S
C532 C538 1.265 . S
H533 C538 0.950 . S
H534 C542 0.949 . S
H535 C543 0.950 . S
H536 C544 0.951 . S
H537 C545 0.951 . S
C538 C532 1.265 . S
C538 H533 0.950 . S
C538 C539 1.478 . S
C539 C526 1.394 . S
C539 C538 1.478 . S
C539 C540 1.397 . S
C540 C539 1.397 . S
C540 C541 1.438 . S
C540 C545 1.429 . S
C541 C524 1.394 . S
C541 C540 1.438 . S
C541 C542 1.428 . S
C542 H534 0.949 . S
C542 C541 1.428 . S
C542 C543 1.345 . S
C543 H535 0.950 . S
C543 C542 1.345 . S
C543 C544 1.424 . S
C544 H536 0.951 . S
C544 C543 1.424 . S
C544 C545 1.347 . S
C545 H537 0.951 . S
C545 C540 1.429 . S
C545 C544 1.347 . S
C202 C151 1.469 . S
C187 C16 1.267 . S
C217 C15 1.486 . S
C232 C115 1.498 . S
C247 C13 1.198 . S
C262 C175 1.403 . S
C277 C14 1.269 . S
C292 C139 1.320 . S
C307 C37 1.283 . S
C322 C79 1.462 . S
C337 C36 1.493 . S
C352 C43 1.528 . S
C382 C103 1.485 . S
C367 C34 1.364 . S
C412 C67 1.338 . S
C397 C35 1.264 . S
C427 C17 1.471 . S
C442 C73 1.548 . S
C457 C18 1.387 . S
C472 C109 1.440 . S
C502 C145 1.540 . S
C487 C38 1.539 . S
C517 C39 1.425 . S
C532 C181 1.422 . S
