# Generated by pormake.
# Topology pyr, (3,6)-cn, num edge types: 1
# Building blocks:
#     Node 0, Type 0, BuildingBlock: VETTIZ_charged_linker_0, # of connection points: 3
#     Node 1, Type 0, BuildingBlock: VETTIZ_charged_linker_0, # of connection points: 3
#     Node 2, Type 0, BuildingBlock: VETTIZ_charged_linker_0, # of connection points: 3
#     Node 3, Type 0, BuildingBlock: VETTIZ_charged_linker_0, # of connection points: 3
#     Node 4, Type 0, BuildingBlock: VETTIZ_charged_linker_0, # of connection points: 3
#     Node 5, Type 0, BuildingBlock: VETTIZ_charged_linker_0, # of connection points: 3
#     Node 6, Type 0, BuildingBlock: VETTIZ_charged_linker_0, # of connection points: 3
#     Node 7, Type 0, BuildingBlock: VETTIZ_charged_linker_0, # of connection points: 3
#     Node 8, Type 1, BuildingBlock: PAMTOO_clean_sbu_0, # of connection points: 6
#     Node 9, Type 1, BuildingBlock: PAMTOO_clean_sbu_0, # of connection points: 6
#     Node 10, Type 1, BuildingBlock: PAMTOO_clean_sbu_0, # of connection points: 6
#     Node 11, Type 1, BuildingBlock: PAMTOO_clean_sbu_0, # of connection points: 6
#     Edge 12, Type (0, 1), BuildingBlock: OJICUG_clean_linker_0, # of connection points: 2
#     Edge 13, Type (0, 1), BuildingBlock: OJICUG_clean_linker_0, # of connection points: 2
#     Edge 14, Type (0, 1), BuildingBlock: OJICUG_clean_linker_0, # of connection points: 2
#     Edge 15, Type (0, 1), BuildingBlock: OJICUG_clean_linker_0, # of connection points: 2
#     Edge 16, Type (0, 1), BuildingBlock: OJICUG_clean_linker_0, # of connection points: 2
#     Edge 17, Type (0, 1), BuildingBlock: OJICUG_clean_linker_0, # of connection points: 2
#     Edge 18, Type (0, 1), BuildingBlock: OJICUG_clean_linker_0, # of connection points: 2
#     Edge 19, Type (0, 1), BuildingBlock: OJICUG_clean_linker_0, # of connection points: 2
#     Edge 20, Type (0, 1), BuildingBlock: OJICUG_clean_linker_0, # of connection points: 2
#     Edge 21, Type (0, 1), BuildingBlock: OJICUG_clean_linker_0, # of connection points: 2
#     Edge 22, Type (0, 1), BuildingBlock: OJICUG_clean_linker_0, # of connection points: 2
#     Edge 23, Type (0, 1), BuildingBlock: OJICUG_clean_linker_0, # of connection points: 2
#     Edge 24, Type (0, 1), BuildingBlock: OJICUG_clean_linker_0, # of connection points: 2
#     Edge 25, Type (0, 1), BuildingBlock: OJICUG_clean_linker_0, # of connection points: 2
#     Edge 26, Type (0, 1), BuildingBlock: OJICUG_clean_linker_0, # of connection points: 2
#     Edge 27, Type (0, 1), BuildingBlock: OJICUG_clean_linker_0, # of connection points: 2
#     Edge 28, Type (0, 1), BuildingBlock: OJICUG_clean_linker_0, # of connection points: 2
#     Edge 29, Type (0, 1), BuildingBlock: OJICUG_clean_linker_0, # of connection points: 2
#     Edge 30, Type (0, 1), BuildingBlock: OJICUG_clean_linker_0, # of connection points: 2
#     Edge 31, Type (0, 1), BuildingBlock: OJICUG_clean_linker_0, # of connection points: 2
#     Edge 32, Type (0, 1), BuildingBlock: OJICUG_clean_linker_0, # of connection points: 2
#     Edge 33, Type (0, 1), BuildingBlock: OJICUG_clean_linker_0, # of connection points: 2
#     Edge 34, Type (0, 1), BuildingBlock: OJICUG_clean_linker_0, # of connection points: 2
#     Edge 35, Type (0, 1), BuildingBlock: OJICUG_clean_linker_0, # of connection points: 2
# Relax obj value: 0.130
# Max RMSD: 0.174
# Mean RMSD: 0.073
data_MOF--net-pyr--node1-PAMTOO_clean_sbu_0--node2-VETTIZ_charged_linker_0--edge1-OJICUG_clean_linker_0
_symmetry_space_group_name_H-M    P1
_symmetry_Int_Tables_number       1
_symmetry_cell_setting            triclinic
loop_
_symmetry_equiv_pos_as_xyz
'x, y, z'
_cell_length_a     35.664354
_cell_length_b     36.750989
_cell_length_c     35.590408
_cell_angle_alpha  89.990413
_cell_angle_beta   89.998444
_cell_angle_gamma 103.03486
loop_
_atom_site_label
_atom_site_type_symbol
_atom_site_fract_x
_atom_site_fract_y
_atom_site_fract_z
_atom_type_partial_charge
C0 C 0.34582 0.24572 0.39562 0.0
C1 C 0.31423 0.25196 0.41635 0.0
C2 C 0.29547 0.27966 0.40376 0.0
C3 C 0.33205 0.28587 0.34596 0.0
C4 C 0.35357 0.26213 0.3601 0.0
C5 C 0.37956 0.2514 0.3308 0.0
H6 H 0.4142 0.229 0.14788 0.0
C7 C 0.34036 0.29084 0.30541 0.0
C8 C 0.3684 0.271 0.29631 0.0
H9 H 0.46733 0.18975 0.24459 0.0
H10 H 0.43723 0.2269 0.28523 0.0
H11 H 0.42358 0.31668 0.17932 0.0
H12 H 0.33147 0.21776 0.18303 0.0
H13 H 0.3122 0.25596 0.1701 0.0
H14 H 0.34704 0.24214 0.14004 0.0
H15 H 0.39658 0.2985 0.13822 0.0
H16 H 0.38 0.32981 0.17001 0.0
C17 C 0.42184 0.26768 0.34257 0.0
C18 C 0.36881 0.20821 0.32672 0.0
C19 C 0.25178 0.34893 0.22596 0.0
C20 C 0.24636 0.35175 0.18708 0.0
C21 C 0.27192 0.33952 0.16235 0.0
C22 C 0.30176 0.32398 0.1763 0.0
C23 C 0.30576 0.32015 0.21536 0.0
C24 C 0.28132 0.33319 0.23936 0.0
C25 C 0.28844 0.32586 0.27988 0.0
C26 C 0.32152 0.30642 0.2765 0.0
C27 C 0.3315 0.30287 0.23869 0.0
C28 C 0.30114 0.36399 0.30008 0.0
C29 C 0.25136 0.29993 0.29623 0.0
C30 C 0.41937 0.22836 0.17782 0.0
C31 C 0.4427 0.20565 0.19293 0.0
C32 C 0.44967 0.20684 0.23197 0.0
C33 C 0.43174 0.22812 0.25569 0.0
C34 C 0.40578 0.24774 0.2405 0.0
C35 C 0.40112 0.24898 0.20206 0.0
C36 C 0.37258 0.27174 0.19111 0.0
C37 C 0.36017 0.28301 0.22944 0.0
C38 C 0.37925 0.26816 0.25822 0.0
C39 C 0.39398 0.30594 0.16821 0.0
C40 C 0.33904 0.24587 0.16973 0.0
H41 H 0.28779 0.31614 0.35994 0.0
H42 H 0.3616 0.22546 0.40501 0.0
H43 H 0.33704 0.19758 0.32786 0.0
H44 H 0.37753 0.198 0.29978 0.0
H45 H 0.38163 0.19459 0.34974 0.0
H46 H 0.42446 0.29351 0.35964 0.0
H47 H 0.43332 0.24737 0.3597 0.0
H48 H 0.44095 0.27644 0.31813 0.0
H49 H 0.23226 0.3572 0.24585 0.0
H50 H 0.26866 0.34172 0.13224 0.0
H51 H 0.32003 0.3148 0.15615 0.0
H52 H 0.32116 0.38435 0.28209 0.0
H53 H 0.27596 0.37604 0.3065 0.0
H54 H 0.31719 0.36219 0.32632 0.0
H55 H 0.23166 0.28574 0.27379 0.0
H56 H 0.25755 0.27669 0.31312 0.0
H57 H 0.23479 0.31585 0.31369 0.0
H58 H 0.27123 0.28552 0.41899 0.0
C59 C 0.3046 0.29696 0.36889 0.0
C60 C 0.0881 0.83763 0.68182 0.0
C61 C 0.06441 0.85957 0.6977 0.0
C62 C 0.05692 0.85678 0.73662 0.0
C63 C 0.10127 0.81606 0.74373 0.0
C64 C 0.10636 0.81634 0.70529 0.0
C65 C 0.13552 0.79455 0.69354 0.0
H66 H 0.27731 0.70956 0.74534 0.0
C67 C 0.12802 0.79539 0.7607 0.0
C68 C 0.14775 0.78202 0.73142 0.0
H69 H 0.24225 0.7294 0.63231 0.0
H70 H 0.18974 0.75417 0.65705 0.0
H71 H 0.27645 0.77921 0.77624 0.0
H72 H 0.1879 0.67962 0.78 0.0
H73 H 0.19096 0.69987 0.82513 0.0
H74 H 0.23279 0.68749 0.8049 0.0
H75 H 0.27285 0.74778 0.81511 0.0
H76 H 0.24961 0.7866 0.8155 0.0
C77 C 0.16897 0.82166 0.67323 0.0
C78 C 0.11488 0.76108 0.66929 0.0
C79 C 0.15998 0.81302 0.89889 0.0
C80 C 0.19164 0.8065 0.91934 0.0
C81 C 0.21083 0.77951 0.90578 0.0
C82 C 0.20213 0.76339 0.87033 0.0
C83 C 0.17473 0.77502 0.84779 0.0
C84 C 0.1527 0.79787 0.86279 0.0
C85 C 0.12676 0.80933 0.83387 0.0
C86 C 0.13859 0.79127 0.79868 0.0
C87 C 0.16688 0.7715 0.80707 0.0
C88 C 0.13696 0.85265 0.83144 0.0
C89 C 0.08447 0.79211 0.84494 0.0
C90 C 0.25787 0.71835 0.72572 0.0
C91 C 0.264 0.7174 0.68679 0.0
C92 C 0.23846 0.7302 0.66247 0.0
C93 C 0.20796 0.74449 0.67689 0.0
C94 C 0.20326 0.74653 0.71606 0.0
C95 C 0.2277 0.73293 0.73961 0.0
C96 C 0.21985 0.73841 0.78036 0.0
C97 C 0.18638 0.75742 0.77762 0.0
C98 C 0.17679 0.76236 0.73995 0.0
C99 C 0.25641 0.76408 0.79796 0.0
C100 C 0.20743 0.69941 0.7989 0.0
H101 H 0.06899 0.83482 0.78912 0.0
H102 H 0.09365 0.83818 0.65189 0.0
H103 H 0.08543 0.7492 0.68022 0.0
H104 H 0.12959 0.73766 0.66979 0.0
H105 H 0.11203 0.76972 0.63971 0.0
H106 H 0.17574 0.84935 0.68742 0.0
H107 H 0.16133 0.82616 0.6436 0.0
H108 H 0.19616 0.81219 0.67357 0.0
H109 H 0.14379 0.83266 0.90902 0.0
H110 H 0.23511 0.77339 0.92074 0.0
H111 H 0.21925 0.74475 0.86071 0.0
H112 H 0.16866 0.86362 0.83303 0.0
H113 H 0.12367 0.86517 0.85493 0.0
H114 H 0.12835 0.86372 0.80488 0.0
H115 H 0.08203 0.76562 0.86089 0.0
H116 H 0.06566 0.7842 0.82016 0.0
H117 H 0.07255 0.81147 0.86293 0.0
H118 H 0.03889 0.87319 0.74979 0.0
C119 C 0.07483 0.83479 0.75957 0.0
C120 C 0.59855 0.25819 0.94838 0.0
C121 C 0.57031 0.23094 0.93046 0.0
C122 C 0.55455 0.2409 0.89645 0.0
C123 C 0.59769 0.30303 0.89807 0.0
C124 C 0.6121 0.29309 0.93167 0.0
C125 C 0.64467 0.32253 0.94651 0.0
H126 H 0.78429 0.47594 0.92049 0.0
C127 C 0.62051 0.34123 0.88786 0.0
C128 C 0.64839 0.35197 0.91615 0.0
H129 H 0.76231 0.40195 1.0168 0.0
H130 H 0.70395 0.36887 0.98915 0.0
H131 H 0.69491 0.4851 0.92053 0.0
H132 H 0.75182 0.41676 0.85257 0.0
H133 H 0.7248 0.44065 0.82374 0.0
H134 H 0.76361 0.46696 0.85161 0.0
H135 H 0.72397 0.50396 0.88094 0.0
H136 H 0.6736 0.48171 0.87587 0.0
C137 C 0.63182 0.33655 0.98456 0.0
C138 C 0.68066 0.30533 0.94876 0.0
C139 C 0.58805 0.41293 0.77283 0.0
C140 C 0.60488 0.4484 0.75726 0.0
C141 C 0.63903 0.4691 0.77406 0.0
C142 C 0.6554 0.45561 0.80562 0.0
C143 C 0.63782 0.42078 0.82113 0.0
C144 C 0.6049 0.39975 0.80456 0.0
C145 C 0.59105 0.3627 0.82453 0.0
C146 C 0.61944 0.36617 0.85711 0.0
C147 C 0.64723 0.40028 0.85462 0.0
C148 C 0.54948 0.3598 0.83838 0.0
C149 C 0.59505 0.33116 0.79718 0.0
C150 C 0.76687 0.45265 0.93566 0.0
C151 C 0.77965 0.44051 0.97029 0.0
C152 C 0.75494 0.41085 0.98931 0.0
C153 C 0.72041 0.39175 0.97333 0.0
C154 C 0.70941 0.40232 0.93787 0.0
C155 C 0.73135 0.43334 0.92027 0.0
C156 C 0.7119 0.44239 0.88465 0.0
C157 C 0.67655 0.40983 0.88266 0.0
C158 C 0.67606 0.38629 0.91369 0.0
C159 C 0.70063 0.48033 0.8904 0.0
C160 C 0.73941 0.44191 0.8512 0.0
H161 H 0.55517 0.2826 0.85429 0.0
H162 H 0.61069 0.25245 0.97503 0.0
H163 H 0.68092 0.28543 0.92523 0.0
H164 H 0.70817 0.32601 0.94591 0.0
H165 H 0.68104 0.28973 0.97543 0.0
H166 H 0.59999 0.33272 0.98607 0.0
H167 H 0.64072 0.3212 1.00863 0.0
H168 H 0.64304 0.36693 0.9887 0.0
H169 H 0.56195 0.39595 0.76102 0.0
H170 H 0.65361 0.4958 0.76252 0.0
H171 H 0.68139 0.47282 0.81669 0.0
H172 H 0.54719 0.38585 0.85322 0.0
H173 H 0.52898 0.35561 0.81443 0.0
H174 H 0.54001 0.33674 0.85851 0.0
H175 H 0.62237 0.33909 0.78098 0.0
H176 H 0.59637 0.30502 0.81179 0.0
H177 H 0.57089 0.32538 0.77673 0.0
H178 H 0.53255 0.22073 0.88188 0.0
C179 C 0.568 0.27677 0.88025 0.0
C180 C 0.92782 0.81415 0.41124 0.0
C181 C 0.91516 0.83125 0.44304 0.0
C182 C 0.8796 0.81422 0.45941 0.0
C183 C 0.87149 0.76254 0.4159 0.0
C184 C 0.90538 0.77959 0.39817 0.0
C185 C 0.91358 0.75623 0.36527 0.0
H186 H 0.86357 0.59295 0.26525 0.0
C187 C 0.85566 0.72629 0.39752 0.0
C188 C 0.87986 0.72204 0.36755 0.0
H189 H 0.95726 0.68757 0.24271 0.0
H190 H 0.93882 0.72033 0.29621 0.0
H191 H 0.8713 0.59491 0.35819 0.0
H192 H 0.80077 0.64283 0.28237 0.0
H193 H 0.77258 0.62213 0.32062 0.0
H194 H 0.7931 0.59328 0.28937 0.0
H195 H 0.83369 0.56659 0.33044 0.0
H196 H 0.82353 0.58574 0.37487 0.0
C197 C 0.95261 0.74581 0.37224 0.0
C198 C 0.91231 0.77884 0.32882 0.0
C199 C 0.73514 0.64469 0.45326 0.0
C200 C 0.71186 0.60959 0.44436 0.0
C201 C 0.72328 0.58933 0.41431 0.0
C202 C 0.75671 0.60439 0.39314 0.0
C203 C 0.77906 0.64015 0.40201 0.0
C204 C 0.76793 0.65933 0.43185 0.0
C205 C 0.79415 0.69683 0.43777 0.0
C206 C 0.82314 0.69751 0.40652 0.0
C207 C 0.81452 0.66437 0.38546 0.0
C208 C 0.81268 0.69675 0.47728 0.0
C209 C 0.77024 0.72693 0.43195 0.0
C210 C 0.88025 0.62063 0.27199 0.0
C211 C 0.91205 0.63756 0.24964 0.0
C212 C 0.93252 0.67394 0.25917 0.0
C213 C 0.92182 0.69292 0.29035 0.0
C214 C 0.88991 0.67572 0.31228 0.0
C215 C 0.8695 0.64022 0.30272 0.0
C216 C 0.83536 0.62685 0.32817 0.0
C217 C 0.8387 0.65989 0.35467 0.0
C218 C 0.87104 0.68857 0.34552 0.0
C219 C 0.84088 0.5915 0.34899 0.0
C220 C 0.79834 0.62063 0.30408 0.0
H221 H 0.83169 0.76902 0.46082 0.0
H222 H 0.95478 0.82675 0.39765 0.0
H223 H 0.88946 0.79499 0.3305 0.0
H224 H 0.90497 0.7609 0.30381 0.0
H225 H 0.94016 0.79901 0.32394 0.0
H226 H 0.95431 0.73609 0.40167 0.0
H227 H 0.97688 0.77031 0.36772 0.0
H228 H 0.957 0.72275 0.3542 0.0
H229 H 0.72803 0.66084 0.47658 0.0
H230 H 0.70594 0.56221 0.40664 0.0
H231 H 0.76368 0.58782 0.37046 0.0
H232 H 0.81699 0.66852 0.48457 0.0
H233 H 0.79415 0.70485 0.4994 0.0
H234 H 0.84176 0.7151 0.47916 0.0
H235 H 0.7458 0.71706 0.41229 0.0
H236 H 0.78706 0.75274 0.41871 0.0
H237 H 0.75798 0.73416 0.45889 0.0
H238 H 0.86847 0.82711 0.48305 0.0
C239 C 0.85799 0.78028 0.44625 0.0
C240 C 0.72752 0.70776 0.94842 0.0
C241 C 0.75014 0.68635 0.92989 0.0
C242 C 0.74251 0.67695 0.89179 0.0
C243 C 0.69665 0.71613 0.88941 0.0
C244 C 0.7005 0.72193 0.92763 0.0
C245 C 0.67435 0.74598 0.94181 0.0
H246 H 0.56322 0.8681 0.90148 0.0
C247 C 0.67155 0.73942 0.87452 0.0
C248 C 0.65695 0.75593 0.90513 0.0
H249 H 0.59104 0.83061 1.01081 0.0
H250 H 0.62355 0.78661 0.98179 0.0
H251 H 0.54599 0.78412 0.85633 0.0
H252 H 0.63825 0.87955 0.87144 0.0
H253 H 0.65216 0.85852 0.83118 0.0
H254 H 0.60836 0.87537 0.83066 0.0
H255 H 0.54832 0.83037 0.8386 0.0
H256 H 0.56811 0.79721 0.81233 0.0
C257 C 0.64363 0.72194 0.96782 0.0
C258 C 0.69946 0.78079 0.96115 0.0
C259 C 0.69086 0.78152 0.73969 0.0
C260 C 0.68375 0.81358 0.72218 0.0
C261 C 0.65436 0.82959 0.73675 0.0
C262 C 0.63625 0.81691 0.77078 0.0
C263 C 0.64863 0.78898 0.79104 0.0
C264 C 0.67432 0.77065 0.77474 0.0
C265 C 0.68731 0.74438 0.80161 0.0
C266 C 0.66655 0.75145 0.83732 0.0
C267 C 0.644 0.77759 0.8309 0.0
C268 C 0.67304 0.70386 0.787 0.0
C269 C 0.73175 0.75705 0.80539 0.0
C270 C 0.57535 0.84958 0.91907 0.0
C271 C 0.57431 0.85235 0.95833 0.0
C272 C 0.59149 0.82874 0.98044 0.0
C273 C 0.6104 0.80338 0.96357 0.0
C274 C 0.61291 0.80225 0.9242 0.0
C275 C 0.59508 0.82474 0.90265 0.0
C276 C 0.60311 0.82193 0.86144 0.0
C277 C 0.62694 0.79248 0.86164 0.0
C278 C 0.63308 0.78146 0.89852 0.0
C279 C 0.56439 0.80785 0.84081 0.0
C280 C 0.62646 0.86069 0.84773 0.0
H281 H 0.71177 0.68423 0.8425 0.0
H282 H 0.73168 0.71427 0.97801 0.0
H283 H 0.72489 0.79304 0.94344 0.0
H284 H 0.68418 0.80336 0.96564 0.0
H285 H 0.71015 0.77335 0.98878 0.0
H286 H 0.63832 0.69179 0.96041 0.0
H287 H 0.65282 0.72477 0.9977 0.0
H288 H 0.61519 0.729 0.96505 0.0
H289 H 0.71218 0.76771 0.72838 0.0
H290 H 0.64764 0.854 0.72381 0.0
H291 H 0.61535 0.83118 0.78131 0.0
H292 H 0.64967 0.70166 0.76584 0.0
H293 H 0.69671 0.6935 0.77349 0.0
H294 H 0.66035 0.68434 0.80979 0.0
H295 H 0.74044 0.78769 0.81039 0.0
H296 H 0.74389 0.74397 0.82876 0.0
H297 H 0.7463 0.75071 0.77941 0.0
H298 H 0.75911 0.66032 0.87675 0.0
C299 C 0.71546 0.69127 0.87168 0.0
C300 C 0.91384 0.22619 0.46085 0.0
C301 C 0.94014 0.20713 0.44508 0.0
C302 C 0.9512 0.21374 0.40725 0.0
C303 C 0.90485 0.25222 0.39986 0.0
C304 C 0.89686 0.24889 0.43781 0.0
C305 C 0.86719 0.27013 0.44933 0.0
H306 H 0.72786 0.3571 0.39618 0.0
C307 C 0.87861 0.27318 0.38259 0.0
C308 C 0.85726 0.28489 0.41157 0.0
H309 H 0.76092 0.33597 0.50958 0.0
H310 H 0.81345 0.31091 0.48538 0.0
H311 H 0.72864 0.2884 0.3646 0.0
H312 H 0.81735 0.38749 0.36296 0.0
H313 H 0.81471 0.36778 0.31755 0.0
H314 H 0.7726 0.37958 0.33777 0.0
H315 H 0.73437 0.31875 0.32481 0.0
H316 H 0.75716 0.27965 0.3271 0.0
C317 C 0.83254 0.24209 0.46673 0.0
C318 C 0.8865 0.30209 0.47611 0.0
C319 C 0.84766 0.25462 0.24437 0.0
C320 C 0.81534 0.25995 0.22412 0.0
C321 C 0.79589 0.28691 0.23732 0.0
C322 C 0.80485 0.30389 0.27233 0.0
C323 C 0.83256 0.29296 0.29499 0.0
C324 C 0.85494 0.2703 0.28028 0.0
C325 C 0.88131 0.25971 0.30936 0.0
C326 C 0.86891 0.2777 0.34442 0.0
C327 C 0.84019 0.29686 0.3357 0.0
C328 C 0.87215 0.21646 0.31212 0.0
C329 C 0.9235 0.27749 0.2983 0.0
C330 C 0.74689 0.348 0.41602 0.0
C331 C 0.74024 0.34874 0.45488 0.0
C332 C 0.76517 0.33543 0.47947 0.0
C333 C 0.79571 0.32103 0.46537 0.0
C334 C 0.80108 0.31948 0.42627 0.0
C335 C 0.77716 0.33342 0.40246 0.0
C336 C 0.78583 0.32858 0.36179 0.0
C337 C 0.81964 0.31006 0.3649 0.0
C338 C 0.82826 0.30441 0.40268 0.0
C339 C 0.74982 0.30275 0.3434 0.0
C340 C 0.79807 0.36782 0.34375 0.0
H341 H 0.94238 0.2396 0.35571 0.0
H342 H 0.90572 0.22245 0.49016 0.0
H343 H 0.9175 0.31247 0.46918 0.0
H344 H 0.87397 0.32689 0.47365 0.0
H345 H 0.88467 0.29252 0.5058 0.0
H346 H 0.82512 0.21616 0.44956 0.0
H347 H 0.8393 0.23411 0.49563 0.0
H348 H 0.80609 0.25278 0.46786 0.0
H349 H 0.86445 0.23551 0.23428 0.0
H350 H 0.77124 0.29243 0.22256 0.0
H351 H 0.78771 0.32262 0.28161 0.0
H352 H 0.84053 0.20513 0.31416 0.0
H353 H 0.88275 0.20401 0.28694 0.0
H354 H 0.88469 0.20581 0.33684 0.0
H355 H 0.92537 0.30189 0.27931 0.0
H356 H 0.9413 0.28875 0.32299 0.0
H357 H 0.93703 0.25711 0.28352 0.0
H358 H 0.97166 0.19966 0.39459 0.0
C359 C 0.93391 0.23652 0.38465 0.0
C360 C 0.41537 0.65819 0.36113 0.0
C361 C 0.3997 0.62225 0.37598 0.0
C362 C 0.36711 0.60005 0.35813 0.0
C363 C 0.36659 0.64857 0.31174 0.0
C364 C 0.39864 0.6706 0.32888 0.0
C365 C 0.41245 0.70722 0.30821 0.0
H366 H 0.38662 0.82022 0.16195 0.0
C367 C 0.35641 0.66895 0.27852 0.0
C368 C 0.38353 0.70346 0.27604 0.0
H369 H 0.4758 0.8453 0.2462 0.0
H370 H 0.451 0.78462 0.2754 0.0
H371 H 0.31935 0.78688 0.21685 0.0
H372 H 0.39353 0.73937 0.14697 0.0
H373 H 0.34926 0.70689 0.1455 0.0
H374 H 0.35244 0.75386 0.12856 0.0
H375 H 0.31401 0.78301 0.16681 0.0
H376 H 0.28985 0.74644 0.19791 0.0
C377 C 0.40946 0.73943 0.33508 0.0
C378 C 0.45368 0.70909 0.29374 0.0
C379 C 0.23598 0.614 0.19964 0.0
C380 C 0.22011 0.62768 0.16757 0.0
C381 C 0.2408 0.66084 0.1507 0.0
C382 C 0.27519 0.68105 0.1661 0.0
C383 C 0.2898 0.66826 0.19894 0.0
C384 C 0.27092 0.63485 0.21484 0.0
C385 C 0.29229 0.62554 0.24904 0.0
C386 C 0.32607 0.65957 0.25151 0.0
C387 C 0.32398 0.68439 0.22211 0.0
C388 C 0.26528 0.62284 0.28342 0.0
C389 C 0.30591 0.58921 0.24067 0.0
C390 C 0.40074 0.81307 0.18695 0.0
C391 C 0.4329 0.83807 0.20195 0.0
C392 C 0.45088 0.82671 0.23396 0.0
C393 C 0.43634 0.79148 0.25096 0.0
C394 C 0.40362 0.76705 0.23566 0.0
C395 C 0.38683 0.7783 0.20397 0.0
C396 C 0.35274 0.74962 0.19063 0.0
C397 C 0.35112 0.71909 0.21958 0.0
C398 C 0.38087 0.72896 0.2462 0.0
C399 C 0.31702 0.76715 0.19278 0.0
C400 C 0.36206 0.73679 0.15078 0.0
H401 H 0.32571 0.59458 0.3145 0.0
H402 H 0.44061 0.67589 0.37379 0.0
H403 H 0.45596 0.68173 0.28172 0.0
H404 H 0.46214 0.72961 0.27093 0.0
H405 H 0.47498 0.71603 0.31691 0.0
H406 H 0.38149 0.73291 0.35029 0.0
H407 H 0.43286 0.74392 0.35634 0.0
H408 H 0.4105 0.76596 0.32022 0.0
H409 H 0.22109 0.58838 0.21312 0.0
H410 H 0.23014 0.67153 0.12545 0.0
H411 H 0.28869 0.7063 0.15191 0.0
H412 H 0.25015 0.64622 0.28323 0.0
H413 H 0.24307 0.59624 0.28307 0.0
H414 H 0.28073 0.62508 0.31046 0.0
H415 H 0.31233 0.58699 0.21027 0.0
H416 H 0.33311 0.58825 0.25509 0.0
H417 H 0.28351 0.56409 0.24843 0.0
H418 H 0.35412 0.57255 0.36897 0.0
C419 C 0.35051 0.61296 0.32644 0.0
C420 C 0.07436 0.24952 0.71846 0.0
C421 C 0.08728 0.23178 0.68724 0.0
C422 C 0.11828 0.25193 0.66588 0.0
C423 C 0.12508 0.30512 0.70744 0.0
C424 C 0.09398 0.28627 0.7282 0.0
C425 C 0.08577 0.30995 0.76083 0.0
H426 H 0.13956 0.47175 0.86284 0.0
C427 C 0.14061 0.34177 0.72523 0.0
C428 C 0.118 0.34518 0.75674 0.0
H429 H 0.0401 0.38122 0.88024 0.0
H430 H 0.05839 0.34825 0.8272 0.0
H431 H 0.13253 0.47326 0.76938 0.0
H432 H 0.19849 0.41968 0.84467 0.0
H433 H 0.22751 0.43725 0.80592 0.0
H434 H 0.21076 0.46921 0.83677 0.0
H435 H 0.16956 0.49898 0.79958 0.0
H436 H 0.18101 0.48207 0.7546 0.0
C437 C 0.0456 0.31823 0.75464 0.0
C438 C 0.08938 0.28889 0.79775 0.0
C439 C 0.26043 0.42354 0.66828 0.0
C440 C 0.2864 0.45642 0.67961 0.0
C441 C 0.2777 0.47445 0.71262 0.0
C442 C 0.24429 0.45966 0.73381 0.0
C443 C 0.21931 0.42615 0.72234 0.0
C444 C 0.22803 0.40873 0.69017 0.0
C445 C 0.20058 0.37206 0.68325 0.0
C446 C 0.17323 0.37037 0.71612 0.0
C447 C 0.18375 0.40225 0.73885 0.0
C448 C 0.18016 0.37476 0.64517 0.0
C449 C 0.22375 0.34093 0.6853 0.0
C450 C 0.12139 0.44505 0.85506 0.0
C451 C 0.0883 0.42929 0.87635 0.0
C452 C 0.06607 0.39403 0.86513 0.0
C453 C 0.07655 0.3749 0.83398 0.0
C454 C 0.1097 0.39093 0.81326 0.0
C455 C 0.13145 0.42556 0.82387 0.0
C456 C 0.16588 0.43834 0.79864 0.0
C457 C 0.16074 0.40627 0.7707 0.0
C458 C 0.12784 0.37815 0.7795 0.0
C459 C 0.16243 0.47524 0.77955 0.0
C460 C 0.20276 0.44163 0.82255 0.0
H461 H 0.16027 0.30148 0.65787 0.0
H462 H 0.05031 0.23491 0.73523 0.0
H463 H 0.11548 0.27708 0.79708 0.0
H464 H 0.09263 0.30711 0.8227 0.0
H465 H 0.06399 0.2654 0.80191 0.0
H466 H 0.04094 0.32348 0.72439 0.0
H467 H 0.02245 0.29425 0.76371 0.0
H468 H 0.04204 0.34367 0.76932 0.0
H469 H 0.26518 0.40895 0.64293 0.0
H470 H 0.29711 0.49953 0.72273 0.0
H471 H 0.2395 0.47456 0.75865 0.0
H472 H 0.17509 0.40326 0.6409 0.0
H473 H 0.19784 0.36876 0.62125 0.0
H474 H 0.15124 0.356 0.64353 0.0
H475 H 0.25024 0.34965 0.70263 0.0
H476 H 0.20761 0.31522 0.69921 0.0
H477 H 0.23288 0.33377 0.65693 0.0
H478 H 0.12817 0.23951 0.64123 0.0
C479 C 0.13696 0.2882 0.67561 0.0
Dy480 Dy 0.04457 0.03839 0.54759 0.0
Dy481 Dy 0.9581 1.02337 0.58498 0.0
C482 C 0.02554 0.08935 0.61576 0.0
O483 O 0.03787 0.98572 0.57986 0.0
O484 O 0.9905 0.99136 0.62176 0.0
O485 O 0.10492 0.03946 0.5547 0.0
O486 O 0.08292 0.05139 0.50022 0.0
O487 O 0.96013 0.97181 0.55274 0.0
O488 O 0.00601 0.99722 0.50926 0.0
O489 O 0.9585 0.05704 0.53275 0.0
O490 O 0.02164 0.0876 0.53106 0.0
O491 O 0.89739 1.01389 0.57363 0.0
O492 O 0.91794 1.01879 0.63116 0.0
C493 C 0.01877 0.97604 0.6111 0.0
O494 O 0.05065 0.07224 0.60076 0.0
O495 O 0.98861 0.07867 0.60838 0.0
C496 C 0.14657 0.08224 0.51599 0.0
C497 C 0.21089 0.14065 0.50143 0.0
C498 C 0.17369 0.14763 0.50266 0.0
C499 C 0.14175 0.11864 0.50999 0.0
C500 C 0.18369 0.07559 0.5169 0.0
C501 C 0.21563 0.10455 0.5098 0.0
C502 C 0.11338 0.05067 0.52036 0.0
C503 C 0.97787 0.96978 0.52073 0.0
C504 C 0.98555 0.08583 0.52273 0.0
C505 C 0.85737 0.97914 0.61908 0.0
C506 C 0.79809 0.91786 0.63918 0.0
C507 C 0.83427 0.91243 0.62793 0.0
C508 C 0.86372 0.94288 0.61792 0.0
C509 C 0.82115 0.98464 0.62922 0.0
C510 C 0.79169 0.95425 0.6392 0.0
C511 C 0.88796 1.0114 0.60905 0.0
H512 H 0.16898 0.175 0.49595 0.0
H513 H 0.11326 0.12439 0.50969 0.0
H514 H 0.18791 0.04772 0.52205 0.0
H515 H 0.24394 0.09842 0.50957 0.0
H516 H 0.83996 0.8847 0.62741 0.0
H517 H 0.89152 0.93823 0.60966 0.0
H518 H 0.81582 1.01252 0.62996 0.0
H519 H 0.76438 0.95942 0.64831 0.0
Dy520 Dy 0.46136 1.02306 1.04688 0.0
Dy521 Dy 0.5494 0.04211 0.08186 0.0
C522 C 0.48415 0.97536 0.11565 0.0
O523 O 0.46818 0.0777 0.07578 0.0
O524 O 0.51691 0.07504 0.11708 0.0
O525 O 0.40087 1.01978 1.05626 0.0
O526 O 0.42129 1.00717 1.00127 0.0
O527 O 0.54783 0.09048 1.04421 0.0
O528 O 0.49591 0.06498 1.00668 0.0
O529 O 0.54974 1.00605 1.03182 0.0
O530 O 0.48651 0.97503 1.02982 0.0
O531 O 0.61045 0.05382 0.07171 0.0
O532 O 0.5887 0.04739 0.12887 0.0
C533 C 0.48827 0.08952 0.10597 0.0
O534 O 0.45798 0.99156 0.1014 0.0
O535 O 0.52064 0.98664 0.10657 0.0
C536 C 0.35861 0.97538 1.01946 0.0
C537 C 0.29454 0.91635 1.00607 0.0
C538 C 0.33203 0.91002 1.00548 0.0
C539 C 0.36385 0.93933 1.0122 0.0
C540 C 0.32127 0.98126 1.02241 0.0
C541 C 0.28947 0.95199 1.01589 0.0
C542 C 0.39141 1.00755 1.02241 0.0
C543 C 0.52674 0.09139 1.01401 0.0
C544 C 0.52289 0.97695 1.02228 0.0
C545 C 0.64992 0.08778 0.11947 0.0
C546 C 0.71209 0.14502 0.14329 0.0
C547 C 0.69677 0.14582 0.10698 0.0
C548 C 0.66592 0.11741 0.09513 0.0
C549 C 0.66492 0.08723 0.15574 0.0
C550 C 0.69545 0.11559 0.16762 0.0
C551 C 0.61905 0.05619 0.10736 0.0
H552 H 0.33697 0.88302 0.99764 0.0
H553 H 0.39252 0.93415 1.01028 0.0
H554 H 0.31673 1.00884 1.02849 0.0
H555 H 0.26095 0.9576 1.01705 0.0
H556 H 0.70893 0.16805 0.08758 0.0
H557 H 0.65493 0.11851 1.06689 0.0
H558 H 0.65309 0.06467 0.17495 0.0
H559 H 0.70576 0.11458 0.19614 0.0
Dy560 Dy 0.49704 0.49401 0.54526 0.0
Dy561 Dy 0.50668 0.57541 0.58701 0.0
C562 C 0.53785 0.50894 0.62665 0.0
O563 O 0.43802 0.49165 0.56792 0.0
O564 O 0.4525 0.54012 0.61034 0.0
O565 O 0.48467 0.43361 0.54639 0.0
O566 O 0.5022 0.46328 0.49456 0.0
O567 O 0.46564 0.57761 0.53964 0.0
O568 O 0.47882 0.53136 0.50206 0.0
O569 O 0.55374 0.58302 0.54427 0.0
O570 O 0.55928 0.52244 0.53969 0.0
O571 O 0.51722 0.63565 0.58438 0.0
O572 O 0.50666 0.60748 0.63795 0.0
C573 C 0.42884 0.51051 0.59659 0.0
O574 O 0.51564 0.48513 0.60407 0.0
O575 O 0.54413 0.54527 0.62071 0.0
C576 C 0.5291 0.41215 0.50735 0.0
C577 C 0.59758 0.388 0.49477 0.0
C578 C 0.58665 0.395 0.53146 0.0
C579 C 0.55282 0.40731 0.53771 0.0
C580 C 0.539 0.40311 0.47097 0.0
C581 C 0.57304 0.39132 0.46469 0.0
C582 C 0.49752 0.43158 0.51232 0.0
C583 C 0.46444 0.56103 0.50678 0.0
C584 C 0.5725 0.55812 0.53295 0.0
C585 C 0.4755 0.6565 0.62718 0.0
C586 C 0.4067 0.67917 0.64347 0.0
C587 C 0.41767 0.67533 0.60606 0.0
C588 C 0.45162 0.66389 0.59796 0.0
C589 C 0.46548 0.66223 0.66448 0.0
C590 C 0.43135 0.6733 0.67257 0.0
C591 C 0.50774 0.63834 0.6195 0.0
H592 H 0.6052 0.39277 0.55506 0.0
H593 H 0.54619 0.41454 0.56606 0.0
H594 H 0.52131 0.40686 0.44717 0.0
H595 H 0.58071 0.38569 0.43617 0.0
H596 H 0.39916 0.67955 0.5831 0.0
H597 H 0.45829 0.65946 0.56887 0.0
H598 H 0.4833 0.65666 0.68748 0.0
H599 H 0.42387 0.6766 0.70167 0.0
Dy600 Dy 0.00534 0.57115 1.04105 0.0
Dy601 Dy 1.00007 0.49421 0.08968 0.0
C602 C 0.96581 0.56209 0.12276 0.0
O603 O 0.05403 0.584 0.08197 0.0
O604 O 0.06204 0.52478 0.09187 0.0
O605 O 0.01209 0.63109 1.03903 0.0
O606 O 0.0043 0.59891 0.98768 0.0
O607 O 0.01558 0.48104 1.03117 0.0
O608 O 0.04271 0.53963 1.00921 0.0
O609 O 0.93972 0.48879 0.06872 0.0
O610 O 0.95138 0.53256 1.02133 0.0
O611 O 0.98947 0.434 0.09341 0.0
O612 O 0.0085 0.46799 0.14236 0.0
C613 C 0.07434 0.56111 0.09503 0.0
O614 O 0.96511 0.57536 0.08852 0.0
O615 O 0.98189 0.534 0.12999 0.0
C616 C 0.96852 0.64526 0.99384 0.0
C617 C 0.896 0.66042 0.978 0.0
C618 C 0.91273 0.66842 1.01362 0.0
C619 C 0.94859 0.66077 1.02154 0.0
C620 C 0.95274 0.63946 0.9576 0.0
C621 C 0.91676 0.64674 0.94983 0.0
C622 C 0.00265 0.63048 1.00359 0.0
C623 C 0.03655 0.50301 1.00627 0.0
C624 C 0.92882 0.50427 1.03842 0.0
C625 C 0.03617 0.41677 0.1328 0.0
C626 C 0.10499 0.39343 0.14631 0.0
C627 C 0.09456 0.40069 0.1095 0.0
C628 C 0.06059 0.4126 0.10281 0.0
C629 C 0.04573 0.40784 0.16932 0.0
C630 C 0.0799 0.3964 0.17605 0.0
C631 C 0.00381 0.43502 0.1272 0.0
H632 H 0.89738 0.67911 1.03579 0.0
H633 H 0.95987 0.66564 1.0498 0.0
H634 H 0.96747 0.62778 0.93563 0.0
H635 H 0.90487 0.64108 0.92187 0.0
H636 H 0.1135 0.39879 0.08614 0.0
H637 H 0.05421 0.41987 0.07439 0.0
H638 H 0.0275 0.41115 0.19285 0.0
H639 H 0.08711 0.39054 0.20466 0.0
C640 C 0.29313 0.1861 0.43867 0.0
C641 C 0.29536 0.22433 0.44501 0.0
H642 H 0.26475 0.13002 0.4513 0.0
C643 C 0.27371 0.23465 0.4746 0.0
H644 H 0.3086 0.17675 0.41577 0.0
C645 C 0.24785 0.20739 0.49492 0.0
C646 C 0.24349 0.16934 0.48627 0.0
H647 H 0.27519 0.2638 0.48074 0.0
H648 H 0.23007 0.21614 0.51624 0.0
C649 C 0.26764 0.15902 0.45907 0.0
C650 C 0.21159 0.87169 0.94389 0.0
C651 C 0.21017 0.83339 0.94881 0.0
H652 H 0.23927 0.9276 0.95796 0.0
C653 C 0.23244 0.82258 0.97763 0.0
H654 H 0.19562 0.88148 0.92167 0.0
C655 C 0.25825 0.84952 0.99834 0.0
C656 C 0.26187 0.88773 0.99094 0.0
H657 H 0.23155 0.79336 0.98277 0.0
H658 H 0.27663 0.84047 1.01888 0.0
C659 C 0.23699 0.89844 0.96473 0.0
C660 C 0.56849 0.44044 0.69506 0.0
C661 C 0.58748 0.46396 0.72378 0.0
H662 H 0.53854 0.43582 0.64242 0.0
C663 C 0.5901 0.50275 0.71986 0.0
H664 H 0.56621 0.41059 0.69635 0.0
C665 C 0.57457 0.51741 0.68841 0.0
C666 C 0.55557 0.49381 0.65985 0.0
H667 H 0.60374 0.522 0.74142 0.0
H668 H 0.57709 0.54728 0.68675 0.0
C669 C 0.55278 0.45507 0.66376 0.0
C670 C 0.92788 0.58037 0.21978 0.0
C671 C 0.92402 0.61753 0.21659 0.0
H672 H 0.94431 0.53391 0.19308 0.0
C673 C 0.93249 0.63567 0.18175 0.0
H674 H 0.92178 0.56561 0.24621 0.0
C675 C 0.94476 0.6173 0.15104 0.0
C676 C 0.94967 0.58047 0.15451 0.0
H677 H 0.92955 0.66417 0.17819 0.0
H678 H 0.95137 0.63236 0.12483 0.0
C679 C 0.94091 0.56223 0.18929 0.0
C680 C 0.43223 0.15878 0.14068 0.0
C681 C 0.45631 0.17801 0.16895 0.0
H682 H 0.42332 0.11604 0.099 0.0
C683 C 0.49179 0.16843 0.17578 0.0
H684 H 0.40432 0.16463 0.13513 0.0
C685 C 0.50243 0.13974 0.15539 0.0
C686 C 0.47797 0.12031 0.12753 0.0
H687 H 0.51129 0.18292 0.19703 0.0
H688 H 0.52976 0.13282 0.16146 0.0
C689 C 0.443 0.1305 0.12015 0.0
C690 C 0.01534 0.89726 0.68125 0.0
C691 C 0.0511 0.8881 0.67469 0.0
H692 H 0.97695 0.93246 0.66651 0.0
C693 C 0.07568 0.90832 0.64734 0.0
H694 H 0.99555 0.88211 0.70192 0.0
C695 C 0.06492 0.9367 0.62704 0.0
C696 C 0.02941 0.94608 0.63368 0.0
H697 H 0.10387 0.90297 0.64216 0.0
H698 H 0.08491 0.9517 0.60641 0.0
C699 C 0.00465 0.9261 0.66102 0.0
C700 C 0.83787 0.43523 1.00862 0.0
C701 C 0.81837 0.45744 0.987 0.0
H702 H 0.88694 0.43258 1.04237 0.0
C703 C 0.83603 0.49552 0.98245 0.0
H704 H 0.82632 0.40554 1.01187 0.0
C705 C 0.87176 0.51079 0.99928 0.0
C706 C 0.89042 0.48856 1.02162 0.0
H707 H 0.82209 0.51373 0.9664 0.0
H708 H 0.88459 0.54017 0.99517 0.0
C709 C 0.87296 0.45066 1.02611 0.0
C710 C 0.65308 0.62033 0.47759 0.0
C711 C 0.67557 0.59539 0.46608 0.0
H712 H 0.60385 0.62847 0.50771 0.0
C713 C 0.66361 0.55762 0.47663 0.0
H714 H 0.66072 0.64944 0.46936 0.0
C715 C 0.6304 0.54539 0.49863 0.0
C716 C 0.60844 0.57067 0.51062 0.0
H717 H 0.68028 0.53764 0.4685 0.0
H718 H 0.62204 0.51615 0.50632 0.0
C719 C 0.62023 0.60824 0.49962 0.0
C720 C 0.20092 0.39457 0.19191 0.0
C721 C 0.21267 0.36535 0.17313 0.0
H722 H 0.15768 0.42611 0.19816 0.0
C723 C 0.18993 0.34713 0.1434 0.0
H724 H 0.21816 0.40975 0.21436 0.0
C725 C 0.15534 0.35683 0.13389 0.0
C726 C 0.14276 0.38465 0.15417 0.0
H727 H 0.19796 0.3243 0.12859 0.0
H728 H 0.13772 0.34164 0.11168 0.0
C729 C 0.16628 0.40392 0.18271 0.0
C730 C 0.58665 0.17746 0.9665 0.0
C731 C 0.55886 0.1926 0.94763 0.0
H732 H 0.59833 0.1344 1.00211 0.0
C733 C 0.52046 0.17182 0.94778 0.0
H734 H 0.61675 0.19167 0.96609 0.0
C735 C 0.51002 0.13797 0.96791 0.0
C736 C 0.53766 0.12442 0.98866 0.0
H737 H 0.49821 0.1824 0.93367 0.0
H738 H 0.48005 0.12333 0.96861 0.0
C739 C 0.57616 0.14429 0.98704 0.0
C740 C 0.95297 0.89883 0.4408 0.0
C741 C 0.93809 0.86587 0.46118 0.0
H742 H 0.97759 0.95809 0.44364 0.0
C743 C 0.94071 0.86715 0.50062 0.0
H744 H 0.95133 0.89877 0.41042 0.0
C745 C 0.95465 0.90077 0.51938 0.0
C746 C 0.96729 0.93418 0.49936 0.0
H747 H 0.93035 0.84219 0.51723 0.0
H748 H 0.95479 0.90066 0.54983 0.0
C749 C 0.96773 0.93277 0.4598 0.0
C750 C 0.32126 0.72503 0.6437 0.0
C751 C 0.29833 0.70511 0.67243 0.0
H752 H 0.37379 0.73267 0.6122 0.0
C753 C 0.31034 0.67528 0.68978 0.0
H754 H 0.31307 0.7484 0.63003 0.0
C755 C 0.34525 0.66672 0.68 0.0
C756 C 0.36887 0.68753 0.65236 0.0
H757 H 0.29301 0.65885 0.71146 0.0
H758 H 0.35386 0.64383 0.6942 0.0
C759 C 0.35615 0.71622 0.63366 0.0
C760 C 0.70121 0.85736 0.66697 0.0
C761 C 0.71216 0.83472 0.6949 0.0
H762 H 0.71994 0.90127 0.62686 0.0
C763 C 0.75166 0.83668 0.70057 0.0
H764 H 0.67112 0.85626 0.66148 0.0
C765 C 0.7794 0.8621 0.68066 0.0
C766 C 0.7685 0.88651 0.65473 0.0
H767 H 0.76153 0.82053 0.72236 0.0
H768 H 0.80942 0.86433 0.68757 0.0
C769 C 0.72914 0.88312 0.64716 0.0
C770 C 0.79777 0.19419 0.20017 0.0
C771 C 0.79664 0.232 0.1955 0.0
H772 H 0.77296 0.13739 0.18642 0.0
C773 C 0.7718 0.24104 0.16799 0.0
H774 H 0.81607 0.18555 0.22101 0.0
C775 C 0.7457 0.21283 0.14907 0.0
C776 C 0.74443 0.17506 0.15681 0.0
H777 H 0.7708 0.26981 0.16269 0.0
H778 H 0.72492 0.22065 0.13034 0.0
C779 C 0.77229 0.1662 0.18082 0.0
C780 C 0.42248 0.57036 0.40929 0.0
C781 C 0.4171 0.60719 0.40943 0.0
H782 H 0.44154 0.52716 0.43922 0.0
C783 C 0.42729 0.62871 0.44214 0.0
H784 H 0.41526 0.55299 0.38457 0.0
C785 C 0.44189 0.61361 0.47391 0.0
C786 C 0.44739 0.57678 0.47364 0.0
H787 H 0.42332 0.65704 0.44343 0.0
H788 H 0.4493 0.63102 0.49856 0.0
C789 C 0.43765 0.55552 0.44071 0.0
C790 C 0.08146 0.48816 0.91112 0.0
C791 C 0.07694 0.44899 0.9102 0.0
H792 H 0.07247 0.536 0.94173 0.0
C793 C 0.06075 0.42848 0.94195 0.0
H794 H 0.09355 0.50503 0.88724 0.0
C795 C 0.04853 0.4462 0.97302 0.0
C796 C 0.05215 0.48518 0.97367 0.0
H797 H 0.05753 0.39848 0.94297 0.0
H798 H 0.03594 0.42906 0.99657 0.0
C799 C 0.06924 0.50599 0.94241 0.0
C800 C 0.58405 0.90852 0.99917 0.0
C801 C 0.55965 0.88285 0.97588 0.0
H802 H 0.59168 0.9586 1.03142 0.0
C803 C 0.52264 0.88808 0.96774 0.0
H804 H 0.61286 0.90533 1.00545 0.0
C805 C 0.51017 0.91848 0.98305 0.0
C806 C 0.53503 0.94459 1.00572 0.0
H807 H 0.50345 0.86864 0.94965 0.0
H808 H 0.48148 0.9219 0.97665 0.0
C809 C 0.57201 0.93922 1.01365 0.0
C810 C 0.92529 0.15023 0.48538 0.0
C811 C 0.95277 0.17752 0.46657 0.0
H812 H 0.914 0.09972 0.51728 0.0
C813 C 0.9914 0.17462 0.46638 0.0
H814 H 0.89521 0.15144 0.48548 0.0
C815 C 0.00229 0.14492 0.48475 0.0
C816 C 0.97458 0.11728 0.503 0.0
H817 H 0.01312 0.19532 0.45203 0.0
H818 H 0.03226 0.14339 0.48427 0.0
C819 C 0.93602 0.12035 0.5032 0.0
C820 C 0.15655 0.63142 0.13976 0.0
C821 C 0.18172 0.60922 0.15164 0.0
H822 H 0.10391 0.63404 0.11259 0.0
C823 C 0.17065 0.57038 0.14593 0.0
H824 H 0.16362 0.66133 0.14439 0.0
C825 C 0.13581 0.55444 0.12758 0.0
C826 C 0.11137 0.57707 0.11462 0.0
H827 H 0.18937 0.55248 0.15466 0.0
H828 H 0.12828 0.52452 0.12318 0.0
C829 C 0.12212 0.61568 0.12144 0.0
C830 C 0.33979 0.50919 0.65571 0.0
C831 C 0.32265 0.47075 0.65758 0.0
H832 H 0.38662 0.55184 0.63503 0.0
C833 C 0.34058 0.44583 0.63803 0.0
H834 H 0.32683 0.52947 0.66967 0.0
C835 C 0.37411 0.45887 0.61705 0.0
C836 C 0.39139 0.49709 0.61586 0.0
H837 H 0.32934 0.41595 0.63944 0.0
H838 H 0.38726 0.43883 0.60287 0.0
C839 C 0.37394 0.52213 0.63546 0.0
C840 C 0.7942 0.64295 0.9407 0.0
C841 C 0.78425 0.67713 0.94822 0.0
H842 H 0.83733 0.61095 0.94434 0.0
C843 C 0.80994 0.70442 0.96905 0.0
H844 H 0.77477 0.62109 0.92534 0.0
C845 C 0.84577 0.69852 0.98004 0.0
C846 C 0.85663 0.66535 0.97019 0.0
H847 H 0.80334 0.7312 0.97496 0.0
H848 H 0.86571 0.72064 0.99457 0.0
C849 C 0.83005 0.63719 0.95142 0.0
C850 C 0.42041 0.89554 0.17015 0.0
C851 C 0.44695 0.87539 0.18352 0.0
H852 H 0.41105 0.9424 0.13879 0.0
C853 C 0.48632 0.88996 0.17654 0.0
H854 H 0.38991 0.88559 0.17545 0.0
C855 C 0.49856 0.92286 0.15536 0.0
C856 C 0.47177 0.94217 0.14082 0.0
H857 H 0.50756 0.87516 0.18616 0.0
H858 H 0.529 0.93262 0.14964 0.0
C859 C 0.4326 0.92835 0.14916 0.0
C860 C 0.03002 0.18072 0.6687 0.0
C861 C 0.06967 0.19259 0.67569 0.0
H862 H 0.98481 0.1388 0.64418 0.0
C863 C 0.09374 0.16835 0.6665 0.0
H864 H 0.0108 0.19884 0.67522 0.0
C865 C 0.0791 0.13427 0.64855 0.0
C866 C 0.03985 0.12326 0.63932 0.0
H867 H 0.12439 0.17651 0.67187 0.0
H868 H 0.09892 0.11715 0.64076 0.0
C869 C 0.01524 0.1464 0.65066 0.0
C870 C 0.69478 0.39155 0.45112 0.0
C871 C 0.70608 0.36151 0.46881 0.0
H872 H 0.65154 0.42316 0.44544 0.0
C873 C 0.68257 0.34186 0.49732 0.0
H874 H 0.71262 0.40785 0.42969 0.0
C875 C 0.64766 0.35102 0.50664 0.0
C876 C 0.63557 0.37967 0.48731 0.0
H877 H 0.69027 0.3184 0.51129 0.0
H878 H 0.62945 0.33481 0.52789 0.0
C879 C 0.65982 0.40033 0.46008 0.0
loop_
_geom_bond_atom_site_label_1
_geom_bond_atom_site_label_2
_geom_bond_distance
_geom_bond_site_symmetry_2
_ccdc_geom_bond_type
C0 C1 1.391 . S
C0 C4 1.391 . S
C0 H42 0.948 . S
C1 C0 1.391 . S
C1 C2 1.391 . S
C2 C1 1.391 . S
C2 H58 0.947 . S
C2 C59 1.392 . S
C3 C4 1.391 . S
C3 C7 1.397 . S
C3 C59 1.419 . S
C4 C0 1.391 . S
C4 C3 1.391 . S
C4 C5 1.399 . S
C5 C4 1.399 . S
C5 C8 1.396 . S
C5 C17 1.453 . S
C5 C18 1.684 . S
H6 C30 0.948 . S
C7 C3 1.397 . S
C7 C8 1.394 . S
C7 C26 1.723 . S
C8 C5 1.396 . S
C8 C7 1.394 . S
C8 C38 1.723 . S
H9 C32 0.947 . S
H10 C33 0.948 . S
H11 C39 0.982 . S
H12 C40 0.979 . S
H13 C40 0.980 . S
H14 C40 0.983 . S
H15 C39 0.979 . S
H16 C39 0.977 . S
C17 C5 1.453 . S
C17 H46 0.982 . S
C17 H47 0.979 . S
C17 H48 0.977 . S
C18 C5 1.684 . S
C18 H43 0.979 . S
C18 H44 0.980 . S
C18 H45 0.983 . S
C19 C20 1.391 . S
C19 C24 1.391 . S
C19 H49 0.948 . S
C20 C19 1.391 . S
C20 C21 1.391 . S
C21 C20 1.391 . S
C21 C22 1.392 . S
C21 H50 0.947 . S
C22 C21 1.392 . S
C22 C23 1.419 . S
C22 H51 0.948 . S
C23 C22 1.419 . S
C23 C24 1.391 . S
C23 C27 1.397 . S
C24 C19 1.391 . S
C24 C23 1.391 . S
C24 C25 1.399 . S
C25 C24 1.399 . S
C25 C26 1.396 . S
C25 C28 1.453 . S
C25 C29 1.684 . S
C26 C7 1.723 . S
C26 C25 1.396 . S
C26 C27 1.394 . S
C27 C23 1.397 . S
C27 C26 1.394 . S
C27 C37 1.723 . S
C28 C25 1.453 . S
C28 H52 0.982 . S
C28 H53 0.979 . S
C28 H54 0.977 . S
C29 C25 1.684 . S
C29 H55 0.979 . S
C29 H56 0.980 . S
C29 H57 0.983 . S
C30 H6 0.948 . S
C30 C31 1.391 . S
C30 C35 1.391 . S
C31 C30 1.391 . S
C31 C32 1.391 . S
C32 H9 0.947 . S
C32 C31 1.391 . S
C32 C33 1.392 . S
C33 H10 0.948 . S
C33 C32 1.392 . S
C33 C34 1.419 . S
C34 C33 1.419 . S
C34 C35 1.391 . S
C34 C38 1.397 . S
C35 C30 1.391 . S
C35 C34 1.391 . S
C35 C36 1.399 . S
C36 C35 1.399 . S
C36 C37 1.396 . S
C36 C39 1.453 . S
C36 C40 1.684 . S
C37 C27 1.723 . S
C37 C36 1.396 . S
C37 C38 1.394 . S
C38 C8 1.723 . S
C38 C34 1.397 . S
C38 C37 1.394 . S
C39 H11 0.982 . S
C39 H15 0.979 . S
C39 H16 0.977 . S
C39 C36 1.453 . S
C40 H12 0.979 . S
C40 H13 0.980 . S
C40 H14 0.983 . S
C40 C36 1.684 . S
H41 C59 0.948 . S
H42 C0 0.948 . S
H43 C18 0.979 . S
H44 C18 0.980 . S
H45 C18 0.983 . S
H46 C17 0.982 . S
H47 C17 0.979 . S
H48 C17 0.977 . S
H49 C19 0.948 . S
H50 C21 0.947 . S
H51 C22 0.948 . S
H52 C28 0.982 . S
H53 C28 0.979 . S
H54 C28 0.977 . S
H55 C29 0.979 . S
H56 C29 0.980 . S
H57 C29 0.983 . S
H58 C2 0.947 . S
C59 C2 1.392 . S
C59 C3 1.419 . S
C59 H41 0.948 . S
C60 C61 1.391 . S
C60 C64 1.391 . S
C60 H102 0.948 . S
C61 C60 1.391 . S
C61 C62 1.391 . S
C62 C61 1.391 . S
C62 H118 0.947 . S
C62 C119 1.392 . S
C63 C64 1.391 . S
C63 C67 1.397 . S
C63 C119 1.419 . S
C64 C60 1.391 . S
C64 C63 1.391 . S
C64 C65 1.399 . S
C65 C64 1.399 . S
C65 C68 1.396 . S
C65 C77 1.453 . S
C65 C78 1.684 . S
H66 C90 0.948 . S
C67 C63 1.397 . S
C67 C68 1.394 . S
C67 C86 1.723 . S
C68 C65 1.396 . S
C68 C67 1.394 . S
C68 C98 1.723 . S
H69 C92 0.947 . S
H70 C93 0.948 . S
H71 C99 0.982 . S
H72 C100 0.979 . S
H73 C100 0.980 . S
H74 C100 0.983 . S
H75 C99 0.979 . S
H76 C99 0.977 . S
C77 C65 1.453 . S
C77 H106 0.982 . S
C77 H107 0.979 . S
C77 H108 0.977 . S
C78 C65 1.684 . S
C78 H103 0.979 . S
C78 H104 0.980 . S
C78 H105 0.983 . S
C79 C80 1.391 . S
C79 C84 1.391 . S
C79 H109 0.948 . S
C80 C79 1.391 . S
C80 C81 1.391 . S
C81 C80 1.391 . S
C81 C82 1.392 . S
C81 H110 0.947 . S
C82 C81 1.392 . S
C82 C83 1.419 . S
C82 H111 0.948 . S
C83 C82 1.419 . S
C83 C84 1.391 . S
C83 C87 1.397 . S
C84 C79 1.391 . S
C84 C83 1.391 . S
C84 C85 1.399 . S
C85 C84 1.399 . S
C85 C86 1.396 . S
C85 C88 1.453 . S
C85 C89 1.684 . S
C86 C67 1.723 . S
C86 C85 1.396 . S
C86 C87 1.394 . S
C87 C83 1.397 . S
C87 C86 1.394 . S
C87 C97 1.723 . S
C88 C85 1.453 . S
C88 H112 0.982 . S
C88 H113 0.979 . S
C88 H114 0.977 . S
C89 C85 1.684 . S
C89 H115 0.979 . S
C89 H116 0.980 . S
C89 H117 0.983 . S
C90 H66 0.948 . S
C90 C91 1.391 . S
C90 C95 1.391 . S
C91 C90 1.391 . S
C91 C92 1.391 . S
C92 H69 0.947 . S
C92 C91 1.391 . S
C92 C93 1.392 . S
C93 H70 0.948 . S
C93 C92 1.392 . S
C93 C94 1.419 . S
C94 C93 1.419 . S
C94 C95 1.391 . S
C94 C98 1.397 . S
C95 C90 1.391 . S
C95 C94 1.391 . S
C95 C96 1.399 . S
C96 C95 1.399 . S
C96 C97 1.396 . S
C96 C99 1.453 . S
C96 C100 1.684 . S
C97 C87 1.723 . S
C97 C96 1.396 . S
C97 C98 1.394 . S
C98 C68 1.723 . S
C98 C94 1.397 . S
C98 C97 1.394 . S
C99 H71 0.982 . S
C99 H75 0.979 . S
C99 H76 0.977 . S
C99 C96 1.453 . S
C100 H72 0.979 . S
C100 H73 0.980 . S
C100 H74 0.983 . S
C100 C96 1.684 . S
H101 C119 0.948 . S
H102 C60 0.948 . S
H103 C78 0.979 . S
H104 C78 0.980 . S
H105 C78 0.983 . S
H106 C77 0.982 . S
H107 C77 0.979 . S
H108 C77 0.977 . S
H109 C79 0.948 . S
H110 C81 0.947 . S
H111 C82 0.948 . S
H112 C88 0.982 . S
H113 C88 0.979 . S
H114 C88 0.977 . S
H115 C89 0.979 . S
H116 C89 0.980 . S
H117 C89 0.983 . S
H118 C62 0.947 . S
C119 C62 1.392 . S
C119 C63 1.419 . S
C119 H101 0.948 . S
C120 C121 1.391 . S
C120 C124 1.391 . S
C120 H162 0.948 . S
C121 C120 1.391 . S
C121 C122 1.391 . S
C122 C121 1.391 . S
C122 H178 0.947 . S
C122 C179 1.392 . S
C123 C124 1.391 . S
C123 C127 1.397 . S
C123 C179 1.419 . S
C124 C120 1.391 . S
C124 C123 1.391 . S
C124 C125 1.399 . S
C125 C124 1.399 . S
C125 C128 1.396 . S
C125 C137 1.453 . S
C125 C138 1.684 . S
H126 C150 0.948 . S
C127 C123 1.397 . S
C127 C128 1.394 . S
C127 C146 1.723 . S
C128 C125 1.396 . S
C128 C127 1.394 . S
C128 C158 1.723 . S
H129 C152 0.947 . S
H130 C153 0.948 . S
H131 C159 0.982 . S
H132 C160 0.979 . S
H133 C160 0.980 . S
H134 C160 0.983 . S
H135 C159 0.979 . S
H136 C159 0.977 . S
C137 C125 1.453 . S
C137 H166 0.982 . S
C137 H167 0.979 . S
C137 H168 0.977 . S
C138 C125 1.684 . S
C138 H163 0.979 . S
C138 H164 0.980 . S
C138 H165 0.983 . S
C139 C140 1.391 . S
C139 C144 1.391 . S
C139 H169 0.948 . S
C140 C139 1.391 . S
C140 C141 1.391 . S
C141 C140 1.391 . S
C141 C142 1.392 . S
C141 H170 0.947 . S
C142 C141 1.392 . S
C142 C143 1.419 . S
C142 H171 0.948 . S
C143 C142 1.419 . S
C143 C144 1.391 . S
C143 C147 1.397 . S
C144 C139 1.391 . S
C144 C143 1.391 . S
C144 C145 1.399 . S
C145 C144 1.399 . S
C145 C146 1.396 . S
C145 C148 1.453 . S
C145 C149 1.684 . S
C146 C127 1.723 . S
C146 C145 1.396 . S
C146 C147 1.394 . S
C147 C143 1.397 . S
C147 C146 1.394 . S
C147 C157 1.723 . S
C148 C145 1.453 . S
C148 H172 0.982 . S
C148 H173 0.979 . S
C148 H174 0.977 . S
C149 C145 1.684 . S
C149 H175 0.979 . S
C149 H176 0.980 . S
C149 H177 0.983 . S
C150 H126 0.948 . S
C150 C151 1.391 . S
C150 C155 1.391 . S
C151 C150 1.391 . S
C151 C152 1.391 . S
C152 H129 0.947 . S
C152 C151 1.391 . S
C152 C153 1.392 . S
C153 H130 0.948 . S
C153 C152 1.392 . S
C153 C154 1.419 . S
C154 C153 1.419 . S
C154 C155 1.391 . S
C154 C158 1.397 . S
C155 C150 1.391 . S
C155 C154 1.391 . S
C155 C156 1.399 . S
C156 C155 1.399 . S
C156 C157 1.396 . S
C156 C159 1.453 . S
C156 C160 1.684 . S
C157 C147 1.723 . S
C157 C156 1.396 . S
C157 C158 1.394 . S
C158 C128 1.723 . S
C158 C154 1.397 . S
C158 C157 1.394 . S
C159 H131 0.982 . S
C159 H135 0.979 . S
C159 H136 0.977 . S
C159 C156 1.453 . S
C160 H132 0.979 . S
C160 H133 0.980 . S
C160 H134 0.983 . S
C160 C156 1.684 . S
H161 C179 0.948 . S
H162 C120 0.948 . S
H163 C138 0.979 . S
H164 C138 0.980 . S
H165 C138 0.983 . S
H166 C137 0.982 . S
H167 C137 0.979 . S
H168 C137 0.977 . S
H169 C139 0.948 . S
H170 C141 0.947 . S
H171 C142 0.948 . S
H172 C148 0.982 . S
H173 C148 0.979 . S
H174 C148 0.977 . S
H175 C149 0.979 . S
H176 C149 0.980 . S
H177 C149 0.983 . S
H178 C122 0.947 . S
C179 C122 1.392 . S
C179 C123 1.419 . S
C179 H161 0.948 . S
C180 C181 1.391 . S
C180 C184 1.391 . S
C180 H222 0.948 . S
C181 C180 1.391 . S
C181 C182 1.391 . S
C182 C181 1.391 . S
C182 H238 0.947 . S
C182 C239 1.392 . S
C183 C184 1.391 . S
C183 C187 1.397 . S
C183 C239 1.419 . S
C184 C180 1.391 . S
C184 C183 1.391 . S
C184 C185 1.399 . S
C185 C184 1.399 . S
C185 C188 1.396 . S
C185 C197 1.453 . S
C185 C198 1.684 . S
H186 C210 0.948 . S
C187 C183 1.397 . S
C187 C188 1.394 . S
C187 C206 1.723 . S
C188 C185 1.396 . S
C188 C187 1.394 . S
C188 C218 1.723 . S
H189 C212 0.947 . S
H190 C213 0.948 . S
H191 C219 0.982 . S
H192 C220 0.979 . S
H193 C220 0.980 . S
H194 C220 0.983 . S
H195 C219 0.979 . S
H196 C219 0.977 . S
C197 C185 1.453 . S
C197 H226 0.982 . S
C197 H227 0.979 . S
C197 H228 0.977 . S
C198 C185 1.684 . S
C198 H223 0.979 . S
C198 H224 0.980 . S
C198 H225 0.983 . S
C199 C200 1.391 . S
C199 C204 1.391 . S
C199 H229 0.948 . S
C200 C199 1.391 . S
C200 C201 1.391 . S
C201 C200 1.391 . S
C201 C202 1.392 . S
C201 H230 0.947 . S
C202 C201 1.392 . S
C202 C203 1.419 . S
C202 H231 0.948 . S
C203 C202 1.419 . S
C203 C204 1.391 . S
C203 C207 1.397 . S
C204 C199 1.391 . S
C204 C203 1.391 . S
C204 C205 1.399 . S
C205 C204 1.399 . S
C205 C206 1.396 . S
C205 C208 1.453 . S
C205 C209 1.684 . S
C206 C187 1.723 . S
C206 C205 1.396 . S
C206 C207 1.394 . S
C207 C203 1.397 . S
C207 C206 1.394 . S
C207 C217 1.723 . S
C208 C205 1.453 . S
C208 H232 0.982 . S
C208 H233 0.979 . S
C208 H234 0.977 . S
C209 C205 1.684 . S
C209 H235 0.979 . S
C209 H236 0.980 . S
C209 H237 0.983 . S
C210 H186 0.948 . S
C210 C211 1.391 . S
C210 C215 1.391 . S
C211 C210 1.391 . S
C211 C212 1.391 . S
C212 H189 0.947 . S
C212 C211 1.391 . S
C212 C213 1.392 . S
C213 H190 0.948 . S
C213 C212 1.392 . S
C213 C214 1.419 . S
C214 C213 1.419 . S
C214 C215 1.391 . S
C214 C218 1.397 . S
C215 C210 1.391 . S
C215 C214 1.391 . S
C215 C216 1.399 . S
C216 C215 1.399 . S
C216 C217 1.396 . S
C216 C219 1.453 . S
C216 C220 1.684 . S
C217 C207 1.723 . S
C217 C216 1.396 . S
C217 C218 1.394 . S
C218 C188 1.723 . S
C218 C214 1.397 . S
C218 C217 1.394 . S
C219 H191 0.982 . S
C219 H195 0.979 . S
C219 H196 0.977 . S
C219 C216 1.453 . S
C220 H192 0.979 . S
C220 H193 0.980 . S
C220 H194 0.983 . S
C220 C216 1.684 . S
H221 C239 0.948 . S
H222 C180 0.948 . S
H223 C198 0.979 . S
H224 C198 0.980 . S
H225 C198 0.983 . S
H226 C197 0.982 . S
H227 C197 0.979 . S
H228 C197 0.977 . S
H229 C199 0.948 . S
H230 C201 0.947 . S
H231 C202 0.948 . S
H232 C208 0.982 . S
H233 C208 0.979 . S
H234 C208 0.977 . S
H235 C209 0.979 . S
H236 C209 0.980 . S
H237 C209 0.983 . S
H238 C182 0.947 . S
C239 C182 1.392 . S
C239 C183 1.419 . S
C239 H221 0.948 . S
C240 C241 1.391 . S
C240 C244 1.391 . S
C240 H282 0.948 . S
C241 C240 1.391 . S
C241 C242 1.391 . S
C242 C241 1.391 . S
C242 H298 0.947 . S
C242 C299 1.392 . S
C243 C244 1.391 . S
C243 C247 1.397 . S
C243 C299 1.419 . S
C244 C240 1.391 . S
C244 C243 1.391 . S
C244 C245 1.399 . S
C245 C244 1.399 . S
C245 C248 1.396 . S
C245 C257 1.453 . S
C245 C258 1.684 . S
H246 C270 0.948 . S
C247 C243 1.397 . S
C247 C248 1.394 . S
C247 C266 1.723 . S
C248 C245 1.396 . S
C248 C247 1.394 . S
C248 C278 1.723 . S
H249 C272 0.947 . S
H250 C273 0.948 . S
H251 C279 0.982 . S
H252 C280 0.979 . S
H253 C280 0.980 . S
H254 C280 0.983 . S
H255 C279 0.979 . S
H256 C279 0.977 . S
C257 C245 1.453 . S
C257 H286 0.982 . S
C257 H287 0.979 . S
C257 H288 0.977 . S
C258 C245 1.684 . S
C258 H283 0.979 . S
C258 H284 0.980 . S
C258 H285 0.983 . S
C259 C260 1.391 . S
C259 C264 1.391 . S
C259 H289 0.948 . S
C260 C259 1.391 . S
C260 C261 1.391 . S
C261 C260 1.391 . S
C261 C262 1.392 . S
C261 H290 0.947 . S
C262 C261 1.392 . S
C262 C263 1.419 . S
C262 H291 0.948 . S
C263 C262 1.419 . S
C263 C264 1.391 . S
C263 C267 1.397 . S
C264 C259 1.391 . S
C264 C263 1.391 . S
C264 C265 1.399 . S
C265 C264 1.399 . S
C265 C266 1.396 . S
C265 C268 1.453 . S
C265 C269 1.684 . S
C266 C247 1.723 . S
C266 C265 1.396 . S
C266 C267 1.394 . S
C267 C263 1.397 . S
C267 C266 1.394 . S
C267 C277 1.723 . S
C268 C265 1.453 . S
C268 H292 0.982 . S
C268 H293 0.979 . S
C268 H294 0.977 . S
C269 C265 1.684 . S
C269 H295 0.979 . S
C269 H296 0.980 . S
C269 H297 0.983 . S
C270 H246 0.948 . S
C270 C271 1.391 . S
C270 C275 1.391 . S
C271 C270 1.391 . S
C271 C272 1.391 . S
C272 H249 0.947 . S
C272 C271 1.391 . S
C272 C273 1.392 . S
C273 H250 0.948 . S
C273 C272 1.392 . S
C273 C274 1.419 . S
C274 C273 1.419 . S
C274 C275 1.391 . S
C274 C278 1.397 . S
C275 C270 1.391 . S
C275 C274 1.391 . S
C275 C276 1.399 . S
C276 C275 1.399 . S
C276 C277 1.396 . S
C276 C279 1.453 . S
C276 C280 1.684 . S
C277 C267 1.723 . S
C277 C276 1.396 . S
C277 C278 1.394 . S
C278 C248 1.723 . S
C278 C274 1.397 . S
C278 C277 1.394 . S
C279 H251 0.982 . S
C279 H255 0.979 . S
C279 H256 0.977 . S
C279 C276 1.453 . S
C280 H252 0.979 . S
C280 H253 0.980 . S
C280 H254 0.983 . S
C280 C276 1.684 . S
H281 C299 0.948 . S
H282 C240 0.948 . S
H283 C258 0.979 . S
H284 C258 0.980 . S
H285 C258 0.983 . S
H286 C257 0.982 . S
H287 C257 0.979 . S
H288 C257 0.977 . S
H289 C259 0.948 . S
H290 C261 0.947 . S
H291 C262 0.948 . S
H292 C268 0.982 . S
H293 C268 0.979 . S
H294 C268 0.977 . S
H295 C269 0.979 . S
H296 C269 0.980 . S
H297 C269 0.983 . S
H298 C242 0.947 . S
C299 C242 1.392 . S
C299 C243 1.419 . S
C299 H281 0.948 . S
C300 C301 1.391 . S
C300 C304 1.391 . S
C300 H342 0.948 . S
C301 C300 1.391 . S
C301 C302 1.391 . S
C302 C301 1.391 . S
C302 H358 0.947 . S
C302 C359 1.392 . S
C303 C304 1.391 . S
C303 C307 1.397 . S
C303 C359 1.419 . S
C304 C300 1.391 . S
C304 C303 1.391 . S
C304 C305 1.399 . S
C305 C304 1.399 . S
C305 C308 1.396 . S
C305 C317 1.453 . S
C305 C318 1.684 . S
H306 C330 0.948 . S
C307 C303 1.397 . S
C307 C308 1.394 . S
C307 C326 1.723 . S
C308 C305 1.396 . S
C308 C307 1.394 . S
C308 C338 1.723 . S
H309 C332 0.947 . S
H310 C333 0.948 . S
H311 C339 0.982 . S
H312 C340 0.979 . S
H313 C340 0.980 . S
H314 C340 0.983 . S
H315 C339 0.979 . S
H316 C339 0.977 . S
C317 C305 1.453 . S
C317 H346 0.982 . S
C317 H347 0.979 . S
C317 H348 0.977 . S
C318 C305 1.684 . S
C318 H343 0.979 . S
C318 H344 0.980 . S
C318 H345 0.983 . S
C319 C320 1.391 . S
C319 C324 1.391 . S
C319 H349 0.948 . S
C320 C319 1.391 . S
C320 C321 1.391 . S
C321 C320 1.391 . S
C321 C322 1.392 . S
C321 H350 0.947 . S
C322 C321 1.392 . S
C322 C323 1.419 . S
C322 H351 0.948 . S
C323 C322 1.419 . S
C323 C324 1.391 . S
C323 C327 1.397 . S
C324 C319 1.391 . S
C324 C323 1.391 . S
C324 C325 1.399 . S
C325 C324 1.399 . S
C325 C326 1.396 . S
C325 C328 1.453 . S
C325 C329 1.684 . S
C326 C307 1.723 . S
C326 C325 1.396 . S
C326 C327 1.394 . S
C327 C323 1.397 . S
C327 C326 1.394 . S
C327 C337 1.723 . S
C328 C325 1.453 . S
C328 H352 0.982 . S
C328 H353 0.979 . S
C328 H354 0.977 . S
C329 C325 1.684 . S
C329 H355 0.979 . S
C329 H356 0.980 . S
C329 H357 0.983 . S
C330 H306 0.948 . S
C330 C331 1.391 . S
C330 C335 1.391 . S
C331 C330 1.391 . S
C331 C332 1.391 . S
C332 H309 0.947 . S
C332 C331 1.391 . S
C332 C333 1.392 . S
C333 H310 0.948 . S
C333 C332 1.392 . S
C333 C334 1.419 . S
C334 C333 1.419 . S
C334 C335 1.391 . S
C334 C338 1.397 . S
C335 C330 1.391 . S
C335 C334 1.391 . S
C335 C336 1.399 . S
C336 C335 1.399 . S
C336 C337 1.396 . S
C336 C339 1.453 . S
C336 C340 1.684 . S
C337 C327 1.723 . S
C337 C336 1.396 . S
C337 C338 1.394 . S
C338 C308 1.723 . S
C338 C334 1.397 . S
C338 C337 1.394 . S
C339 H311 0.982 . S
C339 H315 0.979 . S
C339 H316 0.977 . S
C339 C336 1.453 . S
C340 H312 0.979 . S
C340 H313 0.980 . S
C340 H314 0.983 . S
C340 C336 1.684 . S
H341 C359 0.948 . S
H342 C300 0.948 . S
H343 C318 0.979 . S
H344 C318 0.980 . S
H345 C318 0.983 . S
H346 C317 0.982 . S
H347 C317 0.979 . S
H348 C317 0.977 . S
H349 C319 0.948 . S
H350 C321 0.947 . S
H351 C322 0.948 . S
H352 C328 0.982 . S
H353 C328 0.979 . S
H354 C328 0.977 . S
H355 C329 0.979 . S
H356 C329 0.980 . S
H357 C329 0.983 . S
H358 C302 0.947 . S
C359 C302 1.392 . S
C359 C303 1.419 . S
C359 H341 0.948 . S
C360 C361 1.391 . S
C360 C364 1.391 . S
C360 H402 0.948 . S
C361 C360 1.391 . S
C361 C362 1.391 . S
C362 C361 1.391 . S
C362 H418 0.947 . S
C362 C419 1.392 . S
C363 C364 1.391 . S
C363 C367 1.397 . S
C363 C419 1.419 . S
C364 C360 1.391 . S
C364 C363 1.391 . S
C364 C365 1.399 . S
C365 C364 1.399 . S
C365 C368 1.396 . S
C365 C377 1.453 . S
C365 C378 1.684 . S
H366 C390 0.948 . S
C367 C363 1.397 . S
C367 C368 1.394 . S
C367 C386 1.723 . S
C368 C365 1.396 . S
C368 C367 1.394 . S
C368 C398 1.723 . S
H369 C392 0.947 . S
H370 C393 0.948 . S
H371 C399 0.982 . S
H372 C400 0.979 . S
H373 C400 0.980 . S
H374 C400 0.983 . S
H375 C399 0.979 . S
H376 C399 0.977 . S
C377 C365 1.453 . S
C377 H406 0.982 . S
C377 H407 0.979 . S
C377 H408 0.977 . S
C378 C365 1.684 . S
C378 H403 0.979 . S
C378 H404 0.980 . S
C378 H405 0.983 . S
C379 C380 1.391 . S
C379 C384 1.391 . S
C379 H409 0.948 . S
C380 C379 1.391 . S
C380 C381 1.391 . S
C381 C380 1.391 . S
C381 C382 1.392 . S
C381 H410 0.947 . S
C382 C381 1.392 . S
C382 C383 1.419 . S
C382 H411 0.948 . S
C383 C382 1.419 . S
C383 C384 1.391 . S
C383 C387 1.397 . S
C384 C379 1.391 . S
C384 C383 1.391 . S
C384 C385 1.399 . S
C385 C384 1.399 . S
C385 C386 1.396 . S
C385 C388 1.453 . S
C385 C389 1.684 . S
C386 C367 1.723 . S
C386 C385 1.396 . S
C386 C387 1.394 . S
C387 C383 1.397 . S
C387 C386 1.394 . S
C387 C397 1.723 . S
C388 C385 1.453 . S
C388 H412 0.982 . S
C388 H413 0.979 . S
C388 H414 0.977 . S
C389 C385 1.684 . S
C389 H415 0.979 . S
C389 H416 0.980 . S
C389 H417 0.983 . S
C390 H366 0.948 . S
C390 C391 1.391 . S
C390 C395 1.391 . S
C391 C390 1.391 . S
C391 C392 1.391 . S
C392 H369 0.947 . S
C392 C391 1.391 . S
C392 C393 1.392 . S
C393 H370 0.948 . S
C393 C392 1.392 . S
C393 C394 1.419 . S
C394 C393 1.419 . S
C394 C395 1.391 . S
C394 C398 1.397 . S
C395 C390 1.391 . S
C395 C394 1.391 . S
C395 C396 1.399 . S
C396 C395 1.399 . S
C396 C397 1.396 . S
C396 C399 1.453 . S
C396 C400 1.684 . S
C397 C387 1.723 . S
C397 C396 1.396 . S
C397 C398 1.394 . S
C398 C368 1.723 . S
C398 C394 1.397 . S
C398 C397 1.394 . S
C399 H371 0.982 . S
C399 H375 0.979 . S
C399 H376 0.977 . S
C399 C396 1.453 . S
C400 H372 0.979 . S
C400 H373 0.980 . S
C400 H374 0.983 . S
C400 C396 1.684 . S
H401 C419 0.948 . S
H402 C360 0.948 . S
H403 C378 0.979 . S
H404 C378 0.980 . S
H405 C378 0.983 . S
H406 C377 0.982 . S
H407 C377 0.979 . S
H408 C377 0.977 . S
H409 C379 0.948 . S
H410 C381 0.947 . S
H411 C382 0.948 . S
H412 C388 0.982 . S
H413 C388 0.979 . S
H414 C388 0.977 . S
H415 C389 0.979 . S
H416 C389 0.980 . S
H417 C389 0.983 . S
H418 C362 0.947 . S
C419 C362 1.392 . S
C419 C363 1.419 . S
C419 H401 0.948 . S
C420 C421 1.391 . S
C420 C424 1.391 . S
C420 H462 0.948 . S
C421 C420 1.391 . S
C421 C422 1.391 . S
C422 C421 1.391 . S
C422 H478 0.947 . S
C422 C479 1.392 . S
C423 C424 1.391 . S
C423 C427 1.397 . S
C423 C479 1.419 . S
C424 C420 1.391 . S
C424 C423 1.391 . S
C424 C425 1.399 . S
C425 C424 1.399 . S
C425 C428 1.396 . S
C425 C437 1.453 . S
C425 C438 1.684 . S
H426 C450 0.948 . S
C427 C423 1.397 . S
C427 C428 1.394 . S
C427 C446 1.723 . S
C428 C425 1.396 . S
C428 C427 1.394 . S
C428 C458 1.723 . S
H429 C452 0.947 . S
H430 C453 0.948 . S
H431 C459 0.982 . S
H432 C460 0.979 . S
H433 C460 0.980 . S
H434 C460 0.983 . S
H435 C459 0.979 . S
H436 C459 0.977 . S
C437 C425 1.453 . S
C437 H466 0.982 . S
C437 H467 0.979 . S
C437 H468 0.977 . S
C438 C425 1.684 . S
C438 H463 0.979 . S
C438 H464 0.980 . S
C438 H465 0.983 . S
C439 C440 1.391 . S
C439 C444 1.391 . S
C439 H469 0.948 . S
C440 C439 1.391 . S
C440 C441 1.391 . S
C441 C440 1.391 . S
C441 C442 1.392 . S
C441 H470 0.947 . S
C442 C441 1.392 . S
C442 C443 1.419 . S
C442 H471 0.948 . S
C443 C442 1.419 . S
C443 C444 1.391 . S
C443 C447 1.397 . S
C444 C439 1.391 . S
C444 C443 1.391 . S
C444 C445 1.399 . S
C445 C444 1.399 . S
C445 C446 1.396 . S
C445 C448 1.453 . S
C445 C449 1.684 . S
C446 C427 1.723 . S
C446 C445 1.396 . S
C446 C447 1.394 . S
C447 C443 1.397 . S
C447 C446 1.394 . S
C447 C457 1.723 . S
C448 C445 1.453 . S
C448 H472 0.982 . S
C448 H473 0.979 . S
C448 H474 0.977 . S
C449 C445 1.684 . S
C449 H475 0.979 . S
C449 H476 0.980 . S
C449 H477 0.983 . S
C450 H426 0.948 . S
C450 C451 1.391 . S
C450 C455 1.391 . S
C451 C450 1.391 . S
C451 C452 1.391 . S
C452 H429 0.947 . S
C452 C451 1.391 . S
C452 C453 1.392 . S
C453 H430 0.948 . S
C453 C452 1.392 . S
C453 C454 1.419 . S
C454 C453 1.419 . S
C454 C455 1.391 . S
C454 C458 1.397 . S
C455 C450 1.391 . S
C455 C454 1.391 . S
C455 C456 1.399 . S
C456 C455 1.399 . S
C456 C457 1.396 . S
C456 C459 1.453 . S
C456 C460 1.684 . S
C457 C447 1.723 . S
C457 C456 1.396 . S
C457 C458 1.394 . S
C458 C428 1.723 . S
C458 C454 1.397 . S
C458 C457 1.394 . S
C459 H431 0.982 . S
C459 H435 0.979 . S
C459 H436 0.977 . S
C459 C456 1.453 . S
C460 H432 0.979 . S
C460 H433 0.980 . S
C460 H434 0.983 . S
C460 C456 1.684 . S
H461 C479 0.948 . S
H462 C420 0.948 . S
H463 C438 0.979 . S
H464 C438 0.980 . S
H465 C438 0.983 . S
H466 C437 0.982 . S
H467 C437 0.979 . S
H468 C437 0.977 . S
H469 C439 0.948 . S
H470 C441 0.947 . S
H471 C442 0.948 . S
H472 C448 0.982 . S
H473 C448 0.979 . S
H474 C448 0.977 . S
H475 C449 0.979 . S
H476 C449 0.980 . S
H477 C449 0.983 . S
H478 C422 0.947 . S
C479 C422 1.392 . S
C479 C423 1.419 . S
C479 H461 0.948 . S
Dy480 O483 2.307 1_545 S
Dy480 O485 2.395 . S
Dy480 O486 2.379 . S
Dy480 O488 2.339 1_545 S
Dy480 O490 2.284 1_455 S
Dy480 O494 2.275 . S
Dy480 C502 2.738 . S
Dy481 O484 2.276 1_655 S
Dy481 O487 2.275 . S
Dy481 O489 2.307 1_565 S
Dy481 O491 2.395 . S
Dy481 O492 2.379 . S
Dy481 O495 2.339 1_565 S
Dy481 C511 2.738 . S
C482 O494 1.254 . S
C482 O495 1.257 1_455 S
O483 Dy480 2.307 1_565 S
O483 C493 1.266 . S
O484 Dy481 2.276 1_455 S
O484 C493 1.259 . S
O485 Dy480 2.395 . S
O485 C502 1.255 . S
O486 Dy480 2.379 . S
O486 C502 1.249 . S
O487 Dy481 2.275 . S
O487 C503 1.254 . S
O488 Dy480 2.339 1_565 S
O488 C503 1.257 1_455 S
O489 Dy481 2.307 1_545 S
O489 C504 1.266 . S
O490 Dy480 2.284 1_655 S
O490 C504 1.251 . S
O491 Dy481 2.395 . S
O491 C511 1.255 . S
O492 Dy481 2.379 . S
O492 C511 1.249 . S
C493 O483 1.266 . S
C493 O484 1.259 . S
O494 Dy480 2.275 . S
O494 C482 1.254 . S
O495 Dy481 2.339 1_545 S
O495 C482 1.257 1_655 S
C496 C499 1.344 . S
C496 C500 1.328 . S
C496 C502 1.516 . S
C497 C498 1.304 . S
C497 C501 1.323 . S
C498 C497 1.304 . S
C498 C499 1.371 . S
C498 H512 0.930 . S
C499 C496 1.344 . S
C499 C498 1.371 . S
C499 H513 0.931 . S
C500 C496 1.328 . S
C500 C501 1.433 . S
C500 H514 0.931 . S
C501 C497 1.323 . S
C501 C500 1.433 . S
C501 H515 0.933 . S
C502 Dy480 2.738 . S
C502 O485 1.255 . S
C502 O486 1.249 . S
C502 C496 1.516 . S
C503 O487 1.254 . S
C503 O488 1.257 1_655 S
C504 O489 1.266 . S
C504 O490 1.251 . S
C505 C508 1.344 . S
C505 C509 1.328 . S
C505 C511 1.516 . S
C506 C507 1.304 . S
C506 C510 1.323 . S
C507 C506 1.304 . S
C507 C508 1.371 . S
C507 H516 0.930 . S
C508 C505 1.344 . S
C508 C507 1.371 . S
C508 H517 0.931 . S
C509 C505 1.328 . S
C509 C510 1.433 . S
C509 H518 0.931 . S
C510 C506 1.323 . S
C510 C509 1.433 . S
C510 H519 0.933 . S
C511 Dy481 2.738 . S
C511 O491 1.255 . S
C511 O492 1.249 . S
C511 C505 1.516 . S
H512 C498 0.930 . S
H513 C499 0.931 . S
H514 C500 0.931 . S
H515 C501 0.933 . S
H516 C507 0.930 . S
H517 C508 0.931 . S
H518 C509 0.931 . S
H519 C510 0.933 . S
Dy520 O523 2.307 1_566 S
Dy520 O525 2.395 . S
Dy520 O526 2.379 . S
Dy520 O528 2.339 1_565 S
Dy520 O530 2.298 . S
Dy520 O534 2.275 1_556 S
Dy520 C542 2.738 . S
Dy521 O524 2.298 . S
Dy521 O527 2.275 1_554 S
Dy521 O529 2.307 1_544 S
Dy521 O531 2.395 . S
Dy521 O532 2.379 . S
Dy521 O535 2.339 1_545 S
Dy521 C551 2.738 . S
C522 O534 1.254 . S
C522 O535 1.257 . S
O523 Dy520 2.307 1_544 S
O523 C533 1.266 . S
O524 Dy521 2.298 . S
O524 C533 1.236 . S
O525 Dy520 2.395 . S
O525 C542 1.255 . S
O526 Dy520 2.379 . S
O526 C542 1.249 . S
O527 Dy521 2.275 1_556 S
O527 C543 1.254 . S
O528 Dy520 2.339 1_545 S
O528 C543 1.257 . S
O529 Dy521 2.307 1_566 S
O529 C544 1.266 . S
O530 Dy520 2.298 . S
O530 C544 1.236 . S
O531 Dy521 2.395 . S
O531 C551 1.255 . S
O532 Dy521 2.379 . S
O532 C551 1.249 . S
C533 O523 1.266 . S
C533 O524 1.236 . S
O534 Dy520 2.275 1_554 S
O534 C522 1.254 . S
O535 Dy521 2.339 1_565 S
O535 C522 1.257 . S
C536 C539 1.344 . S
C536 C540 1.328 . S
C536 C542 1.516 . S
C537 C538 1.304 . S
C537 C541 1.323 . S
C538 C537 1.304 . S
C538 C539 1.371 . S
C538 H552 0.930 . S
C539 C536 1.344 . S
C539 C538 1.371 . S
C539 H553 0.931 . S
C540 C536 1.328 . S
C540 C541 1.433 . S
C540 H554 0.931 . S
C541 C537 1.323 . S
C541 C540 1.433 . S
C541 H555 0.933 . S
C542 Dy520 2.738 . S
C542 O525 1.255 . S
C542 O526 1.249 . S
C542 C536 1.516 . S
C543 O527 1.254 . S
C543 O528 1.257 . S
C544 O529 1.266 . S
C544 O530 1.236 . S
C545 C548 1.344 . S
C545 C549 1.328 . S
C545 C551 1.516 . S
C546 C547 1.304 . S
C546 C550 1.323 . S
C547 C546 1.304 . S
C547 C548 1.371 . S
C547 H556 0.930 . S
C548 C545 1.344 . S
C548 C547 1.371 . S
C548 H557 0.931 . S
C549 C545 1.328 . S
C549 C550 1.433 . S
C549 H558 0.931 . S
C550 C546 1.323 . S
C550 C549 1.433 . S
C550 H559 0.933 . S
C551 Dy521 2.738 . S
C551 O531 1.255 . S
C551 O532 1.249 . S
C551 C545 1.516 . S
H552 C538 0.930 . S
H553 C539 0.931 . S
H554 C540 0.931 . S
H555 C541 0.933 . S
H556 C547 0.930 . S
H557 C548 0.931 . S
H558 C549 0.931 . S
H559 C550 0.933 . S
Dy560 O563 2.307 . S
Dy560 O565 2.395 . S
Dy560 O566 2.379 . S
Dy560 O568 2.339 . S
Dy560 O570 2.298 . S
Dy560 O574 2.275 . S
Dy560 C582 2.738 . S
Dy561 O564 2.298 . S
Dy561 O567 2.275 . S
Dy561 O569 2.307 . S
Dy561 O571 2.395 . S
Dy561 O572 2.379 . S
Dy561 O575 2.339 . S
Dy561 C591 2.738 . S
C562 O574 1.254 . S
C562 O575 1.257 . S
O563 Dy560 2.307 . S
O563 C573 1.266 . S
O564 Dy561 2.298 . S
O564 C573 1.236 . S
O565 Dy560 2.395 . S
O565 C582 1.255 . S
O566 Dy560 2.379 . S
O566 C582 1.249 . S
O567 Dy561 2.275 . S
O567 C583 1.254 . S
O568 Dy560 2.339 . S
O568 C583 1.257 . S
O569 Dy561 2.307 . S
O569 C584 1.266 . S
O570 Dy560 2.298 . S
O570 C584 1.236 . S
O571 Dy561 2.395 . S
O571 C591 1.255 . S
O572 Dy561 2.379 . S
O572 C591 1.249 . S
C573 O563 1.266 . S
C573 O564 1.236 . S
O574 Dy560 2.275 . S
O574 C562 1.254 . S
O575 Dy561 2.339 . S
O575 C562 1.257 . S
C576 C579 1.344 . S
C576 C580 1.328 . S
C576 C582 1.516 . S
C577 C578 1.304 . S
C577 C581 1.323 . S
C578 C577 1.304 . S
C578 C579 1.371 . S
C578 H592 0.930 . S
C579 C576 1.344 . S
C579 C578 1.371 . S
C579 H593 0.931 . S
C580 C576 1.328 . S
C580 C581 1.433 . S
C580 H594 0.931 . S
C581 C577 1.323 . S
C581 C580 1.433 . S
C581 H595 0.933 . S
C582 Dy560 2.738 . S
C582 O565 1.255 . S
C582 O566 1.249 . S
C582 C576 1.516 . S
C583 O567 1.254 . S
C583 O568 1.257 . S
C584 O569 1.266 . S
C584 O570 1.236 . S
C585 C588 1.344 . S
C585 C589 1.328 . S
C585 C591 1.516 . S
C586 C587 1.304 . S
C586 C590 1.323 . S
C587 C586 1.304 . S
C587 C588 1.371 . S
C587 H596 0.930 . S
C588 C585 1.344 . S
C588 C587 1.371 . S
C588 H597 0.931 . S
C589 C585 1.328 . S
C589 C590 1.433 . S
C589 H598 0.931 . S
C590 C586 1.323 . S
C590 C589 1.433 . S
C590 H599 0.933 . S
C591 Dy561 2.738 . S
C591 O571 1.255 . S
C591 O572 1.249 . S
C591 C585 1.516 . S
H592 C578 0.930 . S
H593 C579 0.931 . S
H594 C580 0.931 . S
H595 C581 0.933 . S
H596 C587 0.930 . S
H597 C588 0.931 . S
H598 C589 0.931 . S
H599 C590 0.933 . S
Dy600 O603 2.308 1_656 S
Dy600 O605 2.395 . S
Dy600 O606 2.379 . S
Dy600 O608 2.339 1_655 S
Dy600 O610 2.298 . S
Dy600 O614 2.275 1_556 S
Dy600 C622 2.738 . S
Dy601 O604 2.298 . S
Dy601 O607 2.275 1_554 S
Dy601 O609 2.309 1_455 S
Dy601 O611 2.395 . S
Dy601 O612 2.379 . S
Dy601 O615 2.339 1_455 S
Dy601 C631 2.738 . S
C602 O614 1.254 . S
C602 O615 1.257 . S
O603 Dy600 2.308 1_454 S
O603 C613 1.264 . S
O604 Dy601 2.298 . S
O604 C613 1.236 . S
O605 Dy600 2.395 . S
O605 C622 1.255 . S
O606 Dy600 2.379 . S
O606 C622 1.249 . S
O607 Dy601 2.275 1_556 S
O607 C623 1.254 . S
O608 Dy600 2.339 1_455 S
O608 C623 1.257 . S
O609 Dy601 2.309 1_655 S
O609 C624 1.263 1_554 S
O610 Dy600 2.298 . S
O610 C624 1.236 . S
O611 Dy601 2.395 . S
O611 C631 1.255 . S
O612 Dy601 2.379 . S
O612 C631 1.249 . S
C613 O603 1.264 . S
C613 O604 1.236 . S
O614 Dy600 2.275 1_554 S
O614 C602 1.254 . S
O615 Dy601 2.339 1_655 S
O615 C602 1.257 . S
C616 C619 1.344 . S
C616 C620 1.328 . S
C616 C622 1.516 . S
C617 C618 1.304 . S
C617 C621 1.323 . S
C618 C617 1.304 . S
C618 C619 1.371 . S
C618 H632 0.930 . S
C619 C616 1.344 . S
C619 C618 1.371 . S
C619 H633 0.931 . S
C620 C616 1.328 . S
C620 C621 1.433 . S
C620 H634 0.931 . S
C621 C617 1.323 . S
C621 C620 1.433 . S
C621 H635 0.933 . S
C622 Dy600 2.738 . S
C622 O605 1.255 . S
C622 O606 1.249 . S
C622 C616 1.516 . S
C623 O607 1.254 . S
C623 O608 1.257 . S
C624 O609 1.263 1_556 S
C624 O610 1.236 . S
C625 C628 1.344 . S
C625 C629 1.328 . S
C625 C631 1.516 . S
C626 C627 1.304 . S
C626 C630 1.323 . S
C627 C626 1.304 . S
C627 C628 1.371 . S
C627 H636 0.930 . S
C628 C625 1.344 . S
C628 C627 1.371 . S
C628 H637 0.931 . S
C629 C625 1.328 . S
C629 C630 1.433 . S
C629 H638 0.931 . S
C630 C626 1.323 . S
C630 C629 1.433 . S
C630 H639 0.933 . S
C631 Dy601 2.738 . S
C631 O611 1.255 . S
C631 O612 1.249 . S
C631 C625 1.516 . S
H632 C618 0.930 . S
H633 C619 0.931 . S
H634 C620 0.931 . S
H635 C621 0.933 . S
H636 C627 0.930 . S
H637 C628 0.931 . S
H638 C629 0.931 . S
H639 C630 0.933 . S
C640 C641 1.387 . S
C640 H644 0.950 . S
C640 C649 1.390 . S
C641 C640 1.387 . S
C641 C643 1.387 . S
H642 C649 0.950 . S
C643 C641 1.387 . S
C643 C645 1.390 . S
C643 H647 0.950 . S
H644 C640 0.950 . S
C645 C643 1.390 . S
C645 C646 1.387 . S
C645 H648 0.950 . S
C646 C645 1.387 . S
C646 C649 1.387 . S
H647 C643 0.950 . S
H648 C645 0.950 . S
C649 C640 1.390 . S
C649 H642 0.950 . S
C649 C646 1.387 . S
C650 C651 1.387 . S
C650 H654 0.950 . S
C650 C659 1.390 . S
C651 C650 1.387 . S
C651 C653 1.387 . S
H652 C659 0.950 . S
C653 C651 1.387 . S
C653 C655 1.390 . S
C653 H657 0.950 . S
H654 C650 0.950 . S
C655 C653 1.390 . S
C655 C656 1.387 . S
C655 H658 0.950 . S
C656 C655 1.387 . S
C656 C659 1.387 . S
H657 C653 0.950 . S
H658 C655 0.950 . S
C659 C650 1.390 . S
C659 H652 0.950 . S
C659 C656 1.387 . S
C660 C661 1.387 . S
C660 H664 0.950 . S
C660 C669 1.390 . S
C661 C660 1.387 . S
C661 C663 1.387 . S
H662 C669 0.950 . S
C663 C661 1.387 . S
C663 C665 1.390 . S
C663 H667 0.950 . S
H664 C660 0.950 . S
C665 C663 1.390 . S
C665 C666 1.387 . S
C665 H668 0.950 . S
C666 C665 1.387 . S
C666 C669 1.387 . S
H667 C663 0.950 . S
H668 C665 0.950 . S
C669 C660 1.390 . S
C669 H662 0.950 . S
C669 C666 1.387 . S
C670 C671 1.387 . S
C670 H674 0.950 . S
C670 C679 1.390 . S
C671 C670 1.387 . S
C671 C673 1.387 . S
H672 C679 0.950 . S
C673 C671 1.387 . S
C673 C675 1.390 . S
C673 H677 0.950 . S
H674 C670 0.950 . S
C675 C673 1.390 . S
C675 C676 1.387 . S
C675 H678 0.950 . S
C676 C675 1.387 . S
C676 C679 1.387 . S
H677 C673 0.950 . S
H678 C675 0.950 . S
C679 C670 1.390 . S
C679 H672 0.950 . S
C679 C676 1.387 . S
C680 C681 1.387 . S
C680 H684 0.950 . S
C680 C689 1.390 . S
C681 C680 1.387 . S
C681 C683 1.387 . S
H682 C689 0.950 . S
C683 C681 1.387 . S
C683 C685 1.390 . S
C683 H687 0.950 . S
H684 C680 0.950 . S
C685 C683 1.390 . S
C685 C686 1.387 . S
C685 H688 0.950 . S
C686 C685 1.387 . S
C686 C689 1.387 . S
H687 C683 0.950 . S
H688 C685 0.950 . S
C689 C680 1.390 . S
C689 H682 0.950 . S
C689 C686 1.387 . S
C690 C691 1.387 1_655 S
C690 H694 0.950 . S
C690 C699 1.390 . S
C691 C690 1.387 1_455 S
C691 C693 1.387 . S
H692 C699 0.950 . S
C693 C691 1.387 . S
C693 C695 1.390 . S
C693 H697 0.950 . S
H694 C690 0.950 . S
C695 C693 1.390 . S
C695 C696 1.387 . S
C695 H698 0.950 . S
C696 C695 1.387 . S
C696 C699 1.387 1_455 S
H697 C693 0.950 . S
H698 C695 0.950 . S
C699 C690 1.390 . S
C699 H692 0.950 . S
C699 C696 1.387 1_655 S
C700 C701 1.387 . S
C700 H704 0.950 . S
C700 C709 1.390 . S
C701 C700 1.387 . S
C701 C703 1.387 . S
H702 C709 0.950 . S
C703 C701 1.387 . S
C703 C705 1.390 . S
C703 H707 0.950 . S
H704 C700 0.950 . S
C705 C703 1.390 . S
C705 C706 1.387 . S
C705 H708 0.950 . S
C706 C705 1.387 . S
C706 C709 1.387 . S
H707 C703 0.950 . S
H708 C705 0.950 . S
C709 C700 1.390 . S
C709 H702 0.950 . S
C709 C706 1.387 . S
C710 C711 1.387 . S
C710 H714 0.950 . S
C710 C719 1.390 . S
C711 C710 1.387 . S
C711 C713 1.387 . S
H712 C719 0.950 . S
C713 C711 1.387 . S
C713 C715 1.390 . S
C713 H717 0.950 . S
H714 C710 0.950 . S
C715 C713 1.390 . S
C715 C716 1.387 . S
C715 H718 0.950 . S
C716 C715 1.387 . S
C716 C719 1.387 . S
H717 C713 0.950 . S
H718 C715 0.950 . S
C719 C710 1.390 . S
C719 H712 0.950 . S
C719 C716 1.387 . S
C720 C721 1.387 . S
C720 H724 0.950 . S
C720 C729 1.390 . S
C721 C720 1.387 . S
C721 C723 1.387 . S
H722 C729 0.950 . S
C723 C721 1.387 . S
C723 C725 1.390 . S
C723 H727 0.950 . S
H724 C720 0.950 . S
C725 C723 1.390 . S
C725 C726 1.387 . S
C725 H728 0.950 . S
C726 C725 1.387 . S
C726 C729 1.387 . S
H727 C723 0.950 . S
H728 C725 0.950 . S
C729 C720 1.390 . S
C729 H722 0.950 . S
C729 C726 1.387 . S
C730 C731 1.387 . S
C730 H734 0.950 . S
C730 C739 1.390 . S
C731 C730 1.387 . S
C731 C733 1.387 . S
H732 C739 0.950 . S
C733 C731 1.387 . S
C733 C735 1.390 . S
C733 H737 0.950 . S
H734 C730 0.950 . S
C735 C733 1.390 . S
C735 C736 1.387 . S
C735 H738 0.950 . S
C736 C735 1.387 . S
C736 C739 1.387 . S
H737 C733 0.950 . S
H738 C735 0.950 . S
C739 C730 1.390 . S
C739 H732 0.950 . S
C739 C736 1.387 . S
C740 C741 1.387 . S
C740 H744 0.950 . S
C740 C749 1.390 . S
C741 C740 1.387 . S
C741 C743 1.387 . S
H742 C749 0.950 . S
C743 C741 1.387 . S
C743 C745 1.390 . S
C743 H747 0.950 . S
H744 C740 0.950 . S
C745 C743 1.390 . S
C745 C746 1.387 . S
C745 H748 0.950 . S
C746 C745 1.387 . S
C746 C749 1.387 . S
H747 C743 0.950 . S
H748 C745 0.950 . S
C749 C740 1.390 . S
C749 H742 0.950 . S
C749 C746 1.387 . S
C750 C751 1.387 . S
C750 H754 0.950 . S
C750 C759 1.390 . S
C751 C750 1.387 . S
C751 C753 1.387 . S
H752 C759 0.950 . S
C753 C751 1.387 . S
C753 C755 1.390 . S
C753 H757 0.950 . S
H754 C750 0.950 . S
C755 C753 1.390 . S
C755 C756 1.387 . S
C755 H758 0.950 . S
C756 C755 1.387 . S
C756 C759 1.387 . S
H757 C753 0.950 . S
H758 C755 0.950 . S
C759 C750 1.390 . S
C759 H752 0.950 . S
C759 C756 1.387 . S
C760 C761 1.387 . S
C760 H764 0.950 . S
C760 C769 1.390 . S
C761 C760 1.387 . S
C761 C763 1.387 . S
H762 C769 0.950 . S
C763 C761 1.387 . S
C763 C765 1.390 . S
C763 H767 0.950 . S
H764 C760 0.950 . S
C765 C763 1.390 . S
C765 C766 1.387 . S
C765 H768 0.950 . S
C766 C765 1.387 . S
C766 C769 1.387 . S
H767 C763 0.950 . S
H768 C765 0.950 . S
C769 C760 1.390 . S
C769 H762 0.950 . S
C769 C766 1.387 . S
C770 C771 1.387 . S
C770 H774 0.950 . S
C770 C779 1.390 . S
C771 C770 1.387 . S
C771 C773 1.387 . S
H772 C779 0.950 . S
C773 C771 1.387 . S
C773 C775 1.390 . S
C773 H777 0.950 . S
H774 C770 0.950 . S
C775 C773 1.390 . S
C775 C776 1.387 . S
C775 H778 0.950 . S
C776 C775 1.387 . S
C776 C779 1.387 . S
H777 C773 0.950 . S
H778 C775 0.950 . S
C779 C770 1.390 . S
C779 H772 0.950 . S
C779 C776 1.387 . S
C780 C781 1.387 . S
C780 H784 0.950 . S
C780 C789 1.390 . S
C781 C780 1.387 . S
C781 C783 1.387 . S
H782 C789 0.950 . S
C783 C781 1.387 . S
C783 C785 1.390 . S
C783 H787 0.950 . S
H784 C780 0.950 . S
C785 C783 1.390 . S
C785 C786 1.387 . S
C785 H788 0.950 . S
C786 C785 1.387 . S
C786 C789 1.387 . S
H787 C783 0.950 . S
H788 C785 0.950 . S
C789 C780 1.390 . S
C789 H782 0.950 . S
C789 C786 1.387 . S
C790 C791 1.387 . S
C790 H794 0.950 . S
C790 C799 1.390 . S
C791 C790 1.387 . S
C791 C793 1.387 . S
H792 C799 0.950 . S
C793 C791 1.387 . S
C793 C795 1.390 . S
C793 H797 0.950 . S
H794 C790 0.950 . S
C795 C793 1.390 . S
C795 C796 1.387 . S
C795 H798 0.950 . S
C796 C795 1.387 . S
C796 C799 1.387 . S
H797 C793 0.950 . S
H798 C795 0.950 . S
C799 C790 1.390 . S
C799 H792 0.950 . S
C799 C796 1.387 . S
C800 C801 1.387 . S
C800 H804 0.950 . S
C800 C809 1.390 . S
C801 C800 1.387 . S
C801 C803 1.387 . S
H802 C809 0.950 . S
C803 C801 1.387 . S
C803 C805 1.390 . S
C803 H807 0.950 . S
H804 C800 0.950 . S
C805 C803 1.390 . S
C805 C806 1.387 . S
C805 H808 0.950 . S
C806 C805 1.387 . S
C806 C809 1.387 . S
H807 C803 0.950 . S
H808 C805 0.950 . S
C809 C800 1.390 . S
C809 H802 0.950 . S
C809 C806 1.387 . S
C810 C811 1.387 . S
C810 H814 0.950 . S
C810 C819 1.390 . S
C811 C810 1.387 . S
C811 C813 1.387 . S
H812 C819 0.950 . S
C813 C811 1.387 . S
C813 C815 1.390 . S
C813 H817 0.950 1_655 S
H814 C810 0.950 . S
C815 C813 1.390 . S
C815 C816 1.387 . S
C815 H818 0.955 . S
C816 C815 1.387 . S
C816 C819 1.387 . S
H817 C813 0.950 1_455 S
H818 C815 0.955 . S
C819 C810 1.390 . S
C819 H812 0.950 . S
C819 C816 1.387 . S
C820 C821 1.387 . S
C820 H824 0.950 . S
C820 C829 1.390 . S
C821 C820 1.387 . S
C821 C823 1.387 . S
H822 C829 0.950 . S
C823 C821 1.387 . S
C823 C825 1.390 . S
C823 H827 0.950 . S
H824 C820 0.950 . S
C825 C823 1.390 . S
C825 C826 1.387 . S
C825 H828 0.950 . S
C826 C825 1.387 . S
C826 C829 1.387 . S
H827 C823 0.950 . S
H828 C825 0.950 . S
C829 C820 1.390 . S
C829 H822 0.950 . S
C829 C826 1.387 . S
C830 C831 1.387 . S
C830 H834 0.950 . S
C830 C839 1.390 . S
C831 C830 1.387 . S
C831 C833 1.387 . S
H832 C839 0.950 . S
C833 C831 1.387 . S
C833 C835 1.390 . S
C833 H837 0.950 . S
H834 C830 0.950 . S
C835 C833 1.390 . S
C835 C836 1.387 . S
C835 H838 0.950 . S
C836 C835 1.387 . S
C836 C839 1.387 . S
H837 C833 0.950 . S
H838 C835 0.950 . S
C839 C830 1.390 . S
C839 H832 0.950 . S
C839 C836 1.387 . S
C840 C841 1.387 . S
C840 H844 0.950 . S
C840 C849 1.390 . S
C841 C840 1.387 . S
C841 C843 1.387 . S
H842 C849 0.950 . S
C843 C841 1.387 . S
C843 C845 1.390 . S
C843 H847 0.950 . S
H844 C840 0.950 . S
C845 C843 1.390 . S
C845 C846 1.387 . S
C845 H848 0.950 . S
C846 C845 1.387 . S
C846 C849 1.387 . S
H847 C843 0.950 . S
H848 C845 0.950 . S
C849 C840 1.390 . S
C849 H842 0.950 . S
C849 C846 1.387 . S
C850 C851 1.387 . S
C850 H854 0.950 . S
C850 C859 1.390 . S
C851 C850 1.387 . S
C851 C853 1.387 . S
H852 C859 0.950 . S
C853 C851 1.387 . S
C853 C855 1.390 . S
C853 H857 0.950 . S
H854 C850 0.950 . S
C855 C853 1.390 . S
C855 C856 1.387 . S
C855 H858 0.950 . S
C856 C855 1.387 . S
C856 C859 1.387 . S
H857 C853 0.950 . S
H858 C855 0.950 . S
C859 C850 1.390 . S
C859 H852 0.950 . S
C859 C856 1.387 . S
C860 C861 1.387 . S
C860 H864 0.951 . S
C860 C869 1.390 . S
C861 C860 1.387 . S
C861 C863 1.387 . S
H862 C869 0.950 1_655 S
C863 C861 1.387 . S
C863 C865 1.390 . S
C863 H867 0.950 . S
H864 C860 0.951 . S
C865 C863 1.390 . S
C865 C866 1.387 . S
C865 H868 0.950 . S
C866 C865 1.387 . S
C866 C869 1.387 . S
H867 C863 0.950 . S
H868 C865 0.950 . S
C869 C860 1.390 . S
C869 H862 0.950 1_455 S
C869 C866 1.387 . S
C870 C871 1.387 . S
C870 H874 0.950 . S
C870 C879 1.390 . S
C871 C870 1.387 . S
C871 C873 1.387 . S
H872 C879 0.950 . S
C873 C871 1.387 . S
C873 C875 1.390 . S
C873 H877 0.950 . S
H874 C870 0.950 . S
C875 C873 1.390 . S
C875 C876 1.387 . S
C875 H878 0.950 . S
C876 C875 1.387 . S
C876 C879 1.387 . S
H877 C873 0.950 . S
H878 C875 0.950 . S
C879 C870 1.390 . S
C879 H872 0.950 . S
C879 C876 1.387 . S
C641 C1 1.177 . S
C646 C497 1.376 . S
C651 C80 1.292 . S
C656 C537 1.376 . S
C666 C562 2.440 . S
C661 C140 2.440 . S
C671 C211 2.487 . S
C676 C602 2.441 . S
C686 C533 1.978 . S
C681 C31 1.684 . S
C696 C493 1.978 . S
C691 C61 1.839 . S
C706 C624 1.781 . S
C701 C151 1.742 . S
C716 C584 1.781 . S
C711 C200 1.842 . S
C721 C20 1.575 . S
C726 C626 1.642 . S
C736 C543 2.201 . S
C731 C121 2.257 . S
C741 C181 2.171 . S
C746 C503 2.203 . S
C751 C91 1.695 . S
C756 C586 1.646 . S
C766 C506 1.378 . S
C761 C260 1.278 . S
C771 C320 1.297 . S
C776 C546 1.379 . S
C781 C361 2.456 . S
C786 C583 2.441 . S
C791 C451 2.487 . S
C796 C623 2.440 . S
C801 C271 1.755 . S
C806 C544 1.978 . S
C816 C504 1.977 . S
C811 C301 1.837 . S
C826 C613 1.783 . S
C821 C380 1.735 . S
C836 C573 1.781 . S
C831 C440 1.842 . S
C841 C241 1.411 . S
C846 C617 1.645 . S
C856 C522 2.202 . S
C851 C391 2.273 . S
C866 C482 2.202 . S
C861 C421 2.170 . S
C871 C331 1.694 . S
C876 C577 1.645 . S
