# Generated by pormake.
# Topology pts, (4,4)-cn, num edge types: 1
# Building blocks:
#     Node 0, Type 0, BuildingBlock: MUDLON_clean_linker_0, # of connection points: 4
#     Node 1, Type 0, BuildingBlock: MUDLON_clean_linker_0, # of connection points: 4
#     Node 2, Type 1, BuildingBlock: UXUYUI_clean_sbu_0, # of connection points: 4
#     Node 3, Type 1, BuildingBlock: UXUYUI_clean_sbu_0, # of connection points: 4
#     Edge 4, Type (0, 1), BuildingBlock: AJUNOK_clean_linker_0, # of connection points: 2
#     Edge 5, Type (0, 1), BuildingBlock: AJUNOK_clean_linker_0, # of connection points: 2
#     Edge 6, Type (0, 1), BuildingBlock: AJUNOK_clean_linker_0, # of connection points: 2
#     Edge 7, Type (0, 1), BuildingBlock: AJUNOK_clean_linker_0, # of connection points: 2
#     Edge 8, Type (0, 1), BuildingBlock: AJUNOK_clean_linker_0, # of connection points: 2
#     Edge 9, Type (0, 1), BuildingBlock: AJUNOK_clean_linker_0, # of connection points: 2
#     Edge 10, Type (0, 1), BuildingBlock: AJUNOK_clean_linker_0, # of connection points: 2
#     Edge 11, Type (0, 1), BuildingBlock: AJUNOK_clean_linker_0, # of connection points: 2
# Relax obj value: 0.014
# Max RMSD: 0.056
# Mean RMSD: 0.052
data_MOF--net-pts--node1-UXUYUI_clean_sbu_0--node2-MUDLON_clean_linker_0--edge1-AJUNOK_clean_linker_0
_symmetry_space_group_name_H-M    P1
_symmetry_Int_Tables_number       1
_symmetry_cell_setting            triclinic
loop_
_symmetry_equiv_pos_as_xyz
'x, y, z'
_cell_length_a     33.573321
_cell_length_b     33.560172
_cell_length_c     43.169831
_cell_angle_alpha  89.945968
_cell_angle_beta   90.057139
_cell_angle_gamma 90.09895
loop_
_atom_site_label
_atom_site_type_symbol
_atom_site_fract_x
_atom_site_fract_y
_atom_site_fract_z
_atom_type_partial_charge
H0 H 0.66778 0.1 0.04834 0.0
N1 N 0.65126 0.04797 0.00382 0.0
H2 H 0.71436 0.09146 0.09152 0.0
H3 H 0.6868 0.97793 0.02129 0.0
H4 H 0.73193 0.96868 0.065 0.0
H5 H 0.65593 0.98082 0.96775 0.0
H6 H 0.70168 0.97036 0.92442 0.0
H7 H 0.69867 0.10132 0.97752 0.0
H8 H 0.74546 0.09072 0.93489 0.0
H9 H 0.59148 0.09361 0.98519 0.0
H10 H 0.61727 0.97612 0.02017 0.0
H11 H 0.5206 0.07686 0.98284 0.0
H12 H 0.54677 0.95972 0.01926 0.0
H13 H 0.32426 0.04535 0.01603 0.0
H14 H 0.27833 0.05536 0.059 0.0
H15 H 0.29693 0.93371 0.08826 0.0
H16 H 0.34408 0.92428 0.0456 0.0
H17 H 0.31952 0.91808 0.97311 0.0
H18 H 0.27418 0.92453 0.92898 0.0
H19 H 0.30738 0.04832 0.91955 0.0
H20 H 0.35249 0.04166 0.96395 0.0
H21 H 0.39362 0.04869 0.01365 0.0
H22 H 0.46414 0.06547 0.01455 0.0
H23 H 0.49282 0.94555 0.98572 0.0
N24 N 0.36108 0.97526 1.00041 0.0
H25 H 0.42195 0.92861 0.98626 0.0
C26 C 0.67336 0.03969 0.03178 0.0
C27 C 0.68097 0.07102 0.05237 0.0
C28 C 0.70744 0.066 0.07709 0.0
C29 C 0.72658 0.02925 0.08185 0.0
C30 C 0.71769 0.99735 0.0619 0.0
C31 C 0.6915 1.00252 0.03704 0.0
C32 C 0.67383 0.04207 0.9758 0.0
C33 C 0.67479 1.00519 0.96036 0.0
C34 C 0.70131 0.99909 0.93582 0.0
C35 C 0.72767 0.02951 0.9266 0.0
C36 C 0.72546 0.06675 0.94135 0.0
C37 C 0.69881 0.07288 0.96567 0.0
C38 C 0.60979 0.03651 0.00309 0.0
C39 C 0.58178 0.06432 0.9926 0.0
C40 C 0.54125 0.05474 0.99149 0.0
C41 C 0.52774 0.01696 1.00103 0.0
C42 C 0.55599 0.98894 0.01136 0.0
C43 C 0.59657 0.99848 0.01221 0.0
C44 C 0.33806 0.98399 0.02777 0.0
C45 C 0.31948 0.02112 0.03211 0.0
C46 C 0.29286 0.02675 0.05658 0.0
C47 C 0.28411 0.9954 0.0771 0.0
C48 C 0.30366 0.95872 0.07327 0.0
C49 C 0.33046 0.9532 0.04888 0.0
C50 C 0.33943 0.97916 0.97174 0.0
C51 C 0.31765 0.94632 0.96104 0.0
C52 C 0.29192 0.95006 0.9358 0.0
C53 C 0.2875 0.98687 0.92066 0.0
C54 C 0.31023 0.01961 0.93081 0.0
C55 C 0.33612 0.01579 0.95609 0.0
C56 C 0.40242 0.98703 1.00025 0.0
C57 C 0.41491 0.02588 0.0077 0.0
C58 C 0.45548 0.03558 0.00791 0.0
C59 C 0.48442 0.00686 1.00034 0.0
C60 C 0.47161 0.96827 0.9923 0.0
C61 C 0.4311 0.95856 0.99236 0.0
H62 H 0.91106 0.66845 0.54309 0.0
N63 N 0.96556 0.6539 0.50001 0.0
H64 H 0.91617 0.71541 0.5865 0.0
H65 H 0.03349 0.69224 0.51926 0.0
H66 H 0.03861 0.73918 0.56218 0.0
H67 H 0.03442 0.66528 0.46704 0.0
H68 H 0.04374 0.71297 0.4247 0.0
H69 H 0.90944 0.6939 0.47017 0.0
H70 H 0.91825 0.74083 0.4272 0.0
H71 H 0.92099 0.59227 0.48346 0.0
H72 H 0.03845 0.62272 0.51614 0.0
H73 H 0.93912 0.52171 0.48323 0.0
H74 H 0.05634 0.55249 0.51732 0.0
H75 H 0.97445 0.32663 0.52113 0.0
H76 H 0.96607 0.28049 0.56424 0.0
H77 H 0.08543 0.30704 0.59542 0.0
H78 H 0.09395 0.35287 0.55157 0.0
H79 H 0.10107 0.32318 0.47931 0.0
H80 H 0.09511 0.27562 0.43653 0.0
H81 H 0.97096 0.30646 0.4263 0.0
H82 H 0.97744 0.35461 0.46864 0.0
H83 H 0.9699 0.39718 0.51823 0.0
H84 H 0.95198 0.46745 0.51687 0.0
H85 H 0.07084 0.4968 0.4857 0.0
N86 N 0.04346 0.36539 0.50517 0.0
H87 H 0.08891 0.42633 0.4885 0.0
C88 C 0.9717 0.67668 0.52793 0.0
C89 C 0.93919 0.68318 0.54759 0.0
C90 C 0.94206 0.71022 0.57212 0.0
C91 C 0.97762 0.73135 0.57735 0.0
C92 C 0.01087 0.72324 0.55869 0.0
C93 C 0.00795 0.69628 0.53412 0.0
C94 C 0.97109 0.67616 0.47178 0.0
C95 C 0.0088 0.68108 0.45812 0.0
C96 C 0.01406 0.70821 0.43379 0.0
C97 C 0.98169 0.73063 0.42264 0.0
C98 C 0.94377 0.72417 0.43545 0.0
C99 C 0.93861 0.69724 0.45977 0.0
C100 C 0.97803 0.6128 0.50003 0.0
C101 C 0.95062 0.58364 0.49076 0.0
C102 C 0.96099 0.54331 0.4909 0.0
C103 C 0.99916 0.53117 0.50048 0.0
C104 C 0.02683 0.56062 0.50946 0.0
C105 C 0.01648 0.60101 0.50906 0.0
C106 C 0.03499 0.3434 0.53314 0.0
C107 C 0.99853 0.32341 0.53757 0.0
C108 C 0.99368 0.29706 0.56238 0.0
C109 C 0.02504 0.29027 0.58331 0.0
C110 C 0.0608 0.31162 0.5796 0.0
C111 C 0.06563 0.33794 0.55476 0.0
C112 C 0.0399 0.34241 0.47712 0.0
C113 C 0.07287 0.32029 0.46731 0.0
C114 C 0.06931 0.29301 0.44309 0.0
C115 C 0.03255 0.28728 0.42815 0.0
C116 C 0.99979 0.31063 0.43712 0.0
C117 C 1.00342 0.33805 0.4614 0.0
C118 C 0.03108 0.40648 0.50381 0.0
C119 C 0.99221 0.41862 0.51128 0.0
C120 C 0.98187 0.45899 0.5102 0.0
C121 C 0.00998 0.48805 0.50128 0.0
C122 C 0.0486 0.47554 0.49328 0.0
C123 C 0.05895 0.43525 0.49463 0.0
Li124 Li 0.01115 0.04676 0.27325 0.0
Li125 Li 0.00707 0.97394 0.27115 0.0
Li126 Li 0.04329 0.01179 0.23158 0.0
Li127 Li 0.97046 0.01299 0.2341 0.0
C128 C 0.09472 1.00063 0.27622 0.0
N129 N 0.17533 0.98489 0.27225 0.0
C130 C 0.10888 0.96196 0.28102 0.0
C131 C 0.12161 0.03132 0.26953 0.0
C132 C 0.14974 0.95462 0.27893 0.0
C133 C 0.16222 0.02274 0.26755 0.0
C134 C 0.94605 0.99592 0.30466 0.0
C135 C 0.90612 0.9441 0.3279 0.0
N136 N 0.9142 0.95933 0.35641 0.0
C137 C 0.95391 0.01111 0.33419 0.0
C138 C 0.92185 0.96222 0.30145 0.0
C139 C 0.9375 0.99219 0.36006 0.0
C140 C 0.98094 0.11426 0.30512 0.0
N141 N 0.01398 0.09171 0.30026 0.0
C142 C 0.05205 0.13287 0.33438 0.0
C143 C 0.04906 0.10022 0.31452 0.0
C144 C 0.01855 0.1569 0.33971 0.0
C145 C 0.98259 0.14725 0.32483 0.0
H146 H 0.95325 0.10641 0.29383 0.0
H147 H 0.0747 0.08153 0.31063 0.0
C148 C 0.99575 0.89122 0.28459 0.0
N149 N 0.00722 0.92708 0.29626 0.0
C150 C 0.99349 0.85783 0.30391 0.0
C151 C 0.016 0.89871 0.34657 0.0
C152 C 0.0179 0.93122 0.32646 0.0
C153 C 1.00337 0.86149 0.3354 0.0
H154 H 0.98767 0.88869 0.26046 0.0
H155 H 0.02721 0.96006 0.33502 0.0
C156 C 1.00374 0.09852 0.22877 0.0
N157 N 0.99465 0.18013 0.23334 0.0
C158 C 0.966 0.11564 0.22582 0.0
C159 C 0.03688 0.12292 0.23395 0.0
C160 C 0.96203 0.15696 0.22818 0.0
C161 C 0.03165 0.1641 0.23625 0.0
C162 C 0.98761 0.9509 0.20058 0.0
C163 C 1.00214 0.9595 0.17098 0.0
C164 C 0.95311 0.92789 0.20384 0.0
C165 C 0.98178 0.94499 0.14508 0.0
C166 C 0.93356 0.91403 0.17736 0.0
N167 N 0.94818 0.92279 0.14878 0.0
C168 C 0.10822 0.97564 0.20121 0.0
C169 C 0.09892 0.04373 0.18848 0.0
C170 C 0.14146 0.97353 0.18187 0.0
N171 N 0.08802 0.01048 0.20437 0.0
C172 C 0.13184 0.0429 0.16874 0.0
C173 C 0.15369 0.00752 0.16543 0.0
H174 H 0.09842 0.94947 0.21371 0.0
H175 H 0.08196 0.07085 0.19102 0.0
C176 C 0.88747 1.00468 0.21993 0.0
N177 N 0.92365 0.0164 0.20908 0.0
C178 C 0.854 1.00599 0.20067 0.0
C179 C 0.89555 0.03218 0.15972 0.0
C180 C 0.92819 0.03018 0.17968 0.0
C181 C 0.85782 0.01994 0.17011 0.0
H182 H 0.88466 0.99391 0.2434 0.0
H183 H 0.95732 0.03939 0.17172 0.0
O184 O 0.05473 0.00826 0.27749 0.0
O185 O 0.9626 0.01346 0.27909 0.0
O186 O 0.00812 0.05804 0.2273 0.0
O187 O 0.00648 0.96575 0.2262 0.0
H188 H 0.08855 0.93776 0.28597 0.0
H189 H 0.11115 0.06131 0.26528 0.0
H190 H 0.16109 0.92481 0.28246 0.0
H191 H 0.1833 0.04613 0.26211 0.0
H192 H 0.88767 0.91778 0.32578 0.0
H193 H 0.97281 0.03693 0.33717 0.0
H194 H 0.91602 0.94963 0.27884 0.0
H195 H 0.94346 1.00353 0.38305 0.0
H196 H 0.0803 0.1393 0.34544 0.0
H197 H 0.95586 0.16448 0.32888 0.0
H198 H 0.98305 0.82979 0.29451 0.0
H199 H 0.02403 0.90268 0.37068 0.0
H200 H 0.93995 0.09723 0.22215 0.0
H201 H 0.06623 0.11014 0.23674 0.0
H202 H 0.93298 0.1706 0.22607 0.0
H203 H 0.05698 0.1833 0.2405 0.0
H204 H 0.02857 0.97754 0.16798 0.0
H205 H 0.94108 0.92148 0.22654 0.0
H206 H 0.99259 0.95155 0.12203 0.0
H207 H 0.90665 0.89648 0.17954 0.0
H208 H 0.15698 0.94546 0.17936 0.0
H209 H 0.14025 0.06964 0.15627 0.0
H210 H 0.82563 0.99553 0.20942 0.0
H211 H 0.89975 0.04333 0.13639 0.0
Li212 Li 0.9683 0.0091 0.7724 0.0
Li213 Li 0.04112 1.00428 0.77186 0.0
Li214 Li 1.00553 0.0446 0.73353 0.0
Li215 Li 1.00314 0.9716 0.73199 0.0
C216 C 0.99309 0.07116 0.80396 0.0
N217 N 0.9603 0.10618 0.85591 0.0
C218 C 0.00996 0.06459 0.83313 0.0
C219 C 0.95965 0.09569 0.80119 0.0
C220 C 0.99295 0.08258 0.85911 0.0
C221 C 0.94345 0.11303 0.82774 0.0
C222 C 0.99392 0.92129 0.77765 0.0
C223 C 0.01423 0.85326 0.76913 0.0
N224 N 0.97651 0.84083 0.77541 0.0
C225 C 0.95538 0.90784 0.78408 0.0
C226 C 0.02365 0.89379 0.77021 0.0
C227 C 0.94717 0.86704 0.78283 0.0
C228 C 0.88595 0.01773 0.7869 0.0
N229 N 0.92264 0.0097 0.79868 0.0
C230 C 0.89567 1.00287 0.84961 0.0
C231 C 0.92795 1.00184 0.82929 0.0
C232 C 0.85738 0.01126 0.8382 0.0
C233 C 0.85273 0.01877 0.80638 0.0
H234 H 0.88246 0.02332 0.7624 0.0
H235 H 0.95744 0.99519 0.83796 0.0
C236 C 0.11012 0.03549 0.80089 0.0
N237 N 0.08782 1.00197 0.79708 0.0
C238 C 0.1446 0.03457 0.81904 0.0
C239 C 0.13234 0.96476 0.82913 0.0
C240 C 0.09807 0.96706 0.81089 0.0
C241 C 0.15618 0.99878 0.83327 0.0
H242 H 0.10103 0.06295 0.78984 0.0
H243 H 0.0795 0.94105 0.80793 0.0
C244 C 0.94058 0.02767 0.70293 0.0
N245 N 0.90812 0.06668 0.65251 0.0
C246 C 0.94592 0.0125 0.67308 0.0
C247 C 0.91858 0.06257 0.70715 0.0
C248 C 0.92925 0.03266 0.64789 0.0
C249 C 0.90249 0.08191 0.68136 0.0
C250 C 0.09002 0.01017 0.72536 0.0
C251 C 0.10744 0.04764 0.72111 0.0
C252 C 0.11425 0.97689 0.73019 0.0
C253 C 0.1489 0.05119 0.72186 0.0
C254 C 0.15558 0.98171 0.73088 0.0
N255 N 0.1719 0.01845 0.72672 0.0
C256 C 1.00136 0.12793 0.72022 0.0
C257 C 0.01763 0.0862 0.67781 0.0
C258 C 1.00331 0.16168 0.70127 0.0
N259 N 0.00824 0.09115 0.70818 0.0
C260 C 0.01988 0.11907 0.65806 0.0
C261 C 0.01253 0.15741 0.66972 0.0
H262 H 0.99463 0.13111 0.74454 0.0
H263 H 0.02334 0.05662 0.66896 0.0
C264 C 0.96325 0.90762 0.7033 0.0
N265 N 0.99904 0.92645 0.70533 0.0
C266 C 0.95852 0.87479 0.6838 0.0
C267 C 0.02753 0.88143 0.66868 0.0
C268 C 0.03095 0.91411 0.68855 0.0
C269 C 0.99083 0.86158 0.66593 0.0
H270 H 0.93832 0.91827 0.71679 0.0
H271 H 0.05891 0.92991 0.69029 0.0
O272 O 0.00885 0.05323 0.77832 0.0
O273 O 1.00237 0.96118 0.77815 0.0
O274 O 0.95747 0.00892 0.72782 0.0
O275 O 0.04946 1.00623 0.72548 0.0
H276 H 0.03564 0.04548 0.83577 0.0
H277 H 0.94591 0.10072 0.77886 0.0
H278 H 1.00559 0.07763 0.88185 0.0
H279 H 0.91739 0.13181 0.82597 0.0
H280 H 0.03686 0.8317 0.76315 0.0
H281 H 0.93192 0.92865 0.78967 0.0
H282 H 0.05351 0.90369 0.76474 0.0
H283 H 0.91744 0.85623 0.78763 0.0
H284 H 0.90079 0.99784 0.87407 0.0
H285 H 0.82369 0.02521 0.79665 0.0
H286 H 0.16213 0.06146 0.82181 0.0
H287 H 0.13972 0.93686 0.84037 0.0
H288 H 0.96311 0.98572 0.66933 0.0
H289 H 0.9145 0.07494 0.73006 0.0
H290 H 0.93328 0.02136 0.62464 0.0
H291 H 0.88567 0.10911 0.68426 0.0
H292 H 0.08918 0.07377 0.71762 0.0
H293 H 0.10126 0.94777 0.73395 0.0
H294 H 0.16278 0.08003 0.71872 0.0
H295 H 0.17467 0.95628 0.73486 0.0
H296 H 0.99832 0.19082 0.71128 0.0
H297 H 0.02707 0.11454 0.63387 0.0
H298 H 0.92991 0.85991 0.6827 0.0
H299 H 0.05305 0.87231 0.65511 0.0
C300 C 0.21526 0.01638 0.09206 0.0
C301 C 0.25223 1.0 0.10071 0.0
C302 C 0.18383 0.01924 0.11326 0.0
C303 C 0.18807 1.00568 0.14391 0.0
H304 H 0.21021 0.0262 0.06847 0.0
H305 H 0.15567 0.03129 0.10538 0.0
S306 S 0.27974 0.96384 0.17909 0.0
N307 N 0.29204 0.97251 0.14266 0.0
N308 N 0.23274 0.97762 0.18248 0.0
C309 C 0.22507 0.99006 0.15311 0.0
C310 C 0.25718 0.98727 0.13153 0.0
C311 C 0.0522 0.22946 0.60924 0.0
C312 C 0.02193 0.25828 0.60703 0.0
C313 C 0.049 0.19723 0.62975 0.0
C314 C 0.01554 0.19266 0.64901 0.0
H315 H 0.07817 0.23123 0.59443 0.0
H316 H 0.07293 0.17563 0.63047 0.0
S317 S 0.92852 0.26047 0.65282 0.0
N318 N 0.95791 0.28082 0.62651 0.0
N319 N 0.95164 0.21987 0.66481 0.0
C320 C 0.98533 0.2216 0.64744 0.0
C321 C 0.98854 0.25441 0.62646 0.0
C322 C 0.79522 0.00814 0.09734 0.0
C323 C 0.75846 0.02518 0.10561 0.0
C324 C 0.82686 1.00617 0.11846 0.0
C325 C 0.82306 0.0211 0.14875 0.0
H326 H 0.79998 0.99708 0.07407 0.0
H327 H 0.85462 0.99294 0.11093 0.0
S328 S 0.73265 0.06749 0.18237 0.0
N329 N 0.71957 0.0559 0.14661 0.0
N330 N 0.77944 0.05315 0.1861 0.0
C331 C 0.78628 0.03763 0.15754 0.0
C332 C 0.75396 0.03956 0.13601 0.0
C333 C 0.01097 0.76527 0.62224 0.0
C334 C 0.97944 0.76367 0.60078 0.0
C335 C 0.01424 0.79677 0.64346 0.0
C336 C 0.98615 0.82786 0.64393 0.0
H337 H 0.03328 0.74199 0.6226 0.0
H338 H 0.0389 0.79677 0.65966 0.0
S339 S 0.89986 0.83921 0.59091 0.0
N340 N 0.92072 0.79685 0.58033 0.0
N341 N 0.92692 0.85603 0.62007 0.0
C342 C 0.95464 0.82671 0.62247 0.0
C343 C 0.95127 0.79464 0.60093 0.0
C344 C 0.22882 0.0227 0.89818 0.0
C345 C 0.25684 0.99166 0.89611 0.0
C346 C 0.19699 0.02545 0.87722 0.0
C347 C 0.19197 0.99722 0.85346 0.0
H348 H 0.23064 0.04418 0.91685 0.0
H349 H 0.17538 0.04904 0.88032 0.0
S350 S 0.25997 0.91337 0.83557 0.0
N351 N 0.27955 0.93435 0.86666 0.0
N352 N 0.21967 0.93949 0.8273 0.0
C353 C 0.22069 0.96706 0.85033 0.0
C354 C 0.25312 0.96429 0.87163 0.0
C355 C 0.04219 0.21645 0.41214 0.0
C356 C 0.02806 0.25483 0.40502 0.0
C357 C 0.03876 0.18509 0.39095 0.0
C358 C 0.02105 0.19079 0.36175 0.0
H359 H 0.05571 0.21047 0.43447 0.0
H360 H 0.04978 0.15599 0.39763 0.0
S361 S 0.98094 0.28597 0.33115 0.0
N362 N 0.99661 0.29711 0.36639 0.0
N363 N 0.99025 0.23805 0.32639 0.0
C364 C 0.00678 0.22901 0.35426 0.0
C365 C 0.01025 0.26103 0.37592 0.0
C366 C 0.76547 0.05075 0.87927 0.0
C367 C 0.75879 0.02237 0.90274 0.0
C368 C 0.79675 0.04639 0.85805 0.0
C369 C 0.82272 0.01357 0.85955 0.0
H370 H 0.74663 0.07683 0.87751 0.0
H371 H 0.80131 0.06952 0.84089 0.0
S372 S 0.81714 0.92998 0.91571 0.0
N373 N 0.78039 0.95987 0.92582 0.0
N374 N 0.83839 0.95111 0.88537 0.0
C375 C 0.81574 0.98442 0.88235 0.0
C376 C 0.78393 0.9889 0.90402 0.0
C377 C 0.97202 0.80114 0.40564 0.0
C378 C 0.98767 0.76304 0.39962 0.0
C379 C 0.97746 0.83267 0.38481 0.0
C380 C 0.9986 0.82737 0.35702 0.0
H381 H 0.95577 0.80679 0.42685 0.0
H382 H 0.96465 0.8614 0.39039 0.0
S383 S 0.04565 0.73359 0.33026 0.0
N384 N 0.02506 0.72172 0.36377 0.0
N385 N 0.03571 0.78125 0.32468 0.0
C386 C 0.01442 0.78947 0.35064 0.0
C387 C 0.00898 0.7573 0.37196 0.0
loop_
_geom_bond_atom_site_label_1
_geom_bond_atom_site_label_2
_geom_bond_distance
_geom_bond_site_symmetry_2
_ccdc_geom_bond_type
H0 C27 0.929 . S
N1 C26 1.433 1_556 S
N1 C32 1.435 . S
N1 C38 1.423 . S
H2 C28 0.930 . S
H3 C31 0.931 . S
H4 C30 0.929 . S
H5 C33 0.930 . S
H6 C34 0.932 . S
H7 C37 0.929 . S
H8 C36 0.931 . S
H9 C39 0.929 . S
H10 C43 0.932 1_565 S
H11 C40 0.931 . S
H12 C42 0.929 1_565 S
H13 C45 0.929 . S
H14 C46 0.930 . S
H15 C48 0.929 . S
H16 C49 0.931 . S
H17 C51 0.930 . S
H18 C52 0.932 . S
H19 C54 0.931 . S
H20 C55 0.929 . S
H21 C57 0.929 . S
H22 C58 0.931 . S
H23 C60 0.929 1_565 S
N24 C44 1.433 1_556 S
N24 C50 1.435 . S
N24 C56 1.423 . S
H25 C61 0.932 1_565 S
C26 N1 1.433 1_554 S
C26 C27 1.363 . S
C26 C31 1.370 1_545 S
C27 H0 0.929 . S
C27 C26 1.363 . S
C27 C28 1.385 . S
C28 H2 0.930 . S
C28 C27 1.385 . S
C28 C29 1.357 . S
C29 C28 1.357 . S
C29 C30 1.406 1_545 S
C30 H4 0.929 . S
C30 C29 1.406 1_565 S
C30 C31 1.391 . S
C31 H3 0.931 . S
C31 C26 1.370 1_565 S
C31 C30 1.391 . S
C32 N1 1.435 . S
C32 C33 1.358 1_545 S
C32 C37 1.371 . S
C33 H5 0.930 . S
C33 C32 1.358 1_565 S
C33 C34 1.405 . S
C34 H6 0.932 . S
C34 C33 1.405 . S
C34 C35 1.383 1_565 S
C35 C34 1.383 1_545 S
C35 C36 1.393 . S
C36 H8 0.931 . S
C36 C35 1.393 . S
C36 C37 1.382 . S
C37 H7 0.929 . S
C37 C32 1.371 . S
C37 C36 1.382 . S
C38 N1 1.423 . S
C38 C39 1.362 1_556 S
C38 C43 1.388 . S
C39 H9 0.929 . S
C39 C38 1.362 1_554 S
C39 C40 1.376 . S
C40 H11 0.931 . S
C40 C39 1.376 . S
C40 C41 1.396 1_554 S
C41 C40 1.396 1_556 S
C41 C42 1.348 . S
C41 C59 1.472 . S
C42 H12 0.929 1_545 S
C42 C41 1.348 . S
C42 C43 1.443 . S
C43 H10 0.932 1_545 S
C43 C38 1.388 . S
C43 C42 1.443 . S
C44 N24 1.433 1_554 S
C44 C45 1.363 . S
C44 C49 1.370 1_545 S
C45 H13 0.929 . S
C45 C44 1.363 . S
C45 C46 1.385 . S
C46 H14 0.930 . S
C46 C45 1.385 . S
C46 C47 1.357 . S
C47 C46 1.357 . S
C47 C48 1.406 1_545 S
C48 H15 0.929 . S
C48 C47 1.406 1_565 S
C48 C49 1.391 . S
C49 H16 0.931 . S
C49 C44 1.370 1_565 S
C49 C48 1.391 . S
C50 N24 1.435 . S
C50 C51 1.358 1_545 S
C50 C55 1.371 . S
C51 H17 0.930 . S
C51 C50 1.358 1_565 S
C51 C52 1.405 . S
C52 H18 0.932 . S
C52 C51 1.405 . S
C52 C53 1.383 1_565 S
C53 C52 1.383 1_545 S
C53 C54 1.393 . S
C54 H19 0.931 . S
C54 C53 1.393 . S
C54 C55 1.382 . S
C55 H20 0.929 . S
C55 C50 1.371 . S
C55 C54 1.382 . S
C56 N24 1.423 . S
C56 C57 1.362 1_556 S
C56 C61 1.388 . S
C57 H21 0.929 . S
C57 C56 1.362 1_554 S
C57 C58 1.376 . S
C58 H22 0.931 . S
C58 C57 1.376 . S
C58 C59 1.396 1_554 S
C59 C41 1.472 . S
C59 C58 1.396 1_556 S
C59 C60 1.348 . S
C60 H23 0.929 1_545 S
C60 C59 1.348 . S
C60 C61 1.443 . S
C61 H25 0.932 1_545 S
C61 C56 1.388 . S
C61 C60 1.443 . S
H62 C89 0.929 . S
N63 C88 1.433 . S
N63 C94 1.435 . S
N63 C100 1.423 . S
H64 C90 0.930 . S
H65 C93 0.931 . S
H66 C92 0.929 . S
H67 C95 0.930 . S
H68 C96 0.932 . S
H69 C99 0.929 . S
H70 C98 0.931 . S
H71 C101 0.929 . S
H72 C105 0.932 1_455 S
H73 C102 0.931 . S
H74 C104 0.929 1_455 S
H75 C107 0.929 . S
H76 C108 0.930 . S
H77 C110 0.929 . S
H78 C111 0.931 . S
H79 C113 0.930 . S
H80 C114 0.932 . S
H81 C116 0.931 . S
H82 C117 0.929 . S
H83 C119 0.929 . S
H84 C120 0.931 . S
H85 C122 0.929 1_455 S
N86 C106 1.433 . S
N86 C112 1.435 . S
N86 C118 1.423 . S
H87 C123 0.932 1_455 S
C88 N63 1.433 . S
C88 C89 1.363 . S
C88 C93 1.370 1_655 S
C89 H62 0.929 . S
C89 C88 1.363 . S
C89 C90 1.385 . S
C90 H64 0.930 . S
C90 C89 1.385 . S
C90 C91 1.357 . S
C91 C90 1.357 . S
C91 C92 1.406 1_655 S
C92 H66 0.929 . S
C92 C91 1.406 1_455 S
C92 C93 1.391 . S
C93 H65 0.931 . S
C93 C88 1.370 1_455 S
C93 C92 1.391 . S
C94 N63 1.435 . S
C94 C95 1.358 1_655 S
C94 C99 1.371 . S
C95 H67 0.930 . S
C95 C94 1.358 1_455 S
C95 C96 1.405 . S
C96 H68 0.932 . S
C96 C95 1.405 . S
C96 C97 1.383 1_455 S
C97 C96 1.383 1_655 S
C97 C98 1.393 . S
C98 H70 0.931 . S
C98 C97 1.393 . S
C98 C99 1.382 . S
C99 H69 0.929 . S
C99 C94 1.371 . S
C99 C98 1.382 . S
C100 N63 1.423 . S
C100 C101 1.362 . S
C100 C105 1.388 . S
C101 H71 0.929 . S
C101 C100 1.362 . S
C101 C102 1.376 . S
C102 H73 0.931 . S
C102 C101 1.376 . S
C102 C103 1.396 . S
C103 C102 1.396 . S
C103 C104 1.348 . S
C103 C121 1.472 . S
C104 H74 0.929 1_655 S
C104 C103 1.348 . S
C104 C105 1.443 . S
C105 H72 0.932 1_655 S
C105 C100 1.388 . S
C105 C104 1.443 . S
C106 N86 1.433 . S
C106 C107 1.363 . S
C106 C111 1.370 1_655 S
C107 H75 0.929 . S
C107 C106 1.363 . S
C107 C108 1.385 . S
C108 H76 0.930 . S
C108 C107 1.385 . S
C108 C109 1.357 . S
C109 C108 1.357 . S
C109 C110 1.406 1_655 S
C110 H77 0.929 . S
C110 C109 1.406 1_455 S
C110 C111 1.391 . S
C111 H78 0.931 . S
C111 C106 1.370 1_455 S
C111 C110 1.391 . S
C112 N86 1.435 . S
C112 C113 1.358 1_655 S
C112 C117 1.371 . S
C113 H79 0.930 . S
C113 C112 1.358 1_455 S
C113 C114 1.405 . S
C114 H80 0.932 . S
C114 C113 1.405 . S
C114 C115 1.383 1_455 S
C115 C114 1.383 1_655 S
C115 C116 1.393 . S
C116 H81 0.931 . S
C116 C115 1.393 . S
C116 C117 1.382 . S
C117 H82 0.929 . S
C117 C112 1.371 . S
C117 C116 1.382 . S
C118 N86 1.423 . S
C118 C119 1.362 . S
C118 C123 1.388 . S
C119 H83 0.929 . S
C119 C118 1.362 . S
C119 C120 1.376 . S
C120 H84 0.931 . S
C120 C119 1.376 . S
C120 C121 1.396 . S
C121 C103 1.472 . S
C121 C120 1.396 . S
C121 C122 1.348 . S
C122 H85 0.929 1_655 S
C122 C121 1.348 . S
C122 C123 1.443 . S
C123 H87 0.932 1_655 S
C123 C118 1.388 . S
C123 C122 1.443 . S
Li124 N141 1.990 . S
Li124 O184 1.956 1_545 S
Li124 O185 1.970 1_455 S
Li124 O186 1.961 1_455 S
Li125 N149 1.990 . S
Li125 O184 1.970 1_655 S
Li125 O185 1.956 1_565 S
Li125 O187 1.961 1_655 S
Li126 N171 1.990 . S
Li126 O184 1.961 1_545 S
Li126 O186 1.956 1_455 S
Li126 O187 1.970 1_545 S
Li127 N177 1.990 . S
Li127 O185 1.961 1_565 S
Li127 O186 1.970 1_565 S
Li127 O187 1.956 1_655 S
C128 C130 1.348 1_545 S
C128 C131 1.356 . S
C128 O184 1.325 1_545 S
N129 C132 1.314 1_545 S
N129 C133 1.279 . S
C130 C128 1.348 1_565 S
C130 C132 1.353 . S
C130 H188 0.929 . S
C131 C128 1.356 . S
C131 C133 1.358 . S
C131 H189 0.930 . S
C132 N129 1.314 1_565 S
C132 C130 1.353 . S
C132 H190 0.930 . S
C133 N129 1.279 . S
C133 C131 1.358 . S
C133 H191 0.930 . S
C134 C137 1.348 . S
C134 C138 1.356 1_545 S
C134 O185 1.325 . S
C135 N136 1.279 . S
C135 C138 1.358 . S
C135 H192 0.930 . S
N136 C135 1.279 . S
N136 C139 1.314 1_565 S
C137 C134 1.348 . S
C137 C139 1.353 . S
C137 H193 0.929 . S
C138 C134 1.356 1_565 S
C138 C135 1.358 . S
C138 H194 0.930 . S
C139 N136 1.314 1_545 S
C139 C137 1.353 . S
C139 H195 0.930 . S
C140 N141 1.314 1_655 S
C140 C145 1.353 . S
C140 H146 0.930 . S
N141 Li124 1.990 . S
N141 C140 1.314 1_455 S
N141 C143 1.279 . S
C142 C143 1.358 . S
C142 C144 1.356 . S
C142 H196 0.930 . S
C143 N141 1.279 . S
C143 C142 1.358 . S
C143 H147 0.930 . S
C144 C142 1.356 . S
C144 C145 1.348 1_455 S
C145 C140 1.353 . S
C145 C144 1.348 1_655 S
C145 H197 0.929 . S
H146 C140 0.930 . S
H147 C143 0.930 . S
C148 N149 1.314 1_455 S
C148 C150 1.353 . S
C148 H154 0.930 . S
N149 Li125 1.990 . S
N149 C148 1.314 1_655 S
N149 C152 1.279 . S
C150 C148 1.353 . S
C150 C153 1.348 . S
C150 H198 0.929 . S
C151 C152 1.358 . S
C151 C153 1.356 1_655 S
C151 H199 0.930 . S
C152 N149 1.279 . S
C152 C151 1.358 . S
C152 H155 0.930 . S
C153 C150 1.348 . S
C153 C151 1.356 1_455 S
H154 C148 0.930 . S
H155 C152 0.930 . S
C156 C158 1.348 1_455 S
C156 C159 1.356 . S
C156 O186 1.325 1_455 S
N157 C160 1.314 1_455 S
N157 C161 1.279 . S
C158 C156 1.348 1_655 S
C158 C160 1.353 . S
C158 H200 0.929 . S
C159 C156 1.356 . S
C159 C161 1.358 . S
C159 H201 0.930 . S
C160 N157 1.314 1_655 S
C160 C158 1.353 . S
C160 H202 0.930 . S
C161 N157 1.279 . S
C161 C159 1.358 . S
C161 H203 0.930 . S
C162 C163 1.348 . S
C162 C164 1.356 1_455 S
C162 O187 1.325 . S
C163 C162 1.348 . S
C163 C165 1.353 . S
C163 H204 0.929 . S
C164 C162 1.356 1_655 S
C164 C166 1.358 . S
C164 H205 0.930 . S
C165 C163 1.353 . S
C165 N167 1.314 1_455 S
C165 H206 0.930 . S
C166 C164 1.358 . S
C166 N167 1.279 . S
C166 H207 0.930 . S
N167 C165 1.314 1_655 S
N167 C166 1.279 . S
C168 C170 1.353 . S
C168 N171 1.314 1_565 S
C168 H174 0.930 . S
C169 N171 1.279 . S
C169 C172 1.358 . S
C169 H175 0.930 . S
C170 C168 1.353 . S
C170 C173 1.348 1_565 S
C170 H208 0.929 . S
N171 Li126 1.990 . S
N171 C168 1.314 1_545 S
N171 C169 1.279 . S
C172 C169 1.358 . S
C172 C173 1.356 . S
C172 H209 0.930 . S
C173 C170 1.348 1_545 S
C173 C172 1.356 . S
H174 C168 0.930 . S
H175 C169 0.930 . S
C176 N177 1.314 1_545 S
C176 C178 1.353 . S
C176 H182 0.930 . S
N177 Li127 1.990 . S
N177 C176 1.314 1_565 S
N177 C180 1.279 . S
C178 C176 1.353 . S
C178 C181 1.348 . S
C178 H210 0.929 . S
C179 C180 1.358 . S
C179 C181 1.356 1_565 S
C179 H211 0.930 . S
C180 N177 1.279 . S
C180 C179 1.358 . S
C180 H183 0.930 . S
C181 C178 1.348 . S
C181 C179 1.356 1_545 S
H182 C176 0.930 . S
H183 C180 0.930 . S
O184 Li124 1.956 1_565 S
O184 Li125 1.970 1_455 S
O184 Li126 1.961 1_565 S
O184 C128 1.325 1_565 S
O185 Li124 1.970 1_655 S
O185 Li125 1.956 1_545 S
O185 Li127 1.961 1_545 S
O185 C134 1.325 . S
O186 Li124 1.961 1_655 S
O186 Li126 1.956 1_655 S
O186 Li127 1.970 1_545 S
O186 C156 1.325 1_655 S
O187 Li125 1.961 1_455 S
O187 Li126 1.970 1_565 S
O187 Li127 1.956 1_455 S
O187 C162 1.325 . S
H188 C130 0.929 . S
H189 C131 0.930 . S
H190 C132 0.930 . S
H191 C133 0.930 . S
H192 C135 0.930 . S
H193 C137 0.929 . S
H194 C138 0.930 . S
H195 C139 0.930 . S
H196 C142 0.930 . S
H197 C145 0.929 . S
H198 C150 0.929 . S
H199 C151 0.930 . S
H200 C158 0.929 . S
H201 C159 0.930 . S
H202 C160 0.930 . S
H203 C161 0.930 . S
H204 C163 0.929 . S
H205 C164 0.930 . S
H206 C165 0.930 . S
H207 C166 0.930 . S
H208 C170 0.929 . S
H209 C172 0.930 . S
H210 C178 0.929 . S
H211 C179 0.930 . S
Li212 N229 1.990 . S
Li212 O272 1.956 1_655 S
Li212 O273 1.970 1_545 S
Li212 O274 1.961 1_545 S
Li213 N237 1.990 . S
Li213 O272 1.970 1_565 S
Li213 O273 1.956 1_455 S
Li213 O275 1.961 1_565 S
Li214 N259 1.990 . S
Li214 O272 1.961 1_655 S
Li214 O274 1.956 1_545 S
Li214 O275 1.970 1_655 S
Li215 N265 1.990 . S
Li215 O273 1.961 1_455 S
Li215 O274 1.970 1_455 S
Li215 O275 1.956 1_565 S
C216 C218 1.348 . S
C216 C219 1.356 1_455 S
C216 O272 1.325 . S
N217 C220 1.314 1_655 S
N217 C221 1.279 . S
C218 C216 1.348 . S
C218 C220 1.353 . S
C218 H276 0.929 . S
C219 C216 1.356 1_655 S
C219 C221 1.358 . S
C219 H277 0.930 . S
C220 N217 1.314 1_455 S
C220 C218 1.353 . S
C220 H278 0.930 . S
C221 N217 1.279 . S
C221 C219 1.358 . S
C221 H279 0.930 . S
C222 C225 1.348 1_455 S
C222 C226 1.356 . S
C222 O273 1.325 1_455 S
C223 N224 1.279 . S
C223 C226 1.358 . S
C223 H280 0.930 . S
N224 C223 1.279 . S
N224 C227 1.314 1_455 S
C225 C222 1.348 1_655 S
C225 C227 1.353 . S
C225 H281 0.929 . S
C226 C222 1.356 . S
C226 C223 1.358 . S
C226 H282 0.930 . S
C227 N224 1.314 1_655 S
C227 C225 1.353 . S
C227 H283 0.930 . S
C228 N229 1.314 1_565 S
C228 C233 1.353 . S
C228 H234 0.930 . S
N229 Li212 1.990 . S
N229 C228 1.314 1_545 S
N229 C231 1.279 . S
C230 C231 1.358 . S
C230 C232 1.356 . S
C230 H284 0.930 . S
C231 N229 1.279 . S
C231 C230 1.358 . S
C231 H235 0.930 . S
C232 C230 1.356 . S
C232 C233 1.348 1_545 S
C233 C228 1.353 . S
C233 C232 1.348 1_565 S
C233 H285 0.929 . S
H234 C228 0.930 . S
H235 C231 0.930 . S
C236 N237 1.314 1_545 S
C236 C238 1.353 . S
C236 H242 0.930 . S
N237 Li213 1.990 . S
N237 C236 1.314 1_565 S
N237 C240 1.279 . S
C238 C236 1.353 . S
C238 C241 1.348 . S
C238 H286 0.929 . S
C239 C240 1.358 . S
C239 C241 1.356 1_565 S
C239 H287 0.930 . S
C240 N237 1.279 . S
C240 C239 1.358 . S
C240 H243 0.930 . S
C241 C238 1.348 . S
C241 C239 1.356 1_545 S
H242 C236 0.930 . S
H243 C240 0.930 . S
C244 C246 1.348 1_545 S
C244 C247 1.356 . S
C244 O274 1.325 1_545 S
N245 C248 1.314 1_545 S
N245 C249 1.279 . S
C246 C244 1.348 1_565 S
C246 C248 1.353 . S
C246 H288 0.929 . S
C247 C244 1.356 . S
C247 C249 1.358 . S
C247 H289 0.930 . S
C248 N245 1.314 1_565 S
C248 C246 1.353 . S
C248 H290 0.930 . S
C249 N245 1.279 . S
C249 C247 1.358 . S
C249 H291 0.930 . S
C250 C251 1.348 . S
C250 C252 1.356 1_545 S
C250 O275 1.325 . S
C251 C250 1.348 . S
C251 C253 1.353 . S
C251 H292 0.929 . S
C252 C250 1.356 1_565 S
C252 C254 1.358 . S
C252 H293 0.930 . S
C253 C251 1.353 . S
C253 N255 1.314 1_545 S
C253 H294 0.930 . S
C254 C252 1.358 . S
C254 N255 1.279 . S
C254 H295 0.930 . S
N255 C253 1.314 1_565 S
N255 C254 1.279 . S
C256 C258 1.353 . S
C256 N259 1.314 1_455 S
C256 H262 0.930 . S
C257 N259 1.279 . S
C257 C260 1.358 . S
C257 H263 0.930 . S
C258 C256 1.353 . S
C258 C261 1.348 . S
C258 H296 0.929 . S
N259 Li214 1.990 . S
N259 C256 1.314 1_655 S
N259 C257 1.279 . S
C260 C257 1.358 . S
C260 C261 1.356 1_655 S
C260 H297 0.930 . S
C261 C258 1.348 . S
C261 C260 1.356 1_455 S
H262 C256 0.930 . S
H263 C257 0.930 . S
C264 N265 1.314 1_655 S
C264 C266 1.353 . S
C264 H270 0.930 . S
N265 Li215 1.990 . S
N265 C264 1.314 1_455 S
N265 C268 1.279 . S
C266 C264 1.353 . S
C266 C269 1.348 1_655 S
C266 H298 0.929 . S
C267 C268 1.358 . S
C267 C269 1.356 . S
C267 H299 0.930 . S
C268 N265 1.279 . S
C268 C267 1.358 . S
C268 H271 0.930 . S
C269 C266 1.348 1_455 S
C269 C267 1.356 . S
H270 C264 0.930 . S
H271 C268 0.930 . S
O272 Li212 1.956 1_455 S
O272 Li213 1.970 1_545 S
O272 Li214 1.961 1_455 S
O272 C216 1.325 . S
O273 Li212 1.970 1_565 S
O273 Li213 1.956 1_655 S
O273 Li215 1.961 1_655 S
O273 C222 1.325 1_655 S
O274 Li212 1.961 1_565 S
O274 Li214 1.956 1_565 S
O274 Li215 1.970 1_655 S
O274 C244 1.325 1_565 S
O275 Li213 1.961 1_545 S
O275 Li214 1.970 1_455 S
O275 Li215 1.956 1_545 S
O275 C250 1.325 . S
H276 C218 0.929 . S
H277 C219 0.930 . S
H278 C220 0.930 . S
H279 C221 0.930 . S
H280 C223 0.930 . S
H281 C225 0.929 . S
H282 C226 0.930 . S
H283 C227 0.930 . S
H284 C230 0.930 . S
H285 C233 0.929 . S
H286 C238 0.929 . S
H287 C239 0.930 . S
H288 C246 0.929 . S
H289 C247 0.930 . S
H290 C248 0.930 . S
H291 C249 0.930 . S
H292 C251 0.929 . S
H293 C252 0.930 . S
H294 C253 0.930 . S
H295 C254 0.930 . S
H296 C258 0.929 . S
H297 C260 0.930 . S
H298 C266 0.929 . S
H299 C267 0.930 . S
C300 C301 1.366 1_545 S
C300 C302 1.419 . S
C300 H304 0.930 . S
C301 C300 1.366 1_565 S
C301 C310 1.432 . S
C302 C300 1.419 . S
C302 C303 1.356 1_545 S
C302 H305 0.929 . S
C303 C302 1.356 1_565 S
C303 C309 1.437 . S
H304 C300 0.930 . S
H305 C302 0.929 . S
S306 N307 1.613 . S
S306 N308 1.610 . S
N307 S306 1.613 . S
N307 C310 1.350 . S
N308 S306 1.610 . S
N308 C309 1.351 . S
C309 C303 1.437 . S
C309 N308 1.351 . S
C309 C310 1.434 . S
C310 C301 1.432 . S
C310 N307 1.350 . S
C310 C309 1.434 . S
C311 C312 1.371 . S
C311 C313 1.419 . S
C311 H315 0.930 . S
C312 C311 1.371 . S
C312 C321 1.427 1_455 S
C313 C311 1.419 . S
C313 C314 1.367 . S
C313 H316 0.929 . S
C314 C313 1.367 . S
C314 C320 1.425 1_455 S
H315 C311 0.930 . S
H316 C313 0.929 . S
S317 N318 1.613 . S
S317 N319 1.610 . S
N318 S317 1.613 . S
N318 C321 1.350 . S
N319 S317 1.610 . S
N319 C320 1.351 . S
C320 C314 1.425 1_655 S
C320 N319 1.351 . S
C320 C321 1.434 . S
C321 C312 1.427 1_655 S
C321 N318 1.350 . S
C321 C320 1.434 . S
C322 C323 1.352 1_565 S
C322 C324 1.419 . S
C322 H326 0.930 . S
C323 C322 1.352 1_545 S
C323 C332 1.446 . S
C324 C322 1.419 . S
C324 C325 1.363 1_565 S
C324 H327 0.929 . S
C325 C324 1.363 1_545 S
C325 C331 1.428 . S
H326 C322 0.930 . S
H327 C324 0.929 . S
S328 N329 1.613 . S
S328 N330 1.610 . S
N329 S328 1.613 . S
N329 C332 1.350 . S
N330 S328 1.610 . S
N330 C331 1.351 . S
C331 C325 1.428 . S
C331 N330 1.351 . S
C331 C332 1.434 . S
C332 C323 1.446 . S
C332 N329 1.350 . S
C332 C331 1.434 . S
C333 C334 1.369 . S
C333 C335 1.419 . S
C333 H337 0.930 . S
C334 C333 1.369 . S
C334 C343 1.429 1_455 S
C335 C333 1.419 . S
C335 C336 1.361 1_455 S
C335 H338 0.929 . S
C336 C335 1.361 1_655 S
C336 C342 1.430 . S
H337 C333 0.930 . S
H338 C335 0.929 . S
S339 N340 1.613 . S
S339 N341 1.610 . S
N340 S339 1.613 . S
N340 C343 1.350 . S
N341 S339 1.610 . S
N341 C342 1.351 . S
C342 C336 1.430 . S
C342 N341 1.351 . S
C342 C343 1.434 . S
C343 C334 1.429 1_655 S
C343 N340 1.350 . S
C343 C342 1.434 . S
C344 C345 1.368 . S
C344 C346 1.419 . S
C344 H348 0.930 . S
C345 C344 1.368 . S
C345 C354 1.430 1_545 S
C346 C344 1.419 . S
C346 C347 1.375 . S
C346 H349 0.929 . S
C347 C346 1.375 . S
C347 C353 1.416 1_545 S
H348 C344 0.930 . S
H349 C346 0.929 . S
S350 N351 1.613 . S
S350 N352 1.610 . S
N351 S350 1.613 . S
N351 C354 1.350 . S
N352 S350 1.610 . S
N352 C353 1.351 . S
C353 C347 1.416 1_565 S
C353 N352 1.351 . S
C353 C354 1.434 . S
C354 C345 1.430 1_565 S
C354 N351 1.350 . S
C354 C353 1.434 . S
C355 C356 1.368 . S
C355 C357 1.419 . S
C355 H359 0.930 . S
C356 C355 1.368 . S
C356 C365 1.430 1_655 S
C357 C355 1.419 . S
C357 C358 1.370 . S
C357 H360 0.929 . S
C358 C357 1.370 . S
C358 C364 1.422 1_655 S
H359 C355 0.930 . S
H360 C357 0.929 . S
S361 N362 1.613 . S
S361 N363 1.610 . S
N362 S361 1.613 . S
N362 C365 1.350 . S
N363 S361 1.610 . S
N363 C364 1.351 . S
C364 C358 1.422 1_455 S
C364 N363 1.351 . S
C364 C365 1.434 . S
C365 C356 1.430 1_455 S
C365 N362 1.350 . S
C365 C364 1.434 . S
C366 C367 1.368 1_545 S
C366 C368 1.419 . S
C366 H370 0.930 . S
C367 C366 1.368 1_565 S
C367 C376 1.430 . S
C368 C366 1.419 . S
C368 C369 1.350 1_545 S
C368 H371 0.929 . S
C369 C368 1.350 1_565 S
C369 C375 1.441 . S
H370 C366 0.930 . S
H371 C368 0.929 . S
S372 N373 1.613 . S
S372 N374 1.610 . S
N373 S372 1.613 . S
N373 C376 1.350 . S
N374 S372 1.610 . S
N374 C375 1.351 . S
C375 C369 1.441 . S
C375 N374 1.351 . S
C375 C376 1.434 . S
C376 C367 1.430 . S
C376 N373 1.350 . S
C376 C375 1.434 . S
C377 C378 1.360 1_655 S
C377 C379 1.419 . S
C377 H381 0.930 . S
C378 C377 1.360 1_455 S
C378 C387 1.438 . S
C379 C377 1.419 . S
C379 C380 1.363 1_655 S
C379 H382 0.929 . S
C380 C379 1.363 1_455 S
C380 C386 1.428 . S
H381 C377 0.930 . S
H382 C379 0.929 . S
S383 N384 1.613 . S
S383 N385 1.610 . S
N384 S383 1.613 . S
N384 C387 1.350 . S
N385 S383 1.610 . S
N385 C386 1.351 . S
C386 C380 1.428 . S
C386 N385 1.351 . S
C386 C387 1.434 . S
C387 C378 1.438 . S
C387 N384 1.350 . S
C387 C386 1.434 . S
C303 C173 1.748 1_565 S
C301 C47 1.609 1_565 S
C314 C261 1.748 . S
C312 C109 1.610 1_455 S
C325 C181 1.749 . S
C323 C29 1.609 . S
C336 C269 1.750 1_655 S
C334 C91 1.603 1_455 S
C347 C241 1.392 . S
C345 C53 1.384 . S
C358 C144 1.393 1_655 S
C356 C115 1.384 . S
C369 C232 1.391 1_565 S
C367 C35 1.385 1_565 S
C378 C97 1.382 1_455 S
C380 C153 1.394 . S
