# Generated by pormake.
# Topology pth, (4,4)-cn, num edge types: 1
# Building blocks:
#     Node 0, Type 0, BuildingBlock: UXUYUI_clean_sbu_0, # of connection points: 4
#     Node 1, Type 0, BuildingBlock: UXUYUI_clean_sbu_0, # of connection points: 4
#     Node 2, Type 0, BuildingBlock: UXUYUI_clean_sbu_0, # of connection points: 4
#     Node 3, Type 1, BuildingBlock: NAWXER_clean_linker_0, # of connection points: 4
#     Node 4, Type 1, BuildingBlock: NAWXER_clean_linker_0, # of connection points: 4
#     Node 5, Type 1, BuildingBlock: NAWXER_clean_linker_0, # of connection points: 4
#     Edge 6, Type (0, 1), BuildingBlock: KIFKEQ_clean_linker_1, # of connection points: 2
#     Edge 7, Type (0, 1), BuildingBlock: KIFKEQ_clean_linker_1, # of connection points: 2
#     Edge 8, Type (0, 1), BuildingBlock: KIFKEQ_clean_linker_1, # of connection points: 2
#     Edge 9, Type (0, 1), BuildingBlock: KIFKEQ_clean_linker_1, # of connection points: 2
#     Edge 10, Type (0, 1), BuildingBlock: KIFKEQ_clean_linker_1, # of connection points: 2
#     Edge 11, Type (0, 1), BuildingBlock: KIFKEQ_clean_linker_1, # of connection points: 2
#     Edge 12, Type (0, 1), BuildingBlock: KIFKEQ_clean_linker_1, # of connection points: 2
#     Edge 13, Type (0, 1), BuildingBlock: KIFKEQ_clean_linker_1, # of connection points: 2
#     Edge 14, Type (0, 1), BuildingBlock: KIFKEQ_clean_linker_1, # of connection points: 2
#     Edge 15, Type (0, 1), BuildingBlock: KIFKEQ_clean_linker_1, # of connection points: 2
#     Edge 16, Type (0, 1), BuildingBlock: KIFKEQ_clean_linker_1, # of connection points: 2
#     Edge 17, Type (0, 1), BuildingBlock: KIFKEQ_clean_linker_1, # of connection points: 2
# Relax obj value: 0.074
# Max RMSD: 0.209
# Mean RMSD: 0.112
data_MOF--net-pth--node1-UXUYUI_clean_sbu_0--node2-NAWXER_clean_linker_0--edge1-KIFKEQ_clean_linker_1
_symmetry_space_group_name_H-M    P1
_symmetry_Int_Tables_number       1
_symmetry_cell_setting            triclinic
loop_
_symmetry_equiv_pos_as_xyz
'x, y, z'
_cell_length_a     34.893199
_cell_length_b     34.890342
_cell_length_c     79.011484
_cell_angle_alpha  90.005475
_cell_angle_beta   90.002027
_cell_angle_gamma 120.00662
loop_
_atom_site_label
_atom_site_type_symbol
_atom_site_fract_x
_atom_site_fract_y
_atom_site_fract_z
_atom_type_partial_charge
Li0 Li 0.03531 0.02894 0.04174 0.0
Li1 Li 0.98655 0.02748 0.06382 0.0
Li2 Li 0.00821 0.97242 0.0627 0.0
Li3 Li 0.95822 0.96974 0.04143 0.0
C4 C 0.07541 0.08012 0.07021 0.0
N5 N 0.13204 0.16813 0.07792 0.0
C6 C 0.07302 0.11336 0.06119 0.0
C7 C 0.10657 0.09167 0.08315 0.0
C8 C 0.10194 0.15764 0.06528 0.0
C9 C 0.13493 0.13635 0.08685 0.0
C10 C 0.94859 0.04227 0.03453 0.0
C11 C 0.87423 0.02863 0.03842 0.0
N12 N 0.88079 0.0576 0.02572 0.0
C13 C 0.95456 0.07182 0.0215 0.0
C14 C 0.90808 0.0204 0.04306 0.0
C15 C 0.91989 0.07917 0.01724 0.0
C16 C 0.06876 0.07004 0.01096 0.0
N17 N 0.08179 0.06621 0.02675 0.0
C18 C 0.15708 0.1186 0.02017 0.0
C19 C 0.12506 0.08904 0.03145 0.0
C20 C 0.14442 0.12432 0.00387 0.0
C21 C 0.09963 0.09888 -0.00075 0.0
H22 H 0.03414 0.05104 0.00755 0.0
H23 H 0.13462 0.08509 0.04405 0.0
C24 C 0.97956 0.05969 0.09547 0.0
N25 N 0.97662 0.06511 0.07858 0.0
C26 C 0.97846 0.08944 0.10703 0.0
C27 C 0.97157 0.13004 0.08358 0.0
C28 C 0.97268 0.09946 0.07249 0.0
C29 C 0.975 0.12555 0.1011 0.0
H30 H 0.98467 0.0333 0.09993 0.0
H31 H 0.97221 0.10435 0.05903 0.0
C32 C 0.04589 0.95813 0.03382 0.0
N33 N 0.11509 0.94488 0.02512 0.0
C34 C 0.04188 0.93137 0.02 0.0
C35 C 0.08512 0.97822 0.0432 0.0
C36 C 0.07723 0.92505 0.01581 0.0
C37 C 0.11971 0.9711 0.0386 0.0
C38 C 0.92792 0.92486 0.07552 0.0
C39 C 0.91622 0.88423 0.06795 0.0
C40 C 0.92112 0.92662 0.09287 0.0
C41 C 0.8983 0.84606 0.07792 0.0
C42 C 0.90315 0.8877 0.1024 0.0
N43 N 0.89225 0.84858 0.09479 0.0
C44 C 0.02897 0.94552 0.09337 0.0
C45 C 0.0141 0.89609 0.07048 0.0
C46 C 0.03091 0.91561 0.10461 0.0
N47 N 0.01995 0.93495 0.07674 0.0
C48 C 0.01582 0.86529 0.08124 0.0
C49 C 0.02339 0.87446 0.09863 0.0
H50 H 0.0327 0.97638 0.09803 0.0
H51 H 0.00607 0.88807 0.05727 0.0
C52 C 0.9219 0.93575 0.00996 0.0
N53 N 0.91126 0.93344 0.0266 0.0
C54 C 0.89051 0.90742 0.99828 0.0
C55 C 0.83748 0.87542 0.02106 0.0
C56 C 0.86979 0.90486 0.03227 0.0
C57 C 0.84784 0.87591 0.00381 0.0
H58 H 0.95515 0.95913 0.00584 0.0
H59 H 0.86215 0.90404 0.04557 0.0
O60 O 0.04718 0.03639 0.06665 0.0
O61 O 0.98223 0.03463 0.0387 0.0
O62 O 0.0115 0.96467 0.03795 0.0
O63 O 0.94666 0.96277 0.06604 0.0
H64 H 0.04919 0.10519 0.05113 0.0
H65 H 0.10873 0.06631 0.09027 0.0
H66 H 0.10044 0.18367 0.05841 0.0
H67 H 0.15921 0.14575 0.09684 0.0
H68 H 0.84275 0.01199 0.04493 0.0
H69 H 0.9857 0.08896 0.01476 0.0
H70 H 0.90278 0.99743 0.05318 0.0
H71 H 0.92407 0.10201 0.00719 0.0
H72 H 0.19111 0.13769 0.02436 0.0
H73 H 0.0884 0.10134 0.98673 0.0
H74 H 0.98213 0.08524 0.1204 0.0
H75 H 0.96877 0.15733 0.07846 0.0
H76 H 0.01173 0.91568 0.0126 0.0
H77 H 0.08891 0.99903 0.05394 0.0
H78 H 0.07458 0.9044 0.00515 0.0
H79 H 0.15024 0.98642 0.04575 0.0
H80 H 0.92186 0.88234 0.05459 0.0
H81 H 0.92972 0.95766 0.09893 0.0
H82 H 0.88952 0.81448 0.07225 0.0
H83 H 0.89791 0.88863 0.11585 0.0
H84 H 0.03632 0.92383 0.11794 0.0
H85 H 0.01035 0.83423 0.07604 0.0
H86 H 0.89984 0.90991 0.98508 0.0
H87 H 0.80528 0.85159 0.026 0.0
Li88 Li 0.98666 0.96135 0.37409 0.0
Li89 Li 0.03774 0.00558 0.39563 0.0
Li90 Li 0.96192 0.99168 0.39554 0.0
Li91 Li 0.01206 0.03896 0.37377 0.0
C92 C 0.94686 0.90822 0.40258 0.0
N93 N 0.87471 0.82723 0.41084 0.0
C94 C 0.94902 0.88418 0.41633 0.0
C95 C 0.90798 0.89111 0.39304 0.0
C96 C 0.9122 0.84327 0.42029 0.0
C97 C 0.87187 0.85011 0.39742 0.0
C98 C 0.06593 0.99149 0.3608 0.0
C99 C 0.08776 0.97958 0.33322 0.0
N100 N 0.09692 0.94923 0.34001 0.0
C101 C 0.07587 0.96041 0.36753 0.0
C102 C 0.07219 0.0014 0.34354 0.0
C103 C 0.09142 0.93934 0.3568 0.0
C104 C 0.96487 0.91651 0.34285 0.0
N105 N 0.97242 0.91249 0.35945 0.0
C106 C 0.97133 0.84461 0.35398 0.0
C107 C 0.97509 0.87717 0.36521 0.0
C108 C 0.96528 0.84873 0.33664 0.0
C109 C 0.96134 0.8849 0.33114 0.0
H110 H 0.96352 0.9453 0.33861 0.0
H111 H 0.98234 0.87536 0.37839 0.0
C112 C 0.07389 0.00559 0.42695 0.0
N113 N 0.08406 0.01327 0.41025 0.0
C114 C 0.10518 0.00775 0.43849 0.0
C115 C 0.15705 0.02628 0.41542 0.0
C116 C 0.12488 0.02429 0.40436 0.0
C117 C 0.14725 0.01741 0.43275 0.0
H118 H 0.04117 0.99724 0.43124 0.0
H119 H 0.13218 0.03067 0.39101 0.0
C120 C 0.92388 0.00731 0.36753 0.0
N121 N 0.87094 0.04348 0.36063 0.0
C122 C 0.92857 0.04341 0.37691 0.0
C123 C 0.89231 0.98966 0.35464 0.0
C124 C 0.90149 0.06121 0.37322 0.0
C125 C 0.86583 0.00838 0.35135 0.0
C126 C 0.05173 0.08897 0.40356 0.0
C127 C 0.04698 0.11284 0.41679 0.0
C128 C 0.0924 0.10609 0.39523 0.0
C129 C 0.08302 0.15363 0.42144 0.0
C130 C 0.12764 0.14697 0.40027 0.0
N131 N 0.12226 0.1697 0.41316 0.0
C132 C 0.92867 -0.00055 0.42648 0.0
C133 C 0.87273 0.96386 0.40571 0.0
C134 C 0.89768 0.99701 0.43822 0.0
N135 N 0.91586 0.98349 0.41055 0.0
C136 C 0.84061 0.96095 0.41703 0.0
C137 C 0.85299 0.97808 0.4335 0.0
H138 H 0.96317 0.01444 0.42999 0.0
H139 H 0.86334 0.9511 0.393 0.0
C140 C 0.01822 0.07941 0.34257 0.0
N141 N 0.02433 0.088 0.35943 0.0
C142 C 0.02055 0.11143 0.33133 0.0
C143 C 0.03558 0.16073 0.35503 0.0
C144 C 0.03285 0.12774 0.36579 0.0
C145 C 0.02878 0.15259 0.33755 0.0
H146 H 0.0096 0.04692 0.33792 0.0
H147 H 0.0358 0.13346 0.37926 0.0
O148 O 0.98266 0.94847 0.39871 0.0
O149 O 0.04939 0.01145 0.37103 0.0
O150 O 0.95032 0.98947 0.37067 0.0
O151 O 0.01677 0.04879 0.39903 0.0
H152 H 0.97887 0.89706 0.42386 0.0
H153 H 0.9056 0.90918 0.38237 0.0
H154 H 0.91341 0.8243 0.4309 0.0
H155 H 0.84159 0.83648 0.39015 0.0
H156 H 0.09249 0.98672 0.31982 0.0
H157 H 0.07067 0.95191 0.38082 0.0
H158 H 0.06491 0.02551 0.33813 0.0
H159 H 0.0988 0.91489 0.3618 0.0
H160 H 0.97527 0.81764 0.35871 0.0
H161 H 0.95642 0.88913 0.31788 0.0
H162 H 0.09632 0.00169 0.45174 0.0
H163 H 0.18876 0.03344 0.41034 0.0
H164 H 0.9528 0.05764 0.38692 0.0
H165 H 0.8884 0.96181 0.34724 0.0
H166 H 0.90478 0.08915 0.38037 0.0
H167 H 0.84126 0.99505 0.3414 0.0
H168 H 0.01573 0.09999 0.42338 0.0
H169 H 0.09678 0.08816 0.38496 0.0
H170 H 0.0798 0.1725 0.43165 0.0
H171 H 0.15928 0.16063 0.39393 0.0
H172 H 0.90867 0.00982 0.45086 0.0
H173 H 0.80667 0.94644 0.41276 0.0
H174 H 0.01415 0.10332 0.31802 0.0
H175 H 0.04217 0.19202 0.36038 0.0
Li176 Li 0.0269 0.98992 0.7078 0.0
Li177 Li 0.02594 0.0378 0.72945 0.0
Li178 Li 0.97011 0.95984 0.72922 0.0
Li179 Li 0.96892 0.00862 0.70805 0.0
C180 C 0.07782 0.00076 0.73682 0.0
N181 N 0.16492 0.0313 0.74577 0.0
C182 C 0.11211 0.03473 0.72755 0.0
C183 C 0.08782 0.98238 0.75065 0.0
C184 C 0.15592 0.0497 0.73227 0.0
C185 C 0.13207 0.99825 0.75497 0.0
C186 C 0.04027 0.09039 0.70087 0.0
C187 C 0.02774 0.15129 0.70628 0.0
N188 N 0.05444 0.17365 0.693 0.0
C189 C 0.06753 0.11394 0.68727 0.0
C190 C 0.02015 0.10916 0.71046 0.0
C191 C 0.07431 0.15601 0.6835 0.0
C192 C 0.06593 0.9947 0.67677 0.0
N193 N 0.06348 0.97969 0.69281 0.0
C194 C 0.11678 0.95783 0.68647 0.0
C195 C 0.0873 0.96048 0.69773 0.0
C196 C 0.1212 0.97445 0.66991 0.0
C197 C 0.09443 0.99215 0.66504 0.0
H198 H 0.04616 0.00936 0.67319 0.0
H199 H 0.08436 0.94828 0.71052 0.0
C200 C 0.05371 0.08134 0.76079 0.0
N201 N 0.06332 0.08572 0.74399 0.0
C202 C 0.08324 0.11259 0.7723 0.0
C203 C 0.13139 0.15276 0.74893 0.0
C204 C 0.10104 0.12076 0.7379 0.0
C205 C 0.12311 0.14851 0.76644 0.0
H206 H 0.02384 0.05268 0.76529 0.0
H207 H 0.10846 0.1231 0.72454 0.0
C208 C 0.95547 0.90839 0.70035 0.0
N209 N 0.94112 0.82531 0.69203 0.0
C210 C 0.9275 0.88493 0.6869 0.0
C211 C 0.97619 0.88962 0.70956 0.0
C212 C 0.92064 0.84295 0.6829 0.0
C213 C 0.9685 0.84758 0.70516 0.0
C214 C 0.91835 0.99666 0.73732 0.0
C215 C 0.88384 0.96354 0.72784 0.0
C216 C 0.90867 0.01417 0.75151 0.0
C217 C 0.84013 0.94853 0.73272 0.0
C218 C 0.86451 0.99829 0.75598 0.0
N219 N 0.83144 0.96607 0.74657 0.0
C220 C 0.94314 0.91392 0.76016 0.0
C221 C 0.89461 0.87705 0.73725 0.0
C222 C 0.91374 0.88194 0.77149 0.0
N223 N 0.93286 0.91117 0.74345 0.0
C224 C 0.86432 0.84443 0.74811 0.0
C225 C 0.87331 0.84704 0.76554 0.0
H226 H 0.97348 0.94186 0.76476 0.0
H227 H 0.88675 0.87596 0.72397 0.0
C228 C 0.92838 0.00431 0.67735 0.0
N229 N 0.9322 0.01963 0.69343 0.0
C230 C 0.89978 0.00778 0.66593 0.0
C231 C 0.88005 0.0434 0.68776 0.0
C232 C 0.90953 0.03978 0.69871 0.0
C233 C 0.8746 0.02683 0.67119 0.0
H234 H 0.94696 0.98856 0.67353 0.0
H235 H 0.91359 0.05218 0.71151 0.0
O236 O 0.03457 0.98592 0.73266 0.0
O237 O 0.03327 0.04908 0.70458 0.0
O238 O 0.96249 0.94959 0.7043 0.0
O239 O 0.96151 0.01158 0.73298 0.0
H240 H 0.10504 0.04942 0.71682 0.0
H241 H 0.06161 0.95618 0.758 0.0
H242 H 0.18277 0.07596 0.72521 0.0
H243 H 0.1403 0.98433 0.76566 0.0
H244 H 0.01241 0.16621 0.71359 0.0
H245 H 0.0833 0.09981 0.67972 0.0
H246 H -0.00101 0.09154 0.72104 0.0
H247 H 0.09536 0.17462 0.67302 0.0
H248 H 0.13686 0.94422 0.6909 0.0
H249 H 0.09569 0.00433 0.65233 0.0
H250 H 0.07574 0.10767 0.78569 0.0
H251 H 0.1614 0.18015 0.74382 0.0
H252 H 0.91125 0.89904 0.67964 0.0
H253 H 0.99789 0.90715 0.72003 0.0
H254 H 0.89905 0.82441 0.67252 0.0
H255 H 0.9843 0.83265 0.71218 0.0
H256 H 0.89067 0.94953 0.71683 0.0
H257 H 0.93505 0.03973 0.75901 0.0
H258 H 0.81311 0.92291 0.7255 0.0
H259 H 0.85652 0.01155 0.76694 0.0
H260 H 0.92178 0.88553 0.78485 0.0
H261 H 0.8338 0.81786 0.74294 0.0
H262 H 0.89625 0.99433 0.6533 0.0
H263 H 0.8615 0.0587 0.69221 0.0
C264 C 0.98014 0.3611 0.24761 0.0
C265 C 0.01438 0.37513 0.2596 0.0
C266 C 0.97675 0.39186 0.2373 0.0
C267 C 0.00791 0.43719 0.23862 0.0
C268 C 0.04525 0.42057 0.26097 0.0
C269 C 0.0419 0.45125 0.25064 0.0
C270 C 0.00441 0.47052 0.22816 0.0
C271 C 0.02764 0.38455 0.19168 0.0
C272 C 0.99259 0.36161 0.1802 0.0
C273 C 0.02985 0.41883 0.20159 0.0
C274 C 0.9969 0.43059 0.20028 0.0
C275 C 0.95994 0.37383 0.17882 0.0
C276 C 0.96226 0.40814 0.18868 0.0
C277 C -0.00106 0.46727 0.21039 0.0
C278 C 0.03394 0.64906 0.192 0.0
C279 C 0.00411 0.63877 0.17849 0.0
C280 C 0.03181 0.61561 0.20236 0.0
C281 C -0.00051 0.57118 0.19956 0.0
C282 C 0.97194 0.59424 0.17566 0.0
C283 C 0.96986 0.56077 0.18603 0.0
C284 C 0.99826 0.53534 0.21004 0.0
C285 C 0.95975 0.61102 0.24528 0.0
C286 C 0.99013 0.63341 0.25838 0.0
C287 C 0.96377 0.58028 0.23523 0.0
C288 C 0.99839 0.57146 0.23801 0.0
C289 C 0.02469 0.62443 0.26117 0.0
C290 C 0.02854 0.59346 0.25117 0.0
C291 C 0.0017 0.53753 0.22787 0.0
H292 H 0.95535 0.32643 0.24645 0.0
H293 H 0.9494 0.38027 0.22849 0.0
H294 H 0.07224 0.43244 0.26996 0.0
H295 H 0.06613 0.48607 0.25197 0.0
H296 H 0.05323 0.37585 0.19307 0.0
H297 H 0.05747 0.43635 0.21018 0.0
H298 H 0.93296 0.35737 0.16989 0.0
H299 H 0.93677 0.41703 0.18732 0.0
H300 H 0.05896 0.68302 0.19458 0.0
H301 H 0.05592 0.62448 0.21241 0.0
H302 H 0.94892 0.58513 0.16521 0.0
H303 H 0.94505 0.5267 0.18348 0.0
H304 H 0.9329 0.61736 0.24278 0.0
H305 H 0.93941 0.56293 0.22544 0.0
H306 H 0.04824 0.6407 0.27131 0.0
H307 H 0.05516 0.58676 0.25367 0.0
N308 N 0.00538 0.50545 0.2362 0.0
N309 N 0.99628 0.49992 0.20202 0.0
C310 C 0.64022 0.01811 0.52382 0.0
C311 C 0.62726 0.9824 0.51257 0.0
C312 C 0.60896 0.02089 0.53402 0.0
C313 C 0.56419 0.98792 0.53325 0.0
C314 C 0.58234 0.94942 0.5119 0.0
C315 C 0.55113 0.95237 0.52203 0.0
C316 C 0.53032 0.9912 0.54337 0.0
C317 C 0.61581 0.97142 0.58145 0.0
C318 C 0.63978 0.00871 0.59184 0.0
C319 C 0.58154 0.96793 0.57119 0.0
C320 C 0.57057 0.00154 0.57125 0.0
C321 C 0.62885 0.04237 0.59179 0.0
C322 C 0.59424 0.03858 0.58171 0.0
C323 C 0.53335 0.99765 0.56104 0.0
C324 C 0.34953 0.96022 0.57842 0.0
C325 C 0.35956 0.98833 0.59251 0.0
C326 C 0.38326 0.96255 0.56816 0.0
C327 C 0.42776 0.99386 0.57148 0.0
C328 C 0.40423 0.01892 0.59601 0.0
C329 C 0.43788 0.02162 0.58562 0.0
C330 C 0.46408 0.99592 0.56103 0.0
C331 C 0.38466 0.02875 0.52532 0.0
C332 C 0.36717 0.00092 0.51117 0.0
C333 C 0.41546 0.02597 0.53579 0.0
C334 C 0.42843 0.99442 0.53258 0.0
C335 C 0.38074 0.96997 0.50777 0.0
C336 C 0.41105 0.96676 0.51838 0.0
C337 C 0.46241 0.99223 0.54316 0.0
H338 H 0.67434 0.04454 0.52444 0.0
H339 H 0.61965 0.04927 0.54226 0.0
H340 H 0.57124 0.92116 0.50357 0.0
H341 H 0.5167 0.92667 0.52119 0.0
H342 H 0.62365 0.94506 0.58125 0.0
H343 H 0.56321 0.93873 0.5634 0.0
H344 H 0.64644 0.07119 0.59982 0.0
H345 H 0.586 0.06468 0.58202 0.0
H346 H 0.31558 0.93645 0.57522 0.0
H347 H 0.37446 0.93953 0.55773 0.0
H348 H 0.4134 0.0404 0.60696 0.0
H349 H 0.47195 0.04548 0.58866 0.0
H350 H 0.37535 0.05344 0.52805 0.0
H351 H 0.42965 0.04904 0.54621 0.0
H352 H 0.36763 0.94802 0.49697 0.0
H353 H 0.42092 0.94256 0.51549 0.0
N354 N 0.49517 0.9891 0.5351 0.0
N355 N 0.49998 -0.00061 0.5692 0.0
C356 C 0.37947 0.35278 0.85835 0.0
C357 C 0.3587 0.36573 0.84618 0.0
C358 C 0.41399 0.38443 0.86829 0.0
C359 C 0.42806 0.4296 0.8664 0.0
C360 C 0.37334 0.41105 0.84419 0.0
C361 C 0.40777 0.44261 0.85414 0.0
C362 C 0.46494 0.46381 0.8766 0.0
C363 C 0.3568 0.38087 0.914 0.0
C364 C 0.36909 0.35793 0.9254 0.0
C365 C 0.38856 0.41443 0.90377 0.0
C366 C 0.43313 0.42555 0.90474 0.0
C367 C 0.41377 0.3693 0.92637 0.0
C368 C 0.44553 0.40305 0.91623 0.0
C369 C 0.4674 0.46175 0.8944 0.0
C370 C 0.6124 0.64618 0.9114 0.0
C371 C 0.62957 0.63674 0.92588 0.0
C372 C 0.58196 0.61195 0.90107 0.0
C373 C 0.56903 0.56765 0.90474 0.0
C374 C 0.61608 0.59246 0.92972 0.0
C375 C 0.58612 0.55827 0.91925 0.0
C376 C 0.53521 0.5308 0.89434 0.0
C377 C 0.64839 0.6092 0.85884 0.0
C378 C 0.63865 0.62896 0.84526 0.0
C379 C 0.61452 0.5778 0.86906 0.0
C380 C 0.57024 0.56588 0.86602 0.0
C381 C 0.59423 0.61652 0.84213 0.0
C382 C 0.56038 0.58514 0.85235 0.0
C383 C 0.53389 0.53177 0.87646 0.0
H384 H 0.36893 0.31816 0.86026 0.0
H385 H 0.42991 0.37357 0.87733 0.0
H386 H 0.35872 0.42226 0.83472 0.0
H387 H 0.41845 0.47731 0.85231 0.0
H388 H 0.32259 0.37272 0.91295 0.0
H389 H 0.37839 0.43196 0.89522 0.0
H390 H 0.42431 0.35264 0.93519 0.0
H391 H 0.47983 0.41148 0.9173 0.0
H392 H 0.62164 0.67998 0.90833 0.0
H393 H 0.56792 0.62018 0.89041 0.0
H394 H 0.62894 0.5843 0.94078 0.0
H395 H 0.57626 0.5244 0.9225 0.0
H396 H 0.68225 0.61815 0.86164 0.0
H397 H 0.62293 0.56256 0.87924 0.0
H398 H 0.5855 0.6305 0.83159 0.0
H399 H 0.52644 0.57602 0.84961 0.0
N400 N 0.49842 0.49864 0.86834 0.0
N401 N 0.50228 0.4954 0.90256 0.0
H402 H 0.93421 0.11257 0.1319 0.0
H403 H 0.02123 0.21541 0.09733 0.0
H404 H 0.93937 0.16879 0.1517 0.0
H405 H 0.02534 0.27142 0.11685 0.0
H406 H 0.06032 0.36048 0.1632 0.0
H407 H 0.05629 0.30255 0.14471 0.0
H408 H 0.91564 0.22426 0.15384 0.0
H409 H 0.91991 0.28164 0.17273 0.0
C410 C 0.95441 0.14715 0.12854 0.0
C411 C 0.97717 0.15951 0.11302 0.0
C412 C 0.95707 0.17933 0.1398 0.0
C413 C 0.9828 0.22457 0.13585 0.0
C414 C 0.00562 0.23688 0.12036 0.0
C415 C 0.0028 0.20475 0.10907 0.0
C416 C 0.02866 0.33066 0.16144 0.0
C417 C 0.99042 0.3257 0.16941 0.0
C418 C 0.02625 0.29768 0.1507 0.0
C419 C 0.9856 0.25891 0.14774 0.0
C420 C 0.94751 0.25359 0.15595 0.0
C421 C 0.94988 0.28665 0.16663 0.0
H422 H 0.86381 0.04228 0.4561 0.0
H423 H 0.76688 0.91216 0.4382 0.0
H424 H 0.80945 0.04157 0.47561 0.0
H425 H 0.71226 0.91197 0.45755 0.0
H426 H 0.61677 0.95561 0.47946 0.0
H427 H 0.67097 0.95272 0.46088 0.0
H428 H 0.76697 0.00188 0.50136 0.0
H429 H 0.71253 0.00406 0.52012 0.0
C430 C 0.83109 0.01329 0.45644 0.0
C431 C 0.81982 0.97723 0.44557 0.0
C432 C 0.79991 0.01296 0.46762 0.0
C433 C 0.7566 0.97673 0.46812 0.0
C434 C 0.74525 0.9406 0.4573 0.0
C435 C 0.77654 0.94079 0.44619 0.0
C436 C 0.64919 0.96518 0.48451 0.0
C437 C 0.66023 0.98005 0.50132 0.0
C438 C 0.68027 0.96358 0.47383 0.0
C439 C 0.72322 0.97709 0.47966 0.0
C440 C 0.73428 0.99179 0.49645 0.0
C441 C 0.70311 0.99313 0.50718 0.0
H442 H 0.88642 0.80717 0.79313 0.0
H443 H 0.78406 0.81456 0.76505 0.0
H444 H 0.83084 0.75571 0.81303 0.0
H445 H 0.72855 0.76214 0.78452 0.0
H446 H 0.6476 0.70597 0.83256 0.0
H447 H 0.70503 0.75888 0.81372 0.0
H448 H 0.76839 0.67959 0.81412 0.0
H449 H 0.71087 0.62657 0.83296 0.0
C450 C 0.85209 0.79778 0.79119 0.0
C451 C 0.83967 0.81485 0.77747 0.0
C452 C 0.82021 0.768 0.8025 0.0
C453 C 0.77527 0.75486 0.80037 0.0
C454 C 0.76293 0.77195 0.78664 0.0
C455 C 0.79471 0.80157 0.77534 0.0
C456 C 0.67363 0.69968 0.82855 0.0
C457 C 0.67452 0.66194 0.83421 0.0
C458 C 0.70656 0.73001 0.81776 0.0
C459 C 0.74119 0.72335 0.81235 0.0
C460 C 0.74248 0.68597 0.81821 0.0
C461 C 0.7095 0.65559 0.82901 0.0
H462 H 0.07705 0.8862 0.12583 0.0
H463 H 0.96429 0.78565 0.09844 0.0
H464 H 0.07195 0.83012 0.14565 0.0
H465 H 0.96029 0.72949 0.11779 0.0
H466 H 0.93625 0.64815 0.16581 0.0
H467 H 0.94114 0.70563 0.14688 0.0
H468 H 0.08366 0.76699 0.14663 0.0
H469 H 0.07876 0.7096 0.1656 0.0
C470 C 0.05124 0.85215 0.12403 0.0
C471 C 0.02122 0.8404 0.11051 0.0
C472 C 0.04857 0.81994 0.13528 0.0
C473 C 0.01572 0.77529 0.1333 0.0
C474 C 0.98569 0.76362 0.11979 0.0
C475 C 0.98838 0.79576 0.10855 0.0
C476 C 0.9686 0.67377 0.16163 0.0
C477 C 0.0071 0.67425 0.1672 0.0
C478 C 0.97142 0.70672 0.15078 0.0
C479 C 0.0128 0.74088 0.1452 0.0
C480 C 0.05131 0.74154 0.15088 0.0
C481 C 0.04849 0.70862 0.16175 0.0
H482 H 0.23781 0.07108 0.43275 0.0
H483 H 0.13127 0.962 0.45977 0.0
H484 H 0.29131 0.06776 0.45171 0.0
H485 H 0.18478 0.96008 0.479 0.0
H486 H 0.29339 0.00433 0.52011 0.0
H487 H 0.24059 0.00999 0.50134 0.0
H488 H 0.31661 0.01164 0.45795 0.0
H489 H 0.36938 0.006 0.4767 0.0
C490 C 0.2257 0.04634 0.44266 0.0
C491 C 0.18006 0.01681 0.44467 0.0
C492 C 0.2564 0.04461 0.45355 0.0
C493 C 0.24213 0.01372 0.46682 0.0
C494 C 0.19663 0.98461 0.46901 0.0
C495 C 0.16598 0.98593 0.45801 0.0
C496 C 0.29885 0.00612 0.50656 0.0
C497 C 0.33535 0.00463 0.49983 0.0
C498 C 0.26857 0.00908 0.49584 0.0
C499 C 0.27458 0.01128 0.47821 0.0
C500 C 0.31138 0.01033 0.4715 0.0
C501 C 0.34131 0.00673 0.4822 0.0
H502 H 0.10986 0.18419 0.7953 0.0
H503 H 0.21282 0.18402 0.76498 0.0
H504 H 0.16556 0.23475 0.81533 0.0
H505 H 0.26843 0.23585 0.78453 0.0
H506 H 0.35343 0.29232 0.83133 0.0
H507 H 0.29534 0.23873 0.8129 0.0
H508 H 0.22513 0.31103 0.81734 0.0
H509 H 0.28231 0.36357 0.83638 0.0
C510 C 0.14434 0.19496 0.7929 0.0
C511 C 0.15685 0.18016 0.77849 0.0
C512 C 0.1763 0.22428 0.80428 0.0
C513 C 0.22149 0.23935 0.80155 0.0
C514 C 0.23392 0.22451 0.78715 0.0
C515 C 0.20203 0.19525 0.77579 0.0
C516 C 0.32529 0.29643 0.82859 0.0
C517 C 0.32261 0.33232 0.83532 0.0
C518 C 0.29223 0.266 0.81785 0.0
C519 C 0.25569 0.27072 0.81354 0.0
C520 C 0.25263 0.30619 0.82049 0.0
C521 C 0.28569 0.33662 0.83125 0.0
H522 H 0.88532 0.05266 0.63806 0.0
H523 H 0.78876 0.00149 0.67832 0.0
H524 H 0.82893 0.04911 0.61863 0.0
H525 H 0.73246 0.99797 0.65892 0.0
H526 H 0.63622 0.94581 0.61329 0.0
H527 H 0.69389 0.95201 0.63258 0.0
H528 H 0.7809 0.08542 0.61518 0.0
H529 H 0.72314 0.07923 0.59587 0.0
C530 C 0.85209 0.04084 0.64274 0.0
C531 C 0.84137 0.02738 0.65967 0.0
C532 C 0.81995 0.03903 0.63167 0.0
C533 C 0.77634 0.02307 0.63728 0.0
C534 C 0.76575 0.01004 0.65425 0.0
C535 C 0.79802 0.01244 0.66537 0.0
C536 C 0.66778 0.97632 0.61351 0.0
C537 C 0.67529 0.01203 0.6031 0.0
C538 C 0.70059 0.98 0.62464 0.0
C539 C 0.74174 0.01926 0.6254 0.0
C540 C 0.74952 0.05474 0.61479 0.0
C541 C 0.71646 0.05128 0.60383 0.0
H542 H 0.86397 0.83532 0.97724 0.0
H543 H 0.75738 0.84028 0.00322 0.0
H544 H 0.8107 0.77959 0.95806 0.0
H545 H 0.70406 0.78305 0.98432 0.0
H546 H 0.62628 0.64154 0.96027 0.0
H547 H 0.67846 0.70104 0.9788 0.0
H548 H 0.75562 0.77314 0.93526 0.0
H549 H 0.70341 0.71362 0.91671 0.0
C550 C 0.82931 0.82506 0.97877 0.0
C551 C 0.81515 0.84262 0.99181 0.0
C552 C 0.79879 0.7929 0.9678 0.0
C553 C 0.75331 0.77701 0.96973 0.0
C554 C 0.73896 0.79444 0.98268 0.0
C555 C 0.76954 0.8271 0.99353 0.0
C556 C 0.65446 0.67008 0.95469 0.0
C557 C 0.66095 0.67297 0.93708 0.0
C558 C 0.68404 0.70424 0.96526 0.0
C559 C 0.721 0.74165 0.95845 0.0
C560 C 0.72749 0.74454 0.94084 0.0
C561 C 0.69756 0.71067 0.93024 0.0
H562 H 0.92306 0.75848 0.33907 0.0
H563 H 0.00952 0.86726 0.30657 0.0
H564 H 0.92832 0.70668 0.31971 0.0
H565 H 0.01405 0.81541 0.28703 0.0
H566 H 0.05499 0.71501 0.26892 0.0
H567 H 0.04723 0.76693 0.28735 0.0
H568 H 0.90648 0.67629 0.29066 0.0
H569 H 0.91438 0.62398 0.27251 0.0
C570 C 0.94295 0.77125 0.32773 0.0
C571 C 0.96584 0.8169 0.32433 0.0
C572 C 0.9457 0.74159 0.31659 0.0
C573 C 0.97168 0.757 0.30187 0.0
C574 C 0.9941 0.8026 0.29835 0.0
C575 C 0.9911 0.83221 0.30943 0.0
C576 C 0.02244 0.70613 0.27365 0.0
C577 C 0.98531 0.66541 0.26928 0.0
C578 C 0.01792 0.73602 0.28406 0.0
C579 C 0.97622 0.72571 0.29043 0.0
C580 C 0.93908 0.68502 0.28604 0.0
C581 C 0.94355 0.65527 0.27553 0.0
H582 H 0.14761 0.91255 0.66639 0.0
H583 H 0.17121 0.03796 0.64649 0.0
H584 H 0.20515 0.91598 0.64801 0.0
H585 H 0.22606 0.03963 0.62724 0.0
H586 H 0.35551 0.05629 0.60825 0.0
H587 H 0.29839 0.05181 0.62701 0.0
H588 H 0.22334 0.91007 0.61974 0.0
H589 H 0.28217 0.91417 0.60199 0.0
C590 C 0.16485 0.94076 0.65806 0.0
C591 C 0.15464 0.975 0.65802 0.0
C592 C 0.19748 0.94242 0.64731 0.0
C593 C 0.22047 0.97814 0.6361 0.0
C594 C 0.20969 0.01195 0.63587 0.0
C595 C 0.17751 0.01057 0.64675 0.0
C596 C 0.3272 0.02404 0.61084 0.0
C597 C 0.32371 0.9856 0.60359 0.0
C598 C 0.29396 0.02153 0.62141 0.0
C599 C 0.25596 0.98058 0.62488 0.0
C600 C 0.2523 0.94214 0.61755 0.0
C601 C 0.28583 0.94459 0.60712 0.0
H602 H 0.13259 0.17846 0.98204 0.0
H603 H 0.23088 0.14594 -0.00125 0.0
H604 H 0.18582 0.2328 0.96255 0.0
H605 H 0.28505 0.20237 0.97994 0.0
H606 H 0.35869 0.27642 0.93217 0.0
H607 H 0.30422 0.21917 0.95073 0.0
H608 H 0.25045 0.30389 0.96265 0.0
H609 H 0.30426 0.36052 0.94381 0.0
C610 C 0.16552 0.18273 0.98153 0.0
C611 C 0.17729 0.15756 0.99195 0.0
C612 C 0.19631 0.21447 0.97051 0.0
C613 C 0.23987 0.22222 0.9697 0.0
C614 C 0.25168 0.19698 0.98008 0.0
C615 C 0.22074 0.16499 0.99104 0.0
C616 C 0.33524 0.28274 0.93881 0.0
C617 C 0.33564 0.32288 0.93651 0.0
C618 C 0.30412 0.25002 0.94949 0.0
C619 C 0.27287 0.25683 0.95821 0.0
C620 C 0.27343 0.2971 0.9559 0.0
C621 C 0.30432 0.32964 0.94513 0.0
H622 H 0.063 0.1756 0.30548 0.0
H623 H 0.99205 0.20457 0.34348 0.0
H624 H 0.06013 0.22937 0.28651 0.0
H625 H 0.98938 0.25828 0.32459 0.0
H626 H 0.03307 0.38325 0.29345 0.0
H627 H 0.03838 0.33039 0.31203 0.0
H628 H 0.00634 0.23996 0.27008 0.0
H629 H 0.00249 0.29359 0.25132 0.0
C630 C 0.04665 0.19328 0.30976 0.0
C631 C 0.02799 0.18594 0.32605 0.0
C632 C 0.04497 0.22406 0.29889 0.0
C633 C 0.02463 0.2482 0.30405 0.0
C634 C 0.00599 0.24082 0.32033 0.0
C635 C 0.0076 0.21006 0.33118 0.0
C636 C 0.02764 0.35231 0.28814 0.0
C637 C 0.01743 0.34268 0.27089 0.0
C638 C 0.0302 0.32179 0.29883 0.0
C639 C 0.02267 0.2809 0.29255 0.0
C640 C 0.01271 0.27133 0.27528 0.0
C641 C 0.01002 0.30184 0.26458 0.0
loop_
_geom_bond_atom_site_label_1
_geom_bond_atom_site_label_2
_geom_bond_distance
_geom_bond_site_symmetry_2
_ccdc_geom_bond_type
Li0 N17 1.990 . S
Li0 O60 1.956 . S
Li0 O61 1.970 1_455 S
Li0 O62 1.961 1_545 S
Li1 N25 1.990 . S
Li1 O60 1.970 1_655 S
Li1 O61 1.956 . S
Li1 O63 1.961 1_545 S
Li2 N47 1.990 . S
Li2 O60 1.961 1_565 S
Li2 O62 1.956 . S
Li2 O63 1.970 1_455 S
Li3 N53 1.990 . S
Li3 O61 1.961 1_565 S
Li3 O62 1.970 1_655 S
Li3 O63 1.956 . S
C4 C6 1.348 . S
C4 C7 1.356 . S
C4 O60 1.325 . S
N5 C8 1.314 . S
N5 C9 1.279 . S
C6 C4 1.348 . S
C6 C8 1.353 . S
C6 H64 0.929 . S
C7 C4 1.356 . S
C7 C9 1.358 . S
C7 H65 0.930 . S
C8 N5 1.314 . S
C8 C6 1.353 . S
C8 H66 0.930 . S
C9 N5 1.279 . S
C9 C7 1.358 . S
C9 H67 0.930 . S
C10 C13 1.348 1_655 S
C10 C14 1.356 . S
C10 O61 1.325 . S
C11 N12 1.279 . S
C11 C14 1.358 . S
C11 H68 0.930 . S
N12 C11 1.279 . S
N12 C15 1.314 . S
C13 C10 1.348 1_455 S
C13 C15 1.353 1_455 S
C13 H69 0.929 . S
C14 C10 1.356 . S
C14 C11 1.358 . S
C14 H70 0.930 . S
C15 N12 1.314 . S
C15 C13 1.353 1_655 S
C15 H71 0.930 1_655 S
C16 N17 1.314 . S
C16 C21 1.391 . S
C16 H22 0.930 . S
N17 Li0 1.990 . S
N17 C16 1.314 . S
N17 C19 1.279 . S
C18 C19 1.358 . S
C18 C20 1.356 . S
C18 H72 0.930 . S
C19 N17 1.279 . S
C19 C18 1.358 . S
C19 H23 0.930 . S
C20 C18 1.356 . S
C20 C21 1.367 . S
C21 C16 1.391 . S
C21 C20 1.367 . S
C21 H73 0.875 1_554 S
H22 C16 0.930 . S
H23 C19 0.930 . S
C24 N25 1.314 . S
C24 C26 1.353 . S
C24 H30 0.930 . S
N25 Li1 1.990 . S
N25 C24 1.314 . S
N25 C28 1.279 . S
C26 C24 1.353 . S
C26 C29 1.348 . S
C26 H74 0.929 . S
C27 C28 1.358 . S
C27 C29 1.356 . S
C27 H75 0.930 . S
C28 N25 1.279 . S
C28 C27 1.358 . S
C28 H31 0.930 . S
C29 C26 1.348 . S
C29 C27 1.356 . S
H30 C24 0.930 . S
H31 C28 0.930 . S
C32 C34 1.348 1_455 S
C32 C35 1.356 . S
C32 O62 1.325 . S
N33 C36 1.314 . S
N33 C37 1.279 . S
C34 C32 1.348 1_655 S
C34 C36 1.353 1_655 S
C34 H76 0.929 . S
C35 C32 1.356 . S
C35 C37 1.358 . S
C35 H77 0.930 . S
C36 N33 1.314 . S
C36 C34 1.353 1_455 S
C36 H78 0.930 1_455 S
C37 N33 1.279 . S
C37 C35 1.358 . S
C37 H79 0.930 . S
C38 C39 1.348 . S
C38 C40 1.356 . S
C38 O63 1.325 . S
C39 C38 1.348 . S
C39 C41 1.353 . S
C39 H80 0.929 . S
C40 C38 1.356 . S
C40 C42 1.358 . S
C40 H81 0.930 . S
C41 C39 1.353 . S
C41 N43 1.314 . S
C41 H82 0.930 . S
C42 C40 1.358 . S
C42 N43 1.279 . S
C42 H83 0.930 . S
N43 C41 1.314 . S
N43 C42 1.279 . S
C44 C46 1.353 . S
C44 N47 1.314 . S
C44 H50 0.930 . S
C45 N47 1.279 . S
C45 C48 1.358 . S
C45 H51 0.930 . S
C46 C44 1.353 . S
C46 C49 1.348 . S
C46 H84 0.929 . S
N47 Li2 1.990 . S
N47 C44 1.314 . S
N47 C45 1.279 . S
C48 C45 1.358 . S
C48 C49 1.356 . S
C48 H85 0.930 . S
C49 C46 1.348 . S
C49 C48 1.356 . S
H50 C44 0.930 . S
H51 C45 0.930 . S
C52 N53 1.314 . S
C52 C54 1.391 . S
C52 H58 0.930 . S
N53 Li3 1.990 . S
N53 C52 1.314 . S
N53 C56 1.279 . S
C54 C52 1.391 . S
C54 C57 1.367 . S
C54 H86 0.875 1_554 S
C55 C56 1.358 . S
C55 C57 1.356 . S
C55 H87 0.930 . S
C56 N53 1.279 . S
C56 C55 1.358 . S
C56 H59 0.930 . S
C57 C54 1.367 . S
C57 C55 1.356 . S
H58 C52 0.930 . S
H59 C56 0.930 . S
O60 Li0 1.956 . S
O60 Li1 1.970 1_455 S
O60 Li2 1.961 1_545 S
O60 C4 1.325 . S
O61 Li0 1.970 1_655 S
O61 Li1 1.956 . S
O61 Li3 1.961 1_545 S
O61 C10 1.325 . S
O62 Li0 1.961 1_565 S
O62 Li2 1.956 . S
O62 Li3 1.970 1_455 S
O62 C32 1.325 . S
O63 Li1 1.961 1_565 S
O63 Li2 1.970 1_655 S
O63 Li3 1.956 . S
O63 C38 1.325 . S
H64 C6 0.929 . S
H65 C7 0.930 . S
H66 C8 0.930 . S
H67 C9 0.930 . S
H68 C11 0.930 . S
H69 C13 0.929 . S
H70 C14 0.930 . S
H71 C15 0.930 1_455 S
H72 C18 0.930 . S
H73 C21 0.875 1_556 S
H74 C26 0.929 . S
H75 C27 0.930 . S
H76 C34 0.929 . S
H77 C35 0.930 . S
H78 C36 0.930 1_655 S
H79 C37 0.930 . S
H80 C39 0.929 . S
H81 C40 0.930 . S
H82 C41 0.930 . S
H83 C42 0.930 . S
H84 C46 0.929 . S
H85 C48 0.930 . S
H86 C54 0.875 1_556 S
H87 C55 0.930 . S
Li88 N105 1.990 . S
Li88 O148 1.956 . S
Li88 O149 1.970 1_665 S
Li88 O150 1.961 . S
Li89 N113 1.990 . S
Li89 O148 1.970 1_445 S
Li89 O149 1.956 . S
Li89 O151 1.961 . S
Li90 N135 1.990 . S
Li90 O148 1.961 . S
Li90 O150 1.956 . S
Li90 O151 1.970 1_665 S
Li91 N141 1.990 . S
Li91 O149 1.961 . S
Li91 O150 1.970 1_445 S
Li91 O151 1.956 . S
C92 C94 1.348 1_655 S
C92 C95 1.356 . S
C92 O148 1.325 . S
N93 C96 1.314 . S
N93 C97 1.279 . S
C94 C92 1.348 1_455 S
C94 C96 1.353 1_455 S
C94 H152 0.929 . S
C95 C92 1.356 . S
C95 C97 1.358 . S
C95 H153 0.930 . S
C96 N93 1.314 . S
C96 C94 1.353 1_655 S
C96 H154 0.930 1_655 S
C97 N93 1.279 . S
C97 C95 1.358 . S
C97 H155 0.930 . S
C98 C101 1.348 1_545 S
C98 C102 1.356 . S
C98 O149 1.325 . S
C99 N100 1.279 . S
C99 C102 1.358 . S
C99 H156 0.930 . S
N100 C99 1.279 . S
N100 C103 1.314 . S
C101 C98 1.348 1_565 S
C101 C103 1.353 1_565 S
C101 H157 0.929 . S
C102 C98 1.356 . S
C102 C99 1.358 . S
C102 H158 0.930 . S
C103 N100 1.314 . S
C103 C101 1.353 1_545 S
C103 H159 0.930 1_545 S
C104 N105 1.314 . S
C104 C109 1.353 . S
C104 H110 0.930 . S
N105 Li88 1.990 . S
N105 C104 1.314 . S
N105 C107 1.279 . S
C106 C107 1.358 . S
C106 C108 1.356 . S
C106 H160 0.930 . S
C107 N105 1.279 . S
C107 C106 1.358 . S
C107 H111 0.930 . S
C108 C106 1.356 . S
C108 C109 1.348 . S
C109 C104 1.353 . S
C109 C108 1.348 . S
C109 H161 0.929 . S
H110 C104 0.930 . S
H111 C107 0.930 . S
C112 N113 1.314 . S
C112 C114 1.353 . S
C112 H118 0.930 . S
N113 Li89 1.990 . S
N113 C112 1.314 . S
N113 C116 1.279 . S
C114 C112 1.353 . S
C114 C117 1.348 . S
C114 H162 0.929 . S
C115 C116 1.358 . S
C115 C117 1.356 . S
C115 H163 0.930 . S
C116 N113 1.279 . S
C116 C115 1.358 . S
C116 H119 0.930 . S
C117 C114 1.348 . S
C117 C115 1.356 . S
H118 C112 0.930 . S
H119 C116 0.930 . S
C120 C122 1.348 1_565 S
C120 C123 1.356 . S
C120 O150 1.325 . S
N121 C124 1.314 . S
N121 C125 1.279 . S
C122 C120 1.348 1_545 S
C122 C124 1.353 1_545 S
C122 H164 0.929 . S
C123 C120 1.356 . S
C123 C125 1.358 . S
C123 H165 0.930 . S
C124 N121 1.314 . S
C124 C122 1.353 1_565 S
C124 H166 0.930 1_565 S
C125 N121 1.279 . S
C125 C123 1.358 . S
C125 H167 0.930 . S
C126 C127 1.348 1_455 S
C126 C128 1.356 . S
C126 O151 1.325 . S
C127 C126 1.348 1_655 S
C127 C129 1.353 1_655 S
C127 H168 0.929 . S
C128 C126 1.356 . S
C128 C130 1.358 . S
C128 H169 0.930 . S
C129 C127 1.353 1_455 S
C129 N131 1.314 . S
C129 H170 0.930 1_455 S
C130 C128 1.358 . S
C130 N131 1.279 . S
C130 H171 0.930 . S
N131 C129 1.314 . S
N131 C130 1.279 . S
C132 C134 1.353 . S
C132 N135 1.314 . S
C132 H138 0.930 . S
C133 N135 1.279 . S
C133 C136 1.358 . S
C133 H139 0.930 . S
C134 C132 1.353 . S
C134 C137 1.348 . S
C134 H172 0.929 . S
N135 Li90 1.990 . S
N135 C132 1.314 . S
N135 C133 1.279 . S
C136 C133 1.358 . S
C136 C137 1.356 . S
C136 H173 0.930 . S
C137 C134 1.348 . S
C137 C136 1.356 . S
H138 C132 0.930 . S
H139 C133 0.930 . S
C140 N141 1.314 . S
C140 C142 1.353 . S
C140 H146 0.930 . S
N141 Li91 1.990 . S
N141 C140 1.314 . S
N141 C144 1.279 . S
C142 C140 1.353 . S
C142 C145 1.348 . S
C142 H174 0.929 . S
C143 C144 1.358 . S
C143 C145 1.356 . S
C143 H175 0.930 . S
C144 N141 1.279 . S
C144 C143 1.358 . S
C144 H147 0.930 . S
C145 C142 1.348 . S
C145 C143 1.356 . S
H146 C140 0.930 . S
H147 C144 0.930 . S
O148 Li88 1.956 . S
O148 Li89 1.970 1_665 S
O148 Li90 1.961 . S
O148 C92 1.325 . S
O149 Li88 1.970 1_445 S
O149 Li89 1.956 . S
O149 Li91 1.961 . S
O149 C98 1.325 . S
O150 Li88 1.961 . S
O150 Li90 1.956 . S
O150 Li91 1.970 1_665 S
O150 C120 1.325 . S
O151 Li89 1.961 . S
O151 Li90 1.970 1_445 S
O151 Li91 1.956 . S
O151 C126 1.325 . S
H152 C94 0.929 . S
H153 C95 0.930 . S
H154 C96 0.930 1_455 S
H155 C97 0.930 . S
H156 C99 0.930 . S
H157 C101 0.929 . S
H158 C102 0.930 . S
H159 C103 0.930 1_565 S
H160 C106 0.930 . S
H161 C109 0.929 . S
H162 C114 0.929 . S
H163 C115 0.930 . S
H164 C122 0.929 . S
H165 C123 0.930 . S
H166 C124 0.930 1_545 S
H167 C125 0.930 . S
H168 C127 0.929 . S
H169 C128 0.930 . S
H170 C129 0.930 1_655 S
H171 C130 0.930 . S
H172 C134 0.929 . S
H173 C136 0.930 . S
H174 C142 0.929 . S
H175 C143 0.930 . S
Li176 N193 1.990 . S
Li176 O236 1.956 . S
Li176 O237 1.970 1_565 S
Li176 O238 1.961 1_455 S
Li177 N201 1.990 . S
Li177 O236 1.970 1_545 S
Li177 O237 1.956 . S
Li177 O239 1.961 1_455 S
Li178 N223 1.990 . S
Li178 O236 1.961 1_655 S
Li178 O238 1.956 . S
Li178 O239 1.970 1_565 S
Li179 N229 1.990 . S
Li179 O237 1.961 1_655 S
Li179 O238 1.970 1_545 S
Li179 O239 1.956 . S
C180 C182 1.348 1_565 S
C180 C183 1.356 . S
C180 O236 1.325 . S
N181 C184 1.314 . S
N181 C185 1.279 . S
C182 C180 1.348 1_545 S
C182 C184 1.353 1_545 S
C182 H240 0.929 . S
C183 C180 1.356 . S
C183 C185 1.358 . S
C183 H241 0.930 . S
C184 N181 1.314 . S
C184 C182 1.353 1_565 S
C184 H242 0.930 1_565 S
C185 N181 1.279 . S
C185 C183 1.358 . S
C185 H243 0.930 . S
C186 C189 1.348 . S
C186 C190 1.356 . S
C186 O237 1.325 . S
C187 N188 1.279 . S
C187 C190 1.358 . S
C187 H244 0.930 . S
N188 C187 1.279 . S
N188 C191 1.314 . S
C189 C186 1.348 . S
C189 C191 1.353 . S
C189 H245 0.929 . S
C190 C186 1.356 . S
C190 C187 1.358 . S
C190 H246 0.930 . S
C191 N188 1.314 . S
C191 C189 1.353 . S
C191 H247 0.930 . S
C192 N193 1.314 . S
C192 C197 1.353 . S
C192 H198 0.930 . S
N193 Li176 1.990 . S
N193 C192 1.314 . S
N193 C195 1.279 . S
C194 C195 1.358 . S
C194 C196 1.356 . S
C194 H248 0.930 . S
C195 N193 1.279 . S
C195 C194 1.358 . S
C195 H199 0.930 . S
C196 C194 1.356 . S
C196 C197 1.348 . S
C197 C192 1.353 . S
C197 C196 1.348 . S
C197 H249 0.929 . S
H198 C192 0.930 . S
H199 C195 0.930 . S
C200 N201 1.314 . S
C200 C202 1.353 . S
C200 H206 0.930 . S
N201 Li177 1.990 . S
N201 C200 1.314 . S
N201 C204 1.279 . S
C202 C200 1.353 . S
C202 C205 1.348 . S
C202 H250 0.929 . S
C203 C204 1.358 . S
C203 C205 1.356 . S
C203 H251 0.930 . S
C204 N201 1.279 . S
C204 C203 1.358 . S
C204 H207 0.930 . S
C205 C202 1.348 . S
C205 C203 1.356 . S
H206 C200 0.930 . S
H207 C204 0.930 . S
C208 C210 1.348 . S
C208 C211 1.356 . S
C208 O238 1.325 . S
N209 C212 1.314 . S
N209 C213 1.279 . S
C210 C208 1.348 . S
C210 C212 1.353 . S
C210 H252 0.929 . S
C211 C208 1.356 . S
C211 C213 1.358 . S
C211 H253 0.930 . S
C212 N209 1.314 . S
C212 C210 1.353 . S
C212 H254 0.930 . S
C213 N209 1.279 . S
C213 C211 1.358 . S
C213 H255 0.930 . S
C214 C215 1.348 1_545 S
C214 C216 1.356 . S
C214 O239 1.325 . S
C215 C214 1.348 1_565 S
C215 C217 1.353 1_565 S
C215 H256 0.929 . S
C216 C214 1.356 . S
C216 C218 1.358 . S
C216 H257 0.930 . S
C217 C215 1.353 1_545 S
C217 N219 1.314 . S
C217 H258 0.930 1_545 S
C218 C216 1.358 . S
C218 N219 1.279 . S
C218 H259 0.930 . S
N219 C217 1.314 . S
N219 C218 1.279 . S
C220 C222 1.353 . S
C220 N223 1.314 . S
C220 H226 0.930 . S
C221 N223 1.279 . S
C221 C224 1.358 . S
C221 H227 0.930 . S
C222 C220 1.353 . S
C222 C225 1.348 . S
C222 H260 0.929 . S
N223 Li178 1.990 . S
N223 C220 1.314 . S
N223 C221 1.279 . S
C224 C221 1.358 . S
C224 C225 1.356 . S
C224 H261 0.930 . S
C225 C222 1.348 . S
C225 C224 1.356 . S
H226 C220 0.930 . S
H227 C221 0.930 . S
C228 N229 1.314 . S
C228 C230 1.353 . S
C228 H234 0.930 . S
N229 Li179 1.990 . S
N229 C228 1.314 . S
N229 C232 1.279 . S
C230 C228 1.353 . S
C230 C233 1.348 . S
C230 H262 0.929 . S
C231 C232 1.358 . S
C231 C233 1.356 . S
C231 H263 0.930 . S
C232 N229 1.279 . S
C232 C231 1.358 . S
C232 H235 0.930 . S
C233 C230 1.348 . S
C233 C231 1.356 . S
H234 C228 0.930 . S
H235 C232 0.930 . S
O236 Li176 1.956 . S
O236 Li177 1.970 1_565 S
O236 Li178 1.961 1_455 S
O236 C180 1.325 . S
O237 Li176 1.970 1_545 S
O237 Li177 1.956 . S
O237 Li179 1.961 1_455 S
O237 C186 1.325 . S
O238 Li176 1.961 1_655 S
O238 Li178 1.956 . S
O238 Li179 1.970 1_565 S
O238 C208 1.325 . S
O239 Li177 1.961 1_655 S
O239 Li178 1.970 1_545 S
O239 Li179 1.956 . S
O239 C214 1.325 . S
H240 C182 0.929 . S
H241 C183 0.930 . S
H242 C184 0.930 1_545 S
H243 C185 0.930 . S
H244 C187 0.930 . S
H245 C189 0.929 . S
H246 C190 0.930 . S
H247 C191 0.930 . S
H248 C194 0.930 . S
H249 C197 0.929 . S
H250 C202 0.929 . S
H251 C203 0.930 . S
H252 C210 0.929 . S
H253 C211 0.930 . S
H254 C212 0.930 . S
H255 C213 0.930 . S
H256 C215 0.929 . S
H257 C216 0.930 . S
H258 C217 0.930 1_565 S
H259 C218 0.930 . S
H260 C222 0.929 . S
H261 C224 0.930 . S
H262 C230 0.929 . S
H263 C231 0.930 . S
C264 C265 1.384 1_655 S
C264 C266 1.384 . S
C264 H292 0.931 . S
C265 C264 1.384 1_455 S
C265 C268 1.382 . S
C266 C264 1.384 . S
C266 C267 1.381 1_655 S
C266 H293 0.930 . S
C267 C266 1.381 1_455 S
C267 C269 1.381 . S
C267 C270 1.487 . S
C268 C265 1.382 . S
C268 C269 1.387 . S
C268 H294 0.930 . S
C269 C267 1.381 . S
C269 C268 1.387 . S
C269 H295 0.931 . S
C270 C267 1.487 . S
C270 C277 1.399 1_455 S
C270 N308 1.343 . S
C271 C272 1.384 1_455 S
C271 C273 1.384 . S
C271 H296 0.931 . S
C272 C271 1.384 1_655 S
C272 C275 1.382 . S
C273 C271 1.384 . S
C273 C274 1.381 1_455 S
C273 H297 0.930 . S
C274 C273 1.381 1_655 S
C274 C276 1.381 . S
C274 C277 1.487 . S
C275 C272 1.382 . S
C275 C276 1.387 . S
C275 H298 0.930 . S
C276 C274 1.381 . S
C276 C275 1.387 . S
C276 H299 0.931 . S
C277 C270 1.399 1_655 S
C277 C274 1.487 . S
C277 N309 1.343 . S
C278 C279 1.384 1_455 S
C278 C280 1.384 . S
C278 H300 0.931 . S
C279 C278 1.384 1_655 S
C279 C282 1.382 . S
C280 C278 1.384 . S
C280 C281 1.381 1_455 S
C280 H301 0.930 . S
C281 C280 1.381 1_655 S
C281 C283 1.381 . S
C281 C284 1.487 . S
C282 C279 1.382 . S
C282 C283 1.387 . S
C282 H302 0.930 . S
C283 C281 1.381 . S
C283 C282 1.387 . S
C283 H303 0.931 . S
C284 C281 1.487 . S
C284 C291 1.399 1_655 S
C284 N309 1.343 . S
C285 C286 1.384 1_655 S
C285 C287 1.384 . S
C285 H304 0.931 . S
C286 C285 1.384 1_455 S
C286 C289 1.382 . S
C287 C285 1.384 . S
C287 C288 1.381 1_655 S
C287 H305 0.930 . S
C288 C287 1.381 1_455 S
C288 C290 1.381 . S
C288 C291 1.487 . S
C289 C286 1.382 . S
C289 C290 1.387 . S
C289 H306 0.930 . S
C290 C288 1.381 . S
C290 C289 1.387 . S
C290 H307 0.931 . S
C291 C284 1.399 1_455 S
C291 C288 1.487 . S
C291 N308 1.343 . S
H292 C264 0.931 . S
H293 C266 0.930 . S
H294 C268 0.930 . S
H295 C269 0.931 . S
H296 C271 0.931 . S
H297 C273 0.930 . S
H298 C275 0.930 . S
H299 C276 0.931 . S
H300 C278 0.931 . S
H301 C280 0.930 . S
H302 C282 0.930 . S
H303 C283 0.931 . S
H304 C285 0.931 . S
H305 C287 0.930 . S
H306 C289 0.930 . S
H307 C290 0.931 . S
N308 C270 1.343 . S
N308 C291 1.343 . S
N309 C277 1.343 . S
N309 C284 1.343 . S
C310 C311 1.384 1_545 S
C310 C312 1.384 . S
C310 H338 0.931 . S
C311 C310 1.384 1_565 S
C311 C314 1.382 . S
C312 C310 1.384 . S
C312 C313 1.381 1_545 S
C312 H339 0.930 . S
C313 C312 1.381 1_565 S
C313 C315 1.381 . S
C313 C316 1.487 . S
C314 C311 1.382 . S
C314 C315 1.387 . S
C314 H340 0.930 . S
C315 C313 1.381 . S
C315 C314 1.387 . S
C315 H341 0.931 . S
C316 C313 1.487 . S
C316 C323 1.399 1_565 S
C316 N354 1.343 . S
C317 C318 1.384 1_565 S
C317 C319 1.384 . S
C317 H342 0.931 . S
C318 C317 1.384 1_545 S
C318 C321 1.382 . S
C319 C317 1.384 . S
C319 C320 1.381 1_565 S
C319 H343 0.930 . S
C320 C319 1.381 1_545 S
C320 C322 1.381 . S
C320 C323 1.487 . S
C321 C318 1.382 . S
C321 C322 1.387 . S
C321 H344 0.930 . S
C322 C320 1.381 . S
C322 C321 1.387 . S
C322 H345 0.931 . S
C323 C316 1.399 1_545 S
C323 C320 1.487 . S
C323 N355 1.343 . S
C324 C325 1.384 1_565 S
C324 C326 1.384 . S
C324 H346 0.931 . S
C325 C324 1.384 1_545 S
C325 C328 1.382 . S
C326 C324 1.384 . S
C326 C327 1.381 1_565 S
C326 H347 0.930 . S
C327 C326 1.381 1_545 S
C327 C329 1.381 . S
C327 C330 1.487 . S
C328 C325 1.382 . S
C328 C329 1.387 . S
C328 H348 0.930 . S
C329 C327 1.381 . S
C329 C328 1.387 . S
C329 H349 0.931 . S
C330 C327 1.487 . S
C330 C337 1.399 1_545 S
C330 N355 1.343 . S
C331 C332 1.384 1_545 S
C331 C333 1.384 . S
C331 H350 0.931 . S
C332 C331 1.384 1_565 S
C332 C335 1.382 . S
C333 C331 1.384 . S
C333 C334 1.381 1_545 S
C333 H351 0.930 . S
C334 C333 1.381 1_565 S
C334 C336 1.381 . S
C334 C337 1.487 . S
C335 C332 1.382 . S
C335 C336 1.387 . S
C335 H352 0.930 . S
C336 C334 1.381 . S
C336 C335 1.387 . S
C336 H353 0.931 . S
C337 C330 1.399 1_565 S
C337 C334 1.487 . S
C337 N354 1.343 . S
H338 C310 0.931 . S
H339 C312 0.930 . S
H340 C314 0.930 . S
H341 C315 0.931 . S
H342 C317 0.931 . S
H343 C319 0.930 . S
H344 C321 0.930 . S
H345 C322 0.931 . S
H346 C324 0.931 . S
H347 C326 0.930 . S
H348 C328 0.930 . S
H349 C329 0.931 . S
H350 C331 0.931 . S
H351 C333 0.930 . S
H352 C335 0.930 . S
H353 C336 0.931 . S
N354 C316 1.343 . S
N354 C337 1.343 . S
N355 C323 1.343 . S
N355 C330 1.343 . S
C356 C357 1.384 . S
C356 C358 1.384 . S
C356 H384 0.931 . S
C357 C356 1.384 . S
C357 C360 1.382 . S
C358 C356 1.384 . S
C358 C359 1.381 . S
C358 H385 0.930 . S
C359 C358 1.381 . S
C359 C361 1.381 . S
C359 C362 1.487 . S
C360 C357 1.382 . S
C360 C361 1.387 . S
C360 H386 0.930 . S
C361 C359 1.381 . S
C361 C360 1.387 . S
C361 H387 0.931 . S
C362 C359 1.487 . S
C362 C369 1.399 . S
C362 N400 1.343 . S
C363 C364 1.384 . S
C363 C365 1.384 . S
C363 H388 0.931 . S
C364 C363 1.384 . S
C364 C367 1.382 . S
C365 C363 1.384 . S
C365 C366 1.381 . S
C365 H389 0.930 . S
C366 C365 1.381 . S
C366 C368 1.381 . S
C366 C369 1.487 . S
C367 C364 1.382 . S
C367 C368 1.387 . S
C367 H390 0.930 . S
C368 C366 1.381 . S
C368 C367 1.387 . S
C368 H391 0.931 . S
C369 C362 1.399 . S
C369 C366 1.487 . S
C369 N401 1.343 . S
C370 C371 1.384 . S
C370 C372 1.384 . S
C370 H392 0.931 . S
C371 C370 1.384 . S
C371 C374 1.382 . S
C372 C370 1.384 . S
C372 C373 1.381 . S
C372 H393 0.930 . S
C373 C372 1.381 . S
C373 C375 1.381 . S
C373 C376 1.487 . S
C374 C371 1.382 . S
C374 C375 1.387 . S
C374 H394 0.930 . S
C375 C373 1.381 . S
C375 C374 1.387 . S
C375 H395 0.931 . S
C376 C373 1.487 . S
C376 C383 1.399 . S
C376 N401 1.343 . S
C377 C378 1.384 . S
C377 C379 1.384 . S
C377 H396 0.931 . S
C378 C377 1.384 . S
C378 C381 1.382 . S
C379 C377 1.384 . S
C379 C380 1.381 . S
C379 H397 0.930 . S
C380 C379 1.381 . S
C380 C382 1.381 . S
C380 C383 1.487 . S
C381 C378 1.382 . S
C381 C382 1.387 . S
C381 H398 0.930 . S
C382 C380 1.381 . S
C382 C381 1.387 . S
C382 H399 0.931 . S
C383 C376 1.399 . S
C383 C380 1.487 . S
C383 N400 1.343 . S
H384 C356 0.931 . S
H385 C358 0.930 . S
H386 C360 0.930 . S
H387 C361 0.931 . S
H388 C363 0.931 . S
H389 C365 0.930 . S
H390 C367 0.930 . S
H391 C368 0.931 . S
H392 C370 0.931 . S
H393 C372 0.930 . S
H394 C374 0.930 . S
H395 C375 0.931 . S
H396 C377 0.931 . S
H397 C379 0.930 . S
H398 C381 0.930 . S
H399 C382 0.931 . S
N400 C362 1.343 . S
N400 C383 1.343 . S
N401 C369 1.343 . S
N401 C376 1.343 . S
H402 C410 0.950 . S
H403 C415 0.950 1_455 S
H404 C412 0.950 . S
H405 C414 0.950 . S
H406 C416 0.950 . S
H407 C418 0.950 . S
H408 C420 0.950 . S
H409 C421 0.950 . S
C410 H402 0.950 . S
C410 C411 1.386 . S
C410 C412 1.391 . S
C411 C410 1.386 . S
C411 C415 1.393 . S
C412 H404 0.950 . S
C412 C410 1.391 . S
C412 C413 1.400 . S
C413 C412 1.400 . S
C413 C414 1.398 1_655 S
C413 C419 1.491 . S
C414 H405 0.950 . S
C414 C413 1.398 1_455 S
C414 C415 1.391 1_455 S
C415 H403 0.950 1_655 S
C415 C411 1.393 . S
C415 C414 1.391 1_655 S
C416 H406 0.950 . S
C416 C417 1.386 1_455 S
C416 C418 1.391 . S
C417 C416 1.386 1_655 S
C417 C421 1.393 . S
C418 H407 0.950 . S
C418 C416 1.391 . S
C418 C419 1.400 1_455 S
C419 C413 1.491 . S
C419 C418 1.400 1_655 S
C419 C420 1.398 . S
C420 H408 0.950 . S
C420 C419 1.398 . S
C420 C421 1.391 . S
C421 H409 0.950 . S
C421 C417 1.393 . S
C421 C420 1.391 . S
H422 C430 0.950 . S
H423 C435 0.950 . S
H424 C432 0.950 . S
H425 C434 0.950 . S
H426 C436 0.950 . S
H427 C438 0.950 . S
H428 C440 0.950 . S
H429 C441 0.950 . S
C430 H422 0.950 . S
C430 C431 1.386 . S
C430 C432 1.391 . S
C431 C430 1.386 . S
C431 C435 1.393 . S
C432 H424 0.950 . S
C432 C430 1.391 . S
C432 C433 1.400 . S
C433 C432 1.400 . S
C433 C434 1.398 . S
C433 C439 1.491 . S
C434 H425 0.950 . S
C434 C433 1.398 . S
C434 C435 1.391 . S
C435 H423 0.950 . S
C435 C431 1.393 . S
C435 C434 1.391 . S
C436 H426 0.950 . S
C436 C437 1.386 . S
C436 C438 1.391 . S
C437 C436 1.386 . S
C437 C441 1.393 . S
C438 H427 0.950 . S
C438 C436 1.391 . S
C438 C439 1.400 . S
C439 C433 1.491 . S
C439 C438 1.400 . S
C439 C440 1.398 . S
C440 H428 0.950 . S
C440 C439 1.398 . S
C440 C441 1.391 . S
C441 H429 0.950 . S
C441 C437 1.393 . S
C441 C440 1.391 . S
H442 C450 0.950 . S
H443 C455 0.950 . S
H444 C452 0.950 . S
H445 C454 0.950 . S
H446 C456 0.950 . S
H447 C458 0.950 . S
H448 C460 0.950 . S
H449 C461 0.950 . S
C450 H442 0.950 . S
C450 C451 1.386 . S
C450 C452 1.391 . S
C451 C450 1.386 . S
C451 C455 1.393 . S
C452 H444 0.950 . S
C452 C450 1.391 . S
C452 C453 1.400 . S
C453 C452 1.400 . S
C453 C454 1.398 . S
C453 C459 1.491 . S
C454 H445 0.950 . S
C454 C453 1.398 . S
C454 C455 1.391 . S
C455 H443 0.950 . S
C455 C451 1.393 . S
C455 C454 1.391 . S
C456 H446 0.950 . S
C456 C457 1.386 . S
C456 C458 1.391 . S
C457 C456 1.386 . S
C457 C461 1.393 . S
C458 H447 0.950 . S
C458 C456 1.391 . S
C458 C459 1.400 . S
C459 C453 1.491 . S
C459 C458 1.400 . S
C459 C460 1.398 . S
C460 H448 0.950 . S
C460 C459 1.398 . S
C460 C461 1.391 . S
C461 H449 0.950 . S
C461 C457 1.393 . S
C461 C460 1.391 . S
H462 C470 0.950 . S
H463 C475 0.950 1_655 S
H464 C472 0.950 . S
H465 C474 0.950 . S
H466 C476 0.950 . S
H467 C478 0.950 . S
H468 C480 0.950 . S
H469 C481 0.950 . S
C470 H462 0.950 . S
C470 C471 1.386 . S
C470 C472 1.391 . S
C471 C470 1.386 . S
C471 C475 1.393 . S
C472 H464 0.950 . S
C472 C470 1.391 . S
C472 C473 1.400 . S
C473 C472 1.400 . S
C473 C474 1.398 1_455 S
C473 C479 1.491 . S
C474 H465 0.950 . S
C474 C473 1.398 1_655 S
C474 C475 1.391 1_655 S
C475 H463 0.950 1_455 S
C475 C471 1.393 . S
C475 C474 1.391 1_455 S
C476 H466 0.950 . S
C476 C477 1.386 1_655 S
C476 C478 1.391 . S
C477 C476 1.386 1_455 S
C477 C481 1.393 . S
C478 H467 0.950 . S
C478 C476 1.391 . S
C478 C479 1.400 1_655 S
C479 C473 1.491 . S
C479 C478 1.400 1_455 S
C479 C480 1.398 . S
C480 H468 0.950 . S
C480 C479 1.398 . S
C480 C481 1.391 . S
C481 H469 0.950 . S
C481 C477 1.393 . S
C481 C480 1.391 . S
H482 C490 0.950 . S
H483 C495 0.950 . S
H484 C492 0.950 . S
H485 C494 0.950 . S
H486 C496 0.950 . S
H487 C498 0.950 . S
H488 C500 0.950 . S
H489 C501 0.947 1_565 S
C490 H482 0.950 . S
C490 C491 1.386 . S
C490 C492 1.391 . S
C491 C490 1.386 . S
C491 C495 1.393 . S
C492 H484 0.950 . S
C492 C490 1.391 . S
C492 C493 1.400 . S
C493 C492 1.400 . S
C493 C494 1.398 . S
C493 C499 1.491 . S
C494 H485 0.950 . S
C494 C493 1.398 . S
C494 C495 1.391 . S
C495 H483 0.950 . S
C495 C491 1.393 . S
C495 C494 1.391 . S
C496 H486 0.950 . S
C496 C497 1.386 . S
C496 C498 1.391 . S
C497 C496 1.386 . S
C497 C501 1.393 . S
C498 H487 0.950 . S
C498 C496 1.391 . S
C498 C499 1.400 . S
C499 C493 1.491 . S
C499 C498 1.400 . S
C499 C500 1.398 . S
C500 H488 0.950 . S
C500 C499 1.398 . S
C500 C501 1.391 . S
C501 H489 0.947 1_545 S
C501 C497 1.393 . S
C501 C500 1.391 . S
H502 C510 0.950 . S
H503 C515 0.950 . S
H504 C512 0.950 . S
H505 C514 0.950 . S
H506 C516 0.950 . S
H507 C518 0.950 . S
H508 C520 0.950 . S
H509 C521 0.950 . S
C510 H502 0.950 . S
C510 C511 1.386 . S
C510 C512 1.391 . S
C511 C510 1.386 . S
C511 C515 1.393 . S
C512 H504 0.950 . S
C512 C510 1.391 . S
C512 C513 1.400 . S
C513 C512 1.400 . S
C513 C514 1.398 . S
C513 C519 1.491 . S
C514 H505 0.950 . S
C514 C513 1.398 . S
C514 C515 1.391 . S
C515 H503 0.950 . S
C515 C511 1.393 . S
C515 C514 1.391 . S
C516 H506 0.950 . S
C516 C517 1.386 . S
C516 C518 1.391 . S
C517 C516 1.386 . S
C517 C521 1.393 . S
C518 H507 0.950 . S
C518 C516 1.391 . S
C518 C519 1.400 . S
C519 C513 1.491 . S
C519 C518 1.400 . S
C519 C520 1.398 . S
C520 H508 0.950 . S
C520 C519 1.398 . S
C520 C521 1.391 . S
C521 H509 0.950 . S
C521 C517 1.393 . S
C521 C520 1.391 . S
H522 C530 0.950 . S
H523 C535 0.950 1_565 S
H524 C532 0.950 . S
H525 C534 0.940 1_565 S
H526 C536 0.950 . S
H527 C538 0.950 . S
H528 C540 0.950 . S
H529 C541 0.950 . S
C530 H522 0.950 . S
C530 C531 1.386 . S
C530 C532 1.391 . S
C531 C530 1.386 . S
C531 C535 1.393 . S
C532 H524 0.950 . S
C532 C530 1.391 . S
C532 C533 1.400 . S
C533 C532 1.400 . S
C533 C534 1.415 . S
C533 C539 1.491 . S
C534 H525 0.940 1_545 S
C534 C533 1.415 . S
C534 C535 1.385 . S
C535 H523 0.950 1_545 S
C535 C531 1.393 . S
C535 C534 1.385 . S
C536 H526 0.950 . S
C536 C537 1.386 1_565 S
C536 C538 1.391 . S
C537 C536 1.386 1_545 S
C537 C541 1.393 . S
C538 H527 0.950 . S
C538 C536 1.391 . S
C538 C539 1.400 1_565 S
C539 C533 1.491 . S
C539 C538 1.400 1_545 S
C539 C540 1.398 . S
C540 H528 0.950 . S
C540 C539 1.398 . S
C540 C541 1.391 . S
C541 H529 0.950 . S
C541 C537 1.393 . S
C541 C540 1.391 . S
H542 C550 0.950 . S
H543 C555 0.950 . S
H544 C552 0.950 . S
H545 C554 0.950 . S
H546 C556 0.950 . S
H547 C558 0.950 . S
H548 C560 0.950 . S
H549 C561 0.950 . S
C550 H542 0.950 . S
C550 C551 1.386 . S
C550 C552 1.391 . S
C551 C550 1.386 . S
C551 C555 1.393 1_556 S
C552 H544 0.950 . S
C552 C550 1.391 . S
C552 C553 1.400 . S
C553 C552 1.400 . S
C553 C554 1.398 . S
C553 C559 1.491 . S
C554 H545 0.950 . S
C554 C553 1.398 . S
C554 C555 1.391 1_556 S
C555 H543 0.950 . S
C555 C551 1.393 1_554 S
C555 C554 1.391 1_554 S
C556 H546 0.950 . S
C556 C557 1.386 . S
C556 C558 1.391 . S
C557 C556 1.386 . S
C557 C561 1.393 . S
C558 H547 0.950 . S
C558 C556 1.391 . S
C558 C559 1.400 . S
C559 C553 1.491 . S
C559 C558 1.400 . S
C559 C560 1.398 . S
C560 H548 0.950 . S
C560 C559 1.398 . S
C560 C561 1.391 . S
C561 H549 0.950 . S
C561 C557 1.393 . S
C561 C560 1.391 . S
H562 C570 0.950 . S
H563 C575 0.950 1_455 S
H564 C572 0.950 . S
H565 C574 0.950 . S
H566 C576 0.950 . S
H567 C578 0.950 . S
H568 C580 0.950 . S
H569 C581 0.950 . S
C570 H562 0.950 . S
C570 C571 1.386 . S
C570 C572 1.391 . S
C571 C570 1.386 . S
C571 C575 1.393 . S
C572 H564 0.950 . S
C572 C570 1.391 . S
C572 C573 1.400 . S
C573 C572 1.400 . S
C573 C574 1.398 1_655 S
C573 C579 1.491 . S
C574 H565 0.950 . S
C574 C573 1.398 1_455 S
C574 C575 1.391 1_455 S
C575 H563 0.950 1_655 S
C575 C571 1.393 . S
C575 C574 1.391 1_655 S
C576 H566 0.950 . S
C576 C577 1.386 1_455 S
C576 C578 1.391 . S
C577 C576 1.386 1_655 S
C577 C581 1.393 . S
C578 H567 0.950 . S
C578 C576 1.391 . S
C578 C579 1.400 1_455 S
C579 C573 1.491 . S
C579 C578 1.400 1_655 S
C579 C580 1.398 . S
C580 H568 0.950 . S
C580 C579 1.398 . S
C580 C581 1.391 . S
C581 H569 0.950 . S
C581 C577 1.393 . S
C581 C580 1.391 . S
H582 C590 0.950 . S
H583 C595 0.950 . S
H584 C592 0.950 . S
H585 C594 0.950 1_545 S
H586 C596 0.950 . S
H587 C598 0.950 . S
H588 C600 0.950 . S
H589 C601 0.950 . S
C590 H582 0.950 . S
C590 C591 1.386 . S
C590 C592 1.391 . S
C591 C590 1.386 . S
C591 C595 1.393 . S
C592 H584 0.950 . S
C592 C590 1.391 . S
C592 C593 1.400 . S
C593 C592 1.400 . S
C593 C594 1.398 . S
C593 C599 1.491 . S
C594 H585 0.950 1_565 S
C594 C593 1.398 . S
C594 C595 1.391 . S
C595 H583 0.950 . S
C595 C591 1.393 . S
C595 C594 1.391 . S
C596 H586 0.950 . S
C596 C597 1.386 1_545 S
C596 C598 1.391 . S
C597 C596 1.386 1_565 S
C597 C601 1.393 . S
C598 H587 0.950 . S
C598 C596 1.391 . S
C598 C599 1.400 1_545 S
C599 C593 1.491 . S
C599 C598 1.400 1_565 S
C599 C600 1.398 . S
C600 H588 0.950 . S
C600 C599 1.398 . S
C600 C601 1.391 . S
C601 H589 0.950 . S
C601 C597 1.393 . S
C601 C600 1.391 . S
H602 C610 0.950 . S
H603 C615 0.928 1_554 S
H604 C612 0.950 . S
H605 C614 0.950 . S
H606 C616 0.950 . S
H607 C618 0.950 . S
H608 C620 0.950 . S
H609 C621 0.950 . S
C610 H602 0.950 . S
C610 C611 1.386 . S
C610 C612 1.391 . S
C611 C610 1.386 . S
C611 C615 1.393 . S
C612 H604 0.950 . S
C612 C610 1.391 . S
C612 C613 1.400 . S
C613 C612 1.400 . S
C613 C614 1.398 . S
C613 C619 1.491 . S
C614 H605 0.950 . S
C614 C613 1.398 . S
C614 C615 1.391 . S
C615 H603 0.928 1_556 S
C615 C611 1.393 . S
C615 C614 1.391 . S
C616 H606 0.950 . S
C616 C617 1.386 . S
C616 C618 1.391 . S
C617 C616 1.386 . S
C617 C621 1.393 . S
C618 H607 0.950 . S
C618 C616 1.391 . S
C618 C619 1.400 . S
C619 C613 1.491 . S
C619 C618 1.400 . S
C619 C620 1.398 . S
C620 H608 0.950 . S
C620 C619 1.398 . S
C620 C621 1.391 . S
C621 H609 0.950 . S
C621 C617 1.393 . S
C621 C620 1.391 . S
H622 C630 0.950 . S
H623 C635 0.950 . S
H624 C632 0.950 . S
H625 C634 0.950 . S
H626 C636 0.950 . S
H627 C638 0.950 1_655 S
H628 C640 0.950 . S
H629 C641 0.950 . S
C630 H622 0.950 . S
C630 C631 1.386 . S
C630 C632 1.391 . S
C631 C630 1.386 . S
C631 C635 1.393 . S
C632 H624 0.950 . S
C632 C630 1.391 . S
C632 C633 1.400 . S
C633 C632 1.400 . S
C633 C634 1.398 . S
C633 C639 1.491 . S
C634 H625 0.950 . S
C634 C633 1.398 . S
C634 C635 1.391 . S
C635 H623 0.950 . S
C635 C631 1.393 . S
C635 C634 1.391 . S
C636 H626 0.950 . S
C636 C637 1.386 1_655 S
C636 C638 1.391 1_655 S
C637 C636 1.386 1_455 S
C637 C641 1.393 . S
C638 H627 0.950 1_455 S
C638 C636 1.391 1_455 S
C638 C639 1.400 . S
C639 C633 1.491 . S
C639 C638 1.400 . S
C639 C640 1.398 . S
C640 H628 0.950 . S
C640 C639 1.398 . S
C640 C641 1.391 . S
C641 H629 0.950 . S
C641 C637 1.393 . S
C641 C640 1.391 . S
C417 C272 1.449 . S
C411 C29 1.430 . S
C431 C137 1.427 . S
C437 C311 1.447 . S
C451 C225 1.432 . S
C457 C378 1.458 . S
C471 C49 1.434 . S
C477 C279 1.459 1_455 S
C497 C332 1.459 1_545 S
C491 C117 1.442 . S
C511 C205 1.431 . S
C517 C357 1.445 . S
C537 C318 1.447 . S
C531 C233 1.432 . S
C551 C57 1.427 1_556 S
C557 C371 1.456 . S
C577 C286 1.457 1_655 S
C571 C108 1.440 . S
C597 C325 1.459 1_565 S
C591 C196 1.440 . S
C617 C364 1.447 . S
C611 C20 1.430 1_556 S
C631 C145 1.427 . S
C637 C265 1.442 . S
