# Generated by pormake.
# Topology pyr, (3,6)-cn, num edge types: 1
# Building blocks:
#     Node 0, Type 0, BuildingBlock: PAMTOO_clean_linker_0, # of connection points: 3
#     Node 1, Type 0, BuildingBlock: PAMTOO_clean_linker_0, # of connection points: 3
#     Node 2, Type 0, BuildingBlock: PAMTOO_clean_linker_0, # of connection points: 3
#     Node 3, Type 0, BuildingBlock: PAMTOO_clean_linker_0, # of connection points: 3
#     Node 4, Type 0, BuildingBlock: PAMTOO_clean_linker_0, # of connection points: 3
#     Node 5, Type 0, BuildingBlock: PAMTOO_clean_linker_0, # of connection points: 3
#     Node 6, Type 0, BuildingBlock: PAMTOO_clean_linker_0, # of connection points: 3
#     Node 7, Type 0, BuildingBlock: PAMTOO_clean_linker_0, # of connection points: 3
#     Node 8, Type 1, BuildingBlock: MIFKUJ_clean_sbu_0, # of connection points: 6
#     Node 9, Type 1, BuildingBlock: MIFKUJ_clean_sbu_0, # of connection points: 6
#     Node 10, Type 1, BuildingBlock: MIFKUJ_clean_sbu_0, # of connection points: 6
#     Node 11, Type 1, BuildingBlock: MIFKUJ_clean_sbu_0, # of connection points: 6
#     Edge 12, Type (0, 1), BuildingBlock: TEMPAE_clean_linker_10, # of connection points: 2
#     Edge 13, Type (0, 1), BuildingBlock: TEMPAE_clean_linker_10, # of connection points: 2
#     Edge 14, Type (0, 1), BuildingBlock: TEMPAE_clean_linker_10, # of connection points: 2
#     Edge 15, Type (0, 1), BuildingBlock: TEMPAE_clean_linker_10, # of connection points: 2
#     Edge 16, Type (0, 1), BuildingBlock: TEMPAE_clean_linker_10, # of connection points: 2
#     Edge 17, Type (0, 1), BuildingBlock: TEMPAE_clean_linker_10, # of connection points: 2
#     Edge 18, Type (0, 1), BuildingBlock: TEMPAE_clean_linker_10, # of connection points: 2
#     Edge 19, Type (0, 1), BuildingBlock: TEMPAE_clean_linker_10, # of connection points: 2
#     Edge 20, Type (0, 1), BuildingBlock: TEMPAE_clean_linker_10, # of connection points: 2
#     Edge 21, Type (0, 1), BuildingBlock: TEMPAE_clean_linker_10, # of connection points: 2
#     Edge 22, Type (0, 1), BuildingBlock: TEMPAE_clean_linker_10, # of connection points: 2
#     Edge 23, Type (0, 1), BuildingBlock: TEMPAE_clean_linker_10, # of connection points: 2
#     Edge 24, Type (0, 1), BuildingBlock: TEMPAE_clean_linker_10, # of connection points: 2
#     Edge 25, Type (0, 1), BuildingBlock: TEMPAE_clean_linker_10, # of connection points: 2
#     Edge 26, Type (0, 1), BuildingBlock: TEMPAE_clean_linker_10, # of connection points: 2
#     Edge 27, Type (0, 1), BuildingBlock: TEMPAE_clean_linker_10, # of connection points: 2
#     Edge 28, Type (0, 1), BuildingBlock: TEMPAE_clean_linker_10, # of connection points: 2
#     Edge 29, Type (0, 1), BuildingBlock: TEMPAE_clean_linker_10, # of connection points: 2
#     Edge 30, Type (0, 1), BuildingBlock: TEMPAE_clean_linker_10, # of connection points: 2
#     Edge 31, Type (0, 1), BuildingBlock: TEMPAE_clean_linker_10, # of connection points: 2
#     Edge 32, Type (0, 1), BuildingBlock: TEMPAE_clean_linker_10, # of connection points: 2
#     Edge 33, Type (0, 1), BuildingBlock: TEMPAE_clean_linker_10, # of connection points: 2
#     Edge 34, Type (0, 1), BuildingBlock: TEMPAE_clean_linker_10, # of connection points: 2
#     Edge 35, Type (0, 1), BuildingBlock: TEMPAE_clean_linker_10, # of connection points: 2
# Relax obj value: 0.086
# Max RMSD: 0.214
# Mean RMSD: 0.139
data_MOF--net-pyr--node1-MIFKUJ_clean_sbu_0--node2-PAMTOO_clean_linker_0--edge1-TEMPAE_clean_linker_10
_symmetry_space_group_name_H-M    P1
_symmetry_Int_Tables_number       1
_symmetry_cell_setting            triclinic
loop_
_symmetry_equiv_pos_as_xyz
'x, y, z'
_cell_length_a     38.94657
_cell_length_b     36.294311
_cell_length_c     38.189327
_cell_angle_alpha  85.298557
_cell_angle_beta   89.365952
_cell_angle_gamma 101.87156
loop_
_atom_site_label
_atom_site_type_symbol
_atom_site_fract_x
_atom_site_fract_y
_atom_site_fract_z
_atom_type_partial_charge
H0 H 0.16668 0.21036 0.26142 0.0
H1 H 0.2489 0.14713 0.27374 0.0
H2 H 0.24654 0.22083 0.18048 0.0
H3 H 0.25408 0.14284 0.17122 0.0
C4 C 0.27232 0.13899 0.19284 0.0
O5 O 0.27807 0.17053 0.21168 0.0
H6 H 0.25994 0.11374 0.21053 0.0
C7 C 0.19062 0.20317 0.252 0.0
C8 C 0.2052 0.21934 0.21914 0.0
C9 C 0.20619 0.17725 0.2723 0.0
C10 C 0.23657 0.16734 0.25888 0.0
C11 C 0.25083 0.18278 0.2257 0.0
C12 C 0.23556 0.20929 0.20623 0.0
H13 H 0.33103 0.91417 0.72614 0.0
H14 H 0.31126 0.83209 0.64963 0.0
H15 H 0.40229 0.8394 0.71257 0.0
H16 H 0.40655 0.84421 0.63137 0.0
C17 C 0.38858 0.81612 0.63044 0.0
O18 O 0.36877 0.80666 0.66132 0.0
H19 H 0.37079 0.81818 0.60813 0.0
C20 C 0.33854 0.89131 0.71334 0.0
C21 C 0.36925 0.87883 0.7231 0.0
C22 C 0.31731 0.87437 0.68712 0.0
C23 C 0.3271 0.845 0.67028 0.0
C24 C 0.35815 0.83321 0.67906 0.0
C25 C 0.37884 0.84968 0.7056 0.0
H26 H 0.74736 0.29675 0.88111 0.0
H27 H 0.6696 0.31082 0.80454 0.0
H28 H 0.76243 0.39704 0.80939 0.0
H29 H 0.70212 0.42836 0.79796 0.0
C30 C 0.68449 0.40517 0.78561 0.0
O31 O 0.70277 0.37771 0.77851 0.0
H32 H 0.66228 0.39282 0.80445 0.0
C33 C 0.73867 0.31291 0.85905 0.0
C34 C 0.75918 0.34833 0.84703 0.0
C35 C 0.70637 0.29882 0.84391 0.0
C36 C 0.69442 0.32098 0.8166 0.0
C37 C 0.71459 0.35639 0.80449 0.0
C38 C 0.74698 0.36979 0.81938 0.0
H39 H 0.8341 0.71193 0.35564 0.0
H40 H 0.84075 0.62361 0.28896 0.0
H41 H 0.92827 0.71674 0.29363 0.0
H42 H 0.91842 0.69161 0.22193 0.0
C43 C 0.90242 0.66279 0.22906 0.0
O44 O 0.90416 0.65378 0.26467 0.0
H45 H 0.87483 0.66301 0.22178 0.0
C46 C 0.84876 0.69996 0.33679 0.0
C47 C 0.88314 0.71841 0.3266 0.0
C48 C 0.83331 0.66581 0.32346 0.0
C49 C 0.85235 0.65007 0.29942 0.0
C50 C 0.88629 0.66879 0.28833 0.0
C51 C 0.90173 0.70286 0.30191 0.0
H52 H 0.81312 0.88587 0.78834 0.0
H53 H 0.81037 0.80441 0.87733 0.0
H54 H 0.8862 0.81089 0.79379 0.0
H55 H 0.84524 0.73458 0.81954 0.0
C56 C 0.84774 0.738 0.84818 0.0
O57 O 0.86136 0.77525 0.85347 0.0
H58 H 0.82105 0.72925 0.86068 0.0
C59 C 0.82335 0.86307 0.80173 0.0
C60 C 0.85172 0.85069 0.78664 0.0
C61 C 0.80851 0.84671 0.83451 0.0
C62 C 0.82157 0.8172 0.852 0.0
C63 C 0.84899 0.80389 0.83676 0.0
C64 C 0.86417 0.82077 0.80446 0.0
H65 H 0.75838 0.13427 0.2938 0.0
H66 H 0.68661 0.20993 0.2987 0.0
H67 H 0.76468 0.209 0.37658 0.0
H68 H 0.69727 0.21342 0.4061 0.0
C69 C 0.68547 0.22593 0.38281 0.0
O70 O 0.71085 0.2374 0.3564 0.0
H71 H 0.66384 0.20404 0.3736 0.0
C72 C 0.74903 0.15631 0.30621 0.0
C73 C 0.76527 0.17026 0.33653 0.0
C74 C 0.72063 0.17049 0.29209 0.0
C75 C 0.70843 0.19852 0.30899 0.0
C76 C 0.72414 0.21204 0.33943 0.0
C77 C 0.75285 0.19844 0.35283 0.0
H78 H 0.33608 0.70891 0.13552 0.0
H79 H 0.3211 0.62346 0.2224 0.0
H80 H 0.41185 0.71334 0.21763 0.0
H81 H 0.41968 0.63139 0.22656 0.0
C82 C 0.39973 0.62239 0.2484 0.0
O83 O 0.38048 0.64999 0.25156 0.0
H84 H 0.38196 0.59586 0.24189 0.0
C85 C 0.34478 0.69775 0.16029 0.0
C86 C 0.37632 0.71607 0.17454 0.0
C87 C 0.32444 0.6647 0.17761 0.0
C88 C 0.33602 0.64951 0.20921 0.0
C89 C 0.36791 0.66666 0.22294 0.0
C90 C 0.38763 0.70011 0.20607 0.0
H91 H 0.13989 0.30828 0.77693 0.0
H92 H 0.22729 0.40295 0.77744 0.0
H93 H 0.22456 0.32455 0.69965 0.0
H94 H 0.28983 0.34492 0.74105 0.0
C95 C 0.29189 0.37609 0.7375 0.0
O96 O 0.26098 0.38407 0.72477 0.0
H97 H 0.29688 0.3876 0.76349 0.0
C98 C 0.16455 0.32446 0.76554 0.0
C99 C 0.17986 0.31203 0.73629 0.0
C100 C 0.18137 0.35729 0.7807 0.0
C101 C 0.21394 0.3774 0.76652 0.0
C102 C 0.22945 0.36499 0.73784 0.0
C103 C 0.21237 0.33286 0.72254 0.0
Zn104 Zn 0.06943 0.02339 0.57007 0.0
Zn105 Zn 0.99033 0.01023 0.49148 0.0
C106 C 0.07725 0.0986 0.59207 0.0
O107 O 0.07224 0.10683 0.55862 0.0
C108 C 0.95358 0.95413 0.45053 0.0
O109 O 0.92724 0.96784 0.46197 0.0
O110 O 0.09884 0.98599 0.58659 0.0
O111 O 0.0179 0.99929 0.56883 0.0
O112 O 0.96974 0.98667 0.53882 0.0
C113 C 0.10633 0.98155 0.61877 0.0
O114 O 0.09197 0.99913 0.64187 0.0
O115 O 0.07609 0.06441 0.60326 0.0
C116 C 0.96022 0.05507 0.43962 0.0
O117 O 0.98003 0.0409 0.41852 0.0
O118 O 0.96148 0.04735 0.4726 0.0
O119 O 0.04176 0.03442 0.49287 0.0
O120 O 0.08986 0.04743 0.52283 0.0
O121 O 0.98446 0.96808 0.45972 0.0
C122 C 0.98547 0.98425 0.56764 0.0
C123 C 0.07416 0.04959 0.494 0.0
Zn124 Zn 0.56661 0.98135 0.97781 0.0
Zn125 Zn 0.53232 0.04021 0.04386 0.0
C126 C 0.52014 0.94676 0.92956 0.0
O127 O 0.5276 0.91772 0.94857 0.0
C128 C 0.58479 0.08895 0.07973 0.0
O129 O 0.57102 0.11473 0.06213 0.0
O130 O 0.60479 0.95504 0.96309 0.0
O131 O 0.58925 0.03537 0.98432 0.0
O132 O 0.54589 0.06401 0.99474 0.0
C133 C 0.62404 0.96918 0.93621 0.0
O134 O 0.61916 0.00092 0.91986 0.0
O135 O 0.53415 0.97988 0.93709 0.0
C136 C 0.48265 0.0547 0.09375 0.0
O137 O 0.49612 0.02966 0.1128 0.0
O138 O 0.49398 0.06422 0.06226 0.0
O139 O 0.51481 0.9841 0.05247 0.0
O140 O 0.53853 0.94915 0.01781 0.0
O141 O 0.57314 0.05436 0.07526 0.0
C142 C 0.57285 0.06163 0.97675 0.0
C143 C 0.5186 0.95218 0.04352 0.0
Zn144 Zn 0.56023 0.4956 0.49528 0.0
Zn145 Zn 0.54338 0.55975 0.53668 0.0
C146 C 0.60337 0.53551 0.44035 0.0
O147 O 0.57889 0.51375 0.42362 0.0
C148 C 0.50124 0.51607 0.58994 0.0
O149 O 0.52581 0.5371 0.60718 0.0
O150 O 0.56675 0.44801 0.47483 0.0
O151 O 0.56639 0.4866 0.5472 0.0
O152 O 0.58735 0.54586 0.55677 0.0
C153 C 0.59531 0.43809 0.48297 0.0
O154 O 0.61625 0.45788 0.50448 0.0
O155 O 0.60084 0.53446 0.47367 0.0
C156 C 0.50713 0.61724 0.54577 0.0
O157 O 0.48907 0.59867 0.52156 0.0
O158 O 0.53433 0.60653 0.5573 0.0
O159 O 0.53899 0.56902 0.48422 0.0
O160 O 0.51603 0.50968 0.47706 0.0
O161 O 0.50287 0.51955 0.55653 0.0
C162 C 0.5857 0.51077 0.56464 0.0
C163 C 0.51872 0.54462 0.46781 0.0
Zn164 Zn 0.02909 0.51422 0.99508 0.0
Zn165 Zn 0.05408 0.45861 0.05299 0.0
C166 C 0.98668 0.46527 0.95394 0.0
O167 O 0.01068 0.48539 0.93171 0.0
C168 C 0.10816 0.50006 0.09125 0.0
O169 O 0.09301 0.47395 0.11559 0.0
O170 O 0.016 0.55773 0.96514 0.0
O171 O 0.02814 0.52988 0.04388 0.0
O172 O 0.01113 0.47397 0.07271 0.0
C173 C 0.98374 0.55885 0.96923 0.0
O174 O 0.96416 0.53432 0.99226 0.0
O175 O 0.98946 0.47035 0.98648 0.0
C176 C 0.08931 0.39939 0.07151 0.0
O177 O 0.10554 0.41373 0.04163 0.0
O178 O 0.06396 0.41307 0.08239 0.0
O179 O 0.05491 0.44455 0.0029 0.0
O180 O 0.07347 0.50172 0.97704 0.0
O181 O 0.09573 0.5007 0.06058 0.0
C182 C 0.01109 0.50911 0.06925 0.0
C183 C 0.07245 0.46641 0.97833 0.0
C184 C 0.17494 0.18073 0.32946 0.0
C185 C 0.18951 0.15936 0.30652 0.0
C186 C 0.15675 0.16373 0.36053 0.0
C187 C 0.15323 0.12441 0.36909 0.0
C188 C 0.16876 0.10287 0.34662 0.0
C189 C 0.18658 0.12056 0.31557 0.0
C190 C 0.14074 0.18773 0.38386 0.0
C191 C 0.1659 0.06095 0.355 0.0
C192 C 0.13019 0.0845 0.46356 0.0
C193 C 0.09411 0.06908 0.46198 0.0
C194 C 0.14971 0.10266 0.43361 0.0
C195 C 0.13279 0.10566 0.40122 0.0
C196 C 0.09635 0.09048 0.39945 0.0
C197 C 0.07748 0.07231 0.42982 0.0
C198 C 0.1885 0.11842 0.43659 0.0
C199 C 0.07731 0.09334 0.36543 0.0
H200 H 0.17759 0.21084 0.32301 0.0
H201 H 0.19735 0.10371 0.29786 0.0
H202 H 0.11182 0.17773 0.38556 0.0
H203 H 0.15054 0.18497 0.41091 0.0
H204 H 0.14674 0.2181 0.37402 0.0
H205 H 0.18093 0.04861 0.33578 0.0
H206 H 0.17572 0.05532 0.38166 0.0
H207 H 0.13796 0.0462 0.35504 0.0
H208 H 0.14336 0.08226 0.48826 0.0
H209 H 0.04969 0.06058 0.42833 0.0
H210 H 0.19454 0.14915 0.42837 0.0
H211 H 0.2037 0.10477 0.41868 0.0
H212 H 0.19766 0.11404 0.46377 0.0
H213 H 0.08048 0.12342 0.35527 0.0
H214 H 0.04883 0.08067 0.36856 0.0
H215 H 0.0889 0.0788 0.34529 0.0
C216 C 0.42773 0.9021 0.74916 0.0
C217 C 0.39098 0.89544 0.75193 0.0
C218 C 0.44853 0.91414 0.77746 0.0
C219 C 0.43221 0.92001 0.80923 0.0
C220 C 0.39523 0.91523 0.81163 0.0
C221 C 0.37504 0.90284 0.783 0.0
C222 C 0.48789 0.91892 0.77386 0.0
C223 C 0.37689 0.92145 0.84501 0.0
C224 C 0.48106 0.90359 0.89241 0.0
C225 C 0.49663 0.94053 0.89946 0.0
C226 C 0.45966 0.89668 0.86343 0.0
C227 C 0.45358 0.92748 0.84088 0.0
C228 C 0.46871 0.96492 0.84811 0.0
C229 C 0.49011 0.97103 0.87736 0.0
C230 C 0.444 0.85632 0.85663 0.0
C231 C 0.46265 0.99844 0.82471 0.0
H232 H 0.44028 0.89724 0.72497 0.0
H233 H 0.34666 0.89751 0.78549 0.0
H234 H 0.50112 0.94697 0.78174 0.0
H235 H 0.49669 0.8972 0.7917 0.0
H236 H 0.49665 0.91615 0.74659 0.0
H237 H 0.34851 0.92074 0.84133 0.0
H238 H 0.37952 0.89913 0.86586 0.0
H239 H 0.38925 0.94902 0.85453 0.0
H240 H 0.48581 0.87984 0.9094 0.0
H241 H 0.50202 -0.00033 0.88267 0.0
H242 H 0.45362 0.85019 0.83072 0.0
H243 H 0.41501 0.85208 0.85566 0.0
H244 H 0.45071 0.8356 0.87711 0.0
H245 H 0.4734 0.99746 0.79786 0.0
H246 H 0.47514 0.02576 0.83472 0.0
H247 H 0.43409 0.99736 0.82243 0.0
C248 C 0.63544 0.42092 0.74836 0.0
C249 C 0.67128 0.42138 0.75202 0.0
C250 C 0.62297 0.43683 0.71756 0.0
C251 C 0.64693 0.4535 0.68973 0.0
C252 C 0.6832 0.45412 0.69335 0.0
C253 C 0.69496 0.43819 0.72458 0.0
C254 C 0.58411 0.4357 0.71475 0.0
C255 C 0.7095 0.47136 0.66417 0.0
C256 C 0.60775 0.4597 0.5995 0.0
C257 C 0.60384 0.49739 0.59555 0.0
C258 C 0.62274 0.44544 0.62951 0.0
C259 C 0.63375 0.46929 0.65653 0.0
C260 C 0.63061 0.50761 0.65242 0.0
C261 C 0.61586 0.5213 0.62184 0.0
C262 C 0.62602 0.40455 0.63263 0.0
C263 C 0.64187 0.53382 0.68078 0.0
H264 H 0.61713 0.40816 0.76968 0.0
H265 H 0.72271 0.43878 0.72762 0.0
H266 H 0.5795 0.46476 0.70927 0.0
H267 H 0.57361 0.41943 0.69247 0.0
H268 H 0.56909 0.42258 0.7391 0.0
H269 H 0.73678 0.46979 0.67123 0.0
H270 H 0.70293 0.45657 0.64006 0.0
H271 H 0.70831 0.50142 0.6577 0.0
H272 H 0.59877 0.4411 0.57918 0.0
H273 H 0.6128 0.5504 0.61902 0.0
H274 H 0.60903 0.38888 0.65479 0.0
H275 H 0.65342 0.40242 0.63847 0.0
H276 H 0.61837 0.39048 0.60829 0.0
H277 H 0.62564 0.52348 0.70505 0.0
H278 H 0.63923 0.56323 0.67288 0.0
H279 H 0.66957 0.53408 0.68739 0.0
C280 C 0.95252 0.63477 0.20952 0.0
C281 C 0.91659 0.63477 0.20925 0.0
C282 C 0.96668 0.61043 0.18956 0.0
C283 C 0.94429 0.58562 0.16883 0.0
C284 C 0.9077 0.58436 0.16974 0.0
C285 C 0.89425 0.60892 0.19009 0.0
C286 C 0.00581 0.61251 0.18939 0.0
C287 C 0.88302 0.55842 0.14792 0.0
C288 C 0.98606 0.56325 0.08546 0.0
C289 C 0.99216 0.52696 0.09465 0.0
C290 C 0.96991 0.58217 0.10918 0.0
C291 C 0.95966 0.5645 0.14314 0.0
C292 C 0.96499 0.52752 0.15247 0.0
C293 C 0.98112 0.50905 0.12799 0.0
C294 C 0.96441 0.62142 0.09801 0.0
C295 C 0.95436 0.5079 0.18849 0.0
H296 H 0.96962 0.65454 0.22472 0.0
H297 H 0.86636 0.60863 0.19028 0.0
H298 H 0.01146 0.5838 0.19412 0.0
H299 H 0.0174 0.62449 0.1632 0.0
H300 H 0.01901 0.6304 0.20958 0.0
H301 H 0.85504 0.55801 0.15432 0.0
H302 H 0.88821 0.56787 0.11963 0.0
H303 H 0.88749 0.52918 0.15194 0.0
H304 H 0.9941 0.57715 0.05958 0.0
H305 H 0.98579 0.48102 0.13521 0.0
H306 H 0.97949 0.64201 0.11498 0.0
H307 H 0.93629 0.62247 0.10127 0.0
H308 H 0.97279 0.63057 0.07021 0.0
H309 H 0.96963 0.52397 0.20871 0.0
H310 H 0.95877 0.47852 0.19108 0.0
H311 H 0.92622 0.50713 0.1942 0.0
C312 C 0.30289 0.10425 0.15275 0.0
C313 C 0.30576 0.13151 0.17708 0.0
C314 C 0.33271 0.09402 0.13881 0.0
C315 C 0.36642 0.11153 0.14943 0.0
C316 C 0.36965 0.13953 0.17366 0.0
C317 C 0.33924 0.14896 0.18751 0.0
C318 C 0.32803 0.06375 0.11336 0.0
C319 C 0.40517 0.15899 0.18544 0.0
C320 C 0.43768 0.05509 0.14092 0.0
C321 C 0.45412 0.07071 0.10865 0.0
C322 C 0.40969 0.06873 0.15487 0.0
C323 C 0.398 0.09904 0.13631 0.0
C324 C 0.41513 0.11568 0.10422 0.0
C325 C 0.44285 0.10117 0.09066 0.0
C326 C 0.39195 0.04995 0.189 0.0
C327 C 0.40371 0.14833 0.08387 0.0
H328 H 0.27702 0.09041 0.14505 0.0
H329 H 0.34178 0.1697 0.20667 0.0
H330 H 0.34311 0.07465 0.08854 0.0
H331 H 0.33851 0.03929 0.12468 0.0
H332 H 0.30007 0.05364 0.10706 0.0
H333 H 0.40337 0.18184 0.20259 0.0
H334 H 0.41798 0.13809 0.20011 0.0
H335 H 0.42242 0.17126 0.16227 0.0
H336 H 0.44619 0.03155 0.15504 0.0
H337 H 0.4556 0.11362 0.06585 0.0
H338 H 0.3642 0.03686 0.18435 0.0
H339 H 0.39173 0.07125 0.20818 0.0
H340 H 0.40508 0.02771 0.20089 0.0
H341 H 0.37661 0.13902 0.07472 0.0
H342 H 0.42122 0.15978 0.06065 0.0
H343 H 0.40329 0.17142 0.10111 0.0
C344 C 0.28761 0.92596 0.66502 0.0
C345 C 0.28532 0.88796 0.67677 0.0
C346 C 0.25756 0.93937 0.65497 0.0
C347 C 0.22438 0.91427 0.65752 0.0
C348 C 0.22196 0.87583 0.66954 0.0
C349 C 0.2526 0.86302 0.67867 0.0
C350 C 0.26132 0.98039 0.64166 0.0
C351 C 0.18701 0.84841 0.67317 0.0
C352 C 0.14556 0.96016 0.6641 0.0
C353 C 0.13425 0.96095 0.62935 0.0
C354 C 0.17433 0.9442 0.67381 0.0
C355 C 0.19221 0.92857 0.64817 0.0
C356 C 0.18025 0.92815 0.6133 0.0
C357 C 0.1514 0.94433 0.60431 0.0
C358 C 0.18625 0.94507 0.71129 0.0
C359 C 0.19864 0.91173 0.58524 0.0
H360 H 0.31306 0.94507 0.6633 0.0
H361 H 0.25096 0.83364 0.68794 0.0
H362 H 0.25034 0.98253 0.61506 0.0
H363 H 0.24618 0.99457 0.65913 0.0
H364 H 0.28912 0.99587 0.64031 0.0
H365 H 0.18965 0.81944 0.68284 0.0
H366 H 0.16944 0.8583 0.69173 0.0
H367 H 0.17404 0.84716 0.64746 0.0
H368 H 0.13251 0.9729 0.68365 0.0
H369 H 0.14283 0.94475 0.5774 0.0
H370 H 0.21292 0.96307 0.71199 0.0
H371 H 0.18789 0.91625 0.72227 0.0
H372 H 0.16834 0.95629 0.72849 0.0
H373 H 0.22591 0.92822 0.58093 0.0
H374 H 0.18505 0.91191 0.55982 0.0
H375 H 0.20033 0.88223 0.59383 0.0
C376 C 0.80165 0.40097 0.87159 0.0
C377 C 0.79286 0.36307 0.86397 0.0
C378 C 0.83321 0.41517 0.88784 0.0
C379 C 0.85652 0.39086 0.89678 0.0
C380 C 0.84767 0.3525 0.8895 0.0
C381 C 0.81601 0.3391 0.87309 0.0
C382 C 0.84178 0.45631 0.89512 0.0
C383 C 0.87188 0.32576 0.89858 0.0
C384 C 0.9518 0.43929 0.90393 0.0
C385 C 0.95468 0.44199 0.94027 0.0
C386 C 0.92028 0.42176 0.88958 0.0
C387 C 0.89092 0.40622 0.91212 0.0
C388 C 0.89406 0.40724 0.94897 0.0
C389 C 0.92593 0.42524 0.96265 0.0
C390 C 0.91802 0.42131 0.85014 0.0
C391 C 0.86338 0.39056 0.97383 0.0
H392 H 0.78365 0.4195 0.86516 0.0
H393 H 0.80958 0.30989 0.86694 0.0
H394 H 0.84646 0.45882 0.92351 0.0
H395 H 0.86628 0.47088 0.88057 0.0
H396 H 0.82047 0.47123 0.88733 0.0
H397 H 0.86033 0.29634 0.89283 0.0
H398 H 0.89703 0.33534 0.88339 0.0
H399 H 0.87812 0.32581 0.92685 0.0
H400 H 0.9739 0.45197 0.88641 0.0
H401 H 0.92796 0.42717 0.99075 0.0
H402 H 0.8991 0.43854 0.84034 0.0
H403 H 0.90814 0.39209 0.84296 0.0
H404 H 0.94378 0.43269 0.83643 0.0
H405 H 0.84236 0.40685 0.96972 0.0
H406 H 0.87088 0.39088 0.0018 0.0
H407 H 0.85218 0.36099 0.96838 0.0
C408 C 0.79215 0.6094 0.35207 0.0
C409 C 0.79774 0.64627 0.33599 0.0
C410 C 0.75946 0.59205 0.3677 0.0
C411 C 0.73171 0.61193 0.36663 0.0
C412 C 0.73691 0.64866 0.34916 0.0
C413 C 0.77005 0.66556 0.3343 0.0
C414 C 0.75495 0.55297 0.38639 0.0
C415 C 0.70776 0.67042 0.34693 0.0
C416 C 0.63999 0.5533 0.38517 0.0
C417 C 0.63492 0.55768 0.42091 0.0
C418 C 0.67109 0.57144 0.36693 0.0
C419 C 0.69765 0.59468 0.38482 0.0
C420 C 0.69223 0.60027 0.42057 0.0
C421 C 0.66092 0.5816 0.43824 0.0
C422 C 0.67594 0.56488 0.3288 0.0
C423 C 0.71991 0.62514 0.4404 0.0
H424 H 0.81377 0.59475 0.3536 0.0
H425 H 0.77451 0.69407 0.32166 0.0
H426 H 0.749 0.55403 0.41473 0.0
H427 H 0.73244 0.53361 0.37569 0.0
H428 H 0.77878 0.54091 0.38386 0.0
H429 H 0.71548 0.69767 0.33048 0.0
H430 H 0.68413 0.65332 0.33577 0.0
H431 H 0.70026 0.67637 0.37367 0.0
H432 H 0.62001 0.53487 0.37156 0.0
H433 H 0.65709 0.58524 0.4658 0.0
H434 H 0.69791 0.55004 0.32593 0.0
H435 H 0.683 0.59228 0.31259 0.0
H436 H 0.65198 0.54772 0.31819 0.0
H437 H 0.744 0.61329 0.44164 0.0
H438 H 0.71101 0.62782 0.46764 0.0
H439 H 0.72716 0.65379 0.42643 0.0
C440 C 0.15238 0.23328 0.18885 0.0
C441 C 0.18749 0.24524 0.19764 0.0
C442 C 0.13504 0.25733 0.16845 0.0
C443 C 0.15308 0.29451 0.1573 0.0
C444 C 0.18849 0.30686 0.16654 0.0
C445 C 0.20544 0.28185 0.18627 0.0
C446 C 0.09757 0.24283 0.15849 0.0
C447 C 0.20838 0.34653 0.15572 0.0
C448 C 0.12243 0.34749 0.07779 0.0
C449 C 0.10305 0.37057 0.0935 0.0
C450 C 0.13817 0.322 0.09824 0.0
C451 C 0.13514 0.3202 0.13534 0.0
C452 C 0.11534 0.34325 0.15137 0.0
C453 C 0.09916 0.36789 0.1302 0.0
C454 C 0.15841 0.29732 0.08014 0.0
C455 C 0.1121 0.34266 0.19086 0.0
H456 H 0.13866 0.2048 0.19752 0.0
H457 H 0.23255 0.29106 0.19335 0.0
H458 H 0.08035 0.26067 0.16853 0.0
H459 H 0.09573 0.24463 0.12945 0.0
H460 H 0.08742 0.21307 0.16903 0.0
H461 H 0.23528 0.35216 0.1662 0.0
H462 H 0.21041 0.35129 0.12664 0.0
H463 H 0.19397 0.36734 0.1652 0.0
H464 H 0.12539 0.34944 0.04939 0.0
H465 H 0.08456 0.38606 0.14243 0.0
H466 H 0.14831 0.26718 0.08931 0.0
H467 H 0.18646 0.30441 0.08701 0.0
H468 H 0.15669 0.30072 0.05107 0.0
H469 H 0.10069 0.31363 0.20244 0.0
H470 H 0.09546 0.36202 0.19919 0.0
H471 H 0.13854 0.35107 0.20188 0.0
C472 C 0.64864 0.2571 0.86399 0.0
C473 C 0.68489 0.2616 0.85775 0.0
C474 C 0.62882 0.22324 0.88041 0.0
C475 C 0.6457 0.19329 0.89102 0.0
C476 C 0.68196 0.19706 0.88338 0.0
C477 C 0.70107 0.2311 0.86673 0.0
C478 C 0.59012 0.22013 0.88782 0.0
C479 C 0.70094 0.16579 0.89423 0.0
C480 C 0.60687 0.12754 0.97035 0.0
C481 C 0.59072 0.09519 0.95468 0.0
C482 C 0.62491 0.15962 0.94985 0.0
C483 C 0.62622 0.1594 0.91277 0.0
C484 C 0.60953 0.12673 0.89683 0.0
C485 C 0.59224 0.09472 0.91812 0.0
C486 C 0.64294 0.19357 0.96792 0.0
C487 C 0.60994 0.12562 0.85741 0.0
H488 H 0.63598 0.28059 0.85733 0.0
H489 H 0.72894 0.23413 0.86135 0.0
H490 H 0.5748 0.19345 0.87888 0.0
H491 H 0.58518 0.21935 0.91656 0.0
H492 H 0.58026 0.24424 0.87473 0.0
H493 H 0.72853 0.17207 0.88402 0.0
H494 H 0.70104 0.16161 0.92334 0.0
H495 H 0.68714 0.13876 0.88469 0.0
H496 H 0.6059 0.12745 0.99873 0.0
H497 H 0.57966 0.06943 0.90624 0.0
H498 H 0.63238 0.2187 0.95866 0.0
H499 H 0.67144 0.20008 0.96111 0.0
H500 H 0.63951 0.18905 0.99699 0.0
H501 H 0.59872 0.14907 0.84498 0.0
H502 H 0.59479 0.09847 0.84916 0.0
H503 H 0.63736 0.12976 0.84721 0.0
C504 C 0.91546 0.78599 0.32174 0.0
C505 C 0.89931 0.75337 0.34266 0.0
C506 C 0.92754 0.82019 0.3368 0.0
C507 C 0.92348 0.82147 0.37356 0.0
C508 C 0.90855 0.78815 0.39489 0.0
C509 C 0.89662 0.75454 0.37916 0.0
C510 C 0.94326 0.85521 0.31328 0.0
C511 C 0.90402 0.78825 0.43422 0.0
C512 C 0.97326 0.90176 0.4225 0.0
C513 C 0.94706 0.92211 0.42826 0.0
C514 C 0.96642 0.86962 0.40355 0.0
C515 C 0.9327 0.85788 0.38982 0.0
C516 C 0.90664 0.87926 0.39428 0.0
C517 C 0.91408 0.91102 0.41361 0.0
C518 C 0.99478 0.84738 0.39948 0.0
C519 C 0.87045 0.86782 0.37973 0.0
H520 H 0.91741 0.78511 0.29349 0.0
H521 H 0.88461 0.72914 0.3954 0.0
H522 H 0.92554 0.87556 0.31317 0.0
H523 H 0.96875 0.86936 0.32343 0.0
H524 H 0.94743 0.84881 0.28579 0.0
H525 H 0.89397 0.75945 0.44722 0.0
H526 H 0.9294 0.80034 0.44586 0.0
H527 H 0.88532 0.80635 0.44016 0.0
H528 H 0.99883 0.91024 0.43372 0.0
H529 H 0.89383 0.92687 0.41764 0.0
H530 H 0.99815 0.84231 0.37152 0.0
H531 H 0.98698 0.81935 0.41454 0.0
H532 H 0.02041 0.86201 0.40905 0.0
H533 H 0.87239 0.86369 0.35137 0.0
H534 H 0.85414 0.88914 0.38302 0.0
H535 H 0.85677 0.84048 0.39335 0.0
C536 C 0.44443 0.79729 0.61202 0.0
C537 C 0.40942 0.78647 0.62419 0.0
C538 C 0.4631 0.7704 0.60217 0.0
C539 C 0.44626 0.73177 0.60443 0.0
C540 C 0.41129 0.72053 0.61791 0.0
C541 C 0.39315 0.74809 0.62727 0.0
C542 C 0.50021 0.78357 0.58766 0.0
C543 C 0.39253 0.67958 0.62099 0.0
C544 C 0.47347 0.66846 0.53984 0.0
C545 C 0.49427 0.64847 0.56039 0.0
C546 C 0.45848 0.69626 0.5537 0.0
C547 C 0.46382 0.70373 0.58926 0.0
C548 C 0.4852 0.68396 0.61009 0.0
C549 C 0.50053 0.65676 0.59526 0.0
C550 C 0.43644 0.71721 0.53037 0.0
C551 C 0.49096 0.69072 0.64826 0.0
H552 H 0.45692 0.82701 0.60922 0.0
H553 H 0.36593 0.73976 0.63622 0.0
H554 H 0.51787 0.76687 0.60105 0.0
H555 H 0.501 0.77901 0.55931 0.0
H556 H 0.51059 0.814 0.59066 0.0
H557 H 0.36692 0.67508 0.63551 0.0
H558 H 0.38771 0.66982 0.59436 0.0
H559 H 0.40904 0.66168 0.63463 0.0
H560 H 0.46876 0.66223 0.5128 0.0
H561 H 0.51632 0.64101 0.61129 0.0
H562 H 0.44647 0.74814 0.53018 0.0
H563 H 0.40899 0.71107 0.54084 0.0
H564 H 0.43629 0.70931 0.50287 0.0
H565 H 0.50144 0.72114 0.65091 0.0
H566 H 0.5094 0.67414 0.66047 0.0
H567 H 0.46551 0.68282 0.66314 0.0
C568 C 0.88135 0.84897 0.72809 0.0
C569 C 0.8694 0.8699 0.75325 0.0
C570 C 0.89999 0.86696 0.69757 0.0
C571 C 0.90665 0.90686 0.69183 0.0
C572 C 0.89397 0.9281 0.71668 0.0
C573 C 0.87567 0.90942 0.74712 0.0
C574 C 0.91294 0.84326 0.67166 0.0
C575 C 0.90019 0.97067 0.71137 0.0
C576 C 0.9828 0.9575 0.63073 0.0
C577 C 0.96555 0.9645 0.59958 0.0
C578 C 0.964 0.93848 0.66085 0.0
C579 C 0.92703 0.92647 0.65993 0.0
C580 C 0.90949 0.9335 0.62861 0.0
C581 C 0.92893 0.95227 0.59885 0.0
C582 C 0.98368 0.93119 0.69367 0.0
C583 C 0.87011 0.92141 0.6266 0.0
H584 H 0.87616 0.81841 0.73229 0.0
H585 H 0.86702 0.92592 0.76657 0.0
H586 H 0.90239 0.84879 0.64532 0.0
H587 H 0.94198 0.85113 0.66899 0.0
H588 H 0.90518 0.81251 0.67974 0.0
H589 H 0.88741 0.98293 0.73245 0.0
H590 H 0.92878 0.98282 0.71083 0.0
H591 H 0.89001 0.97947 0.68569 0.0
H592 H 0.01107 0.96666 0.63154 0.0
H593 H 0.91529 0.95754 0.57496 0.0
H594 H 0.97864 0.90042 0.70164 0.0
H595 H 0.97417 0.94503 0.71563 0.0
H596 H 0.01246 0.94183 0.68998 0.0
H597 H 0.86196 0.8904 0.63273 0.0
H598 H 0.86045 0.92894 0.60025 0.0
H599 H 0.85708 0.93495 0.64648 0.0
C600 C 0.66665 0.14848 0.25832 0.0
C601 C 0.70334 0.15594 0.26005 0.0
C602 C 0.64981 0.13649 0.22777 0.0
C603 C 0.67014 0.13165 0.19818 0.0
C604 C 0.70717 0.1383 0.19995 0.0
C605 C 0.72336 0.1504 0.2309 0.0
C606 C 0.61023 0.1295 0.227 0.0
C607 C 0.72968 0.13338 0.16894 0.0
C608 C 0.61955 0.07197 0.13113 0.0
C609 C 0.61036 0.09974 0.10742 0.0
C610 C 0.64035 0.08194 0.16003 0.0
C611 C 0.65236 0.12059 0.16523 0.0
C612 C 0.64472 0.14872 0.14037 0.0
C613 C 0.62375 0.13796 0.1118 0.0
C614 C 0.648 0.05112 0.18592 0.0
C615 C 0.65732 0.19025 0.14484 0.0
H616 H 0.651 0.15203 0.28098 0.0
H617 H 0.75175 0.15641 0.23198 0.0
H618 H 0.6021 0.1489 0.20623 0.0
H619 H 0.5995 0.10021 0.22043 0.0
H620 H 0.59825 0.13375 0.2525 0.0
H621 H 0.75796 0.13786 0.17515 0.0
H622 H 0.72119 0.1046 0.16016 0.0
H623 H 0.72642 0.15375 0.14656 0.0
H624 H 0.60942 0.04235 0.12789 0.0
H625 H 0.61705 0.15959 0.09342 0.0
H626 H 0.63387 0.05147 0.21124 0.0
H627 H 0.67644 0.05606 0.1913 0.0
H628 H 0.63977 0.02263 0.17633 0.0
H629 H 0.64405 0.19775 0.16829 0.0
H630 H 0.6519 0.20847 0.12161 0.0
H631 H 0.68595 0.19662 0.14933 0.0
C632 C 0.39695 0.60289 0.31338 0.0
C633 C 0.4172 0.61459 0.28238 0.0
C634 C 0.41253 0.59284 0.34476 0.0
C635 C 0.44912 0.59413 0.34491 0.0
C636 C 0.46974 0.60651 0.31375 0.0
C637 C 0.45351 0.61662 0.28285 0.0
C638 C 0.38975 0.58012 0.37754 0.0
C639 C 0.50881 0.60815 0.31283 0.0
C640 C 0.49745 0.59499 0.43077 0.0
C641 C 0.49986 0.55696 0.43702 0.0
C642 C 0.48031 0.60736 0.40132 0.0
C643 C 0.46574 0.58119 0.37724 0.0
C644 C 0.46792 0.54275 0.38349 0.0
C645 C 0.48476 0.53104 0.41344 0.0
C646 C 0.47813 0.64848 0.3958 0.0
C647 C 0.45302 0.51409 0.35819 0.0
H648 H 0.36883 0.60108 0.31285 0.0
H649 H 0.46916 0.62545 0.25882 0.0
H650 H 0.39003 0.55017 0.38584 0.0
H651 H 0.40031 0.59705 0.39939 0.0
H652 H 0.36212 0.58275 0.37351 0.0
H653 H 0.52123 0.61949 0.28677 0.0
H654 H 0.52166 0.62615 0.33305 0.0
H655 H 0.51395 0.57941 0.31913 0.0
H656 H 0.50896 0.61518 0.44894 0.0
H657 H 0.48667 0.50167 0.418 0.0
H658 H 0.45041 0.65106 0.39269 0.0
H659 H 0.49273 0.66154 0.37126 0.0
H660 H 0.48912 0.66475 0.41797 0.0
H661 H 0.42463 0.51335 0.35496 0.0
H662 H 0.45644 0.48518 0.36712 0.0
H663 H 0.4661 0.52238 0.33194 0.0
C664 C 0.18539 0.38495 0.83887 0.0
C665 C 0.16492 0.37107 0.81094 0.0
C666 C 0.17066 0.40002 0.86666 0.0
C667 C 0.13456 0.4011 0.86658 0.0
C668 C 0.11356 0.38644 0.83887 0.0
C669 C 0.12902 0.37162 0.81134 0.0
C670 C 0.1938 0.41515 0.89592 0.0
C671 C 0.07491 0.387 0.838 0.0
C672 C 0.08928 0.41134 0.95259 0.0
C673 C 0.08889 0.45006 0.94987 0.0
C674 C 0.10421 0.39506 0.92576 0.0
C675 C 0.11884 0.41799 0.89532 0.0
C676 C 0.11855 0.45707 0.89236 0.0
C677 C 0.10366 0.47269 0.91974 0.0
C678 C 0.10424 0.35332 0.92996 0.0
C679 C 0.13386 0.48235 0.86019 0.0
H680 H 0.21304 0.38404 0.83899 0.0
H681 H 0.11315 0.36132 0.78965 0.0
H682 H 0.19409 0.44564 0.89717 0.0
H683 H 0.18315 0.40048 0.92158 0.0
H684 H 0.22125 0.41159 0.89237 0.0
H685 H 0.06208 0.37357 0.81506 0.0
H686 H 0.06134 0.37201 0.86239 0.0
H687 H 0.07128 0.41659 0.83691 0.0
H688 H 0.07791 0.39359 0.97575 0.0
H689 H 0.10334 0.50258 0.91737 0.0
H690 H 0.13151 0.34888 0.92795 0.0
H691 H 0.08947 0.339 0.9085 0.0
H692 H 0.09231 0.33958 0.95555 0.0
H693 H 0.16202 0.48165 0.85661 0.0
H694 H 0.13148 0.51213 0.86192 0.0
H695 H 0.12033 0.47189 0.83641 0.0
C696 C 0.74749 0.85829 0.83576 0.0
C697 C 0.78032 0.86159 0.85112 0.0
C698 C 0.72094 0.8735 0.85076 0.0
C699 C 0.72788 0.89336 0.88122 0.0
C700 C 0.76103 0.89642 0.89692 0.0
C701 C 0.78674 0.88008 0.88187 0.0
C702 C 0.6857 0.86885 0.83371 0.0
C703 C 0.76971 0.91793 0.92897 0.0
C704 C 0.67491 0.96802 0.89604 0.0
C705 C 0.65086 0.94978 0.92273 0.0
C706 C 0.70013 0.95 0.88246 0.0
C707 C 0.70116 0.91262 0.89559 0.0
C708 C 0.6769 0.89396 0.92246 0.0
C709 C 0.65216 0.91283 0.93586 0.0
C710 C 0.72577 0.97105 0.85408 0.0
C711 C 0.6769 0.85395 0.93684 0.0
H712 H 0.74263 0.84374 0.81205 0.0
H713 H 0.81229 0.88268 0.89354 0.0
H714 H 0.6644 0.85672 0.85345 0.0
H715 H 0.68123 0.89687 0.8233 0.0
H716 H 0.68368 0.85028 0.81178 0.0
H717 H 0.79632 0.91676 0.93857 0.0
H718 H 0.76832 0.94798 0.92266 0.0
H719 H 0.75019 0.90639 0.95053 0.0
H720 H 0.67416 0.99658 0.88577 0.0
H721 H 0.63355 0.89844 0.95634 0.0
H722 H 0.72286 0.95563 0.83002 0.0
H723 H 0.75307 0.97259 0.86282 0.0
H724 H 0.72192 0.00023 0.84718 0.0
H725 H 0.6729 0.83494 0.91526 0.0
H726 H 0.65608 0.84326 0.95746 0.0
H727 H 0.7027 0.85237 0.94819 0.0
C728 C 0.79045 0.11568 0.36021 0.0
C729 C 0.79453 0.15466 0.35186 0.0
C730 C 0.81769 0.10051 0.37545 0.0
C731 C 0.84996 0.12491 0.38182 0.0
C732 C 0.85422 0.16433 0.37325 0.0
C733 C 0.82628 0.17878 0.35866 0.0
C734 C 0.81192 0.05841 0.3848 0.0
C735 C 0.8884 0.19114 0.37915 0.0
C736 C 0.9105 0.08826 0.44726 0.0
C737 C 0.93371 0.07562 0.42496 0.0
C738 C 0.88342 0.10491 0.43359 0.0
C739 C 0.87949 0.10903 0.39675 0.0
C740 C 0.90328 0.09711 0.3741 0.0
C741 C 0.93011 0.0806 0.38846 0.0
C742 C 0.85851 0.11725 0.45857 0.0
C743 C 0.89996 0.10108 0.33467 0.0
H744 H 0.76569 0.09713 0.3553 0.0
H745 H 0.82938 0.20893 0.35205 0.0
H746 H 0.83104 0.04644 0.36991 0.0
H747 H 0.81644 0.05258 0.41316 0.0
H748 H 0.78498 0.04349 0.37899 0.0
H749 H 0.88742 0.22102 0.3711 0.0
H750 H 0.89498 0.18879 0.40732 0.0
H751 H 0.91 0.18345 0.36402 0.0
H752 H 0.91305 0.08451 0.4755 0.0
H753 H 0.94786 0.0709 0.37101 0.0
H754 H 0.83145 0.10096 0.45554 0.0
H755 H 0.8581 0.14753 0.4522 0.0
H756 H 0.86577 0.11313 0.48645 0.0
H757 H 0.87447 0.08401 0.32728 0.0
H758 H 0.92137 0.09173 0.32065 0.0
H759 H 0.90029 0.13095 0.32545 0.0
C760 C 0.29275 0.63451 0.12742 0.0
C761 C 0.29195 0.6449 0.16191 0.0
C762 C 0.26284 0.61311 0.11311 0.0
C763 C 0.23129 0.60254 0.13361 0.0
C764 C 0.23003 0.61439 0.16796 0.0
C765 C 0.26053 0.63506 0.18186 0.0
C766 C 0.26547 0.60034 0.07671 0.0
C767 C 0.19671 0.60433 0.19039 0.0
C768 C 0.14541 0.56513 0.08943 0.0
C769 C 0.14051 0.5264 0.09946 0.0
C770 C 0.17496 0.59048 0.10026 0.0
C771 C 0.20053 0.57637 0.12047 0.0
C772 C 0.1962 0.537 0.12929 0.0
C773 C 0.16591 0.51259 0.11921 0.0
C774 C 0.1782 0.63234 0.09122 0.0
C775 C 0.22332 0.52066 0.14984 0.0
H776 H 0.31718 0.64191 0.11213 0.0
H777 H 0.25992 0.64342 0.20844 0.0
H778 H 0.26205 0.56911 0.07846 0.0
H779 H 0.24425 0.60783 0.06023 0.0
H780 H 0.29115 0.61304 0.06334 0.0
H781 H 0.19913 0.61893 0.21498 0.0
H782 H 0.17447 0.61184 0.17547 0.0
H783 H 0.19012 0.5734 0.19754 0.0
H784 H 0.12547 0.57569 0.0744 0.0
H785 H 0.16211 0.48251 0.12668 0.0
H786 H 0.20369 0.64464 0.07743 0.0
H787 H 0.17767 0.64667 0.11575 0.0
H788 H 0.15669 0.63863 0.07438 0.0
H789 H 0.24964 0.5307 0.13697 0.0
H790 H 0.21723 0.48926 0.15221 0.0
H791 H 0.22477 0.53044 0.17665 0.0
C792 C 0.34524 0.37313 0.70063 0.0
C793 C 0.3218 0.39426 0.71251 0.0
C794 C 0.37421 0.39033 0.67869 0.0
C795 C 0.37973 0.42953 0.6685 0.0
C796 C 0.35574 0.45084 0.67995 0.0
C797 C 0.32719 0.43296 0.70209 0.0
C798 C 0.3994 0.36681 0.66721 0.0
C799 C 0.36071 0.49268 0.66952 0.0
C800 C 0.47156 0.4857 0.64617 0.0
C801 C 0.47116 0.49108 0.60941 0.0
C802 C 0.44228 0.46479 0.6656 0.0
C803 C 0.4118 0.44892 0.64784 0.0
C804 C 0.41156 0.45317 0.61066 0.0
C805 C 0.44135 0.47418 0.59182 0.0
C806 C 0.44363 0.46065 0.70523 0.0
C807 C 0.37949 0.43659 0.59089 0.0
H808 H 0.34119 0.34323 0.70893 0.0
H809 H 0.30916 0.44927 0.71158 0.0
H810 H 0.40306 0.37025 0.63819 0.0
H811 H 0.42547 0.3767 0.6785 0.0
H812 H 0.3902 0.3363 0.67564 0.0
H813 H 0.33851 0.50462 0.67885 0.0
H814 H 0.38526 0.5079 0.68067 0.0
H815 H 0.3634 0.49821 0.64051 0.0
H816 H 0.49461 0.49841 0.65993 0.0
H817 H 0.4409 0.47823 0.56341 0.0
H818 H 0.43645 0.43038 0.71511 0.0
H819 H 0.42423 0.47507 0.71674 0.0
H820 H 0.47 0.47285 0.71485 0.0
H821 H 0.37079 0.40601 0.59905 0.0
H822 H 0.38434 0.44028 0.56197 0.0
H823 H 0.35759 0.45043 0.59732 0.0
C824 C 0.8724 0.70763 0.901 0.0
C825 C 0.87109 0.71337 0.86439 0.0
C826 C 0.89316 0.68389 0.91674 0.0
C827 C 0.913 0.66543 0.89526 0.0
C828 C 0.9124 0.67188 0.85821 0.0
C829 C 0.89156 0.69598 0.8432 0.0
C830 C 0.89324 0.67789 0.95633 0.0
C831 C 0.93295 0.65249 0.83446 0.0
C832 C 0.98525 0.62285 0.93849 0.0
C833 C 0.96733 0.58568 0.94767 0.0
C834 C 0.96806 0.64919 0.92093 0.0
C835 C 0.93255 0.63761 0.91165 0.0
C836 C 0.915 0.59956 0.91949 0.0
C837 C 0.93247 0.57422 0.93783 0.0
C838 C 0.98743 0.68965 0.91348 0.0
C839 C 0.87747 0.58575 0.90929 0.0
H840 H 0.85676 0.72141 0.91728 0.0
H841 H 0.89078 0.70073 0.81485 0.0
H842 H 0.88153 0.64796 0.96496 0.0
H843 H 0.92057 0.68377 0.9656 0.0
H844 H 0.8782 0.69619 0.96924 0.0
H845 H 0.93103 0.66195 0.80627 0.0
H846 H 0.96101 0.65802 0.84139 0.0
H847 H 0.923 0.62146 0.83819 0.0
H848 H 0.01217 0.63168 0.94631 0.0
H849 H 0.91876 0.54528 0.94458 0.0
H850 H 0.97461 0.70832 0.92845 0.0
H851 H 0.98621 0.6989 0.88519 0.0
H852 H 0.0154 0.6937 0.9208 0.0
H853 H 0.85986 0.59981 0.92404 0.0
H854 H 0.86864 0.55467 0.91481 0.0
H855 H 0.87448 0.59322 0.88089 0.0
C856 C 0.43447 0.75756 0.15512 0.0
C857 C 0.39766 0.75127 0.15613 0.0
C858 C 0.45483 0.79049 0.13767 0.0
C859 C 0.43801 0.81748 0.12017 0.0
C860 C 0.40092 0.81135 0.12096 0.0
C861 C 0.38122 0.77854 0.13921 0.0
C862 C 0.49436 0.7963 0.1378 0.0
C863 C 0.38202 0.83932 0.10228 0.0
C864 C 0.48838 0.91824 0.09853 0.0
C865 C 0.4987 0.91755 0.06334 0.0
C866 C 0.46911 0.8857 0.11754 0.0
C867 C 0.4592 0.85195 0.10067 0.0
C868 C 0.46932 0.85119 0.06505 0.0
C869 C 0.48934 0.8839 0.04693 0.0
C870 C 0.45945 0.88739 0.1557 0.0
C871 C 0.45856 0.81598 0.04593 0.0
H872 H 0.44749 0.73647 0.16756 0.0
H873 H 0.35286 0.77437 0.14033 0.0
H874 H 0.5049 0.7974 0.11054 0.0
H875 H 0.50574 0.82373 0.14817 0.0
H876 H 0.50339 0.77343 0.15395 0.0
H877 H 0.35302 0.83004 0.10493 0.0
H878 H 0.38978 0.86723 0.11299 0.0
H879 H 0.38963 0.84331 0.07391 0.0
H880 H 0.49576 0.94417 0.11136 0.0
H881 H 0.49698 0.88337 0.01961 0.0
H882 H 0.46968 0.8657 0.17226 0.0
H883 H 0.43049 0.88092 0.15952 0.0
H884 H 0.47001 0.91554 0.16516 0.0
H885 H 0.46894 0.79244 0.05931 0.0
H886 H 0.46814 0.82023 0.01809 0.0
H887 H 0.42952 0.80713 0.04653 0.0
C888 C 0.18177 0.2537 0.70603 0.0
C889 C 0.16199 0.27784 0.71957 0.0
C890 C 0.16596 0.22349 0.68715 0.0
C891 C 0.12929 0.21658 0.68239 0.0
C892 C 0.10885 0.23956 0.69748 0.0
C893 C 0.12548 0.27016 0.71561 0.0
C894 C 0.18873 0.19978 0.67125 0.0
C895 C 0.06957 0.23258 0.69349 0.0
C896 C 0.09751 0.16677 0.60172 0.0
C897 C 0.08751 0.12908 0.6157 0.0
C898 C 0.11039 0.19566 0.62332 0.0
C899 C 0.11285 0.18668 0.65987 0.0
C900 C 0.10151 0.1489 0.67437 0.0
C901 C 0.0892 0.12047 0.65206 0.0
C902 C 0.12261 0.23557 0.60682 0.0
C903 C 0.10325 0.13837 0.71329 0.0
H904 H 0.20984 0.25873 0.70973 0.0
H905 H 0.10995 0.28874 0.7257 0.0
H906 H 0.17913 0.1695 0.68012 0.0
H907 H 0.18718 0.20264 0.64219 0.0
H908 H 0.21668 0.20815 0.67831 0.0
H909 H 0.05708 0.25044 0.70979 0.0
H910 H 0.06351 0.23874 0.66557 0.0
H911 H 0.0576 0.20245 0.701 0.0
H912 H 0.09638 0.17364 0.57365 0.0
H913 H 0.08131 0.0914 0.66307 0.0
H914 H 0.15116 0.24509 0.61071 0.0
H915 H 0.10905 0.25507 0.61976 0.0
H916 H 0.11776 0.23806 0.5782 0.0
H917 H 0.13105 0.14304 0.72112 0.0
H918 H 0.09068 0.10835 0.72076 0.0
H919 H 0.09018 0.15665 0.72847 0.0
C920 C 0.68624 0.29626 0.3843 0.0
C921 C 0.67024 0.25836 0.39383 0.0
C922 C 0.67256 0.32582 0.3967 0.0
C923 C 0.64268 0.31727 0.4197 0.0
C924 C 0.6263 0.27913 0.4291 0.0
C925 C 0.64029 0.25019 0.41603 0.0
C926 C 0.69059 0.36619 0.3859 0.0
C927 C 0.59464 0.26887 0.45387 0.0
C928 C 0.63245 0.38989 0.48283 0.0
C929 C 0.60615 0.40628 0.46722 0.0
C930 C 0.64437 0.36076 0.4677 0.0
C931 C 0.62999 0.34807 0.43588 0.0
C932 C 0.60345 0.36453 0.41991 0.0
C933 C 0.5916 0.39329 0.43596 0.0
C934 C 0.67239 0.3436 0.48579 0.0
C935 C 0.58793 0.3521 0.38569 0.0
H936 H 0.70967 0.30296 0.3675 0.0
H937 H 0.62819 0.22092 0.42369 0.0
H938 H 0.67125 0.38256 0.37548 0.0
H939 H 0.70233 0.37981 0.40916 0.0
H940 H 0.71168 0.3681 0.36559 0.0
H941 H 0.58401 0.23791 0.45723 0.0
H942 H 0.60184 0.27888 0.48001 0.0
H943 H 0.57358 0.2831 0.44401 0.0
H944 H 0.64371 0.39977 0.50706 0.0
H945 H 0.57152 0.40618 0.42362 0.0
H946 H 0.69593 0.34757 0.46816 0.0
H947 H 0.66274 0.31272 0.49169 0.0
H948 H 0.68039 0.35627 0.51072 0.0
H949 H 0.60899 0.35618 0.36506 0.0
H950 H 0.56773 0.36799 0.37651 0.0
H951 H 0.5758 0.32152 0.38875 0.0
loop_
_geom_bond_atom_site_label_1
_geom_bond_atom_site_label_2
_geom_bond_distance
_geom_bond_site_symmetry_2
_ccdc_geom_bond_type
H0 C7 0.929 . S
H1 C10 0.930 . S
H2 C12 0.929 . S
H3 C4 0.969 . S
C4 H3 0.969 . S
C4 O5 1.550 . S
C4 H6 0.973 . S
O5 C4 1.550 . S
O5 C11 1.412 . S
H6 C4 0.973 . S
C7 H0 0.929 . S
C7 C8 1.400 . S
C7 C9 1.364 . S
C8 C7 1.400 . S
C8 C12 1.377 . S
C9 C7 1.364 . S
C9 C10 1.374 . S
C10 H1 0.930 . S
C10 C9 1.374 . S
C10 C11 1.383 . S
C11 O5 1.412 . S
C11 C10 1.383 . S
C11 C12 1.394 . S
C12 H2 0.929 . S
C12 C8 1.377 . S
C12 C11 1.394 . S
H13 C20 0.929 . S
H14 C23 0.930 . S
H15 C25 0.929 . S
H16 C17 0.969 . S
C17 H16 0.969 . S
C17 O18 1.550 . S
C17 H19 0.973 . S
O18 C17 1.550 . S
O18 C24 1.412 . S
H19 C17 0.973 . S
C20 H13 0.929 . S
C20 C21 1.400 . S
C20 C22 1.364 . S
C21 C20 1.400 . S
C21 C25 1.377 . S
C22 C20 1.364 . S
C22 C23 1.374 . S
C23 H14 0.930 . S
C23 C22 1.374 . S
C23 C24 1.383 . S
C24 O18 1.412 . S
C24 C23 1.383 . S
C24 C25 1.394 . S
C25 H15 0.929 . S
C25 C21 1.377 . S
C25 C24 1.394 . S
H26 C33 0.929 . S
H27 C36 0.930 . S
H28 C38 0.929 . S
H29 C30 0.969 . S
C30 H29 0.969 . S
C30 O31 1.550 . S
C30 H32 0.973 . S
O31 C30 1.550 . S
O31 C37 1.412 . S
H32 C30 0.973 . S
C33 H26 0.929 . S
C33 C34 1.400 . S
C33 C35 1.364 . S
C34 C33 1.400 . S
C34 C38 1.377 . S
C35 C33 1.364 . S
C35 C36 1.374 . S
C36 H27 0.930 . S
C36 C35 1.374 . S
C36 C37 1.383 . S
C37 O31 1.412 . S
C37 C36 1.383 . S
C37 C38 1.394 . S
C38 H28 0.929 . S
C38 C34 1.377 . S
C38 C37 1.394 . S
H39 C46 0.929 . S
H40 C49 0.930 . S
H41 C51 0.929 . S
H42 C43 0.969 . S
C43 H42 0.969 . S
C43 O44 1.550 . S
C43 H45 0.973 . S
O44 C43 1.550 . S
O44 C50 1.412 . S
H45 C43 0.973 . S
C46 H39 0.929 . S
C46 C47 1.400 . S
C46 C48 1.364 . S
C47 C46 1.400 . S
C47 C51 1.377 . S
C48 C46 1.364 . S
C48 C49 1.374 . S
C49 H40 0.930 . S
C49 C48 1.374 . S
C49 C50 1.383 . S
C50 O44 1.412 . S
C50 C49 1.383 . S
C50 C51 1.394 . S
C51 H41 0.929 . S
C51 C47 1.377 . S
C51 C50 1.394 . S
H52 C59 0.929 . S
H53 C62 0.930 . S
H54 C64 0.929 . S
H55 C56 0.969 . S
C56 H55 0.969 . S
C56 O57 1.550 . S
C56 H58 0.973 . S
O57 C56 1.550 . S
O57 C63 1.412 . S
H58 C56 0.973 . S
C59 H52 0.929 . S
C59 C60 1.400 . S
C59 C61 1.364 . S
C60 C59 1.400 . S
C60 C64 1.377 . S
C61 C59 1.364 . S
C61 C62 1.374 . S
C62 H53 0.930 . S
C62 C61 1.374 . S
C62 C63 1.383 . S
C63 O57 1.412 . S
C63 C62 1.383 . S
C63 C64 1.394 . S
C64 H54 0.929 . S
C64 C60 1.377 . S
C64 C63 1.394 . S
H65 C72 0.929 . S
H66 C75 0.930 . S
H67 C77 0.929 . S
H68 C69 0.969 . S
C69 H68 0.969 . S
C69 O70 1.550 . S
C69 H71 0.973 . S
O70 C69 1.550 . S
O70 C76 1.412 . S
H71 C69 0.973 . S
C72 H65 0.929 . S
C72 C73 1.400 . S
C72 C74 1.364 . S
C73 C72 1.400 . S
C73 C77 1.377 . S
C74 C72 1.364 . S
C74 C75 1.374 . S
C75 H66 0.930 . S
C75 C74 1.374 . S
C75 C76 1.383 . S
C76 O70 1.412 . S
C76 C75 1.383 . S
C76 C77 1.394 . S
C77 H67 0.929 . S
C77 C73 1.377 . S
C77 C76 1.394 . S
H78 C85 0.929 . S
H79 C88 0.930 . S
H80 C90 0.929 . S
H81 C82 0.969 . S
C82 H81 0.969 . S
C82 O83 1.550 . S
C82 H84 0.973 . S
O83 C82 1.550 . S
O83 C89 1.412 . S
H84 C82 0.973 . S
C85 H78 0.929 . S
C85 C86 1.400 . S
C85 C87 1.364 . S
C86 C85 1.400 . S
C86 C90 1.377 . S
C87 C85 1.364 . S
C87 C88 1.374 . S
C88 H79 0.930 . S
C88 C87 1.374 . S
C88 C89 1.383 . S
C89 O83 1.412 . S
C89 C88 1.383 . S
C89 C90 1.394 . S
C90 H80 0.929 . S
C90 C86 1.377 . S
C90 C89 1.394 . S
H91 C98 0.929 . S
H92 C101 0.930 . S
H93 C103 0.929 . S
H94 C95 0.969 . S
C95 H94 0.969 . S
C95 O96 1.550 . S
C95 H97 0.973 . S
O96 C95 1.550 . S
O96 C102 1.412 . S
H97 C95 0.973 . S
C98 H91 0.929 . S
C98 C99 1.400 . S
C98 C100 1.364 . S
C99 C98 1.400 . S
C99 C103 1.377 . S
C100 C98 1.364 . S
C100 C101 1.374 . S
C101 H92 0.930 . S
C101 C100 1.374 . S
C101 C102 1.383 . S
C102 O96 1.412 . S
C102 C101 1.383 . S
C102 C103 1.394 . S
C103 H93 0.929 . S
C103 C99 1.377 . S
C103 C102 1.394 . S
Zn104 O110 1.969 1_545 S
Zn104 O111 1.965 1_545 S
Zn104 O115 2.024 . S
Zn104 O120 1.969 . S
Zn105 O112 1.969 1_545 S
Zn105 O118 1.969 . S
Zn105 O119 1.965 1_655 S
Zn105 O121 2.024 1_545 S
C106 O107 1.229 . S
C106 O115 1.058 . S
O107 C106 1.229 . S
C108 O109 1.229 . S
C108 O121 1.058 . S
O109 C108 1.229 . S
O110 Zn104 1.969 1_565 S
O110 C113 1.267 . S
O111 Zn104 1.965 1_565 S
O111 C122 1.260 1_455 S
O112 Zn105 1.969 1_565 S
O112 C122 1.258 . S
C113 O110 1.267 . S
C113 O114 1.228 . S
O114 C113 1.228 . S
O115 Zn104 2.024 . S
O115 C106 1.058 . S
C116 O117 1.228 . S
C116 O118 1.267 . S
O117 C116 1.228 . S
O118 Zn105 1.969 . S
O118 C116 1.267 . S
O119 Zn105 1.965 1_455 S
O119 C123 1.260 . S
O120 Zn104 1.969 . S
O120 C123 1.258 . S
O121 Zn105 2.024 1_565 S
O121 C108 1.058 . S
C122 O111 1.260 1_655 S
C122 O112 1.258 . S
C123 O119 1.260 . S
C123 O120 1.258 . S
Zn124 O130 1.969 . S
Zn124 O131 1.965 1_565 S
Zn124 O135 2.024 . S
Zn124 O140 1.969 1_556 S
Zn125 O132 1.969 . S
Zn125 O138 1.969 . S
Zn125 O139 1.965 1_545 S
Zn125 O141 2.024 . S
C126 O127 1.229 . S
C126 O135 1.058 . S
O127 C126 1.229 . S
C128 O129 1.229 . S
C128 O141 1.058 . S
O129 C128 1.229 . S
O130 Zn124 1.969 . S
O130 C133 1.267 . S
O131 Zn124 1.965 1_545 S
O131 C142 1.260 . S
O132 Zn125 1.969 . S
O132 C142 1.258 1_554 S
C133 O130 1.267 . S
C133 O134 1.228 . S
O134 C133 1.228 . S
O135 Zn124 2.024 . S
O135 C126 1.058 . S
C136 O137 1.228 . S
C136 O138 1.267 . S
O137 C136 1.228 . S
O138 Zn125 1.969 . S
O138 C136 1.267 . S
O139 Zn125 1.965 1_565 S
O139 C143 1.260 . S
O140 Zn124 1.969 1_554 S
O140 C143 1.258 . S
O141 Zn125 2.024 . S
O141 C128 1.058 . S
C142 O131 1.260 . S
C142 O132 1.258 1_556 S
C143 O139 1.260 . S
C143 O140 1.258 . S
Zn144 O150 1.969 . S
Zn144 O151 1.965 . S
Zn144 O155 2.024 . S
Zn144 O160 1.969 . S
Zn145 O152 1.969 . S
Zn145 O158 1.969 . S
Zn145 O159 1.965 . S
Zn145 O161 2.024 . S
C146 O147 1.229 . S
C146 O155 1.058 . S
O147 C146 1.229 . S
C148 O149 1.229 . S
C148 O161 1.058 . S
O149 C148 1.229 . S
O150 Zn144 1.969 . S
O150 C153 1.267 . S
O151 Zn144 1.965 . S
O151 C162 1.260 . S
O152 Zn145 1.969 . S
O152 C162 1.258 . S
C153 O150 1.267 . S
C153 O154 1.228 . S
O154 C153 1.228 . S
O155 Zn144 2.024 . S
O155 C146 1.058 . S
C156 O157 1.228 . S
C156 O158 1.267 . S
O157 C156 1.228 . S
O158 Zn145 1.969 . S
O158 C156 1.267 . S
O159 Zn145 1.965 . S
O159 C163 1.260 . S
O160 Zn144 1.969 . S
O160 C163 1.258 . S
O161 Zn145 2.024 . S
O161 C148 1.058 . S
C162 O151 1.260 . S
C162 O152 1.258 . S
C163 O159 1.260 . S
C163 O160 1.258 . S
Zn164 O170 1.969 1_655 S
Zn164 O171 1.965 1_656 S
Zn164 O175 2.024 1_556 S
Zn164 O180 1.969 1_655 S
Zn165 O172 1.969 . S
Zn165 O178 1.969 . S
Zn165 O179 1.965 . S
Zn165 O181 2.024 . S
C166 O167 1.229 . S
C166 O175 1.058 1_556 S
O167 C166 1.229 . S
C168 O169 1.229 . S
C168 O181 1.058 . S
O169 C168 1.229 . S
O170 Zn164 1.969 1_455 S
O170 C173 1.267 1_455 S
O171 Zn164 1.965 1_454 S
O171 C182 1.260 . S
O172 Zn165 1.969 . S
O172 C182 1.258 . S
C173 O170 1.267 1_655 S
C173 O174 1.228 . S
O174 C173 1.228 . S
O175 Zn164 2.024 1_554 S
O175 C166 1.058 1_554 S
C176 O177 1.228 . S
C176 O178 1.267 . S
O177 C176 1.228 . S
O178 Zn165 1.969 . S
O178 C176 1.267 . S
O179 Zn165 1.965 . S
O179 C183 1.260 1_554 S
O180 Zn164 1.969 1_455 S
O180 C183 1.258 . S
O181 Zn165 2.024 . S
O181 C168 1.058 . S
C182 O171 1.260 . S
C182 O172 1.258 . S
C183 O179 1.260 1_556 S
C183 O180 1.258 . S
C184 C185 1.391 . S
C184 C186 1.394 . S
C184 H200 0.931 . S
C185 C184 1.391 . S
C185 C189 1.376 . S
C186 C184 1.394 . S
C186 C187 1.369 . S
C186 C190 1.531 . S
C187 C186 1.369 . S
C187 C188 1.410 . S
C187 C195 1.503 . S
C188 C187 1.410 . S
C188 C189 1.392 . S
C188 C191 1.511 . S
C189 C185 1.376 . S
C189 C188 1.392 . S
C189 H201 0.929 . S
C190 C186 1.531 . S
C190 H202 0.960 . S
C190 H203 0.962 . S
C190 H204 0.960 . S
C191 C188 1.511 . S
C191 H205 0.961 . S
C191 H206 0.961 . S
C191 H207 0.961 . S
C192 C193 1.370 . S
C192 C194 1.363 . S
C192 H208 0.931 . S
C193 C192 1.370 . S
C193 C197 1.408 . S
C194 C192 1.363 . S
C194 C195 1.370 . S
C194 C198 1.524 . S
C195 C187 1.503 . S
C195 C194 1.370 . S
C195 C196 1.403 . S
C196 C195 1.403 . S
C196 C197 1.404 . S
C196 C199 1.539 . S
C197 C193 1.408 . S
C197 C196 1.404 . S
C197 H209 0.930 . S
C198 C194 1.524 . S
C198 H210 0.956 . S
C198 H211 0.961 . S
C198 H212 0.961 . S
C199 C196 1.539 . S
C199 H213 0.958 . S
C199 H214 0.961 . S
C199 H215 0.960 . S
H200 C184 0.931 . S
H201 C189 0.929 . S
H202 C190 0.960 . S
H203 C190 0.962 . S
H204 C190 0.960 . S
H205 C191 0.961 . S
H206 C191 0.961 . S
H207 C191 0.961 . S
H208 C192 0.931 . S
H209 C197 0.930 . S
H210 C198 0.956 . S
H211 C198 0.961 . S
H212 C198 0.961 . S
H213 C199 0.958 . S
H214 C199 0.961 . S
H215 C199 0.960 . S
C216 C217 1.391 . S
C216 C218 1.394 . S
C216 H232 0.931 . S
C217 C216 1.391 . S
C217 C221 1.376 . S
C218 C216 1.394 . S
C218 C219 1.369 . S
C218 C222 1.531 . S
C219 C218 1.369 . S
C219 C220 1.410 . S
C219 C227 1.503 . S
C220 C219 1.410 . S
C220 C221 1.392 . S
C220 C223 1.511 . S
C221 C217 1.376 . S
C221 C220 1.392 . S
C221 H233 0.929 . S
C222 C218 1.531 . S
C222 H234 0.960 . S
C222 H235 0.962 . S
C222 H236 0.960 . S
C223 C220 1.511 . S
C223 H237 0.961 . S
C223 H238 0.961 . S
C223 H239 0.961 . S
C224 C225 1.370 . S
C224 C226 1.363 . S
C224 H240 0.931 . S
C225 C224 1.370 . S
C225 C229 1.408 . S
C226 C224 1.363 . S
C226 C227 1.370 . S
C226 C230 1.524 . S
C227 C219 1.503 . S
C227 C226 1.370 . S
C227 C228 1.403 . S
C228 C227 1.403 . S
C228 C229 1.404 . S
C228 C231 1.539 1_565 S
C229 C225 1.408 . S
C229 C228 1.404 . S
C229 H241 0.930 1_565 S
C230 C226 1.524 . S
C230 H242 0.956 . S
C230 H243 0.961 . S
C230 H244 0.961 . S
C231 C228 1.539 1_545 S
C231 H245 0.958 . S
C231 H246 0.961 . S
C231 H247 0.960 1_545 S
H232 C216 0.931 . S
H233 C221 0.929 . S
H234 C222 0.960 . S
H235 C222 0.962 . S
H236 C222 0.960 . S
H237 C223 0.961 . S
H238 C223 0.961 . S
H239 C223 0.961 . S
H240 C224 0.931 . S
H241 C229 0.930 1_545 S
H242 C230 0.956 . S
H243 C230 0.961 . S
H244 C230 0.961 . S
H245 C231 0.958 . S
H246 C231 0.961 . S
H247 C231 0.960 1_565 S
C248 C249 1.391 . S
C248 C250 1.394 . S
C248 H264 0.931 . S
C249 C248 1.391 . S
C249 C253 1.376 . S
C250 C248 1.394 . S
C250 C251 1.369 . S
C250 C254 1.531 . S
C251 C250 1.369 . S
C251 C252 1.410 . S
C251 C259 1.503 . S
C252 C251 1.410 . S
C252 C253 1.392 . S
C252 C255 1.511 . S
C253 C249 1.376 . S
C253 C252 1.392 . S
C253 H265 0.929 . S
C254 C250 1.531 . S
C254 H266 0.960 . S
C254 H267 0.962 . S
C254 H268 0.960 . S
C255 C252 1.511 . S
C255 H269 0.961 . S
C255 H270 0.961 . S
C255 H271 0.961 . S
C256 C257 1.370 . S
C256 C258 1.363 . S
C256 H272 0.931 . S
C257 C256 1.370 . S
C257 C261 1.408 . S
C258 C256 1.363 . S
C258 C259 1.370 . S
C258 C262 1.524 . S
C259 C251 1.503 . S
C259 C258 1.370 . S
C259 C260 1.403 . S
C260 C259 1.403 . S
C260 C261 1.404 . S
C260 C263 1.539 . S
C261 C257 1.408 . S
C261 C260 1.404 . S
C261 H273 0.930 . S
C262 C258 1.524 . S
C262 H274 0.956 . S
C262 H275 0.961 . S
C262 H276 0.961 . S
C263 C260 1.539 . S
C263 H277 0.958 . S
C263 H278 0.961 . S
C263 H279 0.960 . S
H264 C248 0.931 . S
H265 C253 0.929 . S
H266 C254 0.960 . S
H267 C254 0.962 . S
H268 C254 0.960 . S
H269 C255 0.961 . S
H270 C255 0.961 . S
H271 C255 0.961 . S
H272 C256 0.931 . S
H273 C261 0.930 . S
H274 C262 0.956 . S
H275 C262 0.961 . S
H276 C262 0.961 . S
H277 C263 0.958 . S
H278 C263 0.961 . S
H279 C263 0.960 . S
C280 C281 1.391 . S
C280 C282 1.394 . S
C280 H296 0.931 . S
C281 C280 1.391 . S
C281 C285 1.376 . S
C282 C280 1.394 . S
C282 C283 1.369 . S
C282 C286 1.550 . S
C283 C282 1.369 . S
C283 C284 1.410 . S
C283 C291 1.503 . S
C284 C283 1.410 . S
C284 C285 1.392 . S
C284 C287 1.511 . S
C285 C281 1.376 . S
C285 C284 1.392 . S
C285 H297 0.929 . S
C286 C282 1.550 . S
C286 H298 0.953 1_655 S
C286 H299 0.954 1_655 S
C286 H300 0.956 1_655 S
C287 C284 1.511 . S
C287 H301 0.961 . S
C287 H302 0.961 . S
C287 H303 0.961 . S
C288 C289 1.370 . S
C288 C290 1.363 . S
C288 H304 0.931 . S
C289 C288 1.370 . S
C289 C293 1.408 . S
C290 C288 1.363 . S
C290 C291 1.370 . S
C290 C294 1.524 . S
C291 C283 1.503 . S
C291 C290 1.370 . S
C291 C292 1.403 . S
C292 C291 1.403 . S
C292 C293 1.404 . S
C292 C295 1.539 . S
C293 C289 1.408 . S
C293 C292 1.404 . S
C293 H305 0.930 . S
C294 C290 1.524 . S
C294 H306 0.956 . S
C294 H307 0.961 . S
C294 H308 0.961 . S
C295 C292 1.539 . S
C295 H309 0.958 . S
C295 H310 0.961 . S
C295 H311 0.960 . S
H296 C280 0.931 . S
H297 C285 0.929 . S
H298 C286 0.953 1_455 S
H299 C286 0.954 1_455 S
H300 C286 0.956 1_455 S
H301 C287 0.961 . S
H302 C287 0.961 . S
H303 C287 0.961 . S
H304 C288 0.931 . S
H305 C293 0.930 . S
H306 C294 0.956 . S
H307 C294 0.961 . S
H308 C294 0.961 . S
H309 C295 0.958 . S
H310 C295 0.961 . S
H311 C295 0.960 . S
C312 C313 1.391 . S
C312 C314 1.394 . S
C312 H328 0.931 . S
C313 C312 1.391 . S
C313 C317 1.376 . S
C314 C312 1.394 . S
C314 C315 1.369 . S
C314 C318 1.531 . S
C315 C314 1.369 . S
C315 C316 1.410 . S
C315 C323 1.503 . S
C316 C315 1.410 . S
C316 C317 1.392 . S
C316 C319 1.511 . S
C317 C313 1.376 . S
C317 C316 1.392 . S
C317 H329 0.929 . S
C318 C314 1.531 . S
C318 H330 0.960 . S
C318 H331 0.962 . S
C318 H332 0.960 . S
C319 C316 1.511 . S
C319 H333 0.961 . S
C319 H334 0.961 . S
C319 H335 0.961 . S
C320 C321 1.370 . S
C320 C322 1.363 . S
C320 H336 0.931 . S
C321 C320 1.370 . S
C321 C325 1.408 . S
C322 C320 1.363 . S
C322 C323 1.370 . S
C322 C326 1.524 . S
C323 C315 1.503 . S
C323 C322 1.370 . S
C323 C324 1.403 . S
C324 C323 1.403 . S
C324 C325 1.404 . S
C324 C327 1.539 . S
C325 C321 1.408 . S
C325 C324 1.404 . S
C325 H337 0.930 . S
C326 C322 1.524 . S
C326 H338 0.956 . S
C326 H339 0.961 . S
C326 H340 0.961 . S
C327 C324 1.539 . S
C327 H341 0.958 . S
C327 H342 0.961 . S
C327 H343 0.960 . S
H328 C312 0.931 . S
H329 C317 0.929 . S
H330 C318 0.960 . S
H331 C318 0.962 . S
H332 C318 0.960 . S
H333 C319 0.961 . S
H334 C319 0.961 . S
H335 C319 0.961 . S
H336 C320 0.931 . S
H337 C325 0.930 . S
H338 C326 0.956 . S
H339 C326 0.961 . S
H340 C326 0.961 . S
H341 C327 0.958 . S
H342 C327 0.961 . S
H343 C327 0.960 . S
C344 C345 1.391 . S
C344 C346 1.394 . S
C344 H360 0.931 . S
C345 C344 1.391 . S
C345 C349 1.376 . S
C346 C344 1.394 . S
C346 C347 1.369 . S
C346 C350 1.531 . S
C347 C346 1.369 . S
C347 C348 1.410 . S
C347 C355 1.503 . S
C348 C347 1.410 . S
C348 C349 1.392 . S
C348 C351 1.511 . S
C349 C345 1.376 . S
C349 C348 1.392 . S
C349 H361 0.929 . S
C350 C346 1.531 . S
C350 H362 0.960 . S
C350 H363 0.962 . S
C350 H364 0.960 . S
C351 C348 1.511 . S
C351 H365 0.961 . S
C351 H366 0.961 . S
C351 H367 0.961 . S
C352 C353 1.370 . S
C352 C354 1.363 . S
C352 H368 0.931 . S
C353 C352 1.370 . S
C353 C357 1.408 . S
C354 C352 1.363 . S
C354 C355 1.370 . S
C354 C358 1.524 . S
C355 C347 1.503 . S
C355 C354 1.370 . S
C355 C356 1.403 . S
C356 C355 1.403 . S
C356 C357 1.404 . S
C356 C359 1.539 . S
C357 C353 1.408 . S
C357 C356 1.404 . S
C357 H369 0.930 . S
C358 C354 1.524 . S
C358 H370 0.956 . S
C358 H371 0.961 . S
C358 H372 0.961 . S
C359 C356 1.539 . S
C359 H373 0.958 . S
C359 H374 0.961 . S
C359 H375 0.960 . S
H360 C344 0.931 . S
H361 C349 0.929 . S
H362 C350 0.960 . S
H363 C350 0.962 . S
H364 C350 0.960 . S
H365 C351 0.961 . S
H366 C351 0.961 . S
H367 C351 0.961 . S
H368 C352 0.931 . S
H369 C357 0.930 . S
H370 C358 0.956 . S
H371 C358 0.961 . S
H372 C358 0.961 . S
H373 C359 0.958 . S
H374 C359 0.961 . S
H375 C359 0.960 . S
C376 C377 1.391 . S
C376 C378 1.394 . S
C376 H392 0.931 . S
C377 C376 1.391 . S
C377 C381 1.376 . S
C378 C376 1.394 . S
C378 C379 1.369 . S
C378 C382 1.531 . S
C379 C378 1.369 . S
C379 C380 1.410 . S
C379 C387 1.503 . S
C380 C379 1.410 . S
C380 C381 1.392 . S
C380 C383 1.511 . S
C381 C377 1.376 . S
C381 C380 1.392 . S
C381 H393 0.929 . S
C382 C378 1.531 . S
C382 H394 0.960 . S
C382 H395 0.962 . S
C382 H396 0.960 . S
C383 C380 1.511 . S
C383 H397 0.961 . S
C383 H398 0.961 . S
C383 H399 0.961 . S
C384 C385 1.370 . S
C384 C386 1.363 . S
C384 H400 0.931 . S
C385 C384 1.370 . S
C385 C389 1.408 . S
C386 C384 1.363 . S
C386 C387 1.370 . S
C386 C390 1.524 . S
C387 C379 1.503 . S
C387 C386 1.370 . S
C387 C388 1.403 . S
C388 C387 1.403 . S
C388 C389 1.404 . S
C388 C391 1.539 . S
C389 C385 1.408 . S
C389 C388 1.404 . S
C389 H401 0.930 1_556 S
C390 C386 1.524 . S
C390 H402 0.956 . S
C390 H403 0.961 . S
C390 H404 0.961 . S
C391 C388 1.539 . S
C391 H405 0.958 . S
C391 H406 0.961 . S
C391 H407 0.960 . S
H392 C376 0.931 . S
H393 C381 0.929 . S
H394 C382 0.960 . S
H395 C382 0.962 . S
H396 C382 0.960 . S
H397 C383 0.961 . S
H398 C383 0.961 . S
H399 C383 0.961 . S
H400 C384 0.931 . S
H401 C389 0.930 1_554 S
H402 C390 0.956 . S
H403 C390 0.961 . S
H404 C390 0.961 . S
H405 C391 0.958 . S
H406 C391 0.961 . S
H407 C391 0.960 . S
C408 C409 1.391 . S
C408 C410 1.394 . S
C408 H424 0.931 . S
C409 C408 1.391 . S
C409 C413 1.376 . S
C410 C408 1.394 . S
C410 C411 1.369 . S
C410 C414 1.531 . S
C411 C410 1.369 . S
C411 C412 1.410 . S
C411 C419 1.503 . S
C412 C411 1.410 . S
C412 C413 1.392 . S
C412 C415 1.511 . S
C413 C409 1.376 . S
C413 C412 1.392 . S
C413 H425 0.929 . S
C414 C410 1.531 . S
C414 H426 0.960 . S
C414 H427 0.962 . S
C414 H428 0.960 . S
C415 C412 1.511 . S
C415 H429 0.961 . S
C415 H430 0.961 . S
C415 H431 0.961 . S
C416 C417 1.370 . S
C416 C418 1.363 . S
C416 H432 0.931 . S
C417 C416 1.370 . S
C417 C421 1.408 . S
C418 C416 1.363 . S
C418 C419 1.370 . S
C418 C422 1.524 . S
C419 C411 1.503 . S
C419 C418 1.370 . S
C419 C420 1.403 . S
C420 C419 1.403 . S
C420 C421 1.404 . S
C420 C423 1.539 . S
C421 C417 1.408 . S
C421 C420 1.404 . S
C421 H433 0.930 . S
C422 C418 1.524 . S
C422 H434 0.956 . S
C422 H435 0.961 . S
C422 H436 0.961 . S
C423 C420 1.539 . S
C423 H437 0.958 . S
C423 H438 0.961 . S
C423 H439 0.960 . S
H424 C408 0.931 . S
H425 C413 0.929 . S
H426 C414 0.960 . S
H427 C414 0.962 . S
H428 C414 0.960 . S
H429 C415 0.961 . S
H430 C415 0.961 . S
H431 C415 0.961 . S
H432 C416 0.931 . S
H433 C421 0.930 . S
H434 C422 0.956 . S
H435 C422 0.961 . S
H436 C422 0.961 . S
H437 C423 0.958 . S
H438 C423 0.961 . S
H439 C423 0.960 . S
C440 C441 1.391 . S
C440 C442 1.394 . S
C440 H456 0.931 . S
C441 C440 1.391 . S
C441 C445 1.376 . S
C442 C440 1.394 . S
C442 C443 1.369 . S
C442 C446 1.531 . S
C443 C442 1.369 . S
C443 C444 1.410 . S
C443 C451 1.503 . S
C444 C443 1.410 . S
C444 C445 1.392 . S
C444 C447 1.511 . S
C445 C441 1.376 . S
C445 C444 1.392 . S
C445 H457 0.929 . S
C446 C442 1.531 . S
C446 H458 0.960 . S
C446 H459 0.962 . S
C446 H460 0.960 . S
C447 C444 1.511 . S
C447 H461 0.961 . S
C447 H462 0.961 . S
C447 H463 0.961 . S
C448 C449 1.370 . S
C448 C450 1.363 . S
C448 H464 0.931 . S
C449 C448 1.370 . S
C449 C453 1.408 . S
C450 C448 1.363 . S
C450 C451 1.370 . S
C450 C454 1.524 . S
C451 C443 1.503 . S
C451 C450 1.370 . S
C451 C452 1.403 . S
C452 C451 1.403 . S
C452 C453 1.404 . S
C452 C455 1.539 . S
C453 C449 1.408 . S
C453 C452 1.404 . S
C453 H465 0.930 . S
C454 C450 1.524 . S
C454 H466 0.956 . S
C454 H467 0.961 . S
C454 H468 0.961 . S
C455 C452 1.539 . S
C455 H469 0.958 . S
C455 H470 0.961 . S
C455 H471 0.960 . S
H456 C440 0.931 . S
H457 C445 0.929 . S
H458 C446 0.960 . S
H459 C446 0.962 . S
H460 C446 0.960 . S
H461 C447 0.961 . S
H462 C447 0.961 . S
H463 C447 0.961 . S
H464 C448 0.931 . S
H465 C453 0.930 . S
H466 C454 0.956 . S
H467 C454 0.961 . S
H468 C454 0.961 . S
H469 C455 0.958 . S
H470 C455 0.961 . S
H471 C455 0.960 . S
C472 C473 1.391 . S
C472 C474 1.394 . S
C472 H488 0.931 . S
C473 C472 1.391 . S
C473 C477 1.376 . S
C474 C472 1.394 . S
C474 C475 1.369 . S
C474 C478 1.531 . S
C475 C474 1.369 . S
C475 C476 1.410 . S
C475 C483 1.503 . S
C476 C475 1.410 . S
C476 C477 1.392 . S
C476 C479 1.511 . S
C477 C473 1.376 . S
C477 C476 1.392 . S
C477 H489 0.929 . S
C478 C474 1.531 . S
C478 H490 0.960 . S
C478 H491 0.962 . S
C478 H492 0.960 . S
C479 C476 1.511 . S
C479 H493 0.961 . S
C479 H494 0.961 . S
C479 H495 0.961 . S
C480 C481 1.370 . S
C480 C482 1.363 . S
C480 H496 0.931 . S
C481 C480 1.370 . S
C481 C485 1.408 . S
C482 C480 1.363 . S
C482 C483 1.370 . S
C482 C486 1.524 . S
C483 C475 1.503 . S
C483 C482 1.370 . S
C483 C484 1.403 . S
C484 C483 1.403 . S
C484 C485 1.404 . S
C484 C487 1.539 . S
C485 C481 1.408 . S
C485 C484 1.404 . S
C485 H497 0.930 . S
C486 C482 1.524 . S
C486 H498 0.956 . S
C486 H499 0.961 . S
C486 H500 0.961 . S
C487 C484 1.539 . S
C487 H501 0.958 . S
C487 H502 0.961 . S
C487 H503 0.960 . S
H488 C472 0.931 . S
H489 C477 0.929 . S
H490 C478 0.960 . S
H491 C478 0.962 . S
H492 C478 0.960 . S
H493 C479 0.961 . S
H494 C479 0.961 . S
H495 C479 0.961 . S
H496 C480 0.931 . S
H497 C485 0.930 . S
H498 C486 0.956 . S
H499 C486 0.961 . S
H500 C486 0.961 . S
H501 C487 0.958 . S
H502 C487 0.961 . S
H503 C487 0.960 . S
C504 C505 1.391 . S
C504 C506 1.394 . S
C504 H520 0.931 . S
C505 C504 1.391 . S
C505 C509 1.376 . S
C506 C504 1.394 . S
C506 C507 1.369 . S
C506 C510 1.531 . S
C507 C506 1.369 . S
C507 C508 1.410 . S
C507 C515 1.503 . S
C508 C507 1.410 . S
C508 C509 1.392 . S
C508 C511 1.511 . S
C509 C505 1.376 . S
C509 C508 1.392 . S
C509 H521 0.929 . S
C510 C506 1.531 . S
C510 H522 0.960 . S
C510 H523 0.962 . S
C510 H524 0.960 . S
C511 C508 1.511 . S
C511 H525 0.961 . S
C511 H526 0.961 . S
C511 H527 0.961 . S
C512 C513 1.370 . S
C512 C514 1.363 . S
C512 H528 0.931 . S
C513 C512 1.370 . S
C513 C517 1.408 . S
C514 C512 1.363 . S
C514 C515 1.370 . S
C514 C518 1.524 . S
C515 C507 1.503 . S
C515 C514 1.370 . S
C515 C516 1.403 . S
C516 C515 1.403 . S
C516 C517 1.404 . S
C516 C519 1.539 . S
C517 C513 1.408 . S
C517 C516 1.404 . S
C517 H529 0.930 . S
C518 C514 1.524 . S
C518 H530 0.956 . S
C518 H531 0.961 . S
C518 H532 0.961 . S
C519 C516 1.539 . S
C519 H533 0.958 . S
C519 H534 0.961 . S
C519 H535 0.960 . S
H520 C504 0.931 . S
H521 C509 0.929 . S
H522 C510 0.960 . S
H523 C510 0.962 . S
H524 C510 0.960 . S
H525 C511 0.961 . S
H526 C511 0.961 . S
H527 C511 0.961 . S
H528 C512 0.931 . S
H529 C517 0.930 . S
H530 C518 0.956 . S
H531 C518 0.961 . S
H532 C518 0.961 . S
H533 C519 0.958 . S
H534 C519 0.961 . S
H535 C519 0.960 . S
C536 C537 1.391 . S
C536 C538 1.394 . S
C536 H552 0.931 . S
C537 C536 1.391 . S
C537 C541 1.376 . S
C538 C536 1.394 . S
C538 C539 1.369 . S
C538 C542 1.531 . S
C539 C538 1.369 . S
C539 C540 1.410 . S
C539 C547 1.503 . S
C540 C539 1.410 . S
C540 C541 1.392 . S
C540 C543 1.511 . S
C541 C537 1.376 . S
C541 C540 1.392 . S
C541 H553 0.929 . S
C542 C538 1.531 . S
C542 H554 0.960 . S
C542 H555 0.962 . S
C542 H556 0.960 . S
C543 C540 1.511 . S
C543 H557 0.961 . S
C543 H558 0.961 . S
C543 H559 0.961 . S
C544 C545 1.370 . S
C544 C546 1.363 . S
C544 H560 0.931 . S
C545 C544 1.370 . S
C545 C549 1.408 . S
C546 C544 1.363 . S
C546 C547 1.370 . S
C546 C550 1.524 . S
C547 C539 1.503 . S
C547 C546 1.370 . S
C547 C548 1.403 . S
C548 C547 1.403 . S
C548 C549 1.404 . S
C548 C551 1.539 . S
C549 C545 1.408 . S
C549 C548 1.404 . S
C549 H561 0.930 . S
C550 C546 1.524 . S
C550 H562 0.956 . S
C550 H563 0.961 . S
C550 H564 0.961 . S
C551 C548 1.539 . S
C551 H565 0.958 . S
C551 H566 0.961 . S
C551 H567 0.960 . S
H552 C536 0.931 . S
H553 C541 0.929 . S
H554 C542 0.960 . S
H555 C542 0.962 . S
H556 C542 0.960 . S
H557 C543 0.961 . S
H558 C543 0.961 . S
H559 C543 0.961 . S
H560 C544 0.931 . S
H561 C549 0.930 . S
H562 C550 0.956 . S
H563 C550 0.961 . S
H564 C550 0.961 . S
H565 C551 0.958 . S
H566 C551 0.961 . S
H567 C551 0.960 . S
C568 C569 1.391 . S
C568 C570 1.394 . S
C568 H584 0.931 . S
C569 C568 1.391 . S
C569 C573 1.376 . S
C570 C568 1.394 . S
C570 C571 1.369 . S
C570 C574 1.531 . S
C571 C570 1.369 . S
C571 C572 1.410 . S
C571 C579 1.503 . S
C572 C571 1.410 . S
C572 C573 1.392 . S
C572 C575 1.511 . S
C573 C569 1.376 . S
C573 C572 1.392 . S
C573 H585 0.929 . S
C574 C570 1.531 . S
C574 H586 0.960 . S
C574 H587 0.962 . S
C574 H588 0.960 . S
C575 C572 1.511 . S
C575 H589 0.961 . S
C575 H590 0.961 . S
C575 H591 0.961 . S
C576 C577 1.370 . S
C576 C578 1.363 . S
C576 H592 0.931 1_655 S
C577 C576 1.370 . S
C577 C581 1.408 . S
C578 C576 1.363 . S
C578 C579 1.370 . S
C578 C582 1.524 . S
C579 C571 1.503 . S
C579 C578 1.370 . S
C579 C580 1.403 . S
C580 C579 1.403 . S
C580 C581 1.404 . S
C580 C583 1.539 . S
C581 C577 1.408 . S
C581 C580 1.404 . S
C581 H593 0.930 . S
C582 C578 1.524 . S
C582 H594 0.956 . S
C582 H595 0.961 . S
C582 H596 0.961 . S
C583 C580 1.539 . S
C583 H597 0.958 . S
C583 H598 0.961 . S
C583 H599 0.960 . S
H584 C568 0.931 . S
H585 C573 0.929 . S
H586 C574 0.960 . S
H587 C574 0.962 . S
H588 C574 0.960 . S
H589 C575 0.961 . S
H590 C575 0.961 . S
H591 C575 0.961 . S
H592 C576 0.931 1_455 S
H593 C581 0.930 . S
H594 C582 0.956 . S
H595 C582 0.961 . S
H596 C582 0.961 . S
H597 C583 0.958 . S
H598 C583 0.961 . S
H599 C583 0.960 . S
C600 C601 1.391 . S
C600 C602 1.394 . S
C600 H616 0.931 . S
C601 C600 1.391 . S
C601 C605 1.376 . S
C602 C600 1.394 . S
C602 C603 1.369 . S
C602 C606 1.531 . S
C603 C602 1.369 . S
C603 C604 1.410 . S
C603 C611 1.503 . S
C604 C603 1.410 . S
C604 C605 1.392 . S
C604 C607 1.511 . S
C605 C601 1.376 . S
C605 C604 1.392 . S
C605 H617 0.929 . S
C606 C602 1.531 . S
C606 H618 0.960 . S
C606 H619 0.962 . S
C606 H620 0.960 . S
C607 C604 1.511 . S
C607 H621 0.961 . S
C607 H622 0.961 . S
C607 H623 0.961 . S
C608 C609 1.370 . S
C608 C610 1.363 . S
C608 H624 0.931 . S
C609 C608 1.370 . S
C609 C613 1.408 . S
C610 C608 1.363 . S
C610 C611 1.370 . S
C610 C614 1.524 . S
C611 C603 1.503 . S
C611 C610 1.370 . S
C611 C612 1.403 . S
C612 C611 1.403 . S
C612 C613 1.404 . S
C612 C615 1.539 . S
C613 C609 1.408 . S
C613 C612 1.404 . S
C613 H625 0.930 . S
C614 C610 1.524 . S
C614 H626 0.956 . S
C614 H627 0.961 . S
C614 H628 0.961 . S
C615 C612 1.539 . S
C615 H629 0.958 . S
C615 H630 0.961 . S
C615 H631 0.960 . S
H616 C600 0.931 . S
H617 C605 0.929 . S
H618 C606 0.960 . S
H619 C606 0.962 . S
H620 C606 0.960 . S
H621 C607 0.961 . S
H622 C607 0.961 . S
H623 C607 0.961 . S
H624 C608 0.931 . S
H625 C613 0.930 . S
H626 C614 0.956 . S
H627 C614 0.961 . S
H628 C614 0.961 . S
H629 C615 0.958 . S
H630 C615 0.961 . S
H631 C615 0.960 . S
C632 C633 1.391 . S
C632 C634 1.394 . S
C632 H648 0.931 . S
C633 C632 1.391 . S
C633 C637 1.376 . S
C634 C632 1.394 . S
C634 C635 1.369 . S
C634 C638 1.531 . S
C635 C634 1.369 . S
C635 C636 1.410 . S
C635 C643 1.503 . S
C636 C635 1.410 . S
C636 C637 1.392 . S
C636 C639 1.511 . S
C637 C633 1.376 . S
C637 C636 1.392 . S
C637 H649 0.929 . S
C638 C634 1.531 . S
C638 H650 0.960 . S
C638 H651 0.962 . S
C638 H652 0.960 . S
C639 C636 1.511 . S
C639 H653 0.961 . S
C639 H654 0.961 . S
C639 H655 0.961 . S
C640 C641 1.370 . S
C640 C642 1.363 . S
C640 H656 0.931 . S
C641 C640 1.370 . S
C641 C645 1.408 . S
C642 C640 1.363 . S
C642 C643 1.370 . S
C642 C646 1.524 . S
C643 C635 1.503 . S
C643 C642 1.370 . S
C643 C644 1.403 . S
C644 C643 1.403 . S
C644 C645 1.404 . S
C644 C647 1.539 . S
C645 C641 1.408 . S
C645 C644 1.404 . S
C645 H657 0.930 . S
C646 C642 1.524 . S
C646 H658 0.956 . S
C646 H659 0.961 . S
C646 H660 0.961 . S
C647 C644 1.539 . S
C647 H661 0.958 . S
C647 H662 0.961 . S
C647 H663 0.960 . S
H648 C632 0.931 . S
H649 C637 0.929 . S
H650 C638 0.960 . S
H651 C638 0.962 . S
H652 C638 0.960 . S
H653 C639 0.961 . S
H654 C639 0.961 . S
H655 C639 0.961 . S
H656 C640 0.931 . S
H657 C645 0.930 . S
H658 C646 0.956 . S
H659 C646 0.961 . S
H660 C646 0.961 . S
H661 C647 0.958 . S
H662 C647 0.961 . S
H663 C647 0.960 . S
C664 C665 1.391 . S
C664 C666 1.394 . S
C664 H680 0.931 . S
C665 C664 1.391 . S
C665 C669 1.376 . S
C666 C664 1.394 . S
C666 C667 1.369 . S
C666 C670 1.531 . S
C667 C666 1.369 . S
C667 C668 1.410 . S
C667 C675 1.503 . S
C668 C667 1.410 . S
C668 C669 1.392 . S
C668 C671 1.511 . S
C669 C665 1.376 . S
C669 C668 1.392 . S
C669 H681 0.929 . S
C670 C666 1.531 . S
C670 H682 0.960 . S
C670 H683 0.962 . S
C670 H684 0.960 . S
C671 C668 1.511 . S
C671 H685 0.961 . S
C671 H686 0.961 . S
C671 H687 0.961 . S
C672 C673 1.370 . S
C672 C674 1.363 . S
C672 H688 0.931 . S
C673 C672 1.370 . S
C673 C677 1.408 . S
C674 C672 1.363 . S
C674 C675 1.370 . S
C674 C678 1.524 . S
C675 C667 1.503 . S
C675 C674 1.370 . S
C675 C676 1.403 . S
C676 C675 1.403 . S
C676 C677 1.404 . S
C676 C679 1.539 . S
C677 C673 1.408 . S
C677 C676 1.404 . S
C677 H689 0.930 . S
C678 C674 1.524 . S
C678 H690 0.956 . S
C678 H691 0.961 . S
C678 H692 0.961 . S
C679 C676 1.539 . S
C679 H693 0.958 . S
C679 H694 0.961 . S
C679 H695 0.960 . S
H680 C664 0.931 . S
H681 C669 0.929 . S
H682 C670 0.960 . S
H683 C670 0.962 . S
H684 C670 0.960 . S
H685 C671 0.961 . S
H686 C671 0.961 . S
H687 C671 0.961 . S
H688 C672 0.931 . S
H689 C677 0.930 . S
H690 C678 0.956 . S
H691 C678 0.961 . S
H692 C678 0.961 . S
H693 C679 0.958 . S
H694 C679 0.961 . S
H695 C679 0.960 . S
C696 C697 1.391 . S
C696 C698 1.394 . S
C696 H712 0.931 . S
C697 C696 1.391 . S
C697 C701 1.376 . S
C698 C696 1.394 . S
C698 C699 1.369 . S
C698 C702 1.531 . S
C699 C698 1.369 . S
C699 C700 1.410 . S
C699 C707 1.503 . S
C700 C699 1.410 . S
C700 C701 1.392 . S
C700 C703 1.511 . S
C701 C697 1.376 . S
C701 C700 1.392 . S
C701 H713 0.929 . S
C702 C698 1.531 . S
C702 H714 0.960 . S
C702 H715 0.962 . S
C702 H716 0.960 . S
C703 C700 1.511 . S
C703 H717 0.961 . S
C703 H718 0.961 . S
C703 H719 0.961 . S
C704 C705 1.370 . S
C704 C706 1.363 . S
C704 H720 0.931 . S
C705 C704 1.370 . S
C705 C709 1.408 . S
C706 C704 1.363 . S
C706 C707 1.370 . S
C706 C710 1.524 . S
C707 C699 1.503 . S
C707 C706 1.370 . S
C707 C708 1.403 . S
C708 C707 1.403 . S
C708 C709 1.404 . S
C708 C711 1.539 . S
C709 C705 1.408 . S
C709 C708 1.404 . S
C709 H721 0.930 . S
C710 C706 1.524 . S
C710 H722 0.956 . S
C710 H723 0.961 . S
C710 H724 0.961 . S
C711 C708 1.539 . S
C711 H725 0.958 . S
C711 H726 0.961 . S
C711 H727 0.960 . S
H712 C696 0.931 . S
H713 C701 0.929 . S
H714 C702 0.960 . S
H715 C702 0.962 . S
H716 C702 0.960 . S
H717 C703 0.961 . S
H718 C703 0.961 . S
H719 C703 0.961 . S
H720 C704 0.931 . S
H721 C709 0.930 . S
H722 C710 0.956 . S
H723 C710 0.961 . S
H724 C710 0.961 . S
H725 C711 0.958 . S
H726 C711 0.961 . S
H727 C711 0.960 . S
C728 C729 1.391 . S
C728 C730 1.394 . S
C728 H744 0.931 . S
C729 C728 1.391 . S
C729 C733 1.376 . S
C730 C728 1.394 . S
C730 C731 1.369 . S
C730 C734 1.531 . S
C731 C730 1.369 . S
C731 C732 1.410 . S
C731 C739 1.503 . S
C732 C731 1.410 . S
C732 C733 1.392 . S
C732 C735 1.511 . S
C733 C729 1.376 . S
C733 C732 1.392 . S
C733 H745 0.929 . S
C734 C730 1.531 . S
C734 H746 0.960 . S
C734 H747 0.962 . S
C734 H748 0.960 . S
C735 C732 1.511 . S
C735 H749 0.961 . S
C735 H750 0.961 . S
C735 H751 0.961 . S
C736 C737 1.370 . S
C736 C738 1.363 . S
C736 H752 0.931 . S
C737 C736 1.370 . S
C737 C741 1.408 . S
C738 C736 1.363 . S
C738 C739 1.370 . S
C738 C742 1.524 . S
C739 C731 1.503 . S
C739 C738 1.370 . S
C739 C740 1.403 . S
C740 C739 1.403 . S
C740 C741 1.404 . S
C740 C743 1.539 . S
C741 C737 1.408 . S
C741 C740 1.404 . S
C741 H753 0.930 . S
C742 C738 1.524 . S
C742 H754 0.956 . S
C742 H755 0.961 . S
C742 H756 0.961 . S
C743 C740 1.539 . S
C743 H757 0.958 . S
C743 H758 0.961 . S
C743 H759 0.960 . S
H744 C728 0.931 . S
H745 C733 0.929 . S
H746 C734 0.960 . S
H747 C734 0.962 . S
H748 C734 0.960 . S
H749 C735 0.961 . S
H750 C735 0.961 . S
H751 C735 0.961 . S
H752 C736 0.931 . S
H753 C741 0.930 . S
H754 C742 0.956 . S
H755 C742 0.961 . S
H756 C742 0.961 . S
H757 C743 0.958 . S
H758 C743 0.961 . S
H759 C743 0.960 . S
C760 C761 1.391 . S
C760 C762 1.394 . S
C760 H776 0.931 . S
C761 C760 1.391 . S
C761 C765 1.376 . S
C762 C760 1.394 . S
C762 C763 1.369 . S
C762 C766 1.531 . S
C763 C762 1.369 . S
C763 C764 1.410 . S
C763 C771 1.503 . S
C764 C763 1.410 . S
C764 C765 1.392 . S
C764 C767 1.511 . S
C765 C761 1.376 . S
C765 C764 1.392 . S
C765 H777 0.929 . S
C766 C762 1.531 . S
C766 H778 0.960 . S
C766 H779 0.962 . S
C766 H780 0.960 . S
C767 C764 1.511 . S
C767 H781 0.961 . S
C767 H782 0.961 . S
C767 H783 0.961 . S
C768 C769 1.370 . S
C768 C770 1.363 . S
C768 H784 0.931 . S
C769 C768 1.370 . S
C769 C773 1.408 . S
C770 C768 1.363 . S
C770 C771 1.370 . S
C770 C774 1.524 . S
C771 C763 1.503 . S
C771 C770 1.370 . S
C771 C772 1.403 . S
C772 C771 1.403 . S
C772 C773 1.404 . S
C772 C775 1.539 . S
C773 C769 1.408 . S
C773 C772 1.404 . S
C773 H785 0.930 . S
C774 C770 1.524 . S
C774 H786 0.956 . S
C774 H787 0.961 . S
C774 H788 0.961 . S
C775 C772 1.539 . S
C775 H789 0.958 . S
C775 H790 0.961 . S
C775 H791 0.960 . S
H776 C760 0.931 . S
H777 C765 0.929 . S
H778 C766 0.960 . S
H779 C766 0.962 . S
H780 C766 0.960 . S
H781 C767 0.961 . S
H782 C767 0.961 . S
H783 C767 0.961 . S
H784 C768 0.931 . S
H785 C773 0.930 . S
H786 C774 0.956 . S
H787 C774 0.961 . S
H788 C774 0.961 . S
H789 C775 0.958 . S
H790 C775 0.961 . S
H791 C775 0.960 . S
C792 C793 1.391 . S
C792 C794 1.394 . S
C792 H808 0.931 . S
C793 C792 1.391 . S
C793 C797 1.376 . S
C794 C792 1.394 . S
C794 C795 1.369 . S
C794 C798 1.531 . S
C795 C794 1.369 . S
C795 C796 1.410 . S
C795 C803 1.503 . S
C796 C795 1.410 . S
C796 C797 1.392 . S
C796 C799 1.511 . S
C797 C793 1.376 . S
C797 C796 1.392 . S
C797 H809 0.929 . S
C798 C794 1.531 . S
C798 H810 0.960 . S
C798 H811 0.962 . S
C798 H812 0.960 . S
C799 C796 1.511 . S
C799 H813 0.961 . S
C799 H814 0.961 . S
C799 H815 0.961 . S
C800 C801 1.370 . S
C800 C802 1.363 . S
C800 H816 0.931 . S
C801 C800 1.370 . S
C801 C805 1.408 . S
C802 C800 1.363 . S
C802 C803 1.370 . S
C802 C806 1.524 . S
C803 C795 1.503 . S
C803 C802 1.370 . S
C803 C804 1.403 . S
C804 C803 1.403 . S
C804 C805 1.404 . S
C804 C807 1.539 . S
C805 C801 1.408 . S
C805 C804 1.404 . S
C805 H817 0.930 . S
C806 C802 1.524 . S
C806 H818 0.956 . S
C806 H819 0.961 . S
C806 H820 0.961 . S
C807 C804 1.539 . S
C807 H821 0.958 . S
C807 H822 0.961 . S
C807 H823 0.960 . S
H808 C792 0.931 . S
H809 C797 0.929 . S
H810 C798 0.960 . S
H811 C798 0.962 . S
H812 C798 0.960 . S
H813 C799 0.961 . S
H814 C799 0.961 . S
H815 C799 0.961 . S
H816 C800 0.931 . S
H817 C805 0.930 . S
H818 C806 0.956 . S
H819 C806 0.961 . S
H820 C806 0.961 . S
H821 C807 0.958 . S
H822 C807 0.961 . S
H823 C807 0.960 . S
C824 C825 1.391 . S
C824 C826 1.394 . S
C824 H840 0.931 . S
C825 C824 1.391 . S
C825 C829 1.376 . S
C826 C824 1.394 . S
C826 C827 1.369 . S
C826 C830 1.531 . S
C827 C826 1.369 . S
C827 C828 1.410 . S
C827 C835 1.503 . S
C828 C827 1.410 . S
C828 C829 1.392 . S
C828 C831 1.511 . S
C829 C825 1.376 . S
C829 C828 1.392 . S
C829 H841 0.929 . S
C830 C826 1.531 . S
C830 H842 0.960 . S
C830 H843 0.962 . S
C830 H844 0.960 . S
C831 C828 1.511 . S
C831 H845 0.961 . S
C831 H846 0.961 . S
C831 H847 0.961 . S
C832 C833 1.370 . S
C832 C834 1.363 . S
C832 H848 0.933 . S
C833 C832 1.370 . S
C833 C837 1.408 . S
C834 C832 1.363 . S
C834 C835 1.370 . S
C834 C838 1.524 . S
C835 C827 1.503 . S
C835 C834 1.370 . S
C835 C836 1.403 . S
C836 C835 1.403 . S
C836 C837 1.404 . S
C836 C839 1.539 . S
C837 C833 1.408 . S
C837 C836 1.404 . S
C837 H849 0.930 . S
C838 C834 1.524 . S
C838 H850 0.956 . S
C838 H851 0.961 . S
C838 H852 0.961 . S
C839 C836 1.539 . S
C839 H853 0.958 . S
C839 H854 0.961 . S
C839 H855 0.960 . S
H840 C824 0.931 . S
H841 C829 0.929 . S
H842 C830 0.960 . S
H843 C830 0.962 . S
H844 C830 0.960 . S
H845 C831 0.961 . S
H846 C831 0.961 . S
H847 C831 0.961 . S
H848 C832 0.933 . S
H849 C837 0.930 . S
H850 C838 0.956 . S
H851 C838 0.961 . S
H852 C838 0.961 . S
H853 C839 0.958 . S
H854 C839 0.961 . S
H855 C839 0.960 . S
C856 C857 1.391 . S
C856 C858 1.394 . S
C856 H872 0.931 . S
C857 C856 1.391 . S
C857 C861 1.376 . S
C858 C856 1.394 . S
C858 C859 1.369 . S
C858 C862 1.531 . S
C859 C858 1.369 . S
C859 C860 1.410 . S
C859 C867 1.503 . S
C860 C859 1.410 . S
C860 C861 1.392 . S
C860 C863 1.511 . S
C861 C857 1.376 . S
C861 C860 1.392 . S
C861 H873 0.929 . S
C862 C858 1.531 . S
C862 H874 0.960 . S
C862 H875 0.962 . S
C862 H876 0.960 . S
C863 C860 1.511 . S
C863 H877 0.961 . S
C863 H878 0.961 . S
C863 H879 0.961 . S
C864 C865 1.370 . S
C864 C866 1.363 . S
C864 H880 0.931 . S
C865 C864 1.370 . S
C865 C869 1.408 . S
C866 C864 1.363 . S
C866 C867 1.370 . S
C866 C870 1.524 . S
C867 C859 1.503 . S
C867 C866 1.370 . S
C867 C868 1.403 . S
C868 C867 1.403 . S
C868 C869 1.404 . S
C868 C871 1.539 . S
C869 C865 1.408 . S
C869 C868 1.404 . S
C869 H881 0.930 . S
C870 C866 1.524 . S
C870 H882 0.956 . S
C870 H883 0.961 . S
C870 H884 0.961 . S
C871 C868 1.539 . S
C871 H885 0.958 . S
C871 H886 0.961 . S
C871 H887 0.960 . S
H872 C856 0.931 . S
H873 C861 0.929 . S
H874 C862 0.960 . S
H875 C862 0.962 . S
H876 C862 0.960 . S
H877 C863 0.961 . S
H878 C863 0.961 . S
H879 C863 0.961 . S
H880 C864 0.931 . S
H881 C869 0.930 . S
H882 C870 0.956 . S
H883 C870 0.961 . S
H884 C870 0.961 . S
H885 C871 0.958 . S
H886 C871 0.961 . S
H887 C871 0.960 . S
C888 C889 1.391 . S
C888 C890 1.394 . S
C888 H904 0.931 . S
C889 C888 1.391 . S
C889 C893 1.376 . S
C890 C888 1.394 . S
C890 C891 1.369 . S
C890 C894 1.531 . S
C891 C890 1.369 . S
C891 C892 1.410 . S
C891 C899 1.503 . S
C892 C891 1.410 . S
C892 C893 1.392 . S
C892 C895 1.511 . S
C893 C889 1.376 . S
C893 C892 1.392 . S
C893 H905 0.929 . S
C894 C890 1.531 . S
C894 H906 0.960 . S
C894 H907 0.962 . S
C894 H908 0.960 . S
C895 C892 1.511 . S
C895 H909 0.961 . S
C895 H910 0.961 . S
C895 H911 0.961 . S
C896 C897 1.370 . S
C896 C898 1.363 . S
C896 H912 0.931 . S
C897 C896 1.370 . S
C897 C901 1.408 . S
C898 C896 1.363 . S
C898 C899 1.370 . S
C898 C902 1.524 . S
C899 C891 1.503 . S
C899 C898 1.370 . S
C899 C900 1.403 . S
C900 C899 1.403 . S
C900 C901 1.404 . S
C900 C903 1.539 . S
C901 C897 1.408 . S
C901 C900 1.404 . S
C901 H913 0.930 . S
C902 C898 1.524 . S
C902 H914 0.956 . S
C902 H915 0.961 . S
C902 H916 0.961 . S
C903 C900 1.539 . S
C903 H917 0.958 . S
C903 H918 0.961 . S
C903 H919 0.960 . S
H904 C888 0.931 . S
H905 C893 0.929 . S
H906 C894 0.960 . S
H907 C894 0.962 . S
H908 C894 0.960 . S
H909 C895 0.961 . S
H910 C895 0.961 . S
H911 C895 0.961 . S
H912 C896 0.931 . S
H913 C901 0.930 . S
H914 C902 0.956 . S
H915 C902 0.961 . S
H916 C902 0.961 . S
H917 C903 0.958 . S
H918 C903 0.961 . S
H919 C903 0.960 . S
C920 C921 1.391 . S
C920 C922 1.394 . S
C920 H936 0.931 . S
C921 C920 1.391 . S
C921 C925 1.376 . S
C922 C920 1.394 . S
C922 C923 1.369 . S
C922 C926 1.531 . S
C923 C922 1.369 . S
C923 C924 1.410 . S
C923 C931 1.503 . S
C924 C923 1.410 . S
C924 C925 1.392 . S
C924 C927 1.511 . S
C925 C921 1.376 . S
C925 C924 1.392 . S
C925 H937 0.929 . S
C926 C922 1.531 . S
C926 H938 0.960 . S
C926 H939 0.962 . S
C926 H940 0.960 . S
C927 C924 1.511 . S
C927 H941 0.961 . S
C927 H942 0.961 . S
C927 H943 0.961 . S
C928 C929 1.370 . S
C928 C930 1.363 . S
C928 H944 0.931 . S
C929 C928 1.370 . S
C929 C933 1.408 . S
C930 C928 1.363 . S
C930 C931 1.370 . S
C930 C934 1.524 . S
C931 C923 1.503 . S
C931 C930 1.370 . S
C931 C932 1.403 . S
C932 C931 1.403 . S
C932 C933 1.404 . S
C932 C935 1.539 . S
C933 C929 1.408 . S
C933 C932 1.404 . S
C933 H945 0.930 . S
C934 C930 1.524 . S
C934 H946 0.956 . S
C934 H947 0.961 . S
C934 H948 0.961 . S
C935 C932 1.539 . S
C935 H949 0.958 . S
C935 H950 0.961 . S
C935 H951 0.960 . S
H936 C920 0.931 . S
H937 C925 0.929 . S
H938 C926 0.960 . S
H939 C926 0.962 . S
H940 C926 0.960 . S
H941 C927 0.961 . S
H942 C927 0.961 . S
H943 C927 0.961 . S
H944 C928 0.931 . S
H945 C933 0.930 . S
H946 C934 0.956 . S
H947 C934 0.961 . S
H948 C934 0.961 . S
H949 C935 0.958 . S
H950 C935 0.961 . S
H951 C935 0.960 . S
C185 C9 1.849 . S
C193 C123 1.867 . S
C217 C21 1.311 . S
C225 C126 1.300 . S
C257 C162 1.427 . S
C249 C30 1.396 . S
C281 C43 1.466 . S
C289 C182 1.494 1_655 S
C321 C136 1.580 . S
C313 C4 1.574 . S
C353 C113 2.031 . S
C345 C22 2.039 . S
C385 C166 1.273 . S
C377 C34 1.352 . S
C417 C146 1.224 . S
C409 C48 1.243 . S
C441 C8 1.445 . S
C449 C176 1.382 . S
C481 C142 1.713 . S
C473 C35 1.725 . S
C505 C47 1.751 . S
C513 C108 1.708 . S
C537 C17 1.207 . S
C545 C156 1.153 . S
C577 C122 1.450 . S
C569 C60 1.491 . S
C601 C74 1.478 . S
C609 C128 1.403 . S
C633 C82 1.220 . S
C641 C163 1.277 . S
C665 C100 1.925 . S
C673 C183 1.907 . S
C697 C61 2.008 . S
C705 C133 1.983 . S
C737 C116 1.595 . S
C729 C73 1.637 . S
C769 C168 1.675 . S
C761 C87 1.751 . S
C801 C148 1.116 . S
C793 C95 1.183 . S
C825 C56 1.379 . S
C833 C173 1.330 . S
C865 C143 1.699 . S
C857 C86 1.735 . S
C897 C106 1.628 . S
C889 C99 1.681 . S
C921 C69 1.175 . S
C929 C153 1.219 . S
