# Generated by pormake.
# Topology zzz, (3,6)-cn, num edge types: 1
# Building blocks:
#     Node 0, Type 0, BuildingBlock: BELTOD_clean_linker_0, # of connection points: 3
#     Node 1, Type 0, BuildingBlock: BELTOD_clean_linker_0, # of connection points: 3
#     Node 2, Type 0, BuildingBlock: BELTOD_clean_linker_0, # of connection points: 3
#     Node 3, Type 0, BuildingBlock: BELTOD_clean_linker_0, # of connection points: 3
#     Node 4, Type 0, BuildingBlock: BELTOD_clean_linker_0, # of connection points: 3
#     Node 5, Type 0, BuildingBlock: BELTOD_clean_linker_0, # of connection points: 3
#     Node 6, Type 0, BuildingBlock: BELTOD_clean_linker_0, # of connection points: 3
#     Node 7, Type 0, BuildingBlock: BELTOD_clean_linker_0, # of connection points: 3
#     Node 8, Type 1, BuildingBlock: BETDAH_clean_sbu_0, # of connection points: 6
#     Node 9, Type 1, BuildingBlock: BETDAH_clean_sbu_0, # of connection points: 6
#     Node 10, Type 1, BuildingBlock: BETDAH_clean_sbu_0, # of connection points: 6
#     Node 11, Type 1, BuildingBlock: BETDAH_clean_sbu_0, # of connection points: 6
#     Edge 12, Type (0, 1), BuildingBlock: KIFKEQ_clean_linker_1, # of connection points: 2
#     Edge 13, Type (0, 1), BuildingBlock: KIFKEQ_clean_linker_1, # of connection points: 2
#     Edge 14, Type (0, 1), BuildingBlock: KIFKEQ_clean_linker_1, # of connection points: 2
#     Edge 15, Type (0, 1), BuildingBlock: KIFKEQ_clean_linker_1, # of connection points: 2
#     Edge 16, Type (0, 1), BuildingBlock: KIFKEQ_clean_linker_1, # of connection points: 2
#     Edge 17, Type (0, 1), BuildingBlock: KIFKEQ_clean_linker_1, # of connection points: 2
#     Edge 18, Type (0, 1), BuildingBlock: KIFKEQ_clean_linker_1, # of connection points: 2
#     Edge 19, Type (0, 1), BuildingBlock: KIFKEQ_clean_linker_1, # of connection points: 2
#     Edge 20, Type (0, 1), BuildingBlock: KIFKEQ_clean_linker_1, # of connection points: 2
#     Edge 21, Type (0, 1), BuildingBlock: KIFKEQ_clean_linker_1, # of connection points: 2
#     Edge 22, Type (0, 1), BuildingBlock: KIFKEQ_clean_linker_1, # of connection points: 2
#     Edge 23, Type (0, 1), BuildingBlock: KIFKEQ_clean_linker_1, # of connection points: 2
#     Edge 24, Type (0, 1), BuildingBlock: KIFKEQ_clean_linker_1, # of connection points: 2
#     Edge 25, Type (0, 1), BuildingBlock: KIFKEQ_clean_linker_1, # of connection points: 2
#     Edge 26, Type (0, 1), BuildingBlock: KIFKEQ_clean_linker_1, # of connection points: 2
#     Edge 27, Type (0, 1), BuildingBlock: KIFKEQ_clean_linker_1, # of connection points: 2
#     Edge 28, Type (0, 1), BuildingBlock: KIFKEQ_clean_linker_1, # of connection points: 2
#     Edge 29, Type (0, 1), BuildingBlock: KIFKEQ_clean_linker_1, # of connection points: 2
#     Edge 30, Type (0, 1), BuildingBlock: KIFKEQ_clean_linker_1, # of connection points: 2
#     Edge 31, Type (0, 1), BuildingBlock: KIFKEQ_clean_linker_1, # of connection points: 2
#     Edge 32, Type (0, 1), BuildingBlock: KIFKEQ_clean_linker_1, # of connection points: 2
#     Edge 33, Type (0, 1), BuildingBlock: KIFKEQ_clean_linker_1, # of connection points: 2
#     Edge 34, Type (0, 1), BuildingBlock: KIFKEQ_clean_linker_1, # of connection points: 2
#     Edge 35, Type (0, 1), BuildingBlock: KIFKEQ_clean_linker_1, # of connection points: 2
# Relax obj value: 0.430
# Max RMSD: 0.259
# Mean RMSD: 0.246
data_MOF--net-zzz--node1-BETDAH_clean_sbu_0--node2-BELTOD_clean_linker_0--edge1-KIFKEQ_clean_linker_1
_symmetry_space_group_name_H-M    P1
_symmetry_Int_Tables_number       1
_symmetry_cell_setting            triclinic
loop_
_symmetry_equiv_pos_as_xyz
'x, y, z'
_cell_length_a     56.817271
_cell_length_b     56.873488
_cell_length_c     17.162742
_cell_angle_alpha  89.990942
_cell_angle_beta   89.984138
_cell_angle_gamma 90.056191
loop_
_atom_site_label
_atom_site_type_symbol
_atom_site_fract_x
_atom_site_fract_y
_atom_site_fract_z
_atom_type_partial_charge
P0 P 0.71201 0.47067 0.37467 0.0
H1 H 0.72985 0.47976 0.53216 0.0
H2 H 0.76843 0.49219 0.57726 0.0
H3 H 0.78667 0.51302 0.34269 0.0
H4 H 0.74814 0.49957 0.29751 0.0
H5 H 0.66363 0.45604 0.35415 0.0
H6 H 0.63295 0.4678 0.26417 0.0
H7 H 0.67571 0.52664 0.18987 0.0
H8 H 0.70689 0.51401 0.27908 0.0
H9 H 0.75057 0.4381 0.39712 0.0
H10 H 0.70573 0.45951 0.20701 0.0
O11 O 0.70113 0.45493 0.4485 0.0
H12 H 0.77675 0.41865 0.3054 0.0
H13 H 0.73121 0.43922 0.11545 0.0
C14 C 0.73584 0.48886 0.41133 0.0
C15 C 0.74177 0.48774 0.49063 0.0
C16 C 0.76406 0.49486 0.51652 0.0
C17 C 0.78106 0.50332 0.46366 0.0
C18 C 0.77434 0.50614 0.38508 0.0
C19 C 0.75203 0.49892 0.35924 0.0
C20 C 0.6875 0.48432 0.32459 0.0
C21 C 0.66618 0.47192 0.32034 0.0
C22 C 0.64851 0.47873 0.26842 0.0
C23 C 0.65166 0.4982 0.21882 0.0
C24 C 0.67268 0.51133 0.22601 0.0
C25 C 0.69049 0.50434 0.27792 0.0
C26 C 0.72641 0.4506 0.30913 0.0
C27 C 0.74589 0.43789 0.33594 0.0
C28 C 0.7608 0.42661 0.28324 0.0
C29 C 0.7563 0.42766 0.20268 0.0
C30 C 0.73547 0.43853 0.1769 0.0
C31 C 0.72076 0.45008 0.22959 0.0
P32 P 0.0323 0.71928 0.38026 0.0
H33 H 0.01423 0.73317 0.53357 0.0
H34 H 1.00232 0.77144 0.58385 0.0
H35 H 1.00121 0.79907 0.34951 0.0
H36 H 0.01282 0.76057 0.29941 0.0
H37 H 0.04131 0.66953 0.36045 0.0
H38 H 0.02902 0.64062 0.26443 0.0
H39 H 0.98376 0.6923 0.15708 0.0
H40 H 0.99633 0.72143 0.25445 0.0
H41 H 0.07277 0.74401 0.44294 0.0
H42 H 0.04493 0.72715 0.21597 0.0
O43 O 0.04232 0.70517 0.45885 0.0
H44 H 0.09856 0.7735 0.38427 0.0
H45 H 0.07022 0.7567 0.15743 0.0
C46 C 0.01444 0.74383 0.41249 0.0
C47 C 0.01063 0.74716 0.49251 0.0
C48 C 1.00411 0.76924 0.52145 0.0
C49 C 1.0013 0.78856 0.47101 0.0
C50 C 1.00316 0.78465 0.39019 0.0
C51 C 0.00968 0.7625 0.36129 0.0
C52 C 0.01942 0.69758 0.31584 0.0
C53 C 0.02829 0.67459 0.31757 0.0
C54 C 0.02122 0.65798 0.26236 0.0
C55 C 1.00528 0.66401 0.203 0.0
C56 C 0.99613 0.68706 0.20181 0.0
C57 C 1.00312 0.7037 0.25787 0.0
C58 C 0.05698 0.7333 0.33392 0.0
C59 C 0.07293 0.74591 0.38015 0.0
C60 C 0.08754 0.76289 0.34664 0.0
C61 C 0.08623 0.76763 0.26637 0.0
C62 C 0.07187 0.75334 0.2193 0.0
C63 C 0.05725 0.73639 0.25292 0.0
P64 P 0.78229 0.03534 0.37429 0.0
H65 H 0.76694 0.02574 0.53425 0.0
H66 H 0.72873 0.01359 0.58489 0.0
H67 H 0.70692 0.99404 0.35281 0.0
H68 H 0.74543 0.0061 0.30244 0.0
H69 H 0.82824 0.05371 0.34025 0.0
H70 H 0.859 0.04216 0.25142 0.0
H71 H 0.82225 0.97688 0.20582 0.0
H72 H 0.79036 0.98973 0.29242 0.0
H73 H 0.7434 0.06766 0.3948 0.0
H74 H 0.78726 0.04415 0.20475 0.0
O75 O 0.79284 0.05222 0.44576 0.0
H76 H 0.7165 0.0857 0.30206 0.0
H77 H 0.76117 0.06313 0.1123 0.0
C78 C 0.7592 0.01687 0.41433 0.0
C79 C 0.75434 0.01802 0.49442 0.0
C80 C 0.73226 0.01136 0.52331 0.0
C81 C 0.71447 1.00336 0.47276 0.0
C82 C 0.72015 1.00012 0.39355 0.0
C83 C 0.7423 0.00683 0.36465 0.0
C84 C 0.80721 0.02238 0.32464 0.0
C85 C 0.82704 0.03659 0.3129 0.0
C86 C 0.84484 0.02982 0.26161 0.0
C87 C 0.84357 0.00836 0.22082 0.0
C88 C 0.82392 0.99366 0.23495 0.0
C89 C 0.80576 1.00076 0.28565 0.0
C90 C 0.76717 0.05429 0.30702 0.0
C91 C 0.74771 0.06714 0.33334 0.0
C92 C 0.73241 0.07761 0.28008 0.0
C93 C 0.73649 0.07556 0.19949 0.0
C94 C 0.75726 0.06458 0.17388 0.0
C95 C 0.77233 0.0538 0.22711 0.0
P96 P 0.4744 0.79576 0.39666 0.0
H97 H 0.48647 0.78029 0.55446 0.0
H98 H 0.49808 0.74174 0.60291 0.0
H99 H 0.51217 0.71909 0.36738 0.0
H100 H 0.50082 0.75793 0.31926 0.0
H101 H 0.45718 0.84172 0.35627 0.0
H102 H 0.46851 0.87047 0.25902 0.0
H103 H 0.53019 0.82915 0.20397 0.0
H104 H 0.51801 0.79979 0.30089 0.0
H105 H 0.43421 0.76711 0.44125 0.0
H106 H 0.46818 0.78896 0.22835 0.0
O107 O 0.46086 0.80858 0.47178 0.0
H108 H 0.41206 0.73737 0.36896 0.0
H109 H 0.44649 0.7593 0.15646 0.0
C110 C 0.49278 0.77218 0.43303 0.0
C111 C 0.49294 0.76742 0.51325 0.0
C112 C 0.49928 0.74516 0.54095 0.0
C113 C 0.50553 0.72707 0.48898 0.0
C114 C 0.50748 0.73255 0.4092 0.0
C115 C 0.50114 0.7549 0.38153 0.0
C116 C 0.48692 0.81878 0.33695 0.0
C117 C 0.4735 0.8391 0.3248 0.0
C118 C 0.48009 0.85567 0.2689 0.0
C119 C 0.50038 0.85237 0.22317 0.0
C120 C 0.51432 0.83225 0.23732 0.0
C121 C 0.50756 0.81553 0.29342 0.0
C122 C 0.45265 0.78042 0.34021 0.0
C123 C 0.4362 0.76617 0.37856 0.0
C124 C 0.42371 0.74905 0.33731 0.0
C125 C 0.42767 0.74586 0.25713 0.0
C126 C 0.44277 0.76148 0.21793 0.0
C127 C 0.45527 0.77852 0.25924 0.0
P128 P 0.28185 0.45803 0.05742 0.0
H129 H 0.2615 0.44263 0.90926 0.0
H130 H 0.22456 0.45254 0.84517 0.0
H131 H 0.21559 0.51131 1.00113 0.0
H132 H 0.25255 0.50104 0.06654 0.0
H133 H 0.3321 0.44722 0.04822 0.0
H134 H 0.36478 0.46096 0.12706 0.0
H135 H 0.32217 0.51856 0.2103 0.0
H136 H 0.2892 0.50435 0.13188 0.0
H137 H 0.23346 0.44337 0.08995 0.0
H138 H 0.2966 0.45648 0.22323 0.0
O139 O 0.29034 0.43242 0.01919 0.0
H140 H 0.21045 0.44361 0.20928 0.0
H141 H 0.27347 0.4571 0.34284 0.0
C142 C 0.26021 0.47122 0.99255 0.0
C143 C 0.25215 0.45817 0.92835 0.0
C144 C 0.23078 0.46369 0.89204 0.0
C145 C 0.21694 0.48254 0.91858 0.0
C146 C 0.22588 0.49675 0.97893 0.0
C147 C 0.24722 0.49103 0.01595 0.0
C148 C 0.30798 0.47468 0.08359 0.0
C149 C 0.32995 0.46339 0.08066 0.0
C150 C 0.34878 0.47128 0.12637 0.0
C151 C 0.34608 0.49063 0.17662 0.0
C152 C 0.32478 0.50332 0.1735 0.0
C153 C 0.30596 0.49546 0.12726 0.0
C154 C 0.26652 0.45146 0.14686 0.0
C155 C 0.24248 0.446 0.14482 0.0
C156 C 0.22934 0.44584 0.21341 0.0
C157 C 0.24013 0.45091 0.28521 0.0
C158 C 0.26467 0.45366 0.28802 0.0
C159 C 0.27784 0.45357 0.21932 0.0
P160 P 0.0557 0.28766 0.052 0.0
H161 H 0.04616 0.2733 0.89037 0.0
H162 H 0.03271 0.23592 0.83708 0.0
H163 H 0.01314 0.21321 0.06871 0.0
H164 H 0.02539 0.25113 0.12035 0.0
H165 H 0.06803 0.33731 0.05089 0.0
H166 H 0.05673 0.3699 0.13475 0.0
H167 H 1.00273 0.32673 0.23921 0.0
H168 H 0.01406 0.29398 0.15375 0.0
H169 H 0.08149 0.24365 0.05069 0.0
H170 H 0.06671 0.29828 0.21801 0.0
O171 O 0.07476 0.29666 0.98424 0.0
H172 H 0.08995 0.21653 0.15557 0.0
H173 H 0.07646 0.2716 0.32369 0.0
C174 C 0.03698 0.26511 0.00961 0.0
C175 C 0.03811 0.26065 0.92931 0.0
C176 C 0.0308 0.23893 0.89903 0.0
C177 C 0.02248 0.22094 0.94855 0.0
C178 C 0.01937 0.22638 0.02811 0.0
C179 C 0.0263 0.24828 0.05802 0.0
C180 C 0.0417 0.3132 0.09493 0.0
C181 C 0.05319 0.33499 0.08972 0.0
C182 C 0.04691 0.3536 0.13864 0.0
C183 C 0.02906 0.35087 0.19465 0.0
C184 C 0.01647 0.3295 0.19646 0.0
C185 C 0.02284 0.31077 0.14726 0.0
C186 C 0.07216 0.27253 0.12646 0.0
C187 C 0.08101 0.25011 0.11005 0.0
C188 C 0.08606 0.23459 0.17064 0.0
C189 C 0.08292 0.24154 0.24874 0.0
C190 C 0.078 0.26533 0.26433 0.0
C191 C 0.07243 0.28069 0.20357 0.0
P192 P 0.21807 0.04425 0.05448 0.0
H193 H 0.23174 0.03924 0.89198 0.0
H194 H 0.26791 0.02439 0.83647 0.0
H195 H 0.28349 0.98889 0.05313 0.0
H196 H 0.24732 1.00485 0.10942 0.0
H197 H 0.19224 0.07091 0.16859 0.0
H198 H 0.16232 0.06111 0.26471 0.0
H199 H 0.16663 0.98802 0.19744 0.0
H200 H 0.1972 0.99814 0.10118 0.0
H201 H 0.24797 0.08106 0.99058 0.0
H202 H 0.23926 0.04482 0.20934 0.0
O203 O 0.20333 0.0601 0.98884 0.0
H204 H 0.28769 0.09277 0.029 0.0
H205 H 0.27869 0.05633 0.24791 0.0
C206 C 0.23645 0.02299 0.00486 0.0
C207 C 0.24228 0.02735 0.9267 0.0
C208 C 0.26331 0.01888 0.89488 0.0
C209 C 0.27915 0.0057 0.94038 0.0
C210 C 0.27214 0.99945 0.01655 0.0
C211 C 0.25107 0.00809 0.04848 0.0
C212 C 0.1972 0.03524 0.12845 0.0
C213 C 0.18692 0.05271 0.17486 0.0
C214 C 0.16956 0.04709 0.22939 0.0
C215 C 0.16178 0.02378 0.23869 0.0
C216 C 0.17227 0.00614 0.19232 0.0
C217 C 0.18975 0.01186 0.13723 0.0
C218 C 0.24054 0.06229 0.09742 0.0
C219 C 0.25408 0.07672 0.0486 0.0
C220 C 0.27691 0.08316 0.0702 0.0
C221 C 0.28645 0.07521 0.14099 0.0
C222 C 0.27183 0.06298 0.19331 0.0
C223 C 0.24911 0.05644 0.17142 0.0
P224 P 0.47003 0.24434 0.16554 0.0
H225 H 0.43673 0.25998 0.04637 0.0
H226 H 0.44023 0.29077 0.94798 0.0
H227 H 0.51561 0.29151 0.98056 0.0
H228 H 0.51209 0.26018 0.07554 0.0
H229 H 0.43548 0.21616 0.24853 0.0
H230 H 0.43568 0.17603 0.2944 0.0
H231 H 0.49797 0.16202 0.15788 0.0
H232 H 0.49745 0.20282 0.11029 0.0
H233 H 0.47292 0.28041 0.28619 0.0
H234 H 0.51976 0.22983 0.18091 0.0
O235 O 0.44544 0.2564 0.20089 0.0
H236 H 0.50604 0.29836 0.35294 0.0
H237 H 0.55318 0.24826 0.24665 0.0
C238 C 0.47402 0.25801 0.07062 0.0
C239 C 0.45412 0.26608 0.03025 0.0
C240 C 0.45613 0.28405 0.97463 0.0
C241 C 0.47813 0.29439 0.95805 0.0
C242 C 0.49831 0.28428 0.99188 0.0
C243 C 0.49627 0.26621 0.04713 0.0
C244 C 0.46656 0.21279 0.176 0.0
C245 C 0.44883 0.20445 0.2259 0.0
C246 C 0.44893 0.18125 0.25245 0.0
C247 C 0.46696 0.1657 0.23063 0.0
C248 C 0.48399 0.17362 0.17678 0.0
C249 C 0.48367 0.19694 0.14925 0.0
C250 C 0.49374 0.25373 0.2282 0.0
C251 C 0.49018 0.27267 0.27899 0.0
C252 C 0.50918 0.28289 0.31763 0.0
C253 C 0.53217 0.27463 0.30505 0.0
C254 C 0.5356 0.25485 0.25756 0.0
C255 C 0.51645 0.24429 0.22016 0.0
Ho256 Ho 0.01545 0.99453 0.80463 0.0
Ho257 Ho 0.98804 0.01191 0.65358 0.0
C258 C 0.99778 0.95685 0.67205 0.0
C259 C 0.02567 0.97676 0.93817 0.0
C260 C 0.03992 0.95649 0.96441 0.0
C261 C 0.03132 0.93343 0.9568 0.0
C262 C 0.04478 0.91435 0.98139 0.0
C263 C 0.06722 0.91777 0.01409 0.0
C264 C 0.07585 0.94084 0.02182 0.0
C265 C 0.06229 0.96001 0.99738 0.0
C266 C 0.04546 0.99959 0.68076 0.0
C267 C 0.00953 0.04992 0.77668 0.0
C268 C 0.97636 0.03506 0.53122 0.0
C269 C 0.9866 0.05721 0.5011 0.0
C270 C 0.0071 0.05685 0.45517 0.0
C271 C 0.01915 0.07767 0.43861 0.0
C272 C 0.01076 0.09928 0.46672 0.0
C273 C 0.98962 0.0998 0.5091 0.0
C274 C 0.97763 0.07899 0.52597 0.0
C275 C 0.96122 0.99858 0.77673 0.0
O276 O 1.00356 0.96077 0.74605 0.0
O277 O 0.99335 0.97409 0.62214 0.0
O278 O 0.03727 0.99453 0.90786 0.0
O279 O 0.00622 0.97182 0.9002 0.0
O280 O 0.05206 0.99266 0.74933 0.0
O281 O 0.02372 1.00317 0.6848 0.0
O282 O 1.00434 0.04506 0.70307 0.0
O283 O 0.01178 0.03319 0.82994 0.0
O284 O 0.96491 0.03676 0.59729 0.0
O285 O 0.99003 0.0165 0.52873 0.0
O286 O 0.95496 0.99604 0.70436 0.0
O287 O 0.98056 0.00947 0.77937 0.0
H288 H 0.01409 0.93001 0.93229 0.0
H289 H 0.03728 0.8969 0.97641 0.0
H290 H 0.09307 0.94408 0.0466 0.0
H291 H 0.06933 0.97759 0.0043 0.0
H292 H 0.01432 0.04043 0.43407 0.0
H293 H 0.03512 0.07683 0.40425 0.0
H294 H 0.98274 0.11621 0.53154 0.0
H295 H 0.96182 0.07992 0.56114 0.0
Ho296 Ho 0.49977 0.01555 0.75363 0.0
Ho297 Ho 0.48842 0.9815 0.61555 0.0
C298 C 0.54262 0.9965 0.64197 0.0
C299 C 0.51541 0.03935 0.87096 0.0
C300 C 0.53848 0.04715 0.89881 0.0
C301 C 0.55894 0.03467 0.87971 0.0
C302 C 0.58095 0.04332 0.90171 0.0
C303 C 0.5828 0.06456 0.94328 0.0
C304 C 0.5622 0.07689 0.96277 0.0
C305 C 0.5402 0.06826 0.94046 0.0
C306 C 0.4814 0.03536 0.62289 0.0
C307 C 0.44772 0.99729 0.73912 0.0
C308 C 0.4743 0.96857 0.47916 0.0
C309 C 0.46251 0.98134 0.41554 0.0
C310 C 0.47072 1.0034 0.3904 0.0
C311 C 0.45707 0.01723 0.34057 0.0
C312 C 0.43514 0.00907 0.31421 0.0
C313 C 0.42768 0.98637 0.3356 0.0
C314 C 0.44123 0.97267 0.38593 0.0
C315 C 0.49848 0.95564 0.74469 0.0
O316 O 0.53619 0.00813 0.70565 0.0
O317 O 0.52729 0.98557 0.59642 0.0
O318 O 0.50869 0.04891 0.8055 0.0
O319 O 0.51105 0.01675 0.87395 0.0
O320 O 0.47583 0.04152 0.69319 0.0
O321 O 0.49651 0.01921 0.62588 0.0
O322 O 0.45279 0.99247 0.66513 0.0
O323 O 0.46426 1.00312 0.78951 0.0
O324 O 0.46167 0.96596 0.54227 0.0
O325 O 0.4961 0.97442 0.49434 0.0
O326 O 0.49361 0.94658 0.67719 0.0
O327 O 0.49819 0.97765 0.73753 0.0
H328 H 0.5579 0.01834 0.84754 0.0
H329 H 0.59649 0.03322 0.88707 0.0
H330 H 0.56311 0.09336 0.99433 0.0
H331 H 0.52454 0.07821 0.95486 0.0
H332 H 0.48727 0.01029 0.41137 0.0
H333 H 0.46338 0.03453 0.32425 0.0
H334 H 0.41074 0.97968 0.31697 0.0
H335 H 0.43456 0.95573 0.40466 0.0
Ho336 Ho 0.483 0.51359 0.76202 0.0
Ho337 Ho 0.51535 0.49998 0.62117 0.0
C338 C 0.50448 0.55512 0.65161 0.0
C339 C 0.46222 0.53004 0.88436 0.0
C340 C 0.45341 0.55279 0.91262 0.0
C341 C 0.46703 0.57332 0.90743 0.0
C342 C 0.45841 0.59454 0.93675 0.0
C343 C 0.43592 0.59566 0.97115 0.0
C344 C 0.42215 0.57513 0.97433 0.0
C345 C 0.43086 0.55389 0.94559 0.0
C346 C 0.46093 0.501 0.62802 0.0
C347 C 0.49656 0.4597 0.74134 0.0
C348 C 0.53105 0.48529 0.48937 0.0
C349 C 0.54669 0.4656 0.47057 0.0
C350 C 0.5499 0.44753 0.52502 0.0
C351 C 0.56298 0.42769 0.50558 0.0
C352 C 0.57341 0.42561 0.43147 0.0
C353 C 0.57147 0.44458 0.37897 0.0
C354 C 0.55808 0.4644 0.39832 0.0
C355 C 0.54172 0.50247 0.75406 0.0
O356 O 0.49372 0.54944 0.71764 0.0
O357 O 0.5126 0.53907 0.60244 0.0
O358 O 0.45094 0.52109 0.82509 0.0
O359 O 0.48505 0.5275 0.87895 0.0
O360 O 0.45381 0.4953 0.69725 0.0
O361 O 0.47923 0.5135 0.63333 0.0
O362 O 0.50293 0.46467 0.66859 0.0
O363 O 0.49154 0.4764 0.79232 0.0
O364 O 0.54088 0.50254 0.52814 0.0
O365 O 0.51037 0.47928 0.51726 0.0
O366 O 0.55006 0.49728 0.68605 0.0
O367 O 0.52001 0.50597 0.74593 0.0
H368 H 0.48444 0.57294 0.88174 0.0
H369 H 0.46966 0.6099 0.93432 0.0
H370 H 0.40464 0.57542 0.99927 0.0
H371 H 0.42002 0.53825 0.94949 0.0
H372 H 0.54151 0.44835 0.58166 0.0
H373 H 0.56365 0.41342 0.54729 0.0
H374 H 0.57959 0.44377 0.32194 0.0
H375 H 0.55611 0.47844 0.35617 0.0
Ho376 Ho 0.99262 0.49036 0.76619 0.0
Ho377 Ho 1.00545 0.52166 0.63693 0.0
C378 C 0.95125 0.50999 0.64829 0.0
C379 C 0.9743 0.47008 0.88667 0.0
C380 C 0.95163 0.4589 0.90502 0.0
C381 C 0.93035 0.46887 0.88013 0.0
C382 C 0.90897 0.45812 0.89836 0.0
C383 C 0.90847 0.43717 0.94196 0.0
C384 C 0.92986 0.42702 0.96571 0.0
C385 C 0.95126 0.43781 0.94726 0.0
C386 C 0.00659 0.46715 0.6363 0.0
C387 C 0.04639 0.50093 0.74948 0.0
C388 C 0.02812 0.53951 0.52203 0.0
C389 C 0.05238 0.53315 0.49991 0.0
C390 C 0.05804 0.50951 0.48486 0.0
C391 C 0.08141 0.50228 0.48263 0.0
C392 C 0.09968 0.51844 0.49548 0.0
C393 C 0.09416 0.5423 0.50623 0.0
C394 C 0.07066 0.54959 0.50855 0.0
C395 C 0.99195 0.54485 0.76716 0.0
O396 O 0.95669 0.49982 0.71559 0.0
O397 O 0.96771 0.51877 0.60243 0.0
O398 O 0.98731 0.45907 0.83578 0.0
O399 O 0.97409 0.49286 0.87574 0.0
O400 O 0.01202 0.46092 0.70657 0.0
O401 O 0.99337 0.48494 0.63836 0.0
O402 O 0.04055 0.50675 0.67747 0.0
O403 O 0.02988 0.49709 0.80188 0.0
O404 O 0.02626 0.55014 0.58923 0.0
O405 O 0.01218 0.52311 0.51297 0.0
O406 O 0.98624 0.55108 0.69692 0.0
O407 O 1.00506 0.52694 0.76462 0.0
H408 H 0.93021 0.48518 0.84767 0.0
H409 H 0.89282 0.46664 0.88041 0.0
H410 H 0.93003 0.41083 0.99889 0.0
H411 H 0.96754 0.42976 0.96646 0.0
H412 H 0.04446 0.49627 0.47847 0.0
H413 H 0.08515 0.48388 0.47202 0.0
H414 H 0.10794 0.55515 0.51592 0.0
H415 H 0.06674 0.56784 0.52118 0.0
H416 H 0.12192 0.04918 0.27168 0.0
H417 H 0.15872 0.98589 0.33818 0.0
H418 H 0.09328 0.04254 0.37484 0.0
H419 H 0.12942 0.97867 0.43951 0.0
H420 H 0.09209 0.98982 0.67362 0.0
H421 H 0.1188 0.99426 0.56369 0.0
H422 H 0.06118 0.01916 0.42165 0.0
H423 H 0.03463 0.01517 0.53338 0.0
C424 C 0.12386 0.03374 0.30806 0.0
C425 C 0.14292 0.01825 0.297 0.0
C426 C 0.10719 0.02977 0.36681 0.0
C427 C 0.10901 0.01015 0.41636 0.0
C428 C 0.12761 0.9942 0.40354 0.0
C429 C 0.14431 0.99818 0.34467 0.0
C430 C 0.0851 0.99619 0.61884 0.0
C431 C 0.06118 1.00212 0.61208 0.0
C432 C 0.10041 0.99855 0.55539 0.0
C433 C 0.09226 0.00692 0.4831 0.0
C434 C 0.06822 0.01282 0.47637 0.0
C435 C 0.0529 0.01043 0.54017 0.0
H436 H 0.43162 0.1346 0.26849 0.0
H437 H 0.50682 0.14429 0.28598 0.0
H438 H 0.43416 0.10044 0.35407 0.0
H439 H 0.50937 0.11011 0.37116 0.0
H440 H 0.50934 0.03978 0.49418 0.0
H441 H 0.50526 0.06788 0.38718 0.0
H442 H 0.44163 0.09472 0.49226 0.0
H443 H 0.44561 0.06631 0.59835 0.0
C444 C 0.44875 0.12931 0.28986 0.0
C445 C 0.46899 0.14242 0.27074 0.0
C446 C 0.45019 0.10972 0.33913 0.0
C447 C 0.47193 0.10261 0.37049 0.0
C448 C 0.49234 0.11489 0.34771 0.0
C449 C 0.4909 0.13452 0.29853 0.0
C450 C 0.49426 0.05142 0.49355 0.0
C451 C 0.4777 0.05078 0.55433 0.0
C452 C 0.49203 0.06768 0.43259 0.0
C453 C 0.47316 0.0837 0.43096 0.0
C454 C 0.45623 0.0825 0.49084 0.0
C455 C 0.45856 0.06633 0.55199 0.0
H456 H 0.33842 0.50248 0.3291 0.0
H457 H 0.3946 0.48898 0.1656 0.0
H458 H 0.367 0.50578 0.43396 0.0
H459 H 0.42327 0.49156 0.27168 0.0
H460 H 0.46912 0.51837 0.48068 0.0
H461 H 0.44219 0.5177 0.3688 0.0
H462 H 0.39174 0.47856 0.5054 0.0
H463 H 0.41839 0.47945 0.61641 0.0
C464 C 0.35691 0.5006 0.31505 0.0
C465 C 0.36409 0.49547 0.23843 0.0
C466 C 0.37333 0.50213 0.37567 0.0
C467 C 0.39748 0.49859 0.36177 0.0
C468 C 0.40484 0.49441 0.28467 0.0
C469 C 0.38836 0.49278 0.22387 0.0
C470 C 0.45233 0.5095 0.48637 0.0
C471 C 0.44583 0.49909 0.55756 0.0
C472 C 0.4369 0.50908 0.42228 0.0
C473 C 0.41459 0.49836 0.4282 0.0
C474 C 0.4085 0.48744 0.499 0.0
C475 C 0.42389 0.48778 0.56262 0.0
H476 H 0.98719 0.36852 0.25163 0.0
H477 H 0.06255 0.37498 0.27584 0.0
H478 H 0.98181 0.398 0.35466 0.0
H479 H 0.05719 0.40436 0.37754 0.0
H480 H 0.03707 0.43067 0.62334 0.0
H481 H 0.04211 0.40371 0.51402 0.0
H482 H 0.98936 0.44167 0.384 0.0
H483 H 0.98446 0.46892 0.49394 0.0
C484 C 1.00258 0.37627 0.27863 0.0
C485 C 0.02529 0.36942 0.25514 0.0
C486 C 0.99951 0.39329 0.33718 0.0
C487 C 0.01908 0.40352 0.37446 0.0
C488 C 0.04174 0.39674 0.35051 0.0
C489 C 0.0448 0.38002 0.2916 0.0
C490 C 0.02665 0.43337 0.57126 0.0
C491 C 0.01035 0.45188 0.56731 0.0
C492 C 0.02958 0.41796 0.50846 0.0
C493 C 0.0161 0.42047 0.44024 0.0
C494 C 0.99986 0.43912 0.43597 0.0
C495 C 0.99717 0.45481 0.49864 0.0
H496 H 0.83885 0.98248 0.08479 0.0
H497 H 0.89064 0.02059 0.21939 0.0
H498 H 0.86779 0.97605 0.9835 0.0
H499 H 0.91844 0.0169 0.11452 0.0
H500 H 0.97159 1.00051 0.93222 0.0
H501 H 0.94463 0.99798 0.04168 0.0
H502 H 0.88622 0.99196 0.88071 0.0
H503 H 0.9137 0.99195 0.77254 0.0
C504 C 0.85636 0.98951 0.09333 0.0
C505 C 0.86198 1.00245 0.16081 0.0
C506 C 0.87301 0.98625 0.03379 0.0
C507 C 0.89569 0.99631 0.03862 0.0
C508 C 0.90147 0.00855 0.10742 0.0
C509 C 0.88511 0.01119 0.16775 0.0
C510 C 0.95303 0.99804 0.92061 0.0
C511 C 0.94485 0.99617 0.84374 0.0
C512 C 0.93734 0.99702 0.98359 0.0
C513 C 0.91281 0.99503 0.97151 0.0
C514 C 0.9048 0.99299 0.89393 0.0
C515 C 0.92061 0.99322 0.83121 0.0
H516 H 0.49353 0.90036 0.21702 0.0
H517 H 0.51886 0.84212 0.07885 0.0
H518 H 0.4955 0.92578 0.10338 0.0
H519 H 0.52255 0.86796 0.96692 0.0
H520 H 0.49314 0.90875 0.76089 0.0
H521 H 0.49696 0.88503 0.87741 0.0
H522 H 0.51703 0.94683 0.00834 0.0
H523 H 0.51219 0.97081 0.89068 0.0
C524 C 0.49982 0.89298 0.16273 0.0
C525 C 0.50557 0.86892 0.15732 0.0
C526 C 0.50128 0.90774 0.0975 0.0
C527 C 0.50881 0.89897 0.02501 0.0
C528 C 0.51605 0.8753 0.02099 0.0
C529 C 0.51432 0.86048 0.08593 0.0
C530 C 0.49849 0.91731 0.81444 0.0
C531 C 0.50227 0.9417 0.81662 0.0
C532 C 0.50092 0.90361 0.88148 0.0
C533 C 0.5075 0.91382 0.95292 0.0
C534 C 0.51167 0.9383 0.95482 0.0
C535 C 0.50902 0.95209 0.88738 0.0
H536 H 0.6032 0.49299 0.22204 0.0
H537 H 0.66008 0.51444 0.07049 0.0
H538 H 0.57586 0.49534 0.11289 0.0
H539 H 0.63256 0.51833 0.96343 0.0
H540 H 0.58744 0.49079 0.76725 0.0
H541 H 0.61258 0.49213 0.88099 0.0
H542 H 0.5546 0.51852 0.0185 0.0
H543 H 0.52902 0.51637 0.90326 0.0
C544 C 0.60992 0.49847 0.16584 0.0
C545 C 0.63411 0.50318 0.1555 0.0
C546 C 0.59408 0.50012 0.10325 0.0
C547 C 0.60195 0.50665 0.02856 0.0
C548 C 0.62586 0.51266 0.01943 0.0
C549 C 0.64168 0.51081 0.08163 0.0
C550 C 0.57997 0.49692 0.82165 0.0
C551 C 0.5562 0.50356 0.82604 0.0
C552 C 0.59452 0.49792 0.88708 0.0
C553 C 0.58587 0.5058 0.95927 0.0
C554 C 0.56193 0.51228 0.96408 0.0
C555 C 0.54723 0.51115 0.89805 0.0
H556 H 0.99621 0.61684 0.21938 0.0
H557 H 1.00154 0.67141 0.04541 0.0
H558 H 0.99056 0.58761 0.11713 0.0
H559 H 0.99609 0.6422 0.94302 0.0
H560 H 0.969 0.58689 0.77535 0.0
H561 H 0.96936 0.6153 0.88194 0.0
H562 H 0.01285 0.56829 0.01736 0.0
H563 H 0.01195 0.53969 0.91124 0.0
C564 C 0.99615 0.62263 0.15926 0.0
C565 C 0.99945 0.64653 0.1408 0.0
C566 C 0.99298 0.60582 0.10049 0.0
C567 C 0.99303 0.61241 0.02144 0.0
C568 C 0.99562 0.63643 1.00312 0.0
C569 C 0.99875 0.65325 0.06197 0.0
C570 C 0.97844 0.58254 0.82824 0.0
C571 C 0.99054 0.56109 0.83473 0.0
C572 C 0.9788 0.59892 0.88923 0.0
C573 C 0.99129 0.59428 0.95837 0.0
C574 C 1.00283 0.57245 0.96553 0.0
C575 C 1.00242 0.55605 0.90452 0.0
H576 H 0.05167 0.2423 0.37014 0.0
H577 H 0.10573 0.19896 0.26583 0.0
H578 H 0.03759 0.20886 0.44334 0.0
H579 H 0.09029 0.16497 0.33521 0.0
H580 H 0.05822 0.10658 0.47956 0.0
H581 H 0.08006 0.14262 0.45041 0.0
H582 H 0.01478 0.17722 0.39065 0.0
H583 H 0.99317 0.14152 0.42048 0.0
C584 C 0.06112 0.22588 0.36432 0.0
C585 C 0.07953 0.2233 0.31003 0.0
C586 C 0.05269 0.20653 0.40558 0.0
C587 C 0.06221 0.18409 0.3928 0.0
C588 C 0.08236 0.18198 0.34578 0.0
C589 C 0.09106 0.20146 0.30527 0.0
C590 C 0.04862 0.12197 0.46031 0.0
C591 C 0.02401 0.12125 0.45188 0.0
C592 C 0.0611 0.14259 0.44395 0.0
C593 C 0.04919 0.16286 0.41878 0.0
C594 C 0.02451 0.16215 0.41183 0.0
C595 C 0.01208 0.14163 0.42841 0.0
H596 H 0.31028 0.08465 0.27627 0.0
H597 H 0.32083 0.06488 0.03576 0.0
H598 H 0.35087 0.07406 0.30513 0.0
H599 H 0.36162 0.05516 0.06385 0.0
H600 H 0.40814 0.99833 0.18755 0.0
H601 H 0.37585 0.02131 0.13445 0.0
H602 H 0.39327 0.07858 0.28977 0.0
H603 H 0.42519 0.05513 0.34478 0.0
C604 C 0.3215 0.0788 0.22909 0.0
C605 C 0.31226 0.07537 0.15406 0.0
C606 C 0.34485 0.0729 0.2454 0.0
C607 C 0.3594 0.06344 0.18693 0.0
C608 C 0.35076 0.06209 0.11036 0.0
C609 C 0.32742 0.06796 0.09409 0.0
C610 C 0.4053 0.01597 0.20943 0.0
C611 C 0.41894 0.02479 0.27104 0.0
C612 C 0.38695 0.02929 0.17841 0.0
C613 C 0.38183 0.05174 0.20841 0.0
C614 C 0.3966 0.06124 0.26613 0.0
C615 C 0.41501 0.0479 0.2971 0.0
H616 H 0.5686 0.29065 0.21706 0.0
H617 H 0.5402 0.2924 0.4502 0.0
H618 H 0.5927 0.3251 0.24617 0.0
H619 H 0.56403 0.32686 0.47924 0.0
H620 H 0.59842 0.39306 0.51713 0.0
H621 H 0.60095 0.35107 0.48861 0.0
H622 H 0.57243 0.36375 0.25927 0.0
H623 H 0.56907 0.40512 0.28814 0.0
C624 C 0.56836 0.29771 0.27568 0.0
C625 C 0.55223 0.28923 0.33105 0.0
C626 C 0.58208 0.3175 0.29218 0.0
C627 C 0.5799 0.32896 0.36435 0.0
C628 C 0.56618 0.31845 0.42306 0.0
C629 C 0.55236 0.29879 0.40638 0.0
C630 C 0.59321 0.38694 0.45992 0.0
C631 C 0.58275 0.4024 0.40599 0.0
C632 C 0.59486 0.36292 0.4435 0.0
C633 C 0.58648 0.35407 0.37236 0.0
C634 C 0.57915 0.36998 0.3146 0.0
C635 C 0.57721 0.39388 0.33132 0.0
H636 H 0.24474 0.48924 0.37856 0.0
H637 H 0.20153 0.42773 0.3416 0.0
H638 H 0.21422 0.50618 0.46098 0.0
H639 H 0.17083 0.44485 0.4228 0.0
H640 H 0.11721 0.47939 0.56757 0.0
H641 H 0.15593 0.46169 0.54788 0.0
H642 H 0.17642 0.5212 0.40669 0.0
H643 H 0.13777 0.53868 0.42556 0.0
C644 C 0.22913 0.47891 0.39061 0.0
C645 C 0.22529 0.45732 0.35272 0.0
C646 C 0.21159 0.48872 0.43726 0.0
C647 C 0.19002 0.47704 0.44705 0.0
C648 C 0.1873 0.45426 0.41647 0.0
C649 C 0.20479 0.44451 0.36949 0.0
C650 C 0.13015 0.48879 0.53317 0.0
C651 C 0.12434 0.51011 0.49635 0.0
C652 C 0.1523 0.47874 0.52244 0.0
C653 C 0.16907 0.48994 0.4752 0.0
C654 C 0.16394 0.51224 0.44411 0.0
C655 C 0.14175 0.52224 0.45458 0.0
H656 H 0.10876 0.77512 0.12666 0.0
H657 H 0.08384 0.81087 0.33271 0.0
H658 H 0.1142 0.81304 0.06202 0.0
H659 H 0.08863 0.84831 0.26853 0.0
H660 H 0.09338 0.91479 0.1481 0.0
H661 H 0.10905 0.87931 0.20809 0.0
H662 H 0.08564 0.83868 0.0097 0.0
H663 H 0.07154 0.87427 0.94782 0.0
C664 C 0.10501 0.79109 0.15874 0.0
C665 C 0.09563 0.78999 0.23441 0.0
C666 C 0.10802 0.8128 0.12169 0.0
C667 C 0.10143 0.83378 0.15936 0.0
C668 C 0.09416 0.83267 0.23763 0.0
C669 C 0.09137 0.81105 0.27472 0.0
C670 C 0.09234 0.89842 0.1161 0.0
C671 C 0.08066 0.89727 0.044 0.0
C672 C 0.10112 0.878 0.15089 0.0
C673 C 0.09816 0.85599 0.11474 0.0
C674 C 0.08836 0.85524 0.03951 0.0
C675 C 0.07985 0.87565 0.00443 0.0
H676 H 0.70584 0.11304 0.20168 0.0
H677 H 0.72343 0.05033 0.07179 0.0
H678 H 0.66944 0.11671 0.12673 0.0
H679 H 0.6876 0.05417 0.99722 0.0
H680 H 0.59472 0.08257 0.08515 0.0
H681 H 0.63394 0.09202 0.13251 0.0
H682 H 0.66293 0.07574 0.90606 0.0
H683 H 0.62355 0.06614 0.85868 0.0
C684 C 0.70222 0.10035 0.15618 0.0
C685 C 0.71745 0.08126 0.14341 0.0
C686 C 0.68142 0.10247 0.11328 0.0
C687 C 0.67555 0.0856 0.05665 0.0
C688 C 0.6917 0.06765 0.03969 0.0
C689 C 0.71237 0.06547 0.08263 0.0
C690 C 0.60938 0.08157 0.04491 0.0
C691 C 0.60614 0.07328 0.96859 0.0
C692 C 0.63186 0.08711 0.07193 0.0
C693 C 0.65155 0.08449 0.02311 0.0
C694 C 0.64811 0.07761 0.9453 0.0
C695 C 0.62562 0.07202 0.91832 0.0
H696 H 0.42873 0.7013 0.31387 0.0
H697 H 0.40961 0.74127 0.10946 0.0
H698 H 0.42437 0.6651 0.24125 0.0
H699 H 0.40488 0.7047 0.03619 0.0
H700 H 0.4418 0.64073 0.91774 0.0
H701 H 0.43305 0.67707 0.98633 0.0
H702 H 0.40088 0.63731 0.17282 0.0
H703 H 0.41098 0.60092 0.10662 0.0
C704 C 0.4227 0.70232 0.25409 0.0
C705 C 0.41964 0.72417 0.21728 0.0
C706 C 0.42021 0.68148 0.21221 0.0
C707 C 0.41451 0.68197 0.13252 0.0
C708 C 0.40973 0.70375 0.09712 0.0
C709 C 0.41233 0.72467 0.13907 0.0
C710 C 0.43284 0.63973 0.97334 0.0
C711 C 0.42749 0.61787 0.00721 0.0
C712 C 0.42744 0.66062 0.01214 0.0
C713 C 0.41639 0.66012 0.08547 0.0
C714 C 0.40971 0.63831 0.11699 0.0
C715 C 0.41529 0.61742 0.07852 0.0
H716 H 0.7688 0.45072 0.06966 0.0
H717 H 0.78672 0.39002 0.20919 0.0
H718 H 0.80427 0.44551 0.99394 0.0
H719 H 0.82278 0.38503 0.13324 0.0
H720 H 0.86802 0.43225 0.85657 0.0
H721 H 0.82887 0.42243 0.90565 0.0
H722 H 0.85825 0.40999 0.13411 0.0
H723 H 0.89718 0.41978 0.08534 0.0
C724 C 0.77983 0.4357 0.08251 0.0
C725 C 0.77498 0.42095 0.14631 0.0
C726 C 0.8003 0.43273 0.03888 0.0
C727 C 0.81648 0.41501 0.05814 0.0
C728 C 0.81078 0.39908 0.11787 0.0
C729 C 0.79018 0.40197 0.16141 0.0
C730 C 0.86612 0.42706 0.91699 0.0
C731 C 0.88562 0.42715 0.9674 0.0
C732 C 0.84374 0.42137 0.94496 0.0
C733 C 0.84044 0.41565 0.02388 0.0
C734 C 0.86021 0.41403 0.07278 0.0
C735 C 0.88257 0.41972 0.04483 0.0
H736 H 0.99038 0.18722 0.99697 0.0
H737 H 0.04727 0.19794 0.83333 0.0
H738 H 0.98746 0.14627 0.95554 0.0
H739 H 0.04358 0.15739 0.79034 0.0
H740 H 0.01359 0.08882 0.68264 0.0
H741 H 0.0157 0.13009 0.72162 0.0
H742 H 0.01212 0.10953 0.96341 0.0
H743 H 0.01012 0.06823 0.9247 0.0
C744 C 1.00227 0.18101 0.9522 0.0
C745 C 0.01908 0.19625 0.91886 0.0
C746 C 1.00053 0.15745 0.92831 0.0
C747 C 0.01532 0.14847 0.86967 0.0
C748 C 0.03171 0.16375 0.83499 0.0
C749 C 0.03369 0.18719 0.85953 0.0
C750 C 0.01334 0.09304 0.74419 0.0
C751 C 0.01176 0.07508 0.80049 0.0
C752 C 0.01462 0.11675 0.76653 0.0
C753 C 0.014 0.12319 0.8457 0.0
C754 C 0.01238 0.10524 0.90193 0.0
C755 C 0.01144 0.08151 0.87968 0.0
H756 H 0.32053 1.00452 0.02403 0.0
H757 H 0.29387 0.9964 0.78977 0.0
H758 H 0.36035 1.00014 0.97611 0.0
H759 H 0.33389 0.99416 0.74075 0.0
H760 H 0.40927 0.97494 0.67484 0.0
H761 H 0.36893 0.97418 0.72427 0.0
H762 H 0.38952 0.02021 0.91299 0.0
H763 H 0.42971 0.01977 0.86605 0.0
C764 C 0.32302 1.00156 0.96227 0.0
C765 C 0.30364 1.00084 0.91116 0.0
C766 C 0.34612 0.99955 0.93425 0.0
C767 C 0.35075 0.99718 0.85387 0.0
C768 C 0.33133 0.99579 0.80299 0.0
C769 C 0.30819 0.99743 0.8312 0.0
C770 C 0.4051 0.98483 0.72697 0.0
C771 C 0.42282 0.99729 0.76658 0.0
C772 C 0.38187 0.98452 0.75535 0.0
C773 C 0.37562 0.99701 0.82344 0.0
C774 C 0.39344 0.00977 0.8619 0.0
C775 C 0.41663 0.00972 0.83439 0.0
H776 H 0.51266 0.3095 0.85528 0.0
H777 H 0.44755 0.33156 0.96275 0.0
H778 H 0.51728 0.34873 0.79845 0.0
H779 H 0.45172 0.3701 0.90382 0.0
H780 H 0.48154 0.44368 0.88284 0.0
H781 H 0.47696 0.40348 0.92688 0.0
H782 H 0.50166 0.37817 0.70429 0.0
H783 H 0.50661 0.4189 0.65978 0.0
C784 C 0.49919 0.32254 0.86616 0.0
C785 C 0.47974 0.31717 0.9141 0.0
C786 C 0.50175 0.34501 0.83293 0.0
C787 C 0.48503 0.36276 0.8472 0.0
C788 C 0.46518 0.35707 0.89254 0.0
C789 C 0.4626 0.33471 0.9255 0.0
C790 C 0.48605 0.42967 0.84282 0.0
C791 C 0.49436 0.43472 0.76736 0.0
C792 C 0.48323 0.40648 0.86811 0.0
C793 C 0.48863 0.38744 0.81898 0.0
C794 C 0.49736 0.39237 0.74382 0.0
C795 C 0.5001 0.41574 0.71818 0.0
H796 H 0.18304 0.44898 0.90171 0.0
H797 H 0.19512 0.52324 0.86924 0.0
H798 H 0.14237 0.45371 0.8583 0.0
H799 H 0.15426 0.52793 0.82441 0.0
H800 H 0.08541 0.51698 0.67059 0.0
H801 H 0.12689 0.51319 0.70835 0.0
H802 H 0.10613 0.47535 0.91513 0.0
H803 H 0.0648 0.4794 0.87837 0.0
C804 C 0.17708 0.4663 0.88439 0.0
C805 C 0.1924 0.48572 0.88871 0.0
C806 C 0.15371 0.46902 0.86 0.0
C807 C 0.14504 0.49119 0.83795 0.0
C808 C 0.16044 0.5106 0.84062 0.0
C809 C 0.18378 0.50795 0.86665 0.0
C810 C 0.08969 0.50786 0.72414 0.0
C811 C 0.0717 0.49851 0.77145 0.0
C812 C 0.11346 0.50582 0.74595 0.0
C813 C 0.11982 0.49397 0.81478 0.0
C814 C 0.10184 0.48446 0.86155 0.0
C815 C 0.07812 0.48687 0.84057 0.0
H816 H 0.02438 0.808 0.5951 0.0
H817 H 0.97301 0.82462 0.41829 0.0
H818 H 0.02235 0.84804 0.6437 0.0
H819 H 0.97061 0.86483 0.46787 0.0
H820 H 0.99229 0.94114 0.5218 0.0
H821 H 0.99193 0.90073 0.47499 0.0
H822 H 0.99933 0.87577 0.71152 0.0
H823 H 1.00046 0.9162 0.75799 0.0
C824 C 0.01226 0.82008 0.56744 0.0
C825 C 0.99873 0.81292 0.50296 0.0
C826 C 0.01109 0.84317 0.59545 0.0
C827 C 0.99626 0.85988 0.56015 0.0
C828 C 0.98251 0.85265 0.49605 0.0
C829 C 0.9838 0.82952 0.46769 0.0
C830 C 0.99376 0.92705 0.56398 0.0
C831 C 0.99651 0.93206 0.6438 0.0
C832 C 0.9934 0.90377 0.53706 0.0
C833 C 0.99565 0.88477 0.58918 0.0
C834 C 0.99798 0.88983 0.66921 0.0
C835 C 0.99849 0.91311 0.69606 0.0
H836 H 0.68218 0.96859 0.43818 0.0
H837 H 0.69027 0.03263 0.57034 0.0
H838 H 0.64129 0.96565 0.48145 0.0
H839 H 0.6495 0.03014 0.6119 0.0
H840 H 0.56232 0.98126 0.50481 0.0
H841 H 0.60353 0.98201 0.46624 0.0
H842 H 0.6221 0.01089 0.6909 0.0
H843 H 0.58079 0.01098 0.72807 0.0
C844 C 0.67523 0.98207 0.47635 0.0
C845 C 0.68968 1.00072 0.50122 0.0
C846 C 0.65169 0.98048 0.501 0.0
C847 C 0.64182 0.99764 0.55056 0.0
C848 C 0.65639 0.01624 0.57534 0.0
C849 C 0.6799 0.01771 0.55131 0.0
C850 C 0.57517 0.98773 0.54618 0.0
C851 C 0.56805 0.99614 0.61964 0.0
C852 C 0.59896 0.98801 0.52414 0.0
C853 C 0.61643 0.99655 0.57511 0.0
C854 C 0.60928 1.00459 0.64914 0.0
C855 C 0.58548 1.00451 0.67087 0.0
H856 H 0.53782 0.69317 0.44668 0.0
H857 H 0.47703 0.70439 0.59286 0.0
H858 H 0.53922 0.65208 0.48835 0.0
H859 H 0.47805 0.6635 0.63313 0.0
H860 H 0.4955 0.59366 0.74308 0.0
H861 H 0.49782 0.63501 0.70735 0.0
H862 H 0.51958 0.61552 0.47487 0.0
H863 H 0.51807 0.57419 0.51159 0.0
C864 C 0.52476 0.68688 0.48769 0.0
C865 C 0.50746 0.70222 0.51687 0.0
C866 C 0.52547 0.66325 0.51142 0.0
C867 C 0.50876 0.65426 0.56444 0.0
C868 C 0.49156 0.66972 0.5937 0.0
C869 C 0.49097 0.6933 0.57048 0.0
C870 C 0.50089 0.59816 0.6844 0.0
C871 C 0.50652 0.58047 0.63027 0.0
C872 C 0.50209 0.62197 0.66363 0.0
C873 C 0.50876 0.62883 0.58784 0.0
C874 C 0.5147 0.61109 0.53405 0.0
C875 C 0.51368 0.58728 0.55504 0.0
H876 H 0.82176 0.49415 0.38221 0.0
H877 H 0.79748 0.52061 0.6041 0.0
H878 H 0.86228 0.4973 0.42671 0.0
H879 H 0.83815 0.52327 0.64902 0.0
H880 H 0.91155 0.49674 0.72923 0.0
H881 H 0.87079 0.4969 0.68457 0.0
H882 H 0.89307 0.52535 0.4633 0.0
H883 H 0.93384 0.52504 0.50766 0.0
C884 C 0.82497 0.50106 0.44002 0.0
C885 C 0.80607 0.50714 0.48926 0.0
C886 C 0.84834 0.50275 0.46574 0.0
C887 C 0.8536 0.51044 0.54171 0.0
C888 C 0.83479 0.51692 0.59059 0.0
C889 C 0.8114 0.51538 0.56468 0.0
C890 C 0.90782 0.50312 0.6712 0.0
C891 C 0.92616 0.51083 0.62226 0.0
C892 C 0.88435 0.50334 0.64565 0.0
C893 C 0.87854 0.51111 0.57016 0.0
C894 C 0.89685 0.51899 0.52145 0.0
C895 C 0.92029 0.51893 0.54719 0.0
loop_
_geom_bond_atom_site_label_1
_geom_bond_atom_site_label_2
_geom_bond_distance
_geom_bond_site_symmetry_2
_ccdc_geom_bond_type
P0 O11 1.490 . S
P0 C14 1.812 . S
P0 C20 1.803 . S
P0 C26 1.819 . S
H1 C15 0.941 . S
H2 C16 0.939 . S
H3 C18 0.940 . S
H4 C19 0.940 . S
H5 C21 0.939 . S
H6 C22 0.942 . S
H7 C24 0.940 . S
H8 C25 0.939 . S
H9 C27 0.941 . S
H10 C31 0.939 . S
O11 P0 1.490 . S
H12 C28 0.939 . S
H13 C30 0.940 . S
C14 P0 1.812 . S
C14 C15 1.389 . S
C14 C19 1.391 . S
C15 H1 0.941 . S
C15 C14 1.389 . S
C15 C16 1.397 . S
C16 H2 0.939 . S
C16 C15 1.397 . S
C16 C17 1.378 . S
C17 C16 1.378 . S
C17 C18 1.378 . S
C18 H3 0.940 . S
C18 C17 1.378 . S
C18 C19 1.396 . S
C19 H4 0.940 . S
C19 C14 1.391 . S
C19 C18 1.396 . S
C20 P0 1.803 . S
C20 C21 1.378 . S
C20 C25 1.400 . S
C21 H5 0.939 . S
C21 C20 1.378 . S
C21 C22 1.361 . S
C22 H6 0.942 . S
C22 C21 1.361 . S
C22 C23 1.369 . S
C23 C22 1.369 . S
C23 C24 1.404 . S
C24 H7 0.940 . S
C24 C23 1.404 . S
C24 C25 1.389 . S
C25 H8 0.939 . S
C25 C20 1.400 . S
C25 C24 1.389 . S
C26 P0 1.819 . S
C26 C27 1.391 . S
C26 C31 1.391 . S
C27 H9 0.941 . S
C27 C26 1.391 . S
C27 C28 1.396 . S
C28 H12 0.939 . S
C28 C27 1.396 . S
C28 C29 1.397 . S
C29 C28 1.397 . S
C29 C30 1.385 . S
C30 H13 0.940 . S
C30 C29 1.385 . S
C30 C31 1.388 . S
C31 H10 0.939 . S
C31 C26 1.391 . S
C31 C30 1.388 . S
P32 O43 1.490 . S
P32 C46 1.812 . S
P32 C52 1.803 . S
P32 C58 1.819 . S
H33 C47 0.941 . S
H34 C48 0.939 . S
H35 C50 0.940 . S
H36 C51 0.950 . S
H37 C53 0.939 . S
H38 C54 0.942 . S
H39 C56 0.940 . S
H40 C57 0.959 . S
H41 C59 0.941 . S
H42 C63 0.929 1_655 S
O43 P32 1.490 . S
H44 C60 0.939 . S
H45 C62 0.940 . S
C46 P32 1.812 . S
C46 C47 1.389 . S
C46 C51 1.375 1_455 S
C47 H33 0.941 . S
C47 C46 1.389 . S
C47 C48 1.397 . S
C48 H34 0.939 . S
C48 C47 1.397 . S
C48 C49 1.378 . S
C49 C48 1.378 . S
C49 C50 1.378 1_455 S
C50 H35 0.940 . S
C50 C49 1.378 1_655 S
C50 C51 1.403 . S
C51 H36 0.950 . S
C51 C46 1.375 1_655 S
C51 C50 1.403 . S
C52 P32 1.803 . S
C52 C53 1.378 . S
C52 C57 1.368 1_455 S
C53 H37 0.939 . S
C53 C52 1.378 . S
C53 C54 1.361 . S
C54 H38 0.942 . S
C54 C53 1.361 . S
C54 C55 1.369 . S
C55 C54 1.369 . S
C55 C56 1.404 1_455 S
C56 H39 0.940 . S
C56 C55 1.404 1_655 S
C56 C57 1.402 . S
C57 H40 0.959 . S
C57 C52 1.368 1_655 S
C57 C56 1.402 . S
C58 P32 1.819 . S
C58 C59 1.391 . S
C58 C63 1.391 . S
C59 H41 0.941 . S
C59 C58 1.391 . S
C59 C60 1.396 . S
C60 H44 0.939 . S
C60 C59 1.396 . S
C60 C61 1.397 . S
C61 C60 1.397 . S
C61 C62 1.385 1_455 S
C62 H45 0.940 . S
C62 C61 1.385 1_655 S
C62 C63 1.388 1_655 S
C63 H42 0.929 1_455 S
C63 C58 1.391 . S
C63 C62 1.388 1_455 S
P64 O75 1.490 . S
P64 C78 1.812 . S
P64 C84 1.803 . S
P64 C90 1.819 . S
H65 C79 0.941 . S
H66 C80 0.939 . S
H67 C82 0.940 . S
H68 C83 0.950 . S
H69 C85 0.939 . S
H70 C86 0.942 . S
H71 C88 0.940 . S
H72 C89 0.959 . S
H73 C91 0.941 . S
H74 C95 0.929 1_565 S
O75 P64 1.490 . S
H76 C92 0.939 . S
H77 C94 0.940 . S
C78 P64 1.812 . S
C78 C79 1.389 . S
C78 C83 1.375 1_545 S
C79 H65 0.941 . S
C79 C78 1.389 . S
C79 C80 1.397 . S
C80 H66 0.939 . S
C80 C79 1.397 . S
C80 C81 1.378 . S
C81 C80 1.378 . S
C81 C82 1.378 1_545 S
C82 H67 0.940 . S
C82 C81 1.378 1_565 S
C82 C83 1.403 . S
C83 H68 0.950 . S
C83 C78 1.375 1_565 S
C83 C82 1.403 . S
C84 P64 1.803 . S
C84 C85 1.378 . S
C84 C89 1.368 1_545 S
C85 H69 0.939 . S
C85 C84 1.378 . S
C85 C86 1.361 . S
C86 H70 0.942 . S
C86 C85 1.361 . S
C86 C87 1.369 . S
C87 C86 1.369 . S
C87 C88 1.404 1_545 S
C88 H71 0.940 . S
C88 C87 1.404 1_565 S
C88 C89 1.402 . S
C89 H72 0.959 . S
C89 C84 1.368 1_565 S
C89 C88 1.402 . S
C90 P64 1.819 . S
C90 C91 1.391 . S
C90 C95 1.391 . S
C91 H73 0.941 . S
C91 C90 1.391 . S
C91 C92 1.396 . S
C92 H76 0.939 . S
C92 C91 1.396 . S
C92 C93 1.397 . S
C93 C92 1.397 . S
C93 C94 1.385 1_545 S
C94 H77 0.940 . S
C94 C93 1.385 1_565 S
C94 C95 1.388 1_565 S
C95 H74 0.929 1_545 S
C95 C90 1.391 . S
C95 C94 1.388 1_545 S
P96 O107 1.490 . S
P96 C110 1.812 . S
P96 C116 1.803 . S
P96 C122 1.819 . S
H97 C111 0.941 . S
H98 C112 0.939 . S
H99 C114 0.940 . S
H100 C115 0.940 . S
H101 C117 0.939 . S
H102 C118 0.942 . S
H103 C120 0.940 . S
H104 C121 0.939 . S
H105 C123 0.941 . S
H106 C127 0.939 . S
O107 P96 1.490 . S
H108 C124 0.939 . S
H109 C126 0.940 . S
C110 P96 1.812 . S
C110 C111 1.389 . S
C110 C115 1.391 . S
C111 H97 0.941 . S
C111 C110 1.389 . S
C111 C112 1.397 . S
C112 H98 0.939 . S
C112 C111 1.397 . S
C112 C113 1.378 . S
C113 C112 1.378 . S
C113 C114 1.378 . S
C114 H99 0.940 . S
C114 C113 1.378 . S
C114 C115 1.396 . S
C115 H100 0.940 . S
C115 C110 1.391 . S
C115 C114 1.396 . S
C116 P96 1.803 . S
C116 C117 1.378 . S
C116 C121 1.400 . S
C117 H101 0.939 . S
C117 C116 1.378 . S
C117 C118 1.361 . S
C118 H102 0.942 . S
C118 C117 1.361 . S
C118 C119 1.369 . S
C119 C118 1.369 . S
C119 C120 1.404 . S
C120 H103 0.940 . S
C120 C119 1.404 . S
C120 C121 1.389 . S
C121 H104 0.939 . S
C121 C116 1.400 . S
C121 C120 1.389 . S
C122 P96 1.819 . S
C122 C123 1.391 . S
C122 C127 1.391 . S
C123 H105 0.941 . S
C123 C122 1.391 . S
C123 C124 1.396 . S
C124 H108 0.939 . S
C124 C123 1.396 . S
C124 C125 1.397 . S
C125 C124 1.397 . S
C125 C126 1.385 . S
C126 H109 0.940 . S
C126 C125 1.385 . S
C126 C127 1.388 . S
C127 H106 0.939 . S
C127 C122 1.391 . S
C127 C126 1.388 . S
P128 O139 1.490 . S
P128 C142 1.812 1_554 S
P128 C148 1.803 . S
P128 C154 1.819 . S
H129 C143 0.941 . S
H130 C144 0.939 . S
H131 C146 0.940 . S
H132 C147 0.940 . S
H133 C149 0.939 . S
H134 C150 0.942 . S
H135 C152 0.940 . S
H136 C153 0.939 . S
H137 C155 0.941 . S
H138 C159 0.939 . S
O139 P128 1.490 . S
H140 C156 0.939 . S
H141 C158 0.940 . S
C142 P128 1.812 1_556 S
C142 C143 1.389 . S
C142 C147 1.391 . S
C143 H129 0.941 . S
C143 C142 1.389 . S
C143 C144 1.397 . S
C144 H130 0.939 . S
C144 C143 1.397 . S
C144 C145 1.378 . S
C145 C144 1.378 . S
C145 C146 1.378 . S
C146 H131 0.940 . S
C146 C145 1.378 . S
C146 C147 1.396 . S
C147 H132 0.940 . S
C147 C142 1.391 . S
C147 C146 1.396 . S
C148 P128 1.803 . S
C148 C149 1.378 . S
C148 C153 1.400 . S
C149 H133 0.939 . S
C149 C148 1.378 . S
C149 C150 1.361 . S
C150 H134 0.942 . S
C150 C149 1.361 . S
C150 C151 1.369 . S
C151 C150 1.369 . S
C151 C152 1.404 . S
C152 H135 0.940 . S
C152 C151 1.404 . S
C152 C153 1.389 . S
C153 H136 0.939 . S
C153 C148 1.400 . S
C153 C152 1.389 . S
C154 P128 1.819 . S
C154 C155 1.391 . S
C154 C159 1.391 . S
C155 H137 0.941 . S
C155 C154 1.391 . S
C155 C156 1.396 . S
C156 H140 0.939 . S
C156 C155 1.396 . S
C156 C157 1.397 . S
C157 C156 1.397 . S
C157 C158 1.385 . S
C158 H141 0.940 . S
C158 C157 1.385 . S
C158 C159 1.388 . S
C159 H138 0.939 . S
C159 C154 1.391 . S
C159 C158 1.388 . S
P160 O171 1.490 . S
P160 C174 1.812 1_554 S
P160 C180 1.803 . S
P160 C186 1.819 . S
H161 C175 0.941 . S
H162 C176 0.939 . S
H163 C178 0.940 . S
H164 C179 0.944 . S
H165 C181 0.939 . S
H166 C182 0.942 . S
H167 C184 0.940 . S
H168 C185 0.952 . S
H169 C187 0.941 . S
H170 C191 0.933 1_655 S
O171 P160 1.490 . S
H172 C188 0.939 . S
H173 C190 0.940 . S
C174 P160 1.812 1_556 S
C174 C175 1.389 . S
C174 C179 1.385 1_455 S
C175 H161 0.941 . S
C175 C174 1.389 . S
C175 C176 1.397 . S
C176 H162 0.939 . S
C176 C175 1.397 . S
C176 C177 1.378 . S
C177 C176 1.378 . S
C177 C178 1.378 1_455 S
C178 H163 0.940 . S
C178 C177 1.378 1_655 S
C178 C179 1.399 . S
C179 H164 0.944 . S
C179 C174 1.385 1_655 S
C179 C178 1.399 . S
C180 P160 1.803 . S
C180 C181 1.378 . S
C180 C185 1.379 1_455 S
C181 H165 0.939 . S
C181 C180 1.378 . S
C181 C182 1.361 . S
C182 H166 0.942 . S
C182 C181 1.361 . S
C182 C183 1.369 . S
C183 C182 1.369 . S
C183 C184 1.404 1_455 S
C184 H167 0.940 . S
C184 C183 1.404 1_655 S
C184 C185 1.397 . S
C185 H168 0.952 . S
C185 C180 1.379 1_655 S
C185 C184 1.397 . S
C186 P160 1.819 . S
C186 C187 1.391 . S
C186 C191 1.391 . S
C187 H169 0.941 . S
C187 C186 1.391 . S
C187 C188 1.396 . S
C188 H172 0.939 . S
C188 C187 1.396 . S
C188 C189 1.397 . S
C189 C188 1.397 . S
C189 C190 1.385 1_455 S
C190 H173 0.940 . S
C190 C189 1.385 1_655 S
C190 C191 1.388 1_655 S
C191 H170 0.933 1_455 S
C191 C186 1.391 . S
C191 C190 1.388 1_455 S
P192 O203 1.490 . S
P192 C206 1.812 1_554 S
P192 C212 1.803 . S
P192 C218 1.819 . S
H193 C207 0.941 . S
H194 C208 0.939 . S
H195 C210 0.940 . S
H196 C211 0.944 . S
H197 C213 0.939 . S
H198 C214 0.942 . S
H199 C216 0.940 . S
H200 C217 0.952 . S
H201 C219 0.941 . S
H202 C223 0.933 1_565 S
O203 P192 1.490 . S
H204 C220 0.939 . S
H205 C222 0.940 . S
C206 P192 1.812 1_556 S
C206 C207 1.389 . S
C206 C211 1.385 1_545 S
C207 H193 0.941 . S
C207 C206 1.389 . S
C207 C208 1.397 . S
C208 H194 0.939 . S
C208 C207 1.397 . S
C208 C209 1.378 . S
C209 C208 1.378 . S
C209 C210 1.378 1_545 S
C210 H195 0.940 . S
C210 C209 1.378 1_565 S
C210 C211 1.399 . S
C211 H196 0.944 . S
C211 C206 1.385 1_565 S
C211 C210 1.399 . S
C212 P192 1.803 . S
C212 C213 1.378 . S
C212 C217 1.379 1_545 S
C213 H197 0.939 . S
C213 C212 1.378 . S
C213 C214 1.361 . S
C214 H198 0.942 . S
C214 C213 1.361 . S
C214 C215 1.369 . S
C215 C214 1.369 . S
C215 C216 1.404 1_545 S
C216 H199 0.940 . S
C216 C215 1.404 1_565 S
C216 C217 1.398 . S
C217 H200 0.952 . S
C217 C212 1.379 1_565 S
C217 C216 1.398 . S
C218 P192 1.819 . S
C218 C219 1.391 . S
C218 C223 1.391 . S
C219 H201 0.941 . S
C219 C218 1.391 . S
C219 C220 1.396 . S
C220 H204 0.939 . S
C220 C219 1.396 . S
C220 C221 1.397 . S
C221 C220 1.397 . S
C221 C222 1.385 1_545 S
C222 H205 0.940 . S
C222 C221 1.385 1_565 S
C222 C223 1.388 1_565 S
C223 H202 0.933 1_545 S
C223 C218 1.391 . S
C223 C222 1.388 1_545 S
P224 O235 1.490 . S
P224 C238 1.812 1_554 S
P224 C244 1.803 . S
P224 C250 1.819 . S
H225 C239 0.941 . S
H226 C240 0.939 . S
H227 C242 0.940 . S
H228 C243 0.940 . S
H229 C245 0.939 . S
H230 C246 0.942 . S
H231 C248 0.940 . S
H232 C249 0.939 . S
H233 C251 0.941 . S
H234 C255 0.939 . S
O235 P224 1.490 . S
H236 C252 0.939 . S
H237 C254 0.940 . S
C238 P224 1.812 1_556 S
C238 C239 1.389 . S
C238 C243 1.391 . S
C239 H225 0.941 . S
C239 C238 1.389 . S
C239 C240 1.397 . S
C240 H226 0.939 . S
C240 C239 1.397 . S
C240 C241 1.378 . S
C241 C240 1.378 . S
C241 C242 1.378 . S
C242 H227 0.940 . S
C242 C241 1.378 . S
C242 C243 1.396 . S
C243 H228 0.940 . S
C243 C238 1.391 . S
C243 C242 1.396 . S
C244 P224 1.803 . S
C244 C245 1.378 . S
C244 C249 1.400 . S
C245 H229 0.939 . S
C245 C244 1.378 . S
C245 C246 1.361 . S
C246 H230 0.942 . S
C246 C245 1.361 . S
C246 C247 1.369 . S
C247 C246 1.369 . S
C247 C248 1.404 . S
C248 H231 0.940 . S
C248 C247 1.404 . S
C248 C249 1.389 . S
C249 H232 0.939 . S
C249 C244 1.400 . S
C249 C248 1.389 . S
C250 P224 1.819 . S
C250 C251 1.391 . S
C250 C255 1.391 . S
C251 H233 0.941 . S
C251 C250 1.391 . S
C251 C252 1.396 . S
C252 H236 0.939 . S
C252 C251 1.396 . S
C252 C253 1.397 . S
C253 C252 1.397 . S
C253 C254 1.385 . S
C254 H237 0.940 . S
C254 C253 1.385 . S
C254 C255 1.388 . S
C255 H234 0.939 . S
C255 C250 1.391 . S
C255 C254 1.388 . S
Ho256 C259 2.811 . S
Ho256 O276 2.322 . S
Ho256 O278 2.378 . S
Ho256 O279 2.524 . S
Ho256 O280 2.381 . S
Ho256 O281 2.669 1_565 S
Ho256 O283 2.346 1_565 S
Ho256 O287 2.305 1_455 S
Ho257 C268 2.811 . S
Ho257 O277 2.346 1_545 S
Ho257 O281 2.305 1_655 S
Ho257 O282 2.322 . S
Ho257 O284 2.378 . S
Ho257 O285 2.524 . S
Ho257 O286 2.381 . S
Ho257 O287 2.669 1_545 S
C258 O276 1.259 1_655 S
C258 O277 1.268 . S
C259 Ho256 2.811 . S
C259 C260 1.488 . S
C259 O278 1.215 . S
C259 O279 1.289 . S
C260 C259 1.488 . S
C260 C261 1.348 . S
C260 C265 1.413 . S
C261 C260 1.348 . S
C261 C262 1.442 . S
C261 H288 0.930 1_455 S
C262 C261 1.442 . S
C262 C263 1.381 . S
C262 H289 0.931 1_455 S
C263 C262 1.381 . S
C263 C264 1.321 . S
C264 C263 1.321 . S
C264 C265 1.403 . S
C264 H290 0.934 . S
C265 C260 1.413 . S
C265 C264 1.403 . S
C265 H291 0.930 . S
C266 O280 1.297 . S
C266 O281 1.244 1_565 S
C267 O282 1.259 1_455 S
C267 O283 1.268 . S
C268 Ho257 2.811 . S
C268 C269 1.488 . S
C268 O284 1.215 . S
C268 O285 1.289 . S
C269 C268 1.488 . S
C269 C270 1.348 . S
C269 C274 1.413 . S
C270 C269 1.348 . S
C270 C271 1.442 . S
C270 H292 0.930 1_655 S
C271 C270 1.442 . S
C271 C272 1.381 . S
C271 H293 0.931 1_655 S
C272 C271 1.381 . S
C272 C273 1.321 . S
C273 C272 1.321 . S
C273 C274 1.403 . S
C273 H294 0.934 . S
C274 C269 1.413 . S
C274 C273 1.403 . S
C274 H295 0.930 . S
C275 O286 1.275 . S
C275 O287 1.256 1_545 S
O276 Ho256 2.322 . S
O276 C258 1.259 1_455 S
O277 Ho257 2.346 1_565 S
O277 C258 1.268 . S
O278 Ho256 2.378 . S
O278 C259 1.215 . S
O279 Ho256 2.524 . S
O279 C259 1.289 . S
O280 Ho256 2.381 . S
O280 C266 1.297 . S
O281 Ho256 2.669 1_545 S
O281 Ho257 2.305 1_455 S
O281 C266 1.244 1_545 S
O282 Ho257 2.322 . S
O282 C267 1.259 1_655 S
O283 Ho256 2.346 1_545 S
O283 C267 1.268 . S
O284 Ho257 2.378 . S
O284 C268 1.215 . S
O285 Ho257 2.524 . S
O285 C268 1.289 . S
O286 Ho257 2.381 . S
O286 C275 1.275 . S
O287 Ho256 2.305 1_655 S
O287 Ho257 2.669 1_565 S
O287 C275 1.256 1_565 S
H288 C261 0.930 1_655 S
H289 C262 0.931 1_655 S
H290 C264 0.934 . S
H291 C265 0.930 . S
H292 C270 0.930 1_455 S
H293 C271 0.931 1_455 S
H294 C273 0.934 . S
H295 C274 0.930 . S
Ho296 C299 2.811 . S
Ho296 O316 2.322 . S
Ho296 O318 2.378 . S
Ho296 O319 2.524 . S
Ho296 O320 2.381 . S
Ho296 O321 2.669 . S
Ho296 O323 2.346 . S
Ho296 O327 2.305 1_545 S
Ho297 C308 2.811 . S
Ho297 O317 2.346 . S
Ho297 O321 2.305 1_565 S
Ho297 O322 2.322 . S
Ho297 O324 2.378 . S
Ho297 O325 2.524 . S
Ho297 O326 2.381 . S
Ho297 O327 2.669 . S
C298 O316 1.259 1_565 S
C298 O317 1.268 . S
C299 Ho296 2.811 . S
C299 C300 1.488 . S
C299 O318 1.215 . S
C299 O319 1.289 . S
C300 C299 1.488 . S
C300 C301 1.348 . S
C300 C305 1.413 . S
C301 C300 1.348 . S
C301 C302 1.442 . S
C301 H328 0.930 1_545 S
C302 C301 1.442 . S
C302 C303 1.381 . S
C302 H329 0.931 1_545 S
C303 C302 1.381 . S
C303 C304 1.321 . S
C304 C303 1.321 . S
C304 C305 1.403 . S
C304 H330 0.934 . S
C305 C300 1.413 . S
C305 C304 1.403 . S
C305 H331 0.930 . S
C306 O320 1.275 . S
C306 O321 1.256 . S
C307 O322 1.259 1_545 S
C307 O323 1.268 . S
C308 Ho297 2.811 . S
C308 C309 1.488 . S
C308 O324 1.215 . S
C308 O325 1.289 . S
C309 C308 1.488 . S
C309 C310 1.348 . S
C309 C314 1.413 . S
C310 C309 1.348 . S
C310 C311 1.442 . S
C310 H332 0.930 1_565 S
C311 C310 1.442 . S
C311 C312 1.381 . S
C311 H333 0.931 1_565 S
C312 C311 1.381 . S
C312 C313 1.321 . S
C313 C312 1.321 . S
C313 C314 1.403 . S
C313 H334 0.934 . S
C314 C309 1.413 . S
C314 C313 1.403 . S
C314 H335 0.930 . S
C315 O326 1.275 . S
C315 O327 1.256 . S
O316 Ho296 2.322 . S
O316 C298 1.259 1_545 S
O317 Ho297 2.346 . S
O317 C298 1.268 . S
O318 Ho296 2.378 . S
O318 C299 1.215 . S
O319 Ho296 2.524 . S
O319 C299 1.289 . S
O320 Ho296 2.381 . S
O320 C306 1.275 . S
O321 Ho296 2.669 . S
O321 Ho297 2.305 1_545 S
O321 C306 1.256 . S
O322 Ho297 2.322 . S
O322 C307 1.259 1_565 S
O323 Ho296 2.346 . S
O323 C307 1.268 . S
O324 Ho297 2.378 . S
O324 C308 1.215 . S
O325 Ho297 2.524 . S
O325 C308 1.289 . S
O326 Ho297 2.381 . S
O326 C315 1.275 . S
O327 Ho296 2.305 1_565 S
O327 Ho297 2.669 . S
O327 C315 1.256 . S
H328 C301 0.930 1_565 S
H329 C302 0.931 1_565 S
H330 C304 0.934 . S
H331 C305 0.930 . S
H332 C310 0.930 1_545 S
H333 C311 0.931 1_545 S
H334 C313 0.934 . S
H335 C314 0.930 . S
Ho336 C339 2.811 . S
Ho336 O356 2.322 . S
Ho336 O358 2.378 . S
Ho336 O359 2.524 . S
Ho336 O360 2.381 . S
Ho336 O361 2.669 . S
Ho336 O363 2.346 . S
Ho336 O367 2.305 . S
Ho337 C348 2.811 . S
Ho337 O357 2.346 . S
Ho337 O361 2.305 . S
Ho337 O362 2.322 . S
Ho337 O364 2.378 . S
Ho337 O365 2.524 . S
Ho337 O366 2.381 . S
Ho337 O367 2.669 . S
C338 O356 1.259 . S
C338 O357 1.268 . S
C339 Ho336 2.811 . S
C339 C340 1.488 . S
C339 O358 1.215 . S
C339 O359 1.289 . S
C340 C339 1.488 . S
C340 C341 1.348 . S
C340 C345 1.413 . S
C341 C340 1.348 . S
C341 C342 1.442 . S
C341 H368 0.930 . S
C342 C341 1.442 . S
C342 C343 1.381 . S
C342 H369 0.931 . S
C343 C342 1.381 . S
C343 C344 1.321 . S
C344 C343 1.321 . S
C344 C345 1.403 . S
C344 H370 0.934 . S
C345 C340 1.413 . S
C345 C344 1.403 . S
C345 H371 0.930 . S
C346 O360 1.275 . S
C346 O361 1.256 . S
C347 O362 1.259 . S
C347 O363 1.268 . S
C348 Ho337 2.811 . S
C348 C349 1.488 . S
C348 O364 1.215 . S
C348 O365 1.289 . S
C349 C348 1.488 . S
C349 C350 1.348 . S
C349 C354 1.413 . S
C350 C349 1.348 . S
C350 C351 1.442 . S
C350 H372 0.930 . S
C351 C350 1.442 . S
C351 C352 1.381 . S
C351 H373 0.931 . S
C352 C351 1.381 . S
C352 C353 1.321 . S
C353 C352 1.321 . S
C353 C354 1.403 . S
C353 H374 0.934 . S
C354 C349 1.413 . S
C354 C353 1.403 . S
C354 H375 0.930 . S
C355 O366 1.275 . S
C355 O367 1.256 . S
O356 Ho336 2.322 . S
O356 C338 1.259 . S
O357 Ho337 2.346 . S
O357 C338 1.268 . S
O358 Ho336 2.378 . S
O358 C339 1.215 . S
O359 Ho336 2.524 . S
O359 C339 1.289 . S
O360 Ho336 2.381 . S
O360 C346 1.275 . S
O361 Ho336 2.669 . S
O361 Ho337 2.305 . S
O361 C346 1.256 . S
O362 Ho337 2.322 . S
O362 C347 1.259 . S
O363 Ho336 2.346 . S
O363 C347 1.268 . S
O364 Ho337 2.378 . S
O364 C348 1.215 . S
O365 Ho337 2.524 . S
O365 C348 1.289 . S
O366 Ho337 2.381 . S
O366 C355 1.275 . S
O367 Ho336 2.305 . S
O367 Ho337 2.669 . S
O367 C355 1.256 . S
H368 C341 0.930 . S
H369 C342 0.931 . S
H370 C344 0.934 . S
H371 C345 0.930 . S
H372 C350 0.930 . S
H373 C351 0.931 . S
H374 C353 0.934 . S
H375 C354 0.930 . S
Ho376 C379 2.811 . S
Ho376 O396 2.322 . S
Ho376 O398 2.378 . S
Ho376 O399 2.524 . S
Ho376 O400 2.381 . S
Ho376 O401 2.669 1_655 S
Ho376 O403 2.346 1_655 S
Ho376 O407 2.305 . S
Ho377 C388 2.811 . S
Ho377 O397 2.346 1_455 S
Ho377 O401 2.305 . S
Ho377 O402 2.322 . S
Ho377 O404 2.378 . S
Ho377 O405 2.524 . S
Ho377 O406 2.381 . S
Ho377 O407 2.669 1_455 S
C378 O396 1.259 . S
C378 O397 1.268 . S
C379 Ho376 2.811 . S
C379 C380 1.488 . S
C379 O398 1.215 . S
C379 O399 1.289 . S
C380 C379 1.488 . S
C380 C381 1.348 . S
C380 C385 1.413 . S
C381 C380 1.348 . S
C381 C382 1.442 . S
C381 H408 0.930 . S
C382 C381 1.442 . S
C382 C383 1.381 . S
C382 H409 0.931 . S
C383 C382 1.381 . S
C383 C384 1.321 . S
C384 C383 1.321 . S
C384 C385 1.403 . S
C384 H410 0.934 . S
C385 C380 1.413 . S
C385 C384 1.403 . S
C385 H411 0.930 . S
C386 O400 1.290 . S
C386 O401 1.247 1_655 S
C387 O402 1.259 . S
C387 O403 1.268 . S
C388 Ho377 2.811 . S
C388 C389 1.488 . S
C388 O404 1.215 . S
C388 O405 1.289 . S
C389 C388 1.488 . S
C389 C390 1.348 . S
C389 C394 1.413 . S
C390 C389 1.348 . S
C390 C391 1.442 . S
C390 H412 0.930 . S
C391 C390 1.442 . S
C391 C392 1.381 . S
C391 H413 0.931 . S
C392 C391 1.381 . S
C392 C393 1.321 . S
C393 C392 1.321 . S
C393 C394 1.403 . S
C393 H414 0.934 . S
C394 C389 1.413 . S
C394 C393 1.403 . S
C394 H415 0.930 . S
C395 O406 1.296 . S
C395 O407 1.244 1_455 S
O396 Ho376 2.322 . S
O396 C378 1.259 . S
O397 Ho377 2.346 1_655 S
O397 C378 1.268 . S
O398 Ho376 2.378 . S
O398 C379 1.215 . S
O399 Ho376 2.524 . S
O399 C379 1.289 . S
O400 Ho376 2.381 . S
O400 C386 1.290 . S
O401 Ho376 2.669 1_455 S
O401 Ho377 2.305 . S
O401 C386 1.247 1_455 S
O402 Ho377 2.322 . S
O402 C387 1.259 . S
O403 Ho376 2.346 1_455 S
O403 C387 1.268 . S
O404 Ho377 2.378 . S
O404 C388 1.215 . S
O405 Ho377 2.524 . S
O405 C388 1.289 . S
O406 Ho377 2.381 . S
O406 C395 1.296 . S
O407 Ho376 2.305 . S
O407 Ho377 2.669 1_655 S
O407 C395 1.244 1_655 S
H408 C381 0.930 . S
H409 C382 0.931 . S
H410 C384 0.934 . S
H411 C385 0.930 . S
H412 C390 0.930 . S
H413 C391 0.931 . S
H414 C393 0.934 . S
H415 C394 0.930 . S
H416 C424 0.950 . S
H417 C429 0.950 . S
H418 C426 0.950 . S
H419 C428 0.950 . S
H420 C430 0.950 . S
H421 C432 0.950 . S
H422 C434 0.950 . S
H423 C435 0.950 . S
C424 H416 0.950 . S
C424 C425 1.380 1_545 S
C424 C426 1.391 . S
C425 C424 1.380 1_565 S
C425 C429 1.399 . S
C426 H418 0.950 . S
C426 C424 1.391 . S
C426 C427 1.416 . S
C427 C426 1.416 . S
C427 C428 1.382 1_545 S
C427 C433 1.491 . S
C428 H419 0.950 . S
C428 C427 1.382 1_565 S
C428 C429 1.391 . S
C429 H417 0.950 . S
C429 C425 1.399 . S
C429 C428 1.391 . S
C430 H420 0.950 . S
C430 C431 1.386 1_565 S
C430 C432 1.391 . S
C431 C430 1.386 1_545 S
C431 C435 1.393 . S
C432 H421 0.950 . S
C432 C430 1.391 . S
C432 C433 1.400 1_565 S
C433 C427 1.491 . S
C433 C432 1.400 1_545 S
C433 C434 1.398 . S
C434 H422 0.950 . S
C434 C433 1.398 . S
C434 C435 1.391 . S
C435 H423 0.950 . S
C435 C431 1.393 . S
C435 C434 1.391 . S
H436 C444 0.950 . S
H437 C449 0.950 . S
H438 C446 0.950 . S
H439 C448 0.950 . S
H440 C450 0.950 . S
H441 C452 0.950 . S
H442 C454 0.950 . S
H443 C455 0.950 . S
C444 H436 0.950 . S
C444 C445 1.386 . S
C444 C446 1.391 . S
C445 C444 1.386 . S
C445 C449 1.393 . S
C446 H438 0.950 . S
C446 C444 1.391 . S
C446 C447 1.400 . S
C447 C446 1.400 . S
C447 C448 1.398 . S
C447 C453 1.491 . S
C448 H439 0.950 . S
C448 C447 1.398 . S
C448 C449 1.391 . S
C449 H437 0.950 . S
C449 C445 1.393 . S
C449 C448 1.391 . S
C450 H440 0.950 . S
C450 C451 1.386 . S
C450 C452 1.391 . S
C451 C450 1.386 . S
C451 C455 1.393 . S
C452 H441 0.950 . S
C452 C450 1.391 . S
C452 C453 1.400 . S
C453 C447 1.491 . S
C453 C452 1.400 . S
C453 C454 1.398 . S
C454 H442 0.950 . S
C454 C453 1.398 . S
C454 C455 1.391 . S
C455 H443 0.950 . S
C455 C451 1.393 . S
C455 C454 1.391 . S
H456 C464 0.950 . S
H457 C469 0.950 . S
H458 C466 0.950 . S
H459 C468 0.950 . S
H460 C470 0.950 . S
H461 C472 0.950 . S
H462 C474 0.950 . S
H463 C475 0.950 . S
C464 H456 0.950 . S
C464 C465 1.386 . S
C464 C466 1.391 . S
C465 C464 1.386 . S
C465 C469 1.393 . S
C466 H458 0.950 . S
C466 C464 1.391 . S
C466 C467 1.400 . S
C467 C466 1.400 . S
C467 C468 1.398 . S
C467 C473 1.491 . S
C468 H459 0.950 . S
C468 C467 1.398 . S
C468 C469 1.391 . S
C469 H457 0.950 . S
C469 C465 1.393 . S
C469 C468 1.391 . S
C470 H460 0.950 . S
C470 C471 1.386 . S
C470 C472 1.391 . S
C471 C470 1.386 . S
C471 C475 1.393 . S
C472 H461 0.950 . S
C472 C470 1.391 . S
C472 C473 1.400 . S
C473 C467 1.491 . S
C473 C472 1.400 . S
C473 C474 1.398 . S
C474 H462 0.950 . S
C474 C473 1.398 . S
C474 C475 1.391 . S
C475 H463 0.950 . S
C475 C471 1.393 . S
C475 C474 1.391 . S
H476 C484 0.950 . S
H477 C489 0.950 . S
H478 C486 0.950 . S
H479 C488 0.950 . S
H480 C490 0.950 . S
H481 C492 0.950 . S
H482 C494 0.950 . S
H483 C495 0.950 . S
C484 H476 0.950 . S
C484 C485 1.379 1_655 S
C484 C486 1.391 . S
C485 C484 1.379 1_455 S
C485 C489 1.400 . S
C486 H478 0.950 . S
C486 C484 1.391 . S
C486 C487 1.367 1_655 S
C487 C486 1.367 1_455 S
C487 C488 1.431 . S
C487 C493 1.492 . S
C488 H479 0.950 . S
C488 C487 1.431 . S
C488 C489 1.391 . S
C489 H477 0.950 . S
C489 C485 1.400 . S
C489 C488 1.391 . S
C490 H480 0.950 . S
C490 C491 1.386 . S
C490 C492 1.391 . S
C491 C490 1.386 . S
C491 C495 1.393 1_455 S
C492 H481 0.950 . S
C492 C490 1.391 . S
C492 C493 1.400 . S
C493 C487 1.492 . S
C493 C492 1.400 . S
C493 C494 1.398 1_455 S
C494 H482 0.950 . S
C494 C493 1.398 1_655 S
C494 C495 1.391 . S
C495 H483 0.950 . S
C495 C491 1.393 1_655 S
C495 C494 1.391 . S
H496 C504 0.950 . S
H497 C509 0.950 . S
H498 C506 0.949 . S
H499 C508 0.950 . S
H500 C510 0.950 . S
H501 C512 0.951 . S
H502 C514 0.950 . S
H503 C515 0.950 . S
C504 H496 0.950 . S
C504 C505 1.385 . S
C504 C506 1.391 1_545 S
C505 C504 1.385 . S
C505 C509 1.394 . S
C506 H498 0.949 . S
C506 C504 1.391 1_565 S
C506 C507 1.400 . S
C507 C506 1.400 . S
C507 C508 1.398 1_565 S
C507 C513 1.491 . S
C508 H499 0.950 . S
C508 C507 1.398 1_545 S
C508 C509 1.391 . S
C509 H497 0.950 . S
C509 C505 1.394 . S
C509 C508 1.391 . S
C510 H500 0.950 . S
C510 C511 1.386 . S
C510 C512 1.391 1_556 S
C511 C510 1.386 . S
C511 C515 1.393 . S
C512 H501 0.951 . S
C512 C510 1.391 1_554 S
C512 C513 1.400 . S
C513 C507 1.491 . S
C513 C512 1.400 . S
C513 C514 1.398 1_554 S
C514 H502 0.950 . S
C514 C513 1.398 1_556 S
C514 C515 1.391 . S
C515 H503 0.950 . S
C515 C511 1.393 . S
C515 C514 1.391 . S
H516 C524 0.950 . S
H517 C529 0.950 . S
H518 C526 0.950 . S
H519 C528 0.950 . S
H520 C530 0.950 . S
H521 C532 0.950 . S
H522 C534 0.950 . S
H523 C535 0.950 . S
C524 H516 0.950 . S
C524 C525 1.386 . S
C524 C526 1.391 . S
C525 C524 1.386 . S
C525 C529 1.393 . S
C526 H518 0.950 . S
C526 C524 1.391 . S
C526 C527 1.400 . S
C527 C526 1.400 . S
C527 C528 1.398 . S
C527 C533 1.491 . S
C528 H519 0.950 . S
C528 C527 1.398 . S
C528 C529 1.391 . S
C529 H517 0.950 . S
C529 C525 1.393 . S
C529 C528 1.391 . S
C530 H520 0.950 . S
C530 C531 1.386 . S
C530 C532 1.391 . S
C531 C530 1.386 . S
C531 C535 1.393 . S
C532 H521 0.950 . S
C532 C530 1.391 . S
C532 C533 1.400 1_556 S
C533 C527 1.491 . S
C533 C532 1.400 1_554 S
C533 C534 1.398 . S
C534 H522 0.950 . S
C534 C533 1.398 . S
C534 C535 1.391 1_554 S
C535 H523 0.950 . S
C535 C531 1.393 . S
C535 C534 1.391 1_556 S
H536 C544 0.950 . S
H537 C549 0.950 . S
H538 C546 0.950 . S
H539 C548 0.950 . S
H540 C550 0.950 . S
H541 C552 0.950 . S
H542 C554 0.950 . S
H543 C555 0.950 . S
C544 H536 0.950 . S
C544 C545 1.386 . S
C544 C546 1.391 . S
C545 C544 1.386 . S
C545 C549 1.393 . S
C546 H538 0.950 . S
C546 C544 1.391 . S
C546 C547 1.400 . S
C547 C546 1.400 . S
C547 C548 1.398 . S
C547 C553 1.491 . S
C548 H539 0.950 . S
C548 C547 1.398 . S
C548 C549 1.391 . S
C549 H537 0.950 . S
C549 C545 1.393 . S
C549 C548 1.391 . S
C550 H540 0.950 . S
C550 C551 1.386 . S
C550 C552 1.391 . S
C551 C550 1.386 . S
C551 C555 1.393 . S
C552 H541 0.950 . S
C552 C550 1.391 . S
C552 C553 1.400 1_556 S
C553 C547 1.491 . S
C553 C552 1.400 1_554 S
C553 C554 1.398 . S
C554 H542 0.950 . S
C554 C553 1.398 . S
C554 C555 1.391 1_554 S
C555 H543 0.950 . S
C555 C551 1.393 . S
C555 C554 1.391 1_556 S
H556 C564 0.950 . S
H557 C569 0.950 . S
H558 C566 0.950 . S
H559 C568 0.950 . S
H560 C570 0.950 . S
H561 C572 0.950 . S
H562 C574 0.950 1_554 S
H563 C575 0.950 . S
C564 H556 0.950 . S
C564 C565 1.362 1_455 S
C564 C566 1.391 . S
C565 C564 1.362 1_655 S
C565 C569 1.416 . S
C566 H558 0.950 . S
C566 C564 1.391 . S
C566 C567 1.358 1_455 S
C567 C566 1.358 1_655 S
C567 C568 1.441 . S
C567 C573 1.492 . S
C568 H559 0.950 . S
C568 C567 1.441 . S
C568 C569 1.391 . S
C569 H557 0.950 . S
C569 C565 1.416 . S
C569 C568 1.391 . S
C570 H560 0.950 . S
C570 C571 1.386 . S
C570 C572 1.391 . S
C571 C570 1.386 . S
C571 C575 1.393 1_655 S
C572 H561 0.950 . S
C572 C570 1.391 . S
C572 C573 1.400 1_556 S
C573 C567 1.492 . S
C573 C572 1.400 1_554 S
C573 C574 1.398 1_654 S
C574 H562 0.950 1_556 S
C574 C573 1.398 1_456 S
C574 C575 1.391 . S
C575 H563 0.950 . S
C575 C571 1.393 1_455 S
C575 C574 1.391 . S
H576 C584 0.950 . S
H577 C589 0.950 . S
H578 C586 0.950 . S
H579 C588 0.950 . S
H580 C590 0.950 . S
H581 C592 0.950 1_455 S
H582 C594 0.950 . S
H583 C595 0.950 . S
C584 H576 0.950 . S
C584 C585 1.386 1_655 S
C584 C586 1.391 . S
C585 C584 1.386 1_455 S
C585 C589 1.393 . S
C586 H578 0.950 . S
C586 C584 1.391 . S
C586 C587 1.400 . S
C587 C586 1.400 . S
C587 C588 1.398 1_655 S
C587 C593 1.491 . S
C588 H579 0.950 . S
C588 C587 1.398 1_455 S
C588 C589 1.391 . S
C589 H577 0.950 . S
C589 C585 1.393 . S
C589 C588 1.391 . S
C590 H580 0.950 . S
C590 C591 1.386 . S
C590 C592 1.391 . S
C591 C590 1.386 . S
C591 C595 1.393 . S
C592 H581 0.950 1_655 S
C592 C590 1.391 . S
C592 C593 1.400 . S
C593 C587 1.491 . S
C593 C592 1.400 . S
C593 C594 1.398 . S
C594 H582 0.950 . S
C594 C593 1.398 . S
C594 C595 1.391 . S
C595 H583 0.950 . S
C595 C591 1.393 . S
C595 C594 1.391 . S
H596 C604 0.950 . S
H597 C609 0.950 . S
H598 C606 0.950 . S
H599 C608 0.950 . S
H600 C610 0.950 . S
H601 C612 0.950 . S
H602 C614 0.950 . S
H603 C615 0.950 . S
C604 H596 0.950 . S
C604 C605 1.386 1_565 S
C604 C606 1.391 . S
C605 C604 1.386 1_545 S
C605 C609 1.393 . S
C606 H598 0.950 . S
C606 C604 1.391 . S
C606 C607 1.400 . S
C607 C606 1.400 . S
C607 C608 1.398 1_565 S
C607 C613 1.491 . S
C608 H599 0.950 . S
C608 C607 1.398 1_545 S
C608 C609 1.391 . S
C609 H597 0.950 . S
C609 C605 1.393 . S
C609 C608 1.391 . S
C610 H600 0.950 . S
C610 C611 1.386 . S
C610 C612 1.391 . S
C611 C610 1.386 . S
C611 C615 1.393 . S
C612 H601 0.950 . S
C612 C610 1.391 . S
C612 C613 1.400 . S
C613 C607 1.491 . S
C613 C612 1.400 . S
C613 C614 1.398 . S
C614 H602 0.950 . S
C614 C613 1.398 . S
C614 C615 1.391 . S
C615 H603 0.950 . S
C615 C611 1.393 . S
C615 C614 1.391 . S
H616 C624 0.950 . S
H617 C629 0.950 . S
H618 C626 0.950 . S
H619 C628 0.950 . S
H620 C630 0.950 . S
H621 C632 0.950 . S
H622 C634 0.950 . S
H623 C635 0.950 . S
C624 H616 0.950 . S
C624 C625 1.386 . S
C624 C626 1.391 . S
C625 C624 1.386 . S
C625 C629 1.393 . S
C626 H618 0.950 . S
C626 C624 1.391 . S
C626 C627 1.400 . S
C627 C626 1.400 . S
C627 C628 1.398 . S
C627 C633 1.491 . S
C628 H619 0.950 . S
C628 C627 1.398 . S
C628 C629 1.391 . S
C629 H617 0.950 . S
C629 C625 1.393 . S
C629 C628 1.391 . S
C630 H620 0.950 . S
C630 C631 1.386 . S
C630 C632 1.391 . S
C631 C630 1.386 . S
C631 C635 1.393 . S
C632 H621 0.950 . S
C632 C630 1.391 . S
C632 C633 1.400 . S
C633 C627 1.491 . S
C633 C632 1.400 . S
C633 C634 1.398 . S
C634 H622 0.950 . S
C634 C633 1.398 . S
C634 C635 1.391 . S
C635 H623 0.950 . S
C635 C631 1.393 . S
C635 C634 1.391 . S
H636 C644 0.950 . S
H637 C649 0.950 . S
H638 C646 0.950 . S
H639 C648 0.950 . S
H640 C650 0.950 . S
H641 C652 0.950 . S
H642 C654 0.950 . S
H643 C655 0.950 . S
C644 H636 0.950 . S
C644 C645 1.386 . S
C644 C646 1.391 . S
C645 C644 1.386 . S
C645 C649 1.393 . S
C646 H638 0.950 . S
C646 C644 1.391 . S
C646 C647 1.400 . S
C647 C646 1.400 . S
C647 C648 1.398 . S
C647 C653 1.491 . S
C648 H639 0.950 . S
C648 C647 1.398 . S
C648 C649 1.391 . S
C649 H637 0.950 . S
C649 C645 1.393 . S
C649 C648 1.391 . S
C650 H640 0.950 . S
C650 C651 1.386 . S
C650 C652 1.391 . S
C651 C650 1.386 . S
C651 C655 1.393 . S
C652 H641 0.950 . S
C652 C650 1.391 . S
C652 C653 1.400 . S
C653 C647 1.491 . S
C653 C652 1.400 . S
C653 C654 1.398 . S
C654 H642 0.950 . S
C654 C653 1.398 . S
C654 C655 1.391 . S
C655 H643 0.950 . S
C655 C651 1.393 . S
C655 C654 1.391 . S
H656 C664 0.950 . S
H657 C669 0.950 . S
H658 C666 0.950 . S
H659 C668 0.950 . S
H660 C670 0.950 . S
H661 C672 0.950 . S
H662 C674 0.950 . S
H663 C675 0.950 . S
C664 H656 0.950 . S
C664 C665 1.386 . S
C664 C666 1.391 1_655 S
C665 C664 1.386 . S
C665 C669 1.393 1_655 S
C666 H658 0.950 . S
C666 C664 1.391 1_455 S
C666 C667 1.400 . S
C667 C666 1.400 . S
C667 C668 1.398 . S
C667 C673 1.491 . S
C668 H659 0.950 . S
C668 C667 1.398 . S
C668 C669 1.391 . S
C669 H657 0.950 . S
C669 C665 1.393 1_455 S
C669 C668 1.391 . S
C670 H660 0.950 . S
C670 C671 1.386 1_554 S
C670 C672 1.391 . S
C671 C670 1.386 1_556 S
C671 C675 1.393 . S
C672 H661 0.950 . S
C672 C670 1.391 . S
C672 C673 1.400 . S
C673 C667 1.491 . S
C673 C672 1.400 . S
C673 C674 1.398 1_554 S
C674 H662 0.950 . S
C674 C673 1.398 1_556 S
C674 C675 1.391 . S
C675 H663 0.950 . S
C675 C671 1.393 . S
C675 C674 1.391 . S
H676 C684 0.950 . S
H677 C689 0.950 . S
H678 C686 0.950 . S
H679 C688 0.950 . S
H680 C690 0.950 . S
H681 C692 0.950 . S
H682 C694 0.950 . S
H683 C695 0.950 . S
C684 H676 0.950 . S
C684 C685 1.386 1_545 S
C684 C686 1.391 . S
C685 C684 1.386 1_565 S
C685 C689 1.393 . S
C686 H678 0.950 . S
C686 C684 1.391 . S
C686 C687 1.400 . S
C687 C686 1.400 . S
C687 C688 1.398 1_545 S
C687 C693 1.491 . S
C688 H679 0.950 . S
C688 C687 1.398 1_565 S
C688 C689 1.391 . S
C689 H677 0.950 . S
C689 C685 1.393 . S
C689 C688 1.391 . S
C690 H680 0.950 . S
C690 C691 1.386 1_554 S
C690 C692 1.391 . S
C691 C690 1.386 1_556 S
C691 C695 1.393 . S
C692 H681 0.950 . S
C692 C690 1.391 . S
C692 C693 1.400 . S
C693 C687 1.491 . S
C693 C692 1.400 . S
C693 C694 1.398 1_554 S
C694 H682 0.950 . S
C694 C693 1.398 1_556 S
C694 C695 1.391 . S
C695 H683 0.950 . S
C695 C691 1.393 . S
C695 C694 1.391 . S
H696 C704 0.950 . S
H697 C709 0.950 . S
H698 C706 0.950 . S
H699 C708 0.950 . S
H700 C710 0.950 . S
H701 C712 0.950 . S
H702 C714 0.950 . S
H703 C715 0.950 . S
C704 H696 0.950 . S
C704 C705 1.386 . S
C704 C706 1.391 . S
C705 C704 1.386 . S
C705 C709 1.393 . S
C706 H698 0.950 . S
C706 C704 1.391 . S
C706 C707 1.400 . S
C707 C706 1.400 . S
C707 C708 1.398 . S
C707 C713 1.491 . S
C708 H699 0.950 . S
C708 C707 1.398 . S
C708 C709 1.391 . S
C709 H697 0.950 . S
C709 C705 1.393 . S
C709 C708 1.391 . S
C710 H700 0.950 . S
C710 C711 1.386 . S
C710 C712 1.391 . S
C711 C710 1.386 . S
C711 C715 1.393 1_556 S
C712 H701 0.950 . S
C712 C710 1.391 . S
C712 C713 1.400 1_556 S
C713 C707 1.491 . S
C713 C712 1.400 1_554 S
C713 C714 1.398 . S
C714 H702 0.950 . S
C714 C713 1.398 . S
C714 C715 1.391 . S
C715 H703 0.950 . S
C715 C711 1.393 1_554 S
C715 C714 1.391 . S
H716 C724 0.950 . S
H717 C729 0.950 . S
H718 C726 0.950 . S
H719 C728 0.950 . S
H720 C730 0.950 . S
H721 C732 0.950 . S
H722 C734 0.950 . S
H723 C735 0.950 . S
C724 H716 0.950 . S
C724 C725 1.386 . S
C724 C726 1.391 . S
C725 C724 1.386 . S
C725 C729 1.393 . S
C726 H718 0.950 . S
C726 C724 1.391 . S
C726 C727 1.400 . S
C727 C726 1.400 . S
C727 C728 1.398 . S
C727 C733 1.491 . S
C728 H719 0.950 . S
C728 C727 1.398 . S
C728 C729 1.391 . S
C729 H717 0.950 . S
C729 C725 1.393 . S
C729 C728 1.391 . S
C730 H720 0.950 . S
C730 C731 1.386 . S
C730 C732 1.391 . S
C731 C730 1.386 . S
C731 C735 1.393 1_556 S
C732 H721 0.950 . S
C732 C730 1.391 . S
C732 C733 1.400 1_556 S
C733 C727 1.491 . S
C733 C732 1.400 1_554 S
C733 C734 1.398 . S
C734 H722 0.950 . S
C734 C733 1.398 . S
C734 C735 1.391 . S
C735 H723 0.950 . S
C735 C731 1.393 1_554 S
C735 C734 1.391 . S
H736 C744 0.950 . S
H737 C749 0.950 . S
H738 C746 0.950 . S
H739 C748 0.950 . S
H740 C750 0.950 . S
H741 C752 0.950 . S
H742 C754 0.950 . S
H743 C755 0.950 . S
C744 H736 0.950 . S
C744 C745 1.386 1_655 S
C744 C746 1.391 . S
C745 C744 1.386 1_455 S
C745 C749 1.393 . S
C746 H738 0.950 . S
C746 C744 1.391 . S
C746 C747 1.400 1_655 S
C747 C746 1.400 1_455 S
C747 C748 1.398 . S
C747 C753 1.491 . S
C748 H739 0.950 . S
C748 C747 1.398 . S
C748 C749 1.391 . S
C749 H737 0.950 . S
C749 C745 1.393 . S
C749 C748 1.391 . S
C750 H740 0.950 . S
C750 C751 1.386 . S
C750 C752 1.391 . S
C751 C750 1.386 . S
C751 C755 1.393 1_455 S
C752 H741 0.950 . S
C752 C750 1.391 . S
C752 C753 1.400 . S
C753 C747 1.491 . S
C753 C752 1.400 . S
C753 C754 1.398 1_455 S
C754 H742 0.950 . S
C754 C753 1.398 1_655 S
C754 C755 1.391 . S
C755 H743 0.950 . S
C755 C751 1.393 1_655 S
C755 C754 1.391 . S
H756 C764 0.950 . S
H757 C769 0.950 . S
H758 C766 0.950 . S
H759 C768 0.950 . S
H760 C770 0.950 . S
H761 C772 0.950 . S
H762 C774 0.950 . S
H763 C775 0.950 . S
C764 H756 0.950 . S
C764 C765 1.386 1_565 S
C764 C766 1.391 . S
C765 C764 1.386 1_545 S
C765 C769 1.393 . S
C766 H758 0.950 . S
C766 C764 1.391 . S
C766 C767 1.400 1_565 S
C767 C766 1.400 1_545 S
C767 C768 1.398 . S
C767 C773 1.491 . S
C768 H759 0.950 . S
C768 C767 1.398 . S
C768 C769 1.391 . S
C769 H757 0.950 . S
C769 C765 1.393 . S
C769 C768 1.391 . S
C770 H760 0.950 . S
C770 C771 1.386 . S
C770 C772 1.391 . S
C771 C770 1.386 . S
C771 C775 1.393 1_545 S
C772 H761 0.950 . S
C772 C770 1.391 . S
C772 C773 1.400 . S
C773 C767 1.491 . S
C773 C772 1.400 . S
C773 C774 1.398 1_545 S
C774 H762 0.950 . S
C774 C773 1.398 1_565 S
C774 C775 1.391 . S
C775 H763 0.950 . S
C775 C771 1.393 1_565 S
C775 C774 1.391 . S
H776 C784 0.950 . S
H777 C789 0.950 . S
H778 C786 0.950 . S
H779 C788 0.950 . S
H780 C790 0.950 . S
H781 C792 0.950 . S
H782 C794 0.950 . S
H783 C795 0.950 . S
C784 H776 0.950 . S
C784 C785 1.386 . S
C784 C786 1.391 . S
C785 C784 1.386 . S
C785 C789 1.393 . S
C786 H778 0.950 . S
C786 C784 1.391 . S
C786 C787 1.400 . S
C787 C786 1.400 . S
C787 C788 1.398 . S
C787 C793 1.491 . S
C788 H779 0.950 . S
C788 C787 1.398 . S
C788 C789 1.391 . S
C789 H777 0.950 . S
C789 C785 1.393 . S
C789 C788 1.391 . S
C790 H780 0.950 . S
C790 C791 1.386 . S
C790 C792 1.391 . S
C791 C790 1.386 . S
C791 C795 1.393 . S
C792 H781 0.950 . S
C792 C790 1.391 . S
C792 C793 1.400 . S
C793 C787 1.491 . S
C793 C792 1.400 . S
C793 C794 1.398 . S
C794 H782 0.950 . S
C794 C793 1.398 . S
C794 C795 1.391 . S
C795 H783 0.950 . S
C795 C791 1.393 . S
C795 C794 1.391 . S
H796 C804 0.950 . S
H797 C809 0.950 . S
H798 C806 0.950 . S
H799 C808 0.950 . S
H800 C810 0.950 . S
H801 C812 0.950 . S
H802 C814 0.950 . S
H803 C815 0.950 . S
C804 H796 0.950 . S
C804 C805 1.386 . S
C804 C806 1.391 . S
C805 C804 1.386 . S
C805 C809 1.393 . S
C806 H798 0.950 . S
C806 C804 1.391 . S
C806 C807 1.400 . S
C807 C806 1.400 . S
C807 C808 1.398 . S
C807 C813 1.491 . S
C808 H799 0.950 . S
C808 C807 1.398 . S
C808 C809 1.391 . S
C809 H797 0.950 . S
C809 C805 1.393 . S
C809 C808 1.391 . S
C810 H800 0.950 . S
C810 C811 1.386 . S
C810 C812 1.391 . S
C811 C810 1.386 . S
C811 C815 1.393 . S
C812 H801 0.950 . S
C812 C810 1.391 . S
C812 C813 1.400 . S
C813 C807 1.491 . S
C813 C812 1.400 . S
C813 C814 1.398 . S
C814 H802 0.950 . S
C814 C813 1.398 . S
C814 C815 1.391 . S
C815 H803 0.950 . S
C815 C811 1.393 . S
C815 C814 1.391 . S
H816 C824 0.950 . S
H817 C829 0.950 . S
H818 C826 0.950 . S
H819 C828 0.950 . S
H820 C830 0.950 . S
H821 C832 0.950 . S
H822 C834 0.950 . S
H823 C835 0.950 . S
C824 H816 0.950 . S
C824 C825 1.386 1_455 S
C824 C826 1.391 . S
C825 C824 1.386 1_655 S
C825 C829 1.393 . S
C826 H818 0.950 . S
C826 C824 1.391 . S
C826 C827 1.400 1_455 S
C827 C826 1.400 1_655 S
C827 C828 1.398 . S
C827 C833 1.491 . S
C828 H819 0.950 . S
C828 C827 1.398 . S
C828 C829 1.391 . S
C829 H817 0.950 . S
C829 C825 1.393 . S
C829 C828 1.391 . S
C830 H820 0.950 . S
C830 C831 1.386 . S
C830 C832 1.391 . S
C831 C830 1.386 . S
C831 C835 1.393 1_655 S
C832 H821 0.950 . S
C832 C830 1.391 . S
C832 C833 1.400 . S
C833 C827 1.491 . S
C833 C832 1.400 . S
C833 C834 1.398 1_655 S
C834 H822 0.950 . S
C834 C833 1.398 1_455 S
C834 C835 1.391 . S
C835 H823 0.950 . S
C835 C831 1.393 1_455 S
C835 C834 1.391 . S
H836 C844 0.950 . S
H837 C849 0.950 . S
H838 C846 0.950 . S
H839 C848 0.950 . S
H840 C850 0.950 . S
H841 C852 0.950 . S
H842 C854 0.950 . S
H843 C855 0.950 . S
C844 H836 0.950 . S
C844 C845 1.386 . S
C844 C846 1.391 . S
C845 C844 1.386 . S
C845 C849 1.393 1_565 S
C846 H838 0.950 . S
C846 C844 1.391 . S
C846 C847 1.400 . S
C847 C846 1.400 . S
C847 C848 1.398 1_565 S
C847 C853 1.491 . S
C848 H839 0.950 . S
C848 C847 1.398 1_545 S
C848 C849 1.391 . S
C849 H837 0.950 . S
C849 C845 1.393 1_545 S
C849 C848 1.391 . S
C850 H840 0.950 . S
C850 C851 1.386 1_545 S
C850 C852 1.391 . S
C851 C850 1.386 1_565 S
C851 C855 1.393 . S
C852 H841 0.950 . S
C852 C850 1.391 . S
C852 C853 1.400 1_545 S
C853 C847 1.491 . S
C853 C852 1.400 1_565 S
C853 C854 1.398 . S
C854 H842 0.950 . S
C854 C853 1.398 . S
C854 C855 1.391 . S
C855 H843 0.950 . S
C855 C851 1.393 . S
C855 C854 1.391 . S
H856 C864 0.950 . S
H857 C869 0.950 . S
H858 C866 0.950 . S
H859 C868 0.950 . S
H860 C870 0.950 . S
H861 C872 0.950 . S
H862 C874 0.950 . S
H863 C875 0.950 . S
C864 H856 0.950 . S
C864 C865 1.386 . S
C864 C866 1.391 . S
C865 C864 1.386 . S
C865 C869 1.393 . S
C866 H858 0.950 . S
C866 C864 1.391 . S
C866 C867 1.400 . S
C867 C866 1.400 . S
C867 C868 1.398 . S
C867 C873 1.491 . S
C868 H859 0.950 . S
C868 C867 1.398 . S
C868 C869 1.391 . S
C869 H857 0.950 . S
C869 C865 1.393 . S
C869 C868 1.391 . S
C870 H860 0.950 . S
C870 C871 1.386 . S
C870 C872 1.391 . S
C871 C870 1.386 . S
C871 C875 1.393 . S
C872 H861 0.950 . S
C872 C870 1.391 . S
C872 C873 1.400 . S
C873 C867 1.491 . S
C873 C872 1.400 . S
C873 C874 1.398 . S
C874 H862 0.950 . S
C874 C873 1.398 . S
C874 C875 1.391 . S
C875 H863 0.950 . S
C875 C871 1.393 . S
C875 C874 1.391 . S
H876 C884 0.950 . S
H877 C889 0.950 . S
H878 C886 0.950 . S
H879 C888 0.950 . S
H880 C890 0.950 . S
H881 C892 0.950 . S
H882 C894 0.950 . S
H883 C895 0.950 . S
C884 H876 0.950 . S
C884 C885 1.386 . S
C884 C886 1.391 . S
C885 C884 1.386 . S
C885 C889 1.393 . S
C886 H878 0.950 . S
C886 C884 1.391 . S
C886 C887 1.400 . S
C887 C886 1.400 . S
C887 C888 1.398 . S
C887 C893 1.491 . S
C888 H879 0.950 . S
C888 C887 1.398 . S
C888 C889 1.391 . S
C889 H877 0.950 . S
C889 C885 1.393 . S
C889 C888 1.391 . S
C890 H880 0.950 . S
C890 C891 1.386 . S
C890 C892 1.391 . S
C891 C890 1.386 . S
C891 C895 1.393 . S
C892 H881 0.950 . S
C892 C890 1.391 . S
C892 C893 1.400 . S
C893 C887 1.491 . S
C893 C892 1.400 . S
C893 C894 1.398 . S
C894 H882 0.950 . S
C894 C893 1.398 . S
C894 C895 1.391 . S
C895 H883 0.950 . S
C895 C891 1.393 . S
C895 C894 1.391 . S
C425 C215 2.007 1_565 S
C431 C266 2.154 1_545 S
C451 C306 2.162 . S
C445 C247 2.006 . S
C471 C346 2.160 . S
C465 C151 1.998 . S
C491 C386 2.155 1_455 S
C485 C183 1.987 . S
C511 C275 2.160 1_565 S
C505 C87 2.000 . S
C525 C119 1.999 . S
C531 C315 2.160 . S
C545 C23 2.000 . S
C551 C355 2.158 . S
C565 C55 2.009 1_655 S
C571 C395 2.156 1_655 S
C591 C272 0.479 . S
C585 C189 0.378 . S
C611 C312 0.443 . S
C605 C221 0.397 . S
C631 C352 0.499 . S
C625 C253 0.402 . S
C645 C157 0.381 . S
C651 C392 0.476 . S
C665 C61 0.586 1_655 S
C671 C263 0.499 . S
C691 C303 0.501 . S
C685 C93 0.585 1_565 S
C711 C343 0.433 . S
C705 C125 0.514 . S
C725 C29 0.498 . S
C731 C383 0.428 . S
C745 C177 2.500 . S
C751 C267 2.799 . S
C765 C209 2.488 . S
C771 C307 2.795 . S
C791 C347 2.783 . S
C785 C241 2.474 . S
C811 C387 2.800 . S
C805 C145 2.469 . S
C825 C49 2.501 1_655 S
C831 C258 2.806 . S
C851 C298 2.796 . S
C845 C81 2.507 1_565 S
C871 C338 2.785 . S
C865 C113 2.515 . S
C885 C17 2.509 . S
C891 C378 2.797 . S
