# Generated by pormake.
# Topology pyr, (3,6)-cn, num edge types: 1
# Building blocks:
#     Node 0, Type 0, BuildingBlock: MIDCAF_clean_linker_0, # of connection points: 3
#     Node 1, Type 0, BuildingBlock: MIDCAF_clean_linker_0, # of connection points: 3
#     Node 2, Type 0, BuildingBlock: MIDCAF_clean_linker_0, # of connection points: 3
#     Node 3, Type 0, BuildingBlock: MIDCAF_clean_linker_0, # of connection points: 3
#     Node 4, Type 0, BuildingBlock: MIDCAF_clean_linker_0, # of connection points: 3
#     Node 5, Type 0, BuildingBlock: MIDCAF_clean_linker_0, # of connection points: 3
#     Node 6, Type 0, BuildingBlock: MIDCAF_clean_linker_0, # of connection points: 3
#     Node 7, Type 0, BuildingBlock: MIDCAF_clean_linker_0, # of connection points: 3
#     Node 8, Type 1, BuildingBlock: GEDQOX_clean_sbu_0, # of connection points: 6
#     Node 9, Type 1, BuildingBlock: GEDQOX_clean_sbu_0, # of connection points: 6
#     Node 10, Type 1, BuildingBlock: GEDQOX_clean_sbu_0, # of connection points: 6
#     Node 11, Type 1, BuildingBlock: GEDQOX_clean_sbu_0, # of connection points: 6
#     Edge 12, Type (0, 1), BuildingBlock: ZUJKAS_clean_linker_0, # of connection points: 2
#     Edge 13, Type (0, 1), BuildingBlock: ZUJKAS_clean_linker_0, # of connection points: 2
#     Edge 14, Type (0, 1), BuildingBlock: ZUJKAS_clean_linker_0, # of connection points: 2
#     Edge 15, Type (0, 1), BuildingBlock: ZUJKAS_clean_linker_0, # of connection points: 2
#     Edge 16, Type (0, 1), BuildingBlock: ZUJKAS_clean_linker_0, # of connection points: 2
#     Edge 17, Type (0, 1), BuildingBlock: ZUJKAS_clean_linker_0, # of connection points: 2
#     Edge 18, Type (0, 1), BuildingBlock: ZUJKAS_clean_linker_0, # of connection points: 2
#     Edge 19, Type (0, 1), BuildingBlock: ZUJKAS_clean_linker_0, # of connection points: 2
#     Edge 20, Type (0, 1), BuildingBlock: ZUJKAS_clean_linker_0, # of connection points: 2
#     Edge 21, Type (0, 1), BuildingBlock: ZUJKAS_clean_linker_0, # of connection points: 2
#     Edge 22, Type (0, 1), BuildingBlock: ZUJKAS_clean_linker_0, # of connection points: 2
#     Edge 23, Type (0, 1), BuildingBlock: ZUJKAS_clean_linker_0, # of connection points: 2
#     Edge 24, Type (0, 1), BuildingBlock: ZUJKAS_clean_linker_0, # of connection points: 2
#     Edge 25, Type (0, 1), BuildingBlock: ZUJKAS_clean_linker_0, # of connection points: 2
#     Edge 26, Type (0, 1), BuildingBlock: ZUJKAS_clean_linker_0, # of connection points: 2
#     Edge 27, Type (0, 1), BuildingBlock: ZUJKAS_clean_linker_0, # of connection points: 2
#     Edge 28, Type (0, 1), BuildingBlock: ZUJKAS_clean_linker_0, # of connection points: 2
#     Edge 29, Type (0, 1), BuildingBlock: ZUJKAS_clean_linker_0, # of connection points: 2
#     Edge 30, Type (0, 1), BuildingBlock: ZUJKAS_clean_linker_0, # of connection points: 2
#     Edge 31, Type (0, 1), BuildingBlock: ZUJKAS_clean_linker_0, # of connection points: 2
#     Edge 32, Type (0, 1), BuildingBlock: ZUJKAS_clean_linker_0, # of connection points: 2
#     Edge 33, Type (0, 1), BuildingBlock: ZUJKAS_clean_linker_0, # of connection points: 2
#     Edge 34, Type (0, 1), BuildingBlock: ZUJKAS_clean_linker_0, # of connection points: 2
#     Edge 35, Type (0, 1), BuildingBlock: ZUJKAS_clean_linker_0, # of connection points: 2
# Relax obj value: 0.082
# Max RMSD: 0.146
# Mean RMSD: 0.058
data_MOF--net-pyr--node1-GEDQOX_clean_sbu_0--node2-MIDCAF_clean_linker_0--edge1-ZUJKAS_clean_linker_0
_symmetry_space_group_name_H-M    P1
_symmetry_Int_Tables_number       1
_symmetry_cell_setting            triclinic
loop_
_symmetry_equiv_pos_as_xyz
'x, y, z'
_cell_length_a     60.122113
_cell_length_b     60.06833
_cell_length_c     53.145114
_cell_angle_alpha  88.155131
_cell_angle_beta   91.801153
_cell_angle_gamma 88.949864
loop_
_atom_site_label
_atom_site_type_symbol
_atom_site_fract_x
_atom_site_fract_y
_atom_site_fract_z
_atom_type_partial_charge
C0 C 0.14495 0.15911 0.23853 0.0
C1 C 0.15328 0.13909 0.25035 0.0
C2 C 0.17273 0.12972 0.24023 0.0
C3 C 0.18331 0.13991 0.21943 0.0
H4 H 0.23719 0.13273 0.17008 0.0
H5 H 0.2707 0.11573 0.15389 0.0
H6 H 0.27521 0.1702 0.09954 0.0
H7 H 0.24173 0.18744 0.11614 0.0
H8 H 0.19928 0.22869 0.11384 0.0
H9 H 0.1812 0.26313 0.09676 0.0
H10 H 0.13197 0.2582 0.1539 0.0
H11 H 0.14959 0.22388 0.17039 0.0
H12 H 0.14822 0.18454 0.20956 0.0
H13 H 0.12993 0.16695 0.24502 0.0
H14 H 0.18012 0.11457 0.2486 0.0
H15 H 0.19819 0.13203 0.21259 0.0
N16 N 0.20497 0.16223 0.17538 0.0
N17 N 0.2058 0.19188 0.14507 0.0
N18 N 0.17743 0.19057 0.1747 0.0
C19 C 0.21509 0.1723 0.15526 0.0
C20 C 0.18688 0.20123 0.15465 0.0
C21 C 0.18614 0.17115 0.18533 0.0
C22 C 0.23619 0.16174 0.14468 0.0
C23 C 0.24519 0.14124 0.15465 0.0
C24 C 0.26463 0.13126 0.14509 0.0
C25 C 0.27629 0.1412 0.12502 0.0
C26 C 0.26732 0.16179 0.11509 0.0
C27 C 0.24777 0.17176 0.12463 0.0
C28 C 0.17614 0.22294 0.14368 0.0
C29 C 0.18457 0.23488 0.12279 0.0
C30 C 0.17413 0.25494 0.11299 0.0
C31 C 0.1547 0.26402 0.12357 0.0
C32 C 0.14645 0.25204 0.14453 0.0
C33 C 0.15684 0.23211 0.15427 0.0
C34 C 0.17494 0.15994 0.20772 0.0
C35 C 0.1555 0.16925 0.21778 0.0
C36 C 0.27208 0.82047 0.72002 0.0
C37 C 0.26311 0.81065 0.69839 0.0
C38 C 0.27512 0.79329 0.68759 0.0
C39 C 0.29576 0.78615 0.69793 0.0
H40 H 0.34441 0.74168 0.6884 0.0
H41 H 0.36317 0.71125 0.66857 0.0
H42 H 0.41853 0.71539 0.72194 0.0
H43 H 0.39989 0.74652 0.74167 0.0
H44 H 0.39986 0.78839 0.77941 0.0
H45 H 0.41805 0.81151 0.81065 0.0
H46 H 0.35974 0.85459 0.81019 0.0
H47 H 0.34167 0.83189 0.77896 0.0
H48 H 0.29928 0.82148 0.74686 0.0
H49 H 0.26311 0.83368 0.729 0.0
H50 H 0.26888 0.78559 0.6707 0.0
H51 H 0.30465 0.77297 0.68882 0.0
N52 N 0.33826 0.77184 0.71968 0.0
N53 N 0.36905 0.77729 0.74683 0.0
N54 N 0.3375 0.80083 0.74795 0.0
C55 C 0.35904 0.76562 0.72823 0.0
C56 C 0.35832 0.79496 0.7568 0.0
C57 C 0.32735 0.78935 0.72943 0.0
C58 C 0.3706 0.74664 0.71672 0.0
C59 C 0.36055 0.73616 0.6961 0.0
C60 C 0.37126 0.71852 0.68476 0.0
C61 C 0.39228 0.71073 0.69377 0.0
C62 C 0.4024 0.72111 0.71443 0.0
C63 C 0.39167 0.73889 0.7258 0.0
C64 C 0.3693 0.80829 0.7765 0.0
C65 C 0.39088 0.80276 0.786 0.0
C66 C 0.40129 0.81594 0.80399 0.0
C67 C 0.39039 0.83496 0.81273 0.0
C68 C 0.36873 0.84026 0.80351 0.0
C69 C 0.35832 0.82711 0.78567 0.0
C70 C 0.30496 0.79627 0.71926 0.0
C71 C 0.29279 0.8134 0.73032 0.0
C72 C 0.69013 0.33191 0.91564 0.0
C73 C 0.66719 0.32817 0.91288 0.0
C74 C 0.65385 0.34331 0.89816 0.0
C75 C 0.66333 0.36142 0.88576 0.0
H76 H 0.65491 0.39384 0.81845 0.0
H77 H 0.63455 0.40751 0.78096 0.0
H78 H 0.68371 0.45809 0.76932 0.0
H79 H 0.70468 0.44393 0.80679 0.0
H80 H 0.74866 0.44193 0.84364 0.0
H81 H 0.78592 0.4545 0.8548 0.0
H82 H 0.79234 0.40263 0.91288 0.0
H83 H 0.75533 0.38983 0.90166 0.0
H84 H 0.7174 0.35248 0.90551 0.0
H85 H 0.70075 0.32052 0.92699 0.0
H86 H 0.63617 0.34072 0.89545 0.0
H87 H 0.65259 0.37249 0.87413 0.0
N88 N 0.68507 0.3924 0.85282 0.0
N89 N 0.7147 0.41606 0.84464 0.0
N90 N 0.71706 0.39049 0.87907 0.0
C91 C 0.69404 0.40874 0.8384 0.0
C92 C 0.72631 0.40701 0.865 0.0
C93 C 0.69638 0.38321 0.87314 0.0
C94 C 0.68149 0.41779 0.81575 0.0
C95 C 0.66145 0.40794 0.80806 0.0
C96 C 0.64963 0.41589 0.78656 0.0
C97 C 0.65738 0.43401 0.7722 0.0
C98 C 0.67739 0.44396 0.77985 0.0
C99 C 0.68934 0.43591 0.8014 0.0
C100 C 0.74893 0.41483 0.87172 0.0
C101 C 0.758 0.43315 0.85877 0.0
C102 C 0.77931 0.44046 0.86523 0.0
C103 C 0.79207 0.42953 0.88468 0.0
C104 C 0.78303 0.41122 0.89759 0.0
C105 C 0.76172 0.40398 0.89123 0.0
C106 C 0.68635 0.36493 0.88796 0.0
C107 C 0.69961 0.35024 0.90344 0.0
C108 C 0.80714 0.70982 0.36875 0.0
C109 C 0.79863 0.691 0.35698 0.0
C110 C 0.80298 0.6879 0.33152 0.0
C111 C 0.81518 0.70345 0.31796 0.0
H112 H 0.82534 0.72421 0.24644 0.0
H113 H 0.83162 0.71444 0.20351 0.0
H114 H 0.88487 0.76167 0.1995 0.0
H115 H 0.87891 0.77118 0.24325 0.0
H116 H 0.88972 0.79905 0.29432 0.0
H117 H 0.90782 0.82939 0.31577 0.0
H118 H 0.86787 0.81681 0.38075 0.0
H119 H 0.85036 0.78609 0.35972 0.0
H120 H 0.82553 0.73984 0.36473 0.0
H121 H 0.80386 0.71281 0.38829 0.0
H122 H 0.79697 0.67339 0.32201 0.0
H123 H 0.81809 0.70047 0.29833 0.0
N124 N 0.83796 0.7369 0.28969 0.0
N125 N 0.85976 0.76879 0.28736 0.0
N126 N 0.84593 0.7564 0.32615 0.0
C127 C 0.84967 0.75164 0.27578 0.0
C128 C 0.85782 0.77134 0.31257 0.0
C129 C 0.83603 0.73907 0.31482 0.0
C130 C 0.85188 0.74822 0.24849 0.0
C131 C 0.83827 0.73276 0.23644 0.0
C132 C 0.84167 0.72736 0.21157 0.0
C133 C 0.85876 0.73727 0.19797 0.0
C134 C 0.87168 0.75361 0.20954 0.0
C135 C 0.86822 0.7591 0.23457 0.0
C136 C 0.86862 0.79007 0.3253 0.0
C137 C 0.88479 0.80276 0.31318 0.0
C138 C 0.89511 0.82024 0.32545 0.0
C139 C 0.88935 0.82555 0.35003 0.0
C140 C 0.87304 0.81294 0.36203 0.0
C141 C 0.86289 0.79537 0.34987 0.0
C142 C 0.82343 0.72247 0.32956 0.0
C143 C 0.81944 0.72539 0.35519 0.0
C144 C 0.76957 0.89896 0.87696 0.0
C145 C 0.76054 0.89149 0.89996 0.0
C146 C 0.77217 0.87357 0.91284 0.0
C147 C 0.79165 0.8636 0.90314 0.0
H148 H 0.83935 0.80583 0.91294 0.0
H149 H 0.85768 0.7716 0.9302 0.0
H150 H 0.90408 0.77413 0.86991 0.0
H151 H 0.8863 0.8083 0.85331 0.0
H152 H 0.88864 0.8483 0.81541 0.0
H153 H 0.90691 0.86553 0.77977 0.0
H154 H 0.85625 0.91744 0.7749 0.0
H155 H 0.83818 0.90034 0.81116 0.0
H156 H 0.79519 0.8958 0.84979 0.0
H157 H 0.76169 0.91277 0.8663 0.0
H158 H 0.76604 0.86689 0.9304 0.0
H159 H 0.7997 0.84989 0.91382 0.0
N160 N 0.8314 0.8414 0.88013 0.0
N161 N 0.85945 0.84245 0.85013 0.0
N162 N 0.83168 0.87058 0.84917 0.0
C163 C 0.85025 0.832 0.87047 0.0
C164 C 0.85055 0.86168 0.83924 0.0
C165 C 0.82183 0.86073 0.86962 0.0
C166 C 0.86112 0.8104 0.88156 0.0
C167 C 0.85349 0.79916 0.90334 0.0
C168 C 0.86408 0.77921 0.91324 0.0
C169 C 0.88282 0.76952 0.90185 0.0
C170 C 0.89021 0.78078 0.87996 0.0
C171 C 0.87971 0.80064 0.87015 0.0
C172 C 0.86166 0.87268 0.81666 0.0
C173 C 0.88123 0.8634 0.80688 0.0
C174 C 0.89178 0.87334 0.78601 0.0
C175 C 0.88332 0.89311 0.77375 0.0
C176 C 0.86374 0.90246 0.7836 0.0
C177 C 0.85315 0.89248 0.80454 0.0
C178 C 0.80069 0.87119 0.8802 0.0
C179 C 0.78914 0.88917 0.86743 0.0
C180 C 0.67084 0.19362 0.21894 0.0
C181 C 0.64897 0.1987 0.21028 0.0
C182 C 0.63815 0.21771 0.21917 0.0
C183 C 0.64887 0.23111 0.2367 0.0
H184 H 0.63757 0.28271 0.28679 0.0
H185 H 0.61816 0.31148 0.30974 0.0
H186 H 0.67923 0.32524 0.3508 0.0
H187 H 0.6985 0.29662 0.32837 0.0
H188 H 0.73701 0.26381 0.33003 0.0
H189 H 0.77286 0.25168 0.34807 0.0
H190 H 0.77807 0.20185 0.29157 0.0
H191 H 0.74167 0.21357 0.27381 0.0
H192 H 0.69839 0.2024 0.24262 0.0
H193 H 0.67976 0.17928 0.21216 0.0
H194 H 0.62123 0.22197 0.21297 0.0
H195 H 0.63995 0.24547 0.24339 0.0
N196 N 0.67109 0.25679 0.2753 0.0
N197 N 0.70254 0.2632 0.30104 0.0
N198 N 0.7032 0.23418 0.2728 0.0
C199 C 0.68137 0.26879 0.29342 0.0
C200 C 0.7136 0.246 0.29088 0.0
C201 C 0.68198 0.23947 0.26483 0.0
C202 C 0.66957 0.28715 0.30584 0.0
C203 C 0.64688 0.29196 0.30061 0.0
C204 C 0.63577 0.30848 0.31369 0.0
C205 C 0.64713 0.32043 0.33227 0.0
C206 C 0.66991 0.31601 0.33696 0.0
C207 C 0.68098 0.29962 0.32394 0.0
C208 C 0.7363 0.23958 0.30052 0.0
C209 C 0.74579 0.25037 0.32124 0.0
C210 C 0.76651 0.24351 0.33153 0.0
C211 C 0.77839 0.22578 0.32129 0.0
C212 C 0.76922 0.21537 0.30013 0.0
C213 C 0.74838 0.22217 0.28988 0.0
C214 C 0.67068 0.22583 0.24562 0.0
C215 C 0.68157 0.20701 0.23633 0.0
C216 C 0.25718 0.59716 0.1611 0.0
C217 C 0.24698 0.60458 0.13812 0.0
C218 C 0.25863 0.61897 0.12211 0.0
C219 C 0.28002 0.6258 0.12893 0.0
H220 H 0.32635 0.6787 0.11752 0.0
H221 H 0.34551 0.70974 0.09737 0.0
H222 H 0.4083 0.6839 0.12883 0.0
H223 H 0.38919 0.65347 0.14948 0.0
H224 H 0.38479 0.63561 0.2065 0.0
H225 H 0.40262 0.62405 0.24641 0.0
H226 H 0.34657 0.58295 0.26365 0.0
H227 H 0.32852 0.59438 0.22326 0.0
H228 H 0.28594 0.59777 0.18571 0.0
H229 H 0.24872 0.58585 0.1737 0.0
H230 H 0.25112 0.62519 0.10441 0.0
H231 H 0.28846 0.63693 0.11612 0.0
N232 N 0.32377 0.64044 0.14421 0.0
N233 N 0.35458 0.63862 0.17231 0.0
N234 N 0.32329 0.61739 0.18079 0.0
C235 C 0.34463 0.64695 0.1507 0.0
C236 C 0.3441 0.62393 0.18752 0.0
C237 C 0.31304 0.6255 0.15909 0.0
C238 C 0.35621 0.66386 0.13542 0.0
C239 C 0.34428 0.67952 0.11981 0.0
C240 C 0.35527 0.69726 0.10821 0.0
C241 C 0.3784 0.69951 0.11187 0.0
C242 C 0.39041 0.68301 0.12619 0.0
C243 C 0.37945 0.6655 0.13794 0.0
C244 C 0.35511 0.61602 0.21161 0.0
C245 C 0.37615 0.62408 0.21866 0.0
C246 C 0.38637 0.61758 0.24168 0.0
C247 C 0.37588 0.6028 0.25829 0.0
C248 C 0.35505 0.59433 0.25116 0.0
C249 C 0.34471 0.60094 0.22807 0.0
C250 C 0.29029 0.61832 0.15189 0.0
C251 C 0.2786 0.60391 0.16789 0.0
C252 C 0.17305 0.21326 0.66062 0.0
C253 C 0.15627 0.20092 0.67212 0.0
C254 C 0.14865 0.20757 0.69552 0.0
C255 C 0.15715 0.22645 0.7068 0.0
H256 H 0.17349 0.25827 0.77982 0.0
H257 H 0.16469 0.26976 0.82247 0.0
H258 H 0.16596 0.3387 0.79714 0.0
H259 H 0.17494 0.3275 0.7551 0.0
H260 H 0.20222 0.33961 0.70803 0.0
H261 H 0.22322 0.36643 0.68383 0.0
H262 H 0.24272 0.31478 0.63374 0.0
H263 H 0.22101 0.28796 0.65756 0.0
H264 H 0.19407 0.24152 0.66217 0.0
H265 H 0.17963 0.20836 0.64285 0.0
H266 H 0.13556 0.19863 0.70479 0.0
H267 H 0.15047 0.23137 0.72452 0.0
N268 N 0.17544 0.26567 0.7294 0.0
N269 N 0.19221 0.30032 0.72398 0.0
N270 N 0.19225 0.27516 0.69128 0.0
C271 C 0.18112 0.28567 0.73866 0.0
C272 C 0.19794 0.29521 0.70037 0.0
C273 C 0.18089 0.26034 0.70563 0.0
C274 C 0.17493 0.29199 0.76416 0.0
C275 C 0.17175 0.27585 0.78342 0.0
C276 C 0.16683 0.28237 0.80776 0.0
C277 C 0.16453 0.30507 0.81291 0.0
C278 C 0.16741 0.32109 0.79356 0.0
C279 C 0.17269 0.31465 0.76952 0.0
C280 C 0.21008 0.31157 0.68485 0.0
C281 C 0.21092 0.33393 0.69182 0.0
C282 C 0.22306 0.34933 0.67798 0.0
C283 C 0.23486 0.34275 0.65698 0.0
C284 C 0.23364 0.32048 0.64966 0.0
C285 C 0.22129 0.30507 0.6634 0.0
C286 C 0.17335 0.23922 0.69485 0.0
C287 C 0.18143 0.23222 0.67179 0.0
Nd288 Nd 0.03152 0.99484 0.50789 0.0
Nd289 Nd 1.00484 0.03633 0.51539 0.0
C290 C 0.04628 0.95363 0.50247 0.0
C291 C 0.05537 0.93623 0.52003 0.0
C292 C 0.06913 0.91934 0.51116 0.0
C293 C 0.081 0.90501 0.52816 0.0
C294 C 0.07932 0.90747 0.55428 0.0
C295 C 0.06452 0.92367 0.56301 0.0
C296 C 0.0527 0.938 0.54602 0.0
C297 C 0.05264 0.02476 0.53789 0.0
C298 C 0.99706 0.99612 0.55651 0.0
C299 C 0.98968 0.07748 0.52028 0.0
C300 C 0.97996 0.0944 0.50252 0.0
C301 C 0.97703 0.11642 0.5098 0.0
C302 C 0.96585 0.132 0.49361 0.0
C303 C 0.95728 0.12569 0.46996 0.0
C304 C 0.96107 0.10371 0.46248 0.0
C305 C 0.97239 0.08826 0.47856 0.0
C306 C 0.98415 1.00624 0.48507 0.0
C307 C 0.03961 0.03531 0.46711 0.0
O308 O 0.02516 0.95879 0.50428 0.0
O309 O 0.05876 0.9711 0.50009 0.0
O310 O 0.06289 1.01255 0.52212 0.0
O311 O 0.03243 0.01992 0.53871 0.0
O312 O 1.00769 0.98363 0.5403 0.0
O313 O 0.99652 0.01808 0.55303 0.0
O314 O 1.01078 0.07262 0.5178 0.0
O315 O 0.97761 0.05984 0.52372 0.0
O316 O 0.97365 0.01811 0.50097 0.0
O317 O 1.00422 1.01148 0.48449 0.0
O318 O 0.02888 0.04771 0.48332 0.0
O319 O 0.04015 0.01333 0.47045 0.0
H320 H 0.07152 0.91792 0.49115 0.0
H321 H 0.09244 0.89287 0.52083 0.0
H322 H 0.06268 0.92579 0.58301 0.0
H323 H 0.04223 0.95107 0.55319 0.0
H324 H 0.98292 0.12142 0.52821 0.0
H325 H 0.96356 0.14886 0.4998 0.0
H326 H 0.95446 0.09809 0.44464 0.0
H327 H 0.97459 0.07128 0.47263 0.0
Nd328 Nd 0.51934 1.00194 0.03325 0.0
Nd329 Nd 0.51757 0.0301 0.99274 0.0
C330 C 0.52123 0.96711 0.06528 0.0
C331 C 0.51148 0.94481 0.0658 0.0
C332 C 0.51043 0.93209 0.04408 0.0
C333 C 0.49988 0.91156 0.04446 0.0
C334 C 0.49025 0.90336 0.06658 0.0
C335 C 0.49158 0.91604 0.08836 0.0
C336 C 0.50209 0.93659 0.08794 0.0
C337 C 0.48451 0.0332 0.03849 0.0
C338 C 0.49142 0.9866 0.98347 0.0
C339 C 0.51562 0.06502 0.96089 0.0
C340 C 0.52684 0.0866 0.95954 0.0
C341 C 0.52777 0.10046 0.98036 0.0
C342 C 0.53953 0.12027 0.97923 0.0
C343 C 0.55066 0.12655 0.95734 0.0
C344 C 0.54953 0.11277 0.93646 0.0
C345 C 0.53768 0.093 0.93756 0.0
C346 C 0.55244 0.99895 0.9873 0.0
C347 C 0.54548 0.0455 0.04272 0.0
O348 O 0.53615 0.971 0.04849 0.0
O349 O 0.50725 0.98374 0.06707 0.0
O350 O 0.5 0.02821 0.05536 0.0
O351 O 0.48849 0.02277 0.01848 0.0
O352 O 0.50386 0.97969 1.00303 0.0
O353 O 0.49092 1.00777 0.9768 0.0
O354 O 0.50175 0.062 0.97901 0.0
O355 O 0.52815 0.04748 0.95768 0.0
O356 O 0.53707 1.00422 0.9704 0.0
O357 O 0.54842 1.0092 1.00744 0.0
O358 O 0.5336 0.05233 0.02267 0.0
O359 O 0.54551 0.02444 0.0498 0.0
H360 H 0.5176 0.93807 0.02676 0.0
H361 H 0.49939 0.90207 0.02747 0.0
H362 H 0.48407 0.91032 0.1056 0.0
H363 H 0.50259 0.94624 0.10482 0.0
H364 H 0.51967 0.09589 0.99763 0.0
H365 H 0.5403 0.13045 0.99569 0.0
H366 H 0.55773 0.11734 0.91924 0.0
H367 H 0.53718 0.08255 0.92131 0.0
Nd368 Nd 0.49789 0.5034 0.50825 0.0
Nd369 Nd 0.54134 0.52972 0.51552 0.0
C370 C 0.45736 0.49007 0.49657 0.0
C371 C 0.43637 0.48586 0.50897 0.0
C372 C 0.41678 0.48392 0.49432 0.0
C373 C 0.39705 0.47777 0.50562 0.0
C374 C 0.39667 0.47336 0.53176 0.0
C375 C 0.41623 0.47623 0.54648 0.0
C376 C 0.43591 0.48249 0.53516 0.0
C377 C 0.52404 0.49026 0.54958 0.0
C378 C 0.49769 0.54839 0.54218 0.0
C379 C 0.58183 0.54318 0.52727 0.0
C380 C 0.60286 0.54751 0.51505 0.0
C381 C 0.62157 0.55288 0.5298 0.0
C382 C 0.64105 0.55955 0.51835 0.0
C383 C 0.64205 0.56101 0.49194 0.0
C384 C 0.6235 0.55459 0.47725 0.0
C385 C 0.60403 0.54789 0.48875 0.0
C386 C 0.51498 0.543 0.47444 0.0
C387 C 0.54145 0.48476 0.48149 0.0
O388 O 0.46329 0.51089 0.49432 0.0
O389 O 0.47393 0.47644 0.5031 0.0
O390 O 0.51175 0.47652 0.53724 0.0
O391 O 0.52043 0.50987 0.54155 0.0
O392 O 0.48587 0.53526 0.52759 0.0
O393 O 0.51961 0.54662 0.54404 0.0
O394 O 0.57596 0.52234 0.52943 0.0
O395 O 0.56526 0.55674 0.52056 0.0
O396 O 0.52719 0.55672 0.48691 0.0
O397 O 0.51878 0.52336 0.48225 0.0
O398 O 0.55331 0.49778 0.49618 0.0
O399 O 0.51955 0.48665 0.47962 0.0
H400 H 0.41688 0.48662 0.47406 0.0
H401 H 0.3822 0.47606 0.49382 0.0
H402 H 0.41661 0.47273 0.5666 0.0
H403 H 0.45094 0.48399 0.54674 0.0
H404 H 0.6209 0.55257 0.55016 0.0
H405 H 0.65516 0.56406 0.53015 0.0
H406 H 0.62364 0.55575 0.45688 0.0
H407 H 0.58965 0.54376 0.47713 0.0
Nd408 Nd 0.99921 0.51075 0.0283 0.0
Nd409 Nd 0.03902 0.52338 0.99748 0.0
C410 C 0.95827 0.50467 0.04317 0.0
C411 C 0.93953 0.52059 0.04563 0.0
C412 C 0.93229 0.53467 0.0252 0.0
C413 C 0.9184 0.55306 0.02909 0.0
C414 C 0.91154 0.5577 0.05341 0.0
C415 C 0.91719 0.54248 0.07337 0.0
C416 C 0.93104 0.52408 0.06948 0.0
C417 C 0.03212 0.53206 0.05416 0.0
C418 C 0.99839 0.56025 0.99539 0.0
C419 C 0.07982 0.52905 0.98207 0.0
C420 C 0.09747 0.51243 0.97725 0.0
C421 C 0.1039 0.50936 0.95244 0.0
C422 C 0.11576 0.49017 0.94639 0.0
C423 C 0.12145 0.47376 0.96508 0.0
C424 C 0.11711 0.47798 0.99029 0.0
C425 C 0.10519 0.49716 0.99635 0.0
C426 C 1.00615 0.50194 0.97162 0.0
C427 C 0.03985 0.47387 0.03057 0.0
O428 O 0.96445 0.50089 0.02027 0.0
O429 O 0.97517 0.5072 0.05889 0.0
O430 O 0.02098 0.5158 0.06398 0.0
O431 O 0.02498 0.53714 0.03216 0.0
O432 O 0.9871 0.54419 1.00691 0.0
O433 O 0.02003 0.55741 0.99186 0.0
O434 O 0.07438 0.53118 1.00557 0.0
O435 O 0.06244 0.52879 0.96662 0.0
O436 O 0.01736 0.5181 0.96174 0.0
O437 O 1.01332 0.49698 0.99363 0.0
O438 O 0.05108 0.4898 0.01871 0.0
O439 O 0.01828 0.47683 0.03441 0.0
H440 H 0.93838 0.53234 1.00648 0.0
H441 H 0.914 0.56432 0.0133 0.0
H442 H 0.91228 0.54564 0.09238 0.0
H443 H 0.93634 0.51342 0.08548 0.0
H444 H 0.09839 0.521 0.93743 0.0
H445 H 0.11936 0.48756 0.92685 0.0
H446 H 0.12139 0.46568 1.00509 0.0
H447 H 0.10072 0.49916 0.01574 0.0
H448 H 0.12944 0.15898 0.28822 0.0
H449 H 0.11076 0.14159 0.32381 0.0
H450 H 0.13166 0.07683 0.30017 0.0
H451 H 0.1503 0.09404 0.26444 0.0
H452 H 0.07692 0.11374 0.32856 0.0
H453 H 0.15068 0.07014 0.37268 0.0
H454 H 0.15294 0.09065 0.34739 0.0
H455 H 0.14554 0.06248 0.34072 0.0
C456 C 0.13008 0.141 0.2903 0.0
C457 C 0.14177 0.1282 0.2729 0.0
C458 C 0.11934 0.13097 0.31101 0.0
C459 C 0.11988 0.10768 0.31551 0.0
C460 C 0.13131 0.09481 0.29806 0.0
H461 H 0.06345 0.01538 0.42974 0.0
H462 H 0.08191 0.03281 0.39384 0.0
C463 C 0.14208 0.10482 0.27733 0.0
C464 C 0.10816 0.09701 0.33794 0.0
H465 H 0.11569 0.06069 0.38916 0.0
C466 C 0.08556 0.10225 0.34182 0.0
C467 C 0.11898 0.08182 0.35568 0.0
C468 C 0.14341 0.07608 0.35412 0.0
C469 C 0.07363 0.09262 0.36203 0.0
C470 C 0.08445 0.07742 0.37976 0.0
C471 C 0.10705 0.07218 0.3759 0.0
C472 C 0.07274 0.06672 0.40218 0.0
C473 C 0.04921 0.09837 0.36361 0.0
C474 C 0.06133 0.07957 0.41968 0.0
C475 C 0.0506 0.06953 0.44042 0.0
C476 C 0.05093 0.04617 0.44469 0.0
C477 C 0.06256 0.03335 0.42734 0.0
C478 C 0.07328 0.0434 0.40662 0.0
H479 H 0.04193 0.10433 0.34507 0.0
H480 H 0.03967 0.08381 0.37034 0.0
H481 H 0.0471 0.11197 0.37703 0.0
H482 H 0.06092 0.09755 0.41757 0.0
H483 H 0.04211 0.08018 0.45324 0.0
H484 H 0.39074 0.8804 0.81188 0.0
H485 H 0.4078 0.9045 0.84291 0.0
H486 H 0.43207 0.84671 0.88636 0.0
H487 H 0.41501 0.8224 0.85531 0.0
H488 H 0.39908 0.90635 0.89394 0.0
H489 H 0.48784 0.88419 0.87943 0.0
H490 H 0.46581 0.8772 0.85737 0.0
H491 H 0.47029 0.861 0.88616 0.0
C492 C 0.39967 0.8728 0.82807 0.0
C493 C 0.4015 0.84949 0.83118 0.0
C494 C 0.40947 0.8866 0.84572 0.0
C495 C 0.42137 0.8774 0.86679 0.0
C496 C 0.42332 0.85414 0.86997 0.0
H497 H 0.49045 0.94137 0.9909 0.0
H498 H 0.47231 0.91434 0.9641 0.0
C499 C 0.41357 0.84029 0.85224 0.0
C500 C 0.43115 0.8923 0.88569 0.0
H501 H 0.48039 0.90845 0.91242 0.0
C502 C 0.41686 0.90681 0.898 0.0
C503 C 0.45433 0.89278 0.89099 0.0
C504 C 0.47053 0.87812 0.87768 0.0
C505 C 0.42514 0.92186 0.91547 0.0
C506 C 0.44833 0.92259 0.92047 0.0
C507 C 0.4626 0.90781 0.90852 0.0
C508 C 0.45824 0.93907 0.93741 0.0
C509 C 0.409 0.93673 0.92859 0.0
C510 C 0.45632 0.96194 0.93126 0.0
C511 C 0.46669 0.97745 0.94653 0.0
C512 C 0.47926 0.97034 0.96815 0.0
C513 C 0.4809 0.94742 0.97441 0.0
C514 C 0.47057 0.93193 0.9591 0.0
H515 H 0.39184 0.93017 0.92777 0.0
H516 H 0.41421 0.93859 0.94864 0.0
H517 H 0.4086 0.9535 0.91919 0.0
H518 H 0.44718 0.96776 0.91435 0.0
H519 H 0.46516 0.99496 0.94111 0.0
H520 H 0.67362 0.44772 0.72668 0.0
H521 H 0.65227 0.45927 0.68833 0.0
H522 H 0.59109 0.44884 0.72691 0.0
H523 H 0.61219 0.4384 0.76553 0.0
H524 H 0.62323 0.43512 0.66096 0.0
H525 H 0.58002 0.50994 0.6951 0.0
H526 H 0.60324 0.49657 0.71224 0.0
H527 H 0.57565 0.48571 0.71478 0.0
C528 C 0.65563 0.44836 0.72716 0.0
C529 C 0.64462 0.44214 0.7492 0.0
C530 C 0.64346 0.45477 0.70517 0.0
C531 C 0.6201 0.45517 0.70485 0.0
C532 C 0.60909 0.44909 0.72684 0.0
H533 H 0.52985 0.44971 0.5741 0.0
H534 H 0.55398 0.4409 0.61133 0.0
C535 C 0.62121 0.44283 0.74883 0.0
C536 C 0.60715 0.461 0.6813 0.0
H537 H 0.56544 0.49522 0.65686 0.0
C538 C 0.61072 0.44839 0.65996 0.0
C539 C 0.59103 0.47849 0.67996 0.0
C540 C 0.5874 0.4936 0.70167 0.0
C541 C 0.59825 0.45246 0.63745 0.0
C542 C 0.58139 0.46924 0.63651 0.0
C543 C 0.57817 0.48216 0.6577 0.0
C544 C 0.56718 0.47412 0.61363 0.0
C545 C 0.60351 0.43899 0.61483 0.0
C546 C 0.56618 0.49579 0.60297 0.0
C547 C 0.55216 0.5009 0.58211 0.0
C548 C 0.53894 0.48441 0.57141 0.0
C549 C 0.53999 0.46267 0.58193 0.0
C550 C 0.55389 0.4576 0.60304 0.0
H551 H 0.62063 0.4317 0.61637 0.0
H552 H 0.59171 0.42506 0.61352 0.0
H553 H 0.60184 0.44934 0.59715 0.0
H554 H 0.57621 0.50881 0.61086 0.0
H555 H 0.55164 0.51783 0.57441 0.0
H556 H 0.90027 0.72886 0.18049 0.0
H557 H 0.90947 0.70545 0.14554 0.0
H558 H 0.83968 0.70021 0.12574 0.0
H559 H 0.83041 0.72465 0.15977 0.0
H560 H 0.89642 0.66378 0.14868 0.0
H561 H 0.86575 0.70021 0.05693 0.0
H562 H 0.86938 0.71669 0.08457 0.0
H563 H 0.84463 0.70066 0.08002 0.0
C564 C 0.88692 0.72365 0.168 0.0
C565 C 0.86456 0.72832 0.17321 0.0
C566 C 0.89221 0.71011 0.14808 0.0
C567 C 0.87528 0.70098 0.13305 0.0
C568 C 0.85307 0.70727 0.13679 0.0
H569 H 0.87694 0.56657 0.08411 0.0
H570 H 0.86642 0.60293 0.10012 0.0
C571 C 0.84778 0.721 0.15654 0.0
C572 C 0.88039 0.68181 0.11717 0.0
H573 H 0.87109 0.66011 0.05918 0.0
C574 C 0.89116 0.66318 0.129 0.0
C575 C 0.87351 0.68096 0.09151 0.0
C576 C 0.86288 0.70081 0.07746 0.0
C577 C 0.89468 0.64353 0.11616 0.0
C578 C 0.88676 0.64225 0.09095 0.0
C579 C 0.8767 0.66106 0.0787 0.0
C580 C 0.88934 0.62139 0.07726 0.0
C581 C 0.90681 0.62423 0.12978 0.0
C582 C 0.9048 0.62002 0.05816 0.0
C583 C 0.91082 0.5993 0.04898 0.0
C584 C 0.90145 0.57967 0.05881 0.0
C585 C 0.88463 0.58137 0.07646 0.0
C586 C 0.87858 0.60209 0.08555 0.0
H587 H 0.91622 0.62959 0.14679 0.0
H588 H 0.89455 0.61173 0.13589 0.0
H589 H 0.9186 0.61597 0.1172 0.0
H590 H 0.91328 0.63476 0.05158 0.0
H591 H 0.92397 0.59854 0.03555 0.0
H592 H 0.31354 0.1609 0.1037 0.0
H593 H 0.34719 0.14338 0.08801 0.0
H594 H 0.32183 0.07863 0.1069 0.0
H595 H 0.28819 0.09601 0.12272 0.0
H596 H 0.3638 0.07714 0.11914 0.0
H597 H 0.36027 0.11574 0.02346 0.0
H598 H 0.36109 0.13628 0.04718 0.0
H599 H 0.33753 0.11828 0.04457 0.0
C600 C 0.31477 0.1429 0.10429 0.0
C601 C 0.29745 0.13022 0.11471 0.0
C602 C 0.33432 0.13273 0.09508 0.0
C603 C 0.33752 0.10931 0.09547 0.0
C604 C 0.32033 0.09663 0.10604 0.0
H605 H 0.44386 0.03847 1.01088 0.0
H606 H 0.40882 0.0561 0.02401 0.0
C607 C 0.30083 0.10678 0.11533 0.0
C608 C 0.35875 0.09806 0.08576 0.0
H609 H 0.39421 0.09669 0.03588 0.0
C610 C 0.37026 0.08153 0.10086 0.0
C611 C 0.36763 0.10298 0.06165 0.0
C612 C 0.35588 0.1191 0.04316 0.0
C613 C 0.38998 0.07049 0.0931 0.0
C614 C 0.39943 0.07612 0.06949 0.0
C615 C 0.38764 0.09225 0.05409 0.0
C616 C 0.42136 0.06562 0.06071 0.0
C617 C 0.40011 0.0523 0.11028 0.0
C618 C 0.4409 0.0652 0.07621 0.0
C619 C 0.46096 0.05502 0.06869 0.0
C620 C 0.46273 0.04494 0.04513 0.0
C621 C 0.44345 0.04588 0.02917 0.0
C622 C 0.42322 0.05607 0.03678 0.0
H623 H 0.38751 0.04489 0.12273 0.0
H624 H 0.40769 0.03879 0.09942 0.0
H625 H 0.41325 0.05946 0.12254 0.0
H626 H 0.44077 0.07289 0.09433 0.0
H627 H 0.47526 0.05504 0.0816 0.0
H628 H 0.24862 0.85393 0.69199 0.0
H629 H 0.21455 0.8679 0.67026 0.0
H630 H 0.19591 0.80062 0.65464 0.0
H631 H 0.22951 0.7864 0.67731 0.0
H632 H 0.2037 0.86215 0.62048 0.0
H633 H 0.1385 0.82681 0.68097 0.0
H634 H 0.16734 0.828 0.6913 0.0
H635 H 0.15835 0.80669 0.67051 0.0
C636 C 0.23703 0.84205 0.68449 0.0
C637 C 0.24177 0.81903 0.68646 0.0
C638 C 0.21765 0.85008 0.67191 0.0
C639 C 0.2026 0.83529 0.66109 0.0
C640 C 0.2071 0.8123 0.66326 0.0
H641 H 0.09178 0.86325 0.5539 0.0
H642 H 0.12084 0.8442 0.58054 0.0
C643 C 0.22645 0.80423 0.67594 0.0
C644 C 0.18302 0.84411 0.64614 0.0
H645 H 0.12616 0.8444 0.64217 0.0
C646 C 0.18676 0.85828 0.62526 0.0
C647 C 0.16094 0.83895 0.65239 0.0
C648 C 0.15595 0.82444 0.67514 0.0
C649 C 0.16901 0.86751 0.61048 0.0
C650 C 0.147 0.86246 0.61681 0.0
C651 C 0.14315 0.84809 0.63743 0.0
C652 C 0.12789 0.87296 0.60267 0.0
C653 C 0.17379 0.8827 0.58821 0.0
C654 C 0.1221 0.8952 0.60679 0.0
C655 C 0.10566 0.90609 0.59168 0.0
C656 C 0.09472 0.89491 0.57214 0.0
C657 C 0.10004 0.87233 0.56868 0.0
C658 C 0.11649 0.8614 0.58391 0.0
H659 H 0.19174 0.8826 0.58384 0.0
H660 H 0.16405 0.87768 0.57129 0.0
H661 H 0.16861 0.90001 0.59232 0.0
H662 H 0.13085 0.90433 0.62117 0.0
H663 H 0.10223 0.92357 0.59459 0.0
H664 H 0.80565 0.47237 0.89028 0.0
H665 H 0.84288 0.48485 0.90268 0.0
H666 H 0.86656 0.41661 0.90787 0.0
H667 H 0.82956 0.40402 0.89502 0.0
H668 H 0.86719 0.47257 0.9482 0.0
H669 H 0.91206 0.44866 0.86305 0.0
H670 H 0.8821 0.45137 0.86344 0.0
H671 H 0.89596 0.42691 0.8771 0.0
C672 C 0.81887 0.46005 0.89373 0.0
C673 C 0.8147 0.43721 0.89162 0.0
C674 C 0.84006 0.46719 0.90094 0.0
C675 C 0.85747 0.45166 0.9059 0.0
C676 C 0.8534 0.42887 0.90376 0.0
H677 H 0.98178 0.46737 0.98927 0.0
H678 H 0.94566 0.45518 0.97271 0.0
C679 C 0.83222 0.42171 0.89666 0.0
C680 C 0.87973 0.4592 0.91419 0.0
H681 H 0.93427 0.45968 0.89814 0.0
C682 C 0.88186 0.46984 0.93724 0.0
C683 C 0.89874 0.45578 0.89969 0.0
C684 C 0.89718 0.44523 0.87433 0.0
C685 C 0.90265 0.47675 0.94645 0.0
C686 C 0.92175 0.4727 0.93231 0.0
C687 C 0.91957 0.46251 0.90901 0.0
C688 C 0.94411 0.47915 0.94141 0.0
C689 C 0.90406 0.48849 0.97113 0.0
C690 C 0.9554 0.49617 0.92879 0.0
C691 C 0.97598 0.50319 0.93823 0.0
C692 C 0.98555 0.49318 0.96034 0.0
C693 C 0.97463 0.47551 0.97234 0.0
C694 C 0.95402 0.46859 0.96297 0.0
H695 H 0.88746 0.49443 0.977 0.0
H696 H 0.91105 0.47679 0.98605 0.0
H697 H 0.91527 0.50295 0.9698 0.0
H698 H 0.94802 0.50441 0.91203 0.0
H699 H 0.9841 0.51681 0.92859 0.0
H700 H 0.80476 0.67454 0.40552 0.0
H701 H 0.78046 0.64946 0.42873 0.0
H702 H 0.73688 0.64598 0.363 0.0
H703 H 0.7606 0.67154 0.33998 0.0
H704 H 0.71506 0.65604 0.40635 0.0
H705 H 0.77116 0.58211 0.42249 0.0
H706 H 0.78273 0.60799 0.43212 0.0
H707 H 0.77642 0.60391 0.39934 0.0
C708 C 0.79 0.66843 0.39603 0.0
C709 C 0.78462 0.67501 0.3709 0.0
C710 C 0.7763 0.65389 0.4092 0.0
C711 C 0.75709 0.64563 0.39743 0.0
C712 C 0.75177 0.65202 0.37233 0.0
H713 H 0.66294 0.54761 0.44963 0.0
H714 H 0.69212 0.56723 0.42707 0.0
C715 C 0.76541 0.66654 0.35917 0.0
C716 C 0.74158 0.63161 0.4117 0.0
H717 H 0.73709 0.58197 0.44418 0.0
C718 C 0.71985 0.63982 0.41455 0.0
C719 C 0.74788 0.61038 0.42216 0.0
C720 C 0.77075 0.60043 0.41873 0.0
C721 C 0.70428 0.62751 0.4279 0.0
C722 C 0.71075 0.60659 0.43898 0.0
C723 C 0.73234 0.59814 0.43582 0.0
C724 C 0.69508 0.59341 0.45391 0.0
C725 C 0.68096 0.63689 0.42988 0.0
C726 C 0.68763 0.60139 0.47671 0.0
C727 C 0.67097 0.59036 0.48951 0.0
C728 C 0.6615 0.57107 0.47976 0.0
C729 C 0.66973 0.56257 0.45743 0.0
C730 C 0.68646 0.57364 0.44464 0.0
H731 H 0.67734 0.65068 0.41584 0.0
H732 H 0.66847 0.62371 0.42715 0.0
H733 H 0.67897 0.6435 0.44896 0.0
H734 H 0.69425 0.61657 0.4842 0.0
H735 H 0.66486 0.5975 0.50649 0.0
H736 H 0.17265 0.30153 0.0994 0.0
H737 H 0.15386 0.33605 0.08372 0.0
H738 H 0.09115 0.31078 0.10759 0.0
H739 H 0.10964 0.27633 0.12311 0.0
H740 H 0.1223 0.34718 0.04831 0.0
H741 H 0.0875 0.37003 0.1391 0.0
H742 H 0.10787 0.34783 0.13687 0.0
H743 H 0.07891 0.34304 0.12966 0.0
C744 C 0.15483 0.30308 0.10131 0.0
C745 C 0.14305 0.28561 0.1131 0.0
C746 C 0.14398 0.32315 0.09231 0.0
C747 C 0.12086 0.32683 0.09479 0.0
C748 C 0.10901 0.30922 0.10599 0.0
H749 H 0.02287 0.43621 0.0546 0.0
H750 H 0.04229 0.40157 0.06896 0.0
C751 C 0.1198 0.2892 0.11497 0.0
C752 C 0.10919 0.34867 0.08541 0.0
H753 H 0.07387 0.39092 0.10295 0.0
C754 C 0.11185 0.35673 0.06044 0.0
C755 C 0.0953 0.36166 0.10077 0.0
C756 C 0.09237 0.35536 0.12815 0.0
C757 C 0.10086 0.37648 0.05044 0.0
C758 C 0.08687 0.38941 0.06579 0.0
C759 C 0.08431 0.38139 0.09079 0.0
C760 C 0.0748 0.41107 0.05646 0.0
C761 C 0.10382 0.38277 0.02306 0.0
C762 C 0.08613 0.42881 0.0447 0.0
C763 C 0.0749 0.44881 0.03636 0.0
C764 C 0.05183 0.45218 0.03951 0.0
C765 C 0.04053 0.43457 0.05156 0.0
C766 C 0.05177 0.41454 0.05991 0.0
H767 H 0.10869 0.36807 0.01217 0.0
H768 H 0.08833 0.39029 0.01428 0.0
H769 H 0.1173 0.39507 0.02152 0.0
H770 H 0.10389 0.42742 0.04224 0.0
H771 H 0.08446 0.46179 0.02756 0.0
H772 H 0.683 0.28539 0.91134 0.0
H773 H 0.66377 0.25138 0.92375 0.0
H774 H 0.60963 0.29094 0.95118 0.0
H775 H 0.62866 0.32502 0.93856 0.0
H776 H 0.64718 0.23441 0.96896 0.0
H777 H 0.57932 0.25352 0.89771 0.0
H778 H 0.60507 0.26846 0.89842 0.0
H779 H 0.58366 0.27493 0.92005 0.0
C780 C 0.6672 0.28683 0.92046 0.0
C781 C 0.65719 0.30782 0.92376 0.0
C782 C 0.65621 0.2674 0.92745 0.0
C783 C 0.63508 0.26868 0.93786 0.0
C784 C 0.62569 0.28962 0.9426 0.0
H785 H 0.53814 0.16758 0.97327 0.0
H786 H 0.5592 0.20209 0.97082 0.0
C787 C 0.63658 0.30904 0.93546 0.0
C788 C 0.6224 0.24815 0.94243 0.0
H789 H 0.575 0.22175 0.92432 0.0
C790 C 0.63139 0.23162 0.95925 0.0
C791 C 0.60186 0.24455 0.92957 0.0
C792 C 0.59196 0.26119 0.91025 0.0
C793 C 0.62024 0.21162 0.96373 0.0
C794 C 0.59975 0.20808 0.95087 0.0
C795 C 0.59067 0.22465 0.93423 0.0
C796 C 0.5877 0.18699 0.95372 0.0
C797 C 0.63033 0.19447 0.98228 0.0
C798 C 0.59677 0.16721 0.94474 0.0
C799 C 0.58478 0.14754 0.94603 0.0
C800 C 0.56352 0.14735 0.95633 0.0
C801 C 0.55457 0.16719 0.96548 0.0
C802 C 0.56652 0.18689 0.96403 0.0
H803 H 0.64339 0.20168 0.99465 0.0
H804 H 0.61734 0.18713 0.99423 0.0
H805 H 0.63809 0.18081 0.97182 0.0
H806 H 0.61296 0.16707 0.93636 0.0
H807 H 0.59216 0.13245 0.93903 0.0
H808 H 0.90095 0.86618 0.32993 0.0
H809 H 0.91845 0.89686 0.35167 0.0
H810 H 0.9184 0.85851 0.42169 0.0
H811 H 0.90208 0.82732 0.39991 0.0
H812 H 0.90289 0.92107 0.38917 0.0
H813 H 0.98188 0.87867 0.42104 0.0
H814 H 0.96306 0.867 0.3981 0.0
H815 H 0.95785 0.86405 0.4312 0.0
C816 C 0.90506 0.86407 0.34986 0.0
C817 C 0.90018 0.8442 0.36313 0.0
C818 C 0.91489 0.88171 0.36229 0.0
C819 C 0.92003 0.87985 0.38822 0.0
C820 C 0.91503 0.86014 0.40157 0.0
H821 H 0.94248 0.98947 0.48811 0.0
H822 H 0.9267 0.95911 0.46401 0.0
C823 C 0.90538 0.84243 0.38913 0.0
C824 C 0.92987 0.89884 0.40147 0.0
H825 H 0.97362 0.91339 0.43957 0.0
C826 C 0.91843 0.91945 0.40006 0.0
C827 C 0.9503 0.89676 0.41539 0.0
C828 C 0.9641 0.87549 0.41634 0.0
C829 C 0.92666 0.93796 0.41255 0.0
C830 C 0.94658 0.9356 0.42737 0.0
C831 C 0.95822 0.9151 0.42842 0.0
C832 C 0.95584 0.95423 0.44173 0.0
C833 C 0.91413 0.95992 0.40938 0.0
C834 C 0.97765 0.96117 0.43768 0.0
C835 C 0.98676 0.97824 0.45165 0.0
C836 C 0.9742 0.98871 0.46988 0.0
C837 C 0.95239 0.98181 0.47395 0.0
C838 C 0.94334 0.96458 0.4601 0.0
H839 H 0.90334 0.96059 0.39199 0.0
H840 H 0.90325 0.96204 0.42565 0.0
H841 H 0.92571 0.97409 0.40858 0.0
H842 H 0.98763 0.95334 0.42369 0.0
H843 H 1.00367 0.98319 0.44824 0.0
H844 H 0.37374 0.6729 0.67572 0.0
H845 H 0.39163 0.64417 0.65136 0.0
H846 H 0.45426 0.6775 0.65892 0.0
H847 H 0.43642 0.70668 0.68282 0.0
H848 H 0.41508 0.65371 0.60476 0.0
H849 H 0.468 0.61042 0.67961 0.0
H850 H 0.44393 0.62734 0.68654 0.0
H851 H 0.46936 0.64033 0.67791 0.0
C852 C 0.39133 0.67416 0.67221 0.0
C853 C 0.40363 0.69219 0.68109 0.0
C854 C 0.40152 0.65766 0.65842 0.0
C855 C 0.42424 0.6587 0.65351 0.0
C856 C 0.43675 0.67629 0.66285 0.0
H857 H 0.51652 0.58093 0.56991 0.0
H858 H 0.4979 0.6075 0.59632 0.0
C859 C 0.42654 0.6929 0.67656 0.0
C860 C 0.43454 0.64204 0.6374 0.0
H861 H 0.47321 0.59978 0.6377 0.0
C862 C 0.42772 0.64181 0.61192 0.0
C863 C 0.45104 0.62669 0.64688 0.0
C864 C 0.45848 0.62598 0.67427 0.0
C865 C 0.43735 0.62689 0.59545 0.0
C866 C 0.45384 0.61144 0.60493 0.0
C867 C 0.46054 0.61161 0.63049 0.0
C868 C 0.46482 0.59535 0.58854 0.0
C869 C 0.43028 0.62829 0.56793 0.0
C870 C 0.45239 0.57958 0.57549 0.0
C871 C 0.46298 0.56442 0.56016 0.0
C872 C 0.48622 0.5646 0.55792 0.0
C873 C 0.4986 0.5803 0.57122 0.0
C874 C 0.48799 0.59551 0.58637 0.0
H875 H 0.42215 0.64461 0.56262 0.0
H876 H 0.44472 0.62578 0.55576 0.0
H877 H 0.4181 0.61507 0.56407 0.0
H878 H 0.43453 0.57884 0.57735 0.0
H879 H 0.45299 0.55242 0.55034 0.0
H880 H 0.88592 0.93799 0.75852 0.0
H881 H 0.90441 0.95464 0.72227 0.0
H882 H 0.92668 0.88956 0.70112 0.0
H883 H 0.90756 0.87271 0.73659 0.0
H884 H 0.94684 0.95689 0.70859 0.0
H885 H 0.90254 0.91154 0.63399 0.0
H886 H 0.89372 0.91091 0.66612 0.0
H887 H 0.91631 0.89313 0.65695 0.0
C888 C 0.89439 0.92702 0.74604 0.0
C889 C 0.89483 0.90371 0.75103 0.0
C890 C 0.90526 0.93672 0.72518 0.0
C891 C 0.91689 0.92359 0.70814 0.0
C892 C 0.91754 0.90036 0.7132 0.0
H893 H 0.99497 0.95135 0.57133 0.0
H894 H 0.97637 0.93442 0.60753 0.0
C895 C 0.90672 0.89065 0.73404 0.0
C896 C 0.92865 0.93415 0.68567 0.0
H897 H 0.934 0.93203 0.6214 0.0
C898 C 0.94383 0.95145 0.68955 0.0
C899 C 0.92516 0.92735 0.66043 0.0
C900 C 0.9084 0.90988 0.65401 0.0
C901 C 0.95569 0.96156 0.66956 0.0
C902 C 0.95218 0.95478 0.64432 0.0
C903 C 0.93701 0.93747 0.64044 0.0
C904 C 0.96388 0.96542 0.62184 0.0
C905 C 0.97247 0.97901 0.67599 0.0
C906 C 0.96319 0.98867 0.6169 0.0
C907 C 0.97395 0.99846 0.59608 0.0
C908 C 0.98576 0.98545 0.57906 0.0
C909 C 0.98624 0.96214 0.58381 0.0
C910 C 0.97546 0.95235 0.60468 0.0
H911 H 0.97837 0.97729 0.69599 0.0
H912 H 0.98712 0.97801 0.66384 0.0
H913 H 0.96457 0.99577 0.67314 0.0
H914 H 0.95401 0.99941 0.62901 0.0
H915 H 0.97284 0.01639 0.59324 0.0
H916 H 0.64876 0.15325 0.21172 0.0
H917 H 0.63084 0.12878 0.18164 0.0
H918 H 0.60484 0.18609 0.13863 0.0
H919 H 0.62312 0.21077 0.16844 0.0
H920 H 0.58441 0.12736 0.16777 0.0
H921 H 0.63701 0.14807 0.08626 0.0
H922 H 0.64513 0.15439 0.11821 0.0
H923 H 0.62432 0.17126 0.10132 0.0
C924 C 0.63941 0.16066 0.19573 0.0
C925 C 0.63751 0.18395 0.19233 0.0
C926 C 0.62909 0.14666 0.17866 0.0
C927 C 0.61679 0.15564 0.15777 0.0
C928 C 0.61455 0.17886 0.15445 0.0
H929 H 0.5468 0.09072 0.03501 0.0
H930 H 0.56379 0.11787 0.06263 0.0
C931 C 0.62482 0.19291 0.17161 0.0
C932 C 0.6061 0.14055 0.13974 0.0
H933 H 0.60774 0.12311 0.07929 0.0
C934 C 0.58948 0.12642 0.14842 0.0
C935 C 0.6127 0.1395 0.1145 0.0
C936 C 0.63088 0.15397 0.10444 0.0
C937 C 0.57923 0.11121 0.13249 0.0
C938 C 0.58618 0.10977 0.10739 0.0
C939 C 0.60254 0.12419 0.09858 0.0
C940 C 0.57679 0.09323 0.09011 0.0
C941 C 0.56082 0.09706 0.14259 0.0
C942 C 0.579 0.07035 0.09606 0.0
C943 C 0.56926 0.05478 0.08036 0.0
C944 C 0.55728 0.06183 0.05829 0.0
C945 C 0.55581 0.08473 0.05191 0.0
C946 C 0.56551 0.10029 0.06767 0.0
H947 H 0.55336 0.10441 0.15937 0.0
H948 H 0.54745 0.09492 0.12803 0.0
H949 H 0.56772 0.08033 0.14833 0.0
H950 H 0.58809 0.06453 0.11299 0.0
H951 H 0.57087 0.03727 0.08573 0.0
H952 H 0.38013 0.56113 0.28056 0.0
H953 H 0.401 0.55039 0.31961 0.0
H954 H 0.41799 0.61903 0.32986 0.0
H955 H 0.3968 0.62992 0.29131 0.0
H956 H 0.4467 0.55743 0.32773 0.0
H957 H 0.39714 0.59911 0.39956 0.0
H958 H 0.38622 0.59422 0.36821 0.0
H959 H 0.40436 0.61716 0.37361 0.0
C960 C 0.38794 0.57396 0.29144 0.0
C961 C 0.38691 0.59635 0.28286 0.0
C962 C 0.39992 0.5678 0.31364 0.0
C963 C 0.41082 0.58396 0.32773 0.0
C964 C 0.40938 0.60636 0.3195 0.0
H965 H 0.50547 0.58454 0.45402 0.0
H966 H 0.47981 0.59419 0.41828 0.0
C967 C 0.39749 0.61251 0.29732 0.0
C968 C 0.42511 0.57729 0.34996 0.0
H969 H 0.43341 0.58579 0.41274 0.0
C970 C 0.44369 0.56342 0.34639 0.0
C971 C 0.42119 0.58532 0.37418 0.0
C972 C 0.40104 0.59962 0.37925 0.0
C973 C 0.45881 0.55777 0.3663 0.0
C974 C 0.45498 0.56592 0.39049 0.0
C975 C 0.43631 0.57965 0.39413 0.0
C976 C 0.47013 0.56019 0.41228 0.0
C977 C 0.47906 0.54363 0.36112 0.0
C978 C 0.47288 0.53796 0.42087 0.0
C979 C 0.48751 0.53245 0.44109 0.0
C980 C 0.49952 0.5491 0.45319 0.0
C981 C 0.49649 0.5714 0.4449 0.0
C982 C 0.48183 0.57692 0.42459 0.0
H983 H 0.48245 0.54349 0.3407 0.0
H984 H 0.49403 0.5497 0.37137 0.0
H985 H 0.47625 0.52622 0.36769 0.0
H986 H 0.46367 0.52488 0.41193 0.0
H987 H 0.4894 0.51513 0.44724 0.0
H988 H 0.13136 0.33327 0.82536 0.0
H989 H 0.12752 0.35191 0.86515 0.0
H990 H 0.18288 0.31298 0.89763 0.0
H991 H 0.18691 0.2943 0.85741 0.0
H992 H 0.12268 0.33753 0.91715 0.0
H993 H 0.20338 0.37872 0.89886 0.0
H994 H 0.1889 0.36385 0.87457 0.0
H995 H 0.20252 0.34878 0.90055 0.0
C996 C 0.1424 0.32837 0.84115 0.0
C997 C 0.15957 0.31259 0.83834 0.0
C998 C 0.14016 0.33893 0.86389 0.0
C999 C 0.15511 0.33402 0.88418 0.0
C1000 C 0.17133 0.31712 0.88206 0.0
H1001 H 0.15472 0.44677 0.98704 0.0
H1002 H 0.16512 0.40871 0.97529 0.0
C1003 C 0.17352 0.3064 0.85922 0.0
C1004 C 0.15486 0.34869 0.90598 0.0
H1005 H 0.17932 0.39602 0.92616 0.0
C1006 C 0.1354 0.3499 0.9198 0.0
C1007 C 0.17155 0.36472 0.90952 0.0
C1008 C 0.19279 0.36416 0.89513 0.0
C1009 C 0.13126 0.36792 0.9352 0.0
C1010 C 0.14686 0.3852 0.93648 0.0
C1011 C 0.16736 0.38276 0.92495 0.0
C1012 C 0.14037 0.40752 0.94495 0.0
C1013 C 0.1095 0.36913 0.94848 0.0
C1014 C 0.1234 0.41944 0.93144 0.0
C1015 C 0.11767 0.44102 0.93783 0.0
C1016 C 0.12884 0.45124 0.95785 0.0
C1017 C 0.14588 0.43929 0.97148 0.0
C1018 C 0.15177 0.41761 0.96488 0.0
H1019 H 0.10381 0.3522 0.95389 0.0
H1020 H 0.11089 0.37919 0.9656 0.0
H1021 H 0.0966 0.377 0.93551 0.0
H1022 H 0.1147 0.41209 0.91568 0.0
H1023 H 0.10418 0.44959 0.92729 0.0
H1024 H 0.72292 0.90947 0.87387 0.0
H1025 H 0.68935 0.92689 0.89016 0.0
H1026 H 0.7152 0.91549 0.96597 0.0
H1027 H 0.74896 0.89827 0.94983 0.0
H1028 H 0.65641 0.91111 0.92107 0.0
H1029 H 0.69697 0.9808 0.96904 0.0
H1030 H 0.71133 0.96394 0.94694 0.0
H1031 H 0.70782 0.95371 0.9787 0.0
C1032 C 0.72177 0.9108 0.89405 0.0
C1033 C 0.73931 0.90228 0.91025 0.0
C1034 C 0.70223 0.92078 0.90346 0.0
C1035 C 0.69932 0.92314 0.92953 0.0
C1036 C 0.71672 0.91455 0.94579 0.0
H1037 H 0.59044 0.98662 0.01746 0.0
H1038 H 0.62508 0.96798 1.00462 0.0
C1039 C 0.73617 0.90433 0.9364 0.0
C1040 C 0.67806 0.93401 0.93949 0.0
H1041 H 0.65846 0.97665 0.97535 0.0
C1042 C 0.65702 0.9255 0.93287 0.0
C1043 C 0.67818 0.95275 0.95527 0.0
C1044 C 0.69973 0.96352 0.96279 0.0
C1045 C 0.63671 0.93468 0.94157 0.0
C1046 C 0.63672 0.95381 0.95686 0.0
C1047 C 0.65782 0.96218 0.9637 0.0
C1048 C 0.61522 0.96552 0.96524 0.0
C1049 C 0.61543 0.92303 0.93482 0.0
C1050 C 0.59763 0.97115 0.94783 0.0
C1051 C 0.57768 0.98159 0.95527 0.0
C1052 C 0.57431 0.98747 0.98045 0.0
C1053 C 0.59205 0.98239 0.99794 0.0
C1054 C 0.61208 0.97168 0.99047 0.0
H1055 H 0.61858 0.90507 0.93162 0.0
H1056 H 0.60309 0.92442 0.94982 0.0
H1057 H 0.60812 0.9306 0.91705 0.0
H1058 H 0.59931 0.96771 0.92812 0.0
H1059 H 0.56483 0.98529 0.94094 0.0
H1060 H 0.79283 0.18251 0.32875 0.0
H1061 H 0.82607 0.16884 0.35236 0.0
H1062 H 0.84468 0.23638 0.36659 0.0
H1063 H 0.81203 0.25029 0.3419 0.0
H1064 H 0.88069 0.20991 0.35608 0.0
H1065 H 0.82966 0.1692 0.42874 0.0
H1066 H 0.82347 0.15978 0.39765 0.0
H1067 H 0.81789 0.18837 0.40489 0.0
C1068 C 0.80421 0.1945 0.33642 0.0
C1069 C 0.79962 0.21751 0.33363 0.0
C1070 C 0.82305 0.18664 0.3502 0.0
C1071 C 0.83751 0.2016 0.36174 0.0
C1072 C 0.83358 0.22457 0.35806 0.0
H1073 H 0.9263 0.15594 0.48529 0.0
H1074 H 0.89948 0.17788 0.4591 0.0
C1075 C 0.81482 0.23247 0.34412 0.0
C1076 C 0.85629 0.19324 0.37833 0.0
H1077 H 0.86839 0.16036 0.43061 0.0
C1078 C 0.87805 0.19918 0.37248 0.0
C1079 C 0.85273 0.17969 0.40004 0.0
C1080 C 0.82967 0.17406 0.40839 0.0
C1081 C 0.89644 0.19133 0.38737 0.0
C1082 C 0.89293 0.17679 0.4083 0.0
C1083 C 0.87111 0.17138 0.41448 0.0
C1084 C 0.9115 0.16633 0.42375 0.0
C1085 C 0.91936 0.19891 0.38069 0.0
C1086 C 0.92757 0.15296 0.41258 0.0
C1087 C 0.94327 0.14072 0.42751 0.0
C1088 C 0.94293 0.14125 0.45396 0.0
C1089 C 0.92732 0.15532 0.46502 0.0
C1090 C 0.9118 0.16775 0.45006 0.0
H1091 H 0.91859 0.21518 0.37012 0.0
H1092 H 0.93025 0.20051 0.39778 0.0
H1093 H 0.92708 0.18651 0.36845 0.0
H1094 H 0.92741 0.15122 0.39236 0.0
H1095 H 0.95525 0.13033 0.41832 0.0
H1096 H 0.21067 0.60147 0.16774 0.0
H1097 H 0.17338 0.589 0.15569 0.0
H1098 H 0.19454 0.57933 0.07998 0.0
H1099 H 0.23197 0.59129 0.09197 0.0
H1100 H 0.14386 0.60751 0.11705 0.0
H1101 H 0.16687 0.51922 0.10106 0.0
H1102 H 0.18474 0.53754 0.11842 0.0
H1103 H 0.18332 0.5393 0.08459 0.0
C1104 C 0.20744 0.59646 0.14859 0.0
C1105 C 0.22429 0.59727 0.13083 0.0
C1106 C 0.18611 0.58949 0.14172 0.0
C1107 C 0.18133 0.58301 0.11705 0.0
C1108 C 0.19802 0.58396 0.09921 0.0
H1109 H 0.05598 0.56711 0.03685 0.0
H1110 H 0.0916 0.5801 0.05385 0.0
C1111 C 0.21932 0.59101 0.10603 0.0
C1112 C 0.15876 0.57557 0.10983 0.0
H1113 H 0.13036 0.53118 0.08772 0.0
C1114 C 0.14085 0.59079 0.11076 0.0
C1115 C 0.15491 0.55368 0.10193 0.0
C1116 C 0.17342 0.53639 0.10162 0.0
C1117 C 0.1192 0.58485 0.10337 0.0
C1118 C 0.11549 0.5632 0.09464 0.0
C1119 C 0.13331 0.54782 0.0943 0.0
C1120 C 0.09333 0.55625 0.08529 0.0
C1121 C 0.10045 0.60172 0.10508 0.0
C1122 C 0.08263 0.53844 0.09725 0.0
C1123 C 0.06232 0.53097 0.08755 0.0
C1124 C 0.05256 0.54106 0.06559 0.0
C1125 C 0.06314 0.55909 0.05385 0.0
C1126 C 0.0834 0.56658 0.0636 0.0
H1127 H 0.10491 0.61528 0.11792 0.0
H1128 H 0.09664 0.60933 0.08609 0.0
H1129 H 0.08514 0.59367 0.1118 0.0
H1130 H 0.09012 0.53019 0.11395 0.0
H1131 H 0.05455 0.51698 0.09688 0.0
H1132 H 0.26116 0.37466 0.67727 0.0
H1133 H 0.285 0.40074 0.65532 0.0
H1134 H 0.26581 0.37266 0.58436 0.0
H1135 H 0.24096 0.3472 0.60605 0.0
H1136 H 0.32043 0.39012 0.62827 0.0
H1137 H 0.25914 0.43871 0.56762 0.0
H1138 H 0.25101 0.42087 0.59359 0.0
H1139 H 0.25751 0.40919 0.56389 0.0
C1140 C 0.26155 0.37435 0.65692 0.0
C1141 C 0.249 0.35891 0.64341 0.0
C1142 C 0.27533 0.38918 0.64443 0.0
C1143 C 0.27692 0.38889 0.61818 0.0
C1144 C 0.26444 0.37353 0.60457 0.0
H1145 H 0.36867 0.44227 0.51275 0.0
H1146 H 0.33804 0.42406 0.5338 0.0
C1147 C 0.25051 0.35876 0.61705 0.0
C1148 C 0.29286 0.40357 0.60538 0.0
H1149 H 0.2975 0.44313 0.55829 0.0
C1150 C 0.31537 0.40188 0.61315 0.0
C1151 C 0.2862 0.41888 0.58565 0.0
C1152 C 0.26211 0.42222 0.57733 0.0
C1153 C 0.3315 0.4147 0.60135 0.0
C1154 C 0.3249 0.42971 0.58139 0.0
C1155 C 0.30241 0.43158 0.57367 0.0
C1156 C 0.34144 0.44282 0.56769 0.0
C1157 C 0.3556 0.4117 0.60984 0.0
C1158 C 0.35298 0.45982 0.5796 0.0
C1159 C 0.37039 0.47043 0.56756 0.0
C1160 C 0.37654 0.46414 0.54342 0.0
C1161 C 0.36422 0.44773 0.53118 0.0
C1162 C 0.34678 0.43722 0.5432 0.0
H1163 H 0.35834 0.39688 0.62269 0.0
H1164 H 0.36632 0.40996 0.59335 0.0
H1165 H 0.36098 0.42665 0.61997 0.0
H1166 H 0.34888 0.46448 0.59845 0.0
H1167 H 0.37929 0.48326 0.57732 0.0
H1168 H 0.86562 0.73316 0.92892 0.0
H1169 H 0.88469 0.69907 0.94538 0.0
H1170 H 0.94597 0.72163 0.91452 0.0
H1171 H 0.92744 0.75604 0.89912 0.0
H1172 H 0.90472 0.66456 0.92519 0.0
H1173 H 0.97007 0.7041 0.98261 0.0
H1174 H 0.94671 0.7198 0.96872 0.0
H1175 H 0.97049 0.71337 0.95025 0.0
C1176 C 0.88326 0.73123 0.9259 0.0
C1177 C 0.89464 0.74805 0.91245 0.0
C1178 C 0.89424 0.71136 0.93526 0.0
C1179 C 0.9172 0.70737 0.93189 0.0
C1180 C 0.92852 0.72401 0.91828 0.0
H1181 H 1.01477 0.59691 0.96887 0.0
H1182 H 0.99514 0.63129 0.95396 0.0
C1183 C 0.9176 0.74385 0.90896 0.0
C1184 C 0.92905 0.68583 0.94195 0.0
H1185 H 0.97526 0.66537 0.97592 0.0
C1186 C 0.92006 0.6649 0.93644 0.0
C1187 C 0.94926 0.68558 0.95676 0.0
C1188 C 0.95959 0.7069 0.96517 0.0
C1189 C 0.93067 0.64435 0.94447 0.0
C1190 C 0.95096 0.64411 0.95911 0.0
C1191 C 0.9599 0.66503 0.96471 0.0
C1192 C 0.96315 0.62259 0.96863 0.0
C1193 C 0.92025 0.62299 0.93633 0.0
C1194 C 0.95233 0.60573 0.9825 0.0
C1195 C 0.96365 0.58584 0.99107 0.0
C1196 C 0.98639 0.5819 0.9864 0.0
C1197 C 0.99733 0.59895 0.97294 0.0
C1198 C 0.98599 0.61885 0.96434 0.0
H1199 H 0.90919 0.62575 0.91932 0.0
H1200 H 0.93312 0.61025 0.93218 0.0
H1201 H 0.90994 0.6163 0.95169 0.0
H1202 H 0.93503 0.60797 0.98704 0.0
H1203 H 0.95449 0.57353 1.00153 0.0
H1204 H 0.37202 0.72226 0.06628 0.0
H1205 H 0.39086 0.75607 0.05182 0.0
H1206 H 0.42915 0.75609 0.12178 0.0
H1207 H 0.41031 0.72284 0.13651 0.0
H1208 H 0.39236 0.79812 0.07643 0.0
H1209 H 0.4765 0.7607 0.06723 0.0
H1210 H 0.45168 0.74422 0.06832 0.0
H1211 H 0.46437 0.754 0.09691 0.0
C1212 C 0.38445 0.7295 0.07856 0.0
C1213 C 0.38987 0.71967 0.10242 0.0
C1214 C 0.39524 0.74871 0.07023 0.0
C1215 C 0.41169 0.75824 0.08555 0.0
C1216 C 0.41692 0.74863 0.10941 0.0
H1217 H 0.49246 0.87063 0.10353 0.0
H1218 H 0.47259 0.83551 0.10473 0.0
C1219 C 0.40615 0.72957 0.11776 0.0
C1220 C 0.4229 0.77883 0.07743 0.0
H1221 H 0.47447 0.80045 0.07019 0.0
C1222 C 0.41025 0.79865 0.07455 0.0
C1223 C 0.44623 0.77935 0.07502 0.0
C1224 C 0.46049 0.75839 0.07678 0.0
C1225 C 0.42052 0.81925 0.07082 0.0
C1226 C 0.44398 0.81986 0.06957 0.0
C1227 C 0.4565 0.79991 0.0713 0.0
C1228 C 0.456 0.84111 0.0683 0.0
C1229 C 0.40635 0.84028 0.06957 0.0
C1230 C 0.45339 0.85575 0.04728 0.0
C1231 C 0.46462 0.87593 0.04661 0.0
C1232 C 0.47869 0.88173 0.06693 0.0
C1233 C 0.48148 0.86682 0.08777 0.0
C1234 C 0.47028 0.84668 0.0884 0.0
H1235 H 0.38908 0.83723 0.07548 0.0
H1236 H 0.41376 0.85308 0.08174 0.0
H1237 H 0.40554 0.84715 0.04993 0.0
H1238 H 0.44268 0.85158 0.03142 0.0
H1239 H 0.462 0.88713 0.03037 0.0
H1240 H 0.14617 0.19735 0.62184 0.0
H1241 H 0.12872 0.16633 0.60087 0.0
H1242 H 0.12481 0.13059 0.67223 0.0
H1243 H 0.14333 0.16112 0.69329 0.0
H1244 H 0.13878 0.10387 0.6353 0.0
H1245 H 0.06329 0.1519 0.60229 0.0
H1246 H 0.0885 0.16436 0.59209 0.0
H1247 H 0.08297 0.16233 0.62517 0.0
C1248 C 0.14191 0.18278 0.63309 0.0
C1249 C 0.14612 0.18177 0.6593 0.0
C1250 C 0.13162 0.16519 0.62109 0.0
C1251 C 0.12502 0.14638 0.63507 0.0
C1252 C 0.12957 0.14508 0.66114 0.0
H1253 H 0.03399 0.04884 0.57462 0.0
H1254 H 0.05171 0.07735 0.59992 0.0
C1255 C 0.14001 0.16261 0.67316 0.0
C1256 C 0.11364 0.12796 0.62241 0.0
H1257 H 0.06877 0.11634 0.58448 0.0
C1258 C 0.12339 0.10654 0.62433 0.0
C1259 C 0.09336 0.13141 0.60847 0.0
C1260 C 0.08128 0.15369 0.60707 0.0
C1261 C 0.11372 0.08857 0.6121 0.0
C1262 C 0.09404 0.09229 0.59712 0.0
C1263 C 0.08399 0.11358 0.59575 0.0
C1264 C 0.08367 0.0744 0.5825 0.0
C1265 C 0.12453 0.06577 0.61563 0.0
C1266 C 0.0957 0.06343 0.56421 0.0
C1267 C 0.08567 0.04704 0.54992 0.0
C1268 C 0.06336 0.04158 0.55347 0.0
C1269 C 0.05126 0.05268 0.57162 0.0
C1270 C 0.06134 0.06896 0.58603 0.0
H1271 H 0.13502 0.06442 0.63322 0.0
H1272 H 0.11188 0.05254 0.61625 0.0
H1273 H 0.13545 0.06271 0.5996 0.0
H1274 H 0.11275 0.06779 0.56069 0.0
H1275 H 0.09529 0.03888 0.53586 0.0
H1276 H 0.65099 0.32597 0.38294 0.0
H1277 H 0.63283 0.35424 0.40765 0.0
H1278 H 0.59826 0.3807 0.34059 0.0
H1279 H 0.6168 0.35265 0.31552 0.0
H1280 H 0.61926 0.41333 0.37138 0.0
H1281 H 0.56663 0.35581 0.42648 0.0
H1282 H 0.59568 0.34815 0.42683 0.0
H1283 H 0.57957 0.34792 0.39779 0.0
C1284 C 0.63959 0.33786 0.3734 0.0
C1285 C 0.63536 0.33713 0.34726 0.0
C1286 C 0.62909 0.35386 0.38759 0.0
C1287 C 0.61407 0.36938 0.37597 0.0
C1288 C 0.60975 0.36876 0.34989 0.0
H1289 H 0.52209 0.45597 0.44917 0.0
H1290 H 0.54034 0.42881 0.42327 0.0
C1291 C 0.62022 0.35267 0.33565 0.0
C1292 C 0.60321 0.38649 0.39106 0.0
H1293 H 0.56822 0.39312 0.43969 0.0
C1294 C 0.60802 0.40897 0.38626 0.0
C1295 C 0.58849 0.38069 0.41032 0.0
C1296 C 0.58208 0.35685 0.41559 0.0
C1297 C 0.59869 0.42585 0.40051 0.0
C1298 C 0.5844 0.41999 0.42019 0.0
C1299 C 0.57937 0.39752 0.42474 0.0
C1300 C 0.57372 0.43694 0.43568 0.0
C1301 C 0.60388 0.44982 0.39416 0.0
C1302 C 0.58649 0.45045 0.4514 0.0
C1303 C 0.5761 0.46609 0.46632 0.0
C1304 C 0.55276 0.46838 0.46578 0.0
C1305 C 0.54009 0.45472 0.45005 0.0
C1306 C 0.55048 0.43914 0.43521 0.0
H1307 H 0.611 0.45181 0.37519 0.0
H1308 H 0.58869 0.46055 0.39482 0.0
H1309 H 0.61623 0.45581 0.40821 0.0
H1310 H 0.60446 0.44872 0.45234 0.0
H1311 H 0.58633 0.47629 0.4783 0.0
loop_
_geom_bond_atom_site_label_1
_geom_bond_atom_site_label_2
_geom_bond_distance
_geom_bond_site_symmetry_2
_ccdc_geom_bond_type
C0 C1 1.384 . S
C0 H13 0.947 . S
C0 C35 1.382 . S
C1 C0 1.384 . S
C1 C2 1.378 . S
C2 C1 1.378 . S
C2 C3 1.378 . S
C2 H14 0.952 . S
C3 C2 1.378 . S
C3 H15 0.950 . S
C3 C34 1.383 . S
H4 C23 0.947 . S
H5 C24 0.946 . S
H6 C26 0.953 . S
H7 C27 0.945 . S
H8 C29 0.952 . S
H9 C30 0.949 . S
H10 C32 0.950 . S
H11 C33 0.948 . S
H12 C35 0.951 . S
H13 C0 0.947 . S
H14 C2 0.952 . S
H15 C3 0.950 . S
N16 C19 1.382 . S
N16 C21 1.363 . S
N17 C19 1.371 . S
N17 C20 1.372 . S
N18 C20 1.361 . S
N18 C21 1.377 . S
C19 N16 1.382 . S
C19 N17 1.371 . S
C19 C22 1.480 . S
C20 N17 1.372 . S
C20 N18 1.361 . S
C20 C28 1.457 . S
C21 N16 1.363 . S
C21 N18 1.377 . S
C21 C34 1.479 . S
C22 C19 1.480 . S
C22 C23 1.383 . S
C22 C27 1.385 . S
C23 H4 0.947 . S
C23 C22 1.383 . S
C23 C24 1.388 . S
C24 H5 0.946 . S
C24 C23 1.388 . S
C24 C25 1.384 . S
C25 C24 1.384 . S
C25 C26 1.377 . S
C26 H6 0.953 . S
C26 C25 1.377 . S
C26 C27 1.369 . S
C27 H7 0.945 . S
C27 C22 1.385 . S
C27 C26 1.369 . S
C28 C20 1.457 . S
C28 C29 1.372 . S
C28 C33 1.364 . S
C29 H8 0.952 . S
C29 C28 1.372 . S
C29 C30 1.389 . S
C30 H9 0.949 . S
C30 C29 1.389 . S
C30 C31 1.387 . S
C31 C30 1.387 . S
C31 C32 1.372 . S
C32 H10 0.950 . S
C32 C31 1.372 . S
C32 C33 1.379 . S
C33 H11 0.948 . S
C33 C28 1.364 . S
C33 C32 1.379 . S
C34 C3 1.383 . S
C34 C21 1.479 . S
C34 C35 1.398 . S
C35 C0 1.382 . S
C35 H12 0.951 . S
C35 C34 1.398 . S
C36 C37 1.384 . S
C36 H49 0.947 . S
C36 C71 1.382 . S
C37 C36 1.384 . S
C37 C38 1.378 . S
C38 C37 1.378 . S
C38 C39 1.378 . S
C38 H50 0.952 . S
C39 C38 1.378 . S
C39 H51 0.950 . S
C39 C70 1.383 . S
H40 C59 0.947 . S
H41 C60 0.946 . S
H42 C62 0.953 . S
H43 C63 0.945 . S
H44 C65 0.952 . S
H45 C66 0.949 . S
H46 C68 0.950 . S
H47 C69 0.948 . S
H48 C71 0.951 . S
H49 C36 0.947 . S
H50 C38 0.952 . S
H51 C39 0.950 . S
N52 C55 1.382 . S
N52 C57 1.363 . S
N53 C55 1.371 . S
N53 C56 1.372 . S
N54 C56 1.361 . S
N54 C57 1.377 . S
C55 N52 1.382 . S
C55 N53 1.371 . S
C55 C58 1.480 . S
C56 N53 1.372 . S
C56 N54 1.361 . S
C56 C64 1.457 . S
C57 N52 1.363 . S
C57 N54 1.377 . S
C57 C70 1.479 . S
C58 C55 1.480 . S
C58 C59 1.383 . S
C58 C63 1.385 . S
C59 H40 0.947 . S
C59 C58 1.383 . S
C59 C60 1.388 . S
C60 H41 0.946 . S
C60 C59 1.388 . S
C60 C61 1.384 . S
C61 C60 1.384 . S
C61 C62 1.377 . S
C62 H42 0.953 . S
C62 C61 1.377 . S
C62 C63 1.369 . S
C63 H43 0.945 . S
C63 C58 1.385 . S
C63 C62 1.369 . S
C64 C56 1.457 . S
C64 C65 1.372 . S
C64 C69 1.364 . S
C65 H44 0.952 . S
C65 C64 1.372 . S
C65 C66 1.389 . S
C66 H45 0.949 . S
C66 C65 1.389 . S
C66 C67 1.387 . S
C67 C66 1.387 . S
C67 C68 1.372 . S
C68 H46 0.950 . S
C68 C67 1.372 . S
C68 C69 1.379 . S
C69 H47 0.948 . S
C69 C64 1.364 . S
C69 C68 1.379 . S
C70 C39 1.383 . S
C70 C57 1.479 . S
C70 C71 1.398 . S
C71 C36 1.382 . S
C71 H48 0.951 . S
C71 C70 1.398 . S
C72 C73 1.384 . S
C72 H85 0.947 . S
C72 C107 1.382 . S
C73 C72 1.384 . S
C73 C74 1.378 . S
C74 C73 1.378 . S
C74 C75 1.378 . S
C74 H86 0.952 . S
C75 C74 1.378 . S
C75 H87 0.950 . S
C75 C106 1.383 . S
H76 C95 0.947 . S
H77 C96 0.946 . S
H78 C98 0.953 . S
H79 C99 0.945 . S
H80 C101 0.952 . S
H81 C102 0.949 . S
H82 C104 0.950 . S
H83 C105 0.948 . S
H84 C107 0.951 . S
H85 C72 0.947 . S
H86 C74 0.952 . S
H87 C75 0.950 . S
N88 C91 1.382 . S
N88 C93 1.363 . S
N89 C91 1.371 . S
N89 C92 1.372 . S
N90 C92 1.361 . S
N90 C93 1.377 . S
C91 N88 1.382 . S
C91 N89 1.371 . S
C91 C94 1.480 . S
C92 N89 1.372 . S
C92 N90 1.361 . S
C92 C100 1.457 . S
C93 N88 1.363 . S
C93 N90 1.377 . S
C93 C106 1.479 . S
C94 C91 1.480 . S
C94 C95 1.383 . S
C94 C99 1.385 . S
C95 H76 0.947 . S
C95 C94 1.383 . S
C95 C96 1.388 . S
C96 H77 0.946 . S
C96 C95 1.388 . S
C96 C97 1.384 . S
C97 C96 1.384 . S
C97 C98 1.377 . S
C98 H78 0.953 . S
C98 C97 1.377 . S
C98 C99 1.369 . S
C99 H79 0.945 . S
C99 C94 1.385 . S
C99 C98 1.369 . S
C100 C92 1.457 . S
C100 C101 1.372 . S
C100 C105 1.364 . S
C101 H80 0.952 . S
C101 C100 1.372 . S
C101 C102 1.389 . S
C102 H81 0.949 . S
C102 C101 1.389 . S
C102 C103 1.387 . S
C103 C102 1.387 . S
C103 C104 1.372 . S
C104 H82 0.950 . S
C104 C103 1.372 . S
C104 C105 1.379 . S
C105 H83 0.948 . S
C105 C100 1.364 . S
C105 C104 1.379 . S
C106 C75 1.383 . S
C106 C93 1.479 . S
C106 C107 1.398 . S
C107 C72 1.382 . S
C107 H84 0.951 . S
C107 C106 1.398 . S
C108 C109 1.384 . S
C108 H121 0.947 . S
C108 C143 1.382 . S
C109 C108 1.384 . S
C109 C110 1.378 . S
C110 C109 1.378 . S
C110 C111 1.378 . S
C110 H122 0.952 . S
C111 C110 1.378 . S
C111 H123 0.950 . S
C111 C142 1.383 . S
H112 C131 0.947 . S
H113 C132 0.946 . S
H114 C134 0.953 . S
H115 C135 0.945 . S
H116 C137 0.952 . S
H117 C138 0.949 . S
H118 C140 0.950 . S
H119 C141 0.948 . S
H120 C143 0.951 . S
H121 C108 0.947 . S
H122 C110 0.952 . S
H123 C111 0.950 . S
N124 C127 1.382 . S
N124 C129 1.363 . S
N125 C127 1.371 . S
N125 C128 1.372 . S
N126 C128 1.361 . S
N126 C129 1.377 . S
C127 N124 1.382 . S
C127 N125 1.371 . S
C127 C130 1.480 . S
C128 N125 1.372 . S
C128 N126 1.361 . S
C128 C136 1.457 . S
C129 N124 1.363 . S
C129 N126 1.377 . S
C129 C142 1.479 . S
C130 C127 1.480 . S
C130 C131 1.383 . S
C130 C135 1.385 . S
C131 H112 0.947 . S
C131 C130 1.383 . S
C131 C132 1.388 . S
C132 H113 0.946 . S
C132 C131 1.388 . S
C132 C133 1.384 . S
C133 C132 1.384 . S
C133 C134 1.377 . S
C134 H114 0.953 . S
C134 C133 1.377 . S
C134 C135 1.369 . S
C135 H115 0.945 . S
C135 C130 1.385 . S
C135 C134 1.369 . S
C136 C128 1.457 . S
C136 C137 1.372 . S
C136 C141 1.364 . S
C137 H116 0.952 . S
C137 C136 1.372 . S
C137 C138 1.389 . S
C138 H117 0.949 . S
C138 C137 1.389 . S
C138 C139 1.387 . S
C139 C138 1.387 . S
C139 C140 1.372 . S
C140 H118 0.950 . S
C140 C139 1.372 . S
C140 C141 1.379 . S
C141 H119 0.948 . S
C141 C136 1.364 . S
C141 C140 1.379 . S
C142 C111 1.383 . S
C142 C129 1.479 . S
C142 C143 1.398 . S
C143 C108 1.382 . S
C143 H120 0.951 . S
C143 C142 1.398 . S
C144 C145 1.384 . S
C144 H157 0.947 . S
C144 C179 1.382 . S
C145 C144 1.384 . S
C145 C146 1.378 . S
C146 C145 1.378 . S
C146 C147 1.378 . S
C146 H158 0.952 . S
C147 C146 1.378 . S
C147 H159 0.950 . S
C147 C178 1.383 . S
H148 C167 0.947 . S
H149 C168 0.946 . S
H150 C170 0.953 . S
H151 C171 0.945 . S
H152 C173 0.952 . S
H153 C174 0.949 . S
H154 C176 0.950 . S
H155 C177 0.948 . S
H156 C179 0.951 . S
H157 C144 0.947 . S
H158 C146 0.952 . S
H159 C147 0.950 . S
N160 C163 1.382 . S
N160 C165 1.363 . S
N161 C163 1.371 . S
N161 C164 1.372 . S
N162 C164 1.361 . S
N162 C165 1.377 . S
C163 N160 1.382 . S
C163 N161 1.371 . S
C163 C166 1.480 . S
C164 N161 1.372 . S
C164 N162 1.361 . S
C164 C172 1.457 . S
C165 N160 1.363 . S
C165 N162 1.377 . S
C165 C178 1.479 . S
C166 C163 1.480 . S
C166 C167 1.383 . S
C166 C171 1.385 . S
C167 H148 0.947 . S
C167 C166 1.383 . S
C167 C168 1.388 . S
C168 H149 0.946 . S
C168 C167 1.388 . S
C168 C169 1.384 . S
C169 C168 1.384 . S
C169 C170 1.377 . S
C170 H150 0.953 . S
C170 C169 1.377 . S
C170 C171 1.369 . S
C171 H151 0.945 . S
C171 C166 1.385 . S
C171 C170 1.369 . S
C172 C164 1.457 . S
C172 C173 1.372 . S
C172 C177 1.364 . S
C173 H152 0.952 . S
C173 C172 1.372 . S
C173 C174 1.389 . S
C174 H153 0.949 . S
C174 C173 1.389 . S
C174 C175 1.387 . S
C175 C174 1.387 . S
C175 C176 1.372 . S
C176 H154 0.950 . S
C176 C175 1.372 . S
C176 C177 1.379 . S
C177 H155 0.948 . S
C177 C172 1.364 . S
C177 C176 1.379 . S
C178 C147 1.383 . S
C178 C165 1.479 . S
C178 C179 1.398 . S
C179 C144 1.382 . S
C179 H156 0.951 . S
C179 C178 1.398 . S
C180 C181 1.384 . S
C180 H193 0.947 . S
C180 C215 1.382 . S
C181 C180 1.384 . S
C181 C182 1.378 . S
C182 C181 1.378 . S
C182 C183 1.378 . S
C182 H194 0.952 . S
C183 C182 1.378 . S
C183 H195 0.950 . S
C183 C214 1.383 . S
H184 C203 0.947 . S
H185 C204 0.946 . S
H186 C206 0.953 . S
H187 C207 0.945 . S
H188 C209 0.952 . S
H189 C210 0.949 . S
H190 C212 0.950 . S
H191 C213 0.948 . S
H192 C215 0.951 . S
H193 C180 0.947 . S
H194 C182 0.952 . S
H195 C183 0.950 . S
N196 C199 1.382 . S
N196 C201 1.363 . S
N197 C199 1.371 . S
N197 C200 1.372 . S
N198 C200 1.361 . S
N198 C201 1.377 . S
C199 N196 1.382 . S
C199 N197 1.371 . S
C199 C202 1.480 . S
C200 N197 1.372 . S
C200 N198 1.361 . S
C200 C208 1.457 . S
C201 N196 1.363 . S
C201 N198 1.377 . S
C201 C214 1.479 . S
C202 C199 1.480 . S
C202 C203 1.383 . S
C202 C207 1.385 . S
C203 H184 0.947 . S
C203 C202 1.383 . S
C203 C204 1.388 . S
C204 H185 0.946 . S
C204 C203 1.388 . S
C204 C205 1.384 . S
C205 C204 1.384 . S
C205 C206 1.377 . S
C206 H186 0.953 . S
C206 C205 1.377 . S
C206 C207 1.369 . S
C207 H187 0.945 . S
C207 C202 1.385 . S
C207 C206 1.369 . S
C208 C200 1.457 . S
C208 C209 1.372 . S
C208 C213 1.364 . S
C209 H188 0.952 . S
C209 C208 1.372 . S
C209 C210 1.389 . S
C210 H189 0.949 . S
C210 C209 1.389 . S
C210 C211 1.387 . S
C211 C210 1.387 . S
C211 C212 1.372 . S
C212 H190 0.950 . S
C212 C211 1.372 . S
C212 C213 1.379 . S
C213 H191 0.948 . S
C213 C208 1.364 . S
C213 C212 1.379 . S
C214 C183 1.383 . S
C214 C201 1.479 . S
C214 C215 1.398 . S
C215 C180 1.382 . S
C215 H192 0.951 . S
C215 C214 1.398 . S
C216 C217 1.384 . S
C216 H229 0.947 . S
C216 C251 1.382 . S
C217 C216 1.384 . S
C217 C218 1.378 . S
C218 C217 1.378 . S
C218 C219 1.378 . S
C218 H230 0.952 . S
C219 C218 1.378 . S
C219 H231 0.950 . S
C219 C250 1.383 . S
H220 C239 0.947 . S
H221 C240 0.946 . S
H222 C242 0.953 . S
H223 C243 0.945 . S
H224 C245 0.952 . S
H225 C246 0.949 . S
H226 C248 0.950 . S
H227 C249 0.948 . S
H228 C251 0.951 . S
H229 C216 0.947 . S
H230 C218 0.952 . S
H231 C219 0.950 . S
N232 C235 1.382 . S
N232 C237 1.363 . S
N233 C235 1.371 . S
N233 C236 1.372 . S
N234 C236 1.361 . S
N234 C237 1.377 . S
C235 N232 1.382 . S
C235 N233 1.371 . S
C235 C238 1.480 . S
C236 N233 1.372 . S
C236 N234 1.361 . S
C236 C244 1.457 . S
C237 N232 1.363 . S
C237 N234 1.377 . S
C237 C250 1.479 . S
C238 C235 1.480 . S
C238 C239 1.383 . S
C238 C243 1.385 . S
C239 H220 0.947 . S
C239 C238 1.383 . S
C239 C240 1.388 . S
C240 H221 0.946 . S
C240 C239 1.388 . S
C240 C241 1.384 . S
C241 C240 1.384 . S
C241 C242 1.377 . S
C242 H222 0.953 . S
C242 C241 1.377 . S
C242 C243 1.369 . S
C243 H223 0.945 . S
C243 C238 1.385 . S
C243 C242 1.369 . S
C244 C236 1.457 . S
C244 C245 1.372 . S
C244 C249 1.364 . S
C245 H224 0.952 . S
C245 C244 1.372 . S
C245 C246 1.389 . S
C246 H225 0.949 . S
C246 C245 1.389 . S
C246 C247 1.387 . S
C247 C246 1.387 . S
C247 C248 1.372 . S
C248 H226 0.950 . S
C248 C247 1.372 . S
C248 C249 1.379 . S
C249 H227 0.948 . S
C249 C244 1.364 . S
C249 C248 1.379 . S
C250 C219 1.383 . S
C250 C237 1.479 . S
C250 C251 1.398 . S
C251 C216 1.382 . S
C251 H228 0.951 . S
C251 C250 1.398 . S
C252 C253 1.384 . S
C252 H265 0.947 . S
C252 C287 1.382 . S
C253 C252 1.384 . S
C253 C254 1.378 . S
C254 C253 1.378 . S
C254 C255 1.378 . S
C254 H266 0.952 . S
C255 C254 1.378 . S
C255 H267 0.950 . S
C255 C286 1.383 . S
H256 C275 0.947 . S
H257 C276 0.946 . S
H258 C278 0.953 . S
H259 C279 0.945 . S
H260 C281 0.952 . S
H261 C282 0.949 . S
H262 C284 0.950 . S
H263 C285 0.948 . S
H264 C287 0.951 . S
H265 C252 0.947 . S
H266 C254 0.952 . S
H267 C255 0.950 . S
N268 C271 1.382 . S
N268 C273 1.363 . S
N269 C271 1.371 . S
N269 C272 1.372 . S
N270 C272 1.361 . S
N270 C273 1.377 . S
C271 N268 1.382 . S
C271 N269 1.371 . S
C271 C274 1.480 . S
C272 N269 1.372 . S
C272 N270 1.361 . S
C272 C280 1.457 . S
C273 N268 1.363 . S
C273 N270 1.377 . S
C273 C286 1.479 . S
C274 C271 1.480 . S
C274 C275 1.383 . S
C274 C279 1.385 . S
C275 H256 0.947 . S
C275 C274 1.383 . S
C275 C276 1.388 . S
C276 H257 0.946 . S
C276 C275 1.388 . S
C276 C277 1.384 . S
C277 C276 1.384 . S
C277 C278 1.377 . S
C278 H258 0.953 . S
C278 C277 1.377 . S
C278 C279 1.369 . S
C279 H259 0.945 . S
C279 C274 1.385 . S
C279 C278 1.369 . S
C280 C272 1.457 . S
C280 C281 1.372 . S
C280 C285 1.364 . S
C281 H260 0.952 . S
C281 C280 1.372 . S
C281 C282 1.389 . S
C282 H261 0.949 . S
C282 C281 1.389 . S
C282 C283 1.387 . S
C283 C282 1.387 . S
C283 C284 1.372 . S
C284 H262 0.950 . S
C284 C283 1.372 . S
C284 C285 1.379 . S
C285 H263 0.948 . S
C285 C280 1.364 . S
C285 C284 1.379 . S
C286 C255 1.383 . S
C286 C273 1.479 . S
C286 C287 1.398 . S
C287 C252 1.382 . S
C287 H264 0.951 . S
C287 C286 1.398 . S
Nd288 C290 2.836 . S
Nd288 O308 2.500 . S
Nd288 O309 2.492 . S
Nd288 O310 2.487 1_565 S
Nd288 O311 2.682 1_565 S
Nd288 O312 2.410 . S
Nd288 O317 2.414 1_455 S
Nd288 O319 2.424 1_565 S
Nd289 C299 2.836 . S
Nd289 O311 2.414 1_655 S
Nd289 O313 2.424 1_545 S
Nd289 O314 2.500 . S
Nd289 O315 2.492 . S
Nd289 O316 2.487 1_545 S
Nd289 O317 2.682 1_545 S
Nd289 O318 2.410 . S
C290 Nd288 2.836 . S
C290 C291 1.498 . S
C290 O308 1.258 . S
C290 O309 1.239 . S
C291 C290 1.498 . S
C291 C292 1.366 . S
C291 C296 1.407 . S
C292 C291 1.366 . S
C292 C293 1.392 . S
C292 H320 0.930 . S
C293 C292 1.392 . S
C293 C294 1.398 . S
C293 H321 0.929 . S
C294 C293 1.398 . S
C294 C295 1.352 . S
C295 C294 1.352 . S
C295 C296 1.384 . S
C295 H322 0.930 . S
C296 C291 1.407 . S
C296 C295 1.384 . S
C296 H323 0.929 . S
C297 O310 1.241 . S
C297 O311 1.273 . S
C298 O312 1.251 1_655 S
C298 O313 1.268 . S
C299 Nd289 2.836 . S
C299 C300 1.498 . S
C299 O314 1.258 . S
C299 O315 1.239 . S
C300 C299 1.498 . S
C300 C301 1.366 . S
C300 C305 1.407 . S
C301 C300 1.366 . S
C301 C302 1.392 . S
C301 H324 0.930 . S
C302 C301 1.392 . S
C302 C303 1.398 . S
C302 H325 0.929 . S
C303 C302 1.398 . S
C303 C304 1.352 . S
C304 C303 1.352 . S
C304 C305 1.384 . S
C304 H326 0.930 . S
C305 C300 1.407 . S
C305 C304 1.384 . S
C305 H327 0.929 . S
C306 O316 1.241 . S
C306 O317 1.273 . S
C307 O318 1.251 1_455 S
C307 O319 1.268 . S
O308 Nd288 2.500 . S
O308 C290 1.258 . S
O309 Nd288 2.492 . S
O309 C290 1.239 . S
O310 Nd288 2.487 1_545 S
O310 C297 1.241 . S
O311 Nd288 2.682 1_545 S
O311 Nd289 2.414 1_455 S
O311 C297 1.273 . S
O312 Nd288 2.410 . S
O312 C298 1.251 1_455 S
O313 Nd289 2.424 1_565 S
O313 C298 1.268 . S
O314 Nd289 2.500 . S
O314 C299 1.258 . S
O315 Nd289 2.492 . S
O315 C299 1.239 . S
O316 Nd289 2.487 1_565 S
O316 C306 1.241 . S
O317 Nd288 2.414 1_655 S
O317 Nd289 2.682 1_565 S
O317 C306 1.273 . S
O318 Nd289 2.410 . S
O318 C307 1.251 1_655 S
O319 Nd288 2.424 1_545 S
O319 C307 1.268 . S
H320 C292 0.930 . S
H321 C293 0.929 . S
H322 C295 0.930 . S
H323 C296 0.929 . S
H324 C301 0.930 . S
H325 C302 0.929 . S
H326 C304 0.930 . S
H327 C305 0.929 . S
Nd328 C330 2.836 . S
Nd328 O348 2.500 . S
Nd328 O349 2.492 . S
Nd328 O350 2.487 1_565 S
Nd328 O351 2.682 1_565 S
Nd328 O352 2.410 1_554 S
Nd328 O357 2.414 1_554 S
Nd328 O359 2.424 1_565 S
Nd329 C339 2.836 . S
Nd329 O351 2.414 1_556 S
Nd329 O353 2.424 1_545 S
Nd329 O354 2.500 . S
Nd329 O355 2.492 . S
Nd329 O356 2.487 . S
Nd329 O357 2.682 1_545 S
Nd329 O358 2.410 1_556 S
C330 Nd328 2.836 . S
C330 C331 1.498 . S
C330 O348 1.258 . S
C330 O349 1.239 . S
C331 C330 1.498 . S
C331 C332 1.366 . S
C331 C336 1.407 . S
C332 C331 1.366 . S
C332 C333 1.392 . S
C332 H360 0.930 . S
C333 C332 1.392 . S
C333 C334 1.398 . S
C333 H361 0.929 . S
C334 C333 1.398 . S
C334 C335 1.352 . S
C335 C334 1.352 . S
C335 C336 1.384 . S
C335 H362 0.930 . S
C336 C331 1.407 . S
C336 C335 1.384 . S
C336 H363 0.929 . S
C337 O350 1.241 . S
C337 O351 1.273 . S
C338 O352 1.251 . S
C338 O353 1.268 . S
C339 Nd329 2.836 . S
C339 C340 1.498 . S
C339 O354 1.258 . S
C339 O355 1.239 . S
C340 C339 1.498 . S
C340 C341 1.366 . S
C340 C345 1.407 . S
C341 C340 1.366 . S
C341 C342 1.392 . S
C341 H364 0.930 . S
C342 C341 1.392 . S
C342 C343 1.398 . S
C342 H365 0.929 . S
C343 C342 1.398 . S
C343 C344 1.352 . S
C344 C343 1.352 . S
C344 C345 1.384 . S
C344 H366 0.930 . S
C345 C340 1.407 . S
C345 C344 1.384 . S
C345 H367 0.929 . S
C346 O356 1.241 1_565 S
C346 O357 1.273 . S
C347 O358 1.251 . S
C347 O359 1.268 . S
O348 Nd328 2.500 . S
O348 C330 1.258 . S
O349 Nd328 2.492 . S
O349 C330 1.239 . S
O350 Nd328 2.487 1_545 S
O350 C337 1.241 . S
O351 Nd328 2.682 1_545 S
O351 Nd329 2.414 1_554 S
O351 C337 1.273 . S
O352 Nd328 2.410 1_556 S
O352 C338 1.251 . S
O353 Nd329 2.424 1_565 S
O353 C338 1.268 . S
O354 Nd329 2.500 . S
O354 C339 1.258 . S
O355 Nd329 2.492 . S
O355 C339 1.239 . S
O356 Nd329 2.487 . S
O356 C346 1.241 1_545 S
O357 Nd328 2.414 1_556 S
O357 Nd329 2.682 1_565 S
O357 C346 1.273 . S
O358 Nd329 2.410 1_554 S
O358 C347 1.251 . S
O359 Nd328 2.424 1_545 S
O359 C347 1.268 . S
H360 C332 0.930 . S
H361 C333 0.929 . S
H362 C335 0.930 . S
H363 C336 0.929 . S
H364 C341 0.930 . S
H365 C342 0.929 . S
H366 C344 0.930 . S
H367 C345 0.929 . S
Nd368 C370 2.836 . S
Nd368 O388 2.500 . S
Nd368 O389 2.492 . S
Nd368 O390 2.487 . S
Nd368 O391 2.682 . S
Nd368 O392 2.410 . S
Nd368 O397 2.414 . S
Nd368 O399 2.424 . S
Nd369 C379 2.836 . S
Nd369 O391 2.414 . S
Nd369 O393 2.424 . S
Nd369 O394 2.500 . S
Nd369 O395 2.492 . S
Nd369 O396 2.487 . S
Nd369 O397 2.682 . S
Nd369 O398 2.410 . S
C370 Nd368 2.836 . S
C370 C371 1.498 . S
C370 O388 1.258 . S
C370 O389 1.239 . S
C371 C370 1.498 . S
C371 C372 1.366 . S
C371 C376 1.407 . S
C372 C371 1.366 . S
C372 C373 1.392 . S
C372 H400 0.930 . S
C373 C372 1.392 . S
C373 C374 1.398 . S
C373 H401 0.929 . S
C374 C373 1.398 . S
C374 C375 1.352 . S
C375 C374 1.352 . S
C375 C376 1.384 . S
C375 H402 0.930 . S
C376 C371 1.407 . S
C376 C375 1.384 . S
C376 H403 0.929 . S
C377 O390 1.241 . S
C377 O391 1.273 . S
C378 O392 1.251 . S
C378 O393 1.268 . S
C379 Nd369 2.836 . S
C379 C380 1.498 . S
C379 O394 1.258 . S
C379 O395 1.239 . S
C380 C379 1.498 . S
C380 C381 1.366 . S
C380 C385 1.407 . S
C381 C380 1.366 . S
C381 C382 1.392 . S
C381 H404 0.930 . S
C382 C381 1.392 . S
C382 C383 1.398 . S
C382 H405 0.929 . S
C383 C382 1.398 . S
C383 C384 1.352 . S
C384 C383 1.352 . S
C384 C385 1.384 . S
C384 H406 0.930 . S
C385 C380 1.407 . S
C385 C384 1.384 . S
C385 H407 0.929 . S
C386 O396 1.241 . S
C386 O397 1.273 . S
C387 O398 1.251 . S
C387 O399 1.268 . S
O388 Nd368 2.500 . S
O388 C370 1.258 . S
O389 Nd368 2.492 . S
O389 C370 1.239 . S
O390 Nd368 2.487 . S
O390 C377 1.241 . S
O391 Nd368 2.682 . S
O391 Nd369 2.414 . S
O391 C377 1.273 . S
O392 Nd368 2.410 . S
O392 C378 1.251 . S
O393 Nd369 2.424 . S
O393 C378 1.268 . S
O394 Nd369 2.500 . S
O394 C379 1.258 . S
O395 Nd369 2.492 . S
O395 C379 1.239 . S
O396 Nd369 2.487 . S
O396 C386 1.241 . S
O397 Nd368 2.414 . S
O397 Nd369 2.682 . S
O397 C386 1.273 . S
O398 Nd369 2.410 . S
O398 C387 1.251 . S
O399 Nd368 2.424 . S
O399 C387 1.268 . S
H400 C372 0.930 . S
H401 C373 0.929 . S
H402 C375 0.930 . S
H403 C376 0.929 . S
H404 C381 0.930 . S
H405 C382 0.929 . S
H406 C384 0.930 . S
H407 C385 0.929 . S
Nd408 C410 2.836 . S
Nd408 O428 2.500 . S
Nd408 O429 2.492 . S
Nd408 O430 2.487 1_655 S
Nd408 O431 2.682 1_655 S
Nd408 O432 2.410 . S
Nd408 O437 2.414 1_554 S
Nd408 O439 2.424 1_655 S
Nd409 C419 2.836 . S
Nd409 O431 2.414 1_556 S
Nd409 O433 2.424 1_455 S
Nd409 O434 2.500 . S
Nd409 O435 2.492 . S
Nd409 O436 2.487 1_455 S
Nd409 O437 2.682 1_455 S
Nd409 O438 2.410 . S
C410 Nd408 2.836 . S
C410 C411 1.498 . S
C410 O428 1.258 . S
C410 O429 1.239 . S
C411 C410 1.498 . S
C411 C412 1.366 . S
C411 C416 1.407 . S
C412 C411 1.366 . S
C412 C413 1.392 . S
C412 H440 0.930 . S
C413 C412 1.392 . S
C413 C414 1.398 . S
C413 H441 0.929 . S
C414 C413 1.398 . S
C414 C415 1.352 . S
C415 C414 1.352 . S
C415 C416 1.384 . S
C415 H442 0.930 . S
C416 C411 1.407 . S
C416 C415 1.384 . S
C416 H443 0.929 . S
C417 O430 1.241 . S
C417 O431 1.273 . S
C418 O432 1.251 1_556 S
C418 O433 1.268 . S
C419 Nd409 2.836 . S
C419 C420 1.498 . S
C419 O434 1.258 . S
C419 O435 1.239 . S
C420 C419 1.498 . S
C420 C421 1.366 . S
C420 C425 1.407 . S
C421 C420 1.366 . S
C421 C422 1.392 . S
C421 H444 0.930 . S
C422 C421 1.392 . S
C422 C423 1.398 . S
C422 H445 0.929 . S
C423 C422 1.398 . S
C423 C424 1.352 . S
C424 C423 1.352 . S
C424 C425 1.384 . S
C424 H446 0.930 . S
C425 C420 1.407 . S
C425 C424 1.384 . S
C425 H447 0.929 . S
C426 O436 1.241 . S
C426 O437 1.273 . S
C427 O438 1.251 1_554 S
C427 O439 1.268 . S
O428 Nd408 2.500 . S
O428 C410 1.258 . S
O429 Nd408 2.492 . S
O429 C410 1.239 . S
O430 Nd408 2.487 1_455 S
O430 C417 1.241 . S
O431 Nd408 2.682 1_455 S
O431 Nd409 2.414 1_554 S
O431 C417 1.273 . S
O432 Nd408 2.410 . S
O432 C418 1.251 1_554 S
O433 Nd409 2.424 1_655 S
O433 C418 1.268 . S
O434 Nd409 2.500 . S
O434 C419 1.258 . S
O435 Nd409 2.492 . S
O435 C419 1.239 . S
O436 Nd409 2.487 1_655 S
O436 C426 1.241 . S
O437 Nd408 2.414 1_556 S
O437 Nd409 2.682 1_655 S
O437 C426 1.273 . S
O438 Nd409 2.410 . S
O438 C427 1.251 1_556 S
O439 Nd408 2.424 1_455 S
O439 C427 1.268 . S
H440 C412 0.930 . S
H441 C413 0.929 . S
H442 C415 0.930 . S
H443 C416 0.929 . S
H444 C421 0.930 . S
H445 C422 0.929 . S
H446 C424 0.930 . S
H447 C425 0.929 . S
H448 C456 0.929 . S
H449 C458 0.930 . S
H450 C460 0.930 . S
H451 C463 0.929 . S
H452 C466 0.930 . S
H453 C468 0.960 . S
H454 C468 0.960 . S
H455 C468 0.960 . S
C456 H448 0.929 . S
C456 C457 1.377 . S
C456 C458 1.384 . S
C457 C456 1.377 . S
C457 C463 1.390 . S
C458 H449 0.930 . S
C458 C456 1.384 . S
C458 C459 1.372 . S
C459 C458 1.372 . S
C459 C460 1.400 . S
C459 C464 1.490 . S
C460 H450 0.930 . S
C460 C459 1.400 . S
C460 C463 1.386 . S
H461 C477 0.930 . S
H462 C478 0.931 . S
C463 H451 0.929 . S
C463 C457 1.390 . S
C463 C460 1.386 . S
C464 C459 1.490 . S
C464 C466 1.395 . S
C464 C467 1.403 . S
H465 C471 0.930 . S
C466 H452 0.930 . S
C466 C464 1.395 . S
C466 C469 1.403 . S
C467 C464 1.403 . S
C467 C468 1.524 . S
C467 C471 1.400 . S
C468 H453 0.960 . S
C468 H454 0.960 . S
C468 H455 0.960 . S
C468 C467 1.524 . S
C469 C466 1.403 . S
C469 C470 1.392 . S
C469 C473 1.495 . S
C470 C469 1.392 . S
C470 C471 1.385 . S
C470 C472 1.478 . S
C471 H465 0.930 . S
C471 C467 1.400 . S
C471 C470 1.385 . S
C472 C470 1.478 . S
C472 C474 1.381 . S
C472 C478 1.383 . S
C473 C469 1.495 . S
C473 H479 0.959 . S
C473 H480 0.961 . S
C473 H481 0.960 . S
C474 C472 1.381 . S
C474 C475 1.394 . S
C474 H482 0.930 . S
C475 C474 1.394 . S
C475 C476 1.383 . S
C475 H483 0.929 . S
C476 C475 1.383 . S
C476 C477 1.377 . S
C477 H461 0.930 . S
C477 C476 1.377 . S
C477 C478 1.379 . S
C478 H462 0.931 . S
C478 C472 1.383 . S
C478 C477 1.379 . S
H479 C473 0.959 . S
H480 C473 0.961 . S
H481 C473 0.960 . S
H482 C474 0.930 . S
H483 C475 0.929 . S
H484 C492 0.929 . S
H485 C494 0.930 . S
H486 C496 0.930 . S
H487 C499 0.929 . S
H488 C502 0.930 . S
H489 C504 0.960 . S
H490 C504 0.960 . S
H491 C504 0.960 . S
C492 H484 0.929 . S
C492 C493 1.377 . S
C492 C494 1.384 . S
C493 C492 1.377 . S
C493 C499 1.390 . S
C494 H485 0.930 . S
C494 C492 1.384 . S
C494 C495 1.372 . S
C495 C494 1.372 . S
C495 C496 1.400 . S
C495 C500 1.490 . S
C496 H486 0.930 . S
C496 C495 1.400 . S
C496 C499 1.386 . S
H497 C513 0.930 . S
H498 C514 0.931 . S
C499 H487 0.929 . S
C499 C493 1.390 . S
C499 C496 1.386 . S
C500 C495 1.490 . S
C500 C502 1.395 . S
C500 C503 1.403 . S
H501 C507 0.930 . S
C502 H488 0.930 . S
C502 C500 1.395 . S
C502 C505 1.403 . S
C503 C500 1.403 . S
C503 C504 1.524 . S
C503 C507 1.400 . S
C504 H489 0.960 . S
C504 H490 0.960 . S
C504 H491 0.960 . S
C504 C503 1.524 . S
C505 C502 1.403 . S
C505 C506 1.392 . S
C505 C509 1.495 . S
C506 C505 1.392 . S
C506 C507 1.385 . S
C506 C508 1.478 . S
C507 H501 0.930 . S
C507 C503 1.400 . S
C507 C506 1.385 . S
C508 C506 1.478 . S
C508 C510 1.381 . S
C508 C514 1.383 . S
C509 C505 1.495 . S
C509 H515 0.959 . S
C509 H516 0.961 . S
C509 H517 0.960 . S
C510 C508 1.381 . S
C510 C511 1.394 . S
C510 H518 0.930 . S
C511 C510 1.394 . S
C511 C512 1.383 . S
C511 H519 0.929 . S
C512 C511 1.383 . S
C512 C513 1.377 . S
C513 H497 0.930 . S
C513 C512 1.377 . S
C513 C514 1.379 . S
C514 H498 0.931 . S
C514 C508 1.383 . S
C514 C513 1.379 . S
H515 C509 0.959 . S
H516 C509 0.961 . S
H517 C509 0.960 . S
H518 C510 0.930 . S
H519 C511 0.929 . S
H520 C528 0.929 . S
H521 C530 0.930 . S
H522 C532 0.930 . S
H523 C535 0.929 . S
H524 C538 0.930 . S
H525 C540 0.960 . S
H526 C540 0.960 . S
H527 C540 0.960 . S
C528 H520 0.929 . S
C528 C529 1.377 . S
C528 C530 1.384 . S
C529 C528 1.377 . S
C529 C535 1.390 . S
C530 H521 0.930 . S
C530 C528 1.384 . S
C530 C531 1.372 . S
C531 C530 1.372 . S
C531 C532 1.400 . S
C531 C536 1.490 . S
C532 H522 0.930 . S
C532 C531 1.400 . S
C532 C535 1.386 . S
H533 C549 0.930 . S
H534 C550 0.931 . S
C535 H523 0.929 . S
C535 C529 1.390 . S
C535 C532 1.386 . S
C536 C531 1.490 . S
C536 C538 1.395 . S
C536 C539 1.403 . S
H537 C543 0.930 . S
C538 H524 0.930 . S
C538 C536 1.395 . S
C538 C541 1.403 . S
C539 C536 1.403 . S
C539 C540 1.524 . S
C539 C543 1.400 . S
C540 H525 0.960 . S
C540 H526 0.960 . S
C540 H527 0.960 . S
C540 C539 1.524 . S
C541 C538 1.403 . S
C541 C542 1.392 . S
C541 C545 1.495 . S
C542 C541 1.392 . S
C542 C543 1.385 . S
C542 C544 1.478 . S
C543 H537 0.930 . S
C543 C539 1.400 . S
C543 C542 1.385 . S
C544 C542 1.478 . S
C544 C546 1.381 . S
C544 C550 1.383 . S
C545 C541 1.495 . S
C545 H551 0.959 . S
C545 H552 0.961 . S
C545 H553 0.960 . S
C546 C544 1.381 . S
C546 C547 1.394 . S
C546 H554 0.930 . S
C547 C546 1.394 . S
C547 C548 1.383 . S
C547 H555 0.929 . S
C548 C547 1.383 . S
C548 C549 1.377 . S
C549 H533 0.930 . S
C549 C548 1.377 . S
C549 C550 1.379 . S
C550 H534 0.931 . S
C550 C544 1.383 . S
C550 C549 1.379 . S
H551 C545 0.959 . S
H552 C545 0.961 . S
H553 C545 0.960 . S
H554 C546 0.930 . S
H555 C547 0.929 . S
H556 C564 0.929 . S
H557 C566 0.930 . S
H558 C568 0.930 . S
H559 C571 0.929 . S
H560 C574 0.930 . S
H561 C576 0.960 . S
H562 C576 0.960 . S
H563 C576 0.960 . S
C564 H556 0.929 . S
C564 C565 1.377 . S
C564 C566 1.384 . S
C565 C564 1.377 . S
C565 C571 1.390 . S
C566 H557 0.930 . S
C566 C564 1.384 . S
C566 C567 1.372 . S
C567 C566 1.372 . S
C567 C568 1.400 . S
C567 C572 1.490 . S
C568 H558 0.930 . S
C568 C567 1.400 . S
C568 C571 1.386 . S
H569 C585 0.930 . S
H570 C586 0.931 . S
C571 H559 0.929 . S
C571 C565 1.390 . S
C571 C568 1.386 . S
C572 C567 1.490 . S
C572 C574 1.395 . S
C572 C575 1.403 . S
H573 C579 0.930 . S
C574 H560 0.930 . S
C574 C572 1.395 . S
C574 C577 1.403 . S
C575 C572 1.403 . S
C575 C576 1.524 . S
C575 C579 1.400 . S
C576 H561 0.960 . S
C576 H562 0.960 . S
C576 H563 0.960 . S
C576 C575 1.524 . S
C577 C574 1.403 . S
C577 C578 1.392 . S
C577 C581 1.495 . S
C578 C577 1.392 . S
C578 C579 1.385 . S
C578 C580 1.478 . S
C579 H573 0.930 . S
C579 C575 1.400 . S
C579 C578 1.385 . S
C580 C578 1.478 . S
C580 C582 1.381 . S
C580 C586 1.383 . S
C581 C577 1.495 . S
C581 H587 0.959 . S
C581 H588 0.961 . S
C581 H589 0.960 . S
C582 C580 1.381 . S
C582 C583 1.394 . S
C582 H590 0.930 . S
C583 C582 1.394 . S
C583 C584 1.383 . S
C583 H591 0.929 . S
C584 C583 1.383 . S
C584 C585 1.377 . S
C585 H569 0.930 . S
C585 C584 1.377 . S
C585 C586 1.379 . S
C586 H570 0.931 . S
C586 C580 1.383 . S
C586 C585 1.379 . S
H587 C581 0.959 . S
H588 C581 0.961 . S
H589 C581 0.960 . S
H590 C582 0.930 . S
H591 C583 0.929 . S
H592 C600 0.929 . S
H593 C602 0.930 . S
H594 C604 0.930 . S
H595 C607 0.929 . S
H596 C610 0.930 . S
H597 C612 0.960 . S
H598 C612 0.960 . S
H599 C612 0.960 . S
C600 H592 0.929 . S
C600 C601 1.377 . S
C600 C602 1.384 . S
C601 C600 1.377 . S
C601 C607 1.390 . S
C602 H593 0.930 . S
C602 C600 1.384 . S
C602 C603 1.372 . S
C603 C602 1.372 . S
C603 C604 1.400 . S
C603 C608 1.490 . S
C604 H594 0.930 . S
C604 C603 1.400 . S
C604 C607 1.386 . S
H605 C621 0.930 . S
H606 C622 0.931 . S
C607 H595 0.929 . S
C607 C601 1.390 . S
C607 C604 1.386 . S
C608 C603 1.490 . S
C608 C610 1.395 . S
C608 C611 1.403 . S
H609 C615 0.930 . S
C610 H596 0.930 . S
C610 C608 1.395 . S
C610 C613 1.403 . S
C611 C608 1.403 . S
C611 C612 1.524 . S
C611 C615 1.400 . S
C612 H597 0.960 . S
C612 H598 0.960 . S
C612 H599 0.960 . S
C612 C611 1.524 . S
C613 C610 1.403 . S
C613 C614 1.392 . S
C613 C617 1.495 . S
C614 C613 1.392 . S
C614 C615 1.385 . S
C614 C616 1.478 . S
C615 H609 0.930 . S
C615 C611 1.400 . S
C615 C614 1.385 . S
C616 C614 1.478 . S
C616 C618 1.381 . S
C616 C622 1.383 . S
C617 C613 1.495 . S
C617 H623 0.959 . S
C617 H624 0.961 . S
C617 H625 0.960 . S
C618 C616 1.381 . S
C618 C619 1.394 . S
C618 H626 0.930 . S
C619 C618 1.394 . S
C619 C620 1.383 . S
C619 H627 0.929 . S
C620 C619 1.383 . S
C620 C621 1.377 . S
C621 H605 0.930 . S
C621 C620 1.377 . S
C621 C622 1.379 . S
C622 H606 0.931 . S
C622 C616 1.383 . S
C622 C621 1.379 . S
H623 C617 0.959 . S
H624 C617 0.961 . S
H625 C617 0.960 . S
H626 C618 0.930 . S
H627 C619 0.929 . S
H628 C636 0.929 . S
H629 C638 0.930 . S
H630 C640 0.930 . S
H631 C643 0.929 . S
H632 C646 0.930 . S
H633 C648 0.960 . S
H634 C648 0.960 . S
H635 C648 0.960 . S
C636 H628 0.929 . S
C636 C637 1.377 . S
C636 C638 1.384 . S
C637 C636 1.377 . S
C637 C643 1.390 . S
C638 H629 0.930 . S
C638 C636 1.384 . S
C638 C639 1.372 . S
C639 C638 1.372 . S
C639 C640 1.400 . S
C639 C644 1.490 . S
C640 H630 0.930 . S
C640 C639 1.400 . S
C640 C643 1.386 . S
H641 C657 0.930 . S
H642 C658 0.931 . S
C643 H631 0.929 . S
C643 C637 1.390 . S
C643 C640 1.386 . S
C644 C639 1.490 . S
C644 C646 1.395 . S
C644 C647 1.403 . S
H645 C651 0.930 . S
C646 H632 0.930 . S
C646 C644 1.395 . S
C646 C649 1.403 . S
C647 C644 1.403 . S
C647 C648 1.524 . S
C647 C651 1.400 . S
C648 H633 0.960 . S
C648 H634 0.960 . S
C648 H635 0.960 . S
C648 C647 1.524 . S
C649 C646 1.403 . S
C649 C650 1.392 . S
C649 C653 1.495 . S
C650 C649 1.392 . S
C650 C651 1.385 . S
C650 C652 1.478 . S
C651 H645 0.930 . S
C651 C647 1.400 . S
C651 C650 1.385 . S
C652 C650 1.478 . S
C652 C654 1.381 . S
C652 C658 1.383 . S
C653 C649 1.495 . S
C653 H659 0.959 . S
C653 H660 0.961 . S
C653 H661 0.960 . S
C654 C652 1.381 . S
C654 C655 1.394 . S
C654 H662 0.930 . S
C655 C654 1.394 . S
C655 C656 1.383 . S
C655 H663 0.929 . S
C656 C655 1.383 . S
C656 C657 1.377 . S
C657 H641 0.930 . S
C657 C656 1.377 . S
C657 C658 1.379 . S
C658 H642 0.931 . S
C658 C652 1.383 . S
C658 C657 1.379 . S
H659 C653 0.959 . S
H660 C653 0.961 . S
H661 C653 0.960 . S
H662 C654 0.930 . S
H663 C655 0.929 . S
H664 C672 0.929 . S
H665 C674 0.930 . S
H666 C676 0.930 . S
H667 C679 0.929 . S
H668 C682 0.930 . S
H669 C684 0.960 . S
H670 C684 0.960 . S
H671 C684 0.960 . S
C672 H664 0.929 . S
C672 C673 1.377 . S
C672 C674 1.384 . S
C673 C672 1.377 . S
C673 C679 1.390 . S
C674 H665 0.930 . S
C674 C672 1.384 . S
C674 C675 1.372 . S
C675 C674 1.372 . S
C675 C676 1.400 . S
C675 C680 1.490 . S
C676 H666 0.930 . S
C676 C675 1.400 . S
C676 C679 1.386 . S
H677 C693 0.930 . S
H678 C694 0.931 . S
C679 H667 0.929 . S
C679 C673 1.390 . S
C679 C676 1.386 . S
C680 C675 1.490 . S
C680 C682 1.395 . S
C680 C683 1.403 . S
H681 C687 0.930 . S
C682 H668 0.930 . S
C682 C680 1.395 . S
C682 C685 1.403 . S
C683 C680 1.403 . S
C683 C684 1.524 . S
C683 C687 1.400 . S
C684 H669 0.960 . S
C684 H670 0.960 . S
C684 H671 0.960 . S
C684 C683 1.524 . S
C685 C682 1.403 . S
C685 C686 1.392 . S
C685 C689 1.495 . S
C686 C685 1.392 . S
C686 C687 1.385 . S
C686 C688 1.478 . S
C687 H681 0.930 . S
C687 C683 1.400 . S
C687 C686 1.385 . S
C688 C686 1.478 . S
C688 C690 1.381 . S
C688 C694 1.383 . S
C689 C685 1.495 . S
C689 H695 0.959 1_556 S
C689 H696 0.961 . S
C689 H697 0.960 1_556 S
C690 C688 1.381 . S
C690 C691 1.394 . S
C690 H698 0.930 . S
C691 C690 1.394 . S
C691 C692 1.383 . S
C691 H699 0.929 . S
C692 C691 1.383 . S
C692 C693 1.377 . S
C693 H677 0.930 . S
C693 C692 1.377 . S
C693 C694 1.379 . S
C694 H678 0.931 . S
C694 C688 1.383 . S
C694 C693 1.379 . S
H695 C689 0.959 1_554 S
H696 C689 0.961 . S
H697 C689 0.960 1_554 S
H698 C690 0.930 . S
H699 C691 0.929 . S
H700 C708 0.929 . S
H701 C710 0.930 . S
H702 C712 0.930 . S
H703 C715 0.929 . S
H704 C718 0.930 . S
H705 C720 0.960 . S
H706 C720 0.960 . S
H707 C720 0.960 . S
C708 H700 0.929 . S
C708 C709 1.377 . S
C708 C710 1.384 . S
C709 C708 1.377 . S
C709 C715 1.390 . S
C710 H701 0.930 . S
C710 C708 1.384 . S
C710 C711 1.372 . S
C711 C710 1.372 . S
C711 C712 1.400 . S
C711 C716 1.490 . S
C712 H702 0.930 . S
C712 C711 1.400 . S
C712 C715 1.386 . S
H713 C729 0.930 . S
H714 C730 0.931 . S
C715 H703 0.929 . S
C715 C709 1.390 . S
C715 C712 1.386 . S
C716 C711 1.490 . S
C716 C718 1.395 . S
C716 C719 1.403 . S
H717 C723 0.930 . S
C718 H704 0.930 . S
C718 C716 1.395 . S
C718 C721 1.403 . S
C719 C716 1.403 . S
C719 C720 1.524 . S
C719 C723 1.400 . S
C720 H705 0.960 . S
C720 H706 0.960 . S
C720 H707 0.960 . S
C720 C719 1.524 . S
C721 C718 1.403 . S
C721 C722 1.392 . S
C721 C725 1.495 . S
C722 C721 1.392 . S
C722 C723 1.385 . S
C722 C724 1.478 . S
C723 H717 0.930 . S
C723 C719 1.400 . S
C723 C722 1.385 . S
C724 C722 1.478 . S
C724 C726 1.381 . S
C724 C730 1.383 . S
C725 C721 1.495 . S
C725 H731 0.959 . S
C725 H732 0.961 . S
C725 H733 0.960 . S
C726 C724 1.381 . S
C726 C727 1.394 . S
C726 H734 0.930 . S
C727 C726 1.394 . S
C727 C728 1.383 . S
C727 H735 0.929 . S
C728 C727 1.383 . S
C728 C729 1.377 . S
C729 H713 0.930 . S
C729 C728 1.377 . S
C729 C730 1.379 . S
C730 H714 0.931 . S
C730 C724 1.383 . S
C730 C729 1.379 . S
H731 C725 0.959 . S
H732 C725 0.961 . S
H733 C725 0.960 . S
H734 C726 0.930 . S
H735 C727 0.929 . S
H736 C744 0.929 . S
H737 C746 0.930 . S
H738 C748 0.930 . S
H739 C751 0.929 . S
H740 C754 0.930 . S
H741 C756 0.960 . S
H742 C756 0.960 . S
H743 C756 0.960 . S
C744 H736 0.929 . S
C744 C745 1.377 . S
C744 C746 1.384 . S
C745 C744 1.377 . S
C745 C751 1.390 . S
C746 H737 0.930 . S
C746 C744 1.384 . S
C746 C747 1.372 . S
C747 C746 1.372 . S
C747 C748 1.400 . S
C747 C752 1.490 . S
C748 H738 0.930 . S
C748 C747 1.400 . S
C748 C751 1.386 . S
H749 C765 0.930 1_556 S
H750 C766 0.931 . S
C751 H739 0.929 . S
C751 C745 1.390 . S
C751 C748 1.386 . S
C752 C747 1.490 . S
C752 C754 1.395 . S
C752 C755 1.403 . S
H753 C759 0.930 . S
C754 H740 0.930 . S
C754 C752 1.395 . S
C754 C757 1.403 . S
C755 C752 1.403 . S
C755 C756 1.524 . S
C755 C759 1.400 . S
C756 H741 0.960 . S
C756 H742 0.960 . S
C756 H743 0.960 . S
C756 C755 1.524 . S
C757 C754 1.403 . S
C757 C758 1.392 . S
C757 C761 1.495 . S
C758 C757 1.392 . S
C758 C759 1.385 . S
C758 C760 1.478 . S
C759 H753 0.930 . S
C759 C755 1.400 . S
C759 C758 1.385 . S
C760 C758 1.478 . S
C760 C762 1.381 . S
C760 C766 1.383 . S
C761 C757 1.495 . S
C761 H767 0.959 . S
C761 H768 0.961 1_554 S
C761 H769 0.960 . S
C762 C760 1.381 . S
C762 C763 1.394 . S
C762 H770 0.930 . S
C763 C762 1.394 . S
C763 C764 1.383 . S
C763 H771 0.929 . S
C764 C763 1.383 . S
C764 C765 1.377 . S
C765 H749 0.930 1_554 S
C765 C764 1.377 . S
C765 C766 1.379 . S
C766 H750 0.931 . S
C766 C760 1.383 . S
C766 C765 1.379 . S
H767 C761 0.959 . S
H768 C761 0.961 1_556 S
H769 C761 0.960 . S
H770 C762 0.930 . S
H771 C763 0.929 . S
H772 C780 0.929 . S
H773 C782 0.930 . S
H774 C784 0.930 . S
H775 C787 0.929 . S
H776 C790 0.930 . S
H777 C792 0.960 . S
H778 C792 0.960 . S
H779 C792 0.960 . S
C780 H772 0.929 . S
C780 C781 1.377 . S
C780 C782 1.384 . S
C781 C780 1.377 . S
C781 C787 1.390 . S
C782 H773 0.930 . S
C782 C780 1.384 . S
C782 C783 1.372 . S
C783 C782 1.372 . S
C783 C784 1.400 . S
C783 C788 1.490 . S
C784 H774 0.930 . S
C784 C783 1.400 . S
C784 C787 1.386 . S
H785 C801 0.930 . S
H786 C802 0.931 . S
C787 H775 0.929 . S
C787 C781 1.390 . S
C787 C784 1.386 . S
C788 C783 1.490 . S
C788 C790 1.395 . S
C788 C791 1.403 . S
H789 C795 0.930 . S
C790 H776 0.930 . S
C790 C788 1.395 . S
C790 C793 1.403 . S
C791 C788 1.403 . S
C791 C792 1.524 . S
C791 C795 1.400 . S
C792 H777 0.960 . S
C792 H778 0.960 . S
C792 H779 0.960 . S
C792 C791 1.524 . S
C793 C790 1.403 . S
C793 C794 1.392 . S
C793 C797 1.495 . S
C794 C793 1.392 . S
C794 C795 1.385 . S
C794 C796 1.478 . S
C795 H789 0.930 . S
C795 C791 1.400 . S
C795 C794 1.385 . S
C796 C794 1.478 . S
C796 C798 1.381 . S
C796 C802 1.383 . S
C797 C793 1.495 . S
C797 H803 0.959 . S
C797 H804 0.961 . S
C797 H805 0.960 . S
C798 C796 1.381 . S
C798 C799 1.394 . S
C798 H806 0.930 . S
C799 C798 1.394 . S
C799 C800 1.383 . S
C799 H807 0.929 . S
C800 C799 1.383 . S
C800 C801 1.377 . S
C801 H785 0.930 . S
C801 C800 1.377 . S
C801 C802 1.379 . S
C802 H786 0.931 . S
C802 C796 1.383 . S
C802 C801 1.379 . S
H803 C797 0.959 . S
H804 C797 0.961 . S
H805 C797 0.960 . S
H806 C798 0.930 . S
H807 C799 0.929 . S
H808 C816 0.929 . S
H809 C818 0.930 . S
H810 C820 0.930 . S
H811 C823 0.929 . S
H812 C826 0.930 . S
H813 C828 0.960 . S
H814 C828 0.960 . S
H815 C828 0.960 . S
C816 H808 0.929 . S
C816 C817 1.377 . S
C816 C818 1.384 . S
C817 C816 1.377 . S
C817 C823 1.390 . S
C818 H809 0.930 . S
C818 C816 1.384 . S
C818 C819 1.372 . S
C819 C818 1.372 . S
C819 C820 1.400 . S
C819 C824 1.490 . S
C820 H810 0.930 . S
C820 C819 1.400 . S
C820 C823 1.386 . S
H821 C837 0.930 . S
H822 C838 0.931 . S
C823 H811 0.929 . S
C823 C817 1.390 . S
C823 C820 1.386 . S
C824 C819 1.490 . S
C824 C826 1.395 . S
C824 C827 1.403 . S
H825 C831 0.930 . S
C826 H812 0.930 . S
C826 C824 1.395 . S
C826 C829 1.403 . S
C827 C824 1.403 . S
C827 C828 1.524 . S
C827 C831 1.400 . S
C828 H813 0.960 . S
C828 H814 0.960 . S
C828 H815 0.960 . S
C828 C827 1.524 . S
C829 C826 1.403 . S
C829 C830 1.392 . S
C829 C833 1.495 . S
C830 C829 1.392 . S
C830 C831 1.385 . S
C830 C832 1.478 . S
C831 H825 0.930 . S
C831 C827 1.400 . S
C831 C830 1.385 . S
C832 C830 1.478 . S
C832 C834 1.381 . S
C832 C838 1.383 . S
C833 C829 1.495 . S
C833 H839 0.959 . S
C833 H840 0.961 . S
C833 H841 0.960 . S
C834 C832 1.381 . S
C834 C835 1.394 . S
C834 H842 0.930 . S
C835 C834 1.394 . S
C835 C836 1.383 . S
C835 H843 0.929 . S
C836 C835 1.383 . S
C836 C837 1.377 . S
C837 H821 0.930 . S
C837 C836 1.377 . S
C837 C838 1.379 . S
C838 H822 0.931 . S
C838 C832 1.383 . S
C838 C837 1.379 . S
H839 C833 0.959 . S
H840 C833 0.961 . S
H841 C833 0.960 . S
H842 C834 0.930 . S
H843 C835 0.929 . S
H844 C852 0.929 . S
H845 C854 0.930 . S
H846 C856 0.930 . S
H847 C859 0.929 . S
H848 C862 0.930 . S
H849 C864 0.960 . S
H850 C864 0.960 . S
H851 C864 0.960 . S
C852 H844 0.929 . S
C852 C853 1.377 . S
C852 C854 1.384 . S
C853 C852 1.377 . S
C853 C859 1.390 . S
C854 H845 0.930 . S
C854 C852 1.384 . S
C854 C855 1.372 . S
C855 C854 1.372 . S
C855 C856 1.400 . S
C855 C860 1.490 . S
C856 H846 0.930 . S
C856 C855 1.400 . S
C856 C859 1.386 . S
H857 C873 0.930 . S
H858 C874 0.931 . S
C859 H847 0.929 . S
C859 C853 1.390 . S
C859 C856 1.386 . S
C860 C855 1.490 . S
C860 C862 1.395 . S
C860 C863 1.403 . S
H861 C867 0.930 . S
C862 H848 0.930 . S
C862 C860 1.395 . S
C862 C865 1.403 . S
C863 C860 1.403 . S
C863 C864 1.524 . S
C863 C867 1.400 . S
C864 H849 0.960 . S
C864 H850 0.960 . S
C864 H851 0.960 . S
C864 C863 1.524 . S
C865 C862 1.403 . S
C865 C866 1.392 . S
C865 C869 1.495 . S
C866 C865 1.392 . S
C866 C867 1.385 . S
C866 C868 1.478 . S
C867 H861 0.930 . S
C867 C863 1.400 . S
C867 C866 1.385 . S
C868 C866 1.478 . S
C868 C870 1.381 . S
C868 C874 1.383 . S
C869 C865 1.495 . S
C869 H875 0.959 . S
C869 H876 0.961 . S
C869 H877 0.960 . S
C870 C868 1.381 . S
C870 C871 1.394 . S
C870 H878 0.930 . S
C871 C870 1.394 . S
C871 C872 1.383 . S
C871 H879 0.929 . S
C872 C871 1.383 . S
C872 C873 1.377 . S
C873 H857 0.930 . S
C873 C872 1.377 . S
C873 C874 1.379 . S
C874 H858 0.931 . S
C874 C868 1.383 . S
C874 C873 1.379 . S
H875 C869 0.959 . S
H876 C869 0.961 . S
H877 C869 0.960 . S
H878 C870 0.930 . S
H879 C871 0.929 . S
H880 C888 0.929 . S
H881 C890 0.930 . S
H882 C892 0.930 . S
H883 C895 0.929 . S
H884 C898 0.930 . S
H885 C900 0.960 . S
H886 C900 0.960 . S
H887 C900 0.960 . S
C888 H880 0.929 . S
C888 C889 1.377 . S
C888 C890 1.384 . S
C889 C888 1.377 . S
C889 C895 1.390 . S
C890 H881 0.930 . S
C890 C888 1.384 . S
C890 C891 1.372 . S
C891 C890 1.372 . S
C891 C892 1.400 . S
C891 C896 1.490 . S
C892 H882 0.930 . S
C892 C891 1.400 . S
C892 C895 1.386 . S
H893 C909 0.958 . S
H894 C910 0.931 . S
C895 H883 0.929 . S
C895 C889 1.390 . S
C895 C892 1.386 . S
C896 C891 1.490 . S
C896 C898 1.395 . S
C896 C899 1.403 . S
H897 C903 0.930 . S
C898 H884 0.930 . S
C898 C896 1.395 . S
C898 C901 1.403 . S
C899 C896 1.403 . S
C899 C900 1.524 . S
C899 C903 1.400 . S
C900 H885 0.960 . S
C900 H886 0.960 . S
C900 H887 0.960 . S
C900 C899 1.524 . S
C901 C898 1.403 . S
C901 C902 1.392 . S
C901 C905 1.495 . S
C902 C901 1.392 . S
C902 C903 1.385 . S
C902 C904 1.478 . S
C903 H897 0.930 . S
C903 C899 1.400 . S
C903 C902 1.385 . S
C904 C902 1.478 . S
C904 C906 1.381 . S
C904 C910 1.383 . S
C905 C901 1.495 . S
C905 H911 0.959 . S
C905 H912 0.961 . S
C905 H913 0.960 . S
C906 C904 1.381 . S
C906 C907 1.394 . S
C906 H914 0.930 . S
C907 C906 1.394 . S
C907 C908 1.383 . S
C907 H915 0.929 . S
C908 C907 1.383 . S
C908 C909 1.377 . S
C909 H893 0.958 . S
C909 C908 1.377 . S
C909 C910 1.379 . S
C910 H894 0.931 . S
C910 C904 1.383 . S
C910 C909 1.379 . S
H911 C905 0.959 . S
H912 C905 0.961 . S
H913 C905 0.960 . S
H914 C906 0.930 . S
H915 C907 0.929 . S
H916 C924 0.929 . S
H917 C926 0.930 . S
H918 C928 0.930 . S
H919 C931 0.929 . S
H920 C934 0.930 . S
H921 C936 0.960 . S
H922 C936 0.960 . S
H923 C936 0.960 . S
C924 H916 0.929 . S
C924 C925 1.377 . S
C924 C926 1.384 . S
C925 C924 1.377 . S
C925 C931 1.390 . S
C926 H917 0.930 . S
C926 C924 1.384 . S
C926 C927 1.372 . S
C927 C926 1.372 . S
C927 C928 1.400 . S
C927 C932 1.490 . S
C928 H918 0.930 . S
C928 C927 1.400 . S
C928 C931 1.386 . S
H929 C945 0.930 . S
H930 C946 0.931 . S
C931 H919 0.929 . S
C931 C925 1.390 . S
C931 C928 1.386 . S
C932 C927 1.490 . S
C932 C934 1.395 . S
C932 C935 1.403 . S
H933 C939 0.930 . S
C934 H920 0.930 . S
C934 C932 1.395 . S
C934 C937 1.403 . S
C935 C932 1.403 . S
C935 C936 1.524 . S
C935 C939 1.400 . S
C936 H921 0.960 . S
C936 H922 0.960 . S
C936 H923 0.960 . S
C936 C935 1.524 . S
C937 C934 1.403 . S
C937 C938 1.392 . S
C937 C941 1.495 . S
C938 C937 1.392 . S
C938 C939 1.385 . S
C938 C940 1.478 . S
C939 H933 0.930 . S
C939 C935 1.400 . S
C939 C938 1.385 . S
C940 C938 1.478 . S
C940 C942 1.381 . S
C940 C946 1.383 . S
C941 C937 1.495 . S
C941 H947 0.959 . S
C941 H948 0.961 . S
C941 H949 0.960 . S
C942 C940 1.381 . S
C942 C943 1.394 . S
C942 H950 0.930 . S
C943 C942 1.394 . S
C943 C944 1.383 . S
C943 H951 0.929 . S
C944 C943 1.383 . S
C944 C945 1.377 . S
C945 H929 0.930 . S
C945 C944 1.377 . S
C945 C946 1.379 . S
C946 H930 0.931 . S
C946 C940 1.383 . S
C946 C945 1.379 . S
H947 C941 0.959 . S
H948 C941 0.961 . S
H949 C941 0.960 . S
H950 C942 0.930 . S
H951 C943 0.929 . S
H952 C960 0.929 . S
H953 C962 0.930 . S
H954 C964 0.930 . S
H955 C967 0.929 . S
H956 C970 0.930 . S
H957 C972 0.960 . S
H958 C972 0.960 . S
H959 C972 0.960 . S
C960 H952 0.929 . S
C960 C961 1.377 . S
C960 C962 1.384 . S
C961 C960 1.377 . S
C961 C967 1.390 . S
C962 H953 0.930 . S
C962 C960 1.384 . S
C962 C963 1.372 . S
C963 C962 1.372 . S
C963 C964 1.400 . S
C963 C968 1.490 . S
C964 H954 0.930 . S
C964 C963 1.400 . S
C964 C967 1.386 . S
H965 C981 0.930 . S
H966 C982 0.931 . S
C967 H955 0.929 . S
C967 C961 1.390 . S
C967 C964 1.386 . S
C968 C963 1.490 . S
C968 C970 1.395 . S
C968 C971 1.403 . S
H969 C975 0.930 . S
C970 H956 0.930 . S
C970 C968 1.395 . S
C970 C973 1.403 . S
C971 C968 1.403 . S
C971 C972 1.524 . S
C971 C975 1.400 . S
C972 H957 0.960 . S
C972 H958 0.960 . S
C972 H959 0.960 . S
C972 C971 1.524 . S
C973 C970 1.403 . S
C973 C974 1.392 . S
C973 C977 1.495 . S
C974 C973 1.392 . S
C974 C975 1.385 . S
C974 C976 1.478 . S
C975 H969 0.930 . S
C975 C971 1.400 . S
C975 C974 1.385 . S
C976 C974 1.478 . S
C976 C978 1.381 . S
C976 C982 1.383 . S
C977 C973 1.495 . S
C977 H983 0.959 . S
C977 H984 0.961 . S
C977 H985 0.960 . S
C978 C976 1.381 . S
C978 C979 1.394 . S
C978 H986 0.930 . S
C979 C978 1.394 . S
C979 C980 1.383 . S
C979 H987 0.929 . S
C980 C979 1.383 . S
C980 C981 1.377 . S
C981 H965 0.930 . S
C981 C980 1.377 . S
C981 C982 1.379 . S
C982 H966 0.931 . S
C982 C976 1.383 . S
C982 C981 1.379 . S
H983 C977 0.959 . S
H984 C977 0.961 . S
H985 C977 0.960 . S
H986 C978 0.930 . S
H987 C979 0.929 . S
H988 C996 0.929 . S
H989 C998 0.930 . S
H990 C1000 0.930 . S
H991 C1003 0.929 . S
H992 C1006 0.930 . S
H993 C1008 0.960 . S
H994 C1008 0.960 . S
H995 C1008 0.960 . S
C996 H988 0.929 . S
C996 C997 1.377 . S
C996 C998 1.384 . S
C997 C996 1.377 . S
C997 C1003 1.390 . S
C998 H989 0.930 . S
C998 C996 1.384 . S
C998 C999 1.372 . S
C999 C998 1.372 . S
C999 C1000 1.400 . S
C999 C1004 1.490 . S
C1000 H990 0.930 . S
C1000 C999 1.400 . S
C1000 C1003 1.386 . S
H1001 C1017 0.930 . S
H1002 C1018 0.931 . S
C1003 H991 0.929 . S
C1003 C997 1.390 . S
C1003 C1000 1.386 . S
C1004 C999 1.490 . S
C1004 C1006 1.395 . S
C1004 C1007 1.403 . S
H1005 C1011 0.930 . S
C1006 H992 0.930 . S
C1006 C1004 1.395 . S
C1006 C1009 1.403 . S
C1007 C1004 1.403 . S
C1007 C1008 1.524 . S
C1007 C1011 1.400 . S
C1008 H993 0.960 . S
C1008 H994 0.960 . S
C1008 H995 0.960 . S
C1008 C1007 1.524 . S
C1009 C1006 1.403 . S
C1009 C1010 1.392 . S
C1009 C1013 1.495 . S
C1010 C1009 1.392 . S
C1010 C1011 1.385 . S
C1010 C1012 1.478 . S
C1011 H1005 0.930 . S
C1011 C1007 1.400 . S
C1011 C1010 1.385 . S
C1012 C1010 1.478 . S
C1012 C1014 1.381 . S
C1012 C1018 1.383 . S
C1013 C1009 1.495 . S
C1013 H1019 0.959 . S
C1013 H1020 0.961 . S
C1013 H1021 0.960 . S
C1014 C1012 1.381 . S
C1014 C1015 1.394 . S
C1014 H1022 0.930 . S
C1015 C1014 1.394 . S
C1015 C1016 1.383 . S
C1015 H1023 0.929 . S
C1016 C1015 1.383 . S
C1016 C1017 1.377 . S
C1017 H1001 0.930 . S
C1017 C1016 1.377 . S
C1017 C1018 1.379 . S
C1018 H1002 0.931 . S
C1018 C1012 1.383 . S
C1018 C1017 1.379 . S
H1019 C1013 0.959 . S
H1020 C1013 0.961 . S
H1021 C1013 0.960 . S
H1022 C1014 0.930 . S
H1023 C1015 0.929 . S
H1024 C1032 0.929 . S
H1025 C1034 0.930 . S
H1026 C1036 0.930 . S
H1027 C1039 0.929 . S
H1028 C1042 0.930 . S
H1029 C1044 0.960 . S
H1030 C1044 0.960 . S
H1031 C1044 0.960 . S
C1032 H1024 0.929 . S
C1032 C1033 1.377 . S
C1032 C1034 1.384 . S
C1033 C1032 1.377 . S
C1033 C1039 1.390 . S
C1034 H1025 0.930 . S
C1034 C1032 1.384 . S
C1034 C1035 1.372 . S
C1035 C1034 1.372 . S
C1035 C1036 1.400 . S
C1035 C1040 1.490 . S
C1036 H1026 0.930 . S
C1036 C1035 1.400 . S
C1036 C1039 1.386 . S
H1037 C1053 0.930 1_554 S
H1038 C1054 0.930 . S
C1039 H1027 0.929 . S
C1039 C1033 1.390 . S
C1039 C1036 1.386 . S
C1040 C1035 1.490 . S
C1040 C1042 1.395 . S
C1040 C1043 1.403 . S
H1041 C1047 0.930 . S
C1042 H1028 0.930 . S
C1042 C1040 1.395 . S
C1042 C1045 1.403 . S
C1043 C1040 1.403 . S
C1043 C1044 1.524 . S
C1043 C1047 1.400 . S
C1044 H1029 0.960 . S
C1044 H1030 0.960 . S
C1044 H1031 0.960 . S
C1044 C1043 1.524 . S
C1045 C1042 1.403 . S
C1045 C1046 1.392 . S
C1045 C1049 1.495 . S
C1046 C1045 1.392 . S
C1046 C1047 1.385 . S
C1046 C1048 1.478 . S
C1047 H1041 0.930 . S
C1047 C1043 1.400 . S
C1047 C1046 1.385 . S
C1048 C1046 1.478 . S
C1048 C1050 1.381 . S
C1048 C1054 1.383 . S
C1049 C1045 1.495 . S
C1049 H1055 0.959 . S
C1049 H1056 0.961 . S
C1049 H1057 0.960 . S
C1050 C1048 1.381 . S
C1050 C1051 1.394 . S
C1050 H1058 0.930 . S
C1051 C1050 1.394 . S
C1051 C1052 1.383 . S
C1051 H1059 0.929 . S
C1052 C1051 1.383 . S
C1052 C1053 1.377 . S
C1053 H1037 0.930 1_556 S
C1053 C1052 1.377 . S
C1053 C1054 1.379 . S
C1054 H1038 0.930 . S
C1054 C1048 1.383 . S
C1054 C1053 1.379 . S
H1055 C1049 0.959 . S
H1056 C1049 0.961 . S
H1057 C1049 0.960 . S
H1058 C1050 0.930 . S
H1059 C1051 0.929 . S
H1060 C1068 0.929 . S
H1061 C1070 0.930 . S
H1062 C1072 0.930 . S
H1063 C1075 0.929 . S
H1064 C1078 0.930 . S
H1065 C1080 0.960 . S
H1066 C1080 0.960 . S
H1067 C1080 0.960 . S
C1068 H1060 0.929 . S
C1068 C1069 1.377 . S
C1068 C1070 1.384 . S
C1069 C1068 1.377 . S
C1069 C1075 1.390 . S
C1070 H1061 0.930 . S
C1070 C1068 1.384 . S
C1070 C1071 1.372 . S
C1071 C1070 1.372 . S
C1071 C1072 1.400 . S
C1071 C1076 1.490 . S
C1072 H1062 0.930 . S
C1072 C1071 1.400 . S
C1072 C1075 1.386 . S
H1073 C1089 0.930 . S
H1074 C1090 0.931 . S
C1075 H1063 0.929 . S
C1075 C1069 1.390 . S
C1075 C1072 1.386 . S
C1076 C1071 1.490 . S
C1076 C1078 1.395 . S
C1076 C1079 1.403 . S
H1077 C1083 0.930 . S
C1078 H1064 0.930 . S
C1078 C1076 1.395 . S
C1078 C1081 1.403 . S
C1079 C1076 1.403 . S
C1079 C1080 1.524 . S
C1079 C1083 1.400 . S
C1080 H1065 0.960 . S
C1080 H1066 0.960 . S
C1080 H1067 0.960 . S
C1080 C1079 1.524 . S
C1081 C1078 1.403 . S
C1081 C1082 1.392 . S
C1081 C1085 1.495 . S
C1082 C1081 1.392 . S
C1082 C1083 1.385 . S
C1082 C1084 1.478 . S
C1083 H1077 0.930 . S
C1083 C1079 1.400 . S
C1083 C1082 1.385 . S
C1084 C1082 1.478 . S
C1084 C1086 1.381 . S
C1084 C1090 1.383 . S
C1085 C1081 1.495 . S
C1085 H1091 0.959 . S
C1085 H1092 0.961 . S
C1085 H1093 0.960 . S
C1086 C1084 1.381 . S
C1086 C1087 1.394 . S
C1086 H1094 0.930 . S
C1087 C1086 1.394 . S
C1087 C1088 1.383 . S
C1087 H1095 0.929 . S
C1088 C1087 1.383 . S
C1088 C1089 1.377 . S
C1089 H1073 0.930 . S
C1089 C1088 1.377 . S
C1089 C1090 1.379 . S
C1090 H1074 0.931 . S
C1090 C1084 1.383 . S
C1090 C1089 1.379 . S
H1091 C1085 0.959 . S
H1092 C1085 0.961 . S
H1093 C1085 0.960 . S
H1094 C1086 0.930 . S
H1095 C1087 0.929 . S
H1096 C1104 0.929 . S
H1097 C1106 0.930 . S
H1098 C1108 0.930 . S
H1099 C1111 0.929 . S
H1100 C1114 0.930 . S
H1101 C1116 0.960 . S
H1102 C1116 0.960 . S
H1103 C1116 0.960 . S
C1104 H1096 0.929 . S
C1104 C1105 1.377 . S
C1104 C1106 1.384 . S
C1105 C1104 1.377 . S
C1105 C1111 1.390 . S
C1106 H1097 0.930 . S
C1106 C1104 1.384 . S
C1106 C1107 1.372 . S
C1107 C1106 1.372 . S
C1107 C1108 1.400 . S
C1107 C1112 1.490 . S
C1108 H1098 0.930 . S
C1108 C1107 1.400 . S
C1108 C1111 1.386 . S
H1109 C1125 0.930 1_556 S
H1110 C1126 0.931 . S
C1111 H1099 0.929 . S
C1111 C1105 1.390 . S
C1111 C1108 1.386 . S
C1112 C1107 1.490 . S
C1112 C1114 1.395 . S
C1112 C1115 1.403 . S
H1113 C1119 0.930 . S
C1114 H1100 0.930 . S
C1114 C1112 1.395 . S
C1114 C1117 1.403 . S
C1115 C1112 1.403 . S
C1115 C1116 1.524 . S
C1115 C1119 1.400 . S
C1116 H1101 0.960 . S
C1116 H1102 0.960 . S
C1116 H1103 0.960 . S
C1116 C1115 1.524 . S
C1117 C1114 1.403 . S
C1117 C1118 1.392 . S
C1117 C1121 1.495 . S
C1118 C1117 1.392 . S
C1118 C1119 1.385 . S
C1118 C1120 1.478 . S
C1119 H1113 0.930 . S
C1119 C1115 1.400 . S
C1119 C1118 1.385 . S
C1120 C1118 1.478 . S
C1120 C1122 1.381 . S
C1120 C1126 1.383 . S
C1121 C1117 1.495 . S
C1121 H1127 0.959 . S
C1121 H1128 0.961 . S
C1121 H1129 0.960 . S
C1122 C1120 1.381 . S
C1122 C1123 1.394 . S
C1122 H1130 0.930 . S
C1123 C1122 1.394 . S
C1123 C1124 1.383 . S
C1123 H1131 0.929 . S
C1124 C1123 1.383 . S
C1124 C1125 1.377 . S
C1125 H1109 0.930 1_554 S
C1125 C1124 1.377 . S
C1125 C1126 1.379 . S
C1126 H1110 0.931 . S
C1126 C1120 1.383 . S
C1126 C1125 1.379 . S
H1127 C1121 0.959 . S
H1128 C1121 0.961 . S
H1129 C1121 0.960 . S
H1130 C1122 0.930 . S
H1131 C1123 0.929 . S
H1132 C1140 0.929 . S
H1133 C1142 0.930 . S
H1134 C1144 0.930 . S
H1135 C1147 0.929 . S
H1136 C1150 0.930 . S
H1137 C1152 0.960 . S
H1138 C1152 0.960 . S
H1139 C1152 0.960 . S
C1140 H1132 0.929 . S
C1140 C1141 1.377 . S
C1140 C1142 1.384 . S
C1141 C1140 1.377 . S
C1141 C1147 1.390 . S
C1142 H1133 0.930 . S
C1142 C1140 1.384 . S
C1142 C1143 1.372 . S
C1143 C1142 1.372 . S
C1143 C1144 1.400 . S
C1143 C1148 1.490 . S
C1144 H1134 0.930 . S
C1144 C1143 1.400 . S
C1144 C1147 1.386 . S
H1145 C1161 0.930 . S
H1146 C1162 0.931 . S
C1147 H1135 0.929 . S
C1147 C1141 1.390 . S
C1147 C1144 1.386 . S
C1148 C1143 1.490 . S
C1148 C1150 1.395 . S
C1148 C1151 1.403 . S
H1149 C1155 0.930 . S
C1150 H1136 0.930 . S
C1150 C1148 1.395 . S
C1150 C1153 1.403 . S
C1151 C1148 1.403 . S
C1151 C1152 1.524 . S
C1151 C1155 1.400 . S
C1152 H1137 0.960 . S
C1152 H1138 0.960 . S
C1152 H1139 0.960 . S
C1152 C1151 1.524 . S
C1153 C1150 1.403 . S
C1153 C1154 1.392 . S
C1153 C1157 1.495 . S
C1154 C1153 1.392 . S
C1154 C1155 1.385 . S
C1154 C1156 1.478 . S
C1155 H1149 0.930 . S
C1155 C1151 1.400 . S
C1155 C1154 1.385 . S
C1156 C1154 1.478 . S
C1156 C1158 1.381 . S
C1156 C1162 1.383 . S
C1157 C1153 1.495 . S
C1157 H1163 0.959 . S
C1157 H1164 0.961 . S
C1157 H1165 0.960 . S
C1158 C1156 1.381 . S
C1158 C1159 1.394 . S
C1158 H1166 0.930 . S
C1159 C1158 1.394 . S
C1159 C1160 1.383 . S
C1159 H1167 0.929 . S
C1160 C1159 1.383 . S
C1160 C1161 1.377 . S
C1161 H1145 0.930 . S
C1161 C1160 1.377 . S
C1161 C1162 1.379 . S
C1162 H1146 0.931 . S
C1162 C1156 1.383 . S
C1162 C1161 1.379 . S
H1163 C1157 0.959 . S
H1164 C1157 0.961 . S
H1165 C1157 0.960 . S
H1166 C1158 0.930 . S
H1167 C1159 0.929 . S
H1168 C1176 0.929 . S
H1169 C1178 0.930 . S
H1170 C1180 0.930 . S
H1171 C1183 0.929 . S
H1172 C1186 0.930 . S
H1173 C1188 0.960 . S
H1174 C1188 0.960 . S
H1175 C1188 0.960 . S
C1176 H1168 0.929 . S
C1176 C1177 1.377 . S
C1176 C1178 1.384 . S
C1177 C1176 1.377 . S
C1177 C1183 1.390 . S
C1178 H1169 0.930 . S
C1178 C1176 1.384 . S
C1178 C1179 1.372 . S
C1179 C1178 1.372 . S
C1179 C1180 1.400 . S
C1179 C1184 1.490 . S
C1180 H1170 0.930 . S
C1180 C1179 1.400 . S
C1180 C1183 1.386 . S
H1181 C1197 0.930 . S
H1182 C1198 0.931 . S
C1183 H1171 0.929 . S
C1183 C1177 1.390 . S
C1183 C1180 1.386 . S
C1184 C1179 1.490 . S
C1184 C1186 1.395 . S
C1184 C1187 1.403 . S
H1185 C1191 0.930 . S
C1186 H1172 0.930 . S
C1186 C1184 1.395 . S
C1186 C1189 1.403 . S
C1187 C1184 1.403 . S
C1187 C1188 1.524 . S
C1187 C1191 1.400 . S
C1188 H1173 0.960 . S
C1188 H1174 0.960 . S
C1188 H1175 0.960 . S
C1188 C1187 1.524 . S
C1189 C1186 1.403 . S
C1189 C1190 1.392 . S
C1189 C1193 1.495 . S
C1190 C1189 1.392 . S
C1190 C1191 1.385 . S
C1190 C1192 1.478 . S
C1191 H1185 0.930 . S
C1191 C1187 1.400 . S
C1191 C1190 1.385 . S
C1192 C1190 1.478 . S
C1192 C1194 1.381 . S
C1192 C1198 1.383 . S
C1193 C1189 1.495 . S
C1193 H1199 0.959 . S
C1193 H1200 0.961 . S
C1193 H1201 0.960 . S
C1194 C1192 1.381 . S
C1194 C1195 1.394 . S
C1194 H1202 0.930 . S
C1195 C1194 1.394 . S
C1195 C1196 1.383 . S
C1195 H1203 0.929 1_556 S
C1196 C1195 1.383 . S
C1196 C1197 1.377 . S
C1197 H1181 0.930 . S
C1197 C1196 1.377 . S
C1197 C1198 1.379 . S
C1198 H1182 0.931 . S
C1198 C1192 1.383 . S
C1198 C1197 1.379 . S
H1199 C1193 0.959 . S
H1200 C1193 0.961 . S
H1201 C1193 0.960 . S
H1202 C1194 0.930 . S
H1203 C1195 0.929 1_554 S
H1204 C1212 0.929 . S
H1205 C1214 0.930 . S
H1206 C1216 0.930 . S
H1207 C1219 0.929 . S
H1208 C1222 0.930 . S
H1209 C1224 0.960 . S
H1210 C1224 0.960 . S
H1211 C1224 0.960 . S
C1212 H1204 0.929 . S
C1212 C1213 1.377 . S
C1212 C1214 1.384 . S
C1213 C1212 1.377 . S
C1213 C1219 1.390 . S
C1214 H1205 0.930 . S
C1214 C1212 1.384 . S
C1214 C1215 1.372 . S
C1215 C1214 1.372 . S
C1215 C1216 1.400 . S
C1215 C1220 1.490 . S
C1216 H1206 0.930 . S
C1216 C1215 1.400 . S
C1216 C1219 1.386 . S
H1217 C1233 0.930 . S
H1218 C1234 0.931 . S
C1219 H1207 0.929 . S
C1219 C1213 1.390 . S
C1219 C1216 1.386 . S
C1220 C1215 1.490 . S
C1220 C1222 1.395 . S
C1220 C1223 1.403 . S
H1221 C1227 0.930 . S
C1222 H1208 0.930 . S
C1222 C1220 1.395 . S
C1222 C1225 1.403 . S
C1223 C1220 1.403 . S
C1223 C1224 1.524 . S
C1223 C1227 1.400 . S
C1224 H1209 0.960 . S
C1224 H1210 0.960 . S
C1224 H1211 0.960 . S
C1224 C1223 1.524 . S
C1225 C1222 1.403 . S
C1225 C1226 1.392 . S
C1225 C1229 1.495 . S
C1226 C1225 1.392 . S
C1226 C1227 1.385 . S
C1226 C1228 1.478 . S
C1227 H1221 0.930 . S
C1227 C1223 1.400 . S
C1227 C1226 1.385 . S
C1228 C1226 1.478 . S
C1228 C1230 1.381 . S
C1228 C1234 1.383 . S
C1229 C1225 1.495 . S
C1229 H1235 0.959 . S
C1229 H1236 0.961 . S
C1229 H1237 0.960 . S
C1230 C1228 1.381 . S
C1230 C1231 1.394 . S
C1230 H1238 0.930 . S
C1231 C1230 1.394 . S
C1231 C1232 1.383 . S
C1231 H1239 0.929 . S
C1232 C1231 1.383 . S
C1232 C1233 1.377 . S
C1233 H1217 0.930 . S
C1233 C1232 1.377 . S
C1233 C1234 1.379 . S
C1234 H1218 0.931 . S
C1234 C1228 1.383 . S
C1234 C1233 1.379 . S
H1235 C1229 0.959 . S
H1236 C1229 0.961 . S
H1237 C1229 0.960 . S
H1238 C1230 0.930 . S
H1239 C1231 0.929 . S
H1240 C1248 0.929 . S
H1241 C1250 0.930 . S
H1242 C1252 0.930 . S
H1243 C1255 0.929 . S
H1244 C1258 0.930 . S
H1245 C1260 0.960 . S
H1246 C1260 0.960 . S
H1247 C1260 0.960 . S
C1248 H1240 0.929 . S
C1248 C1249 1.377 . S
C1248 C1250 1.384 . S
C1249 C1248 1.377 . S
C1249 C1255 1.390 . S
C1250 H1241 0.930 . S
C1250 C1248 1.384 . S
C1250 C1251 1.372 . S
C1251 C1250 1.372 . S
C1251 C1252 1.400 . S
C1251 C1256 1.490 . S
C1252 H1242 0.930 . S
C1252 C1251 1.400 . S
C1252 C1255 1.386 . S
H1253 C1269 0.930 . S
H1254 C1270 0.931 . S
C1255 H1243 0.929 . S
C1255 C1249 1.390 . S
C1255 C1252 1.386 . S
C1256 C1251 1.490 . S
C1256 C1258 1.395 . S
C1256 C1259 1.403 . S
H1257 C1263 0.930 . S
C1258 H1244 0.930 . S
C1258 C1256 1.395 . S
C1258 C1261 1.403 . S
C1259 C1256 1.403 . S
C1259 C1260 1.524 . S
C1259 C1263 1.400 . S
C1260 H1245 0.960 . S
C1260 H1246 0.960 . S
C1260 H1247 0.960 . S
C1260 C1259 1.524 . S
C1261 C1258 1.403 . S
C1261 C1262 1.392 . S
C1261 C1265 1.495 . S
C1262 C1261 1.392 . S
C1262 C1263 1.385 . S
C1262 C1264 1.478 . S
C1263 H1257 0.930 . S
C1263 C1259 1.400 . S
C1263 C1262 1.385 . S
C1264 C1262 1.478 . S
C1264 C1266 1.381 . S
C1264 C1270 1.383 . S
C1265 C1261 1.495 . S
C1265 H1271 0.959 . S
C1265 H1272 0.961 . S
C1265 H1273 0.960 . S
C1266 C1264 1.381 . S
C1266 C1267 1.394 . S
C1266 H1274 0.930 . S
C1267 C1266 1.394 . S
C1267 C1268 1.383 . S
C1267 H1275 0.929 . S
C1268 C1267 1.383 . S
C1268 C1269 1.377 . S
C1269 H1253 0.930 . S
C1269 C1268 1.377 . S
C1269 C1270 1.379 . S
C1270 H1254 0.931 . S
C1270 C1264 1.383 . S
C1270 C1269 1.379 . S
H1271 C1265 0.959 . S
H1272 C1265 0.961 . S
H1273 C1265 0.960 . S
H1274 C1266 0.930 . S
H1275 C1267 0.929 . S
H1276 C1284 0.929 . S
H1277 C1286 0.930 . S
H1278 C1288 0.930 . S
H1279 C1291 0.929 . S
H1280 C1294 0.930 . S
H1281 C1296 0.960 . S
H1282 C1296 0.960 . S
H1283 C1296 0.960 . S
C1284 H1276 0.929 . S
C1284 C1285 1.377 . S
C1284 C1286 1.384 . S
C1285 C1284 1.377 . S
C1285 C1291 1.390 . S
C1286 H1277 0.930 . S
C1286 C1284 1.384 . S
C1286 C1287 1.372 . S
C1287 C1286 1.372 . S
C1287 C1288 1.400 . S
C1287 C1292 1.490 . S
C1288 H1278 0.930 . S
C1288 C1287 1.400 . S
C1288 C1291 1.386 . S
H1289 C1305 0.930 . S
H1290 C1306 0.931 . S
C1291 H1279 0.929 . S
C1291 C1285 1.390 . S
C1291 C1288 1.386 . S
C1292 C1287 1.490 . S
C1292 C1294 1.395 . S
C1292 C1295 1.403 . S
H1293 C1299 0.930 . S
C1294 H1280 0.930 . S
C1294 C1292 1.395 . S
C1294 C1297 1.403 . S
C1295 C1292 1.403 . S
C1295 C1296 1.524 . S
C1295 C1299 1.400 . S
C1296 H1281 0.960 . S
C1296 H1282 0.960 . S
C1296 H1283 0.960 . S
C1296 C1295 1.524 . S
C1297 C1294 1.403 . S
C1297 C1298 1.392 . S
C1297 C1301 1.495 . S
C1298 C1297 1.392 . S
C1298 C1299 1.385 . S
C1298 C1300 1.478 . S
C1299 H1293 0.930 . S
C1299 C1295 1.400 . S
C1299 C1298 1.385 . S
C1300 C1298 1.478 . S
C1300 C1302 1.381 . S
C1300 C1306 1.383 . S
C1301 C1297 1.495 . S
C1301 H1307 0.959 . S
C1301 H1308 0.961 . S
C1301 H1309 0.960 . S
C1302 C1300 1.381 . S
C1302 C1303 1.394 . S
C1302 H1310 0.930 . S
C1303 C1302 1.394 . S
C1303 C1304 1.383 . S
C1303 H1311 0.929 . S
C1304 C1303 1.383 . S
C1304 C1305 1.377 . S
C1305 H1289 0.930 . S
C1305 C1304 1.377 . S
C1305 C1306 1.379 . S
C1306 H1290 0.931 . S
C1306 C1300 1.383 . S
C1306 C1305 1.379 . S
H1307 C1301 0.959 . S
H1308 C1301 0.961 . S
H1309 C1301 0.960 . S
H1310 C1302 0.930 . S
H1311 C1303 0.929 . S
C457 C1 2.931 . S
C476 C307 2.902 . S
C493 C67 2.443 . S
C512 C338 2.468 . S
C548 C377 1.286 . S
C529 C97 1.307 . S
C565 C133 0.372 . S
C584 C414 0.344 . S
C620 C337 2.843 . S
C601 C25 2.916 . S
C656 C294 1.599 . S
C637 C37 1.609 . S
C692 C426 1.352 . S
C673 C103 1.362 . S
C728 C383 0.866 . S
C709 C109 0.901 . S
C745 C31 2.269 . S
C764 C427 2.288 . S
C800 C343 1.265 . S
C781 C73 1.258 . S
C817 C139 0.592 . S
C836 C306 0.569 . S
C853 C61 2.620 . S
C872 C378 2.614 . S
C908 C298 2.911 . S
C889 C175 2.950 . S
C925 C181 2.434 . S
C944 C347 2.463 . S
C961 C247 1.341 . S
C980 C386 1.284 . S
C997 C277 0.367 . S
C1016 C423 0.336 . S
C1033 C145 2.927 . S
C1052 C346 2.847 . S
C1088 C303 1.627 . S
C1069 C211 1.611 . S
C1124 C417 1.301 . S
C1105 C217 1.353 . S
C1160 C374 0.888 . S
C1141 C283 0.926 . S
C1177 C169 2.279 . S
C1196 C418 2.279 . S
C1232 C334 1.261 . S
C1213 C241 1.266 . S
C1268 C297 0.580 . S
C1249 C253 0.568 . S
C1285 C205 2.624 . S
C1304 C387 2.624 . S
