# Generated by pormake.
# Topology ctn, (3,4)-cn, num edge types: 1
# Building blocks:
#     Node 0, Type 0, BuildingBlock: KAKCAD_clean_linker_0, # of connection points: 3
#     Node 1, Type 0, BuildingBlock: KAKCAD_clean_linker_0, # of connection points: 3
#     Node 2, Type 0, BuildingBlock: KAKCAD_clean_linker_0, # of connection points: 3
#     Node 3, Type 0, BuildingBlock: KAKCAD_clean_linker_0, # of connection points: 3
#     Node 4, Type 0, BuildingBlock: KAKCAD_clean_linker_0, # of connection points: 3
#     Node 5, Type 0, BuildingBlock: KAKCAD_clean_linker_0, # of connection points: 3
#     Node 6, Type 0, BuildingBlock: KAKCAD_clean_linker_0, # of connection points: 3
#     Node 7, Type 0, BuildingBlock: KAKCAD_clean_linker_0, # of connection points: 3
#     Node 8, Type 0, BuildingBlock: KAKCAD_clean_linker_0, # of connection points: 3
#     Node 9, Type 0, BuildingBlock: KAKCAD_clean_linker_0, # of connection points: 3
#     Node 10, Type 0, BuildingBlock: KAKCAD_clean_linker_0, # of connection points: 3
#     Node 11, Type 0, BuildingBlock: KAKCAD_clean_linker_0, # of connection points: 3
#     Node 12, Type 0, BuildingBlock: KAKCAD_clean_linker_0, # of connection points: 3
#     Node 13, Type 0, BuildingBlock: KAKCAD_clean_linker_0, # of connection points: 3
#     Node 14, Type 0, BuildingBlock: KAKCAD_clean_linker_0, # of connection points: 3
#     Node 15, Type 0, BuildingBlock: KAKCAD_clean_linker_0, # of connection points: 3
#     Node 16, Type 1, BuildingBlock: QUQFOY_clean_sbu_1, # of connection points: 4
#     Node 17, Type 1, BuildingBlock: QUQFOY_clean_sbu_1, # of connection points: 4
#     Node 18, Type 1, BuildingBlock: QUQFOY_clean_sbu_1, # of connection points: 4
#     Node 19, Type 1, BuildingBlock: QUQFOY_clean_sbu_1, # of connection points: 4
#     Node 20, Type 1, BuildingBlock: QUQFOY_clean_sbu_1, # of connection points: 4
#     Node 21, Type 1, BuildingBlock: QUQFOY_clean_sbu_1, # of connection points: 4
#     Node 22, Type 1, BuildingBlock: QUQFOY_clean_sbu_1, # of connection points: 4
#     Node 23, Type 1, BuildingBlock: QUQFOY_clean_sbu_1, # of connection points: 4
#     Node 24, Type 1, BuildingBlock: QUQFOY_clean_sbu_1, # of connection points: 4
#     Node 25, Type 1, BuildingBlock: QUQFOY_clean_sbu_1, # of connection points: 4
#     Node 26, Type 1, BuildingBlock: QUQFOY_clean_sbu_1, # of connection points: 4
#     Node 27, Type 1, BuildingBlock: QUQFOY_clean_sbu_1, # of connection points: 4
#     Edge 28, Type (0, 1), BuildingBlock: KIFKEQ_clean_linker_1, # of connection points: 2
#     Edge 29, Type (0, 1), BuildingBlock: KIFKEQ_clean_linker_1, # of connection points: 2
#     Edge 30, Type (0, 1), BuildingBlock: KIFKEQ_clean_linker_1, # of connection points: 2
#     Edge 31, Type (0, 1), BuildingBlock: KIFKEQ_clean_linker_1, # of connection points: 2
#     Edge 32, Type (0, 1), BuildingBlock: KIFKEQ_clean_linker_1, # of connection points: 2
#     Edge 33, Type (0, 1), BuildingBlock: KIFKEQ_clean_linker_1, # of connection points: 2
#     Edge 34, Type (0, 1), BuildingBlock: KIFKEQ_clean_linker_1, # of connection points: 2
#     Edge 35, Type (0, 1), BuildingBlock: KIFKEQ_clean_linker_1, # of connection points: 2
#     Edge 36, Type (0, 1), BuildingBlock: KIFKEQ_clean_linker_1, # of connection points: 2
#     Edge 37, Type (0, 1), BuildingBlock: KIFKEQ_clean_linker_1, # of connection points: 2
#     Edge 38, Type (0, 1), BuildingBlock: KIFKEQ_clean_linker_1, # of connection points: 2
#     Edge 39, Type (0, 1), BuildingBlock: KIFKEQ_clean_linker_1, # of connection points: 2
#     Edge 40, Type (0, 1), BuildingBlock: KIFKEQ_clean_linker_1, # of connection points: 2
#     Edge 41, Type (0, 1), BuildingBlock: KIFKEQ_clean_linker_1, # of connection points: 2
#     Edge 42, Type (0, 1), BuildingBlock: KIFKEQ_clean_linker_1, # of connection points: 2
#     Edge 43, Type (0, 1), BuildingBlock: KIFKEQ_clean_linker_1, # of connection points: 2
#     Edge 44, Type (0, 1), BuildingBlock: KIFKEQ_clean_linker_1, # of connection points: 2
#     Edge 45, Type (0, 1), BuildingBlock: KIFKEQ_clean_linker_1, # of connection points: 2
#     Edge 46, Type (0, 1), BuildingBlock: KIFKEQ_clean_linker_1, # of connection points: 2
#     Edge 47, Type (0, 1), BuildingBlock: KIFKEQ_clean_linker_1, # of connection points: 2
#     Edge 48, Type (0, 1), BuildingBlock: KIFKEQ_clean_linker_1, # of connection points: 2
#     Edge 49, Type (0, 1), BuildingBlock: KIFKEQ_clean_linker_1, # of connection points: 2
#     Edge 50, Type (0, 1), BuildingBlock: KIFKEQ_clean_linker_1, # of connection points: 2
#     Edge 51, Type (0, 1), BuildingBlock: KIFKEQ_clean_linker_1, # of connection points: 2
#     Edge 52, Type (0, 1), BuildingBlock: KIFKEQ_clean_linker_1, # of connection points: 2
#     Edge 53, Type (0, 1), BuildingBlock: KIFKEQ_clean_linker_1, # of connection points: 2
#     Edge 54, Type (0, 1), BuildingBlock: KIFKEQ_clean_linker_1, # of connection points: 2
#     Edge 55, Type (0, 1), BuildingBlock: KIFKEQ_clean_linker_1, # of connection points: 2
#     Edge 56, Type (0, 1), BuildingBlock: KIFKEQ_clean_linker_1, # of connection points: 2
#     Edge 57, Type (0, 1), BuildingBlock: KIFKEQ_clean_linker_1, # of connection points: 2
#     Edge 58, Type (0, 1), BuildingBlock: KIFKEQ_clean_linker_1, # of connection points: 2
#     Edge 59, Type (0, 1), BuildingBlock: KIFKEQ_clean_linker_1, # of connection points: 2
#     Edge 60, Type (0, 1), BuildingBlock: KIFKEQ_clean_linker_1, # of connection points: 2
#     Edge 61, Type (0, 1), BuildingBlock: KIFKEQ_clean_linker_1, # of connection points: 2
#     Edge 62, Type (0, 1), BuildingBlock: KIFKEQ_clean_linker_1, # of connection points: 2
#     Edge 63, Type (0, 1), BuildingBlock: KIFKEQ_clean_linker_1, # of connection points: 2
#     Edge 64, Type (0, 1), BuildingBlock: KIFKEQ_clean_linker_1, # of connection points: 2
#     Edge 65, Type (0, 1), BuildingBlock: KIFKEQ_clean_linker_1, # of connection points: 2
#     Edge 66, Type (0, 1), BuildingBlock: KIFKEQ_clean_linker_1, # of connection points: 2
#     Edge 67, Type (0, 1), BuildingBlock: KIFKEQ_clean_linker_1, # of connection points: 2
#     Edge 68, Type (0, 1), BuildingBlock: KIFKEQ_clean_linker_1, # of connection points: 2
#     Edge 69, Type (0, 1), BuildingBlock: KIFKEQ_clean_linker_1, # of connection points: 2
#     Edge 70, Type (0, 1), BuildingBlock: KIFKEQ_clean_linker_1, # of connection points: 2
#     Edge 71, Type (0, 1), BuildingBlock: KIFKEQ_clean_linker_1, # of connection points: 2
#     Edge 72, Type (0, 1), BuildingBlock: KIFKEQ_clean_linker_1, # of connection points: 2
#     Edge 73, Type (0, 1), BuildingBlock: KIFKEQ_clean_linker_1, # of connection points: 2
#     Edge 74, Type (0, 1), BuildingBlock: KIFKEQ_clean_linker_1, # of connection points: 2
#     Edge 75, Type (0, 1), BuildingBlock: KIFKEQ_clean_linker_1, # of connection points: 2
# Relax obj value: 0.036
# Max RMSD: 0.144
# Mean RMSD: 0.065
data_MOF--net-ctn--node1-QUQFOY_clean_sbu_1--node2-KAKCAD_clean_linker_0--edge1-KIFKEQ_clean_linker_1
_symmetry_space_group_name_H-M    P1
_symmetry_Int_Tables_number       1
_symmetry_cell_setting            triclinic
loop_
_symmetry_equiv_pos_as_xyz
'x, y, z'
_cell_length_a     68.598251
_cell_length_b     68.487241
_cell_length_c     68.586123
_cell_angle_alpha  92.877566
_cell_angle_beta   90.423431
_cell_angle_gamma 94.70038
loop_
_atom_site_label
_atom_site_type_symbol
_atom_site_fract_x
_atom_site_fract_y
_atom_site_fract_z
_atom_type_partial_charge
C0 C 0.04988 0.12396 0.00359 0.0
C1 C 0.04487 0.14302 0.00865 0.0
C2 C 0.05202 0.11056 0.01797 0.0
C3 C 0.04913 0.11589 0.03774 0.0
C4 C 0.04502 0.13524 0.04289 0.0
C5 C 0.04297 0.1487 0.02849 0.0
C6 C 0.04862 0.10073 0.05252 0.0
C7 C 0.06211 0.08635 0.05179 0.0
C8 C 0.05979 0.06999 0.06344 0.0
C9 C 0.04415 0.06875 0.07659 0.0
C10 C 0.03088 0.08332 0.07796 0.0
C11 C 0.03326 0.0993 0.06594 0.0
C12 C 0.01371 0.08106 0.09095 0.0
C13 C 0.00289 0.0628 0.0917 0.0
C14 C 0.00799 0.09703 0.10261 0.0
C15 C 0.99199 0.09465 0.11506 0.0
C16 C 0.98132 0.07629 0.11596 0.0
C17 C 0.07253 0.05341 0.06068 0.0
C18 C 0.07956 0.04834 0.04205 0.0
C19 C 0.07682 0.04177 0.07626 0.0
C20 C 0.08705 0.02505 0.0731 0.0
C21 C 0.09365 0.01976 0.05435 0.0
C22 C 0.0902 0.03198 0.03901 0.0
C23 C 0.98692 0.06044 0.10406 0.0
H24 H 0.05162 0.11924 0.98844 0.0
H25 H 0.05501 0.09572 0.01348 0.0
H26 H 0.04286 0.13981 0.05802 0.0
H27 H 0.039 0.16326 0.03282 0.0
H28 H 0.0742 0.08779 0.04176 0.0
H29 H 0.02243 0.10997 0.06619 0.0
H30 H 0.04185 0.05611 0.08541 0.0
H31 H 0.00672 0.05029 0.08267 0.0
H32 H 0.01609 0.11127 0.10234 0.0
H33 H 0.98796 0.10717 0.12396 0.0
H34 H 0.07642 0.05662 0.02954 0.0
H35 H 0.07206 0.04536 0.09093 0.0
H36 H 0.9792 0.04603 0.1046 0.0
H37 H 0.09552 0.02885 0.02446 0.0
H38 H 0.08931 0.01606 0.08532 0.0
C39 C 0.34459 0.7691 0.24689 0.0
C40 C 0.35418 0.75277 0.25235 0.0
C41 C 0.32658 0.76659 0.23704 0.0
C42 C 0.31783 0.74768 0.23209 0.0
C43 C 0.3279 0.73139 0.23667 0.0
C44 C 0.34571 0.73388 0.24682 0.0
C45 C 0.29789 0.74489 0.2231 0.0
C46 C 0.29168 0.75794 0.20958 0.0
C47 C 0.27263 0.75556 0.20157 0.0
C48 C 0.25976 0.73983 0.20714 0.0
C49 C 0.26585 0.72652 0.22033 0.0
C50 C 0.28478 0.72922 0.22834 0.0
C51 C 0.25259 0.70959 0.22571 0.0
C52 C 0.23378 0.71226 0.23269 0.0
C53 C 0.25898 0.69063 0.22433 0.0
C54 C 0.24683 0.67461 0.22998 0.0
C55 C 0.22813 0.67723 0.23746 0.0
C56 C 0.26636 0.7692 0.18704 0.0
C57 C 0.27129 0.7895 0.18963 0.0
C58 C 0.25572 0.76196 0.17025 0.0
C59 C 0.25042 0.77467 0.15621 0.0
C60 C 0.25564 0.79494 0.15861 0.0
C61 C 0.26598 0.80223 0.17557 0.0
C62 C 0.2217 0.69626 0.23865 0.0
H63 H 0.35082 0.78389 0.25048 0.0
H64 H 0.31926 0.7795 0.23388 0.0
H65 H 0.32189 0.7166 0.23269 0.0
H66 H 0.35245 0.7209 0.25087 0.0
H67 H 0.30182 0.7697 0.20489 0.0
H68 H 0.28906 0.71926 0.23909 0.0
H69 H 0.24504 0.73782 0.2011 0.0
H70 H 0.22862 0.7268 0.23402 0.0
H71 H 0.27336 0.6882 0.21875 0.0
H72 H 0.25212 0.66016 0.22837 0.0
H73 H 0.27922 0.79556 0.20255 0.0
H74 H 0.25194 0.74637 0.16769 0.0
H75 H 0.20753 0.69891 0.24458 0.0
H76 H 0.26999 0.8178 0.17798 0.0
H77 H 0.24276 0.76853 0.14316 0.0
C78 C 0.98016 0.48992 0.14031 0.0
C79 C 0.99867 0.48242 0.13998 0.0
C80 C 0.96829 0.48857 0.12357 0.0
C81 C 0.9747 0.47987 0.10602 0.0
C82 C 0.99315 0.47227 0.10574 0.0
C83 C 0.0049 0.4734 0.12252 0.0
C84 C 0.96243 0.47897 0.08795 0.0
C85 C 0.95154 0.49471 0.08345 0.0
C86 C 0.94061 0.49423 0.06598 0.0
C87 C 0.94094 0.47785 0.05278 0.0
C88 C 0.95188 0.46208 0.05694 0.0
C89 C 0.96217 0.4626 0.07476 0.0
C90 C 0.95332 0.44538 0.04244 0.0
C91 C 0.93701 0.43768 0.03114 0.0
C92 C 0.97129 0.43715 0.03966 0.0
C93 C 0.97288 0.42151 0.02611 0.0
C94 C 0.9566 0.41383 0.01486 0.0
C95 C 0.9292 0.511 0.06133 0.0
C96 C 0.91857 0.52052 0.07589 0.0
C97 C 0.92873 0.51752 0.04224 0.0
C98 C 0.91767 0.53296 0.03775 0.0
C99 C 0.90689 0.54239 0.05226 0.0
C100 C 0.90757 0.53605 0.07142 0.0
C101 C 0.93867 0.42211 0.0174 0.0
H102 H 0.97496 0.49721 0.1534 0.0
H103 H 0.95408 0.49437 0.12441 0.0
H104 H 0.99874 0.46572 0.09244 0.0
H105 H 0.01892 0.46722 0.12175 0.0
H106 H 0.9521 0.50767 0.09322 0.0
H107 H 0.96999 0.45014 0.07839 0.0
H108 H 0.93284 0.4775 0.03914 0.0
H109 H 0.92291 0.44351 0.03306 0.0
H110 H 0.98427 0.44299 0.04774 0.0
H111 H 0.98696 0.41562 0.0242 0.0
H112 H 0.91849 0.51577 0.09072 0.0
H113 H 0.93697 0.51074 0.03071 0.0
H114 H 0.92586 0.41635 0.00899 0.0
H115 H 0.89962 0.54309 0.083 0.0
H116 H 0.91729 0.53725 0.02277 0.0
C117 C 0.72571 0.73985 0.18627 0.0
C118 C 0.74463 0.74102 0.17842 0.0
C119 C 0.72181 0.7502 0.20366 0.0
C120 C 0.73681 0.76175 0.21393 0.0
C121 C 0.75596 0.762 0.20667 0.0
C122 C 0.7598 0.75188 0.18908 0.0
C123 C 0.73215 0.77453 0.23124 0.0
C124 C 0.71707 0.76861 0.24403 0.0
C125 C 0.71107 0.78153 0.25896 0.0
C126 C 0.72071 0.8004 0.26141 0.0
C127 C 0.73603 0.80642 0.24911 0.0
C128 C 0.74169 0.79346 0.23412 0.0
C129 C 0.74545 0.82666 0.25124 0.0
C130 C 0.73401 0.84278 0.25214 0.0
C131 C 0.76591 0.82998 0.25209 0.0
C132 C 0.77478 0.8491 0.25397 0.0
C133 C 0.76335 0.86523 0.25468 0.0
C134 C 0.69371 0.77607 0.27096 0.0
C135 C 0.67664 0.76676 0.26209 0.0
C136 C 0.69348 0.78152 0.291 0.0
C137 C 0.67631 0.77861 0.30169 0.0
C138 C 0.65899 0.77023 0.29255 0.0
C139 C 0.65948 0.76387 0.27276 0.0
C140 C 0.74289 0.86191 0.25369 0.0
H141 H 0.71371 0.73127 0.17874 0.0
H142 H 0.70683 0.74973 0.20858 0.0
H143 H 0.76798 0.77039 0.21435 0.0
H144 H 0.77455 0.75323 0.1835 0.0
H145 H 0.7098 0.75397 0.24227 0.0
H146 H 0.75287 0.7986 0.22408 0.0
H147 H 0.71598 0.81065 0.27261 0.0
H148 H 0.71819 0.84059 0.25134 0.0
H149 H 0.77502 0.81778 0.25146 0.0
H150 H 0.7906 0.8513 0.25455 0.0
H151 H 0.67627 0.76251 0.24665 0.0
H152 H 0.70647 0.78852 0.2983 0.0
H153 H 0.73377 0.87411 0.2543 0.0
H154 H 0.64643 0.75713 0.26537 0.0
H155 H 0.67638 0.78376 0.31688 0.0
C156 C 0.00096 0.97648 0.39625 0.0
C157 C 0.00772 0.98544 0.37936 0.0
C158 C 0.01399 0.97314 0.41122 0.0
C159 C 0.03416 0.9784 0.40949 0.0
C160 C 0.04094 0.98684 0.39224 0.0
C161 C 0.02783 0.99048 0.37741 0.0
C162 C 0.0478 0.97603 0.42607 0.0
C163 C 0.04469 0.96014 0.43823 0.0
C164 C 0.05625 0.95887 0.45508 0.0
C165 C 0.07153 0.97344 0.45933 0.0
C166 C 0.07527 0.989 0.447 0.0
C167 C 0.06336 0.99026 0.43049 0.0
C168 C 0.09133 0.0043 0.45164 0.0
C169 C 0.09284 0.01384 0.47026 0.0
C170 C 0.10519 0.00948 0.43744 0.0
C171 C 0.12046 0.02382 0.44186 0.0
C172 C 0.12191 0.03345 0.46044 0.0
C173 C 0.05183 0.94285 0.46866 0.0
C174 C 0.03232 0.93641 0.47259 0.0
C175 C 0.06695 0.93429 0.47826 0.0
C176 C 0.06264 0.91985 0.49165 0.0
C177 C 0.04314 0.91351 0.49554 0.0
C178 C 0.02804 0.92185 0.48579 0.0
C179 C 0.10792 0.02842 0.47458 0.0
H180 H 0.98548 0.97266 0.39819 0.0
H181 H 0.00811 0.967 0.4244 0.0
H182 H 0.05638 0.99074 0.39019 0.0
H183 H 0.0334 0.99725 0.3644 0.0
H184 H 0.03321 0.94871 0.43458 0.0
H185 H 0.06578 0.00285 0.4216 0.0
H186 H 0.08043 0.97286 0.47238 0.0
H187 H 0.08223 0.01017 0.4814 0.0
H188 H 0.10432 0.00225 0.42301 0.0
H189 H 0.13103 0.02754 0.4307 0.0
H190 H 0.02029 0.94294 0.46582 0.0
H191 H 0.08214 0.93868 0.47539 0.0
H192 H 0.10882 0.03558 0.48904 0.0
H193 H 0.01286 0.91746 0.48873 0.0
H194 H 0.07456 0.91352 0.49885 0.0
C195 C 0.17172 0.74275 0.7178 0.0
C196 C 0.16504 0.76158 0.71687 0.0
C197 C 0.18775 0.73964 0.72964 0.0
C198 C 0.19756 0.75533 0.74071 0.0
C199 C 0.19164 0.77433 0.73882 0.0
C200 C 0.17554 0.77741 0.72712 0.0
C201 C 0.21278 0.75174 0.75538 0.0
C202 C 0.22644 0.73785 0.75154 0.0
C203 C 0.24003 0.73379 0.76595 0.0
C204 C 0.24013 0.74415 0.78419 0.0
C205 C 0.22651 0.75798 0.78837 0.0
C206 C 0.21285 0.76153 0.77388 0.0
C207 C 0.22592 0.76823 0.80802 0.0
C208 C 0.22951 0.75844 0.82507 0.0
C209 C 0.22112 0.7878 0.80989 0.0
C210 C 0.21945 0.79716 0.82827 0.0
C211 C 0.22295 0.78738 0.84536 0.0
C212 C 0.2532 0.71778 0.76259 0.0
C213 C 0.24593 0.69967 0.75372 0.0
C214 C 0.27263 0.7199 0.76957 0.0
C215 C 0.2842 0.70401 0.76854 0.0
C216 C 0.27659 0.68564 0.76053 0.0
C217 C 0.25749 0.68379 0.75269 0.0
C218 C 0.22817 0.76793 0.8435 0.0
H219 H 0.16422 0.73027 0.70981 0.0
H220 H 0.19186 0.72481 0.73078 0.0
H221 H 0.19911 0.7868 0.74686 0.0
H222 H 0.1708 0.79209 0.72688 0.0
H223 H 0.22649 0.73018 0.73734 0.0
H224 H 0.20165 0.7714 0.77727 0.0
H225 H 0.25056 0.74108 0.79534 0.0
H226 H 0.23298 0.74328 0.82428 0.0
H227 H 0.21854 0.79595 0.79713 0.0
H228 H 0.21508 0.812 0.82901 0.0
H229 H 0.23099 0.69749 0.74831 0.0
H230 H 0.27875 0.73374 0.77625 0.0
H231 H 0.23127 0.75998 0.85626 0.0
H232 H 0.2513 0.66991 0.74616 0.0
H233 H 0.29882 0.7059 0.7748 0.0
C234 C 0.97187 0.61776 0.53054 0.0
C235 C 0.9711 0.61947 0.55104 0.0
C236 C 0.97191 0.59938 0.52082 0.0
C237 C 0.97096 0.58228 0.53134 0.0
C238 C 0.96975 0.58386 0.55177 0.0
C239 C 0.96994 0.60228 0.56154 0.0
C240 C 0.97122 0.56288 0.52089 0.0
C241 C 0.98497 0.55996 0.50624 0.0
C242 C 0.98472 0.54199 0.4955 0.0
C243 C 0.97062 0.52679 0.49956 0.0
C244 C 0.95632 0.52966 0.51378 0.0
C245 C 0.95699 0.54767 0.52466 0.0
C246 C 0.93946 0.51484 0.51571 0.0
C247 C 0.93057 0.50525 0.49893 0.0
C248 C 0.93119 0.51128 0.53403 0.0
C249 C 0.91397 0.49902 0.53542 0.0
C250 C 0.90471 0.49006 0.51853 0.0
C251 C 0.99796 0.53975 0.4788 0.0
C252 C 0.99877 0.5536 0.46436 0.0
C253 C 0.00918 0.52353 0.47673 0.0
C254 C 0.02105 0.52122 0.46042 0.0
C255 C 0.0215 0.53487 0.44579 0.0
C256 C 0.01033 0.55111 0.44793 0.0
C257 C 0.91347 0.49295 0.50034 0.0
H258 H 0.97231 0.63062 0.52194 0.0
H259 H 0.97247 0.59853 0.50502 0.0
H260 H 0.96909 0.57086 0.56019 0.0
H261 H 0.96958 0.60306 0.57734 0.0
H262 H 0.99585 0.57174 0.50308 0.0
H263 H 0.94574 0.55036 0.53526 0.0
H264 H 0.97026 0.51303 0.49099 0.0
H265 H 0.93634 0.50782 0.48455 0.0
H266 H 0.9378 0.51828 0.54726 0.0
H267 H 0.90755 0.49716 0.54965 0.0
H268 H 0.99009 0.56612 0.46555 0.0
H269 H 0.00875 0.51269 0.48773 0.0
H270 H 0.9069 0.48598 0.48708 0.0
H271 H 0.01056 0.56188 0.43687 0.0
H272 H 0.02952 0.50856 0.459 0.0
C273 C 0.80948 0.79206 0.85854 0.0
C274 C 0.79319 0.77921 0.86271 0.0
C275 C 0.80875 0.80461 0.84316 0.0
C276 C 0.79165 0.80471 0.83176 0.0
C277 C 0.7753 0.79199 0.83603 0.0
C278 C 0.77609 0.77929 0.85129 0.0
C279 C 0.79095 0.81796 0.81537 0.0
C280 C 0.80647 0.81959 0.8022 0.0
C281 C 0.80618 0.83226 0.78673 0.0
C282 C 0.78998 0.8433 0.7845 0.0
C283 C 0.77427 0.84185 0.79755 0.0
C284 C 0.77488 0.82908 0.81293 0.0
C285 C 0.75749 0.85409 0.79551 0.0
C286 C 0.76066 0.87375 0.79051 0.0
C287 C 0.73826 0.8464 0.79904 0.0
C288 C 0.72264 0.85821 0.798 0.0
C289 C 0.72589 0.87793 0.79327 0.0
C290 C 0.82278 0.8338 0.77291 0.0
C291 C 0.84213 0.83353 0.77972 0.0
C292 C 0.81941 0.83506 0.75278 0.0
C293 C 0.835 0.83561 0.73976 0.0
C294 C 0.85431 0.83478 0.74653 0.0
C295 C 0.85768 0.83393 0.7667 0.0
C296 C 0.74503 0.8855 0.78934 0.0
H297 H 0.82288 0.79222 0.86702 0.0
H298 H 0.82151 0.81439 0.84029 0.0
H299 H 0.76197 0.79167 0.8274 0.0
H300 H 0.76326 0.76967 0.8543 0.0
H301 H 0.81861 0.81059 0.80378 0.0
H302 H 0.76314 0.82822 0.82342 0.0
H303 H 0.78966 0.85313 0.77263 0.0
H304 H 0.77529 0.88027 0.78803 0.0
H305 H 0.73527 0.83123 0.80261 0.0
H306 H 0.70801 0.85192 0.80091 0.0
H307 H 0.84529 0.83289 0.79516 0.0
H308 H 0.80469 0.83515 0.747 0.0
H309 H 0.74804 0.90073 0.78598 0.0
H310 H 0.8723 0.83303 0.77245 0.0
H311 H 0.83188 0.83655 0.72435 0.0
C312 C 0.31256 0.30039 0.37853 0.0
C313 C 0.2949 0.28945 0.3825 0.0
C314 C 0.31439 0.31113 0.36177 0.0
C315 C 0.29856 0.31134 0.3487 0.0
C316 C 0.28071 0.30097 0.35294 0.0
C317 C 0.27893 0.29007 0.36961 0.0
C318 C 0.30091 0.32155 0.33022 0.0
C319 C 0.31727 0.31892 0.31853 0.0
C320 C 0.31936 0.32789 0.30066 0.0
C321 C 0.30497 0.33974 0.29452 0.0
C322 C 0.28872 0.34302 0.30629 0.0
C323 C 0.28675 0.33366 0.32406 0.0
C324 C 0.27441 0.357 0.30059 0.0
C325 C 0.28086 0.37455 0.29198 0.0
C326 C 0.2544 0.35347 0.30466 0.0
C327 C 0.24133 0.36753 0.30104 0.0
C328 C 0.24795 0.38541 0.29313 0.0
C329 C 0.33669 0.32488 0.2885 0.0
C330 C 0.35556 0.32758 0.2968 0.0
C331 C 0.33446 0.319 0.26865 0.0
C332 C 0.35083 0.31559 0.25736 0.0
C333 C 0.3697 0.31831 0.26566 0.0
C334 C 0.37194 0.32447 0.28544 0.0
C335 C 0.26778 0.38851 0.28819 0.0
H336 H 0.32504 0.30057 0.38831 0.0
H337 H 0.32824 0.31923 0.35897 0.0
H338 H 0.26834 0.30073 0.34301 0.0
H339 H 0.2652 0.28161 0.37201 0.0
H340 H 0.32816 0.30941 0.32308 0.0
H341 H 0.27452 0.33627 0.33349 0.0
H342 H 0.30663 0.34661 0.28067 0.0
H343 H 0.29617 0.37789 0.28878 0.0
H344 H 0.24885 0.33996 0.31097 0.0
H345 H 0.22619 0.36468 0.30514 0.0
H346 H 0.35764 0.33222 0.31207 0.0
H347 H 0.32004 0.31673 0.26196 0.0
H348 H 0.27333 0.40195 0.28176 0.0
H349 H 0.38634 0.32657 0.29219 0.0
H350 H 0.34875 0.31099 0.24209 0.0
C351 C 0.47648 0.98498 0.62999 0.0
C352 C 0.49555 0.97882 0.62929 0.0
C353 C 0.46457 0.98358 0.61329 0.0
C354 C 0.47151 0.97624 0.59537 0.0
C355 C 0.49067 0.97032 0.59461 0.0
C356 C 0.50247 0.97144 0.61137 0.0
C357 C 0.45877 0.97453 0.5776 0.0
C358 C 0.44578 0.98885 0.57397 0.0
C359 C 0.43374 0.98721 0.55717 0.0
C360 C 0.43482 0.971 0.54391 0.0
C361 C 0.44797 0.95685 0.54714 0.0
C362 C 0.45969 0.95858 0.56404 0.0
C363 C 0.45013 0.9406 0.5325 0.0
C364 C 0.43379 0.9285 0.52553 0.0
C365 C 0.46877 0.93714 0.52546 0.0
C366 C 0.47105 0.92188 0.51163 0.0
C367 C 0.45477 0.90962 0.5048 0.0
C368 C 0.42048 0.0027 0.55315 0.0
C369 C 0.40972 0.01127 0.56822 0.0
C370 C 0.41853 0.00905 0.53411 0.0
C371 C 0.40592 0.02338 0.53016 0.0
C372 C 0.39499 0.03179 0.54516 0.0
C373 C 0.39713 0.0257 0.56427 0.0
C374 C 0.43612 0.91299 0.51192 0.0
H375 H 0.47073 0.9911 0.64341 0.0
H376 H 0.44984 0.98808 0.61451 0.0
H377 H 0.49667 0.9649 0.58102 0.0
H378 H 0.51697 0.96636 0.61026 0.0
H379 H 0.44547 0.00163 0.5839 0.0
H380 H 0.46938 0.94724 0.56669 0.0
H381 H 0.42567 0.96952 0.53089 0.0
H382 H 0.41929 0.93089 0.53083 0.0
H383 H 0.48157 0.94637 0.53054 0.0
H384 H 0.48559 0.91949 0.50646 0.0
H385 H 0.41074 0.00658 0.58301 0.0
H386 H 0.42692 0.00309 0.52224 0.0
H387 H 0.42335 0.90375 0.50679 0.0
H388 H 0.38876 0.03178 0.5761 0.0
H389 H 0.40487 0.02803 0.51535 0.0
C390 C 0.2152 0.24219 0.69479 0.0
C391 C 0.23341 0.24251 0.68545 0.0
C392 C 0.21255 0.25441 0.71132 0.0
C393 C 0.22815 0.26704 0.71921 0.0
C394 C 0.24663 0.26657 0.71051 0.0
C395 C 0.24919 0.25461 0.69377 0.0
C396 C 0.22491 0.28139 0.73573 0.0
C397 C 0.21142 0.27669 0.75046 0.0
C398 C 0.20734 0.29069 0.76524 0.0
C399 C 0.21758 0.30935 0.76567 0.0
C400 C 0.23125 0.31434 0.75122 0.0
C401 C 0.23461 0.30032 0.73621 0.0
C402 C 0.2417 0.33429 0.75147 0.0
C403 C 0.23213 0.35103 0.75724 0.0
C404 C 0.2614 0.33677 0.74583 0.0
C405 C 0.27121 0.35545 0.74586 0.0
C406 C 0.26166 0.37208 0.75176 0.0
C407 C 0.19141 0.28642 0.77938 0.0
C408 C 0.17356 0.27654 0.77295 0.0
C409 C 0.19329 0.29343 0.79899 0.0
C410 C 0.17743 0.29139 0.81162 0.0
C411 C 0.15937 0.2822 0.80494 0.0
C412 C 0.15775 0.27442 0.78559 0.0
C413 C 0.24205 0.36971 0.75752 0.0
H414 H 0.20279 0.23276 0.68913 0.0
H415 H 0.19805 0.2544 0.71745 0.0
H416 H 0.25911 0.27574 0.7164 0.0
H417 H 0.26341 0.25545 0.68699 0.0
H418 H 0.20399 0.26211 0.75044 0.0
H419 H 0.2443 0.30445 0.72445 0.0
H420 H 0.21459 0.32017 0.77708 0.0
H421 H 0.21687 0.34977 0.7613 0.0
H422 H 0.26936 0.32423 0.74164 0.0
H423 H 0.28642 0.35687 0.74161 0.0
H424 H 0.17148 0.27121 0.75788 0.0
H425 H 0.20694 0.30081 0.80451 0.0
H426 H 0.23431 0.38233 0.76198 0.0
H427 H 0.14396 0.2675 0.77992 0.0
H428 H 0.17919 0.29729 0.82654 0.0
C429 C 0.83191 0.26081 0.77166 0.0
C430 C 0.84433 0.24551 0.77202 0.0
C431 C 0.81428 0.25831 0.76117 0.0
C432 C 0.80862 0.24036 0.7511 0.0
C433 C 0.82126 0.22522 0.75107 0.0
C434 C 0.83904 0.22782 0.76133 0.0
C435 C 0.7891 0.23711 0.74159 0.0
C436 C 0.78246 0.2509 0.72918 0.0
C437 C 0.76366 0.24812 0.72062 0.0
C438 C 0.75139 0.23148 0.72504 0.0
C439 C 0.75795 0.21753 0.73731 0.0
C440 C 0.77685 0.22037 0.7454 0.0
C441 C 0.74504 0.20001 0.74184 0.0
C442 C 0.72584 0.20193 0.74817 0.0
C443 C 0.752 0.18127 0.74021 0.0
C444 C 0.73996 0.16474 0.74481 0.0
C445 C 0.72084 0.16669 0.75138 0.0
C446 C 0.75721 0.2621 0.70645 0.0
C447 C 0.76222 0.28238 0.70932 0.0
C448 C 0.74679 0.25514 0.68942 0.0
C449 C 0.7421 0.26804 0.6753 0.0
C450 C 0.74782 0.28817 0.67781 0.0
C451 C 0.75764 0.29526 0.69512 0.0
C452 C 0.71389 0.18543 0.75304 0.0
H453 H 0.83575 0.27464 0.77969 0.0
H454 H 0.80474 0.27017 0.7615 0.0
H455 H 0.81726 0.21128 0.74331 0.0
H456 H 0.84832 0.21577 0.76147 0.0
H457 H 0.79221 0.2635 0.72578 0.0
H458 H 0.7818 0.20982 0.75522 0.0
H459 H 0.73677 0.22925 0.71879 0.0
H460 H 0.7202 0.21624 0.74967 0.0
H461 H 0.76673 0.17941 0.73526 0.0
H462 H 0.74569 0.15047 0.74352 0.0
H463 H 0.76991 0.28828 0.72244 0.0
H464 H 0.74294 0.2396 0.68658 0.0
H465 H 0.69915 0.18728 0.75794 0.0
H466 H 0.76204 0.31075 0.69753 0.0
H467 H 0.73478 0.2621 0.66199 0.0
C468 C 0.5331 0.61527 0.497 0.0
C469 C 0.52873 0.63431 0.50309 0.0
C470 C 0.53764 0.60183 0.51068 0.0
C471 C 0.53792 0.60713 0.53076 0.0
C472 C 0.53379 0.62624 0.53684 0.0
C473 C 0.52926 0.63968 0.52316 0.0
C474 C 0.54225 0.5927 0.54534 0.0
C475 C 0.55716 0.58007 0.54201 0.0
C476 C 0.56117 0.56628 0.55562 0.0
C477 C 0.5502 0.56519 0.57276 0.0
C478 C 0.53485 0.57729 0.57615 0.0
C479 C 0.53111 0.59114 0.56242 0.0
C480 C 0.5221 0.57466 0.59346 0.0
C481 C 0.51674 0.55572 0.59965 0.0
C482 C 0.51492 0.59085 0.60371 0.0
C483 C 0.50272 0.58812 0.61979 0.0
C484 C 0.49763 0.56917 0.62604 0.0
C485 C 0.5762 0.55232 0.55157 0.0
C486 C 0.576 0.54143 0.53367 0.0
C487 C 0.59035 0.54927 0.56574 0.0
C488 C 0.60413 0.53562 0.56204 0.0
C489 C 0.60386 0.52451 0.54418 0.0
C490 C 0.58956 0.52759 0.53007 0.0
C491 C 0.50475 0.55303 0.61578 0.0
H492 H 0.53254 0.61058 0.48168 0.0
H493 H 0.54049 0.58714 0.50554 0.0
H494 H 0.53419 0.63087 0.55218 0.0
H495 H 0.52628 0.65433 0.52832 0.0
H496 H 0.56585 0.58111 0.52891 0.0
H497 H 0.51901 0.6002 0.56462 0.0
H498 H 0.55336 0.55452 0.58324 0.0
H499 H 0.52152 0.54287 0.59183 0.0
H500 H 0.5189 0.60565 0.59946 0.0
H501 H 0.4975 0.60082 0.62752 0.0
H502 H 0.56502 0.5433 0.52263 0.0
H503 H 0.59087 0.55759 0.57962 0.0
H504 H 0.50076 0.53822 0.62003 0.0
H505 H 0.58859 0.51908 0.51632 0.0
H506 H 0.6151 0.53395 0.57312 0.0
C507 C 0.4893 0.49695 0.92886 0.0
C508 C 0.49468 0.50528 0.91121 0.0
C509 C 0.50356 0.49339 0.9426 0.0
C510 C 0.52356 0.49776 0.93881 0.0
C511 C 0.52885 0.50598 0.921 0.0
C512 C 0.51455 0.50986 0.90744 0.0
C513 C 0.53882 0.49381 0.95335 0.0
C514 C 0.53643 0.47732 0.96478 0.0
C515 C 0.55054 0.47376 0.97885 0.0
C516 C 0.56761 0.48653 0.9809 0.0
C517 C 0.57043 0.50296 0.96946 0.0
C518 C 0.55582 0.50662 0.95597 0.0
C519 C 0.58853 0.51645 0.97168 0.0
C520 C 0.59701 0.52131 0.99021 0.0
C521 C 0.59744 0.52464 0.95522 0.0
C522 C 0.61428 0.53751 0.95726 0.0
C523 C 0.62272 0.54229 0.97577 0.0
C524 C 0.5471 0.4571 0.99183 0.0
C525 C 0.5284 0.4526 -0.00053 0.0
C526 C 0.56245 0.44592 0.99715 0.0
C527 C 0.55917 0.43071 0.0099 0.0
C528 C 0.54044 0.42626 0.01747 0.0
C529 C 0.5251 0.43735 0.01207 0.0
C530 C 0.61399 0.53401 0.99221 0.0
H531 H 0.47402 0.49343 0.93214 0.0
H532 H 0.49887 0.48742 0.95627 0.0
H533 H 0.54407 0.50919 0.91735 0.0
H534 H 0.51906 0.51605 0.8938 0.0
H535 H 0.52364 0.46705 0.96257 0.0
H536 H 0.55751 0.51977 0.94781 0.0
H537 H 0.57865 0.48376 0.99155 0.0
H538 H 0.59037 0.51556 0.00324 0.0
H539 H 0.59153 0.52095 0.94069 0.0
H540 H 0.62087 0.54352 0.94432 0.0
H541 H 0.51634 0.46115 0.99603 0.0
H542 H 0.57698 0.44882 0.99134 0.0
H543 H 0.62009 0.53765 0.00668 0.0
H544 H 0.51058 0.43448 0.01793 0.0
H545 H 0.57121 0.42228 0.01368 0.0
C546 C 0.67746 0.24369 0.23011 0.0
C547 C 0.67357 0.26282 0.22556 0.0
C548 C 0.69267 0.24062 0.24296 0.0
C549 C 0.70424 0.25659 0.25169 0.0
C550 C 0.70077 0.27568 0.24677 0.0
C551 C 0.68567 0.27876 0.23376 0.0
C552 C 0.71901 0.25337 0.26684 0.0
C553 C 0.73188 0.23857 0.26405 0.0
C554 C 0.74512 0.2348 0.27887 0.0
C555 C 0.74535 0.24604 0.2966 0.0
C556 C 0.73242 0.26076 0.29972 0.0
C557 C 0.71943 0.26442 0.28466 0.0
C558 C 0.73178 0.27167 0.31898 0.0
C559 C 0.73325 0.26186 0.33639 0.0
C560 C 0.72912 0.29184 0.32011 0.0
C561 C 0.7278 0.30192 0.33823 0.0
C562 C 0.72923 0.29208 0.3556 0.0
C563 C 0.75811 0.21854 0.27625 0.0
C564 C 0.75081 0.20024 0.26785 0.0
C565 C 0.77764 0.22093 0.2829 0.0
C566 C 0.78944 0.20523 0.28161 0.0
C567 C 0.78199 0.18678 0.27365 0.0
C568 C 0.7626 0.18454 0.26657 0.0
C569 C 0.73205 0.27196 0.35449 0.0
H570 H 0.66827 0.23107 0.22438 0.0
H571 H 0.69485 0.22576 0.24669 0.0
H572 H 0.70964 0.28824 0.25313 0.0
H573 H 0.68335 0.29366 0.23032 0.0
H574 H 0.73164 0.23007 0.25028 0.0
H575 H 0.70895 0.27528 0.28712 0.0
H576 H 0.75535 0.24305 0.30817 0.0
H577 H 0.73491 0.24626 0.33607 0.0
H578 H 0.72819 0.2999 0.30699 0.0
H579 H 0.72592 0.31748 0.33863 0.0
H580 H 0.73575 0.19783 0.26284 0.0
H581 H 0.78379 0.23494 0.28917 0.0
H582 H 0.73295 0.26393 0.36764 0.0
H583 H 0.7563 0.17045 0.26062 0.0
H584 H 0.80441 0.20753 0.28691 0.0
C585 C 0.44545 0.14561 0.00189 0.0
C586 C 0.44004 0.14537 0.02157 0.0
C587 C 0.43951 0.12986 0.98893 0.0
C588 C 0.42826 0.11339 0.99543 0.0
C589 C 0.42271 0.11329 0.01514 0.0
C590 C 0.42844 0.12918 0.02805 0.0
C591 C 0.42277 0.09622 0.9818 0.0
C592 C 0.43611 0.09008 0.96777 0.0
C593 C 0.43124 0.07379 0.95489 0.0
C594 C 0.41277 0.06351 0.9562 0.0
C595 C 0.39943 0.06922 0.97035 0.0
C596 C 0.40444 0.08561 0.98301 0.0
C597 C 0.38064 0.0574 0.97255 0.0
C598 C 0.36837 0.05225 0.95633 0.0
C599 C 0.37535 0.05048 0.99082 0.0
C600 C 0.35836 0.03811 0.99277 0.0
C601 C 0.3461 0.03264 0.97652 0.0
C602 C 0.4457 0.06726 0.94051 0.0
C603 C 0.45719 0.08107 0.93016 0.0
C604 C 0.44846 0.04724 0.93736 0.0
C605 C 0.4625 0.04118 0.92423 0.0
C606 C 0.47407 0.05502 0.91397 0.0
C607 C 0.47123 0.07503 0.91706 0.0
C608 C 0.35117 0.04013 0.95833 0.0
H609 H 0.45419 0.15806 0.99651 0.0
H610 H 0.44372 0.13062 0.97378 0.0
H611 H 0.41433 0.10074 0.02074 0.0
H612 H 0.42425 0.12858 0.04322 0.0
H613 H 0.45061 0.0976 0.96728 0.0
H614 H 0.39392 0.09017 0.99367 0.0
H615 H 0.40887 0.05085 0.94641 0.0
H616 H 0.3721 0.05758 0.94212 0.0
H617 H 0.38473 0.05408 0.00349 0.0
H618 H 0.35522 0.03236 0.00693 0.0
H619 H 0.4553 0.09659 0.93215 0.0
H620 H 0.43998 0.03625 0.94528 0.0
H621 H 0.34193 0.03655 0.94557 0.0
H622 H 0.48005 0.08608 0.90956 0.0
H623 H 0.4642 0.02564 0.92202 0.0
O624 O 0.22496 0.86475 0.9847 0.0
Cd625 Cd 0.23024 0.88378 0.00893 0.0
Cd626 Cd 0.20229 0.90229 0.99259 0.0
O627 O 0.19908 0.87799 0.97374 0.0
O628 O 0.24732 0.86986 0.0261 0.0
O629 O 0.21779 0.87757 0.03465 0.0
C630 C 0.23365 0.86966 0.03888 0.0
C631 C 0.17661 0.91386 0.01022 0.0
C632 C 0.211 0.86476 0.97241 0.0
C633 C 0.24116 0.92411 0.99488 0.0
O634 O 0.2244 0.92316 0.98677 0.0
O635 O 0.24586 0.91046 0.00543 0.0
O636 O 0.17746 0.91514 0.99155 0.0
O637 O 0.18999 0.90515 0.01891 0.0
O638 O 0.15138 0.54788 0.29266 0.0
Cd639 Cd 0.1388 0.52139 0.30157 0.0
Cd640 Cd 0.10723 0.53288 0.28084 0.0
O641 O 0.12717 0.55543 0.27383 0.0
O642 O 0.16111 0.50818 0.31185 0.0
O643 O 0.14338 0.49631 0.28622 0.0
C644 C 0.15774 0.49469 0.29818 0.0
C645 C 0.08676 0.51903 0.25573 0.0
C646 C 0.14434 0.5592 0.28079 0.0
C647 C 0.10235 0.52736 0.32396 0.0
O648 O 0.09532 0.53319 0.30831 0.0
O649 O 0.11933 0.52129 0.32427 0.0
O650 O 0.08416 0.53589 0.264 0.0
O651 O 0.10127 0.50988 0.26164 0.0
O652 O 0.77482 0.69204 0.98715 0.0
Cd653 Cd 0.76409 0.67428 0.00865 0.0
Cd654 Cd 0.78598 0.64812 0.99018 0.0
O655 O 0.7914 0.67028 0.97113 0.0
O656 O 0.75243 0.69269 0.02765 0.0
O657 O 0.77653 0.67486 0.03544 0.0
C658 C 0.7644 0.68757 0.04064 0.0
C659 C 0.81206 0.6334 0.00346 0.0
C660 C 0.78541 0.68735 0.97283 0.0
C661 C 0.74317 0.63636 0.99304 0.0
O662 O 0.75974 0.63124 0.9876 0.0
O663 O 0.74168 0.65315 0.00139 0.0
O664 O 0.80666 0.62983 0.9855 0.0
O665 O 0.80278 0.64574 0.01394 0.0
O666 O 0.90055 0.01072 0.26961 0.0
Cd667 Cd 0.87976 0.01588 0.249 0.0
Cd668 Cd 0.86277 0.03168 0.27984 0.0
O669 O 0.88899 0.02863 0.2938 0.0
O670 O 0.89269 0.01159 0.22346 0.0
O671 O 0.88364 0.04046 0.2341 0.0
C672 C 0.89186 0.03 0.22084 0.0
C673 C 0.85069 0.06236 0.27849 0.0
C674 C 0.90209 0.01821 0.28694 0.0
C675 C 0.84211 0.99539 0.2611 0.0
O676 O 0.84333 0.00704 0.27617 0.0
O677 O 0.85449 0.99741 0.24751 0.0
O678 O 0.84919 0.05259 0.29411 0.0
O679 O 0.85933 0.05471 0.26364 0.0
O680 O 0.26248 0.19102 0.49758 0.0
Cd681 Cd 0.25205 0.17081 0.5172 0.0
Cd682 Cd 0.2764 0.1479 0.49642 0.0
O683 O 0.2833 0.17311 0.48203 0.0
O684 O 0.23795 0.18708 0.5363 0.0
O685 O 0.26331 0.17116 0.54451 0.0
C686 C 0.24994 0.18259 0.54957 0.0
C687 C 0.30148 0.13009 0.50737 0.0
C688 C 0.27536 0.18915 0.48454 0.0
C689 C 0.23377 0.1343 0.49589 0.0
O690 O 0.25056 0.1318 0.48899 0.0
O691 O 0.23137 0.14862 0.5079 0.0
O692 O 0.29706 0.13032 0.4891 0.0
O693 O 0.29184 0.14045 0.51961 0.0
O694 O 0.40322 0.51726 0.7863 0.0
Cd695 Cd 0.38792 0.51917 0.76067 0.0
Cd696 Cd 0.36297 0.53635 0.7846 0.0
O697 O 0.38467 0.53458 0.80541 0.0
O698 O 0.40694 0.51286 0.74008 0.0
O699 O 0.3947 0.5417 0.7434 0.0
C700 C 0.4062 0.5304 0.73432 0.0
C701 C 0.35011 0.56628 0.7802 0.0
C702 C 0.39972 0.52512 0.80293 0.0
C703 C 0.34833 0.49806 0.76424 0.0
O704 O 0.34491 0.51135 0.77707 0.0
O705 O 0.36447 0.49894 0.75524 0.0
O706 O 0.34543 0.556 0.79497 0.0
O707 O 0.36254 0.55968 0.76797 0.0
O708 O 0.73741 0.36227 0.49934 0.0
Cd709 Cd 0.74648 0.37662 0.52537 0.0
Cd710 Cd 0.73043 0.40791 0.5082 0.0
O711 O 0.72632 0.38742 0.48509 0.0
O712 O 0.75528 0.35552 0.54127 0.0
O713 O 0.73125 0.37346 0.55029 0.0
C714 C 0.74246 0.35983 0.55405 0.0
C715 C 0.70528 0.428 0.51544 0.0
C716 C 0.73 0.36951 0.48456 0.0
C717 C 0.7729 0.41326 0.52023 0.0
O718 O 0.7582 0.42092 0.51348 0.0
O719 O 0.77132 0.39566 0.52536 0.0
O720 O 0.71613 0.4304 0.50036 0.0
O721 O 0.7084 0.41374 0.52638 0.0
O722 O 0.63582 0.03919 0.80016 0.0
Cd723 Cd 0.61986 0.014 0.80771 0.0
Cd724 Cd 0.59501 0.02248 0.77824 0.0
O725 O 0.6173 0.04411 0.77472 0.0
O726 O 0.63787 0.99674 0.81975 0.0
O727 O 0.62262 0.98932 0.79138 0.0
C728 C 0.63463 0.98476 0.80472 0.0
C729 C 0.57807 0.01077 0.74981 0.0
C730 C 0.6323 0.04892 0.78542 0.0
C731 C 0.57984 0.02115 0.81997 0.0
O732 O 0.57697 0.02408 0.80208 0.0
O733 O 0.59638 0.01657 0.82582 0.0
O734 O 0.57603 0.02792 0.75765 0.0
O735 O 0.59027 0.00015 0.75784 0.0
O736 O 0.97485 0.28703 0.91937 0.0
Cd737 Cd 0.97943 0.26245 0.90209 0.0
Cd738 Cd 0.99613 0.28881 0.87847 0.0
O739 O 0.98935 0.30877 0.90045 0.0
O740 O 0.97527 0.24002 0.91937 0.0
O741 O 0.00392 0.24899 0.90654 0.0
C742 C 0.99361 0.23754 0.9176 0.0
C743 C 0.0284 0.28775 0.86855 0.0
C744 C 0.98025 0.30472 0.91601 0.0
C745 C 0.96119 0.26428 0.86228 0.0
O746 O 0.97414 0.27811 0.85922 0.0
O747 O 0.96102 0.25576 0.87834 0.0
O748 O 0.01784 0.30131 0.86312 0.0
O749 O 0.02058 0.2748 0.87981 0.0
O750 O 0.47053 0.78203 0.40874 0.0
Cd751 Cd 0.4758 0.75727 0.39179 0.0
Cd752 Cd 0.49912 0.78259 0.37303 0.0
O753 O 0.49453 0.80108 0.39684 0.0
O754 O 0.46813 0.73459 0.40786 0.0
O755 O 0.49863 0.74242 0.39896 0.0
C756 C 0.48636 0.73123 0.40843 0.0
C757 C 0.53085 0.78006 0.36182 0.0
C758 C 0.48091 0.79829 0.40909 0.0
C759 C 0.46363 0.76406 0.35136 0.0
O760 O 0.47714 0.77793 0.35218 0.0
O761 O 0.46138 0.75259 0.3653 0.0
O762 O 0.52158 0.79532 0.35901 0.0
O763 O 0.52219 0.76622 0.3715 0.0
O764 O 0.97914 0.79716 0.66616 0.0
Cd765 Cd -0.00062 0.78155 0.65142 0.0
Cd766 Cd 0.98399 0.79769 0.61963 0.0
O767 O 0.96501 0.80786 0.64024 0.0
O768 O 0.01665 0.77311 0.6722 0.0
O769 O 0.02756 0.79183 0.6486 0.0
C770 C 0.03116 0.78241 0.66391 0.0
C771 C 0.99703 0.81984 0.59752 0.0
C772 C 0.9659 0.8064 0.65861 0.0
C773 C 0.98294 0.75381 0.61902 0.0
O774 O 0.98008 0.76882 0.60958 0.0
O775 O 0.98982 0.75572 0.63631 0.0
O776 O 0.97905 0.81273 0.59637 0.0
O777 O 0.00778 0.81444 0.6115 0.0
O778 O 0.48924 0.27899 0.17424 0.0
Cd779 Cd 0.5094 0.27101 0.15372 0.0
Cd780 Cd 0.49255 0.29726 0.13223 0.0
O781 O 0.47906 0.30344 0.15824 0.0
O782 O 0.52922 0.25729 0.16774 0.0
O783 O 0.53619 0.28536 0.15363 0.0
C784 C 0.54198 0.27125 0.16346 0.0
C785 C 0.50407 0.32344 0.11383 0.0
C786 C 0.47879 0.29342 0.17334 0.0
C787 C 0.48819 0.25514 0.11746 0.0
O788 O 0.48259 0.27223 0.11599 0.0
O789 O 0.49992 0.25172 0.13104 0.0
O790 O 0.48565 0.31861 0.11561 0.0
O791 O 0.5162 0.31357 0.12297 0.0
H792 H 0.23197 0.82624 0.85604 0.0
H793 H 0.2094 0.7714 0.8793 0.0
H794 H 0.22678 0.84309 0.88742 0.0
H795 H 0.20538 0.78836 0.91108 0.0
H796 H 0.229 0.8306 0.9674 0.0
H797 H 0.2309 0.81026 0.93712 0.0
H798 H 0.19345 0.84759 0.90812 0.0
H799 H 0.19113 0.86766 0.93829 0.0
C800 C 0.22583 0.81774 0.86773 0.0
C801 C 0.22091 0.79743 0.86494 0.0
C802 C 0.223 0.82742 0.88574 0.0
C803 C 0.21558 0.81699 0.90151 0.0
C804 C 0.21117 0.79665 0.89907 0.0
C805 C 0.21363 0.78698 0.8809 0.0
C806 C 0.22088 0.83423 0.95466 0.0
C807 C 0.21 0.85079 0.95521 0.0
C808 C 0.22195 0.82259 0.9374 0.0
C809 C 0.21246 0.82756 0.92037 0.0
C810 C 0.20099 0.84361 0.92109 0.0
C811 C 0.19961 0.855 0.93839 0.0
H812 H 0.00904 0.53446 0.40816 0.0
H813 H 0.06032 0.52921 0.44368 0.0
H814 H 0.02843 0.53135 0.37874 0.0
H815 H 0.08012 0.52703 0.4143 0.0
H816 H 0.10722 0.50732 0.35692 0.0
H817 H 0.0874 0.50769 0.38628 0.0
H818 H 0.05191 0.54961 0.36118 0.0
H819 H 0.07109 0.54844 0.3316 0.0
C820 C 0.02454 0.53275 0.40959 0.0
C821 C 0.03326 0.53216 0.42808 0.0
C822 C 0.03571 0.5311 0.39277 0.0
C823 C 0.05594 0.52917 0.39408 0.0
C824 C 0.06457 0.52825 0.41268 0.0
C825 C 0.05329 0.52958 0.42952 0.0
C826 C 0.09514 0.51657 0.35771 0.0
C827 C 0.09065 0.52778 0.34194 0.0
C828 C 0.08384 0.51687 0.37458 0.0
C829 C 0.06797 0.52862 0.37614 0.0
C830 C 0.0637 0.54002 0.36038 0.0
C831 C 0.07479 0.53947 0.34343 0.0
H832 H 0.80735 0.78786 0.89975 0.0
H833 H 0.78084 0.74028 0.86227 0.0
H834 H 0.80793 0.76586 0.92672 0.0
H835 H 0.78117 0.71838 0.88927 0.0
H836 H 0.80117 0.68028 0.93686 0.0
H837 H 0.80493 0.7027 0.91032 0.0
H838 H 0.78256 0.74851 0.9472 0.0
H839 H 0.77884 0.7262 0.97377 0.0
C840 C 0.80178 0.77267 0.89725 0.0
C841 C 0.79399 0.76578 0.87894 0.0
C842 C 0.802 0.76014 0.91271 0.0
C843 C 0.79461 0.74042 0.91008 0.0
C844 C 0.78715 0.73346 0.89167 0.0
C845 C 0.78676 0.74603 0.87628 0.0
C846 C 0.79727 0.6952 0.9394 0.0
C847 C 0.7896 0.70142 0.95741 0.0
C848 C 0.79932 0.70799 0.92416 0.0
C849 C 0.79392 0.7273 0.92666 0.0
C850 C 0.78696 0.73375 0.94489 0.0
C851 C 0.78475 0.72092 0.96007 0.0
H852 H 0.00485 0.02063 0.36321 0.0
H853 H 0.97875 0.96103 0.36171 0.0
H854 H 0.98011 0.02912 0.33981 0.0
H855 H 0.95414 0.96946 0.33819 0.0
H856 H 0.92665 0.98908 0.28133 0.0
H857 H 0.9533 0.9813 0.30269 0.0
H858 H 0.94218 0.03033 0.34188 0.0
H859 H 0.91532 0.03804 0.3207 0.0
C860 C 0.99396 0.00932 0.35766 0.0
C861 C 0.99365 0.99019 0.36421 0.0
C862 C 0.97978 0.0142 0.34443 0.0
C863 C 0.96526 -6e-05 0.33727 0.0
C864 C 0.96527 0.98068 0.34342 0.0
C865 C 0.97924 0.97589 0.35691 0.0
C866 C 0.92995 0.99829 0.29444 0.0
C867 C 0.91885 0.01415 0.29937 0.0
C868 C 0.94514 0.99376 0.30667 0.0
C869 C 0.94974 0.00521 0.32389 0.0
C870 C 0.93898 0.02136 0.3286 0.0
C871 C 0.92357 0.0257 0.31654 0.0
H872 H 0.20635 0.23542 0.65582 0.0
H873 H 0.26548 0.22448 0.67167 0.0
H874 H 0.21027 0.21918 0.62415 0.0
H875 H 0.26993 0.20963 0.63917 0.0
H876 H 0.26618 0.16998 0.58294 0.0
H877 H 0.26183 0.18267 0.61649 0.0
H878 H 0.22617 0.22641 0.59507 0.0
H879 H 0.2298 0.21323 0.56198 0.0
C880 C 0.22017 0.22943 0.65268 0.0
C881 C 0.23561 0.23139 0.66644 0.0
C882 C 0.22255 0.2204 0.63427 0.0
C883 C 0.24055 0.21339 0.62888 0.0
C884 C 0.25584 0.21479 0.64279 0.0
C885 C 0.25336 0.22359 0.66137 0.0
C886 C 0.25741 0.18229 0.5855 0.0
C887 C 0.24821 0.19051 0.56987 0.0
C888 C 0.25497 0.18962 0.60469 0.0
C889 C 0.24345 0.20545 0.60858 0.0
C890 C 0.23467 0.21387 0.59278 0.0
C891 C 0.23689 0.2064 0.57373 0.0
H892 H 0.5034 0.546 0.65625 0.0
H893 H 0.46306 0.58505 0.6343 0.0
H894 H 0.48119 0.53808 0.68275 0.0
H895 H 0.4405 0.57684 0.66072 0.0
H896 H 0.41254 0.56778 0.72156 0.0
H897 H 0.4351 0.5789 0.69611 0.0
H898 H 0.45019 0.51936 0.68501 0.0
H899 H 0.42821 0.50842 0.71052 0.0
C900 C 0.48974 0.55288 0.65712 0.0
C901 C 0.48484 0.56595 0.6431 0.0
C902 C 0.47698 0.5483 0.67225 0.0
C903 C 0.4589 0.55656 0.67366 0.0
C904 C 0.45434 0.57029 0.6601 0.0
C905 C 0.46723 0.57498 0.64497 0.0
C906 C 0.42065 0.5571 0.71359 0.0
C907 C 0.41871 0.53725 0.71815 0.0
C908 C 0.43352 0.56346 0.699 0.0
C909 C 0.44465 0.55006 0.68872 0.0
C910 C 0.44223 0.53016 0.69297 0.0
C911 C 0.42949 0.52385 0.70752 0.0
H912 H 0.77461 0.31537 0.66392 0.0
H913 H 0.71515 0.29036 0.65496 0.0
H914 H 0.77189 0.33413 0.63488 0.0
H915 H 0.71251 0.30913 0.62566 0.0
H916 H 0.71436 0.36109 0.58242 0.0
H917 H 0.71424 0.34538 0.61387 0.0
H918 H 0.76866 0.32106 0.59919 0.0
H919 H 0.76876 0.33638 0.568 0.0
C920 C 0.76082 0.3142 0.65598 0.0
C921 C 0.74512 0.30134 0.66166 0.0
C922 C 0.75933 0.32481 0.63927 0.0
C923 C 0.74205 0.32292 0.62798 0.0
C924 C 0.72597 0.31087 0.63417 0.0
C925 C 0.72753 0.30006 0.65081 0.0
C926 C 0.72623 0.35231 0.58593 0.0
C927 C 0.74157 0.34998 0.57275 0.0
C928 C 0.72613 0.34334 0.60387 0.0
C929 C 0.74155 0.33222 0.60898 0.0
C930 C 0.75675 0.3298 0.59572 0.0
C931 C 0.75671 0.33848 0.57779 0.0
H932 H 0.53527 0.98825 0.63195 0.0
H933 H 0.48471 0.97302 0.66714 0.0
H934 H 0.55558 0.99279 0.66144 0.0
H935 H 0.50499 0.97857 0.69656 0.0
H936 H 0.5433 0.02295 0.73891 0.0
H937 H 0.52363 0.01234 0.71001 0.0
H938 H 0.56634 0.97227 0.69232 0.0
H939 H 0.58604 0.98261 0.72174 0.0
C940 C 0.52849 0.98556 0.64587 0.0
C941 C 0.50824 0.98044 0.64711 0.0
C942 C 0.54016 0.98821 0.66274 0.0
C943 C 0.53178 0.98607 0.68117 0.0
C944 C 0.51173 0.98043 0.68246 0.0
C945 C 0.50011 0.97746 0.66561 0.0
C946 C 0.54849 0.0118 0.72893 0.0
C947 C 0.56622 0.00364 0.7325 0.0
C948 C 0.53716 0.00566 0.71249 0.0
C949 C 0.54349 0.99148 0.69906 0.0
C950 C 0.56122 0.98323 0.70254 0.0
C951 C 0.5724 0.9891 0.71931 0.0
H952 H 0.88144 0.23738 0.76188 0.0
H953 H 0.84734 0.25812 0.81017 0.0
H954 H 0.91074 0.24032 0.78295 0.0
H955 H 0.87646 0.26095 0.83115 0.0
H956 H 0.92689 0.24209 0.86739 0.0
H957 H 0.8992 0.23654 0.84474 0.0
H958 H 0.93166 0.26917 0.80166 0.0
H959 H 0.95945 0.27494 0.82437 0.0
C960 C 0.88024 0.24253 0.77699 0.0
C961 C 0.8622 0.24761 0.78442 0.0
C962 C 0.89696 0.24428 0.78897 0.0
C963 C 0.89577 0.25075 0.80866 0.0
C964 C 0.87771 0.25574 0.81607 0.0
C965 C 0.86112 0.2543 0.80404 0.0
C966 C 0.92826 0.2479 0.85302 0.0
C967 C 0.94533 0.25908 0.84774 0.0
C968 C 0.91236 0.2448 0.84011 0.0
C969 C 0.91328 0.25257 0.82156 0.0
C970 C 0.93063 0.26298 0.81589 0.0
C971 C 0.94648 0.26633 0.82891 0.0
H972 H 0.44147 0.87117 0.50681 0.0
H973 H 0.47416 0.91142 0.47044 0.0
H974 H 0.44777 0.84391 0.48404 0.0
H975 H 0.47981 0.88446 0.44718 0.0
H976 H 0.50494 0.83066 0.42032 0.0
H977 H 0.4982 0.85717 0.44355 0.0
H978 H 0.44054 0.8289 0.45291 0.0
H979 H 0.44773 0.8019 0.43032 0.0
C980 C 0.44975 0.87417 0.49375 0.0
C981 C 0.45743 0.89331 0.49038 0.0
C982 C 0.45332 0.85859 0.48066 0.0
C983 C 0.46443 0.86191 0.46378 0.0
C984 C 0.47162 0.88123 0.46023 0.0
C985 C 0.46829 0.89672 0.47347 0.0
C986 C 0.49085 0.83008 0.42739 0.0
C987 C 0.47687 0.8142 0.42349 0.0
C988 C 0.4869 0.84538 0.44062 0.0
C989 C 0.46874 0.84532 0.45004 0.0
C990 C 0.45479 0.82934 0.44617 0.0
C991 C 0.45886 0.81389 0.43314 0.0
H992 H 0.13132 0.25197 0.80953 0.0
H993 H 0.14762 0.31224 0.82845 0.0
H994 H 0.10052 0.2532 0.82706 0.0
H995 H 0.11709 0.31332 0.84631 0.0
H996 H 0.04981 0.31504 0.84829 0.0
H997 H 0.08259 0.31316 0.83539 0.0
H998 H 0.08586 0.25677 0.86021 0.0
H999 H 0.05285 0.25858 0.8731 0.0
C1000 C 0.12842 0.26539 0.81763 0.0
C1001 C 0.14184 0.28204 0.81752 0.0
C1002 C 0.11088 0.26604 0.8278 0.0
C1003 C 0.10634 0.2834 0.83794 0.0
C1004 C 0.12009 0.2998 0.83844 0.0
C1005 C 0.13767 0.29912 0.82838 0.0
C1006 C 0.05753 0.30229 0.85112 0.0
C1007 C 0.0487 0.28693 0.86166 0.0
C1008 C 0.07639 0.30127 0.84384 0.0
C1009 C 0.08682 0.28483 0.84682 0.0
C1010 C 0.07811 0.26956 0.85758 0.0
C1011 C 0.05926 0.27065 0.86501 0.0
H1012 H 0.49966 0.65922 0.50606 0.0
H1013 H 0.54494 0.64107 0.46735 0.0
H1014 H 0.49006 0.68203 0.48239 0.0
H1015 H 0.53482 0.66346 0.44327 0.0
H1016 H 0.52393 0.72249 0.41578 0.0
H1017 H 0.53458 0.69872 0.43819 0.0
H1018 H 0.47424 0.68093 0.45055 0.0
H1019 H 0.46363 0.70483 0.42855 0.0
C1020 C 0.50762 0.66015 0.49252 0.0
C1021 C 0.52308 0.64834 0.48862 0.0
C1022 C 0.50195 0.67305 0.47883 0.0
C1023 C 0.51158 0.67446 0.46087 0.0
C1024 C 0.52718 0.6628 0.45701 0.0
C1025 C 0.53284 0.64984 0.47072 0.0
C1026 C 0.51295 0.71338 0.42317 0.0
C1027 C 0.49294 0.71565 0.42049 0.0
C1028 C 0.51905 0.69972 0.43595 0.0
C1029 C 0.50525 0.68808 0.44631 0.0
C1030 C 0.48525 0.68994 0.44311 0.0
C1031 C 0.47917 0.70357 0.43038 0.0
H1032 H 0.89175 0.85214 0.75076 0.0
H1033 H 0.85427 0.81506 0.7108 0.0
H1034 H 0.91939 0.84803 0.72913 0.0
H1035 H 0.88175 0.81146 0.68906 0.0
H1036 H 0.93191 0.82092 0.64711 0.0
H1037 H 0.90519 0.83064 0.66777 0.0
H1038 H 0.93842 0.81925 0.71909 0.0
H1039 H 0.96519 0.80956 0.69851 0.0
C1040 C 0.88936 0.84318 0.73736 0.0
C1041 C 0.87077 0.83384 0.7326 0.0
C1042 C 0.90518 0.8409 0.72496 0.0
C1043 C 0.90271 0.82942 0.70744 0.0
C1044 C 0.88403 0.82063 0.70235 0.0
C1045 C 0.86826 0.82274 0.71481 0.0
C1046 C 0.93364 0.82073 0.66281 0.0
C1047 C 0.95063 0.81431 0.67116 0.0
C1048 C 0.91829 0.82621 0.67461 0.0
C1049 C 0.91969 0.82559 0.69501 0.0
C1050 C 0.937 0.82001 0.70341 0.0
C1051 C 0.95228 0.81435 0.69161 0.0
H1052 H 0.05846 0.91194 0.53229 0.0
H1053 H 0.01701 0.8814 0.49142 0.0
H1054 H 0.04833 0.88893 0.55711 0.0
H1055 H 0.00719 0.85814 0.51596 0.0
H1056 H 0.9765 0.83686 0.56991 0.0
H1057 H 0.98891 0.85879 0.54536 0.0
H1058 H 0.04781 0.85543 0.56703 0.0
H1059 H 0.0352 0.83377 0.59217 0.0
C1060 C 0.04742 0.90009 0.52854 0.0
C1061 C 0.03836 0.89855 0.51002 0.0
C1062 C 0.04164 0.88689 0.54273 0.0
C1063 C 0.02677 0.87182 0.53862 0.0
C1064 C 0.01833 0.86986 0.51979 0.0
C1065 C 0.02399 0.88313 0.5057 0.0
C1066 C 0.99211 0.84078 0.56949 0.0
C1067 C 0.00488 0.83353 0.58296 0.0
C1068 C -0.00074 0.85326 0.55529 0.0
C1069 C 0.0194 0.8587 0.55404 0.0
C1070 C 0.0322 0.85163 0.56766 0.0
C1071 C 0.025 0.83918 0.58202 0.0
H1072 H 0.15593 0.79262 0.69543 0.0
H1073 H 0.13144 0.73719 0.71571 0.0
H1074 H 0.12391 0.7988 0.68239 0.0
H1075 H 0.09993 0.74286 0.70179 0.0
H1076 H 0.04197 0.7685 0.69841 0.0
H1077 H 0.07474 0.76396 0.70993 0.0
H1078 H 0.09887 0.78857 0.65765 0.0
H1079 H 0.06583 0.79364 0.64629 0.0
C1080 C 0.1438 0.78167 0.69694 0.0
C1081 C 0.14629 0.76445 0.70675 0.0
C1082 C 0.12549 0.78513 0.68929 0.0
C1083 C 0.10929 0.77145 0.69127 0.0
C1084 C 0.112 0.75391 0.70036 0.0
C1085 C 0.1302 0.7505 0.70807 0.0
C1086 C 0.05424 0.77307 0.6894 0.0
C1087 C 0.05129 0.78131 0.67138 0.0
C1088 C 0.07305 0.77031 0.69594 0.0
C1089 C 0.08943 0.77557 0.68456 0.0
C1090 C 0.08657 0.78441 0.66679 0.0
C1091 C 0.06765 0.78729 0.66027 0.0
H1092 H 0.99297 0.65285 0.54175 0.0
H1093 H 0.95109 0.63067 0.58375 0.0
H1094 H 0.99401 0.68521 0.55824 0.0
H1095 H 0.95269 0.66308 0.60059 0.0
H1096 H 0.98254 0.71841 0.63591 0.0
H1097 H 0.97848 0.68576 0.61961 0.0
H1098 H 0.97078 0.71179 0.56432 0.0
H1099 H 0.9748 0.74441 0.5805 0.0
C1100 C 0.98383 0.65489 0.55438 0.0
C1101 C 0.97185 0.63914 0.56134 0.0
C1102 C 0.9845 0.67343 0.56385 0.0
C1103 C 0.97336 0.67664 0.58062 0.0
C1104 C 0.96152 0.66093 0.58775 0.0
C1105 C 0.96068 0.64239 0.57815 0.0
C1106 C 0.97983 0.71717 0.6203 0.0
C1107 C 0.9791 0.73401 0.60948 0.0
C1108 C 0.97741 0.69848 0.61101 0.0
C1109 C 0.97443 0.6963 0.59071 0.0
C1110 C 0.97327 0.71309 0.57996 0.0
C1111 C 0.97548 0.73175 0.58926 0.0
H1112 H 0.75635 0.89581 0.23233 0.0
H1113 H 0.7917 0.88016 0.28057 0.0
H1114 H 0.77306 0.9289 0.23409 0.0
H1115 H 0.80831 0.91321 0.2824 0.0
H1116 H 0.82116 0.97956 0.29104 0.0
H1117 H 0.80008 0.94895 0.28992 0.0
H1118 H 0.80878 0.94201 0.22777 0.0
H1119 H 0.83001 0.97247 0.22884 0.0
C1120 C 0.76755 0.89954 0.24342 0.0
C1121 C 0.77281 0.88547 0.25628 0.0
C1122 C 0.77714 0.91839 0.24437 0.0
C1123 C 0.79191 0.92357 0.25841 0.0
C1124 C 0.79683 0.90964 0.27156 0.0
C1125 C 0.78747 0.89071 0.27041 0.0
C1126 C 0.81834 0.97167 0.27709 0.0
C1127 C 0.82735 0.97836 0.26004 0.0
C1128 C 0.80638 0.95411 0.27649 0.0
C1129 C 0.80293 0.9431 0.25879 0.0
C1130 C 0.81113 0.95027 0.24159 0.0
C1131 C 0.82334 0.96766 0.24223 0.0
H1132 H 0.80642 0.17669 0.30249 0.0
H1133 H 0.78469 0.15808 0.24467 0.0
H1134 H 0.82479 0.14776 0.30318 0.0
H1135 H 0.8025 0.12873 0.24567 0.0
H1136 H 0.85025 0.08604 0.24749 0.0
H1137 H 0.83531 0.11712 0.24587 0.0
H1138 H 0.8169 0.11277 0.30571 0.0
H1139 H 0.83206 0.08201 0.30745 0.0
C1140 C 0.80571 0.16653 0.28984 0.0
C1141 C 0.79404 0.16969 0.27354 0.0
C1142 C 0.81607 0.14982 0.29033 0.0
C1143 C 0.81501 0.13586 0.27454 0.0
C1144 C 0.80375 0.13926 0.25802 0.0
C1145 C 0.79337 0.15597 0.25754 0.0
C1146 C 0.84311 0.0918 0.26033 0.0
C1147 C 0.84232 0.08154 0.27759 0.0
C1148 C 0.83447 0.10954 0.25936 0.0
C1149 C 0.82491 0.11743 0.27565 0.0
C1150 C 0.82438 0.10727 0.29298 0.0
C1151 C 0.83298 0.08955 0.29393 0.0
H1152 H 0.32111 0.02922 0.00752 0.0
H1153 H 0.3316 0.00365 0.94995 0.0
H1154 H 0.29475 0.00372 0.01191 0.0
H1155 H 0.30457 0.97887 0.95413 0.0
H1156 H 0.24196 0.94942 0.96529 0.0
H1157 H 0.26606 0.97711 0.96037 0.0
H1158 H 0.29603 0.96509 0.01345 0.0
H1159 H 0.27226 0.93723 0.01824 0.0
C1160 C 0.3178 0.01827 0.99577 0.0
C1161 C 0.32868 0.01844 0.97845 0.0
C1162 C 0.30262 0.00378 0.99827 0.0
C1163 C 0.29776 0.98939 0.98337 0.0
C1164 C 0.30799 0.98996 0.96576 0.0
C1165 C 0.3234 0.00423 0.96337 0.0
C1166 C 0.25366 0.95274 0.97593 0.0
C1167 C 0.25529 0.94115 0.99211 0.0
C1168 C 0.26743 0.96851 0.97308 0.0
C1169 C 0.28278 0.97318 0.98658 0.0
C1170 C 0.2842 0.96184 0.00294 0.0
C1171 C 0.27069 0.94585 0.00559 0.0
H1172 H 0.25647 0.42467 0.30095 0.0
H1173 H 0.20915 0.3823 0.28181 0.0
H1174 H 0.23454 0.45065 0.30032 0.0
H1175 H 0.18685 0.40838 0.28217 0.0
H1176 H 0.15699 0.46506 0.26953 0.0
H1177 H 0.17876 0.43845 0.26661 0.0
H1178 H 0.20797 0.46018 0.32035 0.0
H1179 H 0.18673 0.48676 0.32303 0.0
C1180 C 0.24143 0.42089 0.29638 0.0
C1181 C 0.23461 0.40133 0.29144 0.0
C1182 C 0.22876 0.43579 0.2963 0.0
C1183 C 0.20887 0.43156 0.29146 0.0
C1184 C 0.2021 0.41213 0.28592 0.0
C1185 C 0.21484 0.39716 0.28593 0.0
C1186 C 0.16807 0.46409 0.28069 0.0
C1187 C 0.17023 0.47809 0.29643 0.0
C1188 C 0.18048 0.44883 0.27906 0.0
C1189 C 0.19524 0.44733 0.29313 0.0
C1190 C 0.19706 0.46115 0.30902 0.0
C1191 C 0.18477 0.47635 0.31061 0.0
H1192 H 0.16083 0.03063 0.45495 0.0
H1193 H 0.11933 0.07031 0.47654 0.0
H1194 H 0.18765 0.05521 0.46343 0.0
H1195 H 0.146 0.09537 0.48426 0.0
H1196 H 0.19911 0.12801 0.5148 0.0
H1197 H 0.17211 0.10375 0.50613 0.0
H1198 H 0.20324 0.08515 0.45474 0.0
H1199 H 0.23059 0.10873 0.46401 0.0
C1200 C 0.15749 0.04476 0.46129 0.0
C1201 C 0.13808 0.04861 0.46514 0.0
C1202 C 0.17282 0.05891 0.46607 0.0
C1203 C 0.16906 0.07737 0.47452 0.0
C1204 C 0.14953 0.08123 0.47813 0.0
C1205 C 0.13422 0.06695 0.47363 0.0
C1206 C 0.20014 0.11875 0.50163 0.0
C1207 C 0.217 0.12021 0.49014 0.0
C1208 C 0.1846 0.1049 0.49657 0.0
C1209 C 0.18544 0.0924 0.47972 0.0
C1210 C 0.2022 0.09419 0.46804 0.0
C1211 C 0.21786 0.10782 0.47327 0.0
H1212 H 0.71396 0.13209 0.7301 0.0
H1213 H 0.69934 0.16193 0.78433 0.0
H1214 H 0.69291 0.10323 0.73856 0.0
H1215 H 0.67827 0.13306 0.79279 0.0
H1216 H 0.6607 0.0688 0.80866 0.0
H1217 H 0.68251 0.09724 0.80055 0.0
H1218 H 0.65606 0.09584 0.74314 0.0
H1219 H 0.63419 0.06756 0.75118 0.0
C1220 C 0.7063 0.13241 0.74386 0.0
C1221 C 0.70821 0.1492 0.75656 0.0
C1222 C 0.69419 0.11598 0.74863 0.0
C1223 C 0.684 0.11597 0.76632 0.0
C1224 C 0.68609 0.13267 0.77913 0.0
C1225 C 0.69798 0.1492 0.77423 0.0
C1226 C 0.65957 0.07454 0.7943 0.0
C1227 C 0.64571 0.06596 0.78057 0.0
C1228 C 0.67198 0.09085 0.78971 0.0
C1229 C 0.67094 0.09867 0.77122 0.0
C1230 C 0.65725 0.08998 0.75744 0.0
C1231 C 0.64467 0.07387 0.7621 0.0
H1232 H 0.38941 0.06626 0.56572 0.0
H1233 H 0.36933 0.03075 0.51456 0.0
H1234 H 0.36754 0.09115 0.55737 0.0
H1235 H 0.34745 0.05537 0.50633 0.0
H1236 H 0.31018 0.12079 0.54476 0.0
H1237 H 0.33297 0.09738 0.55473 0.0
H1238 H 0.34977 0.08798 0.49461 0.0
H1239 H 0.3268 0.11085 0.48466 0.0
C1240 C 0.3802 0.0637 0.55281 0.0
C1241 C 0.38123 0.04664 0.54069 0.0
C1242 C 0.36767 0.07794 0.54803 0.0
C1243 C 0.35592 0.07536 0.53106 0.0
C1244 C 0.35666 0.05806 0.51924 0.0
C1245 C 0.36918 0.04392 0.52397 0.0
C1246 C 0.31888 0.11382 0.53373 0.0
C1247 C 0.31655 0.11752 0.51391 0.0
C1248 C 0.33197 0.10046 0.53944 0.0
C1249 C 0.343 0.0906 0.52543 0.0
C1250 C 0.34117 0.09495 0.50572 0.0
C1251 C 0.32807 0.10818 0.50003 0.0
H1252 H 0.61942 0.50016 0.56983 0.0
H1253 H 0.62141 0.51554 0.50946 0.0
H1254 H 0.64392 0.47698 0.56336 0.0
H1255 H 0.64463 0.49133 0.50269 0.0
H1256 H 0.70174 0.46347 0.50042 0.0
H1257 H 0.67748 0.48646 0.50793 0.0
H1258 H 0.64979 0.44626 0.54796 0.0
H1259 H 0.67484 0.42353 0.54102 0.0
C1260 C 0.62503 0.49861 0.55517 0.0
C1261 C 0.61843 0.50986 0.5402 0.0
C1262 C 0.63888 0.48504 0.55138 0.0
C1263 C 0.64635 0.48225 0.5325 0.0
C1264 C 0.63951 0.49329 0.5175 0.0
C1265 C 0.62589 0.507 0.52133 0.0
C1266 C 0.69046 0.45949 0.51081 0.0
C1267 C 0.69015 0.44164 0.52007 0.0
C1268 C 0.67643 0.47265 0.51504 0.0
C1269 C 0.66148 0.4682 0.52842 0.0
C1270 C 0.66119 0.45031 0.53774 0.0
C1271 C 0.67546 0.43721 0.53369 0.0
H1272 H 0.75226 0.28977 0.38789 0.0
H1273 H 0.70312 0.3185 0.36674 0.0
H1274 H 0.75053 0.30774 0.41929 0.0
H1275 H 0.70112 0.3363 0.3983 0.0
H1276 H 0.72021 0.38139 0.44853 0.0
H1277 H 0.71882 0.36211 0.41769 0.0
H1278 H 0.73119 0.31067 0.44808 0.0
H1279 H 0.73317 0.33008 0.47887 0.0
C1280 C 0.74093 0.29976 0.39006 0.0
C1281 C 0.72786 0.30276 0.37484 0.0
C1282 C 0.73988 0.31002 0.40808 0.0
C1283 C 0.72565 0.32345 0.41137 0.0
C1284 C 0.71244 0.32629 0.39618 0.0
C1285 C 0.71357 0.31609 0.37811 0.0
C1286 C 0.72244 0.36592 0.44867 0.0
C1287 C 0.72697 0.35732 0.46616 0.0
C1288 C 0.72156 0.35483 0.43097 0.0
C1289 C 0.72506 0.33486 0.43036 0.0
C1290 C 0.72882 0.3261 0.44796 0.0
C1291 C 0.72982 0.33721 0.46565 0.0
H1292 H 0.4996 0.02678 0.91849 0.0
H1293 H 0.48259 0.06897 0.87816 0.0
H1294 H 0.52455 0.01673 0.89575 0.0
H1295 H 0.50802 0.05958 0.8559 0.0
H1296 H 0.54172 0.02603 0.8116 0.0
H1297 H 0.51576 0.03258 0.83431 0.0
H1298 H 0.5558 0.02942 0.88278 0.0
H1299 H 0.58178 0.02234 0.85998 0.0
C1300 C 0.50114 0.03385 0.90475 0.0
C1301 C 0.48912 0.04868 0.90012 0.0
C1302 C 0.51558 0.02825 0.89183 0.0
C1303 C 0.51827 0.03734 0.87402 0.0
C1304 C 0.50617 0.05209 0.86939 0.0
C1305 C 0.49174 0.05766 0.88226 0.0
C1306 C 0.545 0.02661 0.8271 0.0
C1307 C 0.56387 0.02382 0.83398 0.0
C1308 C 0.53012 0.03047 0.84012 0.0
C1309 C 0.53377 0.03175 0.86034 0.0
C1310 C 0.55248 0.02838 0.86728 0.0
C1311 C 0.56739 0.02441 0.85422 0.0
H1312 H 0.26366 0.28263 0.4067 0.0
H1313 H 0.32273 0.2672 0.39662 0.0
H1314 H 0.26027 0.25943 0.43243 0.0
H1315 H 0.31976 0.24494 0.42314 0.0
H1316 H 0.29773 0.18827 0.45178 0.0
H1317 H 0.3034 0.21377 0.42861 0.0
H1318 H 0.27024 0.2524 0.46462 0.0
H1319 H 0.264 0.22659 0.48753 0.0
C1320 C 0.27599 0.27442 0.41007 0.0
C1321 C 0.29341 0.2767 0.39945 0.0
C1322 C 0.27414 0.2613 0.42503 0.0
C1323 C 0.28973 0.25023 0.42983 0.0
C1324 C 0.30736 0.253 0.41965 0.0
C1325 C 0.30916 0.266 0.4046 0.0
C1326 C 0.29178 0.20226 0.45487 0.0
C1327 C 0.2803 0.20533 0.47145 0.0
C1328 C 0.29514 0.21695 0.44161 0.0
C1329 C 0.28724 0.23515 0.44469 0.0
C1330 C 0.27627 0.23845 0.46162 0.0
C1331 C 0.27279 0.22368 0.47482 0.0
H1332 H 0.46565 0.47925 0.89625 0.0
H1333 H 0.49002 0.53913 0.89303 0.0
H1334 H 0.44183 0.48444 0.87062 0.0
H1335 H 0.46598 0.54441 0.86757 0.0
H1336 H 0.40452 0.54777 0.83699 0.0
H1337 H 0.42692 0.54343 0.8642 0.0
H1338 H 0.44696 0.4924 0.83354 0.0
H1339 H 0.425 0.49685 0.80628 0.0
C1340 C 0.46572 0.49356 0.8902 0.0
C1341 C 0.47964 0.50878 0.89652 0.0
C1342 C 0.4522 0.4965 0.87553 0.0
C1343 C 0.45214 0.51481 0.86719 0.0
C1344 C 0.4657 0.5302 0.87388 0.0
C1345 C 0.47947 0.52715 0.88831 0.0
C1346 C 0.41372 0.53564 0.83609 0.0
C1347 C 0.41305 0.52268 0.8195 0.0
C1348 C 0.42653 0.53321 0.85159 0.0
C1349 C 0.43854 0.51754 0.85092 0.0
C1350 C 0.43772 0.5045 0.83445 0.0
C1351 C 0.42524 0.50714 0.81882 0.0
H1352 H 0.77712 0.72338 0.16517 0.0
H1353 H 0.72022 0.73866 0.14653 0.0
H1354 H 0.78342 0.71105 0.132 0.0
H1355 H 0.72592 0.72513 0.11404 0.0
H1356 H 0.74796 0.72056 0.05319 0.0
H1357 H 0.74445 0.73327 0.08653 0.0
H1358 H 0.77481 0.68544 0.10755 0.0
H1359 H 0.77905 0.67316 0.07386 0.0
C1360 C 0.76591 0.72402 0.15408 0.0
C1361 C 0.74816 0.73209 0.15862 0.0
C1362 C 0.76944 0.71672 0.1351 0.0
C1363 C 0.75527 0.71724 0.12025 0.0
C1364 C 0.73737 0.72485 0.12495 0.0
C1365 C 0.73394 0.73231 0.14378 0.0
C1366 C 0.754 0.71281 0.06491 0.0
C1367 C 0.76365 0.69578 0.06093 0.0
C1368 C 0.75186 0.72001 0.08408 0.0
C1369 C 0.75901 0.7102 0.09982 0.0
C1370 C 0.7692 0.69344 0.0958 0.0
C1371 C 0.77158 0.68636 0.07651 0.0
H1372 H 0.97961 0.09034 0.15394 0.0
H1373 H 0.94608 0.05519 0.1094 0.0
H1374 H 0.95474 0.08148 0.17791 0.0
H1375 H 0.92132 0.04621 0.13343 0.0
H1376 H 0.90415 0.01097 0.18804 0.0
H1377 H 0.92295 0.0249 0.16144 0.0
H1378 H 0.91979 0.08301 0.18816 0.0
H1379 H 0.90088 0.06898 0.215 0.0
C1380 C 0.96673 0.0811 0.14916 0.0
C1381 C 0.96496 0.07323 0.12984 0.0
C1382 C 0.95247 0.07604 0.1629 0.0
C1383 C 0.9362 0.06298 0.15758 0.0
C1384 C 0.93388 0.05603 0.13801 0.0
C1385 C 0.94808 0.06113 0.12428 0.0
C1386 C 0.90721 0.02675 0.18813 0.0
C1387 C 0.90115 0.03887 0.20367 0.0
C1388 C 0.91788 0.03475 0.17281 0.0
C1389 C 0.92287 0.05505 0.17273 0.0
C1390 C 0.91625 0.06729 0.18792 0.0
C1391 C 0.90536 0.05928 0.20321 0.0
H1392 H 0.2219 0.79473 0.13689 0.0
H1393 H 0.27938 0.82504 0.14485 0.0
H1394 H 0.21601 0.81436 0.10901 0.0
H1395 H 0.27322 0.8451 0.11749 0.0
H1396 H 0.26631 0.85435 0.05209 0.0
H1397 H 0.2707 0.83811 0.08228 0.0
H1398 H 0.21145 0.84786 0.09867 0.0
H1399 H 0.20691 0.86402 0.06809 0.0
C1400 C 0.2332 0.8057 0.1328 0.0
C1401 C 0.25117 0.8082 0.14298 0.0
C1402 C 0.22973 0.8171 0.11697 0.0
C1403 C 0.24421 0.83118 0.11096 0.0
C1404 C 0.26188 0.83418 0.12161 0.0
C1405 C 0.26533 0.82283 0.13742 0.0
C1406 C 0.25421 0.85314 0.06213 0.0
C1407 C 0.23624 0.86044 0.05767 0.0
C1408 C 0.25679 0.84394 0.07953 0.0
C1409 C 0.24146 0.84178 0.09292 0.0
C1410 C 0.22349 0.8492 0.08856 0.0
C1411 C 0.22092 0.85852 0.07111 0.0
H1412 H 0.98837 0.47977 0.17844 0.0
H1413 H 0.03853 0.4902 0.14141 0.0
H1414 H 0.00949 0.48612 0.20723 0.0
H1415 H 0.05959 0.49579 0.17022 0.0
H1416 H 0.09313 0.49013 0.22795 0.0
H1417 H 0.07159 0.47845 0.20033 0.0
H1418 H 0.02895 0.5177 0.22033 0.0
H1419 H 0.05038 0.52946 0.24764 0.0
C1420 C 0.00386 0.48333 0.1764 0.0
C1421 C 0.01168 0.48463 0.15755 0.0
C1422 C 0.01595 0.48682 0.19289 0.0
C1423 C 0.03614 0.49142 0.19091 0.0
C1424 C 0.04411 0.492 0.17214 0.0
C1425 C 0.032 0.48876 0.15564 0.0
C1426 C 0.07908 0.49609 0.2265 0.0
C1427 C 0.07347 0.51077 0.23984 0.0
C1428 C 0.06682 0.48947 0.21071 0.0
C1429 C 0.04863 0.49717 0.20827 0.0
C1430 C 0.0428 0.51138 0.22198 0.0
C1431 C 0.05514 0.5182 0.23752 0.0
H1432 H 0.38566 0.73017 0.25163 0.0
H1433 H 0.3638 0.78102 0.28142 0.0
H1434 H 0.41353 0.73258 0.27422 0.0
H1435 H 0.39222 0.7839 0.30308 0.0
H1436 H 0.45599 0.79191 0.32594 0.0
H1437 H 0.431 0.78956 0.30015 0.0
H1438 H 0.41503 0.72938 0.3131 0.0
H1439 H 0.43976 0.73175 0.3392 0.0
C1440 C 0.38676 0.7419 0.26286 0.0
C1441 C 0.37229 0.75532 0.26469 0.0
C1442 C 0.40281 0.74331 0.27569 0.0
C1443 C 0.40495 0.75842 0.29031 0.0
C1444 C 0.39097 0.77224 0.29175 0.0
C1445 C 0.37474 0.77063 0.27921 0.0
C1446 C 0.4473 0.77811 0.32316 0.0
C1447 C 0.44976 0.76203 0.33465 0.0
C1448 C 0.43299 0.77681 0.30846 0.0
C1449 C 0.42116 0.75931 0.30472 0.0
C1450 C 0.42409 0.74299 0.31566 0.0
C1451 C 0.43815 0.74439 0.33063 0.0
H1452 H 0.9438 0.41037 0.97692 0.0
H1453 H 0.97393 0.38011 0.0203 0.0
H1454 H 0.94856 0.38369 0.95273 0.0
H1455 H 0.97885 0.35361 0.99614 0.0
H1456 H 0.96592 0.30102 0.9528 0.0
H1457 H 0.95891 0.32714 0.97654 0.0
H1458 H 0.97757 0.37045 0.93548 0.0
H1459 H 0.98457 0.34435 0.9116 0.0
C1460 C 0.95128 0.39794 0.9813 0.0
C1461 C 0.95854 0.3973 0.00044 0.0
C1462 C 0.95415 0.38279 0.96745 0.0
C1463 C 0.96412 0.36663 0.97257 0.0
C1464 C 0.971 0.36582 0.99183 0.0
C1465 C 0.96832 0.38103 0.0056 0.0
C1466 C 0.9685 0.31611 0.94878 0.0
C1467 C 0.97587 0.32061 0.93032 0.0
C1468 C 0.96454 0.33104 0.96242 0.0
C1469 C 0.96771 0.3508 0.95784 0.0
C1470 C 0.97483 0.35533 0.93931 0.0
C1471 C 0.97896 0.34039 0.92571 0.0
H1472 H 0.62388 0.7799 0.27889 0.0
H1473 H 0.65156 0.7598 0.33014 0.0
H1474 H 0.59335 0.78134 0.29649 0.0
H1475 H 0.62089 0.76171 0.34799 0.0
H1476 H 0.55458 0.74986 0.36456 0.0
H1477 H 0.58588 0.74635 0.34829 0.0
H1478 H 0.58248 0.80284 0.32375 0.0
H1479 H 0.55139 0.80632 0.33976 0.0
C1480 C 0.62339 0.77555 0.29385 0.0
C1481 C 0.64014 0.7697 0.3031 0.0
C1482 C 0.60595 0.77661 0.30401 0.0
C1483 C 0.6048 0.77183 0.32367 0.0
C1484 C 0.62136 0.76543 0.33283 0.0
C1485 C 0.63891 0.76448 0.32266 0.0
C1486 C 0.56061 0.76156 0.3558 0.0
C1487 C 0.55044 0.7783 0.35334 0.0
C1488 C 0.57854 0.75958 0.34655 0.0
C1489 C 0.58648 0.77422 0.33457 0.0
C1490 C 0.57654 0.79115 0.3326 0.0
C1491 C 0.55876 0.79318 0.34188 0.0
H1492 H 0.05598 0.18224 0.00644 0.0
H1493 H 0.02216 0.13376 0.97628 0.0
H1494 H 0.04502 0.20445 0.98245 0.0
H1495 H 0.01145 0.15584 0.95231 0.0
H1496 H 0.97486 0.2068 0.93529 0.0
H1497 H 0.98913 0.18342 0.95566 0.0
H1498 H 0.04678 0.21113 0.94577 0.0
H1499 H 0.03249 0.2346 0.92516 0.0
C1500 C 0.04639 0.17632 0.99459 0.0
C1501 C 0.03991 0.15629 0.99325 0.0
C1502 C 0.04025 0.18897 0.9808 0.0
C1503 C 0.02734 0.18184 0.96559 0.0
C1504 C 0.0213 0.16174 0.96397 0.0
C1505 C 0.02757 0.14908 0.9776 0.0
C1506 C 0.9906 0.20782 0.93729 0.0
C1507 C 0.00256 0.22254 0.92865 0.0
C1508 C 0.99877 0.19437 0.94888 0.0
C1509 C 0.01905 0.19548 0.95228 0.0
C1510 C 0.03109 0.21003 0.94345 0.0
C1511 C 0.02292 0.22335 0.93159 0.0
H1512 H 0.37515 0.28611 0.24202 0.0
H1513 H 0.4032 0.34223 0.26244 0.0
H1514 H 0.4034 0.28034 0.22158 0.0
H1515 H 0.43146 0.33648 0.24191 0.0
H1516 H 0.46113 0.32727 0.18054 0.0
H1517 H 0.43602 0.33335 0.20461 0.0
H1518 H 0.44013 0.27555 0.22587 0.0
H1519 H 0.46543 0.26945 0.20189 0.0
C1520 C 0.38739 0.29718 0.24212 0.0
C1521 C 0.38702 0.31464 0.25371 0.0
C1522 C 0.40359 0.29381 0.23059 0.0
C1523 C 0.41959 0.30796 0.23024 0.0
C1524 C 0.41927 0.32538 0.24191 0.0
C1525 C 0.40319 0.32862 0.25368 0.0
C1526 C 0.45686 0.31594 0.19051 0.0
C1527 C 0.46519 0.29784 0.18926 0.0
C1528 C 0.44256 0.31948 0.20433 0.0
C1529 C 0.4361 0.30488 0.21699 0.0
C1530 C 0.44478 0.28698 0.21615 0.0
C1531 C 0.45932 0.28355 0.20252 0.0
H1532 H 0.56263 0.41831 0.04904 0.0
H1533 H 0.50995 0.39815 0.01668 0.0
H1534 H 0.55494 0.39356 0.07296 0.0
H1535 H 0.50239 0.37337 0.04031 0.0
H1536 H 0.54141 0.3337 0.10166 0.0
H1537 H 0.55144 0.35812 0.07801 0.0
H1538 H 0.49174 0.37342 0.07375 0.0
H1539 H 0.48173 0.34893 0.09684 0.0
C1540 C 0.54957 0.4084 0.0469 0.0
C1541 C 0.53676 0.41029 0.03113 0.0
C1542 C 0.54517 0.39424 0.06058 0.0
C1543 C 0.52791 0.38169 0.05869 0.0
C1544 C 0.51554 0.38314 0.04248 0.0
C1545 C 0.51989 0.3973 0.0289 0.0
C1546 C 0.5305 0.3424 0.09574 0.0
C1547 C 0.51076 0.33928 0.10098 0.0
C1548 C 0.53624 0.3564 0.08224 0.0
C1549 C 0.52233 0.36751 0.07379 0.0
C1550 C 0.50274 0.36478 0.0796 0.0
C1551 C 0.49703 0.35082 0.09297 0.0
H1552 H 0.64867 0.29203 0.23016 0.0
H1553 H 0.65896 0.2409 0.19329 0.0
H1554 H 0.61835 0.29529 0.21235 0.0
H1555 H 0.62825 0.24389 0.17595 0.0
H1556 H 0.55981 0.23996 0.17558 0.0
H1557 H 0.59314 0.23933 0.18784 0.0
H1558 H 0.60408 0.3011 0.17842 0.0
H1559 H 0.57056 0.30175 0.16589 0.0
C1560 C 0.64472 0.28172 0.21802 0.0
C1561 C 0.65623 0.26608 0.21331 0.0
C1562 C 0.6273 0.28359 0.20785 0.0
C1563 C 0.6209 0.26976 0.19289 0.0
C1564 C 0.63274 0.25461 0.18761 0.0
C1565 C 0.65027 0.25285 0.19762 0.0
C1566 C 0.56934 0.2534 0.17597 0.0
C1567 C 0.56255 0.27093 0.16986 0.0
C1568 C 0.58847 0.25299 0.18285 0.0
C1569 C 0.60119 0.27015 0.18402 0.0
C1570 C 0.59453 0.28768 0.1777 0.0
C1571 C 0.57541 0.28803 0.1705 0.0
H1572 H 0.47718 0.16219 0.02654 0.0
H1573 H 0.41838 0.16533 0.04782 0.0
H1574 H 0.48876 0.18898 0.04976 0.0
H1575 H 0.42997 0.19218 0.07106 0.0
H1576 H 0.45704 0.25441 0.0923 0.0
H1577 H 0.44517 0.22786 0.06898 0.0
H1578 H 0.49126 0.19329 0.08724 0.0
H1579 H 0.5031 0.21971 0.11067 0.0
C1580 C 0.46674 0.16872 0.03612 0.0
C1581 C 0.4469 0.16176 0.03542 0.0
C1582 C 0.47338 0.1839 0.04947 0.0
C1583 C 0.46024 0.19258 0.06217 0.0
C1584 C 0.44036 0.18579 0.06133 0.0
C1585 C 0.43376 0.17039 0.04816 0.0
C1586 C 0.46465 0.24115 0.09134 0.0
C1587 C 0.48101 0.23915 0.10331 0.0
C1588 C 0.45779 0.22595 0.07808 0.0
C1589 C 0.46733 0.20859 0.07635 0.0
C1590 C 0.48374 0.20661 0.08822 0.0
C1591 C 0.49044 0.22169 0.10167 0.0
H1592 H 0.2635 0.40017 0.78149 0.0
H1593 H 0.28385 0.38833 0.72304 0.0
H1594 H 0.28313 0.43156 0.78323 0.0
H1595 H 0.30294 0.42002 0.72436 0.0
H1596 H 0.35395 0.46404 0.74346 0.0
H1597 H 0.33171 0.43468 0.73955 0.0
H1598 H 0.28777 0.46381 0.77212 0.0
H1599 H 0.31046 0.49306 0.77673 0.0
C1600 C 0.27192 0.40449 0.76888 0.0
C1601 C 0.27232 0.3918 0.7522 0.0
C1602 C 0.28311 0.42252 0.76981 0.0
C1603 C 0.29476 0.42834 0.75397 0.0
C1604 C 0.29452 0.41587 0.73701 0.0
C1605 C 0.28354 0.39774 0.73619 0.0
C1606 C 0.33949 0.46427 0.74967 0.0
C1607 C 0.33402 0.48087 0.7605 0.0
C1608 C 0.32664 0.44742 0.74731 0.0
C1609 C 0.30789 0.44679 0.75553 0.0
C1610 C 0.3022 0.46363 0.76588 0.0
C1611 C 0.31516 0.48045 0.76842 0.0
H1612 H 0.26309 0.64896 0.77041 0.0
H1613 H 0.31575 0.68277 0.75374 0.0
H1614 H 0.28163 0.62061 0.77431 0.0
H1615 H 0.3345 0.65437 0.75825 0.0
H1616 H 0.35575 0.59119 0.75021 0.0
H1617 H 0.33847 0.62032 0.74448 0.0
H1618 H 0.3063 0.61191 0.79772 0.0
H1619 H 0.32327 0.58288 0.80333 0.0
C1620 C 0.2786 0.65029 0.76736 0.0
C1621 C 0.28793 0.66813 0.76172 0.0
C1622 C 0.28928 0.6341 0.76985 0.0
C1623 C 0.30956 0.63531 0.76678 0.0
C1624 C 0.31887 0.65298 0.76066 0.0
C1625 C 0.30817 0.66927 0.75824 0.0
C1626 C 0.34506 0.59565 0.76073 0.0
C1627 C 0.34079 0.58465 0.77716 0.0
C1628 C 0.33523 0.61236 0.75748 0.0
C1629 C 0.32088 0.61827 0.77054 0.0
C1630 C 0.31701 0.60752 0.78718 0.0
C1631 C 0.32684 0.59093 0.79046 0.0
H1632 H 0.89234 0.46372 0.54565 0.0
H1633 H 0.87336 0.49083 0.49401 0.0
H1634 H 0.86023 0.44567 0.54756 0.0
H1635 H 0.84178 0.4722 0.49537 0.0
H1636 H 0.78091 0.45209 0.51375 0.0
H1637 H 0.81265 0.47079 0.51469 0.0
H1638 H 0.8402 0.41916 0.53035 0.0
H1639 H 0.80834 0.40053 0.52992 0.0
C1640 C 0.88134 0.4658 0.53471 0.0
C1641 C 0.88544 0.47864 0.51964 0.0
C1642 C 0.86302 0.45533 0.53569 0.0
C1643 C 0.84843 0.45753 0.52164 0.0
C1644 C 0.85258 0.47036 0.50658 0.0
C1645 C 0.87082 0.48082 0.50563 0.0
C1646 C 0.79371 0.44473 0.51749 0.0
C1647 C 0.7921 0.42478 0.52164 0.0
C1648 C 0.81193 0.45543 0.51793 0.0
C1649 C 0.82898 0.44641 0.52243 0.0
C1650 C 0.82733 0.42658 0.52701 0.0
C1651 C 0.80908 0.41588 0.52665 0.0
H1652 H 0.69726 0.88074 0.82046 0.0
H1653 H 0.71792 0.90459 0.76654 0.0
H1654 H 0.67244 0.90434 0.82246 0.0
H1655 H 0.69331 0.92843 0.76873 0.0
H1656 H 0.63743 0.96035 0.77214 0.0
H1657 H 0.65712 0.93217 0.76836 0.0
H1658 H 0.67516 0.94058 0.82887 0.0
H1659 H 0.65558 0.96855 0.83267 0.0
C1660 C 0.69629 0.89082 0.80887 0.0
C1661 C 0.70961 0.89091 0.7934 0.0
C1662 C 0.68219 0.90442 0.8101 0.0
C1663 C 0.68102 0.9183 0.79582 0.0
C1664 C 0.69377 0.91783 0.77989 0.0
C1665 C 0.70797 0.90432 0.77873 0.0
C1666 C 0.64543 0.95601 0.78467 0.0
C1667 C 0.64505 0.96672 0.80267 0.0
C1668 C 0.65675 0.93996 0.78248 0.0
C1669 C 0.66768 0.9342 0.79832 0.0
C1670 C 0.66673 0.94452 0.81646 0.0
C1671 C 0.65561 0.96064 0.81859 0.0
H1672 H 0.65589 0.53767 0.99663 0.0
H1673 H 0.6296 0.57781 0.95976 0.0
H1674 H 0.68519 0.56049 0.00039 0.0
H1675 H 0.65892 0.6006 0.96347 0.0
H1676 H 0.70491 0.64445 0.99602 0.0
H1677 H 0.67584 0.62156 0.99144 0.0
H1678 H 0.71242 0.57428 0.97855 0.0
H1679 H 0.74155 0.59712 0.98304 0.0
C1680 C 0.65639 0.55139 0.98938 0.0
C1681 C 0.64052 0.55601 0.97792 0.0
C1682 C 0.67318 0.56436 0.99141 0.0
C1683 C 0.67428 0.58228 0.98222 0.0
C1684 C 0.65838 0.58693 0.97081 0.0
C1685 C 0.6417 0.57385 0.96858 0.0
C1686 C 0.70677 0.62918 0.99218 0.0
C1687 C 0.72554 0.62259 0.9899 0.0
C1688 C 0.69013 0.61612 0.98946 0.0
C1689 C 0.69192 0.59618 0.98467 0.0
C1690 C 0.71065 0.58957 0.9824 0.0
C1691 C 0.7273 0.60267 0.98486 0.0
H1692 H 0.18818 0.67026 0.23419 0.0
H1693 H 0.2395 0.64551 0.25618 0.0
H1694 H 0.16773 0.64261 0.24567 0.0
H1695 H 0.21926 0.61716 0.26618 0.0
H1696 H 0.17681 0.57751 0.29914 0.0
H1697 H 0.19645 0.60654 0.28938 0.0
H1698 H 0.15899 0.60912 0.23872 0.0
H1699 H 0.13885 0.58068 0.24906 0.0
C1700 C 0.19513 0.65894 0.24145 0.0
C1701 C 0.21554 0.66018 0.24421 0.0
C1702 C 0.1834 0.64289 0.24778 0.0
C1703 C 0.1918 0.62754 0.25682 0.0
C1704 C 0.2122 0.62879 0.25955 0.0
C1705 C 0.22389 0.64495 0.25347 0.0
C1706 C 0.17276 0.58433 0.28595 0.0
C1707 C 0.15629 0.57682 0.27487 0.0
C1708 C 0.18409 0.60092 0.28027 0.0
C1709 C 0.17939 0.61021 0.2632 0.0
C1710 C 0.16288 0.60262 0.25213 0.0
C1711 C 0.15138 0.58621 0.25799 0.0
H1712 H 0.91537 0.57179 0.02719 0.0
H1713 H 0.87039 0.54913 0.0658 0.0
H1714 H 0.89391 0.59601 0.01662 0.0
H1715 H 0.84918 0.57367 0.05551 0.0
H1716 H 0.82133 0.63019 0.04204 0.0
H1717 H 0.84578 0.61026 0.05549 0.0
H1718 H 0.86271 0.59289 0.99705 0.0
H1719 H 0.83842 0.61265 0.98365 0.0
C1720 C 0.90095 0.57199 0.03347 0.0
C1721 C 0.89455 0.55834 0.0472 0.0
C1722 C 0.88871 0.58593 0.02748 0.0
C1723 C 0.86986 0.58667 0.03519 0.0
C1724 C 0.86373 0.57359 0.04948 0.0
C1725 C 0.87591 0.55953 0.05538 0.0
C1726 C 0.83045 0.6223 0.0321 0.0
C1727 C 0.82791 0.62291 0.0118 0.0
C1728 C 0.84435 0.61083 0.0398 0.0
C1729 C 0.85612 0.60002 0.02731 0.0
C1730 C 0.85399 0.60121 0.00704 0.0
C1731 C 0.83999 0.61244 -0.00063 0.0
H1732 H 0.09162 0.99546 0.02128 0.0
H1733 H 0.11831 0.00206 0.07881 0.0
H1734 H 0.11001 0.96773 0.01361 0.0
H1735 H 0.1351 0.97267 0.07192 0.0
H1736 H 0.18296 0.93807 0.04246 0.0
H1737 H 0.16118 0.96168 0.05546 0.0
H1738 H 0.11519 0.93588 0.01632 0.0
H1739 H 0.13782 0.91364 0.00221 0.0
C1740 C 0.10133 0.99095 0.03242 0.0
C1741 C 0.10373 0.00146 0.05054 0.0
C1742 C 0.11159 0.97456 0.02817 0.0
C1743 C 0.12417 0.96767 0.04211 0.0
C1744 C 0.12589 0.97762 0.0606 0.0
C1745 C 0.11597 0.9944 0.06469 0.0
C1746 C 0.16803 0.93727 0.037 0.0
C1747 C 0.16203 0.92425 0.02128 0.0
C1748 C 0.15544 0.95079 0.04448 0.0
C1749 C 0.1364 0.95117 0.03669 0.0
C1750 C 0.12993 0.9367 0.0222 0.0
C1751 C 0.14276 0.9237 0.01428 0.0
loop_
_geom_bond_atom_site_label_1
_geom_bond_atom_site_label_2
_geom_bond_distance
_geom_bond_site_symmetry_2
_ccdc_geom_bond_type
C0 C1 1.386 . S
C0 C2 1.397 . S
C0 H24 0.931 . S
C1 C0 1.386 . S
C1 C5 1.397 . S
C2 C0 1.397 . S
C2 C3 1.384 . S
C2 H25 0.930 . S
C3 C2 1.384 . S
C3 C4 1.377 . S
C3 C6 1.481 . S
C4 C3 1.377 . S
C4 C5 1.389 . S
C4 H26 0.929 . S
C5 C1 1.397 . S
C5 C4 1.389 . S
C5 H27 0.931 . S
C6 C3 1.481 . S
C6 C7 1.387 . S
C6 C11 1.390 . S
C7 C6 1.387 . S
C7 C8 1.401 . S
C7 H28 0.930 . S
C8 C7 1.401 . S
C8 C9 1.376 . S
C8 C17 1.511 . S
C9 C8 1.376 . S
C9 C10 1.392 . S
C9 H30 0.931 . S
C10 C9 1.392 . S
C10 C11 1.361 . S
C10 C12 1.500 . S
C11 C6 1.390 . S
C11 C10 1.361 . S
C11 H29 0.931 . S
C12 C10 1.500 . S
C12 C13 1.371 . S
C12 C14 1.365 . S
C13 C12 1.371 . S
C13 C23 1.386 . S
C13 H31 0.931 . S
C14 C12 1.365 . S
C14 C15 1.409 . S
C14 H32 0.929 . S
C15 C14 1.409 . S
C15 C16 1.380 . S
C15 H33 0.930 . S
C16 C15 1.380 . S
C16 C23 1.357 . S
C17 C8 1.511 . S
C17 C18 1.341 . S
C17 C19 1.371 . S
C18 C17 1.341 . S
C18 C22 1.394 . S
C18 H34 0.930 . S
C19 C17 1.371 . S
C19 C20 1.392 . S
C19 H35 0.931 . S
C20 C19 1.392 . S
C20 C21 1.331 . S
C20 H38 0.932 . S
C21 C20 1.331 . S
C21 C22 1.336 . S
C22 C18 1.394 . S
C22 C21 1.336 . S
C22 H37 0.929 . S
C23 C13 1.386 . S
C23 C16 1.357 . S
C23 H36 0.928 . S
H24 C0 0.931 . S
H25 C2 0.930 . S
H26 C4 0.929 . S
H27 C5 0.931 . S
H28 C7 0.930 . S
H29 C11 0.931 . S
H30 C9 0.931 . S
H31 C13 0.931 . S
H32 C14 0.929 . S
H33 C15 0.930 . S
H34 C18 0.930 . S
H35 C19 0.931 . S
H36 C23 0.928 . S
H37 C22 0.929 . S
H38 C20 0.932 . S
C39 C40 1.386 . S
C39 C41 1.397 . S
C39 H63 0.931 . S
C40 C39 1.386 . S
C40 C44 1.397 . S
C41 C39 1.397 . S
C41 C42 1.384 . S
C41 H64 0.930 . S
C42 C41 1.384 . S
C42 C43 1.377 . S
C42 C45 1.481 . S
C43 C42 1.377 . S
C43 C44 1.389 . S
C43 H65 0.929 . S
C44 C40 1.397 . S
C44 C43 1.389 . S
C44 H66 0.931 . S
C45 C42 1.481 . S
C45 C46 1.387 . S
C45 C50 1.390 . S
C46 C45 1.387 . S
C46 C47 1.401 . S
C46 H67 0.930 . S
C47 C46 1.401 . S
C47 C48 1.376 . S
C47 C56 1.511 . S
C48 C47 1.376 . S
C48 C49 1.392 . S
C48 H69 0.931 . S
C49 C48 1.392 . S
C49 C50 1.361 . S
C49 C51 1.500 . S
C50 C45 1.390 . S
C50 C49 1.361 . S
C50 H68 0.931 . S
C51 C49 1.500 . S
C51 C52 1.371 . S
C51 C53 1.365 . S
C52 C51 1.371 . S
C52 C62 1.386 . S
C52 H70 0.931 . S
C53 C51 1.365 . S
C53 C54 1.409 . S
C53 H71 0.929 . S
C54 C53 1.409 . S
C54 C55 1.380 . S
C54 H72 0.930 . S
C55 C54 1.380 . S
C55 C62 1.357 . S
C56 C47 1.511 . S
C56 C57 1.341 . S
C56 C58 1.371 . S
C57 C56 1.341 . S
C57 C61 1.394 . S
C57 H73 0.930 . S
C58 C56 1.371 . S
C58 C59 1.392 . S
C58 H74 0.931 . S
C59 C58 1.392 . S
C59 C60 1.331 . S
C59 H77 0.932 . S
C60 C59 1.331 . S
C60 C61 1.336 . S
C61 C57 1.394 . S
C61 C60 1.336 . S
C61 H76 0.929 . S
C62 C52 1.386 . S
C62 C55 1.357 . S
C62 H75 0.928 . S
H63 C39 0.931 . S
H64 C41 0.930 . S
H65 C43 0.929 . S
H66 C44 0.931 . S
H67 C46 0.930 . S
H68 C50 0.931 . S
H69 C48 0.931 . S
H70 C52 0.931 . S
H71 C53 0.929 . S
H72 C54 0.930 . S
H73 C57 0.930 . S
H74 C58 0.931 . S
H75 C62 0.928 . S
H76 C61 0.929 . S
H77 C59 0.932 . S
C78 C79 1.386 . S
C78 C80 1.397 . S
C78 H102 0.931 . S
C79 C78 1.386 . S
C79 C83 1.397 . S
C80 C78 1.397 . S
C80 C81 1.384 . S
C80 H103 0.930 . S
C81 C80 1.384 . S
C81 C82 1.377 . S
C81 C84 1.481 . S
C82 C81 1.377 . S
C82 C83 1.389 . S
C82 H104 0.929 . S
C83 C79 1.397 . S
C83 C82 1.389 . S
C83 H105 0.931 . S
C84 C81 1.481 . S
C84 C85 1.387 . S
C84 C89 1.390 . S
C85 C84 1.387 . S
C85 C86 1.401 . S
C85 H106 0.930 . S
C86 C85 1.401 . S
C86 C87 1.376 . S
C86 C95 1.511 . S
C87 C86 1.376 . S
C87 C88 1.392 . S
C87 H108 0.931 . S
C88 C87 1.392 . S
C88 C89 1.361 . S
C88 C90 1.500 . S
C89 C84 1.390 . S
C89 C88 1.361 . S
C89 H107 0.931 . S
C90 C88 1.500 . S
C90 C91 1.371 . S
C90 C92 1.365 . S
C91 C90 1.371 . S
C91 C101 1.386 . S
C91 H109 0.931 . S
C92 C90 1.365 . S
C92 C93 1.409 . S
C92 H110 0.929 . S
C93 C92 1.409 . S
C93 C94 1.380 . S
C93 H111 0.930 . S
C94 C93 1.380 . S
C94 C101 1.357 . S
C95 C86 1.511 . S
C95 C96 1.341 . S
C95 C97 1.371 . S
C96 C95 1.341 . S
C96 C100 1.394 . S
C96 H112 0.930 . S
C97 C95 1.371 . S
C97 C98 1.392 . S
C97 H113 0.931 . S
C98 C97 1.392 . S
C98 C99 1.331 . S
C98 H116 0.932 . S
C99 C98 1.331 . S
C99 C100 1.336 . S
C100 C96 1.394 . S
C100 C99 1.336 . S
C100 H115 0.929 . S
C101 C91 1.386 . S
C101 C94 1.357 . S
C101 H114 0.928 . S
H102 C78 0.931 . S
H103 C80 0.930 . S
H104 C82 0.929 . S
H105 C83 0.931 . S
H106 C85 0.930 . S
H107 C89 0.931 . S
H108 C87 0.931 . S
H109 C91 0.931 . S
H110 C92 0.929 . S
H111 C93 0.930 . S
H112 C96 0.930 . S
H113 C97 0.931 . S
H114 C101 0.928 . S
H115 C100 0.929 . S
H116 C98 0.932 . S
C117 C118 1.386 . S
C117 C119 1.397 . S
C117 H141 0.931 . S
C118 C117 1.386 . S
C118 C122 1.397 . S
C119 C117 1.397 . S
C119 C120 1.384 . S
C119 H142 0.930 . S
C120 C119 1.384 . S
C120 C121 1.377 . S
C120 C123 1.481 . S
C121 C120 1.377 . S
C121 C122 1.389 . S
C121 H143 0.929 . S
C122 C118 1.397 . S
C122 C121 1.389 . S
C122 H144 0.931 . S
C123 C120 1.481 . S
C123 C124 1.387 . S
C123 C128 1.390 . S
C124 C123 1.387 . S
C124 C125 1.401 . S
C124 H145 0.930 . S
C125 C124 1.401 . S
C125 C126 1.376 . S
C125 C134 1.511 . S
C126 C125 1.376 . S
C126 C127 1.392 . S
C126 H147 0.931 . S
C127 C126 1.392 . S
C127 C128 1.361 . S
C127 C129 1.500 . S
C128 C123 1.390 . S
C128 C127 1.361 . S
C128 H146 0.931 . S
C129 C127 1.500 . S
C129 C130 1.371 . S
C129 C131 1.365 . S
C130 C129 1.371 . S
C130 C140 1.386 . S
C130 H148 0.931 . S
C131 C129 1.365 . S
C131 C132 1.409 . S
C131 H149 0.929 . S
C132 C131 1.409 . S
C132 C133 1.380 . S
C132 H150 0.930 . S
C133 C132 1.380 . S
C133 C140 1.357 . S
C134 C125 1.511 . S
C134 C135 1.341 . S
C134 C136 1.371 . S
C135 C134 1.341 . S
C135 C139 1.394 . S
C135 H151 0.930 . S
C136 C134 1.371 . S
C136 C137 1.392 . S
C136 H152 0.931 . S
C137 C136 1.392 . S
C137 C138 1.331 . S
C137 H155 0.932 . S
C138 C137 1.331 . S
C138 C139 1.336 . S
C139 C135 1.394 . S
C139 C138 1.336 . S
C139 H154 0.929 . S
C140 C130 1.386 . S
C140 C133 1.357 . S
C140 H153 0.928 . S
H141 C117 0.931 . S
H142 C119 0.930 . S
H143 C121 0.929 . S
H144 C122 0.931 . S
H145 C124 0.930 . S
H146 C128 0.931 . S
H147 C126 0.931 . S
H148 C130 0.931 . S
H149 C131 0.929 . S
H150 C132 0.930 . S
H151 C135 0.930 . S
H152 C136 0.931 . S
H153 C140 0.928 . S
H154 C139 0.929 . S
H155 C137 0.932 . S
C156 C157 1.386 . S
C156 C158 1.397 . S
C156 H180 0.931 . S
C157 C156 1.386 . S
C157 C161 1.397 . S
C158 C156 1.397 . S
C158 C159 1.384 . S
C158 H181 0.930 . S
C159 C158 1.384 . S
C159 C160 1.377 . S
C159 C162 1.481 . S
C160 C159 1.377 . S
C160 C161 1.389 . S
C160 H182 0.929 . S
C161 C157 1.397 . S
C161 C160 1.389 . S
C161 H183 0.931 . S
C162 C159 1.481 . S
C162 C163 1.387 . S
C162 C167 1.390 . S
C163 C162 1.387 . S
C163 C164 1.401 . S
C163 H184 0.930 . S
C164 C163 1.401 . S
C164 C165 1.376 . S
C164 C173 1.511 . S
C165 C164 1.376 . S
C165 C166 1.392 . S
C165 H186 0.931 . S
C166 C165 1.392 . S
C166 C167 1.361 . S
C166 C168 1.500 . S
C167 C162 1.390 . S
C167 C166 1.361 . S
C167 H185 0.931 . S
C168 C166 1.500 . S
C168 C169 1.371 . S
C168 C170 1.365 . S
C169 C168 1.371 . S
C169 C179 1.386 . S
C169 H187 0.931 . S
C170 C168 1.365 . S
C170 C171 1.418 . S
C170 H188 0.929 . S
C171 C170 1.418 . S
C171 C172 1.379 1_565 S
C171 H189 0.923 1_565 S
C172 C171 1.379 1_545 S
C172 C179 1.357 1_545 S
C173 C164 1.511 . S
C173 C174 1.341 . S
C173 C175 1.371 . S
C174 C173 1.341 . S
C174 C178 1.394 . S
C174 H190 0.930 . S
C175 C173 1.371 . S
C175 C176 1.392 . S
C175 H191 0.931 . S
C176 C175 1.392 . S
C176 C177 1.331 . S
C176 H194 0.932 . S
C177 C176 1.331 . S
C177 C178 1.336 . S
C178 C174 1.394 . S
C178 C177 1.336 . S
C178 H193 0.929 . S
C179 C169 1.386 . S
C179 C172 1.357 1_565 S
C179 H192 0.928 . S
H180 C156 0.931 . S
H181 C158 0.930 . S
H182 C160 0.929 . S
H183 C161 0.931 . S
H184 C163 0.930 . S
H185 C167 0.931 . S
H186 C165 0.931 . S
H187 C169 0.931 . S
H188 C170 0.929 . S
H189 C171 0.923 1_545 S
H190 C174 0.930 . S
H191 C175 0.931 . S
H192 C179 0.928 . S
H193 C178 0.929 . S
H194 C176 0.932 . S
C195 C196 1.386 . S
C195 C197 1.397 . S
C195 H219 0.931 . S
C196 C195 1.386 . S
C196 C200 1.397 . S
C197 C195 1.397 . S
C197 C198 1.384 . S
C197 H220 0.930 . S
C198 C197 1.384 . S
C198 C199 1.377 . S
C198 C201 1.481 . S
C199 C198 1.377 . S
C199 C200 1.389 . S
C199 H221 0.929 . S
C200 C196 1.397 . S
C200 C199 1.389 . S
C200 H222 0.931 . S
C201 C198 1.481 . S
C201 C202 1.387 . S
C201 C206 1.390 . S
C202 C201 1.387 . S
C202 C203 1.401 . S
C202 H223 0.930 . S
C203 C202 1.401 . S
C203 C204 1.376 . S
C203 C212 1.511 . S
C204 C203 1.376 . S
C204 C205 1.392 . S
C204 H225 0.931 . S
C205 C204 1.392 . S
C205 C206 1.361 . S
C205 C207 1.500 . S
C206 C201 1.390 . S
C206 C205 1.361 . S
C206 H224 0.931 . S
C207 C205 1.500 . S
C207 C208 1.371 . S
C207 C209 1.365 . S
C208 C207 1.371 . S
C208 C218 1.386 . S
C208 H226 0.931 . S
C209 C207 1.365 . S
C209 C210 1.409 . S
C209 H227 0.929 . S
C210 C209 1.409 . S
C210 C211 1.380 . S
C210 H228 0.930 . S
C211 C210 1.380 . S
C211 C218 1.357 . S
C212 C203 1.511 . S
C212 C213 1.341 . S
C212 C214 1.371 . S
C213 C212 1.341 . S
C213 C217 1.394 . S
C213 H229 0.930 . S
C214 C212 1.371 . S
C214 C215 1.392 . S
C214 H230 0.931 . S
C215 C214 1.392 . S
C215 C216 1.331 . S
C215 H233 0.932 . S
C216 C215 1.331 . S
C216 C217 1.336 . S
C217 C213 1.394 . S
C217 C216 1.336 . S
C217 H232 0.929 . S
C218 C208 1.386 . S
C218 C211 1.357 . S
C218 H231 0.928 . S
H219 C195 0.931 . S
H220 C197 0.930 . S
H221 C199 0.929 . S
H222 C200 0.931 . S
H223 C202 0.930 . S
H224 C206 0.931 . S
H225 C204 0.931 . S
H226 C208 0.931 . S
H227 C209 0.929 . S
H228 C210 0.930 . S
H229 C213 0.930 . S
H230 C214 0.931 . S
H231 C218 0.928 . S
H232 C217 0.929 . S
H233 C215 0.932 . S
C234 C235 1.386 . S
C234 C236 1.397 . S
C234 H258 0.931 . S
C235 C234 1.386 . S
C235 C239 1.397 . S
C236 C234 1.397 . S
C236 C237 1.384 . S
C236 H259 0.930 . S
C237 C236 1.384 . S
C237 C238 1.377 . S
C237 C240 1.481 . S
C238 C237 1.377 . S
C238 C239 1.389 . S
C238 H260 0.929 . S
C239 C235 1.397 . S
C239 C238 1.389 . S
C239 H261 0.931 . S
C240 C237 1.481 . S
C240 C241 1.387 . S
C240 C245 1.390 . S
C241 C240 1.387 . S
C241 C242 1.401 . S
C241 H262 0.930 . S
C242 C241 1.401 . S
C242 C243 1.376 . S
C242 C251 1.511 . S
C243 C242 1.376 . S
C243 C244 1.392 . S
C243 H264 0.931 . S
C244 C243 1.392 . S
C244 C245 1.361 . S
C244 C246 1.500 . S
C245 C240 1.390 . S
C245 C244 1.361 . S
C245 H263 0.931 . S
C246 C244 1.500 . S
C246 C247 1.371 . S
C246 C248 1.365 . S
C247 C246 1.371 . S
C247 C257 1.386 . S
C247 H265 0.931 . S
C248 C246 1.365 . S
C248 C249 1.409 . S
C248 H266 0.929 . S
C249 C248 1.409 . S
C249 C250 1.380 . S
C249 H267 0.930 . S
C250 C249 1.380 . S
C250 C257 1.357 . S
C251 C242 1.511 . S
C251 C252 1.341 . S
C251 C253 1.371 . S
C252 C251 1.341 . S
C252 C256 1.394 . S
C252 H268 0.930 . S
C253 C251 1.371 . S
C253 C254 1.392 . S
C253 H269 0.931 . S
C254 C253 1.392 . S
C254 C255 1.331 . S
C254 H272 0.932 . S
C255 C254 1.331 . S
C255 C256 1.336 . S
C256 C252 1.394 . S
C256 C255 1.336 . S
C256 H271 0.929 . S
C257 C247 1.386 . S
C257 C250 1.357 . S
C257 H270 0.928 . S
H258 C234 0.931 . S
H259 C236 0.930 . S
H260 C238 0.929 . S
H261 C239 0.931 . S
H262 C241 0.930 . S
H263 C245 0.931 . S
H264 C243 0.931 . S
H265 C247 0.931 . S
H266 C248 0.929 . S
H267 C249 0.930 . S
H268 C252 0.930 . S
H269 C253 0.931 . S
H270 C257 0.928 . S
H271 C256 0.929 . S
H272 C254 0.932 . S
C273 C274 1.386 . S
C273 C275 1.397 . S
C273 H297 0.931 . S
C274 C273 1.386 . S
C274 C278 1.397 . S
C275 C273 1.397 . S
C275 C276 1.384 . S
C275 H298 0.930 . S
C276 C275 1.384 . S
C276 C277 1.377 . S
C276 C279 1.481 . S
C277 C276 1.377 . S
C277 C278 1.389 . S
C277 H299 0.929 . S
C278 C274 1.397 . S
C278 C277 1.389 . S
C278 H300 0.931 . S
C279 C276 1.481 . S
C279 C280 1.387 . S
C279 C284 1.390 . S
C280 C279 1.387 . S
C280 C281 1.401 . S
C280 H301 0.930 . S
C281 C280 1.401 . S
C281 C282 1.376 . S
C281 C290 1.511 . S
C282 C281 1.376 . S
C282 C283 1.392 . S
C282 H303 0.931 . S
C283 C282 1.392 . S
C283 C284 1.361 . S
C283 C285 1.500 . S
C284 C279 1.390 . S
C284 C283 1.361 . S
C284 H302 0.931 . S
C285 C283 1.500 . S
C285 C286 1.371 . S
C285 C287 1.365 . S
C286 C285 1.371 . S
C286 C296 1.386 . S
C286 H304 0.931 . S
C287 C285 1.365 . S
C287 C288 1.409 . S
C287 H305 0.929 . S
C288 C287 1.409 . S
C288 C289 1.380 . S
C288 H306 0.930 . S
C289 C288 1.380 . S
C289 C296 1.357 . S
C290 C281 1.511 . S
C290 C291 1.341 . S
C290 C292 1.371 . S
C291 C290 1.341 . S
C291 C295 1.394 . S
C291 H307 0.930 . S
C292 C290 1.371 . S
C292 C293 1.392 . S
C292 H308 0.931 . S
C293 C292 1.392 . S
C293 C294 1.331 . S
C293 H311 0.932 . S
C294 C293 1.331 . S
C294 C295 1.336 . S
C295 C291 1.394 . S
C295 C294 1.336 . S
C295 H310 0.929 . S
C296 C286 1.386 . S
C296 C289 1.357 . S
C296 H309 0.928 . S
H297 C273 0.931 . S
H298 C275 0.930 . S
H299 C277 0.929 . S
H300 C278 0.931 . S
H301 C280 0.930 . S
H302 C284 0.931 . S
H303 C282 0.931 . S
H304 C286 0.931 . S
H305 C287 0.929 . S
H306 C288 0.930 . S
H307 C291 0.930 . S
H308 C292 0.931 . S
H309 C296 0.928 . S
H310 C295 0.929 . S
H311 C293 0.932 . S
C312 C313 1.386 . S
C312 C314 1.397 . S
C312 H336 0.931 . S
C313 C312 1.386 . S
C313 C317 1.397 . S
C314 C312 1.397 . S
C314 C315 1.384 . S
C314 H337 0.930 . S
C315 C314 1.384 . S
C315 C316 1.377 . S
C315 C318 1.481 . S
C316 C315 1.377 . S
C316 C317 1.389 . S
C316 H338 0.929 . S
C317 C313 1.397 . S
C317 C316 1.389 . S
C317 H339 0.931 . S
C318 C315 1.481 . S
C318 C319 1.387 . S
C318 C323 1.390 . S
C319 C318 1.387 . S
C319 C320 1.401 . S
C319 H340 0.930 . S
C320 C319 1.401 . S
C320 C321 1.376 . S
C320 C329 1.511 . S
C321 C320 1.376 . S
C321 C322 1.392 . S
C321 H342 0.931 . S
C322 C321 1.392 . S
C322 C323 1.361 . S
C322 C324 1.500 . S
C323 C318 1.390 . S
C323 C322 1.361 . S
C323 H341 0.931 . S
C324 C322 1.500 . S
C324 C325 1.371 . S
C324 C326 1.365 . S
C325 C324 1.371 . S
C325 C335 1.386 . S
C325 H343 0.931 . S
C326 C324 1.365 . S
C326 C327 1.409 . S
C326 H344 0.929 . S
C327 C326 1.409 . S
C327 C328 1.380 . S
C327 H345 0.930 . S
C328 C327 1.380 . S
C328 C335 1.357 . S
C329 C320 1.511 . S
C329 C330 1.341 . S
C329 C331 1.371 . S
C330 C329 1.341 . S
C330 C334 1.394 . S
C330 H346 0.930 . S
C331 C329 1.371 . S
C331 C332 1.392 . S
C331 H347 0.931 . S
C332 C331 1.392 . S
C332 C333 1.331 . S
C332 H350 0.932 . S
C333 C332 1.331 . S
C333 C334 1.336 . S
C334 C330 1.394 . S
C334 C333 1.336 . S
C334 H349 0.929 . S
C335 C325 1.386 . S
C335 C328 1.357 . S
C335 H348 0.928 . S
H336 C312 0.931 . S
H337 C314 0.930 . S
H338 C316 0.929 . S
H339 C317 0.931 . S
H340 C319 0.930 . S
H341 C323 0.931 . S
H342 C321 0.931 . S
H343 C325 0.931 . S
H344 C326 0.929 . S
H345 C327 0.930 . S
H346 C330 0.930 . S
H347 C331 0.931 . S
H348 C335 0.928 . S
H349 C334 0.929 . S
H350 C332 0.932 . S
C351 C352 1.386 . S
C351 C353 1.397 . S
C351 H375 0.931 . S
C352 C351 1.386 . S
C352 C356 1.397 . S
C353 C351 1.397 . S
C353 C354 1.384 . S
C353 H376 0.930 . S
C354 C353 1.384 . S
C354 C355 1.377 . S
C354 C357 1.481 . S
C355 C354 1.377 . S
C355 C356 1.389 . S
C355 H377 0.929 . S
C356 C352 1.397 . S
C356 C355 1.389 . S
C356 H378 0.931 . S
C357 C354 1.481 . S
C357 C358 1.387 . S
C357 C362 1.390 . S
C358 C357 1.387 . S
C358 C359 1.401 . S
C358 H379 0.930 . S
C359 C358 1.401 . S
C359 C360 1.376 . S
C359 C368 1.511 . S
C360 C359 1.376 . S
C360 C361 1.392 . S
C360 H381 0.931 . S
C361 C360 1.392 . S
C361 C362 1.361 . S
C361 C363 1.500 . S
C362 C357 1.390 . S
C362 C361 1.361 . S
C362 H380 0.931 . S
C363 C361 1.500 . S
C363 C364 1.371 . S
C363 C365 1.365 . S
C364 C363 1.371 . S
C364 C374 1.386 . S
C364 H382 0.931 . S
C365 C363 1.365 . S
C365 C366 1.409 . S
C365 H383 0.929 . S
C366 C365 1.409 . S
C366 C367 1.380 . S
C366 H384 0.930 . S
C367 C366 1.380 . S
C367 C374 1.357 . S
C368 C359 1.511 . S
C368 C369 1.341 . S
C368 C370 1.371 . S
C369 C368 1.341 . S
C369 C373 1.394 . S
C369 H385 0.930 . S
C370 C368 1.371 . S
C370 C371 1.392 . S
C370 H386 0.931 . S
C371 C370 1.392 . S
C371 C372 1.331 . S
C371 H389 0.932 . S
C372 C371 1.331 . S
C372 C373 1.336 . S
C373 C369 1.394 . S
C373 C372 1.336 . S
C373 H388 0.929 . S
C374 C364 1.386 . S
C374 C367 1.357 . S
C374 H387 0.928 . S
H375 C351 0.931 . S
H376 C353 0.930 . S
H377 C355 0.929 . S
H378 C356 0.931 . S
H379 C358 0.930 . S
H380 C362 0.931 . S
H381 C360 0.931 . S
H382 C364 0.931 . S
H383 C365 0.929 . S
H384 C366 0.930 . S
H385 C369 0.930 . S
H386 C370 0.931 . S
H387 C374 0.928 . S
H388 C373 0.929 . S
H389 C371 0.932 . S
C390 C391 1.386 . S
C390 C392 1.397 . S
C390 H414 0.931 . S
C391 C390 1.386 . S
C391 C395 1.397 . S
C392 C390 1.397 . S
C392 C393 1.384 . S
C392 H415 0.930 . S
C393 C392 1.384 . S
C393 C394 1.377 . S
C393 C396 1.481 . S
C394 C393 1.377 . S
C394 C395 1.389 . S
C394 H416 0.929 . S
C395 C391 1.397 . S
C395 C394 1.389 . S
C395 H417 0.931 . S
C396 C393 1.481 . S
C396 C397 1.387 . S
C396 C401 1.390 . S
C397 C396 1.387 . S
C397 C398 1.401 . S
C397 H418 0.930 . S
C398 C397 1.401 . S
C398 C399 1.376 . S
C398 C407 1.511 . S
C399 C398 1.376 . S
C399 C400 1.392 . S
C399 H420 0.931 . S
C400 C399 1.392 . S
C400 C401 1.361 . S
C400 C402 1.500 . S
C401 C396 1.390 . S
C401 C400 1.361 . S
C401 H419 0.931 . S
C402 C400 1.500 . S
C402 C403 1.371 . S
C402 C404 1.365 . S
C403 C402 1.371 . S
C403 C413 1.386 . S
C403 H421 0.931 . S
C404 C402 1.365 . S
C404 C405 1.409 . S
C404 H422 0.929 . S
C405 C404 1.409 . S
C405 C406 1.380 . S
C405 H423 0.930 . S
C406 C405 1.380 . S
C406 C413 1.357 . S
C407 C398 1.511 . S
C407 C408 1.341 . S
C407 C409 1.371 . S
C408 C407 1.341 . S
C408 C412 1.394 . S
C408 H424 0.930 . S
C409 C407 1.371 . S
C409 C410 1.392 . S
C409 H425 0.931 . S
C410 C409 1.392 . S
C410 C411 1.331 . S
C410 H428 0.932 . S
C411 C410 1.331 . S
C411 C412 1.336 . S
C412 C408 1.394 . S
C412 C411 1.336 . S
C412 H427 0.929 . S
C413 C403 1.386 . S
C413 C406 1.357 . S
C413 H426 0.928 . S
H414 C390 0.931 . S
H415 C392 0.930 . S
H416 C394 0.929 . S
H417 C395 0.931 . S
H418 C397 0.930 . S
H419 C401 0.931 . S
H420 C399 0.931 . S
H421 C403 0.931 . S
H422 C404 0.929 . S
H423 C405 0.930 . S
H424 C408 0.930 . S
H425 C409 0.931 . S
H426 C413 0.928 . S
H427 C412 0.929 . S
H428 C410 0.932 . S
C429 C430 1.386 . S
C429 C431 1.397 . S
C429 H453 0.931 . S
C430 C429 1.386 . S
C430 C434 1.397 . S
C431 C429 1.397 . S
C431 C432 1.384 . S
C431 H454 0.930 . S
C432 C431 1.384 . S
C432 C433 1.377 . S
C432 C435 1.481 . S
C433 C432 1.377 . S
C433 C434 1.389 . S
C433 H455 0.929 . S
C434 C430 1.397 . S
C434 C433 1.389 . S
C434 H456 0.931 . S
C435 C432 1.481 . S
C435 C436 1.387 . S
C435 C440 1.390 . S
C436 C435 1.387 . S
C436 C437 1.401 . S
C436 H457 0.930 . S
C437 C436 1.401 . S
C437 C438 1.376 . S
C437 C446 1.511 . S
C438 C437 1.376 . S
C438 C439 1.392 . S
C438 H459 0.931 . S
C439 C438 1.392 . S
C439 C440 1.361 . S
C439 C441 1.500 . S
C440 C435 1.390 . S
C440 C439 1.361 . S
C440 H458 0.931 . S
C441 C439 1.500 . S
C441 C442 1.371 . S
C441 C443 1.365 . S
C442 C441 1.371 . S
C442 C452 1.386 . S
C442 H460 0.931 . S
C443 C441 1.365 . S
C443 C444 1.409 . S
C443 H461 0.929 . S
C444 C443 1.409 . S
C444 C445 1.380 . S
C444 H462 0.930 . S
C445 C444 1.380 . S
C445 C452 1.357 . S
C446 C437 1.511 . S
C446 C447 1.341 . S
C446 C448 1.371 . S
C447 C446 1.341 . S
C447 C451 1.394 . S
C447 H463 0.930 . S
C448 C446 1.371 . S
C448 C449 1.392 . S
C448 H464 0.931 . S
C449 C448 1.392 . S
C449 C450 1.331 . S
C449 H467 0.932 . S
C450 C449 1.331 . S
C450 C451 1.336 . S
C451 C447 1.394 . S
C451 C450 1.336 . S
C451 H466 0.929 . S
C452 C442 1.386 . S
C452 C445 1.357 . S
C452 H465 0.928 . S
H453 C429 0.931 . S
H454 C431 0.930 . S
H455 C433 0.929 . S
H456 C434 0.931 . S
H457 C436 0.930 . S
H458 C440 0.931 . S
H459 C438 0.931 . S
H460 C442 0.931 . S
H461 C443 0.929 . S
H462 C444 0.930 . S
H463 C447 0.930 . S
H464 C448 0.931 . S
H465 C452 0.928 . S
H466 C451 0.929 . S
H467 C449 0.932 . S
C468 C469 1.386 . S
C468 C470 1.397 . S
C468 H492 0.931 . S
C469 C468 1.386 . S
C469 C473 1.397 . S
C470 C468 1.397 . S
C470 C471 1.384 . S
C470 H493 0.930 . S
C471 C470 1.384 . S
C471 C472 1.377 . S
C471 C474 1.481 . S
C472 C471 1.377 . S
C472 C473 1.389 . S
C472 H494 0.929 . S
C473 C469 1.397 . S
C473 C472 1.389 . S
C473 H495 0.931 . S
C474 C471 1.481 . S
C474 C475 1.387 . S
C474 C479 1.390 . S
C475 C474 1.387 . S
C475 C476 1.401 . S
C475 H496 0.930 . S
C476 C475 1.401 . S
C476 C477 1.376 . S
C476 C485 1.511 . S
C477 C476 1.376 . S
C477 C478 1.392 . S
C477 H498 0.931 . S
C478 C477 1.392 . S
C478 C479 1.361 . S
C478 C480 1.500 . S
C479 C474 1.390 . S
C479 C478 1.361 . S
C479 H497 0.931 . S
C480 C478 1.500 . S
C480 C481 1.371 . S
C480 C482 1.365 . S
C481 C480 1.371 . S
C481 C491 1.386 . S
C481 H499 0.931 . S
C482 C480 1.365 . S
C482 C483 1.409 . S
C482 H500 0.929 . S
C483 C482 1.409 . S
C483 C484 1.380 . S
C483 H501 0.930 . S
C484 C483 1.380 . S
C484 C491 1.357 . S
C485 C476 1.511 . S
C485 C486 1.341 . S
C485 C487 1.371 . S
C486 C485 1.341 . S
C486 C490 1.394 . S
C486 H502 0.930 . S
C487 C485 1.371 . S
C487 C488 1.392 . S
C487 H503 0.931 . S
C488 C487 1.392 . S
C488 C489 1.331 . S
C488 H506 0.932 . S
C489 C488 1.331 . S
C489 C490 1.336 . S
C490 C486 1.394 . S
C490 C489 1.336 . S
C490 H505 0.929 . S
C491 C481 1.386 . S
C491 C484 1.357 . S
C491 H504 0.928 . S
H492 C468 0.931 . S
H493 C470 0.930 . S
H494 C472 0.929 . S
H495 C473 0.931 . S
H496 C475 0.930 . S
H497 C479 0.931 . S
H498 C477 0.931 . S
H499 C481 0.931 . S
H500 C482 0.929 . S
H501 C483 0.930 . S
H502 C486 0.930 . S
H503 C487 0.931 . S
H504 C491 0.928 . S
H505 C490 0.929 . S
H506 C488 0.932 . S
C507 C508 1.386 . S
C507 C509 1.397 . S
C507 H531 0.931 . S
C508 C507 1.386 . S
C508 C512 1.397 . S
C509 C507 1.397 . S
C509 C510 1.384 . S
C509 H532 0.930 . S
C510 C509 1.384 . S
C510 C511 1.377 . S
C510 C513 1.481 . S
C511 C510 1.377 . S
C511 C512 1.389 . S
C511 H533 0.929 . S
C512 C508 1.397 . S
C512 C511 1.389 . S
C512 H534 0.931 . S
C513 C510 1.481 . S
C513 C514 1.387 . S
C513 C518 1.390 . S
C514 C513 1.387 . S
C514 C515 1.401 . S
C514 H535 0.930 . S
C515 C514 1.401 . S
C515 C516 1.376 . S
C515 C524 1.511 . S
C516 C515 1.376 . S
C516 C517 1.392 . S
C516 H537 0.931 . S
C517 C516 1.392 . S
C517 C518 1.361 . S
C517 C519 1.500 . S
C518 C513 1.390 . S
C518 C517 1.361 . S
C518 H536 0.931 . S
C519 C517 1.500 . S
C519 C520 1.371 . S
C519 C521 1.365 . S
C520 C519 1.371 . S
C520 C530 1.386 . S
C520 H538 0.931 . S
C521 C519 1.365 . S
C521 C522 1.409 . S
C521 H539 0.929 . S
C522 C521 1.409 . S
C522 C523 1.380 . S
C522 H540 0.930 . S
C523 C522 1.380 . S
C523 C530 1.357 . S
C524 C515 1.511 . S
C524 C525 1.341 . S
C524 C526 1.371 . S
C525 C524 1.341 . S
C525 C529 1.394 . S
C525 H541 0.930 . S
C526 C524 1.371 . S
C526 C527 1.392 . S
C526 H542 0.931 . S
C527 C526 1.392 . S
C527 C528 1.331 . S
C527 H545 0.932 . S
C528 C527 1.331 . S
C528 C529 1.336 . S
C529 C525 1.394 . S
C529 C528 1.336 . S
C529 H544 0.929 . S
C530 C520 1.386 . S
C530 C523 1.357 . S
C530 H543 0.928 . S
H531 C507 0.931 . S
H532 C509 0.930 . S
H533 C511 0.929 . S
H534 C512 0.931 . S
H535 C514 0.930 . S
H536 C518 0.931 . S
H537 C516 0.931 . S
H538 C520 0.931 . S
H539 C521 0.929 . S
H540 C522 0.930 . S
H541 C525 0.930 . S
H542 C526 0.931 . S
H543 C530 0.928 . S
H544 C529 0.929 . S
H545 C527 0.932 . S
C546 C547 1.386 . S
C546 C548 1.397 . S
C546 H570 0.931 . S
C547 C546 1.386 . S
C547 C551 1.397 . S
C548 C546 1.397 . S
C548 C549 1.384 . S
C548 H571 0.930 . S
C549 C548 1.384 . S
C549 C550 1.377 . S
C549 C552 1.481 . S
C550 C549 1.377 . S
C550 C551 1.389 . S
C550 H572 0.929 . S
C551 C547 1.397 . S
C551 C550 1.389 . S
C551 H573 0.931 . S
C552 C549 1.481 . S
C552 C553 1.387 . S
C552 C557 1.390 . S
C553 C552 1.387 . S
C553 C554 1.401 . S
C553 H574 0.930 . S
C554 C553 1.401 . S
C554 C555 1.376 . S
C554 C563 1.511 . S
C555 C554 1.376 . S
C555 C556 1.392 . S
C555 H576 0.931 . S
C556 C555 1.392 . S
C556 C557 1.361 . S
C556 C558 1.500 . S
C557 C552 1.390 . S
C557 C556 1.361 . S
C557 H575 0.931 . S
C558 C556 1.500 . S
C558 C559 1.371 . S
C558 C560 1.365 . S
C559 C558 1.371 . S
C559 C569 1.386 . S
C559 H577 0.931 . S
C560 C558 1.365 . S
C560 C561 1.409 . S
C560 H578 0.929 . S
C561 C560 1.409 . S
C561 C562 1.380 . S
C561 H579 0.930 . S
C562 C561 1.380 . S
C562 C569 1.357 . S
C563 C554 1.511 . S
C563 C564 1.341 . S
C563 C565 1.371 . S
C564 C563 1.341 . S
C564 C568 1.394 . S
C564 H580 0.930 . S
C565 C563 1.371 . S
C565 C566 1.392 . S
C565 H581 0.931 . S
C566 C565 1.392 . S
C566 C567 1.331 . S
C566 H584 0.932 . S
C567 C566 1.331 . S
C567 C568 1.336 . S
C568 C564 1.394 . S
C568 C567 1.336 . S
C568 H583 0.929 . S
C569 C559 1.386 . S
C569 C562 1.357 . S
C569 H582 0.928 . S
H570 C546 0.931 . S
H571 C548 0.930 . S
H572 C550 0.929 . S
H573 C551 0.931 . S
H574 C553 0.930 . S
H575 C557 0.931 . S
H576 C555 0.931 . S
H577 C559 0.931 . S
H578 C560 0.929 . S
H579 C561 0.930 . S
H580 C564 0.930 . S
H581 C565 0.931 . S
H582 C569 0.928 . S
H583 C568 0.929 . S
H584 C566 0.932 . S
C585 C586 1.386 . S
C585 C587 1.397 . S
C585 H609 0.931 . S
C586 C585 1.386 . S
C586 C590 1.397 . S
C587 C585 1.397 . S
C587 C588 1.384 . S
C587 H610 0.930 . S
C588 C587 1.384 . S
C588 C589 1.377 . S
C588 C591 1.481 . S
C589 C588 1.377 . S
C589 C590 1.389 . S
C589 H611 0.929 . S
C590 C586 1.397 . S
C590 C589 1.389 . S
C590 H612 0.931 1_556 S
C591 C588 1.481 . S
C591 C592 1.387 . S
C591 C596 1.390 . S
C592 C591 1.387 . S
C592 C593 1.401 . S
C592 H613 0.930 . S
C593 C592 1.401 . S
C593 C594 1.376 . S
C593 C602 1.511 . S
C594 C593 1.376 . S
C594 C595 1.392 . S
C594 H615 0.931 . S
C595 C594 1.392 . S
C595 C596 1.361 . S
C595 C597 1.500 . S
C596 C591 1.390 . S
C596 C595 1.361 . S
C596 H614 0.931 . S
C597 C595 1.500 . S
C597 C598 1.371 . S
C597 C599 1.365 . S
C598 C597 1.371 . S
C598 C608 1.386 . S
C598 H616 0.931 . S
C599 C597 1.365 . S
C599 C600 1.409 . S
C599 H617 0.929 . S
C600 C599 1.409 . S
C600 C601 1.380 . S
C600 H618 0.930 . S
C601 C600 1.380 . S
C601 C608 1.357 . S
C602 C593 1.511 . S
C602 C603 1.341 . S
C602 C604 1.371 . S
C603 C602 1.341 . S
C603 C607 1.394 . S
C603 H619 0.930 . S
C604 C602 1.371 . S
C604 C605 1.392 . S
C604 H620 0.931 . S
C605 C604 1.392 . S
C605 C606 1.331 . S
C605 H623 0.932 . S
C606 C605 1.331 . S
C606 C607 1.336 . S
C607 C603 1.394 . S
C607 C606 1.336 . S
C607 H622 0.929 . S
C608 C598 1.386 . S
C608 C601 1.357 . S
C608 H621 0.928 . S
H609 C585 0.931 . S
H610 C587 0.930 . S
H611 C589 0.929 . S
H612 C590 0.931 1_554 S
H613 C592 0.930 . S
H614 C596 0.931 . S
H615 C594 0.931 . S
H616 C598 0.931 . S
H617 C599 0.929 . S
H618 C600 0.930 . S
H619 C603 0.930 . S
H620 C604 0.931 . S
H621 C608 0.928 . S
H622 C607 0.929 . S
H623 C605 0.932 . S
O624 Cd625 2.223 . S
O624 C632 1.315 . S
Cd625 O624 2.223 . S
Cd625 O628 2.297 . S
Cd625 O629 2.439 . S
Cd625 O635 2.240 . S
Cd626 O627 2.240 . S
Cd626 O634 2.223 . S
Cd626 O636 2.297 . S
Cd626 O637 2.439 . S
O627 Cd626 2.240 . S
O627 C632 1.279 . S
O628 Cd625 2.297 . S
O628 C630 1.247 . S
O629 Cd625 2.439 . S
O629 C630 1.208 . S
C630 O628 1.247 . S
C630 O629 1.208 . S
C631 O636 1.247 . S
C631 O637 1.208 . S
C632 O624 1.315 . S
C632 O627 1.279 . S
C633 O634 1.315 . S
C633 O635 1.279 . S
O634 Cd626 2.223 . S
O634 C633 1.315 . S
O635 Cd625 2.240 . S
O635 C633 1.279 . S
O636 Cd626 2.297 . S
O636 C631 1.247 . S
O637 Cd626 2.439 . S
O637 C631 1.208 . S
O638 Cd639 2.223 . S
O638 C646 1.315 . S
Cd639 O638 2.223 . S
Cd639 O642 2.297 . S
Cd639 O643 2.439 . S
Cd639 O649 2.240 . S
Cd640 O641 2.240 . S
Cd640 O648 2.223 . S
Cd640 O650 2.297 . S
Cd640 O651 2.439 . S
O641 Cd640 2.240 . S
O641 C646 1.279 . S
O642 Cd639 2.297 . S
O642 C644 1.247 . S
O643 Cd639 2.439 . S
O643 C644 1.208 . S
C644 O642 1.247 . S
C644 O643 1.208 . S
C645 O650 1.247 . S
C645 O651 1.208 . S
C646 O638 1.315 . S
C646 O641 1.279 . S
C647 O648 1.315 . S
C647 O649 1.279 . S
O648 Cd640 2.223 . S
O648 C647 1.315 . S
O649 Cd639 2.240 . S
O649 C647 1.279 . S
O650 Cd640 2.297 . S
O650 C645 1.247 . S
O651 Cd640 2.439 . S
O651 C645 1.208 . S
O652 Cd653 2.223 1_556 S
O652 C660 1.315 . S
Cd653 O652 2.223 1_554 S
Cd653 O656 2.297 . S
Cd653 O657 2.439 . S
Cd653 O663 2.240 . S
Cd654 O655 2.240 . S
Cd654 O662 2.223 . S
Cd654 O664 2.297 1_556 S
Cd654 O665 2.439 1_556 S
O655 Cd654 2.240 . S
O655 C660 1.279 . S
O656 Cd653 2.297 . S
O656 C658 1.247 . S
O657 Cd653 2.439 . S
O657 C658 1.208 . S
C658 O656 1.247 . S
C658 O657 1.208 . S
C659 O664 1.247 . S
C659 O665 1.208 . S
C660 O652 1.315 . S
C660 O655 1.279 . S
C661 O662 1.315 . S
C661 O663 1.279 1_556 S
O662 Cd654 2.223 . S
O662 C661 1.315 . S
O663 Cd653 2.240 . S
O663 C661 1.279 1_554 S
O664 Cd654 2.297 1_554 S
O664 C659 1.247 . S
O665 Cd654 2.439 1_554 S
O665 C659 1.208 . S
O666 Cd667 2.223 . S
O666 C674 1.315 . S
Cd667 O666 2.223 . S
Cd667 O670 2.297 . S
Cd667 O671 2.439 . S
Cd667 O677 2.240 . S
Cd668 O669 2.240 . S
Cd668 O676 2.223 . S
Cd668 O678 2.297 . S
Cd668 O679 2.439 . S
O669 Cd668 2.240 . S
O669 C674 1.279 . S
O670 Cd667 2.297 . S
O670 C672 1.247 . S
O671 Cd667 2.439 . S
O671 C672 1.208 . S
C672 O670 1.247 . S
C672 O671 1.208 . S
C673 O678 1.247 . S
C673 O679 1.208 . S
C674 O666 1.315 . S
C674 O669 1.279 . S
C675 O676 1.315 . S
C675 O677 1.279 . S
O676 Cd668 2.223 . S
O676 C675 1.315 . S
O677 Cd667 2.240 . S
O677 C675 1.279 . S
O678 Cd668 2.297 . S
O678 C673 1.247 . S
O679 Cd668 2.439 . S
O679 C673 1.208 . S
O680 Cd681 2.223 . S
O680 C688 1.315 . S
Cd681 O680 2.223 . S
Cd681 O684 2.297 . S
Cd681 O685 2.439 . S
Cd681 O691 2.240 . S
Cd682 O683 2.240 . S
Cd682 O690 2.223 . S
Cd682 O692 2.297 . S
Cd682 O693 2.439 . S
O683 Cd682 2.240 . S
O683 C688 1.279 . S
O684 Cd681 2.297 . S
O684 C686 1.247 . S
O685 Cd681 2.439 . S
O685 C686 1.208 . S
C686 O684 1.247 . S
C686 O685 1.208 . S
C687 O692 1.247 . S
C687 O693 1.208 . S
C688 O680 1.315 . S
C688 O683 1.279 . S
C689 O690 1.315 . S
C689 O691 1.279 . S
O690 Cd682 2.223 . S
O690 C689 1.315 . S
O691 Cd681 2.240 . S
O691 C689 1.279 . S
O692 Cd682 2.297 . S
O692 C687 1.247 . S
O693 Cd682 2.439 . S
O693 C687 1.208 . S
O694 Cd695 2.223 . S
O694 C702 1.315 . S
Cd695 O694 2.223 . S
Cd695 O698 2.297 . S
Cd695 O699 2.439 . S
Cd695 O705 2.240 . S
Cd696 O697 2.240 . S
Cd696 O704 2.223 . S
Cd696 O706 2.297 . S
Cd696 O707 2.439 . S
O697 Cd696 2.240 . S
O697 C702 1.279 . S
O698 Cd695 2.297 . S
O698 C700 1.247 . S
O699 Cd695 2.439 . S
O699 C700 1.208 . S
C700 O698 1.247 . S
C700 O699 1.208 . S
C701 O706 1.247 . S
C701 O707 1.208 . S
C702 O694 1.315 . S
C702 O697 1.279 . S
C703 O704 1.315 . S
C703 O705 1.279 . S
O704 Cd696 2.223 . S
O704 C703 1.315 . S
O705 Cd695 2.240 . S
O705 C703 1.279 . S
O706 Cd696 2.297 . S
O706 C701 1.247 . S
O707 Cd696 2.439 . S
O707 C701 1.208 . S
O708 Cd709 2.223 . S
O708 C716 1.315 . S
Cd709 O708 2.223 . S
Cd709 O712 2.297 . S
Cd709 O713 2.439 . S
Cd709 O719 2.240 . S
Cd710 O711 2.240 . S
Cd710 O718 2.223 . S
Cd710 O720 2.297 . S
Cd710 O721 2.439 . S
O711 Cd710 2.240 . S
O711 C716 1.279 . S
O712 Cd709 2.297 . S
O712 C714 1.247 . S
O713 Cd709 2.439 . S
O713 C714 1.208 . S
C714 O712 1.247 . S
C714 O713 1.208 . S
C715 O720 1.247 . S
C715 O721 1.208 . S
C716 O708 1.315 . S
C716 O711 1.279 . S
C717 O718 1.315 . S
C717 O719 1.279 . S
O718 Cd710 2.223 . S
O718 C717 1.315 . S
O719 Cd709 2.240 . S
O719 C717 1.279 . S
O720 Cd710 2.297 . S
O720 C715 1.247 . S
O721 Cd710 2.439 . S
O721 C715 1.208 . S
O722 Cd723 2.223 1_545 S
O722 C730 1.315 . S
Cd723 O722 2.223 1_565 S
Cd723 O726 2.297 . S
Cd723 O727 2.439 . S
Cd723 O733 2.240 1_565 S
Cd724 O725 2.240 . S
Cd724 O732 2.223 . S
Cd724 O734 2.297 . S
Cd724 O735 2.439 1_545 S
O725 Cd724 2.240 . S
O725 C730 1.279 . S
O726 Cd723 2.297 . S
O726 C728 1.247 . S
O727 Cd723 2.439 . S
O727 C728 1.208 . S
C728 O726 1.247 . S
C728 O727 1.208 . S
C729 O734 1.247 1_565 S
C729 O735 1.208 . S
C730 O722 1.315 . S
C730 O725 1.279 . S
C731 O732 1.315 . S
C731 O733 1.279 . S
O732 Cd724 2.223 . S
O732 C731 1.315 . S
O733 Cd723 2.240 1_545 S
O733 C731 1.279 . S
O734 Cd724 2.297 . S
O734 C729 1.247 1_545 S
O735 Cd724 2.439 1_565 S
O735 C729 1.208 . S
O736 Cd737 2.223 . S
O736 C744 1.315 . S
Cd737 O736 2.223 . S
Cd737 O740 2.297 1_655 S
Cd737 O741 2.439 1_655 S
Cd737 O747 2.240 . S
Cd738 O739 2.240 . S
Cd738 O746 2.223 1_455 S
Cd738 O748 2.297 . S
Cd738 O749 2.439 . S
O739 Cd738 2.240 . S
O739 C744 1.279 1_455 S
O740 Cd737 2.297 1_455 S
O740 C742 1.247 . S
O741 Cd737 2.439 1_455 S
O741 C742 1.208 . S
C742 O740 1.247 . S
C742 O741 1.208 . S
C743 O748 1.247 . S
C743 O749 1.208 . S
C744 O736 1.315 . S
C744 O739 1.279 1_655 S
C745 O746 1.315 . S
C745 O747 1.279 . S
O746 Cd738 2.223 1_655 S
O746 C745 1.315 . S
O747 Cd737 2.240 . S
O747 C745 1.279 . S
O748 Cd738 2.297 . S
O748 C743 1.247 . S
O749 Cd738 2.439 . S
O749 C743 1.208 . S
O750 Cd751 2.223 . S
O750 C758 1.315 . S
Cd751 O750 2.223 . S
Cd751 O754 2.297 . S
Cd751 O755 2.439 . S
Cd751 O761 2.240 . S
Cd752 O753 2.240 . S
Cd752 O760 2.223 . S
Cd752 O762 2.297 . S
Cd752 O763 2.439 . S
O753 Cd752 2.240 . S
O753 C758 1.279 . S
O754 Cd751 2.297 . S
O754 C756 1.247 . S
O755 Cd751 2.439 . S
O755 C756 1.208 . S
C756 O754 1.247 . S
C756 O755 1.208 . S
C757 O762 1.247 . S
C757 O763 1.208 . S
C758 O750 1.315 . S
C758 O753 1.279 . S
C759 O760 1.315 . S
C759 O761 1.279 . S
O760 Cd752 2.223 . S
O760 C759 1.315 . S
O761 Cd751 2.240 . S
O761 C759 1.279 . S
O762 Cd752 2.297 . S
O762 C757 1.247 . S
O763 Cd752 2.439 . S
O763 C757 1.208 . S
O764 Cd765 2.223 1_655 S
O764 C772 1.315 . S
Cd765 O764 2.223 1_455 S
Cd765 O768 2.297 . S
Cd765 O769 2.439 . S
Cd765 O775 2.240 . S
Cd766 O767 2.240 . S
Cd766 O774 2.223 . S
Cd766 O776 2.297 1_655 S
Cd766 O777 2.439 1_655 S
O767 Cd766 2.240 . S
O767 C772 1.279 . S
O768 Cd765 2.297 . S
O768 C770 1.247 . S
O769 Cd765 2.439 . S
O769 C770 1.208 . S
C770 O768 1.247 . S
C770 O769 1.208 . S
C771 O776 1.247 . S
C771 O777 1.208 . S
C772 O764 1.315 . S
C772 O767 1.279 . S
C773 O774 1.315 . S
C773 O775 1.279 1_655 S
O774 Cd766 2.223 . S
O774 C773 1.315 . S
O775 Cd765 2.240 . S
O775 C773 1.279 1_455 S
O776 Cd766 2.297 1_455 S
O776 C771 1.247 . S
O777 Cd766 2.439 1_455 S
O777 C771 1.208 . S
O778 Cd779 2.223 . S
O778 C786 1.315 . S
Cd779 O778 2.223 . S
Cd779 O782 2.297 . S
Cd779 O783 2.439 . S
Cd779 O789 2.240 . S
Cd780 O781 2.240 . S
Cd780 O788 2.223 . S
Cd780 O790 2.297 . S
Cd780 O791 2.439 . S
O781 Cd780 2.240 . S
O781 C786 1.279 . S
O782 Cd779 2.297 . S
O782 C784 1.247 . S
O783 Cd779 2.439 . S
O783 C784 1.208 . S
C784 O782 1.247 . S
C784 O783 1.208 . S
C785 O790 1.247 . S
C785 O791 1.208 . S
C786 O778 1.315 . S
C786 O781 1.279 . S
C787 O788 1.315 . S
C787 O789 1.279 . S
O788 Cd780 2.223 . S
O788 C787 1.315 . S
O789 Cd779 2.240 . S
O789 C787 1.279 . S
O790 Cd780 2.297 . S
O790 C785 1.247 . S
O791 Cd780 2.439 . S
O791 C785 1.208 . S
H792 C800 0.950 . S
H793 C805 0.950 . S
H794 C802 0.950 . S
H795 C804 0.950 . S
H796 C806 0.950 1_554 S
H797 C808 0.950 . S
H798 C810 0.950 . S
H799 C811 0.950 . S
C800 H792 0.950 . S
C800 C801 1.386 . S
C800 C802 1.391 . S
C801 C800 1.386 . S
C801 C805 1.393 . S
C802 H794 0.950 . S
C802 C800 1.391 . S
C802 C803 1.400 . S
C803 C802 1.400 . S
C803 C804 1.398 . S
C803 C809 1.491 . S
C804 H795 0.950 . S
C804 C803 1.398 . S
C804 C805 1.391 . S
C805 H793 0.950 . S
C805 C801 1.393 . S
C805 C804 1.391 . S
C806 H796 0.950 1_556 S
C806 C807 1.386 . S
C806 C808 1.391 . S
C807 C806 1.386 . S
C807 C811 1.393 . S
C808 H797 0.950 . S
C808 C806 1.391 . S
C808 C809 1.400 . S
C809 C803 1.491 . S
C809 C808 1.400 . S
C809 C810 1.398 . S
C810 H798 0.950 . S
C810 C809 1.398 . S
C810 C811 1.391 . S
C811 H799 0.950 . S
C811 C807 1.393 . S
C811 C810 1.391 . S
H812 C820 0.950 . S
H813 C825 0.950 . S
H814 C822 0.950 . S
H815 C824 0.950 . S
H816 C826 0.950 . S
H817 C828 0.950 . S
H818 C830 0.950 . S
H819 C831 0.950 . S
C820 H812 0.950 . S
C820 C821 1.386 . S
C820 C822 1.391 1_655 S
C821 C820 1.386 . S
C821 C825 1.393 . S
C822 H814 0.950 . S
C822 C820 1.391 1_455 S
C822 C823 1.400 . S
C823 C822 1.400 . S
C823 C824 1.398 . S
C823 C829 1.491 . S
C824 H815 0.950 . S
C824 C823 1.398 . S
C824 C825 1.391 1_455 S
C825 H813 0.950 . S
C825 C821 1.393 . S
C825 C824 1.391 1_655 S
C826 H816 0.950 . S
C826 C827 1.386 . S
C826 C828 1.391 . S
C827 C826 1.386 . S
C827 C831 1.393 . S
C828 H817 0.950 . S
C828 C826 1.391 . S
C828 C829 1.400 . S
C829 C823 1.491 . S
C829 C828 1.400 . S
C829 C830 1.398 . S
C830 H818 0.950 . S
C830 C829 1.398 . S
C830 C831 1.391 . S
C831 H819 0.950 . S
C831 C827 1.393 . S
C831 C830 1.391 . S
H832 C840 0.950 . S
H833 C845 0.950 . S
H834 C842 0.950 . S
H835 C844 0.950 . S
H836 C846 0.950 . S
H837 C848 0.950 . S
H838 C850 0.950 . S
H839 C851 0.950 . S
C840 H832 0.950 . S
C840 C841 1.386 . S
C840 C842 1.391 . S
C841 C840 1.386 . S
C841 C845 1.393 . S
C842 H834 0.950 . S
C842 C840 1.391 . S
C842 C843 1.400 . S
C843 C842 1.400 . S
C843 C844 1.398 . S
C843 C849 1.491 . S
C844 H835 0.950 . S
C844 C843 1.398 . S
C844 C845 1.391 . S
C845 H833 0.950 . S
C845 C841 1.393 . S
C845 C844 1.391 . S
C846 H836 0.950 . S
C846 C847 1.386 . S
C846 C848 1.391 . S
C847 C846 1.386 . S
C847 C851 1.393 . S
C848 H837 0.950 . S
C848 C846 1.391 . S
C848 C849 1.400 . S
C849 C843 1.491 . S
C849 C848 1.400 . S
C849 C850 1.398 . S
C850 H838 0.950 . S
C850 C849 1.398 . S
C850 C851 1.391 . S
C851 H839 0.950 . S
C851 C847 1.393 . S
C851 C850 1.391 . S
H852 C860 0.950 1_545 S
H853 C865 0.935 1_455 S
H854 C862 0.950 . S
H855 C864 0.950 . S
H856 C866 0.933 1_565 S
H857 C868 0.950 . S
H858 C870 0.950 . S
H859 C871 0.950 . S
C860 H852 0.950 1_565 S
C860 C861 1.386 . S
C860 C862 1.391 1_465 S
C861 C860 1.386 . S
C861 C865 1.393 1_455 S
C862 H854 0.950 . S
C862 C860 1.391 1_645 S
C862 C863 1.400 1_545 S
C863 C862 1.400 1_565 S
C863 C864 1.398 . S
C863 C869 1.491 1_565 S
C864 H855 0.950 . S
C864 C863 1.398 . S
C864 C865 1.391 . S
C865 H853 0.935 1_655 S
C865 C861 1.393 1_655 S
C865 C864 1.391 . S
C866 H856 0.933 1_545 S
C866 C867 1.386 . S
C866 C868 1.391 1_545 S
C867 C866 1.386 . S
C867 C871 1.393 . S
C868 H857 0.950 . S
C868 C866 1.391 1_565 S
C868 C869 1.400 1_565 S
C869 C863 1.491 1_545 S
C869 C868 1.400 1_545 S
C869 C870 1.398 . S
C870 H858 0.950 . S
C870 C869 1.398 . S
C870 C871 1.391 . S
C871 H859 0.950 . S
C871 C867 1.393 . S
C871 C870 1.391 . S
H872 C880 0.950 . S
H873 C885 0.950 . S
H874 C882 0.950 . S
H875 C884 0.950 . S
H876 C886 0.950 . S
H877 C888 0.950 . S
H878 C890 0.950 . S
H879 C891 0.950 . S
C880 H872 0.950 . S
C880 C881 1.386 . S
C880 C882 1.391 . S
C881 C880 1.386 . S
C881 C885 1.393 . S
C882 H874 0.950 . S
C882 C880 1.391 . S
C882 C883 1.400 . S
C883 C882 1.400 . S
C883 C884 1.398 . S
C883 C889 1.491 . S
C884 H875 0.950 . S
C884 C883 1.398 . S
C884 C885 1.391 . S
C885 H873 0.950 . S
C885 C881 1.393 . S
C885 C884 1.391 . S
C886 H876 0.950 . S
C886 C887 1.386 . S
C886 C888 1.391 . S
C887 C886 1.386 . S
C887 C891 1.393 . S
C888 H877 0.950 . S
C888 C886 1.391 . S
C888 C889 1.400 . S
C889 C883 1.491 . S
C889 C888 1.400 . S
C889 C890 1.398 . S
C890 H878 0.950 . S
C890 C889 1.398 . S
C890 C891 1.391 . S
C891 H879 0.950 . S
C891 C887 1.393 . S
C891 C890 1.391 . S
H892 C900 0.950 . S
H893 C905 0.950 . S
H894 C902 0.950 . S
H895 C904 0.950 . S
H896 C906 0.950 . S
H897 C908 0.950 . S
H898 C910 0.950 . S
H899 C911 0.950 . S
C900 H892 0.950 . S
C900 C901 1.386 . S
C900 C902 1.391 . S
C901 C900 1.386 . S
C901 C905 1.393 . S
C902 H894 0.950 . S
C902 C900 1.391 . S
C902 C903 1.400 . S
C903 C902 1.400 . S
C903 C904 1.398 . S
C903 C909 1.491 . S
C904 H895 0.950 . S
C904 C903 1.398 . S
C904 C905 1.391 . S
C905 H893 0.950 . S
C905 C901 1.393 . S
C905 C904 1.391 . S
C906 H896 0.950 . S
C906 C907 1.386 . S
C906 C908 1.391 . S
C907 C906 1.386 . S
C907 C911 1.393 . S
C908 H897 0.950 . S
C908 C906 1.391 . S
C908 C909 1.400 . S
C909 C903 1.491 . S
C909 C908 1.400 . S
C909 C910 1.398 . S
C910 H898 0.950 . S
C910 C909 1.398 . S
C910 C911 1.391 . S
C911 H899 0.950 . S
C911 C907 1.393 . S
C911 C910 1.391 . S
H912 C920 0.950 . S
H913 C925 0.950 . S
H914 C922 0.950 . S
H915 C924 0.950 . S
H916 C926 0.950 . S
H917 C928 0.950 . S
H918 C930 0.950 . S
H919 C931 0.950 . S
C920 H912 0.950 . S
C920 C921 1.386 . S
C920 C922 1.391 . S
C921 C920 1.386 . S
C921 C925 1.393 . S
C922 H914 0.950 . S
C922 C920 1.391 . S
C922 C923 1.400 . S
C923 C922 1.400 . S
C923 C924 1.398 . S
C923 C929 1.491 . S
C924 H915 0.950 . S
C924 C923 1.398 . S
C924 C925 1.391 . S
C925 H913 0.950 . S
C925 C921 1.393 . S
C925 C924 1.391 . S
C926 H916 0.950 . S
C926 C927 1.386 . S
C926 C928 1.391 . S
C927 C926 1.386 . S
C927 C931 1.393 . S
C928 H917 0.950 . S
C928 C926 1.391 . S
C928 C929 1.400 . S
C929 C923 1.491 . S
C929 C928 1.400 . S
C929 C930 1.398 . S
C930 H918 0.950 . S
C930 C929 1.398 . S
C930 C931 1.391 . S
C931 H919 0.950 . S
C931 C927 1.393 . S
C931 C930 1.391 . S
H932 C940 0.950 . S
H933 C945 0.950 . S
H934 C942 0.950 . S
H935 C944 0.950 . S
H936 C946 0.950 . S
H937 C948 0.950 . S
H938 C950 0.950 . S
H939 C951 0.950 . S
C940 H932 0.950 . S
C940 C941 1.386 . S
C940 C942 1.391 . S
C941 C940 1.386 . S
C941 C945 1.393 . S
C942 H934 0.950 . S
C942 C940 1.391 . S
C942 C943 1.400 . S
C943 C942 1.400 . S
C943 C944 1.398 . S
C943 C949 1.491 . S
C944 H935 0.950 . S
C944 C943 1.398 . S
C944 C945 1.391 . S
C945 H933 0.950 . S
C945 C941 1.393 . S
C945 C944 1.391 . S
C946 H936 0.950 . S
C946 C947 1.386 . S
C946 C948 1.391 . S
C947 C946 1.386 . S
C947 C951 1.393 . S
C948 H937 0.950 . S
C948 C946 1.391 . S
C948 C949 1.400 . S
C949 C943 1.491 . S
C949 C948 1.400 . S
C949 C950 1.398 . S
C950 H938 0.950 . S
C950 C949 1.398 . S
C950 C951 1.391 . S
C951 H939 0.950 . S
C951 C947 1.393 . S
C951 C950 1.391 . S
H952 C960 0.950 . S
H953 C965 0.950 . S
H954 C962 0.950 . S
H955 C964 0.950 . S
H956 C966 0.950 . S
H957 C968 0.950 . S
H958 C970 0.950 . S
H959 C971 0.950 . S
C960 H952 0.950 . S
C960 C961 1.386 . S
C960 C962 1.391 . S
C961 C960 1.386 . S
C961 C965 1.393 . S
C962 H954 0.950 . S
C962 C960 1.391 . S
C962 C963 1.400 . S
C963 C962 1.400 . S
C963 C964 1.398 . S
C963 C969 1.491 . S
C964 H955 0.950 . S
C964 C963 1.398 . S
C964 C965 1.391 . S
C965 H953 0.950 . S
C965 C961 1.393 . S
C965 C964 1.391 . S
C966 H956 0.950 . S
C966 C967 1.386 . S
C966 C968 1.391 . S
C967 C966 1.386 . S
C967 C971 1.393 . S
C968 H957 0.950 . S
C968 C966 1.391 . S
C968 C969 1.400 . S
C969 C963 1.491 . S
C969 C968 1.400 . S
C969 C970 1.398 . S
C970 H958 0.950 . S
C970 C969 1.398 . S
C970 C971 1.391 . S
C971 H959 0.950 . S
C971 C967 1.393 . S
C971 C970 1.391 . S
H972 C980 0.950 . S
H973 C985 0.950 . S
H974 C982 0.950 . S
H975 C984 0.950 . S
H976 C986 0.950 . S
H977 C988 0.950 . S
H978 C990 0.950 . S
H979 C991 0.950 . S
C980 H972 0.950 . S
C980 C981 1.386 . S
C980 C982 1.391 . S
C981 C980 1.386 . S
C981 C985 1.393 . S
C982 H974 0.950 . S
C982 C980 1.391 . S
C982 C983 1.400 . S
C983 C982 1.400 . S
C983 C984 1.398 . S
C983 C989 1.491 . S
C984 H975 0.950 . S
C984 C983 1.398 . S
C984 C985 1.391 . S
C985 H973 0.950 . S
C985 C981 1.393 . S
C985 C984 1.391 . S
C986 H976 0.950 . S
C986 C987 1.386 . S
C986 C988 1.391 . S
C987 C986 1.386 . S
C987 C991 1.393 . S
C988 H977 0.950 . S
C988 C986 1.391 . S
C988 C989 1.400 . S
C989 C983 1.491 . S
C989 C988 1.400 . S
C989 C990 1.398 . S
C990 H978 0.950 . S
C990 C989 1.398 . S
C990 C991 1.391 . S
C991 H979 0.950 . S
C991 C987 1.393 . S
C991 C990 1.391 . S
H992 C1000 0.950 . S
H993 C1005 0.950 . S
H994 C1002 0.950 . S
H995 C1004 0.950 . S
H996 C1006 0.950 . S
H997 C1008 0.950 . S
H998 C1010 0.950 . S
H999 C1011 0.950 . S
C1000 H992 0.950 . S
C1000 C1001 1.386 . S
C1000 C1002 1.391 . S
C1001 C1000 1.386 . S
C1001 C1005 1.393 . S
C1002 H994 0.950 . S
C1002 C1000 1.391 . S
C1002 C1003 1.400 . S
C1003 C1002 1.400 . S
C1003 C1004 1.398 . S
C1003 C1009 1.491 . S
C1004 H995 0.950 . S
C1004 C1003 1.398 . S
C1004 C1005 1.391 . S
C1005 H993 0.950 . S
C1005 C1001 1.393 . S
C1005 C1004 1.391 . S
C1006 H996 0.950 . S
C1006 C1007 1.386 . S
C1006 C1008 1.391 . S
C1007 C1006 1.386 . S
C1007 C1011 1.393 . S
C1008 H997 0.950 . S
C1008 C1006 1.391 . S
C1008 C1009 1.400 . S
C1009 C1003 1.491 . S
C1009 C1008 1.400 . S
C1009 C1010 1.398 . S
C1010 H998 0.950 . S
C1010 C1009 1.398 . S
C1010 C1011 1.391 . S
C1011 H999 0.950 . S
C1011 C1007 1.393 . S
C1011 C1010 1.391 . S
H1012 C1020 0.950 . S
H1013 C1025 0.950 . S
H1014 C1022 0.950 . S
H1015 C1024 0.950 . S
H1016 C1026 0.950 . S
H1017 C1028 0.950 . S
H1018 C1030 0.950 . S
H1019 C1031 0.950 . S
C1020 H1012 0.950 . S
C1020 C1021 1.386 . S
C1020 C1022 1.391 . S
C1021 C1020 1.386 . S
C1021 C1025 1.393 . S
C1022 H1014 0.950 . S
C1022 C1020 1.391 . S
C1022 C1023 1.400 . S
C1023 C1022 1.400 . S
C1023 C1024 1.398 . S
C1023 C1029 1.491 . S
C1024 H1015 0.950 . S
C1024 C1023 1.398 . S
C1024 C1025 1.391 . S
C1025 H1013 0.950 . S
C1025 C1021 1.393 . S
C1025 C1024 1.391 . S
C1026 H1016 0.950 . S
C1026 C1027 1.386 . S
C1026 C1028 1.391 . S
C1027 C1026 1.386 . S
C1027 C1031 1.393 . S
C1028 H1017 0.950 . S
C1028 C1026 1.391 . S
C1028 C1029 1.400 . S
C1029 C1023 1.491 . S
C1029 C1028 1.400 . S
C1029 C1030 1.398 . S
C1030 H1018 0.950 . S
C1030 C1029 1.398 . S
C1030 C1031 1.391 . S
C1031 H1019 0.950 . S
C1031 C1027 1.393 . S
C1031 C1030 1.391 . S
H1032 C1040 0.950 . S
H1033 C1045 0.950 . S
H1034 C1042 0.950 . S
H1035 C1044 0.950 . S
H1036 C1046 0.950 . S
H1037 C1048 0.950 . S
H1038 C1050 0.950 . S
H1039 C1051 0.950 . S
C1040 H1032 0.950 . S
C1040 C1041 1.386 . S
C1040 C1042 1.391 . S
C1041 C1040 1.386 . S
C1041 C1045 1.393 . S
C1042 H1034 0.950 . S
C1042 C1040 1.391 . S
C1042 C1043 1.400 . S
C1043 C1042 1.400 . S
C1043 C1044 1.398 . S
C1043 C1049 1.491 . S
C1044 H1035 0.950 . S
C1044 C1043 1.398 . S
C1044 C1045 1.391 . S
C1045 H1033 0.950 . S
C1045 C1041 1.393 . S
C1045 C1044 1.391 . S
C1046 H1036 0.950 . S
C1046 C1047 1.386 . S
C1046 C1048 1.391 . S
C1047 C1046 1.386 . S
C1047 C1051 1.393 . S
C1048 H1037 0.950 . S
C1048 C1046 1.391 . S
C1048 C1049 1.400 . S
C1049 C1043 1.491 . S
C1049 C1048 1.400 . S
C1049 C1050 1.398 . S
C1050 H1038 0.950 . S
C1050 C1049 1.398 . S
C1050 C1051 1.391 . S
C1051 H1039 0.950 . S
C1051 C1047 1.393 . S
C1051 C1050 1.391 . S
H1052 C1060 0.950 . S
H1053 C1065 0.950 . S
H1054 C1062 0.950 . S
H1055 C1064 0.950 . S
H1056 C1066 0.950 . S
H1057 C1068 0.950 . S
H1058 C1070 0.950 . S
H1059 C1071 0.950 . S
C1060 H1052 0.950 . S
C1060 C1061 1.386 . S
C1060 C1062 1.391 . S
C1061 C1060 1.386 . S
C1061 C1065 1.393 . S
C1062 H1054 0.950 . S
C1062 C1060 1.391 . S
C1062 C1063 1.400 . S
C1063 C1062 1.400 . S
C1063 C1064 1.398 . S
C1063 C1069 1.491 . S
C1064 H1055 0.950 . S
C1064 C1063 1.398 . S
C1064 C1065 1.391 . S
C1065 H1053 0.950 . S
C1065 C1061 1.393 . S
C1065 C1064 1.391 . S
C1066 H1056 0.950 . S
C1066 C1067 1.386 . S
C1066 C1068 1.391 . S
C1067 C1066 1.386 . S
C1067 C1071 1.393 . S
C1068 H1057 0.950 . S
C1068 C1066 1.391 . S
C1068 C1069 1.400 . S
C1069 C1063 1.491 . S
C1069 C1068 1.400 . S
C1069 C1070 1.398 . S
C1070 H1058 0.950 . S
C1070 C1069 1.398 . S
C1070 C1071 1.391 . S
C1071 H1059 0.950 . S
C1071 C1067 1.393 . S
C1071 C1070 1.391 . S
H1072 C1080 0.950 . S
H1073 C1085 0.950 . S
H1074 C1082 0.950 . S
H1075 C1084 0.950 . S
H1076 C1086 0.950 . S
H1077 C1088 0.950 . S
H1078 C1090 0.950 . S
H1079 C1091 0.950 . S
C1080 H1072 0.950 . S
C1080 C1081 1.386 . S
C1080 C1082 1.391 . S
C1081 C1080 1.386 . S
C1081 C1085 1.393 . S
C1082 H1074 0.950 . S
C1082 C1080 1.391 . S
C1082 C1083 1.400 . S
C1083 C1082 1.400 . S
C1083 C1084 1.398 . S
C1083 C1089 1.491 . S
C1084 H1075 0.950 . S
C1084 C1083 1.398 . S
C1084 C1085 1.391 . S
C1085 H1073 0.950 . S
C1085 C1081 1.393 . S
C1085 C1084 1.391 . S
C1086 H1076 0.950 . S
C1086 C1087 1.386 . S
C1086 C1088 1.391 . S
C1087 C1086 1.386 . S
C1087 C1091 1.393 . S
C1088 H1077 0.950 . S
C1088 C1086 1.391 . S
C1088 C1089 1.400 . S
C1089 C1083 1.491 . S
C1089 C1088 1.400 . S
C1089 C1090 1.398 . S
C1090 H1078 0.950 . S
C1090 C1089 1.398 . S
C1090 C1091 1.391 . S
C1091 H1079 0.950 . S
C1091 C1087 1.393 . S
C1091 C1090 1.391 . S
H1092 C1100 0.950 . S
H1093 C1105 0.950 . S
H1094 C1102 0.950 . S
H1095 C1104 0.950 . S
H1096 C1106 0.950 . S
H1097 C1108 0.950 . S
H1098 C1110 0.950 . S
H1099 C1111 0.950 . S
C1100 H1092 0.950 . S
C1100 C1101 1.386 . S
C1100 C1102 1.391 . S
C1101 C1100 1.386 . S
C1101 C1105 1.393 . S
C1102 H1094 0.950 . S
C1102 C1100 1.391 . S
C1102 C1103 1.400 . S
C1103 C1102 1.400 . S
C1103 C1104 1.398 . S
C1103 C1109 1.491 . S
C1104 H1095 0.950 . S
C1104 C1103 1.398 . S
C1104 C1105 1.391 . S
C1105 H1093 0.950 . S
C1105 C1101 1.393 . S
C1105 C1104 1.391 . S
C1106 H1096 0.950 . S
C1106 C1107 1.386 . S
C1106 C1108 1.391 . S
C1107 C1106 1.386 . S
C1107 C1111 1.393 . S
C1108 H1097 0.950 . S
C1108 C1106 1.391 . S
C1108 C1109 1.400 . S
C1109 C1103 1.491 . S
C1109 C1108 1.400 . S
C1109 C1110 1.398 . S
C1110 H1098 0.950 . S
C1110 C1109 1.398 . S
C1110 C1111 1.391 . S
C1111 H1099 0.950 . S
C1111 C1107 1.393 . S
C1111 C1110 1.391 . S
H1112 C1120 0.950 . S
H1113 C1125 0.950 . S
H1114 C1122 0.950 . S
H1115 C1124 0.950 . S
H1116 C1126 0.950 . S
H1117 C1128 0.950 . S
H1118 C1130 0.950 . S
H1119 C1131 0.950 . S
C1120 H1112 0.950 . S
C1120 C1121 1.386 . S
C1120 C1122 1.391 . S
C1121 C1120 1.386 . S
C1121 C1125 1.393 . S
C1122 H1114 0.950 . S
C1122 C1120 1.391 . S
C1122 C1123 1.400 . S
C1123 C1122 1.400 . S
C1123 C1124 1.398 . S
C1123 C1129 1.491 . S
C1124 H1115 0.950 . S
C1124 C1123 1.398 . S
C1124 C1125 1.391 . S
C1125 H1113 0.950 . S
C1125 C1121 1.393 . S
C1125 C1124 1.391 . S
C1126 H1116 0.950 . S
C1126 C1127 1.386 1_565 S
C1126 C1128 1.391 . S
C1127 C1126 1.386 1_545 S
C1127 C1131 1.393 . S
C1128 H1117 0.950 . S
C1128 C1126 1.391 . S
C1128 C1129 1.400 . S
C1129 C1123 1.491 . S
C1129 C1128 1.400 . S
C1129 C1130 1.398 . S
C1130 H1118 0.950 . S
C1130 C1129 1.398 . S
C1130 C1131 1.391 1_565 S
C1131 H1119 0.950 . S
C1131 C1127 1.393 . S
C1131 C1130 1.391 1_545 S
H1132 C1140 0.950 . S
H1133 C1145 0.950 . S
H1134 C1142 0.950 . S
H1135 C1144 0.950 . S
H1136 C1146 0.950 . S
H1137 C1148 0.950 . S
H1138 C1150 0.950 . S
H1139 C1151 0.950 . S
C1140 H1132 0.950 . S
C1140 C1141 1.386 . S
C1140 C1142 1.391 . S
C1141 C1140 1.386 . S
C1141 C1145 1.393 . S
C1142 H1134 0.950 . S
C1142 C1140 1.391 . S
C1142 C1143 1.400 . S
C1143 C1142 1.400 . S
C1143 C1144 1.398 . S
C1143 C1149 1.491 . S
C1144 H1135 0.950 . S
C1144 C1143 1.398 . S
C1144 C1145 1.391 . S
C1145 H1133 0.950 . S
C1145 C1141 1.393 . S
C1145 C1144 1.391 . S
C1146 H1136 0.950 . S
C1146 C1147 1.386 . S
C1146 C1148 1.391 . S
C1147 C1146 1.386 . S
C1147 C1151 1.393 . S
C1148 H1137 0.950 . S
C1148 C1146 1.391 . S
C1148 C1149 1.400 . S
C1149 C1143 1.491 . S
C1149 C1148 1.400 . S
C1149 C1150 1.398 . S
C1150 H1138 0.950 . S
C1150 C1149 1.398 . S
C1150 C1151 1.391 . S
C1151 H1139 0.950 . S
C1151 C1147 1.393 . S
C1151 C1150 1.391 . S
H1152 C1160 0.950 . S
H1153 C1165 0.950 . S
H1154 C1162 0.950 1_554 S
H1155 C1164 0.950 1_565 S
H1156 C1166 0.950 . S
H1157 C1168 0.950 . S
H1158 C1170 0.950 . S
H1159 C1171 0.950 . S
C1160 H1152 0.950 . S
C1160 C1161 1.386 . S
C1160 C1162 1.391 . S
C1161 C1160 1.386 . S
C1161 C1165 1.393 . S
C1162 H1154 0.950 1_556 S
C1162 C1160 1.391 . S
C1162 C1163 1.427 . S
C1163 C1162 1.427 . S
C1163 C1164 1.405 . S
C1163 C1169 1.461 1_545 S
C1164 H1155 0.950 1_545 S
C1164 C1163 1.405 . S
C1164 C1165 1.391 . S
C1165 H1153 0.950 . S
C1165 C1161 1.393 . S
C1165 C1164 1.391 . S
C1166 H1156 0.950 . S
C1166 C1167 1.386 1_556 S
C1166 C1168 1.391 . S
C1167 C1166 1.386 1_554 S
C1167 C1171 1.393 . S
C1168 H1157 0.950 . S
C1168 C1166 1.391 . S
C1168 C1169 1.400 . S
C1169 C1163 1.461 1_565 S
C1169 C1168 1.400 . S
C1169 C1170 1.398 1_556 S
C1170 H1158 0.950 . S
C1170 C1169 1.398 1_554 S
C1170 C1171 1.391 . S
C1171 H1159 0.950 . S
C1171 C1167 1.393 . S
C1171 C1170 1.391 . S
H1172 C1180 0.950 . S
H1173 C1185 0.950 . S
H1174 C1182 0.950 . S
H1175 C1184 0.950 . S
H1176 C1186 0.950 . S
H1177 C1188 0.950 . S
H1178 C1190 0.950 . S
H1179 C1191 0.950 . S
C1180 H1172 0.950 . S
C1180 C1181 1.386 . S
C1180 C1182 1.391 . S
C1181 C1180 1.386 . S
C1181 C1185 1.393 . S
C1182 H1174 0.950 . S
C1182 C1180 1.391 . S
C1182 C1183 1.400 . S
C1183 C1182 1.400 . S
C1183 C1184 1.398 . S
C1183 C1189 1.491 . S
C1184 H1175 0.950 . S
C1184 C1183 1.398 . S
C1184 C1185 1.391 . S
C1185 H1173 0.950 . S
C1185 C1181 1.393 . S
C1185 C1184 1.391 . S
C1186 H1176 0.950 . S
C1186 C1187 1.386 . S
C1186 C1188 1.391 . S
C1187 C1186 1.386 . S
C1187 C1191 1.393 . S
C1188 H1177 0.950 . S
C1188 C1186 1.391 . S
C1188 C1189 1.400 . S
C1189 C1183 1.491 . S
C1189 C1188 1.400 . S
C1189 C1190 1.398 . S
C1190 H1178 0.950 . S
C1190 C1189 1.398 . S
C1190 C1191 1.391 . S
C1191 H1179 0.950 . S
C1191 C1187 1.393 . S
C1191 C1190 1.391 . S
H1192 C1200 0.950 . S
H1193 C1205 0.950 . S
H1194 C1202 0.950 . S
H1195 C1204 0.950 . S
H1196 C1206 0.950 . S
H1197 C1208 0.950 . S
H1198 C1210 0.950 . S
H1199 C1211 0.950 . S
C1200 H1192 0.950 . S
C1200 C1201 1.386 . S
C1200 C1202 1.391 . S
C1201 C1200 1.386 . S
C1201 C1205 1.393 . S
C1202 H1194 0.950 . S
C1202 C1200 1.391 . S
C1202 C1203 1.400 . S
C1203 C1202 1.400 . S
C1203 C1204 1.398 . S
C1203 C1209 1.491 . S
C1204 H1195 0.950 . S
C1204 C1203 1.398 . S
C1204 C1205 1.391 . S
C1205 H1193 0.950 . S
C1205 C1201 1.393 . S
C1205 C1204 1.391 . S
C1206 H1196 0.950 . S
C1206 C1207 1.386 . S
C1206 C1208 1.391 . S
C1207 C1206 1.386 . S
C1207 C1211 1.393 . S
C1208 H1197 0.950 . S
C1208 C1206 1.391 . S
C1208 C1209 1.400 . S
C1209 C1203 1.491 . S
C1209 C1208 1.400 . S
C1209 C1210 1.398 . S
C1210 H1198 0.950 . S
C1210 C1209 1.398 . S
C1210 C1211 1.391 . S
C1211 H1199 0.950 . S
C1211 C1207 1.393 . S
C1211 C1210 1.391 . S
H1212 C1220 0.950 . S
H1213 C1225 0.950 . S
H1214 C1222 0.950 . S
H1215 C1224 0.950 . S
H1216 C1226 0.950 . S
H1217 C1228 0.950 . S
H1218 C1230 0.950 . S
H1219 C1231 0.950 . S
C1220 H1212 0.950 . S
C1220 C1221 1.386 . S
C1220 C1222 1.391 . S
C1221 C1220 1.386 . S
C1221 C1225 1.393 . S
C1222 H1214 0.950 . S
C1222 C1220 1.391 . S
C1222 C1223 1.400 . S
C1223 C1222 1.400 . S
C1223 C1224 1.398 . S
C1223 C1229 1.491 . S
C1224 H1215 0.950 . S
C1224 C1223 1.398 . S
C1224 C1225 1.391 . S
C1225 H1213 0.950 . S
C1225 C1221 1.393 . S
C1225 C1224 1.391 . S
C1226 H1216 0.950 . S
C1226 C1227 1.386 . S
C1226 C1228 1.391 . S
C1227 C1226 1.386 . S
C1227 C1231 1.393 . S
C1228 H1217 0.950 . S
C1228 C1226 1.391 . S
C1228 C1229 1.400 . S
C1229 C1223 1.491 . S
C1229 C1228 1.400 . S
C1229 C1230 1.398 . S
C1230 H1218 0.950 . S
C1230 C1229 1.398 . S
C1230 C1231 1.391 . S
C1231 H1219 0.950 . S
C1231 C1227 1.393 . S
C1231 C1230 1.391 . S
H1232 C1240 0.950 . S
H1233 C1245 0.950 . S
H1234 C1242 0.950 . S
H1235 C1244 0.950 . S
H1236 C1246 0.950 . S
H1237 C1248 0.950 . S
H1238 C1250 0.950 . S
H1239 C1251 0.950 . S
C1240 H1232 0.950 . S
C1240 C1241 1.386 1_545 S
C1240 C1242 1.391 . S
C1241 C1240 1.386 1_565 S
C1241 C1245 1.393 . S
C1242 H1234 0.950 . S
C1242 C1240 1.391 . S
C1242 C1243 1.400 . S
C1243 C1242 1.400 . S
C1243 C1244 1.398 . S
C1243 C1249 1.491 . S
C1244 H1235 0.950 . S
C1244 C1243 1.398 . S
C1244 C1245 1.391 1_545 S
C1245 H1233 0.950 . S
C1245 C1241 1.393 . S
C1245 C1244 1.391 1_565 S
C1246 H1236 0.950 . S
C1246 C1247 1.386 . S
C1246 C1248 1.391 . S
C1247 C1246 1.386 . S
C1247 C1251 1.393 . S
C1248 H1237 0.950 . S
C1248 C1246 1.391 . S
C1248 C1249 1.400 . S
C1249 C1243 1.491 . S
C1249 C1248 1.400 . S
C1249 C1250 1.398 . S
C1250 H1238 0.950 . S
C1250 C1249 1.398 . S
C1250 C1251 1.391 . S
C1251 H1239 0.950 . S
C1251 C1247 1.393 . S
C1251 C1250 1.391 . S
H1252 C1260 0.950 . S
H1253 C1265 0.950 . S
H1254 C1262 0.950 . S
H1255 C1264 0.950 . S
H1256 C1266 0.950 . S
H1257 C1268 0.950 . S
H1258 C1270 0.950 . S
H1259 C1271 0.950 . S
C1260 H1252 0.950 . S
C1260 C1261 1.386 . S
C1260 C1262 1.391 . S
C1261 C1260 1.386 . S
C1261 C1265 1.393 . S
C1262 H1254 0.950 . S
C1262 C1260 1.391 . S
C1262 C1263 1.400 . S
C1263 C1262 1.400 . S
C1263 C1264 1.398 . S
C1263 C1269 1.491 . S
C1264 H1255 0.950 . S
C1264 C1263 1.398 . S
C1264 C1265 1.391 . S
C1265 H1253 0.950 . S
C1265 C1261 1.393 . S
C1265 C1264 1.391 . S
C1266 H1256 0.950 . S
C1266 C1267 1.386 . S
C1266 C1268 1.391 . S
C1267 C1266 1.386 . S
C1267 C1271 1.393 . S
C1268 H1257 0.950 . S
C1268 C1266 1.391 . S
C1268 C1269 1.400 . S
C1269 C1263 1.491 . S
C1269 C1268 1.400 . S
C1269 C1270 1.398 . S
C1270 H1258 0.950 . S
C1270 C1269 1.398 . S
C1270 C1271 1.391 . S
C1271 H1259 0.950 . S
C1271 C1267 1.393 . S
C1271 C1270 1.391 . S
H1272 C1280 0.950 . S
H1273 C1285 0.950 . S
H1274 C1282 0.950 . S
H1275 C1284 0.950 . S
H1276 C1286 0.950 . S
H1277 C1288 0.950 . S
H1278 C1290 0.950 . S
H1279 C1291 0.950 . S
C1280 H1272 0.950 . S
C1280 C1281 1.386 . S
C1280 C1282 1.391 . S
C1281 C1280 1.386 . S
C1281 C1285 1.393 . S
C1282 H1274 0.950 . S
C1282 C1280 1.391 . S
C1282 C1283 1.400 . S
C1283 C1282 1.400 . S
C1283 C1284 1.398 . S
C1283 C1289 1.491 . S
C1284 H1275 0.950 . S
C1284 C1283 1.398 . S
C1284 C1285 1.391 . S
C1285 H1273 0.950 . S
C1285 C1281 1.393 . S
C1285 C1284 1.391 . S
C1286 H1276 0.950 . S
C1286 C1287 1.386 . S
C1286 C1288 1.391 . S
C1287 C1286 1.386 . S
C1287 C1291 1.393 . S
C1288 H1277 0.950 . S
C1288 C1286 1.391 . S
C1288 C1289 1.400 . S
C1289 C1283 1.491 . S
C1289 C1288 1.400 . S
C1289 C1290 1.398 . S
C1290 H1278 0.950 . S
C1290 C1289 1.398 . S
C1290 C1291 1.391 . S
C1291 H1279 0.950 . S
C1291 C1287 1.393 . S
C1291 C1290 1.391 . S
H1292 C1300 0.950 . S
H1293 C1305 0.950 . S
H1294 C1302 0.950 . S
H1295 C1304 0.950 . S
H1296 C1306 0.950 . S
H1297 C1308 0.950 . S
H1298 C1310 0.950 . S
H1299 C1311 0.950 . S
C1300 H1292 0.950 . S
C1300 C1301 1.386 . S
C1300 C1302 1.391 . S
C1301 C1300 1.386 . S
C1301 C1305 1.393 . S
C1302 H1294 0.950 . S
C1302 C1300 1.391 . S
C1302 C1303 1.400 . S
C1303 C1302 1.400 . S
C1303 C1304 1.398 . S
C1303 C1309 1.491 . S
C1304 H1295 0.950 . S
C1304 C1303 1.398 . S
C1304 C1305 1.391 . S
C1305 H1293 0.950 . S
C1305 C1301 1.393 . S
C1305 C1304 1.391 . S
C1306 H1296 0.950 . S
C1306 C1307 1.386 . S
C1306 C1308 1.391 . S
C1307 C1306 1.386 . S
C1307 C1311 1.393 . S
C1308 H1297 0.950 . S
C1308 C1306 1.391 . S
C1308 C1309 1.400 . S
C1309 C1303 1.491 . S
C1309 C1308 1.400 . S
C1309 C1310 1.398 . S
C1310 H1298 0.950 . S
C1310 C1309 1.398 . S
C1310 C1311 1.391 . S
C1311 H1299 0.950 . S
C1311 C1307 1.393 . S
C1311 C1310 1.391 . S
H1312 C1320 0.950 . S
H1313 C1325 0.950 . S
H1314 C1322 0.950 . S
H1315 C1324 0.950 . S
H1316 C1326 0.950 . S
H1317 C1328 0.950 . S
H1318 C1330 0.950 . S
H1319 C1331 0.950 . S
C1320 H1312 0.950 . S
C1320 C1321 1.386 . S
C1320 C1322 1.391 . S
C1321 C1320 1.386 . S
C1321 C1325 1.393 . S
C1322 H1314 0.950 . S
C1322 C1320 1.391 . S
C1322 C1323 1.400 . S
C1323 C1322 1.400 . S
C1323 C1324 1.398 . S
C1323 C1329 1.491 . S
C1324 H1315 0.950 . S
C1324 C1323 1.398 . S
C1324 C1325 1.391 . S
C1325 H1313 0.950 . S
C1325 C1321 1.393 . S
C1325 C1324 1.391 . S
C1326 H1316 0.950 . S
C1326 C1327 1.386 . S
C1326 C1328 1.391 . S
C1327 C1326 1.386 . S
C1327 C1331 1.393 . S
C1328 H1317 0.950 . S
C1328 C1326 1.391 . S
C1328 C1329 1.400 . S
C1329 C1323 1.491 . S
C1329 C1328 1.400 . S
C1329 C1330 1.398 . S
C1330 H1318 0.950 . S
C1330 C1329 1.398 . S
C1330 C1331 1.391 . S
C1331 H1319 0.950 . S
C1331 C1327 1.393 . S
C1331 C1330 1.391 . S
H1332 C1340 0.950 . S
H1333 C1345 0.950 . S
H1334 C1342 0.950 . S
H1335 C1344 0.950 . S
H1336 C1346 0.950 . S
H1337 C1348 0.950 . S
H1338 C1350 0.950 . S
H1339 C1351 0.950 . S
C1340 H1332 0.950 . S
C1340 C1341 1.386 . S
C1340 C1342 1.391 . S
C1341 C1340 1.386 . S
C1341 C1345 1.393 . S
C1342 H1334 0.950 . S
C1342 C1340 1.391 . S
C1342 C1343 1.400 . S
C1343 C1342 1.400 . S
C1343 C1344 1.398 . S
C1343 C1349 1.491 . S
C1344 H1335 0.950 . S
C1344 C1343 1.398 . S
C1344 C1345 1.391 . S
C1345 H1333 0.950 . S
C1345 C1341 1.393 . S
C1345 C1344 1.391 . S
C1346 H1336 0.950 . S
C1346 C1347 1.386 . S
C1346 C1348 1.391 . S
C1347 C1346 1.386 . S
C1347 C1351 1.393 . S
C1348 H1337 0.950 . S
C1348 C1346 1.391 . S
C1348 C1349 1.400 . S
C1349 C1343 1.491 . S
C1349 C1348 1.400 . S
C1349 C1350 1.398 . S
C1350 H1338 0.950 . S
C1350 C1349 1.398 . S
C1350 C1351 1.391 . S
C1351 H1339 0.950 . S
C1351 C1347 1.393 . S
C1351 C1350 1.391 . S
H1352 C1360 0.950 . S
H1353 C1365 0.950 . S
H1354 C1362 0.950 . S
H1355 C1364 0.950 . S
H1356 C1366 0.950 . S
H1357 C1368 0.950 . S
H1358 C1370 0.950 . S
H1359 C1371 0.950 . S
C1360 H1352 0.950 . S
C1360 C1361 1.386 . S
C1360 C1362 1.391 . S
C1361 C1360 1.386 . S
C1361 C1365 1.393 . S
C1362 H1354 0.950 . S
C1362 C1360 1.391 . S
C1362 C1363 1.400 . S
C1363 C1362 1.400 . S
C1363 C1364 1.398 . S
C1363 C1369 1.491 . S
C1364 H1355 0.950 . S
C1364 C1363 1.398 . S
C1364 C1365 1.391 . S
C1365 H1353 0.950 . S
C1365 C1361 1.393 . S
C1365 C1364 1.391 . S
C1366 H1356 0.950 . S
C1366 C1367 1.386 . S
C1366 C1368 1.391 . S
C1367 C1366 1.386 . S
C1367 C1371 1.393 . S
C1368 H1357 0.950 . S
C1368 C1366 1.391 . S
C1368 C1369 1.400 . S
C1369 C1363 1.491 . S
C1369 C1368 1.400 . S
C1369 C1370 1.398 . S
C1370 H1358 0.950 . S
C1370 C1369 1.398 . S
C1370 C1371 1.391 . S
C1371 H1359 0.950 . S
C1371 C1367 1.393 . S
C1371 C1370 1.391 . S
H1372 C1380 0.950 . S
H1373 C1385 0.950 . S
H1374 C1382 0.950 . S
H1375 C1384 0.950 1_655 S
H1376 C1386 0.950 . S
H1377 C1388 0.950 . S
H1378 C1390 0.950 . S
H1379 C1391 0.950 . S
C1380 H1372 0.950 . S
C1380 C1381 1.386 . S
C1380 C1382 1.391 . S
C1381 C1380 1.386 . S
C1381 C1385 1.393 . S
C1382 H1374 0.950 . S
C1382 C1380 1.391 . S
C1382 C1383 1.400 1_455 S
C1383 C1382 1.400 1_655 S
C1383 C1384 1.398 1_655 S
C1383 C1389 1.491 . S
C1384 H1375 0.950 1_455 S
C1384 C1383 1.398 1_455 S
C1384 C1385 1.391 . S
C1385 H1373 0.950 . S
C1385 C1381 1.393 . S
C1385 C1384 1.391 . S
C1386 H1376 0.950 . S
C1386 C1387 1.386 . S
C1386 C1388 1.391 . S
C1387 C1386 1.386 . S
C1387 C1391 1.393 . S
C1388 H1377 0.950 . S
C1388 C1386 1.391 . S
C1388 C1389 1.400 . S
C1389 C1383 1.491 . S
C1389 C1388 1.400 . S
C1389 C1390 1.398 . S
C1390 H1378 0.950 . S
C1390 C1389 1.398 . S
C1390 C1391 1.391 . S
C1391 H1379 0.950 . S
C1391 C1387 1.393 . S
C1391 C1390 1.391 . S
H1392 C1400 0.950 . S
H1393 C1405 0.950 . S
H1394 C1402 0.950 . S
H1395 C1404 0.950 . S
H1396 C1406 0.950 . S
H1397 C1408 0.950 . S
H1398 C1410 0.950 . S
H1399 C1411 0.950 . S
C1400 H1392 0.950 . S
C1400 C1401 1.386 . S
C1400 C1402 1.391 . S
C1401 C1400 1.386 . S
C1401 C1405 1.393 . S
C1402 H1394 0.950 . S
C1402 C1400 1.391 . S
C1402 C1403 1.400 . S
C1403 C1402 1.400 . S
C1403 C1404 1.398 . S
C1403 C1409 1.491 . S
C1404 H1395 0.950 . S
C1404 C1403 1.398 . S
C1404 C1405 1.391 . S
C1405 H1393 0.950 . S
C1405 C1401 1.393 . S
C1405 C1404 1.391 . S
C1406 H1396 0.950 . S
C1406 C1407 1.386 . S
C1406 C1408 1.391 . S
C1407 C1406 1.386 . S
C1407 C1411 1.393 . S
C1408 H1397 0.950 . S
C1408 C1406 1.391 . S
C1408 C1409 1.400 . S
C1409 C1403 1.491 . S
C1409 C1408 1.400 . S
C1409 C1410 1.398 . S
C1410 H1398 0.950 . S
C1410 C1409 1.398 . S
C1410 C1411 1.391 . S
C1411 H1399 0.950 . S
C1411 C1407 1.393 . S
C1411 C1410 1.391 . S
H1412 C1420 0.950 . S
H1413 C1425 0.950 . S
H1414 C1422 0.950 . S
H1415 C1424 0.952 . S
H1416 C1426 0.950 . S
H1417 C1428 0.950 . S
H1418 C1430 0.950 . S
H1419 C1431 0.950 . S
C1420 H1412 0.950 . S
C1420 C1421 1.386 . S
C1420 C1422 1.391 . S
C1421 C1420 1.386 . S
C1421 C1425 1.393 . S
C1422 H1414 0.950 . S
C1422 C1420 1.391 . S
C1422 C1423 1.441 . S
C1423 C1422 1.441 . S
C1423 C1424 1.396 1_655 S
C1423 C1429 1.455 1_655 S
C1424 H1415 0.952 . S
C1424 C1423 1.396 1_455 S
C1424 C1425 1.389 1_455 S
C1425 H1413 0.950 . S
C1425 C1421 1.393 . S
C1425 C1424 1.389 1_655 S
C1426 H1416 0.950 . S
C1426 C1427 1.386 . S
C1426 C1428 1.391 . S
C1427 C1426 1.386 . S
C1427 C1431 1.393 . S
C1428 H1417 0.950 . S
C1428 C1426 1.391 . S
C1428 C1429 1.400 . S
C1429 C1423 1.455 1_455 S
C1429 C1428 1.400 . S
C1429 C1430 1.398 . S
C1430 H1418 0.950 . S
C1430 C1429 1.398 . S
C1430 C1431 1.391 . S
C1431 H1419 0.950 . S
C1431 C1427 1.393 . S
C1431 C1430 1.391 . S
H1432 C1440 0.950 . S
H1433 C1445 0.950 . S
H1434 C1442 0.950 . S
H1435 C1444 0.950 . S
H1436 C1446 0.950 . S
H1437 C1448 0.950 . S
H1438 C1450 0.950 . S
H1439 C1451 0.950 . S
C1440 H1432 0.950 . S
C1440 C1441 1.386 . S
C1440 C1442 1.391 . S
C1441 C1440 1.386 . S
C1441 C1445 1.393 . S
C1442 H1434 0.950 . S
C1442 C1440 1.391 . S
C1442 C1443 1.400 . S
C1443 C1442 1.400 . S
C1443 C1444 1.398 . S
C1443 C1449 1.491 . S
C1444 H1435 0.950 . S
C1444 C1443 1.398 . S
C1444 C1445 1.391 . S
C1445 H1433 0.950 . S
C1445 C1441 1.393 . S
C1445 C1444 1.391 . S
C1446 H1436 0.950 . S
C1446 C1447 1.386 . S
C1446 C1448 1.391 . S
C1447 C1446 1.386 . S
C1447 C1451 1.393 . S
C1448 H1437 0.950 . S
C1448 C1446 1.391 . S
C1448 C1449 1.400 . S
C1449 C1443 1.491 . S
C1449 C1448 1.400 . S
C1449 C1450 1.398 . S
C1450 H1438 0.950 . S
C1450 C1449 1.398 . S
C1450 C1451 1.391 . S
C1451 H1439 0.950 . S
C1451 C1447 1.393 . S
C1451 C1450 1.391 . S
H1452 C1460 0.950 . S
H1453 C1465 0.950 . S
H1454 C1462 0.950 . S
H1455 C1464 0.950 . S
H1456 C1466 0.950 . S
H1457 C1468 0.950 . S
H1458 C1470 0.950 . S
H1459 C1471 0.950 . S
C1460 H1452 0.950 . S
C1460 C1461 1.386 1_556 S
C1460 C1462 1.391 . S
C1461 C1460 1.386 1_554 S
C1461 C1465 1.393 . S
C1462 H1454 0.950 . S
C1462 C1460 1.391 . S
C1462 C1463 1.400 . S
C1463 C1462 1.400 . S
C1463 C1464 1.398 1_556 S
C1463 C1469 1.491 . S
C1464 H1455 0.950 . S
C1464 C1463 1.398 1_554 S
C1464 C1465 1.391 . S
C1465 H1453 0.950 . S
C1465 C1461 1.393 . S
C1465 C1464 1.391 . S
C1466 H1456 0.950 . S
C1466 C1467 1.386 . S
C1466 C1468 1.391 . S
C1467 C1466 1.386 . S
C1467 C1471 1.393 . S
C1468 H1457 0.950 . S
C1468 C1466 1.391 . S
C1468 C1469 1.400 . S
C1469 C1463 1.491 . S
C1469 C1468 1.400 . S
C1469 C1470 1.398 . S
C1470 H1458 0.950 . S
C1470 C1469 1.398 . S
C1470 C1471 1.391 . S
C1471 H1459 0.950 . S
C1471 C1467 1.393 . S
C1471 C1470 1.391 . S
H1472 C1480 0.950 . S
H1473 C1485 0.950 . S
H1474 C1482 0.950 . S
H1475 C1484 0.950 . S
H1476 C1486 0.950 . S
H1477 C1488 0.950 . S
H1478 C1490 0.950 . S
H1479 C1491 0.950 . S
C1480 H1472 0.950 . S
C1480 C1481 1.386 . S
C1480 C1482 1.391 . S
C1481 C1480 1.386 . S
C1481 C1485 1.393 . S
C1482 H1474 0.950 . S
C1482 C1480 1.391 . S
C1482 C1483 1.400 . S
C1483 C1482 1.400 . S
C1483 C1484 1.398 . S
C1483 C1489 1.491 . S
C1484 H1475 0.950 . S
C1484 C1483 1.398 . S
C1484 C1485 1.391 . S
C1485 H1473 0.950 . S
C1485 C1481 1.393 . S
C1485 C1484 1.391 . S
C1486 H1476 0.950 . S
C1486 C1487 1.386 . S
C1486 C1488 1.391 . S
C1487 C1486 1.386 . S
C1487 C1491 1.393 . S
C1488 H1477 0.950 . S
C1488 C1486 1.391 . S
C1488 C1489 1.400 . S
C1489 C1483 1.491 . S
C1489 C1488 1.400 . S
C1489 C1490 1.398 . S
C1490 H1478 0.950 . S
C1490 C1489 1.398 . S
C1490 C1491 1.391 . S
C1491 H1479 0.950 . S
C1491 C1487 1.393 . S
C1491 C1490 1.391 . S
H1492 C1500 0.950 . S
H1493 C1505 0.950 . S
H1494 C1502 0.950 1_556 S
H1495 C1504 0.950 . S
H1496 C1506 0.950 . S
H1497 C1508 0.950 1_554 S
H1498 C1510 0.950 . S
H1499 C1511 0.950 . S
C1500 H1492 0.950 . S
C1500 C1501 1.386 . S
C1500 C1502 1.391 . S
C1501 C1500 1.386 . S
C1501 C1505 1.393 . S
C1502 H1494 0.950 1_554 S
C1502 C1500 1.391 . S
C1502 C1503 1.400 . S
C1503 C1502 1.400 . S
C1503 C1504 1.398 . S
C1503 C1509 1.491 1_554 S
C1504 H1495 0.950 . S
C1504 C1503 1.398 . S
C1504 C1505 1.391 . S
C1505 H1493 0.950 . S
C1505 C1501 1.393 . S
C1505 C1504 1.391 . S
C1506 H1496 0.950 . S
C1506 C1507 1.386 . S
C1506 C1508 1.391 . S
C1507 C1506 1.386 . S
C1507 C1511 1.393 . S
C1508 H1497 0.950 1_556 S
C1508 C1506 1.391 . S
C1508 C1509 1.400 . S
C1509 C1503 1.491 1_556 S
C1509 C1508 1.400 . S
C1509 C1510 1.398 . S
C1510 H1498 0.950 . S
C1510 C1509 1.398 . S
C1510 C1511 1.391 . S
C1511 H1499 0.950 . S
C1511 C1507 1.393 . S
C1511 C1510 1.391 . S
H1512 C1520 0.950 . S
H1513 C1525 0.950 . S
H1514 C1522 0.950 . S
H1515 C1524 0.950 . S
H1516 C1526 0.950 . S
H1517 C1528 0.950 . S
H1518 C1530 0.950 . S
H1519 C1531 0.950 . S
C1520 H1512 0.950 . S
C1520 C1521 1.386 . S
C1520 C1522 1.391 . S
C1521 C1520 1.386 . S
C1521 C1525 1.393 . S
C1522 H1514 0.950 . S
C1522 C1520 1.391 . S
C1522 C1523 1.400 . S
C1523 C1522 1.400 . S
C1523 C1524 1.398 . S
C1523 C1529 1.491 . S
C1524 H1515 0.950 . S
C1524 C1523 1.398 . S
C1524 C1525 1.391 . S
C1525 H1513 0.950 . S
C1525 C1521 1.393 . S
C1525 C1524 1.391 . S
C1526 H1516 0.950 . S
C1526 C1527 1.386 . S
C1526 C1528 1.391 . S
C1527 C1526 1.386 . S
C1527 C1531 1.393 . S
C1528 H1517 0.950 . S
C1528 C1526 1.391 . S
C1528 C1529 1.400 . S
C1529 C1523 1.491 . S
C1529 C1528 1.400 . S
C1529 C1530 1.398 . S
C1530 H1518 0.950 . S
C1530 C1529 1.398 . S
C1530 C1531 1.391 . S
C1531 H1519 0.950 . S
C1531 C1527 1.393 . S
C1531 C1530 1.391 . S
H1532 C1540 0.950 . S
H1533 C1545 0.950 . S
H1534 C1542 0.950 . S
H1535 C1544 0.950 . S
H1536 C1546 0.950 . S
H1537 C1548 0.950 . S
H1538 C1550 0.950 . S
H1539 C1551 0.950 . S
C1540 H1532 0.950 . S
C1540 C1541 1.386 . S
C1540 C1542 1.391 1_556 S
C1541 C1540 1.386 . S
C1541 C1545 1.393 . S
C1542 H1534 0.950 . S
C1542 C1540 1.391 1_554 S
C1542 C1543 1.400 . S
C1543 C1542 1.400 . S
C1543 C1544 1.398 1_554 S
C1543 C1549 1.491 . S
C1544 H1535 0.950 . S
C1544 C1543 1.398 1_556 S
C1544 C1545 1.391 . S
C1545 H1533 0.950 . S
C1545 C1541 1.393 . S
C1545 C1544 1.391 . S
C1546 H1536 0.950 . S
C1546 C1547 1.386 . S
C1546 C1548 1.391 . S
C1547 C1546 1.386 . S
C1547 C1551 1.393 . S
C1548 H1537 0.950 . S
C1548 C1546 1.391 . S
C1548 C1549 1.400 . S
C1549 C1543 1.491 . S
C1549 C1548 1.400 . S
C1549 C1550 1.398 . S
C1550 H1538 0.950 . S
C1550 C1549 1.398 . S
C1550 C1551 1.391 . S
C1551 H1539 0.950 . S
C1551 C1547 1.393 . S
C1551 C1550 1.391 . S
H1552 C1560 0.950 . S
H1553 C1565 0.950 . S
H1554 C1562 0.950 . S
H1555 C1564 0.950 . S
H1556 C1566 0.950 . S
H1557 C1568 0.950 . S
H1558 C1570 0.950 . S
H1559 C1571 0.950 . S
C1560 H1552 0.950 . S
C1560 C1561 1.386 . S
C1560 C1562 1.391 . S
C1561 C1560 1.386 . S
C1561 C1565 1.393 . S
C1562 H1554 0.950 . S
C1562 C1560 1.391 . S
C1562 C1563 1.400 . S
C1563 C1562 1.400 . S
C1563 C1564 1.398 . S
C1563 C1569 1.491 . S
C1564 H1555 0.950 . S
C1564 C1563 1.398 . S
C1564 C1565 1.391 . S
C1565 H1553 0.950 . S
C1565 C1561 1.393 . S
C1565 C1564 1.391 . S
C1566 H1556 0.950 . S
C1566 C1567 1.386 . S
C1566 C1568 1.391 . S
C1567 C1566 1.386 . S
C1567 C1571 1.393 . S
C1568 H1557 0.950 . S
C1568 C1566 1.391 . S
C1568 C1569 1.400 . S
C1569 C1563 1.491 . S
C1569 C1568 1.400 . S
C1569 C1570 1.398 . S
C1570 H1558 0.950 . S
C1570 C1569 1.398 . S
C1570 C1571 1.391 . S
C1571 H1559 0.950 . S
C1571 C1567 1.393 . S
C1571 C1570 1.391 . S
H1572 C1580 0.950 . S
H1573 C1585 0.962 . S
H1574 C1582 0.950 . S
H1575 C1584 0.950 . S
H1576 C1586 0.950 . S
H1577 C1588 0.950 . S
H1578 C1590 0.950 . S
H1579 C1591 0.950 . S
C1580 H1572 0.950 . S
C1580 C1581 1.386 . S
C1580 C1582 1.391 . S
C1581 C1580 1.386 . S
C1581 C1585 1.393 . S
C1582 H1574 0.950 . S
C1582 C1580 1.391 . S
C1582 C1583 1.400 . S
C1583 C1582 1.400 . S
C1583 C1584 1.398 . S
C1583 C1589 1.491 . S
C1584 H1575 0.950 . S
C1584 C1583 1.398 . S
C1584 C1585 1.391 . S
C1585 H1573 0.962 . S
C1585 C1581 1.393 . S
C1585 C1584 1.391 . S
C1586 H1576 0.950 . S
C1586 C1587 1.386 . S
C1586 C1588 1.391 . S
C1587 C1586 1.386 . S
C1587 C1591 1.393 . S
C1588 H1577 0.950 . S
C1588 C1586 1.391 . S
C1588 C1589 1.400 . S
C1589 C1583 1.491 . S
C1589 C1588 1.400 . S
C1589 C1590 1.398 . S
C1590 H1578 0.950 . S
C1590 C1589 1.398 . S
C1590 C1591 1.391 . S
C1591 H1579 0.950 . S
C1591 C1587 1.393 . S
C1591 C1590 1.391 . S
H1592 C1600 0.950 . S
H1593 C1605 0.950 . S
H1594 C1602 0.950 . S
H1595 C1604 0.950 . S
H1596 C1606 0.950 . S
H1597 C1608 0.950 . S
H1598 C1610 0.950 . S
H1599 C1611 0.950 . S
C1600 H1592 0.950 . S
C1600 C1601 1.386 . S
C1600 C1602 1.391 . S
C1601 C1600 1.386 . S
C1601 C1605 1.393 . S
C1602 H1594 0.950 . S
C1602 C1600 1.391 . S
C1602 C1603 1.400 . S
C1603 C1602 1.400 . S
C1603 C1604 1.398 . S
C1603 C1609 1.491 . S
C1604 H1595 0.950 . S
C1604 C1603 1.398 . S
C1604 C1605 1.391 . S
C1605 H1593 0.950 . S
C1605 C1601 1.393 . S
C1605 C1604 1.391 . S
C1606 H1596 0.950 . S
C1606 C1607 1.386 . S
C1606 C1608 1.391 . S
C1607 C1606 1.386 . S
C1607 C1611 1.393 . S
C1608 H1597 0.950 . S
C1608 C1606 1.391 . S
C1608 C1609 1.400 . S
C1609 C1603 1.491 . S
C1609 C1608 1.400 . S
C1609 C1610 1.398 . S
C1610 H1598 0.950 . S
C1610 C1609 1.398 . S
C1610 C1611 1.391 . S
C1611 H1599 0.950 . S
C1611 C1607 1.393 . S
C1611 C1610 1.391 . S
H1612 C1620 0.950 . S
H1613 C1625 0.950 . S
H1614 C1622 0.950 . S
H1615 C1624 0.950 . S
H1616 C1626 0.950 . S
H1617 C1628 0.950 . S
H1618 C1630 0.950 . S
H1619 C1631 0.950 . S
C1620 H1612 0.950 . S
C1620 C1621 1.386 . S
C1620 C1622 1.391 . S
C1621 C1620 1.386 . S
C1621 C1625 1.393 . S
C1622 H1614 0.950 . S
C1622 C1620 1.391 . S
C1622 C1623 1.400 . S
C1623 C1622 1.400 . S
C1623 C1624 1.398 . S
C1623 C1629 1.491 . S
C1624 H1615 0.950 . S
C1624 C1623 1.398 . S
C1624 C1625 1.391 . S
C1625 H1613 0.950 . S
C1625 C1621 1.393 . S
C1625 C1624 1.391 . S
C1626 H1616 0.950 . S
C1626 C1627 1.386 . S
C1626 C1628 1.391 . S
C1627 C1626 1.386 . S
C1627 C1631 1.393 . S
C1628 H1617 0.950 . S
C1628 C1626 1.391 . S
C1628 C1629 1.400 . S
C1629 C1623 1.491 . S
C1629 C1628 1.400 . S
C1629 C1630 1.398 . S
C1630 H1618 0.950 . S
C1630 C1629 1.398 . S
C1630 C1631 1.391 . S
C1631 H1619 0.950 . S
C1631 C1627 1.393 . S
C1631 C1630 1.391 . S
H1632 C1640 0.950 . S
H1633 C1645 0.950 . S
H1634 C1642 0.950 . S
H1635 C1644 0.950 . S
H1636 C1646 0.950 . S
H1637 C1648 0.950 . S
H1638 C1650 0.950 . S
H1639 C1651 0.950 . S
C1640 H1632 0.950 . S
C1640 C1641 1.386 . S
C1640 C1642 1.391 . S
C1641 C1640 1.386 . S
C1641 C1645 1.393 . S
C1642 H1634 0.950 . S
C1642 C1640 1.391 . S
C1642 C1643 1.400 . S
C1643 C1642 1.400 . S
C1643 C1644 1.398 . S
C1643 C1649 1.491 . S
C1644 H1635 0.950 . S
C1644 C1643 1.398 . S
C1644 C1645 1.391 . S
C1645 H1633 0.950 . S
C1645 C1641 1.393 . S
C1645 C1644 1.391 . S
C1646 H1636 0.950 . S
C1646 C1647 1.386 . S
C1646 C1648 1.391 . S
C1647 C1646 1.386 . S
C1647 C1651 1.393 . S
C1648 H1637 0.950 . S
C1648 C1646 1.391 . S
C1648 C1649 1.400 . S
C1649 C1643 1.491 . S
C1649 C1648 1.400 . S
C1649 C1650 1.398 . S
C1650 H1638 0.950 . S
C1650 C1649 1.398 . S
C1650 C1651 1.391 . S
C1651 H1639 0.950 . S
C1651 C1647 1.393 . S
C1651 C1650 1.391 . S
H1652 C1660 0.950 . S
H1653 C1665 0.950 . S
H1654 C1662 0.950 . S
H1655 C1664 0.950 . S
H1656 C1666 0.950 . S
H1657 C1668 0.950 . S
H1658 C1670 0.950 . S
H1659 C1671 0.950 . S
C1660 H1652 0.950 . S
C1660 C1661 1.386 . S
C1660 C1662 1.391 . S
C1661 C1660 1.386 . S
C1661 C1665 1.393 . S
C1662 H1654 0.950 . S
C1662 C1660 1.391 . S
C1662 C1663 1.400 . S
C1663 C1662 1.400 . S
C1663 C1664 1.398 . S
C1663 C1669 1.491 . S
C1664 H1655 0.950 . S
C1664 C1663 1.398 . S
C1664 C1665 1.391 . S
C1665 H1653 0.950 . S
C1665 C1661 1.393 . S
C1665 C1664 1.391 . S
C1666 H1656 0.950 . S
C1666 C1667 1.386 . S
C1666 C1668 1.391 . S
C1667 C1666 1.386 . S
C1667 C1671 1.393 . S
C1668 H1657 0.950 . S
C1668 C1666 1.391 . S
C1668 C1669 1.400 . S
C1669 C1663 1.491 . S
C1669 C1668 1.400 . S
C1669 C1670 1.398 . S
C1670 H1658 0.950 . S
C1670 C1669 1.398 . S
C1670 C1671 1.391 . S
C1671 H1659 0.950 . S
C1671 C1667 1.393 . S
C1671 C1670 1.391 . S
H1672 C1680 0.950 . S
H1673 C1685 0.950 . S
H1674 C1682 0.950 . S
H1675 C1684 0.950 . S
H1676 C1686 0.950 . S
H1677 C1688 0.950 . S
H1678 C1690 0.950 . S
H1679 C1691 0.950 . S
C1680 H1672 0.950 . S
C1680 C1681 1.386 . S
C1680 C1682 1.391 . S
C1681 C1680 1.386 . S
C1681 C1685 1.393 . S
C1682 H1674 0.950 . S
C1682 C1680 1.391 . S
C1682 C1683 1.400 . S
C1683 C1682 1.400 . S
C1683 C1684 1.398 . S
C1683 C1689 1.491 . S
C1684 H1675 0.950 . S
C1684 C1683 1.398 . S
C1684 C1685 1.391 . S
C1685 H1673 0.950 . S
C1685 C1681 1.393 . S
C1685 C1684 1.391 . S
C1686 H1676 0.950 . S
C1686 C1687 1.386 . S
C1686 C1688 1.391 . S
C1687 C1686 1.386 . S
C1687 C1691 1.393 . S
C1688 H1677 0.950 . S
C1688 C1686 1.391 . S
C1688 C1689 1.400 . S
C1689 C1683 1.491 . S
C1689 C1688 1.400 . S
C1689 C1690 1.398 . S
C1690 H1678 0.950 . S
C1690 C1689 1.398 . S
C1690 C1691 1.391 . S
C1691 H1679 0.950 . S
C1691 C1687 1.393 . S
C1691 C1690 1.391 . S
H1692 C1700 0.950 . S
H1693 C1705 0.950 . S
H1694 C1702 0.950 . S
H1695 C1704 0.950 . S
H1696 C1706 0.950 . S
H1697 C1708 0.950 . S
H1698 C1710 0.950 . S
H1699 C1711 0.950 . S
C1700 H1692 0.950 . S
C1700 C1701 1.386 . S
C1700 C1702 1.391 . S
C1701 C1700 1.386 . S
C1701 C1705 1.393 . S
C1702 H1694 0.950 . S
C1702 C1700 1.391 . S
C1702 C1703 1.400 . S
C1703 C1702 1.400 . S
C1703 C1704 1.398 . S
C1703 C1709 1.491 . S
C1704 H1695 0.950 . S
C1704 C1703 1.398 . S
C1704 C1705 1.391 . S
C1705 H1693 0.950 . S
C1705 C1701 1.393 . S
C1705 C1704 1.391 . S
C1706 H1696 0.950 . S
C1706 C1707 1.386 . S
C1706 C1708 1.391 . S
C1707 C1706 1.386 . S
C1707 C1711 1.393 . S
C1708 H1697 0.950 . S
C1708 C1706 1.391 . S
C1708 C1709 1.400 . S
C1709 C1703 1.491 . S
C1709 C1708 1.400 . S
C1709 C1710 1.398 . S
C1710 H1698 0.950 . S
C1710 C1709 1.398 . S
C1710 C1711 1.391 . S
C1711 H1699 0.950 . S
C1711 C1707 1.393 . S
C1711 C1710 1.391 . S
H1712 C1720 0.950 . S
H1713 C1725 0.950 . S
H1714 C1722 0.950 . S
H1715 C1724 0.950 . S
H1716 C1726 0.950 . S
H1717 C1728 0.950 . S
H1718 C1730 0.950 . S
H1719 C1731 0.950 . S
C1720 H1712 0.950 . S
C1720 C1721 1.386 . S
C1720 C1722 1.391 . S
C1721 C1720 1.386 . S
C1721 C1725 1.393 . S
C1722 H1714 0.950 . S
C1722 C1720 1.391 . S
C1722 C1723 1.400 . S
C1723 C1722 1.400 . S
C1723 C1724 1.398 . S
C1723 C1729 1.491 . S
C1724 H1715 0.950 . S
C1724 C1723 1.398 . S
C1724 C1725 1.391 . S
C1725 H1713 0.950 . S
C1725 C1721 1.393 . S
C1725 C1724 1.391 . S
C1726 H1716 0.950 . S
C1726 C1727 1.386 . S
C1726 C1728 1.391 . S
C1727 C1726 1.386 . S
C1727 C1731 1.393 . S
C1728 H1717 0.950 . S
C1728 C1726 1.391 . S
C1728 C1729 1.400 . S
C1729 C1723 1.491 . S
C1729 C1728 1.400 . S
C1729 C1730 1.398 . S
C1730 H1718 0.950 . S
C1730 C1729 1.398 . S
C1730 C1731 1.391 . S
C1731 H1719 0.950 . S
C1731 C1727 1.393 . S
C1731 C1730 1.391 . S
H1732 C1740 0.950 . S
H1733 C1745 0.950 . S
H1734 C1742 0.950 . S
H1735 C1744 0.950 . S
H1736 C1746 0.950 . S
H1737 C1748 0.950 . S
H1738 C1750 0.936 1_545 S
H1739 C1751 0.950 . S
C1740 H1732 0.950 . S
C1740 C1741 1.386 . S
C1740 C1742 1.391 . S
C1741 C1740 1.386 . S
C1741 C1745 1.393 . S
C1742 H1734 0.950 . S
C1742 C1740 1.391 . S
C1742 C1743 1.400 . S
C1743 C1742 1.400 . S
C1743 C1744 1.398 . S
C1743 C1749 1.491 . S
C1744 H1735 0.950 . S
C1744 C1743 1.398 . S
C1744 C1745 1.391 . S
C1745 H1733 0.950 . S
C1745 C1741 1.393 . S
C1745 C1744 1.391 . S
C1746 H1736 0.950 . S
C1746 C1747 1.386 . S
C1746 C1748 1.391 1_565 S
C1747 C1746 1.386 . S
C1747 C1751 1.393 . S
C1748 H1737 0.950 . S
C1748 C1746 1.391 1_545 S
C1748 C1749 1.400 . S
C1749 C1743 1.491 . S
C1749 C1748 1.400 . S
C1749 C1750 1.383 1_545 S
C1750 H1738 0.936 1_565 S
C1750 C1749 1.383 1_565 S
C1750 C1751 1.421 . S
C1751 H1739 0.950 . S
C1751 C1747 1.393 . S
C1751 C1750 1.421 . S
C807 C632 1.615 1_556 S
C801 C211 1.625 . S
C827 C647 1.724 . S
C821 C255 1.772 . S
C841 C274 1.719 . S
C847 C660 1.714 . S
C867 C674 1.596 . S
C861 C157 1.622 . S
C887 C686 1.645 . S
C881 C391 1.721 . S
C907 C700 1.383 . S
C901 C484 1.379 . S
C921 C450 1.769 . S
C927 C714 1.731 . S
C947 C729 1.534 . S
C941 C352 1.521 . S
C961 C430 1.673 . S
C967 C745 1.671 . S
C987 C758 1.557 . S
C981 C367 1.568 . S
C1001 C411 1.617 . S
C1007 C743 1.567 . S
C1027 C756 1.579 . S
C1021 C469 1.547 . S
C1041 C294 1.849 . S
C1047 C772 1.840 . S
C1061 C177 1.600 . S
C1067 C771 1.617 . S
C1081 C196 1.751 . S
C1087 C770 1.699 . S
C1101 C235 1.660 . S
C1107 C773 1.634 . S
C1121 C133 1.697 . S
C1127 C675 1.697 . S
C1141 C567 1.504 . S
C1147 C673 1.474 . S
C1167 C633 1.571 . S
C1161 C601 1.591 . S
C1187 C644 1.751 . S
C1181 C328 1.778 . S
C1201 C172 1.636 . S
C1207 C689 1.618 . S
C1227 C730 1.897 . S
C1221 C445 1.898 . S
C1247 C687 1.591 . S
C1241 C372 1.576 . S
C1267 C715 1.559 . S
C1261 C489 1.522 . S
C1287 C716 1.613 . S
C1281 C562 1.623 . S
C1301 C606 1.777 . S
C1307 C731 1.739 . S
C1321 C313 1.721 . S
C1327 C688 1.710 . S
C1347 C702 1.572 . S
C1341 C508 1.605 . S
C1361 C118 1.721 . S
C1367 C658 1.664 . S
C1387 C672 1.379 . S
C1381 C16 1.362 . S
C1407 C630 1.728 . S
C1401 C60 1.772 . S
C1427 C645 1.516 . S
C1421 C79 1.525 . S
C1441 C40 1.672 . S
C1447 C759 1.670 . S
C1461 C94 1.567 . S
C1467 C744 1.565 . S
C1481 C138 1.616 . S
C1487 C757 1.557 . S
C1501 C1 1.528 . S
C1507 C742 1.579 . S
C1527 C786 1.835 . S
C1521 C333 1.847 . S
C1547 C785 1.625 . S
C1541 C528 1.610 . S
C1567 C784 1.689 . S
C1561 C547 1.751 . S
C1581 C586 1.660 1_554 S
C1587 C787 1.639 . S
C1601 C406 1.696 . S
C1607 C703 1.690 . S
C1627 C701 1.469 . S
C1621 C216 1.505 . S
C1647 C717 1.565 . S
C1641 C250 1.584 . S
C1667 C728 1.753 . S
C1661 C289 1.777 . S
C1681 C523 1.650 . S
C1687 C661 1.634 . S
C1707 C646 1.896 . S
C1701 C55 1.898 . S
C1721 C99 1.577 . S
C1727 C659 1.591 . S
C1747 C631 1.557 . S
C1741 C21 1.537 . S
