# Generated by pormake.
# Topology zzz, (3,6)-cn, num edge types: 1
# Building blocks:
#     Node 0, Type 0, BuildingBlock: PAMTOO_clean_linker_0, # of connection points: 3
#     Node 1, Type 0, BuildingBlock: PAMTOO_clean_linker_0, # of connection points: 3
#     Node 2, Type 0, BuildingBlock: PAMTOO_clean_linker_0, # of connection points: 3
#     Node 3, Type 0, BuildingBlock: PAMTOO_clean_linker_0, # of connection points: 3
#     Node 4, Type 0, BuildingBlock: PAMTOO_clean_linker_0, # of connection points: 3
#     Node 5, Type 0, BuildingBlock: PAMTOO_clean_linker_0, # of connection points: 3
#     Node 6, Type 0, BuildingBlock: PAMTOO_clean_linker_0, # of connection points: 3
#     Node 7, Type 0, BuildingBlock: PAMTOO_clean_linker_0, # of connection points: 3
#     Node 8, Type 1, BuildingBlock: JUFBIX_clean_sbu_0, # of connection points: 6
#     Node 9, Type 1, BuildingBlock: JUFBIX_clean_sbu_0, # of connection points: 6
#     Node 10, Type 1, BuildingBlock: JUFBIX_clean_sbu_0, # of connection points: 6
#     Node 11, Type 1, BuildingBlock: JUFBIX_clean_sbu_0, # of connection points: 6
#     Edge 12, Type (0, 1), BuildingBlock: XUDNAN_clean_linker_2, # of connection points: 2
#     Edge 13, Type (0, 1), BuildingBlock: XUDNAN_clean_linker_2, # of connection points: 2
#     Edge 14, Type (0, 1), BuildingBlock: XUDNAN_clean_linker_2, # of connection points: 2
#     Edge 15, Type (0, 1), BuildingBlock: XUDNAN_clean_linker_2, # of connection points: 2
#     Edge 16, Type (0, 1), BuildingBlock: XUDNAN_clean_linker_2, # of connection points: 2
#     Edge 17, Type (0, 1), BuildingBlock: XUDNAN_clean_linker_2, # of connection points: 2
#     Edge 18, Type (0, 1), BuildingBlock: XUDNAN_clean_linker_2, # of connection points: 2
#     Edge 19, Type (0, 1), BuildingBlock: XUDNAN_clean_linker_2, # of connection points: 2
#     Edge 20, Type (0, 1), BuildingBlock: XUDNAN_clean_linker_2, # of connection points: 2
#     Edge 21, Type (0, 1), BuildingBlock: XUDNAN_clean_linker_2, # of connection points: 2
#     Edge 22, Type (0, 1), BuildingBlock: XUDNAN_clean_linker_2, # of connection points: 2
#     Edge 23, Type (0, 1), BuildingBlock: XUDNAN_clean_linker_2, # of connection points: 2
#     Edge 24, Type (0, 1), BuildingBlock: XUDNAN_clean_linker_2, # of connection points: 2
#     Edge 25, Type (0, 1), BuildingBlock: XUDNAN_clean_linker_2, # of connection points: 2
#     Edge 26, Type (0, 1), BuildingBlock: XUDNAN_clean_linker_2, # of connection points: 2
#     Edge 27, Type (0, 1), BuildingBlock: XUDNAN_clean_linker_2, # of connection points: 2
#     Edge 28, Type (0, 1), BuildingBlock: XUDNAN_clean_linker_2, # of connection points: 2
#     Edge 29, Type (0, 1), BuildingBlock: XUDNAN_clean_linker_2, # of connection points: 2
#     Edge 30, Type (0, 1), BuildingBlock: XUDNAN_clean_linker_2, # of connection points: 2
#     Edge 31, Type (0, 1), BuildingBlock: XUDNAN_clean_linker_2, # of connection points: 2
#     Edge 32, Type (0, 1), BuildingBlock: XUDNAN_clean_linker_2, # of connection points: 2
#     Edge 33, Type (0, 1), BuildingBlock: XUDNAN_clean_linker_2, # of connection points: 2
#     Edge 34, Type (0, 1), BuildingBlock: XUDNAN_clean_linker_2, # of connection points: 2
#     Edge 35, Type (0, 1), BuildingBlock: XUDNAN_clean_linker_2, # of connection points: 2
# Relax obj value: 0.118
# Max RMSD: 0.177
# Mean RMSD: 0.083
data_MOF--net-zzz--node1-JUFBIX_clean_sbu_0--node2-PAMTOO_clean_linker_0--edge1-XUDNAN_clean_linker_2
_symmetry_space_group_name_H-M    P1
_symmetry_Int_Tables_number       1
_symmetry_cell_setting            triclinic
loop_
_symmetry_equiv_pos_as_xyz
'x, y, z'
_cell_length_a     51.498158
_cell_length_b     51.360659
_cell_length_c     17.570084
_cell_angle_alpha  81.176252
_cell_angle_beta   89.831325
_cell_angle_gamma 91.334452
loop_
_atom_site_label
_atom_site_type_symbol
_atom_site_fract_x
_atom_site_fract_y
_atom_site_fract_z
_atom_type_partial_charge
H0 H 0.86658 0.50638 0.31645 0.0
H1 H 0.80005 0.51219 0.16932 0.0
H2 H 0.79191 0.52287 0.40687 0.0
H3 H 0.73676 0.5023 0.32917 0.0
C4 C 0.74801 0.5037 0.27458 0.0
O5 O 0.76732 0.52297 0.27448 0.0
H6 H 0.75649 0.48409 0.27218 0.0
C7 C 0.84586 0.5092 0.30896 0.0
C8 C 0.83061 0.51401 0.37112 0.0
C9 C 0.83504 0.50861 0.23657 0.0
C10 C 0.80844 0.51259 0.22557 0.0
C11 C 0.79275 0.51761 0.287 0.0
C12 C 0.8039 0.51851 0.35987 0.0
H13 H 1.00192 0.82763 0.33886 0.0
H14 H 0.9969 0.77472 0.17266 0.0
H15 H 1.01057 0.74461 0.41211 0.0
H16 H 0.03388 0.70657 0.29961 0.0
C17 C 0.02633 0.71998 0.24929 0.0
O18 O 1.00436 0.73183 0.27233 0.0
H19 H 0.04189 0.73493 0.22949 0.0
C20 C 1.00219 0.80772 0.32516 0.0
C21 C 1.00616 0.78681 0.38433 0.0
C22 C 0.99846 0.80366 0.24922 0.0
C23 C 0.99986 0.77805 0.23133 0.0
C24 C 1.00442 0.75666 0.2898 0.0
C25 C 1.00757 0.76106 0.36674 0.0
H26 H 0.69379 0.01503 0.19025 0.0
H27 H 0.76011 0.02385 0.03815 0.0
H28 H 0.7698 0.9979 0.28097 0.0
H29 H 0.82043 0.02947 0.19198 0.0
C30 C 0.81214 0.02738 0.13482 0.0
O31 O 0.79347 1.00729 0.14492 0.0
H32 H 0.8034 0.04644 0.11027 0.0
C33 C 0.71459 0.01472 0.18099 0.0
C34 C 0.73036 1.00611 0.24409 0.0
C35 C 0.7248 0.02144 0.10643 0.0
C36 C 0.7517 0.0194 0.09537 0.0
C37 C 0.768 0.01118 0.15808 0.0
C38 C 0.75735 1.00487 0.23291 0.0
H39 H 0.50466 0.66176 0.2294 0.0
H40 H 0.5104 0.73561 0.07716 0.0
H41 H 0.51872 0.73366 0.32151 0.0
H42 H 0.49559 0.7881 0.23914 0.0
C43 C 0.49872 0.78252 0.18118 0.0
O44 O 0.51831 0.76433 0.18628 0.0
H45 H 0.48017 0.7739 0.16275 0.0
C46 C 0.50621 0.68311 0.221 0.0
C47 C 0.51089 0.6959 0.28469 0.0
C48 C 0.50619 0.69709 0.14603 0.0
C49 C 0.50993 0.72459 0.1349 0.0
C50 C 0.51375 0.7379 0.19822 0.0
C51 C 0.51464 0.72349 0.27308 0.0
H52 H 0.16905 0.52322 0.26006 0.0
H53 H 0.23305 0.51642 0.41681 0.0
H54 H 0.24673 0.5175 0.17428 0.0
H55 H 0.27496 0.55295 0.3387 0.0
C56 C 0.28551 0.5368 0.31716 0.0
O57 O 0.26883 0.51572 0.31132 0.0
H58 H 0.29331 0.54482 0.25901 0.0
C59 C 0.18989 0.52288 0.26939 0.0
C60 C 0.2066 0.52137 0.20744 0.0
C61 C 0.19912 0.52067 0.34467 0.0
C62 C 0.22581 0.51883 0.35836 0.0
C63 C 0.24315 0.51859 0.29666 0.0
C64 C 0.2335 0.51924 0.22117 0.0
H65 H 0.04123 0.18792 0.26973 0.0
H66 H 0.02971 0.24189 0.43009 0.0
H67 H 0.01598 0.26631 0.18781 0.0
H68 H 0.03687 0.31264 0.27021 0.0
C69 C 0.03419 0.30126 0.32894 0.0
O70 O 0.01605 0.28117 0.32603 0.0
H71 H 0.05342 0.29313 0.34771 0.0
C72 C 0.03681 0.20756 0.28087 0.0
C73 C 0.02938 0.22649 0.21956 0.0
C74 C 0.03715 0.21278 0.35658 0.0
C75 C 0.02982 0.23762 0.37158 0.0
C76 C 0.0227 0.25715 0.31064 0.0
C77 C 0.02207 0.25147 0.23448 0.0
H78 H 0.34101 1.0087 0.36792 0.0
H79 H 0.27639 0.01057 0.52214 0.0
H80 H 0.26371 0.01584 0.27764 0.0
H81 H 0.23601 0.97552 0.46503 0.0
C82 C 0.22482 0.99254 0.43639 0.0
O83 O 0.24102 0.01436 0.41476 0.0
H84 H 0.21591 0.98683 0.38362 0.0
C85 C 0.32032 0.01041 0.37747 0.0
C86 C 0.30385 0.01321 0.31402 0.0
C87 C 0.31089 0.00996 0.45236 0.0
C88 C 0.28403 0.01088 0.4645 0.0
C89 C 0.26688 0.0126 0.40186 0.0
C90 C 0.27682 0.01381 0.32617 0.0
H91 H 0.52556 0.35341 0.38099 0.0
H92 H 0.52719 0.27941 0.53274 0.0
H93 H 0.51481 0.28082 0.28984 0.0
H94 H 0.48551 0.23476 0.40026 0.0
C95 C 0.49903 0.23505 0.44932 0.0
O96 O 0.52089 0.2502 0.42443 0.0
H97 H 0.48885 0.24379 0.49503 0.0
C98 C 0.52513 0.33202 0.38941 0.0
C99 C 0.5206 0.31899 0.32617 0.0
C100 C 0.52718 0.31807 0.46397 0.0
C101 C 0.52553 0.29045 0.4753 0.0
C102 C 0.5213 0.27693 0.41267 0.0
C103 C 0.51839 0.29124 0.33806 0.0
Co104 Co 0.02649 0.02016 0.83735 0.0
C105 C 0.97299 0.01167 0.8376 0.0
Co106 Co 0.01382 0.994 0.75459 0.0
C107 C 0.02636 0.06778 0.90453 0.0
C108 C 0.05715 0.04282 0.9498 0.0
N109 N 0.03688 0.0441 0.90122 0.0
N110 N 0.03935 0.08152 0.9527 0.0
C111 C 0.05873 0.06577 0.98148 0.0
H112 H 1.00989 0.07511 0.8703 0.0
H113 H 0.07017 0.02645 0.96053 0.0
C114 C 0.0673 1.00272 0.75352 0.0
N115 N 1.00335 0.97002 0.69095 0.0
C116 C 0.01346 0.94606 0.68914 0.0
C117 C 0.98307 0.9713 0.64239 0.0
N118 N 1.00017 0.93214 0.6421 0.0
C119 C 0.98105 0.94806 0.61232 0.0
C120 C 0.01668 0.04554 0.68873 0.0
O121 O 0.06205 0.01652 0.80584 0.0
O122 O 0.0489 0.99046 0.72507 0.0
O123 O 1.01125 0.02271 0.67287 0.0
O124 O 0.02319 0.04833 0.7565 0.0
O125 O 0.97828 0.99797 0.78511 0.0
H126 H 0.97025 0.98781 0.63094 0.0
H127 H 0.02975 0.93861 0.724 0.0
O128 O 0.99141 0.02351 0.86731 0.0
O129 O 0.02933 0.99154 0.9187 0.0
O130 O 0.01683 0.96577 0.83614 0.0
C131 C 0.0235 0.96869 0.90373 0.0
H132 H 0.07302 0.07038 0.02274 0.0
H133 H 0.96658 0.9433 0.57175 0.0
Co134 Co 0.5097 0.01096 0.83265 0.0
C135 C 0.51785 0.95673 0.85314 0.0
Co136 Co 0.5268 0.99717 0.73039 0.0
C137 C 0.4678 0.01073 0.9408 0.0
C138 C 0.49439 0.04273 0.94876 0.0
N139 N 0.49088 0.02146 0.91349 0.0
N140 N 0.45625 0.02467 0.99041 0.0
C141 C 0.47327 0.04475 0.99597 0.0
H142 H 0.45918 0.99357 0.92131 0.0
H143 H 0.51063 0.05657 0.93813 0.0
C144 C 0.51896 0.05116 0.70778 0.0
N145 N 0.54548 0.98627 0.65051 0.0
C146 C 0.5687 0.99658 0.6233 0.0
C147 C 0.54212 0.9643 0.61819 0.0
N148 N 0.58043 0.98163 0.57701 0.0
C149 C 0.56351 0.96141 0.57297 0.0
C150 C 0.47488 0.99518 0.72282 0.0
O151 O 0.50947 0.04659 0.77589 0.0
O152 O 0.52784 0.03211 0.67808 0.0
O153 O 0.49468 0.99128 0.68315 0.0
O154 O 0.47772 1.00328 0.78691 0.0
O155 O 0.52567 0.96215 0.78369 0.0
H156 H 0.52597 0.95043 0.6305 0.0
H157 H 0.57728 0.01424 0.64011 0.0
O158 O 0.51013 0.97534 0.8873 0.0
O159 O 0.54258 0.01861 0.87741 0.0
O160 O 0.55834 1.00322 0.77773 0.0
C161 C 0.56211 0.01282 0.83906 0.0
H162 H 0.4705 0.06044 0.02954 0.0
H163 H 0.56691 0.94484 0.54325 0.0
Co164 Co 0.53794 0.50647 0.81241 0.0
C165 C 0.50936 0.47241 0.92261 0.0
Co166 Co 0.49523 0.50838 0.79634 0.0
C167 C 0.5881 0.50808 0.89039 0.0
C168 C 0.59134 0.50302 0.77201 0.0
N169 N 0.57375 0.50527 0.82748 0.0
N170 N 0.61391 0.50801 0.87565 0.0
C171 C 0.61591 0.50473 0.80125 0.0
H172 H 0.5798 0.51111 0.94495 0.0
H173 H 0.58658 0.50088 0.71333 0.0
C174 C 0.52378 0.54238 0.68614 0.0
N175 N 0.45963 0.50979 0.77709 0.0
C176 C 0.44843 0.50873 0.70809 0.0
C177 C 0.43969 0.51252 0.82486 0.0
N178 N 0.42231 0.51066 0.71043 0.0
C179 C 0.41675 0.51312 0.78405 0.0
C180 C 0.51454 0.54549 0.88037 0.0
O181 O 0.5432 0.53223 0.72297 0.0
O182 O 0.50108 0.53388 0.70678 0.0
O183 O 0.49348 0.53654 0.85542 0.0
O184 O 0.53583 0.53438 0.87044 0.0
O185 O 0.48987 0.48272 0.88596 0.0
H186 H 0.44171 0.51405 0.88529 0.0
H187 H 0.45942 0.50706 0.65655 0.0
O188 O 0.53219 0.48084 0.90208 0.0
O189 O 0.53963 0.47845 0.75316 0.0
O190 O 0.49739 0.48033 0.73877 0.0
C191 C 0.51867 0.46938 0.72844 0.0
H192 H 0.63392 0.50387 0.76987 0.0
H193 H 0.39748 0.51493 0.80713 0.0
Co194 Co 0.01919 0.52971 0.7997 0.0
C195 C 0.05838 0.50205 0.88208 0.0
Co196 Co 0.01691 0.48689 0.79543 0.0
C197 C 0.0186 0.57748 0.87071 0.0
C198 C 0.02069 0.58533 0.74756 0.0
N199 N 0.02005 0.56548 0.80741 0.0
N200 N 0.01803 0.60405 0.85244 0.0
C201 C 0.01948 0.60894 0.7749 0.0
H202 H 0.01711 0.5669 0.92884 0.0
H203 H 0.02144 0.58277 0.68763 0.0
C204 C 0.97786 0.51545 0.71299 0.0
N205 N 0.01587 0.45142 0.78366 0.0
C206 C 1.01081 0.44231 0.7169 0.0
C207 C 0.02171 0.42982 0.83391 0.0
N208 N 0.01336 0.41598 0.7229 0.0
C209 C 0.02027 0.408 0.79662 0.0
C210 C 0.98719 0.4995 0.91155 0.0
O211 O 0.9901 0.53501 0.73317 0.0
O212 O 0.98641 0.49242 0.73351 0.0
O213 O 0.99563 0.4801 0.88266 0.0
O214 O 0.9955 0.52275 0.8854 0.0
O215 O 0.04783 0.48215 0.85779 0.0
H216 H 0.02722 0.42999 0.89319 0.0
H217 H 1.00636 0.45503 0.66377 0.0
O218 O 0.04798 0.52441 0.86596 0.0
O219 O 0.04303 0.5357 0.71276 0.0
O220 O 0.03768 0.49357 0.70875 0.0
C221 C 0.04799 0.51559 0.68146 0.0
H222 H 0.01956 0.62825 0.74009 0.0
H223 H 0.02418 0.3879 0.82172 0.0
H224 H 0.17322 0.97698 0.44101 0.0
H225 H 0.22972 0.01936 0.56075 0.0
H226 H 0.19612 0.02595 0.65678 0.0
H227 H 0.11794 0.01672 0.47004 0.0
H228 H 0.09539 0.98901 0.4835 0.0
H229 H 0.12382 0.98835 0.42397 0.0
H230 H 0.13715 0.9446 0.50695 0.0
H231 H 0.10887 0.94528 0.56712 0.0
H232 H 0.14073 0.94317 0.60954 0.0
H233 H 0.15561 0.02795 0.74001 0.0
H234 H 0.11215 0.02538 0.80182 0.0
H235 H 0.08277 0.98062 0.62866 0.0
C236 C 0.17841 0.98795 0.48688 0.0
C237 C 0.20393 0.99828 0.49222 0.0
C238 C 0.21016 0.01185 0.55445 0.0
C239 C 0.19121 0.01555 0.60947 0.0
C240 C 0.16617 1.00526 0.60219 0.0
C241 C 0.15978 0.99172 0.54236 0.0
C242 C 0.13161 0.98231 0.54792 0.0
C243 C 0.11629 0.99485 0.47716 0.0
C244 C 0.12948 0.95204 0.55852 0.0
C245 C 0.12309 0.99267 0.62007 0.0
C246 C 0.14325 1.00588 0.65066 0.0
C247 C 0.13975 0.01756 0.71658 0.0
C248 C 0.11498 0.01594 0.75148 0.0
C249 C 0.094 1.00265 0.72067 0.0
C250 C 0.09837 0.99072 0.65438 0.0
H251 H 0.48409 0.20393 0.58648 0.0
H252 H 0.52963 0.20267 0.37921 0.0
H253 H 0.54056 0.15626 0.42514 0.0
H254 H 0.52595 0.16244 0.71838 0.0
H255 H 0.49932 0.14563 0.77368 0.0
H256 H 0.49579 0.17901 0.72611 0.0
H257 H 0.45513 0.16463 0.65524 0.0
H258 H 0.45855 0.13121 0.70256 0.0
H259 H 0.45748 0.13822 0.59892 0.0
H260 H 0.54568 0.11009 0.49124 0.0
H261 H 0.54457 0.06656 0.57204 0.0
H262 H 0.49542 0.09674 0.73835 0.0
C263 C 0.49661 0.19392 0.5513 0.0
C264 C 0.50648 0.20703 0.47982 0.0
C265 C 0.52229 0.19312 0.4346 0.0
C266 C 0.52853 0.16678 0.4602 0.0
C267 C 0.51863 0.15448 0.531 0.0
C268 C 0.50298 0.16753 0.576 0.0
C269 C 0.49433 0.14937 0.6488 0.0
C270 C 0.50446 0.15974 0.72102 0.0
C271 C 0.46461 0.14564 0.6515 0.0
C272 C 0.50753 0.12407 0.63757 0.0
C273 C 0.52144 0.12759 0.56917 0.0
C274 C 0.53492 0.10714 0.54499 0.0
C275 C 0.5341 0.0824 0.59148 0.0
C276 C 0.51991 0.07808 0.66185 0.0
C277 C 0.50657 0.09937 0.68525 0.0
H278 H 0.29441 0.54742 0.46481 0.0
H279 H 0.32664 0.50671 0.28905 0.0
H280 H 0.36448 0.49418 0.37251 0.0
H281 H 0.35419 0.57412 0.52302 0.0
H282 H 0.34577 0.57015 0.62386 0.0
H283 H 0.32064 0.57457 0.55231 0.0
H284 H 0.29777 0.53119 0.61617 0.0
H285 H 0.32282 0.52667 0.68806 0.0
H286 H 0.3157 0.50112 0.63089 0.0
H287 H 0.39969 0.48793 0.47281 0.0
H288 H 0.42932 0.48752 0.58286 0.0
H289 H 0.37448 0.53286 0.69351 0.0
C290 C 0.30937 0.53569 0.4443 0.0
C291 C 0.30776 0.52809 0.37035 0.0
C292 C 0.32763 0.51273 0.34543 0.0
C293 C 0.34914 0.50556 0.39243 0.0
C294 C 0.3504 0.51377 0.46448 0.0
C295 C 0.33099 0.52839 0.49051 0.0
C296 C 0.33739 0.53527 0.56945 0.0
C297 C 0.33964 0.56531 0.56697 0.0
C298 C 0.31722 0.52282 0.6297 0.0
C299 C 0.36359 0.52252 0.58341 0.0
C300 C 0.37068 0.51015 0.52224 0.0
C301 C 0.39429 0.49751 0.52106 0.0
C302 C 0.41111 0.49756 0.58377 0.0
C303 C 0.40441 0.51023 0.64716 0.0
C304 C 0.38015 0.52272 0.6467 0.0
H305 H 0.05089 0.30405 0.4769 0.0
H306 H 0.99738 0.33919 0.30304 0.0
H307 H 0.98434 0.37095 0.38825 0.0
H308 H 1.01074 0.31148 0.64499 0.0
H309 H 0.03826 0.31903 0.70161 0.0
H310 H 0.04199 0.29806 0.62912 0.0
H311 H 0.07893 0.32896 0.56475 0.0
H312 H 0.07529 0.35002 0.63689 0.0
H313 H 0.07289 0.36352 0.5363 0.0
H314 H 0.97934 0.40059 0.48899 0.0
H315 H 0.982 0.42547 0.59838 0.0
H316 H 0.03898 0.37116 0.70707 0.0
C317 C 0.03624 0.31828 0.45728 0.0
C318 C 0.02519 0.31938 0.38329 0.0
C319 C 1.00607 0.33819 0.35945 0.0
C320 C 0.99857 0.35623 0.40745 0.0
C321 C 1.01023 0.35504 0.47945 0.0
C322 C 0.02855 0.33645 0.50451 0.0
C323 C 0.03879 0.33999 0.58328 0.0
C324 C 0.03204 0.31569 0.6433 0.0
C325 C 0.06822 0.34599 0.58007 0.0
C326 C 0.0237 0.36374 0.5981 0.0
C327 C 1.00726 0.37203 0.53763 0.0
C328 C 0.99204 0.39416 0.53682 0.0
C329 C 0.99381 0.40828 0.59906 0.0
C330 C 1.01069 0.40032 0.6615 0.0
C331 C 0.0256 0.37754 0.66099 0.0
H332 H 0.86444 0.03917 0.1405 0.0
H333 H 0.80741 1.00434 0.003 0.0
H334 H 0.84198 0.99688 0.91102 0.0
H335 H 0.90191 0.07319 0.98115 0.0
H336 H 0.93269 0.0678 0.02886 0.0
H337 H 0.9036 0.06973 0.08468 0.0
H338 H 0.91249 0.02393 0.16363 0.0
H339 H 0.94169 0.02196 0.10834 0.0
H340 H 0.91712 0.99615 0.11397 0.0
H341 H 0.88346 0.99264 0.83472 0.0
H342 H 0.92783 0.99288 0.77981 0.0
H343 H 0.95722 0.03196 0.96532 0.0
C344 C 0.85932 0.02969 0.09147 0.0
C345 C 0.83336 0.0216 0.08017 0.0
C346 C 0.82726 0.01004 0.01396 0.0
C347 C 0.84676 1.00584 0.96122 0.0
C348 C 0.87224 0.01374 0.97464 0.0
C349 C 0.87851 0.02553 0.03805 0.0
C350 C 0.90724 0.03266 0.03864 0.0
C351 C 0.91161 0.06262 0.03298 0.0
C352 C 0.9204 0.01778 0.1104 0.0
C353 C 0.91621 0.02294 0.96592 0.0
C354 C 0.89579 0.01203 0.92979 0.0
C355 C 0.89955 1.00126 0.86242 0.0
C356 C 0.92483 1.0015 0.83157 0.0
C357 C 0.94605 0.01259 0.86775 0.0
C358 C 0.94146 0.02356 0.93561 0.0
H359 H 0.49048 0.83484 0.19152 0.0
H360 H 0.52104 0.78436 0.03788 0.0
H361 H 0.53004 0.82339 0.93951 0.0
H362 H 0.45855 0.87907 0.04626 0.0
H363 H 0.46573 0.90813 0.08904 0.0
H364 H 0.46277 0.87644 0.14897 0.0
H365 H 0.50872 0.88296 0.20365 0.0
H366 H 0.51178 0.91473 0.14407 0.0
H367 H 0.5359 0.89022 0.13835 0.0
H368 H 0.53486 0.86758 0.85704 0.0
H369 H 0.53493 0.91388 0.79465 0.0
H370 H 0.50073 0.9364 0.00057 0.0
C371 C 0.49943 0.83211 0.13756 0.0
C372 C 0.50573 0.80661 0.12308 0.0
C373 C 0.51666 0.80372 0.05089 0.0
C374 C 0.52175 0.82578 0.99461 0.0
C375 C 0.51552 0.85063 0.01094 0.0
C376 C 0.50457 0.85396 0.08057 0.0
C377 C 0.49903 0.88279 0.0824 0.0
C378 C 0.46978 0.88684 0.09224 0.0
C379 C 0.5148 0.89329 0.14589 0.0
C380 C 0.50852 0.89514 0.00284 0.0
C381 C 0.51798 0.87618 0.96278 0.0
C382 C 0.52756 0.88259 0.88793 0.0
C383 C 0.52748 0.90903 0.85295 0.0
C384 C 0.51787 0.92893 0.89254 0.0
C385 C 0.5083 0.92175 0.96872 0.0
H386 H 0.69668 0.48867 0.26331 0.0
H387 H 0.75936 0.53162 0.12984 0.0
H388 H 0.73096 0.53891 0.01645 0.0
H389 H 0.67212 0.4559 0.11337 0.0
H390 H 0.63841 0.45785 0.13935 0.0
H391 H 0.6631 0.45721 0.21192 0.0
H392 H 0.64627 0.50078 0.24867 0.0
H393 H 0.62149 0.50153 0.1762 0.0
H394 H 0.64367 0.52925 0.17527 0.0
H395 H 0.69679 0.53991 0.91595 0.0
H396 H 0.6589 0.53446 0.83399 0.0
H397 H 0.61746 0.49116 0.0305 0.0
C398 C 0.70422 0.50001 0.2105 0.0
C399 C 0.73011 0.51009 0.2062 0.0
C400 C 0.73955 0.52411 0.13535 0.0
C401 C 0.72352 0.52835 0.07044 0.0
C402 C 0.6981 0.51832 0.07683 0.0
C403 C 0.68842 0.50446 0.14498 0.0
C404 C 0.66062 0.49496 0.13517 0.0
C405 C 0.65845 0.46469 0.15087 0.0
C406 C 0.64191 0.50738 0.18691 0.0
C407 C 0.65632 0.50542 0.05064 0.0
C408 C 0.67823 0.51886 0.01836 0.0
C409 C 0.67949 0.52954 0.94066 0.0
C410 C 0.65791 0.52621 0.89445 0.0
C411 C 0.63524 0.51236 0.92573 0.0
C412 C 0.63438 0.50212 0.00525 0.0
H413 H 0.03835 0.66863 0.23472 0.0
H414 H 1.00166 0.73799 0.11382 0.0
H415 H 0.99382 0.71497 0.00248 0.0
H416 H 0.07122 0.65149 0.07187 0.0
H417 H 0.06687 0.61638 0.09943 0.0
H418 H 0.06808 0.63754 0.17217 0.0
H419 H 0.02338 0.6187 0.22529 0.0
H420 H 0.02209 0.59742 0.15272 0.0
H421 H 0.99601 0.61962 0.16127 0.0
H422 H 0.99151 0.68543 0.90257 0.0
H423 H 0.99511 0.65136 0.81905 0.0
H424 H 0.03403 0.60069 0.00202 0.0
C425 C 0.02828 0.67876 0.18524 0.0
C426 C 0.02006 0.70497 0.18363 0.0
C427 C 1.0076 0.71782 0.11706 0.0
C428 C 1.00313 0.70489 0.05343 0.0
C429 C 1.0114 0.6791 0.05687 0.0
C430 C 0.02371 0.6661 0.12095 0.0
C431 C 0.03155 0.63874 0.10814 0.0
C432 C 0.06119 0.63588 0.11319 0.0
C433 C 0.01741 0.61736 0.16526 0.0
C434 C 0.02203 0.63858 0.02649 0.0
C435 C 1.01037 0.66205 0.99838 0.0
C436 C 1.00058 0.66697 0.92396 0.0
C437 C 1.00291 0.64751 0.87668 0.0
C438 C 0.01502 0.62334 0.90353 0.0
C439 C 0.02446 0.61881 0.97996 0.0
H440 H 1.0083 0.19436 0.48578 0.0
H441 H 0.07847 0.18068 0.36219 0.0
H442 H 0.08013 0.13567 0.43419 0.0
H443 H 0.02871 0.15269 0.67543 0.0
H444 H 0.99557 0.14182 0.69641 0.0
H445 H 1.00243 0.17425 0.64389 0.0
H446 H 0.97216 0.16324 0.53514 0.0
H447 H 0.96609 0.13042 0.58543 0.0
H448 H 0.97883 0.13517 0.48849 0.0
H449 H 0.06882 0.09014 0.49614 0.0
H450 H 0.05268 0.04912 0.57645 0.0
H451 H 0.99253 0.09274 0.67066 0.0
C452 C 0.02472 0.18235 0.47695 0.0
C453 C 0.04311 0.19077 0.41808 0.0
C454 C 0.06412 0.1744 0.40687 0.0
C455 C 0.06513 0.14878 0.44703 0.0
C456 C 0.04548 0.14023 0.5 0.0
C457 C 0.02635 0.1568 0.51797 0.0
C458 C 1.00726 0.14224 0.57625 0.0
C459 C 1.00858 0.15341 0.65253 0.0
C460 C 0.97945 0.14282 0.54436 0.0
C461 C 0.01797 0.11473 0.58493 0.0
C462 C 0.03982 0.114 0.53959 0.0
C463 C 0.05208 0.09051 0.5333 0.0
C464 C 0.04251 0.0673 0.57773 0.0
C465 C 0.02122 0.06798 0.62814 0.0
C466 C 1.00864 0.09186 0.63139 0.0
H467 H 0.35651 0.03752 0.4516 0.0
H468 H 0.30893 0.97822 0.59389 0.0
H469 H 0.34573 0.96904 0.68408 0.0
H470 H 0.41054 0.99966 0.45733 0.0
H471 H 0.43395 0.02633 0.45692 0.0
H472 H 0.40264 0.0326 0.41378 0.0
H473 H 0.39396 0.06788 0.50091 0.0
H474 H 0.42559 0.06234 0.54302 0.0
H475 H 0.39711 0.05948 0.60386 0.0
H476 H 0.38938 0.96422 0.75224 0.0
H477 H 0.43555 0.9643 0.7925 0.0
H478 H 0.45491 0.02194 0.59259 0.0
C479 C 0.3536 0.02295 0.50261 0.0
C480 C 0.32996 1.00845 0.51575 0.0
C481 C 0.32682 0.98973 0.58331 0.0
C482 C 0.34767 0.98427 0.63435 0.0
C483 C 0.37135 0.99767 0.61636 0.0
C484 C 0.37428 0.01674 0.55219 0.0
C485 C 0.40217 0.02635 0.54021 0.0
C486 C 0.41294 0.02089 0.46247 0.0
C487 C 0.40486 0.05575 0.54748 0.0
C488 C 0.41474 1.00931 0.60687 0.0
C489 C 0.39663 0.9933 0.65125 0.0
C490 C 0.4037 0.97651 0.71755 0.0
C491 C 0.42987 0.97648 0.73955 0.0
C492 C 0.44855 0.99249 0.69393 0.0
C493 C 0.44097 1.00889 0.62664 0.0
H494 H 0.55997 0.35913 0.48279 0.0
H495 H 0.49461 0.31208 0.58771 0.0
H496 H 0.48775 0.34457 0.67546 0.0
H497 H 0.58233 0.38483 0.66411 0.0
H498 H 0.59103 0.41652 0.60974 0.0
H499 H 0.59382 0.38711 0.56622 0.0
H500 H 0.56472 0.40781 0.45409 0.0
H501 H 0.56121 0.43695 0.49798 0.0
H502 H 0.53278 0.41861 0.47504 0.0
H503 H 0.48219 0.38588 0.73004 0.0
H504 H 0.48283 0.43041 0.76633 0.0
H505 H 0.55328 0.45034 0.63206 0.0
C506 C 0.54492 0.3552 0.52653 0.0
C507 C 0.52791 0.33309 0.52922 0.0
C508 C 0.5081 0.32867 0.5859 0.0
C509 C 0.50396 0.34712 0.63545 0.0
C510 C 0.52013 0.36953 0.6283 0.0
C511 C 0.54071 0.3733 0.57685 0.0
C512 C 0.55393 0.40002 0.57659 0.0
C513 C 0.58194 0.39693 0.60594 0.0
C514 C 0.55309 0.41682 0.49616 0.0
C515 C 0.53683 0.41115 0.63337 0.0
C516 C 0.51743 0.39322 0.66227 0.0
C517 C 0.49767 0.39982 0.70949 0.0
C518 C 0.49801 0.42524 0.72889 0.0
C519 C 0.51812 0.44362 0.70185 0.0
C520 C 0.53788 0.43645 0.65398 0.0
H521 H 0.18102 0.55284 0.4449 0.0
H522 H 0.17272 0.47514 0.3787 0.0
H523 H 0.13195 0.4674 0.45283 0.0
H524 H 0.15353 0.53176 0.64569 0.0
H525 H 0.13795 0.56281 0.64596 0.0
H526 H 0.16775 0.56155 0.59274 0.0
H527 H 0.14502 0.58441 0.46989 0.0
H528 H 0.11492 0.58494 0.52207 0.0
H529 H 0.11598 0.56953 0.43663 0.0
H530 H 0.0899 0.47071 0.51158 0.0
H531 H 0.05242 0.47847 0.58979 0.0
H532 H 0.08809 0.55213 0.63495 0.0
C533 C 0.17103 0.53389 0.44895 0.0
C534 C 0.17984 0.51442 0.40689 0.0
C535 C 0.16622 0.49002 0.41151 0.0
C536 C 0.14298 0.4856 0.45261 0.0
C537 C 0.13397 0.50559 0.49006 0.0
C538 C 0.14789 0.52882 0.49173 0.0
C539 C 0.13345 0.54658 0.5384 0.0
C540 C 0.1491 0.55092 0.60996 0.0
C541 C 0.12697 0.57293 0.48875 0.0
C542 C 0.10903 0.5299 0.56038 0.0
C543 C 0.10979 0.50665 0.53005 0.0
C544 C 0.0893 0.48844 0.53774 0.0
C545 C 0.06801 0.49319 0.58198 0.0
C546 C 0.06754 0.51566 0.6199 0.0
C547 C 0.08794 0.53478 0.60685 0.0
H548 H 0.02329 0.81924 0.11012 0.0
H549 H 0.96306 0.84119 0.25975 0.0
H550 H 0.9637 0.88615 0.1872 0.0
H551 H 0.05989 0.87577 0.09015 0.0
H552 H 0.06743 0.87848 0.98895 0.0
H553 H 0.06027 0.84666 0.04443 0.0
H554 H 0.0232 0.8382 0.95132 0.0
H555 H 0.03085 0.86961 0.89373 0.0
H556 H 0.99828 0.86225 0.92979 0.0
H557 H 0.97707 0.93003 0.11817 0.0
H558 H 0.99349 0.96896 0.02922 0.0
H559 H 0.04141 0.91862 0.91342 0.0
C560 C 1.00947 0.83321 0.12521 0.0
C561 C 0.99341 0.82697 0.19105 0.0
C562 C 0.97574 0.84579 0.20992 0.0
C563 C 0.97602 0.87138 0.16936 0.0
C564 C 0.99346 0.87756 0.10845 0.0
C565 C 1.00904 0.85884 0.08392 0.0
C566 C 0.02619 0.87109 0.01694 0.0
C567 C 0.05516 0.86779 0.03634 0.0
C568 C 0.0192 0.85961 0.94359 0.0
C569 C 0.01858 0.89968 0.01044 0.0
C570 C 0.99994 0.90295 0.06463 0.0
C571 C 0.99123 0.92773 0.07421 0.0
C572 C 1.00097 0.94972 0.02455 0.0
C573 C 0.01881 0.94659 0.9656 0.0
C574 C 0.02789 0.92135 0.95872 0.0
H575 H 0.6791 0.04842 0.10315 0.0
H576 H 0.72799 1.00646 0.96311 0.0
H577 H 0.69262 1.00616 0.86964 0.0
H578 H 0.62654 1.00826 0.09325 0.0
H579 H 0.60208 0.03286 0.09211 0.0
H580 H 0.63293 0.03737 0.1365 0.0
H581 H 0.64026 0.08231 0.04879 0.0
H582 H 0.6091 0.07828 0.00495 0.0
H583 H 0.63791 0.08418 0.94574 0.0
H584 H 0.65063 1.00269 0.80533 0.0
H585 H 0.60513 0.99727 0.7706 0.0
H586 H 0.58104 0.03715 0.95928 0.0
C587 C 0.68265 0.03964 0.052 0.0
C588 C 0.70644 0.02732 0.04102 0.0
C589 C 0.71026 0.01644 0.97263 0.0
C590 C 0.69013 0.01599 0.91932 0.0
C591 C 0.66631 0.0264 0.93535 0.0
C592 C 0.66249 0.03821 -0.00024 0.0
C593 C 0.63405 0.04415 0.01002 0.0
C594 C 0.62328 0.0298 0.08753 0.0
C595 C 0.6301 0.07401 0.00186 0.0
C596 C 0.62229 0.03286 0.94287 0.0
C597 C 0.64142 0.0233 0.8998 0.0
C598 C 0.63554 0.01052 0.83772 0.0
C599 C 0.60948 1.00745 0.8188 0.0
C600 C 0.58936 0.01688 0.86213 0.0
C601 C 0.59593 0.02987 0.9249 0.0
H602 H 0.47279 0.65685 0.12269 0.0
H603 H 0.54069 0.70183 0.02676 0.0
H604 H 0.54791 0.66917 0.93991 0.0
H605 H 0.49849 0.59629 0.13341 0.0
H606 H 0.46992 0.57896 0.10671 0.0
H607 H 0.46665 0.60813 0.15063 0.0
H608 H 0.43956 0.62994 0.0352 0.0
H609 H 0.44214 0.60054 0.99154 0.0
H610 H 0.45234 0.63203 0.93876 0.0
H611 H 0.55301 0.62786 0.8849 0.0
H612 H 0.55163 0.58354 0.84734 0.0
H613 H 0.4792 0.56552 0.97311 0.0
C614 C 0.48856 0.6603 0.08115 0.0
C615 C 0.50609 0.68193 0.08082 0.0
C616 C 0.52678 0.68568 0.02683 0.0
C617 C 0.53114 0.6671 0.97779 0.0
C618 C 0.51436 0.6452 0.98268 0.0
C619 C 0.49304 0.64205 0.03141 0.0
C620 C 0.47917 0.61576 0.02955 0.0
C621 C 0.47854 0.5988 0.10983 0.0
C622 C 0.45167 0.61982 0.99678 0.0
C623 C 0.49666 0.60415 0.97467 0.0
C624 C 0.51686 0.62149 0.94855 0.0
C625 C 0.53695 0.61438 0.90335 0.0
C626 C 0.53616 0.58906 0.88318 0.0
C627 C 0.5153 0.57124 0.90743 0.0
C628 C 0.49519 0.57894 0.95326 0.0
H629 H 0.87234 0.54226 0.16779 0.0
H630 H 0.83811 0.46431 0.17033 0.0
H631 H 0.87426 0.45311 0.08843 0.0
H632 H 0.89758 0.55052 0.96653 0.0
H633 H 0.92633 0.56804 0.99103 0.0
H634 H 0.89642 0.57031 0.04275 0.0
H635 H 0.92023 0.55484 0.17092 0.0
H636 H 0.95001 0.55179 0.11947 0.0
H637 H 0.93668 0.52388 0.18361 0.0
H638 H 0.91647 0.449 0.0204 0.0
H639 H 0.95831 0.45418 0.95098 0.0
H640 H 0.96447 0.53565 0.98948 0.0
C641 C 0.8721 0.52319 0.14861 0.0
C642 C 0.85246 0.50419 0.17366 0.0
C643 C 0.85283 0.47917 0.14986 0.0
C644 C 0.87337 0.47262 0.10424 0.0
C645 C 0.89305 0.49148 0.08285 0.0
C646 C 0.89227 0.51647 0.10262 0.0
C647 C 0.91613 0.53288 0.07381 0.0
C648 C 0.90867 0.55685 0.01502 0.0
C649 C 0.93167 0.54133 0.14097 0.0
C650 C 0.93072 0.51305 0.03586 0.0
C651 C 0.91718 0.48925 0.04236 0.0
C652 C 0.92709 0.46765 0.01399 0.0
C653 C 0.95102 0.47075 0.97529 0.0
C654 C 0.96467 0.49537 0.96463 0.0
C655 C 0.95453 0.51661 0.99669 0.0
H656 H 0.06853 0.20795 0.14242 0.0
H657 H 0.9861 0.22205 0.13254 0.0
H658 H 0.98072 0.19001 0.04163 0.0
H659 H 0.07733 0.18948 0.93957 0.0
H660 H 0.0996 0.16426 0.97763 0.0
H661 H 0.0981 0.19424 0.01894 0.0
H662 H 0.08995 0.16638 0.15291 0.0
H663 H 0.09041 0.13639 0.11231 0.0
H664 H 0.06248 0.1437 0.16668 0.0
H665 H 0.98287 0.14899 0.97901 0.0
H666 H 0.99258 0.10552 0.94363 0.0
H667 H 0.07354 0.11674 0.00063 0.0
C668 C 0.04968 0.20555 0.11682 0.0
C669 C 0.02781 0.21784 0.14295 0.0
C670 C 1.00317 0.21343 0.11141 0.0
C671 C 0.99995 0.19498 0.06044 0.0
C672 C 0.02161 0.18132 0.04139 0.0
C673 C 0.04616 0.18682 0.06755 0.0
C674 C 0.06547 0.1666 0.05052 0.0
C675 C 0.08636 0.17941 0.99323 0.0
C676 C 0.07777 0.15245 0.12502 0.0
C677 C 0.0478 0.1481 0.01416 0.0
C678 C 0.0227 0.15714 0.00784 0.0
C679 C 1.00261 0.14213 0.98188 0.0
C680 C 1.00832 0.11739 0.96196 0.0
C681 C 0.03388 0.10761 0.96906 0.0
C682 C 0.05381 0.12349 0.99466 0.0
H683 H 0.33721 0.05218 0.25313 0.0
H684 H 0.30208 0.97861 0.20964 0.0
H685 H 0.33587 0.97547 0.11071 0.0
H686 H 0.36338 0.0766 0.0529 0.0
H687 H 0.39252 0.0893 0.09205 0.0
H688 H 0.3622 0.08868 0.14389 0.0
H689 H 0.3839 0.06229 0.26352 0.0
H690 H 0.41402 0.06209 0.2117 0.0
H691 H 0.3988 0.03143 0.25522 0.0
H692 H 0.37815 0.97659 0.03491 0.0
H693 H 0.42209 0.98327 0.98063 0.0
H694 H 0.43039 0.05582 0.07857 0.0
C695 C 0.3358 0.03622 0.21943 0.0
C696 C 0.31663 0.016 0.23726 0.0
C697 C 0.31605 0.9947 0.19495 0.0
C698 C 0.33541 0.99264 0.13944 0.0
C699 C 0.35512 0.01207 0.1271 0.0
C700 C 0.35514 0.03371 0.16512 0.0
C701 C 0.37999 0.05014 0.14943 0.0
C702 C 0.37417 0.07782 0.10701 0.0
C703 C 0.39505 0.05155 0.2244 0.0
C704 C 0.39429 0.03416 0.09779 0.0
C705 C 0.37962 0.01238 0.08514 0.0
C706 C 0.38952 0.9939 0.04319 0.0
C707 C 0.4148 0.99795 0.01253 0.0
C708 C 0.43027 0.02036 0.02379 0.0
C709 C 0.41953 0.03857 0.0675 0.0
H710 H 0.55323 0.35729 0.25237 0.0
H711 H 0.47804 0.31936 0.23315 0.0
H712 H 0.46686 0.35452 0.1259 0.0
H713 H 0.5324 0.42138 0.22603 0.0
H714 H 0.56001 0.43579 0.17024 0.0
H715 H 0.56355 0.40601 0.23779 0.0
H716 H 0.5813 0.38201 0.1298 0.0
H717 H 0.57846 0.41195 0.06225 0.0
H718 H 0.56282 0.38192 0.04284 0.0
H719 H 0.46201 0.39718 0.03281 0.0
H720 H 0.4661 0.44014 0.9479 0.0
H721 H 0.545 0.44968 0.02716 0.0
C722 C 0.53477 0.35593 0.22365 0.0
C723 C 0.51657 0.33548 0.25021 0.0
C724 C 0.49241 0.33456 0.21252 0.0
C725 C 0.48583 0.35461 0.15223 0.0
C726 C 0.50377 0.37522 0.12995 0.0
C727 C 0.52801 0.37565 0.16336 0.0
C728 C 0.54342 0.40045 0.13135 0.0
C729 C 0.55023 0.41686 0.19517 0.0
C730 C 0.56795 0.39367 0.08902 0.0
C731 C 0.52391 0.41425 0.07575 0.0
C732 C 0.50111 0.39947 0.07599 0.0
C733 C 0.47991 0.40871 0.0315 0.0
C734 C 0.48233 0.4333 0.98401 0.0
C735 C 0.50585 0.44837 0.98088 0.0
C736 C 0.52676 0.43868 0.02811 0.0
H737 H 0.17319 0.55451 0.12425 0.0
H738 H 0.20962 0.47914 0.13071 0.0
H739 H 0.17686 0.46642 0.03931 0.0
H740 H 0.11157 0.53125 0.13535 0.0
H741 H 0.09713 0.55792 0.0721 0.0
H742 H 0.1265 0.56374 0.1225 0.0
H743 H 0.15007 0.58156 0.99396 0.0
H744 H 0.12046 0.57664 0.94305 0.0
H745 H 0.15002 0.56193 0.91723 0.0
H746 H 0.135 0.45908 0.96649 0.0
H747 H 0.09157 0.46014 0.90561 0.0
H748 H 0.08269 0.54022 0.95049 0.0
C749 C 0.17507 0.53592 0.10299 0.0
C750 C 0.19423 0.51801 0.1332 0.0
C751 C 0.19556 0.49343 0.10655 0.0
C752 C 0.17679 0.48593 0.05543 0.0
C753 C 0.15701 0.50338 0.03098 0.0
C754 C 0.15646 0.52817 0.05249 0.0
C755 C 0.13197 0.54234 0.02482 0.0
C756 C 0.11586 0.5492 0.09275 0.0
C757 C 0.13853 0.56708 0.96626 0.0
C758 C 0.11834 0.52139 0.98667 0.0
C759 C 0.13304 0.49908 0.99021 0.0
C760 C 0.12358 0.47666 0.96227 0.0
C761 C 0.09877 0.47733 0.92845 0.0
C762 C 0.08365 0.50024 0.9231 0.0
C763 C 0.09372 0.52241 0.95313 0.0
H764 H 0.9676 0.80406 0.46498 0.0
H765 H 0.04989 0.78952 0.47012 0.0
H766 H 0.05622 0.82164 0.56026 0.0
H767 H 0.97435 0.86766 0.43677 0.0
H768 H 0.94701 0.87608 0.49171 0.0
H769 H 0.94653 0.84554 0.45401 0.0
H770 H 0.93893 0.81898 0.58998 0.0
H771 H 0.93822 0.84953 0.62853 0.0
H772 H 0.96032 0.82426 0.6675 0.0
H773 H 0.05512 0.86307 0.62031 0.0
H774 H 0.04646 0.90733 0.65157 0.0
H775 H 0.96499 0.8968 0.59952 0.0
C776 C 0.98657 0.8062 0.49008 0.0
C777 C 1.00814 0.79378 0.46273 0.0
C778 C 0.03304 0.79811 0.49265 0.0
C779 C 0.0368 0.81665 0.54307 0.0
C780 C 0.01543 0.83057 0.56293 0.0
C781 C 0.99064 0.82515 0.53842 0.0
C782 C 0.97179 0.84593 0.55455 0.0
C783 C 0.95922 0.85959 0.47984 0.0
C784 C 0.9511 0.83396 0.61369 0.0
C785 C 0.99001 0.86462 0.58826 0.0
C786 C 0.01496 0.85519 0.59434 0.0
C787 C 0.0355 0.87025 0.6177 0.0
C788 C 0.0304 0.89545 0.63524 0.0
C789 C 1.00501 0.90563 0.62824 0.0
C790 C 0.98461 0.88971 0.60533 0.0
H791 H 0.69162 0.96951 0.27373 0.0
H792 H 0.73736 0.02581 0.37965 0.0
H793 H 0.70548 0.02177 0.48731 0.0
H794 H 0.63409 0.99672 0.30074 0.0
H795 H 0.61485 0.96659 0.3175 0.0
H796 H 0.64411 0.96821 0.26088 0.0
H797 H 0.66238 0.92832 0.35146 0.0
H798 H 0.63283 0.92604 0.40758 0.0
H799 H 0.66376 0.92899 0.45367 0.0
H800 H 0.66467 0.01704 0.57078 0.0
H801 H 0.62059 0.01069 0.62585 0.0
H802 H 0.60021 0.96033 0.45684 0.0
C803 C 0.69554 0.98002 0.32158 0.0
C804 C 0.71711 0.99766 0.31927 0.0
C805 C 0.72129 0.01174 0.38142 0.0
C806 C 0.70312 0.00972 0.44228 0.0
C807 C 0.68101 0.99352 0.43982 0.0
C808 C 0.67739 0.97865 0.38134 0.0
C809 C 0.65062 0.96562 0.38532 0.0
C810 C 0.63502 0.97485 0.31178 0.0
C811 C 0.65252 0.93545 0.40044 0.0
C812 C 0.63936 0.97593 0.45415 0.0
C813 C 0.65723 0.9917 0.4855 0.0
C814 C 0.65068 1.00449 0.54705 0.0
C815 C 0.62534 1.00097 0.57742 0.0
C816 C 0.60658 0.98501 0.54578 0.0
C817 C 0.61398 0.97231 0.48343 0.0
H818 H 0.47863 0.65685 0.35716 0.0
H819 H 0.55306 0.69607 0.37867 0.0
H820 H 0.56458 0.66098 0.48542 0.0
H821 H 0.46892 0.63153 0.56618 0.0
H822 H 0.45399 0.60128 0.54584 0.0
H823 H 0.45071 0.63128 0.47881 0.0
H824 H 0.46931 0.60796 0.37048 0.0
H825 H 0.47332 0.57814 0.43752 0.0
H826 H 0.50077 0.59326 0.38241 0.0
H827 H 0.57009 0.61837 0.57742 0.0
H828 H 0.56661 0.57525 0.66178 0.0
H829 H 0.48813 0.56433 0.58091 0.0
C830 C 0.49699 0.65848 0.38622 0.0
C831 C 0.51489 0.67928 0.36039 0.0
C832 C 0.5389 0.68059 0.39869 0.0
C833 C 0.5457 0.66058 0.45871 0.0
C834 C 0.52811 0.63963 0.48014 0.0
C835 C 0.50398 0.6388 0.44628 0.0
C836 C 0.489 0.61366 0.47748 0.0
C837 C 0.46419 0.61981 0.5196 0.0
C838 C 0.48274 0.5973 0.41313 0.0
C839 C 0.50865 0.60017 0.53313 0.0
C840 C 0.53115 0.61537 0.53359 0.0
C841 C 0.55243 0.60649 0.57825 0.0
C842 C 0.55037 0.58182 0.62537 0.0
C843 C 0.52712 0.56637 0.62789 0.0
C844 C 0.50615 0.57566 0.58036 0.0
H845 H 0.8612 0.47732 0.45188 0.0
H846 H 0.8324 0.55594 0.45003 0.0
H847 H 0.86539 0.56391 0.54681 0.0
H848 H 0.88095 0.46475 0.66111 0.0
H849 H 0.90923 0.44738 0.63799 0.0
H850 H 0.88015 0.44636 0.58157 0.0
H851 H 0.90696 0.46331 0.45819 0.0
H852 H 0.93593 0.46507 0.5142 0.0
H853 H 0.92518 0.49397 0.45193 0.0
H854 H 0.90642 0.56584 0.62473 0.0
H855 H 0.9487 0.55986 0.69038 0.0
H856 H 0.95067 0.47971 0.64073 0.0
C857 C 0.86113 0.49577 0.47462 0.0
C858 C 0.84408 0.51592 0.44457 0.0
C859 C 0.84491 0.54009 0.47375 0.0
C860 C 0.86376 0.54483 0.52807 0.0
C861 C 0.88135 0.52506 0.55303 0.0
C862 C 0.87979 0.50076 0.5285 0.0
C863 C 0.90229 0.48366 0.55834 0.0
C864 C 0.89257 0.45909 0.61303 0.0
C865 C 0.91854 0.47608 0.49169 0.0
C866 C 0.91729 0.50241 0.60141 0.0
C867 C 0.90488 0.52615 0.59796 0.0
C868 C 0.91601 0.54714 0.62906 0.0
C869 C 0.94016 0.54363 0.66564 0.0
C870 C 0.95298 0.51929 0.67095 0.0
C871 C 0.94127 0.49847 0.63831 0.0
loop_
_geom_bond_atom_site_label_1
_geom_bond_atom_site_label_2
_geom_bond_distance
_geom_bond_site_symmetry_2
_ccdc_geom_bond_type
H0 C7 0.929 . S
H1 C10 0.930 . S
H2 C12 0.929 . S
H3 C4 0.969 . S
C4 H3 0.969 . S
C4 O5 1.550 . S
C4 H6 0.973 . S
O5 C4 1.550 . S
O5 C11 1.412 . S
H6 C4 0.973 . S
C7 H0 0.929 . S
C7 C8 1.400 . S
C7 C9 1.364 . S
C8 C7 1.400 . S
C8 C12 1.377 . S
C9 C7 1.364 . S
C9 C10 1.374 . S
C10 H1 0.930 . S
C10 C9 1.374 . S
C10 C11 1.383 . S
C11 O5 1.412 . S
C11 C10 1.383 . S
C11 C12 1.394 . S
C12 H2 0.929 . S
C12 C8 1.377 . S
C12 C11 1.394 . S
H13 C20 0.929 . S
H14 C23 0.930 . S
H15 C25 0.929 . S
H16 C17 0.969 . S
C17 H16 0.969 . S
C17 O18 1.550 . S
C17 H19 0.973 . S
O18 C17 1.550 . S
O18 C24 1.412 . S
H19 C17 0.973 . S
C20 H13 0.929 . S
C20 C21 1.400 . S
C20 C22 1.364 . S
C21 C20 1.400 . S
C21 C25 1.377 . S
C22 C20 1.364 . S
C22 C23 1.374 . S
C23 H14 0.930 . S
C23 C22 1.374 . S
C23 C24 1.383 . S
C24 O18 1.412 . S
C24 C23 1.383 . S
C24 C25 1.394 . S
C25 H15 0.929 . S
C25 C21 1.377 . S
C25 C24 1.394 . S
H26 C33 0.929 1_565 S
H27 C36 0.924 1_556 S
H28 C38 0.930 1_565 S
H29 C30 0.970 . S
C30 H29 0.970 . S
C30 O31 1.543 1_546 S
C30 H32 0.980 1_545 S
O31 C30 1.543 1_564 S
O31 C37 1.404 1_565 S
H32 C30 0.980 1_565 S
C33 H26 0.929 1_545 S
C33 C34 1.398 . S
C33 C35 1.365 . S
C34 C33 1.398 . S
C34 C38 1.376 . S
C35 C33 1.365 . S
C35 C36 1.374 1_545 S
C36 H27 0.924 1_554 S
C36 C35 1.374 1_565 S
C36 C37 1.378 1_565 S
C37 O31 1.404 1_545 S
C37 C36 1.378 1_545 S
C37 C38 1.399 . S
C38 H28 0.930 1_545 S
C38 C34 1.376 . S
C38 C37 1.399 . S
H39 C46 0.929 . S
H40 C49 0.930 . S
H41 C51 0.929 . S
H42 C43 0.969 . S
C43 H42 0.969 . S
C43 O44 1.550 . S
C43 H45 0.973 . S
O44 C43 1.550 . S
O44 C50 1.412 . S
H45 C43 0.973 . S
C46 H39 0.929 . S
C46 C47 1.400 . S
C46 C48 1.364 . S
C47 C46 1.400 . S
C47 C51 1.377 . S
C48 C46 1.364 . S
C48 C49 1.374 . S
C49 H40 0.930 . S
C49 C48 1.374 . S
C49 C50 1.383 . S
C50 O44 1.412 . S
C50 C49 1.383 . S
C50 C51 1.394 . S
C51 H41 0.929 . S
C51 C47 1.377 . S
C51 C50 1.394 . S
H52 C59 0.929 . S
H53 C62 0.930 . S
H54 C64 0.929 . S
H55 C56 0.969 . S
C56 H55 0.969 . S
C56 O57 1.550 . S
C56 H58 0.973 . S
O57 C56 1.550 . S
O57 C63 1.412 . S
H58 C56 0.973 . S
C59 H52 0.929 . S
C59 C60 1.400 . S
C59 C61 1.364 . S
C60 C59 1.400 . S
C60 C64 1.377 . S
C61 C59 1.364 . S
C61 C62 1.374 . S
C62 H53 0.930 . S
C62 C61 1.374 . S
C62 C63 1.383 . S
C63 O57 1.412 . S
C63 C62 1.383 . S
C63 C64 1.394 . S
C64 H54 0.929 . S
C64 C60 1.377 . S
C64 C63 1.394 . S
H65 C72 0.929 . S
H66 C75 0.930 . S
H67 C77 0.929 . S
H68 C69 0.969 . S
C69 H68 0.969 . S
C69 O70 1.550 . S
C69 H71 0.973 . S
O70 C69 1.550 . S
O70 C76 1.412 . S
H71 C69 0.973 . S
C72 H65 0.929 . S
C72 C73 1.400 . S
C72 C74 1.364 . S
C73 C72 1.400 . S
C73 C77 1.377 . S
C74 C72 1.364 . S
C74 C75 1.374 . S
C75 H66 0.930 . S
C75 C74 1.374 . S
C75 C76 1.383 . S
C76 O70 1.412 . S
C76 C75 1.383 . S
C76 C77 1.394 . S
C77 H67 0.929 . S
C77 C73 1.377 . S
C77 C76 1.394 . S
H78 C85 0.928 1_565 S
H79 C88 0.935 . S
H80 C90 0.926 1_565 S
H81 C82 0.969 . S
C82 H81 0.969 . S
C82 O83 1.550 1_545 S
C82 H84 0.973 1_545 S
O83 C82 1.550 1_565 S
O83 C89 1.403 1_565 S
H84 C82 0.973 1_565 S
C85 H78 0.928 1_545 S
C85 C86 1.401 . S
C85 C87 1.363 . S
C86 C85 1.401 . S
C86 C90 1.377 . S
C87 C85 1.363 . S
C87 C88 1.375 1_545 S
C88 H79 0.935 . S
C88 C87 1.375 1_565 S
C88 C89 1.386 1_565 S
C89 O83 1.403 1_545 S
C89 C88 1.386 1_545 S
C89 C90 1.390 . S
C90 H80 0.926 1_545 S
C90 C86 1.377 . S
C90 C89 1.390 . S
H91 C98 0.929 . S
H92 C101 0.930 . S
H93 C103 0.929 . S
H94 C95 0.969 . S
C95 H94 0.969 . S
C95 O96 1.550 . S
C95 H97 0.973 . S
O96 C95 1.550 . S
O96 C102 1.412 . S
H97 C95 0.973 . S
C98 H91 0.929 . S
C98 C99 1.400 . S
C98 C100 1.364 . S
C99 C98 1.400 . S
C99 C103 1.377 . S
C100 C98 1.364 . S
C100 C101 1.374 . S
C101 H92 0.930 . S
C101 C100 1.374 . S
C101 C102 1.383 . S
C102 O96 1.412 . S
C102 C101 1.383 . S
C102 C103 1.394 . S
C103 H93 0.929 . S
C103 C99 1.377 . S
C103 C102 1.394 . S
Co104 N109 2.057 . S
Co104 O121 2.021 . S
Co104 O124 2.062 . S
Co104 O128 2.117 1_455 S
Co104 O129 2.020 1_545 S
C105 O125 1.259 1_545 S
C105 O128 1.258 . S
Co106 N115 2.057 . S
Co106 O122 2.117 1_655 S
Co106 O123 2.020 1_665 S
Co106 O125 2.021 . S
Co106 O130 2.062 . S
C107 N109 1.316 . S
C107 N110 1.347 1_556 S
C107 H112 0.931 . S
C108 N109 1.375 1_655 S
C108 C111 1.350 1_656 S
C108 H113 0.930 . S
N109 Co104 2.057 . S
N109 C107 1.316 . S
N109 C108 1.375 1_455 S
N110 C107 1.347 1_554 S
N110 C111 1.373 . S
C111 C108 1.350 1_454 S
C111 N110 1.373 . S
C111 H132 0.931 1_455 S
H112 C107 0.931 . S
H113 C108 0.930 . S
C114 O121 1.259 1_565 S
C114 O122 1.258 . S
N115 Co106 2.057 . S
N115 C116 1.316 . S
N115 C117 1.375 1_655 S
C116 N115 1.316 . S
C116 N118 1.347 . S
C116 H127 0.931 . S
C117 N115 1.375 1_455 S
C117 C119 1.350 . S
C117 H126 0.930 . S
N118 C116 1.347 . S
N118 C119 1.373 1_655 S
C119 C117 1.350 . S
C119 N118 1.373 1_455 S
C119 H133 0.931 . S
C120 O123 1.256 . S
C120 O124 1.255 . S
O121 Co104 2.021 . S
O121 C114 1.259 1_545 S
O122 Co106 2.117 1_455 S
O122 C114 1.258 . S
O123 Co106 2.020 1_445 S
O123 C120 1.256 . S
O124 Co104 2.062 . S
O124 C120 1.255 . S
O125 C105 1.259 1_565 S
O125 Co106 2.021 . S
H126 C117 0.930 . S
H127 C116 0.931 . S
O128 Co104 2.117 1_655 S
O128 C105 1.258 . S
O129 Co104 2.020 1_565 S
O129 C131 1.256 . S
O130 Co106 2.062 . S
O130 C131 1.255 1_655 S
C131 O129 1.256 . S
C131 O130 1.255 1_455 S
H132 C111 0.931 1_655 S
H133 C119 0.931 . S
Co134 N139 2.057 1_545 S
Co134 O151 2.021 . S
Co134 O154 2.067 . S
Co134 O158 2.117 1_545 S
Co134 O159 2.020 . S
C135 O155 1.259 . S
C135 O158 1.258 . S
Co136 N145 2.057 1_565 S
Co136 O152 2.117 1_565 S
Co136 O153 2.020 . S
Co136 O155 2.021 . S
Co136 O160 2.065 . S
C137 N139 1.316 1_545 S
C137 N140 1.347 1_556 S
C137 H142 0.931 . S
C138 N139 1.375 1_554 S
C138 C141 1.350 . S
C138 H143 0.930 . S
N139 Co134 2.057 1_565 S
N139 C137 1.316 1_565 S
N139 C138 1.375 1_556 S
N140 C137 1.347 1_554 S
N140 C141 1.373 1_545 S
C141 C138 1.350 . S
C141 N140 1.373 1_565 S
C141 H162 0.931 . S
H142 C137 0.931 . S
H143 C138 0.930 . S
C144 O151 1.259 . S
C144 O152 1.258 . S
N145 Co136 2.057 1_545 S
N145 C146 1.316 1_545 S
N145 C147 1.375 . S
C146 N145 1.316 1_565 S
C146 N148 1.347 . S
C146 H157 0.931 . S
C147 N145 1.375 . S
C147 C149 1.350 . S
C147 H156 0.930 . S
N148 C146 1.347 . S
N148 C149 1.373 1_565 S
C149 C147 1.350 . S
C149 N148 1.373 1_545 S
C149 H163 0.931 . S
C150 O153 1.256 . S
C150 O154 1.245 1_565 S
O151 Co134 2.021 . S
O151 C144 1.259 . S
O152 Co136 2.117 1_545 S
O152 C144 1.258 . S
O153 Co136 2.020 . S
O153 C150 1.256 . S
O154 Co134 2.067 . S
O154 C150 1.245 1_545 S
O155 C135 1.259 . S
O155 Co136 2.021 . S
H156 C147 0.930 . S
H157 C146 0.931 . S
O158 Co134 2.117 1_565 S
O158 C135 1.258 . S
O159 Co134 2.020 . S
O159 C161 1.256 . S
O160 Co136 2.065 . S
O160 C161 1.248 1_565 S
C161 O159 1.256 . S
C161 O160 1.248 1_545 S
H162 C141 0.931 . S
H163 C149 0.931 . S
Co164 N169 2.057 . S
Co164 O181 2.021 . S
Co164 O184 2.062 . S
Co164 O188 2.117 . S
Co164 O189 2.020 . S
C165 O185 1.259 . S
C165 O188 1.258 . S
Co166 N175 2.057 . S
Co166 O182 2.117 . S
Co166 O183 2.020 . S
Co166 O185 2.021 . S
Co166 O190 2.062 . S
C167 N169 1.316 . S
C167 N170 1.347 . S
C167 H172 0.931 . S
C168 N169 1.375 . S
C168 C171 1.350 . S
C168 H173 0.930 . S
N169 Co164 2.057 . S
N169 C167 1.316 . S
N169 C168 1.375 . S
N170 C167 1.347 . S
N170 C171 1.373 . S
C171 C168 1.350 . S
C171 N170 1.373 . S
C171 H192 0.931 . S
H172 C167 0.931 . S
H173 C168 0.930 . S
C174 O181 1.259 . S
C174 O182 1.258 . S
N175 Co166 2.057 . S
N175 C176 1.316 . S
N175 C177 1.375 . S
C176 N175 1.316 . S
C176 N178 1.347 . S
C176 H187 0.931 . S
C177 N175 1.375 . S
C177 C179 1.350 . S
C177 H186 0.930 . S
N178 C176 1.347 . S
N178 C179 1.373 . S
C179 C177 1.350 . S
C179 N178 1.373 . S
C179 H193 0.931 . S
C180 O183 1.256 . S
C180 O184 1.255 . S
O181 Co164 2.021 . S
O181 C174 1.259 . S
O182 Co166 2.117 . S
O182 C174 1.258 . S
O183 Co166 2.020 . S
O183 C180 1.256 . S
O184 Co164 2.062 . S
O184 C180 1.255 . S
O185 C165 1.259 . S
O185 Co166 2.021 . S
H186 C177 0.930 . S
H187 C176 0.931 . S
O188 Co164 2.117 . S
O188 C165 1.258 . S
O189 Co164 2.020 . S
O189 C191 1.256 . S
O190 Co166 2.062 . S
O190 C191 1.255 . S
C191 O189 1.256 . S
C191 O190 1.255 . S
H192 C171 0.931 . S
H193 C179 0.931 . S
Co194 N199 2.057 . S
Co194 O211 2.021 1_455 S
Co194 O214 2.062 1_455 S
Co194 O218 2.117 . S
Co194 O219 2.020 . S
C195 O215 1.259 . S
C195 O218 1.258 . S
Co196 N205 2.057 . S
Co196 O212 2.117 1_455 S
Co196 O213 2.020 1_455 S
Co196 O215 2.021 . S
Co196 O220 2.062 . S
C197 N199 1.316 1_655 S
C197 N200 1.348 . S
C197 H202 0.931 . S
C198 N199 1.375 . S
C198 C201 1.350 . S
C198 H203 0.930 . S
N199 Co194 2.057 . S
N199 C197 1.316 1_455 S
N199 C198 1.375 . S
N200 C197 1.348 . S
N200 C201 1.370 1_655 S
C201 C198 1.350 . S
C201 N200 1.370 1_455 S
C201 H222 0.931 . S
H202 C197 0.931 . S
H203 C198 0.930 . S
C204 O211 1.259 . S
C204 O212 1.258 . S
N205 Co196 2.057 . S
N205 C206 1.316 . S
N205 C207 1.375 1_455 S
C206 N205 1.316 . S
C206 N208 1.347 . S
C206 H217 0.931 . S
C207 N205 1.375 1_655 S
C207 C209 1.350 . S
C207 H216 0.930 . S
N208 C206 1.347 . S
N208 C209 1.373 1_455 S
C209 C207 1.350 . S
C209 N208 1.373 1_655 S
C209 H223 0.931 . S
C210 O213 1.256 . S
C210 O214 1.255 . S
O211 Co194 2.021 1_655 S
O211 C204 1.259 . S
O212 Co196 2.117 1_655 S
O212 C204 1.258 . S
O213 Co196 2.020 1_655 S
O213 C210 1.256 . S
O214 Co194 2.062 1_655 S
O214 C210 1.255 . S
O215 C195 1.259 . S
O215 Co196 2.021 . S
H216 C207 0.930 . S
H217 C206 0.931 . S
O218 Co194 2.117 . S
O218 C195 1.258 . S
O219 Co194 2.020 . S
O219 C221 1.256 . S
O220 Co196 2.062 . S
O220 C221 1.255 . S
C221 O219 1.256 . S
C221 O220 1.255 . S
H222 C201 0.931 . S
H223 C209 0.931 . S
H224 C236 0.930 . S
H225 C238 0.930 . S
H226 C239 0.930 . S
H227 C243 0.959 . S
H228 C243 0.959 . S
H229 C243 0.961 . S
H230 C244 0.960 . S
H231 C244 0.961 . S
H232 C244 0.959 . S
H233 C247 0.929 . S
H234 C248 0.931 . S
H235 C250 0.930 . S
C236 H224 0.930 . S
C236 C237 1.399 1_565 S
C236 C241 1.399 . S
C237 C236 1.399 1_545 S
C237 C238 1.376 . S
C238 H225 0.930 . S
C238 C237 1.376 . S
C238 C239 1.388 . S
C239 H226 0.930 . S
C239 C238 1.388 . S
C239 C240 1.390 . S
C240 C239 1.390 . S
C240 C241 1.394 1_545 S
C240 C246 1.465 . S
C241 C236 1.399 . S
C241 C240 1.394 1_565 S
C241 C242 1.516 . S
C242 C241 1.516 . S
C242 C243 1.502 . S
C242 C244 1.561 . S
C242 C245 1.526 . S
C243 H227 0.959 . S
C243 H228 0.959 . S
C243 H229 0.961 . S
C243 C242 1.502 . S
C244 H230 0.960 . S
C244 H231 0.961 . S
C244 H232 0.959 . S
C244 C242 1.561 . S
C245 C242 1.526 . S
C245 C246 1.396 1_565 S
C245 C250 1.390 . S
C246 C240 1.465 . S
C246 C245 1.396 1_545 S
C246 C247 1.399 . S
C247 H233 0.929 . S
C247 C246 1.399 . S
C247 C248 1.385 . S
C248 H234 0.931 . S
C248 C247 1.385 . S
C248 C249 1.389 1_545 S
C249 C248 1.389 1_565 S
C249 C250 1.387 . S
C250 H235 0.930 . S
C250 C245 1.390 . S
C250 C249 1.387 . S
H251 C263 0.930 . S
H252 C265 0.930 . S
H253 C266 0.930 . S
H254 C270 0.959 . S
H255 C270 0.959 . S
H256 C270 0.961 . S
H257 C271 0.960 . S
H258 C271 0.961 . S
H259 C271 0.959 . S
H260 C274 0.929 . S
H261 C275 0.931 . S
H262 C277 0.930 . S
C263 H251 0.930 . S
C263 C264 1.399 . S
C263 C268 1.399 . S
C264 C263 1.399 . S
C264 C265 1.376 . S
C265 H252 0.930 . S
C265 C264 1.376 . S
C265 C266 1.388 . S
C266 H253 0.930 . S
C266 C265 1.388 . S
C266 C267 1.390 . S
C267 C266 1.390 . S
C267 C268 1.394 . S
C267 C273 1.465 . S
C268 C263 1.399 . S
C268 C267 1.394 . S
C268 C269 1.516 . S
C269 C268 1.516 . S
C269 C270 1.502 . S
C269 C271 1.561 . S
C269 C272 1.526 . S
C270 H254 0.959 . S
C270 H255 0.959 . S
C270 H256 0.961 . S
C270 C269 1.502 . S
C271 H257 0.960 . S
C271 H258 0.961 . S
C271 H259 0.959 . S
C271 C269 1.561 . S
C272 C269 1.526 . S
C272 C273 1.396 . S
C272 C277 1.390 . S
C273 C267 1.465 . S
C273 C272 1.396 . S
C273 C274 1.399 . S
C274 H260 0.929 . S
C274 C273 1.399 . S
C274 C275 1.385 . S
C275 H261 0.931 . S
C275 C274 1.385 . S
C275 C276 1.389 . S
C276 C275 1.389 . S
C276 C277 1.387 . S
C277 H262 0.930 . S
C277 C272 1.390 . S
C277 C276 1.387 . S
H278 C290 0.930 . S
H279 C292 0.930 . S
H280 C293 0.930 . S
H281 C297 0.959 . S
H282 C297 0.959 . S
H283 C297 0.961 . S
H284 C298 0.960 . S
H285 C298 0.961 . S
H286 C298 0.959 . S
H287 C301 0.929 . S
H288 C302 0.931 . S
H289 C304 0.930 . S
C290 H278 0.930 . S
C290 C291 1.399 . S
C290 C295 1.399 . S
C291 C290 1.399 . S
C291 C292 1.376 . S
C292 H279 0.930 . S
C292 C291 1.376 . S
C292 C293 1.388 . S
C293 H280 0.930 . S
C293 C292 1.388 . S
C293 C294 1.390 . S
C294 C293 1.390 . S
C294 C295 1.394 . S
C294 C300 1.465 . S
C295 C290 1.399 . S
C295 C294 1.394 . S
C295 C296 1.516 . S
C296 C295 1.516 . S
C296 C297 1.502 . S
C296 C298 1.561 . S
C296 C299 1.526 . S
C297 H281 0.959 . S
C297 H282 0.959 . S
C297 H283 0.961 . S
C297 C296 1.502 . S
C298 H284 0.960 . S
C298 H285 0.961 . S
C298 H286 0.959 . S
C298 C296 1.561 . S
C299 C296 1.526 . S
C299 C300 1.396 . S
C299 C304 1.390 . S
C300 C294 1.465 . S
C300 C299 1.396 . S
C300 C301 1.399 . S
C301 H287 0.929 . S
C301 C300 1.399 . S
C301 C302 1.385 . S
C302 H288 0.931 . S
C302 C301 1.385 . S
C302 C303 1.389 . S
C303 C302 1.389 . S
C303 C304 1.387 . S
C304 H289 0.930 . S
C304 C299 1.390 . S
C304 C303 1.387 . S
H305 C317 0.930 . S
H306 C319 0.930 . S
H307 C320 0.930 . S
H308 C324 0.959 1_655 S
H309 C324 0.959 . S
H310 C324 0.961 . S
H311 C325 0.960 . S
H312 C325 0.961 . S
H313 C325 0.959 . S
H314 C328 0.929 . S
H315 C329 0.931 . S
H316 C331 0.930 . S
C317 H305 0.930 . S
C317 C318 1.399 . S
C317 C322 1.399 . S
C318 C317 1.399 . S
C318 C319 1.376 . S
C319 H306 0.930 . S
C319 C318 1.376 . S
C319 C320 1.388 . S
C320 H307 0.930 . S
C320 C319 1.388 . S
C320 C321 1.390 . S
C321 C320 1.390 . S
C321 C322 1.394 . S
C321 C327 1.465 . S
C322 C317 1.399 . S
C322 C321 1.394 . S
C322 C323 1.516 . S
C323 C322 1.516 . S
C323 C324 1.502 . S
C323 C325 1.561 . S
C323 C326 1.526 . S
C324 H308 0.959 1_455 S
C324 H309 0.959 . S
C324 H310 0.961 . S
C324 C323 1.502 . S
C325 H311 0.960 . S
C325 H312 0.961 . S
C325 H313 0.959 . S
C325 C323 1.561 . S
C326 C323 1.526 . S
C326 C327 1.396 . S
C326 C331 1.390 . S
C327 C321 1.465 . S
C327 C326 1.396 . S
C327 C328 1.399 . S
C328 H314 0.929 . S
C328 C327 1.399 . S
C328 C329 1.385 . S
C329 H315 0.931 . S
C329 C328 1.385 . S
C329 C330 1.389 . S
C330 C329 1.389 . S
C330 C331 1.387 . S
C331 H316 0.930 . S
C331 C326 1.390 . S
C331 C330 1.387 . S
H332 C344 0.930 . S
H333 C346 0.930 . S
H334 C347 0.930 . S
H335 C351 0.959 . S
H336 C351 0.959 . S
H337 C351 0.961 . S
H338 C352 0.960 . S
H339 C352 0.961 . S
H340 C352 0.959 . S
H341 C355 0.929 . S
H342 C356 0.931 . S
H343 C358 0.930 . S
C344 H332 0.930 . S
C344 C345 1.399 1_545 S
C344 C349 1.399 . S
C345 C344 1.399 1_565 S
C345 C346 1.376 1_556 S
C346 H333 0.930 . S
C346 C345 1.376 1_554 S
C346 C347 1.388 . S
C347 H334 0.930 . S
C347 C346 1.388 . S
C347 C348 1.390 1_554 S
C348 C347 1.390 1_556 S
C348 C349 1.394 1_565 S
C348 C354 1.465 . S
C349 C344 1.399 . S
C349 C348 1.394 1_545 S
C349 C350 1.516 . S
C350 C349 1.516 . S
C350 C351 1.502 . S
C350 C352 1.561 . S
C350 C353 1.526 . S
C351 H335 0.959 . S
C351 H336 0.959 . S
C351 H337 0.961 . S
C351 C350 1.502 . S
C352 H338 0.960 . S
C352 H339 0.961 . S
C352 H340 0.959 . S
C352 C350 1.561 . S
C353 C350 1.526 . S
C353 C354 1.396 1_545 S
C353 C358 1.390 . S
C354 C348 1.465 . S
C354 C353 1.396 1_565 S
C354 C355 1.399 . S
C355 H341 0.929 . S
C355 C354 1.399 . S
C355 C356 1.385 . S
C356 H342 0.931 . S
C356 C355 1.385 . S
C356 C357 1.389 1_565 S
C357 C356 1.389 1_545 S
C357 C358 1.387 . S
C358 H343 0.930 . S
C358 C353 1.390 . S
C358 C357 1.387 . S
H359 C371 0.930 . S
H360 C373 0.930 . S
H361 C374 0.930 . S
H362 C378 0.959 . S
H363 C378 0.959 . S
H364 C378 0.961 . S
H365 C379 0.960 . S
H366 C379 0.961 . S
H367 C379 0.959 . S
H368 C382 0.929 . S
H369 C383 0.931 . S
H370 C385 0.930 . S
C371 H359 0.930 . S
C371 C372 1.399 . S
C371 C376 1.399 . S
C372 C371 1.399 . S
C372 C373 1.376 1_554 S
C373 H360 0.930 . S
C373 C372 1.376 1_556 S
C373 C374 1.388 . S
C374 H361 0.930 . S
C374 C373 1.388 . S
C374 C375 1.390 . S
C375 C374 1.390 . S
C375 C376 1.394 1_556 S
C375 C381 1.465 . S
C376 C371 1.399 . S
C376 C375 1.394 1_554 S
C376 C377 1.516 . S
C377 C376 1.516 . S
C377 C378 1.502 . S
C377 C379 1.561 . S
C377 C380 1.526 1_554 S
C378 H362 0.959 . S
C378 H363 0.959 . S
C378 H364 0.961 . S
C378 C377 1.502 . S
C379 H365 0.960 . S
C379 H366 0.961 . S
C379 H367 0.959 . S
C379 C377 1.561 . S
C380 C377 1.526 1_556 S
C380 C381 1.396 . S
C380 C385 1.390 . S
C381 C375 1.465 . S
C381 C380 1.396 . S
C381 C382 1.399 . S
C382 H368 0.929 . S
C382 C381 1.399 . S
C382 C383 1.385 . S
C383 H369 0.931 . S
C383 C382 1.385 . S
C383 C384 1.389 . S
C384 C383 1.389 . S
C384 C385 1.387 . S
C385 H370 0.930 . S
C385 C380 1.390 . S
C385 C384 1.387 . S
H386 C398 0.930 . S
H387 C400 0.930 . S
H388 C401 0.930 . S
H389 C405 0.959 . S
H390 C405 0.959 . S
H391 C405 0.961 . S
H392 C406 0.960 . S
H393 C406 0.961 . S
H394 C406 0.959 . S
H395 C409 0.929 . S
H396 C410 0.931 . S
H397 C412 0.930 . S
C398 H386 0.930 . S
C398 C399 1.399 . S
C398 C403 1.399 . S
C399 C398 1.399 . S
C399 C400 1.376 . S
C400 H387 0.930 . S
C400 C399 1.376 . S
C400 C401 1.388 . S
C401 H388 0.930 . S
C401 C400 1.388 . S
C401 C402 1.390 . S
C402 C401 1.390 . S
C402 C403 1.394 . S
C402 C408 1.465 1_554 S
C403 C398 1.399 . S
C403 C402 1.394 . S
C403 C404 1.516 . S
C404 C403 1.516 . S
C404 C405 1.502 . S
C404 C406 1.561 1_554 S
C404 C407 1.526 1_554 S
C405 H389 0.959 . S
C405 H390 0.959 . S
C405 H391 0.961 . S
C405 C404 1.502 . S
C406 H392 0.960 . S
C406 H393 0.961 . S
C406 H394 0.959 . S
C406 C404 1.561 1_556 S
C407 C404 1.526 1_556 S
C407 C408 1.396 . S
C407 C412 1.390 . S
C408 C402 1.465 1_556 S
C408 C407 1.396 . S
C408 C409 1.399 . S
C409 H395 0.929 . S
C409 C408 1.399 . S
C409 C410 1.385 . S
C410 H396 0.931 . S
C410 C409 1.385 . S
C410 C411 1.389 . S
C411 C410 1.389 . S
C411 C412 1.387 . S
C412 H397 0.930 . S
C412 C407 1.390 . S
C412 C411 1.387 . S
H413 C425 0.930 . S
H414 C427 0.930 . S
H415 C428 0.930 . S
H416 C432 0.959 1_455 S
H417 C432 0.959 . S
H418 C432 0.961 . S
H419 C433 0.960 . S
H420 C433 0.961 . S
H421 C433 0.959 . S
H422 C436 0.929 . S
H423 C437 0.931 . S
H424 C439 0.930 . S
C425 H413 0.930 . S
C425 C426 1.399 . S
C425 C430 1.399 . S
C426 C425 1.399 . S
C426 C427 1.376 1_554 S
C427 H414 0.930 . S
C427 C426 1.376 1_556 S
C427 C428 1.388 . S
C428 H415 0.930 . S
C428 C427 1.388 . S
C428 C429 1.390 . S
C429 C428 1.390 . S
C429 C430 1.394 1_556 S
C429 C435 1.465 . S
C430 C425 1.399 . S
C430 C429 1.394 1_554 S
C430 C431 1.516 . S
C431 C430 1.516 . S
C431 C432 1.502 . S
C431 C433 1.561 . S
C431 C434 1.526 1_554 S
C432 H416 0.959 1_655 S
C432 H417 0.959 . S
C432 H418 0.961 . S
C432 C431 1.502 . S
C433 H419 0.960 . S
C433 H420 0.961 . S
C433 H421 0.959 . S
C433 C431 1.561 . S
C434 C431 1.526 1_556 S
C434 C435 1.396 . S
C434 C439 1.390 . S
C435 C429 1.465 . S
C435 C434 1.396 . S
C435 C436 1.399 . S
C436 H422 0.929 . S
C436 C435 1.399 . S
C436 C437 1.385 . S
C437 H423 0.931 . S
C437 C436 1.385 . S
C437 C438 1.389 . S
C438 C437 1.389 . S
C438 C439 1.387 . S
C439 H424 0.930 . S
C439 C434 1.390 . S
C439 C438 1.387 . S
H440 C452 0.930 . S
H441 C454 0.930 . S
H442 C455 0.930 . S
H443 C459 0.959 . S
H444 C459 0.959 . S
H445 C459 0.961 . S
H446 C460 0.960 . S
H447 C460 0.961 1_655 S
H448 C460 0.959 1_655 S
H449 C463 0.929 . S
H450 C464 0.931 . S
H451 C466 0.930 . S
C452 H440 0.930 . S
C452 C453 1.399 . S
C452 C457 1.399 . S
C453 C452 1.399 . S
C453 C454 1.376 . S
C454 H441 0.930 . S
C454 C453 1.376 . S
C454 C455 1.388 . S
C455 H442 0.930 . S
C455 C454 1.388 . S
C455 C456 1.390 . S
C456 C455 1.390 . S
C456 C457 1.394 . S
C456 C462 1.465 . S
C457 C452 1.399 . S
C457 C456 1.394 . S
C457 C458 1.516 . S
C458 C457 1.516 . S
C458 C459 1.502 . S
C458 C460 1.561 . S
C458 C461 1.526 . S
C459 H443 0.959 . S
C459 H444 0.959 . S
C459 H445 0.961 . S
C459 C458 1.502 . S
C460 H446 0.960 . S
C460 H447 0.961 1_455 S
C460 H448 0.959 1_455 S
C460 C458 1.561 . S
C461 C458 1.526 . S
C461 C462 1.396 . S
C461 C466 1.390 . S
C462 C456 1.465 . S
C462 C461 1.396 . S
C462 C463 1.399 . S
C463 H449 0.929 . S
C463 C462 1.399 . S
C463 C464 1.385 . S
C464 H450 0.931 . S
C464 C463 1.385 . S
C464 C465 1.389 . S
C465 C464 1.389 . S
C465 C466 1.387 . S
C466 H451 0.930 . S
C466 C461 1.390 . S
C466 C465 1.387 . S
H467 C479 0.930 . S
H468 C481 0.930 . S
H469 C482 0.930 . S
H470 C486 0.959 . S
H471 C486 0.959 . S
H472 C486 0.961 . S
H473 C487 0.960 . S
H474 C487 0.961 . S
H475 C487 0.959 . S
H476 C490 0.929 . S
H477 C491 0.931 . S
H478 C493 0.930 . S
C479 H467 0.930 . S
C479 C480 1.399 1_545 S
C479 C484 1.399 . S
C480 C479 1.399 1_565 S
C480 C481 1.376 . S
C481 H468 0.930 . S
C481 C480 1.376 . S
C481 C482 1.388 . S
C482 H469 0.930 . S
C482 C481 1.388 . S
C482 C483 1.390 . S
C483 C482 1.390 . S
C483 C484 1.394 1_565 S
C483 C489 1.465 . S
C484 C479 1.399 . S
C484 C483 1.394 1_545 S
C484 C485 1.516 . S
C485 C484 1.516 . S
C485 C486 1.502 . S
C485 C487 1.561 . S
C485 C488 1.526 . S
C486 H470 0.959 . S
C486 H471 0.959 . S
C486 H472 0.961 . S
C486 C485 1.502 . S
C487 H473 0.960 . S
C487 H474 0.961 . S
C487 H475 0.959 . S
C487 C485 1.561 . S
C488 C485 1.526 . S
C488 C489 1.396 1_545 S
C488 C493 1.390 . S
C489 C483 1.465 . S
C489 C488 1.396 1_565 S
C489 C490 1.399 . S
C490 H476 0.929 . S
C490 C489 1.399 . S
C490 C491 1.385 . S
C491 H477 0.931 . S
C491 C490 1.385 . S
C491 C492 1.389 . S
C492 C491 1.389 . S
C492 C493 1.387 1_565 S
C493 H478 0.930 . S
C493 C488 1.390 . S
C493 C492 1.387 1_545 S
H494 C506 0.930 . S
H495 C508 0.930 . S
H496 C509 0.930 . S
H497 C513 0.959 . S
H498 C513 0.959 . S
H499 C513 0.961 . S
H500 C514 0.960 . S
H501 C514 0.961 . S
H502 C514 0.959 . S
H503 C517 0.929 . S
H504 C518 0.931 . S
H505 C520 0.930 . S
C506 H494 0.930 . S
C506 C507 1.399 . S
C506 C511 1.399 . S
C507 C506 1.399 . S
C507 C508 1.376 . S
C508 H495 0.930 . S
C508 C507 1.376 . S
C508 C509 1.388 . S
C509 H496 0.930 . S
C509 C508 1.388 . S
C509 C510 1.390 . S
C510 C509 1.390 . S
C510 C511 1.394 . S
C510 C516 1.465 . S
C511 C506 1.399 . S
C511 C510 1.394 . S
C511 C512 1.516 . S
C512 C511 1.516 . S
C512 C513 1.502 . S
C512 C514 1.561 . S
C512 C515 1.526 . S
C513 H497 0.959 . S
C513 H498 0.959 . S
C513 H499 0.961 . S
C513 C512 1.502 . S
C514 H500 0.960 . S
C514 H501 0.961 . S
C514 H502 0.959 . S
C514 C512 1.561 . S
C515 C512 1.526 . S
C515 C516 1.396 . S
C515 C520 1.390 . S
C516 C510 1.465 . S
C516 C515 1.396 . S
C516 C517 1.399 . S
C517 H503 0.929 . S
C517 C516 1.399 . S
C517 C518 1.385 . S
C518 H504 0.931 . S
C518 C517 1.385 . S
C518 C519 1.389 . S
C519 C518 1.389 . S
C519 C520 1.387 . S
C520 H505 0.930 . S
C520 C515 1.390 . S
C520 C519 1.387 . S
H521 C533 0.930 . S
H522 C535 0.930 . S
H523 C536 0.930 . S
H524 C540 0.959 . S
H525 C540 0.959 . S
H526 C540 0.961 . S
H527 C541 0.960 . S
H528 C541 0.961 . S
H529 C541 0.959 . S
H530 C544 0.929 . S
H531 C545 0.931 . S
H532 C547 0.930 . S
C533 H521 0.930 . S
C533 C534 1.399 . S
C533 C538 1.399 . S
C534 C533 1.399 . S
C534 C535 1.376 . S
C535 H522 0.930 . S
C535 C534 1.376 . S
C535 C536 1.388 . S
C536 H523 0.930 . S
C536 C535 1.388 . S
C536 C537 1.390 . S
C537 C536 1.390 . S
C537 C538 1.394 . S
C537 C543 1.465 . S
C538 C533 1.399 . S
C538 C537 1.394 . S
C538 C539 1.516 . S
C539 C538 1.516 . S
C539 C540 1.502 . S
C539 C541 1.561 . S
C539 C542 1.526 . S
C540 H524 0.959 . S
C540 H525 0.959 . S
C540 H526 0.961 . S
C540 C539 1.502 . S
C541 H527 0.960 . S
C541 H528 0.961 . S
C541 H529 0.959 . S
C541 C539 1.561 . S
C542 C539 1.526 . S
C542 C543 1.396 . S
C542 C547 1.390 . S
C543 C537 1.465 . S
C543 C542 1.396 . S
C543 C544 1.399 . S
C544 H530 0.929 . S
C544 C543 1.399 . S
C544 C545 1.385 . S
C545 H531 0.931 . S
C545 C544 1.385 . S
C545 C546 1.389 . S
C546 C545 1.389 . S
C546 C547 1.387 . S
C547 H532 0.930 . S
C547 C542 1.390 . S
C547 C546 1.387 . S
H548 C560 0.930 . S
H549 C562 0.930 . S
H550 C563 0.930 . S
H551 C567 0.959 . S
H552 C567 0.959 . S
H553 C567 0.961 . S
H554 C568 0.960 . S
H555 C568 0.961 . S
H556 C568 0.959 . S
H557 C571 0.929 1_554 S
H558 C572 0.931 . S
H559 C574 0.930 . S
C560 H548 0.930 . S
C560 C561 1.399 1_556 S
C560 C565 1.399 . S
C561 C560 1.399 1_554 S
C561 C562 1.376 . S
C562 H549 0.930 . S
C562 C561 1.376 . S
C562 C563 1.388 . S
C563 H550 0.930 . S
C563 C562 1.388 . S
C563 C564 1.390 . S
C564 C563 1.390 . S
C564 C565 1.394 1_554 S
C564 C570 1.465 1_554 S
C565 C560 1.399 . S
C565 C564 1.394 1_556 S
C565 C566 1.516 . S
C566 C565 1.516 . S
C566 C567 1.502 1_655 S
C566 C568 1.561 . S
C566 C569 1.526 . S
C567 H551 0.959 . S
C567 H552 0.959 . S
C567 H553 0.961 . S
C567 C566 1.502 1_455 S
C568 H554 0.960 . S
C568 H555 0.961 . S
C568 H556 0.959 . S
C568 C566 1.561 . S
C569 C566 1.526 . S
C569 C570 1.396 . S
C569 C574 1.390 1_655 S
C570 C564 1.465 1_556 S
C570 C569 1.396 . S
C570 C571 1.399 . S
C571 H557 0.929 1_556 S
C571 C570 1.399 . S
C571 C572 1.385 . S
C572 H558 0.931 . S
C572 C571 1.385 . S
C572 C573 1.389 1_655 S
C573 C572 1.389 1_455 S
C573 C574 1.387 . S
C574 H559 0.930 . S
C574 C569 1.390 1_455 S
C574 C573 1.387 . S
H575 C587 0.930 . S
H576 C589 0.930 . S
H577 C590 0.930 . S
H578 C594 0.959 . S
H579 C594 0.959 . S
H580 C594 0.961 . S
H581 C595 0.960 . S
H582 C595 0.961 . S
H583 C595 0.959 . S
H584 C598 0.929 . S
H585 C599 0.931 . S
H586 C601 0.930 . S
C587 H575 0.930 . S
C587 C588 1.378 1_544 S
C587 C592 1.399 1_554 S
C588 C587 1.378 1_566 S
C588 C589 1.401 . S
C589 H576 0.930 . S
C589 C588 1.401 . S
C589 C590 1.388 . S
C590 H577 0.930 . S
C590 C589 1.388 . S
C590 C591 1.390 . S
C591 C590 1.390 . S
C591 C592 1.394 1_565 S
C591 C597 1.465 . S
C592 C587 1.399 1_556 S
C592 C591 1.394 1_545 S
C592 C593 1.516 . S
C593 C592 1.516 . S
C593 C594 1.502 1_556 S
C593 C595 1.561 . S
C593 C596 1.526 . S
C594 H578 0.959 . S
C594 H579 0.959 . S
C594 H580 0.961 . S
C594 C593 1.502 1_554 S
C595 H581 0.960 . S
C595 H582 0.961 . S
C595 H583 0.959 . S
C595 C593 1.561 . S
C596 C593 1.526 . S
C596 C597 1.396 1_545 S
C596 C601 1.390 . S
C597 C591 1.465 . S
C597 C596 1.396 1_565 S
C597 C598 1.399 . S
C598 H584 0.929 . S
C598 C597 1.399 . S
C598 C599 1.385 . S
C599 H585 0.931 . S
C599 C598 1.385 . S
C599 C600 1.389 1_565 S
C600 C599 1.389 1_545 S
C600 C601 1.387 . S
C601 H586 0.930 . S
C601 C596 1.390 . S
C601 C600 1.387 . S
H602 C614 0.930 . S
H603 C616 0.930 . S
H604 C617 0.930 . S
H605 C621 0.959 . S
H606 C621 0.959 . S
H607 C621 0.961 . S
H608 C622 0.960 . S
H609 C622 0.961 . S
H610 C622 0.959 . S
H611 C625 0.929 . S
H612 C626 0.931 . S
H613 C628 0.930 1_554 S
C614 H602 0.930 . S
C614 C615 1.399 . S
C614 C619 1.399 . S
C615 C614 1.399 . S
C615 C616 1.376 1_554 S
C616 H603 0.930 . S
C616 C615 1.376 1_556 S
C616 C617 1.388 . S
C617 H604 0.930 . S
C617 C616 1.388 . S
C617 C618 1.390 . S
C618 C617 1.390 . S
C618 C619 1.394 1_556 S
C618 C624 1.465 . S
C619 C614 1.399 . S
C619 C618 1.394 1_554 S
C619 C620 1.516 . S
C620 C619 1.516 . S
C620 C621 1.502 . S
C620 C622 1.561 . S
C620 C623 1.526 1_554 S
C621 H605 0.959 . S
C621 H606 0.959 . S
C621 H607 0.961 . S
C621 C620 1.502 . S
C622 H608 0.960 . S
C622 H609 0.961 . S
C622 H610 0.959 . S
C622 C620 1.561 . S
C623 C620 1.526 1_556 S
C623 C624 1.396 . S
C623 C628 1.390 . S
C624 C618 1.465 . S
C624 C623 1.396 . S
C624 C625 1.399 . S
C625 H611 0.929 . S
C625 C624 1.399 . S
C625 C626 1.385 . S
C626 H612 0.931 . S
C626 C625 1.385 . S
C626 C627 1.389 . S
C627 C626 1.389 . S
C627 C628 1.387 . S
C628 H613 0.930 1_556 S
C628 C623 1.390 . S
C628 C627 1.387 . S
H629 C641 0.930 . S
H630 C643 0.930 . S
H631 C644 0.930 1_556 S
H632 C648 0.959 1_556 S
H633 C648 0.959 . S
H634 C648 0.961 . S
H635 C649 0.960 . S
H636 C649 0.961 . S
H637 C649 0.959 . S
H638 C652 0.929 . S
H639 C653 0.931 . S
H640 C655 0.930 . S
C641 H629 0.930 . S
C641 C642 1.399 . S
C641 C646 1.399 . S
C642 C641 1.399 . S
C642 C643 1.376 . S
C643 H630 0.930 . S
C643 C642 1.376 . S
C643 C644 1.388 . S
C644 H631 0.930 1_554 S
C644 C643 1.388 . S
C644 C645 1.390 . S
C645 C644 1.390 . S
C645 C646 1.394 . S
C645 C651 1.465 1_554 S
C646 C641 1.399 . S
C646 C645 1.394 . S
C646 C647 1.516 . S
C647 C646 1.516 . S
C647 C648 1.502 . S
C647 C649 1.561 . S
C647 C650 1.526 1_554 S
C648 H632 0.959 1_554 S
C648 H633 0.959 . S
C648 H634 0.961 . S
C648 C647 1.502 . S
C649 H635 0.960 . S
C649 H636 0.961 . S
C649 H637 0.959 . S
C649 C647 1.561 . S
C650 C647 1.526 1_556 S
C650 C651 1.396 . S
C650 C655 1.390 . S
C651 C645 1.465 1_556 S
C651 C650 1.396 . S
C651 C652 1.399 . S
C652 H638 0.929 . S
C652 C651 1.399 . S
C652 C653 1.385 . S
C653 H639 0.931 . S
C653 C652 1.385 . S
C653 C654 1.389 . S
C654 C653 1.389 . S
C654 C655 1.387 . S
C655 H640 0.930 . S
C655 C650 1.390 . S
C655 C654 1.387 . S
H656 C668 0.930 . S
H657 C670 0.930 . S
H658 C671 0.930 . S
H659 C675 0.959 . S
H660 C675 0.959 . S
H661 C675 0.961 . S
H662 C676 0.960 . S
H663 C676 0.961 . S
H664 C676 0.959 . S
H665 C679 0.929 . S
H666 C680 0.931 1_556 S
H667 C682 0.930 . S
C668 H656 0.930 . S
C668 C669 1.399 . S
C668 C673 1.399 . S
C669 C668 1.399 . S
C669 C670 1.376 . S
C670 H657 0.930 . S
C670 C669 1.376 . S
C670 C671 1.388 . S
C671 H658 0.930 . S
C671 C670 1.388 . S
C671 C672 1.390 . S
C672 C671 1.390 . S
C672 C673 1.394 . S
C672 C678 1.465 . S
C673 C668 1.399 . S
C673 C672 1.394 . S
C673 C674 1.516 . S
C674 C673 1.516 . S
C674 C675 1.502 . S
C674 C676 1.561 . S
C674 C677 1.526 . S
C675 H659 0.959 . S
C675 H660 0.959 . S
C675 H661 0.961 . S
C675 C674 1.502 . S
C676 H662 0.960 . S
C676 H663 0.961 . S
C676 H664 0.959 . S
C676 C674 1.561 . S
C677 C674 1.526 . S
C677 C678 1.396 . S
C677 C682 1.390 . S
C678 C672 1.465 . S
C678 C677 1.396 . S
C678 C679 1.399 . S
C679 H665 0.929 . S
C679 C678 1.399 . S
C679 C680 1.385 . S
C680 H666 0.931 1_554 S
C680 C679 1.385 . S
C680 C681 1.389 . S
C681 C680 1.389 . S
C681 C682 1.387 . S
C682 H667 0.930 . S
C682 C677 1.390 . S
C682 C681 1.387 . S
H683 C695 0.930 . S
H684 C697 0.930 . S
H685 C698 0.930 . S
H686 C702 0.959 . S
H687 C702 0.959 . S
H688 C702 0.961 . S
H689 C703 0.960 . S
H690 C703 0.961 . S
H691 C703 0.959 . S
H692 C706 0.929 . S
H693 C707 0.931 . S
H694 C709 0.930 . S
C695 H683 0.930 . S
C695 C696 1.399 1_545 S
C695 C700 1.399 . S
C696 C695 1.399 1_565 S
C696 C697 1.376 . S
C697 H684 0.930 . S
C697 C696 1.376 . S
C697 C698 1.388 . S
C698 H685 0.930 . S
C698 C697 1.388 . S
C698 C699 1.390 . S
C699 C698 1.390 . S
C699 C700 1.394 1_565 S
C699 C705 1.465 . S
C700 C695 1.399 . S
C700 C699 1.394 1_545 S
C700 C701 1.516 . S
C701 C700 1.516 . S
C701 C702 1.502 . S
C701 C703 1.561 . S
C701 C704 1.526 . S
C702 H686 0.959 . S
C702 H687 0.959 . S
C702 H688 0.961 . S
C702 C701 1.502 . S
C703 H689 0.960 . S
C703 H690 0.961 . S
C703 H691 0.959 . S
C703 C701 1.561 . S
C704 C701 1.526 . S
C704 C705 1.396 1_545 S
C704 C709 1.390 . S
C705 C699 1.465 . S
C705 C704 1.396 1_565 S
C705 C706 1.399 . S
C706 H692 0.929 . S
C706 C705 1.399 . S
C706 C707 1.385 . S
C707 H693 0.931 . S
C707 C706 1.385 . S
C707 C708 1.389 1_565 S
C708 C707 1.389 1_545 S
C708 C709 1.387 . S
C709 H694 0.930 . S
C709 C704 1.390 . S
C709 C708 1.387 . S
H710 C722 0.930 . S
H711 C724 0.930 . S
H712 C725 0.930 . S
H713 C729 0.959 . S
H714 C729 0.959 . S
H715 C729 0.961 . S
H716 C730 0.960 . S
H717 C730 0.961 1_556 S
H718 C730 0.959 . S
H719 C733 0.929 . S
H720 C734 0.931 . S
H721 C736 0.930 . S
C722 H710 0.930 . S
C722 C723 1.399 . S
C722 C727 1.399 . S
C723 C722 1.399 . S
C723 C724 1.376 . S
C724 H711 0.930 . S
C724 C723 1.376 . S
C724 C725 1.388 . S
C725 H712 0.930 . S
C725 C724 1.388 . S
C725 C726 1.390 . S
C726 C725 1.390 . S
C726 C727 1.394 . S
C726 C732 1.465 . S
C727 C722 1.399 . S
C727 C726 1.394 . S
C727 C728 1.516 . S
C728 C727 1.516 . S
C728 C729 1.502 . S
C728 C730 1.561 . S
C728 C731 1.526 . S
C729 H713 0.959 . S
C729 H714 0.959 . S
C729 H715 0.961 . S
C729 C728 1.502 . S
C730 H716 0.960 . S
C730 H717 0.961 1_554 S
C730 H718 0.959 . S
C730 C728 1.561 . S
C731 C728 1.526 . S
C731 C732 1.396 . S
C731 C736 1.390 1_554 S
C732 C726 1.465 . S
C732 C731 1.396 . S
C732 C733 1.399 . S
C733 H719 0.929 . S
C733 C732 1.399 . S
C733 C734 1.385 . S
C734 H720 0.931 . S
C734 C733 1.385 . S
C734 C735 1.389 1_554 S
C735 C734 1.389 1_556 S
C735 C736 1.387 . S
C736 H721 0.930 . S
C736 C731 1.390 1_556 S
C736 C735 1.387 . S
H737 C749 0.930 . S
H738 C751 0.930 . S
H739 C752 0.930 . S
H740 C756 0.959 . S
H741 C756 0.959 . S
H742 C756 0.961 . S
H743 C757 0.960 . S
H744 C757 0.961 . S
H745 C757 0.959 . S
H746 C760 0.929 . S
H747 C761 0.931 . S
H748 C763 0.930 1_556 S
C749 H737 0.930 . S
C749 C750 1.399 . S
C749 C754 1.399 . S
C750 C749 1.399 . S
C750 C751 1.376 . S
C751 H738 0.930 . S
C751 C750 1.376 . S
C751 C752 1.388 . S
C752 H739 0.930 . S
C752 C751 1.388 . S
C752 C753 1.390 . S
C753 C752 1.390 . S
C753 C754 1.394 . S
C753 C759 1.465 . S
C754 C749 1.399 . S
C754 C753 1.394 . S
C754 C755 1.516 . S
C755 C754 1.516 . S
C755 C756 1.502 . S
C755 C757 1.561 . S
C755 C758 1.526 . S
C756 H740 0.959 . S
C756 H741 0.959 . S
C756 H742 0.961 . S
C756 C755 1.502 . S
C757 H743 0.960 . S
C757 H744 0.961 . S
C757 H745 0.959 . S
C757 C755 1.561 . S
C758 C755 1.526 . S
C758 C759 1.396 . S
C758 C763 1.390 . S
C759 C753 1.465 . S
C759 C758 1.396 . S
C759 C760 1.399 . S
C760 H746 0.929 . S
C760 C759 1.399 . S
C760 C761 1.385 1_554 S
C761 H747 0.931 . S
C761 C760 1.385 1_556 S
C761 C762 1.389 . S
C762 C761 1.389 . S
C762 C763 1.387 1_556 S
C763 H748 0.930 1_554 S
C763 C758 1.390 . S
C763 C762 1.387 1_554 S
H764 C776 0.930 . S
H765 C778 0.930 . S
H766 C779 0.930 . S
H767 C783 0.959 . S
H768 C783 0.959 . S
H769 C783 0.961 . S
H770 C784 0.960 . S
H771 C784 0.961 . S
H772 C784 0.959 . S
H773 C787 0.929 1_455 S
H774 C788 0.931 1_455 S
H775 C790 0.930 . S
C776 H764 0.930 . S
C776 C777 1.399 . S
C776 C781 1.399 . S
C777 C776 1.399 . S
C777 C778 1.376 . S
C778 H765 0.930 . S
C778 C777 1.376 . S
C778 C779 1.388 . S
C779 H766 0.930 . S
C779 C778 1.388 . S
C779 C780 1.390 . S
C780 C779 1.390 . S
C780 C781 1.394 . S
C780 C786 1.465 . S
C781 C776 1.399 . S
C781 C780 1.394 . S
C781 C782 1.516 . S
C782 C781 1.516 . S
C782 C783 1.502 . S
C782 C784 1.561 . S
C782 C785 1.526 . S
C783 H767 0.959 . S
C783 H768 0.959 . S
C783 H769 0.961 . S
C783 C782 1.502 . S
C784 H770 0.960 . S
C784 H771 0.961 . S
C784 H772 0.959 . S
C784 C782 1.561 . S
C785 C782 1.526 . S
C785 C786 1.396 . S
C785 C790 1.390 . S
C786 C780 1.465 . S
C786 C785 1.396 . S
C786 C787 1.399 . S
C787 H773 0.929 1_655 S
C787 C786 1.399 . S
C787 C788 1.385 . S
C788 H774 0.931 1_655 S
C788 C787 1.385 . S
C788 C789 1.389 . S
C789 C788 1.389 . S
C789 C790 1.387 . S
C790 H775 0.930 . S
C790 C785 1.390 . S
C790 C789 1.387 . S
H791 C803 0.930 . S
H792 C805 0.930 . S
H793 C806 0.930 . S
H794 C810 0.959 . S
H795 C810 0.959 . S
H796 C810 0.961 . S
H797 C811 0.960 . S
H798 C811 0.961 . S
H799 C811 0.959 . S
H800 C814 0.929 . S
H801 C815 0.931 . S
H802 C817 0.930 . S
C803 H791 0.930 . S
C803 C804 1.399 1_565 S
C803 C808 1.399 . S
C804 C803 1.399 1_545 S
C804 C805 1.376 . S
C805 H792 0.930 . S
C805 C804 1.376 . S
C805 C806 1.388 . S
C806 H793 0.930 . S
C806 C805 1.388 . S
C806 C807 1.390 . S
C807 C806 1.390 . S
C807 C808 1.394 1_545 S
C807 C813 1.465 . S
C808 C803 1.399 . S
C808 C807 1.394 1_565 S
C808 C809 1.516 . S
C809 C808 1.516 . S
C809 C810 1.502 . S
C809 C811 1.561 . S
C809 C812 1.526 . S
C810 H794 0.959 . S
C810 H795 0.959 . S
C810 H796 0.961 . S
C810 C809 1.502 . S
C811 H797 0.960 . S
C811 H798 0.961 . S
C811 H799 0.959 . S
C811 C809 1.561 . S
C812 C809 1.526 . S
C812 C813 1.396 1_565 S
C812 C817 1.390 . S
C813 C807 1.465 . S
C813 C812 1.396 1_545 S
C813 C814 1.399 . S
C814 H800 0.929 . S
C814 C813 1.399 . S
C814 C815 1.385 . S
C815 H801 0.931 . S
C815 C814 1.385 . S
C815 C816 1.389 1_545 S
C816 C815 1.389 1_565 S
C816 C817 1.387 . S
C817 H802 0.930 . S
C817 C812 1.390 . S
C817 C816 1.387 . S
H818 C830 0.930 . S
H819 C832 0.930 . S
H820 C833 0.930 . S
H821 C837 0.959 . S
H822 C837 0.959 . S
H823 C837 0.961 . S
H824 C838 0.960 . S
H825 C838 0.961 . S
H826 C838 0.959 . S
H827 C841 0.929 . S
H828 C842 0.931 . S
H829 C844 0.930 . S
C830 H818 0.930 . S
C830 C831 1.399 . S
C830 C835 1.399 . S
C831 C830 1.399 . S
C831 C832 1.376 . S
C832 H819 0.930 . S
C832 C831 1.376 . S
C832 C833 1.388 . S
C833 H820 0.930 . S
C833 C832 1.388 . S
C833 C834 1.390 . S
C834 C833 1.390 . S
C834 C835 1.394 . S
C834 C840 1.465 . S
C835 C830 1.399 . S
C835 C834 1.394 . S
C835 C836 1.516 . S
C836 C835 1.516 . S
C836 C837 1.502 . S
C836 C838 1.561 . S
C836 C839 1.526 . S
C837 H821 0.959 . S
C837 H822 0.959 . S
C837 H823 0.961 . S
C837 C836 1.502 . S
C838 H824 0.960 . S
C838 H825 0.961 . S
C838 H826 0.959 . S
C838 C836 1.561 . S
C839 C836 1.526 . S
C839 C840 1.396 . S
C839 C844 1.390 . S
C840 C834 1.465 . S
C840 C839 1.396 . S
C840 C841 1.399 . S
C841 H827 0.929 . S
C841 C840 1.399 . S
C841 C842 1.385 . S
C842 H828 0.931 . S
C842 C841 1.385 . S
C842 C843 1.389 . S
C843 C842 1.389 . S
C843 C844 1.387 . S
C844 H829 0.930 . S
C844 C839 1.390 . S
C844 C843 1.387 . S
H845 C857 0.930 . S
H846 C859 0.930 . S
H847 C860 0.930 . S
H848 C864 0.959 . S
H849 C864 0.959 . S
H850 C864 0.961 . S
H851 C865 0.960 . S
H852 C865 0.961 . S
H853 C865 0.959 . S
H854 C868 0.929 . S
H855 C869 0.931 . S
H856 C871 0.930 . S
C857 H845 0.930 . S
C857 C858 1.399 . S
C857 C862 1.399 . S
C858 C857 1.399 . S
C858 C859 1.376 . S
C859 H846 0.930 . S
C859 C858 1.376 . S
C859 C860 1.388 . S
C860 H847 0.930 . S
C860 C859 1.388 . S
C860 C861 1.390 . S
C861 C860 1.390 . S
C861 C862 1.394 . S
C861 C867 1.465 . S
C862 C857 1.399 . S
C862 C861 1.394 . S
C862 C863 1.516 . S
C863 C862 1.516 . S
C863 C864 1.502 . S
C863 C865 1.561 . S
C863 C866 1.526 . S
C864 H848 0.959 . S
C864 H849 0.959 . S
C864 H850 0.961 . S
C864 C863 1.502 . S
C865 H851 0.960 . S
C865 H852 0.961 . S
C865 H853 0.959 . S
C865 C863 1.561 . S
C866 C863 1.526 . S
C866 C867 1.396 . S
C866 C871 1.390 . S
C867 C861 1.465 . S
C867 C866 1.396 . S
C867 C868 1.399 . S
C868 H854 0.929 . S
C868 C867 1.399 . S
C868 C869 1.385 . S
C869 H855 0.931 . S
C869 C868 1.385 . S
C869 C870 1.389 . S
C870 C869 1.389 . S
C870 C871 1.387 . S
C871 H856 0.930 . S
C871 C866 1.390 . S
C871 C870 1.387 . S
C237 C82 1.553 . S
C249 C114 1.663 . S
C276 C144 1.796 . S
C264 C95 1.750 . S
C303 N178 1.317 . S
C291 C56 1.368 . S
C330 N208 1.375 . S
C318 C69 1.391 . S
C357 C105 1.659 . S
C345 C30 1.623 1_565 S
C372 C43 1.682 . S
C384 C135 1.797 . S
C399 C4 1.235 . S
C411 N170 1.349 . S
C426 C17 1.260 . S
C438 N200 1.440 . S
C465 C120 0.481 . S
C453 C74 0.383 . S
C492 C150 0.788 . S
C480 C87 0.825 1_565 S
C519 C191 1.034 . S
C507 C100 1.086 . S
C534 C61 0.533 . S
C546 C221 0.611 . S
C561 C22 0.552 . S
C573 C131 0.412 . S
C600 C161 0.740 . S
C588 C35 0.847 1_566 S
C627 C180 1.045 . S
C615 C48 1.070 . S
C642 C9 0.594 . S
C654 C210 0.626 . S
C669 C73 1.474 . S
C681 N110 1.444 . S
C696 C86 1.410 1_565 S
C708 N140 1.383 . S
C735 C165 1.653 . S
C723 C99 1.610 . S
C762 C195 1.586 . S
C750 C60 1.570 . S
C777 C21 1.481 . S
C789 N118 1.448 . S
C816 N148 1.392 . S
C804 C34 1.456 . S
C843 C174 1.643 . S
C831 C47 1.642 . S
C858 C8 1.542 . S
C870 C204 1.588 . S
