# Generated by pormake.
# Topology zzz, (3,6)-cn, num edge types: 1
# Building blocks:
#     Node 0, Type 0, BuildingBlock: VETTIZ_charged_linker_0, # of connection points: 3
#     Node 1, Type 0, BuildingBlock: VETTIZ_charged_linker_0, # of connection points: 3
#     Node 2, Type 0, BuildingBlock: VETTIZ_charged_linker_0, # of connection points: 3
#     Node 3, Type 0, BuildingBlock: VETTIZ_charged_linker_0, # of connection points: 3
#     Node 4, Type 0, BuildingBlock: VETTIZ_charged_linker_0, # of connection points: 3
#     Node 5, Type 0, BuildingBlock: VETTIZ_charged_linker_0, # of connection points: 3
#     Node 6, Type 0, BuildingBlock: VETTIZ_charged_linker_0, # of connection points: 3
#     Node 7, Type 0, BuildingBlock: VETTIZ_charged_linker_0, # of connection points: 3
#     Node 8, Type 1, BuildingBlock: HISSIN_clean_sbu_0, # of connection points: 6
#     Node 9, Type 1, BuildingBlock: HISSIN_clean_sbu_0, # of connection points: 6
#     Node 10, Type 1, BuildingBlock: HISSIN_clean_sbu_0, # of connection points: 6
#     Node 11, Type 1, BuildingBlock: HISSIN_clean_sbu_0, # of connection points: 6
#     Edge 12, Type (0, 1), BuildingBlock: KIFKEQ_clean_linker_1, # of connection points: 2
#     Edge 13, Type (0, 1), BuildingBlock: KIFKEQ_clean_linker_1, # of connection points: 2
#     Edge 14, Type (0, 1), BuildingBlock: KIFKEQ_clean_linker_1, # of connection points: 2
#     Edge 15, Type (0, 1), BuildingBlock: KIFKEQ_clean_linker_1, # of connection points: 2
#     Edge 16, Type (0, 1), BuildingBlock: KIFKEQ_clean_linker_1, # of connection points: 2
#     Edge 17, Type (0, 1), BuildingBlock: KIFKEQ_clean_linker_1, # of connection points: 2
#     Edge 18, Type (0, 1), BuildingBlock: KIFKEQ_clean_linker_1, # of connection points: 2
#     Edge 19, Type (0, 1), BuildingBlock: KIFKEQ_clean_linker_1, # of connection points: 2
#     Edge 20, Type (0, 1), BuildingBlock: KIFKEQ_clean_linker_1, # of connection points: 2
#     Edge 21, Type (0, 1), BuildingBlock: KIFKEQ_clean_linker_1, # of connection points: 2
#     Edge 22, Type (0, 1), BuildingBlock: KIFKEQ_clean_linker_1, # of connection points: 2
#     Edge 23, Type (0, 1), BuildingBlock: KIFKEQ_clean_linker_1, # of connection points: 2
#     Edge 24, Type (0, 1), BuildingBlock: KIFKEQ_clean_linker_1, # of connection points: 2
#     Edge 25, Type (0, 1), BuildingBlock: KIFKEQ_clean_linker_1, # of connection points: 2
#     Edge 26, Type (0, 1), BuildingBlock: KIFKEQ_clean_linker_1, # of connection points: 2
#     Edge 27, Type (0, 1), BuildingBlock: KIFKEQ_clean_linker_1, # of connection points: 2
#     Edge 28, Type (0, 1), BuildingBlock: KIFKEQ_clean_linker_1, # of connection points: 2
#     Edge 29, Type (0, 1), BuildingBlock: KIFKEQ_clean_linker_1, # of connection points: 2
#     Edge 30, Type (0, 1), BuildingBlock: KIFKEQ_clean_linker_1, # of connection points: 2
#     Edge 31, Type (0, 1), BuildingBlock: KIFKEQ_clean_linker_1, # of connection points: 2
#     Edge 32, Type (0, 1), BuildingBlock: KIFKEQ_clean_linker_1, # of connection points: 2
#     Edge 33, Type (0, 1), BuildingBlock: KIFKEQ_clean_linker_1, # of connection points: 2
#     Edge 34, Type (0, 1), BuildingBlock: KIFKEQ_clean_linker_1, # of connection points: 2
#     Edge 35, Type (0, 1), BuildingBlock: KIFKEQ_clean_linker_1, # of connection points: 2
# Relax obj value: 0.398
# Max RMSD: 0.225
# Mean RMSD: 0.194
data_MOF--net-zzz--node1-HISSIN_clean_sbu_0--node2-VETTIZ_charged_linker_0--edge1-KIFKEQ_clean_linker_1
_symmetry_space_group_name_H-M    P1
_symmetry_Int_Tables_number       1
_symmetry_cell_setting            triclinic
loop_
_symmetry_equiv_pos_as_xyz
'x, y, z'
_cell_length_a     56.626005
_cell_length_b     56.842751
_cell_length_c     21.86353
_cell_angle_alpha  89.690336
_cell_angle_beta   91.955038
_cell_angle_gamma 91.623252
loop_
_atom_site_label
_atom_site_type_symbol
_atom_site_fract_x
_atom_site_fract_y
_atom_site_fract_z
_atom_type_partial_charge
C0 C 0.80186 0.54259 0.34887 0.0
C1 C 0.81739 0.55626 0.38829 0.0
C2 C 0.81663 0.58109 0.38379 0.0
C3 C 0.79159 0.57786 0.29328 0.0
C4 C 0.78819 0.55414 0.30272 0.0
C5 C 0.7699 0.54429 0.25592 0.0
H6 H 0.71127 0.56198 0.98129 0.0
C7 C 0.78082 0.58441 0.23446 0.0
C8 C 0.76488 0.56622 0.21606 0.0
H9 H 0.67771 0.52965 0.13628 0.0
H10 H 0.71208 0.54161 0.2022 0.0
H11 H 0.72496 0.60732 0.05362 0.0
H12 H 0.7647 0.54726 1.00772 0.0
H13 H 0.78583 0.57037 0.0145 0.0
H14 H 0.76231 0.57192 0.95681 0.0
H15 H 0.73354 0.6003 0.97764 0.0
H16 H 0.75266 0.61756 0.02831 0.0
C17 C 0.74812 0.53475 0.28925 0.0
C18 C 0.78081 0.52487 0.218 0.0
C19 C 0.83664 0.63292 0.10601 0.0
C20 C 0.84092 0.63078 0.04318 0.0
C21 C 0.82164 0.62346 1.00411 0.0
C22 C 0.80036 0.61505 0.02803 0.0
C23 C 0.79842 0.61304 0.09163 0.0
C24 C 0.81619 0.62238 0.1297 0.0
C25 C 0.8136 0.61475 0.1953 0.0
C26 C 0.79067 0.59984 0.19016 0.0
C27 C 0.7822 0.59873 0.1292 0.0
C28 C 0.81158 0.63671 0.23637 0.0
C29 C 0.83528 0.59975 0.21347 0.0
C30 C 0.71166 0.55612 0.02853 0.0
C31 C 0.69207 0.5439 0.0525 0.0
C32 C 0.69282 0.53828 0.11582 0.0
C33 C 0.7129 0.54434 0.15361 0.0
C34 C 0.7326 0.55562 0.12776 0.0
C35 C 0.73116 0.56237 0.06685 0.0
C36 C 0.75092 0.57924 0.05053 0.0
C37 C 0.76328 0.58287 0.11257 0.0
C38 C 0.75379 0.56754 0.15654 0.0
C39 C 0.74012 0.60234 0.02582 0.0
C40 C 0.76676 0.56676 1.0048 0.0
H41 H 0.80328 0.61078 0.33443 0.0
H42 H 0.80083 0.52361 0.35305 0.0
H43 H 0.79706 0.53164 0.19588 0.0
H44 H 0.76807 0.51858 0.18149 0.0
H45 H 0.78554 0.50961 0.24749 0.0
H46 H 0.73715 0.54936 0.30467 0.0
H47 H 0.75355 0.52423 0.3301 0.0
H48 H 0.73724 0.52267 0.25953 0.0
H49 H 0.85007 0.63997 0.13761 0.0
H50 H 0.82333 0.62199 0.95525 0.0
H51 H 0.78695 0.60868 0.99598 0.0
H52 H 0.81582 0.65337 0.21169 0.0
H53 H 0.82415 0.6362 0.27644 0.0
H54 H 0.7934 0.63824 0.25324 0.0
H55 H 0.83603 0.58411 0.18334 0.0
H56 H 0.83529 0.59348 0.26109 0.0
H57 H 0.85207 0.61013 0.20962 0.0
H58 H 0.82752 0.59234 0.41369 0.0
C59 C 0.80333 0.5919 0.33723 0.0
C60 C 0.89658 0.7806 0.97825 0.0
C61 C 0.89391 0.80512 0.97593 0.0
C62 C 0.89105 0.81709 0.03146 0.0
C63 C 0.90547 0.78332 0.08693 0.0
C64 C 0.90342 0.77015 0.03412 0.0
C65 C 0.91398 0.7463 0.04242 0.0
H66 H 1.00588 0.68996 0.10847 0.0
C67 C 0.92123 0.77106 0.13098 0.0
C68 C 0.92529 0.74886 0.10703 0.0
H69 H 0.93822 0.66127 0.04033 0.0
H70 H 0.91862 0.69375 0.088 0.0
H71 H 1.00056 0.75078 0.1026 0.0
H72 H 0.97229 0.70721 0.24899 0.0
H73 H 0.99161 0.73119 0.27121 0.0
H74 H 1.00322 0.70646 0.2328 0.0
H75 H 0.01974 0.73156 0.14573 0.0
H76 H 1.00979 0.75807 0.17979 0.0
C77 C 0.93269 0.74275 0.99339 0.0
C78 C 0.8937 0.72749 0.03761 0.0
C79 C 0.96199 0.82204 0.29332 0.0
C80 C 0.98194 0.82056 0.33289 0.0
C81 C 0.99624 0.80057 0.32654 0.0
C82 C 0.99004 0.7824 0.28338 0.0
C83 C 0.96932 0.78408 0.24596 0.0
C84 C 0.95605 0.80403 0.25155 0.0
C85 C 0.93541 0.80455 0.2073 0.0
C86 C 0.93676 0.78062 0.17758 0.0
C87 C 0.95691 0.76834 0.19878 0.0
C88 C 0.93971 0.82536 0.16177 0.0
C89 C 0.91255 0.80633 0.24383 0.0
C90 C 0.98696 0.69122 0.1012 0.0
C91 C 0.97382 0.67374 0.06608 0.0
C92 C 0.94895 0.67487 0.06327 0.0
C93 C 0.93758 0.69391 0.08782 0.0
C94 C 0.9511 0.71254 0.11287 0.0
C95 C 0.97471 0.71028 0.12673 0.0
C96 C 0.98279 0.72973 0.17231 0.0
C97 C 0.96086 0.74537 0.17339 0.0
C98 C 0.94336 0.73519 0.13385 0.0
C99 C 1.00451 0.74334 0.14883 0.0
C100 C 0.98783 0.7181 0.23494 0.0
H101 H 0.89532 0.81618 0.12817 0.0
H102 H 0.89714 0.7707 0.93622 0.0
H103 H 0.87853 0.73365 1.00871 0.0
H104 H 0.88689 0.72295 0.0834 0.0
H105 H 0.89932 0.71129 0.01484 0.0
H106 H 0.94649 0.75706 0.99584 0.0
H107 H 0.92446 0.74255 0.9466 0.0
H108 H 0.94154 0.72576 0.99883 0.0
H109 H 0.95107 0.83736 0.29371 0.0
H110 H 0.012 0.79879 0.35542 0.0
H111 H 1.00154 0.76779 0.27994 0.0
H112 H 0.95693 0.83486 0.17059 0.0
H113 H 0.92602 0.83886 0.16475 0.0
H114 H 0.94044 0.81929 0.11376 0.0
H115 H 0.91339 0.79494 0.28538 0.0
H116 H 0.89659 0.80014 0.21736 0.0
H117 H 0.90997 0.82468 0.2589 0.0
H118 H 0.88783 0.83576 0.03199 0.0
C119 C 0.89639 0.80601 0.08733 0.0
C120 C 0.82554 0.99859 0.06197 0.0
C121 C 0.83013 0.99486 0.99848 0.0
C122 C 0.81066 0.98849 0.95945 0.0
C123 C 0.78547 0.98288 0.04531 0.0
C124 C 0.80241 0.99304 0.08416 0.0
C125 C 0.79227 0.99472 0.14863 0.0
H126 H 0.69739 0.95506 0.3231 0.0
C127 C 0.76589 0.97322 0.08082 0.0
C128 C 0.76755 0.98246 0.14042 0.0
H129 H 0.71794 0.02877 0.31773 0.0
H130 H 0.74676 0.02021 0.23869 0.0
H131 H 0.68582 0.94424 0.22567 0.0
H132 H 0.75259 0.93199 0.29567 0.0
H133 H 0.74395 0.90922 0.24414 0.0
H134 H 0.72429 0.91727 0.30329 0.0
H135 H 0.69621 0.91606 0.21139 0.0
H136 H 0.6973 0.93892 0.1536 0.0
C137 C 0.79051 0.02063 0.16695 0.0
C138 C 0.80787 0.98136 0.1953 0.0
C139 C 0.71753 0.90429 0.99463 0.0
C140 C 0.7018 0.88845 0.0236 0.0
C141 C 0.70587 0.88355 0.08639 0.0
C142 C 0.72168 0.89782 0.1215 0.0
C143 C 0.73277 0.91719 0.09344 0.0
C144 C 0.73269 0.91874 0.03063 0.0
C145 C 0.74686 0.93977 1.00884 0.0
C146 C 0.75347 0.95159 0.06974 0.0
C147 C 0.74413 0.93879 0.11859 0.0
C148 C 0.73056 0.95552 0.96881 0.0
C149 C 0.76849 0.93086 0.97467 0.0
C150 C 0.7085 0.96957 0.30786 0.0
C151 C 0.70519 0.99254 0.32914 0.0
C152 C 0.71985 0.01071 0.30378 0.0
C153 C 0.73692 1.00583 0.25899 0.0
C154 C 0.73963 0.98255 0.23896 0.0
C155 C 0.72459 0.9652 0.26186 0.0
C156 C 0.72551 0.94258 0.22696 0.0
C157 C 0.74187 0.94989 0.17591 0.0
C158 C 0.75229 0.97242 0.18602 0.0
C159 C 0.7001 0.935 0.20307 0.0
C160 C 0.73709 0.92414 0.26968 0.0
H161 H 0.77458 0.9778 0.95036 0.0
H162 H 0.83959 1.00464 0.09331 0.0
H163 H 0.80948 0.96273 0.18119 0.0
H164 H 0.80006 0.98154 0.24124 0.0
H165 H 0.82588 0.98962 0.19911 0.0
H166 H 0.77734 0.02967 0.13692 0.0
H167 H 0.80791 0.02996 0.16294 0.0
H168 H 0.78532 0.02206 0.21519 0.0
H169 H 0.71565 0.90807 0.94618 0.0
H170 H 0.6949 0.8706 0.10946 0.0
H171 H 0.72353 0.8944 0.16963 0.0
H172 H 0.71285 0.95668 0.98897 0.0
H173 H 0.72806 0.94833 0.92181 0.0
H174 H 0.73749 0.97385 0.96553 0.0
H175 H 0.76653 0.9119 0.96266 0.0
H176 H 0.78508 0.93285 1.00304 0.0
H177 H 0.77085 0.94008 0.93041 0.0
H178 H 0.81265 0.98731 0.91045 0.0
C179 C 0.78862 0.98255 0.98238 0.0
C180 C 0.50838 0.71867 0.28209 0.0
C181 C 0.49657 0.69957 0.31172 0.0
C182 C 0.47286 0.69439 0.29518 0.0
C183 C 0.47309 0.72516 0.21801 0.0
C184 C 0.49603 0.73156 0.23556 0.0
C185 C 0.50443 0.75308 0.19914 0.0
H186 H 0.47853 0.82876 0.95766 0.0
C187 C 0.46513 0.74047 0.16699 0.0
C188 C 0.48308 0.75752 0.15563 0.0
H189 H 0.54198 0.83237 0.07205 0.0
H190 H 0.52717 0.79902 0.13338 0.0
H191 H 0.47601 0.77708 0.94083 0.0
H192 H 0.44314 0.82193 0.06685 0.0
H193 H 0.4213 0.80077 0.04507 0.0
H194 H 0.43428 0.81952 0.98752 0.0
H195 H 0.44929 0.7918 0.92075 0.0
H196 H 0.44899 0.76259 0.95344 0.0
C197 C 0.52646 0.74677 0.16398 0.0
C198 C 0.50913 0.77368 0.24383 0.0
C199 C 0.39276 0.71409 0.0398 0.0
C200 C 0.38323 0.72223 0.98353 0.0
C201 C 0.38959 0.74509 0.96371 0.0
C202 C 0.40725 0.75834 0.99534 0.0
C203 C 0.41879 0.7486 0.04717 0.0
C204 C 0.41059 0.72745 0.07051 0.0
C205 C 0.42487 0.71986 0.12607 0.0
C206 C 0.44429 0.73899 0.12892 0.0
C207 C 0.44068 0.75555 0.08234 0.0
C208 C 0.43476 0.69526 0.11296 0.0
C209 C 0.40873 0.72063 0.18205 0.0
C210 C 0.48935 0.82248 0.99591 0.0
C211 C 0.51147 0.83304 1.0094 0.0
C212 C 0.52481 0.82445 0.0604 0.0
C213 C 0.51621 0.80514 0.09586 0.0
C214 C 0.49389 0.79457 0.08079 0.0
C215 C 0.48097 0.80378 0.0317 0.0
C216 C 0.45773 0.79132 0.02055 0.0
C217 C 0.45829 0.77305 0.07093 0.0
C218 C 0.47952 0.77444 0.10688 0.0
C219 C 0.45775 0.78019 0.95562 0.0
C220 C 0.43796 0.80921 0.02991 0.0
H221 H 0.44324 0.70167 0.23859 0.0
H222 H 0.52655 0.72334 0.2947 0.0
H223 H 0.49381 0.77571 0.27369 0.0
H224 H 0.51174 0.79061 0.21981 0.0
H225 H 0.52502 0.77051 0.27365 0.0
H226 H 0.52291 0.73053 0.13666 0.0
H227 H 0.54166 0.74359 0.19616 0.0
H228 H 0.53173 0.76082 0.13178 0.0
H229 H 0.38824 0.69664 0.05655 0.0
H230 H 0.38213 0.75203 0.92128 0.0
H231 H 0.4122 0.77502 0.97582 0.0
H232 H 0.44145 0.69462 0.06575 0.0
H233 H 0.42083 0.68124 0.11706 0.0
H234 H 0.44985 0.69057 0.14325 0.0
H235 H 0.39279 0.73126 0.17276 0.0
H236 H 0.41781 0.72919 0.22219 0.0
H237 H 0.4024 0.70271 0.19535 0.0
H238 H 0.4634 0.68005 0.31737 0.0
C239 C 0.46114 0.70702 0.24916 0.0
C240 C 0.34431 0.47545 0.19834 0.0
C241 C 0.36022 0.46334 0.23871 0.0
C242 C 0.35474 0.43967 0.25384 0.0
C243 C 0.31646 0.44263 0.20448 0.0
C244 C 0.32257 0.46407 0.17971 0.0
C245 C 0.30357 0.47112 0.13207 0.0
H246 H 0.19012 0.44444 0.01736 0.0
C247 C 0.29213 0.43643 0.18723 0.0
C248 C 0.28426 0.45182 0.1409 0.0
H249 H 0.23732 0.49764 0.94489 0.0
H250 H 0.26742 0.48795 0.024 0.0
H251 H 0.22612 0.40284 0.05 0.0
H252 H 0.19475 0.45912 0.13782 0.0
H253 H 0.20786 0.44541 0.20215 0.0
H254 H 0.18533 0.42999 0.15591 0.0
H255 H 0.19585 0.40586 0.07032 0.0
H256 H 0.21705 0.39289 0.12268 0.0
C257 C 0.31423 0.46988 0.06834 0.0
C258 C 0.29477 0.49575 0.14681 0.0
C259 C 0.24254 0.40736 0.35797 0.0
C260 C 0.2178 0.40764 0.36145 0.0
C261 C 0.20395 0.40328 0.30758 0.0
C262 C 0.21445 0.40356 0.25052 0.0
C263 C 0.23862 0.40929 0.24761 0.0
C264 C 0.25265 0.40911 0.30045 0.0
C265 C 0.27802 0.41561 0.28852 0.0
C266 C 0.27594 0.42254 0.22064 0.0
C267 C 0.25263 0.41972 0.19813 0.0
C268 C 0.29307 0.39369 0.30124 0.0
C269 C 0.28616 0.43669 0.32951 0.0
C270 C 0.20715 0.45362 0.01704 0.0
C271 C 0.21153 0.47122 0.97348 0.0
C272 C 0.23358 0.48365 0.97726 0.0
C273 C 0.2511 0.47787 0.0226 0.0
C274 C 0.2464 0.45971 0.06507 0.0
C275 C 0.22438 0.44843 0.06212 0.0
C276 C 0.22065 0.43174 0.11421 0.0
C277 C 0.24499 0.4325 0.14533 0.0
C278 C 0.26033 0.44906 0.11721 0.0
C279 C 0.21445 0.40697 0.0882 0.0
C280 C 0.20121 0.44188 0.15469 0.0
H281 H 0.32992 0.41081 0.24476 0.0
H282 H 0.34866 0.49303 0.18224 0.0
H283 H 0.28875 0.4963 0.19464 0.0
H284 H 0.27972 0.5006 0.11625 0.0
H285 H 0.30914 0.50927 0.14177 0.0
H286 H 0.32275 0.45269 0.06217 0.0
H287 H 0.3279 0.48408 0.06276 0.0
H288 H 0.30079 0.47143 0.03104 0.0
H289 H 0.25358 0.40912 0.39916 0.0
H290 H 0.18484 0.40242 0.30839 0.0
H291 H 0.20316 0.40121 0.2106 0.0
H292 H 0.28469 0.38144 0.33447 0.0
H293 H 0.31055 0.39851 0.32274 0.0
H294 H 0.2956 0.38362 0.25862 0.0
H295 H 0.27444 0.45186 0.32152 0.0
H296 H 0.30448 0.44267 0.32093 0.0
H297 H 0.28597 0.43186 0.37874 0.0
H298 H 0.3668 0.42942 0.28196 0.0
C299 C 0.33317 0.42914 0.23545 0.0
C300 C 0.1371 0.23098 0.31642 0.0
C301 C 0.14223 0.20772 0.29994 0.0
C302 C 0.14804 0.2038 0.23848 0.0
C303 C 0.12896 0.23964 0.20997 0.0
C304 C 0.12936 0.24649 0.27025 0.0
C305 C 0.11617 0.26886 0.27812 0.0
H306 H 0.02071 0.32756 0.2329 0.0
C307 C 0.11066 0.25287 0.17639 0.0
C308 C 0.10446 0.27134 0.21395 0.0
H309 H 0.08783 0.3539 0.31055 0.0
H310 H 0.10769 0.32298 0.25818 0.0
H311 H 0.05029 0.31381 0.09148 0.0
H312 H 0.02967 0.26515 0.23596 0.0
H313 H 0.01871 0.25863 0.15998 0.0
H314 H 1.00797 0.28362 0.19942 0.0
H315 H 0.02001 0.31192 0.11413 0.0
H316 H 0.03192 0.28903 0.0691 0.0
C317 C 0.13451 0.28864 0.29495 0.0
C318 C 0.09762 0.26563 0.32806 0.0
C319 C 0.06764 0.20555 1.01054 0.0
C320 C 0.04482 0.20449 0.98378 0.0
C321 C 0.02862 0.22137 1.00333 0.0
C322 C 0.03554 0.23899 0.04744 0.0
C323 C 0.05877 0.23955 0.07334 0.0
C324 C 0.07399 0.2225 0.05482 0.0
C325 C 0.09708 0.2231 0.08972 0.0
C326 C 0.09435 0.24443 0.13003 0.0
C327 C 0.07182 0.2545 0.12122 0.0
C328 C 0.11707 0.22736 0.04398 0.0
C329 C 0.09898 0.19955 0.12657 0.0
C330 C 0.03952 0.32592 0.24163 0.0
C331 C 0.05242 0.3427 0.27952 0.0
C332 C 0.0772 0.34093 0.28501 0.0
C333 C 0.08874 0.32254 0.25798 0.0
C334 C 0.07554 0.30481 0.22794 0.0
C335 C 0.05189 0.30728 0.21428 0.0
C336 C 0.04378 0.28882 0.16598 0.0
C337 C 0.06648 0.27483 0.15736 0.0
C338 C 0.08403 0.284 0.19828 0.0
C339 C 0.036 0.30154 0.10672 0.0
C340 C 0.02385 0.27314 0.19161 0.0
H341 H 0.14475 0.21596 0.14635 0.0
H342 H 0.13517 0.23551 0.36393 0.0
H343 H 0.08541 0.25044 0.31718 0.0
H344 H 0.08695 0.28154 0.33228 0.0
H345 H 0.10625 0.26261 0.37368 0.0
H346 H 0.14963 0.28175 0.32276 0.0
H347 H 0.12693 0.30217 0.32423 0.0
H348 H 0.14175 0.29703 0.25328 0.0
H349 H 0.0804 0.19254 0.9993 0.0
H350 H 0.01072 0.22107 0.98424 0.0
H351 H 0.02265 0.25134 0.06076 0.0
H352 H 0.11177 0.24038 1.00825 0.0
H353 H 0.12132 0.21078 0.02058 0.0
H354 H 0.13339 0.23487 0.06628 0.0
H355 H 0.08473 0.18641 0.11417 0.0
H356 H 0.09737 0.2023 0.17648 0.0
H357 H 0.11564 0.19052 0.11807 0.0
H358 H 0.15406 0.18696 0.22353 0.0
C359 C 0.14174 0.22014 0.19317 0.0
C360 C 0.31335 0.03464 0.02058 0.0
C361 C 0.3333 0.04618 0.99303 0.0
C362 C 0.33962 0.06902 1.01261 0.0
C363 C 0.30857 0.06864 0.08633 0.0
C364 C 0.30087 0.04658 0.06706 0.0
C365 C 0.27852 0.03909 0.10175 0.0
H366 H 0.2046 0.06969 0.33852 0.0
C367 C 0.29385 0.07657 0.13649 0.0
C368 C 0.27541 0.05983 0.1462 0.0
H369 H 0.19402 0.00772 0.22728 0.0
H370 H 0.22893 0.01944 0.16776 0.0
H371 H 0.2555 0.06485 0.36127 0.0
H372 H 0.21618 0.10557 0.23088 0.0
H373 H 0.23948 0.12415 0.25843 0.0
H374 H 0.21871 0.11173 0.31131 0.0
H375 H 0.24586 0.09359 0.37954 0.0
H376 H 0.27449 0.089 0.3484 0.0
C377 C 0.28291 0.01602 0.13672 0.0
C378 C 0.25747 0.03668 0.05569 0.0
C379 C 0.32849 0.14181 0.26948 0.0
C380 C 0.3231 0.14846 0.32922 0.0
C381 C 0.29953 0.14526 0.34729 0.0
C382 C 0.28334 0.13144 0.31201 0.0
C383 C 0.29085 0.12076 0.25828 0.0
C384 C 0.3125 0.12736 0.2359 0.0
C385 C 0.3181 0.11392 0.17959 0.0
C386 C 0.29727 0.0964 0.17532 0.0
C387 C 0.28141 0.10054 0.22126 0.0
C388 C 0.34204 0.10161 0.19211 0.0
C389 C 0.31785 0.13164 0.12512 0.0
C390 C 0.20951 0.0584 0.30152 0.0
C391 C 0.19642 0.03764 0.2888 0.0
C392 C 0.20365 0.0239 0.2388 0.0
C393 C 0.2239 0.03065 0.20431 0.0
C394 C 0.23698 0.05155 0.21914 0.0
C395 C 0.22915 0.06487 0.26714 0.0
C396 C 0.24436 0.08616 0.27989 0.0
C397 C 0.26236 0.08442 0.23087 0.0
C398 C 0.25878 0.064 0.19423 0.0
C399 C 0.25559 0.08351 0.34556 0.0
C400 C 0.229 0.10815 0.27017 0.0
H401 H 0.33393 0.09736 0.06981 0.0
H402 H 0.30755 0.01721 1.00587 0.0
H403 H 0.25551 0.0532 0.02873 0.0
H404 H 0.24071 0.03318 0.07895 0.0
H405 H 0.26014 0.02206 0.02331 0.0
H406 H 0.2988 0.01798 0.16776 0.0
H407 H 0.28585 1.00145 0.10438 0.0
H408 H 0.26772 0.01094 0.16495 0.0
H409 H 0.34612 0.14442 0.25263 0.0
H410 H 0.29437 0.15117 0.39178 0.0
H411 H 0.26629 0.12811 0.3306 0.0
H412 H 0.34373 0.09564 0.2406 0.0
H413 H 0.35727 0.11375 0.18331 0.0
H414 H 0.34408 0.08546 0.16546 0.0
H415 H 0.30815 0.14784 0.13538 0.0
H416 H 0.30846 0.12427 0.08387 0.0
H417 H 0.33605 0.13734 0.11319 0.0
H418 H 0.35455 0.07843 0.99324 0.0
C419 C 0.32745 0.08018 0.05772 0.0
C420 C 0.52149 0.30824 1.01025 0.0
C421 C 0.53361 0.32703 0.97996 0.0
C422 C 0.55756 0.33149 0.99521 0.0
C423 C 0.55721 0.30045 0.07147 0.0
C424 C 0.53391 0.29482 0.05565 0.0
C425 C 0.52531 0.27345 0.09258 0.0
H426 H 0.55569 0.19174 0.31694 0.0
C427 C 0.56541 0.28456 0.12088 0.0
C428 C 0.54718 0.26795 0.13337 0.0
H429 H 0.48803 0.19366 0.2208 0.0
H430 H 0.50171 0.2284 0.16265 0.0
H431 H 0.58832 0.20216 0.2039 0.0
H432 H 0.55859 0.24218 0.34547 0.0
H433 H 0.58442 0.25828 0.32943 0.0
H434 H 0.5864 0.22838 0.35699 0.0
H435 H 0.59798 0.20132 0.28291 0.0
H436 H 0.61078 0.22205 0.22982 0.0
C437 C 0.51882 0.25318 0.04818 0.0
C438 C 0.50436 0.28059 0.13081 0.0
C439 C 0.64034 0.30777 0.24088 0.0
C440 C 0.65032 0.29904 0.29599 0.0
C441 C 0.64394 0.27604 0.31472 0.0
C442 C 0.62577 0.2633 0.28357 0.0
C443 C 0.61368 0.27376 0.23357 0.0
C444 C 0.62192 0.29501 0.21096 0.0
C445 C 0.60694 0.30353 0.15769 0.0
C446 C 0.58696 0.28499 0.15607 0.0
C447 C 0.59104 0.26773 0.20054 0.0
C448 C 0.62204 0.30273 0.09972 0.0
C449 C 0.59809 0.32832 0.17354 0.0
C450 C 0.54375 0.19918 0.28266 0.0
C451 C 0.52098 0.18944 0.27279 0.0
C452 C 0.50583 0.20061 0.22923 0.0
C453 C 0.51382 0.22066 0.19534 0.0
C454 C 0.53708 0.22983 0.20562 0.0
C455 C 0.55127 0.21891 0.24951 0.0
C456 C 0.5748 0.23092 0.25926 0.0
C457 C 0.57329 0.25044 0.21244 0.0
C458 C 0.55123 0.25026 0.18002 0.0
C459 C 0.59412 0.21327 0.24369 0.0
C460 C 0.57637 0.24035 0.3261 0.0
H461 H 0.5874 0.32325 0.04952 0.0
H462 H 0.5031 0.30412 0.9987 0.0
H463 H 0.50909 0.29665 0.15786 0.0
H464 H 0.49923 0.26668 0.1636 0.0
H465 H 0.48872 0.28441 0.1007 0.0
H466 H 0.53366 0.25008 0.01745 0.0
H467 H 0.50297 0.25743 0.01928 0.0
H468 H 0.51515 0.23649 0.07253 0.0
H469 H 0.64486 0.32533 0.22492 0.0
H470 H 0.65175 0.26864 0.3562 0.0
H471 H 0.62092 0.24641 0.30205 0.0
H472 H 0.63778 0.29158 0.10652 0.0
H473 H 0.62866 0.32057 0.08662 0.0
H474 H 0.61206 0.29471 0.06018 0.0
H475 H 0.59267 0.32887 0.22195 0.0
H476 H 0.58239 0.33353 0.1462 0.0
H477 H 0.61221 0.34203 0.16756 0.0
H478 H 0.56726 0.34559 0.97267 0.0
C479 C 0.56931 0.3184 0.04009 0.0
Eu480 Eu 0.99927 0.02653 0.60425 0.0
Eu481 Eu 0.03285 1.00101 0.70539 0.0
C482 C 0.02401 0.05587 0.71956 0.0
C483 C 0.98774 0.06235 0.4658 0.0
C484 C 0.98566 0.08666 0.4571 0.0
C485 C 0.02081 0.06286 0.39775 0.0
C486 C 1.00209 0.0992 0.42257 0.0
C487 C 1.00457 0.05034 0.43299 0.0
C488 C 0.02073 0.08754 0.39583 0.0
C489 C 0.97757 0.05148 0.5205 0.0
O490 O 0.99723 1.00494 0.75078 0.0
O491 O 0.97177 0.01201 0.66944 0.0
C492 C 0.97553 1.00736 0.7281 0.0
O493 O 0.99921 0.98938 0.567 0.0
O494 O 0.04004 0.99224 0.80162 0.0
O495 O 0.0617 0.97795 0.73252 0.0
O496 O 0.01757 0.97042 0.64746 0.0
C497 C 1.00681 0.96999 0.59304 0.0
O498 O 0.03599 0.02908 0.56275 0.0
O499 O 0.05953 0.00952 0.63254 0.0
O500 O 0.04035 0.03987 0.7242 0.0
O501 O 0.97591 0.02855 0.52243 0.0
O502 O 0.98641 0.06018 0.5715 0.0
O503 O 1.00498 0.05198 0.6844 0.0
C504 C 0.04532 0.95163 0.80455 0.0
C505 C 0.03933 0.93538 0.75788 0.0
C506 C 0.02073 0.92891 0.8734 0.0
C507 C 0.02284 0.91721 0.7675 0.0
C508 C 0.03692 0.94745 0.86332 0.0
C509 C 0.01238 0.91449 0.82457 0.0
C510 C 0.05407 0.97542 0.78782 0.0
C511 C 0.05662 0.0204 0.57961 0.0
H512 H 0.97294 0.09628 0.48229 0.0
H513 H 0.03454 0.05341 0.37591 0.0
H514 H 1.00147 0.11822 0.42198 0.0
H515 H 1.00663 0.03156 0.43891 0.0
H516 H 0.04563 0.93792 0.71209 0.0
H517 H 0.01378 0.92676 0.91866 0.0
H518 H 0.01703 0.90656 0.72864 0.0
H519 H 0.04131 0.95966 0.90013 0.0
Eu520 Eu 0.52932 0.03091 0.70494 0.0
Eu521 Eu 0.49989 1.00054 0.60301 0.0
C522 C 0.52291 0.9725 0.71731 0.0
C523 C 0.57371 0.03573 0.82563 0.0
C524 C 0.59089 0.02583 0.78939 0.0
C525 C 0.58402 0.00821 0.90707 0.0
C526 C 0.60339 1.00647 0.81028 0.0
C527 C 0.5713 0.02755 0.88586 0.0
C528 C 0.59929 0.99671 0.86827 0.0
C529 C 0.55431 0.04874 0.79549 0.0
O530 O 0.47593 1.00309 0.68467 0.0
O531 O 0.49042 0.03807 0.72155 0.0
C532 C 0.47351 0.02163 0.71937 0.0
O533 O 0.52497 0.05758 0.62895 0.0
O534 O 0.46745 0.98173 0.5724 0.0
O535 O 0.49453 0.98933 0.50789 0.0
O536 O 0.4939 0.03905 0.57812 0.0
C537 C 0.50834 0.05741 0.58571 0.0
O538 O 0.55873 0.01952 0.64368 0.0
O539 O 0.53755 0.99943 0.56814 0.0
O540 O 0.51301 0.97058 0.66214 0.0
O541 O 0.55738 0.05521 0.7389 0.0
O542 O 0.53342 0.03905 0.80233 0.0
O543 O 0.52944 0.99314 0.74035 0.0
C544 C 0.45572 1.00052 0.48035 0.0
C545 C 0.46462 0.01616 0.43592 0.0
C546 C 0.42164 0.02517 0.48884 0.0
C547 C 0.45289 0.03685 0.42128 0.0
C548 C 0.43325 1.00442 0.50312 0.0
C549 C 0.43207 0.04221 0.45072 0.0
C550 C 0.47205 0.98496 0.51488 0.0
C551 C 0.55775 0.00829 0.59103 0.0
H552 H 0.59321 0.03155 0.74259 0.0
H553 H 0.58097 1.00157 0.95272 0.0
H554 H 0.6149 0.99813 0.77889 0.0
H555 H 0.55812 0.03478 0.91464 0.0
H556 H 0.48174 0.0136 0.41675 0.0
H557 H 0.40512 0.02848 0.51041 0.0
H558 H 0.46118 0.04951 0.39102 0.0
H559 H 0.42567 0.99257 0.5366 0.0
Eu560 Eu 0.49901 0.52347 0.69631 0.0
Eu561 Eu 0.54208 0.50713 0.6114 0.0
C562 C 0.55303 0.52764 0.7438 0.0
C563 C 0.44472 0.55117 0.76714 0.0
C564 C 0.445 0.57326 0.73824 0.0
C565 C 0.40646 0.55921 0.8079 0.0
C566 C 0.42645 0.58858 0.74594 0.0
C567 C 0.42504 0.54398 0.80036 0.0
C568 C 0.40733 0.58199 0.78251 0.0
C569 C 0.46519 0.53589 0.76655 0.0
O570 O 0.53654 0.47606 0.67633 0.0
O571 O 0.4997 0.48394 0.71031 0.0
C572 C 0.51759 0.46981 0.7066 0.0
O573 O 0.48181 0.51892 0.60225 0.0
O574 O 0.57995 0.50221 0.60596 0.0
O575 O 0.55717 0.49585 0.52604 0.0
O576 O 0.50858 0.49509 0.55854 0.0
C577 C 0.48774 0.50493 0.55798 0.0
O578 O 0.5088 0.55711 0.64379 0.0
O579 O 0.53353 0.54282 0.57203 0.0
O580 O 0.55761 0.53086 0.686 0.0
O581 O 0.46347 0.51777 0.7302 0.0
O582 O 0.48616 0.54615 0.7671 0.0
O583 O 0.53181 0.52025 0.75847 0.0
C584 C 0.59309 0.47478 0.53373 0.0
C585 C 0.58786 0.46195 0.48008 0.0
C586 C 0.62848 0.45192 0.55092 0.0
C587 C 0.60278 0.44435 0.46197 0.0
C588 C 0.61355 0.46957 0.56903 0.0
C589 C 0.62338 0.43932 0.49679 0.0
C590 C 0.5786 0.49495 0.54955 0.0
C591 C 0.52117 0.55992 0.59391 0.0
H592 H 0.45996 0.57905 0.71186 0.0
H593 H 0.39186 0.55352 0.83564 0.0
H594 H 0.42781 0.60607 0.72628 0.0
H595 H 0.42444 0.52686 0.82242 0.0
H596 H 0.57241 0.4657 0.45148 0.0
H597 H 0.64428 0.4485 0.57849 0.0
H598 H 0.59811 0.43463 0.42062 0.0
H599 H 0.61829 0.47945 0.61009 0.0
Eu600 Eu 0.02651 0.52873 0.6278 0.0
Eu601 Eu 1.00355 0.49011 0.71885 0.0
C602 C 0.05938 0.4982 0.72355 0.0
C603 C 0.07747 0.55141 0.54638 0.0
C604 C 0.0937 0.54764 0.59545 0.0
C605 C 0.1044 0.53326 0.47794 0.0
C606 C 0.1142 0.53531 0.58653 0.0
C607 C 0.08365 0.54533 0.48701 0.0
C608 C 0.11907 0.52703 0.52823 0.0
C609 C 0.0525 0.55553 0.55903 0.0
O610 O 1.00841 0.52441 0.77207 0.0
O611 O 1.009 0.55196 0.6962 0.0
C612 C 1.00684 0.54643 0.75419 0.0
O613 O 0.9882 0.53177 0.5987 0.0
O614 O 1.00389 0.47511 0.8111 0.0
O615 O 0.97482 0.46649 0.74803 0.0
O616 O 0.97228 0.50299 0.66069 0.0
C617 C 0.97007 0.51907 0.61738 0.0
O618 O 0.02746 0.49356 0.57654 0.0
O619 O 0.01125 0.46577 0.64108 0.0
O620 O 0.0424 0.48206 0.72611 0.0
O621 O 0.03759 0.5396 0.53689 0.0
O622 O 0.04801 0.5608 0.61536 0.0
O623 O 0.05545 0.51859 0.69704 0.0
C624 C 0.96595 0.4823 0.84434 0.0
C625 C 0.94704 0.4944 0.81646 0.0
C626 C 0.96499 0.50885 0.93126 0.0
C627 C 0.93835 0.51432 0.84376 0.0
C628 C 0.97392 0.48896 0.90359 0.0
C629 C 0.94803 0.52236 0.89995 0.0
C630 C 0.9816 0.46882 0.80546 0.0
C631 C 0.02055 0.47161 0.58853 0.0
H632 H 0.08964 0.55239 0.64171 0.0
H633 H 0.10788 0.52704 0.43245 0.0
H634 H 0.12549 0.53097 0.62576 0.0
H635 H 0.07143 0.54797 0.44851 0.0
H636 H 0.94029 0.48983 0.77099 0.0
H637 H 0.97253 0.51458 0.97508 0.0
H638 H 0.92472 0.52405 0.81959 0.0
H639 H 0.98856 0.48012 0.92604 0.0
H640 H 0.14993 0.02324 0.25783 0.0
H641 H 0.19618 0.03823 0.41412 0.0
H642 H 0.11643 0.01833 0.32603 0.0
H643 H 0.1631 0.03398 0.48156 0.0
H644 H 0.10314 0.0078 0.60027 0.0
H645 H 0.13574 0.00931 0.53019 0.0
H646 H 0.08976 0.03849 0.38959 0.0
H647 H 0.05701 0.03636 0.45985 0.0
C648 C 0.1531 0.02515 0.30669 0.0
C649 C 0.17602 0.03114 0.32987 0.0
C650 C 0.13373 0.02267 0.3461 0.0
C651 C 0.13661 0.02583 0.41025 0.0
C652 C 0.15975 0.03107 0.43312 0.0
C653 C 0.17892 0.03367 0.39396 0.0
C654 C 0.09988 0.01465 0.55454 0.0
C655 C 0.07715 0.02223 0.53657 0.0
C656 C 0.11879 0.01562 0.51392 0.0
C657 C 0.11587 0.02414 0.45327 0.0
C658 C 0.09305 0.03155 0.4352 0.0
C659 C 0.07414 0.03062 0.47601 0.0
H660 H 0.54651 0.14997 0.29028 0.0
H661 H 0.48076 0.18004 0.33967 0.0
H662 H 0.54111 0.11882 0.36563 0.0
H663 H 0.47504 0.14812 0.41521 0.0
H664 H 0.47072 0.07089 0.51071 0.0
H665 H 0.47047 0.10173 0.4311 0.0
H666 H 0.54285 0.12054 0.48152 0.0
H667 H 0.54303 0.09003 0.56023 0.0
C668 C 0.53064 0.14975 0.31664 0.0
C669 C 0.51426 0.16784 0.30922 0.0
C670 C 0.52761 0.13187 0.36022 0.0
C671 C 0.50791 0.13116 0.39769 0.0
C672 C 0.49051 0.14818 0.38741 0.0
C673 C 0.4937 0.1664 0.34381 0.0
C674 C 0.48651 0.08169 0.50477 0.0
C675 C 0.50694 0.07772 0.54167 0.0
C676 C 0.48633 0.09947 0.4594 0.0
C677 C 0.50676 0.11348 0.44912 0.0
C678 C 0.52689 0.10991 0.48734 0.0
C679 C 0.52694 0.09247 0.53302 0.0
H680 H 0.36452 0.50539 0.3004 0.0
H681 H 0.40471 0.44582 0.24875 0.0
H682 H 0.39662 0.51785 0.37187 0.0
H683 H 0.43603 0.45722 0.32197 0.0
H684 H 0.4955 0.4862 0.44455 0.0
H685 H 0.46723 0.48039 0.35888 0.0
H686 H 0.41199 0.50759 0.46798 0.0
H687 H 0.44048 0.51435 0.55209 0.0
C688 C 0.38045 0.49527 0.30315 0.0
C689 C 0.38189 0.47452 0.26895 0.0
C690 C 0.39875 0.50211 0.34522 0.0
C691 C 0.41898 0.48831 0.3545 0.0
C692 C 0.42103 0.46852 0.31673 0.0
C693 C 0.40289 0.46185 0.27454 0.0
C694 C 0.47731 0.49095 0.45022 0.0
C695 C 0.47038 0.50065 0.50566 0.0
C696 C 0.46095 0.48755 0.40091 0.0
C697 C 0.43701 0.49346 0.40564 0.0
C698 C 0.4302 0.50322 0.4613 0.0
C699 C 0.4466 0.50688 0.5102 0.0
H700 H 0.01697 0.34111 0.36408 0.0
H701 H 0.06495 0.38939 0.27561 0.0
H702 H 1.00709 0.37216 0.43575 0.0
H703 H 0.05631 0.41984 0.34795 0.0
H704 H 0.03028 0.47744 0.46661 0.0
H705 H 0.03347 0.4477 0.38805 0.0
H706 H 0.02037 0.39314 0.52203 0.0
H707 H 0.01605 0.42316 0.59994 0.0
C708 C 0.02498 0.3585 0.35889 0.0
C709 C 0.04166 0.36263 0.31346 0.0
C710 C 0.01972 0.37632 0.40099 0.0
C711 C 0.03104 0.39887 0.39921 0.0
C712 C 0.0468 0.40314 0.35151 0.0
C713 C 0.05188 0.38548 0.30955 0.0
C714 C 0.02807 0.45911 0.47954 0.0
C715 C 0.02302 0.45295 0.54032 0.0
C716 C 0.03003 0.44182 0.43411 0.0
C717 C 0.0274 0.41754 0.44761 0.0
C718 C 0.02221 0.41143 0.50857 0.0
C719 C 0.01993 0.42878 0.55388 0.0
H720 H 0.86775 0.0283 1.01195 0.0
H721 H 0.84771 0.964 0.91748 0.0
H722 H 0.90343 0.0318 0.94988 0.0
H723 H 0.8822 0.96804 0.85493 0.0
H724 H 0.92793 0.99913 0.70043 0.0
H725 H 0.89496 0.99645 0.77017 0.0
H726 H 0.94307 0.01026 0.92354 0.0
H727 H 0.97621 0.01235 0.85394 0.0
C728 C 0.87096 0.01477 0.97881 0.0
C729 C 0.85429 0.99608 0.96959 0.0
C730 C 0.8914 0.01685 0.94273 0.0
C731 C 0.89559 1.00049 0.89588 0.0
C732 C 0.87948 0.98135 0.88905 0.0
C733 C 0.85955 0.97905 0.92542 0.0
C734 C 0.9316 1.00156 0.74896 0.0
C735 C 0.95502 1.00579 0.77096 0.0
C736 C 0.9126 1.0 0.78923 0.0
C737 C 0.91612 1.00315 0.85304 0.0
C738 C 0.93947 0.00787 0.87498 0.0
C739 C 0.95857 0.00889 0.83481 0.0
H740 H 0.52121 0.87945 0.03858 0.0
H741 H 0.51866 0.83127 0.8871 0.0
H742 H 0.52597 0.91254 0.96754 0.0
H743 H 0.52446 0.86392 0.81597 0.0
H744 H 0.50421 0.92769 0.69833 0.0
H745 H 0.50451 0.89432 0.76859 0.0
H746 H 0.54727 0.93507 0.89883 0.0
H747 H 0.54648 0.96869 0.82913 0.0
C748 C 0.52247 0.87588 0.99021 0.0
C749 C 0.51971 0.85269 0.96865 0.0
C750 C 0.52514 0.8949 0.94906 0.0
C751 C 0.5253 0.89127 0.88506 0.0
C752 C 0.5238 0.86781 0.86427 0.0
C753 C 0.52085 0.84892 0.90526 0.0
C754 C 0.51396 0.92951 0.7416 0.0
C755 C 0.52528 0.95109 0.75755 0.0
C756 C 0.51424 0.9102 0.78222 0.0
C757 C 0.52599 0.91168 0.84023 0.0
C758 C 0.53779 0.93314 0.85536 0.0
C759 C 0.53744 0.95248 0.81489 0.0
H760 H 0.64484 0.54934 0.07603 0.0
H761 H 0.69075 0.52737 0.93497 0.0
H762 H 0.61086 0.54567 1.004 0.0
H763 H 0.65702 0.52336 0.86352 0.0
H764 H 0.59858 0.54382 0.72899 0.0
H765 H 0.63088 0.54681 0.80502 0.0
H766 H 0.58437 0.52058 0.94388 0.0
H767 H 0.55177 0.51816 0.86764 0.0
C768 C 0.64766 0.5433 0.03003 0.0
C769 C 0.67068 0.53885 1.01144 0.0
C770 C 0.62813 0.54123 0.98847 0.0
C771 C 0.63103 0.53457 0.92711 0.0
C772 C 0.65397 0.5292 0.90956 0.0
C773 C 0.6734 0.53135 0.95085 0.0
C774 C 0.59511 0.53881 0.77577 0.0
C775 C 0.57242 0.53074 0.7918 0.0
C776 C 0.61381 0.54031 0.81957 0.0
C777 C 0.61055 0.53368 0.88104 0.0
C778 C 0.58769 0.52603 0.89737 0.0
C779 C 0.56893 0.52457 0.85343 0.0
H780 H 0.96417 0.62637 0.07304 0.0
H781 H 1.00594 0.67733 0.97422 0.0
H782 H 0.97308 0.59619 0.99944 0.0
H783 H 0.01527 0.64694 0.90009 0.0
H784 H 1.00267 0.59465 0.7385 0.0
H785 H 0.99776 0.62463 0.81669 0.0
H786 H 0.99968 0.57079 0.95667 0.0
H787 H 1.00403 0.54101 0.87878 0.0
C788 C 0.97591 0.63098 0.03646 0.0
C789 C 0.98458 0.65435 0.03039 0.0
C790 C 0.98097 0.61359 0.99367 0.0
C791 C 0.99473 0.61887 0.94253 0.0
C792 C 1.00427 0.64206 0.93791 0.0
C793 C 0.99933 0.65949 0.98123 0.0
C794 C 1.00203 0.58918 0.78595 0.0
C795 C 1.00371 0.56519 0.80169 0.0
C796 C 0.99941 0.6065 0.83119 0.0
C797 C 0.99837 0.60046 0.89387 0.0
C798 C 1.00012 0.57642 0.90935 0.0
C799 C 1.00272 0.55918 0.86426 0.0
H800 H 0.15399 0.1603 0.29974 0.0
H801 H 0.10662 0.20857 0.38276 0.0
H802 H 0.12613 0.12788 0.32105 0.0
H803 H 0.08015 0.17636 0.40547 0.0
H804 H 0.02192 0.12835 0.32904 0.0
H805 H 0.05593 0.15506 0.31695 0.0
H806 H 0.10134 0.10483 0.40672 0.0
H807 H 0.06722 0.07823 0.42018 0.0
C808 C 0.13816 0.16411 0.32375 0.0
C809 C 0.13228 0.18755 0.33626 0.0
C810 C 0.12227 0.14544 0.33613 0.0
C811 C 0.10057 0.14996 0.36218 0.0
C812 C 0.09643 0.17262 0.38323 0.0
C813 C 0.11208 0.19116 0.3708 0.0
C814 C 0.03918 0.12286 0.34547 0.0
C815 C 0.04181 0.10128 0.376 0.0
C816 C 0.05861 0.13814 0.33879 0.0
C817 C 0.08108 0.13213 0.36227 0.0
C818 C 0.08416 0.10986 0.38856 0.0
C819 C 0.06463 0.09459 0.39567 0.0
H820 H 0.36806 0.16864 0.31904 0.0
H821 H 0.32384 0.1311 0.44648 0.0
H822 H 0.4026 0.14953 0.364 0.0
H823 H 0.35796 0.11301 0.49183 0.0
H824 H 0.41696 0.06922 0.54341 0.0
H825 H 0.39734 0.10685 0.53541 0.0
H826 H 0.40638 0.10702 0.33993 0.0
H827 H 0.42603 0.06953 0.34812 0.0
C828 C 0.36575 0.15724 0.35837 0.0
C829 C 0.34292 0.15009 0.37595 0.0
C830 C 0.38557 0.14627 0.38402 0.0
C831 C 0.38279 0.12883 0.42918 0.0
C832 C 0.36072 0.12598 0.45611 0.0
C833 C 0.34093 0.13661 0.42988 0.0
C834 C 0.41483 0.07741 0.49878 0.0
C835 C 0.42228 0.06609 0.44602 0.0
C836 C 0.4039 0.09909 0.49439 0.0
C837 C 0.40017 0.10989 0.4371 0.0
C838 C 0.40926 0.09939 0.38498 0.0
C839 C 0.42025 0.07772 0.38943 0.0
H840 H 0.64276 0.30251 0.41766 0.0
H841 H 0.68319 0.33445 0.27352 0.0
H842 H 0.64753 0.33797 0.477 0.0
H843 H 0.68831 0.37033 0.334 0.0
H844 H 0.64478 0.40523 0.56655 0.0
H845 H 0.66496 0.3709 0.52982 0.0
H846 H 0.65674 0.39687 0.34424 0.0
H847 H 0.63775 0.43143 0.38125 0.0
C848 C 0.6538 0.31665 0.39986 0.0
C849 C 0.66194 0.31591 0.33988 0.0
C850 C 0.65654 0.33719 0.43419 0.0
C851 C 0.66757 0.35736 0.40933 0.0
C852 C 0.67902 0.35532 0.35355 0.0
C853 C 0.67618 0.33475 0.31899 0.0
C854 C 0.648 0.40391 0.51816 0.0
C855 C 0.63914 0.42068 0.47653 0.0
C856 C 0.65947 0.3842 0.49707 0.0
C857 C 0.66219 0.38087 0.43398 0.0
C858 C 0.65519 0.3988 0.39317 0.0
C859 C 0.64385 0.41847 0.41424 0.0
H860 H 0.17425 0.39909 0.41208 0.0
H861 H 0.23673 0.44466 0.42711 0.0
H862 H 0.15252 0.42785 0.4692 0.0
H863 H 0.21519 0.4726 0.48463 0.0
H864 H 0.15477 0.52769 0.44786 0.0
H865 H 0.18157 0.49584 0.42783 0.0
H866 H 0.15 0.4539 0.57033 0.0
H867 H 0.1234 0.486 0.59111 0.0
C868 C 0.1836 0.41469 0.42933 0.0
C869 C 0.20713 0.41964 0.4137 0.0
C870 C 0.17119 0.43108 0.46227 0.0
C871 C 0.18217 0.45258 0.47992 0.0
C872 C 0.20632 0.45625 0.47073 0.0
C873 C 0.21871 0.43994 0.43821 0.0
C874 C 0.15394 0.51186 0.47561 0.0
C875 C 0.13724 0.50927 0.5211 0.0
C876 C 0.16927 0.49371 0.46447 0.0
C877 C 0.16784 0.47253 0.49788 0.0
C878 C 0.15145 0.47011 0.54427 0.0
C879 C 0.13641 0.48847 0.55624 0.0
H880 H 0.87968 0.84814 0.92969 0.0
H881 H 0.92971 0.79332 0.90277 0.0
H882 H 0.90496 0.87555 0.87352 0.0
H883 H 0.95471 0.8203 0.84934 0.0
H884 H 1.0029 0.87178 0.76841 0.0
H885 H 0.96806 0.84636 0.77716 0.0
H886 H 0.94021 0.89437 0.90768 0.0
H887 H 0.97374 0.92088 0.89401 0.0
C888 C 0.8956 0.84171 0.91033 0.0
C889 C 0.90285 0.81865 0.92256 0.0
C890 C 0.91024 0.85747 0.87861 0.0
C891 C 0.9324 0.85045 0.85894 0.0
C892 C 0.93791 0.82657 0.8637 0.0
C893 C 0.92327 0.81086 0.89467 0.0
C894 C 0.98913 0.87721 0.79797 0.0
C895 C 0.99149 0.89829 0.83134 0.0
C896 C 0.96915 0.86247 0.8034 0.0
C897 C 0.95126 0.86809 0.84355 0.0
C898 C 0.95333 0.88948 0.87557 0.0
C899 C 0.97303 0.90446 0.86909 0.0
H900 H 0.65957 0.89169 0.07905 0.0
H901 H 0.68895 0.87867 0.90302 0.0
H902 H 0.62703 0.91142 0.02981 0.0
H903 H 0.65602 0.89884 0.85329 0.0
H904 H 0.64294 0.98042 0.84268 0.0
H905 H 0.65892 0.94237 0.86774 0.0
H906 H 0.5947 0.92227 0.95815 0.0
H907 H 0.57855 0.96064 0.93275 0.0
C908 C 0.65844 0.89165 0.02951 0.0
C909 C 0.67774 0.885 0.99509 0.0
C910 C 0.63963 0.90322 1.0011 0.0
C911 C 0.63977 0.90787 0.93802 0.0
C912 C 0.65607 0.89631 0.90245 0.0
C913 C 0.67486 0.8846 0.93094 0.0
C914 C 0.63196 0.9678 0.8668 0.0
C915 C 0.6094 0.97365 0.88555 0.0
C916 C 0.64104 0.94579 0.88061 0.0
C917 C 0.62787 0.92905 0.91384 0.0
C918 C 0.60519 0.93472 0.93206 0.0
C919 C 0.59607 0.9568 0.9181 0.0
H920 H 0.35001 0.68723 1.00692 0.0
H921 H 0.3912 0.71777 0.86231 0.0
H922 H 0.34325 0.65163 0.94603 0.0
H923 H 0.38493 0.68256 0.80272 0.0
H924 H 0.38587 0.61601 0.71189 0.0
H925 H 0.36648 0.65075 0.7492 0.0
H926 H 0.37252 0.62331 0.93377 0.0
H927 H 0.39123 0.58887 0.89659 0.0
C928 C 0.35695 0.68667 0.9614 0.0
C929 C 0.37168 0.70507 0.94025 0.0
C930 C 0.35314 0.66626 0.92655 0.0
C931 C 0.36422 0.66385 0.87032 0.0
C932 C 0.37609 0.6836 0.84571 0.0
C933 C 0.37974 0.70399 0.88024 0.0
C934 C 0.38243 0.61721 0.76019 0.0
C935 C 0.3905 0.59992 0.80141 0.0
C936 C 0.3713 0.63708 0.78159 0.0
C937 C 0.36832 0.64015 0.8447 0.0
C938 C 0.37421 0.62163 0.88483 0.0
C939 C 0.38514 0.60176 0.86343 0.0
H940 H 0.85778 0.63408 0.92451 0.0
H941 H 0.88285 0.62537 0.1127 0.0
H942 H 0.89145 0.61317 0.89108 0.0
H943 H 0.91757 0.60738 0.07815 0.0
H944 H 0.93418 0.53198 0.01493 0.0
H945 H 0.91693 0.56786 0.04996 0.0
H946 H 0.92974 0.60091 0.87491 0.0
H947 H 0.94614 0.56434 0.83937 0.0
C948 C 0.87048 0.6283 0.95904 0.0
C949 C 0.86588 0.62962 0.02189 0.0
C950 C 0.8903 0.61668 0.93947 0.0
C951 C 0.90648 0.60714 0.9824 0.0
C952 C 0.90464 0.61319 0.0441 0.0
C953 C 0.88448 0.62401 0.06383 0.0
C954 C 0.93366 0.54706 0.98444 0.0
C955 C 0.94087 0.54525 0.92412 0.0
C956 C 0.92398 0.56783 1.00457 0.0
C957 C 0.92162 0.5874 0.96502 0.0
C958 C 0.93068 0.58609 0.9061 0.0
C959 C 0.94004 0.56515 0.88572 0.0
H960 H 0.07228 0.18864 0.89229 0.0
H961 H 1.00426 0.17563 0.97078 0.0
H962 H 0.06676 0.15352 0.82989 0.0
H963 H 0.99847 0.14036 0.90661 0.0
H964 H 0.9899 0.08836 0.74009 0.0
H965 H 0.99317 0.12455 0.8003 0.0
H966 H 0.06633 0.1107 0.84397 0.0
H967 H 0.06303 0.07445 0.78406 0.0
C968 C 0.056 0.17836 0.89621 0.0
C969 C 0.0389 0.18508 0.93785 0.0
C970 C 0.05288 0.15801 0.86027 0.0
C971 C 0.03237 0.14356 0.86358 0.0
C972 C 0.01457 0.1509 0.90259 0.0
C973 C 0.01782 0.17129 0.9393 0.0
C974 C 1.00675 0.09298 0.76241 0.0
C975 C 0.02624 0.07827 0.75655 0.0
C976 C 1.00856 0.11378 0.79747 0.0
C977 C 0.03003 0.12088 0.82726 0.0
C978 C 0.04952 0.10616 0.82133 0.0
C979 C 0.04762 0.08518 0.787 0.0
H980 H 0.36206 1.00714 0.99637 0.0
H981 H 0.34118 0.06487 0.88024 0.0
H982 H 0.39518 0.99985 0.92911 0.0
H983 H 0.37436 0.05816 0.81471 0.0
H984 H 0.45452 0.06123 0.76974 0.0
H985 H 0.41902 0.06402 0.83024 0.0
H986 H 0.40752 0.9889 0.81829 0.0
H987 H 0.44268 0.98617 0.75629 0.0
C988 C 0.36392 0.01772 0.9554 0.0
C989 C 0.34848 0.03641 0.94372 0.0
C990 C 0.3832 0.01378 0.9171 0.0
C991 C 0.38796 0.02871 0.86666 0.0
C992 C 0.37173 0.0465 0.85337 0.0
C993 C 0.35236 0.05012 0.89067 0.0
C994 C 0.44446 0.04527 0.77974 0.0
C995 C 0.4517 0.02349 0.75738 0.0
C996 C 0.42393 0.04686 0.81444 0.0
C997 C 0.41008 0.02669 0.82952 0.0
C998 C 0.41757 1.00485 0.80813 0.0
C999 C 0.43779 1.00332 0.77212 0.0
H1000 H 0.50492 0.36418 0.99764 0.0
H1001 H 0.54063 0.32769 0.85746 0.0
H1002 H 0.49899 0.39753 0.92794 0.0
H1003 H 0.5344 0.36062 0.78699 0.0
H1004 H 0.55103 0.43538 0.7134 0.0
H1005 H 0.55068 0.39927 0.77417 0.0
H1006 H 0.48167 0.41526 0.83811 0.0
H1007 H 0.48223 0.45158 0.77814 0.0
C1008 C 0.5105 0.36282 0.95092 0.0
C1009 C 0.52274 0.34298 0.93278 0.0
C1010 C 0.50733 0.3821 0.91086 0.0
C1011 C 0.51652 0.38219 0.85154 0.0
C1012 C 0.52746 0.36163 0.83241 0.0
C1013 C 0.53062 0.34243 0.87244 0.0
C1014 C 0.53566 0.43116 0.73993 0.0
C1015 C 0.51669 0.44665 0.74043 0.0
C1016 C 0.53537 0.41024 0.77478 0.0
C1017 C 0.51611 0.40402 0.81155 0.0
C1018 C 0.49697 0.41936 0.81125 0.0
C1019 C 0.49724 0.44025 0.77628 0.0
H1020 H 0.19227 0.51388 0.94181 0.0
H1021 H 0.18679 0.43986 0.9003 0.0
H1022 H 0.1565 0.5205 0.87846 0.0
H1023 H 0.15165 0.44635 0.83584 0.0
H1024 H 0.07381 0.45952 0.78985 0.0
H1025 H 0.11145 0.45388 0.84444 0.0
H1026 H 0.13672 0.52186 0.78121 0.0
H1027 H 0.09872 0.52782 0.72874 0.0
C1028 C 0.18377 0.49912 0.9179 0.0
C1029 C 0.19239 0.47633 0.92647 0.0
C1030 C 0.16316 0.50286 0.88152 0.0
C1031 C 0.15067 0.48392 0.85235 0.0
C1032 C 0.16015 0.46135 0.85863 0.0
C1033 C 0.18055 0.45763 0.89521 0.0
C1034 C 0.08739 0.47325 0.78726 0.0
C1035 C 0.08303 0.49411 0.75436 0.0
C1036 C 0.1092 0.46996 0.81842 0.0
C1037 C 0.1275 0.48736 0.81754 0.0
C1038 C 0.12317 0.50812 0.78399 0.0
C1039 C 0.10131 0.51145 0.75313 0.0
H1040 H 0.0252 0.84054 0.37548 0.0
H1041 H 0.95002 0.84565 0.39675 0.0
H1042 H 0.03183 0.8754 0.44093 0.0
H1043 H 0.95663 0.88056 0.45908 0.0
H1044 H 0.97539 0.95902 0.49793 0.0
H1045 H 0.97064 0.92237 0.4403 0.0
H1046 H 0.02655 0.89192 0.55063 0.0
H1047 H 0.0311 0.92862 0.60915 0.0
C1048 C 1.01008 0.84881 0.39426 0.0
C1049 C 0.987 0.84021 0.37897 0.0
C1050 C 0.01389 0.86896 0.43173 0.0
C1051 C 0.99474 0.88128 0.45459 0.0
C1052 C 0.97184 0.87208 0.44134 0.0
C1053 C 0.96807 0.8519 0.40503 0.0
C1054 C 0.98664 0.94453 0.51038 0.0
C1055 C 1.00351 0.94698 0.559 0.0
C1056 C 0.98387 0.92338 0.47722 0.0
C1057 C 0.99817 0.90394 0.49047 0.0
C1058 C 0.01526 0.90642 0.53863 0.0
C1059 C 0.01772 0.92749 0.57271 0.0
H1060 H 0.68643 0.96236 0.41723 0.0
H1061 H 0.67795 0.03257 0.34452 0.0
H1062 H 0.65138 0.96645 0.47674 0.0
H1063 H 0.6436 0.03708 0.40876 0.0
H1064 H 0.59741 0.03781 0.5928 0.0
H1065 H 0.63292 0.03575 0.53162 0.0
H1066 H 0.60495 0.97214 0.44711 0.0
H1067 H 0.56901 0.97468 0.50631 0.0
C1068 C 0.67723 0.97874 0.41316 0.0
C1069 C 0.68529 0.99685 0.37345 0.0
C1070 C 0.657 0.98109 0.44829 0.0
C1071 C 0.64424 1.00196 0.44741 0.0
C1072 C 0.65284 0.02066 0.4107 0.0
C1073 C 0.67282 0.01809 0.37397 0.0
C1074 C 0.59875 0.02334 0.56121 0.0
C1075 C 0.5801 1.00636 0.55513 0.0
C1076 C 0.61915 0.02227 0.52569 0.0
C1077 C 0.62201 1.00379 0.48402 0.0
C1078 C 0.60353 0.98663 0.47861 0.0
C1079 C 0.58283 0.98809 0.51273 0.0
H1080 H 0.52247 0.66093 0.29157 0.0
H1081 H 0.49322 0.70076 0.43607 0.0
H1082 H 0.52999 0.62857 0.36265 0.0
H1083 H 0.50152 0.6689 0.50868 0.0
H1084 H 0.48995 0.59633 0.60134 0.0
H1085 H 0.48762 0.63163 0.53747 0.0
H1086 H 0.54981 0.61111 0.44417 0.0
H1087 H 0.55143 0.57554 0.50611 0.0
C1088 C 0.51868 0.66319 0.33938 0.0
C1089 C 0.50788 0.68374 0.3584 0.0
C1090 C 0.52283 0.64449 0.3805 0.0
C1091 C 0.51626 0.64567 0.44222 0.0
C1092 C 0.5065 0.66685 0.46169 0.0
C1093 C 0.50218 0.68546 0.42033 0.0
C1094 C 0.50324 0.59944 0.56751 0.0
C1095 C 0.52078 0.58282 0.559 0.0
C1096 C 0.50201 0.61989 0.53076 0.0
C1097 C 0.51844 0.62456 0.48461 0.0
C1098 C 0.53642 0.6082 0.47776 0.0
C1099 C 0.53747 0.5877 0.51392 0.0
H1100 H 0.83225 0.57102 0.50348 0.0
H1101 H 0.84517 0.51795 0.36893 0.0
H1102 H 0.8685 0.56085 0.55961 0.0
H1103 H 0.88096 0.50691 0.42784 0.0
H1104 H 0.93292 0.48712 0.6035 0.0
H1105 H 0.8943 0.49287 0.55151 0.0
H1106 H 0.91442 0.56503 0.51358 0.0
H1107 H 0.95325 0.55916 0.56338 0.0
C1108 C 0.84256 0.55691 0.48617 0.0
C1109 C 0.83585 0.54571 0.43052 0.0
C1110 C 0.86335 0.55107 0.51867 0.0
C1111 C 0.87777 0.53335 0.49769 0.0
C1112 C 0.87021 0.52072 0.44502 0.0
C1113 C 0.84956 0.52692 0.41156 0.0
C1114 C 0.92911 0.50423 0.5841 0.0
C1115 C 0.94625 0.5227 0.58773 0.0
C1116 C 0.90703 0.50744 0.55407 0.0
C1117 C 0.90132 0.5294 0.52851 0.0
C1118 C 0.9183 0.54793 0.53295 0.0
C1119 C 0.94056 0.54455 0.56141 0.0
loop_
_geom_bond_atom_site_label_1
_geom_bond_atom_site_label_2
_geom_bond_distance
_geom_bond_site_symmetry_2
_ccdc_geom_bond_type
C0 C1 1.391 . S
C0 C4 1.391 . S
C0 H42 0.948 . S
C1 C0 1.391 . S
C1 C2 1.391 . S
C2 C1 1.391 . S
C2 H58 0.947 . S
C2 C59 1.392 . S
C3 C4 1.391 . S
C3 C7 1.397 . S
C3 C59 1.419 . S
C4 C0 1.391 . S
C4 C3 1.391 . S
C4 C5 1.399 . S
C5 C4 1.399 . S
C5 C8 1.396 . S
C5 C17 1.453 . S
C5 C18 1.684 . S
H6 C30 0.948 . S
C7 C3 1.397 . S
C7 C8 1.394 . S
C7 C26 1.723 . S
C8 C5 1.396 . S
C8 C7 1.394 . S
C8 C38 1.723 . S
H9 C32 0.947 . S
H10 C33 0.948 . S
H11 C39 0.982 . S
H12 C40 0.979 . S
H13 C40 0.980 . S
H14 C40 0.983 . S
H15 C39 0.979 . S
H16 C39 0.977 . S
C17 C5 1.453 . S
C17 H46 0.982 . S
C17 H47 0.979 . S
C17 H48 0.977 . S
C18 C5 1.684 . S
C18 H43 0.979 . S
C18 H44 0.980 . S
C18 H45 0.983 . S
C19 C20 1.391 . S
C19 C24 1.391 . S
C19 H49 0.948 . S
C20 C19 1.391 . S
C20 C21 1.391 . S
C21 C20 1.391 . S
C21 C22 1.392 . S
C21 H50 0.947 1_554 S
C22 C21 1.392 . S
C22 C23 1.419 . S
C22 H51 0.948 . S
C23 C22 1.419 . S
C23 C24 1.391 . S
C23 C27 1.397 . S
C24 C19 1.391 . S
C24 C23 1.391 . S
C24 C25 1.399 . S
C25 C24 1.399 . S
C25 C26 1.396 . S
C25 C28 1.453 . S
C25 C29 1.684 . S
C26 C7 1.723 . S
C26 C25 1.396 . S
C26 C27 1.394 . S
C27 C23 1.397 . S
C27 C26 1.394 . S
C27 C37 1.723 . S
C28 C25 1.453 . S
C28 H52 0.982 . S
C28 H53 0.979 . S
C28 H54 0.977 . S
C29 C25 1.684 . S
C29 H55 0.979 . S
C29 H56 0.980 . S
C29 H57 0.983 . S
C30 H6 0.948 . S
C30 C31 1.391 . S
C30 C35 1.391 . S
C31 C30 1.391 . S
C31 C32 1.391 . S
C32 H9 0.947 . S
C32 C31 1.391 . S
C32 C33 1.392 . S
C33 H10 0.948 . S
C33 C32 1.392 . S
C33 C34 1.419 . S
C34 C33 1.419 . S
C34 C35 1.391 . S
C34 C38 1.397 . S
C35 C30 1.391 . S
C35 C34 1.391 . S
C35 C36 1.399 . S
C36 C35 1.399 . S
C36 C37 1.396 . S
C36 C39 1.453 . S
C36 C40 1.684 . S
C37 C27 1.723 . S
C37 C36 1.396 . S
C37 C38 1.394 . S
C38 C8 1.723 . S
C38 C34 1.397 . S
C38 C37 1.394 . S
C39 H11 0.982 . S
C39 H15 0.979 . S
C39 H16 0.977 . S
C39 C36 1.453 . S
C40 H12 0.979 . S
C40 H13 0.980 . S
C40 H14 0.983 . S
C40 C36 1.684 . S
H41 C59 0.948 . S
H42 C0 0.948 . S
H43 C18 0.979 . S
H44 C18 0.980 . S
H45 C18 0.983 . S
H46 C17 0.982 . S
H47 C17 0.979 . S
H48 C17 0.977 . S
H49 C19 0.948 . S
H50 C21 0.947 1_556 S
H51 C22 0.948 . S
H52 C28 0.982 . S
H53 C28 0.979 . S
H54 C28 0.977 . S
H55 C29 0.979 . S
H56 C29 0.980 . S
H57 C29 0.983 . S
H58 C2 0.947 . S
C59 C2 1.392 . S
C59 C3 1.419 . S
C59 H41 0.948 . S
C60 C61 1.391 . S
C60 C64 1.391 . S
C60 H102 0.948 . S
C61 C60 1.391 . S
C61 C62 1.391 . S
C62 C61 1.391 . S
C62 H118 0.947 . S
C62 C119 1.392 . S
C63 C64 1.391 . S
C63 C67 1.397 . S
C63 C119 1.419 . S
C64 C60 1.391 . S
C64 C63 1.391 . S
C64 C65 1.399 . S
C65 C64 1.399 . S
C65 C68 1.396 . S
C65 C77 1.453 . S
C65 C78 1.684 . S
H66 C90 0.948 . S
C67 C63 1.397 . S
C67 C68 1.394 . S
C67 C86 1.723 . S
C68 C65 1.396 . S
C68 C67 1.394 . S
C68 C98 1.723 . S
H69 C92 0.947 . S
H70 C93 0.948 . S
H71 C99 0.982 . S
H72 C100 0.979 . S
H73 C100 0.980 . S
H74 C100 0.983 . S
H75 C99 0.979 . S
H76 C99 0.977 . S
C77 C65 1.453 . S
C77 H106 0.982 . S
C77 H107 0.979 . S
C77 H108 0.977 . S
C78 C65 1.684 . S
C78 H103 0.979 . S
C78 H104 0.980 . S
C78 H105 0.983 . S
C79 C80 1.391 . S
C79 C84 1.391 . S
C79 H109 0.948 . S
C80 C79 1.391 . S
C80 C81 1.391 . S
C81 C80 1.391 . S
C81 C82 1.392 . S
C81 H110 0.947 . S
C82 C81 1.392 . S
C82 C83 1.419 . S
C82 H111 0.948 . S
C83 C82 1.419 . S
C83 C84 1.391 . S
C83 C87 1.397 . S
C84 C79 1.391 . S
C84 C83 1.391 . S
C84 C85 1.399 . S
C85 C84 1.399 . S
C85 C86 1.396 . S
C85 C88 1.453 . S
C85 C89 1.684 . S
C86 C67 1.723 . S
C86 C85 1.396 . S
C86 C87 1.394 . S
C87 C83 1.397 . S
C87 C86 1.394 . S
C87 C97 1.723 . S
C88 C85 1.453 . S
C88 H112 0.982 . S
C88 H113 0.979 . S
C88 H114 0.977 . S
C89 C85 1.684 . S
C89 H115 0.979 . S
C89 H116 0.980 . S
C89 H117 0.983 . S
C90 H66 0.948 . S
C90 C91 1.391 . S
C90 C95 1.391 . S
C91 C90 1.391 . S
C91 C92 1.391 . S
C92 H69 0.947 . S
C92 C91 1.391 . S
C92 C93 1.392 . S
C93 H70 0.948 . S
C93 C92 1.392 . S
C93 C94 1.419 . S
C94 C93 1.419 . S
C94 C95 1.391 . S
C94 C98 1.397 . S
C95 C90 1.391 . S
C95 C94 1.391 . S
C95 C96 1.399 . S
C96 C95 1.399 . S
C96 C97 1.396 . S
C96 C99 1.453 . S
C96 C100 1.684 . S
C97 C87 1.723 . S
C97 C96 1.396 . S
C97 C98 1.394 . S
C98 C68 1.723 . S
C98 C94 1.397 . S
C98 C97 1.394 . S
C99 H71 0.982 . S
C99 H75 0.979 . S
C99 H76 0.977 . S
C99 C96 1.453 . S
C100 H72 0.979 . S
C100 H73 0.980 . S
C100 H74 0.983 . S
C100 C96 1.684 . S
H101 C119 0.948 . S
H102 C60 0.948 . S
H103 C78 0.979 . S
H104 C78 0.980 . S
H105 C78 0.983 . S
H106 C77 0.982 . S
H107 C77 0.979 . S
H108 C77 0.977 . S
H109 C79 0.948 . S
H110 C81 0.947 . S
H111 C82 0.948 . S
H112 C88 0.982 . S
H113 C88 0.979 . S
H114 C88 0.977 . S
H115 C89 0.979 . S
H116 C89 0.980 . S
H117 C89 0.983 . S
H118 C62 0.947 . S
C119 C62 1.392 . S
C119 C63 1.419 . S
C119 H101 0.948 . S
C120 C121 1.391 . S
C120 C124 1.391 . S
C120 H162 0.948 . S
C121 C120 1.391 . S
C121 C122 1.391 . S
C122 C121 1.391 . S
C122 H178 0.947 . S
C122 C179 1.392 . S
C123 C124 1.391 . S
C123 C127 1.397 . S
C123 C179 1.419 . S
C124 C120 1.391 . S
C124 C123 1.391 . S
C124 C125 1.399 . S
C125 C124 1.399 . S
C125 C128 1.396 . S
C125 C137 1.453 . S
C125 C138 1.684 . S
H126 C150 0.948 . S
C127 C123 1.397 . S
C127 C128 1.394 . S
C127 C146 1.723 . S
C128 C125 1.396 . S
C128 C127 1.394 . S
C128 C158 1.723 . S
H129 C152 0.947 . S
H130 C153 0.948 . S
H131 C159 0.982 . S
H132 C160 0.979 . S
H133 C160 0.980 . S
H134 C160 0.983 . S
H135 C159 0.979 . S
H136 C159 0.977 . S
C137 C125 1.453 . S
C137 H166 0.982 . S
C137 H167 0.979 . S
C137 H168 0.977 . S
C138 C125 1.684 . S
C138 H163 0.979 . S
C138 H164 0.980 . S
C138 H165 0.983 . S
C139 C140 1.391 . S
C139 C144 1.391 . S
C139 H169 0.948 . S
C140 C139 1.391 . S
C140 C141 1.391 . S
C141 C140 1.391 . S
C141 C142 1.392 . S
C141 H170 0.947 . S
C142 C141 1.392 . S
C142 C143 1.419 . S
C142 H171 0.948 . S
C143 C142 1.419 . S
C143 C144 1.391 . S
C143 C147 1.397 . S
C144 C139 1.391 . S
C144 C143 1.391 . S
C144 C145 1.399 . S
C145 C144 1.399 . S
C145 C146 1.396 . S
C145 C148 1.453 . S
C145 C149 1.684 . S
C146 C127 1.723 . S
C146 C145 1.396 . S
C146 C147 1.394 . S
C147 C143 1.397 . S
C147 C146 1.394 . S
C147 C157 1.723 . S
C148 C145 1.453 . S
C148 H172 0.982 . S
C148 H173 0.979 . S
C148 H174 0.977 . S
C149 C145 1.684 . S
C149 H175 0.979 . S
C149 H176 0.980 . S
C149 H177 0.983 . S
C150 H126 0.948 . S
C150 C151 1.391 . S
C150 C155 1.391 . S
C151 C150 1.391 . S
C151 C152 1.391 . S
C152 H129 0.947 . S
C152 C151 1.391 . S
C152 C153 1.392 . S
C153 H130 0.948 . S
C153 C152 1.392 . S
C153 C154 1.419 . S
C154 C153 1.419 . S
C154 C155 1.391 . S
C154 C158 1.397 . S
C155 C150 1.391 . S
C155 C154 1.391 . S
C155 C156 1.399 . S
C156 C155 1.399 . S
C156 C157 1.396 . S
C156 C159 1.453 . S
C156 C160 1.684 . S
C157 C147 1.723 . S
C157 C156 1.396 . S
C157 C158 1.394 . S
C158 C128 1.723 . S
C158 C154 1.397 . S
C158 C157 1.394 . S
C159 H131 0.982 . S
C159 H135 0.979 . S
C159 H136 0.977 . S
C159 C156 1.453 . S
C160 H132 0.979 . S
C160 H133 0.980 . S
C160 H134 0.983 . S
C160 C156 1.684 . S
H161 C179 0.948 . S
H162 C120 0.948 . S
H163 C138 0.979 . S
H164 C138 0.980 . S
H165 C138 0.983 . S
H166 C137 0.982 . S
H167 C137 0.979 . S
H168 C137 0.977 . S
H169 C139 0.948 . S
H170 C141 0.947 . S
H171 C142 0.948 . S
H172 C148 0.982 . S
H173 C148 0.979 . S
H174 C148 0.977 . S
H175 C149 0.979 . S
H176 C149 0.980 . S
H177 C149 0.983 . S
H178 C122 0.947 . S
C179 C122 1.392 . S
C179 C123 1.419 . S
C179 H161 0.948 . S
C180 C181 1.391 . S
C180 C184 1.391 . S
C180 H222 0.948 . S
C181 C180 1.391 . S
C181 C182 1.391 . S
C182 C181 1.391 . S
C182 H238 0.947 . S
C182 C239 1.392 . S
C183 C184 1.391 . S
C183 C187 1.397 . S
C183 C239 1.419 . S
C184 C180 1.391 . S
C184 C183 1.391 . S
C184 C185 1.399 . S
C185 C184 1.399 . S
C185 C188 1.396 . S
C185 C197 1.453 . S
C185 C198 1.684 . S
H186 C210 0.948 . S
C187 C183 1.397 . S
C187 C188 1.394 . S
C187 C206 1.723 . S
C188 C185 1.396 . S
C188 C187 1.394 . S
C188 C218 1.723 . S
H189 C212 0.947 . S
H190 C213 0.948 . S
H191 C219 0.982 . S
H192 C220 0.979 . S
H193 C220 0.980 . S
H194 C220 0.983 . S
H195 C219 0.979 . S
H196 C219 0.977 . S
C197 C185 1.453 . S
C197 H226 0.982 . S
C197 H227 0.979 . S
C197 H228 0.977 . S
C198 C185 1.684 . S
C198 H223 0.979 . S
C198 H224 0.980 . S
C198 H225 0.983 . S
C199 C200 1.391 . S
C199 C204 1.391 . S
C199 H229 0.948 . S
C200 C199 1.391 . S
C200 C201 1.391 . S
C201 C200 1.391 . S
C201 C202 1.392 . S
C201 H230 0.947 1_554 S
C202 C201 1.392 . S
C202 C203 1.419 . S
C202 H231 0.948 . S
C203 C202 1.419 . S
C203 C204 1.391 . S
C203 C207 1.397 . S
C204 C199 1.391 . S
C204 C203 1.391 . S
C204 C205 1.399 . S
C205 C204 1.399 . S
C205 C206 1.396 . S
C205 C208 1.453 . S
C205 C209 1.684 . S
C206 C187 1.723 . S
C206 C205 1.396 . S
C206 C207 1.394 . S
C207 C203 1.397 . S
C207 C206 1.394 . S
C207 C217 1.723 . S
C208 C205 1.453 . S
C208 H232 0.982 . S
C208 H233 0.979 . S
C208 H234 0.977 . S
C209 C205 1.684 . S
C209 H235 0.979 . S
C209 H236 0.980 . S
C209 H237 0.983 . S
C210 H186 0.948 . S
C210 C211 1.391 . S
C210 C215 1.391 . S
C211 C210 1.391 . S
C211 C212 1.391 . S
C212 H189 0.947 . S
C212 C211 1.391 . S
C212 C213 1.392 . S
C213 H190 0.948 . S
C213 C212 1.392 . S
C213 C214 1.419 . S
C214 C213 1.419 . S
C214 C215 1.391 . S
C214 C218 1.397 . S
C215 C210 1.391 . S
C215 C214 1.391 . S
C215 C216 1.399 . S
C216 C215 1.399 . S
C216 C217 1.396 . S
C216 C219 1.453 . S
C216 C220 1.684 . S
C217 C207 1.723 . S
C217 C216 1.396 . S
C217 C218 1.394 . S
C218 C188 1.723 . S
C218 C214 1.397 . S
C218 C217 1.394 . S
C219 H191 0.982 . S
C219 H195 0.979 . S
C219 H196 0.977 . S
C219 C216 1.453 . S
C220 H192 0.979 . S
C220 H193 0.980 . S
C220 H194 0.983 . S
C220 C216 1.684 . S
H221 C239 0.948 . S
H222 C180 0.948 . S
H223 C198 0.979 . S
H224 C198 0.980 . S
H225 C198 0.983 . S
H226 C197 0.982 . S
H227 C197 0.979 . S
H228 C197 0.977 . S
H229 C199 0.948 . S
H230 C201 0.947 1_556 S
H231 C202 0.948 . S
H232 C208 0.982 . S
H233 C208 0.979 . S
H234 C208 0.977 . S
H235 C209 0.979 . S
H236 C209 0.980 . S
H237 C209 0.983 . S
H238 C182 0.947 . S
C239 C182 1.392 . S
C239 C183 1.419 . S
C239 H221 0.948 . S
C240 C241 1.391 . S
C240 C244 1.391 . S
C240 H282 0.948 . S
C241 C240 1.391 . S
C241 C242 1.391 . S
C242 C241 1.391 . S
C242 H298 0.947 . S
C242 C299 1.392 . S
C243 C244 1.391 . S
C243 C247 1.397 . S
C243 C299 1.419 . S
C244 C240 1.391 . S
C244 C243 1.391 . S
C244 C245 1.399 . S
C245 C244 1.399 . S
C245 C248 1.396 . S
C245 C257 1.453 1_554 S
C245 C258 1.684 1_554 S
H246 C270 0.948 . S
C247 C243 1.397 . S
C247 C248 1.394 . S
C247 C266 1.723 . S
C248 C245 1.396 . S
C248 C247 1.394 . S
C248 C278 1.723 . S
H249 C272 0.947 . S
H250 C273 0.948 . S
H251 C279 0.982 . S
H252 C280 0.979 . S
H253 C280 0.980 . S
H254 C280 0.983 1_556 S
H255 C279 0.979 1_556 S
H256 C279 0.977 . S
C257 C245 1.453 1_556 S
C257 H286 0.982 1_556 S
C257 H287 0.979 . S
C257 H288 0.977 . S
C258 C245 1.684 1_556 S
C258 H283 0.979 . S
C258 H284 0.980 . S
C258 H285 0.983 . S
C259 C260 1.391 . S
C259 C264 1.391 . S
C259 H289 0.948 . S
C260 C259 1.391 . S
C260 C261 1.391 . S
C261 C260 1.391 . S
C261 C262 1.392 . S
C261 H290 0.947 . S
C262 C261 1.392 . S
C262 C263 1.419 . S
C262 H291 0.948 . S
C263 C262 1.419 . S
C263 C264 1.391 . S
C263 C267 1.397 . S
C264 C259 1.391 . S
C264 C263 1.391 . S
C264 C265 1.399 . S
C265 C264 1.399 . S
C265 C266 1.396 . S
C265 C268 1.453 . S
C265 C269 1.684 . S
C266 C247 1.723 . S
C266 C265 1.396 . S
C266 C267 1.394 . S
C267 C263 1.397 . S
C267 C266 1.394 . S
C267 C277 1.723 . S
C268 C265 1.453 . S
C268 H292 0.982 . S
C268 H293 0.979 . S
C268 H294 0.977 . S
C269 C265 1.684 . S
C269 H295 0.979 . S
C269 H296 0.980 . S
C269 H297 0.983 . S
C270 H246 0.948 . S
C270 C271 1.391 . S
C270 C275 1.391 . S
C271 C270 1.391 . S
C271 C272 1.391 . S
C272 H249 0.947 . S
C272 C271 1.391 . S
C272 C273 1.392 . S
C273 H250 0.948 . S
C273 C272 1.392 . S
C273 C274 1.419 . S
C274 C273 1.419 . S
C274 C275 1.391 . S
C274 C278 1.397 1_556 S
C275 C270 1.391 . S
C275 C274 1.391 . S
C275 C276 1.399 . S
C276 C275 1.399 . S
C276 C277 1.396 1_556 S
C276 C279 1.453 1_556 S
C276 C280 1.684 1_556 S
C277 C267 1.723 . S
C277 C276 1.396 1_554 S
C277 C278 1.394 . S
C278 C248 1.723 . S
C278 C274 1.397 1_554 S
C278 C277 1.394 . S
C279 H251 0.982 . S
C279 H255 0.979 1_554 S
C279 H256 0.977 . S
C279 C276 1.453 1_554 S
C280 H252 0.979 . S
C280 H253 0.980 . S
C280 H254 0.983 1_554 S
C280 C276 1.684 1_554 S
H281 C299 0.948 . S
H282 C240 0.948 . S
H283 C258 0.979 . S
H284 C258 0.980 . S
H285 C258 0.983 . S
H286 C257 0.982 1_554 S
H287 C257 0.979 . S
H288 C257 0.977 . S
H289 C259 0.948 . S
H290 C261 0.947 . S
H291 C262 0.948 . S
H292 C268 0.982 . S
H293 C268 0.979 . S
H294 C268 0.977 . S
H295 C269 0.979 . S
H296 C269 0.980 . S
H297 C269 0.983 . S
H298 C242 0.947 . S
C299 C242 1.392 . S
C299 C243 1.419 . S
C299 H281 0.948 . S
C300 C301 1.391 . S
C300 C304 1.391 . S
C300 H342 0.948 . S
C301 C300 1.391 . S
C301 C302 1.391 . S
C302 C301 1.391 . S
C302 H358 0.947 . S
C302 C359 1.392 . S
C303 C304 1.391 . S
C303 C307 1.397 . S
C303 C359 1.419 . S
C304 C300 1.391 . S
C304 C303 1.391 . S
C304 C305 1.399 . S
C305 C304 1.399 . S
C305 C308 1.396 . S
C305 C317 1.453 . S
C305 C318 1.684 . S
H306 C330 0.948 . S
C307 C303 1.397 . S
C307 C308 1.394 . S
C307 C326 1.718 1_554 S
C308 C305 1.396 . S
C308 C307 1.394 . S
C308 C338 1.723 . S
H309 C332 0.947 . S
H310 C333 0.948 . S
H311 C339 0.982 . S
H312 C340 0.979 . S
H313 C340 0.980 . S
H314 C340 0.983 . S
H315 C339 0.979 . S
H316 C339 0.977 . S
C317 C305 1.453 . S
C317 H346 0.982 . S
C317 H347 0.979 . S
C317 H348 0.977 . S
C318 C305 1.684 . S
C318 H343 0.979 . S
C318 H344 0.980 . S
C318 H345 0.983 . S
C319 C320 1.391 . S
C319 C324 1.391 . S
C319 H349 0.948 . S
C320 C319 1.391 . S
C320 C321 1.391 . S
C321 C320 1.391 . S
C321 C322 1.392 . S
C321 H350 0.947 . S
C322 C321 1.392 . S
C322 C323 1.419 . S
C322 H351 0.948 . S
C323 C322 1.419 . S
C323 C324 1.391 . S
C323 C327 1.397 . S
C324 C319 1.391 . S
C324 C323 1.391 . S
C324 C325 1.399 . S
C325 C324 1.399 . S
C325 C326 1.400 . S
C325 C328 1.453 . S
C325 C329 1.684 . S
C326 C307 1.718 1_556 S
C326 C325 1.400 . S
C326 C327 1.397 . S
C327 C323 1.397 . S
C327 C326 1.397 . S
C327 C337 1.717 1_556 S
C328 C325 1.453 . S
C328 H352 0.982 . S
C328 H353 0.979 . S
C328 H354 0.977 1_556 S
C329 C325 1.684 . S
C329 H355 0.979 . S
C329 H356 0.980 1_556 S
C329 H357 0.983 . S
C330 H306 0.948 . S
C330 C331 1.391 . S
C330 C335 1.391 . S
C331 C330 1.391 . S
C331 C332 1.391 . S
C332 H309 0.947 . S
C332 C331 1.391 . S
C332 C333 1.392 . S
C333 H310 0.948 . S
C333 C332 1.392 . S
C333 C334 1.419 . S
C334 C333 1.419 . S
C334 C335 1.391 . S
C334 C338 1.397 . S
C335 C330 1.391 . S
C335 C334 1.391 . S
C335 C336 1.399 1_554 S
C336 C335 1.399 1_556 S
C336 C337 1.393 1_556 S
C336 C339 1.453 . S
C336 C340 1.684 . S
C337 C327 1.717 1_554 S
C337 C336 1.393 1_554 S
C337 C338 1.411 . S
C338 C308 1.723 . S
C338 C334 1.397 . S
C338 C337 1.411 . S
C339 H311 0.982 . S
C339 H315 0.979 . S
C339 H316 0.977 . S
C339 C336 1.453 . S
C340 H312 0.979 . S
C340 H313 0.980 . S
C340 H314 0.983 . S
C340 C336 1.684 . S
H341 C359 0.948 . S
H342 C300 0.948 . S
H343 C318 0.979 . S
H344 C318 0.980 . S
H345 C318 0.983 . S
H346 C317 0.982 . S
H347 C317 0.979 . S
H348 C317 0.977 . S
H349 C319 0.948 . S
H350 C321 0.947 . S
H351 C322 0.948 . S
H352 C328 0.982 . S
H353 C328 0.979 . S
H354 C328 0.977 1_554 S
H355 C329 0.979 . S
H356 C329 0.980 1_554 S
H357 C329 0.983 . S
H358 C302 0.947 . S
C359 C302 1.392 . S
C359 C303 1.419 . S
C359 H341 0.948 . S
C360 C361 1.391 . S
C360 C364 1.391 . S
C360 H402 0.948 . S
C361 C360 1.391 . S
C361 C362 1.391 . S
C362 C361 1.391 . S
C362 H418 0.947 . S
C362 C419 1.392 . S
C363 C364 1.391 . S
C363 C367 1.397 . S
C363 C419 1.419 . S
C364 C360 1.391 . S
C364 C363 1.391 . S
C364 C365 1.399 . S
C365 C364 1.399 . S
C365 C368 1.396 . S
C365 C377 1.453 . S
C365 C378 1.684 . S
H366 C390 0.948 . S
C367 C363 1.397 . S
C367 C368 1.394 . S
C367 C386 1.723 1_556 S
C368 C365 1.396 . S
C368 C367 1.394 . S
C368 C398 1.723 1_556 S
H369 C392 0.947 . S
H370 C393 0.948 . S
H371 C399 0.982 . S
H372 C400 0.979 . S
H373 C400 0.980 . S
H374 C400 0.983 . S
H375 C399 0.979 . S
H376 C399 0.977 . S
C377 C365 1.453 . S
C377 H406 0.982 . S
C377 H407 0.979 . S
C377 H408 0.977 . S
C378 C365 1.684 . S
C378 H403 0.979 . S
C378 H404 0.980 . S
C378 H405 0.983 . S
C379 C380 1.391 . S
C379 C384 1.391 . S
C379 H409 0.948 . S
C380 C379 1.391 . S
C380 C381 1.391 . S
C381 C380 1.391 . S
C381 C382 1.392 . S
C381 H410 0.947 . S
C382 C381 1.392 . S
C382 C383 1.419 . S
C382 H411 0.948 . S
C383 C382 1.419 . S
C383 C384 1.391 . S
C383 C387 1.397 . S
C384 C379 1.391 . S
C384 C383 1.391 . S
C384 C385 1.399 . S
C385 C384 1.399 . S
C385 C386 1.396 . S
C385 C388 1.453 . S
C385 C389 1.684 . S
C386 C367 1.723 1_554 S
C386 C385 1.396 . S
C386 C387 1.394 . S
C387 C383 1.397 . S
C387 C386 1.394 . S
C387 C397 1.723 . S
C388 C385 1.453 . S
C388 H412 0.982 . S
C388 H413 0.979 . S
C388 H414 0.977 1_554 S
C389 C385 1.684 . S
C389 H415 0.979 . S
C389 H416 0.980 1_554 S
C389 H417 0.983 . S
C390 H366 0.948 . S
C390 C391 1.391 . S
C390 C395 1.391 . S
C391 C390 1.391 . S
C391 C392 1.391 1_554 S
C392 H369 0.947 . S
C392 C391 1.391 1_556 S
C392 C393 1.392 . S
C393 H370 0.948 . S
C393 C392 1.392 . S
C393 C394 1.419 1_556 S
C394 C393 1.419 1_554 S
C394 C395 1.391 . S
C394 C398 1.397 . S
C395 C390 1.391 . S
C395 C394 1.391 . S
C395 C396 1.399 . S
C396 C395 1.399 . S
C396 C397 1.396 . S
C396 C399 1.453 . S
C396 C400 1.684 . S
C397 C387 1.723 . S
C397 C396 1.396 . S
C397 C398 1.394 . S
C398 C368 1.723 1_554 S
C398 C394 1.397 . S
C398 C397 1.394 . S
C399 H371 0.982 . S
C399 H375 0.979 . S
C399 H376 0.977 . S
C399 C396 1.453 . S
C400 H372 0.979 . S
C400 H373 0.980 . S
C400 H374 0.983 . S
C400 C396 1.684 . S
H401 C419 0.948 . S
H402 C360 0.948 . S
H403 C378 0.979 . S
H404 C378 0.980 . S
H405 C378 0.983 . S
H406 C377 0.982 . S
H407 C377 0.979 . S
H408 C377 0.977 . S
H409 C379 0.948 . S
H410 C381 0.947 . S
H411 C382 0.948 . S
H412 C388 0.982 . S
H413 C388 0.979 . S
H414 C388 0.977 1_556 S
H415 C389 0.979 . S
H416 C389 0.980 1_556 S
H417 C389 0.983 . S
H418 C362 0.947 . S
C419 C362 1.392 . S
C419 C363 1.419 . S
C419 H401 0.948 . S
C420 C421 1.391 . S
C420 C424 1.391 . S
C420 H462 0.948 . S
C421 C420 1.391 . S
C421 C422 1.391 . S
C422 C421 1.391 . S
C422 H478 0.947 . S
C422 C479 1.392 . S
C423 C424 1.391 . S
C423 C427 1.397 1_556 S
C423 C479 1.419 . S
C424 C420 1.391 . S
C424 C423 1.391 . S
C424 C425 1.399 . S
C425 C424 1.399 . S
C425 C428 1.396 1_556 S
C425 C437 1.453 . S
C425 C438 1.684 . S
H426 C450 0.948 . S
C427 C423 1.397 1_554 S
C427 C428 1.394 . S
C427 C446 1.723 . S
C428 C425 1.396 1_554 S
C428 C427 1.394 . S
C428 C458 1.723 . S
H429 C452 0.947 . S
H430 C453 0.948 1_556 S
H431 C459 0.982 . S
H432 C460 0.979 . S
H433 C460 0.980 . S
H434 C460 0.983 . S
H435 C459 0.979 . S
H436 C459 0.977 . S
C437 C425 1.453 . S
C437 H466 0.982 . S
C437 H467 0.979 . S
C437 H468 0.977 . S
C438 C425 1.684 . S
C438 H463 0.979 . S
C438 H464 0.980 . S
C438 H465 0.983 . S
C439 C440 1.391 . S
C439 C444 1.391 . S
C439 H469 0.948 . S
C440 C439 1.391 . S
C440 C441 1.391 . S
C441 C440 1.391 . S
C441 C442 1.392 . S
C441 H470 0.947 . S
C442 C441 1.392 . S
C442 C443 1.419 . S
C442 H471 0.948 . S
C443 C442 1.419 . S
C443 C444 1.391 . S
C443 C447 1.397 . S
C444 C439 1.391 . S
C444 C443 1.391 . S
C444 C445 1.399 . S
C445 C444 1.399 . S
C445 C446 1.396 . S
C445 C448 1.453 . S
C445 C449 1.684 . S
C446 C427 1.723 . S
C446 C445 1.396 . S
C446 C447 1.394 . S
C447 C443 1.397 . S
C447 C446 1.394 . S
C447 C457 1.723 . S
C448 C445 1.453 . S
C448 H472 0.982 . S
C448 H473 0.979 . S
C448 H474 0.977 . S
C449 C445 1.684 . S
C449 H475 0.979 . S
C449 H476 0.980 . S
C449 H477 0.983 . S
C450 H426 0.948 . S
C450 C451 1.391 . S
C450 C455 1.391 . S
C451 C450 1.391 . S
C451 C452 1.391 . S
C452 H429 0.947 . S
C452 C451 1.391 . S
C452 C453 1.392 . S
C453 H430 0.948 1_554 S
C453 C452 1.392 . S
C453 C454 1.419 . S
C454 C453 1.419 . S
C454 C455 1.391 . S
C454 C458 1.397 . S
C455 C450 1.391 . S
C455 C454 1.391 . S
C455 C456 1.399 . S
C456 C455 1.399 . S
C456 C457 1.396 . S
C456 C459 1.453 . S
C456 C460 1.684 . S
C457 C447 1.723 . S
C457 C456 1.396 . S
C457 C458 1.394 . S
C458 C428 1.723 . S
C458 C454 1.397 . S
C458 C457 1.394 . S
C459 H431 0.982 . S
C459 H435 0.979 . S
C459 H436 0.977 . S
C459 C456 1.453 . S
C460 H432 0.979 . S
C460 H433 0.980 . S
C460 H434 0.983 . S
C460 C456 1.684 . S
H461 C479 0.948 . S
H462 C420 0.948 . S
H463 C438 0.979 . S
H464 C438 0.980 . S
H465 C438 0.983 . S
H466 C437 0.982 . S
H467 C437 0.979 . S
H468 C437 0.977 . S
H469 C439 0.948 . S
H470 C441 0.947 . S
H471 C442 0.948 . S
H472 C448 0.982 . S
H473 C448 0.979 . S
H474 C448 0.977 . S
H475 C449 0.979 . S
H476 C449 0.980 . S
H477 C449 0.983 . S
H478 C422 0.947 . S
C479 C422 1.392 . S
C479 C423 1.419 . S
C479 H461 0.948 . S
Eu480 C489 2.828 . S
Eu480 O491 2.392 . S
Eu480 O493 2.418 1_545 S
Eu480 O498 2.373 1_655 S
Eu480 O501 2.488 . S
Eu480 O502 2.471 . S
Eu480 O503 2.349 1_655 S
Eu481 O490 2.373 1_455 S
Eu481 O494 2.488 . S
Eu481 O495 2.471 . S
Eu481 O496 2.349 . S
Eu481 O499 2.392 1_565 S
Eu481 O500 2.418 1_565 S
Eu481 C510 2.828 . S
C482 O500 1.244 . S
C482 O503 1.265 . S
C483 C484 1.379 1_655 S
C483 C487 1.373 . S
C483 C489 1.505 . S
C484 C483 1.379 1_455 S
C484 C486 1.369 . S
C484 H512 0.930 . S
C485 C487 1.383 . S
C485 C488 1.360 1_655 S
C485 H513 0.930 . S
C486 C484 1.369 . S
C486 C488 1.409 . S
C486 H514 0.930 . S
C487 C483 1.373 . S
C487 C485 1.383 . S
C487 H515 0.931 . S
C488 C485 1.360 1_455 S
C488 C486 1.409 . S
C489 Eu480 2.828 . S
C489 C483 1.505 . S
C489 O501 1.249 . S
C489 O502 1.244 . S
O490 Eu481 2.373 1_655 S
O490 C492 1.258 . S
O491 Eu480 2.392 . S
O491 C492 1.242 1_545 S
C492 O490 1.258 . S
C492 O491 1.242 1_565 S
O493 Eu480 2.418 1_565 S
O493 C497 1.244 . S
O494 Eu481 2.488 . S
O494 C510 1.249 . S
O495 Eu481 2.471 . S
O495 C510 1.244 . S
O496 Eu481 2.349 . S
O496 C497 1.265 1_455 S
C497 O493 1.244 . S
C497 O496 1.265 1_655 S
O498 Eu480 2.373 1_455 S
O498 C511 1.258 . S
O499 Eu481 2.392 1_545 S
O499 C511 1.242 . S
O500 Eu481 2.418 1_545 S
O500 C482 1.244 . S
O501 Eu480 2.488 . S
O501 C489 1.249 . S
O502 Eu480 2.471 . S
O502 C489 1.244 . S
O503 Eu480 2.349 1_455 S
O503 C482 1.265 . S
C504 C505 1.379 . S
C504 C508 1.373 . S
C504 C510 1.505 . S
C505 C504 1.379 . S
C505 C507 1.369 . S
C505 H516 0.930 1_455 S
C506 C508 1.383 . S
C506 C509 1.382 . S
C506 H517 0.930 . S
C507 C505 1.369 . S
C507 C509 1.392 . S
C507 H518 0.930 1_455 S
C508 C504 1.373 . S
C508 C506 1.383 . S
C508 H519 0.931 . S
C509 C506 1.382 . S
C509 C507 1.392 . S
C510 Eu481 2.828 . S
C510 O494 1.249 . S
C510 O495 1.244 . S
C510 C504 1.505 . S
C511 O498 1.258 . S
C511 O499 1.242 . S
H512 C484 0.930 . S
H513 C485 0.930 . S
H514 C486 0.930 . S
H515 C487 0.931 . S
H516 C505 0.930 1_655 S
H517 C506 0.930 . S
H518 C507 0.930 1_655 S
H519 C508 0.931 . S
Eu520 C529 2.828 . S
Eu520 O531 2.392 . S
Eu520 O533 2.418 . S
Eu520 O538 2.373 . S
Eu520 O541 2.488 . S
Eu520 O542 2.471 . S
Eu520 O543 2.349 1_545 S
Eu521 O530 2.373 1_565 S
Eu521 O534 2.488 . S
Eu521 O535 2.471 1_565 S
Eu521 O536 2.349 1_565 S
Eu521 O539 2.392 . S
Eu521 O540 2.418 . S
Eu521 C550 2.828 . S
C522 O540 1.244 . S
C522 O543 1.265 . S
C523 C524 1.379 1_545 S
C523 C527 1.373 . S
C523 C529 1.505 . S
C524 C523 1.379 1_565 S
C524 C526 1.369 . S
C524 H552 0.930 . S
C525 C527 1.383 . S
C525 C528 1.382 . S
C525 H553 0.930 . S
C526 C524 1.369 . S
C526 C528 1.392 1_565 S
C526 H554 0.930 . S
C527 C523 1.373 . S
C527 C525 1.383 . S
C527 H555 0.931 . S
C528 C525 1.382 . S
C528 C526 1.392 1_545 S
C529 Eu520 2.828 . S
C529 C523 1.505 . S
C529 O541 1.249 . S
C529 O542 1.244 . S
O530 Eu521 2.373 1_545 S
O530 C532 1.258 . S
O531 Eu520 2.392 . S
O531 C532 1.242 . S
C532 O530 1.258 . S
C532 O531 1.242 . S
O533 Eu520 2.418 . S
O533 C537 1.244 . S
O534 Eu521 2.488 . S
O534 C550 1.249 . S
O535 Eu521 2.471 1_545 S
O535 C550 1.244 1_545 S
O536 Eu521 2.349 1_545 S
O536 C537 1.265 . S
C537 O533 1.244 . S
C537 O536 1.265 . S
O538 Eu520 2.373 . S
O538 C551 1.258 1_545 S
O539 Eu521 2.392 . S
O539 C551 1.242 . S
O540 Eu521 2.418 . S
O540 C522 1.244 . S
O541 Eu520 2.488 . S
O541 C529 1.249 . S
O542 Eu520 2.471 . S
O542 C529 1.244 . S
O543 Eu520 2.349 1_565 S
O543 C522 1.265 . S
C544 C545 1.379 1_565 S
C544 C548 1.373 . S
C544 C550 1.505 . S
C545 C544 1.379 1_545 S
C545 C547 1.369 . S
C545 H556 0.930 . S
C546 C548 1.383 . S
C546 C549 1.382 . S
C546 H557 0.930 . S
C547 C545 1.369 . S
C547 C549 1.392 1_545 S
C547 H558 0.930 . S
C548 C544 1.373 . S
C548 C546 1.383 . S
C548 H559 0.931 . S
C549 C546 1.382 . S
C549 C547 1.392 1_565 S
C550 Eu521 2.828 . S
C550 O534 1.249 . S
C550 O535 1.244 1_565 S
C550 C544 1.505 . S
C551 O538 1.258 1_565 S
C551 O539 1.242 . S
H552 C524 0.930 . S
H553 C525 0.930 . S
H554 C526 0.930 . S
H555 C527 0.931 . S
H556 C545 0.930 . S
H557 C546 0.930 . S
H558 C547 0.930 . S
H559 C548 0.931 . S
Eu560 C569 2.828 . S
Eu560 O571 2.392 . S
Eu560 O573 2.418 . S
Eu560 O578 2.373 . S
Eu560 O581 2.488 . S
Eu560 O582 2.471 . S
Eu560 O583 2.349 . S
Eu561 O570 2.373 . S
Eu561 O574 2.488 . S
Eu561 O575 2.471 . S
Eu561 O576 2.349 . S
Eu561 O579 2.392 . S
Eu561 O580 2.418 . S
Eu561 C590 2.828 . S
C562 O580 1.244 . S
C562 O583 1.265 . S
C563 C564 1.379 . S
C563 C567 1.373 . S
C563 C569 1.505 . S
C564 C563 1.379 . S
C564 C566 1.369 . S
C564 H592 0.930 . S
C565 C567 1.383 . S
C565 C568 1.382 . S
C565 H593 0.930 . S
C566 C564 1.369 . S
C566 C568 1.392 . S
C566 H594 0.930 . S
C567 C563 1.373 . S
C567 C565 1.383 . S
C567 H595 0.931 . S
C568 C565 1.382 . S
C568 C566 1.392 . S
C569 Eu560 2.828 . S
C569 C563 1.505 . S
C569 O581 1.249 . S
C569 O582 1.244 . S
O570 Eu561 2.373 . S
O570 C572 1.258 . S
O571 Eu560 2.392 . S
O571 C572 1.242 . S
C572 O570 1.258 . S
C572 O571 1.242 . S
O573 Eu560 2.418 . S
O573 C577 1.244 . S
O574 Eu561 2.488 . S
O574 C590 1.249 . S
O575 Eu561 2.471 . S
O575 C590 1.244 . S
O576 Eu561 2.349 . S
O576 C577 1.265 . S
C577 O573 1.244 . S
C577 O576 1.265 . S
O578 Eu560 2.373 . S
O578 C591 1.258 . S
O579 Eu561 2.392 . S
O579 C591 1.242 . S
O580 Eu561 2.418 . S
O580 C562 1.244 . S
O581 Eu560 2.488 . S
O581 C569 1.249 . S
O582 Eu560 2.471 . S
O582 C569 1.244 . S
O583 Eu560 2.349 . S
O583 C562 1.265 . S
C584 C585 1.379 . S
C584 C588 1.373 . S
C584 C590 1.505 . S
C585 C584 1.379 . S
C585 C587 1.369 . S
C585 H596 0.930 . S
C586 C588 1.383 . S
C586 C589 1.382 . S
C586 H597 0.930 . S
C587 C585 1.369 . S
C587 C589 1.392 . S
C587 H598 0.930 . S
C588 C584 1.373 . S
C588 C586 1.383 . S
C588 H599 0.931 . S
C589 C586 1.382 . S
C589 C587 1.392 . S
C590 Eu561 2.828 . S
C590 O574 1.249 . S
C590 O575 1.244 . S
C590 C584 1.505 . S
C591 O578 1.258 . S
C591 O579 1.242 . S
H592 C564 0.930 . S
H593 C565 0.930 . S
H594 C566 0.930 . S
H595 C567 0.931 . S
H596 C585 0.930 . S
H597 C586 0.930 . S
H598 C587 0.930 . S
H599 C588 0.931 . S
Eu600 C609 2.828 . S
Eu600 O611 2.392 . S
Eu600 O613 2.418 1_455 S
Eu600 O618 2.373 . S
Eu600 O621 2.488 . S
Eu600 O622 2.471 . S
Eu600 O623 2.349 . S
Eu601 O610 2.373 . S
Eu601 O614 2.488 . S
Eu601 O615 2.471 . S
Eu601 O616 2.349 . S
Eu601 O619 2.392 1_655 S
Eu601 O620 2.418 1_655 S
Eu601 C630 2.828 . S
C602 O620 1.244 . S
C602 O623 1.265 . S
C603 C604 1.379 . S
C603 C607 1.373 . S
C603 C609 1.505 . S
C604 C603 1.379 . S
C604 C606 1.369 . S
C604 H632 0.930 . S
C605 C607 1.383 . S
C605 C608 1.382 . S
C605 H633 0.930 . S
C606 C604 1.369 . S
C606 C608 1.392 . S
C606 H634 0.930 . S
C607 C603 1.373 . S
C607 C605 1.383 . S
C607 H635 0.931 . S
C608 C605 1.382 . S
C608 C606 1.392 . S
C609 Eu600 2.828 . S
C609 C603 1.505 . S
C609 O621 1.249 . S
C609 O622 1.244 . S
O610 Eu601 2.373 . S
O610 C612 1.258 1_655 S
O611 Eu600 2.392 . S
O611 C612 1.242 . S
C612 O610 1.258 1_455 S
C612 O611 1.242 . S
O613 Eu600 2.418 1_655 S
O613 C617 1.244 . S
O614 Eu601 2.488 . S
O614 C630 1.249 . S
O615 Eu601 2.471 . S
O615 C630 1.244 . S
O616 Eu601 2.349 . S
O616 C617 1.265 . S
C617 O613 1.244 . S
C617 O616 1.265 . S
O618 Eu600 2.373 . S
O618 C631 1.258 . S
O619 Eu601 2.392 1_455 S
O619 C631 1.242 . S
O620 Eu601 2.418 1_455 S
O620 C602 1.244 . S
O621 Eu600 2.488 . S
O621 C609 1.249 . S
O622 Eu600 2.471 . S
O622 C609 1.244 . S
O623 Eu600 2.349 . S
O623 C602 1.265 . S
C624 C625 1.379 . S
C624 C628 1.373 . S
C624 C630 1.505 . S
C625 C624 1.379 . S
C625 C627 1.369 . S
C625 H636 0.930 . S
C626 C628 1.383 . S
C626 C629 1.382 . S
C626 H637 0.930 . S
C627 C625 1.369 . S
C627 C629 1.392 . S
C627 H638 0.930 . S
C628 C624 1.373 . S
C628 C626 1.383 . S
C628 H639 0.931 . S
C629 C626 1.382 . S
C629 C627 1.392 . S
C630 Eu601 2.828 . S
C630 O614 1.249 . S
C630 O615 1.244 . S
C630 C624 1.505 . S
C631 O618 1.258 . S
C631 O619 1.242 . S
H632 C604 0.930 . S
H633 C605 0.930 . S
H634 C606 0.930 . S
H635 C607 0.931 . S
H636 C625 0.930 . S
H637 C626 0.930 . S
H638 C627 0.930 . S
H639 C628 0.931 . S
H640 C648 0.950 . S
H641 C653 0.950 . S
H642 C650 0.950 . S
H643 C652 0.950 . S
H644 C654 0.950 . S
H645 C656 0.950 . S
H646 C658 0.950 . S
H647 C659 0.950 . S
C648 H640 0.950 . S
C648 C649 1.386 . S
C648 C650 1.391 . S
C649 C648 1.386 . S
C649 C653 1.393 . S
C650 H642 0.950 . S
C650 C648 1.391 . S
C650 C651 1.400 . S
C651 C650 1.400 . S
C651 C652 1.398 . S
C651 C657 1.491 . S
C652 H643 0.950 . S
C652 C651 1.398 . S
C652 C653 1.391 . S
C653 H641 0.950 . S
C653 C649 1.393 . S
C653 C652 1.391 . S
C654 H644 0.950 . S
C654 C655 1.386 . S
C654 C656 1.391 . S
C655 C654 1.386 . S
C655 C659 1.393 . S
C656 H645 0.950 . S
C656 C654 1.391 . S
C656 C657 1.400 . S
C657 C651 1.491 . S
C657 C656 1.400 . S
C657 C658 1.398 . S
C658 H646 0.950 . S
C658 C657 1.398 . S
C658 C659 1.391 . S
C659 H647 0.950 . S
C659 C655 1.393 . S
C659 C658 1.391 . S
H660 C668 0.950 . S
H661 C673 0.950 . S
H662 C670 0.950 . S
H663 C672 0.950 . S
H664 C674 0.950 . S
H665 C676 0.950 . S
H666 C678 0.950 . S
H667 C679 0.950 . S
C668 H660 0.950 . S
C668 C669 1.386 . S
C668 C670 1.391 . S
C669 C668 1.386 . S
C669 C673 1.393 . S
C670 H662 0.950 . S
C670 C668 1.391 . S
C670 C671 1.400 . S
C671 C670 1.400 . S
C671 C672 1.398 . S
C671 C677 1.491 . S
C672 H663 0.950 . S
C672 C671 1.398 . S
C672 C673 1.391 . S
C673 H661 0.950 . S
C673 C669 1.393 . S
C673 C672 1.391 . S
C674 H664 0.950 . S
C674 C675 1.386 . S
C674 C676 1.391 . S
C675 C674 1.386 . S
C675 C679 1.393 . S
C676 H665 0.950 . S
C676 C674 1.391 . S
C676 C677 1.400 . S
C677 C671 1.491 . S
C677 C676 1.400 . S
C677 C678 1.398 . S
C678 H666 0.950 . S
C678 C677 1.398 . S
C678 C679 1.391 . S
C679 H667 0.950 . S
C679 C675 1.393 . S
C679 C678 1.391 . S
H680 C688 0.950 . S
H681 C693 0.950 . S
H682 C690 0.950 . S
H683 C692 0.950 . S
H684 C694 0.950 . S
H685 C696 0.950 . S
H686 C698 0.950 . S
H687 C699 0.950 . S
C688 H680 0.950 . S
C688 C689 1.386 . S
C688 C690 1.391 . S
C689 C688 1.386 . S
C689 C693 1.393 . S
C690 H682 0.950 . S
C690 C688 1.391 . S
C690 C691 1.400 . S
C691 C690 1.400 . S
C691 C692 1.398 . S
C691 C697 1.491 . S
C692 H683 0.950 . S
C692 C691 1.398 . S
C692 C693 1.391 . S
C693 H681 0.950 . S
C693 C689 1.393 . S
C693 C692 1.391 . S
C694 H684 0.950 . S
C694 C695 1.386 . S
C694 C696 1.391 . S
C695 C694 1.386 . S
C695 C699 1.393 . S
C696 H685 0.950 . S
C696 C694 1.391 . S
C696 C697 1.400 . S
C697 C691 1.491 . S
C697 C696 1.400 . S
C697 C698 1.398 . S
C698 H686 0.950 . S
C698 C697 1.398 . S
C698 C699 1.391 . S
C699 H687 0.950 . S
C699 C695 1.393 . S
C699 C698 1.391 . S
H700 C708 0.950 . S
H701 C713 0.950 . S
H702 C710 0.950 . S
H703 C712 0.950 . S
H704 C714 0.950 . S
H705 C716 0.950 . S
H706 C718 0.947 . S
H707 C719 0.950 1_655 S
C708 H700 0.950 . S
C708 C709 1.386 . S
C708 C710 1.391 . S
C709 C708 1.386 . S
C709 C713 1.393 . S
C710 H702 0.950 . S
C710 C708 1.391 . S
C710 C711 1.400 . S
C711 C710 1.400 . S
C711 C712 1.398 . S
C711 C717 1.491 . S
C712 H703 0.950 . S
C712 C711 1.398 . S
C712 C713 1.391 . S
C713 H701 0.950 . S
C713 C709 1.393 . S
C713 C712 1.391 . S
C714 H704 0.950 . S
C714 C715 1.386 . S
C714 C716 1.391 . S
C715 C714 1.386 . S
C715 C719 1.393 . S
C716 H705 0.950 . S
C716 C714 1.391 . S
C716 C717 1.400 . S
C717 C711 1.491 . S
C717 C716 1.400 . S
C717 C718 1.398 . S
C718 H706 0.947 . S
C718 C717 1.398 . S
C718 C719 1.391 . S
C719 H707 0.950 1_455 S
C719 C715 1.393 . S
C719 C718 1.391 . S
H720 C728 0.950 . S
H721 C733 0.950 . S
H722 C730 0.950 . S
H723 C732 0.950 1_556 S
H724 C734 0.950 . S
H725 C736 0.950 . S
H726 C738 0.950 1_545 S
H727 C739 0.971 . S
C728 H720 0.950 . S
C728 C729 1.386 . S
C728 C730 1.391 . S
C729 C728 1.386 . S
C729 C733 1.393 . S
C730 H722 0.950 . S
C730 C728 1.391 . S
C730 C731 1.400 . S
C731 C730 1.400 . S
C731 C732 1.398 . S
C731 C737 1.491 1_554 S
C732 H723 0.950 1_554 S
C732 C731 1.398 . S
C732 C733 1.391 . S
C733 H721 0.950 . S
C733 C729 1.393 . S
C733 C732 1.391 . S
C734 H724 0.950 . S
C734 C735 1.386 . S
C734 C736 1.391 . S
C735 C734 1.386 . S
C735 C739 1.377 1_565 S
C736 H725 0.950 . S
C736 C734 1.391 . S
C736 C737 1.400 . S
C737 C731 1.491 1_556 S
C737 C736 1.400 . S
C737 C738 1.398 . S
C738 H726 0.950 1_565 S
C738 C737 1.398 . S
C738 C739 1.386 1_565 S
C739 H727 0.971 . S
C739 C735 1.377 1_545 S
C739 C738 1.386 1_545 S
H740 C748 0.950 . S
H741 C753 0.950 . S
H742 C750 0.950 . S
H743 C752 0.950 1_556 S
H744 C754 0.950 . S
H745 C756 0.950 . S
H746 C758 0.950 . S
H747 C759 0.950 . S
C748 H740 0.950 . S
C748 C749 1.386 . S
C748 C750 1.391 1_554 S
C749 C748 1.386 . S
C749 C753 1.393 . S
C750 H742 0.950 . S
C750 C748 1.391 1_556 S
C750 C751 1.400 . S
C751 C750 1.400 . S
C751 C752 1.398 1_556 S
C751 C757 1.491 . S
C752 H743 0.950 1_554 S
C752 C751 1.398 1_554 S
C752 C753 1.391 . S
C753 H741 0.950 . S
C753 C749 1.393 . S
C753 C752 1.391 . S
C754 H744 0.950 . S
C754 C755 1.386 . S
C754 C756 1.391 . S
C755 C754 1.386 . S
C755 C759 1.393 . S
C756 H745 0.950 . S
C756 C754 1.391 . S
C756 C757 1.400 . S
C757 C751 1.491 . S
C757 C756 1.400 . S
C757 C758 1.398 . S
C758 H746 0.950 . S
C758 C757 1.398 . S
C758 C759 1.391 . S
C759 H747 0.950 . S
C759 C755 1.393 . S
C759 C758 1.391 . S
H760 C768 0.950 . S
H761 C773 0.950 . S
H762 C770 0.950 1_556 S
H763 C772 0.950 . S
H764 C774 0.950 . S
H765 C776 0.950 . S
H766 C778 0.950 . S
H767 C779 0.950 . S
C768 H760 0.950 . S
C768 C769 1.386 . S
C768 C770 1.391 . S
C769 C768 1.386 . S
C769 C773 1.393 . S
C770 H762 0.950 1_554 S
C770 C768 1.391 . S
C770 C771 1.400 1_554 S
C771 C770 1.400 1_556 S
C771 C772 1.398 . S
C771 C777 1.491 . S
C772 H763 0.950 . S
C772 C771 1.398 . S
C772 C773 1.391 1_556 S
C773 H761 0.950 . S
C773 C769 1.393 . S
C773 C772 1.391 1_554 S
C774 H764 0.950 . S
C774 C775 1.386 . S
C774 C776 1.391 . S
C775 C774 1.386 . S
C775 C779 1.393 . S
C776 H765 0.950 . S
C776 C774 1.391 . S
C776 C777 1.400 . S
C777 C771 1.491 . S
C777 C776 1.400 . S
C777 C778 1.398 . S
C778 H766 0.950 . S
C778 C777 1.398 . S
C778 C779 1.391 . S
C779 H767 0.950 . S
C779 C775 1.393 . S
C779 C778 1.391 . S
H780 C788 0.950 . S
H781 C793 0.950 1_455 S
H782 C790 0.950 1_556 S
H783 C792 0.950 1_455 S
H784 C794 0.950 . S
H785 C796 0.950 . S
H786 C798 0.950 . S
H787 C799 0.950 . S
C788 H780 0.950 . S
C788 C789 1.386 . S
C788 C790 1.391 . S
C789 C788 1.386 . S
C789 C793 1.393 . S
C790 H782 0.950 1_554 S
C790 C788 1.391 . S
C790 C791 1.400 1_554 S
C791 C790 1.400 1_556 S
C791 C792 1.398 1_556 S
C791 C797 1.491 . S
C792 H783 0.950 1_655 S
C792 C791 1.398 1_554 S
C792 C793 1.391 . S
C793 H781 0.950 1_655 S
C793 C789 1.393 . S
C793 C792 1.391 . S
C794 H784 0.950 . S
C794 C795 1.386 1_455 S
C794 C796 1.391 . S
C795 C794 1.386 1_655 S
C795 C799 1.393 . S
C796 H785 0.950 . S
C796 C794 1.391 . S
C796 C797 1.400 1_455 S
C797 C791 1.491 . S
C797 C796 1.400 1_655 S
C797 C798 1.398 . S
C798 H786 0.950 . S
C798 C797 1.398 . S
C798 C799 1.391 . S
C799 H787 0.950 . S
C799 C795 1.393 . S
C799 C798 1.391 . S
H800 C808 0.950 . S
H801 C813 0.950 . S
H802 C810 0.950 . S
H803 C812 0.950 . S
H804 C814 0.950 . S
H805 C816 0.949 1_655 S
H806 C818 0.950 . S
H807 C819 0.950 . S
C808 H800 0.950 . S
C808 C809 1.386 . S
C808 C810 1.391 . S
C809 C808 1.386 . S
C809 C813 1.393 . S
C810 H802 0.950 . S
C810 C808 1.391 . S
C810 C811 1.400 . S
C811 C810 1.400 . S
C811 C812 1.398 . S
C811 C817 1.491 . S
C812 H803 0.950 . S
C812 C811 1.398 . S
C812 C813 1.391 . S
C813 H801 0.950 . S
C813 C809 1.393 . S
C813 C812 1.391 . S
C814 H804 0.950 . S
C814 C815 1.386 . S
C814 C816 1.390 1_655 S
C815 C814 1.386 . S
C815 C819 1.393 1_655 S
C816 H805 0.949 1_455 S
C816 C814 1.390 1_455 S
C816 C817 1.403 . S
C817 C811 1.491 . S
C817 C816 1.403 . S
C817 C818 1.398 . S
C818 H806 0.950 . S
C818 C817 1.398 . S
C818 C819 1.391 . S
C819 H807 0.950 . S
C819 C815 1.393 1_455 S
C819 C818 1.391 . S
H820 C828 0.950 . S
H821 C833 0.950 . S
H822 C830 0.950 . S
H823 C832 0.950 . S
H824 C834 0.950 . S
H825 C836 0.952 . S
H826 C838 0.950 . S
H827 C839 0.950 . S
C828 H820 0.950 . S
C828 C829 1.386 . S
C828 C830 1.391 . S
C829 C828 1.386 . S
C829 C833 1.393 . S
C830 H822 0.950 . S
C830 C828 1.391 . S
C830 C831 1.400 . S
C831 C830 1.400 . S
C831 C832 1.398 . S
C831 C837 1.491 . S
C832 H823 0.950 . S
C832 C831 1.398 . S
C832 C833 1.391 . S
C833 H821 0.950 . S
C833 C829 1.393 . S
C833 C832 1.391 . S
C834 H824 0.950 . S
C834 C835 1.386 . S
C834 C836 1.391 1_565 S
C835 C834 1.386 . S
C835 C839 1.393 1_565 S
C836 H825 0.952 . S
C836 C834 1.391 1_545 S
C836 C837 1.400 . S
C837 C831 1.491 . S
C837 C836 1.400 . S
C837 C838 1.398 . S
C838 H826 0.950 . S
C838 C837 1.398 . S
C838 C839 1.391 . S
C839 H827 0.950 . S
C839 C835 1.393 1_545 S
C839 C838 1.391 . S
H840 C848 0.950 . S
H841 C853 0.950 . S
H842 C850 0.950 . S
H843 C852 0.950 . S
H844 C854 0.950 . S
H845 C856 0.950 . S
H846 C858 0.950 . S
H847 C859 0.950 . S
C848 H840 0.950 . S
C848 C849 1.386 . S
C848 C850 1.391 . S
C849 C848 1.386 . S
C849 C853 1.393 . S
C850 H842 0.950 . S
C850 C848 1.391 . S
C850 C851 1.400 . S
C851 C850 1.400 . S
C851 C852 1.398 . S
C851 C857 1.491 . S
C852 H843 0.950 . S
C852 C851 1.398 . S
C852 C853 1.391 . S
C853 H841 0.950 . S
C853 C849 1.393 . S
C853 C852 1.391 . S
C854 H844 0.950 . S
C854 C855 1.386 . S
C854 C856 1.391 . S
C855 C854 1.386 . S
C855 C859 1.393 . S
C856 H845 0.950 . S
C856 C854 1.391 . S
C856 C857 1.400 . S
C857 C851 1.491 . S
C857 C856 1.400 . S
C857 C858 1.398 . S
C858 H846 0.950 . S
C858 C857 1.398 . S
C858 C859 1.391 . S
C859 H847 0.950 . S
C859 C855 1.393 . S
C859 C858 1.391 . S
H860 C868 0.950 . S
H861 C873 0.950 . S
H862 C870 0.950 . S
H863 C872 0.950 . S
H864 C874 0.950 . S
H865 C876 0.950 . S
H866 C878 0.950 . S
H867 C879 0.950 . S
C868 H860 0.950 . S
C868 C869 1.386 . S
C868 C870 1.391 . S
C869 C868 1.386 . S
C869 C873 1.393 . S
C870 H862 0.950 . S
C870 C868 1.391 . S
C870 C871 1.400 . S
C871 C870 1.400 . S
C871 C872 1.398 . S
C871 C877 1.491 . S
C872 H863 0.950 . S
C872 C871 1.398 . S
C872 C873 1.391 . S
C873 H861 0.950 . S
C873 C869 1.393 . S
C873 C872 1.391 . S
C874 H864 0.950 . S
C874 C875 1.386 . S
C874 C876 1.391 . S
C875 C874 1.386 . S
C875 C879 1.393 . S
C876 H865 0.950 . S
C876 C874 1.391 . S
C876 C877 1.400 . S
C877 C871 1.491 . S
C877 C876 1.400 . S
C877 C878 1.398 . S
C878 H866 0.950 . S
C878 C877 1.398 . S
C878 C879 1.391 . S
C879 H867 0.950 . S
C879 C875 1.393 . S
C879 C878 1.391 . S
H880 C888 0.950 . S
H881 C893 0.950 . S
H882 C890 0.950 . S
H883 C892 0.950 1_456 S
H884 C894 0.950 . S
H885 C896 0.950 . S
H886 C898 0.950 . S
H887 C899 0.950 . S
C888 H880 0.950 . S
C888 C889 1.386 . S
C888 C890 1.391 . S
C889 C888 1.386 . S
C889 C893 1.393 . S
C890 H882 0.950 . S
C890 C888 1.391 . S
C890 C891 1.400 . S
C891 C890 1.400 . S
C891 C892 1.398 . S
C891 C897 1.491 1_554 S
C892 H883 0.950 1_654 S
C892 C891 1.398 . S
C892 C893 1.391 . S
C893 H881 0.950 . S
C893 C889 1.393 . S
C893 C892 1.391 . S
C894 H884 0.950 . S
C894 C895 1.386 . S
C894 C896 1.391 . S
C895 C894 1.386 . S
C895 C899 1.393 1_455 S
C896 H885 0.950 . S
C896 C894 1.391 . S
C896 C897 1.400 1_455 S
C897 C891 1.491 1_556 S
C897 C896 1.400 1_655 S
C897 C898 1.398 1_556 S
C898 H886 0.950 . S
C898 C897 1.398 1_554 S
C898 C899 1.391 1_554 S
C899 H887 0.950 . S
C899 C895 1.393 1_655 S
C899 C898 1.391 1_556 S
H900 C908 0.950 . S
H901 C913 0.950 . S
H902 C910 0.950 . S
H903 C912 0.950 . S
H904 C914 0.950 . S
H905 C916 0.950 . S
H906 C918 0.950 1_554 S
H907 C919 0.950 . S
C908 H900 0.950 . S
C908 C909 1.386 . S
C908 C910 1.391 . S
C909 C908 1.386 . S
C909 C913 1.393 . S
C910 H902 0.950 . S
C910 C908 1.391 . S
C910 C911 1.400 1_554 S
C911 C910 1.400 1_556 S
C911 C912 1.398 . S
C911 C917 1.491 . S
C912 H903 0.950 . S
C912 C911 1.398 . S
C912 C913 1.391 1_556 S
C913 H901 0.950 . S
C913 C909 1.393 . S
C913 C912 1.391 1_554 S
C914 H904 0.950 . S
C914 C915 1.386 1_565 S
C914 C916 1.391 . S
C915 C914 1.386 1_545 S
C915 C919 1.393 . S
C916 H905 0.950 . S
C916 C914 1.391 . S
C916 C917 1.400 . S
C917 C911 1.491 . S
C917 C916 1.400 . S
C917 C918 1.398 1_565 S
C918 H906 0.950 1_556 S
C918 C917 1.398 1_545 S
C918 C919 1.391 . S
C919 H907 0.950 . S
C919 C915 1.393 . S
C919 C918 1.391 . S
H920 C928 0.950 . S
H921 C933 0.950 . S
H922 C930 0.950 . S
H923 C932 0.950 . S
H924 C934 0.950 . S
H925 C936 0.950 . S
H926 C938 0.950 . S
H927 C939 0.950 . S
C928 H920 0.950 . S
C928 C929 1.386 . S
C928 C930 1.391 1_554 S
C929 C928 1.386 . S
C929 C933 1.393 1_554 S
C930 H922 0.950 . S
C930 C928 1.391 1_556 S
C930 C931 1.400 . S
C931 C930 1.400 . S
C931 C932 1.398 . S
C931 C937 1.491 . S
C932 H923 0.950 . S
C932 C931 1.398 . S
C932 C933 1.391 . S
C933 H921 0.950 . S
C933 C929 1.393 1_556 S
C933 C932 1.391 . S
C934 H924 0.950 . S
C934 C935 1.386 . S
C934 C936 1.391 . S
C935 C934 1.386 . S
C935 C939 1.393 . S
C936 H925 0.950 . S
C936 C934 1.391 . S
C936 C937 1.400 . S
C937 C931 1.491 . S
C937 C936 1.400 . S
C937 C938 1.398 . S
C938 H926 0.950 . S
C938 C937 1.398 . S
C938 C939 1.391 . S
C939 H927 0.950 . S
C939 C935 1.393 . S
C939 C938 1.391 . S
H940 C948 0.950 . S
H941 C953 0.950 . S
H942 C950 0.950 . S
H943 C952 0.950 . S
H944 C954 0.950 . S
H945 C956 0.950 1_554 S
H946 C958 0.950 . S
H947 C959 0.950 . S
C948 H940 0.950 . S
C948 C949 1.386 1_556 S
C948 C950 1.391 . S
C949 C948 1.386 1_554 S
C949 C953 1.393 . S
C950 H942 0.950 . S
C950 C948 1.391 . S
C950 C951 1.400 . S
C951 C950 1.400 . S
C951 C952 1.398 1_556 S
C951 C957 1.491 . S
C952 H943 0.950 . S
C952 C951 1.398 1_554 S
C952 C953 1.391 . S
C953 H941 0.950 . S
C953 C949 1.393 . S
C953 C952 1.391 . S
C954 H944 0.950 . S
C954 C955 1.386 . S
C954 C956 1.391 . S
C955 C954 1.386 . S
C955 C959 1.393 . S
C956 H945 0.950 1_556 S
C956 C954 1.391 . S
C956 C957 1.400 . S
C957 C951 1.491 . S
C957 C956 1.400 . S
C957 C958 1.398 . S
C958 H946 0.950 . S
C958 C957 1.398 . S
C958 C959 1.391 . S
C959 H947 0.950 . S
C959 C955 1.393 . S
C959 C958 1.391 . S
H960 C968 0.950 . S
H961 C973 0.950 . S
H962 C970 0.950 . S
H963 C972 0.950 . S
H964 C974 0.950 . S
H965 C976 0.950 . S
H966 C978 0.950 . S
H967 C979 0.950 . S
C968 H960 0.950 . S
C968 C969 1.386 . S
C968 C970 1.391 . S
C969 C968 1.386 . S
C969 C973 1.393 . S
C970 H962 0.950 . S
C970 C968 1.391 . S
C970 C971 1.400 . S
C971 C970 1.400 . S
C971 C972 1.398 . S
C971 C977 1.491 . S
C972 H963 0.950 . S
C972 C971 1.398 . S
C972 C973 1.391 . S
C973 H961 0.950 . S
C973 C969 1.393 . S
C973 C972 1.391 . S
C974 H964 0.950 . S
C974 C975 1.386 . S
C974 C976 1.391 . S
C975 C974 1.386 . S
C975 C979 1.393 . S
C976 H965 0.950 . S
C976 C974 1.391 . S
C976 C977 1.400 . S
C977 C971 1.491 . S
C977 C976 1.400 . S
C977 C978 1.398 . S
C978 H966 0.950 . S
C978 C977 1.398 . S
C978 C979 1.391 . S
C979 H967 0.950 . S
C979 C975 1.393 . S
C979 C978 1.391 . S
H980 C988 0.950 . S
H981 C993 0.950 . S
H982 C990 0.950 . S
H983 C992 0.950 . S
H984 C994 0.950 . S
H985 C996 0.950 . S
H986 C998 0.950 . S
H987 C999 0.950 . S
C988 H980 0.950 . S
C988 C989 1.386 . S
C988 C990 1.391 . S
C989 C988 1.386 . S
C989 C993 1.393 . S
C990 H982 0.950 . S
C990 C988 1.391 . S
C990 C991 1.400 . S
C991 C990 1.400 . S
C991 C992 1.398 . S
C991 C997 1.491 . S
C992 H983 0.950 . S
C992 C991 1.398 . S
C992 C993 1.391 . S
C993 H981 0.950 . S
C993 C989 1.393 . S
C993 C992 1.391 . S
C994 H984 0.950 . S
C994 C995 1.386 . S
C994 C996 1.391 . S
C995 C994 1.386 . S
C995 C999 1.393 . S
C996 H985 0.950 . S
C996 C994 1.391 . S
C996 C997 1.400 . S
C997 C991 1.491 . S
C997 C996 1.400 . S
C997 C998 1.398 . S
C998 H986 0.950 . S
C998 C997 1.398 . S
C998 C999 1.391 . S
C999 H987 0.950 . S
C999 C995 1.393 . S
C999 C998 1.391 . S
H1000 C1008 0.950 . S
H1001 C1013 0.950 . S
H1002 C1010 0.950 . S
H1003 C1012 0.950 . S
H1004 C1014 0.950 . S
H1005 C1016 0.950 . S
H1006 C1018 0.950 . S
H1007 C1019 0.950 . S
C1008 H1000 0.950 . S
C1008 C1009 1.386 . S
C1008 C1010 1.391 . S
C1009 C1008 1.386 . S
C1009 C1013 1.393 . S
C1010 H1002 0.950 . S
C1010 C1008 1.391 . S
C1010 C1011 1.400 . S
C1011 C1010 1.400 . S
C1011 C1012 1.398 . S
C1011 C1017 1.491 . S
C1012 H1003 0.950 . S
C1012 C1011 1.398 . S
C1012 C1013 1.391 . S
C1013 H1001 0.950 . S
C1013 C1009 1.393 . S
C1013 C1012 1.391 . S
C1014 H1004 0.950 . S
C1014 C1015 1.386 . S
C1014 C1016 1.391 . S
C1015 C1014 1.386 . S
C1015 C1019 1.393 . S
C1016 H1005 0.950 . S
C1016 C1014 1.391 . S
C1016 C1017 1.400 . S
C1017 C1011 1.491 . S
C1017 C1016 1.400 . S
C1017 C1018 1.398 . S
C1018 H1006 0.950 . S
C1018 C1017 1.398 . S
C1018 C1019 1.391 . S
C1019 H1007 0.950 . S
C1019 C1015 1.393 . S
C1019 C1018 1.391 . S
H1020 C1028 0.950 . S
H1021 C1033 0.950 . S
H1022 C1030 0.950 . S
H1023 C1032 0.950 . S
H1024 C1034 0.950 . S
H1025 C1036 0.950 . S
H1026 C1038 0.950 . S
H1027 C1039 0.950 . S
C1028 H1020 0.950 . S
C1028 C1029 1.386 . S
C1028 C1030 1.391 . S
C1029 C1028 1.386 . S
C1029 C1033 1.393 . S
C1030 H1022 0.950 . S
C1030 C1028 1.391 . S
C1030 C1031 1.400 . S
C1031 C1030 1.400 . S
C1031 C1032 1.398 . S
C1031 C1037 1.491 . S
C1032 H1023 0.950 . S
C1032 C1031 1.398 . S
C1032 C1033 1.391 . S
C1033 H1021 0.950 . S
C1033 C1029 1.393 . S
C1033 C1032 1.391 . S
C1034 H1024 0.950 . S
C1034 C1035 1.386 . S
C1034 C1036 1.391 . S
C1035 C1034 1.386 . S
C1035 C1039 1.393 . S
C1036 H1025 0.950 . S
C1036 C1034 1.391 . S
C1036 C1037 1.400 . S
C1037 C1031 1.491 . S
C1037 C1036 1.400 . S
C1037 C1038 1.398 . S
C1038 H1026 0.950 . S
C1038 C1037 1.398 . S
C1038 C1039 1.391 . S
C1039 H1027 0.950 . S
C1039 C1035 1.393 . S
C1039 C1038 1.391 . S
H1040 C1048 0.950 . S
H1041 C1053 0.950 . S
H1042 C1050 0.950 1_455 S
H1043 C1052 0.950 . S
H1044 C1054 0.950 . S
H1045 C1056 0.950 . S
H1046 C1058 0.921 1_455 S
H1047 C1059 0.950 . S
C1048 H1040 0.950 . S
C1048 C1049 1.386 . S
C1048 C1050 1.391 . S
C1049 C1048 1.386 . S
C1049 C1053 1.393 . S
C1050 H1042 0.950 1_655 S
C1050 C1048 1.391 . S
C1050 C1051 1.400 . S
C1051 C1050 1.400 . S
C1051 C1052 1.398 . S
C1051 C1057 1.491 . S
C1052 H1043 0.950 . S
C1052 C1051 1.398 . S
C1052 C1053 1.391 . S
C1053 H1041 0.950 . S
C1053 C1049 1.393 . S
C1053 C1052 1.391 . S
C1054 H1044 0.950 . S
C1054 C1055 1.386 . S
C1054 C1056 1.391 . S
C1055 C1054 1.386 . S
C1055 C1059 1.393 1_655 S
C1056 H1045 0.950 . S
C1056 C1054 1.391 . S
C1056 C1057 1.400 . S
C1057 C1051 1.491 . S
C1057 C1056 1.400 . S
C1057 C1058 1.432 . S
C1058 H1046 0.921 1_655 S
C1058 C1057 1.432 . S
C1058 C1059 1.386 1_655 S
C1059 H1047 0.950 . S
C1059 C1055 1.393 1_455 S
C1059 C1058 1.386 1_455 S
H1060 C1068 0.950 . S
H1061 C1073 0.950 . S
H1062 C1070 0.950 . S
H1063 C1072 0.950 . S
H1064 C1074 0.950 1_545 S
H1065 C1076 0.950 1_545 S
H1066 C1078 0.950 . S
H1067 C1079 0.950 . S
C1068 H1060 0.950 . S
C1068 C1069 1.386 . S
C1068 C1070 1.391 . S
C1069 C1068 1.386 . S
C1069 C1073 1.393 . S
C1070 H1062 0.950 . S
C1070 C1068 1.391 . S
C1070 C1071 1.400 . S
C1071 C1070 1.400 . S
C1071 C1072 1.398 . S
C1071 C1077 1.491 . S
C1072 H1063 0.950 . S
C1072 C1071 1.398 . S
C1072 C1073 1.391 . S
C1073 H1061 0.950 . S
C1073 C1069 1.393 . S
C1073 C1072 1.391 . S
C1074 H1064 0.950 1_565 S
C1074 C1075 1.386 . S
C1074 C1076 1.391 . S
C1075 C1074 1.386 . S
C1075 C1079 1.393 . S
C1076 H1065 0.950 1_565 S
C1076 C1074 1.391 . S
C1076 C1077 1.400 . S
C1077 C1071 1.491 . S
C1077 C1076 1.400 . S
C1077 C1078 1.398 . S
C1078 H1066 0.950 . S
C1078 C1077 1.398 . S
C1078 C1079 1.391 . S
C1079 H1067 0.950 . S
C1079 C1075 1.393 . S
C1079 C1078 1.391 . S
H1080 C1088 0.950 . S
H1081 C1093 0.950 . S
H1082 C1090 0.950 . S
H1083 C1092 0.950 . S
H1084 C1094 0.950 . S
H1085 C1096 0.950 . S
H1086 C1098 0.950 . S
H1087 C1099 0.950 . S
C1088 H1080 0.950 . S
C1088 C1089 1.386 . S
C1088 C1090 1.391 . S
C1089 C1088 1.386 . S
C1089 C1093 1.393 . S
C1090 H1082 0.950 . S
C1090 C1088 1.391 . S
C1090 C1091 1.400 . S
C1091 C1090 1.400 . S
C1091 C1092 1.398 . S
C1091 C1097 1.491 . S
C1092 H1083 0.950 . S
C1092 C1091 1.398 . S
C1092 C1093 1.391 . S
C1093 H1081 0.950 . S
C1093 C1089 1.393 . S
C1093 C1092 1.391 . S
C1094 H1084 0.950 . S
C1094 C1095 1.386 . S
C1094 C1096 1.391 . S
C1095 C1094 1.386 . S
C1095 C1099 1.393 . S
C1096 H1085 0.950 . S
C1096 C1094 1.391 . S
C1096 C1097 1.400 . S
C1097 C1091 1.491 . S
C1097 C1096 1.400 . S
C1097 C1098 1.398 . S
C1098 H1086 0.950 . S
C1098 C1097 1.398 . S
C1098 C1099 1.391 . S
C1099 H1087 0.950 . S
C1099 C1095 1.393 . S
C1099 C1098 1.391 . S
H1100 C1108 0.950 . S
H1101 C1113 0.950 . S
H1102 C1110 0.950 . S
H1103 C1112 0.950 . S
H1104 C1114 0.950 . S
H1105 C1116 0.950 . S
H1106 C1118 0.950 . S
H1107 C1119 0.950 . S
C1108 H1100 0.950 . S
C1108 C1109 1.386 . S
C1108 C1110 1.391 . S
C1109 C1108 1.386 . S
C1109 C1113 1.393 . S
C1110 H1102 0.950 . S
C1110 C1108 1.391 . S
C1110 C1111 1.400 . S
C1111 C1110 1.400 . S
C1111 C1112 1.398 . S
C1111 C1117 1.491 . S
C1112 H1103 0.950 . S
C1112 C1111 1.398 . S
C1112 C1113 1.391 . S
C1113 H1101 0.950 . S
C1113 C1109 1.393 . S
C1113 C1112 1.391 . S
C1114 H1104 0.950 . S
C1114 C1115 1.386 . S
C1114 C1116 1.391 . S
C1115 C1114 1.386 . S
C1115 C1119 1.393 . S
C1116 H1105 0.950 . S
C1116 C1114 1.391 . S
C1116 C1117 1.400 . S
C1117 C1111 1.491 . S
C1117 C1116 1.400 . S
C1117 C1118 1.398 . S
C1118 H1106 0.950 . S
C1118 C1117 1.398 . S
C1118 C1119 1.391 . S
C1119 H1107 0.950 . S
C1119 C1115 1.393 . S
C1119 C1118 1.391 . S
C649 C391 2.857 . S
C655 C511 2.914 . S
C675 C537 2.334 . S
C669 C451 2.213 . S
C695 C577 2.338 . S
C689 C241 1.970 . S
C715 C631 2.843 . S
C709 C331 2.469 . S
C735 C492 2.921 . S
C729 C121 2.561 . S
C749 C211 2.269 . S
C755 C522 2.340 . S
C769 C31 2.223 . S
C775 C562 2.337 . S
C789 C91 2.511 . S
C795 C612 2.843 1_655 S
C815 C488 0.423 1_655 S
C809 C301 0.665 . S
C835 C549 0.635 . S
C829 C380 0.628 . S
C855 C589 0.349 . S
C849 C440 0.321 . S
C869 C260 0.716 . S
C875 C608 0.395 . S
C889 C61 0.454 . S
C895 C509 0.343 . S
C915 C528 0.606 . S
C909 C140 0.636 . S
C935 C568 0.337 . S
C929 C200 0.326 . S
C949 C20 0.497 . S
C955 C629 0.328 . S
C969 C320 2.630 . S
C975 C482 2.862 . S
C989 C361 2.959 . S
C995 C532 3.491 . S
C1015 C572 3.207 . S
C1009 C421 2.651 . S
C1035 C602 2.578 . S
C1029 C271 2.383 . S
C1049 C80 2.657 . S
C1055 C497 2.861 . S
C1075 C551 3.494 . S
C1069 C151 3.319 . S
C1095 C591 3.210 . S
C1089 C181 2.723 . S
C1109 C1 2.045 . S
C1115 C617 2.574 . S
