# Generated by pormake.
# Topology pth, (4,4)-cn, num edge types: 1
# Building blocks:
#     Node 0, Type 0, BuildingBlock: QUQFOY_clean_sbu_1, # of connection points: 4
#     Node 1, Type 0, BuildingBlock: QUQFOY_clean_sbu_1, # of connection points: 4
#     Node 2, Type 0, BuildingBlock: QUQFOY_clean_sbu_1, # of connection points: 4
#     Node 3, Type 1, BuildingBlock: NAHDIM_clean_linker_0, # of connection points: 4
#     Node 4, Type 1, BuildingBlock: NAHDIM_clean_linker_0, # of connection points: 4
#     Node 5, Type 1, BuildingBlock: NAHDIM_clean_linker_0, # of connection points: 4
#     Edge 6, Type (0, 1), BuildingBlock: FUNLAD_clean_linker_1, # of connection points: 2
#     Edge 7, Type (0, 1), BuildingBlock: FUNLAD_clean_linker_1, # of connection points: 2
#     Edge 8, Type (0, 1), BuildingBlock: FUNLAD_clean_linker_1, # of connection points: 2
#     Edge 9, Type (0, 1), BuildingBlock: FUNLAD_clean_linker_1, # of connection points: 2
#     Edge 10, Type (0, 1), BuildingBlock: FUNLAD_clean_linker_1, # of connection points: 2
#     Edge 11, Type (0, 1), BuildingBlock: FUNLAD_clean_linker_1, # of connection points: 2
#     Edge 12, Type (0, 1), BuildingBlock: FUNLAD_clean_linker_1, # of connection points: 2
#     Edge 13, Type (0, 1), BuildingBlock: FUNLAD_clean_linker_1, # of connection points: 2
#     Edge 14, Type (0, 1), BuildingBlock: FUNLAD_clean_linker_1, # of connection points: 2
#     Edge 15, Type (0, 1), BuildingBlock: FUNLAD_clean_linker_1, # of connection points: 2
#     Edge 16, Type (0, 1), BuildingBlock: FUNLAD_clean_linker_1, # of connection points: 2
#     Edge 17, Type (0, 1), BuildingBlock: FUNLAD_clean_linker_1, # of connection points: 2
# Relax obj value: 0.027
# Max RMSD: 0.121
# Mean RMSD: 0.078
data_MOF--net-pth--node1-QUQFOY_clean_sbu_1--node2-NAHDIM_clean_linker_0--edge1-FUNLAD_clean_linker_1
_symmetry_space_group_name_H-M    P1
_symmetry_Int_Tables_number       1
_symmetry_cell_setting            triclinic
loop_
_symmetry_equiv_pos_as_xyz
'x, y, z'
_cell_length_a     31.647311
_cell_length_b     34.33405
_cell_length_c     85.786443
_cell_angle_alpha  89.597645
_cell_angle_beta   90.725386
_cell_angle_gamma 120.07527
loop_
_atom_site_label
_atom_site_type_symbol
_atom_site_fract_x
_atom_site_fract_y
_atom_site_fract_z
_atom_type_partial_charge
O0 O 0.07401 0.10269 0.06426 0.0
Cd1 Cd 0.01603 0.05648 0.07749 0.0
Cd2 Cd 0.06592 0.01301 0.07519 0.0
O3 O 0.12125 0.0726 0.06642 0.0
O4 O 0.98696 0.09141 0.08612 0.0
O5 O 0.02199 0.062 0.10083 0.0
C6 C 0.00112 0.086 0.09973 0.0
C7 C 0.07667 0.97293 0.09531 0.0
C8 C 0.11421 0.10411 0.06171 0.0
C9 C 0.96905 0.97302 0.0587 0.0
O10 O 0.00996 0.97479 0.05988 0.0
O11 O 0.96101 1.00056 0.06612 0.0
O12 O 0.09271 0.97359 0.08152 0.0
O13 O 0.05656 0.997 0.09793 0.0
O14 O 0.9758 0.09111 0.39871 0.0
Cd15 Cd 0.03828 0.10818 0.38628 0.0
Cd16 Cd 0.99441 0.01962 0.38347 0.0
O17 O 0.93318 0.02055 0.39081 0.0
O18 O 0.06486 0.17097 0.37849 0.0
O19 O 0.03493 0.11123 0.36302 0.0
C20 C 0.05362 0.1542 0.36463 0.0
C21 C 0.9945 0.97617 0.36276 0.0
C22 C 0.93592 0.05371 0.39818 0.0
C23 C 0.08406 0.0652 0.40385 0.0
O24 O 0.04484 0.02913 0.40058 0.0
O25 O 0.09265 0.10244 0.3979 0.0
O26 O 0.97345 0.95791 0.37572 0.0
O27 O 0.0128 0.01904 0.36115 0.0
O28 O 0.95026 0.01442 0.71905 0.0
Cd29 Cd 0.98553 0.98862 0.73218 0.0
Cd30 Cd 0.05289 0.07732 0.73577 0.0
O31 O 0.00311 0.08649 0.72282 0.0
O32 O 0.93478 0.92557 0.73716 0.0
O33 O 0.9706 0.97885 0.75508 0.0
C34 C 0.93862 0.93784 0.7515 0.0
C35 C 0.08223 0.11698 0.759 0.0
C36 C 0.96345 0.05563 0.71694 0.0
C37 C 0.08559 0.01932 0.71985 0.0
O38 O 0.09681 0.05855 0.72432 0.0
O39 O 0.04313 0.98601 0.72219 0.0
O40 O 0.09786 0.13634 0.74569 0.0
O41 O 0.04956 0.07477 0.75916 0.0
C42 C 0.10962 0.74573 0.32519 0.0
C43 C 0.07524 0.7464 0.31256 0.0
C44 C 0.04455 0.67284 0.29974 0.0
C45 C 0.08837 0.68321 0.29229 0.0
C46 C 0.09172 0.65081 0.28332 0.0
C47 C 0.05036 0.60738 0.28158 0.0
C48 C 0.00621 0.59691 0.28898 0.0
C49 C 0.00398 0.6298 0.29798 0.0
C50 C 0.13941 0.66303 0.27561 0.0
C51 C 0.9613 0.55104 0.28727 0.0
C52 C 0.15929 0.35159 0.30755 0.0
C53 C 0.12101 0.36069 0.29992 0.0
C54 C 0.12382 0.43036 0.29079 0.0
C55 C 0.07312 0.41348 0.29024 0.0
C56 C 0.05406 0.43956 0.28398 0.0
C57 C 0.08628 0.48298 0.27798 0.0
C58 C 0.1373 0.50025 0.27884 0.0
C59 C 0.1553 0.47378 0.28534 0.0
C60 C 0.99953 0.4205 0.28348 0.0
C61 C 0.17288 0.54642 0.27263 0.0
C62 C 0.99433 0.37298 0.18196 0.0
C63 C 0.95659 0.37584 0.1894 0.0
C64 C 0.96551 0.41583 0.19663 0.0
C65 C 0.01309 0.45385 0.19648 0.0
C66 C 0.05081 0.45165 0.1886 0.0
C67 C 0.04087 0.41119 0.18142 0.0
C68 C 0.92423 0.41717 0.20478 0.0
C69 C 0.10185 0.49163 0.18816 0.0
C70 C 0.98571 0.7444 0.19532 0.0
C71 C 0.02804 0.74942 0.18542 0.0
C72 C 0.01675 0.67453 0.18356 0.0
C73 C 0.97434 0.6326 0.18484 0.0
C74 C 0.9755 0.59621 0.19201 0.0
C75 C 0.02057 0.60181 0.19754 0.0
C76 C 0.06405 0.64363 0.19539 0.0
C77 C 0.06153 0.6797 0.18857 0.0
C78 C 0.92844 0.55226 0.19404 0.0
C79 C 0.11315 0.65053 0.20052 0.0
C80 C 0.05278 0.57319 0.2717 0.0
C81 C 0.06475 0.54314 0.27883 0.0
C82 C 0.06718 0.50993 0.27017 0.0
C83 C 0.05574 0.50546 0.25405 0.0
C84 C 0.05534 0.47106 0.24512 0.0
C85 C 0.04398 0.46695 0.22928 0.0
C86 C 0.03456 0.49819 0.2216 0.0
C87 C 0.02352 0.49463 0.20546 0.0
C88 C 0.01893 0.52862 0.19791 0.0
C89 C 0.02227 0.56498 0.20626 0.0
C90 C 0.02845 0.56657 0.22267 0.0
C91 C 0.02717 0.60007 0.23166 0.0
C92 C 0.0342 0.60182 0.24774 0.0
C93 C 0.04394 0.57079 0.25543 0.0
C94 C 0.04503 0.53656 0.24661 0.0
C95 C 0.03602 0.53378 0.23028 0.0
C96 C 0.94111 0.27027 0.192 0.0
C97 C 0.94622 0.292 0.17592 0.0
O98 O 0.03967 0.70282 0.30877 0.0
O99 O 0.0138 0.70963 0.17745 0.0
O100 O 0.98782 0.33426 0.17541 0.0
O101 O 0.14419 0.40604 0.29615 0.0
H102 H 0.09628 0.76428 0.302 0.0
H103 H 0.12782 0.72728 0.32111 0.0
H104 H 0.08896 0.72894 0.33592 0.0
H105 H 0.13853 0.78059 0.32813 0.0
H106 H 0.12017 0.71636 0.29341 0.0
H107 H 0.97032 0.62204 0.30372 0.0
H108 H 0.15133 0.63887 0.27921 0.0
H109 H 0.16884 0.69764 0.2786 0.0
H110 H 0.13426 0.66054 0.26276 0.0
H111 H 0.92957 0.54832 0.29364 0.0
H112 H 0.96919 0.52491 0.29176 0.0
H113 H 0.95128 0.54379 0.27474 0.0
H114 H 0.09214 0.35303 0.30862 0.0
H115 H 0.14197 0.31896 0.3138 0.0
H116 H 0.18073 0.37798 0.31638 0.0
H117 H 0.18492 0.352 0.29873 0.0
H118 H 0.04831 0.38004 0.29457 0.0
H119 H 0.19431 0.48657 0.28589 0.0
H120 H 0.9903 0.44471 0.28875 0.0
H121 H 0.97956 0.38784 0.28974 0.0
H122 H 0.98668 0.41535 0.27117 0.0
H123 H 0.21139 0.55431 0.2737 0.0
H124 H 0.1689 0.57224 0.27912 0.0
H125 H 0.16461 0.54889 0.26016 0.0
H126 H 0.91324 0.29464 0.17333 0.0
H127 H 0.92017 0.34699 0.18985 0.0
H128 H 0.06974 0.40894 0.17559 0.0
H129 H 0.93216 0.42193 0.21749 0.0
H130 H 0.88861 0.38585 0.20297 0.0
H131 H 0.92107 0.4462 0.20048 0.0
H132 H 0.12684 0.48504 0.18112 0.0
H133 H 0.11678 0.50052 0.20022 0.0
H134 H 0.10099 0.52119 0.18321 0.0
H135 H 0.0596 0.75765 0.19332 0.0
H136 H 0.99663 0.77601 0.20181 0.0
H137 H 0.97526 0.71681 0.20392 0.0
H138 H 0.95342 0.73632 0.18783 0.0
H139 H 0.94003 0.62895 0.18071 0.0
H140 H 0.09449 0.71195 0.1871 0.0
H141 H 0.92423 0.54142 0.20643 0.0
H142 H 0.92944 0.52579 0.18697 0.0
H143 H 0.89601 0.55465 0.19039 0.0
H144 H 0.14378 0.68161 0.19545 0.0
H145 H 0.11696 0.62131 0.1971 0.0
H146 H 0.11628 0.65339 0.21341 0.0
H147 H 0.07321 0.5462 0.29121 0.0
H148 H 0.06317 0.44652 0.25033 0.0
H149 H 0.04364 0.43947 0.22306 0.0
H150 H 0.01225 0.52653 0.18543 0.0
H151 H 0.02033 0.62514 0.22638 0.0
H152 H 0.03263 0.62827 0.25404 0.0
H153 H 0.90855 0.23592 0.19215 0.0
H154 H 0.93647 0.29042 0.20116 0.0
H155 H 0.97408 0.26796 0.19495 0.0
C156 C 0.29034 0.89703 0.65245 0.0
C157 C 0.29477 0.94178 0.64749 0.0
C158 C 0.32764 0.96294 0.62166 0.0
C159 C 0.35951 0.00946 0.6225 0.0
C160 C 0.40131 0.03035 0.61318 0.0
C161 C 0.41166 0.00384 0.60306 0.0
C162 C 0.37839 0.95695 0.60184 0.0
C163 C 0.33617 0.93727 0.61098 0.0
C164 C 0.43522 0.08046 0.61457 0.0
C165 C 0.38852 0.92722 0.5915 0.0
C166 C 0.65276 0.07017 0.67063 0.0
C167 C 0.66896 0.04728 0.65877 0.0
C168 C 0.65335 0.0661 0.63288 0.0
C169 C 0.62383 0.02337 0.62632 0.0
C170 C 0.59016 0.01683 0.6144 0.0
C171 C 0.58605 0.05384 0.60899 0.0
C172 C 0.61761 0.09738 0.61505 0.0
C173 C 0.65143 0.10302 0.62682 0.0
C174 C 0.55803 0.9702 0.60788 0.0
C175 C 0.61424 0.13757 0.60953 0.0
C176 C 0.68767 0.07585 0.50721 0.0
C177 C 0.65089 0.03457 0.51323 0.0
C178 C 0.61221 0.03216 0.52179 0.0
C179 C 0.61046 0.07188 0.52462 0.0
C180 C 0.64788 0.11361 0.51892 0.0
C181 C 0.68601 0.11501 0.51027 0.0
C182 C 0.57276 0.98693 0.52762 0.0
C183 C 0.64727 0.15658 0.52186 0.0
C184 C 0.25845 0.0025 0.49725 0.0
C185 C 0.30076 0.04483 0.48994 0.0
C186 C 0.37292 0.04173 0.49815 0.0
C187 C 0.3838 0.00723 0.49974 0.0
C188 C 0.41901 0.0105 0.51056 0.0
C189 C 0.44509 0.05008 0.51961 0.0
C190 C 0.43493 0.08562 0.51778 0.0
C191 C 0.39859 0.0809 0.50713 0.0
C192 C 0.42866 0.97182 0.51217 0.0
C193 C 0.46319 0.12892 0.52682 0.0
C194 C 0.45985 0.02385 0.59533 0.0
C195 C 0.49985 0.03137 0.60459 0.0
C196 C 0.54575 0.04629 0.59815 0.0
C197 C 0.55204 0.05303 0.58189 0.0
C198 C 0.59694 0.06528 0.57488 0.0
C199 C 0.60231 0.07067 0.5588 0.0
C200 C 0.56324 0.06478 0.54917 0.0
C201 C 0.56788 0.06887 0.5328 0.0
C202 C 0.52925 0.06518 0.52364 0.0
C203 C 0.48485 0.05522 0.53029 0.0
C204 C 0.47846 0.04837 0.54657 0.0
C205 C 0.43339 0.03565 0.55358 0.0
C206 C 0.42726 0.02797 0.56957 0.0
C207 C 0.466 0.03288 0.57915 0.0
C208 C 0.51211 0.04681 0.57238 0.0
C209 C 0.51807 0.05373 0.55605 0.0
C210 C 0.75658 0.03165 0.50604 0.0
C211 C 0.73145 0.04457 0.49331 0.0
O212 O 0.28937 0.94211 0.63145 0.0
O213 O 0.33898 0.03703 0.48737 0.0
O214 O 0.72506 0.07945 0.49844 0.0
O215 O 0.6835 0.07244 0.64516 0.0
H216 H 0.33141 0.96948 0.65129 0.0
H217 H 0.31922 0.89292 0.64678 0.0
H218 H 0.25411 0.8684 0.64897 0.0
H219 H 0.29499 0.89618 0.66529 0.0
H220 H 0.35198 0.02917 0.63064 0.0
H221 H 0.31091 0.90134 0.61041 0.0
H222 H 0.46815 0.08699 0.62141 0.0
H223 H 0.41767 0.09724 0.62054 0.0
H224 H 0.4474 0.09581 0.60287 0.0
H225 H 0.36134 0.89096 0.59303 0.0
H226 H 0.4255 0.93242 0.59404 0.0
H227 H 0.38766 0.93628 0.57911 0.0
H228 H 0.6375 0.01296 0.6566 0.0
H229 H 0.64204 0.05079 0.68172 0.0
H230 H 0.62072 0.07167 0.66595 0.0
H231 H 0.68257 0.10506 0.67307 0.0
H232 H 0.62687 0.9951 0.63059 0.0
H233 H 0.67503 0.13598 0.63183 0.0
H234 H 0.55825 0.97125 0.59494 0.0
H235 H 0.51984 0.95731 0.61164 0.0
H236 H 0.56984 0.94625 0.61188 0.0
H237 H 0.6414 0.16917 0.61544 0.0
H238 H 0.57706 0.13188 0.61176 0.0
H239 H 0.62022 0.14185 0.59677 0.0
H240 H 0.69556 0.01482 0.49018 0.0
H241 H 0.65171 0.0039 0.51128 0.0
H242 H 0.7146 0.14676 0.50571 0.0
H243 H 0.57283 0.98686 0.54056 0.0
H244 H 0.57777 0.95884 0.52359 0.0
H245 H 0.53636 0.98058 0.5236 0.0
H246 H 0.68113 0.18677 0.51782 0.0
H247 H 0.64284 0.1601 0.5345 0.0
H248 H 0.61553 0.15522 0.51567 0.0
H249 H 0.31187 0.07377 0.49795 0.0
H250 H 0.22792 0.00811 0.50028 0.0
H251 H 0.2711 0.9938 0.50817 0.0
H252 H 0.24479 0.97355 0.4891 0.0
H253 H 0.36408 0.97738 0.49259 0.0
H254 H 0.39143 0.10837 0.50549 0.0
H255 H 0.43037 0.96395 0.52466 0.0
H256 H 0.46451 0.98149 0.50694 0.0
H257 H 0.40019 0.94098 0.50621 0.0
H258 H 0.45352 0.15462 0.52317 0.0
H259 H 0.50301 0.14297 0.52522 0.0
H260 H 0.45564 0.12211 0.53944 0.0
H261 H 0.49501 0.02482 0.61703 0.0
H262 H 0.62818 0.0702 0.58175 0.0
H263 H 0.63752 0.07967 0.55398 0.0
H264 H 0.53323 0.06858 0.51108 0.0
H265 H 0.40222 0.03102 0.54675 0.0
H266 H 0.39176 0.01803 0.57436 0.0
H267 H 0.76153 0.00352 0.502 0.0
H268 H 0.73417 0.02049 0.51673 0.0
H269 H 0.79289 0.06088 0.50908 0.0
C270 C 0.63213 0.76089 0.82475 0.0
C271 C 0.67493 0.77011 0.83571 0.0
C272 C 0.64217 0.69719 0.84926 0.0
C273 C 0.60674 0.70065 0.85794 0.0
C274 C 0.57293 0.66447 0.86705 0.0
C275 C 0.57538 0.62447 0.86786 0.0
C276 C 0.61194 0.62142 0.85955 0.0
C277 C 0.64471 0.65779 0.85031 0.0
C278 C 0.53416 0.66879 0.87565 0.0
C279 C 0.61606 0.57953 0.86029 0.0
C280 C 0.22148 0.35636 0.8562 0.0
C281 C 0.25346 0.3723 0.84163 0.0
C282 C 0.33782 0.41077 0.85196 0.0
C283 C 0.38001 0.4077 0.85372 0.0
C284 C 0.42152 0.44132 0.86148 0.0
C285 C 0.42058 0.47889 0.86772 0.0
C286 C 0.37836 0.48271 0.86577 0.0
C287 C 0.33742 0.44869 0.8579 0.0
C288 C 0.46608 0.43637 0.86326 0.0
C289 C 0.37629 0.52247 0.87226 0.0
C290 C 0.39166 0.37519 0.96763 0.0
C291 C 0.43253 0.38085 0.95938 0.0
C292 C 0.4617 0.42037 0.95092 0.0
C293 C 0.44979 0.45496 0.95063 0.0
C294 C 0.40869 0.44943 0.95885 0.0
C295 C 0.38016 0.40955 0.96725 0.0
C296 C 0.50546 0.42526 0.94233 0.0
C297 C 0.39501 0.48566 0.95873 0.0
C298 C 0.76474 0.76365 0.9653 0.0
C299 C 0.7255 0.75355 0.97754 0.0
C300 C 0.66502 0.67606 0.9711 0.0
C301 C 0.667 0.6373 0.96774 0.0
C302 C 0.6317 0.60358 0.9581 0.0
C303 C 0.59253 0.60823 0.95215 0.0
C304 C 0.58956 0.64689 0.95592 0.0
C305 C 0.62619 0.68068 0.96525 0.0
C306 C 0.63627 0.56297 0.95434 0.0
C307 C 0.54729 0.6522 0.95034 0.0
C308 C 0.53887 0.58535 0.87702 0.0
C309 C 0.49872 0.55117 0.86902 0.0
C310 C 0.46295 0.5133 0.87684 0.0
C311 C 0.46721 0.50903 0.89311 0.0
C312 C 0.43233 0.47096 0.90129 0.0
C313 C 0.43696 0.46691 0.91728 0.0
C314 C 0.47617 0.50112 0.92575 0.0
C315 C 0.48131 0.49722 0.94198 0.0
C316 C 0.51913 0.53286 0.9502 0.0
C317 C 0.55362 0.57181 0.94254 0.0
C318 C 0.55079 0.57524 0.92615 0.0
C319 C 0.58655 0.6126 0.91791 0.0
C320 C 0.58306 0.6158 0.90181 0.0
C321 C 0.54338 0.582 0.89335 0.0
C322 C 0.50731 0.54372 0.9014 0.0
C323 C 0.51135 0.54009 0.91778 0.0
C324 C 0.34698 0.26888 0.96367 0.0
C325 C 0.36743 0.29982 0.97794 0.0
O326 O 0.67399 0.73039 0.8396 0.0
O327 O 0.70028 0.70768 0.98042 0.0
O328 O 0.3624 0.33744 0.97602 0.0
O329 O 0.29857 0.37625 0.84467 0.0
H330 H 0.67308 0.78715 0.84644 0.0
H331 H 0.59667 0.74054 0.83066 0.0
H332 H 0.63221 0.74218 0.81425 0.0
H333 H 0.63473 0.79309 0.82102 0.0
H334 H 0.60472 0.73115 0.85757 0.0
H335 H 0.6723 0.65544 0.8437 0.0
H336 H 0.49744 0.6402 0.87264 0.0
H337 H 0.53486 0.70079 0.87292 0.0
H338 H 0.53964 0.66739 0.8884 0.0
H339 H 0.64912 0.58395 0.85431 0.0
H340 H 0.58335 0.55119 0.8547 0.0
H341 H 0.61719 0.57006 0.87263 0.0
H342 H 0.25806 0.40513 0.83771 0.0
H343 H 0.18489 0.35197 0.85352 0.0
H344 H 0.23833 0.3815 0.86569 0.0
H345 H 0.21695 0.32388 0.86048 0.0
H346 H 0.38014 0.37848 0.84907 0.0
H347 H 0.30528 0.45191 0.85664 0.0
H348 H 0.49854 0.4667 0.85858 0.0
H349 H 0.46181 0.40616 0.85715 0.0
H350 H 0.47324 0.43378 0.87582 0.0
H351 H 0.34102 0.52089 0.8696 0.0
H352 H 0.40639 0.55417 0.86736 0.0
H353 H 0.38161 0.52384 0.88511 0.0
H354 H 0.40649 0.31003 0.97971 0.0
H355 H 0.44212 0.35475 0.95942 0.0
H356 H 0.34861 0.405 0.9736 0.0
H357 H 0.50077 0.42873 0.92965 0.0
H358 H 0.51093 0.39602 0.94419 0.0
H359 H 0.53894 0.45627 0.94622 0.0
H360 H 0.36068 0.47541 0.96512 0.0
H361 H 0.39052 0.49407 0.94652 0.0
H362 H 0.42488 0.51669 0.96417 0.0
H363 H 0.70063 0.76527 0.97311 0.0
H364 H 0.78279 0.79935 0.96151 0.0
H365 H 0.74774 0.74264 0.95477 0.0
H366 H 0.7927 0.75606 0.97002 0.0
H367 H 0.69691 0.63394 0.9725 0.0
H368 H 0.62361 0.70993 0.96831 0.0
H369 H 0.63047 0.55548 0.94167 0.0
H370 H 0.60773 0.53324 0.96066 0.0
H371 H 0.67253 0.56778 0.9578 0.0
H372 H 0.54722 0.68134 0.95587 0.0
H373 H 0.51212 0.62122 0.95287 0.0
H374 H 0.54941 0.65728 0.93752 0.0
H375 H 0.49516 0.55415 0.85653 0.0
H376 H 0.40117 0.44369 0.89542 0.0
H377 H 0.40916 0.43679 0.92296 0.0
H378 H 0.52231 0.52989 0.96271 0.0
H379 H 0.61775 0.63973 0.92383 0.0
H380 H 0.6117 0.64528 0.89609 0.0
H381 H 0.34972 0.23813 0.96547 0.0
H382 H 0.36792 0.2863 0.9531 0.0
H383 H 0.30812 0.25881 0.96155 0.0
H384 H 0.00921 0.10374 0.12476 0.0
C385 C 0.99647 0.10895 0.11354 0.0
H386 H 0.96993 0.14546 0.10095 0.0
H387 H 0.92396 0.17789 0.17361 0.0
H388 H 0.86638 0.09765 0.17432 0.0
H389 H 0.8606 0.04861 0.15254 0.0
H390 H 0.91288 0.0794 0.13004 0.0
C391 C 0.98051 0.13852 0.11228 0.0
C392 C 0.98335 0.16747 0.12555 0.0
C393 C 0.95159 0.149 0.13842 0.0
C394 C 0.95362 0.17756 0.15071 0.0
C395 C 0.9228 0.15803 0.16371 0.0
C396 C 0.88977 0.11196 0.16431 0.0
C397 C 0.88662 0.08433 0.15207 0.0
C398 C 0.91703 0.10244 0.13924 0.0
H399 H 0.91689 0.24487 0.15564 0.0
C400 C 0.94831 0.26239 0.1634 0.0
H401 H 0.01813 0.27305 0.16954 0.0
H402 H 0.05105 0.21343 0.10296 0.0
H403 H 0.10775 0.29382 0.10213 0.0
H404 H 0.10942 0.34353 0.12304 0.0
H405 H 0.05452 0.3131 0.14497 0.0
C406 C 0.98612 0.2552 0.16206 0.0
C407 C 0.98623 0.22468 0.14984 0.0
C408 C 0.01855 0.24299 0.13712 0.0
C409 C 0.01713 0.21437 0.12497 0.0
C410 C 0.05004 0.23362 0.11242 0.0
C411 C 0.0829 0.27973 0.11181 0.0
C412 C 0.08388 0.30771 0.1236 0.0
C413 C 0.05217 0.28977 0.13612 0.0
H414 H 0.86139 0.01362 0.40745 0.0
C415 C 0.89438 0.04647 0.40784 0.0
H416 H 0.93157 0.10944 0.41933 0.0
H417 H 0.73938 0.08565 0.4512 0.0
H418 H 0.74995 0.13946 0.43095 0.0
H419 H 0.81174 0.15954 0.41053 0.0
H420 H 0.86325 0.12575 0.41018 0.0
C421 C 0.89889 0.07647 0.41867 0.0
C422 C 0.86164 0.06435 0.43098 0.0
C423 C 0.83234 0.0848 0.43113 0.0
C424 C 0.79709 0.0736 0.44301 0.0
C425 C 0.76738 0.09362 0.44264 0.0
C426 C 0.7729 0.12439 0.43104 0.0
C427 C 0.80767 0.13567 0.41953 0.0
C428 C 0.83704 0.1161 0.41948 0.0
H429 H 0.7944 0.09329 0.47872 0.0
C430 C 0.76273 0.05955 0.47896 0.0
H431 H 0.72575 0.99595 0.46814 0.0
H432 H 0.91601 0.02284 0.43525 0.0
H433 H 0.90572 0.96953 0.45551 0.0
H434 H 0.84299 0.94848 0.47566 0.0
H435 H 0.7905 0.98101 0.4757 0.0
C436 C 0.75554 0.03055 0.46742 0.0
C437 C 0.79172 0.04234 0.45481 0.0
C438 C 0.82118 0.02201 0.4547 0.0
C439 C 0.85667 0.03348 0.4429 0.0
C440 C 0.8873 0.01434 0.44357 0.0
C441 C 0.88208 0.98388 0.45524 0.0
C442 C 0.84682 0.97208 0.46659 0.0
C443 C 0.81681 0.99095 0.46643 0.0
H444 H 0.87954 0.87178 0.75919 0.0
C445 C 0.90444 0.90602 0.76305 0.0
H446 H 0.92369 0.95269 0.78149 0.0
H447 H 0.69051 0.79999 0.79387 0.0
H448 H 0.67417 0.8307 0.77054 0.0
H449 H 0.74175 0.88896 0.75506 0.0
H450 H 0.82592 0.91636 0.7627 0.0
C451 C 0.89916 0.91874 0.77732 0.0
C452 C 0.85835 0.88714 0.78754 0.0
C453 C 0.80921 0.87248 0.78312 0.0
C454 C 0.77023 0.8399 0.7923 0.0
C455 C 0.72153 0.825 0.78742 0.0
C456 C 0.71161 0.84239 0.77406 0.0
C457 C 0.74965 0.8751 0.76533 0.0
C458 C 0.79789 0.89023 0.76978 0.0
H459 H 0.74141 0.8371 0.83143 0.0
C460 C 0.7226 0.80195 0.82791 0.0
H461 H 0.71917 0.75495 0.81148 0.0
H462 H 0.94805 0.91019 0.7998 0.0
H463 H 0.9642 0.88176 0.82381 0.0
H464 H 0.89646 0.82633 0.83997 0.0
H465 H 0.81207 0.79887 0.83222 0.0
C466 C 0.73916 0.78943 0.81568 0.0
C467 C 0.78035 0.82336 0.80619 0.0
C468 C 0.82936 0.83925 0.81093 0.0
C469 C 0.86843 0.87122 0.80159 0.0
C470 C 0.91704 0.88607 0.80649 0.0
C471 C 0.9268 0.87 0.82023 0.0
C472 C 0.88865 0.83878 0.82933 0.0
C473 C 0.84041 0.82338 0.82478 0.0
H474 H 0.08946 0.91878 0.10344 0.0
C475 C 0.07775 0.94209 0.10715 0.0
H476 H 0.04795 0.9614 0.12532 0.0
H477 H 0.93859 0.77357 0.15873 0.0
H478 H 0.87242 0.78595 0.15103 0.0
H479 H 0.88747 0.8503 0.13432 0.0
H480 H 0.96885 0.903 0.12542 0.0
C481 C 0.06103 0.93907 0.12169 0.0
C482 C 0.05281 0.90104 0.13219 0.0
C483 C 0.00467 0.86995 0.13706 0.0
C484 C 0.99572 0.83203 0.14631 0.0
C485 C 0.94746 0.80234 0.15138 0.0
C486 C 0.90904 0.8091 0.14709 0.0
C487 C 0.91753 0.84537 0.13771 0.0
C488 C 0.96461 0.87549 0.13272 0.0
H489 H 0.06915 0.82198 0.17879 0.0
C490 C 0.04393 0.78854 0.17431 0.0
H491 H 0.99674 0.75134 0.15581 0.0
H492 H 0.15044 0.95784 0.12727 0.0
H493 H 0.21617 0.94336 0.1337 0.0
H494 H 0.19928 0.87307 0.14695 0.0
H495 H 0.11688 0.81756 0.15426 0.0
C496 C 0.02436 0.78433 0.15999 0.0
C497 C 0.03467 0.82452 0.15038 0.0
C498 C 0.08276 0.85536 0.14537 0.0
C499 C 0.09208 0.89448 0.13678 0.0
C500 C 0.14094 0.92642 0.13303 0.0
C501 C 0.17909 0.91871 0.13677 0.0
C502 C 0.16961 0.87925 0.1443 0.0
C503 C 0.12212 0.84782 0.14856 0.0
H504 H 0.10309 0.03214 0.42229 0.0
C505 C 0.11743 0.06283 0.41541 0.0
H506 H 0.17828 0.12707 0.41123 0.0
H507 H 0.26529 0.14304 0.47942 0.0
H508 H 0.25936 0.21055 0.47715 0.0
H509 H 0.22245 0.22425 0.45379 0.0
H510 H 0.19201 0.17096 0.43245 0.0
C511 C 0.16357 0.09604 0.41789 0.0
C512 C 0.19337 0.09185 0.43074 0.0
C513 C 0.2107 0.12331 0.44315 0.0
C514 C 0.23078 0.11479 0.45682 0.0
C515 C 0.2486 0.14719 0.46893 0.0
C516 C 0.24562 0.18622 0.46776 0.0
C517 C 0.2249 0.19397 0.4546 0.0
C518 C 0.20753 0.163 0.44242 0.0
H519 H 0.30591 0.05788 0.46416 0.0
C520 C 0.28568 0.05608 0.47456 0.0
H521 H 0.2293 0.06411 0.48383 0.0
H522 H 0.17852 0.03264 0.40728 0.0
H523 H 0.18133 0.96342 0.40964 0.0
H524 H 0.20331 0.94213 0.4347 0.0
H525 H 0.2245 0.99051 0.45723 0.0
C526 C 0.24799 0.06361 0.47336 0.0
C527 C 0.23227 0.07427 0.45823 0.0
C528 C 0.21657 0.04358 0.44553 0.0
C529 C 0.19968 0.05375 0.4315 0.0
C530 C 0.18857 0.02489 0.4185 0.0
C531 C 0.19042 0.98531 0.41966 0.0
C532 C 0.20308 0.97348 0.43373 0.0
C533 C 0.21581 0.002 0.44656 0.0
H534 H 0.08667 0.12492 0.78464 0.0
C535 C 0.10112 0.14235 0.77367 0.0
H536 H 0.15135 0.20346 0.76282 0.0
H537 H 0.13225 0.27891 0.83166 0.0
H538 H 0.04838 0.25391 0.82412 0.0
H539 H 0.0132 0.21071 0.79991 0.0
H540 H 0.06135 0.19155 0.78324 0.0
C541 C 0.13552 0.18617 0.77371 0.0
C542 C 0.15599 0.2119 0.78841 0.0
C543 C 0.12763 0.2239 0.79776 0.0
C544 C 0.14856 0.25051 0.81136 0.0
C545 C 0.11882 0.26032 0.82088 0.0
C546 C 0.07049 0.24591 0.81675 0.0
C547 C 0.05064 0.22146 0.80314 0.0
C548 C 0.07867 0.21051 0.79371 0.0
H549 H 0.21564 0.35068 0.81846 0.0
C550 C 0.22878 0.3397 0.82838 0.0
H551 H 0.23591 0.28683 0.83828 0.0
H552 H 0.21948 0.19287 0.77349 0.0
H553 H 0.30383 0.21907 0.78079 0.0
H554 H 0.341 0.26753 0.80384 0.0
H555 H 0.29401 0.28989 0.81978 0.0
C556 C 0.22183 0.29773 0.82861 0.0
C557 C 0.19835 0.26661 0.81521 0.0
C558 C 0.22636 0.25386 0.80604 0.0
C559 C 0.20514 0.22643 0.79264 0.0
C560 C 0.23394 0.21411 0.78369 0.0
C561 C 0.28238 0.22882 0.78777 0.0
C562 C 0.30329 0.25606 0.80075 0.0
C563 C 0.27584 0.26859 0.80981 0.0
H564 H 0.94492 0.1037 0.70601 0.0
C565 C 0.93219 0.06816 0.70785 0.0
H566 H 0.87552 0.00149 0.70368 0.0
H567 H 0.75767 0.11426 0.69392 0.0
H568 H 0.7746 0.13331 0.72133 0.0
H569 H 0.8279 0.11327 0.73639 0.0
H570 H 0.8649 0.07452 0.72414 0.0
C571 C 0.88821 0.03715 0.70227 0.0
C572 C 0.85647 0.04997 0.69333 0.0
C573 C 0.83472 0.07227 0.7008 0.0
C574 C 0.80307 0.0829 0.69222 0.0
C575 C 0.78183 0.10521 0.69991 0.0
C576 C 0.79117 0.11629 0.71565 0.0
C577 C 0.82124 0.10508 0.72412 0.0
C578 C 0.84262 0.08312 0.71688 0.0
H579 H 0.70171 0.00797 0.66867 0.0
C580 C 0.70994 0.04163 0.66529 0.0
H581 H 0.76294 0.1108 0.66543 0.0
H582 H 0.89324 0.00835 0.67541 0.0
H583 H 0.87566 0.98898 0.64802 0.0
H584 H 0.82033 0.00711 0.63324 0.0
H585 H 0.78218 0.0447 0.64577 0.0
C586 C 0.75479 0.07672 0.66804 0.0
C587 C 0.79206 0.07 0.67638 0.0
C588 C 0.81436 0.04841 0.66885 0.0
C589 C 0.84647 0.03823 0.67735 0.0
C590 C 0.86829 0.01664 0.66954 0.0
C591 C 0.85864 0.00544 0.65381 0.0
C592 C 0.82746 0.01562 0.64549 0.0
C593 C 0.80559 0.03697 0.65284 0.0
H594 H 0.94598 0.92618 0.03907 0.0
C595 C 0.93268 0.94027 0.04775 0.0
H596 H 0.87123 0.94109 0.05656 0.0
H597 H 0.75223 0.87906 0.99291 0.0
H598 H 0.7509 0.94717 0.99913 0.0
H599 H 0.7962 0.99318 0.02194 0.0
H600 H 0.84231 0.97094 0.03882 0.0
C601 C 0.88492 0.92712 0.04799 0.0
C602 C 0.85117 0.89586 0.03575 0.0
C603 C 0.82484 0.90972 0.02589 0.0
C604 C 0.79992 0.8839 0.01246 0.0
C605 C 0.77293 0.89796 0.00302 0.0
C606 C 0.77165 0.93692 0.00649 0.0
C607 C 0.79709 0.96278 0.01934 0.0
C608 C 0.82348 0.94957 0.02896 0.0
H609 H 0.73458 0.75844 0.00354 0.0
C610 C 0.74744 0.77758 0.99277 0.0
H611 H 0.79182 0.8418 0.983 0.0
H612 H 0.88332 0.85179 0.05488 0.0
H613 H 0.88821 0.78545 0.04833 0.0
H614 H 0.85848 0.74829 0.02281 0.0
H615 H 0.82175 0.77571 0.00412 0.0
C616 C 0.78109 0.82159 0.99354 0.0
C617 C 0.80272 0.8451 0.0086 0.0
C618 C 0.82784 0.83047 0.01878 0.0
C619 C 0.84936 0.85441 0.03281 0.0
C620 C 0.86953 0.83655 0.04358 0.0
C621 C 0.87218 0.79834 0.04003 0.0
C622 C 0.85515 0.77726 0.02571 0.0
C623 C 0.83344 0.79309 0.01514 0.0
H624 H 0.02186 0.96695 0.3403 0.0
C625 C 0.00251 0.94985 0.35082 0.0
H626 H 0.97599 0.89122 0.36463 0.0
H627 H 0.00245 0.80434 0.29979 0.0
H628 H 0.93045 0.80589 0.29054 0.0
H629 H 0.89579 0.84376 0.30576 0.0
H630 H 0.93311 0.88061 0.33031 0.0
C631 C 0.99291 0.90768 0.35374 0.0
C632 C 0.01415 0.88602 0.34412 0.0
C633 C 0.99173 0.86444 0.32989 0.0
C634 C 0.01127 0.84194 0.32124 0.0
C635 C 0.9886 0.8212 0.30695 0.0
C636 C 0.94738 0.82198 0.30149 0.0
C637 C 0.9279 0.84337 0.31005 0.0
C638 C 0.94966 0.86441 0.3241 0.0
H639 H 0.01635 0.75208 0.32481 0.0
C640 C 0.05067 0.77112 0.31866 0.0
H641 H 0.10879 0.83566 0.31313 0.0
H642 H 0.06678 0.92527 0.37076 0.0
H643 H 0.13856 0.92365 0.38003 0.0
H644 H 0.17208 0.88421 0.36515 0.0
H645 H 0.13406 0.84624 0.3409 0.0
C646 C 0.07291 0.81626 0.31832 0.0
C647 C 0.05294 0.84083 0.32694 0.0
C648 C 0.07584 0.86314 0.34104 0.0
C649 C 0.05633 0.88559 0.34966 0.0
C650 C 0.07982 0.9074 0.36377 0.0
C651 C 0.12113 0.90681 0.36923 0.0
C652 C 0.14002 0.88464 0.36085 0.0
C653 C 0.11781 0.863 0.34693 0.0
H654 H 0.15873 0.04247 0.7103 0.0
C655 C 0.12217 0.01352 0.7113 0.0
H656 H 0.07517 0.9455 0.70503 0.0
H657 H 0.2561 0.02589 0.65329 0.0
H658 H 0.22284 0.07191 0.64398 0.0
H659 H 0.15371 0.07094 0.65731 0.0
H660 H 0.11817 0.02465 0.68022 0.0
C661 C 0.11125 0.97504 0.70401 0.0
C662 C 0.14859 0.97139 0.69475 0.0
C663 C 0.16736 0.99704 0.68092 0.0
C664 C 0.20555 0.99585 0.67276 0.0
C665 C 0.22571 0.02399 0.65956 0.0
C666 C 0.20717 0.05083 0.65414 0.0
C667 C 0.16839 0.05043 0.66168 0.0
C668 C 0.14856 0.02392 0.67491 0.0
H669 H 0.22062 0.93475 0.64943 0.0
C670 C 0.2559 0.9477 0.65522 0.0
H671 H 0.29706 0.97577 0.67576 0.0
H672 H 0.11933 0.91677 0.72047 0.0
H673 H 0.14962 0.86765 0.72901 0.0
H674 H 0.21334 0.86304 0.71424 0.0
H675 H 0.2474 0.90772 0.69089 0.0
C676 C 0.26286 0.96541 0.66957 0.0
C677 C 0.22314 0.96725 0.67802 0.0
C678 C 0.20326 0.94053 0.69155 0.0
C679 C 0.16602 0.94268 0.69995 0.0
C680 C 0.14734 0.91612 0.71356 0.0
C681 C 0.16442 0.8878 0.71861 0.0
C682 C 0.20032 0.88524 0.7103 0.0
C683 C 0.21964 0.91118 0.69693 0.0
H684 H 0.14325 0.16751 0.04851 0.0
C685 C 0.15061 0.14093 0.05197 0.0
H686 H 0.19508 0.11217 0.0484 0.0
H687 H 0.24628 0.18942 0.97983 0.0
H688 H 0.19071 0.11016 0.97484 0.0
H689 H 0.14648 0.05802 0.99638 0.0
H690 H 0.15767 0.08476 0.02303 0.0
C691 C 0.18879 0.13989 0.04579 0.0
C692 C 0.21728 0.17143 0.03304 0.0
C693 C 0.21039 0.15512 0.01753 0.0
C694 C 0.23555 0.1852 0.0051 0.0
C695 C 0.22792 0.16807 0.98971 0.0
C696 C 0.19612 0.12264 0.98668 0.0
C697 C 0.17125 0.09328 0.9988 0.0
C698 C 0.17809 0.10912 0.01406 0.0
H699 H 0.36035 0.26361 0.00037 0.0
C700 C 0.34136 0.2747 0.99245 0.0
H701 H 0.2743 0.27104 0.9869 0.0
H702 H 0.24098 0.21301 0.0615 0.0
H703 H 0.29566 0.29261 0.0664 0.0
H704 H 0.33766 0.34513 0.04473 0.0
H705 H 0.3255 0.31835 0.01801 0.0
C706 C 0.29458 0.26229 0.99514 0.0
C707 C 0.2678 0.23142 0.00821 0.0
C708 C 0.27482 0.24776 0.02371 0.0
C709 C 0.24978 0.21764 0.03617 0.0
C710 C 0.25826 0.23461 0.05157 0.0
C711 C 0.28971 0.28017 0.05455 0.0
C712 C 0.31343 0.30974 0.04235 0.0
C713 C 0.30624 0.29391 0.02708 0.0
H714 H 0.07826 0.21984 0.35325 0.0
C715 C 0.06082 0.18382 0.35118 0.0
H716 H 0.02811 0.1319 0.33443 0.0
H717 H 0.00474 0.29204 0.29899 0.0
H718 H 0.94544 0.27888 0.31899 0.0
H719 H 0.93358 0.22832 0.34115 0.0
H720 H 0.98077 0.19056 0.34343 0.0
C721 C 0.04483 0.16771 0.33678 0.0
C722 C 0.0516 0.19834 0.32348 0.0
C723 C 0.02381 0.22035 0.32239 0.0
C724 C 0.03066 0.24959 0.30963 0.0
C725 C 0.00157 0.27017 0.30859 0.0
C726 C 0.96724 0.26272 0.31994 0.0
C727 C 0.96059 0.23427 0.33242 0.0
C728 C 0.98819 0.21303 0.33365 0.0
H729 H 0.10401 0.35057 0.27433 0.0
C730 C 0.09911 0.33268 0.28526 0.0
H731 H 0.05998 0.27177 0.27328 0.0
H732 H 0.10942 0.16022 0.32177 0.0
H733 H 0.16743 0.17228 0.30146 0.0
H734 H 0.17952 0.2232 0.2794 0.0
H735 H 0.13368 0.26234 0.2775 0.0
C736 C 0.0731 0.28739 0.28462 0.0
C737 C 0.06546 0.25697 0.29806 0.0
C738 C 0.09218 0.23395 0.29891 0.0
C739 C 0.08527 0.20466 0.31164 0.0
C740 C 0.11303 0.18268 0.31231 0.0
C741 C 0.14653 0.18936 0.30075 0.0
C742 C 0.15333 0.21801 0.28833 0.0
C743 C 0.12666 0.24019 0.28737 0.0
loop_
_geom_bond_atom_site_label_1
_geom_bond_atom_site_label_2
_geom_bond_distance
_geom_bond_site_symmetry_2
_ccdc_geom_bond_type
O0 Cd1 2.223 1_455 S
O0 C8 1.315 . S
Cd1 O0 2.223 1_655 S
Cd1 O4 2.297 . S
Cd1 O5 2.439 1_655 S
Cd1 O11 2.240 1_545 S
Cd2 O3 2.263 . S
Cd2 O10 2.220 1_545 S
Cd2 O12 2.277 1_545 S
Cd2 O13 2.437 1_545 S
O3 Cd2 2.263 . S
O3 C8 1.279 . S
O4 Cd1 2.297 . S
O4 C6 1.247 1_655 S
O5 Cd1 2.439 1_455 S
O5 C6 1.208 . S
C6 O4 1.247 1_455 S
C6 O5 1.208 . S
C7 O12 1.247 . S
C7 O13 1.208 . S
C8 O0 1.315 . S
C8 O3 1.279 . S
C9 O10 1.315 1_655 S
C9 O11 1.279 . S
O10 Cd2 2.220 1_565 S
O10 C9 1.315 1_455 S
O11 Cd1 2.240 1_565 S
O11 C9 1.279 . S
O12 Cd2 2.277 1_565 S
O12 C7 1.247 . S
O13 Cd2 2.437 1_565 S
O13 C7 1.208 . S
O14 Cd15 2.223 . S
O14 C22 1.315 1_455 S
Cd15 O14 2.223 . S
Cd15 O18 2.297 . S
Cd15 O19 2.439 . S
Cd15 O25 2.240 . S
Cd16 O17 2.240 1_565 S
Cd16 O24 2.223 1_655 S
Cd16 O26 2.297 1_655 S
Cd16 O27 2.439 1_655 S
O17 Cd16 2.240 1_545 S
O17 C22 1.279 . S
O18 Cd15 2.297 . S
O18 C20 1.247 . S
O19 Cd15 2.439 . S
O19 C20 1.208 . S
C20 O18 1.247 . S
C20 O19 1.208 . S
C21 O26 1.247 . S
C21 O27 1.208 . S
C22 O14 1.315 1_655 S
C22 O17 1.279 . S
C23 O24 1.315 1_545 S
C23 O25 1.279 . S
O24 Cd16 2.223 1_455 S
O24 C23 1.315 1_565 S
O25 Cd15 2.240 . S
O25 C23 1.279 . S
O26 Cd16 2.297 1_455 S
O26 C21 1.247 . S
O27 Cd16 2.439 1_455 S
O27 C21 1.208 . S
O28 Cd29 2.223 . S
O28 C36 1.315 1_565 S
Cd29 O28 2.223 . S
Cd29 O32 2.297 . S
Cd29 O33 2.439 . S
Cd29 O39 2.240 1_665 S
Cd30 O31 2.240 1_455 S
Cd30 O38 2.223 . S
Cd30 O40 2.297 . S
Cd30 O41 2.439 . S
O31 Cd30 2.240 1_655 S
O31 C36 1.279 . S
O32 Cd29 2.297 . S
O32 C34 1.247 . S
O33 Cd29 2.439 . S
O33 C34 1.208 . S
C34 O32 1.247 . S
C34 O33 1.208 . S
C35 O40 1.247 . S
C35 O41 1.208 . S
C36 O28 1.315 1_545 S
C36 O31 1.279 . S
C37 O38 1.315 . S
C37 O39 1.279 . S
O38 Cd30 2.223 . S
O38 C37 1.315 . S
O39 Cd29 2.240 1_445 S
O39 C37 1.279 . S
O40 Cd30 2.297 . S
O40 C35 1.247 . S
O41 Cd30 2.439 . S
O41 C35 1.208 . S
C42 C43 1.560 . S
C42 H103 0.959 . S
C42 H104 0.959 . S
C42 H105 0.960 . S
C43 C42 1.560 . S
C43 O98 1.426 . S
C43 H102 0.980 1_655 S
C44 C45 1.407 1_655 S
C44 C49 1.418 . S
C44 O98 1.334 . S
C45 C44 1.407 1_455 S
C45 C46 1.360 . S
C45 H106 0.929 . S
C46 C45 1.360 . S
C46 C47 1.401 . S
C46 C50 1.527 . S
C47 C46 1.401 . S
C47 C48 1.405 1_455 S
C47 C80 1.587 . S
C48 C47 1.405 1_655 S
C48 C49 1.332 . S
C48 C51 1.496 . S
C49 C44 1.418 . S
C49 C48 1.332 . S
C49 H107 0.929 . S
C50 C46 1.527 . S
C50 H108 0.959 . S
C50 H109 0.961 . S
C50 H110 0.961 . S
C51 C48 1.496 . S
C51 H111 0.960 . S
C51 H112 0.960 . S
C51 H113 0.961 . S
C52 C53 1.517 . S
C52 H115 0.961 . S
C52 H116 0.960 . S
C52 H117 0.959 . S
C53 C52 1.517 . S
C53 O101 1.468 . S
C53 H114 0.980 . S
C54 C55 1.349 . S
C54 C59 1.367 . S
C54 O101 1.408 . S
C55 C54 1.349 . S
C55 C56 1.407 . S
C55 H118 0.930 . S
C56 C55 1.407 . S
C56 C57 1.449 . S
C56 C60 1.535 1_455 S
C57 C56 1.449 . S
C57 C58 1.384 . S
C57 C82 1.553 . S
C58 C57 1.384 . S
C58 C59 1.364 . S
C58 C61 1.450 . S
C59 C54 1.367 . S
C59 C58 1.364 . S
C59 H119 0.931 . S
C60 C56 1.535 1_655 S
C60 H120 0.959 . S
C60 H121 0.961 . S
C60 H122 0.959 . S
C61 C58 1.450 . S
C61 H123 0.960 . S
C61 H124 0.960 . S
C61 H125 0.960 . S
C62 C63 1.309 . S
C62 C67 1.304 . S
C62 O100 1.435 . S
C63 C62 1.309 . S
C63 C64 1.476 . S
C63 H127 0.930 1_455 S
C64 C63 1.476 . S
C64 C65 1.400 . S
C64 C68 1.567 1_455 S
C65 C64 1.400 . S
C65 C66 1.373 . S
C65 C87 1.432 . S
C66 C65 1.373 . S
C66 C67 1.339 . S
C66 C69 1.530 . S
C67 C62 1.304 . S
C67 C66 1.339 . S
C67 H128 0.930 . S
C68 C64 1.567 1_655 S
C68 H129 0.961 . S
C68 H130 0.960 . S
C68 H131 0.958 . S
C69 C66 1.530 . S
C69 H132 0.961 . S
C69 H133 0.960 . S
C69 H134 0.960 . S
C70 C71 1.530 1_655 S
C70 H136 0.961 . S
C70 H137 0.961 . S
C70 H138 0.959 . S
C71 C70 1.530 1_455 S
C71 O99 1.412 1_455 S
C71 H135 0.980 . S
C72 C73 1.288 . S
C72 C77 1.377 1_655 S
C72 O99 1.393 . S
C73 C72 1.288 . S
C73 C74 1.369 . S
C73 H139 0.932 . S
C74 C73 1.369 . S
C74 C75 1.398 1_655 S
C74 C78 1.527 . S
C75 C74 1.398 1_455 S
C75 C76 1.380 . S
C75 C89 1.497 . S
C76 C75 1.380 . S
C76 C77 1.383 . S
C76 C79 1.603 . S
C77 C72 1.377 1_455 S
C77 C76 1.383 . S
C77 H140 0.929 . S
C78 C74 1.527 . S
C78 H141 0.961 . S
C78 H142 0.959 . S
C78 H143 0.959 . S
C79 C76 1.603 . S
C79 H144 0.960 . S
C79 H145 0.962 . S
C79 H146 0.961 . S
C80 C47 1.587 . S
C80 C81 1.360 . S
C80 C93 1.412 . S
C81 C80 1.360 . S
C81 C82 1.365 . S
C81 H147 0.929 . S
C82 C57 1.553 . S
C82 C81 1.365 . S
C82 C83 1.404 . S
C83 C82 1.404 . S
C83 C84 1.395 . S
C83 C94 1.451 . S
C84 C83 1.395 . S
C84 C85 1.322 . S
C84 H148 0.930 . S
C85 C84 1.322 . S
C85 C86 1.459 . S
C85 H149 0.929 . S
C86 C85 1.459 . S
C86 C87 1.445 . S
C86 C95 1.395 . S
C87 C65 1.432 . S
C87 C86 1.445 . S
C87 C88 1.370 . S
C88 C87 1.370 . S
C88 C89 1.438 . S
C88 H150 0.930 . S
C89 C75 1.497 . S
C89 C88 1.438 . S
C89 C90 1.360 . S
C90 C89 1.360 . S
C90 C91 1.401 . S
C90 C95 1.446 . S
C91 C90 1.401 . S
C91 C92 1.347 . S
C91 H151 0.929 . S
C92 C91 1.347 . S
C92 C93 1.455 . S
C92 H152 0.930 . S
C93 C80 1.412 . S
C93 C92 1.455 . S
C93 C94 1.331 . S
C94 C83 1.451 . S
C94 C93 1.331 . S
C94 C95 1.497 . S
C95 C86 1.395 . S
C95 C90 1.446 . S
C95 C94 1.497 . S
C96 C97 1.582 . S
C96 H153 0.962 . S
C96 H154 0.959 . S
C96 H155 0.958 . S
C97 C96 1.582 . S
C97 O100 1.458 . S
C97 H126 0.980 . S
O98 C43 1.426 . S
O98 C44 1.334 . S
O99 C71 1.412 1_655 S
O99 C72 1.393 . S
O100 C62 1.435 . S
O100 C97 1.458 . S
O101 C53 1.468 . S
O101 C54 1.408 . S
H102 C43 0.980 1_455 S
H103 C42 0.959 . S
H104 C42 0.959 . S
H105 C42 0.960 . S
H106 C45 0.929 . S
H107 C49 0.929 . S
H108 C50 0.959 . S
H109 C50 0.961 . S
H110 C50 0.961 . S
H111 C51 0.960 . S
H112 C51 0.960 . S
H113 C51 0.961 . S
H114 C53 0.980 . S
H115 C52 0.961 . S
H116 C52 0.960 . S
H117 C52 0.959 . S
H118 C55 0.930 . S
H119 C59 0.931 . S
H120 C60 0.959 . S
H121 C60 0.961 . S
H122 C60 0.959 . S
H123 C61 0.960 . S
H124 C61 0.960 . S
H125 C61 0.960 . S
H126 C97 0.980 . S
H127 C63 0.930 1_655 S
H128 C67 0.930 . S
H129 C68 0.961 . S
H130 C68 0.960 . S
H131 C68 0.958 . S
H132 C69 0.961 . S
H133 C69 0.960 . S
H134 C69 0.960 . S
H135 C71 0.980 . S
H136 C70 0.961 . S
H137 C70 0.961 . S
H138 C70 0.959 . S
H139 C73 0.932 . S
H140 C77 0.929 . S
H141 C78 0.961 . S
H142 C78 0.959 . S
H143 C78 0.959 . S
H144 C79 0.960 . S
H145 C79 0.962 . S
H146 C79 0.961 . S
H147 C81 0.929 . S
H148 C84 0.930 . S
H149 C85 0.929 . S
H150 C88 0.930 . S
H151 C91 0.929 . S
H152 C92 0.930 . S
H153 C96 0.962 . S
H154 C96 0.959 . S
H155 C96 0.958 . S
C156 C157 1.560 1_565 S
C156 H217 0.959 . S
C156 H218 0.959 . S
C156 H219 0.960 . S
C157 C156 1.560 1_545 S
C157 O212 1.426 1_545 S
C157 H216 0.980 . S
C158 C159 1.407 . S
C158 C163 1.418 1_545 S
C158 O212 1.334 1_545 S
C159 C158 1.407 . S
C159 C160 1.360 . S
C159 H220 0.929 . S
C160 C159 1.360 . S
C160 C161 1.401 . S
C160 C164 1.527 . S
C161 C160 1.401 . S
C161 C162 1.400 1_545 S
C161 C194 1.587 . S
C162 C161 1.400 1_565 S
C162 C163 1.331 . S
C162 C165 1.502 . S
C163 C158 1.418 1_565 S
C163 C162 1.331 . S
C163 H221 0.929 . S
C164 C160 1.527 . S
C164 H222 0.959 . S
C164 H223 0.961 . S
C164 H224 0.961 . S
C165 C162 1.502 . S
C165 H225 0.960 . S
C165 H226 0.960 . S
C165 H227 0.961 . S
C166 C167 1.517 . S
C166 H229 0.961 . S
C166 H230 0.960 . S
C166 H231 0.959 . S
C167 C166 1.517 . S
C167 O215 1.468 . S
C167 H228 0.980 . S
C168 C169 1.349 . S
C168 C173 1.367 . S
C168 O215 1.408 . S
C169 C168 1.349 . S
C169 C170 1.407 . S
C169 H232 0.930 . S
C170 C169 1.407 . S
C170 C171 1.449 . S
C170 C174 1.535 . S
C171 C170 1.449 . S
C171 C172 1.384 . S
C171 C196 1.553 . S
C172 C171 1.384 . S
C172 C173 1.364 . S
C172 C175 1.450 . S
C173 C168 1.367 . S
C173 C172 1.364 . S
C173 H233 0.931 . S
C174 C170 1.535 . S
C174 H234 0.959 . S
C174 H235 0.961 1_545 S
C174 H236 0.959 1_545 S
C175 C172 1.450 . S
C175 H237 0.960 . S
C175 H238 0.960 . S
C175 H239 0.960 . S
C176 C177 1.309 . S
C176 C181 1.304 . S
C176 O214 1.435 . S
C177 C176 1.309 . S
C177 C178 1.476 . S
C177 H241 0.930 . S
C178 C177 1.476 . S
C178 C179 1.400 . S
C178 C182 1.567 1_545 S
C179 C178 1.400 . S
C179 C180 1.373 . S
C179 C201 1.432 . S
C180 C179 1.373 . S
C180 C181 1.339 . S
C180 C183 1.530 . S
C181 C176 1.304 . S
C181 C180 1.339 . S
C181 H242 0.930 . S
C182 C178 1.567 1_565 S
C182 H243 0.961 . S
C182 H244 0.960 . S
C182 H245 0.958 . S
C183 C180 1.530 . S
C183 H246 0.961 . S
C183 H247 0.960 . S
C183 H248 0.960 . S
C184 C185 1.530 . S
C184 H250 0.961 . S
C184 H251 0.961 1_545 S
C184 H252 0.959 1_545 S
C185 C184 1.530 . S
C185 O213 1.412 . S
C185 H249 0.980 . S
C186 C187 1.288 1_545 S
C186 C191 1.377 . S
C186 O213 1.393 . S
C187 C186 1.288 1_565 S
C187 C188 1.369 . S
C187 H253 0.932 . S
C188 C187 1.369 . S
C188 C189 1.398 1_565 S
C188 C192 1.527 . S
C189 C188 1.398 1_545 S
C189 C190 1.380 . S
C189 C203 1.497 . S
C190 C189 1.380 . S
C190 C191 1.383 . S
C190 C193 1.603 . S
C191 C186 1.377 . S
C191 C190 1.383 . S
C191 H254 0.929 . S
C192 C188 1.527 . S
C192 H255 0.961 . S
C192 H256 0.959 . S
C192 H257 0.959 . S
C193 C190 1.603 . S
C193 H258 0.960 . S
C193 H259 0.962 . S
C193 H260 0.961 . S
C194 C161 1.587 . S
C194 C195 1.360 . S
C194 C207 1.412 . S
C195 C194 1.360 . S
C195 C196 1.365 . S
C195 H261 0.929 . S
C196 C171 1.553 . S
C196 C195 1.365 . S
C196 C197 1.404 . S
C197 C196 1.404 . S
C197 C198 1.395 . S
C197 C208 1.451 . S
C198 C197 1.395 . S
C198 C199 1.322 . S
C198 H262 0.930 . S
C199 C198 1.322 . S
C199 C200 1.459 . S
C199 H263 0.929 . S
C200 C199 1.459 . S
C200 C201 1.445 . S
C200 C209 1.395 . S
C201 C179 1.432 . S
C201 C200 1.445 . S
C201 C202 1.370 . S
C202 C201 1.370 . S
C202 C203 1.438 . S
C202 H264 0.930 . S
C203 C189 1.497 . S
C203 C202 1.438 . S
C203 C204 1.360 . S
C204 C203 1.360 . S
C204 C205 1.401 . S
C204 C209 1.446 . S
C205 C204 1.401 . S
C205 C206 1.347 . S
C205 H265 0.929 . S
C206 C205 1.347 . S
C206 C207 1.455 . S
C206 H266 0.930 . S
C207 C194 1.412 . S
C207 C206 1.455 . S
C207 C208 1.331 . S
C208 C197 1.451 . S
C208 C207 1.331 . S
C208 C209 1.497 . S
C209 C200 1.395 . S
C209 C204 1.446 . S
C209 C208 1.497 . S
C210 C211 1.582 . S
C210 H267 0.962 . S
C210 H268 0.959 . S
C210 H269 0.958 . S
C211 C210 1.582 . S
C211 O214 1.458 . S
C211 H240 0.980 . S
O212 C157 1.426 1_565 S
O212 C158 1.334 1_565 S
O213 C185 1.412 . S
O213 C186 1.393 . S
O214 C176 1.435 . S
O214 C211 1.458 . S
O215 C167 1.468 . S
O215 C168 1.408 . S
H216 C157 0.980 . S
H217 C156 0.959 . S
H218 C156 0.959 . S
H219 C156 0.960 . S
H220 C159 0.929 . S
H221 C163 0.929 . S
H222 C164 0.959 . S
H223 C164 0.961 . S
H224 C164 0.961 . S
H225 C165 0.960 . S
H226 C165 0.960 . S
H227 C165 0.961 . S
H228 C167 0.980 . S
H229 C166 0.961 . S
H230 C166 0.960 . S
H231 C166 0.959 . S
H232 C169 0.930 . S
H233 C173 0.931 . S
H234 C174 0.959 . S
H235 C174 0.961 1_565 S
H236 C174 0.959 1_565 S
H237 C175 0.960 . S
H238 C175 0.960 . S
H239 C175 0.960 . S
H240 C211 0.980 . S
H241 C177 0.930 . S
H242 C181 0.930 . S
H243 C182 0.961 . S
H244 C182 0.960 . S
H245 C182 0.958 . S
H246 C183 0.961 . S
H247 C183 0.960 . S
H248 C183 0.960 . S
H249 C185 0.980 . S
H250 C184 0.961 . S
H251 C184 0.961 1_565 S
H252 C184 0.959 1_565 S
H253 C187 0.932 . S
H254 C191 0.929 . S
H255 C192 0.961 . S
H256 C192 0.959 . S
H257 C192 0.959 . S
H258 C193 0.960 . S
H259 C193 0.962 . S
H260 C193 0.961 . S
H261 C195 0.929 . S
H262 C198 0.930 . S
H263 C199 0.929 . S
H264 C202 0.930 . S
H265 C205 0.929 . S
H266 C206 0.930 . S
H267 C210 0.962 . S
H268 C210 0.959 . S
H269 C210 0.958 . S
C270 C271 1.560 . S
C270 H331 0.959 . S
C270 H332 0.959 . S
C270 H333 0.960 . S
C271 C270 1.560 . S
C271 O326 1.426 . S
C271 H330 0.980 . S
C272 C273 1.407 . S
C272 C277 1.418 . S
C272 O326 1.334 . S
C273 C272 1.407 . S
C273 C274 1.360 . S
C273 H334 0.929 . S
C274 C273 1.360 . S
C274 C275 1.401 . S
C274 C278 1.527 . S
C275 C274 1.401 . S
C275 C276 1.405 . S
C275 C308 1.587 . S
C276 C275 1.405 . S
C276 C277 1.332 . S
C276 C279 1.496 . S
C277 C272 1.418 . S
C277 C276 1.332 . S
C277 H335 0.929 . S
C278 C274 1.527 . S
C278 H336 0.959 . S
C278 H337 0.961 . S
C278 H338 0.961 . S
C279 C276 1.496 . S
C279 H339 0.960 . S
C279 H340 0.960 . S
C279 H341 0.961 . S
C280 C281 1.517 . S
C280 H343 0.961 . S
C280 H344 0.960 . S
C280 H345 0.959 . S
C281 C280 1.517 . S
C281 O329 1.468 . S
C281 H342 0.980 . S
C282 C283 1.349 . S
C282 C287 1.367 . S
C282 O329 1.408 . S
C283 C282 1.349 . S
C283 C284 1.407 . S
C283 H346 0.930 . S
C284 C283 1.407 . S
C284 C285 1.449 . S
C284 C288 1.535 . S
C285 C284 1.449 . S
C285 C286 1.384 . S
C285 C310 1.553 . S
C286 C285 1.384 . S
C286 C287 1.364 . S
C286 C289 1.450 . S
C287 C282 1.367 . S
C287 C286 1.364 . S
C287 H347 0.931 . S
C288 C284 1.535 . S
C288 H348 0.959 . S
C288 H349 0.961 . S
C288 H350 0.959 . S
C289 C286 1.450 . S
C289 H351 0.960 . S
C289 H352 0.960 . S
C289 H353 0.960 . S
C290 C291 1.309 . S
C290 C295 1.304 . S
C290 O328 1.435 . S
C291 C290 1.309 . S
C291 C292 1.476 . S
C291 H355 0.930 . S
C292 C291 1.476 . S
C292 C293 1.400 . S
C292 C296 1.567 . S
C293 C292 1.400 . S
C293 C294 1.373 . S
C293 C315 1.432 . S
C294 C293 1.373 . S
C294 C295 1.339 . S
C294 C297 1.530 . S
C295 C290 1.304 . S
C295 C294 1.339 . S
C295 H356 0.930 . S
C296 C292 1.567 . S
C296 H357 0.961 . S
C296 H358 0.960 . S
C296 H359 0.958 . S
C297 C294 1.530 . S
C297 H360 0.961 . S
C297 H361 0.960 . S
C297 H362 0.960 . S
C298 C299 1.530 . S
C298 H364 0.961 . S
C298 H365 0.961 . S
C298 H366 0.959 . S
C299 C298 1.530 . S
C299 O327 1.412 . S
C299 H363 0.980 . S
C300 C301 1.288 . S
C300 C305 1.377 . S
C300 O327 1.393 . S
C301 C300 1.288 . S
C301 C302 1.369 . S
C301 H367 0.932 . S
C302 C301 1.369 . S
C302 C303 1.398 . S
C302 C306 1.527 . S
C303 C302 1.398 . S
C303 C304 1.380 . S
C303 C317 1.497 . S
C304 C303 1.380 . S
C304 C305 1.383 . S
C304 C307 1.603 . S
C305 C300 1.377 . S
C305 C304 1.383 . S
C305 H368 0.929 . S
C306 C302 1.527 . S
C306 H369 0.961 . S
C306 H370 0.959 . S
C306 H371 0.959 . S
C307 C304 1.603 . S
C307 H372 0.960 . S
C307 H373 0.962 . S
C307 H374 0.961 . S
C308 C275 1.587 . S
C308 C309 1.360 . S
C308 C321 1.412 . S
C309 C308 1.360 . S
C309 C310 1.365 . S
C309 H375 0.929 . S
C310 C285 1.553 . S
C310 C309 1.365 . S
C310 C311 1.404 . S
C311 C310 1.404 . S
C311 C312 1.395 . S
C311 C322 1.451 . S
C312 C311 1.395 . S
C312 C313 1.322 . S
C312 H376 0.930 . S
C313 C312 1.322 . S
C313 C314 1.459 . S
C313 H377 0.929 . S
C314 C313 1.459 . S
C314 C315 1.445 . S
C314 C323 1.395 . S
C315 C293 1.432 . S
C315 C314 1.445 . S
C315 C316 1.370 . S
C316 C315 1.370 . S
C316 C317 1.438 . S
C316 H378 0.930 . S
C317 C303 1.497 . S
C317 C316 1.438 . S
C317 C318 1.360 . S
C318 C317 1.360 . S
C318 C319 1.401 . S
C318 C323 1.446 . S
C319 C318 1.401 . S
C319 C320 1.347 . S
C319 H379 0.929 . S
C320 C319 1.347 . S
C320 C321 1.455 . S
C320 H380 0.930 . S
C321 C308 1.412 . S
C321 C320 1.455 . S
C321 C322 1.331 . S
C322 C311 1.451 . S
C322 C321 1.331 . S
C322 C323 1.497 . S
C323 C314 1.395 . S
C323 C318 1.446 . S
C323 C322 1.497 . S
C324 C325 1.582 . S
C324 H381 0.962 . S
C324 H382 0.959 . S
C324 H383 0.958 . S
C325 C324 1.582 . S
C325 O328 1.458 . S
C325 H354 0.980 . S
O326 C271 1.426 . S
O326 C272 1.334 . S
O327 C299 1.412 . S
O327 C300 1.393 . S
O328 C290 1.435 . S
O328 C325 1.458 . S
O329 C281 1.468 . S
O329 C282 1.408 . S
H330 C271 0.980 . S
H331 C270 0.959 . S
H332 C270 0.959 . S
H333 C270 0.960 . S
H334 C273 0.929 . S
H335 C277 0.929 . S
H336 C278 0.959 . S
H337 C278 0.961 . S
H338 C278 0.961 . S
H339 C279 0.960 . S
H340 C279 0.960 . S
H341 C279 0.961 . S
H342 C281 0.980 . S
H343 C280 0.961 . S
H344 C280 0.960 . S
H345 C280 0.959 . S
H346 C283 0.930 . S
H347 C287 0.931 . S
H348 C288 0.959 . S
H349 C288 0.961 . S
H350 C288 0.959 . S
H351 C289 0.960 . S
H352 C289 0.960 . S
H353 C289 0.960 . S
H354 C325 0.980 . S
H355 C291 0.930 . S
H356 C295 0.930 . S
H357 C296 0.961 . S
H358 C296 0.960 . S
H359 C296 0.958 . S
H360 C297 0.961 . S
H361 C297 0.960 . S
H362 C297 0.960 . S
H363 C299 0.980 . S
H364 C298 0.961 . S
H365 C298 0.961 . S
H366 C298 0.959 . S
H367 C301 0.932 . S
H368 C305 0.929 . S
H369 C306 0.961 . S
H370 C306 0.959 . S
H371 C306 0.959 . S
H372 C307 0.960 . S
H373 C307 0.962 . S
H374 C307 0.961 . S
H375 C309 0.929 . S
H376 C312 0.930 . S
H377 C313 0.929 . S
H378 C316 0.930 . S
H379 C319 0.929 . S
H380 C320 0.930 . S
H381 C324 0.962 . S
H382 C324 0.959 . S
H383 C324 0.958 . S
H384 C385 0.951 . S
C385 H384 0.951 . S
C385 C391 1.265 1_455 S
H386 C391 0.950 . S
H387 C395 0.949 . S
H388 C396 0.950 . S
H389 C397 0.951 . S
H390 C398 0.951 . S
C391 C385 1.265 1_655 S
C391 H386 0.950 . S
C391 C392 1.478 1_655 S
C392 C391 1.478 1_455 S
C392 C393 1.398 1_455 S
C392 C409 1.393 . S
C393 C392 1.398 1_655 S
C393 C394 1.438 . S
C393 C398 1.429 . S
C394 C393 1.438 . S
C394 C395 1.428 . S
C394 C407 1.394 1_655 S
C395 H387 0.949 . S
C395 C394 1.428 . S
C395 C396 1.345 . S
C396 H388 0.950 . S
C396 C395 1.345 . S
C396 C397 1.424 . S
C397 H389 0.951 . S
C397 C396 1.424 . S
C397 C398 1.347 . S
C398 H390 0.951 . S
C398 C393 1.429 . S
C398 C397 1.347 . S
H399 C400 0.954 . S
C400 H399 0.954 . S
C400 C406 1.261 1_655 S
H401 C406 0.950 . S
H402 C410 0.949 . S
H403 C411 0.950 . S
H404 C412 0.951 . S
H405 C413 0.951 . S
C406 C400 1.261 1_455 S
C406 H401 0.950 . S
C406 C407 1.478 . S
C407 C394 1.394 1_455 S
C407 C406 1.478 . S
C407 C408 1.397 . S
C408 C407 1.397 . S
C408 C409 1.438 . S
C408 C413 1.429 . S
C409 C392 1.393 . S
C409 C408 1.438 . S
C409 C410 1.428 . S
C410 H402 0.949 . S
C410 C409 1.428 . S
C410 C411 1.345 . S
C411 H403 0.950 . S
C411 C410 1.345 . S
C411 C412 1.424 . S
C412 H404 0.951 . S
C412 C411 1.424 . S
C412 C413 1.347 . S
C413 H405 0.951 . S
C413 C408 1.429 . S
C413 C412 1.347 . S
H414 C415 0.951 . S
C415 H414 0.951 . S
C415 C421 1.265 . S
H416 C421 0.950 . S
H417 C425 0.949 . S
H418 C426 0.950 . S
H419 C427 0.951 . S
H420 C428 0.951 . S
C421 C415 1.265 . S
C421 H416 0.950 . S
C421 C422 1.478 . S
C422 C421 1.478 . S
C422 C423 1.397 . S
C422 C439 1.394 . S
C423 C422 1.397 . S
C423 C424 1.438 . S
C423 C428 1.429 . S
C424 C423 1.438 . S
C424 C425 1.428 . S
C424 C437 1.394 . S
C425 H417 0.949 . S
C425 C424 1.428 . S
C425 C426 1.345 . S
C426 H418 0.950 . S
C426 C425 1.345 . S
C426 C427 1.424 . S
C427 H419 0.951 . S
C427 C426 1.424 . S
C427 C428 1.347 . S
C428 H420 0.951 . S
C428 C423 1.429 . S
C428 C427 1.347 . S
H429 C430 0.951 . S
C430 H429 0.951 . S
C430 C436 1.265 . S
H431 C436 0.950 . S
H432 C440 0.949 . S
H433 C441 0.950 . S
H434 C442 0.951 . S
H435 C443 0.951 . S
C436 C430 1.265 . S
C436 H431 0.950 . S
C436 C437 1.478 . S
C437 C424 1.394 . S
C437 C436 1.478 . S
C437 C438 1.397 1_545 S
C438 C437 1.397 1_565 S
C438 C439 1.438 1_565 S
C438 C443 1.429 . S
C439 C422 1.394 . S
C439 C438 1.438 1_545 S
C439 C440 1.428 1_545 S
C440 H432 0.949 . S
C440 C439 1.428 1_565 S
C440 C441 1.345 . S
C441 H433 0.950 . S
C441 C440 1.345 . S
C441 C442 1.424 . S
C442 H434 0.951 . S
C442 C441 1.424 . S
C442 C443 1.347 . S
C443 H435 0.951 . S
C443 C438 1.429 . S
C443 C442 1.347 . S
H444 C445 0.951 . S
C445 H444 0.951 . S
C445 C451 1.265 . S
H446 C451 0.950 . S
H447 C455 0.949 . S
H448 C456 0.950 . S
H449 C457 0.951 . S
H450 C458 0.951 . S
C451 C445 1.265 . S
C451 H446 0.950 . S
C451 C452 1.478 . S
C452 C451 1.478 . S
C452 C453 1.397 . S
C452 C469 1.394 . S
C453 C452 1.397 . S
C453 C454 1.438 . S
C453 C458 1.429 . S
C454 C453 1.438 . S
C454 C455 1.428 . S
C454 C467 1.394 . S
C455 H447 0.949 . S
C455 C454 1.428 . S
C455 C456 1.345 . S
C456 H448 0.950 . S
C456 C455 1.345 . S
C456 C457 1.424 . S
C457 H449 0.951 . S
C457 C456 1.424 . S
C457 C458 1.347 . S
C458 H450 0.951 . S
C458 C453 1.429 . S
C458 C457 1.347 . S
H459 C460 0.951 . S
C460 H459 0.951 . S
C460 C466 1.265 . S
H461 C466 0.950 . S
H462 C470 0.949 . S
H463 C471 0.950 . S
H464 C472 0.951 . S
H465 C473 0.951 . S
C466 C460 1.265 . S
C466 H461 0.950 . S
C466 C467 1.478 . S
C467 C454 1.394 . S
C467 C466 1.478 . S
C467 C468 1.397 . S
C468 C467 1.397 . S
C468 C469 1.438 . S
C468 C473 1.429 . S
C469 C452 1.394 . S
C469 C468 1.438 . S
C469 C470 1.428 . S
C470 H462 0.949 . S
C470 C469 1.428 . S
C470 C471 1.345 . S
C471 H463 0.950 . S
C471 C470 1.345 . S
C471 C472 1.424 . S
C472 H464 0.951 . S
C472 C471 1.424 . S
C472 C473 1.347 . S
C473 H465 0.951 . S
C473 C468 1.429 . S
C473 C472 1.347 . S
H474 C475 0.951 . S
C475 H474 0.951 . S
C475 C481 1.265 . S
H476 C481 0.950 1_655 S
H477 C485 0.949 . S
H478 C486 0.950 . S
H479 C487 0.951 . S
H480 C488 0.951 . S
C481 C475 1.265 . S
C481 H476 0.950 1_455 S
C481 C482 1.478 . S
C482 C481 1.478 . S
C482 C483 1.397 1_455 S
C482 C499 1.394 . S
C483 C482 1.397 1_655 S
C483 C484 1.438 . S
C483 C488 1.429 . S
C484 C483 1.438 . S
C484 C485 1.428 . S
C484 C497 1.394 1_655 S
C485 H477 0.949 . S
C485 C484 1.428 . S
C485 C486 1.345 . S
C486 H478 0.950 . S
C486 C485 1.345 . S
C486 C487 1.424 . S
C487 H479 0.951 . S
C487 C486 1.424 . S
C487 C488 1.347 . S
C488 H480 0.951 . S
C488 C483 1.429 . S
C488 C487 1.347 . S
H489 C490 0.951 . S
C490 H489 0.951 . S
C490 C496 1.265 . S
H491 C496 0.950 . S
H492 C500 0.949 . S
H493 C501 0.950 . S
H494 C502 0.951 . S
H495 C503 0.951 . S
C496 C490 1.265 . S
C496 H491 0.950 . S
C496 C497 1.478 . S
C497 C484 1.394 1_455 S
C497 C496 1.478 . S
C497 C498 1.397 . S
C498 C497 1.397 . S
C498 C499 1.438 . S
C498 C503 1.429 . S
C499 C482 1.394 . S
C499 C498 1.438 . S
C499 C500 1.428 . S
C500 H492 0.949 . S
C500 C499 1.428 . S
C500 C501 1.345 . S
C501 H493 0.950 . S
C501 C500 1.345 . S
C501 C502 1.424 . S
C502 H494 0.951 . S
C502 C501 1.424 . S
C502 C503 1.347 . S
C503 H495 0.951 . S
C503 C498 1.429 . S
C503 C502 1.347 . S
H504 C505 0.951 . S
C505 H504 0.951 . S
C505 C511 1.265 . S
H506 C511 0.950 . S
H507 C515 0.949 . S
H508 C516 0.950 . S
H509 C517 0.951 . S
H510 C518 0.951 . S
C511 C505 1.265 . S
C511 H506 0.950 . S
C511 C512 1.478 . S
C512 C511 1.478 . S
C512 C513 1.397 . S
C512 C529 1.394 . S
C513 C512 1.397 . S
C513 C514 1.438 . S
C513 C518 1.429 . S
C514 C513 1.438 . S
C514 C515 1.428 . S
C514 C527 1.394 . S
C515 H507 0.949 . S
C515 C514 1.428 . S
C515 C516 1.345 . S
C516 H508 0.950 . S
C516 C515 1.345 . S
C516 C517 1.424 . S
C517 H509 0.951 . S
C517 C516 1.424 . S
C517 C518 1.347 . S
C518 H510 0.951 . S
C518 C513 1.429 . S
C518 C517 1.347 . S
H519 C520 0.951 . S
C520 H519 0.951 . S
C520 C526 1.265 . S
H521 C526 0.950 . S
H522 C530 0.949 . S
H523 C531 0.950 . S
H524 C532 0.951 . S
H525 C533 0.951 . S
C526 C520 1.265 . S
C526 H521 0.950 . S
C526 C527 1.478 . S
C527 C514 1.394 . S
C527 C526 1.478 . S
C527 C528 1.397 . S
C528 C527 1.397 . S
C528 C529 1.438 . S
C528 C533 1.429 1_545 S
C529 C512 1.394 . S
C529 C528 1.438 . S
C529 C530 1.428 1_545 S
C530 H522 0.949 . S
C530 C529 1.428 1_565 S
C530 C531 1.345 . S
C531 H523 0.950 . S
C531 C530 1.345 . S
C531 C532 1.424 . S
C532 H524 0.951 . S
C532 C531 1.424 . S
C532 C533 1.347 . S
C533 H525 0.951 . S
C533 C528 1.429 1_565 S
C533 C532 1.347 . S
H534 C535 0.951 . S
C535 H534 0.951 . S
C535 C541 1.265 . S
H536 C541 0.950 . S
H537 C545 0.949 . S
H538 C546 0.950 . S
H539 C547 0.951 . S
H540 C548 0.951 . S
C541 C535 1.265 . S
C541 H536 0.950 . S
C541 C542 1.478 . S
C542 C541 1.478 . S
C542 C543 1.397 . S
C542 C559 1.394 . S
C543 C542 1.397 . S
C543 C544 1.438 . S
C543 C548 1.429 . S
C544 C543 1.438 . S
C544 C545 1.428 . S
C544 C557 1.394 . S
C545 H537 0.949 . S
C545 C544 1.428 . S
C545 C546 1.345 . S
C546 H538 0.950 . S
C546 C545 1.345 . S
C546 C547 1.424 . S
C547 H539 0.951 . S
C547 C546 1.424 . S
C547 C548 1.347 . S
C548 H540 0.951 . S
C548 C543 1.429 . S
C548 C547 1.347 . S
H549 C550 0.951 . S
C550 H549 0.951 . S
C550 C556 1.265 . S
H551 C556 0.950 . S
H552 C560 0.949 . S
H553 C561 0.950 . S
H554 C562 0.951 . S
H555 C563 0.951 . S
C556 C550 1.265 . S
C556 H551 0.950 . S
C556 C557 1.478 . S
C557 C544 1.394 . S
C557 C556 1.478 . S
C557 C558 1.397 . S
C558 C557 1.397 . S
C558 C559 1.438 . S
C558 C563 1.429 . S
C559 C542 1.394 . S
C559 C558 1.438 . S
C559 C560 1.428 . S
C560 H552 0.949 . S
C560 C559 1.428 . S
C560 C561 1.345 . S
C561 H553 0.950 . S
C561 C560 1.345 . S
C561 C562 1.424 . S
C562 H554 0.951 . S
C562 C561 1.424 . S
C562 C563 1.347 . S
C563 H555 0.951 . S
C563 C558 1.429 . S
C563 C562 1.347 . S
H564 C565 0.951 . S
C565 H564 0.951 . S
C565 C571 1.265 . S
H566 C571 0.950 . S
H567 C575 0.949 . S
H568 C576 0.950 . S
H569 C577 0.951 . S
H570 C578 0.951 . S
C571 C565 1.265 . S
C571 H566 0.950 . S
C571 C572 1.478 . S
C572 C571 1.478 . S
C572 C573 1.397 . S
C572 C589 1.394 . S
C573 C572 1.397 . S
C573 C574 1.438 . S
C573 C578 1.429 . S
C574 C573 1.438 . S
C574 C575 1.428 . S
C574 C587 1.394 . S
C575 H567 0.949 . S
C575 C574 1.428 . S
C575 C576 1.345 . S
C576 H568 0.950 . S
C576 C575 1.345 . S
C576 C577 1.424 . S
C577 H569 0.951 . S
C577 C576 1.424 . S
C577 C578 1.347 . S
C578 H570 0.951 . S
C578 C573 1.429 . S
C578 C577 1.347 . S
H579 C580 0.951 . S
C580 H579 0.951 . S
C580 C586 1.265 . S
H581 C586 0.950 . S
H582 C590 0.949 . S
H583 C591 0.950 . S
H584 C592 0.951 . S
H585 C593 0.951 . S
C586 C580 1.265 . S
C586 H581 0.950 . S
C586 C587 1.478 . S
C587 C574 1.394 . S
C587 C586 1.478 . S
C587 C588 1.397 . S
C588 C587 1.397 . S
C588 C589 1.438 . S
C588 C593 1.429 1_545 S
C589 C572 1.394 . S
C589 C588 1.438 . S
C589 C590 1.428 1_545 S
C590 H582 0.949 . S
C590 C589 1.428 1_565 S
C590 C591 1.345 . S
C591 H583 0.950 . S
C591 C590 1.345 . S
C591 C592 1.424 . S
C592 H584 0.951 . S
C592 C591 1.424 . S
C592 C593 1.347 . S
C593 H585 0.951 . S
C593 C588 1.429 1_565 S
C593 C592 1.347 . S
H594 C595 0.951 . S
C595 H594 0.951 . S
C595 C601 1.265 . S
H596 C601 0.950 . S
H597 C605 0.978 . S
H598 C606 0.950 . S
H599 C607 0.951 . S
H600 C608 0.951 . S
C601 C595 1.265 . S
C601 H596 0.950 . S
C601 C602 1.478 . S
C602 C601 1.478 . S
C602 C603 1.397 . S
C602 C619 1.394 . S
C603 C602 1.397 . S
C603 C604 1.438 . S
C603 C608 1.429 . S
C604 C603 1.438 . S
C604 C605 1.415 1_554 S
C604 C617 1.373 1_554 S
C605 H597 0.978 . S
C605 C604 1.415 1_556 S
C605 C606 1.330 1_556 S
C606 H598 0.950 . S
C606 C605 1.330 1_554 S
C606 C607 1.424 . S
C607 H599 0.951 . S
C607 C606 1.424 . S
C607 C608 1.347 . S
C608 H600 0.951 . S
C608 C603 1.429 . S
C608 C607 1.347 . S
H609 C610 0.951 . S
C610 H609 0.951 . S
C610 C616 1.265 . S
H611 C616 0.950 . S
H612 C620 0.949 . S
H613 C621 0.950 . S
H614 C622 0.977 . S
H615 C623 0.972 . S
C616 C610 1.265 . S
C616 H611 0.950 . S
C616 C617 1.522 . S
C617 C604 1.373 1_556 S
C617 C616 1.522 . S
C617 C618 1.377 1_556 S
C618 C617 1.377 1_554 S
C618 C619 1.438 . S
C618 C623 1.419 1_554 S
C619 C602 1.394 . S
C619 C618 1.438 . S
C619 C620 1.428 . S
C620 H612 0.949 . S
C620 C619 1.428 . S
C620 C621 1.345 . S
C621 H613 0.950 . S
C621 C620 1.345 . S
C621 C622 1.424 . S
C622 H614 0.977 . S
C622 C621 1.424 . S
C622 C623 1.337 1_554 S
C623 H615 0.972 . S
C623 C618 1.419 1_556 S
C623 C622 1.337 1_556 S
H624 C625 0.951 . S
C625 H624 0.951 . S
C625 C631 1.271 . S
H626 C631 0.933 1_655 S
H627 C635 0.949 . S
H628 C636 0.950 . S
H629 C637 0.951 . S
H630 C638 0.951 . S
C631 C625 1.271 . S
C631 H626 0.933 1_455 S
C631 C632 1.488 . S
C632 C631 1.488 . S
C632 C633 1.397 . S
C632 C649 1.394 . S
C633 C632 1.397 . S
C633 C634 1.438 . S
C633 C638 1.429 1_455 S
C634 C633 1.438 . S
C634 C635 1.428 . S
C634 C647 1.394 . S
C635 H627 0.949 . S
C635 C634 1.428 . S
C635 C636 1.345 1_455 S
C636 H628 0.950 . S
C636 C635 1.345 1_655 S
C636 C637 1.424 . S
C637 H629 0.951 . S
C637 C636 1.424 . S
C637 C638 1.347 . S
C638 H630 0.951 . S
C638 C633 1.429 1_655 S
C638 C637 1.347 . S
H639 C640 0.951 1_655 S
C640 H639 0.951 1_455 S
C640 C646 1.265 . S
H641 C646 0.950 . S
H642 C650 0.949 . S
H643 C651 0.950 . S
H644 C652 0.951 . S
H645 C653 0.951 . S
C646 C640 1.265 . S
C646 H641 0.950 . S
C646 C647 1.478 . S
C647 C634 1.394 . S
C647 C646 1.478 . S
C647 C648 1.397 . S
C648 C647 1.397 . S
C648 C649 1.438 . S
C648 C653 1.429 . S
C649 C632 1.394 . S
C649 C648 1.438 . S
C649 C650 1.428 . S
C650 H642 0.949 . S
C650 C649 1.428 . S
C650 C651 1.345 . S
C651 H643 0.950 . S
C651 C650 1.345 . S
C651 C652 1.424 . S
C652 H644 0.951 . S
C652 C651 1.424 . S
C652 C653 1.347 . S
C653 H645 0.951 . S
C653 C648 1.429 . S
C653 C652 1.347 . S
H654 C655 0.951 . S
C655 H654 0.951 . S
C655 C661 1.265 . S
H656 C661 0.950 . S
H657 C665 0.949 . S
H658 C666 0.950 . S
H659 C667 0.951 . S
H660 C668 0.951 . S
C661 C655 1.265 . S
C661 H656 0.950 . S
C661 C662 1.478 . S
C662 C661 1.478 . S
C662 C663 1.397 . S
C662 C679 1.394 . S
C663 C662 1.397 . S
C663 C664 1.438 . S
C663 C668 1.429 . S
C664 C663 1.438 . S
C664 C665 1.428 . S
C664 C677 1.394 . S
C665 H657 0.949 . S
C665 C664 1.428 . S
C665 C666 1.345 . S
C666 H658 0.950 . S
C666 C665 1.345 . S
C666 C667 1.424 . S
C667 H659 0.951 . S
C667 C666 1.424 . S
C667 C668 1.347 . S
C668 H660 0.951 . S
C668 C663 1.429 . S
C668 C667 1.347 . S
H669 C670 0.951 . S
C670 H669 0.951 . S
C670 C676 1.265 . S
H671 C676 0.950 . S
H672 C680 0.949 . S
H673 C681 0.950 . S
H674 C682 0.951 . S
H675 C683 0.951 . S
C676 C670 1.265 . S
C676 H671 0.950 . S
C676 C677 1.478 . S
C677 C664 1.394 . S
C677 C676 1.478 . S
C677 C678 1.397 . S
C678 C677 1.397 . S
C678 C679 1.438 . S
C678 C683 1.429 1_545 S
C679 C662 1.394 . S
C679 C678 1.438 . S
C679 C680 1.428 1_545 S
C680 H672 0.949 . S
C680 C679 1.428 1_565 S
C680 C681 1.345 . S
C681 H673 0.950 . S
C681 C680 1.345 . S
C681 C682 1.424 . S
C682 H674 0.951 . S
C682 C681 1.424 . S
C682 C683 1.347 . S
C683 H675 0.951 . S
C683 C678 1.429 1_565 S
C683 C682 1.347 . S
H684 C685 0.951 . S
C685 H684 0.951 . S
C685 C691 1.265 . S
H686 C691 0.950 . S
H687 C695 0.949 . S
H688 C696 0.950 . S
H689 C697 0.951 . S
H690 C698 0.951 . S
C691 C685 1.265 . S
C691 H686 0.950 . S
C691 C692 1.478 . S
C692 C691 1.478 . S
C692 C693 1.459 . S
C692 C709 1.394 . S
C693 C692 1.459 . S
C693 C694 1.405 1_554 S
C693 C698 1.400 1_554 S
C694 C693 1.405 1_556 S
C694 C695 1.428 . S
C694 C707 1.404 . S
C695 H687 0.949 . S
C695 C694 1.428 . S
C695 C696 1.345 . S
C696 H688 0.950 . S
C696 C695 1.345 . S
C696 C697 1.424 . S
C697 H689 0.951 . S
C697 C696 1.424 . S
C697 C698 1.347 . S
C698 H690 0.951 . S
C698 C693 1.400 1_556 S
C698 C697 1.347 . S
H699 C700 0.951 . S
C700 H699 0.951 . S
C700 C706 1.265 . S
H701 C706 0.950 . S
H702 C710 0.949 . S
H703 C711 0.950 . S
H704 C712 0.951 . S
H705 C713 0.951 . S
C706 C700 1.265 . S
C706 H701 0.950 . S
C706 C707 1.490 . S
C707 C694 1.404 . S
C707 C706 1.490 . S
C707 C708 1.375 1_556 S
C708 C707 1.375 1_554 S
C708 C709 1.438 . S
C708 C713 1.429 . S
C709 C692 1.394 . S
C709 C708 1.438 . S
C709 C710 1.428 . S
C710 H702 0.949 . S
C710 C709 1.428 . S
C710 C711 1.345 . S
C711 H703 0.950 . S
C711 C710 1.345 . S
C711 C712 1.424 . S
C712 H704 0.951 . S
C712 C711 1.424 . S
C712 C713 1.347 . S
C713 H705 0.951 . S
C713 C708 1.429 . S
C713 C712 1.347 . S
H714 C715 0.951 . S
C715 H714 0.951 . S
C715 C721 1.265 1_455 S
H716 C721 0.950 . S
H717 C725 0.947 . S
H718 C726 0.950 . S
H719 C727 0.951 . S
H720 C728 0.951 . S
C721 C715 1.265 1_655 S
C721 H716 0.950 . S
C721 C722 1.478 1_655 S
C722 C721 1.478 1_455 S
C722 C723 1.397 1_455 S
C722 C739 1.394 . S
C723 C722 1.397 1_655 S
C723 C724 1.438 1_655 S
C723 C728 1.429 . S
C724 C723 1.438 1_455 S
C724 C725 1.428 1_455 S
C724 C737 1.394 . S
C725 H717 0.947 . S
C725 C724 1.428 1_655 S
C725 C726 1.345 . S
C726 H718 0.950 . S
C726 C725 1.345 . S
C726 C727 1.424 . S
C727 H719 0.951 . S
C727 C726 1.424 . S
C727 C728 1.347 . S
C728 H720 0.951 . S
C728 C723 1.429 . S
C728 C727 1.347 . S
H729 C730 0.951 1_655 S
C730 H729 0.951 1_455 S
C730 C736 1.265 . S
H731 C736 0.950 . S
H732 C740 0.949 . S
H733 C741 0.950 . S
H734 C742 0.951 . S
H735 C743 0.951 . S
C736 C730 1.265 . S
C736 H731 0.950 . S
C736 C737 1.478 . S
C737 C724 1.394 . S
C737 C736 1.478 . S
C737 C738 1.397 . S
C738 C737 1.397 . S
C738 C739 1.438 . S
C738 C743 1.429 . S
C739 C722 1.394 . S
C739 C738 1.438 . S
C739 C740 1.428 . S
C740 H732 0.949 . S
C740 C739 1.428 . S
C740 C741 1.345 . S
C741 H733 0.950 . S
C741 C740 1.345 . S
C741 C742 1.424 . S
C742 H734 0.951 . S
C742 C741 1.424 . S
C742 C743 1.347 . S
C743 H735 0.951 . S
C743 C738 1.429 . S
C743 C742 1.347 . S
C400 C97 1.253 1_655 S
C385 C6 1.577 . S
C415 C22 1.649 . S
C430 C211 1.159 . S
C445 C34 1.073 . S
C460 C271 0.891 . S
C475 C7 1.366 . S
C490 C71 1.019 . S
C520 C185 1.286 . S
C505 C23 1.516 . S
C535 C35 1.233 . S
C550 C281 0.790 . S
C580 C167 0.901 . S
C565 C36 1.601 . S
C595 C9 1.749 . S
C610 C299 1.493 . S
C640 C43 1.037 1_455 S
C625 C21 1.331 . S
C670 C157 1.214 . S
C655 C37 1.409 . S
C700 C325 1.447 . S
C685 C8 1.862 . S
C715 C20 1.434 . S
C730 C53 1.021 . S
