# Generated by pormake.
# Topology anh, (6,3)-cn, num edge types: 1
# Building blocks:
#     Node 0, Type 0, BuildingBlock: NUHQIS_clean_sbu_0, # of connection points: 6
#     Node 1, Type 0, BuildingBlock: NUHQIS_clean_sbu_0, # of connection points: 6
#     Node 2, Type 0, BuildingBlock: NUHQIS_clean_sbu_0, # of connection points: 6
#     Node 3, Type 1, BuildingBlock: BELTOD_clean_linker_0, # of connection points: 3
#     Node 4, Type 1, BuildingBlock: BELTOD_clean_linker_0, # of connection points: 3
#     Node 5, Type 1, BuildingBlock: BELTOD_clean_linker_0, # of connection points: 3
#     Node 6, Type 1, BuildingBlock: BELTOD_clean_linker_0, # of connection points: 3
#     Node 7, Type 1, BuildingBlock: BELTOD_clean_linker_0, # of connection points: 3
#     Node 8, Type 1, BuildingBlock: BELTOD_clean_linker_0, # of connection points: 3
#     Edge 9, Type (0, 1), BuildingBlock: KIFKEQ_clean_linker_1, # of connection points: 2
#     Edge 10, Type (0, 1), BuildingBlock: KIFKEQ_clean_linker_1, # of connection points: 2
#     Edge 11, Type (0, 1), BuildingBlock: KIFKEQ_clean_linker_1, # of connection points: 2
#     Edge 12, Type (0, 1), BuildingBlock: KIFKEQ_clean_linker_1, # of connection points: 2
#     Edge 13, Type (0, 1), BuildingBlock: KIFKEQ_clean_linker_1, # of connection points: 2
#     Edge 14, Type (0, 1), BuildingBlock: KIFKEQ_clean_linker_1, # of connection points: 2
#     Edge 15, Type (0, 1), BuildingBlock: KIFKEQ_clean_linker_1, # of connection points: 2
#     Edge 16, Type (0, 1), BuildingBlock: KIFKEQ_clean_linker_1, # of connection points: 2
#     Edge 17, Type (0, 1), BuildingBlock: KIFKEQ_clean_linker_1, # of connection points: 2
#     Edge 18, Type (0, 1), BuildingBlock: KIFKEQ_clean_linker_1, # of connection points: 2
#     Edge 19, Type (0, 1), BuildingBlock: KIFKEQ_clean_linker_1, # of connection points: 2
#     Edge 20, Type (0, 1), BuildingBlock: KIFKEQ_clean_linker_1, # of connection points: 2
#     Edge 21, Type (0, 1), BuildingBlock: KIFKEQ_clean_linker_1, # of connection points: 2
#     Edge 22, Type (0, 1), BuildingBlock: KIFKEQ_clean_linker_1, # of connection points: 2
#     Edge 23, Type (0, 1), BuildingBlock: KIFKEQ_clean_linker_1, # of connection points: 2
#     Edge 24, Type (0, 1), BuildingBlock: KIFKEQ_clean_linker_1, # of connection points: 2
#     Edge 25, Type (0, 1), BuildingBlock: KIFKEQ_clean_linker_1, # of connection points: 2
#     Edge 26, Type (0, 1), BuildingBlock: KIFKEQ_clean_linker_1, # of connection points: 2
# Relax obj value: 0.241
# Max RMSD: 0.183
# Mean RMSD: 0.147
data_MOF--net-anh--node1-NUHQIS_clean_sbu_0--node2-BELTOD_clean_linker_0--edge1-KIFKEQ_clean_linker_1
_symmetry_space_group_name_H-M    P1
_symmetry_Int_Tables_number       1
_symmetry_cell_setting            triclinic
loop_
_symmetry_equiv_pos_as_xyz
'x, y, z'
_cell_length_a     34.155261
_cell_length_b     34.141231
_cell_length_c     61.980588
_cell_angle_alpha  89.183564
_cell_angle_beta   94.431876
_cell_angle_gamma 120.09062
loop_
_atom_site_label
_atom_site_type_symbol
_atom_site_fract_x
_atom_site_fract_y
_atom_site_fract_z
_atom_type_partial_charge
Tb0 Tb 0.14716 0.61038 0.15125 0.0
Eu1 Eu 1.09816 0.66515 0.1654 0.0
C2 C 0.15544 0.63652 0.19932 0.0
C3 C 1.04612 0.55636 0.16476 0.0
C4 C 0.22438 0.56661 0.13717 0.0
C5 C 0.28597 0.56092 0.15643 0.0
C6 C 0.24946 0.56862 0.15662 0.0
C7 C 0.23791 0.55954 0.11754 0.0
C8 C 0.27438 0.55204 0.11733 0.0
C9 C 0.29797 0.5513 0.13681 0.0
C10 C 0.18134 0.56663 0.1369 0.0
O11 O 1.09793 0.60589 0.1258 0.0
O12 O 1.10937 0.67637 0.12966 0.0
O13 O 0.17066 0.72084 0.1654 0.0
O14 O 0.20203 0.68208 0.15057 0.0
C15 C 1.09988 0.64173 0.11707 0.0
O16 O 1.04705 0.68485 0.15806 0.0
O17 O 1.08585 0.70351 0.18923 0.0
O18 O 0.11815 0.63886 0.19577 0.0
O19 O 0.17766 0.63544 0.1833 0.0
O20 O 1.08617 0.55922 0.16616 0.0
O21 O 1.04245 0.59204 0.16006 0.0
C22 C 0.20532 0.71989 0.15811 0.0
O23 O 0.16159 0.55786 0.15497 0.0
O24 O 0.17871 0.59866 0.1263 0.0
C25 C 1.00627 0.67298 0.18839 0.0
C26 C 0.91996 0.60327 0.19841 0.0
C27 C 0.92415 0.63573 0.18306 0.0
C28 C 0.96694 0.67034 0.17816 0.0
C29 C 1.0021 0.64358 0.20534 0.0
C30 C 0.95932 0.60926 0.21039 0.0
C31 C 1.04932 0.69795 0.17803 0.0
H32 H 0.30386 0.56103 0.17166 0.0
H33 H 0.23981 0.57433 0.172 0.0
H34 H 0.21886 0.55767 0.10239 0.0
H35 H 0.28229 0.54412 0.10196 0.0
H36 H 0.89472 0.63215 0.17336 0.0
H37 H 0.9693 0.6924 0.16496 0.0
H38 H 1.0318 0.64466 0.21356 0.0
H39 H 0.95728 0.5855 0.22264 0.0
Tb40 Tb 0.65498 0.15214 0.50055 0.0
Eu41 Eu 0.54519 0.10192 0.49833 0.0
C42 C 0.60637 0.11895 0.54232 0.0
C43 C 0.59703 1.04465 0.49965 0.0
C44 C 0.7793 0.23536 0.49726 0.0
C45 C 0.85076 0.30304 0.50819 0.0
C46 C 0.81021 0.26559 0.51351 0.0
C47 C 0.78846 0.24447 0.47547 0.0
C48 C 0.82917 0.28174 0.47015 0.0
C49 C 0.86138 0.3106 0.48651 0.0
C50 C 0.74042 0.19258 0.5035 0.0
O51 O 0.63613 0.16564 0.46831 0.0
O52 O 0.56432 0.10456 0.46383 0.0
O53 O 0.56677 0.17508 0.49263 0.0
O54 O 0.63857 0.20442 0.50929 0.0
C55 C 0.60091 0.13682 0.45568 0.0
O56 O 0.47864 1.05398 0.48272 0.0
O57 O 0.48315 0.08904 0.51238 0.0
O58 O 0.57295 0.12339 0.53322 0.0
O59 O 0.63568 0.11742 0.5306 0.0
O60 O 0.63232 0.08092 0.49271 0.0
O61 O 0.56229 1.04683 0.50597 0.0
C62 C 0.60401 0.20935 0.50186 0.0
O63 O 0.71676 0.19527 0.51835 0.0
O64 O 0.7148 0.1634 0.48801 0.0
C65 C 0.43056 1.01038 0.50892 0.0
C66 C 0.40026 0.92058 0.52127 0.0
C67 C 0.38162 0.92961 0.50207 0.0
C68 C 0.39662 0.97417 0.49599 0.0
C69 C 0.44548 1.00151 0.52922 0.0
C70 C 0.43015 0.95698 0.53541 0.0
C71 C 0.45733 1.05476 0.49913 0.0
H72 H 0.87458 0.3251 0.52112 0.0
H73 H 0.80382 0.25929 0.53042 0.0
H74 H 0.76521 0.22181 0.46256 0.0
H75 H 0.83646 0.28632 0.45331 0.0
H76 H 0.35877 0.90256 0.49067 0.0
H77 H 0.38487 0.98022 0.48023 0.0
H78 H 0.47177 1.02877 0.53956 0.0
H79 H 0.44443 0.95119 0.5505 0.0
Tb80 Tb 0.56879 0.59298 0.84012 0.0
Eu81 Eu 0.50985 0.48864 0.82179 0.0
C82 C 0.53579 0.51269 0.87202 0.0
C83 C 0.61943 0.53853 0.83309 0.0
C84 C 0.61532 0.71508 0.85875 0.0
C85 C 0.65863 0.79371 0.87079 0.0
C86 C 0.65472 0.75127 0.86886 0.0
C87 C 0.57801 0.72046 0.85241 0.0
C88 C 0.58179 0.76301 0.85442 0.0
C89 C 0.62304 0.80064 0.8626 0.0
C90 C 0.61731 0.67531 0.85189 0.0
O91 O 0.58035 0.58926 0.806 0.0
O92 O 0.51003 0.53261 0.7947 0.0
O93 O 0.4575 0.5052 0.8323 0.0
O94 O 0.50043 0.58313 0.83437 0.0
C95 C 0.5481 0.5683 0.79037 0.0
O96 O 0.49498 0.43783 0.7967 0.0
O97 O 0.45785 0.41805 0.82548 0.0
O98 O 0.53394 0.48697 0.85609 0.0
O99 O 0.53988 0.55259 0.86845 0.0
O100 O 0.61697 0.56914 0.84456 0.0
O101 O 0.58429 0.50855 0.82053 0.0
C102 C 0.461 0.54525 0.83439 0.0
O103 O 0.60525 0.64206 0.86517 0.0
O104 O 0.60253 0.66108 0.83195 0.0
C105 C 0.48828 0.37389 0.81401 0.0
C106 C 0.55038 0.34288 0.82059 0.0
C107 C 0.52601 0.33626 0.80033 0.0
C108 C 0.4952 0.35184 0.79705 0.0
C109 C 0.50902 0.37593 0.8348 0.0
C110 C 0.53986 0.36062 0.83804 0.0
C111 C 0.47027 0.40446 0.80905 0.0
H112 H 0.69106 0.82177 0.87697 0.0
H113 H 0.68384 0.74761 0.87381 0.0
H114 H 0.54716 0.69263 0.84467 0.0
H115 H 0.55346 0.76703 0.84834 0.0
H116 H 0.5337 0.32281 0.78658 0.0
H117 H 0.47999 0.35035 0.78086 0.0
H118 H 0.50461 0.39292 0.84821 0.0
H119 H 0.55787 0.36561 0.85385 0.0
P120 P 0.65034 0.11875 0.22203 0.0
H121 H 0.61533 0.08227 0.17745 0.0
H122 H 0.54102 1.02121 0.16259 0.0
H123 H 0.48601 1.01719 0.22358 0.0
H124 H 0.55882 0.07812 0.2378 0.0
H125 H 0.74788 0.16032 0.22314 0.0
H126 H 0.80883 0.23263 0.21257 0.0
H127 H 0.71092 0.27094 0.18869 0.0
H128 H 0.6489 0.19664 0.19917 0.0
H129 H 0.66872 0.0799 0.26141 0.0
H130 H 0.62472 0.17592 0.24552 0.0
O131 O 0.67101 0.0838 0.22056 0.0
H132 H 0.66061 0.08748 0.29955 0.0
H133 H 0.61625 0.18356 0.28406 0.0
C134 C 0.59316 0.08611 0.20866 0.0
C135 C 0.58677 1.06944 0.1873 0.0
C136 C 0.54423 1.0337 0.17896 0.0
C137 C 0.50692 1.01342 0.19183 0.0
C138 C 0.51314 1.03186 0.21286 0.0
C139 C 0.55543 1.06741 0.22111 0.0
C140 C 0.69341 0.17219 0.21156 0.0
C141 C 0.73906 0.18373 0.21532 0.0
C142 C 0.77427 0.22574 0.20949 0.0
C143 C 0.76531 0.25834 0.1999 0.0
C144 C 0.71933 0.24673 0.19589 0.0
C145 C 0.68373 0.2042 0.20186 0.0
C146 C 0.64756 0.12754 0.25053 0.0
C147 C 0.65772 0.10303 0.2661 0.0
C148 C 0.65313 0.10744 0.28802 0.0
C149 C 0.63782 0.13615 0.29491 0.0
C150 C 0.62781 0.16091 0.27927 0.0
C151 C 0.63297 0.15686 0.25729 0.0
P152 P 0.64158 0.64626 0.56019 0.0
H153 H 0.6815 0.62356 0.52569 0.0
H154 H 0.67133 0.55183 0.51241 0.0
H155 H 0.55649 0.47956 0.55072 0.0
H156 H 0.56574 0.55157 0.56305 0.0
H157 H 0.69738 0.72819 0.53647 0.0
H158 H 0.68669 0.78979 0.52329 0.0
H159 H 0.54749 0.71672 0.53978 0.0
H160 H 0.55829 0.65396 0.55246 0.0
H161 H 0.64209 0.58391 0.59264 0.0
H162 H 0.6064 0.68855 0.58912 0.0
O163 O 0.69808 0.6721 0.56403 0.0
H164 H 0.62535 0.57305 0.63052 0.0
H165 H 0.58957 0.67776 0.627 0.0
C166 C 0.62491 0.59333 0.54568 0.0
C167 C 0.65337 0.59228 0.53081 0.0
C168 C 0.6479 0.55094 0.52347 0.0
C169 C 0.61383 0.50927 0.53087 0.0
C170 C 0.58322 0.51051 0.54456 0.0
C171 C 0.58852 0.55198 0.55172 0.0
C172 C 0.62899 0.68653 0.54602 0.0
C173 C 0.66426 0.72485 0.53707 0.0
C174 C 0.6582 0.76061 0.52968 0.0
C175 C 0.61659 0.75935 0.53099 0.0
C176 C 0.58018 0.71938 0.53855 0.0
C177 C 0.58627 0.68327 0.54584 0.0
C178 C 0.62351 0.63554 0.58751 0.0
C179 C 0.62954 0.60381 0.59979 0.0
C180 C 0.62056 0.59805 0.62161 0.0
C181 C 0.60585 0.62436 0.63183 0.0
C182 C 0.59995 0.65629 0.61954 0.0
C183 C 0.60928 0.66224 0.5977 0.0
P184 P 1.07894 0.61277 0.87865 0.0
H185 H 0.12963 0.63042 0.84041 0.0
H186 H 0.18665 0.61254 0.83047 0.0
H187 H 0.16204 0.52836 0.88632 0.0
H188 H 1.10294 0.54447 0.89533 0.0
H189 H 1.03938 0.63524 0.84027 0.0
H190 H 0.96157 0.61374 0.8279 0.0
H191 H 0.9123 0.51342 0.87733 0.0
H192 H 0.99071 0.53417 0.88909 0.0
H193 H 0.1474 0.62369 0.91369 0.0
H194 H 1.01675 0.61525 0.90833 0.0
O195 O 1.10505 0.66701 0.87178 0.0
H196 H 0.15166 0.6327 0.9529 0.0
H197 H 1.02051 0.62361 0.94752 0.0
C198 C 0.11275 0.58993 0.86899 0.0
C199 C 0.13585 0.60741 0.85032 0.0
C200 C 0.16913 0.59757 0.84481 0.0
C201 C 0.18058 0.5701 0.85793 0.0
C202 C 0.15475 0.54983 0.87577 0.0
C203 C 0.12088 0.55923 0.88107 0.0
C204 C 1.02118 0.58728 0.86604 0.0
C205 C 1.0119 0.60795 0.84821 0.0
C206 C 0.96714 0.59586 0.84127 0.0
C207 C 0.93028 0.56277 0.85201 0.0
C208 C 0.93954 0.53922 0.86866 0.0
C209 C 0.98454 0.55112 0.87547 0.0
C210 C 1.08024 0.61537 0.90796 0.0
C211 C 0.11879 0.62203 0.92091 0.0
C212 C 0.12143 0.62769 0.94342 0.0
C213 C 1.08608 0.62814 0.95348 0.0
C214 C 1.04829 0.62324 0.94039 0.0
C215 C 1.04568 0.61745 0.9179 0.0
P216 P 0.31568 0.54819 0.41047 0.0
H217 H 0.34477 0.54399 0.45517 0.0
H218 H 0.37619 0.60151 0.48447 0.0
H219 H 0.40251 0.70487 0.43752 0.0
H220 H 0.37114 0.64751 0.40846 0.0
H221 H 0.23738 0.45624 0.40546 0.0
H222 H 0.16166 0.42113 0.41895 0.0
H223 H 0.19931 0.54641 0.45281 0.0
H224 H 0.27421 0.58087 0.43954 0.0
H225 H 0.33286 0.53838 0.36572 0.0
H226 H 0.27549 0.60461 0.39967 0.0
O227 O 0.33294 0.51118 0.40647 0.0
H228 H 0.30919 0.55867 0.33119 0.0
H229 H 0.24975 0.62305 0.36535 0.0
C230 C 0.35501 0.59147 0.42973 0.0
C231 C 0.35904 0.57929 0.45115 0.0
C232 C 0.37661 0.61204 0.46788 0.0
C233 C 0.39112 0.65746 0.46328 0.0
C234 C 0.3917 0.67011 0.44155 0.0
C235 C 0.37357 0.63726 0.42487 0.0
C236 C 0.26186 0.52061 0.42203 0.0
C237 C 0.22946 0.47575 0.41609 0.0
C238 C 0.18617 0.45596 0.42362 0.0
C239 C 0.17477 0.48101 0.43705 0.0
C240 C 0.20739 0.52599 0.44286 0.0
C241 C 0.25038 0.54566 0.43531 0.0
C242 C 0.30562 0.56966 0.38524 0.0
C243 C 0.3155 0.5576 0.36576 0.0
C244 C 0.30146 0.56883 0.34601 0.0
C245 C 0.27681 0.59186 0.34543 0.0
C246 C 0.26884 0.60559 0.3651 0.0
C247 C 0.2833 0.59474 0.38479 0.0
P248 P 0.845 0.22272 0.75657 0.0
H249 H 0.87828 0.26897 0.79864 0.0
H250 H 0.85248 0.31239 0.81834 0.0
H251 H 0.78658 0.32646 0.75889 0.0
H252 H 0.81098 0.28221 0.73946 0.0
H253 H 0.85931 0.14737 0.76947 0.0
H254 H 0.81951 0.08379 0.79337 0.0
H255 H 0.73357 0.1369 0.80907 0.0
H256 H 0.77231 0.19914 0.78488 0.0
H257 H 0.86406 0.2537 0.71235 0.0
H258 H 0.74988 0.15299 0.74475 0.0
O259 O 0.89798 0.23488 0.75346 0.0
H260 H 0.81609 0.23312 0.67814 0.0
H261 H 0.70238 0.13267 0.71097 0.0
C262 C 0.84547 0.27127 0.76774 0.0
C263 C 0.85999 0.28312 0.78968 0.0
C264 C 0.84523 0.30782 0.80094 0.0
C265 C 0.81709 0.32208 0.79014 0.0
C266 C 0.80833 0.31587 0.76757 0.0
C267 C 0.82216 0.29027 0.75643 0.0
C268 C 0.81945 0.17844 0.77574 0.0
C269 C 0.83237 0.14559 0.77833 0.0
C270 C 0.80971 0.10944 0.79204 0.0
C271 C 0.7735 0.10549 0.80315 0.0
C272 C 0.76113 0.13887 0.80066 0.0
C273 C 0.7837 0.17481 0.78701 0.0
C274 C 0.81098 0.20443 0.73107 0.0
C275 C 0.82896 0.22685 0.71207 0.0
C276 C 0.80143 0.2154 0.69263 0.0
C277 C 0.75549 0.18122 0.69191 0.0
C278 C 0.73776 0.15872 0.71096 0.0
C279 C 0.76512 0.17043 0.73036 0.0
P280 P 0.52443 0.30693 0.08234 0.0
H281 H 0.53269 0.27818 0.12578 0.0
H282 H 0.59692 0.30625 0.15327 0.0
H283 H 0.68723 0.38793 0.10536 0.0
H284 H 0.62313 0.35967 0.07804 0.0
H285 H 0.43112 0.28844 0.07695 0.0
H286 H 0.39478 0.32897 0.0899 0.0
H287 H 0.51921 0.42081 0.12758 0.0
H288 H 0.55522 0.38069 0.11459 0.0
H289 H 0.50157 0.27246 0.03735 0.0
H290 H 0.5736 0.40221 0.07109 0.0
O291 O 0.49009 0.25118 0.07858 0.0
H292 H 0.50694 0.31016 0.00302 0.0
H293 H 0.57806 0.4402 0.0369 0.0
C294 C 0.57314 0.31724 0.09998 0.0
C295 C 0.56657 0.30104 0.12107 0.0
C296 C 0.60317 0.31727 0.13678 0.0
C297 C 0.64695 0.34957 0.1315 0.0
C298 C 0.65391 0.36281 0.10988 0.0
C299 C 0.61719 0.34686 0.09423 0.0
C300 C 0.49541 0.3307 0.09523 0.0
C301 C 0.45011 0.31654 0.08845 0.0
C302 C 0.42958 0.33994 0.09569 0.0
C303 C 0.45422 0.37796 0.10978 0.0
C304 C 0.49918 0.39118 0.11704 0.0
C305 C 0.51974 0.36805 0.10965 0.0
C306 C 0.5373 0.33452 0.05676 0.0
C307 C 0.51924 0.30909 0.03734 0.0
C308 C 0.52188 0.33073 0.01774 0.0
C309 C 0.54232 0.37822 0.01723 0.0
C310 C 0.56234 0.40365 0.03665 0.0
C311 C 0.55977 0.38195 0.05623 0.0
H312 H 0.3062 0.4918 0.16402 0.0
H313 H 0.3635 0.57356 0.10867 0.0
H314 H 0.3494 0.45388 0.15918 0.0
H315 H 0.40635 0.53517 0.10373 0.0
H316 H 0.40808 0.40689 0.08269 0.0
H317 H 0.37762 0.45515 0.09155 0.0
H318 H 0.42687 0.46219 0.15852 0.0
H319 H 0.45689 0.41306 0.14966 0.0
C320 C 0.32903 0.50263 0.15121 0.0
C321 C 0.33104 0.53529 0.13655 0.0
C322 C 0.35365 0.48077 0.14841 0.0
C323 C 0.38056 0.49107 0.13086 0.0
C324 C 0.38508 0.52595 0.11713 0.0
C325 C 0.36064 0.54793 0.11998 0.0
C326 C 0.41203 0.41837 0.09934 0.0
C327 C 0.43449 0.40596 0.11552 0.0
C328 C 0.39522 0.44655 0.10435 0.0
C329 C 0.40033 0.46277 0.12568 0.0
C330 C 0.42252 0.45015 0.14195 0.0
C331 C 0.43973 0.4222 0.13688 0.0
H332 H 0.94148 0.32985 0.50844 0.0
H333 H 0.88611 0.36737 0.4521 0.0
H334 H 1.01743 0.37685 0.49703 0.0
H335 H 0.96267 0.41429 0.44051 0.0
H336 H 0.15266 0.48772 0.47766 0.0
H337 H 1.07697 0.4547 0.49044 0.0
H338 H 1.0177 0.39511 0.42678 0.0
H339 H 1.09336 0.42932 0.41382 0.0
C340 C 0.94559 0.34911 0.49392 0.0
C341 C 0.9077 0.34472 0.48112 0.0
C342 C 0.9892 0.37597 0.48734 0.0
C343 C 0.99589 0.3989 0.46779 0.0
C344 C 0.95832 0.39634 0.45549 0.0
C345 C 0.9146 0.36956 0.46212 0.0
C346 C 0.12341 0.468 0.46634 0.0
C347 C 0.12884 0.46082 0.44478 0.0
C348 C 1.08017 0.44895 0.47369 0.0
C349 C 1.04151 0.42242 0.4596 0.0
C350 C 1.04689 0.41589 0.43793 0.0
C351 C 1.09017 0.43485 0.4306 0.0
H352 H 0.59541 0.83183 0.82728 0.0
H353 H 0.67342 0.87622 0.88929 0.0
H354 H 0.62672 0.90986 0.81688 0.0
H355 H 0.70573 0.95491 0.87849 0.0
H356 H 0.80544 1.06443 0.83185 0.0
H357 H 0.76112 0.99397 0.85051 0.0
H358 H 0.63712 0.98595 0.82297 0.0
H359 H 0.68138 1.0557 0.80385 0.0
C360 C 0.6179 0.85819 0.83907 0.0
C361 C 0.63239 0.8476 0.85903 0.0
C362 C 0.63607 0.90311 0.83302 0.0
C363 C 0.66927 0.93843 0.84673 0.0
C364 C 0.68081 0.92822 0.86745 0.0
C365 C 0.66229 0.8832 0.8736 0.0
C366 C 0.76874 1.04775 0.82992 0.0
C367 C 0.74691 1.06535 0.81625 0.0
C368 C 0.74334 1.00778 0.84084 0.0
C369 C 0.69563 0.9845 0.8382 0.0
C370 C 0.67383 1.0031 0.82524 0.0
C371 C 0.6992 1.04315 0.81439 0.0
H372 H 0.90766 0.51793 0.20234 0.0
H373 H 0.83323 0.58966 0.19508 0.0
H374 H 0.83779 0.44675 0.19366 0.0
H375 H 0.76381 0.51852 0.18536 0.0
H376 H 0.64189 0.38547 0.16942 0.0
H377 H 0.70516 0.43969 0.1939 0.0
H378 H 0.79882 0.4256 0.15624 0.0
H379 H 0.73558 0.3707 0.13207 0.0
C380 C 0.87629 0.51854 0.19955 0.0
C381 C 0.8763 0.55981 0.19893 0.0
C382 C 0.83634 0.47768 0.19433 0.0
C383 C 0.79571 0.47725 0.18828 0.0
C384 C 0.79469 0.51776 0.18989 0.0
C385 C 0.8346 0.55865 0.19522 0.0
C386 C 0.67587 0.3927 0.16685 0.0
C387 C 0.68393 0.3742 0.14873 0.0
C388 C 0.71206 0.42399 0.18078 0.0
C389 C 0.7569 0.43704 0.17692 0.0
C390 C 0.76461 0.41577 0.15981 0.0
C391 C 0.72847 0.38471 0.14581 0.0
H392 H 0.32476 0.83678 0.5122 0.0
H393 H 0.46624 0.90155 0.53608 0.0
H394 H 0.32514 0.76663 0.50582 0.0
H395 H 0.46562 0.83087 0.5306 0.0
H396 H 0.45986 0.7451 0.46911 0.0
H397 H 0.46049 0.80323 0.49174 0.0
H398 H 0.33869 0.70223 0.51912 0.0
H399 H 0.33717 0.644 0.49596 0.0
C400 C 0.35545 0.8357 0.51677 0.0
C401 C 0.39573 0.87519 0.52409 0.0
C402 C 0.35553 0.79537 0.51333 0.0
C403 C 0.39584 0.7939 0.51725 0.0
C404 C 0.43447 0.83165 0.52705 0.0
C405 C 0.43452 0.87198 0.53039 0.0
C406 C 0.43402 0.73512 0.48042 0.0
C407 C 0.39841 0.69016 0.48071 0.0
C408 C 0.43467 0.76826 0.49357 0.0
C409 C 0.39986 0.75709 0.50731 0.0
C410 C 0.36595 0.71163 0.50871 0.0
C411 C 0.36536 0.67835 0.49558 0.0
H412 H 0.55923 0.27177 0.80737 0.0
H413 H 0.63446 0.40549 0.83744 0.0
H414 H 0.63013 0.27047 0.80605 0.0
H415 H 0.70507 0.40424 0.83581 0.0
H416 H 0.80484 0.3952 0.78603 0.0
H417 H 0.74211 0.40116 0.79925 0.0
H418 H 0.69891 0.27663 0.83324 0.0
H419 H 0.76204 0.27124 0.82052 0.0
C420 C 0.59077 0.30043 0.81401 0.0
C421 C 0.59145 0.33862 0.82253 0.0
C422 C 0.63117 0.29964 0.81337 0.0
C423 C 0.67282 0.33738 0.82084 0.0
C424 C 0.67333 0.37491 0.82998 0.0
C425 C 0.63294 0.37539 0.831 0.0
C426 C 0.78292 0.37017 0.797 0.0
C427 C 0.78824 0.33295 0.80237 0.0
C428 C 0.74712 0.37347 0.80451 0.0
C429 C 0.71568 0.33903 0.81703 0.0
C430 C 0.72274 0.30343 0.82355 0.0
C431 C 0.75904 0.30065 0.81644 0.0
H432 H 0.66745 1.02952 0.49361 0.0
H433 H 0.52937 0.96133 0.51162 0.0
H434 H 0.67108 0.9607 0.50002 0.0
H435 H 0.53333 0.89269 0.51827 0.0
H436 H 0.5429 0.76335 0.5112 0.0
H437 H 0.53751 0.83063 0.50236 0.0
H438 H 0.67504 0.91597 0.52952 0.0
H439 H 0.68062 0.8493 0.53839 0.0
C440 C 0.6377 0.99983 0.49882 0.0
C441 C 0.59814 1.00138 0.5021 0.0
C442 C 0.63991 0.96027 0.50269 0.0
C443 C 0.60258 0.92078 0.50988 0.0
C444 C 0.56264 0.92203 0.51261 0.0
C445 C 0.56048 0.96168 0.50887 0.0
C446 C 0.57197 0.7964 0.51543 0.0
C447 C 0.61238 0.80037 0.5254 0.0
C448 C 0.5688 0.83514 0.51035 0.0
C449 C 0.60581 0.87911 0.51507 0.0
C450 C 0.64603 0.88297 0.52514 0.0
C451 C 0.64923 0.84441 0.53024 0.0
H452 H 0.64061 0.47749 0.81556 0.0
H453 H 0.69907 0.60044 0.85483 0.0
H454 H 0.71444 0.48067 0.81879 0.0
H455 H 0.77142 0.60313 0.85818 0.0
H456 H 0.90697 0.62724 0.84193 0.0
H457 H 0.83203 0.61854 0.83568 0.0
H458 H 0.77097 0.47511 0.84585 0.0
H459 H 0.84666 0.48339 0.85129 0.0
C460 C 0.66898 0.50511 0.82485 0.0
C461 C 0.66361 0.53883 0.83479 0.0
C462 C 0.71126 0.50678 0.82682 0.0
C463 C 0.74923 0.54243 0.83859 0.0
C464 C 0.74343 0.57563 0.84864 0.0
C465 C 0.70151 0.57386 0.8468 0.0
C466 C 0.8778 0.59353 0.84241 0.0
C467 C 0.8834 0.55604 0.84708 0.0
C468 C 0.83454 0.58864 0.83909 0.0
C469 C 0.79511 0.54612 0.84041 0.0
C470 C 0.80042 0.50829 0.84454 0.0
C471 C 0.84395 0.51318 0.84792 0.0
H472 H 0.29192 0.73215 0.15949 0.0
H473 H 0.22048 0.80638 0.16031 0.0
H474 H 0.3642 0.80287 0.16607 0.0
H475 H 0.29214 0.8769 0.16584 0.0
H476 H 0.41993 0.98947 0.20101 0.0
H477 H 0.34962 0.91968 0.19179 0.0
H478 H 0.42109 0.87299 0.15468 0.0
H479 H 0.49235 0.94189 0.16525 0.0
C480 C 0.29162 0.76362 0.16065 0.0
C481 C 0.2501 0.76325 0.1595 0.0
C482 C 0.33326 0.80446 0.16439 0.0
C483 C 0.33471 0.84628 0.16685 0.0
C484 C 0.29303 0.84576 0.16475 0.0
C485 C 0.2516 0.80504 0.16133 0.0
C486 C 0.42105 0.96433 0.19104 0.0
C487 C 0.46258 0.97187 0.18412 0.0
C488 C 0.38016 0.92414 0.1854 0.0
C489 C 0.37886 0.88993 0.17234 0.0
C490 C 0.42025 0.89784 0.16498 0.0
C491 C 0.46134 0.93802 0.1708 0.0
H492 H 0.54258 0.23485 0.48628 0.0
H493 H 0.66989 0.28514 0.52497 0.0
H494 H 0.54495 0.30646 0.49222 0.0
H495 H 0.67162 0.35618 0.53155 0.0
H496 H 0.6849 0.49467 0.52511 0.0
H497 H 0.68266 0.42423 0.51694 0.0
H498 H 0.53663 0.35209 0.51747 0.0
H499 H 0.53865 0.42316 0.52434 0.0
C500 C 0.5711 0.2611 0.49612 0.0
C501 C 0.60609 0.25388 0.50507 0.0
C502 C 0.57231 0.30231 0.4997 0.0
C503 C 0.60843 0.33771 0.51246 0.0
C504 C 0.64351 0.33042 0.52133 0.0
C505 C 0.64242 0.28931 0.51765 0.0
C506 C 0.65209 0.46407 0.52309 0.0
C507 C 0.61194 0.46534 0.52535 0.0
C508 C 0.65087 0.42317 0.51873 0.0
C509 C 0.60948 0.38177 0.5166 0.0
C510 C 0.56926 0.383 0.51871 0.0
C511 C 0.57046 0.424 0.52297 0.0
H512 H 0.45568 0.61978 0.84571 0.0
H513 H 0.37137 0.47709 0.82974 0.0
H514 H 0.38855 0.62447 0.85139 0.0
H515 H 0.30374 0.48204 0.83461 0.0
H516 H 0.19259 0.4961 0.86483 0.0
H517 H 0.25924 0.48993 0.85945 0.0
H518 H 0.3257 0.62519 0.8347 0.0
H519 H 0.26077 0.63251 0.84146 0.0
C520 C 0.42276 0.58939 0.84315 0.0
C521 C 0.41927 0.54805 0.83719 0.0
C522 C 0.38392 0.59213 0.8463 0.0
C523 C 0.34008 0.55372 0.84339 0.0
C524 C 0.33664 0.51234 0.83735 0.0
C525 C 0.37559 0.50953 0.83438 0.0
C526 C 0.22154 0.52479 0.85846 0.0
C527 C 0.22063 0.56483 0.85362 0.0
C528 C 0.25981 0.521 0.85507 0.0
C529 C 0.29849 0.55706 0.84664 0.0
C530 C 0.29726 0.5968 0.84155 0.0
C531 C 0.25927 0.6007 0.84509 0.0
H532 H 1.04011 0.48002 0.18336 0.0
H533 H 0.95667 0.53277 0.15563 0.0
H534 H 0.97198 0.40963 0.19118 0.0
H535 H 0.88851 0.46209 0.16307 0.0
H536 H 0.77357 0.31101 0.16406 0.0
H537 H 0.84025 0.38185 0.15475 0.0
H538 H 0.91212 0.38061 0.21492 0.0
H539 H 0.84623 0.31016 0.22405 0.0
C540 C 1.00726 0.47664 0.17885 0.0
C541 C 1.00424 0.51247 0.16893 0.0
C542 C 0.96796 0.43621 0.18348 0.0
C543 C 0.92421 0.42993 0.17812 0.0
C544 C 0.92126 0.46534 0.1676 0.0
C545 C 0.96059 0.50613 0.16335 0.0
C546 C 0.80345 0.32604 0.1754 0.0
C547 C 0.80437 0.30402 0.19469 0.0
C548 C 0.84186 0.36685 0.17005 0.0
C549 C 0.88226 0.38709 0.18389 0.0
C550 C 0.88242 0.36577 0.20348 0.0
C551 C 0.84429 0.32513 0.20877 0.0
H552 H 0.11873 0.71408 0.09057 0.0
H553 H 1.06589 0.56957 0.08918 0.0
H554 H 0.11541 0.71331 0.05078 0.0
H555 H 1.0623 0.56885 0.05001 0.0
H556 H 0.11636 0.58923 0.98425 0.0
H557 H 0.11883 0.59568 0.02343 0.0
H558 H 1.06266 0.6842 0.01667 0.0
H559 H 1.06137 0.67877 0.97723 0.0
C560 C 1.10582 0.68218 0.08183 0.0
C561 C 1.09303 0.64202 0.0931 0.0
C562 C 1.10393 0.68171 0.05906 0.0
C563 C 1.08938 0.64111 0.04722 0.0
C564 C 1.07477 0.60088 0.05858 0.0
C565 C 1.07659 0.60132 0.08112 0.0
C566 C 1.10503 0.61054 0.99105 0.0
C567 C 1.08851 0.63331 0.97751 0.0
C568 C 1.10599 0.61388 0.01355 0.0
C569 C 1.09049 0.64011 0.02322 0.0
C570 C 1.07494 0.66381 0.00976 0.0
C571 C 1.07376 0.66028 0.98716 0.0
H572 H 0.67452 0.19393 0.43395 0.0
H573 H 0.53492 0.08647 0.42316 0.0
H574 H 0.68236 0.19608 0.39524 0.0
H575 H 0.54306 0.08862 0.38417 0.0
H576 H 0.56647 0.1352 0.31312 0.0
H577 H 0.55599 0.13738 0.35169 0.0
H578 H 0.68527 0.14591 0.36807 0.0
H579 H 0.69594 0.14435 0.32972 0.0
C580 C 0.6453 0.1709 0.42334 0.0
C581 C 0.60406 0.13987 0.4318 0.0
C582 C 0.64996 0.17199 0.40109 0.0
C583 C 0.61348 0.1423 0.38657 0.0
C584 C 0.57177 0.11216 0.39489 0.0
C585 C 0.56716 0.1108 0.41726 0.0
C586 C 0.59283 0.13804 0.32499 0.0
C587 C 0.63204 0.13958 0.31832 0.0
C588 C 0.58662 0.13883 0.34708 0.0
C589 C 0.61977 0.14182 0.363 0.0
C590 C 0.65923 0.14403 0.35628 0.0
C591 C 0.6652 0.14277 0.33427 0.0
H592 H 0.62848 0.6287 0.77379 0.0
H593 H 0.4869 0.53605 0.75484 0.0
H594 H 0.64284 0.64514 0.73575 0.0
H595 H 0.50134 0.55224 0.71693 0.0
H596 H 0.53575 0.62202 0.65183 0.0
H597 H 0.52242 0.6124 0.69025 0.0
H598 H 0.64446 0.60488 0.70335 0.0
H599 H 0.65822 0.61537 0.66508 0.0
C600 C 0.60035 0.61208 0.76156 0.0
C601 C 0.55656 0.58093 0.76742 0.0
C602 C 0.60865 0.62128 0.73973 0.0
C603 C 0.57328 0.59989 0.72324 0.0
C604 C 0.52929 0.56966 0.72917 0.0
C605 C 0.52108 0.56019 0.75095 0.0
C606 C 0.55994 0.61873 0.66294 0.0
C607 C 0.59794 0.61926 0.65532 0.0
C608 C 0.55212 0.61285 0.68495 0.0
C609 C 0.58234 0.60781 0.69992 0.0
C610 C 0.62071 0.60907 0.69233 0.0
C611 C 0.62831 0.61456 0.67033 0.0
H612 H 0.64158 0.07398 0.56483 0.0
H613 H 0.59125 0.16587 0.57289 0.0
H614 H 0.67015 0.08576 0.60277 0.0
H615 H 0.6203 0.17804 0.61117 0.0
H616 H 0.74867 0.23818 0.66237 0.0
H617 H 0.70219 0.21768 0.6279 0.0
H618 H 0.64854 0.07599 0.641 0.0
H619 H 0.69545 0.09645 0.6753 0.0
C620 C 0.63575 0.09594 0.57492 0.0
C621 C 0.61444 0.11919 0.566 0.0
C622 C 0.65195 0.10256 0.59665 0.0
C623 C 0.64775 0.13309 0.60987 0.0
C624 C 0.62426 0.15458 0.60125 0.0
C625 C 0.6073 0.14733 0.57947 0.0
C626 C 0.72689 0.20268 0.65788 0.0
C627 C 0.72598 0.16892 0.67141 0.0
C628 C 0.69982 0.19095 0.63832 0.0
C629 C 0.67165 0.14524 0.63183 0.0
C630 C 0.67 0.11149 0.6456 0.0
C631 C 0.69674 0.1232 0.66523 0.0
H632 H 0.50313 0.42545 0.88326 0.0
H633 H 0.56433 0.56089 0.9109 0.0
H634 H 0.50421 0.39599 0.91894 0.0
H635 H 0.56497 0.53086 0.94715 0.0
H636 H 0.6087 0.45819 0.00167 0.0
H637 H 0.60484 0.4938 0.96762 0.0
H638 H 0.46727 0.38508 0.95279 0.0
H639 H 0.47085 0.34983 0.9867 0.0
C640 C 0.51665 0.449 0.897 0.0
C641 C 0.53383 0.49558 0.89422 0.0
C642 C 0.51693 0.43198 0.91752 0.0
C643 C 0.53456 0.46104 0.93588 0.0
C644 C 0.55139 0.5077 0.93324 0.0
C645 C 0.55071 0.52481 0.91256 0.0
C646 C 0.5775 0.44215 0.99123 0.0
C647 C 0.54034 0.40074 0.99676 0.0
C648 C 0.57526 0.46265 0.97178 0.0
C649 C 0.53586 0.44208 0.95747 0.0
C650 C 0.49838 0.40137 0.9633 0.0
C651 C 0.50056 0.38101 0.98269 0.0
H652 H 0.12952 0.64941 0.23848 0.0
H653 H 0.21918 0.61294 0.2102 0.0
H654 H 0.15753 0.63955 0.27476 0.0
H655 H 0.24634 0.60308 0.24596 0.0
H656 H 0.23972 0.53433 0.31006 0.0
H657 H 0.20868 0.54623 0.27558 0.0
H658 H 0.23609 0.67674 0.29892 0.0
H659 H 0.26877 0.66572 0.33343 0.0
C660 C 0.15509 0.63941 0.23997 0.0
C661 C 0.17202 0.63193 0.22145 0.0
C662 C 0.17119 0.63396 0.26068 0.0
C663 C 0.20381 0.62023 0.26307 0.0
C664 C 0.2208 0.61314 0.24456 0.0
C665 C 0.20531 0.61909 0.22405 0.0
C666 C 0.23986 0.56591 0.30784 0.0
C667 C 0.25745 0.59933 0.32448 0.0
C668 C 0.22166 0.57249 0.28813 0.0
C669 C 0.22012 0.61243 0.28462 0.0
C670 C 0.23653 0.64547 0.30133 0.0
C671 C 0.25525 0.6391 0.32105 0.0
loop_
_geom_bond_atom_site_label_1
_geom_bond_atom_site_label_2
_geom_bond_distance
_geom_bond_site_symmetry_2
_ccdc_geom_bond_type
Tb0 C10 2.825 . S
Tb0 O11 2.347 . S
Tb0 O14 2.366 . S
Tb0 O19 2.418 . S
Tb0 O20 2.384 1_455 S
Tb0 O23 2.479 . S
Tb0 O24 2.471 . S
Eu1 O12 2.417 . S
Eu1 O13 2.384 1_655 S
Eu1 O16 2.479 . S
Eu1 O17 2.471 . S
Eu1 O18 2.347 1_655 S
Eu1 O21 2.366 . S
Eu1 C31 2.825 . S
C2 O18 1.259 . S
C2 O19 1.265 . S
C3 O20 1.255 . S
C3 O21 1.265 . S
C4 C6 1.380 . S
C4 C7 1.374 . S
C4 C10 1.507 . S
C5 C6 1.384 . S
C5 C9 1.387 . S
C5 H32 0.930 . S
C6 C4 1.380 . S
C6 C5 1.384 . S
C6 H33 0.931 . S
C7 C4 1.374 . S
C7 C8 1.390 . S
C7 H34 0.930 . S
C8 C7 1.390 . S
C8 C9 1.391 . S
C8 H35 0.930 . S
C9 C5 1.387 . S
C9 C8 1.391 . S
C10 Tb0 2.825 . S
C10 C4 1.507 . S
C10 O23 1.238 . S
C10 O24 1.247 . S
O11 Tb0 2.347 . S
O11 C15 1.259 . S
O12 Eu1 2.417 . S
O12 C15 1.268 1_655 S
O13 Eu1 2.384 1_455 S
O13 C22 1.255 . S
O14 Tb0 2.366 . S
O14 C22 1.265 . S
C15 O11 1.259 . S
C15 O12 1.268 1_455 S
O16 Eu1 2.479 . S
O16 C31 1.238 . S
O17 Eu1 2.471 . S
O17 C31 1.247 . S
O18 Eu1 2.347 1_455 S
O18 C2 1.259 . S
O19 Tb0 2.418 . S
O19 C2 1.265 . S
O20 Tb0 2.384 1_655 S
O20 C3 1.255 . S
O21 Eu1 2.366 . S
O21 C3 1.265 . S
C22 O13 1.255 . S
C22 O14 1.265 . S
O23 Tb0 2.479 . S
O23 C10 1.238 . S
O24 Tb0 2.471 . S
O24 C10 1.247 . S
C25 C28 1.380 . S
C25 C29 1.374 . S
C25 C31 1.507 . S
C26 C27 1.387 . S
C26 C30 1.391 . S
C27 C26 1.387 . S
C27 C28 1.384 . S
C27 H36 0.930 . S
C28 C25 1.380 . S
C28 C27 1.384 . S
C28 H37 0.931 . S
C29 C25 1.374 . S
C29 C30 1.390 . S
C29 H38 0.930 . S
C30 C26 1.391 . S
C30 C29 1.390 . S
C30 H39 0.930 . S
C31 Eu1 2.825 . S
C31 O16 1.238 . S
C31 O17 1.247 . S
C31 C25 1.507 . S
H32 C5 0.930 . S
H33 C6 0.931 . S
H34 C7 0.930 . S
H35 C8 0.930 . S
H36 C27 0.930 . S
H37 C28 0.931 . S
H38 C29 0.930 . S
H39 C30 0.930 . S
Tb40 C50 2.825 . S
Tb40 O51 2.347 . S
Tb40 O54 2.366 . S
Tb40 O59 2.418 . S
Tb40 O60 2.384 1_545 S
Tb40 O63 2.479 . S
Tb40 O64 2.471 . S
Eu41 O52 2.418 . S
Eu41 O53 2.384 . S
Eu41 O56 2.479 1_545 S
Eu41 O57 2.471 1_545 S
Eu41 O58 2.347 . S
Eu41 O61 2.366 1_545 S
Eu41 C71 2.825 1_545 S
C42 O58 1.259 . S
C42 O59 1.265 . S
C43 O60 1.255 . S
C43 O61 1.265 . S
C44 C46 1.380 . S
C44 C47 1.374 . S
C44 C50 1.507 . S
C45 C46 1.384 . S
C45 C49 1.387 . S
C45 H72 0.930 . S
C46 C44 1.380 . S
C46 C45 1.384 . S
C46 H73 0.931 . S
C47 C44 1.374 . S
C47 C48 1.390 . S
C47 H74 0.930 . S
C48 C47 1.390 . S
C48 C49 1.391 . S
C48 H75 0.930 . S
C49 C45 1.387 . S
C49 C48 1.391 . S
C50 Tb40 2.825 . S
C50 C44 1.507 . S
C50 O63 1.238 . S
C50 O64 1.247 . S
O51 Tb40 2.347 . S
O51 C55 1.259 . S
O52 Eu41 2.418 . S
O52 C55 1.265 . S
O53 Eu41 2.384 . S
O53 C62 1.255 . S
O54 Tb40 2.366 . S
O54 C62 1.265 . S
C55 O51 1.259 . S
C55 O52 1.265 . S
O56 Eu41 2.479 1_565 S
O56 C71 1.238 . S
O57 Eu41 2.471 1_565 S
O57 C71 1.247 . S
O58 Eu41 2.347 . S
O58 C42 1.259 . S
O59 Tb40 2.418 . S
O59 C42 1.265 . S
O60 Tb40 2.384 1_565 S
O60 C43 1.255 . S
O61 Eu41 2.366 1_565 S
O61 C43 1.265 . S
C62 O53 1.255 . S
C62 O54 1.265 . S
O63 Tb40 2.479 . S
O63 C50 1.238 . S
O64 Tb40 2.471 . S
O64 C50 1.247 . S
C65 C68 1.380 . S
C65 C69 1.374 . S
C65 C71 1.507 . S
C66 C67 1.387 . S
C66 C70 1.391 . S
C67 C66 1.387 . S
C67 C68 1.384 . S
C67 H76 0.930 . S
C68 C65 1.380 . S
C68 C67 1.384 . S
C68 H77 0.931 . S
C69 C65 1.374 . S
C69 C70 1.390 . S
C69 H78 0.930 . S
C70 C66 1.391 . S
C70 C69 1.390 . S
C70 H79 0.930 . S
C71 Eu41 2.825 1_565 S
C71 O56 1.238 . S
C71 O57 1.247 . S
C71 C65 1.507 . S
H72 C45 0.930 . S
H73 C46 0.931 . S
H74 C47 0.930 . S
H75 C48 0.930 . S
H76 C67 0.930 . S
H77 C68 0.931 . S
H78 C69 0.930 . S
H79 C70 0.930 . S
Tb80 C90 2.825 . S
Tb80 O91 2.347 . S
Tb80 O94 2.366 . S
Tb80 O99 2.418 . S
Tb80 O100 2.384 . S
Tb80 O103 2.479 . S
Tb80 O104 2.471 . S
Eu81 O92 2.418 . S
Eu81 O93 2.384 . S
Eu81 O96 2.479 . S
Eu81 O97 2.471 . S
Eu81 O98 2.347 . S
Eu81 O101 2.366 . S
Eu81 C111 2.825 . S
C82 O98 1.259 . S
C82 O99 1.265 . S
C83 O100 1.255 . S
C83 O101 1.265 . S
C84 C86 1.380 . S
C84 C87 1.374 . S
C84 C90 1.507 . S
C85 C86 1.384 . S
C85 C89 1.387 . S
C85 H112 0.930 . S
C86 C84 1.380 . S
C86 C85 1.384 . S
C86 H113 0.931 . S
C87 C84 1.374 . S
C87 C88 1.390 . S
C87 H114 0.930 . S
C88 C87 1.390 . S
C88 C89 1.391 . S
C88 H115 0.930 . S
C89 C85 1.387 . S
C89 C88 1.391 . S
C90 Tb80 2.825 . S
C90 C84 1.507 . S
C90 O103 1.238 . S
C90 O104 1.247 . S
O91 Tb80 2.347 . S
O91 C95 1.259 . S
O92 Eu81 2.418 . S
O92 C95 1.265 . S
O93 Eu81 2.384 . S
O93 C102 1.255 . S
O94 Tb80 2.366 . S
O94 C102 1.265 . S
C95 O91 1.259 . S
C95 O92 1.265 . S
O96 Eu81 2.479 . S
O96 C111 1.238 . S
O97 Eu81 2.471 . S
O97 C111 1.247 . S
O98 Eu81 2.347 . S
O98 C82 1.259 . S
O99 Tb80 2.418 . S
O99 C82 1.265 . S
O100 Tb80 2.384 . S
O100 C83 1.255 . S
O101 Eu81 2.366 . S
O101 C83 1.265 . S
C102 O93 1.255 . S
C102 O94 1.265 . S
O103 Tb80 2.479 . S
O103 C90 1.238 . S
O104 Tb80 2.471 . S
O104 C90 1.247 . S
C105 C108 1.380 . S
C105 C109 1.374 . S
C105 C111 1.507 . S
C106 C107 1.387 . S
C106 C110 1.391 . S
C107 C106 1.387 . S
C107 C108 1.384 . S
C107 H116 0.930 . S
C108 C105 1.380 . S
C108 C107 1.384 . S
C108 H117 0.931 . S
C109 C105 1.374 . S
C109 C110 1.390 . S
C109 H118 0.930 . S
C110 C106 1.391 . S
C110 C109 1.390 . S
C110 H119 0.930 . S
C111 Eu81 2.825 . S
C111 O96 1.238 . S
C111 O97 1.247 . S
C111 C105 1.507 . S
H112 C85 0.930 . S
H113 C86 0.931 . S
H114 C87 0.930 . S
H115 C88 0.930 . S
H116 C107 0.930 . S
H117 C108 0.931 . S
H118 C109 0.930 . S
H119 C110 0.930 . S
P120 O131 1.490 . S
P120 C134 1.812 . S
P120 C140 1.803 1_565 S
P120 C146 1.819 1_565 S
H121 C135 0.941 . S
H122 C136 0.939 . S
H123 C138 0.940 . S
H124 C139 0.940 . S
H125 C141 0.939 . S
H126 C142 0.942 . S
H127 C144 0.940 . S
H128 C145 0.939 . S
H129 C147 0.941 . S
H130 C151 0.939 . S
O131 P120 1.490 . S
H132 C148 0.939 . S
H133 C150 0.940 . S
C134 P120 1.812 . S
C134 C135 1.389 . S
C134 C139 1.391 . S
C135 H121 0.941 . S
C135 C134 1.389 . S
C135 C136 1.397 . S
C136 H122 0.939 . S
C136 C135 1.397 . S
C136 C137 1.378 . S
C137 C136 1.378 . S
C137 C138 1.378 . S
C138 H123 0.940 . S
C138 C137 1.378 . S
C138 C139 1.396 . S
C139 H124 0.940 . S
C139 C134 1.391 . S
C139 C138 1.396 . S
C140 P120 1.803 1_545 S
C140 C141 1.378 . S
C140 C145 1.400 . S
C141 H125 0.939 . S
C141 C140 1.378 . S
C141 C142 1.361 . S
C142 H126 0.942 . S
C142 C141 1.361 . S
C142 C143 1.369 . S
C143 C142 1.369 . S
C143 C144 1.404 . S
C144 H127 0.940 . S
C144 C143 1.404 . S
C144 C145 1.389 . S
C145 H128 0.939 . S
C145 C140 1.400 . S
C145 C144 1.389 . S
C146 P120 1.819 1_545 S
C146 C147 1.391 1_545 S
C146 C151 1.391 . S
C147 H129 0.941 . S
C147 C146 1.391 1_565 S
C147 C148 1.396 . S
C148 H132 0.939 . S
C148 C147 1.396 . S
C148 C149 1.397 1_565 S
C149 C148 1.397 1_545 S
C149 C150 1.385 . S
C150 H133 0.940 . S
C150 C149 1.385 . S
C150 C151 1.388 . S
C151 H130 0.939 . S
C151 C146 1.391 . S
C151 C150 1.388 . S
P152 O163 1.490 . S
P152 C166 1.812 . S
P152 C172 1.803 . S
P152 C178 1.819 . S
H153 C167 0.941 . S
H154 C168 0.939 . S
H155 C170 0.940 . S
H156 C171 0.940 . S
H157 C173 0.939 . S
H158 C174 0.942 . S
H159 C176 0.940 . S
H160 C177 0.939 . S
H161 C179 0.941 . S
H162 C183 0.939 . S
O163 P152 1.490 . S
H164 C180 0.939 . S
H165 C182 0.940 . S
C166 P152 1.812 . S
C166 C167 1.389 . S
C166 C171 1.391 . S
C167 H153 0.941 . S
C167 C166 1.389 . S
C167 C168 1.397 . S
C168 H154 0.939 . S
C168 C167 1.397 . S
C168 C169 1.378 . S
C169 C168 1.378 . S
C169 C170 1.378 . S
C170 H155 0.940 . S
C170 C169 1.378 . S
C170 C171 1.396 . S
C171 H156 0.940 . S
C171 C166 1.391 . S
C171 C170 1.396 . S
C172 P152 1.803 . S
C172 C173 1.378 . S
C172 C177 1.400 . S
C173 H157 0.939 . S
C173 C172 1.378 . S
C173 C174 1.361 . S
C174 H158 0.942 . S
C174 C173 1.361 . S
C174 C175 1.369 . S
C175 C174 1.369 . S
C175 C176 1.404 . S
C176 H159 0.940 . S
C176 C175 1.404 . S
C176 C177 1.389 . S
C177 H160 0.939 . S
C177 C172 1.400 . S
C177 C176 1.389 . S
C178 P152 1.819 . S
C178 C179 1.391 . S
C178 C183 1.391 . S
C179 H161 0.941 . S
C179 C178 1.391 . S
C179 C180 1.396 . S
C180 H164 0.939 . S
C180 C179 1.396 . S
C180 C181 1.397 . S
C181 C180 1.397 . S
C181 C182 1.385 . S
C182 H165 0.940 . S
C182 C181 1.385 . S
C182 C183 1.388 . S
C183 H162 0.939 . S
C183 C178 1.391 . S
C183 C182 1.388 . S
P184 O195 1.490 . S
P184 C198 1.812 . S
P184 C204 1.803 1_455 S
P184 C210 1.819 . S
H185 C199 0.941 . S
H186 C200 0.939 . S
H187 C202 0.940 . S
H188 C203 0.940 . S
H189 C205 0.939 . S
H190 C206 0.942 . S
H191 C208 0.940 . S
H192 C209 0.939 . S
H193 C211 0.941 . S
H194 C215 0.963 . S
O195 P184 1.490 . S
H196 C212 0.939 . S
H197 C214 0.940 . S
C198 P184 1.812 . S
C198 C199 1.389 . S
C198 C203 1.391 . S
C199 H185 0.941 . S
C199 C198 1.389 . S
C199 C200 1.397 . S
C200 H186 0.939 . S
C200 C199 1.397 . S
C200 C201 1.378 . S
C201 C200 1.378 . S
C201 C202 1.378 . S
C202 H187 0.940 . S
C202 C201 1.378 . S
C202 C203 1.396 . S
C203 H188 0.940 . S
C203 C198 1.391 . S
C203 C202 1.396 . S
C204 P184 1.803 1_655 S
C204 C205 1.378 . S
C204 C209 1.400 . S
C205 H189 0.939 . S
C205 C204 1.378 . S
C205 C206 1.361 . S
C206 H190 0.942 . S
C206 C205 1.361 . S
C206 C207 1.369 . S
C207 C206 1.369 . S
C207 C208 1.404 . S
C208 H191 0.940 . S
C208 C207 1.404 . S
C208 C209 1.389 . S
C209 H192 0.939 . S
C209 C204 1.400 . S
C209 C208 1.389 . S
C210 P184 1.819 . S
C210 C211 1.391 . S
C210 C215 1.370 1_455 S
C211 H193 0.941 . S
C211 C210 1.391 . S
C211 C212 1.396 . S
C212 H196 0.939 . S
C212 C211 1.396 . S
C212 C213 1.397 . S
C213 C212 1.397 . S
C213 C214 1.385 1_455 S
C214 H197 0.940 . S
C214 C213 1.385 1_655 S
C214 C215 1.387 . S
C215 H194 0.963 . S
C215 C210 1.370 1_655 S
C215 C214 1.387 . S
P216 O227 1.490 . S
P216 C230 1.812 . S
P216 C236 1.803 1_455 S
P216 C242 1.819 . S
H217 C231 0.941 . S
H218 C232 0.939 . S
H219 C234 0.940 . S
H220 C235 0.940 . S
H221 C237 0.939 . S
H222 C238 0.942 . S
H223 C240 0.940 . S
H224 C241 0.939 . S
H225 C243 0.941 . S
H226 C247 0.939 . S
O227 P216 1.490 . S
H228 C244 0.939 . S
H229 C246 0.940 . S
C230 P216 1.812 . S
C230 C231 1.389 . S
C230 C235 1.391 . S
C231 H217 0.941 . S
C231 C230 1.389 . S
C231 C232 1.397 . S
C232 H218 0.939 . S
C232 C231 1.397 . S
C232 C233 1.378 . S
C233 C232 1.378 . S
C233 C234 1.378 . S
C234 H219 0.940 . S
C234 C233 1.378 . S
C234 C235 1.396 . S
C235 H220 0.940 . S
C235 C230 1.391 . S
C235 C234 1.396 . S
C236 P216 1.803 1_655 S
C236 C237 1.378 . S
C236 C241 1.400 . S
C237 H221 0.939 . S
C237 C236 1.378 . S
C237 C238 1.361 . S
C238 H222 0.942 . S
C238 C237 1.361 . S
C238 C239 1.369 . S
C239 C238 1.369 . S
C239 C240 1.404 . S
C240 H223 0.940 . S
C240 C239 1.404 . S
C240 C241 1.389 . S
C241 H224 0.939 . S
C241 C236 1.400 . S
C241 C240 1.389 . S
C242 P216 1.819 . S
C242 C243 1.391 . S
C242 C247 1.391 1_455 S
C243 H225 0.941 . S
C243 C242 1.391 . S
C243 C244 1.396 . S
C244 H228 0.939 . S
C244 C243 1.396 . S
C244 C245 1.397 . S
C245 C244 1.397 . S
C245 C246 1.385 1_455 S
C246 H229 0.940 . S
C246 C245 1.385 1_655 S
C246 C247 1.388 . S
C247 H226 0.939 . S
C247 C242 1.391 1_655 S
C247 C246 1.388 . S
P248 O259 1.490 . S
P248 C262 1.812 . S
P248 C268 1.803 1_545 S
P248 C274 1.819 . S
H249 C263 0.941 . S
H250 C264 0.939 . S
H251 C266 0.940 . S
H252 C267 0.940 . S
H253 C269 0.939 . S
H254 C270 0.942 . S
H255 C272 0.940 . S
H256 C273 0.939 . S
H257 C275 0.941 . S
H258 C279 0.939 . S
O259 P248 1.490 . S
H260 C276 0.939 . S
H261 C278 0.940 . S
C262 P248 1.812 . S
C262 C263 1.389 . S
C262 C267 1.391 . S
C263 H249 0.941 . S
C263 C262 1.389 . S
C263 C264 1.397 . S
C264 H250 0.939 . S
C264 C263 1.397 . S
C264 C265 1.378 . S
C265 C264 1.378 . S
C265 C266 1.378 . S
C266 H251 0.940 . S
C266 C265 1.378 . S
C266 C267 1.396 . S
C267 H252 0.940 . S
C267 C262 1.391 . S
C267 C266 1.396 . S
C268 P248 1.803 1_565 S
C268 C269 1.378 . S
C268 C273 1.400 . S
C269 H253 0.939 . S
C269 C268 1.378 . S
C269 C270 1.361 . S
C270 H254 0.942 . S
C270 C269 1.361 . S
C270 C271 1.369 . S
C271 C270 1.369 . S
C271 C272 1.404 . S
C272 H255 0.940 . S
C272 C271 1.404 . S
C272 C273 1.389 . S
C273 H256 0.939 . S
C273 C268 1.400 . S
C273 C272 1.389 . S
C274 P248 1.819 . S
C274 C275 1.391 . S
C274 C279 1.391 1_545 S
C275 H257 0.941 . S
C275 C274 1.391 . S
C275 C276 1.396 . S
C276 H260 0.939 . S
C276 C275 1.396 . S
C276 C277 1.397 . S
C277 C276 1.397 . S
C277 C278 1.385 1_545 S
C278 H261 0.940 . S
C278 C277 1.385 1_565 S
C278 C279 1.388 . S
C279 H258 0.939 . S
C279 C274 1.391 1_565 S
C279 C278 1.388 . S
P280 O291 1.490 . S
P280 C294 1.812 . S
P280 C300 1.803 . S
P280 C306 1.819 . S
H281 C295 0.941 . S
H282 C296 0.939 . S
H283 C298 0.940 . S
H284 C299 0.940 . S
H285 C301 0.939 . S
H286 C302 0.942 . S
H287 C304 0.940 . S
H288 C305 0.939 . S
H289 C307 0.941 . S
H290 C311 0.939 . S
O291 P280 1.490 . S
H292 C308 0.939 . S
H293 C310 0.940 . S
C294 P280 1.812 . S
C294 C295 1.389 . S
C294 C299 1.391 . S
C295 H281 0.941 . S
C295 C294 1.389 . S
C295 C296 1.397 . S
C296 H282 0.939 . S
C296 C295 1.397 . S
C296 C297 1.378 . S
C297 C296 1.378 . S
C297 C298 1.378 . S
C298 H283 0.940 . S
C298 C297 1.378 . S
C298 C299 1.396 . S
C299 H284 0.940 . S
C299 C294 1.391 . S
C299 C298 1.396 . S
C300 P280 1.803 . S
C300 C301 1.378 . S
C300 C305 1.400 . S
C301 H285 0.939 . S
C301 C300 1.378 . S
C301 C302 1.361 . S
C302 H286 0.942 . S
C302 C301 1.361 . S
C302 C303 1.369 . S
C303 C302 1.369 . S
C303 C304 1.404 . S
C304 H287 0.940 . S
C304 C303 1.404 . S
C304 C305 1.389 . S
C305 H288 0.939 . S
C305 C300 1.400 . S
C305 C304 1.389 . S
C306 P280 1.819 . S
C306 C307 1.391 . S
C306 C311 1.391 . S
C307 H289 0.941 . S
C307 C306 1.391 . S
C307 C308 1.396 . S
C308 H292 0.939 . S
C308 C307 1.396 . S
C308 C309 1.397 . S
C309 C308 1.397 . S
C309 C310 1.385 . S
C310 H293 0.940 . S
C310 C309 1.385 . S
C310 C311 1.388 . S
C311 H290 0.939 . S
C311 C306 1.391 . S
C311 C310 1.388 . S
H312 C320 0.950 . S
H313 C325 0.950 . S
H314 C322 0.950 . S
H315 C324 0.950 . S
H316 C326 0.950 . S
H317 C328 0.950 . S
H318 C330 0.950 . S
H319 C331 0.950 . S
C320 H312 0.950 . S
C320 C321 1.386 . S
C320 C322 1.391 . S
C321 C320 1.386 . S
C321 C325 1.393 . S
C322 H314 0.950 . S
C322 C320 1.391 . S
C322 C323 1.400 . S
C323 C322 1.400 . S
C323 C324 1.398 . S
C323 C329 1.491 . S
C324 H315 0.950 . S
C324 C323 1.398 . S
C324 C325 1.391 . S
C325 H313 0.950 . S
C325 C321 1.393 . S
C325 C324 1.391 . S
C326 H316 0.950 . S
C326 C327 1.386 . S
C326 C328 1.391 . S
C327 C326 1.386 . S
C327 C331 1.393 . S
C328 H317 0.950 . S
C328 C326 1.391 . S
C328 C329 1.400 . S
C329 C323 1.491 . S
C329 C328 1.400 . S
C329 C330 1.398 . S
C330 H318 0.950 . S
C330 C329 1.398 . S
C330 C331 1.391 . S
C331 H319 0.950 . S
C331 C327 1.393 . S
C331 C330 1.391 . S
H332 C340 0.950 . S
H333 C345 0.950 . S
H334 C342 0.950 . S
H335 C344 0.950 . S
H336 C346 0.950 . S
H337 C348 0.950 . S
H338 C350 0.950 . S
H339 C351 0.950 . S
C340 H332 0.950 . S
C340 C341 1.386 . S
C340 C342 1.391 . S
C341 C340 1.386 . S
C341 C345 1.393 . S
C342 H334 0.950 . S
C342 C340 1.391 . S
C342 C343 1.400 . S
C343 C342 1.400 . S
C343 C344 1.398 . S
C343 C349 1.491 . S
C344 H335 0.950 . S
C344 C343 1.398 . S
C344 C345 1.391 . S
C345 H333 0.950 . S
C345 C341 1.393 . S
C345 C344 1.391 . S
C346 H336 0.950 . S
C346 C347 1.386 . S
C346 C348 1.391 . S
C347 C346 1.386 . S
C347 C351 1.393 . S
C348 H337 0.950 . S
C348 C346 1.391 . S
C348 C349 1.400 . S
C349 C343 1.491 . S
C349 C348 1.400 . S
C349 C350 1.398 . S
C350 H338 0.950 . S
C350 C349 1.398 . S
C350 C351 1.391 . S
C351 H339 0.950 . S
C351 C347 1.393 . S
C351 C350 1.391 . S
H352 C360 0.950 . S
H353 C365 0.950 . S
H354 C362 0.950 . S
H355 C364 0.950 . S
H356 C366 0.950 . S
H357 C368 0.950 . S
H358 C370 0.950 . S
H359 C371 0.950 . S
C360 H352 0.950 . S
C360 C361 1.386 . S
C360 C362 1.391 . S
C361 C360 1.386 . S
C361 C365 1.393 . S
C362 H354 0.950 . S
C362 C360 1.391 . S
C362 C363 1.400 . S
C363 C362 1.400 . S
C363 C364 1.398 . S
C363 C369 1.491 . S
C364 H355 0.950 . S
C364 C363 1.398 . S
C364 C365 1.391 . S
C365 H353 0.950 . S
C365 C361 1.393 . S
C365 C364 1.391 . S
C366 H356 0.950 . S
C366 C367 1.386 . S
C366 C368 1.391 . S
C367 C366 1.386 . S
C367 C371 1.393 . S
C368 H357 0.950 . S
C368 C366 1.391 . S
C368 C369 1.400 . S
C369 C363 1.491 . S
C369 C368 1.400 . S
C369 C370 1.398 . S
C370 H358 0.950 . S
C370 C369 1.398 . S
C370 C371 1.391 . S
C371 H359 0.950 . S
C371 C367 1.393 . S
C371 C370 1.391 . S
H372 C380 0.950 . S
H373 C385 0.950 . S
H374 C382 0.950 . S
H375 C384 0.950 . S
H376 C386 0.950 . S
H377 C388 0.950 . S
H378 C390 0.950 . S
H379 C391 0.950 . S
C380 H372 0.950 . S
C380 C381 1.386 . S
C380 C382 1.391 . S
C381 C380 1.386 . S
C381 C385 1.393 . S
C382 H374 0.950 . S
C382 C380 1.391 . S
C382 C383 1.400 . S
C383 C382 1.400 . S
C383 C384 1.398 . S
C383 C389 1.491 . S
C384 H375 0.950 . S
C384 C383 1.398 . S
C384 C385 1.391 . S
C385 H373 0.950 . S
C385 C381 1.393 . S
C385 C384 1.391 . S
C386 H376 0.950 . S
C386 C387 1.386 . S
C386 C388 1.391 . S
C387 C386 1.386 . S
C387 C391 1.393 . S
C388 H377 0.950 . S
C388 C386 1.391 . S
C388 C389 1.400 . S
C389 C383 1.491 . S
C389 C388 1.400 . S
C389 C390 1.398 . S
C390 H378 0.950 . S
C390 C389 1.398 . S
C390 C391 1.391 . S
C391 H379 0.950 . S
C391 C387 1.393 . S
C391 C390 1.391 . S
H392 C400 0.950 . S
H393 C405 0.950 . S
H394 C402 0.950 . S
H395 C404 0.950 . S
H396 C406 0.950 . S
H397 C408 0.950 . S
H398 C410 0.950 . S
H399 C411 0.950 . S
C400 H392 0.950 . S
C400 C401 1.386 . S
C400 C402 1.391 . S
C401 C400 1.386 . S
C401 C405 1.393 . S
C402 H394 0.950 . S
C402 C400 1.391 . S
C402 C403 1.400 . S
C403 C402 1.400 . S
C403 C404 1.398 . S
C403 C409 1.491 . S
C404 H395 0.950 . S
C404 C403 1.398 . S
C404 C405 1.391 . S
C405 H393 0.950 . S
C405 C401 1.393 . S
C405 C404 1.391 . S
C406 H396 0.950 . S
C406 C407 1.386 . S
C406 C408 1.391 . S
C407 C406 1.386 . S
C407 C411 1.393 . S
C408 H397 0.950 . S
C408 C406 1.391 . S
C408 C409 1.400 . S
C409 C403 1.491 . S
C409 C408 1.400 . S
C409 C410 1.398 . S
C410 H398 0.950 . S
C410 C409 1.398 . S
C410 C411 1.391 . S
C411 H399 0.950 . S
C411 C407 1.393 . S
C411 C410 1.391 . S
H412 C420 0.950 . S
H413 C425 0.950 . S
H414 C422 0.950 . S
H415 C424 0.950 . S
H416 C426 0.950 . S
H417 C428 0.950 . S
H418 C430 0.950 . S
H419 C431 0.950 . S
C420 H412 0.950 . S
C420 C421 1.386 . S
C420 C422 1.391 . S
C421 C420 1.386 . S
C421 C425 1.393 . S
C422 H414 0.950 . S
C422 C420 1.391 . S
C422 C423 1.400 . S
C423 C422 1.400 . S
C423 C424 1.398 . S
C423 C429 1.491 . S
C424 H415 0.950 . S
C424 C423 1.398 . S
C424 C425 1.391 . S
C425 H413 0.950 . S
C425 C421 1.393 . S
C425 C424 1.391 . S
C426 H416 0.950 . S
C426 C427 1.386 . S
C426 C428 1.391 . S
C427 C426 1.386 . S
C427 C431 1.393 . S
C428 H417 0.950 . S
C428 C426 1.391 . S
C428 C429 1.400 . S
C429 C423 1.491 . S
C429 C428 1.400 . S
C429 C430 1.398 . S
C430 H418 0.950 . S
C430 C429 1.398 . S
C430 C431 1.391 . S
C431 H419 0.950 . S
C431 C427 1.393 . S
C431 C430 1.391 . S
H432 C440 0.950 . S
H433 C445 0.950 . S
H434 C442 0.950 . S
H435 C444 0.950 . S
H436 C446 0.950 . S
H437 C448 0.950 . S
H438 C450 0.950 . S
H439 C451 0.950 . S
C440 H432 0.950 . S
C440 C441 1.386 . S
C440 C442 1.391 . S
C441 C440 1.386 . S
C441 C445 1.393 . S
C442 H434 0.950 . S
C442 C440 1.391 . S
C442 C443 1.400 . S
C443 C442 1.400 . S
C443 C444 1.398 . S
C443 C449 1.491 . S
C444 H435 0.950 . S
C444 C443 1.398 . S
C444 C445 1.391 . S
C445 H433 0.950 . S
C445 C441 1.393 . S
C445 C444 1.391 . S
C446 H436 0.950 . S
C446 C447 1.386 . S
C446 C448 1.391 . S
C447 C446 1.386 . S
C447 C451 1.393 . S
C448 H437 0.950 . S
C448 C446 1.391 . S
C448 C449 1.400 . S
C449 C443 1.491 . S
C449 C448 1.400 . S
C449 C450 1.398 . S
C450 H438 0.950 . S
C450 C449 1.398 . S
C450 C451 1.391 . S
C451 H439 0.950 . S
C451 C447 1.393 . S
C451 C450 1.391 . S
H452 C460 0.950 . S
H453 C465 0.950 . S
H454 C462 0.950 . S
H455 C464 0.950 . S
H456 C466 0.950 . S
H457 C468 0.950 . S
H458 C470 0.950 . S
H459 C471 0.950 . S
C460 H452 0.950 . S
C460 C461 1.386 . S
C460 C462 1.391 . S
C461 C460 1.386 . S
C461 C465 1.393 . S
C462 H454 0.950 . S
C462 C460 1.391 . S
C462 C463 1.400 . S
C463 C462 1.400 . S
C463 C464 1.398 . S
C463 C469 1.491 . S
C464 H455 0.950 . S
C464 C463 1.398 . S
C464 C465 1.391 . S
C465 H453 0.950 . S
C465 C461 1.393 . S
C465 C464 1.391 . S
C466 H456 0.950 . S
C466 C467 1.386 . S
C466 C468 1.391 . S
C467 C466 1.386 . S
C467 C471 1.393 . S
C468 H457 0.950 . S
C468 C466 1.391 . S
C468 C469 1.400 . S
C469 C463 1.491 . S
C469 C468 1.400 . S
C469 C470 1.398 . S
C470 H458 0.950 . S
C470 C469 1.398 . S
C470 C471 1.391 . S
C471 H459 0.950 . S
C471 C467 1.393 . S
C471 C470 1.391 . S
H472 C480 0.950 . S
H473 C485 0.950 . S
H474 C482 0.950 . S
H475 C484 0.950 . S
H476 C486 0.950 . S
H477 C488 0.950 . S
H478 C490 0.950 . S
H479 C491 0.950 . S
C480 H472 0.950 . S
C480 C481 1.386 . S
C480 C482 1.391 . S
C481 C480 1.386 . S
C481 C485 1.393 . S
C482 H474 0.950 . S
C482 C480 1.391 . S
C482 C483 1.400 . S
C483 C482 1.400 . S
C483 C484 1.398 . S
C483 C489 1.491 . S
C484 H475 0.950 . S
C484 C483 1.398 . S
C484 C485 1.391 . S
C485 H473 0.950 . S
C485 C481 1.393 . S
C485 C484 1.391 . S
C486 H476 0.950 . S
C486 C487 1.386 . S
C486 C488 1.391 . S
C487 C486 1.386 . S
C487 C491 1.393 . S
C488 H477 0.950 . S
C488 C486 1.391 . S
C488 C489 1.400 . S
C489 C483 1.491 . S
C489 C488 1.400 . S
C489 C490 1.398 . S
C490 H478 0.950 . S
C490 C489 1.398 . S
C490 C491 1.391 . S
C491 H479 0.950 . S
C491 C487 1.393 . S
C491 C490 1.391 . S
H492 C500 0.950 . S
H493 C505 0.950 . S
H494 C502 0.950 . S
H495 C504 0.950 . S
H496 C506 0.950 . S
H497 C508 0.950 . S
H498 C510 0.950 . S
H499 C511 0.950 . S
C500 H492 0.950 . S
C500 C501 1.386 . S
C500 C502 1.391 . S
C501 C500 1.386 . S
C501 C505 1.393 . S
C502 H494 0.950 . S
C502 C500 1.391 . S
C502 C503 1.400 . S
C503 C502 1.400 . S
C503 C504 1.398 . S
C503 C509 1.491 . S
C504 H495 0.950 . S
C504 C503 1.398 . S
C504 C505 1.391 . S
C505 H493 0.950 . S
C505 C501 1.393 . S
C505 C504 1.391 . S
C506 H496 0.950 . S
C506 C507 1.386 . S
C506 C508 1.391 . S
C507 C506 1.386 . S
C507 C511 1.393 . S
C508 H497 0.950 . S
C508 C506 1.391 . S
C508 C509 1.400 . S
C509 C503 1.491 . S
C509 C508 1.400 . S
C509 C510 1.398 . S
C510 H498 0.950 . S
C510 C509 1.398 . S
C510 C511 1.391 . S
C511 H499 0.950 . S
C511 C507 1.393 . S
C511 C510 1.391 . S
H512 C520 0.950 . S
H513 C525 0.950 . S
H514 C522 0.950 . S
H515 C524 0.950 . S
H516 C526 0.950 . S
H517 C528 0.950 . S
H518 C530 0.950 . S
H519 C531 0.950 . S
C520 H512 0.950 . S
C520 C521 1.386 . S
C520 C522 1.391 . S
C521 C520 1.386 . S
C521 C525 1.393 . S
C522 H514 0.950 . S
C522 C520 1.391 . S
C522 C523 1.400 . S
C523 C522 1.400 . S
C523 C524 1.398 . S
C523 C529 1.491 . S
C524 H515 0.950 . S
C524 C523 1.398 . S
C524 C525 1.391 . S
C525 H513 0.950 . S
C525 C521 1.393 . S
C525 C524 1.391 . S
C526 H516 0.950 . S
C526 C527 1.386 . S
C526 C528 1.391 . S
C527 C526 1.386 . S
C527 C531 1.393 . S
C528 H517 0.950 . S
C528 C526 1.391 . S
C528 C529 1.400 . S
C529 C523 1.491 . S
C529 C528 1.400 . S
C529 C530 1.398 . S
C530 H518 0.950 . S
C530 C529 1.398 . S
C530 C531 1.391 . S
C531 H519 0.950 . S
C531 C527 1.393 . S
C531 C530 1.391 . S
H532 C540 0.950 . S
H533 C545 0.950 . S
H534 C542 0.950 . S
H535 C544 0.950 . S
H536 C546 0.950 . S
H537 C548 0.950 . S
H538 C550 0.950 . S
H539 C551 0.950 . S
C540 H532 0.950 . S
C540 C541 1.386 . S
C540 C542 1.391 . S
C541 C540 1.386 . S
C541 C545 1.393 . S
C542 H534 0.950 . S
C542 C540 1.391 . S
C542 C543 1.400 . S
C543 C542 1.400 . S
C543 C544 1.398 . S
C543 C549 1.491 . S
C544 H535 0.950 . S
C544 C543 1.398 . S
C544 C545 1.391 . S
C545 H533 0.950 . S
C545 C541 1.393 . S
C545 C544 1.391 . S
C546 H536 0.950 . S
C546 C547 1.386 . S
C546 C548 1.391 . S
C547 C546 1.386 . S
C547 C551 1.393 . S
C548 H537 0.950 . S
C548 C546 1.391 . S
C548 C549 1.400 . S
C549 C543 1.491 . S
C549 C548 1.400 . S
C549 C550 1.398 . S
C550 H538 0.950 . S
C550 C549 1.398 . S
C550 C551 1.391 . S
C551 H539 0.950 . S
C551 C547 1.393 . S
C551 C550 1.391 . S
H552 C560 0.950 . S
H553 C565 0.950 . S
H554 C562 0.950 . S
H555 C564 0.950 . S
H556 C566 0.950 . S
H557 C568 0.950 . S
H558 C570 0.950 . S
H559 C571 0.950 . S
C560 H552 0.950 . S
C560 C561 1.386 . S
C560 C562 1.391 . S
C561 C560 1.386 . S
C561 C565 1.393 . S
C562 H554 0.950 . S
C562 C560 1.391 . S
C562 C563 1.400 . S
C563 C562 1.400 . S
C563 C564 1.398 . S
C563 C569 1.491 . S
C564 H555 0.950 . S
C564 C563 1.398 . S
C564 C565 1.391 . S
C565 H553 0.950 . S
C565 C561 1.393 . S
C565 C564 1.391 . S
C566 H556 0.950 . S
C566 C567 1.386 . S
C566 C568 1.391 1_556 S
C567 C566 1.386 . S
C567 C571 1.393 . S
C568 H557 0.950 . S
C568 C566 1.391 1_554 S
C568 C569 1.400 . S
C569 C563 1.491 . S
C569 C568 1.400 . S
C569 C570 1.398 . S
C570 H558 0.950 . S
C570 C569 1.398 . S
C570 C571 1.391 1_554 S
C571 H559 0.950 . S
C571 C567 1.393 . S
C571 C570 1.391 1_556 S
H572 C580 0.950 . S
H573 C585 0.950 . S
H574 C582 0.950 . S
H575 C584 0.950 . S
H576 C586 0.950 . S
H577 C588 0.950 . S
H578 C590 0.950 . S
H579 C591 0.950 . S
C580 H572 0.950 . S
C580 C581 1.386 . S
C580 C582 1.391 . S
C581 C580 1.386 . S
C581 C585 1.393 . S
C582 H574 0.950 . S
C582 C580 1.391 . S
C582 C583 1.400 . S
C583 C582 1.400 . S
C583 C584 1.398 . S
C583 C589 1.491 . S
C584 H575 0.950 . S
C584 C583 1.398 . S
C584 C585 1.391 . S
C585 H573 0.950 . S
C585 C581 1.393 . S
C585 C584 1.391 . S
C586 H576 0.950 . S
C586 C587 1.386 . S
C586 C588 1.391 . S
C587 C586 1.386 . S
C587 C591 1.393 . S
C588 H577 0.950 . S
C588 C586 1.391 . S
C588 C589 1.400 . S
C589 C583 1.491 . S
C589 C588 1.400 . S
C589 C590 1.398 . S
C590 H578 0.950 . S
C590 C589 1.398 . S
C590 C591 1.391 . S
C591 H579 0.950 . S
C591 C587 1.393 . S
C591 C590 1.391 . S
H592 C600 0.950 . S
H593 C605 0.950 . S
H594 C602 0.950 . S
H595 C604 0.950 . S
H596 C606 0.950 . S
H597 C608 0.950 . S
H598 C610 0.950 . S
H599 C611 0.950 . S
C600 H592 0.950 . S
C600 C601 1.386 . S
C600 C602 1.391 . S
C601 C600 1.386 . S
C601 C605 1.393 . S
C602 H594 0.950 . S
C602 C600 1.391 . S
C602 C603 1.400 . S
C603 C602 1.400 . S
C603 C604 1.398 . S
C603 C609 1.491 . S
C604 H595 0.950 . S
C604 C603 1.398 . S
C604 C605 1.391 . S
C605 H593 0.950 . S
C605 C601 1.393 . S
C605 C604 1.391 . S
C606 H596 0.950 . S
C606 C607 1.386 . S
C606 C608 1.391 . S
C607 C606 1.386 . S
C607 C611 1.393 . S
C608 H597 0.950 . S
C608 C606 1.391 . S
C608 C609 1.400 . S
C609 C603 1.491 . S
C609 C608 1.400 . S
C609 C610 1.398 . S
C610 H598 0.950 . S
C610 C609 1.398 . S
C610 C611 1.391 . S
C611 H599 0.950 . S
C611 C607 1.393 . S
C611 C610 1.391 . S
H612 C620 0.950 . S
H613 C625 0.950 . S
H614 C622 0.950 . S
H615 C624 0.950 . S
H616 C626 0.950 . S
H617 C628 0.950 1_565 S
H618 C630 0.950 . S
H619 C631 0.950 . S
C620 H612 0.950 . S
C620 C621 1.386 . S
C620 C622 1.391 . S
C621 C620 1.386 . S
C621 C625 1.393 . S
C622 H614 0.950 . S
C622 C620 1.391 . S
C622 C623 1.400 . S
C623 C622 1.400 . S
C623 C624 1.398 . S
C623 C629 1.491 . S
C624 H615 0.950 . S
C624 C623 1.398 . S
C624 C625 1.391 . S
C625 H613 0.950 . S
C625 C621 1.393 . S
C625 C624 1.391 . S
C626 H616 0.950 . S
C626 C627 1.386 1_565 S
C626 C628 1.391 1_565 S
C627 C626 1.386 1_545 S
C627 C631 1.393 . S
C628 H617 0.950 1_545 S
C628 C626 1.391 1_545 S
C628 C629 1.400 . S
C629 C623 1.491 . S
C629 C628 1.400 . S
C629 C630 1.398 . S
C630 H618 0.950 . S
C630 C629 1.398 . S
C630 C631 1.391 . S
C631 H619 0.950 . S
C631 C627 1.393 . S
C631 C630 1.391 . S
H632 C640 0.950 . S
H633 C645 0.950 . S
H634 C642 0.950 . S
H635 C644 0.950 . S
H636 C646 0.930 1_554 S
H637 C648 0.950 . S
H638 C650 0.950 . S
H639 C651 0.950 . S
C640 H632 0.950 . S
C640 C641 1.386 . S
C640 C642 1.391 . S
C641 C640 1.386 . S
C641 C645 1.393 . S
C642 H634 0.950 . S
C642 C640 1.391 . S
C642 C643 1.400 . S
C643 C642 1.400 . S
C643 C644 1.398 . S
C643 C649 1.491 . S
C644 H635 0.950 . S
C644 C643 1.398 . S
C644 C645 1.391 . S
C645 H633 0.950 . S
C645 C641 1.393 . S
C645 C644 1.391 . S
C646 H636 0.930 1_556 S
C646 C647 1.374 1_556 S
C646 C648 1.422 . S
C647 C646 1.374 1_554 S
C647 C651 1.393 1_554 S
C648 H637 0.950 . S
C648 C646 1.422 . S
C648 C649 1.400 . S
C649 C643 1.491 . S
C649 C648 1.400 . S
C649 C650 1.398 . S
C650 H638 0.950 . S
C650 C649 1.398 . S
C650 C651 1.391 . S
C651 H639 0.950 . S
C651 C647 1.393 1_556 S
C651 C650 1.391 . S
H652 C660 0.950 1_655 S
H653 C665 0.950 . S
H654 C662 0.934 1_655 S
H655 C664 0.950 . S
H656 C666 0.950 . S
H657 C668 0.950 . S
H658 C670 0.950 . S
H659 C671 0.950 . S
C660 H652 0.950 1_455 S
C660 C661 1.386 . S
C660 C662 1.395 . S
C661 C660 1.386 . S
C661 C665 1.393 . S
C662 H654 0.934 1_455 S
C662 C660 1.395 . S
C662 C663 1.412 . S
C663 C662 1.412 . S
C663 C664 1.398 . S
C663 C669 1.491 . S
C664 H655 0.950 . S
C664 C663 1.398 . S
C664 C665 1.391 . S
C665 H653 0.950 . S
C665 C661 1.393 . S
C665 C664 1.391 . S
C666 H656 0.950 . S
C666 C667 1.386 . S
C666 C668 1.391 . S
C667 C666 1.386 . S
C667 C671 1.393 1_455 S
C668 H657 0.950 . S
C668 C666 1.391 . S
C668 C669 1.400 . S
C669 C663 1.491 . S
C669 C668 1.400 . S
C669 C670 1.398 1_455 S
C670 H658 0.950 . S
C670 C669 1.398 1_655 S
C670 C671 1.391 . S
C671 H659 0.950 . S
C671 C667 1.393 1_655 S
C671 C670 1.391 . S
C321 C9 0.449 . S
C327 C303 0.424 . S
C341 C49 0.338 . S
C347 C239 0.355 . S
C361 C89 0.350 . S
C367 C271 0.359 . S
C381 C26 0.503 . S
C387 C297 0.381 . S
C407 C233 0.472 . S
C401 C66 0.469 . S
C427 C265 0.468 . S
C421 C106 0.511 . S
C441 C43 2.935 . S
C447 C175 2.884 . S
C461 C83 3.035 . S
C467 C207 2.952 . S
C481 C22 3.094 . S
C487 C137 3.022 . S
C507 C169 3.030 . S
C501 C62 3.090 . S
C527 C201 2.931 . S
C521 C102 2.993 . S
C541 C3 2.932 . S
C547 C143 2.881 . S
C567 C213 1.759 . S
C561 C15 1.737 . S
C581 C55 1.737 . S
C587 C149 1.755 . S
C601 C95 1.731 . S
C607 C181 1.749 . S
C627 C277 1.049 . S
C621 C42 1.067 . S
C647 C309 1.070 . S
C641 C82 1.067 . S
C661 C2 1.061 . S
C667 C245 1.050 . S
