# Generated by pormake.
# Topology rtl, (3,6)-cn, num edge types: 1
# Building blocks:
#     Node 0, Type 0, BuildingBlock: ESEHIV_clean_linker_0, # of connection points: 3
#     Node 1, Type 0, BuildingBlock: ESEHIV_clean_linker_0, # of connection points: 3
#     Node 2, Type 0, BuildingBlock: ESEHIV_clean_linker_0, # of connection points: 3
#     Node 3, Type 0, BuildingBlock: ESEHIV_clean_linker_0, # of connection points: 3
#     Node 4, Type 1, BuildingBlock: LEVNOQ01_clean_sbu_1, # of connection points: 6
#     Node 5, Type 1, BuildingBlock: LEVNOQ01_clean_sbu_1, # of connection points: 6
#     Edge 6, Type (0, 1), BuildingBlock: FUNLAD_clean_linker_0, # of connection points: 2
#     Edge 7, Type (0, 1), BuildingBlock: FUNLAD_clean_linker_0, # of connection points: 2
#     Edge 8, Type (0, 1), BuildingBlock: FUNLAD_clean_linker_0, # of connection points: 2
#     Edge 9, Type (0, 1), BuildingBlock: FUNLAD_clean_linker_0, # of connection points: 2
#     Edge 10, Type (0, 1), BuildingBlock: FUNLAD_clean_linker_0, # of connection points: 2
#     Edge 11, Type (0, 1), BuildingBlock: FUNLAD_clean_linker_0, # of connection points: 2
#     Edge 12, Type (0, 1), BuildingBlock: FUNLAD_clean_linker_0, # of connection points: 2
#     Edge 13, Type (0, 1), BuildingBlock: FUNLAD_clean_linker_0, # of connection points: 2
#     Edge 14, Type (0, 1), BuildingBlock: FUNLAD_clean_linker_0, # of connection points: 2
#     Edge 15, Type (0, 1), BuildingBlock: FUNLAD_clean_linker_0, # of connection points: 2
#     Edge 16, Type (0, 1), BuildingBlock: FUNLAD_clean_linker_0, # of connection points: 2
#     Edge 17, Type (0, 1), BuildingBlock: FUNLAD_clean_linker_0, # of connection points: 2
# Relax obj value: 0.026
# Max RMSD: 0.060
# Mean RMSD: 0.045
data_MOF--net-rtl--node1-LEVNOQ01_clean_sbu_1--node2-ESEHIV_clean_linker_0--edge1-FUNLAD_clean_linker_0
_symmetry_space_group_name_H-M    P1
_symmetry_Int_Tables_number       1
_symmetry_cell_setting            triclinic
loop_
_symmetry_equiv_pos_as_xyz
'x, y, z'
_cell_length_a     33.72262
_cell_length_b     38.255766
_cell_length_c     26.823809
_cell_angle_alpha  89.888827
_cell_angle_beta   98.203519
_cell_angle_gamma 90.011492
loop_
_atom_site_label
_atom_site_type_symbol
_atom_site_fract_x
_atom_site_fract_y
_atom_site_fract_z
_atom_type_partial_charge
H0 H 0.20109 0.90239 0.05707 0.0
H1 H 0.26871 0.84472 0.17853 0.0
H2 H 0.27939 0.81927 0.02499 0.0
C3 C 0.22207 0.88173 0.07004 0.0
C4 C 0.23883 0.86154 0.03465 0.0
C5 C 0.23252 0.87591 0.12205 0.0
C6 C 0.26093 0.84999 0.13861 0.0
C7 C 0.27771 0.82941 0.10375 0.0
C8 C 0.26658 0.83532 0.05191 0.0
H9 H 0.70386 0.606 0.56195 0.0
H10 H 0.76015 0.69388 0.5015 0.0
H11 H 0.78058 0.67427 0.66084 0.0
C12 C 0.72373 0.62833 0.56766 0.0
C13 C 0.74159 0.63727 0.61673 0.0
C14 C 0.73057 0.64838 0.5258 0.0
C15 C 0.75527 0.67789 0.53348 0.0
C16 C 0.77306 0.68756 0.58203 0.0
C17 C 0.76673 0.66683 0.62342 0.0
H18 H 0.82439 0.12472 0.03979 0.0
H19 H 0.72398 0.18463 0.07518 0.0
H20 H 0.73891 0.1662 0.92085 0.0
C21 C 0.79687 0.13894 0.02808 0.0
C22 C 0.78366 0.14316 0.97636 0.0
C23 C 0.77546 0.15338 0.06448 0.0
C24 C 0.74059 0.17288 0.04787 0.0
C25 C 0.72747 0.17812 0.9961 0.0
C26 C 0.74879 0.16248 0.96075 0.0
H27 H 0.28569 0.44553 0.50496 0.0
H28 H 0.2196 0.3587 0.55337 0.0
H29 H 0.21749 0.37868 0.39546 0.0
C30 C 0.26562 0.42359 0.49606 0.0
C31 C 0.25286 0.41488 0.44535 0.0
C32 C 0.25397 0.40343 0.53539 0.0
C33 C 0.22888 0.37446 0.52345 0.0
C34 C 0.21515 0.36589 0.47308 0.0
C35 C 0.22684 0.38633 0.43425 0.0
O36 O 0.02033 0.06449 0.67151 0.0
Mg37 Mg 0.07158 0.06631 0.63461 0.0
O38 O 0.98046 0.03681 0.61107 0.0
Mg39 Mg 0.0217 0.02181 0.55128 0.0
O40 O 0.05531 0.07429 0.55949 0.0
O41 O 0.091 0.11299 0.60945 0.0
O42 O 0.06375 0.00694 0.49318 0.0
O43 O 0.97977 0.05678 0.49037 0.0
Mg44 Mg 0.97446 0.99288 0.48043 0.0
O45 O 0.98856 0.96627 0.54695 0.0
O46 O 0.01655 -0.00102 0.42912 0.0
O47 O 0.92488 0.02642 0.4741 0.0
O48 O 0.9559 0.94312 0.47567 0.0
C49 C 0.09837 0.9946 0.64122 0.0
C50 C 0.98647 0.05162 0.65416 0.0
C51 C 0.07444 0.10374 0.56509 0.0
C52 C 0.05332 0.00184 0.44631 0.0
C53 C 0.94296 0.05493 0.47098 0.0
C54 C 0.96974 0.94022 0.52281 0.0
O55 O 0.11233 0.02505 0.64967 0.0
O56 O 0.06542 0.99005 0.61183 0.0
O57 O 0.59617 0.48725 0.13287 0.0
Mg58 Mg 0.55219 0.4512 0.1039 0.0
O59 O 0.55717 0.5294 0.09742 0.0
Mg60 Mg 0.50885 0.5065 0.03354 0.0
O61 O 0.53835 0.45198 0.0275 0.0
O62 O 0.5705 0.4077 0.0709 0.0
O63 O 0.45998 0.48331 0.96951 0.0
O64 O 0.55163 0.524 0.9763 0.0
Mg65 Mg 0.46844 0.55969 0.96241 0.0
O66 O 0.48013 0.5617 0.0395 0.0
O67 O 0.42146 0.52625 0.93576 0.0
O68 O 0.5179 0.56105 0.92295 0.0
O69 O 0.45264 0.60567 0.99062 0.0
C70 C 0.46935 0.46548 0.12734 0.0
C71 C 0.58784 0.51937 0.12761 0.0
C72 C 0.55555 0.42153 0.02846 0.0
C73 C 0.42891 0.49397 0.94047 0.0
C74 C 0.54933 0.54368 0.93753 0.0
C75 C 0.46382 0.5926 0.03478 0.0
O76 O 0.50049 0.44692 0.1384 0.0
O77 O 0.4671 0.48833 0.09217 0.0
C78 C 0.20391 0.30186 0.48085 0.0
C79 C 0.19023 0.33439 0.46127 0.0
C80 C 0.17968 0.27228 0.47262 0.0
C81 C 0.141 0.27473 0.445 0.0
C82 C 0.12761 0.30723 0.42472 0.0
C83 C 0.15227 0.33676 0.43216 0.0
C84 C 0.11256 0.24502 0.44361 0.0
C85 C 0.12481 0.21147 0.44565 0.0
C86 C 0.10156 0.18252 0.46459 0.0
C87 C 0.11305 0.14777 0.4572 0.0
C88 C 0.10016 0.12062 0.48613 0.0
C89 C 0.07611 0.1281 0.52324 0.0
H90 H 0.06491 0.21543 0.50602 0.0
C91 C 0.06175 0.16214 0.52759 0.0
C92 C 0.07404 0.18912 0.49831 0.0
H93 H 0.04353 0.16841 0.55654 0.0
H94 H 0.23315 0.29947 0.50334 0.0
H95 H 0.19059 0.24796 0.49016 0.0
H96 H 0.09773 0.3099 0.40406 0.0
H97 H 0.14113 0.3617 0.41688 0.0
H98 H 0.08138 0.25123 0.44539 0.0
H99 H 0.1551 0.20546 0.43889 0.0
H100 H 0.13439 0.14198 0.43174 0.0
H101 H 0.112 0.09453 0.4828 0.0
C102 C 0.29901 0.76703 0.10191 0.0
C103 C 0.30598 0.80088 0.12116 0.0
C104 C 0.32689 0.74048 0.11522 0.0
C105 C 0.3626 0.74731 0.14784 0.0
C106 C 0.36912 0.78104 0.16793 0.0
C107 C 0.34079 0.80752 0.15524 0.0
C108 C 0.39562 0.72128 0.15473 0.0
C109 C 0.38896 0.68659 0.1509 0.0
C110 C 0.41846 0.66131 0.1355 0.0
C111 C 0.41031 0.6253 0.13783 0.0
C112 C 0.42943 0.6014 0.10969 0.0
C113 C 0.45649 0.61339 0.07843 0.0
H114 H 0.45636 0.69979 0.10521 0.0
C115 C 0.4678 0.64866 0.08023 0.0
C116 C 0.44924 0.67242 0.10875 0.0
H117 H 0.48844 0.65841 0.05597 0.0
H118 H 0.2723 0.76129 0.0757 0.0
H119 H 0.3213 0.71516 0.09766 0.0
H120 H 0.39664 0.78713 0.19243 0.0
H121 H 0.34684 0.83353 0.17037 0.0
H122 H 0.42598 0.73135 0.15821 0.0
H123 H 0.35892 0.67678 0.15255 0.0
H124 H 0.38671 0.61599 0.15797 0.0
H125 H 0.41989 0.57433 0.10823 0.0
C126 C 0.83543 0.7208 0.61675 0.0
C127 C 0.79688 0.72022 0.58868 0.0
C128 C 0.85953 0.75071 0.61674 0.0
C129 C 0.84515 0.78043 0.58882 0.0
C130 C 0.80582 0.78031 0.56338 0.0
C131 C 0.78192 0.75067 0.56346 0.0
C132 C 0.87116 0.81022 0.57934 0.0
C133 C 0.9056 0.81943 0.60811 0.0
C134 C 0.93004 0.84785 0.5904 0.0
C135 C 0.94199 0.87682 0.62099 0.0
C136 C 0.9578 0.90659 0.60018 0.0
C137 C 0.96177 0.9074 0.54868 0.0
H138 H 0.92977 0.82519 0.51639 0.0
C139 C 0.95331 0.87707 0.51972 0.0
C140 C 0.93775 0.84762 0.54037 0.0
H141 H 0.95693 0.87661 0.48023 0.0
H142 H 0.84766 0.69759 0.63644 0.0
H143 H 0.88992 0.74974 0.63619 0.0
H144 H 0.79395 0.80287 0.54171 0.0
H145 H 0.75203 0.7512 0.54235 0.0
H146 H 0.86136 0.82552 0.54555 0.0
H147 H 0.915 0.80728 0.64447 0.0
H148 H 0.93663 0.87733 0.65985 0.0
H149 H 0.96438 0.92958 0.6234 0.0
C150 C 0.69537 0.22563 0.93927 0.0
C151 C 0.69327 0.20192 0.979 0.0
C152 C 0.66514 0.25033 0.92609 0.0
C153 C 0.63222 0.25225 0.95289 0.0
C154 C 0.62913 0.22729 0.99072 0.0
C155 C 0.65925 0.20247 0.00368 0.0
C156 C 0.60246 0.28134 0.94643 0.0
C157 C 0.60733 0.31152 0.92172 0.0
C158 C 0.58585 0.34399 0.93242 0.0
C159 C 0.6071 0.3757 0.93538 0.0
C160 C 0.59364 0.40422 0.96085 0.0
C161 C 0.55851 0.40143 0.98283 0.0
H162 H 0.52973 0.31963 0.94432 0.0
C163 C 0.53435 0.37167 0.97349 0.0
C164 C 0.54772 0.34317 0.94797 0.0
H165 H 0.50723 0.36899 0.99052 0.0
H166 H 0.72119 0.22609 0.91948 0.0
H167 H 0.66854 0.26823 0.89581 0.0
H168 H 0.604 0.22777 0.01178 0.0
H169 H 0.65621 0.18412 0.0337 0.0
H170 H 0.57846 0.27965 0.96935 0.0
H171 H 0.63243 0.31463 0.90099 0.0
H172 H 0.63627 0.37723 0.92302 0.0
H173 H 0.61297 0.42681 0.9683 0.0
C174 C 0.23318 0.90799 0.20421 0.0
C175 C 0.21201 0.89561 0.15869 0.0
C176 C 0.21318 0.92556 0.23907 0.0
C177 C 0.17145 0.93101 0.22904 0.0
C178 C 0.1506 0.9188 0.18331 0.0
C179 C 0.17052 0.90137 0.14864 0.0
C180 C 0.14768 0.94802 0.265 0.0
C181 C 0.16276 0.96292 0.30925 0.0
C182 C 0.13627 0.97729 0.34414 0.0
C183 C 0.14885 0.97629 0.39638 0.0
C184 C 0.12263 0.98593 0.43007 0.0
C185 C 0.08338 0.99672 0.41192 0.0
H186 H 0.08793 0.99373 0.28631 0.0
C187 C 0.07183 2e-05 0.35972 0.0
C188 C 0.09805 0.99078 0.32623 0.0
H189 H 0.04208 0.00909 0.34461 0.0
H190 H 0.26525 0.90416 0.21284 0.0
H191 H 0.23063 0.93427 0.27372 0.0
H192 H 0.11849 0.92241 0.17445 0.0
H193 H 0.15315 0.89169 0.11436 0.0
H194 H 0.11538 0.9471 0.25464 0.0
H195 H 0.19472 0.96283 0.32204 0.0
H196 H 0.17838 0.9666 0.41119 0.0
H197 H 0.13245 0.98338 0.47016 0.0
C198 C 0.72454 0.63444 0.70502 0.0
C199 C 0.73142 0.6171 0.66082 0.0
C200 C 0.70947 0.61629 0.74356 0.0
C201 C 0.70069 0.58041 0.73859 0.0
C202 C 0.70934 0.56277 0.69565 0.0
C203 C 0.72497 0.58077 0.65747 0.0
C204 C 0.67696 0.56225 0.77331 0.0
C205 C 0.67708 0.57147 0.82173 0.0
C206 C 0.64529 0.55969 0.85088 0.0
C207 C 0.65382 0.55472 0.90325 0.0
C208 C 0.6229 0.54751 0.93163 0.0
C209 C 0.58294 0.54642 0.90811 0.0
H210 H 0.5976 0.56164 0.78729 0.0
C211 C 0.57461 0.55077 0.85571 0.0
C212 C 0.60541 0.55707 0.82735 0.0
H213 H 0.54404 0.55004 0.83667 0.0
H214 H 0.72854 0.66244 0.70875 0.0
H215 H 0.70225 0.63096 0.77554 0.0
H216 H 0.70272 0.53516 0.69084 0.0
H217 H 0.73075 0.56637 0.62454 0.0
H218 H 0.65672 0.54174 0.75732 0.0
H219 H 0.69957 0.58951 0.8397 0.0
H220 H 0.68428 0.55703 0.92225 0.0
H221 H 0.62997 0.54449 0.97209 0.0
C222 C 0.81124 0.1183 0.13717 0.0
C223 C 0.79045 0.14886 0.11946 0.0
C224 C 0.82724 0.11468 0.18788 0.0
C225 C 0.82202 0.1411 0.22259 0.0
C226 C 0.80009 0.17102 0.2058 0.0
C227 C 0.78504 0.17517 0.15467 0.0
C228 C 0.83805 0.13673 0.27664 0.0
C229 C 0.87573 0.12546 0.29133 0.0
C230 C 0.89141 0.1149 0.34377 0.0
C231 C 0.93291 0.11597 0.35977 0.0
C232 C 0.94958 0.09955 0.40457 0.0
C233 C 0.92505 0.08092 0.43346 0.0
H234 H 0.83452 0.09715 0.3636 0.0
C235 C 0.88327 0.08196 0.41933 0.0
C236 C 0.86655 0.09896 0.37507 0.0
H237 H 0.86367 0.06769 0.44081 0.0
H238 H 0.81502 0.09686 0.11201 0.0
H239 H 0.84307 0.09085 0.20018 0.0
H240 H 0.79544 0.19159 0.23207 0.0
H241 H 0.76985 0.19934 0.14285 0.0
H242 H 0.8186 0.14283 0.30442 0.0
H243 H 0.89575 0.12265 0.26318 0.0
H244 H 0.95271 0.12799 0.33625 0.0
H245 H 0.98189 0.09899 0.4142 0.0
C246 C 0.28276 0.38577 0.62367 0.0
C247 C 0.26904 0.41213 0.58876 0.0
C248 C 0.29809 0.39422 0.6735 0.0
C249 C 0.30005 0.42931 0.68939 0.0
C250 C 0.28552 0.45545 0.65465 0.0
C251 C 0.27036 0.44703 0.60497 0.0
C252 C 0.31658 0.44017 0.74149 0.0
C253 C 0.34098 0.42048 0.77469 0.0
C254 C 0.3604 0.43487 0.82373 0.0
C255 C 0.39896 0.42344 0.84419 0.0
C256 C 0.42052 0.44076 0.88549 0.0
C257 C 0.40371 0.46977 0.90676 0.0
H258 H 0.31185 0.46985 0.83565 0.0
C259 C 0.36382 0.47897 0.88931 0.0
C260 C 0.34223 0.46149 0.84863 0.0
H261 H 0.34986 0.50083 0.90569 0.0
H262 H 0.28228 0.35861 0.61228 0.0
H263 H 0.30805 0.37317 0.69921 0.0
H264 H 0.28627 0.48268 0.66583 0.0
H265 H 0.25947 0.4679 0.57927 0.0
H266 H 0.3106 0.46698 0.7514 0.0
H267 H 0.35032 0.39478 0.76391 0.0
H268 H 0.41338 0.40254 0.82633 0.0
H269 H 0.45122 0.43309 0.89828 0.0
C270 C 0.73252 0.64167 0.43297 0.0
C271 C 0.71109 0.63926 0.47415 0.0
C272 C 0.71419 0.63349 0.38431 0.0
C273 C 0.674 0.62236 0.37576 0.0
C274 C 0.65242 0.62061 0.41678 0.0
C275 C 0.67074 0.62884 0.46542 0.0
C276 C 0.65366 0.61183 0.32507 0.0
C277 C 0.67343 0.6003 0.28803 0.0
C278 C 0.65271 0.58365 0.24152 0.0
C279 C 0.67178 0.55582 0.22065 0.0
C280 C 0.65132 0.53614 0.18142 0.0
C281 C 0.61163 0.54441 0.16144 0.0
H282 H 0.59884 0.61549 0.23362 0.0
C283 C 0.59361 0.57407 0.17936 0.0
C284 C 0.61391 0.59346 0.21935 0.0
H285 H 0.56305 0.58106 0.16455 0.0
H286 H 0.76367 0.6496 0.43838 0.0
H287 H 0.73166 0.63619 0.3537 0.0
H288 H 0.62134 0.61242 0.41131 0.0
H289 H 0.65312 0.6274 0.49611 0.0
H290 H 0.62116 0.61023 0.31997 0.0
H291 H 0.70589 0.59867 0.29444 0.0
H292 H 0.70183 0.54802 0.23657 0.0
H293 H 0.66606 0.51358 0.16801 0.0
C294 C 0.78914 0.11195 0.89511 0.0
C295 C 0.80763 0.12914 0.93861 0.0
C296 C 0.81198 0.09948 0.8592 0.0
C297 C 0.85384 0.10423 0.86607 0.0
C298 C 0.87206 0.12134 0.90973 0.0
C299 C 0.84933 0.13363 0.9455 0.0
C300 C 0.88022 0.09205 0.82962 0.0
C301 C 0.8681 0.07613 0.78516 0.0
C302 C 0.89728 0.0656 0.75125 0.0
C303 C 0.88591 0.0657 0.6987 0.0
C304 C 0.91438 0.05948 0.66633 0.0
C305 C 0.95456 0.0533 0.68631 0.0
H306 H 0.94637 0.05412 0.81091 0.0
C307 C 0.96521 0.05091 0.7387 0.0
C308 C 0.93687 0.05646 0.77077 0.0
H309 H 0.9958 0.0452 0.75505 0.0
H310 H 0.75702 0.10791 0.88905 0.0
H311 H 0.79654 0.08625 0.82654 0.0
H312 H 0.90419 0.12545 0.91621 0.0
H313 H 0.86441 0.14723 0.97821 0.0
H314 H 0.91192 0.09756 0.83992 0.0
H315 H 0.83653 0.07237 0.77177 0.0
H316 H 0.85541 0.07198 0.68269 0.0
H317 H 0.90543 0.06116 0.62597 0.0
C318 C 0.31139 0.44048 0.41038 0.0
C319 C 0.27019 0.43296 0.4043 0.0
C320 C 0.32922 0.45295 0.37007 0.0
C321 C 0.30637 0.45792 0.32252 0.0
C322 C 0.26479 0.45283 0.31709 0.0
C323 C 0.24684 0.4402 0.35758 0.0
C324 C 0.32634 0.46547 0.27781 0.0
C325 C 0.35999 0.44817 0.27152 0.0
C326 C 0.38272 0.45236 0.22849 0.0
C327 C 0.40878 0.42525 0.21986 0.0
C328 C 0.43516 0.42914 0.18492 0.0
C329 C 0.43646 0.46043 0.15772 0.0
H330 H 0.36271 0.50471 0.20552 0.0
C331 C 0.40888 0.48707 0.16403 0.0
C332 C 0.38217 0.48312 0.19939 0.0
H333 H 0.40932 0.5115 0.14365 0.0
H334 H 0.3304 0.43506 0.4456 0.0
H335 H 0.36126 0.45749 0.37568 0.0
H336 H 0.24654 0.45685 0.28091 0.0
H337 H 0.2149 0.4352 0.35196 0.0
H338 H 0.31184 0.48279 0.24866 0.0
H339 H 0.37124 0.42845 0.29928 0.0
H340 H 0.40969 0.40121 0.24146 0.0
H341 H 0.45558 0.40787 0.18051 0.0
C342 C 0.18701 0.87435 0.95993 0.0
C343 C 0.22722 0.86795 0.9798 0.0
C344 C 0.1763 0.88265 0.90903 0.0
C345 C 0.20561 0.88458 0.8766 0.0
C346 C 0.24566 0.87742 0.89629 0.0
C347 C 0.25635 0.86901 0.94722 0.0
C348 C 0.19629 0.89778 0.82395 0.0
C349 C 0.15913 0.89808 0.79745 0.0
C350 C 0.14786 0.91867 0.75028 0.0
C351 C 0.11029 0.91283 0.72128 0.0
C352 C 0.09527 0.93592 0.68253 0.0
C353 C 0.11743 0.96556 0.67246 0.0
H354 H 0.19995 0.95304 0.7589 0.0
C355 C 0.15617 0.96997 0.69894 0.0
C356 C 0.1712 0.94694 0.73743 0.0
H357 H 0.1741 0.99249 0.69194 0.0
H358 H 0.1638 0.87342 0.98397 0.0
H359 H 0.14527 0.88889 0.896 0.0
H360 H 0.26896 0.87913 0.87244 0.0
H361 H 0.28765 0.86455 0.96144 0.0
H362 H 0.22111 0.90869 0.80739 0.0
H363 H 0.13517 0.88418 0.81206 0.0
H364 H 0.09159 0.89134 0.73028 0.0
H365 H 0.06526 0.93183 0.66293 0.0
loop_
_geom_bond_atom_site_label_1
_geom_bond_atom_site_label_2
_geom_bond_distance
_geom_bond_site_symmetry_2
_ccdc_geom_bond_type
H0 C3 0.931 . S
H1 C6 0.928 . S
H2 C8 0.930 . S
C3 H0 0.931 . S
C3 C4 1.413 . S
C3 C5 1.360 . S
C4 C3 1.413 . S
C4 C8 1.429 . S
C5 C3 1.360 . S
C5 C6 1.372 . S
C6 H1 0.928 . S
C6 C5 1.372 . S
C6 C7 1.404 . S
C7 C6 1.404 . S
C7 C8 1.391 . S
C8 H2 0.930 . S
C8 C4 1.429 . S
C8 C7 1.391 . S
H9 C12 0.931 . S
H10 C15 0.928 . S
H11 C17 0.930 . S
C12 H9 0.931 . S
C12 C13 1.413 . S
C12 C14 1.360 . S
C13 C12 1.413 . S
C13 C17 1.429 . S
C14 C12 1.360 . S
C14 C15 1.372 . S
C15 H10 0.928 . S
C15 C14 1.372 . S
C15 C16 1.404 . S
C16 C15 1.404 . S
C16 C17 1.391 . S
C17 H11 0.930 . S
C17 C13 1.429 . S
C17 C16 1.391 . S
H18 C21 0.931 . S
H19 C24 0.928 . S
H20 C26 0.930 . S
C21 H18 0.931 . S
C21 C22 1.413 1_554 S
C21 C23 1.360 . S
C22 C21 1.413 1_556 S
C22 C26 1.429 . S
C23 C21 1.360 . S
C23 C24 1.372 . S
C24 H19 0.928 . S
C24 C23 1.372 . S
C24 C25 1.394 1_554 S
C25 C24 1.394 1_556 S
C25 C26 1.401 . S
C26 H20 0.930 . S
C26 C22 1.429 . S
C26 C25 1.401 . S
H27 C30 0.931 . S
H28 C33 0.928 . S
H29 C35 0.930 . S
C30 H27 0.931 . S
C30 C31 1.413 . S
C30 C32 1.360 . S
C31 C30 1.413 . S
C31 C35 1.429 . S
C32 C30 1.360 . S
C32 C33 1.372 . S
C33 H28 0.928 . S
C33 C32 1.372 . S
C33 C34 1.404 . S
C34 C33 1.404 . S
C34 C35 1.391 . S
C35 H29 0.930 . S
C35 C31 1.429 . S
C35 C34 1.391 . S
O36 Mg37 1.990 1_655 S
O36 C50 1.253 . S
Mg37 O36 1.990 1_455 S
Mg37 O40 2.180 . S
Mg37 O41 2.117 . S
Mg37 O55 2.030 . S
O38 Mg39 2.072 1_655 S
O38 C50 1.260 . S
Mg39 O38 2.072 1_455 S
Mg39 O40 2.099 . S
Mg39 O42 2.079 1_545 S
Mg39 O43 2.072 1_455 S
Mg39 O45 2.099 1_445 S
Mg39 O56 2.079 1_545 S
O40 Mg37 2.180 . S
O40 Mg39 2.099 . S
O40 C51 1.279 . S
O41 Mg37 2.117 . S
O41 C51 1.250 . S
O42 Mg39 2.079 1_565 S
O42 C52 1.264 . S
O43 Mg39 2.072 1_655 S
O43 C53 1.260 . S
Mg44 O45 2.180 . S
Mg44 O46 2.030 1_655 S
Mg44 O47 1.990 1_565 S
Mg44 O48 2.117 . S
O45 Mg39 2.099 1_665 S
O45 Mg44 2.180 . S
O45 C54 1.279 . S
O46 Mg44 2.030 1_455 S
O46 C52 1.248 . S
O47 Mg44 1.990 1_545 S
O47 C53 1.253 . S
O48 Mg44 2.117 . S
O48 C54 1.250 . S
C49 O55 1.248 1_565 S
C49 O56 1.264 . S
C50 O36 1.253 . S
C50 O38 1.260 . S
C51 O40 1.279 . S
C51 O41 1.250 . S
C52 O42 1.264 . S
C52 O46 1.248 . S
C53 O43 1.260 . S
C53 O47 1.253 . S
C54 O45 1.279 . S
C54 O48 1.250 . S
O55 Mg37 2.030 . S
O55 C49 1.248 1_545 S
O56 Mg39 2.079 1_565 S
O56 C49 1.264 . S
O57 Mg58 1.990 . S
O57 C71 1.253 . S
Mg58 O57 1.990 . S
Mg58 O61 2.180 . S
Mg58 O62 2.117 . S
Mg58 O76 2.030 . S
O59 Mg60 2.072 . S
O59 C71 1.260 . S
Mg60 O59 2.072 . S
Mg60 O61 2.099 . S
Mg60 O63 2.079 1_554 S
Mg60 O64 2.072 1_554 S
Mg60 O66 2.099 . S
Mg60 O77 2.079 . S
O61 Mg58 2.180 . S
O61 Mg60 2.099 . S
O61 C72 1.279 . S
O62 Mg58 2.117 . S
O62 C72 1.250 . S
O63 Mg60 2.079 1_556 S
O63 C73 1.264 . S
O64 Mg60 2.072 1_556 S
O64 C74 1.260 . S
Mg65 O66 2.180 1_556 S
Mg65 O67 2.030 . S
Mg65 O68 1.990 . S
Mg65 O69 2.117 . S
O66 Mg60 2.099 . S
O66 Mg65 2.180 1_554 S
O66 C75 1.279 . S
O67 Mg65 2.030 . S
O67 C73 1.248 . S
O68 Mg65 1.990 . S
O68 C74 1.253 . S
O69 Mg65 2.117 . S
O69 C75 1.250 1_556 S
C70 O76 1.248 . S
C70 O77 1.264 . S
C71 O57 1.253 . S
C71 O59 1.260 . S
C72 O61 1.279 . S
C72 O62 1.250 . S
C73 O63 1.264 . S
C73 O67 1.248 . S
C74 O64 1.260 . S
C74 O68 1.253 . S
C75 O66 1.279 . S
C75 O69 1.250 1_554 S
O76 Mg58 2.030 . S
O76 C70 1.248 . S
O77 Mg60 2.079 . S
O77 C70 1.264 . S
C78 C79 1.386 . S
C78 C80 1.383 . S
C78 H94 0.951 . S
C79 C78 1.386 . S
C79 C83 1.383 . S
C80 C78 1.383 . S
C80 C81 1.402 . S
C80 H95 0.951 . S
C81 C80 1.402 . S
C81 C82 1.375 . S
C81 C84 1.481 . S
C82 C81 1.375 . S
C82 C83 1.367 . S
C82 H96 0.951 . S
C83 C79 1.383 . S
C83 C82 1.367 . S
C83 H97 0.950 . S
C84 C81 1.481 . S
C84 C85 1.297 . S
C84 H98 0.950 . S
C85 C84 1.297 . S
C85 C86 1.479 . S
C85 H99 0.950 . S
C86 C85 1.479 . S
C86 C87 1.375 . S
C86 C92 1.404 . S
C87 C86 1.375 . S
C87 C88 1.369 . S
C87 H100 0.950 . S
C88 C87 1.369 . S
C88 C89 1.392 . S
C88 H101 0.951 . S
C89 C88 1.392 . S
C89 C91 1.384 . S
H90 C92 0.949 . S
C91 C89 1.384 . S
C91 C92 1.385 . S
C91 H93 0.950 . S
C92 C86 1.404 . S
C92 H90 0.949 . S
C92 C91 1.385 . S
H93 C91 0.950 . S
H94 C78 0.951 . S
H95 C80 0.951 . S
H96 C82 0.951 . S
H97 C83 0.950 . S
H98 C84 0.950 . S
H99 C85 0.950 . S
H100 C87 0.950 . S
H101 C88 0.951 . S
C102 C103 1.386 . S
C102 C104 1.383 . S
C102 H118 0.951 . S
C103 C102 1.386 . S
C103 C107 1.383 . S
C104 C102 1.383 . S
C104 C105 1.402 . S
C104 H119 0.951 . S
C105 C104 1.402 . S
C105 C106 1.375 . S
C105 C108 1.481 . S
C106 C105 1.375 . S
C106 C107 1.367 . S
C106 H120 0.951 . S
C107 C103 1.383 . S
C107 C106 1.367 . S
C107 H121 0.950 . S
C108 C105 1.481 . S
C108 C109 1.297 . S
C108 H122 0.950 . S
C109 C108 1.297 . S
C109 C110 1.479 . S
C109 H123 0.950 . S
C110 C109 1.479 . S
C110 C111 1.375 . S
C110 C116 1.404 . S
C111 C110 1.375 . S
C111 C112 1.369 . S
C111 H124 0.950 1_554 S
C112 C111 1.369 . S
C112 C113 1.392 . S
C112 H125 0.951 1_554 S
C113 C112 1.392 . S
C113 C115 1.384 . S
H114 C116 0.949 . S
C115 C113 1.384 . S
C115 C116 1.385 . S
C115 H117 0.950 . S
C116 C110 1.404 . S
C116 H114 0.949 . S
C116 C115 1.385 . S
H117 C115 0.950 . S
H118 C102 0.951 . S
H119 C104 0.951 . S
H120 C106 0.951 . S
H121 C107 0.950 . S
H122 C108 0.950 . S
H123 C109 0.950 . S
H124 C111 0.950 1_556 S
H125 C112 0.951 1_556 S
C126 C127 1.386 . S
C126 C128 1.383 . S
C126 H142 0.951 . S
C127 C126 1.386 . S
C127 C131 1.383 . S
C128 C126 1.383 . S
C128 C129 1.402 . S
C128 H143 0.951 . S
C129 C128 1.402 . S
C129 C130 1.375 . S
C129 C132 1.481 . S
C130 C129 1.375 . S
C130 C131 1.367 . S
C130 H144 0.951 . S
C131 C127 1.383 . S
C131 C130 1.367 . S
C131 H145 0.950 . S
C132 C129 1.481 . S
C132 C133 1.297 . S
C132 H146 0.950 . S
C133 C132 1.297 . S
C133 C134 1.479 . S
C133 H147 0.950 . S
C134 C133 1.479 . S
C134 C135 1.375 . S
C134 C140 1.404 . S
C135 C134 1.375 . S
C135 C136 1.369 . S
C135 H148 0.950 . S
C136 C135 1.369 . S
C136 C137 1.392 . S
C136 H149 0.951 . S
C137 C136 1.392 . S
C137 C139 1.384 . S
H138 C140 0.949 . S
C139 C137 1.384 . S
C139 C140 1.385 . S
C139 H141 0.950 . S
C140 C134 1.404 . S
C140 H138 0.949 . S
C140 C139 1.385 . S
H141 C139 0.950 . S
H142 C126 0.951 . S
H143 C128 0.951 . S
H144 C130 0.951 . S
H145 C131 0.950 . S
H146 C132 0.950 . S
H147 C133 0.950 . S
H148 C135 0.950 . S
H149 C136 0.951 . S
C150 C151 1.373 1_556 S
C150 C152 1.383 . S
C150 H166 0.951 . S
C151 C150 1.373 1_554 S
C151 C155 1.400 . S
C152 C150 1.383 . S
C152 C153 1.402 1_556 S
C152 H167 0.951 . S
C153 C152 1.402 1_554 S
C153 C154 1.375 . S
C153 C156 1.481 . S
C154 C153 1.375 . S
C154 C155 1.367 . S
C154 H168 0.951 . S
C155 C151 1.400 . S
C155 C154 1.367 . S
C155 H169 0.950 . S
C156 C153 1.481 . S
C156 C157 1.297 1_554 S
C156 H170 0.950 . S
C157 C156 1.297 1_556 S
C157 C158 1.479 . S
C157 H171 0.950 . S
C158 C157 1.479 . S
C158 C159 1.375 . S
C158 C164 1.404 1_556 S
C159 C158 1.375 . S
C159 C160 1.369 . S
C159 H172 0.950 . S
C160 C159 1.369 . S
C160 C161 1.392 1_556 S
C160 H173 0.951 . S
C161 C160 1.392 1_554 S
C161 C163 1.384 . S
H162 C164 0.949 . S
C163 C161 1.384 . S
C163 C164 1.385 . S
C163 H165 0.950 . S
C164 C158 1.404 1_554 S
C164 H162 0.949 . S
C164 C163 1.385 . S
H165 C163 0.950 . S
H166 C150 0.951 . S
H167 C152 0.951 . S
H168 C154 0.951 . S
H169 C155 0.950 . S
H170 C156 0.950 . S
H171 C157 0.950 . S
H172 C159 0.950 . S
H173 C160 0.951 . S
C174 C175 1.386 . S
C174 C176 1.383 . S
C174 H190 0.951 . S
C175 C174 1.386 . S
C175 C179 1.383 . S
C176 C174 1.383 . S
C176 C177 1.402 . S
C176 H191 0.951 . S
C177 C176 1.402 . S
C177 C178 1.375 . S
C177 C180 1.481 . S
C178 C177 1.375 . S
C178 C179 1.367 . S
C178 H192 0.951 . S
C179 C175 1.383 . S
C179 C178 1.367 . S
C179 H193 0.950 . S
C180 C177 1.481 . S
C180 C181 1.297 . S
C180 H194 0.950 . S
C181 C180 1.297 . S
C181 C182 1.479 . S
C181 H195 0.950 . S
C182 C181 1.479 . S
C182 C183 1.375 . S
C182 C188 1.404 . S
C183 C182 1.375 . S
C183 C184 1.369 . S
C183 H196 0.950 . S
C184 C183 1.369 . S
C184 C185 1.392 . S
C184 H197 0.951 1_565 S
C185 C184 1.392 . S
C185 C187 1.384 . S
H186 C188 0.949 . S
C187 C185 1.384 . S
C187 C188 1.385 . S
C187 H189 0.950 . S
C188 C182 1.404 . S
C188 H186 0.949 . S
C188 C187 1.385 . S
H189 C187 0.950 . S
H190 C174 0.951 . S
H191 C176 0.951 . S
H192 C178 0.951 . S
H193 C179 0.950 . S
H194 C180 0.950 . S
H195 C181 0.950 . S
H196 C183 0.950 . S
H197 C184 0.951 1_545 S
C198 C199 1.386 . S
C198 C200 1.383 . S
C198 H214 0.951 . S
C199 C198 1.386 . S
C199 C203 1.383 . S
C200 C198 1.383 . S
C200 C201 1.402 . S
C200 H215 0.951 . S
C201 C200 1.402 . S
C201 C202 1.375 . S
C201 C204 1.481 . S
C202 C201 1.375 . S
C202 C203 1.367 . S
C202 H216 0.951 . S
C203 C199 1.383 . S
C203 C202 1.367 . S
C203 H217 0.950 . S
C204 C201 1.481 . S
C204 C205 1.297 . S
C204 H218 0.950 . S
C205 C204 1.297 . S
C205 C206 1.479 . S
C205 H219 0.950 . S
C206 C205 1.479 . S
C206 C207 1.375 . S
C206 C212 1.404 . S
C207 C206 1.375 . S
C207 C208 1.369 . S
C207 H220 0.950 . S
C208 C207 1.369 . S
C208 C209 1.392 . S
C208 H221 0.951 . S
C209 C208 1.392 . S
C209 C211 1.384 . S
H210 C212 0.949 . S
C211 C209 1.384 . S
C211 C212 1.385 . S
C211 H213 0.950 . S
C212 C206 1.404 . S
C212 H210 0.949 . S
C212 C211 1.385 . S
H213 C211 0.950 . S
H214 C198 0.951 . S
H215 C200 0.951 . S
H216 C202 0.951 . S
H217 C203 0.950 . S
H218 C204 0.950 . S
H219 C205 0.950 . S
H220 C207 0.950 . S
H221 C208 0.951 . S
C222 C223 1.386 . S
C222 C224 1.383 . S
C222 H238 0.951 . S
C223 C222 1.386 . S
C223 C227 1.383 . S
C224 C222 1.383 . S
C224 C225 1.402 . S
C224 H239 0.951 . S
C225 C224 1.402 . S
C225 C226 1.375 . S
C225 C228 1.481 . S
C226 C225 1.375 . S
C226 C227 1.367 . S
C226 H240 0.951 . S
C227 C223 1.383 . S
C227 C226 1.367 . S
C227 H241 0.950 . S
C228 C225 1.481 . S
C228 C229 1.297 . S
C228 H242 0.950 . S
C229 C228 1.297 . S
C229 C230 1.479 . S
C229 H243 0.950 . S
C230 C229 1.479 . S
C230 C231 1.375 . S
C230 C236 1.404 . S
C231 C230 1.375 . S
C231 C232 1.369 . S
C231 H244 0.950 . S
C232 C231 1.369 . S
C232 C233 1.392 . S
C232 H245 0.951 . S
C233 C232 1.392 . S
C233 C235 1.384 . S
H234 C236 0.949 . S
C235 C233 1.384 . S
C235 C236 1.385 . S
C235 H237 0.950 . S
C236 C230 1.404 . S
C236 H234 0.949 . S
C236 C235 1.385 . S
H237 C235 0.950 . S
H238 C222 0.951 . S
H239 C224 0.951 . S
H240 C226 0.951 . S
H241 C227 0.950 . S
H242 C228 0.950 . S
H243 C229 0.950 . S
H244 C231 0.950 . S
H245 C232 0.951 . S
C246 C247 1.386 . S
C246 C248 1.383 . S
C246 H262 0.951 . S
C247 C246 1.386 . S
C247 C251 1.383 . S
C248 C246 1.383 . S
C248 C249 1.402 . S
C248 H263 0.951 . S
C249 C248 1.402 . S
C249 C250 1.375 . S
C249 C252 1.481 . S
C250 C249 1.375 . S
C250 C251 1.367 . S
C250 H264 0.951 . S
C251 C247 1.383 . S
C251 C250 1.367 . S
C251 H265 0.950 . S
C252 C249 1.481 . S
C252 C253 1.297 . S
C252 H266 0.950 . S
C253 C252 1.297 . S
C253 C254 1.479 . S
C253 H267 0.950 . S
C254 C253 1.479 . S
C254 C255 1.375 . S
C254 C260 1.404 . S
C255 C254 1.375 . S
C255 C256 1.369 . S
C255 H268 0.950 . S
C256 C255 1.369 . S
C256 C257 1.392 . S
C256 H269 0.951 . S
C257 C256 1.392 . S
C257 C259 1.384 . S
H258 C260 0.949 . S
C259 C257 1.384 . S
C259 C260 1.385 . S
C259 H261 0.950 . S
C260 C254 1.404 . S
C260 H258 0.949 . S
C260 C259 1.385 . S
H261 C259 0.950 . S
H262 C246 0.951 . S
H263 C248 0.951 . S
H264 C250 0.951 . S
H265 C251 0.950 . S
H266 C252 0.950 . S
H267 C253 0.950 . S
H268 C255 0.950 . S
H269 C256 0.951 . S
C270 C271 1.386 . S
C270 C272 1.383 . S
C270 H286 0.951 . S
C271 C270 1.386 . S
C271 C275 1.383 . S
C272 C270 1.383 . S
C272 C273 1.402 . S
C272 H287 0.951 . S
C273 C272 1.402 . S
C273 C274 1.375 . S
C273 C276 1.481 . S
C274 C273 1.375 . S
C274 C275 1.367 . S
C274 H288 0.951 . S
C275 C271 1.383 . S
C275 C274 1.367 . S
C275 H289 0.950 . S
C276 C273 1.481 . S
C276 C277 1.297 . S
C276 H290 0.950 . S
C277 C276 1.297 . S
C277 C278 1.479 . S
C277 H291 0.950 . S
C278 C277 1.479 . S
C278 C279 1.375 . S
C278 C284 1.404 . S
C279 C278 1.375 . S
C279 C280 1.369 . S
C279 H292 0.950 . S
C280 C279 1.369 . S
C280 C281 1.392 . S
C280 H293 0.951 . S
C281 C280 1.392 . S
C281 C283 1.384 . S
H282 C284 0.949 . S
C283 C281 1.384 . S
C283 C284 1.385 . S
C283 H285 0.950 . S
C284 C278 1.404 . S
C284 H282 0.949 . S
C284 C283 1.385 . S
H285 C283 0.950 . S
H286 C270 0.951 . S
H287 C272 0.951 . S
H288 C274 0.951 . S
H289 C275 0.950 . S
H290 C276 0.950 . S
H291 C277 0.950 . S
H292 C279 0.950 . S
H293 C280 0.951 . S
C294 C295 1.386 . S
C294 C296 1.383 . S
C294 H310 0.951 . S
C295 C294 1.386 . S
C295 C299 1.383 . S
C296 C294 1.383 . S
C296 C297 1.402 . S
C296 H311 0.951 . S
C297 C296 1.402 . S
C297 C298 1.375 . S
C297 C300 1.481 . S
C298 C297 1.375 . S
C298 C299 1.367 . S
C298 H312 0.951 . S
C299 C295 1.383 . S
C299 C298 1.367 . S
C299 H313 0.950 . S
C300 C297 1.481 . S
C300 C301 1.297 . S
C300 H314 0.950 . S
C301 C300 1.297 . S
C301 C302 1.479 . S
C301 H315 0.950 . S
C302 C301 1.479 . S
C302 C303 1.375 . S
C302 C308 1.404 . S
C303 C302 1.375 . S
C303 C304 1.369 . S
C303 H316 0.950 . S
C304 C303 1.369 . S
C304 C305 1.392 . S
C304 H317 0.951 . S
C305 C304 1.392 . S
C305 C307 1.384 . S
H306 C308 0.949 . S
C307 C305 1.384 . S
C307 C308 1.385 . S
C307 H309 0.950 . S
C308 C302 1.404 . S
C308 H306 0.949 . S
C308 C307 1.385 . S
H309 C307 0.950 . S
H310 C294 0.951 . S
H311 C296 0.951 . S
H312 C298 0.951 . S
H313 C299 0.950 . S
H314 C300 0.950 . S
H315 C301 0.950 . S
H316 C303 0.950 . S
H317 C304 0.951 . S
C318 C319 1.386 . S
C318 C320 1.383 . S
C318 H334 0.951 . S
C319 C318 1.386 . S
C319 C323 1.383 . S
C320 C318 1.383 . S
C320 C321 1.402 . S
C320 H335 0.951 . S
C321 C320 1.402 . S
C321 C322 1.375 . S
C321 C324 1.481 . S
C322 C321 1.375 . S
C322 C323 1.367 . S
C322 H336 0.951 . S
C323 C319 1.383 . S
C323 C322 1.367 . S
C323 H337 0.950 . S
C324 C321 1.481 . S
C324 C325 1.297 . S
C324 H338 0.950 . S
C325 C324 1.297 . S
C325 C326 1.479 . S
C325 H339 0.950 . S
C326 C325 1.479 . S
C326 C327 1.375 . S
C326 C332 1.404 . S
C327 C326 1.375 . S
C327 C328 1.369 . S
C327 H340 0.950 . S
C328 C327 1.369 . S
C328 C329 1.392 . S
C328 H341 0.951 . S
C329 C328 1.392 . S
C329 C331 1.384 . S
H330 C332 0.949 . S
C331 C329 1.384 . S
C331 C332 1.385 . S
C331 H333 0.950 . S
C332 C326 1.404 . S
C332 H330 0.949 . S
C332 C331 1.385 . S
H333 C331 0.950 . S
H334 C318 0.951 . S
H335 C320 0.951 . S
H336 C322 0.951 . S
H337 C323 0.950 . S
H338 C324 0.950 . S
H339 C325 0.950 . S
H340 C327 0.950 . S
H341 C328 0.951 . S
C342 C343 1.386 . S
C342 C344 1.383 . S
C342 H358 0.951 . S
C343 C342 1.386 . S
C343 C347 1.383 . S
C344 C342 1.383 . S
C344 C345 1.402 . S
C344 H359 0.951 . S
C345 C344 1.402 . S
C345 C346 1.375 . S
C345 C348 1.481 . S
C346 C345 1.375 . S
C346 C347 1.367 . S
C346 H360 0.951 . S
C347 C343 1.383 . S
C347 C346 1.367 . S
C347 H361 0.950 . S
C348 C345 1.481 . S
C348 C349 1.297 . S
C348 H362 0.950 . S
C349 C348 1.297 . S
C349 C350 1.479 . S
C349 H363 0.950 . S
C350 C349 1.479 . S
C350 C351 1.375 . S
C350 C356 1.404 . S
C351 C350 1.375 . S
C351 C352 1.369 . S
C351 H364 0.950 . S
C352 C351 1.369 . S
C352 C353 1.392 . S
C352 H365 0.951 . S
C353 C352 1.392 . S
C353 C355 1.384 . S
H354 C356 0.949 1_545 S
C355 C353 1.384 . S
C355 C356 1.385 . S
C355 H357 0.950 1_565 S
C356 C350 1.404 . S
C356 H354 0.949 1_565 S
C356 C355 1.385 . S
H357 C355 0.950 1_545 S
H358 C342 0.951 . S
H359 C344 0.951 . S
H360 C346 0.951 . S
H361 C347 0.950 . S
H362 C348 0.950 . S
H363 C349 0.950 . S
H364 C351 0.950 . S
H365 C352 0.951 . S
C89 C51 1.231 . S
C79 C34 1.445 . S
C103 C7 1.449 . S
C113 C75 1.166 . S
C127 C16 1.583 . S
C137 C54 1.337 . S
C151 C25 1.591 1_554 S
C161 C72 1.421 . S
C185 C52 1.465 . S
C175 C5 1.492 . S
C209 C74 1.440 . S
C199 C13 1.538 . S
C223 C23 1.528 . S
C233 C53 1.506 . S
C247 C32 1.511 . S
C257 C73 1.403 . S
C281 C71 1.414 . S
C271 C14 1.536 . S
C305 C50 1.436 . S
C295 C22 1.531 . S
C329 C70 1.427 . S
C319 C31 1.502 . S
C343 C4 1.513 1_556 S
C353 C49 1.392 . S
