# Generated by pormake.
# Topology zzz, (3,6)-cn, num edge types: 1
# Building blocks:
#     Node 0, Type 0, BuildingBlock: CUQRIR_clean_linker_1, # of connection points: 3
#     Node 1, Type 0, BuildingBlock: CUQRIR_clean_linker_1, # of connection points: 3
#     Node 2, Type 0, BuildingBlock: CUQRIR_clean_linker_1, # of connection points: 3
#     Node 3, Type 0, BuildingBlock: CUQRIR_clean_linker_1, # of connection points: 3
#     Node 4, Type 0, BuildingBlock: CUQRIR_clean_linker_1, # of connection points: 3
#     Node 5, Type 0, BuildingBlock: CUQRIR_clean_linker_1, # of connection points: 3
#     Node 6, Type 0, BuildingBlock: CUQRIR_clean_linker_1, # of connection points: 3
#     Node 7, Type 0, BuildingBlock: CUQRIR_clean_linker_1, # of connection points: 3
#     Node 8, Type 1, BuildingBlock: MIFKUJ_clean_sbu_0, # of connection points: 6
#     Node 9, Type 1, BuildingBlock: MIFKUJ_clean_sbu_0, # of connection points: 6
#     Node 10, Type 1, BuildingBlock: MIFKUJ_clean_sbu_0, # of connection points: 6
#     Node 11, Type 1, BuildingBlock: MIFKUJ_clean_sbu_0, # of connection points: 6
#     Edge 12, Type (0, 1), BuildingBlock: UVAHIK_clean_linker_0, # of connection points: 2
#     Edge 13, Type (0, 1), BuildingBlock: UVAHIK_clean_linker_0, # of connection points: 2
#     Edge 14, Type (0, 1), BuildingBlock: UVAHIK_clean_linker_0, # of connection points: 2
#     Edge 15, Type (0, 1), BuildingBlock: UVAHIK_clean_linker_0, # of connection points: 2
#     Edge 16, Type (0, 1), BuildingBlock: UVAHIK_clean_linker_0, # of connection points: 2
#     Edge 17, Type (0, 1), BuildingBlock: UVAHIK_clean_linker_0, # of connection points: 2
#     Edge 18, Type (0, 1), BuildingBlock: UVAHIK_clean_linker_0, # of connection points: 2
#     Edge 19, Type (0, 1), BuildingBlock: UVAHIK_clean_linker_0, # of connection points: 2
#     Edge 20, Type (0, 1), BuildingBlock: UVAHIK_clean_linker_0, # of connection points: 2
#     Edge 21, Type (0, 1), BuildingBlock: UVAHIK_clean_linker_0, # of connection points: 2
#     Edge 22, Type (0, 1), BuildingBlock: UVAHIK_clean_linker_0, # of connection points: 2
#     Edge 23, Type (0, 1), BuildingBlock: UVAHIK_clean_linker_0, # of connection points: 2
#     Edge 24, Type (0, 1), BuildingBlock: UVAHIK_clean_linker_0, # of connection points: 2
#     Edge 25, Type (0, 1), BuildingBlock: UVAHIK_clean_linker_0, # of connection points: 2
#     Edge 26, Type (0, 1), BuildingBlock: UVAHIK_clean_linker_0, # of connection points: 2
#     Edge 27, Type (0, 1), BuildingBlock: UVAHIK_clean_linker_0, # of connection points: 2
#     Edge 28, Type (0, 1), BuildingBlock: UVAHIK_clean_linker_0, # of connection points: 2
#     Edge 29, Type (0, 1), BuildingBlock: UVAHIK_clean_linker_0, # of connection points: 2
#     Edge 30, Type (0, 1), BuildingBlock: UVAHIK_clean_linker_0, # of connection points: 2
#     Edge 31, Type (0, 1), BuildingBlock: UVAHIK_clean_linker_0, # of connection points: 2
#     Edge 32, Type (0, 1), BuildingBlock: UVAHIK_clean_linker_0, # of connection points: 2
#     Edge 33, Type (0, 1), BuildingBlock: UVAHIK_clean_linker_0, # of connection points: 2
#     Edge 34, Type (0, 1), BuildingBlock: UVAHIK_clean_linker_0, # of connection points: 2
#     Edge 35, Type (0, 1), BuildingBlock: UVAHIK_clean_linker_0, # of connection points: 2
# Relax obj value: 0.119
# Max RMSD: 0.116
# Mean RMSD: 0.092
data_MOF--net-zzz--node1-MIFKUJ_clean_sbu_0--node2-CUQRIR_clean_linker_1--edge1-UVAHIK_clean_linker_0
_symmetry_space_group_name_H-M    P1
_symmetry_Int_Tables_number       1
_symmetry_cell_setting            triclinic
loop_
_symmetry_equiv_pos_as_xyz
'x, y, z'
_cell_length_a     62.49974
_cell_length_b     62.169321
_cell_length_c     18.65653
_cell_angle_alpha  90.151802
_cell_angle_beta   89.972095
_cell_angle_gamma 89.872787
loop_
_atom_site_label
_atom_site_type_symbol
_atom_site_fract_x
_atom_site_fract_y
_atom_site_fract_z
_atom_type_partial_charge
C0 C 0.73559 0.48148 0.18591 0.0
N1 N 0.75673 0.47755 0.19472 0.0
N2 N 0.72941 0.47614 0.11835 0.0
C3 C 0.72096 0.48975 0.24354 0.0
C4 C 0.74762 0.46902 0.08662 0.0
N5 N 0.76411 0.46974 0.13319 0.0
C6 C 0.7497 0.46314 0.00858 0.0
H7 H 0.7267 0.48473 0.29724 0.0
H8 H 0.70438 0.48393 0.23501 0.0
H9 H 0.72084 0.50759 0.24177 0.0
H10 H 0.73788 0.47205 0.97563 0.0
H11 H 0.74672 0.44566 0.0022 0.0
H12 H 0.76603 0.46663 0.9884 0.0
C13 C 0.00276 0.73199 0.1369 0.0
N14 N 0.00881 0.7529 0.13601 0.0
N15 N 0.01333 0.72069 0.08555 0.0
C16 C 0.98549 0.72301 0.18396 0.0
C17 C 0.0259 0.73551 0.0533 0.0
N18 N 0.02313 0.75507 0.08382 0.0
C19 C 0.03987 0.73102 0.98923 0.0
H20 H 0.98714 0.72929 0.23937 0.0
H21 H 0.98598 0.70517 0.1847 0.0
H22 H 0.96971 0.72832 0.16319 0.0
H23 H 0.02964 0.72968 0.94084 0.0
H24 H 0.04847 0.71555 0.99577 0.0
H25 H 0.05179 0.74397 0.98096 0.0
C26 C 0.77808 0.01735 0.14661 0.0
N27 N 0.75721 0.023 0.1519 0.0
N28 N 0.7863 0.02406 0.08312 0.0
C29 C 0.79039 0.00559 0.20334 0.0
C30 C 0.7696 0.03381 0.05003 0.0
N31 N 0.75199 0.03324 0.09202 0.0
C32 C 0.77 0.0421 0.97433 0.0
H33 H 0.78411 0.00958 0.25743 0.0
H34 H 0.80767 0.00955 0.20038 0.0
H35 H 0.78849 0.98804 0.19465 0.0
H36 H 0.78204 0.03336 0.94156 0.0
H37 H 0.77434 0.0594 0.97536 0.0
H38 H 0.75408 0.04053 0.94861 0.0
C39 C 0.50574 0.77813 0.18646 0.0
N40 N 0.50537 0.75644 0.19253 0.0
N41 N 0.50782 0.78388 0.11666 0.0
C42 C 0.50287 0.79358 0.24768 0.0
C43 C 0.50886 0.76489 0.08098 0.0
N44 N 0.5072 0.74826 0.12698 0.0
C45 C 0.51305 0.7626 0.00184 0.0
H46 H 0.49403 0.80812 0.22993 0.0
H47 H 0.51887 0.79868 0.26695 0.0
H48 H 0.49425 0.7859 0.29284 0.0
H49 H 0.52245 0.77642 0.9815 0.0
H50 H 0.49756 0.76213 0.97287 0.0
H51 H 0.52185 0.74746 0.99019 0.0
C52 C 0.2812 0.53493 0.07062 0.0
N53 N 0.25962 0.53345 0.06565 0.0
N54 N 0.28765 0.53137 0.13913 0.0
C55 C 0.29575 0.54087 0.00987 0.0
C56 C 0.26924 0.5274 0.17506 0.0
N57 N 0.25226 0.52878 0.13059 0.0
C58 C 0.268 0.52046 0.25222 0.0
H59 H 0.30991 0.54978 0.02991 0.0
H60 H 0.28715 0.55075 0.9696 0.0
H61 H 0.3014 0.52593 0.98326 0.0
H62 H 0.26634 0.5349 0.28683 0.0
H63 H 0.28273 0.5117 0.26822 0.0
H64 H 0.25394 0.50995 0.26133 0.0
C65 C 0.99883 0.26474 0.05135 0.0
N66 N 0.99363 0.24373 0.04329 0.0
N67 N 0.99399 0.2716 0.11872 0.0
C68 C 0.00775 0.27869 0.99308 0.0
C69 C 0.98586 0.25391 0.15113 0.0
N70 N 0.98552 0.23712 0.10521 0.0
C71 C 0.97995 0.25257 0.22923 0.0
H72 H 0.00264 0.27282 0.93956 0.0
H73 H 0.02548 0.27806 0.99548 0.0
H74 H 0.00262 0.29565 0.00048 0.0
H75 H 0.96269 0.25637 0.23533 0.0
H76 H 0.98929 0.26423 0.26159 0.0
H77 H 0.98277 0.23613 0.2503 0.0
C78 C 0.2371 0.98016 0.02295 0.0
N79 N 0.25876 0.97917 0.02101 0.0
N80 N 0.22999 0.97935 0.09178 0.0
C81 C 0.22297 0.98099 0.95803 0.0
C82 C 0.24815 0.97815 0.13127 0.0
N83 N 0.26555 0.97782 0.08832 0.0
C84 C 0.24897 0.97942 0.21188 0.0
H85 H 0.20744 0.97299 0.96873 0.0
H86 H 0.23092 0.97327 0.91136 0.0
H87 H 0.21979 0.99807 0.94456 0.0
H88 H 0.2486 0.9629 0.23418 0.0
H89 H 0.23507 0.9885 0.23335 0.0
H90 H 0.2639 0.98734 0.23017 0.0
C91 C 0.46476 0.22655 0.03589 0.0
N92 N 0.46826 0.24802 0.03566 0.0
N93 N 0.46577 0.21883 0.10373 0.0
C94 C 0.46211 0.21296 0.97003 0.0
C95 C 0.47046 0.23627 0.14422 0.0
N96 N 0.472 0.25395 0.10284 0.0
C97 C 0.47514 0.23564 0.22327 0.0
H98 H 0.45362 0.2221 0.92763 0.0
H99 H 0.45324 0.198 0.98265 0.0
H100 H 0.47818 0.2085 0.94944 0.0
H101 H 0.49172 0.22969 0.2313 0.0
H102 H 0.46413 0.22441 0.2508 0.0
H103 H 0.47364 0.25184 0.24785 0.0
Zn104 Zn 0.99526 0.01611 0.53524 0.0
Zn105 Zn 0.0172 0.97959 0.63489 0.0
C106 C 0.98776 0.05303 0.61856 0.0
O107 O 0.96849 0.04739 0.5977 0.0
C108 C 0.01827 0.94537 0.53547 0.0
O109 O 0.03868 0.94865 0.54819 0.0
O110 O 0.97963 0.03042 0.45398 0.0
O111 O 0.0215 0.00241 0.48897 0.0
O112 O 0.04119 0.99468 0.58348 0.0
C113 C 0.99147 0.04076 0.41084 0.0
O114 O 0.01225 0.04068 0.42106 0.0
O115 O 0.00355 0.04131 0.59972 0.0
C116 C 0.01834 0.95413 0.76104 0.0
O117 O 0.9979 0.95909 0.7599 0.0
O118 O 0.03053 0.96167 0.71275 0.0
O119 O 0.99432 0.99747 0.68356 0.0
O120 O 0.97351 0.99815 0.58911 0.0
O121 O 0.00454 0.95738 0.5665 0.0
C122 C 0.03966 0.99854 0.51683 0.0
C123 C 0.97565 0.99802 0.65683 0.0
Zn124 Zn 0.49146 0.99179 0.56612 0.0
Zn125 Zn 0.52956 0.01708 0.6536 0.0
C126 C 0.45827 0.9842 0.66194 0.0
O127 O 0.46467 0.96496 0.64185 0.0
C128 C 0.56121 0.02242 0.54243 0.0
O129 O 0.55281 0.04179 0.54124 0.0
O130 O 0.47301 0.97913 0.48826 0.0
O131 O 0.50556 0.01637 0.51512 0.0
O132 O 0.50929 0.0383 0.60622 0.0
C133 C 0.45933 0.99337 0.47077 0.0
O134 O 0.46028 0.01235 0.50171 0.0
O135 O 0.46878 0.00047 0.64004 0.0
C136 C 0.55757 0.02135 0.76868 0.0
O137 O 0.55796 0.00053 0.75652 0.0
O138 O 0.54559 0.03316 0.73029 0.0
O139 O 0.51756 0.99055 0.70313 0.0
O140 O 0.51029 0.96946 0.61089 0.0
O141 O 0.55333 0.00837 0.58432 0.0
C142 C 0.50483 0.03525 0.54062 0.0
C143 C 0.51497 0.97183 0.67675 0.0
Zn144 Zn 0.51706 0.4743 0.55814 0.0
Zn145 Zn 0.50473 0.52455 0.65193 0.0
C146 C 0.51548 0.43747 0.63996 0.0
O147 O 0.5353 0.43845 0.61664 0.0
C148 C 0.49307 0.56062 0.56952 0.0
O149 O 0.4746 0.55526 0.59793 0.0
O150 O 0.5251 0.45645 0.47244 0.0
O151 O 0.49656 0.49667 0.51852 0.0
O152 O 0.4796 0.50713 0.61596 0.0
C153 C 0.50911 0.44979 0.43679 0.0
O154 O 0.48981 0.45556 0.45722 0.0
O155 O 0.50264 0.45258 0.62327 0.0
C156 C 0.51255 0.55319 0.75842 0.0
O157 O 0.52938 0.55367 0.71626 0.0
O158 O 0.49738 0.54036 0.74301 0.0
O159 O 0.533 0.51051 0.6744 0.0
O160 O 0.54418 0.48327 0.60771 0.0
O161 O 0.50931 0.5488 0.58149 0.0
C162 C 0.47948 0.50284 0.54932 0.0
C163 C 0.54722 0.49678 0.65777 0.0
Zn164 Zn 0.03177 0.49982 0.5941 0.0
Zn165 Zn 0.98347 0.47969 0.69033 0.0
C166 C 0.0679 0.5176 0.66008 0.0
O167 O 0.06087 0.53331 0.61934 0.0
C168 C 0.94518 0.47476 0.61862 0.0
O169 O 0.95007 0.45546 0.64217 0.0
O170 O 0.04498 0.50916 0.50078 0.0
O171 O 0.02228 0.46949 0.57091 0.0
O172 O 0.99608 0.45519 0.6342 0.0
C173 C 0.05947 0.49576 0.48298 0.0
O174 O 0.06297 0.47913 0.52471 0.0
O175 O 0.05711 0.50025 0.66289 0.0
C176 C 0.96138 0.4799 0.82165 0.0
O177 O 0.9629 0.50063 0.8093 0.0
O178 O 0.96998 0.46682 0.77784 0.0
O179 O 0.00206 0.50411 0.72708 0.0
O180 O 0.01041 0.5221 0.62942 0.0
O181 O 0.95801 0.49015 0.63199 0.0
C182 C 0.01027 0.45371 0.58584 0.0
C183 C 0.00499 0.52189 0.69513 0.0
C184 C 0.19408 0.99599 0.10299 0.0
C185 C 0.2084 0.97924 0.11907 0.0
C186 C 0.17453 0.99769 0.13968 0.0
C187 C 0.15262 0.98703 0.31449 0.0
H188 H 0.09605 0.99067 0.2306 0.0
C189 C 0.07715 0.98585 0.49262 0.0
C190 C 0.05886 0.99713 0.47017 0.0
C191 C 0.09488 0.98371 0.44726 0.0
C192 C 0.11173 0.99009 0.25515 0.0
H193 H 0.21303 0.9504 0.1817 0.0
H194 H 0.17924 0.95367 0.24724 0.0
H195 H 0.12735 0.98703 0.15287 0.0
H196 H 0.04503 0.01528 0.38259 0.0
H197 H 0.07622 0.01266 0.30528 0.0
H198 H 0.13754 0.99092 0.41631 0.0
C199 C 0.18309 0.96549 0.20667 0.0
C200 C 0.12962 0.98786 0.21037 0.0
C201 C 0.20234 0.9636 0.16926 0.0
C202 C 0.05884 0.00647 0.40163 0.0
C203 C 0.07673 0.00474 0.35683 0.0
C204 C 0.13486 0.98971 0.35914 0.0
C205 C 0.16924 0.98283 0.19353 0.0
C206 C 0.15019 0.98604 0.23978 0.0
C207 C 0.09501 0.9932 0.37867 0.0
C208 C 0.11406 0.99102 0.33037 0.0
H209 H 0.19851 0.0083 0.06489 0.0
H210 H 0.16409 0.01122 0.1287 0.0
H211 H 0.16839 0.98595 0.33841 0.0
H212 H 0.0776 0.97821 0.54472 0.0
H213 H 0.10833 0.97426 0.46582 0.0
C214 C 0.44969 0.18898 0.16989 0.0
C215 C 0.4664 0.19696 0.12772 0.0
C216 C 0.45226 0.1698 0.20784 0.0
C217 C 0.48721 0.12172 0.22927 0.0
H218 H 0.46771 0.1247 0.4265 0.0
C219 C 0.49364 0.04939 0.42103 0.0
C220 C 0.49977 0.05345 0.49235 0.0
C221 C 0.48884 0.06628 0.37463 0.0
C222 C 0.47339 0.12366 0.37175 0.0
H223 H 0.49846 0.19124 0.08921 0.0
H224 H 0.5032 0.15758 0.15537 0.0
H225 H 0.46013 0.15436 0.34535 0.0
H226 H 0.50563 0.07855 0.57074 0.0
H227 H 0.4975 0.10818 0.48921 0.0
H228 H 0.50107 0.09131 0.2564 0.0
C229 C 0.48795 0.16583 0.15868 0.0
C230 C 0.46876 0.14052 0.32483 0.0
C231 C 0.4853 0.185 0.12061 0.0
C232 C 0.50092 0.07487 0.51623 0.0
C233 C 0.49615 0.09183 0.46958 0.0
C234 C 0.49186 0.10485 0.27624 0.0
C235 C 0.47171 0.15837 0.20461 0.0
C236 C 0.47567 0.1398 0.25305 0.0
C237 C 0.49009 0.08772 0.39815 0.0
C238 C 0.48507 0.10565 0.34814 0.0
H239 H 0.43512 0.19824 0.17636 0.0
H240 H 0.43929 0.16432 0.24166 0.0
H241 H 0.49268 0.12058 0.17429 0.0
H242 H 0.49242 0.03308 0.40085 0.0
H243 H 0.48388 0.0625 0.32043 0.0
C244 C 0.31243 0.54486 0.23107 0.0
C245 C 0.30881 0.53237 0.16949 0.0
C246 C 0.3317 0.54327 0.26839 0.0
C247 C 0.38787 0.52685 0.25813 0.0
H248 H 0.38123 0.51427 0.46044 0.0
C249 C 0.45958 0.50077 0.43288 0.0
C250 C 0.46008 0.50696 0.50543 0.0
C251 C 0.4415 0.50461 0.3908 0.0
C252 C 0.38349 0.51816 0.40444 0.0
H253 H 0.32282 0.50941 0.09595 0.0
H254 H 0.3571 0.507 0.16032 0.0
H255 H 0.34972 0.52063 0.38686 0.0
H256 H 0.44192 0.52243 0.5902 0.0
H257 H 0.41071 0.52997 0.51622 0.0
H258 H 0.42163 0.52495 0.27563 0.0
C259 C 0.34486 0.51787 0.18001 0.0
C260 C 0.36538 0.5217 0.36217 0.0
C261 C 0.32536 0.51928 0.14306 0.0
C262 C 0.44206 0.51732 0.53466 0.0
C263 C 0.42406 0.5215 0.49218 0.0
C264 C 0.40606 0.52365 0.30065 0.0
C265 C 0.34793 0.52937 0.24425 0.0
C266 C 0.36736 0.526 0.28858 0.0
C267 C 0.42348 0.51512 0.41963 0.0
C268 C 0.40413 0.51913 0.37443 0.0
H269 H 0.29996 0.5553 0.25165 0.0
H270 H 0.33377 0.55258 0.31705 0.0
H271 H 0.38985 0.53031 0.20164 0.0
H272 H 0.47316 0.49281 0.40831 0.0
H273 H 0.44161 0.49905 0.33577 0.0
C274 C 0.01641 0.30264 0.1537 0.0
C275 C 0.99634 0.29265 0.1502 0.0
C276 C 0.01912 0.32152 0.19404 0.0
C277 C 0.98838 0.36482 0.29002 0.0
H278 H 0.03985 0.36921 0.40515 0.0
C279 C 0.99356 0.42004 0.53743 0.0
C280 C 0.01112 0.43413 0.54006 0.0
C281 C 0.99297 0.40324 0.48747 0.0
C282 C 0.02547 0.36826 0.37291 0.0
H283 H 0.96323 0.29488 0.18243 0.0
H284 H 0.96783 0.32725 0.25424 0.0
H285 H 0.03639 0.34004 0.3179 0.0
H286 H 0.04227 0.44093 0.49413 0.0
H287 H 0.04142 0.41118 0.40806 0.0
H288 H 0.97718 0.39256 0.34728 0.0
C289 C 0.98154 0.32099 0.22542 0.0
C290 C 0.02351 0.35163 0.32246 0.0
C291 C 0.97886 0.30232 0.18476 0.0
C292 C 0.0285 0.43041 0.49357 0.0
C293 C 0.02804 0.41336 0.44431 0.0
C294 C 0.99022 0.3812 0.34111 0.0
C295 C 0.00179 0.33069 0.23186 0.0
C296 C 0.0048 0.3495 0.28091 0.0
C297 C 0.01005 0.39992 0.43968 0.0
C298 C 0.00865 0.38294 0.38369 0.0
H299 H 0.03013 0.29536 0.12769 0.0
H300 H 0.03487 0.3287 0.1966 0.0
H301 H 0.97396 0.36412 0.25798 0.0
H302 H 0.97985 0.42245 0.5721 0.0
H303 H 0.979 0.39296 0.48563 0.0
C304 C 0.81955 0.03809 0.03054 0.0
C305 C 0.80735 0.02056 0.05397 0.0
C306 C 0.83878 0.03477 0.9938 0.0
C307 C 0.86576 0.99491 0.87951 0.0
H308 H 0.91555 0.03094 0.90925 0.0
C309 C 0.93583 0.99928 0.67643 0.0
C310 C 0.95669 0.99959 0.70458 0.0
C311 C 0.91804 0.00097 0.72183 0.0
C312 C 0.90184 0.02064 0.90057 0.0
H313 H 0.80564 0.9859 0.05918 0.0
H314 H 0.83949 0.97991 0.99505 0.0
H315 H 0.8844 0.0351 0.98716 0.0
H316 H 0.97515 0.0019 0.80282 0.0
H317 H 0.94419 0.00489 0.88166 0.0
H318 H 0.88317 0.9805 0.79274 0.0
C319 C 0.83416 0.99625 0.00477 0.0
C320 C 0.88393 0.02314 0.94488 0.0
C321 C 0.81497 0.99962 0.04206 0.0
C322 C 0.95933 0.00162 0.77919 0.0
C323 C 0.94157 0.00345 0.82446 0.0
C324 C 0.88361 0.99252 0.83486 0.0
C325 C 0.84613 0.0138 0.97925 0.0
C326 C 0.86563 0.01037 0.93469 0.0
C327 C 0.92071 0.00317 0.79638 0.0
C328 C 0.90184 0.00542 0.84465 0.0
H329 H 0.81382 0.05435 0.03905 0.0
H330 H 0.84747 0.04864 0.97437 0.0
H331 H 0.85184 0.98498 0.86971 0.0
H332 H 0.93321 0.99777 0.61925 0.0
H333 H 0.90219 0.00093 0.6984 0.0
C334 C 0.52179 0.8209 0.10517 0.0
C335 C 0.50708 0.80495 0.08514 0.0
C336 C 0.52289 0.84021 0.0667 0.0
C337 C 0.51518 0.85963 0.88669 0.0
H338 H 0.51049 0.91719 0.9654 0.0
C339 C 0.50669 0.93322 0.70292 0.0
C340 C 0.51564 0.95288 0.72462 0.0
C341 C 0.50641 0.91565 0.74944 0.0
C342 C 0.51224 0.90126 0.94256 0.0
H343 H 0.48105 0.79707 0.01352 0.0
H344 H 0.48333 0.83047 0.94503 0.0
H345 H 0.50858 0.88612 0.04528 0.0
H346 H 0.53167 0.96938 0.8119 0.0
H347 H 0.5321 0.93851 0.89173 0.0
H348 H 0.51945 0.87437 0.78456 0.0
C349 C 0.49407 0.82806 0.98988 0.0
C350 C 0.51103 0.88351 0.98843 0.0
C351 C 0.49277 0.80902 0.02884 0.0
C352 C 0.52461 0.95447 0.79351 0.0
C353 C 0.52467 0.93678 0.83963 0.0
C354 C 0.51677 0.8773 0.84108 0.0
C355 C 0.50945 0.8436 0.00737 0.0
C356 C 0.51212 0.86256 0.96058 0.0
C357 C 0.51543 0.91715 0.81846 0.0
C358 C 0.51496 0.89838 0.86809 0.0
H359 H 0.53301 0.81798 0.14828 0.0
H360 H 0.53488 0.85202 0.08108 0.0
H361 H 0.51638 0.84358 0.86417 0.0
H362 H 0.49943 0.93151 0.6505 0.0
H363 H 0.49872 0.90101 0.73155 0.0
C364 C 0.69991 0.46021 0.04933 0.0
C365 C 0.70865 0.47793 0.0855 0.0
C366 C 0.68153 0.46253 0.00755 0.0
C367 C 0.65096 0.50435 0.91021 0.0
H368 H 0.61009 0.45812 0.88474 0.0
C369 C 0.57249 0.51287 0.74723 0.0
C370 C 0.56703 0.49574 0.70137 0.0
C371 C 0.58988 0.51115 0.79394 0.0
C372 C 0.62149 0.47109 0.89084 0.0
H373 H 0.70465 0.51169 0.10966 0.0
H374 H 0.6719 0.51578 0.03873 0.0
H375 H 0.63866 0.45437 0.97276 0.0
H376 H 0.57588 0.46349 0.6678 0.0
H377 H 0.60622 0.46046 0.74988 0.0
H378 H 0.63348 0.52115 0.82883 0.0
C379 C 0.67953 0.50015 0.04098 0.0
C380 C 0.63789 0.46897 0.94133 0.0
C381 C 0.69807 0.4978 0.08245 0.0
C382 C 0.5797 0.47702 0.70213 0.0
C383 C 0.59695 0.4752 0.74957 0.0
C384 C 0.63443 0.50655 0.86024 0.0
C385 C 0.67133 0.48265 0.00152 0.0
C386 C 0.65297 0.48549 0.95129 0.0
C387 C 0.60206 0.49216 0.79654 0.0
C388 C 0.61963 0.48987 0.84959 0.0
H389 H 0.70783 0.44472 0.05136 0.0
H390 H 0.67591 0.44873 0.97758 0.0
H391 H 0.66248 0.51725 0.91525 0.0
H392 H 0.56311 0.52751 0.74806 0.0
H393 H 0.59335 0.52443 0.82973 0.0
C394 C 0.02598 0.68374 0.06479 0.0
C395 C 0.00961 0.69911 0.06077 0.0
C396 C 0.02388 0.66388 0.03016 0.0
C397 C 0.99508 0.63868 0.87892 0.0
H398 H 0.01921 0.58612 0.956 0.0
C399 C 0.0083 0.56222 0.70511 0.0
C400 C 0.00431 0.5422 0.73733 0.0
C401 C 0.0079 0.58118 0.74598 0.0
C402 C 0.0122 0.60059 0.93381 0.0
H403 H 0.97795 0.70583 0.02042 0.0
H404 H 0.97384 0.67083 0.96083 0.0
H405 H 0.01921 0.61872 0.02858 0.0
H406 H 0.99677 0.52656 0.83815 0.0
H407 H 0.99562 0.55943 0.90844 0.0
H408 H 0.98781 0.62044 0.78448 0.0
C409 C 0.9885 0.67416 0.98965 0.0
C410 C 0.0124 0.61937 0.97525 0.0
C411 C 0.99067 0.69404 0.02437 0.0
C412 C 0.99984 0.54165 0.81123 0.0
C413 C 0.99938 0.56054 0.85189 0.0
C414 C 0.99486 0.61987 0.83745 0.0
C415 C 0.00529 0.65901 0.99076 0.0
C416 C 0.00397 0.6387 0.94824 0.0
C417 C 0.00351 0.58056 0.82 0.0
C418 C 0.0035 0.6006 0.86423 0.0
H419 H 0.04075 0.68751 0.09238 0.0
H420 H 0.03722 0.65276 0.03169 0.0
H421 H 0.98869 0.65332 0.85593 0.0
H422 H 0.01188 0.56326 0.64842 0.0
H423 H 0.01142 0.59628 0.71975 0.0
C424 C 0.9939 0.19856 0.11032 0.0
C425 C 0.9793 0.21539 0.1209 0.0
C426 C 0.98799 0.17741 0.12434 0.0
C427 C 0.95374 0.14659 0.24076 0.0
H428 H 0.97487 0.09907 0.12541 0.0
C429 C 0.96107 0.06251 0.36151 0.0
C430 C 0.98222 0.05498 0.35583 0.0
C431 C 0.95384 0.07906 0.31687 0.0
C432 C 0.96864 0.11214 0.15786 0.0
H433 H 0.94716 0.22368 0.15373 0.0
H434 H 0.93681 0.18642 0.18102 0.0
H435 H 0.97512 0.13548 0.07653 0.0
H436 H 0.01172 0.05735 0.2952 0.0
H437 H 0.99924 0.08605 0.21794 0.0
H438 H 0.94863 0.12359 0.32385 0.0
C439 C 0.95275 0.18961 0.1609 0.0
C440 C 0.96881 0.13294 0.12995 0.0
C441 C 0.95864 0.21082 0.14588 0.0
C442 C 0.9954 0.06299 0.30122 0.0
C443 C 0.98814 0.07932 0.25638 0.0
C444 C 0.95364 0.12579 0.26878 0.0
C445 C 0.96741 0.17271 0.15031 0.0
C446 C 0.96233 0.15047 0.17246 0.0
C447 C 0.96758 0.0881 0.26544 0.0
C448 C 0.96209 0.10853 0.22889 0.0
H449 H 0.01002 0.20188 0.09235 0.0
H450 H 0.99981 0.16481 0.11734 0.0
H451 H 0.94872 0.15981 0.27481 0.0
H452 H 0.95055 0.05656 0.40309 0.0
H453 H 0.93785 0.08541 0.32464 0.0
C454 C 0.30225 0.99217 0.08609 0.0
C455 C 0.28757 0.97687 0.11059 0.0
C456 C 0.32355 0.99137 0.10797 0.0
C457 C 0.36298 0.95843 0.21359 0.0
H458 H 0.38728 0.01469 0.24975 0.0
C459 C 0.44258 0.97171 0.3713 0.0
C460 C 0.44186 0.98901 0.41987 0.0
C461 C 0.42594 0.96872 0.32187 0.0
C462 C 0.38072 0.99882 0.24023 0.0
H463 H 0.28344 0.94858 0.17606 0.0
H464 H 0.32017 0.9482 0.22014 0.0
H465 H 0.354 0.01195 0.18537 0.0
H466 H 0.42284 0.01608 0.45718 0.0
H467 H 0.39391 0.01053 0.37377 0.0
H468 H 0.38911 0.94564 0.27461 0.0
C469 C 0.31568 0.96026 0.18119 0.0
C470 C 0.36171 0.99718 0.20194 0.0
C471 C 0.29453 0.96067 0.15722 0.0
C472 C 0.42409 0.00283 0.41956 0.0
C473 C 0.40752 0.99974 0.3712 0.0
C474 C 0.38189 0.96013 0.25337 0.0
C475 C 0.33045 0.97579 0.15755 0.0
C476 C 0.35223 0.97702 0.18964 0.0
C477 C 0.40836 0.98292 0.32088 0.0
C478 C 0.39052 0.98044 0.26913 0.0
H479 H 0.29716 0.00502 0.051 0.0
H480 H 0.33445 0.00332 0.08707 0.0
H481 H 0.3565 0.94258 0.20357 0.0
H482 H 0.45612 0.96081 0.37063 0.0
H483 H 0.42699 0.95558 0.28381 0.0
C484 C 0.46698 0.29293 0.11583 0.0
C485 C 0.47986 0.27467 0.12399 0.0
C486 C 0.47479 0.31318 0.13459 0.0
C487 C 0.51437 0.33835 0.2525 0.0
H488 H 0.4975 0.39006 0.15114 0.0
C489 C 0.53047 0.42143 0.3733 0.0
C490 C 0.51163 0.43366 0.37935 0.0
C491 C 0.53128 0.40375 0.32689 0.0
C492 C 0.50246 0.37574 0.17967 0.0
H493 H 0.51103 0.26284 0.1547 0.0
H494 H 0.52492 0.29832 0.18818 0.0
H495 H 0.4898 0.35483 0.09884 0.0
H496 H 0.47956 0.43818 0.33755 0.0
H497 H 0.48095 0.40743 0.25703 0.0
H498 H 0.52632 0.35915 0.33445 0.0
C499 C 0.50868 0.29707 0.1684 0.0
C500 C 0.49797 0.3556 0.14997 0.0
C501 C 0.5008 0.27684 0.14967 0.0
C502 C 0.49423 0.42891 0.33448 0.0
C503 C 0.4951 0.4114 0.28782 0.0
C504 C 0.51892 0.35845 0.28201 0.0
C505 C 0.49569 0.31545 0.16165 0.0
C506 C 0.50326 0.3367 0.18725 0.0
C507 C 0.51335 0.39819 0.28536 0.0
C508 C 0.51239 0.37734 0.24701 0.0
H509 H 0.45079 0.29141 0.09582 0.0
H510 H 0.46425 0.32695 0.1298 0.0
H511 H 0.51847 0.32412 0.28295 0.0
H512 H 0.54416 0.42479 0.4071 0.0
H513 H 0.54562 0.39394 0.32551 0.0
C514 C 0.22123 0.53864 0.20495 0.0
C515 C 0.23007 0.52632 0.14939 0.0
C516 C 0.19958 0.53683 0.22193 0.0
C517 C 0.15361 0.49984 0.19842 0.0
H518 H 0.12426 0.54647 0.29589 0.0
C519 C 0.08942 0.484 0.40481 0.0
C520 C 0.07367 0.49938 0.42101 0.0
C521 C 0.10472 0.48802 0.35254 0.0
C522 C 0.1319 0.53338 0.26722 0.0
H523 H 0.22348 0.50254 0.06766 0.0
H524 H 0.18533 0.50036 0.09344 0.0
H525 H 0.15841 0.55317 0.23837 0.0
H526 H 0.06071 0.53053 0.39185 0.0
H527 H 0.08739 0.53745 0.29857 0.0
H528 H 0.12683 0.48022 0.22539 0.0
C529 C 0.1951 0.51094 0.12586 0.0
C530 C 0.15178 0.53712 0.2354 0.0
C531 C 0.2169 0.51233 0.11038 0.0
C532 C 0.07278 0.51844 0.38081 0.0
C533 C 0.08812 0.52243 0.32772 0.0
C534 C 0.13353 0.49624 0.22865 0.0
C535 C 0.18616 0.523 0.18246 0.0
C536 C 0.16338 0.52013 0.20381 0.0
C537 C 0.1046 0.50745 0.31426 0.0
C538 C 0.12297 0.51266 0.26682 0.0
H539 H 0.23113 0.5497 0.2351 0.0
H540 H 0.19355 0.54601 0.26701 0.0
H541 H 0.16188 0.48627 0.17465 0.0
H542 H 0.0905 0.46907 0.43444 0.0
H543 H 0.11732 0.47624 0.34506 0.0
C544 C 0.04146 0.7897 0.10388 0.0
C545 C 0.03103 0.7753 0.05765 0.0
C546 C 0.04659 0.81043 0.08063 0.0
C547 C 0.05263 0.84362 0.9176 0.0
H548 H 0.03096 0.8903 0.03545 0.0
C549 C 0.01262 0.92976 0.86538 0.0
C550 C 0.0263 0.93786 0.8122 0.0
C551 C 0.01883 0.91224 0.9071 0.0
C552 C 0.03728 0.87746 0.00223 0.0
H553 H 0.01792 0.7709 0.9515 0.0
H554 H 0.02733 0.8068 0.90984 0.0
H555 H 0.03183 0.85378 0.08334 0.0
H556 H 0.05785 0.93495 0.76456 0.0
H557 H 0.06873 0.90429 0.83772 0.0
H558 H 0.05684 0.86692 0.83494 0.0
C559 C 0.03179 0.80214 0.96372 0.0
C560 C 0.03796 0.8566 0.02987 0.0
C561 C 0.02644 0.78161 0.98729 0.0
C562 C 0.04688 0.92896 0.80473 0.0
C563 C 0.05308 0.91137 0.84643 0.0
C564 C 0.052 0.86445 0.89005 0.0
C565 C 0.04162 0.81689 0.01043 0.0
C566 C 0.0449 0.83937 0.98679 0.0
C567 C 0.03887 0.90241 0.89654 0.0
C568 C 0.04359 0.88147 0.93113 0.0
H569 H 0.04504 0.78506 0.15848 0.0
H570 H 0.05415 0.82149 0.1177 0.0
H571 H 0.05829 0.83065 0.88356 0.0
H572 H 0.99671 0.93635 0.87286 0.0
H573 H 0.00739 0.90563 0.94465 0.0
C574 C 0.71462 0.02317 0.0713 0.0
C575 C 0.73053 0.03898 0.07187 0.0
C576 C 0.69364 0.02845 0.05376 0.0
C577 C 0.66243 0.06306 0.94288 0.0
H578 H 0.61546 0.03869 0.05155 0.0
C579 C 0.57899 0.05223 0.8172 0.0
C580 C 0.57238 0.03068 0.82174 0.0
C581 C 0.59546 0.05986 0.86131 0.0
C582 C 0.62835 0.04581 0.02093 0.0
H583 H 0.73748 0.07252 0.05272 0.0
H584 H 0.70045 0.0818 0.01835 0.0
H585 H 0.65121 0.03991 0.10404 0.0
H586 H 0.57665 0.00068 0.87903 0.0
H587 H 0.60512 0.01387 0.95554 0.0
H588 H 0.63995 0.06744 0.85763 0.0
C589 C 0.70424 0.06543 0.03364 0.0
C590 C 0.64875 0.04655 0.05101 0.0
C591 C 0.72529 0.06017 0.05277 0.0
C592 C 0.58151 0.01733 0.87399 0.0
C593 C 0.59771 0.02498 0.9184 0.0
C594 C 0.64199 0.0622 0.91253 0.0
C595 C 0.68822 0.0496 0.03468 0.0
C596 C 0.66614 0.0542 0.01088 0.0
C597 C 0.60529 0.04613 0.9113 0.0
C598 C 0.62501 0.05255 0.94996 0.0
H599 H 0.71854 0.00662 0.0834 0.0
H600 H 0.68174 0.0158 0.05298 0.0
H601 H 0.67561 0.06897 0.91083 0.0
H602 H 0.5722 0.06287 0.77729 0.0
H603 H 0.60094 0.07626 0.85489 0.0
C604 C 0.49109 0.71859 0.05838 0.0
C605 C 0.50603 0.72577 0.1089 0.0
C606 C 0.49005 0.69687 0.03988 0.0
C607 C 0.52323 0.64741 0.04459 0.0
H608 H 0.47192 0.62317 0.96057 0.0
C609 C 0.52778 0.5833 0.82934 0.0
C610 C 0.51116 0.56847 0.81893 0.0
C611 C 0.52627 0.59904 0.8821 0.0
C612 C 0.4863 0.62939 0.98531 0.0
H613 H 0.53137 0.71607 0.18074 0.0
H614 H 0.52859 0.67787 0.15303 0.0
H615 H 0.46986 0.65719 0.02448 0.0
H616 H 0.48025 0.5579 0.85793 0.0
H617 H 0.47775 0.58537 0.95204 0.0
H618 H 0.53954 0.61936 0.00728 0.0
C619 C 0.51811 0.68898 0.12544 0.0
C620 C 0.48521 0.64918 0.02088 0.0
C621 C 0.51953 0.71082 0.1423 0.0
C622 C 0.49326 0.56921 0.8645 0.0
C623 C 0.49181 0.58499 0.91812 0.0
C624 C 0.52421 0.62744 0.01057 0.0
C625 C 0.50363 0.68173 0.07287 0.0
C626 C 0.50386 0.65894 0.0479 0.0
C627 C 0.50819 0.6003 0.92676 0.0
C628 C 0.50601 0.61873 0.9772 0.0
H629 H 0.48034 0.72988 0.03275 0.0
H630 H 0.47899 0.69215 0.99813 0.0
H631 H 0.538 0.65424 0.06443 0.0
H632 H 0.54181 0.58323 0.79524 0.0
H633 H 0.53899 0.61079 0.88564 0.0
C634 C 0.80159 0.4812 0.12714 0.0
C635 C 0.78619 0.46511 0.11821 0.0
C636 C 0.82306 0.47692 0.11305 0.0
C637 C 0.85649 0.44309 0.00043 0.0
H638 H 0.9021 0.47018 0.10868 0.0
C639 C 0.94015 0.45058 0.87968 0.0
C640 C 0.94706 0.47208 0.87881 0.0
C641 C 0.92367 0.44424 0.92565 0.0
C642 C 0.88957 0.46236 0.07822 0.0
H643 H 0.78073 0.43196 0.08866 0.0
H644 H 0.81855 0.42435 0.06212 0.0
H645 H 0.86595 0.4691 0.15842 0.0
H646 H 0.94351 0.50331 0.92959 0.0
H647 H 0.91478 0.49235 0.00907 0.0
H648 H 0.87973 0.43738 0.91858 0.0
C649 C 0.81402 0.44026 0.08051 0.0
C650 C 0.8689 0.46177 0.10659 0.0
C651 C 0.79249 0.44457 0.09525 0.0
C652 C 0.93839 0.48667 0.92855 0.0
C653 C 0.92204 0.48032 0.97465 0.0
C654 C 0.87714 0.44368 0.97208 0.0
C655 C 0.82951 0.45646 0.08896 0.0
C656 C 0.85199 0.45295 0.06658 0.0
C657 C 0.91396 0.45925 0.97185 0.0
C658 C 0.89369 0.45413 0.00935 0.0
H659 H 0.79689 0.49723 0.14363 0.0
H660 H 0.8345 0.48989 0.11845 0.0
H661 H 0.84378 0.4363 0.96812 0.0
H662 H 0.94663 0.43892 0.84222 0.0
H663 H 0.91792 0.42784 0.92293 0.0
C664 C 0.01469 0.22259 0.95606 0.0
C665 C 0.99487 0.23044 0.98005 0.0
C666 C 0.01561 0.20463 0.9103 0.0
C667 C 0.98319 0.15671 0.8724 0.0
H668 H 0.02199 0.14641 0.71371 0.0
C669 C 0.97247 0.08447 0.68476 0.0
C670 C 0.9906 0.0731 0.66093 0.0
C671 C 0.97457 0.10373 0.72266 0.0
C672 C 0.01125 0.14896 0.75852 0.0
H673 H 0.96063 0.22715 0.97131 0.0
H674 H 0.96202 0.19634 0.88988 0.0
H675 H 0.02261 0.18116 0.77641 0.0
H676 H 0.02528 0.07317 0.65848 0.0
H677 H 0.02897 0.107 0.72552 0.0
H678 H 0.97183 0.12472 0.85532 0.0
C679 C 0.9769 0.20355 0.90731 0.0
C680 C 0.01156 0.16889 0.79422 0.0
C681 C 0.97604 0.22137 0.95288 0.0
C682 C 0.01098 0.0815 0.67626 0.0
C683 C 0.0131 0.10095 0.71419 0.0
C684 C 0.98291 0.13691 0.83702 0.0
C685 C 0.99667 0.19434 0.88807 0.0
C686 C 0.99722 0.17311 0.85073 0.0
C687 C 0.99487 0.11226 0.73803 0.0
C688 C 0.99665 0.13286 0.77881 0.0
H689 H 0.02938 0.22919 0.97752 0.0
H690 H 0.03109 0.19794 0.89647 0.0
H691 H 0.9724 0.15915 0.91717 0.0
H692 H 0.9565 0.07858 0.67383 0.0
H693 H 0.96017 0.11214 0.73905 0.0
C694 C 0.28624 0.96113 0.94881 0.0
C695 C 0.27272 0.97886 0.95954 0.0
C696 C 0.30418 0.96277 0.9045 0.0
C697 C 0.3427 0.00329 0.84528 0.0
H698 H 0.3653 0.95613 0.73183 0.0
C699 C 0.42564 0.00561 0.6987 0.0
C700 C 0.43751 0.98636 0.69999 0.0
C701 C 0.40463 0.00621 0.7256 0.0
C702 C 0.35931 0.96942 0.76376 0.0
H703 H 0.26637 0.01176 0.92949 0.0
H704 H 0.29777 0.01475 0.85064 0.0
H705 H 0.32912 0.95395 0.77978 0.0
H706 H 0.43706 0.95305 0.73419 0.0
H707 H 0.40094 0.95421 0.78192 0.0
H708 H 0.37318 0.01852 0.83057 0.0
C709 C 0.2946 0.99959 0.87696 0.0
C710 C 0.33851 0.96819 0.79097 0.0
C711 C 0.27646 0.99781 0.9209 0.0
C712 C 0.42831 0.96809 0.73164 0.0
C713 C 0.40747 0.9687 0.75847 0.0
C714 C 0.36359 0.00452 0.81805 0.0
C715 C 0.30906 0.98229 0.8702 0.0
C716 C 0.33007 0.9849 0.83329 0.0
C717 C 0.39512 0.98757 0.75421 0.0
C718 C 0.37233 0.98736 0.77832 0.0
H719 H 0.28374 0.94651 0.9791 0.0
H720 H 0.31501 0.94918 0.90116 0.0
H721 H 0.33681 0.01635 0.87844 0.0
H722 H 0.43222 0.01992 0.67422 0.0
H723 H 0.39558 0.02102 0.72151 0.0
C724 C 0.49191 0.26776 0.955 0.0
C725 C 0.47114 0.26197 0.97525 0.0
C726 C 0.49532 0.28591 0.91264 0.0
C727 C 0.46958 0.32712 0.79774 0.0
H728 H 0.51493 0.36314 0.87321 0.0
C729 C 0.48683 0.41397 0.69413 0.0
C730 C 0.50857 0.41843 0.68159 0.0
C731 C 0.4808 0.39507 0.72985 0.0
C732 C 0.5023 0.35323 0.85109 0.0
H733 H 0.43761 0.26966 0.96535 0.0
H734 H 0.44338 0.30146 0.89002 0.0
H735 H 0.50748 0.32868 0.92913 0.0
H736 H 0.54095 0.40672 0.69773 0.0
H737 H 0.53051 0.37414 0.7594 0.0
H738 H 0.46451 0.35188 0.7195 0.0
C739 C 0.45706 0.29191 0.90614 0.0
C740 C 0.4981 0.33341 0.88293 0.0
C741 C 0.4537 0.27368 0.94863 0.0
C742 C 0.52407 0.40384 0.70647 0.0
C743 C 0.51808 0.38516 0.7423 0.0
C744 C 0.47382 0.34705 0.7657 0.0
C745 C 0.47799 0.29871 0.89015 0.0
C746 C 0.48194 0.31994 0.856 0.0
C747 C 0.49641 0.38046 0.75426 0.0
C748 C 0.49047 0.36017 0.79141 0.0
H749 H 0.50552 0.25907 0.97631 0.0
H750 H 0.51162 0.29049 0.9002 0.0
H751 H 0.45699 0.31713 0.77588 0.0
H752 H 0.47452 0.42486 0.67535 0.0
H753 H 0.46396 0.39195 0.73868 0.0
C754 C 0.24587 0.52166 0.9484 0.0
C755 C 0.24619 0.53685 0.00401 0.0
C756 C 0.22859 0.52095 0.90057 0.0
C757 C 0.17901 0.55048 0.84411 0.0
H758 H 0.15778 0.49299 0.80689 0.0
C759 C 0.10265 0.5367 0.6773 0.0
C760 C 0.0889 0.51979 0.69646 0.0
C761 C 0.12272 0.53885 0.70928 0.0
C762 C 0.16334 0.50917 0.81734 0.0
H763 H 0.22996 0.56421 0.05035 0.0
H764 H 0.19978 0.56312 0.96794 0.0
H765 H 0.19182 0.49768 0.86812 0.0
H766 H 0.08549 0.49187 0.76469 0.0
H767 H 0.12033 0.49603 0.82277 0.0
H768 H 0.15005 0.56202 0.79712 0.0
C769 C 0.21273 0.55177 0.96 0.0
C770 C 0.18313 0.51188 0.85135 0.0
C771 C 0.23004 0.5525 0.00725 0.0
C772 C 0.09572 0.50506 0.74871 0.0
C773 C 0.11579 0.50738 0.78154 0.0
C774 C 0.15915 0.54778 0.81083 0.0
C775 C 0.21133 0.53546 0.90774 0.0
C776 C 0.19118 0.53259 0.8657 0.0
C777 C 0.12959 0.52433 0.76222 0.0
C778 C 0.15094 0.52709 0.7972 0.0
H779 H 0.25811 0.50933 0.94557 0.0
H780 H 0.22831 0.50847 0.86002 0.0
H781 H 0.18471 0.56668 0.85349 0.0
H782 H 0.09806 0.5482 0.63657 0.0
H783 H 0.13297 0.55181 0.69158 0.0
C784 C 0.99044 0.78784 0.14681 0.0
C785 C 1.00073 0.77033 0.17938 0.0
C786 C 0.98714 0.80699 0.18481 0.0
C787 C 0.98745 0.83209 0.36562 0.0
H788 H 0.00916 0.88197 0.2647 0.0
C789 C 0.9916 0.9176 0.49429 0.0
C790 C 0.01185 0.92724 0.48846 0.0
C791 C 0.98668 0.89912 0.45413 0.0
C792 C 0.00291 0.86823 0.29347 0.0
H793 H 0.01458 0.75847 0.2776 0.0
H794 H 0.00836 0.79178 0.34531 0.0
H795 H 0.00606 0.84764 0.20194 0.0
H796 H 0.04249 0.92559 0.43406 0.0
H797 H 0.0338 0.89381 0.36348 0.0
H798 H 0.98493 0.85267 0.45783 0.0
C799 C 0.00281 0.79078 0.29042 0.0
C800 C 0.00096 0.84859 0.25737 0.0
C801 C 0.0063 0.7717 0.25202 0.0
C802 C 0.02676 0.91852 0.43995 0.0
C803 C 0.02174 0.90036 0.39916 0.0
C804 C 0.98918 0.85184 0.40159 0.0
C805 C 0.99388 0.8089 0.25648 0.0
C806 C 0.99359 0.83018 0.29333 0.0
C807 C 0.00178 0.89024 0.40644 0.0
C808 C 0.99737 0.87001 0.36629 0.0
H809 H 0.9861 0.78706 0.09068 0.0
H810 H 0.97999 0.82055 0.15738 0.0
H811 H 0.98162 0.81822 0.39467 0.0
H812 H 0.97982 0.92391 0.53146 0.0
H813 H 0.97113 0.89172 0.46059 0.0
C814 C 0.73299 0.99991 0.22186 0.0
C815 C 0.74279 0.0199 0.21113 0.0
C816 C 0.71458 0.99835 0.26458 0.0
C817 C 0.67082 0.03407 0.33164 0.0
H818 H 0.65149 0.98224 0.4262 0.0
C819 C 0.58482 0.02916 0.4371 0.0
C820 C 0.58101 0.0181 0.50125 0.0
C821 C 0.60452 0.02733 0.40208 0.0
C822 C 0.65667 0.99697 0.40085 0.0
H823 H 0.74257 0.05344 0.24054 0.0
H824 H 0.71167 0.05065 0.31987 0.0
H825 H 0.6872 0.98338 0.37412 0.0
H826 H 0.59463 0.99604 0.57846 0.0
H827 H 0.62943 0.99357 0.51944 0.0
H828 H 0.64101 0.04814 0.36123 0.0
C829 C 0.71722 0.03628 0.29272 0.0
C830 C 0.67716 0.99753 0.36998 0.0
C831 C 0.7352 0.03788 0.2486 0.0
C832 C 0.59708 0.00461 0.52865 0.0
C833 C 0.61705 0.00318 0.49453 0.0
C834 C 0.65061 0.03366 0.36348 0.0
C835 C 0.70595 0.01673 0.29855 0.0
C836 C 0.68453 0.0161 0.33467 0.0
C837 C 0.62123 0.01489 0.43141 0.0
C838 C 0.64306 0.01506 0.398 0.0
H839 H 0.7385 0.98595 0.19229 0.0
H840 H 0.70645 0.98303 0.26708 0.0
H841 H 0.67548 0.04855 0.30361 0.0
H842 H 0.57262 0.03951 0.41437 0.0
H843 H 0.60667 0.036 0.35239 0.0
C844 C 0.51943 0.73944 0.30124 0.0
C845 C 0.50212 0.74375 0.25576 0.0
C846 C 0.51868 0.72188 0.34797 0.0
C847 C 0.48361 0.68147 0.43187 0.0
H848 H 0.52991 0.64149 0.39257 0.0
C849 C 0.47687 0.59222 0.50744 0.0
C850 C 0.49519 0.58147 0.53227 0.0
C851 C 0.47837 0.61288 0.47871 0.0
C852 C 0.51705 0.65254 0.40537 0.0
H853 H 0.46998 0.73469 0.22668 0.0
H854 H 0.46816 0.70448 0.31037 0.0
H855 H 0.53105 0.67766 0.34256 0.0
H856 H 0.52955 0.58383 0.5456 0.0
H857 H 0.53218 0.62012 0.49692 0.0
H858 H 0.46954 0.65652 0.49465 0.0
C859 C 0.48239 0.7144 0.3098 0.0
C860 C 0.51773 0.6733 0.37673 0.0
C861 C 0.48331 0.7317 0.26236 0.0
C862 C 0.51517 0.59163 0.52627 0.0
C863 C 0.51665 0.61245 0.4983 0.0
C864 C 0.48303 0.66082 0.46125 0.0
C865 C 0.50041 0.70873 0.35066 0.0
C866 C 0.50086 0.68784 0.38878 0.0
C867 C 0.49822 0.62347 0.47498 0.0
C868 C 0.49954 0.64592 0.44726 0.0
H869 H 0.53416 0.74842 0.29577 0.0
H870 H 0.53274 0.71791 0.37926 0.0
H871 H 0.47045 0.69242 0.44222 0.0
H872 H 0.46126 0.58473 0.51083 0.0
H873 H 0.46391 0.62055 0.45955 0.0
C874 C 0.77889 0.46102 0.28723 0.0
C875 C 0.76952 0.47955 0.25844 0.0
C876 C 0.79641 0.4626 0.33314 0.0
C877 C 0.83004 0.49881 0.44322 0.0
H878 H 0.87466 0.45906 0.38416 0.0
C879 C 0.91735 0.49844 0.55959 0.0
C880 C 0.92504 0.47788 0.57781 0.0
C881 C 0.89802 0.50072 0.52185 0.0
C882 C 0.86235 0.4702 0.40165 0.0
H883 H 0.76986 0.51427 0.25823 0.0
H884 H 0.80069 0.51725 0.33964 0.0
H885 H 0.84052 0.459 0.32195 0.0
H886 H 0.91838 0.44366 0.57081 0.0
H887 H 0.88513 0.44765 0.50562 0.0
H888 H 0.85218 0.50991 0.52332 0.0
C889 C 0.79442 0.50146 0.32702 0.0
C890 C 0.84272 0.4701 0.36621 0.0
C891 C 0.77672 0.49982 0.28107 0.0
C892 C 0.91304 0.45976 0.55758 0.0
C893 C 0.89397 0.46202 0.51975 0.0
C894 C 0.84983 0.49892 0.47892 0.0
C895 C 0.80505 0.48281 0.35078 0.0
C896 C 0.82614 0.48403 0.38753 0.0
C897 C 0.88624 0.48247 0.50105 0.0
C898 C 0.86602 0.48426 0.45938 0.0
H899 H 0.7736 0.44528 0.26971 0.0
H900 H 0.80391 0.44793 0.35183 0.0
H901 H 0.81762 0.50983 0.46055 0.0
H902 H 0.92619 0.51271 0.57468 0.0
H903 H 0.89247 0.51669 0.50797 0.0
loop_
_geom_bond_atom_site_label_1
_geom_bond_atom_site_label_2
_geom_bond_distance
_geom_bond_site_symmetry_2
_ccdc_geom_bond_type
C0 N1 1.317 . S
C0 N2 1.348 . S
C0 C3 1.485 . S
N1 C0 1.317 . S
N1 N5 1.370 . S
N2 C0 1.348 . S
N2 C4 1.346 1_554 S
C3 C0 1.485 . S
C3 H7 0.960 . S
C3 H8 0.961 . S
C3 H9 0.960 . S
C4 N2 1.346 1_556 S
C4 N5 1.307 1_556 S
C4 C6 1.486 . S
N5 N1 1.370 . S
N5 C4 1.307 1_554 S
C6 C4 1.486 . S
C6 H10 0.960 . S
C6 H11 0.960 . S
C6 H12 0.959 . S
H7 C3 0.960 . S
H8 C3 0.961 . S
H9 C3 0.960 . S
H10 C6 0.960 . S
H11 C6 0.960 . S
H12 C6 0.959 . S
C13 N14 1.317 . S
C13 N15 1.348 . S
C13 C16 1.485 . S
N14 C13 1.317 . S
N14 N18 1.370 . S
N15 C13 1.348 . S
N15 C17 1.346 1_554 S
C16 C13 1.485 . S
C16 H20 0.960 . S
C16 H21 0.961 . S
C16 H22 0.960 . S
C17 N15 1.346 1_556 S
C17 N18 1.307 1_556 S
C17 C19 1.486 . S
N18 N14 1.370 . S
N18 C17 1.307 1_554 S
C19 C17 1.486 . S
C19 H23 0.960 . S
C19 H24 0.960 . S
C19 H25 0.959 . S
H20 C16 0.960 . S
H21 C16 0.961 . S
H22 C16 0.960 . S
H23 C19 0.960 . S
H24 C19 0.960 . S
H25 C19 0.959 . S
C26 N27 1.317 . S
C26 N28 1.350 . S
C26 C29 1.485 . S
N27 C26 1.317 . S
N27 N31 1.371 . S
N28 C26 1.350 . S
N28 C30 1.345 1_564 S
C29 C26 1.485 . S
C29 H33 0.960 1_565 S
C29 H34 0.961 . S
C29 H35 0.960 . S
C30 N28 1.345 1_546 S
C30 N31 1.307 1_546 S
C30 C32 1.485 . S
N31 N27 1.371 . S
N31 C30 1.307 1_564 S
C32 C30 1.485 . S
C32 H36 0.924 1_545 S
C32 H37 0.990 . S
C32 H38 0.967 . S
H33 C29 0.960 1_545 S
H34 C29 0.961 . S
H35 C29 0.960 . S
H36 C32 0.924 1_565 S
H37 C32 0.990 . S
H38 C32 0.967 . S
C39 N40 1.317 . S
C39 N41 1.348 . S
C39 C42 1.485 . S
N40 C39 1.317 . S
N40 N44 1.370 . S
N41 C39 1.348 . S
N41 C43 1.346 1_554 S
C42 C39 1.485 . S
C42 H46 0.960 . S
C42 H47 0.961 . S
C42 H48 0.960 . S
C43 N41 1.346 1_556 S
C43 N44 1.307 1_556 S
C43 C45 1.486 . S
N44 N40 1.370 . S
N44 C43 1.307 1_554 S
C45 C43 1.486 . S
C45 H49 0.960 . S
C45 H50 0.960 . S
C45 H51 0.959 . S
H46 C42 0.960 . S
H47 C42 0.961 . S
H48 C42 0.960 . S
H49 C45 0.960 . S
H50 C45 0.960 . S
H51 C45 0.959 . S
C52 N53 1.317 . S
C52 N54 1.348 . S
C52 C55 1.485 . S
N53 C52 1.317 . S
N53 N57 1.370 . S
N54 C52 1.348 . S
N54 C56 1.346 . S
C55 C52 1.485 . S
C55 H59 0.960 . S
C55 H60 0.961 . S
C55 H61 0.960 . S
C56 N54 1.346 . S
C56 N57 1.307 . S
C56 C58 1.486 . S
N57 N53 1.370 . S
N57 C56 1.307 . S
C58 C56 1.486 . S
C58 H62 0.960 . S
C58 H63 0.960 . S
C58 H64 0.959 . S
H59 C55 0.960 . S
H60 C55 0.961 . S
H61 C55 0.960 . S
H62 C58 0.960 . S
H63 C58 0.960 . S
H64 C58 0.959 . S
C65 N66 1.317 . S
C65 N67 1.348 . S
C65 C68 1.485 . S
N66 C65 1.317 . S
N66 N70 1.370 . S
N67 C65 1.348 . S
N67 C69 1.346 . S
C68 C65 1.485 . S
C68 H72 0.960 . S
C68 H73 0.961 . S
C68 H74 0.960 . S
C69 N67 1.346 . S
C69 N70 1.307 . S
C69 C71 1.486 . S
N70 N66 1.370 . S
N70 C69 1.307 . S
C71 C69 1.486 . S
C71 H75 0.960 . S
C71 H76 0.960 . S
C71 H77 0.959 . S
H72 C68 0.960 . S
H73 C68 0.961 . S
H74 C68 0.960 . S
H75 C71 0.960 . S
H76 C71 0.960 . S
H77 C71 0.959 . S
C78 N79 1.317 . S
C78 N80 1.350 . S
C78 C81 1.485 . S
N79 C78 1.317 . S
N79 N83 1.370 . S
N80 C78 1.350 . S
N80 C82 1.345 1_565 S
C81 C78 1.485 . S
C81 H85 0.960 1_565 S
C81 H86 0.961 . S
C81 H87 0.960 . S
C82 N80 1.345 1_545 S
C82 N83 1.307 1_545 S
C82 C84 1.485 . S
N83 N79 1.370 . S
N83 C82 1.307 1_565 S
C84 C82 1.485 . S
C84 H88 0.913 1_545 S
C84 H89 0.999 . S
C84 H90 0.970 . S
H85 C81 0.960 1_545 S
H86 C81 0.961 . S
H87 C81 0.960 . S
H88 C84 0.913 1_565 S
H89 C84 0.999 . S
H90 C84 0.970 . S
C91 N92 1.317 . S
C91 N93 1.348 . S
C91 C94 1.485 . S
N92 C91 1.317 . S
N92 N96 1.370 . S
N93 C91 1.348 . S
N93 C95 1.346 . S
C94 C91 1.485 . S
C94 H98 0.960 . S
C94 H99 0.961 . S
C94 H100 0.960 . S
C95 N93 1.346 . S
C95 N96 1.307 . S
C95 C97 1.486 . S
N96 N92 1.370 . S
N96 C95 1.307 . S
C97 C95 1.486 . S
C97 H101 0.960 . S
C97 H102 0.960 . S
C97 H103 0.959 . S
H98 C94 0.960 . S
H99 C94 0.961 . S
H100 C94 0.960 . S
H101 C97 0.960 . S
H102 C97 0.960 . S
H103 C97 0.959 . S
Zn104 O110 1.969 1_455 S
Zn104 O111 1.965 . S
Zn104 O115 2.024 . S
Zn104 O120 1.969 1_455 S
Zn105 O112 1.969 . S
Zn105 O118 1.969 . S
Zn105 O119 1.965 1_455 S
Zn105 O121 2.024 1_455 S
C106 O107 1.229 . S
C106 O115 1.058 . S
O107 C106 1.229 . S
C108 O109 1.229 1_655 S
C108 O121 1.058 . S
O109 C108 1.229 1_455 S
O110 Zn104 1.969 1_655 S
O110 C113 1.267 1_655 S
O111 Zn104 1.965 . S
O111 C122 1.260 1_545 S
O112 Zn105 1.969 . S
O112 C122 1.258 . S
C113 O110 1.267 1_455 S
C113 O114 1.228 . S
O114 C113 1.228 . S
O115 Zn104 2.024 . S
O115 C106 1.058 . S
C116 O117 1.228 . S
C116 O118 1.267 1_655 S
O117 C116 1.228 . S
O118 Zn105 1.969 . S
O118 C116 1.267 1_455 S
O119 Zn105 1.965 1_655 S
O119 C123 1.260 1_565 S
O120 Zn104 1.969 1_655 S
O120 C123 1.258 . S
O121 Zn105 2.024 1_655 S
O121 C108 1.058 . S
C122 O111 1.260 1_565 S
C122 O112 1.258 . S
C123 O119 1.260 1_545 S
C123 O120 1.258 . S
Zn124 O130 1.969 . S
Zn124 O131 1.965 1_565 S
Zn124 O135 2.024 1_565 S
Zn124 O140 1.969 . S
Zn125 O132 1.969 . S
Zn125 O138 1.969 . S
Zn125 O139 1.965 1_545 S
Zn125 O141 2.024 1_545 S
C126 O127 1.229 1_545 S
C126 O135 1.058 . S
O127 C126 1.229 1_565 S
C128 O129 1.229 1_565 S
C128 O141 1.058 . S
O129 C128 1.229 1_545 S
O130 Zn124 1.969 . S
O130 C133 1.267 . S
O131 Zn124 1.965 1_545 S
O131 C142 1.260 . S
O132 Zn125 1.969 . S
O132 C142 1.258 . S
C133 O130 1.267 . S
C133 O134 1.228 1_565 S
O134 C133 1.228 1_545 S
O135 Zn124 2.024 1_545 S
O135 C126 1.058 . S
C136 O137 1.228 1_545 S
C136 O138 1.267 . S
O137 C136 1.228 1_565 S
O138 Zn125 1.969 . S
O138 C136 1.267 . S
O139 Zn125 1.965 1_565 S
O139 C143 1.260 . S
O140 Zn124 1.969 . S
O140 C143 1.258 . S
O141 Zn125 2.024 1_565 S
O141 C128 1.058 . S
C142 O131 1.260 . S
C142 O132 1.258 . S
C143 O139 1.260 . S
C143 O140 1.258 . S
Zn144 O150 1.969 . S
Zn144 O151 1.965 . S
Zn144 O155 2.024 . S
Zn144 O160 1.969 . S
Zn145 O152 1.969 . S
Zn145 O158 1.969 . S
Zn145 O159 1.965 . S
Zn145 O161 2.024 . S
C146 O147 1.229 . S
C146 O155 1.058 . S
O147 C146 1.229 . S
C148 O149 1.229 . S
C148 O161 1.058 . S
O149 C148 1.229 . S
O150 Zn144 1.969 . S
O150 C153 1.267 . S
O151 Zn144 1.965 . S
O151 C162 1.260 . S
O152 Zn145 1.969 . S
O152 C162 1.258 . S
C153 O150 1.267 . S
C153 O154 1.228 . S
O154 C153 1.228 . S
O155 Zn144 2.024 . S
O155 C146 1.058 . S
C156 O157 1.228 . S
C156 O158 1.267 . S
O157 C156 1.228 . S
O158 Zn145 1.969 . S
O158 C156 1.267 . S
O159 Zn145 1.965 . S
O159 C163 1.260 . S
O160 Zn144 1.969 . S
O160 C163 1.258 . S
O161 Zn145 2.024 . S
O161 C148 1.058 . S
C162 O151 1.260 . S
C162 O152 1.258 . S
C163 O159 1.260 . S
C163 O160 1.258 . S
Zn164 O170 1.969 . S
Zn164 O171 1.965 . S
Zn164 O175 2.024 . S
Zn164 O180 1.969 . S
Zn165 O172 1.969 . S
Zn165 O178 1.969 . S
Zn165 O179 1.965 . S
Zn165 O181 2.024 . S
C166 O167 1.229 . S
C166 O175 1.058 . S
O167 C166 1.229 . S
C168 O169 1.229 . S
C168 O181 1.058 . S
O169 C168 1.229 . S
O170 Zn164 1.969 . S
O170 C173 1.267 . S
O171 Zn164 1.965 . S
O171 C182 1.260 . S
O172 Zn165 1.969 . S
O172 C182 1.258 1_655 S
C173 O170 1.267 . S
C173 O174 1.228 . S
O174 C173 1.228 . S
O175 Zn164 2.024 . S
O175 C166 1.058 . S
C176 O177 1.228 . S
C176 O178 1.267 . S
O177 C176 1.228 . S
O178 Zn165 1.969 . S
O178 C176 1.267 . S
O179 Zn165 1.965 . S
O179 C183 1.260 1_655 S
O180 Zn164 1.969 . S
O180 C183 1.258 . S
O181 Zn165 2.024 . S
O181 C168 1.058 . S
C182 O171 1.260 . S
C182 O172 1.258 1_455 S
C183 O179 1.260 1_455 S
C183 O180 1.258 . S
C184 C185 1.346 . S
C184 C186 1.327 . S
C184 H209 0.950 . S
C185 C184 1.346 . S
C185 C201 1.352 1_545 S
C186 C184 1.327 . S
C186 C205 1.425 1_545 S
C186 H210 0.950 . S
C187 C204 1.574 . S
C187 C206 1.379 . S
C187 H211 0.949 . S
H188 C192 0.949 . S
C189 C190 1.385 . S
C189 C191 1.327 . S
C189 H212 0.950 . S
C190 C189 1.385 . S
C190 C202 1.313 1_565 S
C191 C189 1.327 . S
C191 C207 1.453 . S
C191 H213 0.950 . S
C192 H188 0.949 . S
C192 C200 1.574 . S
C192 C208 1.348 1_545 S
H193 C201 0.950 . S
H194 C199 0.950 . S
H195 C200 0.949 . S
H196 C202 0.950 . S
H197 C203 0.950 . S
H198 C204 0.949 . S
C199 H194 0.950 . S
C199 C201 1.327 . S
C199 C205 1.432 . S
C200 C192 1.574 . S
C200 H195 0.949 . S
C200 C206 1.358 1_545 S
C201 C185 1.352 1_565 S
C201 H193 0.950 . S
C201 C199 1.327 . S
C202 C190 1.313 1_545 S
C202 H196 0.950 . S
C202 C203 1.327 . S
C203 H197 0.950 . S
C203 C202 1.327 . S
C203 C207 1.404 1_545 S
C204 C187 1.574 . S
C204 H198 0.949 . S
C204 C208 1.389 . S
C205 C186 1.425 1_565 S
C205 C199 1.432 . S
C205 C206 1.523 . S
C206 C187 1.379 . S
C206 C200 1.358 1_565 S
C206 C205 1.523 . S
C207 C191 1.453 . S
C207 C203 1.404 1_565 S
C207 C208 1.523 . S
C208 C192 1.348 1_565 S
C208 C204 1.389 . S
C208 C207 1.523 . S
H209 C184 0.950 . S
H210 C186 0.950 . S
H211 C187 0.949 . S
H212 C189 0.950 . S
H213 C191 0.950 . S
C214 C215 1.349 . S
C214 C216 1.327 . S
C214 H239 0.950 . S
C215 C214 1.349 . S
C215 C231 1.349 . S
C216 C214 1.327 . S
C216 C235 1.429 . S
C216 H240 0.950 . S
C217 C234 1.574 . S
C217 C236 1.368 . S
C217 H241 0.949 . S
H218 C222 0.949 . S
C219 C220 1.349 . S
C219 C221 1.327 . S
C219 H242 0.950 . S
C220 C219 1.349 . S
C220 C232 1.349 . S
C221 C219 1.327 . S
C221 C237 1.429 . S
C221 H243 0.950 . S
C222 H218 0.949 . S
C222 C230 1.574 . S
C222 C238 1.368 . S
H223 C231 0.950 . S
H224 C229 0.950 . S
H225 C230 0.949 . S
H226 C232 0.950 . S
H227 C233 0.950 . S
H228 C234 0.949 . S
C229 H224 0.950 . S
C229 C231 1.327 . S
C229 C235 1.429 . S
C230 C222 1.574 . S
C230 H225 0.949 . S
C230 C236 1.368 . S
C231 C215 1.349 . S
C231 H223 0.950 . S
C231 C229 1.327 . S
C232 C220 1.349 . S
C232 H226 0.950 . S
C232 C233 1.327 . S
C233 H227 0.950 . S
C233 C232 1.327 . S
C233 C237 1.429 . S
C234 C217 1.574 . S
C234 H228 0.949 . S
C234 C238 1.368 . S
C235 C216 1.429 . S
C235 C229 1.429 . S
C235 C236 1.523 . S
C236 C217 1.368 . S
C236 C230 1.368 . S
C236 C235 1.523 . S
C237 C221 1.429 . S
C237 C233 1.429 . S
C237 C238 1.523 . S
C238 C222 1.368 . S
C238 C234 1.368 . S
C238 C237 1.523 . S
H239 C214 0.950 . S
H240 C216 0.950 . S
H241 C217 0.949 . S
H242 C219 0.950 . S
H243 C221 0.950 . S
C244 C245 1.349 . S
C244 C246 1.327 . S
C244 H269 0.950 . S
C245 C244 1.349 . S
C245 C261 1.349 . S
C246 C244 1.327 . S
C246 C265 1.429 . S
C246 H270 0.950 . S
C247 C264 1.574 . S
C247 C266 1.368 . S
C247 H271 0.949 . S
H248 C252 0.949 . S
C249 C250 1.349 . S
C249 C251 1.327 . S
C249 H272 0.950 . S
C250 C249 1.349 . S
C250 C262 1.349 . S
C251 C249 1.327 . S
C251 C267 1.429 . S
C251 H273 0.950 . S
C252 H248 0.949 . S
C252 C260 1.574 . S
C252 C268 1.368 . S
H253 C261 0.950 . S
H254 C259 0.950 . S
H255 C260 0.949 . S
H256 C262 0.950 . S
H257 C263 0.950 . S
H258 C264 0.949 . S
C259 H254 0.950 . S
C259 C261 1.327 . S
C259 C265 1.429 . S
C260 C252 1.574 . S
C260 H255 0.949 . S
C260 C266 1.368 . S
C261 C245 1.349 . S
C261 H253 0.950 . S
C261 C259 1.327 . S
C262 C250 1.349 . S
C262 H256 0.950 . S
C262 C263 1.327 . S
C263 H257 0.950 . S
C263 C262 1.327 . S
C263 C267 1.429 . S
C264 C247 1.574 . S
C264 H258 0.949 . S
C264 C268 1.368 . S
C265 C246 1.429 . S
C265 C259 1.429 . S
C265 C266 1.523 . S
C266 C247 1.368 . S
C266 C260 1.368 . S
C266 C265 1.523 . S
C267 C251 1.429 . S
C267 C263 1.429 . S
C267 C268 1.523 . S
C268 C252 1.368 . S
C268 C264 1.368 . S
C268 C267 1.523 . S
H269 C244 0.950 . S
H270 C246 0.950 . S
H271 C247 0.949 . S
H272 C249 0.950 . S
H273 C251 0.950 . S
C274 C275 1.349 . S
C274 C276 1.327 . S
C274 H299 0.950 . S
C275 C274 1.349 . S
C275 C291 1.349 . S
C276 C274 1.327 . S
C276 C295 1.429 . S
C276 H300 0.950 . S
C277 C294 1.574 . S
C277 C296 1.368 . S
C277 H301 0.956 . S
H278 C282 0.949 . S
C279 C280 1.349 1_655 S
C279 C281 1.331 . S
C279 H302 0.950 . S
C280 C279 1.349 1_455 S
C280 C292 1.349 . S
C281 C279 1.331 . S
C281 C297 1.406 1_655 S
C281 H303 0.969 . S
C282 H278 0.949 . S
C282 C290 1.574 . S
C282 C298 1.368 . S
H283 C291 0.950 . S
H284 C289 0.950 . S
H285 C290 0.949 . S
H286 C292 0.950 . S
H287 C293 0.950 . S
H288 C294 0.949 1_655 S
C289 H284 0.950 . S
C289 C291 1.327 . S
C289 C295 1.429 . S
C290 C282 1.574 . S
C290 H285 0.949 . S
C290 C296 1.368 . S
C291 C275 1.349 . S
C291 H283 0.950 . S
C291 C289 1.327 . S
C292 C280 1.349 . S
C292 H286 0.950 . S
C292 C293 1.327 . S
C293 H287 0.950 . S
C293 C292 1.327 . S
C293 C297 1.429 . S
C294 C277 1.574 . S
C294 H288 0.949 1_455 S
C294 C298 1.368 . S
C295 C276 1.429 . S
C295 C289 1.429 . S
C295 C296 1.523 . S
C296 C277 1.368 . S
C296 C290 1.368 . S
C296 C295 1.523 . S
C297 C281 1.406 1_455 S
C297 C293 1.429 . S
C297 C298 1.523 . S
C298 C282 1.368 . S
C298 C294 1.368 . S
C298 C297 1.523 . S
H299 C274 0.950 . S
H300 C276 0.950 . S
H301 C277 0.956 . S
H302 C279 0.950 . S
H303 C281 0.969 . S
C304 C305 1.350 1_554 S
C304 C306 1.327 1_554 S
C304 H329 0.950 . S
C305 C304 1.350 1_556 S
C305 C321 1.353 1_545 S
C306 C304 1.327 1_556 S
C306 C325 1.441 . S
C306 H330 0.950 . S
C307 C324 1.574 . S
C307 C326 1.349 1_565 S
C307 H331 0.949 . S
H308 C312 0.949 . S
C309 C310 1.349 1_565 S
C309 C311 1.327 . S
C309 H332 0.950 . S
C310 C309 1.349 1_545 S
C310 C322 1.349 . S
C311 C309 1.327 . S
C311 C327 1.397 1_565 S
C311 H333 0.950 . S
C312 H308 0.949 . S
C312 C320 1.574 . S
C312 C328 1.398 . S
H313 C321 0.950 . S
H314 C319 0.950 . S
H315 C320 0.949 . S
H316 C322 0.950 . S
H317 C323 0.950 . S
H318 C324 0.949 . S
C319 H314 0.950 . S
C319 C321 1.327 . S
C319 C325 1.416 1_565 S
C320 C312 1.574 . S
C320 H315 0.949 . S
C320 C326 1.388 . S
C321 C305 1.353 1_565 S
C321 H313 0.950 . S
C321 C319 1.327 . S
C322 C310 1.349 . S
C322 H316 0.950 . S
C322 C323 1.327 . S
C323 H317 0.950 . S
C323 C322 1.327 . S
C323 C327 1.461 . S
C324 C307 1.574 . S
C324 H318 0.949 . S
C324 C328 1.339 1_565 S
C325 C306 1.441 . S
C325 C319 1.416 1_545 S
C325 C326 1.523 . S
C326 C307 1.349 1_545 S
C326 C320 1.388 . S
C326 C325 1.523 . S
C327 C311 1.397 1_545 S
C327 C323 1.461 . S
C327 C328 1.523 . S
C328 C312 1.398 . S
C328 C324 1.339 1_545 S
C328 C327 1.523 . S
H329 C304 0.950 . S
H330 C306 0.950 . S
H331 C307 0.949 . S
H332 C309 0.950 . S
H333 C311 0.950 . S
C334 C335 1.349 1_554 S
C334 C336 1.327 1_554 S
C334 H359 0.950 . S
C335 C334 1.349 1_556 S
C335 C351 1.349 . S
C336 C334 1.327 1_556 S
C336 C355 1.429 . S
C336 H360 0.950 1_556 S
C337 C354 1.574 . S
C337 C356 1.368 . S
C337 H361 0.949 . S
H338 C342 0.949 . S
C339 C340 1.349 . S
C339 C341 1.327 . S
C339 H362 0.950 . S
C340 C339 1.349 . S
C340 C352 1.349 . S
C341 C339 1.327 . S
C341 C357 1.429 . S
C341 H363 0.950 . S
C342 H338 0.949 . S
C342 C350 1.574 . S
C342 C358 1.368 . S
H343 C351 0.950 . S
H344 C349 0.950 . S
H345 C350 0.949 . S
H346 C352 0.950 . S
H347 C353 0.950 . S
H348 C354 0.949 . S
C349 H344 0.950 . S
C349 C351 1.327 . S
C349 C355 1.429 . S
C350 C342 1.574 . S
C350 H345 0.949 . S
C350 C356 1.368 . S
C351 C335 1.349 . S
C351 H343 0.950 . S
C351 C349 1.327 . S
C352 C340 1.349 . S
C352 H346 0.950 . S
C352 C353 1.327 . S
C353 H347 0.950 . S
C353 C352 1.327 . S
C353 C357 1.429 . S
C354 C337 1.574 . S
C354 H348 0.949 . S
C354 C358 1.368 . S
C355 C336 1.429 . S
C355 C349 1.429 . S
C355 C356 1.523 . S
C356 C337 1.368 . S
C356 C350 1.368 . S
C356 C355 1.523 . S
C357 C341 1.429 . S
C357 C353 1.429 . S
C357 C358 1.523 . S
C358 C342 1.368 . S
C358 C354 1.368 . S
C358 C357 1.523 . S
H359 C334 0.950 . S
H360 C336 0.950 1_554 S
H361 C337 0.949 . S
H362 C339 0.950 . S
H363 C341 0.950 . S
C364 C365 1.348 1_554 S
C364 C366 1.327 1_554 S
C364 H389 0.950 . S
C365 C364 1.348 1_556 S
C365 C381 1.352 . S
C366 C364 1.327 1_556 S
C366 C385 1.429 . S
C366 H390 0.950 . S
C367 C384 1.574 . S
C367 C386 1.368 . S
C367 H391 0.949 . S
H368 C372 0.949 . S
C369 C370 1.349 . S
C369 C371 1.327 . S
C369 H392 0.950 . S
C370 C369 1.349 . S
C370 C382 1.349 . S
C371 C369 1.327 . S
C371 C387 1.429 . S
C371 H393 0.950 . S
C372 H368 0.949 . S
C372 C380 1.574 . S
C372 C388 1.368 . S
H373 C381 0.950 . S
H374 C379 0.950 . S
H375 C380 0.949 . S
H376 C382 0.950 . S
H377 C383 0.950 . S
H378 C384 0.949 . S
C379 H374 0.950 . S
C379 C381 1.327 . S
C379 C385 1.429 . S
C380 C372 1.574 . S
C380 H375 0.949 . S
C380 C386 1.368 . S
C381 C365 1.352 . S
C381 H373 0.950 . S
C381 C379 1.327 . S
C382 C370 1.349 . S
C382 H376 0.950 . S
C382 C383 1.327 . S
C383 H377 0.950 . S
C383 C382 1.327 . S
C383 C387 1.429 . S
C384 C367 1.574 . S
C384 H378 0.949 . S
C384 C388 1.368 . S
C385 C366 1.429 . S
C385 C379 1.429 . S
C385 C386 1.523 . S
C386 C367 1.368 . S
C386 C380 1.368 . S
C386 C385 1.523 . S
C387 C371 1.429 . S
C387 C383 1.429 . S
C387 C388 1.523 . S
C388 C372 1.368 . S
C388 C384 1.368 . S
C388 C387 1.523 . S
H389 C364 0.950 . S
H390 C366 0.950 . S
H391 C367 0.949 . S
H392 C369 0.950 . S
H393 C371 0.950 . S
C394 C395 1.349 1_554 S
C394 C396 1.327 1_554 S
C394 H419 0.950 . S
C395 C394 1.349 1_556 S
C395 C411 1.349 . S
C396 C394 1.327 1_556 S
C396 C415 1.429 . S
C396 H420 0.950 1_556 S
C397 C414 1.574 . S
C397 C416 1.368 . S
C397 H421 0.949 . S
H398 C402 0.949 . S
C399 C400 1.349 . S
C399 C401 1.327 . S
C399 H422 0.951 . S
C400 C399 1.349 . S
C400 C412 1.349 . S
C401 C399 1.327 . S
C401 C417 1.429 . S
C401 H423 0.950 . S
C402 H398 0.949 . S
C402 C410 1.574 . S
C402 C418 1.368 . S
H403 C411 0.950 . S
H404 C409 0.950 . S
H405 C410 0.949 . S
H406 C412 0.950 . S
H407 C413 0.950 . S
H408 C414 0.949 . S
C409 H404 0.950 . S
C409 C411 1.327 . S
C409 C415 1.429 . S
C410 C402 1.574 . S
C410 H405 0.949 . S
C410 C416 1.368 . S
C411 C395 1.349 . S
C411 H403 0.950 . S
C411 C409 1.327 . S
C412 C400 1.349 . S
C412 H406 0.950 . S
C412 C413 1.327 . S
C413 H407 0.950 . S
C413 C412 1.327 . S
C413 C417 1.429 . S
C414 C397 1.574 . S
C414 H408 0.949 . S
C414 C418 1.368 . S
C415 C396 1.429 . S
C415 C409 1.429 . S
C415 C416 1.523 . S
C416 C397 1.368 . S
C416 C410 1.368 . S
C416 C415 1.523 . S
C417 C401 1.429 . S
C417 C413 1.429 . S
C417 C418 1.523 . S
C418 C402 1.368 . S
C418 C414 1.368 . S
C418 C417 1.523 . S
H419 C394 0.950 . S
H420 C396 0.950 1_554 S
H421 C397 0.949 . S
H422 C399 0.951 . S
H423 C401 0.950 . S
C424 C425 1.349 . S
C424 C426 1.327 . S
C424 H449 0.950 . S
C425 C424 1.349 . S
C425 C441 1.349 . S
C426 C424 1.327 . S
C426 C445 1.429 . S
C426 H450 0.950 . S
C427 C444 1.574 . S
C427 C446 1.368 . S
C427 H451 0.949 . S
H428 C432 0.949 . S
C429 C430 1.349 1_655 S
C429 C431 1.327 1_655 S
C429 H452 0.950 . S
C430 C429 1.349 1_455 S
C430 C442 1.349 . S
C431 C429 1.327 1_455 S
C431 C447 1.429 . S
C431 H453 0.950 1_455 S
C432 H428 0.949 . S
C432 C440 1.574 . S
C432 C448 1.368 . S
H433 C441 0.950 . S
H434 C439 0.950 . S
H435 C440 0.949 . S
H436 C442 0.950 . S
H437 C443 0.950 . S
H438 C444 0.949 . S
C439 H434 0.950 . S
C439 C441 1.327 . S
C439 C445 1.429 . S
C440 C432 1.574 . S
C440 H435 0.949 . S
C440 C446 1.368 . S
C441 C425 1.349 . S
C441 H433 0.950 . S
C441 C439 1.327 . S
C442 C430 1.349 . S
C442 H436 0.950 . S
C442 C443 1.327 . S
C443 H437 0.950 . S
C443 C442 1.327 . S
C443 C447 1.429 . S
C444 C427 1.574 . S
C444 H438 0.949 . S
C444 C448 1.368 . S
C445 C426 1.429 . S
C445 C439 1.429 . S
C445 C446 1.523 . S
C446 C427 1.368 . S
C446 C440 1.368 . S
C446 C445 1.523 . S
C447 C431 1.429 . S
C447 C443 1.429 . S
C447 C448 1.523 . S
C448 C432 1.368 . S
C448 C444 1.368 . S
C448 C447 1.523 . S
H449 C424 0.950 . S
H450 C426 0.950 . S
H451 C427 0.949 . S
H452 C429 0.950 . S
H453 C431 0.950 1_655 S
C454 C455 1.352 . S
C454 C456 1.327 . S
C454 H479 0.950 . S
C455 C454 1.352 . S
C455 C471 1.345 1_545 S
C456 C454 1.327 . S
C456 C475 1.429 1_545 S
C456 H480 0.950 . S
C457 C474 1.574 . S
C457 C476 1.368 . S
C457 H481 0.949 . S
H458 C462 0.949 . S
C459 C460 1.349 . S
C459 C461 1.327 . S
C459 H482 0.950 . S
C460 C459 1.349 . S
C460 C472 1.349 1_565 S
C461 C459 1.327 . S
C461 C477 1.429 . S
C461 H483 0.950 . S
C462 H458 0.949 . S
C462 C470 1.574 . S
C462 C478 1.368 1_545 S
H463 C471 0.950 . S
H464 C469 0.950 . S
H465 C470 0.949 . S
H466 C472 0.950 . S
H467 C473 0.950 . S
H468 C474 0.949 . S
C469 H464 0.950 . S
C469 C471 1.327 . S
C469 C475 1.429 . S
C470 C462 1.574 . S
C470 H465 0.949 . S
C470 C476 1.368 1_545 S
C471 C455 1.345 1_565 S
C471 H463 0.950 . S
C471 C469 1.327 . S
C472 C460 1.349 1_545 S
C472 H466 0.950 . S
C472 C473 1.327 . S
C473 H467 0.950 . S
C473 C472 1.327 . S
C473 C477 1.429 1_545 S
C474 C457 1.574 . S
C474 H468 0.949 . S
C474 C478 1.368 . S
C475 C456 1.429 1_565 S
C475 C469 1.429 . S
C475 C476 1.523 . S
C476 C457 1.368 . S
C476 C470 1.368 1_565 S
C476 C475 1.523 . S
C477 C461 1.429 . S
C477 C473 1.429 1_565 S
C477 C478 1.523 . S
C478 C462 1.368 1_565 S
C478 C474 1.368 . S
C478 C477 1.523 . S
H479 C454 0.950 . S
H480 C456 0.950 . S
H481 C457 0.949 . S
H482 C459 0.950 . S
H483 C461 0.950 . S
C484 C485 1.349 . S
C484 C486 1.327 . S
C484 H509 0.950 . S
C485 C484 1.349 . S
C485 C501 1.349 . S
C486 C484 1.327 . S
C486 C505 1.429 . S
C486 H510 0.950 . S
C487 C504 1.574 . S
C487 C506 1.368 . S
C487 H511 0.949 . S
H488 C492 0.949 . S
C489 C490 1.349 . S
C489 C491 1.327 . S
C489 H512 0.950 . S
C490 C489 1.349 . S
C490 C502 1.349 . S
C491 C489 1.327 . S
C491 C507 1.429 . S
C491 H513 0.950 . S
C492 H488 0.949 . S
C492 C500 1.574 . S
C492 C508 1.368 . S
H493 C501 0.950 . S
H494 C499 0.950 . S
H495 C500 0.949 . S
H496 C502 0.950 . S
H497 C503 0.950 . S
H498 C504 0.949 . S
C499 H494 0.950 . S
C499 C501 1.327 . S
C499 C505 1.429 . S
C500 C492 1.574 . S
C500 H495 0.949 . S
C500 C506 1.368 . S
C501 C485 1.349 . S
C501 H493 0.950 . S
C501 C499 1.327 . S
C502 C490 1.349 . S
C502 H496 0.950 . S
C502 C503 1.327 . S
C503 H497 0.950 . S
C503 C502 1.327 . S
C503 C507 1.429 . S
C504 C487 1.574 . S
C504 H498 0.949 . S
C504 C508 1.368 . S
C505 C486 1.429 . S
C505 C499 1.429 . S
C505 C506 1.523 . S
C506 C487 1.368 . S
C506 C500 1.368 . S
C506 C505 1.523 . S
C507 C491 1.429 . S
C507 C503 1.429 . S
C507 C508 1.523 . S
C508 C492 1.368 . S
C508 C504 1.368 . S
C508 C507 1.523 . S
H509 C484 0.950 . S
H510 C486 0.950 . S
H511 C487 0.949 . S
H512 C489 0.950 . S
H513 C491 0.950 . S
C514 C515 1.349 . S
C514 C516 1.327 . S
C514 H539 0.950 . S
C515 C514 1.349 . S
C515 C531 1.349 . S
C516 C514 1.327 . S
C516 C535 1.429 . S
C516 H540 0.950 . S
C517 C534 1.574 . S
C517 C536 1.368 . S
C517 H541 0.949 . S
H518 C522 0.949 . S
C519 C520 1.349 . S
C519 C521 1.327 . S
C519 H542 0.950 . S
C520 C519 1.349 . S
C520 C532 1.349 . S
C521 C519 1.327 . S
C521 C537 1.429 . S
C521 H543 0.950 . S
C522 H518 0.949 . S
C522 C530 1.574 . S
C522 C538 1.368 . S
H523 C531 0.950 . S
H524 C529 0.950 . S
H525 C530 0.949 . S
H526 C532 0.950 . S
H527 C533 0.950 . S
H528 C534 0.949 . S
C529 H524 0.950 . S
C529 C531 1.327 . S
C529 C535 1.429 . S
C530 C522 1.574 . S
C530 H525 0.949 . S
C530 C536 1.368 . S
C531 C515 1.349 . S
C531 H523 0.950 . S
C531 C529 1.327 . S
C532 C520 1.349 . S
C532 H526 0.950 . S
C532 C533 1.327 . S
C533 H527 0.950 . S
C533 C532 1.327 . S
C533 C537 1.429 . S
C534 C517 1.574 . S
C534 H528 0.949 . S
C534 C538 1.368 . S
C535 C516 1.429 . S
C535 C529 1.429 . S
C535 C536 1.523 . S
C536 C517 1.368 . S
C536 C530 1.368 . S
C536 C535 1.523 . S
C537 C521 1.429 . S
C537 C533 1.429 . S
C537 C538 1.523 . S
C538 C522 1.368 . S
C538 C534 1.368 . S
C538 C537 1.523 . S
H539 C514 0.950 . S
H540 C516 0.950 . S
H541 C517 0.949 . S
H542 C519 0.950 . S
H543 C521 0.950 . S
C544 C545 1.349 1_554 S
C544 C546 1.327 1_554 S
C544 H569 0.950 . S
C545 C544 1.349 1_556 S
C545 C561 1.349 . S
C546 C544 1.327 1_556 S
C546 C565 1.429 . S
C546 H570 0.950 1_556 S
C547 C564 1.574 . S
C547 C566 1.368 . S
C547 H571 0.949 . S
H548 C552 0.918 1_455 S
C549 C550 1.349 1_655 S
C549 C551 1.327 . S
C549 H572 0.950 . S
C550 C549 1.349 1_455 S
C550 C562 1.349 . S
C551 C549 1.327 . S
C551 C567 1.429 . S
C551 H573 0.950 . S
C552 H548 0.918 1_655 S
C552 C560 1.584 . S
C552 C568 1.394 . S
H553 C561 0.950 . S
H554 C559 0.950 . S
H555 C560 0.935 1_455 S
H556 C562 0.950 . S
H557 C563 0.950 . S
H558 C564 0.949 . S
C559 H554 0.950 . S
C559 C561 1.327 . S
C559 C565 1.429 . S
C560 C552 1.584 . S
C560 H555 0.935 1_655 S
C560 C566 1.368 . S
C561 C545 1.349 . S
C561 H553 0.950 . S
C561 C559 1.327 . S
C562 C550 1.349 . S
C562 H556 0.950 . S
C562 C563 1.327 . S
C563 H557 0.950 . S
C563 C562 1.327 . S
C563 C567 1.429 1_455 S
C564 C547 1.574 . S
C564 H558 0.949 . S
C564 C568 1.368 . S
C565 C546 1.429 . S
C565 C559 1.429 . S
C565 C566 1.523 . S
C566 C547 1.368 . S
C566 C560 1.368 . S
C566 C565 1.523 . S
C567 C551 1.429 . S
C567 C563 1.429 1_655 S
C567 C568 1.523 . S
C568 C552 1.394 . S
C568 C564 1.368 . S
C568 C567 1.523 . S
H569 C544 0.950 . S
H570 C546 0.950 1_554 S
H571 C547 0.949 . S
H572 C549 0.950 . S
H573 C551 0.950 . S
C574 C575 1.353 1_565 S
C574 C576 1.327 1_554 S
C574 H599 0.950 . S
C575 C574 1.353 1_545 S
C575 C591 1.344 1_554 S
C576 C574 1.327 1_556 S
C576 C595 1.429 1_565 S
C576 H600 0.950 . S
C577 C594 1.574 . S
C577 C596 1.368 . S
C577 H601 0.949 . S
H578 C582 0.949 . S
C579 C580 1.349 . S
C579 C581 1.327 . S
C579 H602 0.950 . S
C580 C579 1.349 . S
C580 C592 1.349 1_545 S
C581 C579 1.327 . S
C581 C597 1.429 . S
C581 H603 0.950 . S
C582 H578 0.949 . S
C582 C590 1.574 . S
C582 C598 1.368 1_565 S
H583 C591 0.950 . S
H584 C589 0.950 . S
H585 C590 0.949 . S
H586 C592 0.950 . S
H587 C593 0.950 . S
H588 C594 0.949 . S
C589 H584 0.950 . S
C589 C591 1.327 . S
C589 C595 1.429 . S
C590 C582 1.574 . S
C590 H585 0.949 . S
C590 C596 1.368 1_565 S
C591 C575 1.344 1_556 S
C591 H583 0.950 . S
C591 C589 1.327 . S
C592 C580 1.349 1_565 S
C592 H586 0.950 . S
C592 C593 1.327 . S
C593 H587 0.950 . S
C593 C592 1.327 . S
C593 C597 1.429 1_565 S
C594 C577 1.574 . S
C594 H588 0.949 . S
C594 C598 1.368 . S
C595 C576 1.429 1_545 S
C595 C589 1.429 . S
C595 C596 1.523 . S
C596 C577 1.368 . S
C596 C590 1.368 1_545 S
C596 C595 1.523 . S
C597 C581 1.429 . S
C597 C593 1.429 1_545 S
C597 C598 1.523 . S
C598 C582 1.368 1_545 S
C598 C594 1.368 . S
C598 C597 1.523 . S
H599 C574 0.950 . S
H600 C576 0.950 . S
H601 C577 0.949 . S
H602 C579 0.950 . S
H603 C581 0.950 . S
C604 C605 1.349 1_554 S
C604 C606 1.327 . S
C604 H629 0.950 . S
C605 C604 1.349 1_556 S
C605 C621 1.349 . S
C606 C604 1.327 . S
C606 C625 1.429 1_554 S
C606 H630 0.950 . S
C607 C624 1.574 . S
C607 C626 1.368 . S
C607 H631 0.949 . S
H608 C612 0.949 . S
C609 C610 1.349 . S
C609 C611 1.327 . S
C609 H632 0.950 . S
C610 C609 1.349 . S
C610 C622 1.349 . S
C611 C609 1.327 . S
C611 C627 1.429 . S
C611 H633 0.950 . S
C612 H608 0.949 . S
C612 C620 1.574 . S
C612 C628 1.368 . S
H613 C621 0.950 . S
H614 C619 0.950 . S
H615 C620 0.949 . S
H616 C622 0.950 . S
H617 C623 0.950 . S
H618 C624 0.949 . S
C619 H614 0.950 . S
C619 C621 1.327 . S
C619 C625 1.429 . S
C620 C612 1.574 . S
C620 H615 0.949 . S
C620 C626 1.368 . S
C621 C605 1.349 . S
C621 H613 0.950 . S
C621 C619 1.327 . S
C622 C610 1.349 . S
C622 H616 0.950 . S
C622 C623 1.327 . S
C623 H617 0.950 . S
C623 C622 1.327 . S
C623 C627 1.429 . S
C624 C607 1.574 . S
C624 H618 0.949 . S
C624 C628 1.368 . S
C625 C606 1.429 1_556 S
C625 C619 1.429 . S
C625 C626 1.523 . S
C626 C607 1.368 . S
C626 C620 1.368 . S
C626 C625 1.523 . S
C627 C611 1.429 . S
C627 C623 1.429 . S
C627 C628 1.523 . S
C628 C612 1.368 . S
C628 C624 1.368 . S
C628 C627 1.523 . S
H629 C604 0.950 . S
H630 C606 0.950 . S
H631 C607 0.949 . S
H632 C609 0.950 . S
H633 C611 0.950 . S
C634 C635 1.349 . S
C634 C636 1.327 1_554 S
C634 H659 0.950 . S
C635 C634 1.349 . S
C635 C651 1.349 1_554 S
C636 C634 1.327 1_556 S
C636 C655 1.429 . S
C636 H660 0.950 1_556 S
C637 C654 1.574 . S
C637 C656 1.368 . S
C637 H661 0.949 . S
H638 C642 0.949 . S
C639 C640 1.349 . S
C639 C641 1.327 . S
C639 H662 0.950 . S
C640 C639 1.349 . S
C640 C652 1.349 . S
C641 C639 1.327 . S
C641 C657 1.429 . S
C641 H663 0.950 . S
C642 H638 0.949 . S
C642 C650 1.574 . S
C642 C658 1.368 . S
H643 C651 0.950 . S
H644 C649 0.950 . S
H645 C650 0.949 . S
H646 C652 0.950 . S
H647 C653 0.950 . S
H648 C654 0.949 . S
C649 H644 0.950 . S
C649 C651 1.327 . S
C649 C655 1.429 . S
C650 C642 1.574 . S
C650 H645 0.949 . S
C650 C656 1.368 . S
C651 C635 1.349 1_556 S
C651 H643 0.950 . S
C651 C649 1.327 . S
C652 C640 1.349 . S
C652 H646 0.950 . S
C652 C653 1.327 . S
C653 H647 0.950 . S
C653 C652 1.327 . S
C653 C657 1.429 . S
C654 C637 1.574 . S
C654 H648 0.949 . S
C654 C658 1.368 . S
C655 C636 1.429 . S
C655 C649 1.429 . S
C655 C656 1.523 . S
C656 C637 1.368 . S
C656 C650 1.368 . S
C656 C655 1.523 . S
C657 C641 1.429 . S
C657 C653 1.429 . S
C657 C658 1.523 . S
C658 C642 1.368 . S
C658 C654 1.368 . S
C658 C657 1.523 . S
H659 C634 0.950 . S
H660 C636 0.950 1_554 S
H661 C637 0.949 . S
H662 C639 0.950 . S
H663 C641 0.950 . S
C664 C665 1.349 . S
C664 C666 1.327 1_554 S
C664 H689 0.950 1_554 S
C665 C664 1.349 . S
C665 C681 1.349 . S
C666 C664 1.327 1_556 S
C666 C685 1.429 1_556 S
C666 H690 0.950 . S
C667 C684 1.574 1_554 S
C667 C686 1.368 1_554 S
C667 H691 0.949 . S
H668 C672 0.949 . S
C669 C670 1.349 . S
C669 C671 1.327 . S
C669 H692 0.950 . S
C670 C669 1.349 . S
C670 C682 1.349 . S
C671 C669 1.327 . S
C671 C687 1.429 . S
C671 H693 0.950 . S
C672 H668 0.949 . S
C672 C680 1.574 . S
C672 C688 1.368 . S
H673 C681 0.950 . S
H674 C679 0.950 . S
H675 C680 0.949 . S
H676 C682 0.950 . S
H677 C683 0.950 . S
H678 C684 0.949 . S
C679 H674 0.950 . S
C679 C681 1.327 . S
C679 C685 1.429 . S
C680 C672 1.574 . S
C680 H675 0.949 . S
C680 C686 1.368 . S
C681 C665 1.349 . S
C681 H673 0.950 . S
C681 C679 1.327 . S
C682 C670 1.349 . S
C682 H676 0.950 . S
C682 C683 1.327 . S
C683 H677 0.950 . S
C683 C682 1.327 . S
C683 C687 1.429 . S
C684 C667 1.574 1_556 S
C684 H678 0.949 . S
C684 C688 1.368 . S
C685 C666 1.429 1_554 S
C685 C679 1.429 . S
C685 C686 1.523 1_554 S
C686 C667 1.368 1_556 S
C686 C680 1.368 . S
C686 C685 1.523 1_556 S
C687 C671 1.429 . S
C687 C683 1.429 . S
C687 C688 1.523 . S
C688 C672 1.368 . S
C688 C684 1.368 . S
C688 C687 1.523 . S
H689 C664 0.950 1_556 S
H690 C666 0.950 . S
H691 C667 0.949 . S
H692 C669 0.950 . S
H693 C671 0.950 . S
C694 C695 1.328 1_565 S
C694 C696 1.327 1_554 S
C694 H719 0.950 . S
C695 C694 1.328 1_545 S
C695 C711 1.371 . S
C696 C694 1.327 1_556 S
C696 C715 1.429 1_565 S
C696 H720 0.950 . S
C697 C714 1.574 . S
C697 C716 1.368 . S
C697 H721 0.949 1_556 S
H698 C702 0.949 . S
C699 C700 1.349 . S
C699 C701 1.327 . S
C699 H722 0.950 . S
C700 C699 1.349 . S
C700 C712 1.349 1_545 S
C701 C699 1.327 . S
C701 C717 1.429 . S
C701 H723 0.950 . S
C702 H698 0.949 . S
C702 C710 1.574 . S
C702 C718 1.368 1_565 S
H703 C711 0.950 . S
H704 C709 0.950 . S
H705 C710 0.949 . S
H706 C712 0.950 . S
H707 C713 0.950 . S
H708 C714 0.949 . S
C709 H704 0.950 . S
C709 C711 1.327 . S
C709 C715 1.429 1_554 S
C710 C702 1.574 . S
C710 H705 0.949 . S
C710 C716 1.368 1_565 S
C711 C695 1.371 . S
C711 H703 0.950 . S
C711 C709 1.327 . S
C712 C700 1.349 1_565 S
C712 H706 0.950 . S
C712 C713 1.327 . S
C713 H707 0.950 . S
C713 C712 1.327 . S
C713 C717 1.429 1_565 S
C714 C697 1.574 . S
C714 H708 0.949 . S
C714 C718 1.368 . S
C715 C696 1.429 1_545 S
C715 C709 1.429 1_556 S
C715 C716 1.523 . S
C716 C697 1.368 . S
C716 C710 1.368 1_545 S
C716 C715 1.523 . S
C717 C701 1.429 . S
C717 C713 1.429 1_545 S
C717 C718 1.523 . S
C718 C702 1.368 1_545 S
C718 C714 1.368 . S
C718 C717 1.523 . S
H719 C694 0.950 . S
H720 C696 0.950 . S
H721 C697 0.949 1_554 S
H722 C699 0.950 . S
H723 C701 0.950 . S
C724 C725 1.349 . S
C724 C726 1.327 . S
C724 H749 0.950 . S
C725 C724 1.349 . S
C725 C741 1.349 . S
C726 C724 1.327 . S
C726 C745 1.429 . S
C726 H750 0.950 . S
C727 C744 1.574 . S
C727 C746 1.368 . S
C727 H751 0.949 . S
H728 C732 0.949 . S
C729 C730 1.349 . S
C729 C731 1.327 . S
C729 H752 0.950 . S
C730 C729 1.349 . S
C730 C742 1.349 . S
C731 C729 1.327 . S
C731 C747 1.429 . S
C731 H753 0.950 . S
C732 H728 0.949 . S
C732 C740 1.574 1_556 S
C732 C748 1.368 . S
H733 C741 0.950 1_556 S
H734 C739 0.950 . S
H735 C740 0.949 . S
H736 C742 0.950 . S
H737 C743 0.950 . S
H738 C744 0.949 . S
C739 H734 0.950 . S
C739 C741 1.327 1_556 S
C739 C745 1.429 1_556 S
C740 C732 1.574 1_554 S
C740 H735 0.949 . S
C740 C746 1.368 1_554 S
C741 C725 1.349 . S
C741 H733 0.950 1_554 S
C741 C739 1.327 1_554 S
C742 C730 1.349 . S
C742 H736 0.950 . S
C742 C743 1.327 . S
C743 H737 0.950 . S
C743 C742 1.327 . S
C743 C747 1.429 . S
C744 C727 1.574 . S
C744 H738 0.949 . S
C744 C748 1.368 . S
C745 C726 1.429 . S
C745 C739 1.429 1_554 S
C745 C746 1.523 1_554 S
C746 C727 1.368 . S
C746 C740 1.368 1_556 S
C746 C745 1.523 1_556 S
C747 C731 1.429 . S
C747 C743 1.429 . S
C747 C748 1.523 . S
C748 C732 1.368 . S
C748 C744 1.368 . S
C748 C747 1.523 . S
H749 C724 0.950 . S
H750 C726 0.950 . S
H751 C727 0.949 . S
H752 C729 0.950 . S
H753 C731 0.950 . S
C754 C755 1.349 . S
C754 C756 1.327 . S
C754 H779 0.950 . S
C755 C754 1.349 . S
C755 C771 1.349 . S
C756 C754 1.327 . S
C756 C775 1.429 1_554 S
C756 H780 0.950 . S
C757 C774 1.574 . S
C757 C776 1.368 . S
C757 H781 0.949 . S
H758 C762 0.949 . S
C759 C760 1.349 . S
C759 C761 1.327 . S
C759 H782 0.950 . S
C760 C759 1.349 . S
C760 C772 1.349 . S
C761 C759 1.327 . S
C761 C777 1.429 . S
C761 H783 0.950 . S
C762 H758 0.949 . S
C762 C770 1.574 . S
C762 C778 1.368 . S
H763 C771 0.950 . S
H764 C769 0.950 . S
H765 C770 0.949 1_554 S
H766 C772 0.950 . S
H767 C773 0.950 . S
H768 C774 0.949 . S
C769 H764 0.950 . S
C769 C771 1.327 1_556 S
C769 C775 1.429 . S
C770 C762 1.574 . S
C770 H765 0.949 1_556 S
C770 C776 1.368 . S
C771 C755 1.349 . S
C771 H763 0.950 . S
C771 C769 1.327 1_554 S
C772 C760 1.349 . S
C772 H766 0.950 . S
C772 C773 1.327 . S
C773 H767 0.950 . S
C773 C772 1.327 . S
C773 C777 1.429 . S
C774 C757 1.574 . S
C774 H768 0.949 . S
C774 C778 1.368 . S
C775 C756 1.429 1_556 S
C775 C769 1.429 . S
C775 C776 1.523 . S
C776 C757 1.368 . S
C776 C770 1.368 . S
C776 C775 1.523 . S
C777 C761 1.429 . S
C777 C773 1.429 . S
C777 C778 1.523 . S
C778 C762 1.368 . S
C778 C774 1.368 . S
C778 C777 1.523 . S
H779 C754 0.950 . S
H780 C756 0.950 . S
H781 C757 0.949 . S
H782 C759 0.950 . S
H783 C761 0.950 . S
C784 C785 1.349 . S
C784 C786 1.327 . S
C784 H809 0.950 . S
C785 C784 1.349 . S
C785 C801 1.349 . S
C786 C784 1.327 . S
C786 C805 1.429 . S
C786 H810 0.950 . S
C787 C804 1.574 . S
C787 C806 1.368 . S
C787 H811 0.949 . S
H788 C792 0.949 . S
C789 C790 1.349 . S
C789 C791 1.327 . S
C789 H812 0.950 . S
C790 C789 1.349 . S
C790 C802 1.349 . S
C791 C789 1.327 . S
C791 C807 1.429 . S
C791 H813 0.950 . S
C792 H788 0.949 . S
C792 C800 1.574 . S
C792 C808 1.368 . S
H793 C801 0.950 . S
H794 C799 0.950 . S
H795 C800 0.949 . S
H796 C802 0.950 . S
H797 C803 0.950 . S
H798 C804 0.949 . S
C799 H794 0.950 . S
C799 C801 1.327 . S
C799 C805 1.429 . S
C800 C792 1.574 . S
C800 H795 0.949 . S
C800 C806 1.368 . S
C801 C785 1.349 . S
C801 H793 0.950 . S
C801 C799 1.327 . S
C802 C790 1.349 . S
C802 H796 0.950 . S
C802 C803 1.327 . S
C803 H797 0.950 . S
C803 C802 1.327 . S
C803 C807 1.429 . S
C804 C787 1.574 . S
C804 H798 0.949 . S
C804 C808 1.368 . S
C805 C786 1.429 . S
C805 C799 1.429 . S
C805 C806 1.523 . S
C806 C787 1.368 . S
C806 C800 1.368 . S
C806 C805 1.523 . S
C807 C791 1.429 . S
C807 C803 1.429 . S
C807 C808 1.523 . S
C808 C792 1.368 . S
C808 C804 1.368 . S
C808 C807 1.523 . S
H809 C784 0.950 . S
H810 C786 0.950 . S
H811 C787 0.949 . S
H812 C789 0.950 . S
H813 C791 0.950 . S
C814 C815 1.362 . S
C814 C816 1.327 . S
C814 H839 0.950 . S
C815 C814 1.362 . S
C815 C831 1.337 1_565 S
C816 C814 1.327 . S
C816 C835 1.429 . S
C816 H840 0.950 . S
C817 C834 1.574 . S
C817 C836 1.368 1_545 S
C817 H841 0.949 . S
H818 C822 0.949 . S
C819 C820 1.349 1_545 S
C819 C821 1.327 . S
C819 H842 0.950 . S
C820 C819 1.349 1_565 S
C820 C832 1.349 . S
C821 C819 1.327 . S
C821 C837 1.429 1_545 S
C821 H843 0.950 . S
C822 H818 0.949 . S
C822 C830 1.574 . S
C822 C838 1.368 . S
H823 C831 0.950 . S
H824 C829 0.950 . S
H825 C830 0.949 . S
H826 C832 0.950 . S
H827 C833 0.950 . S
H828 C834 0.949 . S
C829 H824 0.950 . S
C829 C831 1.327 . S
C829 C835 1.429 1_545 S
C830 C822 1.574 . S
C830 H825 0.949 . S
C830 C836 1.368 . S
C831 C815 1.337 1_545 S
C831 H823 0.950 . S
C831 C829 1.327 . S
C832 C820 1.349 . S
C832 H826 0.950 . S
C832 C833 1.327 . S
C833 H827 0.950 . S
C833 C832 1.327 . S
C833 C837 1.429 . S
C834 C817 1.574 . S
C834 H828 0.949 . S
C834 C838 1.368 1_545 S
C835 C816 1.429 . S
C835 C829 1.429 1_565 S
C835 C836 1.523 . S
C836 C817 1.368 1_565 S
C836 C830 1.368 . S
C836 C835 1.523 . S
C837 C821 1.429 1_565 S
C837 C833 1.429 . S
C837 C838 1.523 . S
C838 C822 1.368 . S
C838 C834 1.368 1_565 S
C838 C837 1.523 . S
H839 C814 0.950 . S
H840 C816 0.950 . S
H841 C817 0.949 . S
H842 C819 0.950 . S
H843 C821 0.950 . S
C844 C845 1.349 . S
C844 C846 1.327 . S
C844 H869 0.950 . S
C845 C844 1.349 . S
C845 C861 1.349 . S
C846 C844 1.327 . S
C846 C865 1.429 . S
C846 H870 0.950 . S
C847 C864 1.574 . S
C847 C866 1.368 . S
C847 H871 0.949 . S
H848 C852 0.949 . S
C849 C850 1.349 . S
C849 C851 1.327 . S
C849 H872 0.950 . S
C850 C849 1.349 . S
C850 C862 1.349 . S
C851 C849 1.327 . S
C851 C867 1.429 . S
C851 H873 0.950 . S
C852 H848 0.949 . S
C852 C860 1.574 . S
C852 C868 1.368 . S
H853 C861 0.950 . S
H854 C859 0.950 . S
H855 C860 0.949 . S
H856 C862 0.950 . S
H857 C863 0.950 . S
H858 C864 0.949 . S
C859 H854 0.950 . S
C859 C861 1.327 . S
C859 C865 1.429 . S
C860 C852 1.574 . S
C860 H855 0.949 . S
C860 C866 1.368 . S
C861 C845 1.349 . S
C861 H853 0.950 . S
C861 C859 1.327 . S
C862 C850 1.349 . S
C862 H856 0.950 . S
C862 C863 1.327 . S
C863 H857 0.950 . S
C863 C862 1.327 . S
C863 C867 1.429 . S
C864 C847 1.574 . S
C864 H858 0.949 . S
C864 C868 1.368 . S
C865 C846 1.429 . S
C865 C859 1.429 . S
C865 C866 1.523 . S
C866 C847 1.368 . S
C866 C860 1.368 . S
C866 C865 1.523 . S
C867 C851 1.429 . S
C867 C863 1.429 . S
C867 C868 1.523 . S
C868 C852 1.368 . S
C868 C864 1.368 . S
C868 C867 1.523 . S
H869 C844 0.950 . S
H870 C846 0.950 . S
H871 C847 0.949 . S
H872 C849 0.950 . S
H873 C851 0.950 . S
C874 C875 1.349 . S
C874 C876 1.327 . S
C874 H899 0.950 . S
C875 C874 1.349 . S
C875 C891 1.349 . S
C876 C874 1.327 . S
C876 C895 1.429 . S
C876 H900 0.950 . S
C877 C894 1.574 . S
C877 C896 1.368 . S
C877 H901 0.949 . S
H878 C882 0.949 . S
C879 C880 1.349 . S
C879 C881 1.327 . S
C879 H902 0.950 . S
C880 C879 1.349 . S
C880 C892 1.349 . S
C881 C879 1.327 . S
C881 C897 1.429 . S
C881 H903 0.950 . S
C882 H878 0.949 . S
C882 C890 1.574 . S
C882 C898 1.368 . S
H883 C891 0.950 . S
H884 C889 0.950 . S
H885 C890 0.949 . S
H886 C892 0.950 . S
H887 C893 0.950 . S
H888 C894 0.949 . S
C889 H884 0.950 . S
C889 C891 1.327 . S
C889 C895 1.429 . S
C890 C882 1.574 . S
C890 H885 0.949 . S
C890 C896 1.368 . S
C891 C875 1.349 . S
C891 H883 0.950 . S
C891 C889 1.327 . S
C892 C880 1.349 . S
C892 H886 0.950 . S
C892 C893 1.327 . S
C893 H887 0.950 . S
C893 C892 1.327 . S
C893 C897 1.429 . S
C894 C877 1.574 . S
C894 H888 0.949 . S
C894 C898 1.368 . S
C895 C876 1.429 . S
C895 C889 1.429 . S
C895 C896 1.523 . S
C896 C877 1.368 . S
C896 C890 1.368 . S
C896 C895 1.523 . S
C897 C881 1.429 . S
C897 C893 1.429 . S
C897 C898 1.523 . S
C898 C882 1.368 . S
C898 C894 1.368 . S
C898 C897 1.523 . S
H899 C874 0.950 . S
H900 C876 0.950 . S
H901 C877 0.949 . S
H902 C879 0.950 . S
H903 C881 0.950 . S
C185 N80 1.488 1_545 S
C190 C122 1.474 . S
C220 C142 1.534 . S
C215 N93 1.537 . S
C250 C162 1.467 . S
C245 N54 1.487 . S
C280 C182 1.534 . S
C275 N67 1.543 . S
C310 C123 1.468 . S
C305 N28 1.484 1_546 S
C335 N41 1.551 1_556 S
C340 C143 1.540 . S
C365 N2 1.486 1_556 S
C370 C163 1.468 . S
C395 N15 1.550 1_556 S
C400 C183 1.534 1_655 S
C430 C113 0.674 . S
C425 N70 0.649 . S
C460 C133 0.669 . S
C455 N83 0.648 1_545 S
C490 C153 0.676 . S
C485 N96 0.657 . S
C515 N57 0.650 . S
C520 C173 0.671 . S
C545 N18 0.654 1_556 S
C550 C116 0.677 1_455 S
C580 C136 0.669 . S
C575 N31 0.648 1_545 S
C610 C156 0.675 . S
C605 N44 0.656 1_556 S
C635 N5 0.649 . S
C640 C176 0.671 . S
C665 N66 1.563 . S
C670 C106 1.459 . S
C695 N79 1.523 1_545 S
C700 C126 1.418 . S
C730 C146 1.461 . S
C725 N92 1.561 . S
C760 C166 1.416 . S
C755 N53 1.522 . S
C785 N14 1.572 . S
C790 C108 1.466 . S
C820 C128 1.418 . S
C815 N27 1.522 . S
C850 C148 1.461 . S
C845 N40 1.570 . S
C875 N1 1.519 . S
C880 C168 1.416 . S
