# Generated by pormake.
# Topology nom, (4,4)-cn, num edge types: 1
# Building blocks:
#     Node 0, Type 0, BuildingBlock: AZAVOO_clean_linker_0, # of connection points: 4
#     Node 1, Type 0, BuildingBlock: AZAVOO_clean_linker_0, # of connection points: 4
#     Node 2, Type 0, BuildingBlock: AZAVOO_clean_linker_0, # of connection points: 4
#     Node 3, Type 0, BuildingBlock: AZAVOO_clean_linker_0, # of connection points: 4
#     Node 4, Type 0, BuildingBlock: AZAVOO_clean_linker_0, # of connection points: 4
#     Node 5, Type 0, BuildingBlock: AZAVOO_clean_linker_0, # of connection points: 4
#     Node 6, Type 1, BuildingBlock: UXUYUI_clean_sbu_0, # of connection points: 4
#     Node 7, Type 1, BuildingBlock: UXUYUI_clean_sbu_0, # of connection points: 4
#     Node 8, Type 1, BuildingBlock: UXUYUI_clean_sbu_0, # of connection points: 4
#     Node 9, Type 1, BuildingBlock: UXUYUI_clean_sbu_0, # of connection points: 4
#     Node 10, Type 1, BuildingBlock: UXUYUI_clean_sbu_0, # of connection points: 4
#     Node 11, Type 1, BuildingBlock: UXUYUI_clean_sbu_0, # of connection points: 4
#     Edge 12, Type (0, 1), BuildingBlock: OJICUG_clean_linker_0, # of connection points: 2
#     Edge 13, Type (0, 1), BuildingBlock: OJICUG_clean_linker_0, # of connection points: 2
#     Edge 14, Type (0, 1), BuildingBlock: OJICUG_clean_linker_0, # of connection points: 2
#     Edge 15, Type (0, 1), BuildingBlock: OJICUG_clean_linker_0, # of connection points: 2
#     Edge 16, Type (0, 1), BuildingBlock: OJICUG_clean_linker_0, # of connection points: 2
#     Edge 17, Type (0, 1), BuildingBlock: OJICUG_clean_linker_0, # of connection points: 2
#     Edge 18, Type (0, 1), BuildingBlock: OJICUG_clean_linker_0, # of connection points: 2
#     Edge 19, Type (0, 1), BuildingBlock: OJICUG_clean_linker_0, # of connection points: 2
#     Edge 20, Type (0, 1), BuildingBlock: OJICUG_clean_linker_0, # of connection points: 2
#     Edge 21, Type (0, 1), BuildingBlock: OJICUG_clean_linker_0, # of connection points: 2
#     Edge 22, Type (0, 1), BuildingBlock: OJICUG_clean_linker_0, # of connection points: 2
#     Edge 23, Type (0, 1), BuildingBlock: OJICUG_clean_linker_0, # of connection points: 2
#     Edge 24, Type (0, 1), BuildingBlock: OJICUG_clean_linker_0, # of connection points: 2
#     Edge 25, Type (0, 1), BuildingBlock: OJICUG_clean_linker_0, # of connection points: 2
#     Edge 26, Type (0, 1), BuildingBlock: OJICUG_clean_linker_0, # of connection points: 2
#     Edge 27, Type (0, 1), BuildingBlock: OJICUG_clean_linker_0, # of connection points: 2
#     Edge 28, Type (0, 1), BuildingBlock: OJICUG_clean_linker_0, # of connection points: 2
#     Edge 29, Type (0, 1), BuildingBlock: OJICUG_clean_linker_0, # of connection points: 2
#     Edge 30, Type (0, 1), BuildingBlock: OJICUG_clean_linker_0, # of connection points: 2
#     Edge 31, Type (0, 1), BuildingBlock: OJICUG_clean_linker_0, # of connection points: 2
#     Edge 32, Type (0, 1), BuildingBlock: OJICUG_clean_linker_0, # of connection points: 2
#     Edge 33, Type (0, 1), BuildingBlock: OJICUG_clean_linker_0, # of connection points: 2
#     Edge 34, Type (0, 1), BuildingBlock: OJICUG_clean_linker_0, # of connection points: 2
#     Edge 35, Type (0, 1), BuildingBlock: OJICUG_clean_linker_0, # of connection points: 2
# Relax obj value: 0.178
# Max RMSD: 0.225
# Mean RMSD: 0.184
data_MOF--net-nom--node1-UXUYUI_clean_sbu_0--node2-AZAVOO_clean_linker_0--edge1-OJICUG_clean_linker_0
_symmetry_space_group_name_H-M    P1
_symmetry_Int_Tables_number       1
_symmetry_cell_setting            triclinic
loop_
_symmetry_equiv_pos_as_xyz
'x, y, z'
_cell_length_a     46.869368
_cell_length_b     47.796817
_cell_length_c     58.473702
_cell_angle_alpha  89.994984
_cell_angle_beta   89.876025
_cell_angle_gamma 121.34587
loop_
_atom_site_label
_atom_site_type_symbol
_atom_site_fract_x
_atom_site_fract_y
_atom_site_fract_z
_atom_type_partial_charge
H0 H 0.09882 0.49927 0.17009 0.0
H1 H 0.22419 0.65222 0.41596 0.0
H2 H 0.00676 0.45545 0.28795 0.0
H3 H 0.96821 0.42856 0.25607 0.0
H4 H 0.96804 0.51753 0.24309 0.0
H5 H 0.0059 0.5438 0.27533 0.0
H6 H 0.08624 0.49327 0.26977 0.0
H7 H 0.09385 0.4887 0.22879 0.0
H8 H 0.07364 0.56574 0.21529 0.0
H9 H 0.06637 0.57017 0.25634 0.0
H10 H 0.15026 0.5401 0.30484 0.0
H11 H 0.20758 0.57879 0.29195 0.0
H12 H 0.17803 0.64731 0.27219 0.0
H13 H 0.12108 0.60847 0.28481 0.0
H14 H 0.12457 0.52274 0.35102 0.0
H15 H 0.16797 0.54835 0.38033 0.0
H16 H 0.16933 0.63893 0.37191 0.0
H17 H 0.1259 0.61295 0.34265 0.0
H18 H 0.05643 0.48918 0.36783 0.0
H19 H 0.07485 0.49999 0.40743 0.0
H20 H 0.07592 0.59096 0.40481 0.0
H21 H 0.05866 0.58029 0.36474 0.0
H22 H 0.98658 0.46828 0.34868 0.0
H23 H 0.9333 0.45886 0.36389 0.0
H24 H 0.95376 0.54995 0.3334 0.0
H25 H 0.00626 0.55873 0.31815 0.0
O26 O 0.09595 0.50165 0.18621 0.0
O27 O 0.08528 0.54126 0.18017 0.0
O28 O 0.20745 0.59524 0.40679 0.0
O29 O 0.20816 0.64197 0.40373 0.0
C30 C 0.03753 0.51931 0.29972 0.0
C31 C 0.07022 0.53384 0.29073 0.0
C32 C 0.09794 0.55021 0.30536 0.0
C33 C 0.09309 0.54932 0.32916 0.0
C34 C 0.06038 0.53438 0.33825 0.0
C35 C 0.03268 0.52106 0.32341 0.0
C36 C 0.00879 0.5014 0.28406 0.0
C37 C 0.99749 0.46871 0.27864 0.0
C38 C 0.9759 0.45359 0.26022 0.0
C39 C 0.96537 0.47102 0.24682 0.0
C40 C 0.97537 0.50328 0.25315 0.0
C41 C 0.99691 0.51833 0.27162 0.0
C42 C 0.07554 0.53187 0.26592 0.0
C43 C 0.08357 0.50917 0.25791 0.0
C44 C 0.08784 0.50659 0.23451 0.0
C45 C 0.08423 0.52678 0.21874 0.0
C46 C 0.0765 0.54976 0.22695 0.0
C47 C 0.07228 0.55232 0.25036 0.0
C48 C 0.1317 0.57159 0.29568 0.0
C49 C 0.15623 0.56332 0.29744 0.0
C50 C 0.18888 0.58547 0.29019 0.0
C51 C 0.19731 0.61613 0.28109 0.0
C52 C 0.17226 0.62375 0.27878 0.0
C53 C 0.13977 0.60166 0.28604 0.0
C54 C 0.12223 0.56605 0.34475 0.0
C55 C 0.13468 0.54825 0.35531 0.0
C56 C 0.15932 0.56289 0.3721 0.0
C57 C 0.17198 0.59566 0.37856 0.0
C58 C 0.16008 0.61366 0.3674 0.0
C59 C 0.13544 0.59897 0.3506 0.0
C60 C 0.05644 0.53403 0.36341 0.0
C61 C 0.05903 0.51063 0.37616 0.0
C62 C 0.06979 0.51702 0.39885 0.0
C63 C 0.07779 0.54683 0.40918 0.0
C64 C 0.07089 0.5682 0.39717 0.0
C65 C 0.06038 0.56188 0.3744 0.0
C66 C -9e-05 0.51392 0.33207 0.0
C67 C 0.97927 0.48595 0.3452 0.0
C68 C 0.94905 0.48078 0.35397 0.0
C69 C 0.93921 0.50359 0.34974 0.0
C70 C 0.9602 0.53158 0.3366 0.0
C71 C 0.99024 0.53668 0.3279 0.0
C72 C 0.0885 0.52378 0.19388 0.0
C73 C 0.197 0.61085 0.39716 0.0
H74 H 0.57439 0.07512 0.34067 0.0
H75 H 0.58238 0.20704 0.58835 0.0
H76 H 0.56993 -0.00131 0.46609 0.0
H77 H 0.56598 0.96263 0.435 0.0
H78 H 0.46884 0.94581 0.41724 0.0
H79 H 0.47291 0.98178 0.44867 0.0
H80 H 0.58708 0.05728 0.43831 0.0
H81 H 0.59065 0.06513 0.3968 0.0
H82 H 0.49757 0.06361 0.39793 0.0
H83 H 0.49422 0.05547 0.43942 0.0
H84 H 0.60601 0.12312 0.46411 0.0
H85 H 0.62188 0.17797 0.45048 0.0
H86 H 0.52226 0.15701 0.46539 0.0
H87 H 0.50667 0.1023 0.47884 0.0
H88 H 0.60772 0.10658 0.52394 0.0
H89 H 0.62868 0.15152 0.55154 0.0
H90 H 0.53327 0.14528 0.55008 0.0
H91 H 0.51255 0.10009 0.52273 0.0
H92 H 0.57921 0.03015 0.53592 0.0
H93 H 0.5947 0.04023 0.57635 0.0
H94 H 0.51211 0.05428 0.58903 0.0
H95 H 0.49645 0.04345 0.54873 0.0
H96 H 0.53723 0.96375 0.50043 0.0
H97 H 0.50016 0.90727 0.51396 0.0
H98 H 0.42771 0.93197 0.53523 0.0
H99 H 0.4637 0.98756 0.52053 0.0
O100 O 0.57252 0.07207 0.35708 0.0
O101 O 0.52472 0.07135 0.35861 0.0
O102 O 0.6233 0.19148 0.57762 0.0
O103 O 0.57488 0.1896 0.57726 0.0
C104 C 0.52715 0.01879 0.47578 0.0
C105 C 0.53793 0.05028 0.46685 0.0
C106 C 0.546 0.07649 0.48179 0.0
C107 C 0.54572 0.07188 0.50558 0.0
C108 C 0.53436 0.0403 0.51452 0.0
C109 C 0.52334 0.01337 0.49966 0.0
C110 C 0.52144 0.99231 0.45986 0.0
C111 C 0.54732 0.98631 0.45597 0.0
C112 C 0.54507 0.96582 0.43818 0.0
C113 C 0.51714 0.95148 0.4237 0.0
C114 C 0.49073 0.9567 0.4281 0.0
C115 C 0.49284 0.97693 0.44611 0.0
C116 C 0.54037 0.05575 0.44178 0.0
C117 C 0.5675 0.05862 0.42952 0.0
C118 C 0.56947 0.06312 0.40583 0.0
C119 C 0.54438 0.06497 0.39403 0.0
C120 C 0.51731 0.06228 0.40648 0.0
C121 C 0.51535 0.05769 0.43016 0.0
C122 C 0.55533 0.10901 0.47258 0.0
C123 C 0.58765 0.1304 0.46425 0.0
C124 C 0.59657 0.16156 0.45643 0.0
C125 C 0.57332 0.17177 0.457 0.0
C126 C 0.54079 0.14995 0.46504 0.0
C127 C 0.53184 0.11876 0.47266 0.0
C128 C 0.55878 0.10039 0.52121 0.0
C129 C 0.59152 0.11518 0.52948 0.0
C130 C 0.60337 0.14075 0.54528 0.0
C131 C 0.58265 0.15203 0.553 0.0
C132 C 0.5499 0.13726 0.54446 0.0
C133 C 0.53806 0.1116 0.52874 0.0
C134 C 0.53696 0.03644 0.53943 0.0
C135 C 0.56369 0.03408 0.54764 0.0
C136 C 0.57268 0.04015 0.57066 0.0
C137 C 0.55498 0.04862 0.58576 0.0
C138 C 0.52616 0.04768 0.57788 0.0
C139 C 0.51719 0.04158 0.55485 0.0
C140 C 0.50291 0.97967 0.50903 0.0
C141 C 0.51316 0.95685 0.50761 0.0
C142 C 0.49217 0.92477 0.51554 0.0
C143 C 0.46121 0.91548 0.5256 0.0
C144 C 0.45158 0.93865 0.52767 0.0
C145 C 0.4721 0.97034 0.51928 0.0
C146 C 0.54649 0.06966 0.36886 0.0
C147 C 0.59496 0.17889 0.57002 0.0
H148 H 0.56182 0.49434 0.80052 0.0
H149 H 0.5736 0.3789 0.55751 0.0
H150 H 0.55948 0.56243 0.68677 0.0
H151 H 0.55534 0.58707 0.7223 0.0
H152 H 0.44794 0.52463 0.72047 0.0
H153 H 0.45226 0.49937 0.68497 0.0
H154 H 0.57681 0.51034 0.70124 0.0
H155 H 0.58072 0.50785 0.74284 0.0
H156 H 0.47289 0.45378 0.74761 0.0
H157 H 0.46936 0.45612 0.70596 0.0
H158 H 0.59078 0.47549 0.66161 0.0
H159 H 0.6031 0.43445 0.67538 0.0
H160 H 0.49901 0.37015 0.69297 0.0
H161 H 0.48695 0.41125 0.67909 0.0
H162 H 0.59213 0.50728 0.61592 0.0
H163 H 0.61452 0.48399 0.58922 0.0
H164 H 0.52344 0.38947 0.59573 0.0
H165 H 0.50122 0.41321 0.62225 0.0
H166 H 0.56589 0.55414 0.60885 0.0
H167 H 0.58858 0.56009 0.57031 0.0
H168 H 0.5073 0.46284 0.55366 0.0
H169 H 0.48505 0.45695 0.59237 0.0
H170 H 0.5176 0.57314 0.64793 0.0
H171 H 0.47967 0.59121 0.63611 0.0
H172 H 0.41545 0.49707 0.60424 0.0
H173 H 0.45181 0.47851 0.61771 0.0
O174 O 0.5597 0.49441 0.78407 0.0
O175 O 0.50418 0.46669 0.78559 0.0
O176 O 0.61179 0.43775 0.56552 0.0
O177 O 0.56547 0.38863 0.5682 0.0
C178 C 0.51035 0.50807 0.66697 0.0
C179 C 0.52069 0.48705 0.67554 0.0
C180 C 0.53001 0.47036 0.66035 0.0
C181 C 0.53136 0.47648 0.6367 0.0
C182 C 0.51991 0.49664 0.6281 0.0
C183 C 0.5075 0.51095 0.64316 0.0
C184 C 0.50617 0.52913 0.68342 0.0
C185 C 0.53497 0.55492 0.69356 0.0
C186 C 0.53264 0.56873 0.71389 0.0
C187 C 0.5014 0.55733 0.72409 0.0
C188 C 0.47227 0.53374 0.71277 0.0
C189 C 0.47466 0.51951 0.69251 0.0
C190 C 0.52282 0.48345 0.70064 0.0
C191 C 0.55408 0.49765 0.7113 0.0
C192 C 0.55623 0.49634 0.73506 0.0
C193 C 0.52711 0.48074 0.74857 0.0
C194 C 0.4958 0.46605 0.73773 0.0
C195 C 0.4937 0.46733 0.71396 0.0
C196 C 0.53796 0.44618 0.66925 0.0
C197 C 0.57069 0.45248 0.66837 0.0
C198 C 0.57762 0.42903 0.67617 0.0
C199 C 0.55196 0.39908 0.68517 0.0
C200 C 0.51931 0.39312 0.68632 0.0
C201 C 0.51237 0.41647 0.67837 0.0
C202 C 0.54503 0.46194 0.62091 0.0
C203 C 0.57706 0.48156 0.61152 0.0
C204 C 0.58982 0.46817 0.59634 0.0
C205 C 0.57077 0.43483 0.59036 0.0
C206 C 0.53876 0.41521 0.59998 0.0
C207 C 0.52601 0.42866 0.61514 0.0
C208 C 0.52422 0.50491 0.60345 0.0
C209 C 0.55201 0.53483 0.5965 0.0
C210 C 0.565 0.53815 0.57448 0.0
C211 C 0.55016 0.51156 0.55927 0.0
C212 C 0.51955 0.48346 0.56526 0.0
C213 C 0.50662 0.48016 0.58726 0.0
C214 C 0.48735 0.52429 0.634 0.0
C215 C 0.49519 0.55636 0.63857 0.0
C216 C 0.47362 0.56678 0.63152 0.0
C217 C 0.44411 0.54548 0.61943 0.0
C218 C 0.43733 0.51392 0.61404 0.0
C219 C 0.45847 0.5034 0.62143 0.0
C220 C 0.52949 0.48008 0.77385 0.0
C221 C 0.58404 0.42062 0.57397 0.0
H222 H 0.03918 0.54855 0.97359 0.0
H223 H 0.23307 0.59081 0.74515 0.0
H224 H 0.97914 0.53057 0.85525 0.0
H225 H 0.94074 0.50701 0.88756 0.0
H226 H 0.94451 0.41866 0.88143 0.0
H227 H 0.98034 0.44157 0.8481 0.0
H228 H 0.05521 0.57024 0.87473 0.0
H229 H 0.05153 0.57092 0.91648 0.0
H230 H 0.02982 0.47125 0.919 0.0
H231 H 0.0338 0.47103 0.8773 0.0
H232 H 0.13253 0.59154 0.84293 0.0
H233 H 0.18493 0.59919 0.85797 0.0
H234 H 0.13616 0.49479 0.86962 0.0
H235 H 0.08481 0.48735 0.85347 0.0
H236 H 0.10469 0.59508 0.79071 0.0
H237 H 0.15566 0.62089 0.76751 0.0
H238 H 0.16679 0.53785 0.7799 0.0
H239 H 0.11547 0.51208 0.80274 0.0
H240 H 0.03171 0.56088 0.77277 0.0
H241 H 0.04959 0.57622 0.73301 0.0
H242 H 0.07912 0.50423 0.73062 0.0
H243 H 0.05965 0.4882 0.7697 0.0
H244 H 0.95949 0.51294 0.80936 0.0
H245 H 0.90413 0.47377 0.79383 0.0
H246 H 0.94058 0.41179 0.77138 0.0
H247 H 0.99552 0.45079 0.78703 0.0
O248 O 0.0413 0.54803 0.95716 0.0
O249 O 0.03011 0.49675 0.9575 0.0
O250 O 0.20596 0.62325 0.74839 0.0
O251 O 0.21306 0.58132 0.75444 0.0
C252 C 0.01365 0.50537 0.83579 0.0
C253 C 0.04433 0.5197 0.84763 0.0
C254 C 0.07447 0.53293 0.83539 0.0
C255 C 0.07448 0.53551 0.81138 0.0
C256 C 0.04383 0.5216 0.79944 0.0
C257 C 0.0133 0.50526 0.81161 0.0
C258 C 0.98247 0.48775 0.8494 0.0
C259 C 0.97021 0.50551 0.86026 0.0
C260 C 0.94889 0.4922 0.87912 0.0
C261 C 0.94027 0.46125 0.88783 0.0
C262 C 0.95021 0.44243 0.87541 0.0
C263 C 0.97074 0.45544 0.85618 0.0
C264 C 0.04479 0.52063 0.87303 0.0
C265 C 0.05005 0.54874 0.88437 0.0
C266 C 0.04777 0.54898 0.9082 0.0
C267 C 0.04023 0.52108 0.92108 0.0
C268 C 0.03561 0.49314 0.90961 0.0
C269 C 0.03797 0.49297 0.8858 0.0
C270 C 0.10494 0.53895 0.84729 0.0
C271 C 0.13321 0.57049 0.84903 0.0
C272 C 0.16298 0.57476 0.85772 0.0
C273 C 0.16469 0.54752 0.86487 0.0
C274 C 0.1358 0.51618 0.86394 0.0
C275 C 0.10632 0.51193 0.85505 0.0
C276 C 0.10654 0.55184 0.7985 0.0
C277 C 0.11829 0.5826 0.78848 0.0
C278 C 0.14737 0.59726 0.77522 0.0
C279 C 0.16531 0.58142 0.77185 0.0
C280 C 0.15361 0.55072 0.78216 0.0
C281 C 0.12442 0.53602 0.79532 0.0
C282 C 0.04458 0.52359 0.77411 0.0
C283 C 0.04069 0.54752 0.76324 0.0
C284 C 0.05148 0.55661 0.74065 0.0
C285 C 0.06654 0.54201 0.72867 0.0
C286 C 0.06748 0.51593 0.73908 0.0
C287 C 0.05635 0.50666 0.76151 0.0
C288 C 0.98146 0.48466 0.79932 0.0
C289 C 0.95558 0.49114 0.80076 0.0
C290 C 0.92404 0.46875 0.79197 0.0
C291 C 0.91804 0.43967 0.7815 0.0
C292 C 0.94454 0.43414 0.77909 0.0
C293 C 0.97593 0.45639 0.78802 0.0
C294 C 0.03692 0.5211 0.94633 0.0
C295 C 0.19598 0.5967 0.75753 0.0
H296 H 0.42954 0.98364 0.84731 0.0
H297 H 0.4453 0.79419 0.05331 0.0
H298 H 0.47686 0.04296 0.9622 0.0
H299 H 0.49544 0.08364 0.93151 0.0
H300 H 0.59426 0.09798 0.93519 0.0
H301 H 0.57546 0.05722 0.96564 0.0
H302 H 0.4325 0.96568 0.94608 0.0
H303 H 0.42114 0.96877 0.9056 0.0
H304 H 0.52604 0.01115 0.89022 0.0
H305 H 0.53691 0.00729 0.93062 0.0
H306 H 0.42196 0.89724 0.97388 0.0
H307 H 0.41296 0.84687 0.95578 0.0
H308 H 0.51498 0.89981 0.93122 0.0
H309 H 0.52349 0.9494 0.94905 0.0
H310 H 0.43312 0.92416 0.02929 0.0
H311 H 0.41236 0.87229 0.04965 0.0
H312 H 0.49061 0.86236 0.01883 0.0
H313 H 0.51136 0.91444 0.99885 0.0
H314 H 0.47817 0.99808 0.04923 0.0
H315 H 0.48341 0.98854 0.08984 0.0
H316 H 0.55171 0.95679 0.07192 0.0
H317 H 0.54667 0.96684 0.0316 0.0
H318 H 0.51958 0.06976 0.01555 0.0
H319 H 0.56731 0.11999 0.03139 0.0
H320 H 0.62722 0.0754 0.02817 0.0
H321 H 0.58007 0.0261 0.01185 0.0
O322 O 0.43449 0.98221 0.86317 0.0
O323 O 0.48883 0.00482 0.85631 0.0
O324 O 0.41327 0.82106 0.06091 0.0
O325 O 0.45291 0.81469 0.04541 0.0
C326 C 0.51102 0.01561 0.9785 0.0
C327 C 0.49238 0.98606 0.96609 0.0
C328 C 0.48185 0.95584 0.97686 0.0
C329 C 0.48635 0.95473 0.00063 0.0
C330 C 0.50504 0.98418 0.01299 0.0
C331 C 0.51905 0.0146 0.00163 0.0
C332 C 0.52479 0.04711 0.9661 0.0
C333 C 0.50286 0.05591 0.95701 0.0
C334 C 0.5134 0.07885 0.93934 0.0
C335 C 0.54612 0.09353 0.93073 0.0
C336 C 0.56895 0.0872 0.94155 0.0
C337 C 0.55832 0.06405 0.95909 0.0
C338 C 0.48556 0.98667 0.94132 0.0
C339 C 0.45293 0.97544 0.9339 0.0
C340 C 0.44655 0.97733 0.91079 0.0
C341 C 0.47273 0.99042 0.89469 0.0
C342 C 0.50534 0.0011 0.90217 0.0
C343 C 0.51163 -0.00097 0.92525 0.0
C344 C 0.47332 0.9269 0.96268 0.0
C345 C 0.44195 0.89796 0.96405 0.0
C346 C 0.43698 0.86929 0.95385 0.0
C347 C 0.46333 0.86936 0.94215 0.0
C348 C 0.494 0.89896 0.93974 0.0
C349 C 0.49893 0.92739 0.94994 0.0
C350 C 0.47347 0.92283 0.01243 0.0
C351 C 0.44565 0.91066 0.02692 0.0
C352 C 0.43388 0.88106 0.03853 0.0
C353 C 0.44979 0.86312 0.03581 0.0
C354 C 0.47773 0.87548 0.02126 0.0
C355 C 0.48954 0.90515 0.00975 0.0
C356 C 0.51183 0.98287 0.03757 0.0
C357 C 0.49475 0.9897 0.05421 0.0
C358 C 0.49763 0.98408 0.0773 0.0
C359 C 0.51783 0.97176 0.08404 0.0
C360 C 0.53626 0.96663 0.06733 0.0
C361 C 0.53325 0.97213 0.04429 0.0
C362 C 0.54639 0.04432 0.01271 0.0
C363 C 0.54298 0.07089 0.01847 0.0
C364 C 0.57014 0.09938 0.0276 0.0
C365 C 0.601 0.10159 0.03094 0.0
C366 C 0.60391 0.07457 0.02556 0.0
C367 C 0.57692 0.04629 0.01645 0.0
C368 C 0.46597 0.99296 0.87023 0.0
C369 C 0.43745 0.83172 0.04816 0.0
H370 H 0.48791 0.423 0.01474 0.0
H371 H 0.65371 0.44138 0.24774 0.0
H372 H 0.46033 0.47617 0.12512 0.0
H373 H 0.44127 0.49315 0.09195 0.0
H374 H 0.53246 0.58813 0.09367 0.0
H375 H 0.55086 0.57108 0.12711 0.0
H376 H 0.49224 0.43054 0.11463 0.0
H377 H 0.48376 0.4176 0.07379 0.0
H378 H 0.55777 0.51837 0.05782 0.0
H379 H 0.56635 0.53082 0.0987 0.0
H380 H 0.53892 0.41581 0.14824 0.0
H381 H 0.57753 0.39934 0.13391 0.0
H382 H 0.64538 0.49855 0.11112 0.0
H383 H 0.60706 0.51471 0.12542 0.0
H384 H 0.51898 0.43159 0.20104 0.0
H385 H 0.54342 0.41118 0.22838 0.0
H386 H 0.64223 0.48426 0.20469 0.0
H387 H 0.61745 0.50476 0.17771 0.0
H388 H 0.49261 0.4751 0.21433 0.0
H389 H 0.50244 0.47369 0.25539 0.0
H390 H 0.60755 0.5437 0.24475 0.0
H391 H 0.59742 0.54504 0.20407 0.0
H392 H 0.46955 0.51895 0.17122 0.0
H393 H 0.4643 0.56483 0.18477 0.0
H394 H 0.57063 0.62192 0.19676 0.0
H395 H 0.57593 0.57685 0.18241 0.0
O396 O 0.49196 0.42854 0.03078 0.0
O397 O 0.5299 0.48072 0.0235 0.0
O398 O 0.59205 0.41187 0.24864 0.0
O399 O 0.64338 0.44859 0.23682 0.0
C400 C 0.52207 0.5092 0.14382 0.0
C401 C 0.53351 0.4895 0.13439 0.0
C402 C 0.54975 0.4781 0.14838 0.0
C403 C 0.55146 0.48336 0.17215 0.0
C404 C 0.54043 0.50339 0.18152 0.0
C405 C 0.52731 0.51773 0.1672 0.0
C406 C 0.50694 0.52241 0.1284 0.0
C407 C 0.47556 0.50102 0.1188 0.0
C408 C 0.46496 0.51062 0.0997 0.0
C409 C 0.48567 0.54174 0.08993 0.0
C410 C 0.51585 0.56406 0.10085 0.0
C411 C 0.52638 0.55444 0.12 0.0
C412 C 0.52961 0.48166 0.10958 0.0
C413 C 0.5067 0.44972 0.10226 0.0
C414 C 0.50185 0.44243 0.07893 0.0
C415 C 0.51994 0.467 0.06252 0.0
C416 C 0.54331 0.49891 0.06999 0.0
C417 C 0.5482 0.50611 0.09331 0.0
C418 C 0.57028 0.46638 0.13777 0.0
C419 C 0.56191 0.43374 0.13984 0.0
C420 C 0.58386 0.42444 0.13167 0.0
C421 C 0.61446 0.44782 0.12163 0.0
C422 C 0.62213 0.48019 0.11903 0.0
C423 C 0.6002 0.48936 0.12699 0.0
C424 C 0.56644 0.46945 0.18729 0.0
C425 C 0.54588 0.44295 0.20166 0.0
C426 C 0.55991 0.43142 0.21729 0.0
C427 C 0.5948 0.44612 0.21873 0.0
C428 C 0.61528 0.47237 0.20402 0.0
C429 C 0.60121 0.484 0.18848 0.0
C430 C 0.54433 0.51011 0.20635 0.0
C431 C 0.51745 0.49113 0.22111 0.0
C432 C 0.52316 0.49015 0.24445 0.0
C433 C 0.55581 0.5083 0.25321 0.0
C434 C 0.58207 0.52971 0.23861 0.0
C435 C 0.57637 0.53053 0.21534 0.0
C436 C 0.52306 0.5444 0.17613 0.0
C437 C 0.49164 0.54137 0.17679 0.0
C438 C 0.4887 0.56748 0.1845 0.0
C439 C 0.51706 0.59668 0.19198 0.0
C440 C 0.54835 0.59947 0.19145 0.0
C441 C 0.55136 0.57372 0.18334 0.0
C442 C 0.51435 0.45931 0.03776 0.0
C443 C 0.60985 0.43438 0.23563 0.0
Li444 Li 0.67046 0.46775 0.43068 0.0
Li445 Li 0.65709 0.41481 0.41511 0.0
Li446 Li 0.71051 0.46411 0.40704 0.0
Li447 Li 0.65944 0.45762 0.39156 0.0
C448 C 0.68621 0.42923 0.4584 0.0
N449 N 0.67155 0.40085 0.50133 0.0
C450 C 0.65356 0.41394 0.46692 0.0
C451 C 0.71133 0.42994 0.47166 0.0
C452 C 0.64668 0.39978 0.48868 0.0
C453 C 0.70343 0.41549 0.49334 0.0
C454 C 0.59776 0.41978 0.40675 0.0
C455 C 0.55709 0.38182 0.37983 0.0
N456 N 0.53702 0.39375 0.38477 0.0
C457 C 0.57669 0.43159 0.41162 0.0
C458 C 0.58788 0.39464 0.39077 0.0
C459 C 0.5461 0.41813 0.40031 0.0
C460 C 0.64237 0.5009 0.44884 0.0
N461 N 0.66206 0.48898 0.45485 0.0
C462 C 0.65657 0.49769 0.49433 0.0
C463 C 0.67085 0.48888 0.47697 0.0
C464 C 0.63381 0.50733 0.48867 0.0
C465 C 0.62796 0.51044 0.4656 0.0
H466 H 0.63633 0.50115 0.43104 0.0
H467 H 0.68736 0.48025 0.48129 0.0
C468 C 0.65814 0.35754 0.41661 0.0
N469 N 0.63799 0.36958 0.42059 0.0
C470 C 0.64706 0.32489 0.42151 0.0
C471 C 0.59445 0.31757 0.43424 0.0
C472 C 0.60665 0.35046 0.42918 0.0
C473 C 0.61486 0.30444 0.43058 0.0
H474 H 0.68312 0.37358 0.41002 0.0
H475 H 0.59132 0.36086 0.43242 0.0
C476 C 0.71556 0.52676 0.41599 0.0
N477 N 0.75098 0.58569 0.4389 0.0
C478 C 0.70945 0.5519 0.41151 0.0
C479 C 0.7397 0.53158 0.4321 0.0
C480 C 0.72762 0.58152 0.42328 0.0
C481 C 0.75734 0.56155 0.4435 0.0
C482 C 0.69326 0.4355 0.36397 0.0
C483 C 0.70839 0.46664 0.35405 0.0
C484 C 0.69318 0.41 0.35223 0.0
C485 C 0.72316 0.47172 0.33247 0.0
C486 C 0.70819 0.41607 0.33068 0.0
N487 N 0.72275 0.44654 0.32133 0.0
C488 C 0.76373 0.45445 0.40601 0.0
C489 C 0.77622 0.50467 0.38902 0.0
C490 C 0.79454 0.45941 0.39912 0.0
N491 N 0.75513 0.47675 0.40065 0.0
C492 C 0.8073 0.5106 0.38173 0.0
C493 C 0.81655 0.48752 0.38644 0.0
H494 H 0.74607 0.4322 0.41494 0.0
H495 H 0.76844 0.52173 0.38475 0.0
C496 C 0.63137 0.48994 0.37076 0.0
N497 N 0.63838 0.46604 0.36726 0.0
C498 C 0.61464 0.4968 0.35409 0.0
C499 C 0.61207 0.45376 0.33074 0.0
C500 C 0.62879 0.44771 0.34789 0.0
C501 C 0.6049 0.47868 0.33371 0.0
H502 H 0.63837 0.50331 0.38669 0.0
H503 H 0.63387 0.42824 0.34582 0.0
O504 O 0.69371 0.44313 0.4371 0.0
O505 O 0.62826 0.43325 0.41712 0.0
O506 O 0.69749 0.49727 0.4051 0.0
O507 O 0.67879 0.42984 0.38514 0.0
H508 H 0.63378 0.41323 0.45699 0.0
H509 H 0.73668 0.44157 0.46525 0.0
H510 H 0.62157 0.38799 0.49552 0.0
H511 H 0.72265 0.41591 0.5038 0.0
H512 H 0.54922 0.36251 0.36733 0.0
H513 H 0.58383 0.45093 0.42398 0.0
H514 H 0.60407 0.38549 0.38658 0.0
H515 H 0.52958 0.42708 0.40388 0.0
H516 H 0.6619 0.49543 0.51203 0.0
H517 H 0.61051 0.51776 0.46064 0.0
H518 H 0.66389 0.31605 0.4188 0.0
H519 H 0.56936 0.30265 0.44098 0.0
H520 H 0.69088 0.5486 0.3991 0.0
H521 H 0.74451 0.51225 0.43593 0.0
H522 H 0.72314 0.60118 0.42001 0.0
H523 H 0.77602 0.56559 0.45607 0.0
H524 H 0.70874 0.4867 0.36286 0.0
H525 H 0.68162 0.38578 0.35973 0.0
H526 H 0.73495 0.49569 0.32459 0.0
H527 H 0.70829 0.39655 0.32138 0.0
H528 H 0.80044 0.44079 0.40285 0.0
H529 H 0.82367 0.53274 0.37219 0.0
H530 H 0.60913 0.51584 0.35721 0.0
H531 H 0.6053 0.43942 0.31519 0.0
Li532 Li 0.23489 0.6325 0.59226 0.0
Li533 Li 0.27598 0.62089 0.57802 0.0
Li534 Li 0.28176 0.676 0.57072 0.0
Li535 Li 0.23619 0.62401 0.55162 0.0
C536 C 0.28624 0.65916 0.62321 0.0
N537 N 0.29144 0.66539 0.67023 0.0
C538 C 0.27628 0.63166 0.63696 0.0
C539 C 0.29881 0.68986 0.63337 0.0
C540 C 0.27907 0.6353 0.6607 0.0
C541 C 0.30129 0.6925 0.65718 0.0
C542 C 0.21512 0.56025 0.57881 0.0
C543 C 0.19895 0.50778 0.56239 0.0
N544 N 0.19109 0.49413 0.58362 0.0
C545 C 0.20648 0.54565 0.60043 0.0
C546 C 0.21097 0.54114 0.55959 0.0
C547 C 0.19454 0.51222 0.60253 0.0
C548 C 0.172 0.59427 0.61184 0.0
N549 N 0.20218 0.62167 0.61595 0.0
C550 C 0.18345 0.62757 0.6527 0.0
C551 C 0.20781 0.63905 0.63556 0.0
C552 C 0.15252 0.59835 0.6494 0.0
C553 C 0.14672 0.58223 0.62828 0.0
H554 H 0.16769 0.58145 0.59578 0.0
H555 H 0.23131 0.66154 0.63816 0.0
C556 C 0.3335 0.61715 0.57277 0.0
N557 N 0.30356 0.60293 0.58377 0.0
C558 C 0.35635 0.60753 0.57759 0.0
C559 C 0.31751 0.56919 0.60538 0.0
C560 C 0.29522 0.57923 0.59976 0.0
C561 C 0.34873 0.58349 0.59433 0.0
H562 H 0.34003 0.63653 0.56054 0.0
H563 H 0.27176 0.56875 0.60875 0.0
C564 C 0.21437 0.67001 0.57698 0.0
N565 N 0.17463 0.68827 0.59934 0.0
C566 C 0.17982 0.65228 0.57365 0.0
C567 C 0.22878 0.6971 0.59156 0.0
C568 C 0.16014 0.66189 0.58515 0.0
C569 C 0.20824 0.70593 0.60273 0.0
C570 C 0.29618 0.63977 0.52878 0.0
C571 C 0.31466 0.66518 0.51324 0.0
C572 C 0.28843 0.60803 0.52359 0.0
C573 C 0.32475 0.6583 0.49257 0.0
C574 C 0.29899 0.60215 0.50275 0.0
N575 N 0.31675 0.62718 0.48779 0.0
C576 C 0.34162 0.73673 0.57817 0.0
C577 C 0.30933 0.73479 0.54635 0.0
C578 C 0.36652 0.76881 0.57273 0.0
N579 N 0.31371 0.72059 0.56507 0.0
C580 C 0.3339 0.76656 0.54 0.0
C581 C 0.36292 0.78386 0.55326 0.0
H582 H 0.34494 0.72441 0.59249 0.0
H583 H 0.2871 0.72105 0.53605 0.0
C584 C 0.17592 0.58464 0.52869 0.0
N585 N 0.20869 0.60752 0.52522 0.0
C586 C 0.15337 0.57387 0.5105 0.0
C587 C 0.1989 0.60989 0.48537 0.0
C588 C 0.22046 0.62025 0.5041 0.0
C589 C 0.16468 0.58674 0.48845 0.0
H590 H 0.16714 0.57545 0.54578 0.0
H591 H 0.24639 0.63901 0.50183 0.0
O592 O 0.28373 0.65609 0.59993 0.0
O593 O 0.22644 0.59286 0.5764 0.0
O594 O 0.23395 0.66037 0.56655 0.0
O595 O 0.28594 0.64605 0.54902 0.0
H596 H 0.26603 0.60771 0.62941 0.0
H597 H 0.30611 0.71134 0.62305 0.0
H598 H 0.27129 0.61418 0.67154 0.0
H599 H 0.31087 0.71607 0.66528 0.0
H600 H 0.19573 0.4927 0.54767 0.0
H601 H 0.20924 0.56005 0.61547 0.0
H602 H 0.21671 0.55187 0.54266 0.0
H603 H 0.18801 0.50064 0.61918 0.0
H604 H 0.18936 0.64098 0.66863 0.0
H605 H 0.12303 0.56028 0.62452 0.0
H606 H 0.3798 0.61901 0.56834 0.0
H607 H 0.31062 0.5511 0.61875 0.0
H608 H 0.16833 0.63113 0.56251 0.0
H609 H 0.2555 0.71089 0.59441 0.0
H610 H 0.13333 0.6483 0.58286 0.0
H611 H 0.21899 0.72673 0.61417 0.0
H612 H 0.32098 0.68992 0.51706 0.0
H613 H 0.27465 0.58825 0.53561 0.0
H614 H 0.33894 0.67769 0.48033 0.0
H615 H 0.29313 0.57769 0.4985 0.0
H616 H 0.38878 0.78136 0.58318 0.0
H617 H 0.33031 0.77751 0.52491 0.0
H618 H 0.12722 0.55641 0.51385 0.0
H619 H 0.20899 0.62016 0.46869 0.0
Li620 Li 0.67557 0.24347 0.75113 0.0
Li621 Li 0.62661 0.20338 0.77031 0.0
Li622 Li 0.63528 0.19577 0.72901 0.0
Li623 Li 0.62282 0.23787 0.74259 0.0
C624 C 0.69075 0.1966 0.75607 0.0
N625 N 0.74921 0.19559 0.75613 0.0
C626 C 0.71172 0.20766 0.77517 0.0
C627 C 0.69956 0.185 0.73702 0.0
C628 C 0.74115 0.20696 0.77486 0.0
C629 C 0.72921 0.1847 0.73738 0.0
C630 C 0.64635 0.25477 0.79467 0.0
C631 C 0.61718 0.25372 0.82901 0.0
N632 N 0.6438 0.25892 0.8417 0.0
C633 C 0.67342 0.26012 0.80806 0.0
C634 C 0.618 0.25158 0.80522 0.0
C635 C 0.67165 0.26217 0.8318 0.0
C636 C 0.72516 0.30614 0.76271 0.0
N637 N 0.72147 0.2781 0.75396 0.0
C638 C 0.78071 0.30368 0.75 0.0
C639 C 0.74842 0.27672 0.74695 0.0
C640 C 0.78518 0.33249 0.75993 0.0
C641 C 0.7568 0.33364 0.76589 0.0
H642 H 0.70339 0.30724 0.76718 0.0
H643 H 0.74504 0.25491 0.73888 0.0
C644 C 0.57694 0.17013 0.80467 0.0
N645 N 0.60904 0.18088 0.79857 0.0
C646 C 0.56521 0.15676 0.82636 0.0
C647 C 0.61948 0.16488 0.83478 0.0
C648 C 0.6301 0.17802 0.81296 0.0
C649 C 0.58675 0.15438 0.84183 0.0
H650 H 0.56069 0.17266 0.79293 0.0
H651 H 0.65538 0.1866 0.80769 0.0
C652 C 0.68354 0.26692 0.70952 0.0
N653 N 0.7397 0.31804 0.68903 0.0
C654 C 0.68904 0.29858 0.71007 0.0
C655 C 0.70654 0.2612 0.69851 0.0
C656 C 0.71761 0.32411 0.69962 0.0
C657 C 0.73478 0.28739 0.68824 0.0
C658 C 0.56495 0.18513 0.73634 0.0
C659 C 0.5539 0.17196 0.71453 0.0
C660 C 0.54658 0.19507 0.7492 0.0
C661 C 0.52472 0.16909 0.70591 0.0
C662 C 0.51756 0.19187 0.73995 0.0
N663 N 0.50732 0.17905 0.71868 0.0
C664 C 0.6096 0.13296 0.70937 0.0
C665 C 0.6344 0.17769 0.68344 0.0
C666 C 0.59969 0.11068 0.69128 0.0
N667 N 0.62637 0.1657 0.70507 0.0
C668 C 0.62536 0.15641 0.66494 0.0
C669 C 0.6074 0.12242 0.66871 0.0
H670 H 0.60312 0.1242 0.72678 0.0
H671 H 0.64681 0.20377 0.68049 0.0
C672 C 0.60274 0.28384 0.74793 0.0
N673 N 0.6037 0.2624 0.73319 0.0
C674 C 0.59194 0.30451 0.74047 0.0
C675 C 0.58339 0.28061 0.70278 0.0
C676 C 0.59423 0.2603 0.711 0.0
C677 C 0.58253 0.30334 0.71754 0.0
H678 H 0.61143 0.2857 0.76527 0.0
H679 H 0.59592 0.24341 0.69959 0.0
O680 O 0.66143 0.19639 0.75619 0.0
O681 O 0.6472 0.25168 0.77143 0.0
O682 O 0.6562 0.24178 0.72019 0.0
O683 O 0.59378 0.18864 0.74494 0.0
H684 H 0.70577 0.2173 0.78992 0.0
H685 H 0.68376 0.17633 0.72208 0.0
H686 H 0.75768 0.21563 0.78947 0.0
H687 H 0.73632 0.17582 0.72274 0.0
H688 H 0.5953 0.25103 0.8374 0.0
H689 H 0.69537 0.26218 0.80028 0.0
H690 H 0.59654 0.24679 0.79521 0.0
H691 H 0.69235 0.26614 0.84237 0.0
H692 H 0.80187 0.30173 0.74502 0.0
H693 H 0.75896 0.35563 0.77291 0.0
H694 H 0.53981 0.14906 0.83113 0.0
H695 H 0.63672 0.16288 0.84597 0.0
H696 H 0.67163 0.30347 0.7187 0.0
H697 H 0.70291 0.23691 0.69824 0.0
H698 H 0.72228 0.34878 0.70001 0.0
H699 H 0.7529 0.28338 0.67979 0.0
H700 H 0.56773 0.16417 0.70429 0.0
H701 H 0.55502 0.20586 0.76593 0.0
H702 H 0.51594 0.15902 0.68903 0.0
H703 H 0.50328 0.19973 0.74964 0.0
H704 H 0.58582 0.08464 0.69484 0.0
H705 H 0.63114 0.16643 0.64778 0.0
H706 H 0.59222 0.3221 0.75229 0.0
H707 H 0.57618 0.27885 0.68501 0.0
Li708 Li 0.44488 0.60431 0.92746 0.0
Li709 Li 0.45207 0.65201 0.90646 0.0
Li710 Li 0.40486 0.60021 0.89951 0.0
Li711 Li 0.45774 0.61244 0.88511 0.0
C712 C 0.38923 0.62174 0.93674 0.0
N713 N 0.33001 0.61506 0.95176 0.0
C714 C 0.38181 0.64588 0.93171 0.0
C715 C 0.3667 0.59444 0.94969 0.0
C716 C 0.35171 0.64199 0.93939 0.0
C717 C 0.33685 0.59144 0.95704 0.0
C718 C 0.51274 0.66869 0.91724 0.0
C719 C 0.55668 0.72333 0.90711 0.0
N720 N 0.5655 0.72961 0.92952 0.0
C721 C 0.52231 0.67559 0.94015 0.0
C722 C 0.53012 0.69263 0.90054 0.0
C723 C 0.54904 0.70657 0.94601 0.0
C724 C 0.46472 0.57154 0.95841 0.0
N725 N 0.45201 0.59125 0.95619 0.0
C726 C 0.44824 0.59462 0.99667 0.0
C727 C 0.4439 0.60292 0.97468 0.0
C728 C 0.4614 0.57437 -0.00034 0.0
C729 C 0.46968 0.56273 0.98016 0.0
H730 H 0.47106 0.5628 0.94331 0.0
H731 H 0.43407 0.61877 0.97235 0.0
C732 C 0.46144 0.71234 0.89274 0.0
N733 N 0.46473 0.69594 0.91049 0.0
C734 C 0.46239 0.74158 0.89661 0.0
C735 C 0.47188 0.73717 0.93676 0.0
C736 C 0.47047 0.7079 0.93213 0.0
C737 C 0.46668 0.75382 0.91899 0.0
H738 H 0.45603 0.7017 0.87586 0.0
H739 H 0.47198 0.69373 0.94598 0.0
C740 C 0.40028 0.53943 0.9052 0.0
N741 N 0.35257 0.47399 0.91176 0.0
C742 C 0.39019 0.51741 0.88693 0.0
C743 C 0.3864 0.52798 0.92688 0.0
C744 C 0.36593 0.48449 0.89057 0.0
C745 C 0.36225 0.49486 0.92983 0.0
C746 C 0.42085 0.62369 0.85477 0.0
C747 C 0.40287 0.59032 0.84948 0.0
C748 C 0.42739 0.64662 0.83756 0.0
C749 C 0.39181 0.58041 0.82712 0.0
C750 C 0.41592 0.63575 0.81539 0.0
N751 N 0.39853 0.60314 0.81066 0.0
C752 C 0.35346 0.60609 0.88498 0.0
C753 C 0.33299 0.55165 0.89747 0.0
C754 C 0.32124 0.59934 0.88138 0.0
N755 N 0.3588 0.58258 0.89314 0.0
C756 C 0.30011 0.54367 0.89385 0.0
C757 C 0.29411 0.56794 0.88606 0.0
H758 H 0.37438 0.6306 0.88198 0.0
H759 H 0.33765 0.5334 0.90418 0.0
C760 C 0.4745 0.57635 0.85557 0.0
N761 N 0.47862 0.60618 0.85977 0.0
C762 C 0.48204 0.5694 0.83398 0.0
C763 C 0.49914 0.62445 0.82201 0.0
C764 C 0.49186 0.6305 0.84389 0.0
C765 C 0.49328 0.59329 0.81672 0.0
H766 H 0.46353 0.55742 0.8685 0.0
H767 H 0.49443 0.65384 0.84772 0.0
O768 O 0.41821 0.62465 0.92885 0.0
O769 O 0.48631 0.63871 0.91121 0.0
O770 O 0.4244 0.57171 0.90201 0.0
O771 O 0.43314 0.63409 0.87639 0.0
H772 H 0.39873 0.66708 0.92159 0.0
H773 H 0.37206 0.57564 0.95392 0.0
H774 H 0.34552 0.66032 0.93541 0.0
H775 H 0.31911 0.57031 0.96693 0.0
H776 H 0.57025 0.74218 0.8944 0.0
H777 H 0.50911 0.65729 0.95326 0.0
H778 H 0.52293 0.68765 0.88275 0.0
H779 H 0.55664 0.71233 0.96369 0.0
H780 H 0.44108 0.60378 0.01115 0.0
H781 H 0.48033 0.54742 0.98168 0.0
H782 H 0.45794 0.75343 0.88246 0.0
H783 H 0.47583 0.74604 0.9542 0.0
H784 H 0.401 0.52556 0.87009 0.0
H785 H 0.39399 0.54441 0.94127 0.0
H786 H 0.35782 0.46726 0.87655 0.0
H787 H 0.3512 0.48577 0.94649 0.0
H788 H 0.39757 0.57227 0.86246 0.0
H789 H 0.44158 0.67258 0.84117 0.0
H790 H 0.37795 0.55464 0.82284 0.0
H791 H 0.42097 0.65326 0.80191 0.0
H792 H 0.3176 0.61856 0.87504 0.0
H793 H 0.27964 0.51914 0.89765 0.0
H794 H 0.47713 0.54505 0.83039 0.0
H795 H 0.50801 0.64347 0.8091 0.0
Li796 Li 0.78796 0.384 0.07467 0.0
Li797 Li 0.83146 0.38105 0.09427 0.0
Li798 Li 0.83042 0.38446 0.05028 0.0
Li799 Li 0.79017 0.33585 0.07132 0.0
C800 C 0.83717 0.44589 0.0773 0.0
N801 N 0.83608 0.50255 0.08395 0.0
C802 C 0.83932 0.45802 0.09938 0.0
C803 C 0.83505 0.46288 0.05857 0.0
C804 C 0.83857 0.48662 0.1024 0.0
C805 C 0.83438 0.4914 0.0623 0.0
C806 C 0.75077 0.33448 0.10704 0.0
C807 C 0.71086 0.30447 0.13701 0.0
N808 N 0.68551 0.29517 0.12185 0.0
C809 C 0.7243 0.32456 0.09177 0.0
C810 C 0.744 0.32433 0.12986 0.0
C811 C 0.69151 0.30473 0.09958 0.0
C812 C 0.73835 0.40126 0.06409 0.0
N813 N 0.75879 0.40013 0.08007 0.0
C814 C 0.73468 0.41632 0.10934 0.0
C815 C 0.75745 0.40764 0.10232 0.0
C816 C 0.71273 0.41681 0.09333 0.0
C817 C 0.7149 0.40947 0.07042 0.0
H818 H 0.73942 0.39511 0.04658 0.0
H819 H 0.77355 0.40598 0.11477 0.0
C820 C 0.89042 0.40568 0.12177 0.0
N821 N 0.85721 0.39458 0.12142 0.0
C822 C 0.90839 0.41726 0.14219 0.0
C823 C 0.85746 0.4052 0.16136 0.0
C824 C 0.84061 0.39406 0.14065 0.0
C825 C 0.89192 0.41737 0.16233 0.0
H826 H 0.90302 0.40609 0.10614 0.0
H827 H 0.81431 0.38559 0.13976 0.0
C828 C 0.76381 0.36024 0.02922 0.0
N829 N 0.72737 0.3635 0.9933 0.0
C830 C 0.73169 0.33384 0.02463 0.0
C831 C 0.77743 0.38821 0.01542 0.0
C832 C 0.71364 0.33601 0.00644 0.0
C833 C 0.75862 0.38939 0.99736 0.0
C834 C 0.84017 0.3277 0.0704 0.0
C835 C 0.8419 0.31392 0.04977 0.0
C836 C 0.83733 0.31164 0.09101 0.0
C837 C 0.84053 0.28402 0.05009 0.0
C838 C 0.83606 0.28178 0.09061 0.0
N839 N 0.83764 0.2687 0.07033 0.0
C840 C 0.88362 0.42744 0.01996 0.0
C841 C 0.83945 0.37834 0.00411 0.0
C842 C 0.89872 0.43755 0.99844 0.0
N843 N 0.85434 0.39844 0.02227 0.0
C844 C 0.85297 0.38792 0.98225 0.0
C845 C 0.88304 0.41803 0.97899 0.0
H846 H 0.89502 0.44284 0.03477 0.0
H847 H 0.81626 0.35526 0.0065 0.0
C848 C 0.748 0.26869 0.08513 0.0
N849 N 0.76341 0.28987 0.06747 0.0
C850 C 0.72351 0.23611 0.08073 0.0
C851 C 0.73338 0.2474 0.04022 0.0
C852 C 0.75735 0.27971 0.04539 0.0
C853 C 0.71542 0.22541 0.058 0.0
H854 H 0.75368 0.27735 0.10256 0.0
H855 H 0.7701 0.29718 0.03174 0.0
O856 O 0.83723 0.41758 0.07404 0.0
O857 O 0.78318 0.35376 0.09978 0.0
O858 O 0.78202 0.35827 0.04677 0.0
O859 O 0.84042 0.3564 0.07043 0.0
H860 H 0.84118 0.44529 0.11405 0.0
H861 H 0.83404 0.45422 0.04136 0.0
H862 H 0.8399 0.49611 0.11941 0.0
H863 H 0.83257 0.50471 0.04797 0.0
H864 H 0.70529 0.29641 0.15462 0.0
H865 H 0.72897 0.33208 0.0741 0.0
H866 H 0.76414 0.33148 0.1419 0.0
H867 H 0.67083 0.29692 0.08791 0.0
H868 H 0.73353 0.42157 0.12723 0.0
H869 H 0.69855 0.40993 0.05756 0.0
H870 H 0.935 0.42677 0.14205 0.0
H871 H 0.84358 0.40434 0.17645 0.0
H872 H 0.72074 0.31187 0.03498 0.0
H873 H 0.8022 0.40882 0.01861 0.0
H874 H 0.68874 0.31579 0.00275 0.0
H875 H 0.76887 0.41092 0.98659 0.0
H876 H 0.84393 0.32604 0.03368 0.0
H877 H 0.83578 0.32198 0.1071 0.0
H878 H 0.84167 0.27294 0.03425 0.0
H879 H 0.8337 0.26896 0.10641 0.0
H880 H 0.92233 0.46049 0.99718 0.0
H881 H 0.83927 0.37208 0.96807 0.0
H882 H 0.71049 0.21969 0.09489 0.0
H883 H 0.72774 0.24021 0.02246 0.0
Li884 Li 0.49817 0.83194 0.27251 0.0
Li885 Li 0.44576 0.79569 0.25079 0.0
Li886 Li 0.49534 0.79504 0.24253 0.0
Li887 Li 0.4914 0.84054 0.23103 0.0
C888 C 0.47149 0.75762 0.27918 0.0
N889 N 0.47468 0.7036 0.29164 0.0
C890 C 0.44531 0.72615 0.2737 0.0
C891 C 0.49915 0.76166 0.29115 0.0
C892 C 0.44744 0.69913 0.28011 0.0
C893 C 0.50032 0.73402 0.29727 0.0
C894 C 0.4392 0.8435 0.26513 0.0
C895 C 0.38572 0.83762 0.25772 0.0
N896 N 0.38264 0.84221 0.28033 0.0
C897 C 0.43554 0.84826 0.28829 0.0
C898 C 0.41415 0.83826 0.24969 0.0
C899 C 0.40676 0.8475 0.29563 0.0
C900 C 0.52949 0.88615 0.30108 0.0
N901 N 0.51309 0.85292 0.30101 0.0
C902 C 0.5056 0.85101 0.3415 0.0
C903 C 0.50183 0.83519 0.32065 0.0
C904 C 0.52061 0.88523 0.34192 0.0
C905 C 0.53361 0.90293 0.32149 0.0
H906 H 0.53746 0.89943 0.28507 0.0
H907 H 0.48797 0.80873 0.31993 0.0
C908 C 0.38019 0.74995 0.23649 0.0
N909 N 0.39941 0.76728 0.25458 0.0
C910 C 0.3468 0.72559 0.23986 0.0
C911 C 0.35372 0.73787 0.28033 0.0
C912 C 0.38696 0.76186 0.27619 0.0
C913 C 0.33334 0.71897 0.26207 0.0
H914 H 0.3911 0.75419 0.21961 0.0
H915 H 0.40316 0.77558 0.29027 0.0
C916 C 0.55983 0.84311 0.24721 0.0
N917 N 0.61999 0.84547 0.24822 0.0
C918 C 0.57473 0.8417 0.22685 0.0
C919 C 0.57558 0.84582 0.26807 0.0
C920 C 0.60514 0.84291 0.22772 0.0
C921 C 0.60596 0.84693 0.26822 0.0
C922 C 0.46382 0.79933 0.19772 0.0
C923 C 0.48763 0.79809 0.18404 0.0
C924 C 0.44112 0.8063 0.18774 0.0
C925 C 0.48843 0.804 0.16057 0.0
C926 C 0.44282 0.8122 0.16423 0.0
N927 N 0.46623 0.81093 0.15125 0.0
C928 C 0.4801 0.7375 0.22211 0.0
C929 C 0.53318 0.7615 0.23968 0.0
C930 C 0.48174 0.71048 0.21537 0.0
N931 N 0.50567 0.76254 0.23381 0.0
C932 C 0.53613 0.73502 0.23295 0.0
C933 C 0.51014 0.709 0.22055 0.0
H934 H 0.45784 0.73811 0.21846 0.0
H935 H 0.55253 0.78072 0.24996 0.0
C936 C 0.48532 0.88896 0.20764 0.0
N937 N 0.50259 0.87331 0.20837 0.0
C938 C 0.48992 0.90984 0.18946 0.0
C939 C 0.53128 0.89942 0.17378 0.0
C940 C 0.52593 0.87885 0.19229 0.0
C941 C 0.51257 0.91464 0.17192 0.0
H942 H 0.46728 0.88455 0.22081 0.0
H943 H 0.53933 0.86614 0.19328 0.0
O944 O 0.47036 0.7844 0.27241 0.0
O945 O 0.46699 0.84367 0.25763 0.0
O946 O 0.53045 0.8427 0.24672 0.0
O947 O 0.46313 0.79439 0.22082 0.0
H948 H 0.42379 0.72266 0.26435 0.0
H949 H 0.51968 0.7859 0.29541 0.0
H950 H 0.42749 0.67463 0.27585 0.0
H951 H 0.52168 0.73677 0.3064 0.0
H952 H 0.36605 0.83336 0.24597 0.0
H953 H 0.45457 0.85235 0.30052 0.0
H954 H 0.41638 0.83423 0.23175 0.0
H955 H 0.40358 0.85106 0.31351 0.0
H956 H 0.49493 0.83649 0.35684 0.0
H957 H 0.5456 0.92936 0.32117 0.0
H958 H 0.33211 0.71128 0.22537 0.0
H959 H 0.34424 0.73385 0.29768 0.0
H960 H 0.56278 0.83925 0.21058 0.0
H961 H 0.5645 0.84708 0.28398 0.0
H962 H 0.61687 0.84167 0.21212 0.0
H963 H 0.61839 0.84897 0.28425 0.0
H964 H 0.50566 0.79312 0.19148 0.0
H965 H 0.42265 0.80754 0.19808 0.0
H966 H 0.50684 0.8033 0.14981 0.0
H967 H 0.42558 0.81787 0.15631 0.0
H968 H 0.46054 0.69065 0.20659 0.0
H969 H 0.55852 0.73501 0.2374 0.0
H970 H 0.47538 0.92151 0.18889 0.0
H971 H 0.54869 0.90205 0.16053 0.0
C972 C 0.25842 0.64625 0.28995 0.0
C973 C 0.23239 0.64099 0.27529 0.0
H974 H 0.31069 0.67472 0.29714 0.0
C975 C 0.23993 0.66093 0.25582 0.0
H976 H 0.25339 0.63155 0.30522 0.0
C977 C 0.27271 0.68609 0.2514 0.0
C978 C 0.29862 0.6918 0.26635 0.0
H979 H 0.22042 0.65726 0.24408 0.0
H980 H 0.27762 0.7015 0.23654 0.0
C981 C 0.29118 0.67134 0.28551 0.0
C982 C 0.60172 0.21904 0.4297 0.0
C983 C 0.58316 0.20535 0.44982 0.0
H984 H 0.6255 0.26069 0.40751 0.0
C985 C 0.57441 0.22412 0.46327 0.0
H986 H 0.60844 0.20496 0.41887 0.0
C987 C 0.58438 0.2561 0.45691 0.0
C988 C 0.60318 0.26997 0.43686 0.0
H989 H 0.5605 0.21433 0.47904 0.0
H990 H 0.57804 0.2702 0.46802 0.0
C991 C 0.61152 0.25097 0.42324 0.0
C992 C 0.43088 0.58789 0.60644 0.0
C993 C 0.41989 0.55549 0.61296 0.0
H994 H 0.41736 0.62231 0.59597 0.0
C995 C 0.3853 0.53249 0.61329 0.0
H996 H 0.45726 0.60625 0.60575 0.0
C997 C 0.36241 0.54145 0.607 0.0
C998 C 0.37333 0.57385 0.60056 0.0
H999 H 0.3757 0.50744 0.61864 0.0
H1000 H 0.33611 0.52278 0.60705 0.0
C1001 C 0.40791 0.59698 0.60044 0.0
C1002 C 0.85709 0.40493 0.79013 0.0
C1003 C 0.88374 0.41379 0.77497 0.0
H1004 H 0.80549 0.37195 0.79756 0.0
C1005 C 0.87768 0.39629 0.75444 0.0
H1006 H 0.86112 0.4175 0.8063 0.0
C1007 C 0.84564 0.37015 0.74933 0.0
C1008 C 0.81908 0.36092 0.76472 0.0
H1009 H 0.89776 0.40275 0.74238 0.0
H1010 H 0.84167 0.35723 0.73333 0.0
C1011 C 0.82519 0.37876 0.78511 0.0
C1012 C 0.4457 0.81097 0.94917 0.0
C1013 C 0.46055 0.83844 0.93469 0.0
H1014 H 0.43564 0.76264 0.95542 0.0
C1015 C 0.47591 0.83724 0.91434 0.0
H1016 H 0.43403 0.81124 0.96512 0.0
C1017 C 0.47767 0.80969 0.90909 0.0
C1018 C 0.4639 0.7827 0.92401 0.0
H1019 H 0.48731 0.85793 0.90274 0.0
H1020 H 0.49064 0.80994 0.89367 0.0
C1021 C 0.44725 0.78336 0.94384 0.0
C1022 C 0.62994 0.41177 0.10087 0.0
C1023 C 0.6392 0.43917 0.1147 0.0
H1024 H 0.64627 0.38336 0.08304 0.0
C1025 C 0.67262 0.45894 0.12163 0.0
H1026 H 0.60432 0.39626 0.09528 0.0
C1027 C 0.69646 0.45158 0.11474 0.0
C1028 C 0.68737 0.42449 0.10062 0.0
H1029 H 0.68028 0.48005 0.13248 0.0
H1030 H 0.72211 0.46732 0.12021 0.0
C1031 C 0.65392 0.4046 0.09374 0.0
C1032 C 0.42522 0.87509 0.5556 0.0
C1033 C 0.43816 0.88146 0.53325 0.0
H1034 H 0.39143 0.83887 0.57954 0.0
C1035 C 0.42715 0.85542 0.51776 0.0
H1036 H 0.43338 0.89487 0.56779 0.0
C1037 C 0.40275 0.82362 0.52431 0.0
C1038 C 0.38951 0.8173 0.54658 0.0
H1039 H 0.43661 0.85985 0.50039 0.0
H1040 H 0.39413 0.80395 0.51197 0.0
C1041 C 0.40135 0.84319 0.56229 0.0
C1042 C 0.54573 0.35745 0.714 0.0
C1043 C 0.5592 0.37405 0.69326 0.0
H1044 H 0.54233 0.32184 0.73786 0.0
C1045 C 0.57966 0.36661 0.68029 0.0
H1046 H 0.53005 0.36286 0.72442 0.0
C1047 C 0.58672 0.34322 0.68799 0.0
C1048 C 0.5736 0.32691 0.70887 0.0
H1049 H 0.5901 0.37879 0.66412 0.0
H1050 H 0.60304 0.3384 0.67781 0.0
C1051 C 0.55294 0.33418 0.72177 0.0
C1052 C 0.21958 0.57828 0.88526 0.0
C1053 C 0.19689 0.55142 0.87192 0.0
H1054 H 0.2681 0.6042 0.90052 0.0
C1055 C 0.20567 0.52884 0.86454 0.0
H1056 H 0.21331 0.59576 0.89151 0.0
C1057 C 0.23683 0.53349 0.86991 0.0
C1058 C 0.25987 0.56095 0.88253 0.0
H1059 H 0.18895 0.50816 0.85392 0.0
H1060 H 0.24341 0.51635 0.86339 0.0
C1061 C 0.25082 0.58303 0.89048 0.0
C1062 C 0.66174 0.14428 0.02817 0.0
C1063 C 0.63065 0.13243 0.03892 0.0
H1064 H 0.71306 0.18269 0.02608 0.0
C1065 C 0.62812 0.15049 0.05691 0.0
H1066 H 0.66439 0.13107 0.0141 0.0
C1067 C 0.65604 0.18014 0.06374 0.0
C1068 C 0.6869 0.19234 0.05257 0.0
H1069 H 0.60453 0.14177 0.06563 0.0
H1070 H 0.6532 0.19405 0.07723 0.0
C1071 C 0.68955 0.17392 0.03491 0.0
C1072 C 0.49879 0.63672 0.18579 0.0
C1073 C 0.51448 0.62475 0.19965 0.0
H1074 H 0.48637 0.67338 0.18098 0.0
C1075 C 0.52894 0.64059 0.22038 0.0
H1076 H 0.48796 0.62521 0.16955 0.0
C1077 C 0.52755 0.66788 0.22722 0.0
C1078 C 0.51208 0.68017 0.21328 0.0
H1079 H 0.54106 0.63166 0.23139 0.0
H1080 H 0.5382 0.67901 0.24357 0.0
C1081 C 0.49787 0.66429 0.19242 0.0
C1082 C 0.89728 0.48731 0.38156 0.0
C1083 C 0.90743 0.4987 0.3591 0.0
H1084 H 0.86099 0.47545 0.40799 0.0
C1085 C 0.88744 0.50633 0.34576 0.0
H1086 H 0.91236 0.48165 0.39238 0.0
C1087 C 0.85819 0.50297 0.35473 0.0
C1088 C 0.84814 0.49181 0.37723 0.0
H1089 H 0.89424 0.51463 0.32826 0.0
H1090 H 0.84313 0.50859 0.34386 0.0
C1091 C 0.86794 0.48388 0.39053 0.0
C1092 C 0.12426 0.59004 0.43305 0.0
C1093 C 0.09757 0.55749 0.43072 0.0
H1094 H 0.16571 0.62485 0.45303 0.0
C1095 C 0.09231 0.53488 0.44806 0.0
H1096 H 0.12961 0.60806 0.41988 0.0
C1097 C 0.11378 0.54435 0.46688 0.0
C1098 C 0.14096 0.57673 0.4689 0.0
H1099 H 0.0719 0.50966 0.44692 0.0
H1100 H 0.10955 0.526 0.47951 0.0
C1101 C 0.14551 0.59955 0.45191 0.0
C1102 C 0.54862 0.0562 0.62765 0.0
C1103 C 0.56924 0.06326 0.60836 0.0
H1104 H 0.54471 0.06929 0.66207 0.0
C1105 C 0.60328 0.08756 0.61001 0.0
H1106 H 0.52233 0.03753 0.62688 0.0
C1107 C 0.61604 0.10562 0.63007 0.0
C1108 C 0.59508 0.09976 0.64894 0.0
H1109 H 0.61975 0.09395 0.59537 0.0
H1110 H 0.6421 0.12501 0.63054 0.0
C1111 C 0.56148 0.0742 0.64781 0.0
C1112 C 0.51673 0.56184 0.76517 0.0
C1113 C 0.49971 0.56728 0.74763 0.0
H1114 H 0.52779 0.56567 0.801 0.0
C1115 C 0.48085 0.58152 0.75284 0.0
H1116 H 0.53112 0.5505 0.76148 0.0
C1117 C 0.47937 0.59061 0.77531 0.0
C1118 C 0.4962 0.58495 0.7929 0.0
H1119 H 0.46747 0.58576 0.73953 0.0
H1120 H 0.46454 0.60145 0.77905 0.0
C1121 C 0.51474 0.57035 0.78769 0.0
C1122 C 0.93048 0.47295 0.92821 0.0
C1123 C 0.92404 0.45009 0.91077 0.0
H1124 H 0.92189 0.48125 0.96265 0.0
C1125 C 0.90383 0.41657 0.91601 0.0
H1126 H 0.94659 0.499 0.92525 0.0
C1127 C 0.8912 0.40624 0.93809 0.0
C1128 C 0.89737 0.4291 0.9555 0.0
H1129 H 0.8978 0.39805 0.90314 0.0
H1130 H 0.87693 0.38018 0.9414 0.0
C1131 C 0.91695 0.46265 0.95008 0.0
C1132 C 0.5468 0.96697 0.11853 0.0
C1133 C 0.51734 0.96123 0.10795 0.0
H1134 H 0.56855 0.95738 0.14736 0.0
C1135 C 0.48678 0.94258 0.11954 0.0
H1136 H 0.57076 0.98159 0.11011 0.0
C1137 C 0.48548 0.92863 0.14077 0.0
C1138 C 0.51473 0.93307 0.1509 0.0
H1139 H 0.46359 0.9373 0.11168 0.0
H1140 H 0.4613 0.91297 0.14866 0.0
C1141 C 0.54552 0.95306 0.13981 0.0
C1142 C 0.55041 0.46849 0.283 0.0
C1143 C 0.56365 0.50118 0.27619 0.0
H1144 H 0.55274 0.43576 0.30678 0.0
C1145 C 0.58797 0.52647 0.28989 0.0
H1146 H 0.53196 0.44843 0.27265 0.0
C1147 C 0.60031 0.51918 0.30923 0.0
C1148 C 0.58856 0.48644 0.31521 0.0
H1149 H 0.59848 0.55188 0.28507 0.0
H1150 H 0.62029 0.53917 0.31877 0.0
C1151 C 0.56271 0.46121 0.30234 0.0
C1152 C 0.52687 0.91032 0.40417 0.0
C1153 C 0.51694 0.93344 0.40304 0.0
H1154 H 0.5359 0.8769 0.38566 0.0
C1155 C 0.50838 0.94057 0.38175 0.0
H1156 H 0.53356 0.90436 0.42039 0.0
C1157 C 0.50995 0.92512 0.36196 0.0
C1158 C 0.51994 0.90206 0.36303 0.0
H1159 H 0.50108 0.9586 0.38031 0.0
H1160 H 0.50296 0.93098 0.34582 0.0
C1161 C 0.52813 0.89459 0.38435 0.0
C1162 C 0.57305 0.48292 0.53751 0.0
C1163 C 0.56978 0.51037 0.53984 0.0
H1164 H 0.59642 0.46096 0.51984 0.0
C1165 C 0.58795 0.53728 0.52512 0.0
H1166 H 0.55973 0.462 0.54877 0.0
C1167 C 0.60892 0.53654 0.50832 0.0
C1168 C 0.61265 0.5093 0.50653 0.0
H1169 H 0.58598 0.5588 0.52666 0.0
H1170 H 0.62259 0.55736 0.497 0.0
C1171 C 0.59442 0.48249 0.52119 0.0
C1172 C 0.10333 0.59031 0.70342 0.0
C1173 C 0.08467 0.55615 0.70673 0.0
H1174 H 0.13834 0.63036 0.68257 0.0
C1175 C 0.08637 0.53601 0.68994 0.0
H1176 H 0.10307 0.60673 0.71605 0.0
C1177 C 0.10761 0.54966 0.67109 0.0
C1178 C 0.12736 0.58387 0.66825 0.0
H1179 H 0.072 0.5096 0.69168 0.0
H1180 H 0.10947 0.53323 0.65928 0.0
C1181 C 0.12418 0.60396 0.68436 0.0
C1182 C 0.53345 0.09824 0.88994 0.0
C1183 C 0.55513 0.11154 0.90873 0.0
H1184 H 0.5266 0.10106 0.85405 0.0
C1185 C 0.58653 0.1401 0.90564 0.0
H1186 H 0.50936 0.07582 0.89168 0.0
C1187 C 0.59643 0.15455 0.88405 0.0
C1188 C 0.5752 0.1406 0.86508 0.0
H1189 H 0.60364 0.15094 0.91987 0.0
H1190 H 0.62088 0.17646 0.88214 0.0
C1191 C 0.54336 0.11263 0.86834 0.0
C1192 C 0.46546 0.52617 0.0497 0.0
C1193 C 0.47757 0.54967 0.06727 0.0
H1194 H 0.45047 0.51537 0.01474 0.0
C1195 C 0.48385 0.58119 0.06253 0.0
H1196 H 0.46099 0.50183 0.05267 0.0
C1197 C 0.47851 0.58915 0.04063 0.0
C1198 C 0.46667 0.56573 0.023 0.0
H1199 H 0.4931 0.59978 0.07572 0.0
H1200 H 0.4843 0.61389 0.03742 0.0
C1201 C 0.45998 0.53409 0.02784 0.0
C1202 C 0.95357 0.43794 0.21088 0.0
C1203 C 0.94579 0.45638 0.22557 0.0
H1204 H 0.94257 0.41091 0.17965 0.0
C1205 C 0.92007 0.46173 0.21933 0.0
H1206 H 0.97361 0.4338 0.21496 0.0
C1207 C 0.90269 0.4491 0.19886 0.0
C1208 C 0.91048 0.43069 0.18414 0.0
H1209 H 0.9133 0.47566 0.23028 0.0
H1210 H 0.88343 0.45423 0.19443 0.0
C1211 C 0.9361 0.42521 0.19044 0.0
loop_
_geom_bond_atom_site_label_1
_geom_bond_atom_site_label_2
_geom_bond_distance
_geom_bond_site_symmetry_2
_ccdc_geom_bond_type
H0 O26 0.856 . S
H1 O29 0.854 . S
H2 C37 0.930 . S
H3 C38 0.930 . S
H4 C40 0.930 . S
H5 C41 0.930 . S
H6 C43 0.931 . S
H7 C44 0.930 . S
H8 C46 0.930 . S
H9 C47 0.929 . S
H10 C49 0.930 . S
H11 C50 0.931 . S
H12 C52 0.930 . S
H13 C53 0.929 . S
H14 C55 0.931 . S
H15 C56 0.930 . S
H16 C58 0.930 . S
H17 C59 0.932 . S
H18 C61 0.930 . S
H19 C62 0.929 . S
H20 C64 0.931 . S
H21 C65 0.930 . S
H22 C67 0.929 . S
H23 C68 0.931 . S
H24 C70 0.930 . S
H25 C71 0.929 1_455 S
O26 H0 0.856 . S
O26 C72 1.300 . S
O27 C72 1.209 . S
O28 C73 1.199 . S
O29 H1 0.854 . S
O29 C73 1.297 . S
C30 C31 1.404 . S
C30 C35 1.397 . S
C30 C36 1.492 . S
C31 C30 1.404 . S
C31 C32 1.396 . S
C31 C42 1.492 . S
C32 C31 1.396 . S
C32 C33 1.397 . S
C32 C48 1.509 . S
C33 C32 1.397 . S
C33 C34 1.412 . S
C33 C54 1.485 . S
C34 C33 1.412 . S
C34 C35 1.388 . S
C34 C60 1.490 . S
C35 C30 1.397 . S
C35 C34 1.388 . S
C35 C66 1.519 . S
C36 C30 1.492 . S
C36 C37 1.363 . S
C36 C41 1.390 1_455 S
C37 H2 0.930 . S
C37 C36 1.363 . S
C37 C38 1.372 1_455 S
C38 H3 0.930 . S
C38 C37 1.372 1_655 S
C38 C39 1.383 . S
C39 C38 1.383 . S
C39 C40 1.395 . S
C40 H4 0.930 . S
C40 C39 1.395 . S
C40 C41 1.362 . S
C41 H5 0.930 . S
C41 C36 1.390 1_655 S
C41 C40 1.362 . S
C42 C31 1.492 . S
C42 C43 1.377 . S
C42 C47 1.397 . S
C43 H6 0.931 . S
C43 C42 1.377 . S
C43 C44 1.376 . S
C44 H7 0.930 . S
C44 C43 1.376 . S
C44 C45 1.376 . S
C45 C44 1.376 . S
C45 C46 1.378 . S
C45 C72 1.486 . S
C46 H8 0.930 . S
C46 C45 1.378 . S
C46 C47 1.376 . S
C47 H9 0.929 . S
C47 C42 1.397 . S
C47 C46 1.376 . S
C48 C32 1.509 . S
C48 C49 1.391 . S
C48 C53 1.386 . S
C49 H10 0.930 . S
C49 C48 1.391 . S
C49 C50 1.375 . S
C50 H11 0.931 . S
C50 C49 1.375 . S
C50 C51 1.375 . S
C51 C50 1.375 . S
C51 C52 1.361 . S
C52 H12 0.930 . S
C52 C51 1.361 . S
C52 C53 1.399 . S
C53 H13 0.929 . S
C53 C48 1.386 . S
C53 C52 1.399 . S
C54 C33 1.485 . S
C54 C55 1.394 . S
C54 C59 1.360 . S
C55 H14 0.931 . S
C55 C54 1.394 . S
C55 C56 1.372 . S
C56 H15 0.930 . S
C56 C55 1.372 . S
C56 C57 1.397 . S
C57 C56 1.397 . S
C57 C58 1.390 . S
C57 C73 1.476 . S
C58 H16 0.930 . S
C58 C57 1.390 . S
C58 C59 1.366 . S
C59 H17 0.932 . S
C59 C54 1.360 . S
C59 C58 1.366 . S
C60 C34 1.490 . S
C60 C61 1.380 . S
C60 C65 1.386 . S
C61 H18 0.930 . S
C61 C60 1.380 . S
C61 C62 1.381 . S
C62 H19 0.929 . S
C62 C61 1.381 . S
C62 C63 1.371 . S
C63 C62 1.371 . S
C63 C64 1.380 . S
C64 H20 0.931 . S
C64 C63 1.380 . S
C64 C65 1.387 . S
C65 H21 0.930 . S
C65 C60 1.386 . S
C65 C64 1.387 . S
C66 C35 1.519 . S
C66 C67 1.377 1_455 S
C66 C71 1.361 1_455 S
C67 H22 0.929 . S
C67 C66 1.377 1_655 S
C67 C68 1.386 . S
C68 H23 0.931 . S
C68 C67 1.386 . S
C68 C69 1.363 . S
C69 C68 1.363 . S
C69 C70 1.385 . S
C70 H24 0.930 . S
C70 C69 1.385 . S
C70 C71 1.396 . S
C71 H25 0.929 1_655 S
C71 C66 1.361 1_655 S
C71 C70 1.396 . S
C72 O26 1.300 . S
C72 O27 1.209 . S
C72 C45 1.486 . S
C73 O28 1.199 . S
C73 O29 1.297 . S
C73 C57 1.476 . S
H74 O100 0.856 . S
H75 O103 0.854 . S
H76 C111 0.930 . S
H77 C112 0.930 . S
H78 C114 0.930 . S
H79 C115 0.930 . S
H80 C117 0.931 . S
H81 C118 0.930 . S
H82 C120 0.930 . S
H83 C121 0.929 . S
H84 C123 0.930 . S
H85 C124 0.931 . S
H86 C126 0.930 . S
H87 C127 0.929 . S
H88 C129 0.931 . S
H89 C130 0.930 . S
H90 C132 0.930 . S
H91 C133 0.932 . S
H92 C135 0.930 . S
H93 C136 0.929 . S
H94 C138 0.931 . S
H95 C139 0.930 . S
H96 C141 0.929 . S
H97 C142 0.931 . S
H98 C144 0.930 . S
H99 C145 0.929 1_545 S
O100 H74 0.856 . S
O100 C146 1.300 . S
O101 C146 1.209 . S
O102 C147 1.199 . S
O103 H75 0.854 . S
O103 C147 1.297 . S
C104 C105 1.404 . S
C104 C109 1.397 . S
C104 C110 1.492 . S
C105 C104 1.404 . S
C105 C106 1.396 . S
C105 C116 1.492 . S
C106 C105 1.396 . S
C106 C107 1.397 . S
C106 C122 1.509 . S
C107 C106 1.397 . S
C107 C108 1.412 . S
C107 C128 1.485 . S
C108 C107 1.412 . S
C108 C109 1.388 . S
C108 C134 1.490 . S
C109 C104 1.397 . S
C109 C108 1.388 . S
C109 C140 1.519 . S
C110 C104 1.492 . S
C110 C111 1.363 . S
C110 C115 1.390 1_545 S
C111 H76 0.930 . S
C111 C110 1.363 . S
C111 C112 1.372 1_545 S
C112 H77 0.930 . S
C112 C111 1.372 1_565 S
C112 C113 1.383 . S
C113 C112 1.383 . S
C113 C114 1.395 . S
C114 H78 0.930 . S
C114 C113 1.395 . S
C114 C115 1.362 . S
C115 H79 0.930 . S
C115 C110 1.390 1_565 S
C115 C114 1.362 . S
C116 C105 1.492 . S
C116 C117 1.377 . S
C116 C121 1.397 . S
C117 H80 0.931 . S
C117 C116 1.377 . S
C117 C118 1.376 . S
C118 H81 0.930 . S
C118 C117 1.376 . S
C118 C119 1.376 . S
C119 C118 1.376 . S
C119 C120 1.378 . S
C119 C146 1.486 . S
C120 H82 0.930 . S
C120 C119 1.378 . S
C120 C121 1.376 . S
C121 H83 0.929 . S
C121 C116 1.397 . S
C121 C120 1.376 . S
C122 C106 1.509 . S
C122 C123 1.391 . S
C122 C127 1.386 . S
C123 H84 0.930 . S
C123 C122 1.391 . S
C123 C124 1.375 . S
C124 H85 0.931 . S
C124 C123 1.375 . S
C124 C125 1.375 . S
C125 C124 1.375 . S
C125 C126 1.361 . S
C126 H86 0.930 . S
C126 C125 1.361 . S
C126 C127 1.399 . S
C127 H87 0.929 . S
C127 C122 1.386 . S
C127 C126 1.399 . S
C128 C107 1.485 . S
C128 C129 1.394 . S
C128 C133 1.360 . S
C129 H88 0.931 . S
C129 C128 1.394 . S
C129 C130 1.372 . S
C130 H89 0.930 . S
C130 C129 1.372 . S
C130 C131 1.397 . S
C131 C130 1.397 . S
C131 C132 1.390 . S
C131 C147 1.476 . S
C132 H90 0.930 . S
C132 C131 1.390 . S
C132 C133 1.366 . S
C133 H91 0.932 . S
C133 C128 1.360 . S
C133 C132 1.366 . S
C134 C108 1.490 . S
C134 C135 1.380 . S
C134 C139 1.386 . S
C135 H92 0.930 . S
C135 C134 1.380 . S
C135 C136 1.381 . S
C136 H93 0.929 . S
C136 C135 1.381 . S
C136 C137 1.371 . S
C137 C136 1.371 . S
C137 C138 1.380 . S
C138 H94 0.931 . S
C138 C137 1.380 . S
C138 C139 1.387 . S
C139 H95 0.930 . S
C139 C134 1.386 . S
C139 C138 1.387 . S
C140 C109 1.519 . S
C140 C141 1.377 1_545 S
C140 C145 1.361 1_545 S
C141 H96 0.929 . S
C141 C140 1.377 1_565 S
C141 C142 1.386 . S
C142 H97 0.931 . S
C142 C141 1.386 . S
C142 C143 1.363 . S
C143 C142 1.363 . S
C143 C144 1.385 . S
C144 H98 0.930 . S
C144 C143 1.385 . S
C144 C145 1.396 . S
C145 H99 0.929 1_565 S
C145 C140 1.361 1_565 S
C145 C144 1.396 . S
C146 O100 1.300 . S
C146 O101 1.209 . S
C146 C119 1.486 . S
C147 O102 1.199 . S
C147 O103 1.297 . S
C147 C131 1.476 . S
H148 O174 0.856 . S
H149 O177 0.854 . S
H150 C185 0.930 . S
H151 C186 0.930 . S
H152 C188 0.930 . S
H153 C189 0.930 . S
H154 C191 0.931 . S
H155 C192 0.930 . S
H156 C194 0.930 . S
H157 C195 0.929 . S
H158 C197 0.930 . S
H159 C198 0.931 . S
H160 C200 0.930 . S
H161 C201 0.929 . S
H162 C203 0.931 . S
H163 C204 0.930 . S
H164 C206 0.930 . S
H165 C207 0.932 . S
H166 C209 0.930 . S
H167 C210 0.929 . S
H168 C212 0.931 . S
H169 C213 0.930 . S
H170 C215 0.929 . S
H171 C216 0.931 . S
H172 C218 0.930 . S
H173 C219 0.929 . S
O174 H148 0.856 . S
O174 C220 1.300 . S
O175 C220 1.209 . S
O176 C221 1.199 . S
O177 H149 0.854 . S
O177 C221 1.297 . S
C178 C179 1.404 . S
C178 C183 1.397 . S
C178 C184 1.492 . S
C179 C178 1.404 . S
C179 C180 1.396 . S
C179 C190 1.492 . S
C180 C179 1.396 . S
C180 C181 1.397 . S
C180 C196 1.509 . S
C181 C180 1.397 . S
C181 C182 1.412 . S
C181 C202 1.485 . S
C182 C181 1.412 . S
C182 C183 1.388 . S
C182 C208 1.490 . S
C183 C178 1.397 . S
C183 C182 1.388 . S
C183 C214 1.519 . S
C184 C178 1.492 . S
C184 C185 1.363 . S
C184 C189 1.390 . S
C185 H150 0.930 . S
C185 C184 1.363 . S
C185 C186 1.372 . S
C186 H151 0.930 . S
C186 C185 1.372 . S
C186 C187 1.383 . S
C187 C186 1.383 . S
C187 C188 1.395 . S
C188 H152 0.930 . S
C188 C187 1.395 . S
C188 C189 1.362 . S
C189 H153 0.930 . S
C189 C184 1.390 . S
C189 C188 1.362 . S
C190 C179 1.492 . S
C190 C191 1.377 . S
C190 C195 1.397 . S
C191 H154 0.931 . S
C191 C190 1.377 . S
C191 C192 1.376 . S
C192 H155 0.930 . S
C192 C191 1.376 . S
C192 C193 1.376 . S
C193 C192 1.376 . S
C193 C194 1.378 . S
C193 C220 1.486 . S
C194 H156 0.930 . S
C194 C193 1.378 . S
C194 C195 1.376 . S
C195 H157 0.929 . S
C195 C190 1.397 . S
C195 C194 1.376 . S
C196 C180 1.509 . S
C196 C197 1.391 . S
C196 C201 1.386 . S
C197 H158 0.930 . S
C197 C196 1.391 . S
C197 C198 1.375 . S
C198 H159 0.931 . S
C198 C197 1.375 . S
C198 C199 1.375 . S
C199 C198 1.375 . S
C199 C200 1.361 . S
C200 H160 0.930 . S
C200 C199 1.361 . S
C200 C201 1.399 . S
C201 H161 0.929 . S
C201 C196 1.386 . S
C201 C200 1.399 . S
C202 C181 1.485 . S
C202 C203 1.394 . S
C202 C207 1.360 . S
C203 H162 0.931 . S
C203 C202 1.394 . S
C203 C204 1.372 . S
C204 H163 0.930 . S
C204 C203 1.372 . S
C204 C205 1.397 . S
C205 C204 1.397 . S
C205 C206 1.390 . S
C205 C221 1.476 . S
C206 H164 0.930 . S
C206 C205 1.390 . S
C206 C207 1.366 . S
C207 H165 0.932 . S
C207 C202 1.360 . S
C207 C206 1.366 . S
C208 C182 1.490 . S
C208 C209 1.380 . S
C208 C213 1.386 . S
C209 H166 0.930 . S
C209 C208 1.380 . S
C209 C210 1.381 . S
C210 H167 0.929 . S
C210 C209 1.381 . S
C210 C211 1.371 . S
C211 C210 1.371 . S
C211 C212 1.380 . S
C212 H168 0.931 . S
C212 C211 1.380 . S
C212 C213 1.387 . S
C213 H169 0.930 . S
C213 C208 1.386 . S
C213 C212 1.387 . S
C214 C183 1.519 . S
C214 C215 1.377 . S
C214 C219 1.361 . S
C215 H170 0.929 . S
C215 C214 1.377 . S
C215 C216 1.386 . S
C216 H171 0.931 . S
C216 C215 1.386 . S
C216 C217 1.363 . S
C217 C216 1.363 . S
C217 C218 1.385 . S
C218 H172 0.930 . S
C218 C217 1.385 . S
C218 C219 1.396 . S
C219 H173 0.929 . S
C219 C214 1.361 . S
C219 C218 1.396 . S
C220 O174 1.300 . S
C220 O175 1.209 . S
C220 C193 1.486 . S
C221 O176 1.199 . S
C221 O177 1.297 . S
C221 C205 1.476 . S
H222 O248 0.856 . S
H223 O251 0.854 . S
H224 C259 0.930 1_455 S
H225 C260 0.930 . S
H226 C262 0.930 . S
H227 C263 0.930 . S
H228 C265 0.931 . S
H229 C266 0.930 . S
H230 C268 0.930 . S
H231 C269 0.929 . S
H232 C271 0.930 . S
H233 C272 0.931 . S
H234 C274 0.930 . S
H235 C275 0.929 . S
H236 C277 0.931 . S
H237 C278 0.930 . S
H238 C280 0.930 . S
H239 C281 0.932 . S
H240 C283 0.930 . S
H241 C284 0.929 . S
H242 C286 0.931 . S
H243 C287 0.930 . S
H244 C289 0.929 . S
H245 C290 0.931 . S
H246 C292 0.930 . S
H247 C293 0.948 . S
O248 H222 0.856 . S
O248 C294 1.300 . S
O249 C294 1.209 . S
O250 C295 1.199 . S
O251 H223 0.854 . S
O251 C295 1.297 . S
C252 C253 1.404 . S
C252 C257 1.397 . S
C252 C258 1.492 . S
C253 C252 1.404 . S
C253 C254 1.396 . S
C253 C264 1.492 . S
C254 C253 1.396 . S
C254 C255 1.397 . S
C254 C270 1.509 . S
C255 C254 1.397 . S
C255 C256 1.412 . S
C255 C276 1.485 . S
C256 C255 1.412 . S
C256 C257 1.388 . S
C256 C282 1.490 . S
C257 C252 1.397 . S
C257 C256 1.388 . S
C257 C288 1.519 1_455 S
C258 C252 1.492 . S
C258 C259 1.363 1_455 S
C258 C263 1.390 1_455 S
C259 H224 0.930 1_655 S
C259 C258 1.363 1_655 S
C259 C260 1.372 . S
C260 H225 0.930 . S
C260 C259 1.372 . S
C260 C261 1.383 . S
C261 C260 1.383 . S
C261 C262 1.395 . S
C262 H226 0.930 . S
C262 C261 1.395 . S
C262 C263 1.362 . S
C263 H227 0.930 . S
C263 C258 1.390 1_655 S
C263 C262 1.362 . S
C264 C253 1.492 . S
C264 C265 1.377 . S
C264 C269 1.397 . S
C265 H228 0.931 . S
C265 C264 1.377 . S
C265 C266 1.376 . S
C266 H229 0.930 . S
C266 C265 1.376 . S
C266 C267 1.376 . S
C267 C266 1.376 . S
C267 C268 1.378 . S
C267 C294 1.486 . S
C268 H230 0.930 . S
C268 C267 1.378 . S
C268 C269 1.376 . S
C269 H231 0.929 . S
C269 C264 1.397 . S
C269 C268 1.376 . S
C270 C254 1.509 . S
C270 C271 1.391 . S
C270 C275 1.386 . S
C271 H232 0.930 . S
C271 C270 1.391 . S
C271 C272 1.375 . S
C272 H233 0.931 . S
C272 C271 1.375 . S
C272 C273 1.375 . S
C273 C272 1.375 . S
C273 C274 1.361 . S
C274 H234 0.930 . S
C274 C273 1.361 . S
C274 C275 1.399 . S
C275 H235 0.929 . S
C275 C270 1.386 . S
C275 C274 1.399 . S
C276 C255 1.485 . S
C276 C277 1.394 . S
C276 C281 1.360 . S
C277 H236 0.931 . S
C277 C276 1.394 . S
C277 C278 1.372 . S
C278 H237 0.930 . S
C278 C277 1.372 . S
C278 C279 1.397 . S
C279 C278 1.397 . S
C279 C280 1.390 . S
C279 C295 1.476 . S
C280 H238 0.930 . S
C280 C279 1.390 . S
C280 C281 1.366 . S
C281 H239 0.932 . S
C281 C276 1.360 . S
C281 C280 1.366 . S
C282 C256 1.490 . S
C282 C283 1.380 . S
C282 C287 1.386 . S
C283 H240 0.930 . S
C283 C282 1.380 . S
C283 C284 1.381 . S
C284 H241 0.929 . S
C284 C283 1.381 . S
C284 C285 1.371 . S
C285 C284 1.371 . S
C285 C286 1.380 . S
C286 H242 0.931 . S
C286 C285 1.380 . S
C286 C287 1.387 . S
C287 H243 0.930 . S
C287 C282 1.386 . S
C287 C286 1.387 . S
C288 C257 1.519 1_655 S
C288 C289 1.377 . S
C288 C293 1.361 . S
C289 H244 0.929 . S
C289 C288 1.377 . S
C289 C290 1.386 . S
C290 H245 0.931 . S
C290 C289 1.386 . S
C290 C291 1.363 . S
C291 C290 1.363 . S
C291 C292 1.385 . S
C292 H246 0.930 . S
C292 C291 1.385 . S
C292 C293 1.396 . S
C293 H247 0.948 . S
C293 C288 1.361 . S
C293 C292 1.396 . S
C294 O248 1.300 . S
C294 O249 1.209 . S
C294 C267 1.486 . S
C295 O250 1.199 . S
C295 O251 1.297 . S
C295 C279 1.476 . S
H296 O322 0.856 . S
H297 O325 0.854 . S
H298 C333 0.930 . S
H299 C334 0.930 . S
H300 C336 0.930 . S
H301 C337 0.930 . S
H302 C339 0.931 . S
H303 C340 0.930 . S
H304 C342 0.930 . S
H305 C343 0.929 . S
H306 C345 0.930 . S
H307 C346 0.931 . S
H308 C348 0.930 . S
H309 C349 0.929 . S
H310 C351 0.931 . S
H311 C352 0.930 . S
H312 C354 0.930 . S
H313 C355 0.932 . S
H314 C357 0.930 . S
H315 C358 0.943 . S
H316 C360 0.931 . S
H317 C361 0.930 . S
H318 C363 0.929 1_556 S
H319 C364 0.931 . S
H320 C366 0.930 . S
H321 C367 0.929 . S
O322 H296 0.856 . S
O322 C368 1.300 . S
O323 C368 1.209 . S
O324 C369 1.199 . S
O325 H297 0.854 . S
O325 C369 1.297 . S
C326 C327 1.404 . S
C326 C331 1.396 1_565 S
C326 C332 1.492 1_565 S
C327 C326 1.404 . S
C327 C328 1.396 . S
C327 C338 1.492 . S
C328 C327 1.396 . S
C328 C329 1.421 . S
C328 C344 1.509 . S
C329 C328 1.421 . S
C329 C330 1.403 1_556 S
C329 C350 1.471 1_556 S
C330 C329 1.403 1_554 S
C330 C331 1.382 1_564 S
C330 C356 1.490 . S
C331 C326 1.396 1_545 S
C331 C330 1.382 1_546 S
C331 C362 1.525 1_556 S
C332 C326 1.492 1_545 S
C332 C333 1.363 . S
C332 C337 1.390 . S
C333 H298 0.930 . S
C333 C332 1.363 . S
C333 C334 1.372 . S
C334 H299 0.930 . S
C334 C333 1.372 . S
C334 C335 1.383 . S
C335 C334 1.383 . S
C335 C336 1.395 . S
C336 H300 0.930 . S
C336 C335 1.395 . S
C336 C337 1.362 . S
C337 H301 0.930 . S
C337 C332 1.390 . S
C337 C336 1.362 . S
C338 C327 1.492 . S
C338 C339 1.377 . S
C338 C343 1.397 . S
C339 H302 0.931 . S
C339 C338 1.377 . S
C339 C340 1.376 . S
C340 H303 0.930 . S
C340 C339 1.376 . S
C340 C341 1.376 . S
C341 C340 1.376 . S
C341 C342 1.378 . S
C341 C368 1.486 . S
C342 H304 0.930 . S
C342 C341 1.378 . S
C342 C343 1.376 . S
C343 H305 0.929 . S
C343 C338 1.397 . S
C343 C342 1.376 . S
C344 C328 1.509 . S
C344 C345 1.391 . S
C344 C349 1.386 . S
C345 H306 0.930 . S
C345 C344 1.391 . S
C345 C346 1.375 . S
C346 H307 0.931 . S
C346 C345 1.375 . S
C346 C347 1.375 . S
C347 C346 1.375 . S
C347 C348 1.361 . S
C348 H308 0.930 . S
C348 C347 1.361 . S
C348 C349 1.399 . S
C349 H309 0.929 . S
C349 C344 1.386 . S
C349 C348 1.399 . S
C350 C329 1.471 1_554 S
C350 C351 1.394 . S
C350 C355 1.360 . S
C351 H310 0.931 . S
C351 C350 1.394 . S
C351 C352 1.372 . S
C352 H311 0.930 . S
C352 C351 1.372 . S
C352 C353 1.397 . S
C353 C352 1.397 . S
C353 C354 1.390 . S
C353 C369 1.476 . S
C354 H312 0.930 . S
C354 C353 1.390 . S
C354 C355 1.366 . S
C355 H313 0.932 . S
C355 C350 1.360 . S
C355 C354 1.366 . S
C356 C330 1.490 . S
C356 C357 1.380 . S
C356 C361 1.386 . S
C357 H314 0.930 . S
C357 C356 1.380 . S
C357 C358 1.381 . S
C358 H315 0.943 . S
C358 C357 1.381 . S
C358 C359 1.371 . S
C359 C358 1.371 . S
C359 C360 1.380 . S
C360 H316 0.931 . S
C360 C359 1.380 . S
C360 C361 1.387 . S
C361 H317 0.930 . S
C361 C356 1.386 . S
C361 C360 1.387 . S
C362 C331 1.525 1_554 S
C362 C363 1.377 . S
C362 C367 1.361 . S
C363 H318 0.929 1_554 S
C363 C362 1.377 . S
C363 C364 1.386 . S
C364 H319 0.931 . S
C364 C363 1.386 . S
C364 C365 1.363 . S
C365 C364 1.363 . S
C365 C366 1.385 . S
C366 H320 0.930 . S
C366 C365 1.385 . S
C366 C367 1.396 . S
C367 H321 0.929 . S
C367 C362 1.361 . S
C367 C366 1.396 . S
C368 O322 1.300 . S
C368 O323 1.209 . S
C368 C341 1.486 . S
C369 O324 1.199 . S
C369 O325 1.297 . S
C369 C353 1.476 . S
H370 O396 0.856 . S
H371 O399 0.854 . S
H372 C407 0.930 . S
H373 C408 0.930 . S
H374 C410 0.930 . S
H375 C411 0.930 . S
H376 C413 0.931 . S
H377 C414 0.930 . S
H378 C416 0.930 . S
H379 C417 0.929 . S
H380 C419 0.930 . S
H381 C420 0.931 . S
H382 C422 0.930 . S
H383 C423 0.929 . S
H384 C425 0.931 . S
H385 C426 0.930 . S
H386 C428 0.930 . S
H387 C429 0.932 . S
H388 C431 0.930 . S
H389 C432 0.929 . S
H390 C434 0.931 . S
H391 C435 0.930 . S
H392 C437 0.929 . S
H393 C438 0.931 . S
H394 C440 0.930 . S
H395 C441 0.929 . S
O396 H370 0.856 . S
O396 C442 1.300 . S
O397 C442 1.209 . S
O398 C443 1.199 . S
O399 H371 0.854 . S
O399 C443 1.297 . S
C400 C401 1.404 . S
C400 C405 1.397 . S
C400 C406 1.492 . S
C401 C400 1.404 . S
C401 C402 1.396 . S
C401 C412 1.492 . S
C402 C401 1.396 . S
C402 C403 1.397 . S
C402 C418 1.509 . S
C403 C402 1.397 . S
C403 C404 1.412 . S
C403 C424 1.485 . S
C404 C403 1.412 . S
C404 C405 1.388 . S
C404 C430 1.490 . S
C405 C400 1.397 . S
C405 C404 1.388 . S
C405 C436 1.519 . S
C406 C400 1.492 . S
C406 C407 1.363 . S
C406 C411 1.390 . S
C407 H372 0.930 . S
C407 C406 1.363 . S
C407 C408 1.372 . S
C408 H373 0.930 . S
C408 C407 1.372 . S
C408 C409 1.383 . S
C409 C408 1.383 . S
C409 C410 1.395 . S
C410 H374 0.930 . S
C410 C409 1.395 . S
C410 C411 1.362 . S
C411 H375 0.930 . S
C411 C406 1.390 . S
C411 C410 1.362 . S
C412 C401 1.492 . S
C412 C413 1.377 . S
C412 C417 1.397 . S
C413 H376 0.931 . S
C413 C412 1.377 . S
C413 C414 1.376 . S
C414 H377 0.930 . S
C414 C413 1.376 . S
C414 C415 1.376 . S
C415 C414 1.376 . S
C415 C416 1.378 . S
C415 C442 1.486 . S
C416 H378 0.930 . S
C416 C415 1.378 . S
C416 C417 1.376 . S
C417 H379 0.929 . S
C417 C412 1.397 . S
C417 C416 1.376 . S
C418 C402 1.509 . S
C418 C419 1.391 . S
C418 C423 1.386 . S
C419 H380 0.930 . S
C419 C418 1.391 . S
C419 C420 1.375 . S
C420 H381 0.931 . S
C420 C419 1.375 . S
C420 C421 1.375 . S
C421 C420 1.375 . S
C421 C422 1.361 . S
C422 H382 0.930 . S
C422 C421 1.361 . S
C422 C423 1.399 . S
C423 H383 0.929 . S
C423 C418 1.386 . S
C423 C422 1.399 . S
C424 C403 1.485 . S
C424 C425 1.394 . S
C424 C429 1.360 . S
C425 H384 0.931 . S
C425 C424 1.394 . S
C425 C426 1.372 . S
C426 H385 0.930 . S
C426 C425 1.372 . S
C426 C427 1.397 . S
C427 C426 1.397 . S
C427 C428 1.390 . S
C427 C443 1.476 . S
C428 H386 0.930 . S
C428 C427 1.390 . S
C428 C429 1.366 . S
C429 H387 0.932 . S
C429 C424 1.360 . S
C429 C428 1.366 . S
C430 C404 1.490 . S
C430 C431 1.380 . S
C430 C435 1.386 . S
C431 H388 0.930 . S
C431 C430 1.380 . S
C431 C432 1.381 . S
C432 H389 0.929 . S
C432 C431 1.381 . S
C432 C433 1.371 . S
C433 C432 1.371 . S
C433 C434 1.380 . S
C434 H390 0.931 . S
C434 C433 1.380 . S
C434 C435 1.387 . S
C435 H391 0.930 . S
C435 C430 1.386 . S
C435 C434 1.387 . S
C436 C405 1.519 . S
C436 C437 1.377 . S
C436 C441 1.361 . S
C437 H392 0.929 . S
C437 C436 1.377 . S
C437 C438 1.386 . S
C438 H393 0.931 . S
C438 C437 1.386 . S
C438 C439 1.363 . S
C439 C438 1.363 . S
C439 C440 1.385 . S
C440 H394 0.930 . S
C440 C439 1.385 . S
C440 C441 1.396 . S
C441 H395 0.929 . S
C441 C436 1.361 . S
C441 C440 1.396 . S
C442 O396 1.300 . S
C442 O397 1.209 . S
C442 C415 1.486 . S
C443 O398 1.199 . S
C443 O399 1.297 . S
C443 C427 1.476 . S
Li444 N461 1.990 . S
Li444 O504 1.956 . S
Li444 O505 1.970 . S
Li444 O506 1.961 . S
Li445 N469 1.990 . S
Li445 O504 1.970 . S
Li445 O505 1.956 . S
Li445 O507 1.961 . S
Li446 N491 1.990 . S
Li446 O504 1.961 . S
Li446 O506 1.956 . S
Li446 O507 1.970 . S
Li447 N497 1.990 . S
Li447 O505 1.961 . S
Li447 O506 1.970 . S
Li447 O507 1.956 . S
C448 C450 1.348 . S
C448 C451 1.356 . S
C448 O504 1.325 . S
N449 C452 1.314 . S
N449 C453 1.279 . S
C450 C448 1.348 . S
C450 C452 1.353 . S
C450 H508 0.929 . S
C451 C448 1.356 . S
C451 C453 1.358 . S
C451 H509 0.930 . S
C452 N449 1.314 . S
C452 C450 1.353 . S
C452 H510 0.930 . S
C453 N449 1.279 . S
C453 C451 1.358 . S
C453 H511 0.930 . S
C454 C457 1.348 . S
C454 C458 1.356 . S
C454 O505 1.325 . S
C455 N456 1.279 . S
C455 C458 1.358 . S
C455 H512 0.930 . S
N456 C455 1.279 . S
N456 C459 1.314 . S
C457 C454 1.348 . S
C457 C459 1.353 . S
C457 H513 0.929 . S
C458 C454 1.356 . S
C458 C455 1.358 . S
C458 H514 0.930 . S
C459 N456 1.314 . S
C459 C457 1.353 . S
C459 H515 0.930 . S
C460 N461 1.314 . S
C460 C465 1.353 . S
C460 H466 0.930 . S
N461 Li444 1.990 . S
N461 C460 1.314 . S
N461 C463 1.279 . S
C462 C463 1.358 . S
C462 C464 1.356 . S
C462 H516 0.930 . S
C463 N461 1.279 . S
C463 C462 1.358 . S
C463 H467 0.930 . S
C464 C462 1.356 . S
C464 C465 1.348 . S
C465 C460 1.353 . S
C465 C464 1.348 . S
C465 H517 0.929 . S
H466 C460 0.930 . S
H467 C463 0.930 . S
C468 N469 1.314 . S
C468 C470 1.353 . S
C468 H474 0.930 . S
N469 Li445 1.990 . S
N469 C468 1.314 . S
N469 C472 1.279 . S
C470 C468 1.353 . S
C470 C473 1.348 . S
C470 H518 0.929 . S
C471 C472 1.358 . S
C471 C473 1.356 . S
C471 H519 0.930 . S
C472 N469 1.279 . S
C472 C471 1.358 . S
C472 H475 0.930 . S
C473 C470 1.348 . S
C473 C471 1.356 . S
H474 C468 0.930 . S
H475 C472 0.930 . S
C476 C478 1.348 . S
C476 C479 1.356 . S
C476 O506 1.325 . S
N477 C480 1.314 . S
N477 C481 1.279 . S
C478 C476 1.348 . S
C478 C480 1.353 . S
C478 H520 0.929 . S
C479 C476 1.356 . S
C479 C481 1.358 . S
C479 H521 0.930 . S
C480 N477 1.314 . S
C480 C478 1.353 . S
C480 H522 0.930 . S
C481 N477 1.279 . S
C481 C479 1.358 . S
C481 H523 0.930 . S
C482 C483 1.348 . S
C482 C484 1.356 . S
C482 O507 1.325 . S
C483 C482 1.348 . S
C483 C485 1.353 . S
C483 H524 0.929 . S
C484 C482 1.356 . S
C484 C486 1.358 . S
C484 H525 0.930 . S
C485 C483 1.353 . S
C485 N487 1.314 . S
C485 H526 0.930 . S
C486 C484 1.358 . S
C486 N487 1.279 . S
C486 H527 0.930 . S
N487 C485 1.314 . S
N487 C486 1.279 . S
C488 C490 1.353 . S
C488 N491 1.314 . S
C488 H494 0.930 . S
C489 N491 1.279 . S
C489 C492 1.358 . S
C489 H495 0.930 . S
C490 C488 1.353 . S
C490 C493 1.348 . S
C490 H528 0.929 . S
N491 Li446 1.990 . S
N491 C488 1.314 . S
N491 C489 1.279 . S
C492 C489 1.358 . S
C492 C493 1.356 . S
C492 H529 0.930 . S
C493 C490 1.348 . S
C493 C492 1.356 . S
H494 C488 0.930 . S
H495 C489 0.930 . S
C496 N497 1.314 . S
C496 C498 1.353 . S
C496 H502 0.930 . S
N497 Li447 1.990 . S
N497 C496 1.314 . S
N497 C500 1.279 . S
C498 C496 1.353 . S
C498 C501 1.348 . S
C498 H530 0.929 . S
C499 C500 1.358 . S
C499 C501 1.356 . S
C499 H531 0.930 . S
C500 N497 1.279 . S
C500 C499 1.358 . S
C500 H503 0.930 . S
C501 C498 1.348 . S
C501 C499 1.356 . S
H502 C496 0.930 . S
H503 C500 0.930 . S
O504 Li444 1.956 . S
O504 Li445 1.970 . S
O504 Li446 1.961 . S
O504 C448 1.325 . S
O505 Li444 1.970 . S
O505 Li445 1.956 . S
O505 Li447 1.961 . S
O505 C454 1.325 . S
O506 Li444 1.961 . S
O506 Li446 1.956 . S
O506 Li447 1.970 . S
O506 C476 1.325 . S
O507 Li445 1.961 . S
O507 Li446 1.970 . S
O507 Li447 1.956 . S
O507 C482 1.325 . S
H508 C450 0.929 . S
H509 C451 0.930 . S
H510 C452 0.930 . S
H511 C453 0.930 . S
H512 C455 0.930 . S
H513 C457 0.929 . S
H514 C458 0.930 . S
H515 C459 0.930 . S
H516 C462 0.930 . S
H517 C465 0.929 . S
H518 C470 0.929 . S
H519 C471 0.930 . S
H520 C478 0.929 . S
H521 C479 0.930 . S
H522 C480 0.930 . S
H523 C481 0.930 . S
H524 C483 0.929 . S
H525 C484 0.930 . S
H526 C485 0.930 . S
H527 C486 0.930 . S
H528 C490 0.929 . S
H529 C492 0.930 . S
H530 C498 0.929 . S
H531 C499 0.930 . S
Li532 N549 1.990 . S
Li532 O592 1.956 . S
Li532 O593 1.970 . S
Li532 O594 1.961 . S
Li533 N557 1.990 . S
Li533 O592 1.970 . S
Li533 O593 1.956 . S
Li533 O595 1.961 . S
Li534 N579 1.990 . S
Li534 O592 1.961 . S
Li534 O594 1.956 . S
Li534 O595 1.970 . S
Li535 N585 1.990 . S
Li535 O593 1.961 . S
Li535 O594 1.970 . S
Li535 O595 1.956 . S
C536 C538 1.348 . S
C536 C539 1.356 . S
C536 O592 1.325 . S
N537 C540 1.314 . S
N537 C541 1.279 . S
C538 C536 1.348 . S
C538 C540 1.353 . S
C538 H596 0.929 . S
C539 C536 1.356 . S
C539 C541 1.358 . S
C539 H597 0.930 . S
C540 N537 1.314 . S
C540 C538 1.353 . S
C540 H598 0.930 . S
C541 N537 1.279 . S
C541 C539 1.358 . S
C541 H599 0.930 . S
C542 C545 1.348 . S
C542 C546 1.356 . S
C542 O593 1.325 . S
C543 N544 1.279 . S
C543 C546 1.358 . S
C543 H600 0.930 . S
N544 C543 1.279 . S
N544 C547 1.314 . S
C545 C542 1.348 . S
C545 C547 1.353 . S
C545 H601 0.929 . S
C546 C542 1.356 . S
C546 C543 1.358 . S
C546 H602 0.930 . S
C547 N544 1.314 . S
C547 C545 1.353 . S
C547 H603 0.930 . S
C548 N549 1.314 . S
C548 C553 1.353 . S
C548 H554 0.930 . S
N549 Li532 1.990 . S
N549 C548 1.314 . S
N549 C551 1.279 . S
C550 C551 1.358 . S
C550 C552 1.356 . S
C550 H604 0.930 . S
C551 N549 1.279 . S
C551 C550 1.358 . S
C551 H555 0.930 . S
C552 C550 1.356 . S
C552 C553 1.348 . S
C553 C548 1.353 . S
C553 C552 1.348 . S
C553 H605 0.929 . S
H554 C548 0.930 . S
H555 C551 0.930 . S
C556 N557 1.314 . S
C556 C558 1.353 . S
C556 H562 0.930 . S
N557 Li533 1.990 . S
N557 C556 1.314 . S
N557 C560 1.279 . S
C558 C556 1.353 . S
C558 C561 1.348 . S
C558 H606 0.929 . S
C559 C560 1.358 . S
C559 C561 1.356 . S
C559 H607 0.930 . S
C560 N557 1.279 . S
C560 C559 1.358 . S
C560 H563 0.930 . S
C561 C558 1.348 . S
C561 C559 1.356 . S
H562 C556 0.930 . S
H563 C560 0.930 . S
C564 C566 1.348 . S
C564 C567 1.356 . S
C564 O594 1.325 . S
N565 C568 1.314 . S
N565 C569 1.279 . S
C566 C564 1.348 . S
C566 C568 1.353 . S
C566 H608 0.929 . S
C567 C564 1.356 . S
C567 C569 1.358 . S
C567 H609 0.930 . S
C568 N565 1.314 . S
C568 C566 1.353 . S
C568 H610 0.930 . S
C569 N565 1.279 . S
C569 C567 1.358 . S
C569 H611 0.930 . S
C570 C571 1.348 . S
C570 C572 1.356 . S
C570 O595 1.325 . S
C571 C570 1.348 . S
C571 C573 1.353 . S
C571 H612 0.929 . S
C572 C570 1.356 . S
C572 C574 1.358 . S
C572 H613 0.930 . S
C573 C571 1.353 . S
C573 N575 1.314 . S
C573 H614 0.930 . S
C574 C572 1.358 . S
C574 N575 1.279 . S
C574 H615 0.930 . S
N575 C573 1.314 . S
N575 C574 1.279 . S
C576 C578 1.353 . S
C576 N579 1.314 . S
C576 H582 0.930 . S
C577 N579 1.279 . S
C577 C580 1.358 . S
C577 H583 0.930 . S
C578 C576 1.353 . S
C578 C581 1.348 . S
C578 H616 0.929 . S
N579 Li534 1.990 . S
N579 C576 1.314 . S
N579 C577 1.279 . S
C580 C577 1.358 . S
C580 C581 1.356 . S
C580 H617 0.930 . S
C581 C578 1.348 . S
C581 C580 1.356 . S
H582 C576 0.930 . S
H583 C577 0.930 . S
C584 N585 1.314 . S
C584 C586 1.353 . S
C584 H590 0.930 . S
N585 Li535 1.990 . S
N585 C584 1.314 . S
N585 C588 1.279 . S
C586 C584 1.353 . S
C586 C589 1.348 . S
C586 H618 0.929 . S
C587 C588 1.358 . S
C587 C589 1.356 . S
C587 H619 0.930 . S
C588 N585 1.279 . S
C588 C587 1.358 . S
C588 H591 0.930 . S
C589 C586 1.348 . S
C589 C587 1.356 . S
H590 C584 0.930 . S
H591 C588 0.930 . S
O592 Li532 1.956 . S
O592 Li533 1.970 . S
O592 Li534 1.961 . S
O592 C536 1.325 . S
O593 Li532 1.970 . S
O593 Li533 1.956 . S
O593 Li535 1.961 . S
O593 C542 1.325 . S
O594 Li532 1.961 . S
O594 Li534 1.956 . S
O594 Li535 1.970 . S
O594 C564 1.325 . S
O595 Li533 1.961 . S
O595 Li534 1.970 . S
O595 Li535 1.956 . S
O595 C570 1.325 . S
H596 C538 0.929 . S
H597 C539 0.930 . S
H598 C540 0.930 . S
H599 C541 0.930 . S
H600 C543 0.930 . S
H601 C545 0.929 . S
H602 C546 0.930 . S
H603 C547 0.930 . S
H604 C550 0.930 . S
H605 C553 0.929 . S
H606 C558 0.929 . S
H607 C559 0.930 . S
H608 C566 0.929 . S
H609 C567 0.930 . S
H610 C568 0.930 . S
H611 C569 0.930 . S
H612 C571 0.929 . S
H613 C572 0.930 . S
H614 C573 0.930 . S
H615 C574 0.930 . S
H616 C578 0.929 . S
H617 C580 0.930 . S
H618 C586 0.929 . S
H619 C587 0.930 . S
Li620 N637 1.990 . S
Li620 O680 1.956 . S
Li620 O681 1.970 . S
Li620 O682 1.961 . S
Li621 N645 1.990 . S
Li621 O680 1.970 . S
Li621 O681 1.956 . S
Li621 O683 1.961 . S
Li622 N667 1.990 . S
Li622 O680 1.961 . S
Li622 O682 1.956 . S
Li622 O683 1.970 . S
Li623 N673 1.990 . S
Li623 O681 1.961 . S
Li623 O682 1.970 . S
Li623 O683 1.956 . S
C624 C626 1.348 . S
C624 C627 1.356 . S
C624 O680 1.325 . S
N625 C628 1.314 . S
N625 C629 1.279 . S
C626 C624 1.348 . S
C626 C628 1.353 . S
C626 H684 0.929 . S
C627 C624 1.356 . S
C627 C629 1.358 . S
C627 H685 0.930 . S
C628 N625 1.314 . S
C628 C626 1.353 . S
C628 H686 0.930 . S
C629 N625 1.279 . S
C629 C627 1.358 . S
C629 H687 0.930 . S
C630 C633 1.348 . S
C630 C634 1.356 . S
C630 O681 1.325 . S
C631 N632 1.279 . S
C631 C634 1.358 . S
C631 H688 0.930 . S
N632 C631 1.279 . S
N632 C635 1.314 . S
C633 C630 1.348 . S
C633 C635 1.353 . S
C633 H689 0.929 . S
C634 C630 1.356 . S
C634 C631 1.358 . S
C634 H690 0.930 . S
C635 N632 1.314 . S
C635 C633 1.353 . S
C635 H691 0.930 . S
C636 N637 1.314 . S
C636 C641 1.353 . S
C636 H642 0.930 . S
N637 Li620 1.990 . S
N637 C636 1.314 . S
N637 C639 1.279 . S
C638 C639 1.358 . S
C638 C640 1.356 . S
C638 H692 0.930 . S
C639 N637 1.279 . S
C639 C638 1.358 . S
C639 H643 0.930 . S
C640 C638 1.356 . S
C640 C641 1.348 . S
C641 C636 1.353 . S
C641 C640 1.348 . S
C641 H693 0.929 . S
H642 C636 0.930 . S
H643 C639 0.930 . S
C644 N645 1.314 . S
C644 C646 1.353 . S
C644 H650 0.930 . S
N645 Li621 1.990 . S
N645 C644 1.314 . S
N645 C648 1.279 . S
C646 C644 1.353 . S
C646 C649 1.348 . S
C646 H694 0.929 . S
C647 C648 1.358 . S
C647 C649 1.356 . S
C647 H695 0.930 . S
C648 N645 1.279 . S
C648 C647 1.358 . S
C648 H651 0.930 . S
C649 C646 1.348 . S
C649 C647 1.356 . S
H650 C644 0.930 . S
H651 C648 0.930 . S
C652 C654 1.348 . S
C652 C655 1.356 . S
C652 O682 1.325 . S
N653 C656 1.314 . S
N653 C657 1.279 . S
C654 C652 1.348 . S
C654 C656 1.353 . S
C654 H696 0.929 . S
C655 C652 1.356 . S
C655 C657 1.358 . S
C655 H697 0.930 . S
C656 N653 1.314 . S
C656 C654 1.353 . S
C656 H698 0.930 . S
C657 N653 1.279 . S
C657 C655 1.358 . S
C657 H699 0.930 . S
C658 C659 1.348 . S
C658 C660 1.356 . S
C658 O683 1.325 . S
C659 C658 1.348 . S
C659 C661 1.353 . S
C659 H700 0.929 . S
C660 C658 1.356 . S
C660 C662 1.358 . S
C660 H701 0.930 . S
C661 C659 1.353 . S
C661 N663 1.314 . S
C661 H702 0.930 . S
C662 C660 1.358 . S
C662 N663 1.279 . S
C662 H703 0.930 . S
N663 C661 1.314 . S
N663 C662 1.279 . S
C664 C666 1.353 . S
C664 N667 1.314 . S
C664 H670 0.930 . S
C665 N667 1.279 . S
C665 C668 1.358 . S
C665 H671 0.930 . S
C666 C664 1.353 . S
C666 C669 1.348 . S
C666 H704 0.929 . S
N667 Li622 1.990 . S
N667 C664 1.314 . S
N667 C665 1.279 . S
C668 C665 1.358 . S
C668 C669 1.356 . S
C668 H705 0.930 . S
C669 C666 1.348 . S
C669 C668 1.356 . S
H670 C664 0.930 . S
H671 C665 0.930 . S
C672 N673 1.314 . S
C672 C674 1.353 . S
C672 H678 0.930 . S
N673 Li623 1.990 . S
N673 C672 1.314 . S
N673 C676 1.279 . S
C674 C672 1.353 . S
C674 C677 1.348 . S
C674 H706 0.929 . S
C675 C676 1.358 . S
C675 C677 1.356 . S
C675 H707 0.930 . S
C676 N673 1.279 . S
C676 C675 1.358 . S
C676 H679 0.930 . S
C677 C674 1.348 . S
C677 C675 1.356 . S
H678 C672 0.930 . S
H679 C676 0.930 . S
O680 Li620 1.956 . S
O680 Li621 1.970 . S
O680 Li622 1.961 . S
O680 C624 1.325 . S
O681 Li620 1.970 . S
O681 Li621 1.956 . S
O681 Li623 1.961 . S
O681 C630 1.325 . S
O682 Li620 1.961 . S
O682 Li622 1.956 . S
O682 Li623 1.970 . S
O682 C652 1.325 . S
O683 Li621 1.961 . S
O683 Li622 1.970 . S
O683 Li623 1.956 . S
O683 C658 1.325 . S
H684 C626 0.929 . S
H685 C627 0.930 . S
H686 C628 0.930 . S
H687 C629 0.930 . S
H688 C631 0.930 . S
H689 C633 0.929 . S
H690 C634 0.930 . S
H691 C635 0.930 . S
H692 C638 0.930 . S
H693 C641 0.929 . S
H694 C646 0.929 . S
H695 C647 0.930 . S
H696 C654 0.929 . S
H697 C655 0.930 . S
H698 C656 0.930 . S
H699 C657 0.930 . S
H700 C659 0.929 . S
H701 C660 0.930 . S
H702 C661 0.930 . S
H703 C662 0.930 . S
H704 C666 0.929 . S
H705 C668 0.930 . S
H706 C674 0.929 . S
H707 C675 0.930 . S
Li708 N725 1.990 . S
Li708 O768 1.956 . S
Li708 O769 1.970 . S
Li708 O770 1.961 . S
Li709 N733 1.990 . S
Li709 O768 1.970 . S
Li709 O769 1.956 . S
Li709 O771 1.961 . S
Li710 N755 1.990 . S
Li710 O768 1.961 . S
Li710 O770 1.956 . S
Li710 O771 1.970 . S
Li711 N761 1.990 . S
Li711 O769 1.961 . S
Li711 O770 1.970 . S
Li711 O771 1.956 . S
C712 C714 1.348 . S
C712 C715 1.356 . S
C712 O768 1.325 . S
N713 C716 1.314 . S
N713 C717 1.279 . S
C714 C712 1.348 . S
C714 C716 1.353 . S
C714 H772 0.929 . S
C715 C712 1.356 . S
C715 C717 1.358 . S
C715 H773 0.930 . S
C716 N713 1.314 . S
C716 C714 1.353 . S
C716 H774 0.930 . S
C717 N713 1.279 . S
C717 C715 1.358 . S
C717 H775 0.930 . S
C718 C721 1.348 . S
C718 C722 1.356 . S
C718 O769 1.325 . S
C719 N720 1.279 . S
C719 C722 1.358 . S
C719 H776 0.930 . S
N720 C719 1.279 . S
N720 C723 1.314 . S
C721 C718 1.348 . S
C721 C723 1.353 . S
C721 H777 0.929 . S
C722 C718 1.356 . S
C722 C719 1.358 . S
C722 H778 0.930 . S
C723 N720 1.314 . S
C723 C721 1.353 . S
C723 H779 0.930 . S
C724 N725 1.314 . S
C724 C729 1.353 . S
C724 H730 0.930 . S
N725 Li708 1.990 . S
N725 C724 1.314 . S
N725 C727 1.279 . S
C726 C727 1.377 . S
C726 C728 1.358 . S
C726 H780 0.909 1_556 S
C727 N725 1.279 . S
C727 C726 1.377 . S
C727 H731 0.930 . S
C728 C726 1.358 . S
C728 C729 1.348 . S
C729 C724 1.353 . S
C729 C728 1.348 . S
C729 H781 0.929 . S
H730 C724 0.930 . S
H731 C727 0.930 . S
C732 N733 1.314 . S
C732 C734 1.353 . S
C732 H738 0.930 . S
N733 Li709 1.990 . S
N733 C732 1.314 . S
N733 C736 1.279 . S
C734 C732 1.353 . S
C734 C737 1.348 . S
C734 H782 0.929 . S
C735 C736 1.358 . S
C735 C737 1.356 . S
C735 H783 0.930 . S
C736 N733 1.279 . S
C736 C735 1.358 . S
C736 H739 0.930 . S
C737 C734 1.348 . S
C737 C735 1.356 . S
H738 C732 0.930 . S
H739 C736 0.930 . S
C740 C742 1.348 . S
C740 C743 1.356 . S
C740 O770 1.325 . S
N741 C744 1.314 . S
N741 C745 1.279 . S
C742 C740 1.348 . S
C742 C744 1.353 . S
C742 H784 0.929 . S
C743 C740 1.356 . S
C743 C745 1.358 . S
C743 H785 0.930 . S
C744 N741 1.314 . S
C744 C742 1.353 . S
C744 H786 0.930 . S
C745 N741 1.279 . S
C745 C743 1.358 . S
C745 H787 0.930 . S
C746 C747 1.348 . S
C746 C748 1.356 . S
C746 O771 1.325 . S
C747 C746 1.348 . S
C747 C749 1.353 . S
C747 H788 0.929 . S
C748 C746 1.356 . S
C748 C750 1.358 . S
C748 H789 0.930 . S
C749 C747 1.353 . S
C749 N751 1.314 . S
C749 H790 0.930 . S
C750 C748 1.358 . S
C750 N751 1.279 . S
C750 H791 0.930 . S
N751 C749 1.314 . S
N751 C750 1.279 . S
C752 C754 1.353 . S
C752 N755 1.314 . S
C752 H758 0.930 . S
C753 N755 1.279 . S
C753 C756 1.358 . S
C753 H759 0.930 . S
C754 C752 1.353 . S
C754 C757 1.348 . S
C754 H792 0.929 . S
N755 Li710 1.990 . S
N755 C752 1.314 . S
N755 C753 1.279 . S
C756 C753 1.358 . S
C756 C757 1.356 . S
C756 H793 0.930 . S
C757 C754 1.348 . S
C757 C756 1.356 . S
H758 C752 0.930 . S
H759 C753 0.930 . S
C760 N761 1.314 . S
C760 C762 1.353 . S
C760 H766 0.930 . S
N761 Li711 1.990 . S
N761 C760 1.314 . S
N761 C764 1.279 . S
C762 C760 1.353 . S
C762 C765 1.348 . S
C762 H794 0.929 . S
C763 C764 1.358 . S
C763 C765 1.356 . S
C763 H795 0.930 . S
C764 N761 1.279 . S
C764 C763 1.358 . S
C764 H767 0.930 . S
C765 C762 1.348 . S
C765 C763 1.356 . S
H766 C760 0.930 . S
H767 C764 0.930 . S
O768 Li708 1.956 . S
O768 Li709 1.970 . S
O768 Li710 1.961 . S
O768 C712 1.325 . S
O769 Li708 1.970 . S
O769 Li709 1.956 . S
O769 Li711 1.961 . S
O769 C718 1.325 . S
O770 Li708 1.961 . S
O770 Li710 1.956 . S
O770 Li711 1.970 . S
O770 C740 1.325 . S
O771 Li709 1.961 . S
O771 Li710 1.970 . S
O771 Li711 1.956 . S
O771 C746 1.325 . S
H772 C714 0.929 . S
H773 C715 0.930 . S
H774 C716 0.930 . S
H775 C717 0.930 . S
H776 C719 0.930 . S
H777 C721 0.929 . S
H778 C722 0.930 . S
H779 C723 0.930 . S
H780 C726 0.909 1_554 S
H781 C729 0.929 . S
H782 C734 0.929 . S
H783 C735 0.930 . S
H784 C742 0.929 . S
H785 C743 0.930 . S
H786 C744 0.930 . S
H787 C745 0.930 . S
H788 C747 0.929 . S
H789 C748 0.930 . S
H790 C749 0.930 . S
H791 C750 0.930 . S
H792 C754 0.929 . S
H793 C756 0.930 . S
H794 C762 0.929 . S
H795 C763 0.930 . S
Li796 N813 1.990 . S
Li796 O856 1.956 . S
Li796 O857 1.970 . S
Li796 O858 1.961 . S
Li797 N821 1.990 . S
Li797 O856 1.970 . S
Li797 O857 1.956 . S
Li797 O859 1.961 . S
Li798 N843 1.990 . S
Li798 O856 1.961 . S
Li798 O858 1.956 . S
Li798 O859 1.970 . S
Li799 N849 1.990 . S
Li799 O857 1.961 . S
Li799 O858 1.970 . S
Li799 O859 1.956 . S
C800 C802 1.348 . S
C800 C803 1.356 . S
C800 O856 1.325 . S
N801 C804 1.314 . S
N801 C805 1.279 . S
C802 C800 1.348 . S
C802 C804 1.353 . S
C802 H860 0.929 . S
C803 C800 1.356 . S
C803 C805 1.358 . S
C803 H861 0.930 . S
C804 N801 1.314 . S
C804 C802 1.353 . S
C804 H862 0.930 . S
C805 N801 1.279 . S
C805 C803 1.358 . S
C805 H863 0.930 . S
C806 C809 1.348 . S
C806 C810 1.356 . S
C806 O857 1.325 . S
C807 N808 1.279 . S
C807 C810 1.358 . S
C807 H864 0.930 . S
N808 C807 1.279 . S
N808 C811 1.314 . S
C809 C806 1.348 . S
C809 C811 1.353 . S
C809 H865 0.929 . S
C810 C806 1.356 . S
C810 C807 1.358 . S
C810 H866 0.930 . S
C811 N808 1.314 . S
C811 C809 1.353 . S
C811 H867 0.930 . S
C812 N813 1.314 . S
C812 C817 1.353 . S
C812 H818 0.930 . S
N813 Li796 1.990 . S
N813 C812 1.314 . S
N813 C815 1.279 . S
C814 C815 1.358 . S
C814 C816 1.356 . S
C814 H868 0.930 . S
C815 N813 1.279 . S
C815 C814 1.358 . S
C815 H819 0.930 . S
C816 C814 1.356 . S
C816 C817 1.348 . S
C817 C812 1.353 . S
C817 C816 1.348 . S
C817 H869 0.929 . S
H818 C812 0.930 . S
H819 C815 0.930 . S
C820 N821 1.314 . S
C820 C822 1.353 . S
C820 H826 0.930 . S
N821 Li797 1.990 . S
N821 C820 1.314 . S
N821 C824 1.279 . S
C822 C820 1.353 . S
C822 C825 1.348 . S
C822 H870 0.929 . S
C823 C824 1.358 . S
C823 C825 1.356 . S
C823 H871 0.930 . S
C824 N821 1.279 . S
C824 C823 1.358 . S
C824 H827 0.930 . S
C825 C822 1.348 . S
C825 C823 1.356 . S
H826 C820 0.930 . S
H827 C824 0.930 . S
C828 C830 1.348 . S
C828 C831 1.356 . S
C828 O858 1.325 . S
N829 C832 1.314 1_556 S
N829 C833 1.279 1_556 S
C830 C828 1.348 . S
C830 C832 1.353 . S
C830 H872 0.929 . S
C831 C828 1.356 . S
C831 C833 1.358 . S
C831 H873 0.930 . S
C832 N829 1.314 1_554 S
C832 C830 1.353 . S
C832 H874 0.930 1_554 S
C833 N829 1.279 1_554 S
C833 C831 1.358 . S
C833 H875 0.930 1_554 S
C834 C835 1.348 . S
C834 C836 1.356 . S
C834 O859 1.325 . S
C835 C834 1.348 . S
C835 C837 1.353 . S
C835 H876 0.929 . S
C836 C834 1.356 . S
C836 C838 1.358 . S
C836 H877 0.930 . S
C837 C835 1.353 . S
C837 N839 1.314 . S
C837 H878 0.930 . S
C838 C836 1.358 . S
C838 N839 1.279 . S
C838 H879 0.930 . S
N839 C837 1.314 . S
N839 C838 1.279 . S
C840 C842 1.353 . S
C840 N843 1.314 . S
C840 H846 0.930 . S
C841 N843 1.279 . S
C841 C844 1.358 1_554 S
C841 H847 0.931 . S
C842 C840 1.353 . S
C842 C845 1.348 1_554 S
C842 H880 0.929 . S
N843 Li798 1.990 . S
N843 C840 1.314 . S
N843 C841 1.279 . S
C844 C841 1.358 1_556 S
C844 C845 1.356 . S
C844 H881 0.930 . S
C845 C842 1.348 1_556 S
C845 C844 1.356 . S
H846 C840 0.930 . S
H847 C841 0.931 . S
C848 N849 1.314 . S
C848 C850 1.353 . S
C848 H854 0.930 . S
N849 Li799 1.990 . S
N849 C848 1.314 . S
N849 C852 1.279 . S
C850 C848 1.353 . S
C850 C853 1.348 . S
C850 H882 0.929 . S
C851 C852 1.358 . S
C851 C853 1.356 . S
C851 H883 0.930 . S
C852 N849 1.279 . S
C852 C851 1.358 . S
C852 H855 0.930 . S
C853 C850 1.348 . S
C853 C851 1.356 . S
H854 C848 0.930 . S
H855 C852 0.930 . S
O856 Li796 1.956 . S
O856 Li797 1.970 . S
O856 Li798 1.961 . S
O856 C800 1.325 . S
O857 Li796 1.970 . S
O857 Li797 1.956 . S
O857 Li799 1.961 . S
O857 C806 1.325 . S
O858 Li796 1.961 . S
O858 Li798 1.956 . S
O858 Li799 1.970 . S
O858 C828 1.325 . S
O859 Li797 1.961 . S
O859 Li798 1.970 . S
O859 Li799 1.956 . S
O859 C834 1.325 . S
H860 C802 0.929 . S
H861 C803 0.930 . S
H862 C804 0.930 . S
H863 C805 0.930 . S
H864 C807 0.930 . S
H865 C809 0.929 . S
H866 C810 0.930 . S
H867 C811 0.930 . S
H868 C814 0.930 . S
H869 C817 0.929 . S
H870 C822 0.929 . S
H871 C823 0.930 . S
H872 C830 0.929 . S
H873 C831 0.930 . S
H874 C832 0.930 1_556 S
H875 C833 0.930 1_556 S
H876 C835 0.929 . S
H877 C836 0.930 . S
H878 C837 0.930 . S
H879 C838 0.930 . S
H880 C842 0.929 . S
H881 C844 0.930 . S
H882 C850 0.929 . S
H883 C851 0.930 . S
Li884 N901 1.990 . S
Li884 O944 1.956 . S
Li884 O945 1.970 . S
Li884 O946 1.961 . S
Li885 N909 1.990 . S
Li885 O944 1.970 . S
Li885 O945 1.956 . S
Li885 O947 1.961 . S
Li886 N931 1.990 . S
Li886 O944 1.961 . S
Li886 O946 1.956 . S
Li886 O947 1.970 . S
Li887 N937 1.990 . S
Li887 O945 1.961 . S
Li887 O946 1.970 . S
Li887 O947 1.956 . S
C888 C890 1.348 . S
C888 C891 1.356 . S
C888 O944 1.325 . S
N889 C892 1.314 . S
N889 C893 1.279 . S
C890 C888 1.348 . S
C890 C892 1.353 . S
C890 H948 0.929 . S
C891 C888 1.356 . S
C891 C893 1.358 . S
C891 H949 0.930 . S
C892 N889 1.314 . S
C892 C890 1.353 . S
C892 H950 0.930 . S
C893 N889 1.279 . S
C893 C891 1.358 . S
C893 H951 0.930 . S
C894 C897 1.348 . S
C894 C898 1.356 . S
C894 O945 1.325 . S
C895 N896 1.279 . S
C895 C898 1.358 . S
C895 H952 0.930 . S
N896 C895 1.279 . S
N896 C899 1.314 . S
C897 C894 1.348 . S
C897 C899 1.353 . S
C897 H953 0.929 . S
C898 C894 1.356 . S
C898 C895 1.358 . S
C898 H954 0.930 . S
C899 N896 1.314 . S
C899 C897 1.353 . S
C899 H955 0.930 . S
C900 N901 1.314 . S
C900 C905 1.353 . S
C900 H906 0.930 . S
N901 Li884 1.990 . S
N901 C900 1.314 . S
N901 C903 1.279 . S
C902 C903 1.358 . S
C902 C904 1.356 . S
C902 H956 0.930 . S
C903 N901 1.279 . S
C903 C902 1.358 . S
C903 H907 0.930 . S
C904 C902 1.356 . S
C904 C905 1.348 . S
C905 C900 1.353 . S
C905 C904 1.348 . S
C905 H957 0.929 . S
H906 C900 0.930 . S
H907 C903 0.930 . S
C908 N909 1.314 . S
C908 C910 1.353 . S
C908 H914 0.930 . S
N909 Li885 1.990 . S
N909 C908 1.314 . S
N909 C912 1.279 . S
C910 C908 1.353 . S
C910 C913 1.348 . S
C910 H958 0.929 . S
C911 C912 1.358 . S
C911 C913 1.356 . S
C911 H959 0.930 . S
C912 N909 1.279 . S
C912 C911 1.358 . S
C912 H915 0.930 . S
C913 C910 1.348 . S
C913 C911 1.356 . S
H914 C908 0.930 . S
H915 C912 0.930 . S
C916 C918 1.348 . S
C916 C919 1.356 . S
C916 O946 1.325 . S
N917 C920 1.314 . S
N917 C921 1.279 . S
C918 C916 1.348 . S
C918 C920 1.353 . S
C918 H960 0.929 . S
C919 C916 1.356 . S
C919 C921 1.358 . S
C919 H961 0.930 . S
C920 N917 1.314 . S
C920 C918 1.353 . S
C920 H962 0.930 . S
C921 N917 1.279 . S
C921 C919 1.358 . S
C921 H963 0.930 . S
C922 C923 1.348 . S
C922 C924 1.356 . S
C922 O947 1.325 . S
C923 C922 1.348 . S
C923 C925 1.353 . S
C923 H964 0.929 . S
C924 C922 1.356 . S
C924 C926 1.358 . S
C924 H965 0.930 . S
C925 C923 1.353 . S
C925 N927 1.314 . S
C925 H966 0.930 . S
C926 C924 1.358 . S
C926 N927 1.279 . S
C926 H967 0.930 . S
N927 C925 1.314 . S
N927 C926 1.279 . S
C928 C930 1.353 . S
C928 N931 1.314 . S
C928 H934 0.930 . S
C929 N931 1.279 . S
C929 C932 1.358 . S
C929 H935 0.930 . S
C930 C928 1.353 . S
C930 C933 1.348 . S
C930 H968 0.929 . S
N931 Li886 1.990 . S
N931 C928 1.314 . S
N931 C929 1.279 . S
C932 C929 1.358 . S
C932 C933 1.356 . S
C932 H969 0.930 . S
C933 C930 1.348 . S
C933 C932 1.356 . S
H934 C928 0.930 . S
H935 C929 0.930 . S
C936 N937 1.314 . S
C936 C938 1.353 . S
C936 H942 0.930 . S
N937 Li887 1.990 . S
N937 C936 1.314 . S
N937 C940 1.279 . S
C938 C936 1.353 . S
C938 C941 1.348 . S
C938 H970 0.929 . S
C939 C940 1.358 . S
C939 C941 1.356 . S
C939 H971 0.930 . S
C940 N937 1.279 . S
C940 C939 1.358 . S
C940 H943 0.930 . S
C941 C938 1.348 . S
C941 C939 1.356 . S
H942 C936 0.930 . S
H943 C940 0.930 . S
O944 Li884 1.956 . S
O944 Li885 1.970 . S
O944 Li886 1.961 . S
O944 C888 1.325 . S
O945 Li884 1.970 . S
O945 Li885 1.956 . S
O945 Li887 1.961 . S
O945 C894 1.325 . S
O946 Li884 1.961 . S
O946 Li886 1.956 . S
O946 Li887 1.970 . S
O946 C916 1.325 . S
O947 Li885 1.961 . S
O947 Li886 1.970 . S
O947 Li887 1.956 . S
O947 C922 1.325 . S
H948 C890 0.929 . S
H949 C891 0.930 . S
H950 C892 0.930 . S
H951 C893 0.930 . S
H952 C895 0.930 . S
H953 C897 0.929 . S
H954 C898 0.930 . S
H955 C899 0.930 . S
H956 C902 0.930 . S
H957 C905 0.929 . S
H958 C910 0.929 . S
H959 C911 0.930 . S
H960 C918 0.929 . S
H961 C919 0.930 . S
H962 C920 0.930 . S
H963 C921 0.930 . S
H964 C923 0.929 . S
H965 C924 0.930 . S
H966 C925 0.930 . S
H967 C926 0.930 . S
H968 C930 0.929 . S
H969 C932 0.930 . S
H970 C938 0.929 . S
H971 C939 0.930 . S
C972 C973 1.387 . S
C972 H976 0.950 . S
C972 C981 1.390 . S
C973 C972 1.387 . S
C973 C975 1.387 . S
H974 C981 0.950 . S
C975 C973 1.387 . S
C975 C977 1.390 . S
C975 H979 0.950 . S
H976 C972 0.950 . S
C977 C975 1.390 . S
C977 C978 1.387 . S
C977 H980 0.950 . S
C978 C977 1.387 . S
C978 C981 1.387 . S
H979 C975 0.950 . S
H980 C977 0.950 . S
C981 C972 1.390 . S
C981 H974 0.950 . S
C981 C978 1.387 . S
C982 C983 1.387 . S
C982 H986 0.950 . S
C982 C991 1.390 . S
C983 C982 1.387 . S
C983 C985 1.387 . S
H984 C991 0.950 . S
C985 C983 1.387 . S
C985 C987 1.390 . S
C985 H989 0.950 . S
H986 C982 0.950 . S
C987 C985 1.390 . S
C987 C988 1.387 . S
C987 H990 0.950 . S
C988 C987 1.387 . S
C988 C991 1.387 . S
H989 C985 0.950 . S
H990 C987 0.950 . S
C991 C982 1.390 . S
C991 H984 0.950 . S
C991 C988 1.387 . S
C992 C993 1.387 . S
C992 H996 0.950 . S
C992 C1001 1.390 . S
C993 C992 1.387 . S
C993 C995 1.387 . S
H994 C1001 0.950 . S
C995 C993 1.387 . S
C995 C997 1.390 . S
C995 H999 0.950 . S
H996 C992 0.950 . S
C997 C995 1.390 . S
C997 C998 1.387 . S
C997 H1000 0.950 . S
C998 C997 1.387 . S
C998 C1001 1.387 . S
H999 C995 0.950 . S
H1000 C997 0.950 . S
C1001 C992 1.390 . S
C1001 H994 0.950 . S
C1001 C998 1.387 . S
C1002 C1003 1.387 . S
C1002 H1006 0.950 . S
C1002 C1011 1.390 . S
C1003 C1002 1.387 . S
C1003 C1005 1.387 . S
H1004 C1011 0.950 . S
C1005 C1003 1.387 . S
C1005 C1007 1.390 . S
C1005 H1009 0.950 . S
H1006 C1002 0.950 . S
C1007 C1005 1.390 . S
C1007 C1008 1.387 . S
C1007 H1010 0.950 . S
C1008 C1007 1.387 . S
C1008 C1011 1.387 . S
H1009 C1005 0.950 . S
H1010 C1007 0.950 . S
C1011 C1002 1.390 . S
C1011 H1004 0.950 . S
C1011 C1008 1.387 . S
C1012 C1013 1.387 . S
C1012 H1016 0.950 . S
C1012 C1021 1.390 . S
C1013 C1012 1.387 . S
C1013 C1015 1.387 . S
H1014 C1021 0.950 . S
C1015 C1013 1.387 . S
C1015 C1017 1.390 . S
C1015 H1019 0.950 . S
H1016 C1012 0.950 . S
C1017 C1015 1.390 . S
C1017 C1018 1.387 . S
C1017 H1020 0.950 . S
C1018 C1017 1.387 . S
C1018 C1021 1.387 . S
H1019 C1015 0.950 . S
H1020 C1017 0.950 . S
C1021 C1012 1.390 . S
C1021 H1014 0.950 . S
C1021 C1018 1.387 . S
C1022 C1023 1.387 . S
C1022 H1026 0.950 . S
C1022 C1031 1.390 . S
C1023 C1022 1.387 . S
C1023 C1025 1.387 . S
H1024 C1031 0.950 . S
C1025 C1023 1.387 . S
C1025 C1027 1.390 . S
C1025 H1029 0.950 . S
H1026 C1022 0.950 . S
C1027 C1025 1.390 . S
C1027 C1028 1.387 . S
C1027 H1030 0.950 . S
C1028 C1027 1.387 . S
C1028 C1031 1.387 . S
H1029 C1025 0.950 . S
H1030 C1027 0.950 . S
C1031 C1022 1.390 . S
C1031 H1024 0.950 . S
C1031 C1028 1.387 . S
C1032 C1033 1.387 . S
C1032 H1036 0.950 . S
C1032 C1041 1.390 . S
C1033 C1032 1.387 . S
C1033 C1035 1.387 . S
H1034 C1041 0.950 . S
C1035 C1033 1.387 . S
C1035 C1037 1.390 . S
C1035 H1039 0.950 . S
H1036 C1032 0.950 . S
C1037 C1035 1.390 . S
C1037 C1038 1.387 . S
C1037 H1040 0.950 . S
C1038 C1037 1.387 . S
C1038 C1041 1.387 . S
H1039 C1035 0.950 . S
H1040 C1037 0.950 . S
C1041 C1032 1.390 . S
C1041 H1034 0.950 . S
C1041 C1038 1.387 . S
C1042 C1043 1.387 . S
C1042 H1046 0.950 . S
C1042 C1051 1.390 . S
C1043 C1042 1.387 . S
C1043 C1045 1.387 . S
H1044 C1051 0.950 . S
C1045 C1043 1.387 . S
C1045 C1047 1.390 . S
C1045 H1049 0.950 . S
H1046 C1042 0.950 . S
C1047 C1045 1.390 . S
C1047 C1048 1.387 . S
C1047 H1050 0.950 . S
C1048 C1047 1.387 . S
C1048 C1051 1.387 . S
H1049 C1045 0.950 . S
H1050 C1047 0.950 . S
C1051 C1042 1.390 . S
C1051 H1044 0.950 . S
C1051 C1048 1.387 . S
C1052 C1053 1.387 . S
C1052 H1056 0.950 . S
C1052 C1061 1.390 . S
C1053 C1052 1.387 . S
C1053 C1055 1.387 . S
H1054 C1061 0.950 . S
C1055 C1053 1.387 . S
C1055 C1057 1.390 . S
C1055 H1059 0.950 . S
H1056 C1052 0.950 . S
C1057 C1055 1.390 . S
C1057 C1058 1.387 . S
C1057 H1060 0.950 . S
C1058 C1057 1.387 . S
C1058 C1061 1.387 . S
H1059 C1055 0.950 . S
H1060 C1057 0.950 . S
C1061 C1052 1.390 . S
C1061 H1054 0.950 . S
C1061 C1058 1.387 . S
C1062 C1063 1.387 . S
C1062 H1066 0.950 . S
C1062 C1071 1.390 . S
C1063 C1062 1.387 . S
C1063 C1065 1.387 . S
H1064 C1071 0.950 . S
C1065 C1063 1.387 . S
C1065 C1067 1.390 . S
C1065 H1069 0.950 . S
H1066 C1062 0.950 . S
C1067 C1065 1.390 . S
C1067 C1068 1.387 . S
C1067 H1070 0.950 . S
C1068 C1067 1.387 . S
C1068 C1071 1.387 . S
H1069 C1065 0.950 . S
H1070 C1067 0.950 . S
C1071 C1062 1.390 . S
C1071 H1064 0.950 . S
C1071 C1068 1.387 . S
C1072 C1073 1.387 . S
C1072 H1076 0.950 . S
C1072 C1081 1.390 . S
C1073 C1072 1.387 . S
C1073 C1075 1.387 . S
H1074 C1081 0.950 . S
C1075 C1073 1.387 . S
C1075 C1077 1.390 . S
C1075 H1079 0.950 . S
H1076 C1072 0.950 . S
C1077 C1075 1.390 . S
C1077 C1078 1.387 . S
C1077 H1080 0.950 . S
C1078 C1077 1.387 . S
C1078 C1081 1.387 . S
H1079 C1075 0.950 . S
H1080 C1077 0.950 . S
C1081 C1072 1.390 . S
C1081 H1074 0.950 . S
C1081 C1078 1.387 . S
C1082 C1083 1.387 . S
C1082 H1086 0.950 . S
C1082 C1091 1.390 . S
C1083 C1082 1.387 . S
C1083 C1085 1.387 . S
H1084 C1091 0.950 . S
C1085 C1083 1.387 . S
C1085 C1087 1.390 . S
C1085 H1089 0.950 . S
H1086 C1082 0.950 . S
C1087 C1085 1.390 . S
C1087 C1088 1.387 . S
C1087 H1090 0.950 . S
C1088 C1087 1.387 . S
C1088 C1091 1.387 . S
H1089 C1085 0.950 . S
H1090 C1087 0.950 . S
C1091 C1082 1.390 . S
C1091 H1084 0.950 . S
C1091 C1088 1.387 . S
C1092 C1093 1.387 . S
C1092 H1096 0.950 . S
C1092 C1101 1.390 . S
C1093 C1092 1.387 . S
C1093 C1095 1.387 . S
H1094 C1101 0.950 . S
C1095 C1093 1.387 . S
C1095 C1097 1.390 . S
C1095 H1099 0.950 . S
H1096 C1092 0.950 . S
C1097 C1095 1.390 . S
C1097 C1098 1.387 . S
C1097 H1100 0.950 . S
C1098 C1097 1.387 . S
C1098 C1101 1.387 . S
H1099 C1095 0.950 . S
H1100 C1097 0.950 . S
C1101 C1092 1.390 . S
C1101 H1094 0.950 . S
C1101 C1098 1.387 . S
C1102 C1103 1.387 . S
C1102 H1106 0.950 . S
C1102 C1111 1.390 . S
C1103 C1102 1.387 . S
C1103 C1105 1.387 . S
H1104 C1111 0.950 . S
C1105 C1103 1.387 . S
C1105 C1107 1.390 . S
C1105 H1109 0.950 . S
H1106 C1102 0.950 . S
C1107 C1105 1.390 . S
C1107 C1108 1.387 . S
C1107 H1110 0.950 . S
C1108 C1107 1.387 . S
C1108 C1111 1.387 . S
H1109 C1105 0.950 . S
H1110 C1107 0.950 . S
C1111 C1102 1.390 . S
C1111 H1104 0.950 . S
C1111 C1108 1.387 . S
C1112 C1113 1.387 . S
C1112 H1116 0.950 . S
C1112 C1121 1.390 . S
C1113 C1112 1.387 . S
C1113 C1115 1.387 . S
H1114 C1121 0.950 . S
C1115 C1113 1.387 . S
C1115 C1117 1.390 . S
C1115 H1119 0.950 . S
H1116 C1112 0.950 . S
C1117 C1115 1.390 . S
C1117 C1118 1.387 . S
C1117 H1120 0.950 . S
C1118 C1117 1.387 . S
C1118 C1121 1.387 . S
H1119 C1115 0.950 . S
H1120 C1117 0.950 . S
C1121 C1112 1.390 . S
C1121 H1114 0.950 . S
C1121 C1118 1.387 . S
C1122 C1123 1.387 . S
C1122 H1126 0.950 . S
C1122 C1131 1.390 . S
C1123 C1122 1.387 . S
C1123 C1125 1.387 . S
H1124 C1131 0.950 . S
C1125 C1123 1.387 . S
C1125 C1127 1.390 . S
C1125 H1129 0.950 . S
H1126 C1122 0.950 . S
C1127 C1125 1.390 . S
C1127 C1128 1.387 . S
C1127 H1130 0.950 . S
C1128 C1127 1.387 . S
C1128 C1131 1.387 . S
H1129 C1125 0.950 . S
H1130 C1127 0.950 . S
C1131 C1122 1.390 . S
C1131 H1124 0.950 . S
C1131 C1128 1.387 . S
C1132 C1133 1.387 . S
C1132 H1136 0.950 1_565 S
C1132 C1141 1.390 . S
C1133 C1132 1.387 . S
C1133 C1135 1.387 . S
H1134 C1141 0.950 . S
C1135 C1133 1.387 . S
C1135 C1137 1.390 . S
C1135 H1139 0.950 . S
H1136 C1132 0.950 1_545 S
C1137 C1135 1.390 . S
C1137 C1138 1.387 . S
C1137 H1140 0.950 . S
C1138 C1137 1.387 . S
C1138 C1141 1.387 . S
H1139 C1135 0.950 . S
H1140 C1137 0.950 . S
C1141 C1132 1.390 . S
C1141 H1134 0.950 . S
C1141 C1138 1.387 . S
C1142 C1143 1.387 . S
C1142 H1146 0.950 . S
C1142 C1151 1.390 . S
C1143 C1142 1.387 . S
C1143 C1145 1.387 . S
H1144 C1151 0.950 . S
C1145 C1143 1.387 . S
C1145 C1147 1.390 . S
C1145 H1149 0.950 . S
H1146 C1142 0.950 . S
C1147 C1145 1.390 . S
C1147 C1148 1.387 . S
C1147 H1150 0.950 . S
C1148 C1147 1.387 . S
C1148 C1151 1.387 . S
H1149 C1145 0.950 . S
H1150 C1147 0.950 . S
C1151 C1142 1.390 . S
C1151 H1144 0.950 . S
C1151 C1148 1.387 . S
C1152 C1153 1.387 . S
C1152 H1156 0.950 . S
C1152 C1161 1.390 . S
C1153 C1152 1.387 . S
C1153 C1155 1.387 . S
H1154 C1161 0.950 . S
C1155 C1153 1.387 . S
C1155 C1157 1.390 . S
C1155 H1159 0.950 . S
H1156 C1152 0.950 . S
C1157 C1155 1.390 . S
C1157 C1158 1.387 . S
C1157 H1160 0.950 . S
C1158 C1157 1.387 . S
C1158 C1161 1.387 . S
H1159 C1155 0.950 . S
H1160 C1157 0.950 . S
C1161 C1152 1.390 . S
C1161 H1154 0.950 . S
C1161 C1158 1.387 . S
C1162 C1163 1.387 . S
C1162 H1166 0.950 . S
C1162 C1171 1.390 . S
C1163 C1162 1.387 . S
C1163 C1165 1.387 . S
H1164 C1171 0.950 . S
C1165 C1163 1.387 . S
C1165 C1167 1.390 . S
C1165 H1169 0.950 . S
H1166 C1162 0.950 . S
C1167 C1165 1.390 . S
C1167 C1168 1.387 . S
C1167 H1170 0.950 . S
C1168 C1167 1.387 . S
C1168 C1171 1.387 . S
H1169 C1165 0.950 . S
H1170 C1167 0.950 . S
C1171 C1162 1.390 . S
C1171 H1164 0.950 . S
C1171 C1168 1.387 . S
C1172 C1173 1.387 . S
C1172 H1176 0.950 . S
C1172 C1181 1.390 . S
C1173 C1172 1.387 . S
C1173 C1175 1.387 . S
H1174 C1181 0.950 . S
C1175 C1173 1.387 . S
C1175 C1177 1.390 . S
C1175 H1179 0.950 . S
H1176 C1172 0.950 . S
C1177 C1175 1.390 . S
C1177 C1178 1.387 . S
C1177 H1180 0.950 . S
C1178 C1177 1.387 . S
C1178 C1181 1.387 . S
H1179 C1175 0.950 . S
H1180 C1177 0.950 . S
C1181 C1172 1.390 . S
C1181 H1174 0.950 . S
C1181 C1178 1.387 . S
C1182 C1183 1.387 . S
C1182 H1186 0.950 . S
C1182 C1191 1.390 . S
C1183 C1182 1.387 . S
C1183 C1185 1.387 . S
H1184 C1191 0.950 . S
C1185 C1183 1.387 . S
C1185 C1187 1.390 . S
C1185 H1189 0.950 . S
H1186 C1182 0.950 . S
C1187 C1185 1.390 . S
C1187 C1188 1.387 . S
C1187 H1190 0.950 . S
C1188 C1187 1.387 . S
C1188 C1191 1.387 . S
H1189 C1185 0.950 . S
H1190 C1187 0.950 . S
C1191 C1182 1.390 . S
C1191 H1184 0.950 . S
C1191 C1188 1.387 . S
C1192 C1193 1.387 . S
C1192 H1196 0.950 . S
C1192 C1201 1.390 . S
C1193 C1192 1.387 . S
C1193 C1195 1.387 . S
H1194 C1201 0.950 . S
C1195 C1193 1.387 . S
C1195 C1197 1.390 . S
C1195 H1199 0.950 . S
H1196 C1192 0.950 . S
C1197 C1195 1.390 . S
C1197 C1198 1.387 . S
C1197 H1200 0.950 . S
C1198 C1197 1.387 . S
C1198 C1201 1.387 . S
H1199 C1195 0.950 . S
H1200 C1197 0.950 . S
C1201 C1192 1.390 . S
C1201 H1194 0.950 . S
C1201 C1198 1.387 . S
C1202 C1203 1.387 . S
C1202 H1206 0.950 . S
C1202 C1211 1.390 . S
C1203 C1202 1.387 . S
C1203 C1205 1.387 . S
H1204 C1211 0.950 . S
C1205 C1203 1.387 . S
C1205 C1207 1.390 . S
C1205 H1209 0.950 . S
H1206 C1202 0.950 . S
C1207 C1205 1.390 . S
C1207 C1208 1.387 . S
C1207 H1210 0.950 . S
C1208 C1207 1.387 . S
C1208 C1211 1.387 . S
H1209 C1205 0.950 . S
H1210 C1207 0.950 . S
C1211 C1202 1.390 . S
C1211 H1204 0.950 . S
C1211 C1208 1.387 . S
C978 C913 1.339 . S
C973 C51 1.305 . S
C983 C125 1.732 . S
C988 C473 1.734 . S
C993 C217 2.569 . S
C998 C561 2.577 . S
C1003 C291 1.927 . S
C1008 C640 1.930 . S
C1018 C737 1.013 . S
C1013 C347 1.011 . S
C1023 C421 1.100 . S
C1028 C816 1.121 . S
C1033 C143 2.578 . S
C1038 C581 2.581 . S
C1043 C199 1.551 . S
C1048 C677 1.541 . S
C1053 C273 1.006 . S
C1058 C757 1.006 . S
C1068 C853 1.666 . S
C1063 C365 1.675 . S
C1078 C933 2.310 . S
C1073 C439 2.348 . S
C1088 C493 2.553 . S
C1083 C69 2.579 . S
C1093 C63 1.457 . S
C1098 C589 1.569 . S
C1103 C137 1.515 . S
C1108 C669 1.589 . S
C1118 C765 1.417 . S
C1113 C187 1.366 . S
C1123 C261 1.420 . S
C1128 C845 1.489 . S
C1138 C941 1.459 . S
C1133 C359 1.311 . S
C1148 C501 1.211 . S
C1143 C433 1.127 . S
C1158 C904 1.757 . S
C1153 C113 1.777 . S
C1163 C211 1.470 . S
C1168 C464 1.513 . S
C1178 C552 1.624 . S
C1173 C285 1.497 . S
C1183 C335 1.329 . S
C1188 C649 1.403 . S
C1193 C409 1.402 . S
C1198 C728 1.470 1_554 S
C1203 C39 1.796 . S
C1208 C825 1.799 . S
