# Generated by pormake.
# Topology ptr, (4,4)-cn, num edge types: 1
# Building blocks:
#     Node 0, Type 0, BuildingBlock: AZAVOO_clean_sbu_0, # of connection points: 4
#     Node 1, Type 0, BuildingBlock: AZAVOO_clean_sbu_0, # of connection points: 4
#     Node 2, Type 0, BuildingBlock: AZAVOO_clean_sbu_0, # of connection points: 4
#     Node 3, Type 0, BuildingBlock: AZAVOO_clean_sbu_0, # of connection points: 4
#     Node 4, Type 0, BuildingBlock: AZAVOO_clean_sbu_0, # of connection points: 4
#     Node 5, Type 0, BuildingBlock: AZAVOO_clean_sbu_0, # of connection points: 4
#     Node 6, Type 0, BuildingBlock: AZAVOO_clean_sbu_0, # of connection points: 4
#     Node 7, Type 0, BuildingBlock: AZAVOO_clean_sbu_0, # of connection points: 4
#     Node 8, Type 0, BuildingBlock: AZAVOO_clean_sbu_0, # of connection points: 4
#     Node 9, Type 0, BuildingBlock: AZAVOO_clean_sbu_0, # of connection points: 4
#     Node 10, Type 0, BuildingBlock: AZAVOO_clean_sbu_0, # of connection points: 4
#     Node 11, Type 0, BuildingBlock: AZAVOO_clean_sbu_0, # of connection points: 4
#     Node 12, Type 0, BuildingBlock: AZAVOO_clean_sbu_0, # of connection points: 4
#     Node 13, Type 0, BuildingBlock: AZAVOO_clean_sbu_0, # of connection points: 4
#     Node 14, Type 0, BuildingBlock: AZAVOO_clean_sbu_0, # of connection points: 4
#     Node 15, Type 0, BuildingBlock: AZAVOO_clean_sbu_0, # of connection points: 4
#     Node 16, Type 0, BuildingBlock: AZAVOO_clean_sbu_0, # of connection points: 4
#     Node 17, Type 0, BuildingBlock: AZAVOO_clean_sbu_0, # of connection points: 4
#     Node 18, Type 1, BuildingBlock: AZAVOO_clean_linker_0, # of connection points: 4
#     Node 19, Type 1, BuildingBlock: AZAVOO_clean_linker_0, # of connection points: 4
#     Node 20, Type 1, BuildingBlock: AZAVOO_clean_linker_0, # of connection points: 4
#     Node 21, Type 1, BuildingBlock: AZAVOO_clean_linker_0, # of connection points: 4
#     Node 22, Type 1, BuildingBlock: AZAVOO_clean_linker_0, # of connection points: 4
#     Node 23, Type 1, BuildingBlock: AZAVOO_clean_linker_0, # of connection points: 4
#     Node 24, Type 1, BuildingBlock: AZAVOO_clean_linker_0, # of connection points: 4
#     Node 25, Type 1, BuildingBlock: AZAVOO_clean_linker_0, # of connection points: 4
#     Node 26, Type 1, BuildingBlock: AZAVOO_clean_linker_0, # of connection points: 4
#     Node 27, Type 1, BuildingBlock: AZAVOO_clean_linker_0, # of connection points: 4
#     Node 28, Type 1, BuildingBlock: AZAVOO_clean_linker_0, # of connection points: 4
#     Node 29, Type 1, BuildingBlock: AZAVOO_clean_linker_0, # of connection points: 4
#     Node 30, Type 1, BuildingBlock: AZAVOO_clean_linker_0, # of connection points: 4
#     Node 31, Type 1, BuildingBlock: AZAVOO_clean_linker_0, # of connection points: 4
#     Node 32, Type 1, BuildingBlock: AZAVOO_clean_linker_0, # of connection points: 4
#     Node 33, Type 1, BuildingBlock: AZAVOO_clean_linker_0, # of connection points: 4
#     Node 34, Type 1, BuildingBlock: AZAVOO_clean_linker_0, # of connection points: 4
#     Node 35, Type 1, BuildingBlock: AZAVOO_clean_linker_0, # of connection points: 4
#     Edge 36, Type (0, 1), BuildingBlock: EZIPEK_clean_linker_0, # of connection points: 2
#     Edge 37, Type (0, 1), BuildingBlock: EZIPEK_clean_linker_0, # of connection points: 2
#     Edge 38, Type (0, 1), BuildingBlock: EZIPEK_clean_linker_0, # of connection points: 2
#     Edge 39, Type (0, 1), BuildingBlock: EZIPEK_clean_linker_0, # of connection points: 2
#     Edge 40, Type (0, 1), BuildingBlock: EZIPEK_clean_linker_0, # of connection points: 2
#     Edge 41, Type (0, 1), BuildingBlock: EZIPEK_clean_linker_0, # of connection points: 2
#     Edge 42, Type (0, 1), BuildingBlock: EZIPEK_clean_linker_0, # of connection points: 2
#     Edge 43, Type (0, 1), BuildingBlock: EZIPEK_clean_linker_0, # of connection points: 2
#     Edge 44, Type (0, 1), BuildingBlock: EZIPEK_clean_linker_0, # of connection points: 2
#     Edge 45, Type (0, 1), BuildingBlock: EZIPEK_clean_linker_0, # of connection points: 2
#     Edge 46, Type (0, 1), BuildingBlock: EZIPEK_clean_linker_0, # of connection points: 2
#     Edge 47, Type (0, 1), BuildingBlock: EZIPEK_clean_linker_0, # of connection points: 2
#     Edge 48, Type (0, 1), BuildingBlock: EZIPEK_clean_linker_0, # of connection points: 2
#     Edge 49, Type (0, 1), BuildingBlock: EZIPEK_clean_linker_0, # of connection points: 2
#     Edge 50, Type (0, 1), BuildingBlock: EZIPEK_clean_linker_0, # of connection points: 2
#     Edge 51, Type (0, 1), BuildingBlock: EZIPEK_clean_linker_0, # of connection points: 2
#     Edge 52, Type (0, 1), BuildingBlock: EZIPEK_clean_linker_0, # of connection points: 2
#     Edge 53, Type (0, 1), BuildingBlock: EZIPEK_clean_linker_0, # of connection points: 2
#     Edge 54, Type (0, 1), BuildingBlock: EZIPEK_clean_linker_0, # of connection points: 2
#     Edge 55, Type (0, 1), BuildingBlock: EZIPEK_clean_linker_0, # of connection points: 2
#     Edge 56, Type (0, 1), BuildingBlock: EZIPEK_clean_linker_0, # of connection points: 2
#     Edge 57, Type (0, 1), BuildingBlock: EZIPEK_clean_linker_0, # of connection points: 2
#     Edge 58, Type (0, 1), BuildingBlock: EZIPEK_clean_linker_0, # of connection points: 2
#     Edge 59, Type (0, 1), BuildingBlock: EZIPEK_clean_linker_0, # of connection points: 2
#     Edge 60, Type (0, 1), BuildingBlock: EZIPEK_clean_linker_0, # of connection points: 2
#     Edge 61, Type (0, 1), BuildingBlock: EZIPEK_clean_linker_0, # of connection points: 2
#     Edge 62, Type (0, 1), BuildingBlock: EZIPEK_clean_linker_0, # of connection points: 2
#     Edge 63, Type (0, 1), BuildingBlock: EZIPEK_clean_linker_0, # of connection points: 2
#     Edge 64, Type (0, 1), BuildingBlock: EZIPEK_clean_linker_0, # of connection points: 2
#     Edge 65, Type (0, 1), BuildingBlock: EZIPEK_clean_linker_0, # of connection points: 2
#     Edge 66, Type (0, 1), BuildingBlock: EZIPEK_clean_linker_0, # of connection points: 2
#     Edge 67, Type (0, 1), BuildingBlock: EZIPEK_clean_linker_0, # of connection points: 2
#     Edge 68, Type (0, 1), BuildingBlock: EZIPEK_clean_linker_0, # of connection points: 2
#     Edge 69, Type (0, 1), BuildingBlock: EZIPEK_clean_linker_0, # of connection points: 2
#     Edge 70, Type (0, 1), BuildingBlock: EZIPEK_clean_linker_0, # of connection points: 2
#     Edge 71, Type (0, 1), BuildingBlock: EZIPEK_clean_linker_0, # of connection points: 2
#     Edge 72, Type (0, 1), BuildingBlock: EZIPEK_clean_linker_0, # of connection points: 2
#     Edge 73, Type (0, 1), BuildingBlock: EZIPEK_clean_linker_0, # of connection points: 2
#     Edge 74, Type (0, 1), BuildingBlock: EZIPEK_clean_linker_0, # of connection points: 2
#     Edge 75, Type (0, 1), BuildingBlock: EZIPEK_clean_linker_0, # of connection points: 2
#     Edge 76, Type (0, 1), BuildingBlock: EZIPEK_clean_linker_0, # of connection points: 2
#     Edge 77, Type (0, 1), BuildingBlock: EZIPEK_clean_linker_0, # of connection points: 2
#     Edge 78, Type (0, 1), BuildingBlock: EZIPEK_clean_linker_0, # of connection points: 2
#     Edge 79, Type (0, 1), BuildingBlock: EZIPEK_clean_linker_0, # of connection points: 2
#     Edge 80, Type (0, 1), BuildingBlock: EZIPEK_clean_linker_0, # of connection points: 2
#     Edge 81, Type (0, 1), BuildingBlock: EZIPEK_clean_linker_0, # of connection points: 2
#     Edge 82, Type (0, 1), BuildingBlock: EZIPEK_clean_linker_0, # of connection points: 2
#     Edge 83, Type (0, 1), BuildingBlock: EZIPEK_clean_linker_0, # of connection points: 2
#     Edge 84, Type (0, 1), BuildingBlock: EZIPEK_clean_linker_0, # of connection points: 2
#     Edge 85, Type (0, 1), BuildingBlock: EZIPEK_clean_linker_0, # of connection points: 2
#     Edge 86, Type (0, 1), BuildingBlock: EZIPEK_clean_linker_0, # of connection points: 2
#     Edge 87, Type (0, 1), BuildingBlock: EZIPEK_clean_linker_0, # of connection points: 2
#     Edge 88, Type (0, 1), BuildingBlock: EZIPEK_clean_linker_0, # of connection points: 2
#     Edge 89, Type (0, 1), BuildingBlock: EZIPEK_clean_linker_0, # of connection points: 2
#     Edge 90, Type (0, 1), BuildingBlock: EZIPEK_clean_linker_0, # of connection points: 2
#     Edge 91, Type (0, 1), BuildingBlock: EZIPEK_clean_linker_0, # of connection points: 2
#     Edge 92, Type (0, 1), BuildingBlock: EZIPEK_clean_linker_0, # of connection points: 2
#     Edge 93, Type (0, 1), BuildingBlock: EZIPEK_clean_linker_0, # of connection points: 2
#     Edge 94, Type (0, 1), BuildingBlock: EZIPEK_clean_linker_0, # of connection points: 2
#     Edge 95, Type (0, 1), BuildingBlock: EZIPEK_clean_linker_0, # of connection points: 2
#     Edge 96, Type (0, 1), BuildingBlock: EZIPEK_clean_linker_0, # of connection points: 2
#     Edge 97, Type (0, 1), BuildingBlock: EZIPEK_clean_linker_0, # of connection points: 2
#     Edge 98, Type (0, 1), BuildingBlock: EZIPEK_clean_linker_0, # of connection points: 2
#     Edge 99, Type (0, 1), BuildingBlock: EZIPEK_clean_linker_0, # of connection points: 2
#     Edge 100, Type (0, 1), BuildingBlock: EZIPEK_clean_linker_0, # of connection points: 2
#     Edge 101, Type (0, 1), BuildingBlock: EZIPEK_clean_linker_0, # of connection points: 2
#     Edge 102, Type (0, 1), BuildingBlock: EZIPEK_clean_linker_0, # of connection points: 2
#     Edge 103, Type (0, 1), BuildingBlock: EZIPEK_clean_linker_0, # of connection points: 2
#     Edge 104, Type (0, 1), BuildingBlock: EZIPEK_clean_linker_0, # of connection points: 2
#     Edge 105, Type (0, 1), BuildingBlock: EZIPEK_clean_linker_0, # of connection points: 2
#     Edge 106, Type (0, 1), BuildingBlock: EZIPEK_clean_linker_0, # of connection points: 2
#     Edge 107, Type (0, 1), BuildingBlock: EZIPEK_clean_linker_0, # of connection points: 2
# Relax obj value: 0.128
# Max RMSD: 0.326
# Mean RMSD: 0.192
data_MOF--net-ptr--node1-AZAVOO_clean_sbu_0--node2-AZAVOO_clean_linker_0--edge1-EZIPEK_clean_linker_0
_symmetry_space_group_name_H-M    P1
_symmetry_Int_Tables_number       1
_symmetry_cell_setting            triclinic
loop_
_symmetry_equiv_pos_as_xyz
'x, y, z'
_cell_length_a     64.469533
_cell_length_b     62.659895
_cell_length_c     51.974938
_cell_angle_alpha  94.131255
_cell_angle_beta   94.11375
_cell_angle_gamma 119.97466
loop_
_atom_site_label
_atom_site_type_symbol
_atom_site_fract_x
_atom_site_fract_y
_atom_site_fract_z
_atom_type_partial_charge
Mg0 Mg 0.02246 0.35983 0.99635 0.0
O1 O 0.0013 0.37136 0.0223 0.0
O2 O 0.97319 0.37337 0.9963 0.0
Mg3 Mg 0.9778 0.36565 0.95399 0.0
C4 C 0.98386 0.37554 0.01884 0.0
C5 C 0.04212 0.33162 0.02758 0.0
O6 O 0.03584 0.3187 0.00446 0.0
O7 O 0.99045 0.32007 0.98698 0.0
O8 O 0.9658 0.32508 0.95864 0.0
O9 O 0.04884 0.40007 0.99416 0.0
O10 O 0.01541 0.37712 0.96705 0.0
C11 C 0.97125 0.31131 0.97101 0.0
C12 C 0.03381 0.39865 0.97526 0.0
O13 O 0.03846 0.34972 0.03114 0.0
Mg14 Mg 0.64718 0.62841 0.09737 0.0
O15 O 0.62022 0.61869 0.06129 0.0
O16 O 0.58525 0.61189 0.07401 0.0
Mg17 Mg 0.58994 0.61629 0.11879 0.0
C18 C 0.59838 0.61322 0.05623 0.0
C19 C 0.68773 0.63127 0.06583 0.0
O20 O 0.68228 0.61068 0.07578 0.0
O21 O 0.65165 0.66664 0.10537 0.0
O22 O 0.61732 0.65821 0.12139 0.0
O23 O 0.6347 0.58813 0.09843 0.0
O24 O 0.61964 0.60829 0.11938 0.0
C25 C 0.63821 0.67353 0.11559 0.0
C26 C 0.61925 0.58786 0.11319 0.0
O27 O 0.67687 0.64285 0.07141 0.0
Mg28 Mg 0.37151 0.97871 0.00912 0.0
O29 O 0.40148 -0.00018 0.04263 0.0
O30 O 0.42999 0.03518 0.03042 0.0
Mg31 Mg 0.41925 0.03426 0.98687 0.0
C32 C 0.42139 0.02032 0.04744 0.0
C33 C 0.32536 0.93939 0.02957 0.0
O34 O 0.31932 0.93141 0.00459 0.0
O35 O 0.35922 0.00673 0.0138 0.0
O36 O 0.38651 0.03817 0.99481 0.0
O37 O 0.38922 0.95791 0.99439 0.0
O38 O 0.39544 0.99356 0.98229 0.0
C39 C 0.36683 0.02746 0.00493 0.0
C40 C 0.40006 0.97587 0.9805 0.0
O41 O 0.34645 0.95725 0.03771 0.0
Mg42 Mg 0.98783 0.64317 0.06493 0.0
O43 O 0.01549 0.6399 0.0421 0.0
O44 O 0.04506 0.64347 0.07018 0.0
Mg45 Mg 0.03374 0.64407 0.11118 0.0
C46 C 0.03568 0.64087 0.0469 0.0
C47 C 0.96152 0.66402 0.03128 0.0
O48 O 0.9575 0.66958 0.05455 0.0
O49 O 0.01439 0.68444 0.07832 0.0
O50 O 0.04013 0.68322 0.10865 0.0
O51 O 0.96624 0.60153 0.06315 0.0
O52 O 0.99526 0.62613 0.0946 0.0
C53 C 0.03253 0.69515 0.09593 0.0
C54 C 0.9793 0.60387 0.08446 0.0
O55 O 0.97347 0.65301 0.02887 0.0
Mg56 Mg 0.35767 0.38032 0.98035 0.0
O57 O 0.38755 0.39063 0.01351 0.0
O58 O 0.42025 0.39481 0.99691 0.0
Mg59 Mg 0.41151 0.38907 0.95242 0.0
C60 C 0.40926 0.3952 0.01626 0.0
C61 C 0.309 0.35084 0.00258 0.0
O62 O 0.30235 0.3397 0.97858 0.0
O63 O 0.3514 0.34126 0.97216 0.0
O64 O 0.38348 0.34773 0.95234 0.0
O65 O 0.37068 0.42053 0.97828 0.0
O66 O 0.38306 0.39848 0.95586 0.0
C67 C 0.36331 0.3333 0.96025 0.0
C68 C 0.38468 0.41952 0.96216 0.0
O69 O 0.33056 0.36836 0.00936 0.0
Mg70 Mg 0.63612 0.03866 0.07359 0.0
O71 O 0.60631 0.01944 0.03951 0.0
O72 O 0.57528 0.98584 0.05166 0.0
Mg73 Mg 0.58452 0.98608 0.09538 0.0
C74 C 0.58544 0.00012 0.0346 0.0
C75 C 0.68339 0.0608 0.05016 0.0
O76 O 0.68942 0.05541 0.0724 0.0
O77 O 0.64447 0.00765 0.07007 0.0
O78 O 0.61463 0.97756 0.08805 0.0
O79 O 0.62146 0.06275 0.08704 0.0
O80 O 0.61137 0.02627 0.09998 0.0
C81 C 0.63459 0.98657 0.07842 0.0
C82 C 0.60902 0.04547 0.10111 0.0
O83 O 0.66247 0.05778 0.04512 0.0
Mg84 Mg 0.68504 0.69754 0.33572 0.0
O85 O 0.66758 0.70847 0.36696 0.0
O86 O 0.6361 0.7094 0.34719 0.0
Mg87 Mg 0.63434 0.70041 0.30309 0.0
C88 C 0.64977 0.71199 0.36764 0.0
C89 C 0.70757 0.67 0.3637 0.0
O90 O 0.69776 0.65523 0.34169 0.0
O91 O 0.65394 0.65739 0.33004 0.0
O92 O 0.62497 0.66021 0.30675 0.0
O93 O 0.70888 0.73771 0.33046 0.0
O94 O 0.67316 0.71293 0.30777 0.0
C95 C 0.6331 0.64746 0.31692 0.0
C96 C 0.69194 0.73472 0.31305 0.0
O97 O 0.70566 0.68921 0.36741 0.0
Mg98 Mg 0.30709 0.95784 0.42913 0.0
O99 O 0.2774 0.94845 0.39612 0.0
O100 O 0.24439 0.94345 0.41264 0.0
Mg101 Mg 0.25312 0.94849 0.45706 0.0
C102 C 0.25564 0.94372 0.39332 0.0
C103 C 0.35644 0.98309 0.40802 0.0
O104 O 0.36392 0.98968 0.43302 0.0
O105 O 0.31375 0.99686 0.43844 0.0
O106 O 0.28125 0.98988 0.45769 0.0
O107 O 0.29398 0.91757 0.43012 0.0
O108 O 0.28171 0.93929 0.4534 0.0
C109 C 0.30164 0.00457 0.45034 0.0
C110 C 0.28014 0.91835 0.4466 0.0
O111 O 0.33405 0.97005 0.40018 0.0
Mg112 Mg 0.04424 0.30812 0.33856 0.0
O113 O 0.07457 0.32823 0.37203 0.0
O114 O 0.10721 0.35724 0.35684 0.0
Mg115 Mg 0.09908 0.35052 0.31213 0.0
C116 C 0.09625 0.34636 0.37561 0.0
C117 C 0.99624 0.2775 0.36094 0.0
O118 O 0.99124 0.26404 0.33833 0.0
O119 O 0.04163 0.34249 0.33493 0.0
O120 O 0.07289 0.36527 0.31344 0.0
O121 O 0.05309 0.27801 0.33122 0.0
O122 O 0.06836 0.31264 0.31277 0.0
C123 C 0.05374 0.3612 0.32306 0.0
C124 C 0.06695 0.29173 0.31513 0.0
O125 O 0.01706 0.29644 0.36727 0.0
Mg126 Mg 0.64908 0.97026 0.40793 0.0
O127 O 0.669 0.95851 0.38041 0.0
O128 O 0.69935 0.95861 0.40441 0.0
Mg129 Mg 0.69769 0.96845 0.4473 0.0
C130 C 0.68705 0.9552 0.38255 0.0
C131 C 0.62316 0.99322 0.37809 0.0
O132 O 0.62826 0.00529 0.40154 0.0
O133 O 0.68019 0.0106 0.41402 0.0
O134 O 0.70766 0.00825 0.44078 0.0
O135 O 0.62451 0.93042 0.41337 0.0
O136 O 0.6592 0.95558 0.43774 0.0
C137 C 0.70039 0.02074 0.42855 0.0
C138 C 0.6407 0.93364 0.43193 0.0
O139 O 0.6298 0.97744 0.37372 0.0
Mg140 Mg 0.02974 0.70898 0.31234 0.0
O141 O 0.05966 0.72008 0.34566 0.0
O142 O 0.0938 0.72874 0.32938 0.0
Mg143 Mg 0.08564 0.72512 0.28491 0.0
C144 C 0.08194 0.72665 0.34862 0.0
C145 C 0.98251 0.69404 0.3381 0.0
O146 O 0.0016 0.69191 0.34232 0.0
O147 O 0.02722 0.67193 0.30176 0.0
O148 O 0.06037 0.68275 0.28213 0.0
O149 O 0.03921 0.74856 0.31275 0.0
O150 O 0.05463 0.73048 0.28885 0.0
C151 C 0.04057 0.66641 0.28927 0.0
C152 C 0.05398 0.75012 0.29635 0.0
O153 O 0.00137 0.69236 0.34149 0.0
Mg154 Mg 0.30115 0.36643 0.40603 0.0
O155 O 0.27105 0.34672 0.37243 0.0
O156 O 0.23727 0.31838 0.38624 0.0
Mg157 Mg 0.24701 0.3192 0.42994 0.0
C158 C 0.24883 0.32998 0.36813 0.0
C159 C 0.34551 0.40389 0.38058 0.0
O160 O 0.34922 0.41858 0.40188 0.0
O161 O 0.30628 0.33351 0.40537 0.0
O162 O 0.27416 0.30611 0.42303 0.0
O163 O 0.28943 0.39376 0.41653 0.0
O164 O 0.27678 0.35805 0.43258 0.0
C165 C 0.29413 0.31273 0.41393 0.0
C166 C 0.27625 0.3782 0.43177 0.0
O167 O 0.32733 0.3821 0.37681 0.0
Mg168 Mg 0.34645 0.02706 0.6711 0.0
O169 O 0.32808 0.03735 0.70185 0.0
O170 O 0.29871 0.04119 0.6811 0.0
Mg171 Mg 0.29872 0.03384 0.63708 0.0
C172 C 0.31098 0.04206 0.70197 0.0
C173 C 0.38745 0.02702 0.70663 0.0
O174 O 0.40017 0.04492 0.69284 0.0
O175 O 0.31442 0.98738 0.66242 0.0
O176 O 0.28723 0.99274 0.63888 0.0
O177 O 0.37199 0.06758 0.66878 0.0
O178 O 0.33717 0.04495 0.64374 0.0
C179 C 0.29409 0.97876 0.64854 0.0
C180 C 0.35629 0.06623 0.65078 0.0
O181 O 0.36454 0.01582 0.70263 0.0
Mg182 Mg 0.97116 0.29157 0.75774 0.0
O183 O 0.94457 0.28254 0.7215 0.0
O184 O 0.90931 0.27504 0.73397 0.0
Mg185 Mg 0.91305 0.27697 0.77867 0.0
C186 C 0.92276 0.27716 0.71631 0.0
C187 C 0.01243 0.29616 0.7268 0.0
O188 O 0.00646 0.27511 0.73597 0.0
O189 O 0.97477 0.32929 0.76779 0.0
O190 O 0.94015 0.31905 0.7841 0.0
O191 O 0.95958 0.25131 0.75725 0.0
O192 O 0.94332 0.26986 0.77875 0.0
C193 C 0.961 0.33515 0.77894 0.0
C194 C 0.94377 0.24996 0.77209 0.0
O195 O 0.00159 0.30773 0.73265 0.0
Mg196 Mg 0.70805 0.64306 0.67681 0.0
O197 O 0.73855 0.66537 0.70968 0.0
O198 O 0.76681 0.6996 0.69539 0.0
Mg199 Mg 0.756 0.69607 0.65139 0.0
C200 C 0.75843 0.68598 0.71346 0.0
C201 C 0.66239 0.60486 0.69831 0.0
O202 O 0.65735 0.59497 0.67389 0.0
O203 O 0.69681 0.67195 0.67932 0.0
O204 O 0.72413 0.70169 0.65855 0.0
O205 O 0.72437 0.62043 0.66348 0.0
O206 O 0.73147 0.65561 0.64929 0.0
C207 C 0.70479 0.69219 0.66936 0.0
C208 C 0.73514 0.63726 0.64835 0.0
O209 O 0.68294 0.62373 0.70614 0.0
Mg210 Mg 0.32195 0.30534 0.73619 0.0
O211 O 0.34833 0.30187 0.71111 0.0
O212 O 0.37766 0.30337 0.73782 0.0
Mg213 Mg 0.36833 0.30417 0.7797 0.0
C214 C 0.36824 0.30205 0.71491 0.0
C215 C 0.28472 0.3122 0.7029 0.0
O216 O 0.27271 0.3006 0.72166 0.0
O217 O 0.34955 0.34623 0.74988 0.0
O218 O 0.37587 0.34395 0.77844 0.0
O219 O 0.29963 0.2637 0.73384 0.0
O220 O 0.32971 0.28739 0.76458 0.0
C221 C 0.36825 0.3564 0.76675 0.0
C222 C 0.31297 0.2654 0.75463 0.0
O223 O 0.30621 0.31667 0.70241 0.0
Mg224 Mg 0.69279 0.04576 0.64357 0.0
O225 O 0.72174 0.05552 0.67754 0.0
O226 O 0.7536 0.05618 0.66238 0.0
Mg227 Mg 0.74565 0.04954 0.61776 0.0
C228 C 0.74277 0.05831 0.68116 0.0
C229 C 0.64469 0.0172 0.66726 0.0
O230 O 0.63859 0.00275 0.64515 0.0
O231 O 0.68441 0.00592 0.63773 0.0
O232 O 0.71589 0.009 0.61894 0.0
O233 O 0.70792 0.0859 0.63974 0.0
O234 O 0.71882 0.06157 0.61908 0.0
C235 C 0.69541 0.9962 0.627 0.0
C236 C 0.72151 0.08326 0.62415 0.0
O237 O 0.66551 0.03646 0.67213 0.0
Mg238 Mg 0.96423 0.69965 0.73711 0.0
O239 O 0.93484 0.68238 0.70239 0.0
O240 O 0.90067 0.65351 0.71548 0.0
Mg241 Mg 0.90792 0.65518 0.75987 0.0
C242 C 0.91271 0.66543 0.6978 0.0
C243 C 0.01152 0.71338 0.71502 0.0
O244 O 0.01507 0.70603 0.7371 0.0
O245 O 0.96585 0.6644 0.73693 0.0
O246 O 0.93326 0.63952 0.7556 0.0
O247 O 0.95553 0.72942 0.74755 0.0
O248 O 0.93943 0.69316 0.76283 0.0
C249 C 0.95286 0.64439 0.74655 0.0
C250 C 0.94124 0.7145 0.76258 0.0
O251 O 0.99227 0.71383 0.70935 0.0
H252 H 0.16711 0.34166 0.99085 0.0
H253 H 0.31773 0.31819 0.20292 0.0
H254 H 0.1521 0.3471 0.14398 0.0
H255 H 0.12166 0.35223 0.11859 0.0
H256 H 0.07951 0.27313 0.09593 0.0
H257 H 0.11011 0.26799 0.1215 0.0
H258 H 0.18903 0.35145 0.1037 0.0
H259 H 0.18369 0.35494 0.05739 0.0
H260 H 0.13844 0.27507 0.0416 0.0
H261 H 0.14409 0.27188 0.08798 0.0
H262 H 0.23406 0.35563 0.13101 0.0
H263 H 0.26206 0.36372 0.09829 0.0
H264 H 0.22193 0.28621 0.06723 0.0
H265 H 0.19383 0.27814 0.09987 0.0
H266 H 0.23471 0.35217 0.19429 0.0
H267 H 0.27483 0.36079 0.21152 0.0
H268 H 0.26018 0.29145 0.16988 0.0
H269 H 0.21996 0.28287 0.15312 0.0
H270 H 0.18376 0.33847 0.21948 0.0
H271 H 0.19644 0.3417 0.26577 0.0
H272 H 0.21127 0.28241 0.24986 0.0
H273 H 0.19616 0.27746 0.20382 0.0
H274 H 0.14115 0.33029 0.19124 0.0
H275 H 0.11702 0.32101 0.22772 0.0
H276 H 0.11314 0.25025 0.22715 0.0
H277 H 0.13706 0.25938 0.19045 0.0
O278 O 0.16879 0.33987 0.0091 0.0
O279 O 0.14538 0.29877 0.00204 0.0
O280 O 0.30867 0.3508 0.2172 0.0
O281 O 0.30204 0.31533 0.1962 0.0
C282 C 0.1546 0.30548 0.1441 0.0
C283 C 0.17177 0.30927 0.12686 0.0
C284 C 0.19413 0.31183 0.13601 0.0
C285 C 0.19985 0.31149 0.1626 0.0
C286 C 0.18243 0.30682 0.17981 0.0
C287 C 0.15944 0.30291 0.17029 0.0
C288 C 0.13318 0.30715 0.13484 0.0
C289 C 0.13582 0.33075 0.13445 0.0
C290 C 0.11854 0.33369 0.11991 0.0
C291 C 0.09835 0.31306 0.1055 0.0
C292 C 0.09485 0.28921 0.10721 0.0
C293 C 0.11222 0.28627 0.12181 0.0
C294 C 0.16683 0.31143 0.09912 0.0
C295 C 0.17782 0.33477 0.0902 0.0
C296 C 0.17482 0.33669 0.06374 0.0
C297 C 0.16073 0.31527 0.04577 0.0
C298 C 0.14946 0.29192 0.05491 0.0
C299 C 0.15252 0.29004 0.08138 0.0
C300 C 0.21206 0.31632 0.11774 0.0
C301 C 0.23152 0.34038 0.11734 0.0
C302 C 0.24735 0.34498 0.09874 0.0
C303 C 0.2439 0.32552 0.08052 0.0
C304 C 0.22477 0.30135 0.08127 0.0
C305 C 0.20885 0.29678 0.09977 0.0
C306 C 0.22442 0.31688 0.1725 0.0
C307 C 0.2402 0.33886 0.18894 0.0
C308 C 0.26311 0.34375 0.19872 0.0
C309 C 0.27071 0.32679 0.19209 0.0
C310 C 0.25491 0.30489 0.17539 0.0
C311 C 0.23195 0.29998 0.16571 0.0
C312 C 0.18887 0.30763 0.20816 0.0
C313 C 0.18894 0.32559 0.22602 0.0
C314 C 0.19644 0.32762 0.25239 0.0
C315 C 0.205 0.31245 0.26127 0.0
C316 C 0.20469 0.29428 0.24347 0.0
C317 C 0.19625 0.29158 0.21721 0.0
C318 C 0.14062 0.29539 0.188 0.0
C319 C 0.13435 0.31241 0.19829 0.0
C320 C 0.12092 0.30728 0.21927 0.0
C321 C 0.11357 0.28506 0.23008 0.0
C322 C 0.11874 0.26747 0.21898 0.0
C323 C 0.13215 0.2726 0.198 0.0
C324 C 0.15778 0.31736 0.01765 0.0
C325 C 0.29496 0.33179 0.20262 0.0
H326 H 0.64562 0.8131 0.01456 0.0
H327 H 0.7284 0.03154 0.21646 0.0
H328 H 0.64673 0.81273 0.15395 0.0
H329 H 0.63603 0.77005 0.13894 0.0
H330 H 0.70963 0.78908 0.16082 0.0
H331 H 0.72049 0.8321 0.17556 0.0
H332 H 0.64834 0.85029 0.12198 0.0
H333 H 0.64048 0.83388 0.07597 0.0
H334 H 0.71175 0.84296 0.08027 0.0
H335 H 0.71949 0.85968 0.12619 0.0
H336 H 0.65248 0.89383 0.16004 0.0
H337 H 0.64321 0.91831 0.13184 0.0
H338 H 0.70708 0.93712 0.09503 0.0
H339 H 0.71693 0.9131 0.12417 0.0
H340 H 0.66635 0.90845 0.21503 0.0
H341 H 0.67057 0.94904 0.22688 0.0
H342 H 0.73798 0.98422 0.194 0.0
H343 H 0.73364 0.94351 0.18247 0.0
H344 H 0.66383 0.86485 0.24109 0.0
H345 H 0.66442 0.88323 0.28463 0.0
H346 H 0.73806 0.94113 0.28303 0.0
H347 H 0.73746 0.9227 0.23928 0.0
H348 H 0.65701 0.81833 0.2136 0.0
H349 H 0.65817 0.78923 0.2421 0.0
H350 H 0.73526 0.83687 0.2602 0.0
H351 H 0.73414 0.86597 0.23142 0.0
O352 O 0.64919 0.81984 0.03273 0.0
O353 O 0.68593 0.82471 0.03602 0.0
O354 O 0.69211 0.99636 0.22973 0.0
O355 O 0.72637 0.01527 0.21216 0.0
C356 C 0.69051 0.85125 0.17419 0.0
C357 C 0.68924 0.86589 0.15543 0.0
C358 C 0.69175 0.88908 0.16348 0.0
C359 C 0.69694 0.89836 0.19019 0.0
C360 C 0.69845 0.88383 0.20904 0.0
C361 C 0.69508 0.86016 0.20099 0.0
C362 C 0.68439 0.82547 0.16567 0.0
C363 C 0.66059 0.80775 0.15535 0.0
C364 C 0.6545 0.78352 0.14682 0.0
C365 C 0.67211 0.77665 0.14867 0.0
C366 C 0.69592 0.79425 0.15915 0.0
C367 C 0.70205 0.81861 0.16761 0.0
C368 C 0.68458 0.85643 0.12732 0.0
C369 C 0.66232 0.84898 0.11287 0.0
C370 C 0.65784 0.83949 0.08663 0.0
C371 C 0.6755 0.83714 0.07442 0.0
C372 C 0.69777 0.84457 0.08904 0.0
C373 C 0.70226 0.85414 0.11525 0.0
C374 C 0.68562 0.90219 0.14448 0.0
C375 C 0.66449 0.90319 0.1459 0.0
C376 C 0.65912 0.91694 0.12973 0.0
C377 C 0.67458 0.92957 0.11163 0.0
C378 C 0.69504 0.92746 0.10902 0.0
C379 C 0.70066 0.91392 0.1256 0.0
C380 C 0.69988 0.92308 0.19824 0.0
C381 C 0.68217 0.92497 0.21071 0.0
C382 C 0.68454 0.94816 0.21729 0.0
C383 C 0.70467 0.9699 0.21147 0.0
C384 C 0.72232 0.96788 0.19887 0.0
C385 C 0.71992 0.94467 0.1923 0.0
C386 C 0.70064 0.89236 0.23706 0.0
C387 C 0.68032 0.8811 0.25037 0.0
C388 C 0.68058 0.89168 0.27506 0.0
C389 C 0.70118 0.91365 0.28683 0.0
C390 C 0.72197 0.92424 0.27414 0.0
C391 C 0.72167 0.91368 0.24934 0.0
C392 C 0.69551 0.84417 0.22044 0.0
C393 C 0.67411 0.8226 0.2239 0.0
C394 C 0.67477 0.80605 0.24004 0.0
C395 C 0.69681 0.81093 0.253 0.0
C396 C 0.71814 0.83286 0.2502 0.0
C397 C 0.71748 0.84943 0.23399 0.0
C398 C 0.67062 0.82688 0.04659 0.0
C399 C 0.70725 0.99458 0.21838 0.0
H400 H 0.14797 0.84397 0.00503 0.0
H401 H 0.34418 0.98129 0.23632 0.0
H402 H 0.12663 0.85858 0.13666 0.0
H403 H 0.08996 0.82004 0.11662 0.0
H404 H 0.11265 0.77716 0.15923 0.0
H405 H 0.14927 0.81537 0.17882 0.0
H406 H 0.17612 0.89596 0.11083 0.0
H407 H 0.16473 0.88053 0.06443 0.0
H408 H 0.15978 0.81145 0.08042 0.0
H409 H 0.17126 0.82714 0.12673 0.0
H410 H 0.23082 0.93577 0.14086 0.0
H411 H 0.26038 0.94685 0.10945 0.0
H412 H 0.25021 0.87313 0.10465 0.0
H413 H 0.2214 0.86236 0.13661 0.0
H414 H 0.22934 0.94923 0.20382 0.0
H415 H 0.27081 0.98094 0.22121 0.0
H416 H 0.29367 0.92755 0.20596 0.0
H417 H 0.25215 0.896 0.18885 0.0
H418 H 0.18186 0.91842 0.23407 0.0
H419 H 0.1942 0.93275 0.28101 0.0
H420 H 0.23786 0.89843 0.28269 0.0
H421 H 0.22557 0.88414 0.23597 0.0
H422 H 0.12977 0.87115 0.20188 0.0
H423 H 0.09973 0.84588 0.23002 0.0
H424 H 0.14606 0.81915 0.25827 0.0
H425 H 0.17585 0.84411 0.23017 0.0
O426 O 0.15255 0.84974 0.02345 0.0
O427 O 0.14975 0.81438 0.03279 0.0
O428 O 0.31588 0.99703 0.23304 0.0
O429 O 0.32781 0.96937 0.22876 0.0
C430 C 0.16455 0.86228 0.16819 0.0
C431 C 0.18143 0.87226 0.15024 0.0
C432 C 0.20552 0.89093 0.15906 0.0
C433 C 0.21243 0.90089 0.18556 0.0
C434 C 0.19541 0.89139 0.20345 0.0
C435 C 0.17164 0.87179 0.19485 0.0
C436 C 0.14057 0.83979 0.15932 0.0
C437 C 0.12342 0.84089 0.14204 0.0
C438 C 0.10261 0.81901 0.13061 0.0
C439 C 0.09879 0.79587 0.1364 0.0
C440 C 0.11536 0.79488 0.15456 0.0
C441 C 0.13612 0.81666 0.16587 0.0
C442 C 0.17424 0.86257 0.12214 0.0
C443 C 0.1725 0.87748 0.10425 0.0
C444 C 0.16601 0.86862 0.07777 0.0
C445 C 0.16122 0.8447 0.06872 0.0
C446 C 0.16323 0.82991 0.08674 0.0
C447 C 0.16967 0.83877 0.11321 0.0
C448 C 0.2239 0.89824 0.14081 0.0
C449 C 0.23516 0.92213 0.1332 0.0
C450 C 0.25189 0.92838 0.11534 0.0
C451 C 0.25732 0.91072 0.1048 0.0
C452 C 0.24619 0.88693 0.11261 0.0
C453 C 0.22976 0.8808 0.13068 0.0
C454 C 0.23779 0.92039 0.19493 0.0
C455 C 0.24337 0.94448 0.20414 0.0
C456 C 0.26706 0.96254 0.21405 0.0
C457 C 0.28556 0.95677 0.21499 0.0
C458 C 0.27987 0.93262 0.20554 0.0
C459 C 0.2562 0.9146 0.19563 0.0
C460 C 0.20302 0.90047 0.23163 0.0
C461 C 0.19413 0.91408 0.24458 0.0
C462 C 0.20112 0.9222 0.27122 0.0
C463 C 0.21692 0.91661 0.28511 0.0
C464 C 0.22569 0.90291 0.27218 0.0
C465 C 0.21879 0.89489 0.24561 0.0
C466 C 0.15492 0.85942 0.21406 0.0
C467 C 0.1336 0.86024 0.21456 0.0
C468 C 0.11662 0.84602 0.23063 0.0
C469 C 0.12086 0.83081 0.24613 0.0
C470 C 0.14268 0.83097 0.24655 0.0
C471 C 0.1596 0.84516 0.23057 0.0
C472 C 0.15417 0.83528 0.04061 0.0
C473 C 0.31063 0.97569 0.22609 0.0
H474 H 0.31977 0.19436 0.06266 0.0
H475 H 0.29295 0.98325 0.87333 0.0
H476 H 0.27912 0.17114 0.9272 0.0
H477 H 0.2917 0.21462 0.94157 0.0
H478 H 0.35672 0.23896 0.90535 0.0
H479 H 0.34429 0.19551 0.89119 0.0
H480 H 0.27801 0.13186 0.96243 0.0
H481 H 0.28889 0.15352 0.00669 0.0
H482 H 0.36148 0.20196 0.98952 0.0
H483 H 0.3504 0.18001 0.94541 0.0
H484 H 0.2716 0.0811 0.94634 0.0
H485 H 0.2823 0.05803 0.97592 0.0
H486 H 0.35749 0.10544 0.9675 0.0
H487 H 0.34694 0.12899 0.93917 0.0
H488 H 0.25373 0.06379 0.87804 0.0
H489 H 0.24527 0.02108 0.86934 0.0
H490 H 0.32116 0.04696 0.88865 0.0
H491 H 0.32933 0.08948 0.89727 0.0
H492 H 0.26206 0.10131 0.82926 0.0
H493 H 0.26291 0.08201 0.78642 0.0
H494 H 0.33178 0.09076 0.81405 0.0
H495 H 0.33167 0.11128 0.85567 0.0
H496 H 0.27134 0.1625 0.86833 0.0
H497 H 0.27436 0.19096 0.83708 0.0
H498 H 0.32699 0.17938 0.80152 0.0
H499 H 0.32703 0.15441 0.83546 0.0
O500 O 0.31593 0.18586 0.04517 0.0
O501 O 0.35289 0.21052 0.0352 0.0
O502 O 0.25702 0.98764 0.86622 0.0
O503 O 0.29578 -4e-05 0.87649 0.0
C504 C 0.30489 0.15411 0.90257 0.0
C505 C 0.30648 0.14171 0.92365 0.0
C506 C 0.30256 0.11754 0.91904 0.0
C507 C 0.29699 0.10557 0.89338 0.0
C508 C 0.29672 0.11834 0.87207 0.0
C509 C 0.30002 0.14253 0.87656 0.0
C510 C 0.3108 0.18024 0.90814 0.0
C511 C 0.29592 0.18587 0.9221 0.0
C512 C 0.30309 0.21053 0.93035 0.0
C513 C 0.32518 0.22977 0.92466 0.0
C514 C 0.33967 0.22422 0.90995 0.0
C515 C 0.33253 0.19956 0.90175 0.0
C516 C 0.31337 0.1545 0.95071 0.0
C517 C 0.29627 0.14709 0.96833 0.0
C518 C 0.30252 0.15953 0.99357 0.0
C519 C 0.32603 0.17955 0.00161 0.0
C520 C 0.3432 0.18667 0.98394 0.0
C521 C 0.33693 0.17421 0.95873 0.0
C522 C 0.30852 0.10644 0.94047 0.0
C523 C 0.2904 0.08693 0.95162 0.0
C524 C 0.29649 0.07389 0.96845 0.0
C525 C 0.32062 0.07979 0.97337 0.0
C526 C 0.33878 0.10051 0.96375 0.0
C527 C 0.33278 0.11389 0.94759 0.0
C528 C 0.29206 0.07966 0.88863 0.0
C529 C 0.26846 0.06015 0.8805 0.0
C530 C 0.26371 0.0358 0.8755 0.0
C531 C 0.28254 0.03059 0.87841 0.0
C532 C 0.30622 0.05029 0.88631 0.0
C533 C 0.31092 0.07458 0.89145 0.0
C534 C 0.29668 0.10744 0.84568 0.0
C535 C 0.27735 0.0992 0.8259 0.0
C536 C 0.27775 0.08805 0.80166 0.0
C537 C 0.29724 0.08462 0.79727 0.0
C538 C 0.31646 0.09295 0.81712 0.0
C539 C 0.31637 0.1046 0.84086 0.0
C540 C 0.29902 0.15625 0.85453 0.0
C541 C 0.28375 0.16626 0.854 0.0
C542 C 0.28529 0.18233 0.83598 0.0
C543 C 0.30102 0.18752 0.81694 0.0
C544 C 0.31488 0.17591 0.81614 0.0
C545 C 0.31456 0.16121 0.83529 0.0
C546 C 0.33252 0.19296 0.0283 0.0
C547 C 0.27758 0.00475 0.8733 0.0
H548 H 0.83226 0.18051 0.0633 0.0
H549 H 0.67723 0.97403 0.8452 0.0
H550 H 0.83744 0.183 0.92412 0.0
H551 H 0.87328 0.22296 0.9414 0.0
H552 H 0.9182 0.19078 0.93172 0.0
H553 H 0.8821 0.15054 0.91434 0.0
H554 H 0.7993 0.15012 0.95206 0.0
H555 H 0.80861 0.16566 0.9984 0.0
H556 H 0.85939 0.13984 0.00653 0.0
H557 H 0.84979 0.12426 0.96012 0.0
H558 H 0.75646 0.11012 0.91542 0.0
H559 H 0.72842 0.09772 0.94833 0.0
H560 H 0.76526 0.06449 0.98564 0.0
H561 H 0.79355 0.07713 0.95277 0.0
H562 H 0.75414 0.09618 0.85668 0.0
H563 H 0.71543 0.05993 0.8383 0.0
H564 H 0.73484 0.01264 0.87748 0.0
H565 H 0.77375 0.04903 0.89529 0.0
H566 H 0.7974 0.13422 0.83523 0.0
H567 H 0.78344 0.12049 0.78866 0.0
H568 H 0.78942 0.05555 0.79567 0.0
H569 H 0.8033 0.06926 0.84247 0.0
H570 H 0.84039 0.17677 0.86825 0.0
H571 H 0.86912 0.20172 0.83916 0.0
H572 H 0.88601 0.14394 0.82336 0.0
H573 H 0.85746 0.11903 0.85303 0.0
O574 O 0.82889 0.17425 0.04501 0.0
O575 O 0.85532 0.16131 0.04802 0.0
O576 O 0.68475 0.01338 0.82975 0.0
O577 O 0.69245 0.98866 0.85216 0.0
C578 C 0.83522 0.13989 0.90774 0.0
C579 C 0.81826 0.1267 0.92461 0.0
C580 C 0.79587 0.10558 0.91449 0.0
C581 C 0.79066 0.09715 0.8876 0.0
C582 C 0.8078 0.11018 0.87071 0.0
C583 C 0.83002 0.13159 0.88081 0.0
C584 C 0.85721 0.16391 0.91807 0.0
C585 C 0.85498 0.1845 0.92586 0.0
C586 C 0.87534 0.20721 0.9357 0.0
C587 C 0.89826 0.20969 0.93787 0.0
C588 C 0.90058 0.18909 0.93023 0.0
C589 C 0.88012 0.16629 0.92027 0.0
C590 C 0.82367 0.13581 0.95284 0.0
C591 C 0.81228 0.14766 0.96394 0.0
C592 C 0.81773 0.15663 0.99038 0.0
C593 C 0.83469 0.15391 0.0062 0.0
C594 C 0.84618 0.14215 0.99493 0.0
C595 C 0.84073 0.13322 0.96846 0.0
C596 C 0.77688 0.09438 0.93174 0.0
C597 C 0.75813 0.09967 0.93034 0.0
C598 C 0.74232 0.0928 0.94911 0.0
C599 C 0.74501 0.0804 0.96931 0.0
C600 C 0.76306 0.07409 0.9701 0.0
C601 C 0.77903 0.08115 0.9514 0.0
C602 C 0.76686 0.07519 0.87706 0.0
C603 C 0.75008 0.07796 0.86111 0.0
C604 C 0.72794 0.05723 0.85072 0.0
C605 C 0.72207 0.03336 0.85636 0.0
C606 C 0.7388 0.03074 0.87271 0.0
C607 C 0.76102 0.05148 0.88294 0.0
C608 C 0.80143 0.10276 0.84217 0.0
C609 C 0.79605 0.11722 0.82667 0.0
C610 C 0.78802 0.10937 0.80021 0.0
C611 C 0.78533 0.08699 0.78885 0.0
C612 C 0.79137 0.07285 0.80417 0.0
C613 C 0.79928 0.08065 0.83074 0.0
C614 C 0.84716 0.14631 0.86295 0.0
C615 C 0.85042 0.16957 0.85871 0.0
C616 C 0.86664 0.18368 0.84209 0.0
C617 C 0.87963 0.1746 0.82937 0.0
C618 C 0.87613 0.15115 0.83321 0.0
C619 C 0.85995 0.13705 0.85001 0.0
C620 C 0.84033 0.16335 0.03433 0.0
C621 C 0.69862 0.01127 0.84524 0.0
H622 H 0.86646 0.69116 0.09041 0.0
H623 H 0.68958 0.672 0.84492 0.0
H624 H 0.89729 0.73481 0.94778 0.0
H625 H 0.93016 0.73013 0.9648 0.0
H626 H 0.8827 0.65013 0.95386 0.0
H627 H 0.85017 0.65566 0.93723 0.0
H628 H 0.86429 0.72625 0.98951 0.0
H629 H 0.87059 0.7187 0.03417 0.0
H630 H 0.81652 0.64111 0.01371 0.0
H631 H 0.81064 0.64888 0.96905 0.0
H632 H 0.80983 0.71923 0.98312 0.0
H633 H 0.77938 0.70494 0.01364 0.0
H634 H 0.73941 0.63334 0.9671 0.0
H635 H 0.76968 0.64766 0.93655 0.0
H636 H 0.79125 0.72836 0.92771 0.0
H637 H 0.75428 0.72658 0.90928 0.0
H638 H 0.73368 0.65775 0.8619 0.0
H639 H 0.77058 0.65968 0.88062 0.0
H640 H 0.8204 0.73947 0.87857 0.0
H641 H 0.80693 0.74032 0.83325 0.0
H642 H 0.80322 0.67076 0.81085 0.0
H643 H 0.81657 0.66988 0.85597 0.0
H644 H 0.8721 0.74756 0.8877 0.0
H645 H 0.89643 0.75549 0.85144 0.0
H646 H 0.88686 0.68215 0.84963 0.0
H647 H 0.86175 0.67383 0.8851 0.0
O648 O 0.86386 0.69368 0.07258 0.0
O649 O 0.83578 0.65401 0.06112 0.0
O650 O 0.71501 0.7079 0.87834 0.0
O651 O 0.70391 0.67275 0.85318 0.0
C652 C 0.8505 0.69833 0.93231 0.0
C653 C 0.83281 0.69305 0.94925 0.0
C654 C 0.81104 0.69207 0.94055 0.0
C655 C 0.80692 0.69642 0.91497 0.0
C656 C 0.82482 0.70234 0.8982 0.0
C657 C 0.84682 0.70378 0.90705 0.0
C658 C 0.87155 0.69558 0.94036 0.0
C659 C 0.89446 0.71628 0.9481 0.0
C660 C 0.91369 0.71328 0.95744 0.0
C661 C 0.91084 0.68935 0.9582 0.0
C662 C 0.88712 0.66884 0.95139 0.0
C663 C 0.868 0.67189 0.94227 0.0
C664 C 0.83694 0.68815 0.97613 0.0
C665 C 0.85392 0.70763 0.99471 0.0
C666 C 0.85744 0.70326 0.0202 0.0
C667 C 0.844 0.67931 0.02754 0.0
C668 C 0.82713 0.65979 0.00873 0.0
C669 C 0.82369 0.66417 0.98324 0.0
C670 C 0.7918 0.68447 0.95766 0.0
C671 C 0.79433 0.70059 0.97939 0.0
C672 C 0.7771 0.69246 0.99673 0.0
C673 C 0.75733 0.66811 0.99254 0.0
C674 C 0.75459 0.65218 0.97054 0.0
C675 C 0.77171 0.66035 0.95314 0.0
C676 C 0.78359 0.69422 0.9054 0.0
C677 C 0.77858 0.71279 0.91356 0.0
C678 C 0.75751 0.71177 0.90292 0.0
C679 C 0.74111 0.69211 0.88395 0.0
C680 C 0.74595 0.67319 0.87636 0.0
C681 C 0.76699 0.67423 0.88703 0.0
C682 C 0.81941 0.70459 0.87053 0.0
C683 C 0.81699 0.72461 0.8638 0.0
C684 C 0.80936 0.72511 0.83806 0.0
C685 C 0.80396 0.70551 0.81886 0.0
C686 C 0.80727 0.686 0.82544 0.0
C687 C 0.81493 0.68554 0.85109 0.0
C688 C 0.86535 0.71019 0.88914 0.0
C689 C 0.87572 0.73342 0.87985 0.0
C690 C 0.88948 0.73793 0.85923 0.0
C691 C 0.89338 0.7194 0.84806 0.0
C692 C 0.88409 0.69666 0.85823 0.0
C693 C 0.87001 0.69201 0.87857 0.0
C694 C 0.84757 0.6748 0.05471 0.0
C695 C 0.71924 0.69147 0.87176 0.0
H696 H 0.8225 0.67751 0.32264 0.0
H697 H 0.9725 0.63408 0.54178 0.0
H698 H 0.81836 0.68421 0.47829 0.0
H699 H 0.78748 0.68923 0.45357 0.0
H700 H 0.74784 0.61082 0.42652 0.0
H701 H 0.77921 0.60596 0.45066 0.0
H702 H 0.8442 0.68644 0.43544 0.0
H703 H 0.83733 0.69009 0.38945 0.0
H704 H 0.81435 0.61256 0.36989 0.0
H705 H 0.8214 0.60924 0.41599 0.0
H706 H 0.88904 0.69131 0.44793 0.0
H707 H 0.9184 0.70086 0.41673 0.0
H708 H 0.90208 0.62485 0.40907 0.0
H709 H 0.87247 0.61522 0.4404 0.0
H710 H 0.91179 0.68645 0.49535 0.0
H711 H 0.95009 0.68981 0.51114 0.0
H712 H 0.91197 0.61225 0.52264 0.0
H713 H 0.87378 0.60909 0.5065 0.0
H714 H 0.88596 0.68355 0.54061 0.0
H715 H 0.89924 0.68631 0.58677 0.0
H716 H 0.84536 0.60934 0.587 0.0
H717 H 0.83237 0.60639 0.54044 0.0
H718 H 0.83512 0.67872 0.53777 0.0
H719 H 0.81153 0.67439 0.57418 0.0
H720 H 0.76325 0.59711 0.54538 0.0
H721 H 0.78697 0.60142 0.50896 0.0
O722 O 0.82512 0.67566 0.34071 0.0
O723 O 0.81428 0.63597 0.33159 0.0
O724 O 0.97596 0.67344 0.53109 0.0
O725 O 0.95763 0.63312 0.53503 0.0
C726 C 0.82269 0.64338 0.47484 0.0
C727 C 0.83876 0.64577 0.45664 0.0
C728 C 0.86082 0.6472 0.46476 0.0
C729 C 0.86674 0.64573 0.49093 0.0
C730 C 0.85077 0.64341 0.50919 0.0
C731 C 0.82872 0.64217 0.50114 0.0
C732 C 0.80096 0.64472 0.46631 0.0
C733 C 0.80259 0.66796 0.46779 0.0
C734 C 0.78507 0.67084 0.45363 0.0
C735 C 0.76551 0.65042 0.43816 0.0
C736 C 0.76278 0.62675 0.43846 0.0
C737 C 0.78057 0.62396 0.45226 0.0
C738 C 0.83301 0.64751 0.42899 0.0
C739 C 0.83743 0.67022 0.4212 0.0
C740 C 0.83368 0.67229 0.39491 0.0
C741 C 0.82532 0.65162 0.37598 0.0
C742 C 0.82078 0.62883 0.38396 0.0
C743 C 0.82467 0.62684 0.41025 0.0
C744 C 0.87865 0.65259 0.44622 0.0
C745 C 0.89175 0.67671 0.43946 0.0
C746 C 0.90842 0.68214 0.42179 0.0
C747 C 0.9122 0.66351 0.4107 0.0
C748 C 0.89922 0.63936 0.4175 0.0
C749 C 0.88249 0.63391 0.43528 0.0
C750 C 0.89007 0.64746 0.49954 0.0
C751 C 0.91179 0.67013 0.50096 0.0
C752 C 0.93362 0.67203 0.51015 0.0
C753 C 0.93409 0.65129 0.51818 0.0
C754 C 0.91226 0.62857 0.51657 0.0
C755 C 0.89043 0.62669 0.50735 0.0
C756 C 0.85834 0.64473 0.53719 0.0
C757 C 0.87714 0.66722 0.55054 0.0
C758 C 0.88464 0.66881 0.57678 0.0
C759 C 0.87332 0.64799 0.59009 0.0
C760 C 0.85433 0.62551 0.57689 0.0
C761 C 0.84692 0.62387 0.55049 0.0
C762 C 0.81256 0.64043 0.52069 0.0
C763 C 0.81925 0.66096 0.53913 0.0
C764 C 0.80602 0.65845 0.55994 0.0
C765 C 0.78589 0.6354 0.56245 0.0
C766 C 0.77886 0.61497 0.54372 0.0
C767 C 0.79214 0.61749 0.52288 0.0
C768 C 0.82124 0.65385 0.34808 0.0
C769 C 0.95719 0.65337 0.52844 0.0
H770 H 0.29665 0.12356 0.36008 0.0
H771 H 0.38774 0.36049 0.53542 0.0
H772 H 0.31095 0.14048 0.50446 0.0
H773 H 0.30036 0.09792 0.48882 0.0
H774 H 0.37593 0.12163 0.49139 0.0
H775 H 0.38657 0.16435 0.50739 0.0
H776 H 0.30794 0.17194 0.46488 0.0
H777 H 0.29626 0.15029 0.42056 0.0
H778 H 0.36938 0.16603 0.41747 0.0
H779 H 0.38085 0.18783 0.4617 0.0
H780 H 0.3133 0.21831 0.49761 0.0
H781 H 0.30097 0.24062 0.46935 0.0
H782 H 0.36321 0.26096 0.42898 0.0
H783 H 0.37601 0.23898 0.45797 0.0
H784 H 0.33242 0.24037 0.55127 0.0
H785 H 0.33518 0.28079 0.55827 0.0
H786 H 0.3992 0.31317 0.51919 0.0
H787 H 0.39624 0.27265 0.51238 0.0
H788 H 0.33553 0.2028 0.58348 0.0
H789 H 0.34153 0.22681 0.62566 0.0
H790 H 0.41282 0.28161 0.61114 0.0
H791 H 0.40689 0.25753 0.56896 0.0
H792 H 0.32439 0.15407 0.55789 0.0
H793 H 0.32636 0.12579 0.5869 0.0
H794 H 0.40409 0.1701 0.59731 0.0
H795 H 0.4021 0.1982 0.5676 0.0
O796 O 0.30172 0.1325 0.37744 0.0
O797 O 0.33953 0.14094 0.37694 0.0
O798 O 0.3543 0.32718 0.55456 0.0
O799 O 0.38647 0.3444 0.53335 0.0
C800 C 0.35537 0.18124 0.5137 0.0
C801 C 0.35214 0.1937 0.49368 0.0
C802 C 0.35438 0.217 0.49985 0.0
C803 C 0.36169 0.22881 0.52574 0.0
C804 C 0.36535 0.21653 0.54587 0.0
C805 C 0.36168 0.19243 0.53984 0.0
C806 C 0.34949 0.15531 0.50717 0.0
C807 C 0.32521 0.1364 0.50201 0.0
C808 C 0.3192 0.11229 0.49299 0.0
C809 C 0.3374 0.10689 0.48884 0.0
C810 C 0.36174 0.12567 0.49443 0.0
C811 C 0.36777 0.14983 0.50368 0.0
C812 C 0.34527 0.18162 0.46635 0.0
C813 C 0.32145 0.17093 0.45446 0.0
C814 C 0.31482 0.15847 0.42921 0.0
C815 C 0.33189 0.15642 0.41547 0.0
C816 C 0.3558 0.16729 0.42748 0.0
C817 C 0.36241 0.17978 0.4527 0.0
C818 C 0.34576 0.22755 0.48009 0.0
C819 C 0.32413 0.2273 0.48246 0.0
C820 C 0.31702 0.2398 0.46629 0.0
C821 C 0.33129 0.25243 0.44733 0.0
C822 C 0.35203 0.25118 0.44356 0.0
C823 C 0.35935 0.23885 0.46007 0.0
C824 C 0.36431 0.25367 0.53162 0.0
C825 C 0.34722 0.25629 0.54458 0.0
C826 C 0.34875 0.27936 0.54838 0.0
C827 C 0.36744 0.30023 0.53931 0.0
C828 C 0.38462 0.29752 0.52649 0.0
C829 C 0.38303 0.27442 0.52264 0.0
C830 C 0.37085 0.2283 0.57324 0.0
C831 C 0.35272 0.21956 0.58972 0.0
C832 C 0.35605 0.23333 0.61361 0.0
C833 C 0.37755 0.25597 0.62132 0.0
C834 C 0.39613 0.26415 0.60545 0.0
C835 C 0.3928 0.25039 0.58154 0.0
C836 C 0.36311 0.17807 0.56061 0.0
C837 C 0.34184 0.15786 0.56667 0.0
C838 C 0.34296 0.14175 0.5831 0.0
C839 C 0.36536 0.14576 0.59392 0.0
C840 C 0.38667 0.16669 0.58894 0.0
C841 C 0.38554 0.18273 0.57222 0.0
C842 C 0.32471 0.14286 0.3888 0.0
C843 C 0.36894 0.3247 0.54294 0.0
H844 H 0.80933 0.16927 0.32871 0.0
H845 H 0.00053 0.34737 0.54865 0.0
H846 H 0.78936 0.18489 0.46132 0.0
H847 H 0.755 0.14372 0.44339 0.0
H848 H 0.78751 0.1088 0.4855 0.0
H849 H 0.82187 0.14974 0.50311 0.0
H850 H 0.83509 0.22536 0.43223 0.0
H851 H 0.82366 0.2076 0.38645 0.0
H852 H 0.83033 0.14515 0.40591 0.0
H853 H 0.84196 0.16324 0.45155 0.0
H854 H 0.88803 0.27155 0.45869 0.0
H855 H 0.91956 0.28558 0.42929 0.0
H856 H 0.92099 0.2177 0.4324 0.0
H857 H 0.8902 0.20408 0.46211 0.0
H858 H 0.88048 0.28389 0.52332 0.0
H859 H 0.918 0.32306 0.53785 0.0
H860 H 0.9588 0.28676 0.52292 0.0
H861 H 0.92114 0.24765 0.50873 0.0
H862 H 0.83966 0.244 0.56119 0.0
H863 H 0.85319 0.257 0.60815 0.0
H864 H 0.91301 0.24531 0.59994 0.0
H865 H 0.89877 0.23097 0.5537 0.0
H866 H 0.79324 0.1981 0.52535 0.0
H867 H 0.76566 0.17109 0.55437 0.0
H868 H 0.81959 0.15436 0.58358 0.0
H869 H 0.84713 0.18127 0.55454 0.0
O870 O 0.81401 0.17603 0.34688 0.0
O871 O 0.81732 0.14413 0.35799 0.0
O872 O 0.96386 0.35057 0.54733 0.0
O873 O 0.98551 0.33225 0.54235 0.0
C874 C 0.83039 0.1948 0.49167 0.0
C875 C 0.84597 0.20642 0.473 0.0
C876 C 0.86859 0.2281 0.48076 0.0
C877 C 0.87508 0.23916 0.50691 0.0
C878 C 0.85974 0.22736 0.5258 0.0
C879 C 0.83745 0.20511 0.51813 0.0
C880 C 0.80802 0.17031 0.48369 0.0
C881 C 0.78885 0.16835 0.467 0.0
C882 C 0.76937 0.14498 0.45674 0.0
C883 C 0.76888 0.12336 0.46312 0.0
C884 C 0.78765 0.12533 0.4804 0.0
C885 C 0.80709 0.14863 0.4906 0.0
C886 C 0.83907 0.19545 0.44523 0.0
C887 C 0.83405 0.20784 0.42654 0.0
C888 C 0.82753 0.19765 0.40042 0.0
C889 C 0.82596 0.17489 0.39254 0.0
C890 C 0.83125 0.16265 0.41133 0.0
C891 C 0.83779 0.17288 0.43743 0.0
C892 C 0.8868 0.23676 0.46233 0.0
C893 C 0.89516 0.25977 0.45294 0.0
C894 C 0.91301 0.26769 0.43626 0.0
C895 C 0.92239 0.25255 0.42875 0.0
C896 C 0.91384 0.22952 0.43798 0.0
C897 C 0.89627 0.22175 0.45477 0.0
C898 C 0.89808 0.26299 0.51476 0.0
C899 C 0.89755 0.28447 0.5231 0.0
C900 C 0.919 0.30681 0.53139 0.0
C901 C 0.9414 0.30804 0.53155 0.0
C902 C 0.94186 0.28647 0.52304 0.0
C903 C 0.92038 0.26413 0.51477 0.0
C904 C 0.86836 0.23675 0.5539 0.0
C905 C 0.8557 0.2443 0.56955 0.0
C906 C 0.86346 0.25183 0.59621 0.0
C907 C 0.88424 0.25236 0.60739 0.0
C908 C 0.89708 0.24527 0.59162 0.0
C909 C 0.88904 0.23723 0.56523 0.0
C910 C 0.82209 0.19154 0.53789 0.0
C911 C 0.79925 0.18899 0.53839 0.0
C912 C 0.78364 0.17375 0.55493 0.0
C913 C 0.79075 0.16091 0.57103 0.0
C914 C 0.81398 0.16434 0.57139 0.0
C915 C 0.8296 0.1796 0.55487 0.0
C916 C 0.81886 0.16402 0.3648 0.0
C917 C 0.9642 0.33161 0.54084 0.0
H918 H 0.01083 0.52346 0.38403 0.0
H919 H 0.00195 0.33725 0.1696 0.0
H920 H 0.96295 0.50518 0.25221 0.0
H921 H 0.97475 0.54802 0.26873 0.0
H922 H 0.03522 0.57583 0.22449 0.0
H923 H 0.02366 0.53307 0.20823 0.0
H924 H 0.96622 0.46433 0.28243 0.0
H925 H 0.97862 0.48407 0.32756 0.0
H926 H 0.04789 0.53835 0.30685 0.0
H927 H 0.0353 0.51834 0.26187 0.0
H928 H 0.96176 0.41347 0.25705 0.0
H929 H 0.97568 0.39128 0.28411 0.0
H930 H 0.0495 0.44894 0.28289 0.0
H931 H 0.03564 0.47106 0.25597 0.0
H932 H 0.94408 0.39807 0.19654 0.0
H933 H 0.9428 0.35917 0.18274 0.0
H934 H 0.02079 0.39863 0.19015 0.0
H935 H 0.02177 0.4373 0.20411 0.0
H936 H 0.93765 0.4277 0.15571 0.0
H937 H 0.93361 0.40536 0.11275 0.0
H938 H 0.01095 0.43867 0.11904 0.0
H939 H 0.01493 0.46055 0.16173 0.0
H940 H 0.94851 0.49562 0.19393 0.0
H941 H 0.9467 0.52468 0.16604 0.0
H942 H -0.00112 0.52036 0.12177 0.0
H943 H 0.00381 0.49506 0.15224 0.0
O944 O 0.00638 0.5158 0.36614 0.0
O945 O 0.04155 0.54349 0.35438 0.0
O946 O 0.96184 0.33297 0.17111 0.0
O947 O 0.00192 0.35231 0.17516 0.0
C948 C 0.98751 0.49048 0.22191 0.0
C949 C 0.99199 0.47819 0.24144 0.0
C950 C 0.99004 0.45506 0.23479 0.0
C951 C 0.98367 0.44412 0.20867 0.0
C952 C 0.97945 0.45643 0.18898 0.0
C953 C 0.98083 0.47951 0.19556 0.0
C954 C 0.99248 0.51609 0.22906 0.0
C955 C 0.97856 0.52053 0.24585 0.0
C956 C 0.98528 0.54482 0.25529 0.0
C957 C 0.00591 0.56485 0.24792 0.0
C958 C 0.01931 0.56048 0.23039 0.0
C959 C 0.01264 0.53621 0.22102 0.0
C960 C -0.00021 0.49003 0.26889 0.0
C961 C 0.98408 0.48045 0.28773 0.0
C962 C 0.9912 0.49179 0.31346 0.0
C963 C 0.01422 0.51286 0.32079 0.0
C964 C 0.03002 0.5222 0.30186 0.0
C965 C 0.02286 0.51086 0.27615 0.0
C966 C 0.99774 0.44374 0.25455 0.0
C967 C 0.98087 0.42159 0.26325 0.0
C968 C 0.98876 0.40909 0.27874 0.0
C969 C 0.01357 0.41862 0.28543 0.0
C970 C 0.03031 0.44153 0.27807 0.0
C971 C 0.02243 0.45404 0.2627 0.0
C972 C 0.983 0.42038 0.20149 0.0
C973 C 0.96084 0.39819 0.19535 0.0
C974 C 0.96018 0.37605 0.18741 0.0
C975 C 0.98171 0.37579 0.18537 0.0
C976 C 0.00389 0.39815 0.19153 0.0
C977 C 0.00452 0.42023 0.19964 0.0
C978 C 0.97661 0.44607 0.16154 0.0
C979 C 0.95368 0.43055 0.1475 0.0
C980 C 0.95139 0.4177 0.12325 0.0
C981 C 0.97203 0.42045 0.11293 0.0
C982 C 0.99489 0.43641 0.12674 0.0
C983 C 0.99715 0.44898 0.15092 0.0
C984 C 0.9762 0.49285 0.17525 0.0
C985 C 0.95961 0.50094 0.17823 0.0
C986 C 0.95839 0.51735 0.16218 0.0
C987 C 0.97268 0.52479 0.14177 0.0
C988 C 0.98771 0.51497 0.13741 0.0
C989 C 0.99014 0.49997 0.15454 0.0
C990 C 0.02163 0.52503 0.34807 0.0
C991 C 0.98112 0.35236 0.17679 0.0
H992 H 0.51223 0.53107 0.39548 0.0
H993 H 0.34158 0.32542 0.15857 0.0
H994 H 0.5145 0.52536 0.23451 0.0
H995 H 0.54933 0.56431 0.25575 0.0
H996 H 0.57651 0.52317 0.2948 0.0
H997 H 0.5416 0.48391 0.27308 0.0
H998 H 0.49055 0.51047 0.28222 0.0
H999 H 0.49948 0.52543 0.32871 0.0
H1000 H 0.50042 0.45916 0.34495 0.0
H1001 H 0.49177 0.44457 0.29833 0.0
H1002 H 0.44034 0.4732 0.26452 0.0
H1003 H 0.41141 0.46256 0.29636 0.0
H1004 H 0.41154 0.39439 0.30302 0.0
H1005 H 0.44072 0.40516 0.2711 0.0
H1006 H 0.41539 0.4415 0.2153 0.0
H1007 H 0.37513 0.40883 0.19558 0.0
H1008 H 0.40193 0.35833 0.18394 0.0
H1009 H 0.44205 0.3911 0.20403 0.0
H1010 H 0.44771 0.46157 0.17265 0.0
H1011 H 0.43437 0.4473 0.12602 0.0
H1012 H 0.47169 0.40624 0.12737 0.0
H1013 H 0.48517 0.42067 0.17421 0.0
H1014 H 0.49829 0.50433 0.18636 0.0
H1015 H 0.5294 0.52946 0.15955 0.0
H1016 H 0.56587 0.489 0.17566 0.0
H1017 H 0.53507 0.46447 0.20353 0.0
O1018 O 0.50871 0.5248 0.37718 0.0
O1019 O 0.5082 0.49003 0.38456 0.0
O1020 O 0.34461 0.36552 0.17245 0.0
O1021 O 0.3572 0.3385 0.16697 0.0
C1022 C 0.50282 0.47861 0.24182 0.0
C1023 C 0.48522 0.46737 0.25871 0.0
C1024 C 0.46179 0.44802 0.24865 0.0
C1025 C 0.45625 0.43877 0.22201 0.0
C1026 C 0.47399 0.44967 0.20515 0.0
C1027 C 0.49715 0.46967 0.21503 0.0
C1028 C 0.52577 0.50182 0.25183 0.0
C1029 C 0.52831 0.5247 0.24697 0.0
C1030 C 0.54798 0.54685 0.2593 0.0
C1031 C 0.56534 0.54649 0.2768 0.0
C1032 C 0.56324 0.5237 0.28127 0.0
C1033 C 0.5435 0.50143 0.26882 0.0
C1034 C 0.49084 0.4766 0.28693 0.0
C1035 C 0.49293 0.49934 0.29584 0.0
C1036 C 0.4979 0.50777 0.32241 0.0
C1037 C 0.50075 0.49353 0.34055 0.0
C1038 C 0.49842 0.47063 0.3315 0.0
C1039 C 0.4935 0.46225 0.30491 0.0
C1040 C 0.4425 0.4399 0.26565 0.0
C1041 C 0.43389 0.45583 0.27263 0.0
C1042 C 0.41752 0.44984 0.29071 0.0
C1043 C 0.40956 0.42781 0.30191 0.0
C1044 C 0.41762 0.41147 0.29443 0.0
C1045 C 0.43407 0.41751 0.27629 0.0
C1046 C 0.43154 0.41856 0.21135 0.0
C1047 C 0.41244 0.42326 0.20883 0.0
C1048 C 0.3895 0.40461 0.1974 0.0
C1049 C 0.38531 0.38095 0.18815 0.0
C1050 C 0.40452 0.3763 0.19088 0.0
C1051 C 0.42743 0.39496 0.20238 0.0
C1052 C 0.4673 0.44206 0.17671 0.0
C1053 C 0.45314 0.44963 0.16285 0.0
C1054 C 0.44557 0.44154 0.13637 0.0
C1055 C 0.45204 0.42572 0.12344 0.0
C1056 C 0.46657 0.41844 0.13715 0.0
C1057 C 0.47424 0.42666 0.16371 0.0
C1058 C 0.51471 0.48289 0.19699 0.0
C1059 C 0.51294 0.50083 0.184 0.0
C1060 C 0.53059 0.51506 0.16875 0.0
C1061 C 0.54997 0.51118 0.16592 0.0
C1062 C 0.55109 0.49231 0.17786 0.0
C1063 C 0.53365 0.4784 0.19364 0.0
C1064 C 0.50609 0.50258 0.36876 0.0
C1065 C 0.36112 0.36126 0.17544 0.0
H1066 H 0.51417 0.00642 0.42367 0.0
H1067 H 0.34885 0.00044 0.17966 0.0
H1068 H 0.55237 0.05404 0.28578 0.0
H1069 H 0.58267 0.04784 0.31035 0.0
H1070 H 0.53654 0.96856 0.29174 0.0
H1071 H 0.50627 0.97477 0.26742 0.0
H1072 H 0.51902 0.04604 0.32429 0.0
H1073 H 0.5221 0.0366 0.36883 0.0
H1074 H 0.46762 0.95982 0.34413 0.0
H1075 H 0.46479 0.96954 0.29969 0.0
H1076 H 0.47402 0.04944 0.31291 0.0
H1077 H 0.4466 0.04302 0.3459 0.0
H1078 H 0.39707 0.96916 0.30737 0.0
H1079 H 0.4245 0.97559 0.27432 0.0
H1080 H 0.45209 0.05422 0.25979 0.0
H1081 H 0.41572 0.05403 0.24219 0.0
H1082 H 0.3919 0.9843 0.19488 0.0
H1083 H 0.42817 0.98458 0.21285 0.0
H1084 H 0.48247 0.06367 0.21261 0.0
H1085 H 0.47063 0.06697 0.16764 0.0
H1086 H 0.46171 0.99541 0.14266 0.0
H1087 H 0.47353 0.99211 0.18754 0.0
H1088 H 0.532 0.06813 0.22324 0.0
H1089 H 0.55834 0.07672 0.18884 0.0
H1090 H 0.54456 0.00163 0.18369 0.0
H1091 H 0.51755 0.99277 0.21751 0.0
O1092 O 0.51269 0.00975 0.40594 0.0
O1093 O 0.48403 0.97069 0.39241 0.0
O1094 O 0.37543 0.03584 0.21316 0.0
O1095 O 0.36322 0.00084 0.1872 0.0
C1096 C 0.50671 0.01802 0.26539 0.0
C1097 C 0.48918 0.0144 0.28208 0.0
C1098 C 0.46882 0.01596 0.27328 0.0
C1099 C 0.46525 0.02002 0.24745 0.0
C1100 C 0.48293 0.02408 0.23081 0.0
C1101 C 0.50398 0.02376 0.24003 0.0
C1102 C 0.52722 0.01485 0.27471 0.0
C1103 C 0.54919 0.03539 0.28627 0.0
C1104 C 0.56639 0.03185 0.30031 0.0
C1105 C 0.56178 0.00774 0.30283 0.0
C1106 C 0.54046 0.98728 0.28986 0.0
C1107 C 0.52327 0.99082 0.27597 0.0
C1108 C 0.49179 0.00844 0.30883 0.0
C1109 C 0.50791 0.02717 0.32855 0.0
C1110 C 0.50953 0.02174 0.35397 0.0
C1111 C 0.49507 0.99745 0.36005 0.0
C1112 C 0.47901 0.97871 0.34012 0.0
C1113 C 0.47739 0.98419 0.31474 0.0
C1114 C 0.45112 0.01297 0.29133 0.0
C1115 C 0.45708 0.03203 0.31141 0.0
C1116 C 0.44156 0.02839 0.33012 0.0
C1117 C 0.41999 0.00565 0.32889 0.0
C1118 C 0.41369 0.98682 0.30843 0.0
C1119 C 0.4292 0.99049 0.28965 0.0
C1120 C 0.44275 0.01944 0.23757 0.0
C1121 C 0.43889 0.03883 0.24579 0.0
C1122 C 0.41815 0.03871 0.23564 0.0
C1123 C 0.40094 0.01919 0.21703 0.0
C1124 C 0.40479 -0.00036 0.20911 0.0
C1125 C 0.42549 -0.00025 0.21933 0.0
C1126 C 0.47872 0.02759 0.20332 0.0
C1127 C 0.47829 0.04888 0.19736 0.0
C1128 C 0.4716 0.05078 0.17181 0.0
C1129 C 0.46514 0.03134 0.15199 0.0
C1130 C 0.46659 0.01055 0.15776 0.0
C1131 C 0.47336 0.0087 0.18327 0.0
C1132 C 0.52303 0.02988 0.22291 0.0
C1133 C 0.53502 0.05367 0.21501 0.0
C1134 C 0.5499 0.05855 0.19543 0.0
C1135 C 0.55326 0.03978 0.18387 0.0
C1136 C 0.54214 0.01629 0.19255 0.0
C1137 C 0.52698 0.01132 0.21193 0.0
C1138 C 0.49685 0.99173 0.38706 0.0
C1139 C 0.37914 0.01922 0.20575 0.0
H1140 H 0.50224 0.0315 0.66414 0.0
H1141 H 0.6417 0.97002 0.87745 0.0
H1142 H 0.494 0.03274 0.82021 0.0
H1143 H 0.4636 0.03903 0.79622 0.0
H1144 H 0.42518 0.96203 0.76337 0.0
H1145 H 0.45588 0.95589 0.78699 0.0
H1146 H 0.52137 0.03565 0.77665 0.0
H1147 H 0.51561 0.04129 0.7311 0.0
H1148 H 0.49128 0.96386 0.70824 0.0
H1149 H 0.49718 0.95854 0.7539 0.0
H1150 H 0.56595 0.03471 0.78366 0.0
H1151 H 0.59217 0.0384 0.75015 0.0
H1152 H 0.56888 0.96063 0.74827 0.0
H1153 H 0.54245 0.95689 0.78177 0.0
H1154 H 0.58711 0.02933 0.83355 0.0
H1155 H 0.62419 0.02963 0.84815 0.0
H1156 H 0.58186 0.95267 0.86082 0.0
H1157 H 0.5449 0.95255 0.84588 0.0
H1158 H 0.56168 0.02657 0.88144 0.0
H1159 H 0.57362 0.02589 0.92712 0.0
H1160 H 0.51464 0.95056 0.92344 0.0
H1161 H 0.50305 0.95099 0.87732 0.0
H1162 H 0.51073 0.02478 0.87918 0.0
H1163 H 0.48537 0.01964 0.9141 0.0
H1164 H 0.43504 0.94443 0.87972 0.0
H1165 H 0.46035 0.94961 0.84475 0.0
O1166 O 0.50435 0.02885 0.68202 0.0
O1167 O 0.49258 0.98909 0.67122 0.0
O1168 O 0.648 0.01045 0.86673 0.0
O1169 O 0.6273 0.97032 0.8714 0.0
C1170 C 0.49846 0.99192 0.81405 0.0
C1171 C 0.51444 0.99371 0.79597 0.0
C1172 C 0.53551 0.99314 0.80398 0.0
C1173 C 0.54086 0.99095 0.83007 0.0
C1174 C 0.52502 0.98933 0.84826 0.0
C1175 C 0.50374 0.98965 0.84021 0.0
C1176 C 0.47708 0.99385 0.80537 0.0
C1177 C 0.47858 0.01703 0.80856 0.0
C1178 C 0.46133 0.02063 0.79482 0.0
C1179 C 0.44228 0.00103 0.77792 0.0
C1180 C 0.43975 0.97734 0.77635 0.0
C1181 C 0.45715 0.97383 0.78986 0.0
C1182 C 0.50946 0.99665 0.76851 0.0
C1183 C 0.51457 0.0199 0.76177 0.0
C1184 C 0.51142 0.02309 0.73574 0.0
C1185 C 0.503 0.00302 0.71602 0.0
C1186 C 0.49776 0.97969 0.72294 0.0
C1187 C 0.50102 0.97656 0.74898 0.0
C1188 C 0.55232 0.99553 0.78495 0.0
C1189 C 0.56658 0.01851 0.77608 0.0
C1190 C 0.58147 0.02061 0.7571 0.0
C1191 C 0.5823 -0.00023 0.74689 0.0
C1192 C 0.56837 0.97685 0.75606 0.0
C1193 C 0.55343 0.97474 0.77508 0.0
C1194 C 0.56335 0.99089 0.83852 0.0
C1195 C 0.5859 0.0125 0.83927 0.0
C1196 C 0.60704 0.01265 0.84773 0.0
C1197 C 0.60599 0.99116 0.85566 0.0
C1198 C 0.58332 0.96951 0.85482 0.0
C1199 C 0.56219 0.96939 0.84632 0.0
C1200 C 0.53159 0.9888 0.87608 0.0
C1201 C 0.55141 0.00986 0.89042 0.0
C1202 C 0.55817 0.00949 0.91638 0.0
C1203 C 0.54508 0.98813 0.92845 0.0
C1204 C 0.525 0.96713 0.91429 0.0
C1205 C 0.51837 0.96742 0.88816 0.0
C1206 C 0.48719 0.98762 0.8594 0.0
C1207 C 0.49407 0.00732 0.87904 0.0
C1208 C 0.4798 0.00433 0.89899 0.0
C1209 C 0.45854 0.98161 0.89948 0.0
C1210 C 0.45149 0.96202 0.87963 0.0
C1211 C 0.46571 0.96505 0.85963 0.0
C1212 C 0.49965 0.00647 0.68839 0.0
C1213 C 0.6284 0.99132 0.86489 0.0
H1214 H 0.93585 0.44695 0.70073 0.0
H1215 H 0.04013 0.68744 0.8739 0.0
H1216 H 0.96306 0.46601 0.84048 0.0
H1217 H 0.95398 0.42434 0.82323 0.0
H1218 H 0.03015 0.45032 0.82812 0.0
H1219 H 0.03928 0.49225 0.84519 0.0
H1220 H 0.95616 0.49898 0.80565 0.0
H1221 H 0.94089 0.47621 0.76186 0.0
H1222 H 0.01177 0.48777 0.75251 0.0
H1223 H 0.02684 0.51069 0.79623 0.0
H1224 H 0.96557 0.54861 0.83677 0.0
H1225 H 0.95476 0.57193 0.80823 0.0
H1226 H 0.01356 0.58478 0.76462 0.0
H1227 H 0.02493 0.56199 0.79386 0.0
H1228 H 0.98626 0.56762 0.89089 0.0
H1229 H 0.98932 0.60814 0.89873 0.0
H1230 H 0.05043 0.63977 0.85515 0.0
H1231 H 0.04714 0.59914 0.84746 0.0
H1232 H 0.99441 0.53426 0.92377 0.0
H1233 H 0.00502 0.56161 0.9648 0.0
H1234 H 0.07422 0.61192 0.94148 0.0
H1235 H 0.06353 0.58466 0.9003 0.0
H1236 H 0.98303 0.48004 0.89718 0.0
H1237 H 0.99107 0.45359 0.92387 0.0
H1238 H 0.06759 0.50433 0.92743 0.0
H1239 H 0.05955 0.53062 0.90015 0.0
O1240 O 0.94235 0.45635 0.71783 0.0
O1241 O 0.97905 0.46253 0.71417 0.0
O1242 O 0.00815 0.65448 0.89494 0.0
O1243 O 0.0387 0.67129 0.87139 0.0
C1244 C 0.00693 0.50779 0.85061 0.0
C1245 C 0.00164 0.51945 0.83102 0.0
C1246 C 0.00449 0.54304 0.83724 0.0
C1247 C 0.01378 0.55561 0.86271 0.0
C1248 C 0.01966 0.54424 0.88227 0.0
C1249 C 0.01584 0.52007 0.87631 0.0
C1250 C 0.00181 0.48207 0.84399 0.0
C1251 C 0.97779 0.46263 0.83817 0.0
C1252 C 0.97262 0.439 0.82827 0.0
C1253 C 0.99142 0.43451 0.82423 0.0
C1254 C 0.01548 0.45364 0.83103 0.0
C1255 C 0.02066 0.47738 0.84089 0.0
C1256 C 0.99262 0.50657 0.80402 0.0
C1257 C 0.9684 0.49678 0.79399 0.0
C1258 C 0.95971 0.4837 0.76903 0.0
C1259 C 0.9751 0.48013 0.7537 0.0
C1260 C -0.00056 0.49018 0.76379 0.0
C1261 C 0.0081 0.50328 0.78874 0.0
C1262 C 0.99627 0.55408 0.8176 0.0
C1263 C 0.97597 0.55623 0.8209 0.0
C1264 C 0.96973 0.56931 0.80458 0.0
C1265 C 0.98348 0.58007 0.78454 0.0
C1266 C 0.00279 0.57648 0.78003 0.0
C1267 C 0.00928 0.56364 0.79666 0.0
C1268 C 0.01664 0.58054 0.86886 0.0
C1269 C 0.00047 0.5834 0.88334 0.0
C1270 C 0.00215 0.60652 0.88762 0.0
C1271 C 0.02014 0.62721 0.87758 0.0
C1272 C 0.03641 0.62426 0.86322 0.0
C1273 C 0.03464 0.6011 0.85886 0.0
C1274 C 0.02825 0.55742 0.90914 0.0
C1275 C 0.01214 0.55077 0.92785 0.0
C1276 C 0.01809 0.56643 0.95108 0.0
C1277 C 0.04028 0.58882 0.95594 0.0
C1278 C 0.05702 0.59472 0.93798 0.0
C1279 C 0.051 0.57914 0.91465 0.0
C1280 C 0.02071 0.50716 0.89664 0.0
C1281 C 0.00152 0.48574 0.90415 0.0
C1282 C 0.00608 0.47068 0.91929 0.0
C1283 C 0.02988 0.47701 0.92738 0.0
C1284 C 0.04911 0.49925 0.9213 0.0
C1285 C 0.04454 0.51423 0.90591 0.0
C1286 C 0.96572 0.46585 0.72737 0.0
C1287 C 0.0219 0.65176 0.8819 0.0
H1288 H 0.47891 0.49923 0.67057 0.0
H1289 H 0.6737 0.66746 0.89583 0.0
H1290 H 0.45894 0.52048 0.80186 0.0
H1291 H 0.42329 0.4803 0.78364 0.0
H1292 H 0.45033 0.44236 0.82889 0.0
H1293 H 0.48601 0.48225 0.84666 0.0
H1294 H 0.50572 0.55723 0.77315 0.0
H1295 H 0.49421 0.5388 0.72757 0.0
H1296 H 0.49614 0.47439 0.7492 0.0
H1297 H 0.50765 0.49304 0.79466 0.0
H1298 H 0.56018 0.60141 0.80013 0.0
H1299 H 0.59074 0.61255 0.76985 0.0
H1300 H 0.58628 0.54176 0.77277 0.0
H1301 H 0.55654 0.53104 0.80359 0.0
H1302 H 0.55502 0.61637 0.86471 0.0
H1303 H 0.5944 0.65298 0.8804 0.0
H1304 H 0.62863 0.60977 0.86565 0.0
H1305 H 0.58916 0.57328 0.85019 0.0
H1306 H 0.51166 0.57902 0.90309 0.0
H1307 H 0.52649 0.59263 0.94976 0.0
H1308 H 0.58276 0.57548 0.94051 0.0
H1309 H 0.56671 0.55985 0.89491 0.0
H1310 H 0.46313 0.53595 0.86571 0.0
H1311 H 0.43352 0.51072 0.89411 0.0
H1312 H 0.48259 0.4887 0.92603 0.0
H1313 H 0.5121 0.51374 0.89757 0.0
O1314 O 0.48355 0.50621 0.68868 0.0
O1315 O 0.4843 0.47329 0.70092 0.0
O1316 O 0.64043 0.67629 0.89092 0.0
O1317 O 0.65813 0.65364 0.88833 0.0
C1318 C 0.49842 0.52786 0.83347 0.0
C1319 C 0.51452 0.53784 0.81479 0.0
C1320 C 0.53799 0.55829 0.8224 0.0
C1321 C 0.54503 0.56974 0.8484 0.0
C1322 C 0.52921 0.55945 0.86735 0.0
C1323 C 0.50587 0.53855 0.85981 0.0
C1324 C 0.47502 0.50431 0.82572 0.0
C1325 C 0.45691 0.50353 0.80822 0.0
C1326 C 0.43668 0.48071 0.79783 0.0
C1327 C 0.43434 0.45849 0.80494 0.0
C1328 C 0.45188 0.45936 0.82326 0.0
C1329 C 0.4721 0.48208 0.83352 0.0
C1330 C 0.50724 0.52635 0.78721 0.0
C1331 C 0.50356 0.53911 0.76798 0.0
C1332 C 0.49702 0.52855 0.74198 0.0
C1333 C 0.49414 0.50506 0.73476 0.0
C1334 C 0.4981 0.49245 0.75411 0.0
C1335 C 0.50456 0.503 0.7801 0.0
C1336 C 0.55609 0.56538 0.80385 0.0
C1337 C 0.56588 0.5884 0.79426 0.0
C1338 C 0.58319 0.59469 0.77707 0.0
C1339 C 0.59062 0.5779 0.76918 0.0
C1340 C 0.58071 0.55487 0.77869 0.0
C1341 C 0.56372 0.54876 0.79608 0.0
C1342 C 0.56923 0.59223 0.85612 0.0
C1343 C 0.57107 0.61492 0.86466 0.0
C1344 C 0.59358 0.63579 0.87363 0.0
C1345 C 0.61466 0.63427 0.87435 0.0
C1346 C 0.61276 0.61157 0.8654 0.0
C1347 C 0.59025 0.59074 0.85636 0.0
C1348 C 0.5383 0.56874 0.89541 0.0
C1349 C 0.52711 0.5781 0.9112 0.0
C1350 C 0.53565 0.58602 0.93769 0.0
C1351 C 0.55593 0.58537 0.94849 0.0
C1352 C 0.56725 0.57638 0.93254 0.0
C1353 C 0.55821 0.56765 0.90647 0.0
C1354 C 0.48968 0.52658 0.87959 0.0
C1355 C 0.46769 0.52613 0.87926 0.0
C1356 C 0.45093 0.51193 0.89547 0.0
C1357 C 0.45604 0.49803 0.91209 0.0
C1358 C 0.47854 0.49954 0.91345 0.0
C1359 C 0.49528 0.51373 0.89725 0.0
C1360 C 0.48705 0.49382 0.70715 0.0
C1361 C 0.63848 0.65607 0.88493 0.0
H1362 H 0.64536 0.84857 0.7316 0.0
H1363 H 0.64666 0.65864 0.53342 0.0
H1364 H 0.61045 0.83242 0.59569 0.0
H1365 H 0.62123 0.87522 0.6112 0.0
H1366 H 0.68667 0.90334 0.57515 0.0
H1367 H 0.67639 0.86076 0.56045 0.0
H1368 H 0.60991 0.791 0.62837 0.0
H1369 H 0.61812 0.81011 0.67348 0.0
H1370 H 0.6904 0.86435 0.66027 0.0
H1371 H 0.682 0.84494 0.6153 0.0
H1372 H 0.60774 0.74294 0.60993 0.0
H1373 H 0.61924 0.7198 0.63851 0.0
H1374 H 0.69441 0.7723 0.63503 0.0
H1375 H 0.68295 0.79586 0.60769 0.0
H1376 H 0.59448 0.72752 0.54185 0.0
H1377 H 0.59117 0.68717 0.53091 0.0
H1378 H 0.66811 0.7209 0.55236 0.0
H1379 H 0.67113 0.76105 0.56317 0.0
H1380 H 0.59877 0.76577 0.49664 0.0
H1381 H 0.60067 0.74779 0.45358 0.0
H1382 H 0.67296 0.76457 0.47926 0.0
H1383 H 0.67155 0.78361 0.52132 0.0
H1384 H 0.5992 0.81755 0.53148 0.0
H1385 H 0.59976 0.84639 0.50156 0.0
H1386 H 0.66802 0.85877 0.48037 0.0
H1387 H 0.66763 0.83011 0.51054 0.0
O1388 O 0.64256 0.84119 0.71376 0.0
O1389 O 0.67942 0.86882 0.70586 0.0
O1390 O 0.60805 0.65801 0.52613 0.0
O1391 O 0.64745 0.67436 0.53748 0.0
C1392 C 0.63811 0.81799 0.57059 0.0
C1393 C 0.64009 0.80524 0.59112 0.0
C1394 C 0.63844 0.7821 0.58555 0.0
C1395 C 0.63485 0.77162 0.55951 0.0
C1396 C 0.6338 0.78475 0.53891 0.0
C1397 C 0.6348 0.80768 0.5444 0.0
C1398 C 0.64256 0.84353 0.57678 0.0
C1399 C 0.62693 0.84784 0.59086 0.0
C1400 C 0.63307 0.8721 0.59974 0.0
C1401 C 0.6547 0.89221 0.59426 0.0
C1402 C 0.66988 0.88794 0.57945 0.0
C1403 C 0.66392 0.86374 0.57088 0.0
C1404 C 0.64529 0.81671 0.61857 0.0
C1405 C 0.62751 0.80698 0.63531 0.0
C1406 C 0.63225 0.81795 0.66104 0.0
C1407 C 0.65489 0.83882 0.67046 0.0
C1408 C 0.67275 0.84835 0.65363 0.0
C1409 C 0.668 0.83734 0.62793 0.0
C1410 C 0.64457 0.77081 0.6066 0.0
C1411 C 0.62664 0.74983 0.61613 0.0
C1412 C 0.63318 0.73676 0.6324 0.0
C1413 C 0.65764 0.74417 0.63837 0.0
C1414 C 0.67547 0.76626 0.63047 0.0
C1415 C 0.66896 0.77962 0.61486 0.0
C1416 C 0.63296 0.74709 0.55365 0.0
C1417 C 0.61055 0.72609 0.54431 0.0
C1418 C 0.60874 0.7031 0.53802 0.0
C1419 C 0.62938 0.70079 0.54085 0.0
C1420 C 0.65185 0.72199 0.55002 0.0
C1421 C 0.65361 0.74492 0.55642 0.0
C1422 C 0.63495 0.77576 0.51213 0.0
C1423 C 0.61509 0.76585 0.49275 0.0
C1424 C 0.6161 0.75545 0.46839 0.0
C1425 C 0.63682 0.75451 0.46346 0.0
C1426 C 0.65674 0.76488 0.48277 0.0
C1427 C 0.65593 0.77572 0.50671 0.0
C1428 C 0.6333 0.82163 0.52309 0.0
C1429 C 0.614 0.82602 0.51994 0.0
C1430 C 0.61431 0.84242 0.50294 0.0
C1431 C 0.6339 0.85459 0.48882 0.0
C1432 C 0.65269 0.84936 0.49101 0.0
C1433 C 0.6524 0.83297 0.50808 0.0
C1434 C 0.65979 0.85057 0.69773 0.0
C1435 C 0.62755 0.67641 0.53433 0.0
H1436 H 0.17039 0.85921 0.7269 0.0
H1437 H 0.02285 0.63281 0.50105 0.0
H1438 H 0.17518 0.85078 0.56467 0.0
H1439 H 0.20845 0.89163 0.5844 0.0
H1440 H 0.23912 0.85628 0.62874 0.0
H1441 H 0.20592 0.81525 0.60867 0.0
H1442 H 0.15032 0.83396 0.61391 0.0
H1443 H 0.15798 0.85046 0.65986 0.0
H1444 H 0.16709 0.78968 0.68033 0.0
H1445 H 0.15979 0.77362 0.63423 0.0
H1446 H 0.10038 0.78789 0.60112 0.0
H1447 H 0.07198 0.77155 0.63333 0.0
H1448 H 0.08596 0.71131 0.63785 0.0
H1449 H 0.11458 0.7278 0.60549 0.0
H1450 H 0.07679 0.75176 0.55196 0.0
H1451 H 0.03987 0.71285 0.53467 0.0
H1452 H 0.08218 0.67785 0.52205 0.0
H1453 H 0.11888 0.71677 0.53964 0.0
H1454 H 0.10521 0.77607 0.50848 0.0
H1455 H 0.09404 0.76365 0.4614 0.0
H1456 H 0.14711 0.74103 0.45971 0.0
H1457 H 0.15845 0.75364 0.50704 0.0
H1458 H 0.15473 0.82228 0.51297 0.0
H1459 H 0.18402 0.84858 0.48496 0.0
H1460 H 0.23443 0.8278 0.51584 0.0
H1461 H 0.20507 0.80143 0.5439 0.0
O1462 O 0.16753 0.85242 0.70883 0.0
O1463 O 0.17138 0.82044 0.71837 0.0
O1464 O 0.01633 0.66755 0.5138 0.0
O1465 O 0.03711 0.64834 0.50827 0.0
C1466 C 0.16646 0.80547 0.57548 0.0
C1467 C 0.14982 0.79258 0.59282 0.0
C1468 C 0.128 0.77042 0.58347 0.0
C1469 C 0.12298 0.76072 0.55698 0.0
C1470 C 0.13937 0.7738 0.53952 0.0
C1471 C 0.16113 0.79604 0.54881 0.0
C1472 C 0.18823 0.83003 0.58504 0.0
C1473 C 0.18935 0.8518 0.57816 0.0
C1474 C 0.20815 0.87504 0.58956 0.0
C1475 C 0.22608 0.87686 0.60806 0.0
C1476 C 0.2254 0.85516 0.61449 0.0
C1477 C 0.20658 0.83186 0.60301 0.0
C1478 C 0.15471 0.80272 0.62075 0.0
C1479 C 0.15418 0.82437 0.62834 0.0
C1480 C 0.15846 0.83368 0.65461 0.0
C1481 C 0.16317 0.8214 0.67378 0.0
C1482 C 0.16356 0.79962 0.66606 0.0
C1483 C 0.15939 0.79039 0.63977 0.0
C1484 C 0.10946 0.75899 0.60113 0.0
C1485 C 0.09714 0.77104 0.60889 0.0
C1486 C 0.08105 0.7618 0.62717 0.0
C1487 C 0.07707 0.74036 0.63783 0.0
C1488 C 0.08892 0.72789 0.62968 0.0
C1489 C 0.10508 0.73718 0.6113 0.0
C1490 C 0.10045 0.73699 0.54727 0.0
C1491 C 0.07799 0.73559 0.54572 0.0
C1492 C 0.05696 0.71339 0.53571 0.0
C1493 C 0.05808 0.69223 0.52697 0.0
C1494 C 0.08066 0.69376 0.52863 0.0
C1495 C 0.10165 0.71595 0.53868 0.0
C1496 C 0.13253 0.76561 0.51114 0.0
C1497 C 0.11437 0.76833 0.498 0.0
C1498 C 0.10809 0.76138 0.47124 0.0
C1499 C 0.11983 0.75153 0.45724 0.0
C1500 C 0.13794 0.74866 0.47031 0.0
C1501 C 0.14435 0.75579 0.49716 0.0
C1502 C 0.17792 0.8101 0.53042 0.0
C1503 C 0.17191 0.82304 0.5133 0.0
C1504 C 0.18849 0.83789 0.49735 0.0
C1505 C 0.21119 0.83991 0.4984 0.0
C1506 C 0.21685 0.82619 0.51475 0.0
C1507 C 0.20028 0.81139 0.53077 0.0
C1508 C 0.16761 0.8313 0.70168 0.0
C1509 C 0.03587 0.66869 0.516 0.0
H1510 H 0.19398 0.34875 0.75545 0.0
H1511 H 0.02121 0.33653 0.50768 0.0
H1512 H 0.22493 0.38855 0.61422 0.0
H1513 H 0.25513 0.38108 0.63717 0.0
H1514 H 0.20428 0.30231 0.62517 0.0
H1515 H 0.17438 0.30973 0.60216 0.0
H1516 H 0.19147 0.38329 0.65435 0.0
H1517 H 0.19753 0.37607 0.69919 0.0
H1518 H 0.14182 0.29895 0.67976 0.0
H1519 H 0.13605 0.30642 0.63492 0.0
H1520 H 0.13925 0.37927 0.64696 0.0
H1521 H 0.10841 0.36766 0.67692 0.0
H1522 H 0.06507 0.29598 0.63114 0.0
H1523 H 0.09579 0.3076 0.60121 0.0
H1524 H 0.12203 0.38843 0.59153 0.0
H1525 H 0.08644 0.38893 0.57245 0.0
H1526 H 0.06332 0.31957 0.52471 0.0
H1527 H 0.09882 0.31919 0.54413 0.0
H1528 H 0.15171 0.39774 0.54297 0.0
H1529 H 0.14059 0.39989 0.49726 0.0
H1530 H 0.13393 0.32885 0.4752 0.0
H1531 H 0.14496 0.32668 0.5207 0.0
H1532 H 0.2016 0.40357 0.55434 0.0
H1533 H 0.22682 0.41183 0.51894 0.0
H1534 H 0.21567 0.3378 0.51585 0.0
H1535 H 0.18954 0.32913 0.55052 0.0
O1536 O 0.19114 0.35122 0.73766 0.0
O1537 O 0.16175 0.31196 0.72695 0.0
O1538 O 0.04824 0.37258 0.54035 0.0
O1539 O 0.03497 0.33638 0.51622 0.0
C1540 C 0.17752 0.35385 0.59763 0.0
C1541 C 0.15985 0.34998 0.61427 0.0
C1542 C 0.13887 0.35029 0.60506 0.0
C1543 C 0.13551 0.35457 0.57925 0.0
C1544 C 0.1535 0.35931 0.56286 0.0
C1545 C 0.17478 0.35951 0.57225 0.0
C1546 C 0.1975 0.34968 0.60654 0.0
C1547 C 0.22062 0.36967 0.61586 0.0
C1548 C 0.23775 0.36542 0.62898 0.0
C1549 C 0.23181 0.34114 0.63297 0.0
C1550 C 0.20919 0.32113 0.62227 0.0
C1551 C 0.19219 0.32537 0.60913 0.0
C1552 C 0.16331 0.34539 0.64146 0.0
C1553 C 0.18062 0.36486 0.65984 0.0
C1554 C 0.18399 0.36069 0.68544 0.0
C1555 C 0.17017 0.33693 0.69306 0.0
C1556 C 0.15278 0.31746 0.67453 0.0
C1557 C 0.14941 0.32168 0.64894 0.0
C1558 C 0.11963 0.34427 0.62196 0.0
C1559 C 0.12297 0.36119 0.64329 0.0
C1560 C 0.1055 0.35459 0.6603 0.0
C1561 C 0.08463 0.33097 0.65616 0.0
C1562 C 0.0811 0.31426 0.63454 0.0
C1563 C 0.0985 0.3209 0.61751 0.0
C1564 C 0.113 0.35383 0.56914 0.0
C1565 C 0.1091 0.37324 0.57717 0.0
C1566 C 0.08883 0.37352 0.56614 0.0
C1567 C 0.07211 0.35435 0.54691 0.0
C1568 C 0.07584 0.33464 0.5394 0.0
C1569 C 0.09609 0.33437 0.55046 0.0
C1570 C 0.14905 0.36201 0.53512 0.0
C1571 C 0.14807 0.38278 0.52821 0.0
C1572 C 0.14177 0.38402 0.50226 0.0
C1573 C 0.13624 0.36441 0.48301 0.0
C1574 C 0.13803 0.34408 0.48984 0.0
C1575 C 0.14438 0.34288 0.5157 0.0
C1576 C 0.19386 0.3658 0.55506 0.0
C1577 C 0.20499 0.38929 0.54638 0.0
C1578 C 0.21921 0.39397 0.52619 0.0
C1579 C 0.22293 0.37537 0.51486 0.0
C1580 C 0.21293 0.35232 0.52448 0.0
C1581 C 0.19831 0.34749 0.54439 0.0
C1582 C 0.17401 0.33252 0.72021 0.0
C1583 C 0.05106 0.35505 0.53442 0.0
C1584 C 0.97119 0.37192 0.06369 0.0
C1585 C 0.97705 0.38517 0.04175 0.0
C1586 C 0.97234 0.41784 0.06483 0.0
C1587 C 0.97025 0.40649 0.0878 0.0
N1588 N 0.96873 0.37341 0.11011 0.0
N1589 N 0.98586 0.42242 0.02236 0.0
C1590 C 0.96978 0.38359 0.08748 0.0
C1591 C 0.97798 0.40842 0.04238 0.0
N1592 N 0.9663 0.34793 0.06151 0.0
N1593 N 0.96906 0.43777 0.06456 0.0
H1594 H 0.99055 0.41674 0.00556 0.0
H1595 H 0.98981 0.44075 0.02328 0.0
H1596 H 0.96542 0.44545 0.08088 0.0
H1597 H 0.96774 0.44524 0.04768 0.0
H1598 H 0.95974 0.33647 0.07602 0.0
H1599 H 0.96661 0.33865 0.04418 0.0
H1600 H 0.97134 0.35845 0.11187 0.0
H1601 H 0.96658 0.38087 0.12764 0.0
C1602 C 0.57937 0.54858 0.11203 0.0
C1603 C 0.60289 0.56546 0.12471 0.0
C1604 C 0.59255 0.54543 0.16426 0.0
C1605 C 0.56936 0.52779 0.15111 0.0
N1606 N 0.54301 0.50856 0.1108 0.0
N1607 N 0.63383 0.57658 0.16047 0.0
C1608 C 0.56358 0.52801 0.12435 0.0
C1609 C 0.61016 0.56263 0.15 0.0
N1610 N 0.57165 0.55291 0.08893 0.0
N1611 N 0.59729 0.54697 0.1906 0.0
H1612 H 0.64716 0.58966 0.15066 0.0
H1613 H 0.6406 0.57356 0.17777 0.0
H1614 H 0.58477 0.53523 0.20206 0.0
H1615 H 0.61296 0.56129 0.20146 0.0
H1616 H 0.55387 0.54265 0.08004 0.0
H1617 H 0.58263 0.56827 0.07991 0.0
H1618 H 0.5389 0.5067 0.09071 0.0
H1619 H 0.53125 0.49305 0.11932 0.0
C1620 C 0.42214 0.0279 0.09542 0.0
C1621 C 0.43438 0.02698 0.07413 0.0
C1622 C 0.46904 0.03472 0.10449 0.0
C1623 C 0.45526 0.03178 0.12543 0.0
N1624 N 0.41742 0.02243 0.14067 0.0
N1625 N 0.46853 0.02675 0.05807 0.0
C1626 C 0.4315 0.02769 0.12091 0.0
C1627 C 0.45772 0.02992 0.07852 0.0
N1628 N 0.4018 0.02952 0.09131 0.0
N1629 N 0.49301 0.04246 0.10949 0.0
H1630 H 0.46084 0.02307 0.03877 0.0
H1631 H 0.48422 0.02581 0.06033 0.0
H1632 H 0.50183 0.04636 0.12833 0.0
H1633 H 0.50459 0.04721 0.09522 0.0
H1634 H 0.39342 0.03268 0.10631 0.0
H1635 H 0.39473 0.03026 0.07291 0.0
H1636 H 0.39908 0.01648 0.13782 0.0
H1637 H 0.42346 0.02196 0.15965 0.0
C1638 C 0.43703 0.97675 0.96639 0.0
C1639 C 0.41428 0.97463 0.96002 0.0
C1640 C 0.42101 0.97797 0.91437 0.0
C1641 C 0.44313 0.97862 0.92033 0.0
N1642 N 0.47035 0.97408 0.95071 0.0
N1643 N 0.38197 0.96697 0.92734 0.0
C1644 C 0.45062 0.97664 0.946 0.0
C1645 C 0.40548 0.97334 0.9338 0.0
N1646 N 0.44602 0.97985 0.99186 0.0
N1647 N 0.41528 0.9828 0.89046 0.0
H1648 H 0.36978 0.96286 0.94097 0.0
H1649 H 0.37388 0.96325 0.90822 0.0
H1650 H 0.42626 0.98649 0.87565 0.0
H1651 H 0.40072 0.98536 0.88607 0.0
H1652 H 0.46363 0.98432 0.99789 0.0
H1653 H 0.43633 0.97964 0.00718 0.0
H1654 H 0.47544 0.97025 0.96847 0.0
H1655 H 0.48057 0.97376 0.93616 0.0
C1656 C 0.03695 0.42125 0.93655 0.0
C1657 C 0.03667 0.42093 0.96387 0.0
C1658 C 0.03455 0.45912 0.96765 0.0
C1659 C 0.03441 0.45912 0.94037 0.0
N1660 N 0.03931 0.44313 0.89911 0.0
N1661 N 0.03929 0.44156 0.00617 0.0
C1662 C 0.03683 0.44107 0.9249 0.0
C1663 C 0.03697 0.44062 0.97969 0.0
N1664 N 0.03704 0.40235 0.9217 0.0
N1665 N 0.03124 0.47621 0.98185 0.0
H1666 H 0.03878 0.42739 0.01588 0.0
H1667 H 0.04275 0.45693 0.01883 0.0
H1668 H 0.03041 0.4906 0.97384 0.0
H1669 H 0.02801 0.4755 0.00118 0.0
H1670 H 0.03377 0.39932 0.90151 0.0
H1671 H 0.03974 0.38899 0.92965 0.0
H1672 H 0.04358 0.43223 0.88713 0.0
H1673 H 0.03854 0.45693 0.88972 0.0
C1674 C 0.57997 0.58269 0.01588 0.0
C1675 C 0.5874 0.60657 0.02871 0.0
C1676 C 0.57482 0.61749 0.98846 0.0
C1677 C 0.56485 0.59259 0.97677 0.0
N1678 N 0.55209 0.55001 0.98227 0.0
N1679 N 0.58908 0.64588 0.0285 0.0
C1680 C 0.56557 0.57471 0.99144 0.0
C1681 C 0.58376 0.62368 0.01545 0.0
N1682 N 0.5874 0.5679 0.02638 0.0
N1683 N 0.57699 0.63547 0.97362 0.0
H1684 H 0.59662 0.65143 0.04794 0.0
H1685 H 0.58445 0.65797 0.02056 0.0
H1686 H 0.57126 0.63185 0.95371 0.0
H1687 H 0.58637 0.65432 0.98057 0.0
H1688 H 0.58401 0.55115 0.01657 0.0
H1689 H 0.59942 0.57371 0.04333 0.0
H1690 H 0.55035 0.53611 0.99335 0.0
H1691 H 0.54055 0.54335 0.96481 0.0
C1692 C 0.04129 0.64092 -0.00033 0.0
C1693 C 0.04617 0.63509 0.0244 0.0
C1694 C 0.05369 0.60359 0.00364 0.0
C1695 C 0.04519 0.60677 0.97913 0.0
N1696 N 0.03227 0.62923 0.9529 0.0
N1697 N 0.06911 0.62055 0.04871 0.0
C1698 C 0.0399 0.62607 0.97681 0.0
C1699 C 0.05611 0.61936 0.02616 0.0
N1700 N 0.03891 0.66131 0.99837 0.0
N1701 N 0.05867 0.58491 0.00549 0.0
H1702 H 0.07442 0.63432 0.06428 0.0
H1703 H 0.07795 0.61057 0.05062 0.0
H1704 H 0.05829 0.57383 0.98927 0.0
H1705 H 0.06173 0.57938 0.0231 0.0
H1706 H 0.03696 0.66798 0.98115 0.0
H1707 H 0.04138 0.67312 0.01501 0.0
H1708 H 0.02542 0.64089 0.94995 0.0
H1709 H 0.03181 0.61924 0.93574 0.0
C1710 C 0.42001 0.46324 0.96513 0.0
C1711 C 0.40136 0.44129 0.94992 0.0
C1712 C 0.4189 0.45655 0.91032 0.0
C1713 C 0.43668 0.47913 0.92519 0.0
N1714 N 0.45211 0.50603 0.96582 0.0
N1715 N 0.37935 0.4201 0.90775 0.0
C1716 C 0.43656 0.48315 0.95236 0.0
C1717 C 0.39969 0.43888 0.92241 0.0
N1718 N 0.42268 0.46457 0.99163 0.0
N1719 N 0.4209 0.45142 0.88489 0.0
H1720 H 0.36442 0.4072 0.91588 0.0
H1721 H 0.37625 0.41893 0.8876 0.0
H1722 H 0.43461 0.46387 0.87502 0.0
H1723 H 0.41022 0.43389 0.87434 0.0
H1724 H 0.43749 0.47894 0.00359 0.0
H1725 H 0.41105 0.45032 0.00167 0.0
H1726 H 0.45131 0.51088 0.98516 0.0
H1727 H 0.46463 0.52084 0.95699 0.0
C1728 C 0.56106 0.00802 0.00099 0.0
C1729 C 0.5725 0.9946 0.00813 0.0
C1730 C 0.56494 0.97569 0.96297 0.0
C1731 C 0.55251 0.98825 0.95616 0.0
N1732 N 0.53382 0.01162 0.96935 0.0
N1733 N 0.58176 0.96247 0.99737 0.0
C1734 C 0.54898 0.0029 0.97544 0.0
C1735 C 0.57315 0.97727 0.98957 0.0
N1736 N 0.56253 0.02637 0.01827 0.0
N1737 N 0.56999 0.96337 0.94392 0.0
H1738 H 0.58853 0.96366 0.01659 0.0
H1739 H 0.58046 0.94774 0.9853 0.0
H1740 H 0.56424 0.96175 0.92423 0.0
H1741 H 0.58137 0.9563 0.94736 0.0
H1742 H 0.55688 0.03862 0.01325 0.0
H1743 H 0.57124 0.03076 0.03718 0.0
H1744 H 0.52848 0.02015 0.98318 0.0
H1745 H 0.52474 0.00827 0.95074 0.0
C1746 C 0.56886 0.03268 0.11611 0.0
C1747 C 0.59431 0.04824 0.12009 0.0
C1748 C 0.59288 0.05947 0.16577 0.0
C1749 C 0.5674 0.04423 0.16163 0.0
N1750 N 0.53063 0.02127 0.13193 0.0
N1751 N 0.63022 0.08054 0.14671 0.0
C1752 C 0.55521 0.0324 0.13644 0.0
C1753 C 0.60618 0.06316 0.14424 0.0
N1754 N 0.55784 0.01761 0.09318 0.0
N1755 N 0.60447 0.0692 0.19046 0.0
H1756 H 0.64075 0.08328 0.13161 0.0
H1757 H 0.63929 0.09371 0.16298 0.0
H1758 H 0.59538 0.06679 0.20678 0.0
H1759 H 0.62311 0.07802 0.19511 0.0
H1760 H 0.53977 0.00361 0.09016 0.0
H1761 H 0.56727 0.01824 0.07756 0.0
H1762 H 0.5209 0.01445 0.11346 0.0
H1763 H 0.52006 0.02083 0.1464 0.0
C1764 C 0.99743 0.58114 0.10533 0.0
C1765 C 0.97654 0.58186 0.09661 0.0
C1766 C 0.95223 0.54205 0.11329 0.0
C1767 C 0.97358 0.54439 0.12633 0.0
N1768 N 0.01647 0.57121 0.1401 0.0
N1769 N 0.93343 0.56412 0.09627 0.0
C1770 C 0.99621 0.56549 0.12404 0.0
C1771 C 0.95365 0.56257 0.10159 0.0
N1772 N 0.01802 0.59394 0.09428 0.0
N1773 N 0.93084 0.52014 0.11119 0.0
H1774 H 0.93368 0.5791 0.0885 0.0
H1775 H 0.91683 0.55162 0.10193 0.0
H1776 H 0.92929 0.50435 0.11837 0.0
H1777 H 0.9153 0.51694 0.0999 0.0
H1778 H 0.03344 0.59286 0.09903 0.0
H1779 H 0.01785 0.60205 0.07758 0.0
H1780 H 0.03292 0.58748 0.13977 0.0
H1781 H 0.01617 0.56143 0.15562 0.0
C1782 C 0.44343 0.42526 0.05038 0.0
C1783 C 0.42213 0.40175 0.04304 0.0
C1784 C 0.42115 0.39337 0.08848 0.0
C1785 C 0.44288 0.41641 0.09557 0.0
N1786 N 0.47745 0.45194 0.08314 0.0
N1787 N 0.39386 0.36122 0.05385 0.0
C1788 C 0.45494 0.43156 0.07641 0.0
C1789 C 0.41193 0.38513 0.06176 0.0
N1790 N 0.45187 0.44221 0.03301 0.0
N1791 N 0.40888 0.37978 0.10735 0.0
H1792 H 0.387 0.35444 0.03438 0.0
H1793 H 0.38726 0.34749 0.06618 0.0
H1794 H 0.41539 0.38485 0.1271 0.0
H1795 H 0.39151 0.3644 0.10365 0.0
H1796 H 0.46551 0.46062 0.03813 0.0
H1797 H 0.44401 0.43858 0.0138 0.0
H1798 H 0.48829 0.46228 0.06964 0.0
H1799 H 0.48619 0.45728 0.10214 0.0
C1800 C 0.66246 0.74755 0.40233 0.0
C1801 C 0.64642 0.7222 0.3926 0.0
C1802 C 0.62404 0.71738 0.43008 0.0
C1803 C 0.63844 0.74337 0.43798 0.0
N1804 N 0.66734 0.78395 0.42783 0.0
N1805 N 0.61005 0.68348 0.39531 0.0
C1806 C 0.65643 0.75868 0.4229 0.0
C1807 C 0.62649 0.70729 0.40581 0.0
N1808 N 0.68383 0.76094 0.39254 0.0
N1809 N 0.60898 0.70218 0.44629 0.0
H1810 H 0.61198 0.67511 0.37829 0.0
H1811 H 0.59378 0.67265 0.40255 0.0
H1812 H 0.60701 0.70876 0.46442 0.0
H1813 H 0.6 0.68288 0.44278 0.0
H1814 H 0.69707 0.77879 0.40072 0.0
H1815 H 0.68958 0.75342 0.37814 0.0
H1816 H 0.67886 0.79594 0.41577 0.0
H1817 H 0.66287 0.7928 0.44232 0.0
C1818 C 0.26696 0.89884 0.48665 0.0
C1819 C 0.26413 0.89654 0.45912 0.0
C1820 C 0.22902 0.85479 0.45741 0.0
C1821 C 0.23 0.85875 0.48479 0.0
N1822 N 0.24739 0.88626 0.52518 0.0
N1823 N 0.24143 0.87345 0.41784 0.0
C1824 C 0.24834 0.8812 0.49939 0.0
C1825 C 0.24501 0.8747 0.44427 0.0
N1826 N 0.2878 0.91753 0.50065 0.0
N1827 N 0.21299 0.83197 0.44411 0.0
H1828 H 0.25279 0.88765 0.40756 0.0
H1829 H 0.22625 0.85919 0.40624 0.0
H1830 H 0.20096 0.81711 0.45325 0.0
H1831 H 0.21291 0.82718 0.42449 0.0
H1832 H 0.29175 0.91859 0.52066 0.0
H1833 H 0.30228 0.93045 0.49196 0.0
H1834 H 0.25866 0.90366 0.53581 0.0
H1835 H 0.23396 0.87395 0.53545 0.0
C1836 C 0.13186 0.35875 0.40964 0.0
C1837 C 0.10849 0.35522 0.40279 0.0
C1838 C 0.10396 0.35982 0.44899 0.0
C1839 C 0.12765 0.36433 0.45569 0.0
N1840 N 0.16656 0.37584 0.44259 0.0
N1841 N 0.07607 0.36068 0.41596 0.0
C1842 C 0.14241 0.36637 0.43603 0.0
C1843 C 0.09571 0.35836 0.4225 0.0
N1844 N 0.14343 0.35332 0.39153 0.0
N1845 N 0.08893 0.35582 0.46764 0.0
H1846 H 0.0702 0.36098 0.39682 0.0
H1847 H 0.06738 0.36515 0.42968 0.0
H1848 H 0.09419 0.35665 0.48731 0.0
H1849 H 0.07064 0.34969 0.46329 0.0
H1850 H 0.15928 0.35306 0.39632 0.0
H1851 H 0.13621 0.34678 0.37214 0.0
H1852 H 0.17863 0.3799 0.42887 0.0
H1853 H 0.1748 0.38207 0.46177 0.0
C1854 C 0.10414 0.2953 0.29975 0.0
C1855 C 0.07865 0.28298 0.29726 0.0
C1856 C 0.07593 0.26739 0.25186 0.0
C1857 C 0.10146 0.281 0.25389 0.0
N1858 N 0.13988 0.30174 0.28075 0.0
N1859 N 0.04019 0.25186 0.27406 0.0
C1860 C 0.1156 0.29289 0.27828 0.0
C1861 C 0.06452 0.26698 0.27436 0.0
N1862 N 0.11725 0.30999 0.32235 0.0
N1863 N 0.06266 0.25608 0.22814 0.0
H1864 H 0.03131 0.25141 0.29017 0.0
H1865 H 0.02912 0.23821 0.25877 0.0
H1866 H 0.07046 0.25549 0.2114 0.0
H1867 H 0.04405 0.24842 0.22465 0.0
H1868 H 0.13587 0.32191 0.32459 0.0
H1869 H 0.10913 0.31072 0.3388 0.0
H1870 H 0.15104 0.3089 0.29839 0.0
H1871 H 0.14855 0.29989 0.26529 0.0
C1872 C 0.68603 0.77103 0.3077 0.0
C1873 C 0.6945 0.75526 0.29851 0.0
C1874 C 0.70428 0.77582 0.25903 0.0
C1875 C 0.69738 0.79266 0.2692 0.0
N1876 N 0.68594 0.80946 0.305 0.0
N1877 N 0.71503 0.74476 0.26743 0.0
C1878 C 0.68957 0.79124 0.29413 0.0
C1879 C 0.7047 0.75835 0.27478 0.0
N1880 N 0.67371 0.7661 0.32881 0.0
N1881 N 0.70949 0.77588 0.23398 0.0
H1882 H 0.71517 0.73137 0.27815 0.0
H1883 H 0.72505 0.74802 0.25183 0.0
H1884 H 0.70971 0.78861 0.22197 0.0
H1885 H 0.71181 0.76219 0.22438 0.0
H1886 H 0.66479 0.77521 0.33491 0.0
H1887 H 0.67064 0.75129 0.33888 0.0
H1888 H 0.68271 0.81089 0.32422 0.0
H1889 H 0.68824 0.82448 0.29551 0.0
C1890 C 0.25333 0.95588 0.34887 0.0
C1891 C 0.24318 0.93807 0.36648 0.0
C1892 C 0.21221 0.90859 0.33142 0.0
C1893 C 0.22455 0.92504 0.31332 0.0
N1894 N 0.25762 0.96373 0.30399 0.0
N1895 N 0.2141 0.89655 0.37439 0.0
C1896 C 0.24524 0.94863 0.32183 0.0
C1897 C 0.22268 0.91426 0.35784 0.0
N1898 N 0.27026 0.97991 0.35817 0.0
N1899 N 0.19043 0.88757 0.32331 0.0
H1900 H 0.22106 0.89986 0.3939 0.0
H1901 H 0.20119 0.87801 0.3684 0.0
H1902 H 0.18248 0.88267 0.304 0.0
H1903 H 0.17927 0.87613 0.33597 0.0
H1904 H 0.27673 0.99435 0.3467 0.0
H1905 H 0.27616 0.9859 0.37795 0.0
H1906 H 0.27443 0.97979 0.3087 0.0
H1907 H 0.2518 0.9594 0.28406 0.0
C1908 C 0.69347 0.92329 0.35772 0.0
C1909 C 0.69317 0.94591 0.35883 0.0
C1910 C 0.69871 0.94774 0.31266 0.0
C1911 C 0.70036 0.92594 0.312 0.0
N1912 N 0.70474 0.89615 0.33503 0.0
N1913 N 0.70121 0.98259 0.33919 0.0
C1914 C 0.69948 0.91475 0.33494 0.0
C1915 C 0.6975 0.95902 0.33682 0.0
N1916 N 0.68669 0.90918 0.37776 0.0
N1917 N 0.69728 0.95712 0.29008 0.0
H1918 H 0.70102 0.99167 0.35673 0.0
H1919 H 0.70683 0.99401 0.32452 0.0
H1920 H 0.69823 0.94954 0.27201 0.0
H1921 H 0.69323 0.9712 0.28897 0.0
H1922 H 0.68377 0.89121 0.37663 0.0
H1923 H 0.68185 0.91438 0.39476 0.0
H1924 H 0.7069 0.88901 0.35186 0.0
H1925 H 0.70923 0.88944 0.31865 0.0
C1926 C 0.08728 0.7948 0.29961 0.0
C1927 C 0.06844 0.77296 0.2845 0.0
C1928 C 0.08279 0.79005 0.24435 0.0
C1929 C 0.10138 0.81214 0.25931 0.0
N1930 N 0.11887 0.83789 0.30051 0.0
N1931 N 0.04399 0.75274 0.24324 0.0
C1932 C 0.10277 0.8153 0.2868 0.0
C1933 C 0.06484 0.77157 0.25708 0.0
N1934 N 0.09111 0.79545 0.32593 0.0
N1935 N 0.08301 0.78599 0.21818 0.0
H1936 H 0.03016 0.73909 0.25205 0.0
H1937 H 0.03935 0.75214 0.22347 0.0
H1938 H 0.09575 0.799 0.20782 0.0
H1939 H 0.07176 0.76884 0.2071 0.0
H1940 H 0.10615 0.80971 0.3377 0.0
H1941 H 0.07994 0.78088 0.33592 0.0
H1942 H 0.11939 0.84213 0.32036 0.0
H1943 H 0.1305 0.85312 0.29154 0.0
C1944 C 0.21924 0.30049 0.32952 0.0
C1945 C 0.23614 0.32505 0.34135 0.0
C1946 C 0.23479 0.34043 0.29969 0.0
C1947 C 0.21553 0.31661 0.28892 0.0
N1948 N 0.18534 0.27538 0.29635 0.0
N1949 N 0.25329 0.3691 0.33894 0.0
C1950 C 0.20645 0.29702 0.30467 0.0
C1951 C 0.24193 0.34528 0.32683 0.0
N1952 N 0.21626 0.28039 0.34105 0.0
N1953 N 0.24701 0.35822 0.28407 0.0
H1954 H 0.2569 0.37347 0.35911 0.0
H1955 H 0.25618 0.38411 0.32912 0.0
H1956 H 0.24343 0.35504 0.26384 0.0
H1957 H 0.2625 0.37511 0.29114 0.0
H1958 H 0.20566 0.26223 0.33187 0.0
H1959 H 0.22643 0.28182 0.35828 0.0
H1960 H 0.17697 0.26146 0.30821 0.0
H1961 H 0.17495 0.27251 0.27873 0.0
C1962 C 0.27448 0.39891 0.47332 0.0
C1963 C 0.26218 0.38353 0.44959 0.0
C1964 C 0.22353 0.36714 0.46709 0.0
C1965 C 0.23633 0.3796 0.49198 0.0
N1966 N 0.27387 0.40624 0.5196 0.0
N1967 N 0.22548 0.35522 0.42207 0.0
C1968 C 0.26175 0.39559 0.49526 0.0
C1969 C 0.23674 0.36845 0.44589 0.0
N1970 N 0.29841 0.41643 0.47488 0.0
N1971 N 0.19884 0.35419 0.46389 0.0
H1972 H 0.23478 0.35784 0.40588 0.0
H1973 H 0.2073 0.3417 0.41821 0.0
H1974 H 0.18868 0.3532 0.47898 0.0
H1975 H 0.18819 0.34556 0.44616 0.0
H1976 H 0.30796 0.42985 0.49084 0.0
H1977 H 0.30826 0.41907 0.45917 0.0
H1978 H 0.29259 0.41574 0.52373 0.0
H1979 H 0.26524 0.40406 0.53625 0.0
C1980 C 0.64129 0.91622 0.4737 0.0
C1981 C 0.63837 0.91293 0.44608 0.0
C1982 C 0.6305 0.87032 0.44637 0.0
C1983 C 0.63584 0.87467 0.47384 0.0
N1984 N 0.65109 0.90336 0.51332 0.0
N1985 N 0.6343 0.8883 0.406 0.0
C1986 C 0.64268 0.89812 0.4874 0.0
C1987 C 0.63399 0.89032 0.43231 0.0
N1988 N 0.64146 0.93599 0.48694 0.0
N1989 N 0.62167 0.84697 0.43379 0.0
H1990 H 0.63749 0.9027 0.39503 0.0
H1991 H 0.63376 0.87327 0.39534 0.0
H1992 H 0.61934 0.83204 0.44346 0.0
H1993 H 0.61492 0.84198 0.41414 0.0
H1994 H 0.64105 0.93787 0.50695 0.0
H1995 H 0.63937 0.94916 0.47774 0.0
H1996 H 0.65909 0.92114 0.52342 0.0
H1997 H 0.65219 0.89053 0.52421 0.0
C1998 C 0.08495 0.71345 0.39244 0.0
C1999 C 0.09423 0.73211 0.37557 0.0
C2000 C 0.12413 0.76162 0.41144 0.0
C2001 C 0.11263 0.74398 0.42884 0.0
N2002 N 0.08139 0.7036 0.43679 0.0
N2003 N 0.12128 0.77475 0.36926 0.0
C2004 C 0.09293 0.71995 0.41956 0.0
C2005 C 0.11371 0.75634 0.38502 0.0
N2006 N 0.06898 0.68936 0.38235 0.0
N2007 N 0.145 0.78341 0.42023 0.0
H2008 H 0.11427 0.77179 0.3498 0.0
H2009 H 0.13329 0.7934 0.37587 0.0
H2010 H 0.15273 0.78814 0.43962 0.0
H2011 H 0.15572 0.7959 0.40806 0.0
H2012 H 0.06336 0.67445 0.39313 0.0
H2013 H 0.06299 0.68394 0.36254 0.0
H2014 H 0.06509 0.687 0.4317 0.0
H2015 H 0.08736 0.70729 0.45667 0.0
C2016 C 0.28595 0.03802 0.73843 0.0
C2017 C 0.30728 0.05212 0.72683 0.0
C2018 C 0.31832 0.08842 0.75796 0.0
C2019 C 0.2988 0.07363 0.77164 0.0
N2020 N 0.266 0.03314 0.77726 0.0
N2021 N 0.34671 0.08917 0.72977 0.0
C2022 C 0.28299 0.04807 0.76247 0.0
C2023 C 0.32438 0.07684 0.73785 0.0
N2024 N 0.26866 0.015 0.72665 0.0
N2025 N 0.33076 0.11369 0.76378 0.0
H2026 H 0.35247 0.0813 0.71575 0.0
H2027 H 0.36049 0.10632 0.73904 0.0
H2028 H 0.32635 0.12293 0.77792 0.0
H2029 H 0.34363 0.12553 0.75269 0.0
H2030 H 0.25162 0.005 0.73263 0.0
H2031 H 0.27084 0.00654 0.70986 0.0
H2032 H 0.25573 0.0139 0.77292 0.0
H2033 H 0.26348 0.03972 0.79508 0.0
C2034 C 0.93783 0.22169 0.80571 0.0
C2035 C 0.92813 0.22706 0.78338 0.0
C2036 C 0.88785 0.19265 0.78756 0.0
C2037 C 0.89691 0.19011 0.81206 0.0
N2038 N 0.93002 0.20297 0.84577 0.0
N2039 N 0.89386 0.21888 0.75359 0.0
C2040 C 0.92185 0.20455 0.82137 0.0
C2041 C 0.90313 0.21271 0.77428 0.0
N2042 N 0.96228 0.23324 0.81216 0.0
N2043 N 0.86466 0.17582 0.77708 0.0
H2044 H 0.90472 0.23309 0.74315 0.0
H2045 H 0.87546 0.21105 0.74785 0.0
H2046 H 0.85305 0.16093 0.78648 0.0
H2047 H 0.85763 0.17524 0.7582 0.0
H2048 H 0.97046 0.22828 0.82666 0.0
H2049 H 0.97455 0.24645 0.80158 0.0
H2050 H 0.94739 0.21524 0.85497 0.0
H2051 H 0.91893 0.19038 0.8577 0.0
C2052 C 0.7957 0.70002 0.74524 0.0
C2053 C 0.77148 0.69457 0.74023 0.0
C2054 C 0.76893 0.69781 0.78706 0.0
C2055 C 0.79345 0.70434 0.79204 0.0
N2056 N 0.83185 0.71821 0.77634 0.0
N2057 N 0.73756 0.69527 0.75623 0.0
C2058 C 0.80739 0.70758 0.77122 0.0
C2059 C 0.75887 0.69565 0.76113 0.0
N2060 N 0.8071 0.6966 0.72554 0.0
N2061 N 0.75492 0.6926 0.80686 0.0
H2062 H 0.73 0.69451 0.7375 0.0
H2063 H 0.72874 0.69836 0.7708 0.0
H2064 H 0.76154 0.69402 0.82619 0.0
H2065 H 0.73628 0.68496 0.80385 0.0
H2066 H 0.82377 0.69769 0.72866 0.0
H2067 H 0.79905 0.69049 0.70631 0.0
H2068 H 0.84327 0.72311 0.7619 0.0
H2069 H 0.84091 0.72439 0.7952 0.0
C2070 C 0.76957 0.63473 0.63138 0.0
C2071 C 0.74699 0.63333 0.62674 0.0
C2072 C 0.74956 0.6325 0.57995 0.0
C2073 C 0.77175 0.63302 0.58439 0.0
N2074 N 0.80038 0.62908 0.61311 0.0
N2075 N 0.71247 0.62413 0.59659 0.0
C2076 C 0.781 0.6324 0.60979 0.0
C2077 C 0.73605 0.63011 0.60098 0.0
N2078 N 0.7805 0.63929 0.65628 0.0
N2079 N 0.74185 0.63532 0.55591 0.0
H2080 H 0.70176 0.6217 0.6115 0.0
H2081 H 0.70281 0.6191 0.5781 0.0
H2082 H 0.75113 0.63699 0.53985 0.0
H2083 H 0.72728 0.63804 0.55233 0.0
H2084 H 0.79818 0.6433 0.66082 0.0
H2085 H 0.77237 0.64071 0.67246 0.0
H2086 H 0.80663 0.62618 0.6308 0.0
H2087 H 0.80896 0.6271 0.59761 0.0
C2088 C 0.3721 0.09208 0.61459 0.0
C2089 C 0.36067 0.08806 0.63754 0.0
C2090 C 0.35767 0.12532 0.63457 0.0
C2091 C 0.3661 0.1274 0.60993 0.0
N2092 N 0.379 0.11132 0.57481 0.0
N2093 N 0.3396 0.09876 0.6676 0.0
C2094 C 0.37291 0.11052 0.59954 0.0
C2095 C 0.35274 0.10419 0.64714 0.0
N2096 N 0.38228 0.07835 0.60725 0.0
N2097 N 0.35474 0.14379 0.64612 0.0
H2098 H 0.33553 0.08328 0.67692 0.0
H2099 H 0.33104 0.10822 0.6738 0.0
H2100 H 0.35839 0.15963 0.63747 0.0
H2101 H 0.35095 0.14457 0.66519 0.0
H2102 H 0.3931 0.08216 0.59232 0.0
H2103 H 0.38153 0.06429 0.61745 0.0
H2104 H 0.38145 0.09779 0.56506 0.0
H2105 H 0.37982 0.1245 0.56313 0.0
C2106 C 0.90964 0.28874 0.67543 0.0
C2107 C 0.91209 0.27096 0.6887 0.0
C2108 C 0.89151 0.24007 0.65031 0.0
C2109 C 0.89199 0.25864 0.63591 0.0
N2110 N 0.90446 0.30169 0.63372 0.0
N2111 N 0.9099 0.23122 0.68696 0.0
C2112 C 0.9017 0.28329 0.64821 0.0
C2113 C 0.90432 0.24704 0.67564 0.0
N2114 N 0.91497 0.31083 0.6888 0.0
N2115 N 0.87831 0.21564 0.63999 0.0
H2116 H 0.92009 0.23591 0.70509 0.0
H2117 H 0.90666 0.21453 0.67719 0.0
H2118 H 0.86812 0.20974 0.62169 0.0
H2119 H 0.87542 0.20112 0.65063 0.0
H2120 H 0.91119 0.32347 0.68082 0.0
H2121 H 0.92158 0.3157 0.70853 0.0
H2122 H 0.91379 0.32044 0.64109 0.0
H2123 H 0.89911 0.29848 0.61374 0.0
C2124 C 0.37267 0.30312 0.66723 0.0
C2125 C 0.37865 0.29742 0.6916 0.0
C2126 C 0.38933 0.26897 0.66944 0.0
C2127 C 0.37994 0.27186 0.6453 0.0
N2128 N 0.36352 0.29219 0.62036 0.0
N2129 N 0.405 0.28594 0.71441 0.0
C2130 C 0.37224 0.28945 0.64389 0.0
C2131 C 0.39071 0.28362 0.69243 0.0
N2132 N 0.36878 0.32262 0.66662 0.0
N2133 N 0.39619 0.2516 0.67054 0.0
H2134 H 0.40987 0.29953 0.73007 0.0
H2135 H 0.41534 0.27746 0.71554 0.0
H2136 H 0.39632 0.2412 0.65401 0.0
H2137 H 0.40015 0.24628 0.68789 0.0
H2138 H 0.36601 0.32919 0.64965 0.0
H2139 H 0.37107 0.33409 0.68348 0.0
H2140 H 0.35496 0.30241 0.61813 0.0
H2141 H 0.36373 0.28312 0.60286 0.0
C2142 C 0.73631 0.10109 0.5835 0.0
C2143 C 0.73871 0.104 0.61107 0.0
C2144 C 0.77386 0.14571 0.61241 0.0
C2145 C 0.77286 0.14155 0.58505 0.0
N2146 N 0.75616 0.11347 0.54504 0.0
N2147 N 0.76153 0.12741 0.65218 0.0
C2148 C 0.75494 0.11872 0.57071 0.0
C2149 C 0.7579 0.12593 0.62572 0.0
N2150 N 0.71574 0.08201 0.56946 0.0
N2151 N 0.78974 0.16866 0.62554 0.0
H2152 H 0.75032 0.11322 0.66257 0.0
H2153 H 0.77673 0.14177 0.66368 0.0
H2154 H 0.80185 0.18344 0.61637 0.0
H2155 H 0.78965 0.1736 0.64508 0.0
H2156 H 0.71202 0.08056 0.54936 0.0
H2157 H 0.70121 0.06905 0.57804 0.0
H2158 H 0.74522 0.09593 0.53456 0.0
H2159 H 0.76955 0.12585 0.53479 0.0
C2160 C 0.88685 0.66967 0.66248 0.0
C2161 C 0.90087 0.65916 0.67069 0.0
C2162 C 0.89658 0.64083 0.62592 0.0
C2163 C 0.88142 0.65017 0.61806 0.0
N2164 N 0.85846 0.66953 0.62916 0.0
N2165 N 0.91619 0.6317 0.66155 0.0
C2166 C 0.87536 0.66331 0.63649 0.0
C2167 C 0.9048 0.64374 0.65278 0.0
N2168 N 0.88555 0.68676 0.6791 0.0
N2169 N 0.90401 0.63021 0.60761 0.0
H2170 H 0.92289 0.63387 0.68102 0.0
H2171 H 0.91737 0.61816 0.65001 0.0
H2172 H 0.89821 0.62755 0.58777 0.0
H2173 H 0.91725 0.62564 0.61177 0.0
H2174 H 0.87781 0.6971 0.67347 0.0
H2175 H 0.89415 0.69226 0.69809 0.0
H2176 H 0.85122 0.67657 0.64227 0.0
H2177 H 0.85009 0.6657 0.61011 0.0
C2178 C 0.90307 0.70716 0.77901 0.0
C2179 C 0.92856 0.72173 0.78076 0.0
C2180 C 0.9308 0.73805 0.82577 0.0
C2181 C 0.9054 0.72275 0.82426 0.0
N2182 N 0.86671 0.69774 0.79828 0.0
N2183 N 0.96607 0.75592 0.80289 0.0
C2184 C 0.89131 0.709 0.80038 0.0
C2185 C 0.94218 0.73901 0.80311 0.0
N2186 N 0.89029 0.69094 0.75718 0.0
N2187 N 0.94416 0.75035 0.84921 0.0
H2188 H 0.9752 0.75686 0.7869 0.0
H2189 H 0.97634 0.77052 0.81763 0.0
H2190 H 0.93646 0.75017 0.86622 0.0
H2191 H 0.96291 0.75933 0.8523 0.0
H2192 H 0.87209 0.67747 0.75562 0.0
H2193 H 0.89845 0.69038 0.74079 0.0
H2194 H 0.85539 0.68908 0.78089 0.0
H2195 H 0.85759 0.69881 0.81365 0.0
C2196 C 0.28566 0.22449 0.77171 0.0
C2197 C 0.30904 0.24308 0.76704 0.0
C2198 C 0.32699 0.22615 0.79619 0.0
C2199 C 0.30377 0.20601 0.79878 0.0
N2200 N 0.26143 0.18246 0.78184 0.0
N2201 N 0.35038 0.25374 0.76636 0.0
C2202 C 0.28318 0.20401 0.78426 0.0
C2203 C 0.32928 0.24156 0.77672 0.0
N2204 N 0.26597 0.22679 0.76563 0.0
N2205 N 0.34676 0.23156 0.81294 0.0
H2206 H 0.35137 0.26247 0.74982 0.0
H2207 H 0.36528 0.25195 0.77176 0.0
H2208 H 0.34578 0.22226 0.82905 0.0
H2209 H 0.36361 0.24728 0.81248 0.0
H2210 H 0.24909 0.21478 0.77108 0.0
H2211 H 0.26685 0.24193 0.75763 0.0
H2212 H 0.24643 0.1795 0.76965 0.0
H2213 H 0.25919 0.16665 0.78961 0.0
C2214 C 0.77796 0.08596 0.71547 0.0
C2215 C 0.75486 0.06435 0.70828 0.0
C2216 C 0.7516 0.05766 0.75411 0.0
C2217 C 0.77537 0.07815 0.76101 0.0
N2218 N 0.81314 0.10848 0.74785 0.0
N2219 N 0.72232 0.02642 0.72004 0.0
C2220 C 0.78919 0.09123 0.74151 0.0
C2221 C 0.74246 0.04922 0.72741 0.0
N2222 N 0.7886 0.10227 0.69793 0.0
N2223 N 0.73732 0.04693 0.77301 0.0
H2224 H 0.71542 0.01926 0.70064 0.0
H2225 H 0.71391 0.0136 0.73297 0.0
H2226 H 0.74319 0.05264 0.79283 0.0
H2227 H 0.71898 0.03382 0.76901 0.0
H2228 H 0.80408 0.11964 0.70299 0.0
H2229 H 0.78087 0.0996 0.67882 0.0
H2230 H 0.82471 0.11684 0.73406 0.0
H2231 H 0.82197 0.11271 0.76673 0.0
C2232 C 0.079 0.33018 0.04318 0.0
C2233 C 0.0564 0.32725 0.04806 0.0
C2234 C 0.06172 0.31626 0.09156 0.0
C2235 C 0.08322 0.31704 0.08562 0.0
N2236 N 0.11049 0.32091 0.05443 0.0
N2237 N 0.02459 0.31467 0.07541 0.0
C2238 C 0.09128 0.32283 0.06099 0.0
C2239 C 0.04732 0.31961 0.07193 0.0
N2240 N 0.08937 0.34118 0.02213 0.0
N2241 N 0.05538 0.31278 0.11611 0.0
H2242 H 0.01362 0.317 0.06151 0.0
H2243 H 0.01588 0.30656 0.09115 0.0
H2244 H 0.06517 0.30957 0.13062 0.0
H2245 H 0.04144 0.31471 0.12262 0.0
H2246 H 0.10698 0.34633 0.0191 0.0
H2247 H 0.08133 0.34748 0.00894 0.0
H2248 H 0.11543 0.32199 0.03572 0.0
H2249 H 0.12034 0.31614 0.06713 0.0
C2250 C 0.65168 0.71664 0.10493 0.0
C2251 C 0.64821 0.70025 0.12377 0.0
C2252 C 0.66061 0.73402 0.15896 0.0
C2253 C 0.66518 0.75066 0.14017 0.0
N2254 N 0.66908 0.75931 0.09577 0.0
N2255 N 0.65406 0.69397 0.16839 0.0
C2256 C 0.66194 0.74241 0.11325 0.0
C2257 C 0.65404 0.70913 0.15072 0.0
N2258 N 0.64435 0.7074 0.07921 0.0
N2259 N 0.66173 0.74179 0.18458 0.0
H2260 H 0.64945 0.67561 0.16312 0.0
H2261 H 0.66069 0.70016 0.18797 0.0
H2262 H 0.66679 0.75999 0.19147 0.0
H2263 H 0.65593 0.72984 0.19877 0.0
H2264 H 0.64387 0.71787 0.06475 0.0
H2265 H 0.63706 0.68866 0.07244 0.0
H2266 H 0.66949 0.75489 0.07619 0.0
H2267 H 0.67648 0.7783 0.10123 0.0
C2268 C 0.28533 0.93058 0.04273 0.0
C2269 C 0.30708 0.93016 0.04789 0.0
C2270 C 0.29705 0.91895 0.09135 0.0
C2271 C 0.27432 0.91696 0.08511 0.0
N2272 N 0.24453 0.91515 0.05272 0.0
N2273 N 0.33126 0.91894 0.07495 0.0
C2274 C 0.26773 0.92096 0.0601 0.0
C2275 C 0.31225 0.92286 0.07159 0.0
N2276 N 0.28205 0.94159 0.02228 0.0
N2277 N 0.30453 0.91805 0.11633 0.0
H2278 H 0.34241 0.92097 0.0606 0.0
H2279 H 0.33446 0.91129 0.09083 0.0
H2280 H 0.29404 0.91556 0.13146 0.0
H2281 H 0.32196 0.92203 0.12251 0.0
H2282 H 0.26758 0.94459 0.01942 0.0
H2283 H 0.29495 0.9502 0.00977 0.0
H2284 H 0.23823 0.91535 0.03375 0.0
H2285 H 0.23099 0.90779 0.06482 0.0
C2286 C 0.3313 0.02609 0.98098 0.0
C2287 C 0.35041 0.03737 0.00176 0.0
C2288 C 0.34285 0.07178 0.00933 0.0
C2289 C 0.32717 0.06292 0.98561 0.0
N2290 N 0.30773 0.03239 0.94745 0.0
N2291 N 0.37427 0.07029 0.03655 0.0
C2292 C 0.32126 0.03998 0.97133 0.0
C2293 C 0.35598 0.05993 0.01642 0.0
N2294 N 0.32313 0.00234 0.96996 0.0
N2295 N 0.34509 0.09152 0.0249 0.0
H2296 H 0.38327 0.0613 0.04292 0.0
H2297 H 0.38115 0.08806 0.04622 0.0
H2298 H 0.33541 0.10025 0.0201 0.0
H2299 H 0.35475 0.09783 0.04342 0.0
H2300 H 0.30744 0.99225 0.95689 0.0
H2301 H 0.33063 0.99176 0.97548 0.0
H2302 H 0.30578 0.01776 0.93464 0.0
H2303 H 0.29983 0.04172 0.93933 0.0
C2304 C 0.95383 0.27352 0.93856 0.0
C2305 C 0.9556 0.2841 0.96428 0.0
C2306 C 0.92404 0.24368 0.97417 0.0
C2307 C 0.91974 0.23433 0.94743 0.0
N2308 N 0.9291 0.24067 0.90348 0.0
N2309 N 0.94209 0.27999 0.00664 0.0
C2310 C 0.93443 0.24923 0.92945 0.0
C2311 C 0.94085 0.2693 0.98228 0.0
N2312 N 0.97101 0.28665 0.92301 0.0
N2313 N 0.91216 0.22794 0.99175 0.0
H2314 H 0.9545 0.29857 0.01333 0.0
H2315 H 0.92992 0.27094 0.01968 0.0
H2316 H 0.89975 0.20909 0.98634 0.0
H2317 H 0.91605 0.23297 0.01179 0.0
H2318 H 0.97211 0.27909 0.90501 0.0
H2319 H 0.98565 0.30443 0.92923 0.0
H2320 H 0.93737 0.25176 0.88913 0.0
H2321 H 0.91513 0.22292 0.89595 0.0
C2322 C 0.69833 0.643 0.0216 0.0
C2323 C 0.70556 0.64037 0.04707 0.0
C2324 C 0.74625 0.65392 0.03598 0.0
C2325 C 0.73964 0.65896 0.01151 0.0
N2326 N 0.71081 0.6624 0.98251 0.0
N2327 N 0.73727 0.64731 0.08015 0.0
C2328 C 0.71607 0.65469 0.00473 0.0
C2329 C 0.72976 0.64687 0.05474 0.0
N2330 N 0.6744 0.63336 0.01313 0.0
N2331 N 0.76795 0.65512 0.04101 0.0
H2332 H 0.72581 0.64254 0.09456 0.0
H2333 H 0.7553 0.65452 0.08741 0.0
H2334 H 0.78053 0.66018 0.02775 0.0
H2335 H 0.77263 0.64906 0.05739 0.0
H2336 H 0.66789 0.63242 0.99391 0.0
H2337 H 0.66073 0.62407 0.02466 0.0
H2338 H 0.69469 0.66218 0.97798 0.0
H2339 H 0.72338 0.67112 0.96967 0.0
C2340 C 0.93676 0.65327 0.98748 0.0
C2341 C 0.95294 0.67145 0.0082 0.0
C2342 C 0.95188 0.70368 0.985 0.0
C2343 C 0.93092 0.68504 0.96902 0.0
N2344 N 0.91773 0.6461 0.94328 0.0
N2345 N 0.9784 0.71489 0.02512 0.0
C2346 C 0.92768 0.66087 0.96651 0.0
C2347 C 0.9613 0.69698 0.00652 0.0
N2348 N 0.92874 0.62867 0.9885 0.0
N2349 N 0.96536 0.7263 0.9768 0.0
H2350 H 0.98724 0.71103 0.04008 0.0
H2351 H 0.98298 0.73344 0.02612 0.0
H2352 H 0.96187 0.72932 0.95788 0.0
H2353 H 0.98193 0.74012 0.98664 0.0
H2354 H 0.91494 0.61463 0.97519 0.0
H2355 H 0.9345 0.62213 0.0037 0.0
H2356 H 0.91684 0.6291 0.93936 0.0
H2357 H 0.91297 0.6525 0.92715 0.0
C2358 C 0.35187 0.29039 0.96984 0.0
C2359 C 0.35187 0.30639 0.95193 0.0
C2360 C 0.33108 0.27131 0.91723 0.0
C2361 C 0.33343 0.25589 0.93442 0.0
N2362 N 0.34773 0.25051 0.97626 0.0
N2363 N 0.34271 0.31304 0.90839 0.0
C2364 C 0.34413 0.26531 0.9606 0.0
C2365 C 0.34177 0.2971 0.92555 0.0
N2366 N 0.35914 0.29917 0.99566 0.0
N2367 N 0.31803 0.26109 0.8932 0.0
H2368 H 0.34891 0.33178 0.91399 0.0
H2369 H 0.33854 0.30812 0.88835 0.0
H2370 H 0.31011 0.24227 0.8864 0.0
H2371 H 0.31339 0.27071 0.88071 0.0
H2372 H 0.35725 0.28794 0.01017 0.0
H2373 H 0.36551 0.31762 0.00287 0.0
H2374 H 0.35778 0.25693 0.99457 0.0
H2375 H 0.34203 0.23196 0.97026 0.0
C2376 C 0.69205 0.04766 0.00769 0.0
C2377 C 0.69916 0.06593 0.02949 0.0
C2378 C 0.73751 0.09237 0.01313 0.0
C2379 C 0.72947 0.07506 0.99032 0.0
N2380 N 0.69837 0.03776 0.96405 0.0
N2381 N 0.72699 0.10669 0.052 0.0
C2382 C 0.7065 0.05314 0.98705 0.0
C2383 C 0.72151 0.08855 0.03203 0.0
N2384 N 0.67208 0.02465 0.00728 0.0
N2385 N 0.76054 0.11228 0.01681 0.0
H2386 H 0.71569 0.10442 0.06626 0.0
H2387 H 0.74175 0.12462 0.05348 0.0
H2388 H 0.7725 0.11611 0.00299 0.0
H2389 H 0.76846 0.12407 0.03419 0.0
H2390 H 0.6675 0.00968 0.99338 0.0
H2391 H 0.66103 0.01975 0.02207 0.0
H2392 H 0.68068 0.02315 0.95925 0.0
H2393 H 0.70889 0.04058 0.94889 0.0
C2394 C 0.66861 0.98491 0.10233 0.0
C2395 C 0.64898 0.97443 0.08206 0.0
C2396 C 0.65093 0.93641 0.07625 0.0
C2397 C 0.66973 0.94647 0.0973 0.0
N2398 N 0.70084 0.98201 0.12573 0.0
N2399 N 0.62523 0.94345 0.04567 0.0
C2400 C 0.68019 0.97144 0.10856 0.0
C2401 C 0.64141 0.95118 0.0676 0.0
N2402 N 0.67495 0.0068 0.117 0.0
N2403 N 0.64162 0.9124 0.0654 0.0
H2404 H 0.61821 0.95416 0.03903 0.0
H2405 H 0.62024 0.92757 0.03299 0.0
H2406 H 0.64915 0.9017 0.07056 0.0
H2407 H 0.62611 0.90283 0.05204 0.0
H2408 H 0.68688 0.0137 0.13411 0.0
H2409 H 0.66707 0.01747 0.11327 0.0
H2410 H 0.71077 0.00087 0.13259 0.0
H2411 H 0.70935 0.97238 0.13145 0.0
C2412 C 0.04205 0.73271 0.12609 0.0
C2413 C 0.04539 0.72245 0.10259 0.0
C2414 C 0.08104 0.76237 0.09832 0.0
C2415 C 0.07838 0.77228 0.12249 0.0
N2416 N 0.05355 0.76968 0.15586 0.0
N2417 N 0.06392 0.72831 0.06313 0.0
C2418 C 0.05786 0.75831 0.1352 0.0
C2419 C 0.06347 0.73766 0.08754 0.0
N2420 N 0.02427 0.71769 0.14009 0.0
N2421 N 0.10105 0.77617 0.08643 0.0
H2422 H 0.05153 0.71012 0.05499 0.0
H2423 H 0.07522 0.73897 0.05013 0.0
H2424 H 0.1138 0.7946 0.0933 0.0
H2425 H 0.10572 0.76917 0.07051 0.0
H2426 H 0.02261 0.72311 0.15887 0.0
H2427 H 0.01158 0.69922 0.13321 0.0
H2428 H 0.03793 0.76125 0.16483 0.0
H2429 H 0.06489 0.78847 0.16274 0.0
C2430 C 0.2711 0.34587 0.01812 0.0
C2431 C 0.29158 0.34302 0.0218 0.0
C2432 C 0.2811 0.32922 0.06438 0.0
C2433 C 0.25994 0.33072 0.06 0.0
N2434 N 0.2324 0.33643 0.03142 0.0
N2435 N 0.31386 0.32774 0.04577 0.0
C2436 C 0.25417 0.33776 0.03641 0.0
C2437 C 0.296 0.33352 0.04422 0.0
N2438 N 0.2685 0.35751 0.99791 0.0
N2439 N 0.2872 0.32421 0.08801 0.0
H2440 H 0.32492 0.33029 0.0312 0.0
H2441 H 0.31641 0.31841 0.06033 0.0
H2442 H 0.27631 0.32016 0.10294 0.0
H2443 H 0.30378 0.32572 0.0935 0.0
H2444 H 0.25547 0.36266 0.99587 0.0
H2445 H 0.28061 0.36395 0.98419 0.0
H2446 H 0.22597 0.33859 0.01342 0.0
H2447 H 0.21981 0.33125 0.04468 0.0
C2448 C 0.74297 0.6649 0.3759 0.0
C2449 C 0.72233 0.66524 0.38312 0.0
C2450 C 0.73048 0.65693 0.42711 0.0
C2451 C 0.74989 0.65454 0.41912 0.0
N2452 N 0.77249 0.65248 0.3849 0.0
N2453 N 0.6942 0.65822 0.41419 0.0
C2454 C 0.75544 0.65733 0.39318 0.0
C2455 C 0.7155 0.66045 0.40841 0.0
N2456 N 0.75145 0.67307 0.35305 0.0
N2457 N 0.72653 0.65606 0.4526 0.0
H2458 H 0.68274 0.66056 0.401 0.0
H2459 H 0.68689 0.65215 0.43127 0.0
H2460 H 0.73644 0.65237 0.4665 0.0
H2461 H 0.71452 0.6605 0.46036 0.0
H2462 H 0.76793 0.67593 0.34805 0.0
H2463 H 0.7432 0.67935 0.34008 0.0
H2464 H 0.7752 0.65118 0.36548 0.0
H2465 H 0.78267 0.64772 0.3971 0.0
C2466 C 0.31667 0.04858 0.44177 0.0
C2467 C 0.31314 0.03134 0.45965 0.0
C2468 C 0.32917 0.06458 0.49633 0.0
C2469 C 0.33067 0.08133 0.47861 0.0
N2470 N 0.32561 0.09019 0.435 0.0
N2471 N 0.31684 0.02221 0.50353 0.0
C2472 C 0.32456 0.07363 0.45142 0.0
C2473 C 0.31977 0.0392 0.48684 0.0
N2474 N 0.31256 0.04095 0.41564 0.0
N2475 N 0.33691 0.07314 0.52219 0.0
H2476 H 0.31214 0.004 0.49726 0.0
H2477 H 0.31852 0.0257 0.52365 0.0
H2478 H 0.34293 0.09139 0.5299 0.0
H2479 H 0.33853 0.06277 0.53609 0.0
H2480 H 0.31695 0.05288 0.40144 0.0
H2481 H 0.30597 0.02258 0.40798 0.0
H2482 H 0.31891 0.08539 0.41536 0.0
H2483 H 0.3323 0.10892 0.44128 0.0
C2484 C 0.95494 0.26892 0.36868 0.0
C2485 C 0.97742 0.27164 0.37835 0.0
C2486 C 0.96515 0.26687 0.42204 0.0
C2487 C 0.94164 0.26074 0.4116 0.0
N2488 N 0.91285 0.25208 0.37429 0.0
N2489 N 0.00245 0.26898 0.41342 0.0
C2490 C 0.93613 0.2607 0.38471 0.0
C2491 C 0.98221 0.26958 0.40487 0.0
N2492 N 0.95187 0.27533 0.3447 0.0
N2493 N 0.97129 0.27055 0.44838 0.0
H2494 H 0.015 0.26996 0.40127 0.0
H2495 H 0.00555 0.26499 0.43193 0.0
H2496 H 0.95927 0.26894 0.46157 0.0
H2497 H 0.98888 0.27753 0.45711 0.0
H2498 H 0.93667 0.27606 0.33787 0.0
H2499 H 0.9655 0.28247 0.3327 0.0
H2500 H 0.90746 0.24905 0.35435 0.0
H2501 H 0.89853 0.24597 0.38541 0.0
C2502 C 0.0438 0.39486 0.33147 0.0
C2503 C 0.04217 0.3751 0.31467 0.0
C2504 C 0.0217 0.38379 0.27911 0.0
C2505 C 0.02225 0.40286 0.29615 0.0
N2506 N 0.03042 0.42456 0.33914 0.0
N2507 N 0.02519 0.34709 0.27465 0.0
C2508 C 0.0323 0.40782 0.32259 0.0
C2509 C 0.02976 0.36845 0.28914 0.0
N2510 N 0.05683 0.40154 0.35554 0.0
N2511 N 0.01448 0.38104 0.25308 0.0
H2512 H 0.03101 0.33535 0.28113 0.0
H2513 H 0.01381 0.33979 0.25714 0.0
H2514 H 0.00817 0.39171 0.24481 0.0
H2515 H 0.01656 0.36958 0.23927 0.0
H2516 H 0.06085 0.41734 0.36781 0.0
H2517 H 0.06492 0.39194 0.36269 0.0
H2518 H 0.03536 0.42746 0.35915 0.0
H2519 H 0.0222 0.43439 0.33306 0.0
C2520 C 0.62475 0.60777 0.29185 0.0
C2521 C 0.61838 0.62008 0.31103 0.0
C2522 C 0.58043 0.58137 0.31285 0.0
C2523 C 0.58514 0.57031 0.29097 0.0
N2524 N 0.61129 0.57215 0.25933 0.0
N2525 N 0.59092 0.61915 0.34055 0.0
C2526 C 0.60738 0.58313 0.28067 0.0
C2527 C 0.59652 0.60692 0.32197 0.0
N2528 N 0.64725 0.61978 0.28407 0.0
N2529 N 0.56061 0.56727 0.32488 0.0
H2530 H 0.60299 0.63743 0.34868 0.0
H2531 H 0.57413 0.61166 0.34725 0.0
H2532 H 0.54858 0.5485 0.31855 0.0
H2533 H 0.55703 0.57341 0.34222 0.0
H2534 H 0.65394 0.61111 0.27227 0.0
H2535 H 0.6601 0.63818 0.29089 0.0
H2536 H 0.6257 0.5814 0.24876 0.0
H2537 H 0.59934 0.55382 0.25129 0.0
C2538 C 0.37334 0.00523 0.36987 0.0
C2539 C 0.37389 0.9903 0.38889 0.0
C2540 C 0.40695 0.98846 0.37049 0.0
C2541 C 0.40454 0.00102 0.34988 0.0
N2542 N 0.38407 0.01918 0.32792 0.0
N2543 N 0.38857 0.9646 0.40539 0.0
C2544 C 0.38737 0.00886 0.34901 0.0
C2545 C 0.3901 0.9812 0.38884 0.0
N2546 N 0.36004 0.0166 0.37229 0.0
N2547 N 0.42556 0.98381 0.3727 0.0
H2548 H 0.37632 0.95858 0.419 0.0
H2549 H 0.39801 0.95515 0.40422 0.0
H2550 H 0.43801 0.98843 0.35932 0.0
H2551 H 0.42986 0.97722 0.38886 0.0
H2552 H 0.36081 0.02971 0.36057 0.0
H2553 H 0.3498 0.01464 0.38755 0.0
H2554 H 0.36998 0.02269 0.32473 0.0
H2555 H 0.39443 0.02263 0.31254 0.0
C2556 C 0.61575 0.00497 0.33433 0.0
C2557 C 0.60731 0.99594 0.35801 0.0
C2558 C 0.57007 0.99644 0.34613 0.0
C2559 C 0.57767 0.00375 0.32167 0.0
N2560 N 0.60587 0.01144 0.29063 0.0
N2561 N 0.57434 0.97778 0.38382 0.0
C2562 C 0.6 0.00698 0.31521 0.0
C2563 C 0.58388 0.9902 0.36318 0.0
N2564 N 0.63909 0.01257 0.33057 0.0
N2565 N 0.54998 0.99616 0.35344 0.0
H2566 H 0.5836 0.97224 0.39641 0.0
H2567 H 0.55642 0.97073 0.38695 0.0
H2568 H 0.53922 0.00041 0.34146 0.0
H2569 H 0.54515 0.99384 0.37217 0.0
H2570 H 0.64713 0.02181 0.31503 0.0
H2571 H 0.6511 0.01135 0.34409 0.0
H2572 H 0.62062 0.01135 0.28379 0.0
H2573 H 0.5949 0.01336 0.27635 0.0
C2574 C 0.03436 0.62434 0.29511 0.0
C2575 C 0.03106 0.64016 0.27928 0.0
C2576 C 0.00886 0.60578 0.24407 0.0
C2577 C 0.01395 0.59056 0.25906 0.0
N2578 N 0.03355 0.58539 0.29744 0.0
N2579 N 0.01733 0.64726 0.23805 0.0
C2580 C 0.02717 0.5998 0.28428 0.0
C2581 C 0.01889 0.63123 0.25356 0.0
N2582 N 0.04414 0.63276 0.32052 0.0
N2583 N 0.99388 0.59565 0.22111 0.0
H2584 H 0.02344 0.6658 0.24461 0.0
H2585 H 0.01136 0.6427 0.21822 0.0
H2586 H 0.98643 0.5771 0.21343 0.0
H2587 H 0.98729 0.60498 0.21057 0.0
H2588 H 0.04468 0.62147 0.33396 0.0
H2589 H 0.05032 0.65092 0.32869 0.0
H2590 H 0.04534 0.59185 0.31462 0.0
H2591 H 0.02833 0.56722 0.29025 0.0
C2592 C 0.35367 0.41101 0.33487 0.0
C2593 C 0.36252 0.41208 0.36101 0.0
C2594 C 0.40293 0.42636 0.34869 0.0
C2595 C 0.39335 0.42237 0.32223 0.0
N2596 N 0.35921 0.40785 0.28943 0.0
N2597 N 0.39455 0.41676 0.39234 0.0
C2598 C 0.36859 0.41386 0.31509 0.0
C2599 C 0.38693 0.41883 0.3679 0.0
N2600 N 0.33128 0.40808 0.3291 0.0
N2601 N 0.42733 0.4378 0.35551 0.0
H2602 H 0.38336 0.41089 0.40695 0.0
H2603 H 0.41139 0.41873 0.3975 0.0
H2604 H 0.43966 0.44341 0.34195 0.0
H2605 H 0.43549 0.44365 0.3747 0.0
H2606 H 0.32478 0.40959 0.3108 0.0
H2607 H 0.32005 0.40653 0.34322 0.0
H2608 H 0.34079 0.39898 0.28312 0.0
H2609 H 0.36966 0.40983 0.27436 0.0
C2610 C 0.29815 0.27526 0.40458 0.0
C2611 C 0.30626 0.2986 0.41916 0.0
C2612 C 0.33616 0.29418 0.44636 0.0
C2613 C 0.32574 0.26946 0.43425 0.0
N2614 N 0.29723 0.23589 0.40207 0.0
N2615 N 0.33128 0.32968 0.45549 0.0
C2616 C 0.30701 0.2599 0.41316 0.0
C2617 C 0.32509 0.30812 0.44021 0.0
N2618 N 0.28219 0.26803 0.38251 0.0
N2619 N 0.35642 0.30418 0.46408 0.0
H2620 H 0.32368 0.34063 0.4519 0.0
H2621 H 0.34258 0.33585 0.47303 0.0
H2622 H 0.3646 0.29426 0.46984 0.0
H2623 H 0.36638 0.3229 0.47149 0.0
H2624 H 0.27705 0.2522 0.36967 0.0
H2625 H 0.27537 0.27896 0.37601 0.0
H2626 H 0.28175 0.22673 0.38863 0.0
H2627 H 0.30422 0.22471 0.40718 0.0
C2628 C 0.73713 0.06046 0.42183 0.0
C2629 C 0.71547 0.04815 0.43331 0.0
C2630 C 0.72741 0.08622 0.46224 0.0
C2631 C 0.74925 0.09841 0.45104 0.0
N2632 N 0.77284 0.09949 0.41673 0.0
N2633 N 0.68739 0.05001 0.46033 0.0
C2634 C 0.75341 0.08624 0.42965 0.0
C2635 C 0.70972 0.06135 0.4521 0.0
N2636 N 0.74236 0.04726 0.404 0.0
N2637 N 0.72413 0.09807 0.48334 0.0
H2638 H 0.67423 0.03161 0.45385 0.0
H2639 H 0.68113 0.05924 0.472 0.0
H2640 H 0.73638 0.11651 0.49077 0.0
H2641 H 0.71007 0.08934 0.4945 0.0
H2642 H 0.75903 0.05423 0.39711 0.0
H2643 H 0.7302 0.02871 0.39685 0.0
H2644 H 0.77582 0.09246 0.39954 0.0
H2645 H 0.7851 0.11837 0.4221 0.0
C2646 C 0.93974 0.67158 0.34728 0.0
C2647 C 0.96464 0.68625 0.3569 0.0
C2648 C 0.95491 0.68263 0.40163 0.0
C2649 C 0.93005 0.66973 0.39206 0.0
N2650 N 0.89835 0.65481 0.35622 0.0
N2651 N 0.99526 0.71166 0.39304 0.0
C2652 C 0.92229 0.66495 0.36497 0.0
C2653 C 0.97214 0.69335 0.38406 0.0
N2654 N 0.93281 0.66343 0.32129 0.0
N2655 N 0.96207 0.68456 0.42751 0.0
H2656 H 0.00796 0.72161 0.3808 0.0
H2657 H 0.001 0.7191 0.41252 0.0
H2658 H 0.94989 0.67712 0.44105 0.0
H2659 H 0.97997 0.69151 0.43513 0.0
H2660 H 0.91517 0.65035 0.31346 0.0
H2661 H 0.94501 0.6684 0.3076 0.0
H2662 H 0.89185 0.65355 0.33691 0.0
H2663 H 0.88498 0.6492 0.36859 0.0
C2664 C 0.41497 0.01027 0.71517 0.0
C2665 C 0.39986 0.01857 0.72486 0.0
C2666 C 0.40955 0.01139 0.76885 0.0
C2667 C 0.42686 0.00609 0.75958 0.0
N2668 N 0.44887 0.00432 0.72455 0.0
N2669 N 0.38467 0.02986 0.76135 0.0
C2670 C 0.4303 0.00651 0.73288 0.0
C2671 C 0.3975 0.01974 0.75182 0.0
N2672 N 0.41403 0.00509 0.68895 0.0
N2673 N 0.4043 0.00797 0.79376 0.0
H2674 H 0.37567 0.03623 0.74954 0.0
H2675 H 0.38448 0.03376 0.78112 0.0
H2676 H 0.41285 0.00195 0.80669 0.0
H2677 H 0.39013 0.00905 0.80093 0.0
H2678 H 0.42272 0.99649 0.68083 0.0
H2679 H 0.40258 0.00701 0.6753 0.0
H2680 H 0.45401 0.00748 0.70601 0.0
H2681 H 0.46055 0.00149 0.73679 0.0
C2682 C 0.97971 0.36848 0.81661 0.0
C2683 C 0.97079 0.36126 0.78976 0.0
C2684 C 0.97928 0.40336 0.78488 0.0
C2685 C 0.98566 0.40973 0.81222 0.0
N2686 N 0.98984 0.39819 0.85471 0.0
N2687 N 0.9604 0.37063 0.74835 0.0
C2688 C 0.98546 0.39229 0.82827 0.0
C2689 C 0.97024 0.37842 0.77382 0.0
N2690 N 0.98312 0.35269 0.83081 0.0
N2691 N 0.98228 0.42131 0.76955 0.0
H2692 H 0.95433 0.35268 0.73953 0.0
H2693 H 0.95691 0.38135 0.73634 0.0
H2694 H 0.98868 0.4397 0.77708 0.0
H2695 H 0.9802 0.41856 0.74933 0.0
H2696 H 0.99197 0.35779 0.8497 0.0
H2697 H 0.9789 0.33497 0.823 0.0
H2698 H 0.98733 0.38543 0.86767 0.0
H2699 H 0.99441 0.41558 0.86394 0.0
C2700 C 0.64826 0.59161 0.74113 0.0
C2701 C 0.64342 0.59649 0.71584 0.0
C2702 C 0.60283 0.58609 0.72463 0.0
C2703 C 0.60881 0.5843 0.75083 0.0
N2704 N 0.63875 0.58977 0.78543 0.0
N2705 N 0.61806 0.60417 0.68581 0.0
C2706 C 0.63198 0.58829 0.75952 0.0
C2707 C 0.62119 0.59522 0.70809 0.0
N2708 N 0.668 0.58937 0.74734 0.0
N2709 N 0.57952 0.57859 0.71533 0.0
H2710 H 0.63144 0.6124 0.67371 0.0
H2711 H 0.60309 0.60594 0.68082 0.0
H2712 H 0.56545 0.57156 0.7268 0.0
H2713 H 0.5738 0.57711 0.69568 0.0
H2714 H 0.67111 0.58344 0.76466 0.0
H2715 H 0.68 0.59099 0.73412 0.0
H2716 H 0.6563 0.59522 0.7931 0.0
H2717 H 0.62745 0.58783 0.79959 0.0
C2718 C 0.69296 0.72386 0.68103 0.0
C2719 C 0.68873 0.70235 0.66528 0.0
C2720 C 0.66079 0.70582 0.63395 0.0
C2721 C 0.66502 0.72751 0.64957 0.0
N2722 N 0.68026 0.75386 0.69051 0.0
N2723 N 0.664 0.66891 0.63095 0.0
C2724 C 0.67951 0.73541 0.67406 0.0
C2725 C 0.67093 0.69192 0.64328 0.0
N2726 N 0.71028 0.73357 0.70211 0.0
N2727 N 0.64877 0.6995 0.60934 0.0
H2728 H 0.67161 0.65841 0.63652 0.0
H2729 H 0.64919 0.65924 0.61667 0.0
H2730 H 0.64105 0.70903 0.60132 0.0
H2731 H 0.64808 0.68592 0.59592 0.0
H2732 H 0.71619 0.75072 0.71279 0.0
H2733 H 0.7196 0.72481 0.70822 0.0
H2734 H 0.68892 0.75924 0.70948 0.0
H2735 H 0.67033 0.76237 0.68582 0.0
C2736 C 0.28496 0.93903 0.62263 0.0
C2737 C 0.27841 0.95152 0.64142 0.0
C2738 C 0.23978 0.91315 0.6422 0.0
C2739 C 0.2451 0.90167 0.62118 0.0
N2740 N 0.27199 0.90313 0.59062 0.0
N2741 N 0.24989 0.95121 0.6691 0.0
C2742 C 0.26763 0.91435 0.61141 0.0
C2743 C 0.25594 0.93871 0.65134 0.0
N2744 N 0.30766 0.95087 0.61532 0.0
N2745 N 0.21943 0.89939 0.65362 0.0
H2746 H 0.26188 0.96947 0.67735 0.0
H2747 H 0.23275 0.94402 0.67486 0.0
H2748 H 0.20721 0.88067 0.64727 0.0
H2749 H 0.2155 0.90578 0.67056 0.0
H2750 H 0.31452 0.94207 0.60398 0.0
H2751 H 0.32045 0.96934 0.62196 0.0
H2752 H 0.28669 0.91219 0.58038 0.0
H2753 H 0.26006 0.88481 0.58251 0.0
C2754 C 0.05483 0.31109 0.71753 0.0
C2755 C 0.03119 0.30596 0.70908 0.0
C2756 C 0.04386 0.32092 0.66747 0.0
C2757 C 0.0666 0.32331 0.67481 0.0
N2758 N 0.09272 0.3171 0.70511 0.0
N2759 N 0.00187 0.30185 0.67442 0.0
C2760 C 0.07186 0.31745 0.6994 0.0
C2761 C 0.02533 0.30985 0.68364 0.0
N2762 N 0.0613 0.31081 0.74308 0.0
N2763 N 0.04015 0.32969 0.6453 0.0
H2764 H 0.9876 0.29307 0.68536 0.0
H2765 H 0.99622 0.30178 0.65512 0.0
H2766 H 0.05336 0.33792 0.63296 0.0
H2767 H 0.02483 0.33084 0.64037 0.0
H2768 H 0.07898 0.31696 0.7509 0.0
H2769 H 0.04946 0.30667 0.75707 0.0
H2770 H 0.09625 0.3103 0.72155 0.0
H2771 H 0.1057 0.32164 0.69237 0.0
C2772 C 0.27117 0.31544 0.65714 0.0
C2773 C 0.27399 0.32215 0.68441 0.0
C2774 C 0.24993 0.34213 0.67783 0.0
C2775 C 0.24807 0.33651 0.65051 0.0
N2776 N 0.26091 0.32247 0.61389 0.0
N2777 N 0.27194 0.34784 0.71987 0.0
C2778 C 0.26003 0.32466 0.64008 0.0
C2779 C 0.26514 0.33731 0.69449 0.0
N2780 N 0.27794 0.29924 0.64758 0.0
N2781 N 0.23632 0.35099 0.68801 0.0
H2782 H 0.28379 0.34551 0.73248 0.0
H2783 H 0.26797 0.361 0.72759 0.0
H2784 H 0.22491 0.35481 0.67659 0.0
H2785 H 0.23478 0.35255 0.70778 0.0
H2786 H 0.2739 0.29152 0.62818 0.0
H2787 H 0.28594 0.29189 0.65938 0.0
H2788 H 0.27135 0.31626 0.60528 0.0
H2789 H 0.25287 0.32901 0.60096 0.0
C2790 C 0.68751 0.95451 0.6369 0.0
C2791 C 0.68263 0.969 0.62054 0.0
C2792 C 0.65507 0.93185 0.59013 0.0
C2793 C 0.66227 0.91794 0.6048 0.0
N2794 N 0.68527 0.91517 0.64174 0.0
N2795 N 0.66308 0.97251 0.58102 0.0
C2796 C 0.67833 0.92899 0.62824 0.0
C2797 C 0.66655 0.95792 0.59711 0.0
N2798 N 0.70066 0.96517 0.66079 0.0
N2799 N 0.63713 0.92003 0.56967 0.0
H2800 H 0.67057 0.9916 0.5858 0.0
H2801 H 0.65402 0.96609 0.56224 0.0
H2802 H 0.62872 0.90101 0.5637 0.0
H2803 H 0.62928 0.92859 0.55976 0.0
H2804 H 0.70301 0.95527 0.67481 0.0
H2805 H 0.70789 0.98393 0.6674 0.0
H2806 H 0.69897 0.92259 0.65729 0.0
H2807 H 0.67802 0.89616 0.63661 0.0
C2808 C 0.02127 0.70438 0.67136 0.0
C2809 C 0.02888 0.71916 0.69594 0.0
C2810 C 0.06947 0.74439 0.68384 0.0
C2811 C 0.06094 0.73166 0.65825 0.0
N2812 N 0.02838 0.7013 0.62645 0.0
N2813 N 0.05923 0.75484 0.72498 0.0
C2814 C 0.03676 0.71204 0.65167 0.0
C2815 C 0.0528 0.7395 0.70215 0.0
N2816 N -0.00041 0.68259 0.66717 0.0
N2817 N 0.09357 0.76093 0.69064 0.0
H2818 H 0.04747 0.75196 0.73885 0.0
H2819 H 0.07554 0.77154 0.72931 0.0
H2820 H 0.10627 0.76508 0.67761 0.0
H2821 H 0.10129 0.76894 0.70965 0.0
H2822 H 0.99416 0.66979 0.6506 0.0
H2823 H 0.9879 0.6761 0.68129 0.0
H2824 H 0.01022 0.68897 0.61991 0.0
H2825 H 0.03934 0.70605 0.61156 0.0
C2826 C 0.98262 0.63826 0.77335 0.0
C2827 C 0.96343 0.62896 0.75271 0.0
C2828 C 0.95988 0.58807 0.74999 0.0
C2829 C 0.97901 0.59741 0.77062 0.0
N2830 N 0.01208 0.63219 0.79825 0.0
N2831 N 0.93673 0.59711 0.71813 0.0
C2832 C 0.99165 0.62285 0.78091 0.0
C2833 C 0.953 0.60446 0.73994 0.0
N2834 N 0.99109 0.66117 0.78698 0.0
N2835 N 0.94788 0.56337 0.74071 0.0
H2836 H 0.93137 0.60882 0.71056 0.0
H2837 H 0.92993 0.58025 0.70646 0.0
H2838 H 0.95331 0.55122 0.74687 0.0
H2839 H 0.93205 0.55465 0.72779 0.0
H2840 H 0.00275 0.6676 0.80427 0.0
H2841 H 0.98509 0.67324 0.78231 0.0
H2842 H 0.0236 0.65107 0.80423 0.0
H2843 H 0.01876 0.6213 0.80513 0.0
C2844 C 0.37836 0.39452 0.79639 0.0
C2845 C 0.3819 0.3837 0.77341 0.0
C2846 C 0.41772 0.42335 0.76866 0.0
C2847 C 0.41454 0.43399 0.79204 0.0
N2848 N 0.38917 0.43218 0.82454 0.0
N2849 N 0.40118 0.38842 0.73454 0.0
C2850 C 0.39392 0.42032 0.80473 0.0
C2851 C 0.40033 0.39841 0.75844 0.0
N2852 N 0.36063 0.37989 0.81065 0.0
N2853 N 0.43793 0.43678 0.75693 0.0
H2854 H 0.38893 0.37006 0.7268 0.0
H2855 H 0.41271 0.39867 0.7215 0.0
H2856 H 0.45052 0.45537 0.76332 0.0
H2857 H 0.44293 0.42934 0.74169 0.0
H2858 H 0.35888 0.38585 0.82917 0.0
H2859 H 0.34819 0.3612 0.80442 0.0
H2860 H 0.37336 0.42393 0.83323 0.0
H2861 H 0.40031 0.4511 0.83094 0.0
C2862 C 0.63468 0.00663 0.71188 0.0
C2863 C 0.6278 0.0107 0.68697 0.0
C2864 C 0.58922 0.00298 0.70031 0.0
C2865 C 0.59742 0.00203 0.72603 0.0
N2866 N 0.62874 0.00553 0.7574 0.0
N2867 N 0.60004 0.01594 0.65813 0.0
C2868 C 0.62035 0.00447 0.73214 0.0
C2869 C 0.60537 0.00953 0.68124 0.0
N2870 N 0.65445 0.004 0.7159 0.0
N2871 N 0.56589 0.9973 0.6941 0.0
H2872 H 0.61149 0.02111 0.64371 0.0
H2873 H 0.58523 0.01816 0.65406 0.0
H2874 H 0.55361 0.99263 0.70768 0.0
H2875 H 0.55809 0.99512 0.67514 0.0
H2876 H 0.659 -0.00143 0.73285 0.0
H2877 H 0.66512 0.00497 0.70135 0.0
H2878 H 0.6464 0.01017 0.76346 0.0
H2879 H 0.61858 0.00357 0.77273 0.0
loop_
_geom_bond_atom_site_label_1
_geom_bond_atom_site_label_2
_geom_bond_distance
_geom_bond_site_symmetry_2
_ccdc_geom_bond_type
Mg0 O1 2.028 . S
Mg0 O7 1.986 1_455 S
Mg0 O9 2.114 . S
Mg0 O10 2.248 1_554 S
Mg0 O13 2.010 . S
O1 Mg0 2.028 . S
O1 C4 1.250 1_455 S
O2 Mg3 2.028 . S
O2 C4 1.248 . S
Mg3 O2 2.028 . S
Mg3 O8 2.032 . S
Mg3 O10 2.084 1_654 S
C4 O1 1.250 1_655 S
C4 O2 1.248 . S
C5 O6 1.264 . S
C5 O13 1.249 . S
O6 C5 1.264 . S
O7 Mg0 1.986 1_655 S
O7 C11 1.246 . S
O8 Mg3 2.032 . S
O8 C11 1.260 . S
O9 Mg0 2.114 . S
O9 C12 1.252 1_554 S
O10 Mg0 2.248 1_556 S
O10 Mg3 2.084 1_456 S
O10 C12 1.269 . S
C11 O7 1.246 . S
C11 O8 1.260 . S
C12 O9 1.252 1_556 S
C12 O10 1.269 . S
O13 Mg0 2.010 . S
O13 C5 1.249 . S
Mg14 O15 2.028 . S
Mg14 O21 1.986 . S
Mg14 O23 2.114 . S
Mg14 O24 2.251 . S
Mg14 O27 2.010 . S
O15 Mg14 2.028 . S
O15 C18 1.250 . S
O16 Mg17 2.028 . S
O16 C18 1.248 . S
Mg17 O16 2.028 . S
Mg17 O22 2.032 . S
Mg17 O24 2.079 . S
C18 O15 1.250 . S
C18 O16 1.248 . S
C19 O20 1.264 . S
C19 O27 1.249 . S
O20 C19 1.264 . S
O21 Mg14 1.986 . S
O21 C25 1.246 . S
O22 Mg17 2.032 . S
O22 C25 1.259 . S
O23 Mg14 2.114 . S
O23 C26 1.252 . S
O24 Mg14 2.251 . S
O24 Mg17 2.079 . S
O24 C26 1.273 . S
C25 O21 1.246 . S
C25 O22 1.259 . S
C26 O23 1.252 . S
C26 O24 1.273 . S
O27 Mg14 2.010 . S
O27 C19 1.249 . S
Mg28 O29 2.028 1_565 S
Mg28 O35 1.986 1_565 S
Mg28 O37 2.114 . S
Mg28 O38 2.251 1_564 S
Mg28 O41 2.010 . S
O29 Mg28 2.028 1_545 S
O29 C32 1.250 . S
O30 Mg31 2.028 . S
O30 C32 1.248 . S
Mg31 O30 2.028 . S
Mg31 O36 2.032 . S
Mg31 O38 2.079 1_554 S
C32 O29 1.250 . S
C32 O30 1.248 . S
C33 O34 1.264 . S
C33 O41 1.249 . S
O34 C33 1.264 . S
O35 Mg28 1.986 1_545 S
O35 C39 1.246 . S
O36 Mg31 2.032 . S
O36 C39 1.259 . S
O37 Mg28 2.114 . S
O37 C40 1.252 1_554 S
O38 Mg28 2.251 1_546 S
O38 Mg31 2.079 1_556 S
O38 C40 1.273 1_545 S
C39 O35 1.246 . S
C39 O36 1.259 . S
C40 O37 1.252 1_556 S
C40 O38 1.273 1_565 S
O41 Mg28 2.010 . S
O41 C33 1.249 . S
Mg42 O43 2.014 1_655 S
Mg42 O49 1.986 1_655 S
Mg42 O51 2.114 . S
Mg42 O52 2.251 1_655 S
Mg42 O55 2.010 . S
O43 Mg42 2.014 1_455 S
O43 C46 1.281 . S
O44 Mg45 2.028 . S
O44 C46 1.248 . S
Mg45 O44 2.028 . S
Mg45 O50 2.032 . S
Mg45 O52 2.079 . S
C46 O43 1.281 . S
C46 O44 1.248 . S
C47 O48 1.264 . S
C47 O55 1.249 . S
O48 C47 1.264 . S
O49 Mg42 1.986 1_455 S
O49 C53 1.246 . S
O50 Mg45 2.032 . S
O50 C53 1.259 . S
O51 Mg42 2.114 . S
O51 C54 1.252 . S
O52 Mg42 2.251 1_455 S
O52 Mg45 2.079 . S
O52 C54 1.273 1_455 S
C53 O49 1.246 . S
C53 O50 1.259 . S
C54 O51 1.252 . S
C54 O52 1.273 1_655 S
O55 Mg42 2.010 . S
O55 C47 1.249 . S
Mg56 O57 2.028 1_556 S
Mg56 O63 1.986 . S
Mg56 O65 2.114 . S
Mg56 O66 2.251 . S
Mg56 O69 2.010 1_556 S
O57 Mg56 2.028 1_554 S
O57 C60 1.250 . S
O58 Mg59 2.028 1_554 S
O58 C60 1.248 . S
Mg59 O58 2.028 1_556 S
Mg59 O64 2.032 . S
Mg59 O66 2.079 . S
C60 O57 1.250 . S
C60 O58 1.248 . S
C61 O62 1.264 . S
C61 O69 1.249 . S
O62 C61 1.264 . S
O63 Mg56 1.986 . S
O63 C67 1.246 . S
O64 Mg59 2.032 . S
O64 C67 1.259 . S
O65 Mg56 2.114 . S
O65 C68 1.252 . S
O66 Mg56 2.251 . S
O66 Mg59 2.079 . S
O66 C68 1.273 . S
C67 O63 1.246 . S
C67 O64 1.259 . S
C68 O65 1.252 . S
C68 O66 1.273 . S
O69 Mg56 2.010 1_554 S
O69 C61 1.249 . S
Mg70 O71 2.028 . S
Mg70 O77 1.986 1_545 S
Mg70 O79 2.114 . S
Mg70 O80 2.251 . S
Mg70 O83 2.010 . S
O71 Mg70 2.028 . S
O71 C74 1.250 1_545 S
O72 Mg73 2.028 . S
O72 C74 1.248 . S
Mg73 O72 2.028 . S
Mg73 O78 2.032 . S
Mg73 O80 2.079 1_565 S
C74 O71 1.250 1_565 S
C74 O72 1.248 . S
C75 O76 1.264 . S
C75 O83 1.249 . S
O76 C75 1.264 . S
O77 Mg70 1.986 1_565 S
O77 C81 1.246 . S
O78 Mg73 2.032 . S
O78 C81 1.259 . S
O79 Mg70 2.114 . S
O79 C82 1.252 . S
O80 Mg70 2.251 . S
O80 Mg73 2.079 1_545 S
O80 C82 1.273 . S
C81 O77 1.246 . S
C81 O78 1.259 . S
C82 O79 1.252 . S
C82 O80 1.273 . S
O83 Mg70 2.010 . S
O83 C75 1.249 . S
Mg84 O85 2.028 . S
Mg84 O91 1.986 . S
Mg84 O93 2.114 . S
Mg84 O94 2.251 . S
Mg84 O97 2.010 . S
O85 Mg84 2.028 . S
O85 C88 1.250 . S
O86 Mg87 2.028 . S
O86 C88 1.248 . S
Mg87 O86 2.028 . S
Mg87 O92 2.032 . S
Mg87 O94 2.079 . S
C88 O85 1.250 . S
C88 O86 1.248 . S
C89 O90 1.264 . S
C89 O97 1.249 . S
O90 C89 1.264 . S
O91 Mg84 1.986 . S
O91 C95 1.246 . S
O92 Mg87 2.032 . S
O92 C95 1.259 . S
O93 Mg84 2.114 . S
O93 C96 1.252 . S
O94 Mg84 2.251 . S
O94 Mg87 2.079 . S
O94 C96 1.273 . S
C95 O91 1.246 . S
C95 O92 1.259 . S
C96 O93 1.252 . S
C96 O94 1.273 . S
O97 Mg84 2.010 . S
O97 C89 1.249 . S
Mg98 O99 2.028 . S
Mg98 O105 1.969 1_565 S
Mg98 O107 2.114 . S
Mg98 O108 2.251 . S
Mg98 O111 2.010 . S
O99 Mg98 2.028 . S
O99 C102 1.250 . S
O100 Mg101 2.028 . S
O100 C102 1.248 . S
Mg101 O100 2.028 . S
Mg101 O106 2.032 . S
Mg101 O108 2.079 . S
C102 O99 1.250 . S
C102 O100 1.248 . S
C103 O104 1.264 . S
C103 O111 1.249 . S
O104 C103 1.264 . S
O105 Mg98 1.969 1_545 S
O105 C109 1.258 . S
O106 Mg101 2.032 . S
O106 C109 1.259 1_565 S
O107 Mg98 2.114 . S
O107 C110 1.252 . S
O108 Mg98 2.251 . S
O108 Mg101 2.079 . S
O108 C110 1.273 . S
C109 O105 1.258 . S
C109 O106 1.259 1_545 S
C110 O107 1.252 . S
C110 O108 1.273 . S
O111 Mg98 2.010 . S
O111 C103 1.249 . S
Mg112 O113 2.028 . S
Mg112 O119 1.986 . S
Mg112 O121 2.114 . S
Mg112 O122 2.251 . S
Mg112 O125 2.010 . S
O113 Mg112 2.028 . S
O113 C116 1.250 . S
O114 Mg115 2.028 . S
O114 C116 1.248 . S
Mg115 O114 2.028 . S
Mg115 O120 2.032 . S
Mg115 O122 2.079 . S
C116 O113 1.250 . S
C116 O114 1.248 . S
C117 O118 1.264 . S
C117 O125 1.249 1_655 S
O118 C117 1.264 . S
O119 Mg112 1.986 . S
O119 C123 1.246 . S
O120 Mg115 2.032 . S
O120 C123 1.259 . S
O121 Mg112 2.114 . S
O121 C124 1.252 . S
O122 Mg112 2.251 . S
O122 Mg115 2.079 . S
O122 C124 1.273 . S
C123 O119 1.246 . S
C123 O120 1.259 . S
C124 O121 1.252 . S
C124 O122 1.273 . S
O125 Mg112 2.010 . S
O125 C117 1.249 1_455 S
Mg126 O127 2.028 . S
Mg126 O133 1.994 . S
Mg126 O135 2.114 . S
Mg126 O136 2.251 . S
Mg126 O139 2.010 . S
O127 Mg126 2.028 . S
O127 C130 1.250 . S
O128 Mg129 2.028 . S
O128 C130 1.248 . S
Mg129 O128 2.028 . S
Mg129 O134 2.032 . S
Mg129 O136 2.079 . S
C130 O127 1.250 . S
C130 O128 1.248 . S
C131 O132 1.264 . S
C131 O139 1.249 . S
O132 C131 1.264 . S
O133 Mg126 1.994 . S
O133 C137 1.247 1_565 S
O134 Mg129 2.032 . S
O134 C137 1.259 1_565 S
O135 Mg126 2.114 . S
O135 C138 1.252 . S
O136 Mg126 2.251 . S
O136 Mg129 2.079 . S
O136 C138 1.273 . S
C137 O133 1.247 1_545 S
C137 O134 1.259 1_545 S
C138 O135 1.252 . S
C138 O136 1.273 . S
O139 Mg126 2.010 . S
O139 C131 1.249 . S
Mg140 O141 2.028 . S
Mg140 O147 1.986 . S
Mg140 O149 2.114 . S
Mg140 O150 2.251 . S
Mg140 O153 2.010 . S
O141 Mg140 2.028 . S
O141 C144 1.250 . S
O142 Mg143 2.028 . S
O142 C144 1.248 . S
Mg143 O142 2.028 . S
Mg143 O148 2.032 . S
Mg143 O150 2.079 . S
C144 O141 1.250 . S
C144 O142 1.248 . S
C145 O146 1.264 . S
C145 O153 1.249 1_655 S
O146 C145 1.264 . S
O147 Mg140 1.986 . S
O147 C151 1.246 . S
O148 Mg143 2.032 . S
O148 C151 1.259 . S
O149 Mg140 2.114 . S
O149 C152 1.252 . S
O150 Mg140 2.251 . S
O150 Mg143 2.079 . S
O150 C152 1.273 . S
C151 O147 1.246 . S
C151 O148 1.259 . S
C152 O149 1.252 . S
C152 O150 1.273 . S
O153 Mg140 2.010 . S
O153 C145 1.249 1_455 S
Mg154 O155 2.028 . S
Mg154 O161 1.986 . S
Mg154 O163 2.114 . S
Mg154 O164 2.251 . S
Mg154 O167 2.010 . S
O155 Mg154 2.028 . S
O155 C158 1.250 . S
O156 Mg157 2.028 . S
O156 C158 1.248 . S
Mg157 O156 2.028 . S
Mg157 O162 2.032 . S
Mg157 O164 2.079 . S
C158 O155 1.250 . S
C158 O156 1.248 . S
C159 O160 1.264 . S
C159 O167 1.249 . S
O160 C159 1.264 . S
O161 Mg154 1.986 . S
O161 C165 1.246 . S
O162 Mg157 2.032 . S
O162 C165 1.259 . S
O163 Mg154 2.114 . S
O163 C166 1.252 . S
O164 Mg154 2.251 . S
O164 Mg157 2.079 . S
O164 C166 1.273 . S
C165 O161 1.246 . S
C165 O162 1.259 . S
C166 O163 1.252 . S
C166 O164 1.273 . S
O167 Mg154 2.010 . S
O167 C159 1.249 . S
Mg168 O169 2.028 . S
Mg168 O175 1.986 . S
Mg168 O177 2.114 . S
Mg168 O178 2.251 . S
Mg168 O181 2.010 . S
O169 Mg168 2.028 . S
O169 C172 1.250 . S
O170 Mg171 2.028 . S
O170 C172 1.248 . S
Mg171 O170 2.028 . S
Mg171 O176 2.032 . S
Mg171 O178 2.079 . S
C172 O169 1.250 . S
C172 O170 1.248 . S
C173 O174 1.264 . S
C173 O181 1.249 . S
O174 C173 1.264 . S
O175 Mg168 1.986 . S
O175 C179 1.252 1_545 S
O176 Mg171 2.032 . S
O176 C179 1.222 1_545 S
O177 Mg168 2.114 . S
O177 C180 1.252 . S
O178 Mg168 2.251 . S
O178 Mg171 2.079 . S
O178 C180 1.273 . S
C179 O175 1.252 1_565 S
C179 O176 1.222 1_565 S
C180 O177 1.252 . S
C180 O178 1.273 . S
O181 Mg168 2.010 . S
O181 C173 1.249 . S
Mg182 O183 2.028 . S
Mg182 O189 1.986 . S
Mg182 O191 2.114 . S
Mg182 O192 2.251 . S
Mg182 O195 2.010 1_655 S
O183 Mg182 2.028 . S
O183 C186 1.250 . S
O184 Mg185 2.028 . S
O184 C186 1.248 . S
Mg185 O184 2.028 . S
Mg185 O190 2.032 . S
Mg185 O192 2.079 . S
C186 O183 1.250 . S
C186 O184 1.248 . S
C187 O188 1.264 . S
C187 O195 1.249 . S
O188 C187 1.264 . S
O189 Mg182 1.986 . S
O189 C193 1.246 . S
O190 Mg185 2.032 . S
O190 C193 1.259 . S
O191 Mg182 2.114 . S
O191 C194 1.252 . S
O192 Mg182 2.251 . S
O192 Mg185 2.079 . S
O192 C194 1.273 . S
C193 O189 1.246 . S
C193 O190 1.259 . S
C194 O191 1.252 . S
C194 O192 1.273 . S
O195 Mg182 2.010 1_455 S
O195 C187 1.249 . S
Mg196 O197 2.028 . S
Mg196 O203 1.986 . S
Mg196 O205 2.114 . S
Mg196 O206 2.251 . S
Mg196 O209 2.010 . S
O197 Mg196 2.028 . S
O197 C200 1.250 . S
O198 Mg199 2.028 . S
O198 C200 1.248 . S
Mg199 O198 2.028 . S
Mg199 O204 2.032 . S
Mg199 O206 2.079 . S
C200 O197 1.250 . S
C200 O198 1.248 . S
C201 O202 1.264 . S
C201 O209 1.249 . S
O202 C201 1.264 . S
O203 Mg196 1.986 . S
O203 C207 1.246 . S
O204 Mg199 2.032 . S
O204 C207 1.259 . S
O205 Mg196 2.114 . S
O205 C208 1.252 . S
O206 Mg196 2.251 . S
O206 Mg199 2.079 . S
O206 C208 1.273 . S
C207 O203 1.246 . S
C207 O204 1.259 . S
C208 O205 1.252 . S
C208 O206 1.273 . S
O209 Mg196 2.010 . S
O209 C201 1.249 . S
Mg210 O211 2.028 . S
Mg210 O217 1.986 . S
Mg210 O219 2.114 . S
Mg210 O220 2.251 . S
Mg210 O223 2.010 . S
O211 Mg210 2.028 . S
O211 C214 1.250 . S
O212 Mg213 2.028 . S
O212 C214 1.248 . S
Mg213 O212 2.028 . S
Mg213 O218 2.032 . S
Mg213 O220 2.079 . S
C214 O211 1.250 . S
C214 O212 1.248 . S
C215 O216 1.264 . S
C215 O223 1.249 . S
O216 C215 1.264 . S
O217 Mg210 1.986 . S
O217 C221 1.246 . S
O218 Mg213 2.032 . S
O218 C221 1.259 . S
O219 Mg210 2.114 . S
O219 C222 1.252 . S
O220 Mg210 2.251 . S
O220 Mg213 2.079 . S
O220 C222 1.273 . S
C221 O217 1.246 . S
C221 O218 1.259 . S
C222 O219 1.252 . S
C222 O220 1.273 . S
O223 Mg210 2.010 . S
O223 C215 1.249 . S
Mg224 O225 2.028 . S
Mg224 O231 1.986 . S
Mg224 O233 2.114 . S
Mg224 O234 2.251 . S
Mg224 O237 2.010 . S
O225 Mg224 2.028 . S
O225 C228 1.250 . S
O226 Mg227 2.028 . S
O226 C228 1.248 . S
Mg227 O226 2.028 . S
Mg227 O232 2.032 . S
Mg227 O234 2.079 . S
C228 O225 1.250 . S
C228 O226 1.248 . S
C229 O230 1.264 . S
C229 O237 1.249 . S
O230 C229 1.264 . S
O231 Mg224 1.986 . S
O231 C235 1.246 1_545 S
O232 Mg227 2.032 . S
O232 C235 1.259 1_545 S
O233 Mg224 2.114 . S
O233 C236 1.252 . S
O234 Mg224 2.251 . S
O234 Mg227 2.079 . S
O234 C236 1.273 . S
C235 O231 1.246 1_565 S
C235 O232 1.259 1_565 S
C236 O233 1.252 . S
C236 O234 1.273 . S
O237 Mg224 2.010 . S
O237 C229 1.249 . S
Mg238 O239 2.028 . S
Mg238 O245 1.986 . S
Mg238 O247 2.114 . S
Mg238 O248 2.251 . S
Mg238 O251 2.006 . S
O239 Mg238 2.028 . S
O239 C242 1.250 . S
O240 Mg241 2.028 . S
O240 C242 1.248 . S
Mg241 O240 2.028 . S
Mg241 O246 2.032 . S
Mg241 O248 2.079 . S
C242 O239 1.250 . S
C242 O240 1.248 . S
C243 O244 1.264 . S
C243 O251 1.252 1_455 S
O244 C243 1.264 . S
O245 Mg238 1.986 . S
O245 C249 1.246 . S
O246 Mg241 2.032 . S
O246 C249 1.259 . S
O247 Mg238 2.114 . S
O247 C250 1.252 . S
O248 Mg238 2.251 . S
O248 Mg241 2.079 . S
O248 C250 1.273 . S
C249 O245 1.246 . S
C249 O246 1.259 . S
C250 O247 1.252 . S
C250 O248 1.273 . S
O251 Mg238 2.006 . S
O251 C243 1.252 1_655 S
H252 O278 0.856 1_556 S
H253 O281 0.854 . S
H254 C289 0.930 . S
H255 C290 0.930 . S
H256 C292 0.930 . S
H257 C293 0.930 . S
H258 C295 0.931 . S
H259 C296 0.930 . S
H260 C298 0.930 . S
H261 C299 0.929 . S
H262 C301 0.930 . S
H263 C302 0.931 . S
H264 C304 0.930 . S
H265 C305 0.929 . S
H266 C307 0.931 . S
H267 C308 0.930 . S
H268 C310 0.930 . S
H269 C311 0.932 . S
H270 C313 0.930 . S
H271 C314 0.929 . S
H272 C316 0.931 . S
H273 C317 0.930 . S
H274 C319 0.929 . S
H275 C320 0.931 . S
H276 C322 0.930 . S
H277 C323 0.929 . S
O278 H252 0.856 1_554 S
O278 C324 1.300 . S
O279 C324 1.209 . S
O280 C325 1.199 . S
O281 H253 0.854 . S
O281 C325 1.297 . S
C282 C283 1.404 . S
C282 C287 1.397 . S
C282 C288 1.492 . S
C283 C282 1.404 . S
C283 C284 1.396 . S
C283 C294 1.492 . S
C284 C283 1.396 . S
C284 C285 1.397 . S
C284 C300 1.509 . S
C285 C284 1.397 . S
C285 C286 1.412 . S
C285 C306 1.485 . S
C286 C285 1.412 . S
C286 C287 1.388 . S
C286 C312 1.490 . S
C287 C282 1.397 . S
C287 C286 1.388 . S
C287 C318 1.519 . S
C288 C282 1.492 . S
C288 C289 1.363 . S
C288 C293 1.390 . S
C289 H254 0.930 . S
C289 C288 1.363 . S
C289 C290 1.372 . S
C290 H255 0.930 . S
C290 C289 1.372 . S
C290 C291 1.383 . S
C291 C290 1.383 . S
C291 C292 1.395 . S
C292 H256 0.930 . S
C292 C291 1.395 . S
C292 C293 1.362 . S
C293 H257 0.930 . S
C293 C288 1.390 . S
C293 C292 1.362 . S
C294 C283 1.492 . S
C294 C295 1.377 . S
C294 C299 1.397 . S
C295 H258 0.931 . S
C295 C294 1.377 . S
C295 C296 1.376 . S
C296 H259 0.930 . S
C296 C295 1.376 . S
C296 C297 1.376 . S
C297 C296 1.376 . S
C297 C298 1.378 . S
C297 C324 1.486 . S
C298 H260 0.930 . S
C298 C297 1.378 . S
C298 C299 1.376 . S
C299 H261 0.929 . S
C299 C294 1.397 . S
C299 C298 1.376 . S
C300 C284 1.509 . S
C300 C301 1.391 . S
C300 C305 1.386 . S
C301 H262 0.930 . S
C301 C300 1.391 . S
C301 C302 1.375 . S
C302 H263 0.931 . S
C302 C301 1.375 . S
C302 C303 1.375 . S
C303 C302 1.375 . S
C303 C304 1.361 . S
C304 H264 0.930 . S
C304 C303 1.361 . S
C304 C305 1.399 . S
C305 H265 0.929 . S
C305 C300 1.386 . S
C305 C304 1.399 . S
C306 C285 1.485 . S
C306 C307 1.394 . S
C306 C311 1.360 . S
C307 H266 0.931 . S
C307 C306 1.394 . S
C307 C308 1.372 . S
C308 H267 0.930 . S
C308 C307 1.372 . S
C308 C309 1.397 . S
C309 C308 1.397 . S
C309 C310 1.390 . S
C309 C325 1.476 . S
C310 H268 0.930 . S
C310 C309 1.390 . S
C310 C311 1.366 . S
C311 H269 0.932 . S
C311 C306 1.360 . S
C311 C310 1.366 . S
C312 C286 1.490 . S
C312 C313 1.380 . S
C312 C317 1.386 . S
C313 H270 0.930 . S
C313 C312 1.380 . S
C313 C314 1.381 . S
C314 H271 0.929 . S
C314 C313 1.381 . S
C314 C315 1.371 . S
C315 C314 1.371 . S
C315 C316 1.380 . S
C316 H272 0.931 . S
C316 C315 1.380 . S
C316 C317 1.387 . S
C317 H273 0.930 . S
C317 C312 1.386 . S
C317 C316 1.387 . S
C318 C287 1.519 . S
C318 C319 1.377 . S
C318 C323 1.361 . S
C319 H274 0.929 . S
C319 C318 1.377 . S
C319 C320 1.386 . S
C320 H275 0.931 . S
C320 C319 1.386 . S
C320 C321 1.363 . S
C321 C320 1.363 . S
C321 C322 1.385 . S
C322 H276 0.930 . S
C322 C321 1.385 . S
C322 C323 1.396 . S
C323 H277 0.929 . S
C323 C318 1.361 . S
C323 C322 1.396 . S
C324 O278 1.300 . S
C324 O279 1.209 . S
C324 C297 1.486 . S
C325 O280 1.199 . S
C325 O281 1.297 . S
C325 C309 1.476 . S
H326 O352 0.856 . S
H327 O355 0.854 . S
H328 C363 0.930 . S
H329 C364 0.930 . S
H330 C366 0.930 . S
H331 C367 0.930 . S
H332 C369 0.931 . S
H333 C370 0.930 . S
H334 C372 0.930 . S
H335 C373 0.929 . S
H336 C375 0.930 . S
H337 C376 0.931 . S
H338 C378 0.930 . S
H339 C379 0.929 . S
H340 C381 0.931 . S
H341 C382 0.930 . S
H342 C384 0.930 . S
H343 C385 0.932 . S
H344 C387 0.930 . S
H345 C388 0.929 . S
H346 C390 0.931 . S
H347 C391 0.930 . S
H348 C393 0.929 . S
H349 C394 0.931 . S
H350 C396 0.930 . S
H351 C397 0.929 . S
O352 H326 0.856 . S
O352 C398 1.300 . S
O353 C398 1.209 . S
O354 C399 1.199 . S
O355 H327 0.854 . S
O355 C399 1.297 1_545 S
C356 C357 1.404 . S
C356 C361 1.397 . S
C356 C362 1.492 . S
C357 C356 1.404 . S
C357 C358 1.396 . S
C357 C368 1.492 . S
C358 C357 1.396 . S
C358 C359 1.397 . S
C358 C374 1.509 . S
C359 C358 1.397 . S
C359 C360 1.412 . S
C359 C380 1.485 . S
C360 C359 1.412 . S
C360 C361 1.388 . S
C360 C386 1.490 . S
C361 C356 1.397 . S
C361 C360 1.388 . S
C361 C392 1.519 . S
C362 C356 1.492 . S
C362 C363 1.363 . S
C362 C367 1.390 . S
C363 H328 0.930 . S
C363 C362 1.363 . S
C363 C364 1.372 . S
C364 H329 0.930 . S
C364 C363 1.372 . S
C364 C365 1.383 . S
C365 C364 1.383 . S
C365 C366 1.395 . S
C366 H330 0.930 . S
C366 C365 1.395 . S
C366 C367 1.362 . S
C367 H331 0.930 . S
C367 C362 1.390 . S
C367 C366 1.362 . S
C368 C357 1.492 . S
C368 C369 1.377 . S
C368 C373 1.397 . S
C369 H332 0.931 . S
C369 C368 1.377 . S
C369 C370 1.376 . S
C370 H333 0.930 . S
C370 C369 1.376 . S
C370 C371 1.376 . S
C371 C370 1.376 . S
C371 C372 1.378 . S
C371 C398 1.486 . S
C372 H334 0.930 . S
C372 C371 1.378 . S
C372 C373 1.376 . S
C373 H335 0.929 . S
C373 C368 1.397 . S
C373 C372 1.376 . S
C374 C358 1.509 . S
C374 C375 1.391 . S
C374 C379 1.386 . S
C375 H336 0.930 . S
C375 C374 1.391 . S
C375 C376 1.375 . S
C376 H337 0.931 . S
C376 C375 1.375 . S
C376 C377 1.375 . S
C377 C376 1.375 . S
C377 C378 1.361 . S
C378 H338 0.930 . S
C378 C377 1.361 . S
C378 C379 1.399 . S
C379 H339 0.929 . S
C379 C374 1.386 . S
C379 C378 1.399 . S
C380 C359 1.485 . S
C380 C381 1.394 . S
C380 C385 1.360 . S
C381 H340 0.931 . S
C381 C380 1.394 . S
C381 C382 1.372 . S
C382 H341 0.930 . S
C382 C381 1.372 . S
C382 C383 1.397 . S
C383 C382 1.397 . S
C383 C384 1.390 . S
C383 C399 1.476 . S
C384 H342 0.930 . S
C384 C383 1.390 . S
C384 C385 1.366 . S
C385 H343 0.932 . S
C385 C380 1.360 . S
C385 C384 1.366 . S
C386 C360 1.490 . S
C386 C387 1.380 . S
C386 C391 1.386 . S
C387 H344 0.930 . S
C387 C386 1.380 . S
C387 C388 1.381 . S
C388 H345 0.929 . S
C388 C387 1.381 . S
C388 C389 1.371 . S
C389 C388 1.371 . S
C389 C390 1.380 . S
C390 H346 0.931 . S
C390 C389 1.380 . S
C390 C391 1.387 . S
C391 H347 0.930 . S
C391 C386 1.386 . S
C391 C390 1.387 . S
C392 C361 1.519 . S
C392 C393 1.377 . S
C392 C397 1.361 . S
C393 H348 0.929 . S
C393 C392 1.377 . S
C393 C394 1.386 . S
C394 H349 0.931 . S
C394 C393 1.386 . S
C394 C395 1.363 . S
C395 C394 1.363 . S
C395 C396 1.385 . S
C396 H350 0.930 . S
C396 C395 1.385 . S
C396 C397 1.396 . S
C397 H351 0.929 . S
C397 C392 1.361 . S
C397 C396 1.396 . S
C398 O352 1.300 . S
C398 O353 1.209 . S
C398 C371 1.486 . S
C399 O354 1.199 . S
C399 O355 1.297 1_565 S
C399 C383 1.476 . S
H400 O426 0.856 . S
H401 O429 0.854 1_545 S
H402 C437 0.930 . S
H403 C438 0.930 . S
H404 C440 0.930 . S
H405 C441 0.930 . S
H406 C443 0.931 . S
H407 C444 0.930 . S
H408 C446 0.930 . S
H409 C447 0.929 . S
H410 C449 0.930 . S
H411 C450 0.931 . S
H412 C452 0.930 . S
H413 C453 0.929 . S
H414 C455 0.931 . S
H415 C456 0.930 . S
H416 C458 0.930 . S
H417 C459 0.932 . S
H418 C461 0.930 . S
H419 C462 0.929 . S
H420 C464 0.931 . S
H421 C465 0.930 . S
H422 C467 0.929 . S
H423 C468 0.931 . S
H424 C470 0.930 . S
H425 C471 0.929 . S
O426 H400 0.856 . S
O426 C472 1.300 . S
O427 C472 1.209 . S
O428 C473 1.199 1_545 S
O429 H401 0.854 1_565 S
O429 C473 1.297 . S
C430 C431 1.404 . S
C430 C435 1.397 . S
C430 C436 1.492 . S
C431 C430 1.404 . S
C431 C432 1.396 . S
C431 C442 1.492 . S
C432 C431 1.396 . S
C432 C433 1.397 . S
C432 C448 1.509 . S
C433 C432 1.397 . S
C433 C434 1.412 . S
C433 C454 1.485 . S
C434 C433 1.412 . S
C434 C435 1.388 . S
C434 C460 1.490 . S
C435 C430 1.397 . S
C435 C434 1.388 . S
C435 C466 1.519 . S
C436 C430 1.492 . S
C436 C437 1.363 . S
C436 C441 1.390 . S
C437 H402 0.930 . S
C437 C436 1.363 . S
C437 C438 1.372 . S
C438 H403 0.930 . S
C438 C437 1.372 . S
C438 C439 1.383 . S
C439 C438 1.383 . S
C439 C440 1.395 . S
C440 H404 0.930 . S
C440 C439 1.395 . S
C440 C441 1.362 . S
C441 H405 0.930 . S
C441 C436 1.390 . S
C441 C440 1.362 . S
C442 C431 1.492 . S
C442 C443 1.377 . S
C442 C447 1.397 . S
C443 H406 0.931 . S
C443 C442 1.377 . S
C443 C444 1.376 . S
C444 H407 0.930 . S
C444 C443 1.376 . S
C444 C445 1.376 . S
C445 C444 1.376 . S
C445 C446 1.378 . S
C445 C472 1.486 . S
C446 H408 0.930 . S
C446 C445 1.378 . S
C446 C447 1.376 . S
C447 H409 0.929 . S
C447 C442 1.397 . S
C447 C446 1.376 . S
C448 C432 1.509 . S
C448 C449 1.391 . S
C448 C453 1.386 . S
C449 H410 0.930 . S
C449 C448 1.391 . S
C449 C450 1.375 . S
C450 H411 0.931 . S
C450 C449 1.375 . S
C450 C451 1.375 . S
C451 C450 1.375 . S
C451 C452 1.361 . S
C452 H412 0.930 . S
C452 C451 1.361 . S
C452 C453 1.399 . S
C453 H413 0.929 . S
C453 C448 1.386 . S
C453 C452 1.399 . S
C454 C433 1.485 . S
C454 C455 1.394 . S
C454 C459 1.360 . S
C455 H414 0.931 . S
C455 C454 1.394 . S
C455 C456 1.372 . S
C456 H415 0.930 . S
C456 C455 1.372 . S
C456 C457 1.397 . S
C457 C456 1.397 . S
C457 C458 1.390 . S
C457 C473 1.476 . S
C458 H416 0.930 . S
C458 C457 1.390 . S
C458 C459 1.366 . S
C459 H417 0.932 . S
C459 C454 1.360 . S
C459 C458 1.366 . S
C460 C434 1.490 . S
C460 C461 1.380 . S
C460 C465 1.386 . S
C461 H418 0.930 . S
C461 C460 1.380 . S
C461 C462 1.381 . S
C462 H419 0.929 . S
C462 C461 1.381 . S
C462 C463 1.371 . S
C463 C462 1.371 . S
C463 C464 1.380 . S
C464 H420 0.931 . S
C464 C463 1.380 . S
C464 C465 1.387 . S
C465 H421 0.930 . S
C465 C460 1.386 . S
C465 C464 1.387 . S
C466 C435 1.519 . S
C466 C467 1.377 . S
C466 C471 1.361 . S
C467 H422 0.929 . S
C467 C466 1.377 . S
C467 C468 1.386 . S
C468 H423 0.931 . S
C468 C467 1.386 . S
C468 C469 1.363 . S
C469 C468 1.363 . S
C469 C470 1.385 . S
C470 H424 0.930 . S
C470 C469 1.385 . S
C470 C471 1.396 . S
C471 H425 0.929 . S
C471 C466 1.361 . S
C471 C470 1.396 . S
C472 O426 1.300 . S
C472 O427 1.209 . S
C472 C445 1.486 . S
C473 O428 1.199 1_565 S
C473 O429 1.297 . S
C473 C457 1.476 . S
H474 O500 0.856 . S
H475 O503 0.854 . S
H476 C511 0.930 . S
H477 C512 0.930 . S
H478 C514 0.930 . S
H479 C515 0.930 . S
H480 C517 0.931 . S
H481 C518 0.930 1_554 S
H482 C520 0.930 . S
H483 C521 0.929 . S
H484 C523 0.930 . S
H485 C524 0.931 . S
H486 C526 0.930 . S
H487 C527 0.929 . S
H488 C529 0.931 . S
H489 C530 0.930 . S
H490 C532 0.930 . S
H491 C533 0.932 . S
H492 C535 0.930 . S
H493 C536 0.929 . S
H494 C538 0.931 . S
H495 C539 0.930 . S
H496 C541 0.929 . S
H497 C542 0.931 . S
H498 C544 0.930 . S
H499 C545 0.929 . S
O500 H474 0.856 . S
O500 C546 1.300 . S
O501 C546 1.209 . S
O502 C547 1.199 . S
O503 H475 0.854 . S
O503 C547 1.297 . S
C504 C505 1.404 . S
C504 C509 1.397 . S
C504 C510 1.492 . S
C505 C504 1.404 . S
C505 C506 1.396 . S
C505 C516 1.492 . S
C506 C505 1.396 . S
C506 C507 1.397 . S
C506 C522 1.509 . S
C507 C506 1.397 . S
C507 C508 1.412 . S
C507 C528 1.485 . S
C508 C507 1.412 . S
C508 C509 1.388 . S
C508 C534 1.490 . S
C509 C504 1.397 . S
C509 C508 1.388 . S
C509 C540 1.519 . S
C510 C504 1.492 . S
C510 C511 1.363 . S
C510 C515 1.390 . S
C511 H476 0.930 . S
C511 C510 1.363 . S
C511 C512 1.372 . S
C512 H477 0.930 . S
C512 C511 1.372 . S
C512 C513 1.383 . S
C513 C512 1.383 . S
C513 C514 1.395 . S
C514 H478 0.930 . S
C514 C513 1.395 . S
C514 C515 1.362 . S
C515 H479 0.930 . S
C515 C510 1.390 . S
C515 C514 1.362 . S
C516 C505 1.492 . S
C516 C517 1.377 . S
C516 C521 1.397 . S
C517 H480 0.931 . S
C517 C516 1.377 . S
C517 C518 1.376 . S
C518 H481 0.930 1_556 S
C518 C517 1.376 . S
C518 C519 1.376 1_556 S
C519 C518 1.376 1_554 S
C519 C520 1.378 1_554 S
C519 C546 1.486 . S
C520 H482 0.930 . S
C520 C519 1.378 1_556 S
C520 C521 1.376 . S
C521 H483 0.929 . S
C521 C516 1.397 . S
C521 C520 1.376 . S
C522 C506 1.509 . S
C522 C523 1.391 . S
C522 C527 1.386 . S
C523 H484 0.930 . S
C523 C522 1.391 . S
C523 C524 1.375 . S
C524 H485 0.931 . S
C524 C523 1.375 . S
C524 C525 1.375 . S
C525 C524 1.375 . S
C525 C526 1.361 . S
C526 H486 0.930 . S
C526 C525 1.361 . S
C526 C527 1.399 . S
C527 H487 0.929 . S
C527 C522 1.386 . S
C527 C526 1.399 . S
C528 C507 1.485 . S
C528 C529 1.394 . S
C528 C533 1.360 . S
C529 H488 0.931 . S
C529 C528 1.394 . S
C529 C530 1.372 . S
C530 H489 0.930 . S
C530 C529 1.372 . S
C530 C531 1.397 . S
C531 C530 1.397 . S
C531 C532 1.390 . S
C531 C547 1.476 . S
C532 H490 0.930 . S
C532 C531 1.390 . S
C532 C533 1.366 . S
C533 H491 0.932 . S
C533 C528 1.360 . S
C533 C532 1.366 . S
C534 C508 1.490 . S
C534 C535 1.380 . S
C534 C539 1.386 . S
C535 H492 0.930 . S
C535 C534 1.380 . S
C535 C536 1.381 . S
C536 H493 0.929 . S
C536 C535 1.381 . S
C536 C537 1.371 . S
C537 C536 1.371 . S
C537 C538 1.380 . S
C538 H494 0.931 . S
C538 C537 1.380 . S
C538 C539 1.387 . S
C539 H495 0.930 . S
C539 C534 1.386 . S
C539 C538 1.387 . S
C540 C509 1.519 . S
C540 C541 1.377 . S
C540 C545 1.361 . S
C541 H496 0.929 . S
C541 C540 1.377 . S
C541 C542 1.386 . S
C542 H497 0.931 . S
C542 C541 1.386 . S
C542 C543 1.363 . S
C543 C542 1.363 . S
C543 C544 1.385 . S
C544 H498 0.930 . S
C544 C543 1.385 . S
C544 C545 1.396 . S
C545 H499 0.929 . S
C545 C540 1.361 . S
C545 C544 1.396 . S
C546 O500 1.300 . S
C546 O501 1.209 . S
C546 C519 1.486 . S
C547 O502 1.199 . S
C547 O503 1.297 . S
C547 C531 1.476 . S
H548 O574 0.856 . S
H549 O577 0.870 . S
H550 C585 0.930 . S
H551 C586 0.930 . S
H552 C588 0.930 . S
H553 C589 0.930 . S
H554 C591 0.931 . S
H555 C592 0.930 . S
H556 C594 0.930 . S
H557 C595 0.929 . S
H558 C597 0.930 . S
H559 C598 0.931 . S
H560 C600 0.930 . S
H561 C601 0.929 . S
H562 C603 0.931 . S
H563 C604 0.930 . S
H564 C606 0.930 . S
H565 C607 0.932 . S
H566 C609 0.930 . S
H567 C610 0.929 . S
H568 C612 0.931 . S
H569 C613 0.930 . S
H570 C615 0.929 . S
H571 C616 0.931 . S
H572 C618 0.930 . S
H573 C619 0.929 . S
O574 H548 0.856 . S
O574 C620 1.300 . S
O575 C620 1.209 . S
O576 C621 1.199 . S
O577 H549 0.870 . S
O577 C621 1.254 1_565 S
C578 C579 1.404 . S
C578 C583 1.397 . S
C578 C584 1.492 . S
C579 C578 1.404 . S
C579 C580 1.396 . S
C579 C590 1.492 . S
C580 C579 1.396 . S
C580 C581 1.397 . S
C580 C596 1.509 . S
C581 C580 1.397 . S
C581 C582 1.412 . S
C581 C602 1.485 . S
C582 C581 1.412 . S
C582 C583 1.388 . S
C582 C608 1.490 . S
C583 C578 1.397 . S
C583 C582 1.388 . S
C583 C614 1.519 . S
C584 C578 1.492 . S
C584 C585 1.363 . S
C584 C589 1.390 . S
C585 H550 0.930 . S
C585 C584 1.363 . S
C585 C586 1.372 . S
C586 H551 0.930 . S
C586 C585 1.372 . S
C586 C587 1.383 . S
C587 C586 1.383 . S
C587 C588 1.395 . S
C588 H552 0.930 . S
C588 C587 1.395 . S
C588 C589 1.362 . S
C589 H553 0.930 . S
C589 C584 1.390 . S
C589 C588 1.362 . S
C590 C579 1.492 . S
C590 C591 1.377 . S
C590 C595 1.397 . S
C591 H554 0.931 . S
C591 C590 1.377 . S
C591 C592 1.376 1_556 S
C592 H555 0.930 . S
C592 C591 1.376 1_554 S
C592 C593 1.376 . S
C593 C592 1.376 . S
C593 C594 1.378 . S
C593 C620 1.486 . S
C594 H556 0.930 . S
C594 C593 1.378 . S
C594 C595 1.376 1_554 S
C595 H557 0.929 . S
C595 C590 1.397 . S
C595 C594 1.376 1_556 S
C596 C580 1.509 . S
C596 C597 1.391 . S
C596 C601 1.386 . S
C597 H558 0.930 . S
C597 C596 1.391 . S
C597 C598 1.375 . S
C598 H559 0.931 . S
C598 C597 1.375 . S
C598 C599 1.375 . S
C599 C598 1.375 . S
C599 C600 1.361 . S
C600 H560 0.930 . S
C600 C599 1.361 . S
C600 C601 1.399 . S
C601 H561 0.929 . S
C601 C596 1.386 . S
C601 C600 1.399 . S
C602 C581 1.485 . S
C602 C603 1.394 . S
C602 C607 1.360 . S
C603 H562 0.931 . S
C603 C602 1.394 . S
C603 C604 1.372 . S
C604 H563 0.930 . S
C604 C603 1.372 . S
C604 C605 1.397 . S
C605 C604 1.397 . S
C605 C606 1.390 . S
C605 C621 1.476 . S
C606 H564 0.930 . S
C606 C605 1.390 . S
C606 C607 1.366 . S
C607 H565 0.932 . S
C607 C602 1.360 . S
C607 C606 1.366 . S
C608 C582 1.490 . S
C608 C609 1.380 . S
C608 C613 1.386 . S
C609 H566 0.930 . S
C609 C608 1.380 . S
C609 C610 1.381 . S
C610 H567 0.929 . S
C610 C609 1.381 . S
C610 C611 1.371 . S
C611 C610 1.371 . S
C611 C612 1.380 . S
C612 H568 0.931 . S
C612 C611 1.380 . S
C612 C613 1.387 . S
C613 H569 0.930 . S
C613 C608 1.386 . S
C613 C612 1.387 . S
C614 C583 1.519 . S
C614 C615 1.377 . S
C614 C619 1.361 . S
C615 H570 0.929 . S
C615 C614 1.377 . S
C615 C616 1.386 . S
C616 H571 0.931 . S
C616 C615 1.386 . S
C616 C617 1.363 . S
C617 C616 1.363 . S
C617 C618 1.385 . S
C618 H572 0.930 . S
C618 C617 1.385 . S
C618 C619 1.396 . S
C619 H573 0.929 . S
C619 C614 1.361 . S
C619 C618 1.396 . S
C620 O574 1.300 . S
C620 O575 1.209 . S
C620 C593 1.486 . S
C621 O576 1.199 . S
C621 O577 1.254 1_545 S
C621 C605 1.476 . S
H622 O648 0.856 . S
H623 O651 0.854 . S
H624 C659 0.930 . S
H625 C660 0.930 . S
H626 C662 0.930 . S
H627 C663 0.930 . S
H628 C665 0.931 . S
H629 C666 0.930 . S
H630 C668 0.930 . S
H631 C669 0.929 . S
H632 C671 0.930 . S
H633 C672 0.931 . S
H634 C674 0.930 . S
H635 C675 0.929 . S
H636 C677 0.931 . S
H637 C678 0.930 . S
H638 C680 0.930 . S
H639 C681 0.932 . S
H640 C683 0.930 . S
H641 C684 0.929 . S
H642 C686 0.931 . S
H643 C687 0.930 . S
H644 C689 0.929 . S
H645 C690 0.931 . S
H646 C692 0.930 . S
H647 C693 0.929 . S
O648 H622 0.856 . S
O648 C694 1.300 . S
O649 C694 1.209 . S
O650 C695 1.199 . S
O651 H623 0.854 . S
O651 C695 1.297 . S
C652 C653 1.404 . S
C652 C657 1.397 . S
C652 C658 1.492 . S
C653 C652 1.404 . S
C653 C654 1.396 . S
C653 C664 1.492 . S
C654 C653 1.396 . S
C654 C655 1.397 . S
C654 C670 1.509 . S
C655 C654 1.397 . S
C655 C656 1.412 . S
C655 C676 1.485 . S
C656 C655 1.412 . S
C656 C657 1.388 . S
C656 C682 1.490 . S
C657 C652 1.397 . S
C657 C656 1.388 . S
C657 C688 1.519 . S
C658 C652 1.492 . S
C658 C659 1.363 . S
C658 C663 1.390 . S
C659 H624 0.930 . S
C659 C658 1.363 . S
C659 C660 1.372 . S
C660 H625 0.930 . S
C660 C659 1.372 . S
C660 C661 1.383 . S
C661 C660 1.383 . S
C661 C662 1.395 . S
C662 H626 0.930 . S
C662 C661 1.395 . S
C662 C663 1.362 . S
C663 H627 0.930 . S
C663 C658 1.390 . S
C663 C662 1.362 . S
C664 C653 1.492 . S
C664 C665 1.377 . S
C664 C669 1.397 . S
C665 H628 0.931 . S
C665 C664 1.377 . S
C665 C666 1.376 1_556 S
C666 H629 0.930 . S
C666 C665 1.376 1_554 S
C666 C667 1.376 . S
C667 C666 1.376 . S
C667 C668 1.378 . S
C667 C694 1.486 . S
C668 H630 0.930 . S
C668 C667 1.378 . S
C668 C669 1.376 1_554 S
C669 H631 0.929 . S
C669 C664 1.397 . S
C669 C668 1.376 1_556 S
C670 C654 1.509 . S
C670 C671 1.391 . S
C670 C675 1.386 . S
C671 H632 0.930 . S
C671 C670 1.391 . S
C671 C672 1.375 . S
C672 H633 0.931 . S
C672 C671 1.375 . S
C672 C673 1.375 . S
C673 C672 1.375 . S
C673 C674 1.361 . S
C674 H634 0.930 . S
C674 C673 1.361 . S
C674 C675 1.399 . S
C675 H635 0.929 . S
C675 C670 1.386 . S
C675 C674 1.399 . S
C676 C655 1.485 . S
C676 C677 1.394 . S
C676 C681 1.360 . S
C677 H636 0.931 . S
C677 C676 1.394 . S
C677 C678 1.372 . S
C678 H637 0.930 . S
C678 C677 1.372 . S
C678 C679 1.397 . S
C679 C678 1.397 . S
C679 C680 1.390 . S
C679 C695 1.476 . S
C680 H638 0.930 . S
C680 C679 1.390 . S
C680 C681 1.366 . S
C681 H639 0.932 . S
C681 C676 1.360 . S
C681 C680 1.366 . S
C682 C656 1.490 . S
C682 C683 1.380 . S
C682 C687 1.386 . S
C683 H640 0.930 . S
C683 C682 1.380 . S
C683 C684 1.381 . S
C684 H641 0.929 . S
C684 C683 1.381 . S
C684 C685 1.371 . S
C685 C684 1.371 . S
C685 C686 1.380 . S
C686 H642 0.931 . S
C686 C685 1.380 . S
C686 C687 1.387 . S
C687 H643 0.930 . S
C687 C682 1.386 . S
C687 C686 1.387 . S
C688 C657 1.519 . S
C688 C689 1.377 . S
C688 C693 1.361 . S
C689 H644 0.929 . S
C689 C688 1.377 . S
C689 C690 1.386 . S
C690 H645 0.931 . S
C690 C689 1.386 . S
C690 C691 1.363 . S
C691 C690 1.363 . S
C691 C692 1.385 . S
C692 H646 0.930 . S
C692 C691 1.385 . S
C692 C693 1.396 . S
C693 H647 0.929 . S
C693 C688 1.361 . S
C693 C692 1.396 . S
C694 O648 1.300 . S
C694 O649 1.209 . S
C694 C667 1.486 . S
C695 O650 1.199 . S
C695 O651 1.297 . S
C695 C679 1.476 . S
H696 O722 0.856 . S
H697 O725 0.854 . S
H698 C733 0.930 . S
H699 C734 0.930 . S
H700 C736 0.930 . S
H701 C737 0.930 . S
H702 C739 0.931 . S
H703 C740 0.930 . S
H704 C742 0.930 . S
H705 C743 0.929 . S
H706 C745 0.930 . S
H707 C746 0.931 . S
H708 C748 0.930 . S
H709 C749 0.929 . S
H710 C751 0.931 . S
H711 C752 0.930 . S
H712 C754 0.930 . S
H713 C755 0.932 . S
H714 C757 0.930 . S
H715 C758 0.929 . S
H716 C760 0.931 . S
H717 C761 0.930 . S
H718 C763 0.929 . S
H719 C764 0.931 . S
H720 C766 0.930 . S
H721 C767 0.929 . S
O722 H696 0.856 . S
O722 C768 1.300 . S
O723 C768 1.209 . S
O724 C769 1.199 . S
O725 H697 0.854 . S
O725 C769 1.297 . S
C726 C727 1.404 . S
C726 C731 1.397 . S
C726 C732 1.492 . S
C727 C726 1.404 . S
C727 C728 1.396 . S
C727 C738 1.492 . S
C728 C727 1.396 . S
C728 C729 1.397 . S
C728 C744 1.509 . S
C729 C728 1.397 . S
C729 C730 1.412 . S
C729 C750 1.485 . S
C730 C729 1.412 . S
C730 C731 1.388 . S
C730 C756 1.490 . S
C731 C726 1.397 . S
C731 C730 1.388 . S
C731 C762 1.519 . S
C732 C726 1.492 . S
C732 C733 1.363 . S
C732 C737 1.390 . S
C733 H698 0.930 . S
C733 C732 1.363 . S
C733 C734 1.372 . S
C734 H699 0.930 . S
C734 C733 1.372 . S
C734 C735 1.383 . S
C735 C734 1.383 . S
C735 C736 1.395 . S
C736 H700 0.930 . S
C736 C735 1.395 . S
C736 C737 1.362 . S
C737 H701 0.930 . S
C737 C732 1.390 . S
C737 C736 1.362 . S
C738 C727 1.492 . S
C738 C739 1.377 . S
C738 C743 1.397 . S
C739 H702 0.931 . S
C739 C738 1.377 . S
C739 C740 1.376 . S
C740 H703 0.930 . S
C740 C739 1.376 . S
C740 C741 1.376 . S
C741 C740 1.376 . S
C741 C742 1.378 . S
C741 C768 1.486 . S
C742 H704 0.930 . S
C742 C741 1.378 . S
C742 C743 1.376 . S
C743 H705 0.929 . S
C743 C738 1.397 . S
C743 C742 1.376 . S
C744 C728 1.509 . S
C744 C745 1.391 . S
C744 C749 1.386 . S
C745 H706 0.930 . S
C745 C744 1.391 . S
C745 C746 1.375 . S
C746 H707 0.931 . S
C746 C745 1.375 . S
C746 C747 1.375 . S
C747 C746 1.375 . S
C747 C748 1.361 . S
C748 H708 0.930 . S
C748 C747 1.361 . S
C748 C749 1.399 . S
C749 H709 0.929 . S
C749 C744 1.386 . S
C749 C748 1.399 . S
C750 C729 1.485 . S
C750 C751 1.394 . S
C750 C755 1.360 . S
C751 H710 0.931 . S
C751 C750 1.394 . S
C751 C752 1.372 . S
C752 H711 0.930 . S
C752 C751 1.372 . S
C752 C753 1.397 . S
C753 C752 1.397 . S
C753 C754 1.390 . S
C753 C769 1.476 . S
C754 H712 0.930 . S
C754 C753 1.390 . S
C754 C755 1.366 . S
C755 H713 0.932 . S
C755 C750 1.360 . S
C755 C754 1.366 . S
C756 C730 1.490 . S
C756 C757 1.380 . S
C756 C761 1.386 . S
C757 H714 0.930 . S
C757 C756 1.380 . S
C757 C758 1.381 . S
C758 H715 0.929 . S
C758 C757 1.381 . S
C758 C759 1.371 . S
C759 C758 1.371 . S
C759 C760 1.380 . S
C760 H716 0.931 . S
C760 C759 1.380 . S
C760 C761 1.387 . S
C761 H717 0.930 . S
C761 C756 1.386 . S
C761 C760 1.387 . S
C762 C731 1.519 . S
C762 C763 1.377 . S
C762 C767 1.361 . S
C763 H718 0.929 . S
C763 C762 1.377 . S
C763 C764 1.386 . S
C764 H719 0.931 . S
C764 C763 1.386 . S
C764 C765 1.363 . S
C765 C764 1.363 . S
C765 C766 1.385 . S
C766 H720 0.930 . S
C766 C765 1.385 . S
C766 C767 1.396 . S
C767 H721 0.929 . S
C767 C762 1.361 . S
C767 C766 1.396 . S
C768 O722 1.300 . S
C768 O723 1.209 . S
C768 C741 1.486 . S
C769 O724 1.199 . S
C769 O725 1.297 . S
C769 C753 1.476 . S
H770 O796 0.856 . S
H771 O799 0.854 . S
H772 C807 0.930 . S
H773 C808 0.930 . S
H774 C810 0.930 . S
H775 C811 0.930 . S
H776 C813 0.931 . S
H777 C814 0.930 . S
H778 C816 0.930 . S
H779 C817 0.929 . S
H780 C819 0.930 . S
H781 C820 0.931 . S
H782 C822 0.930 . S
H783 C823 0.929 . S
H784 C825 0.931 . S
H785 C826 0.930 . S
H786 C828 0.930 . S
H787 C829 0.932 . S
H788 C831 0.930 . S
H789 C832 0.929 . S
H790 C834 0.931 . S
H791 C835 0.930 . S
H792 C837 0.929 . S
H793 C838 0.931 . S
H794 C840 0.930 . S
H795 C841 0.929 . S
O796 H770 0.856 . S
O796 C842 1.300 . S
O797 C842 1.209 . S
O798 C843 1.199 . S
O799 H771 0.854 . S
O799 C843 1.297 . S
C800 C801 1.404 . S
C800 C805 1.397 . S
C800 C806 1.492 . S
C801 C800 1.404 . S
C801 C802 1.396 . S
C801 C812 1.492 . S
C802 C801 1.396 . S
C802 C803 1.397 . S
C802 C818 1.509 . S
C803 C802 1.397 . S
C803 C804 1.412 . S
C803 C824 1.485 . S
C804 C803 1.412 . S
C804 C805 1.388 . S
C804 C830 1.490 . S
C805 C800 1.397 . S
C805 C804 1.388 . S
C805 C836 1.519 . S
C806 C800 1.492 . S
C806 C807 1.363 . S
C806 C811 1.390 . S
C807 H772 0.930 . S
C807 C806 1.363 . S
C807 C808 1.372 . S
C808 H773 0.930 . S
C808 C807 1.372 . S
C808 C809 1.383 . S
C809 C808 1.383 . S
C809 C810 1.395 . S
C810 H774 0.930 . S
C810 C809 1.395 . S
C810 C811 1.362 . S
C811 H775 0.930 . S
C811 C806 1.390 . S
C811 C810 1.362 . S
C812 C801 1.492 . S
C812 C813 1.377 . S
C812 C817 1.397 . S
C813 H776 0.931 . S
C813 C812 1.377 . S
C813 C814 1.376 . S
C814 H777 0.930 . S
C814 C813 1.376 . S
C814 C815 1.376 . S
C815 C814 1.376 . S
C815 C816 1.378 . S
C815 C842 1.486 . S
C816 H778 0.930 . S
C816 C815 1.378 . S
C816 C817 1.376 . S
C817 H779 0.929 . S
C817 C812 1.397 . S
C817 C816 1.376 . S
C818 C802 1.509 . S
C818 C819 1.391 . S
C818 C823 1.386 . S
C819 H780 0.930 . S
C819 C818 1.391 . S
C819 C820 1.375 . S
C820 H781 0.931 . S
C820 C819 1.375 . S
C820 C821 1.375 . S
C821 C820 1.375 . S
C821 C822 1.361 . S
C822 H782 0.930 . S
C822 C821 1.361 . S
C822 C823 1.399 . S
C823 H783 0.929 . S
C823 C818 1.386 . S
C823 C822 1.399 . S
C824 C803 1.485 . S
C824 C825 1.394 . S
C824 C829 1.360 . S
C825 H784 0.931 . S
C825 C824 1.394 . S
C825 C826 1.372 . S
C826 H785 0.930 . S
C826 C825 1.372 . S
C826 C827 1.397 . S
C827 C826 1.397 . S
C827 C828 1.390 . S
C827 C843 1.476 . S
C828 H786 0.930 . S
C828 C827 1.390 . S
C828 C829 1.366 . S
C829 H787 0.932 . S
C829 C824 1.360 . S
C829 C828 1.366 . S
C830 C804 1.490 . S
C830 C831 1.380 . S
C830 C835 1.386 . S
C831 H788 0.930 . S
C831 C830 1.380 . S
C831 C832 1.381 . S
C832 H789 0.929 . S
C832 C831 1.381 . S
C832 C833 1.371 . S
C833 C832 1.371 . S
C833 C834 1.380 . S
C834 H790 0.931 . S
C834 C833 1.380 . S
C834 C835 1.387 . S
C835 H791 0.930 . S
C835 C830 1.386 . S
C835 C834 1.387 . S
C836 C805 1.519 . S
C836 C837 1.377 . S
C836 C841 1.361 . S
C837 H792 0.929 . S
C837 C836 1.377 . S
C837 C838 1.386 . S
C838 H793 0.931 . S
C838 C837 1.386 . S
C838 C839 1.363 . S
C839 C838 1.363 . S
C839 C840 1.385 . S
C840 H794 0.930 . S
C840 C839 1.385 . S
C840 C841 1.396 . S
C841 H795 0.929 . S
C841 C836 1.361 . S
C841 C840 1.396 . S
C842 O796 1.300 . S
C842 O797 1.209 . S
C842 C815 1.486 . S
C843 O798 1.199 . S
C843 O799 1.297 . S
C843 C827 1.476 . S
H844 O870 0.856 . S
H845 O873 0.854 . S
H846 C881 0.930 . S
H847 C882 0.930 . S
H848 C884 0.930 . S
H849 C885 0.930 . S
H850 C887 0.931 . S
H851 C888 0.930 . S
H852 C890 0.930 . S
H853 C891 0.929 . S
H854 C893 0.930 . S
H855 C894 0.931 . S
H856 C896 0.930 . S
H857 C897 0.929 . S
H858 C899 0.931 . S
H859 C900 0.930 . S
H860 C902 0.930 . S
H861 C903 0.932 . S
H862 C905 0.930 . S
H863 C906 0.929 . S
H864 C908 0.931 . S
H865 C909 0.930 . S
H866 C911 0.929 . S
H867 C912 0.931 . S
H868 C914 0.930 . S
H869 C915 0.929 . S
O870 H844 0.856 . S
O870 C916 1.300 . S
O871 C916 1.209 . S
O872 C917 1.199 . S
O873 H845 0.854 . S
O873 C917 1.297 . S
C874 C875 1.404 . S
C874 C879 1.397 . S
C874 C880 1.492 . S
C875 C874 1.404 . S
C875 C876 1.396 . S
C875 C886 1.492 . S
C876 C875 1.396 . S
C876 C877 1.397 . S
C876 C892 1.509 . S
C877 C876 1.397 . S
C877 C878 1.412 . S
C877 C898 1.485 . S
C878 C877 1.412 . S
C878 C879 1.388 . S
C878 C904 1.490 . S
C879 C874 1.397 . S
C879 C878 1.388 . S
C879 C910 1.519 . S
C880 C874 1.492 . S
C880 C881 1.363 . S
C880 C885 1.390 . S
C881 H846 0.930 . S
C881 C880 1.363 . S
C881 C882 1.372 . S
C882 H847 0.930 . S
C882 C881 1.372 . S
C882 C883 1.383 . S
C883 C882 1.383 . S
C883 C884 1.395 . S
C884 H848 0.930 . S
C884 C883 1.395 . S
C884 C885 1.362 . S
C885 H849 0.930 . S
C885 C880 1.390 . S
C885 C884 1.362 . S
C886 C875 1.492 . S
C886 C887 1.377 . S
C886 C891 1.397 . S
C887 H850 0.931 . S
C887 C886 1.377 . S
C887 C888 1.376 . S
C888 H851 0.930 . S
C888 C887 1.376 . S
C888 C889 1.376 . S
C889 C888 1.376 . S
C889 C890 1.378 . S
C889 C916 1.486 . S
C890 H852 0.930 . S
C890 C889 1.378 . S
C890 C891 1.376 . S
C891 H853 0.929 . S
C891 C886 1.397 . S
C891 C890 1.376 . S
C892 C876 1.509 . S
C892 C893 1.391 . S
C892 C897 1.386 . S
C893 H854 0.930 . S
C893 C892 1.391 . S
C893 C894 1.375 . S
C894 H855 0.931 . S
C894 C893 1.375 . S
C894 C895 1.375 . S
C895 C894 1.375 . S
C895 C896 1.361 . S
C896 H856 0.930 . S
C896 C895 1.361 . S
C896 C897 1.399 . S
C897 H857 0.929 . S
C897 C892 1.386 . S
C897 C896 1.399 . S
C898 C877 1.485 . S
C898 C899 1.394 . S
C898 C903 1.360 . S
C899 H858 0.931 . S
C899 C898 1.394 . S
C899 C900 1.372 . S
C900 H859 0.930 . S
C900 C899 1.372 . S
C900 C901 1.397 . S
C901 C900 1.397 . S
C901 C902 1.390 . S
C901 C917 1.476 . S
C902 H860 0.930 . S
C902 C901 1.390 . S
C902 C903 1.366 . S
C903 H861 0.932 . S
C903 C898 1.360 . S
C903 C902 1.366 . S
C904 C878 1.490 . S
C904 C905 1.380 . S
C904 C909 1.386 . S
C905 H862 0.930 . S
C905 C904 1.380 . S
C905 C906 1.381 . S
C906 H863 0.929 . S
C906 C905 1.381 . S
C906 C907 1.371 . S
C907 C906 1.371 . S
C907 C908 1.380 . S
C908 H864 0.931 . S
C908 C907 1.380 . S
C908 C909 1.387 . S
C909 H865 0.930 . S
C909 C904 1.386 . S
C909 C908 1.387 . S
C910 C879 1.519 . S
C910 C911 1.377 . S
C910 C915 1.361 . S
C911 H866 0.929 . S
C911 C910 1.377 . S
C911 C912 1.386 . S
C912 H867 0.931 . S
C912 C911 1.386 . S
C912 C913 1.363 . S
C913 C912 1.363 . S
C913 C914 1.385 . S
C914 H868 0.930 . S
C914 C913 1.385 . S
C914 C915 1.396 . S
C915 H869 0.929 . S
C915 C910 1.361 . S
C915 C914 1.396 . S
C916 O870 1.300 . S
C916 O871 1.209 . S
C916 C889 1.486 . S
C917 O872 1.199 . S
C917 O873 1.297 . S
C917 C901 1.476 . S
H918 O944 0.856 . S
H919 O947 0.854 . S
H920 C955 0.930 . S
H921 C956 0.930 . S
H922 C958 0.930 . S
H923 C959 0.930 . S
H924 C961 0.931 . S
H925 C962 0.930 1_655 S
H926 C964 0.930 . S
H927 C965 0.929 . S
H928 C967 0.930 . S
H929 C968 0.923 1_655 S
H930 C970 0.930 . S
H931 C971 0.929 . S
H932 C973 0.931 . S
H933 C974 0.930 . S
H934 C976 0.930 . S
H935 C977 0.932 . S
H936 C979 0.930 . S
H937 C980 0.929 . S
H938 C982 0.931 . S
H939 C983 0.930 . S
H940 C985 0.929 . S
H941 C986 0.931 . S
H942 C988 0.930 . S
H943 C989 0.929 . S
O944 H918 0.856 . S
O944 C990 1.300 . S
O945 C990 1.209 . S
O946 C991 1.199 1_655 S
O947 H919 0.854 . S
O947 C991 1.297 . S
C948 C949 1.404 . S
C948 C953 1.393 . S
C948 C954 1.492 . S
C949 C948 1.404 . S
C949 C950 1.396 . S
C949 C960 1.492 . S
C950 C949 1.396 . S
C950 C951 1.397 . S
C950 C966 1.509 . S
C951 C950 1.397 . S
C951 C952 1.423 . S
C951 C972 1.485 . S
C952 C951 1.423 . S
C952 C953 1.404 . S
C952 C978 1.491 1_455 S
C953 C948 1.393 . S
C953 C952 1.404 . S
C953 C984 1.492 1_455 S
C954 C948 1.492 . S
C954 C955 1.363 1_455 S
C954 C959 1.390 . S
C955 H920 0.930 . S
C955 C954 1.363 1_655 S
C955 C956 1.372 . S
C956 H921 0.930 . S
C956 C955 1.372 . S
C956 C957 1.383 . S
C957 C956 1.383 . S
C957 C958 1.395 1_655 S
C958 H922 0.930 . S
C958 C957 1.395 1_455 S
C958 C959 1.362 . S
C959 H923 0.930 . S
C959 C954 1.390 . S
C959 C958 1.362 . S
C960 C949 1.492 . S
C960 C961 1.377 1_455 S
C960 C965 1.397 . S
C961 H924 0.931 . S
C961 C960 1.377 1_655 S
C961 C962 1.376 1_655 S
C962 H925 0.930 1_455 S
C962 C961 1.376 1_455 S
C962 C963 1.376 . S
C963 C962 1.376 . S
C963 C964 1.378 . S
C963 C990 1.486 . S
C964 H926 0.930 . S
C964 C963 1.378 . S
C964 C965 1.376 . S
C965 H927 0.929 . S
C965 C960 1.397 . S
C965 C964 1.376 . S
C966 C950 1.509 . S
C966 C967 1.391 1_455 S
C966 C971 1.386 . S
C967 H928 0.930 . S
C967 C966 1.391 1_655 S
C967 C968 1.366 1_655 S
C968 H929 0.923 1_455 S
C968 C967 1.366 1_455 S
C968 C969 1.392 . S
C969 C968 1.392 . S
C969 C970 1.361 . S
C970 H930 0.930 . S
C970 C969 1.361 . S
C970 C971 1.399 . S
C971 H931 0.929 . S
C971 C966 1.386 . S
C971 C970 1.399 . S
C972 C951 1.485 . S
C972 C973 1.394 1_455 S
C972 C977 1.360 . S
C973 H932 0.931 . S
C973 C972 1.394 1_655 S
C973 C974 1.372 . S
C974 H933 0.930 . S
C974 C973 1.372 . S
C974 C975 1.397 1_655 S
C975 C974 1.397 1_455 S
C975 C976 1.390 . S
C975 C991 1.476 . S
C976 H934 0.930 . S
C976 C975 1.390 . S
C976 C977 1.366 . S
C977 H935 0.932 . S
C977 C972 1.360 . S
C977 C976 1.366 . S
C978 C952 1.491 1_655 S
C978 C979 1.380 . S
C978 C983 1.386 1_655 S
C979 H936 0.930 . S
C979 C978 1.380 . S
C979 C980 1.381 . S
C980 H937 0.929 . S
C980 C979 1.381 . S
C980 C981 1.371 . S
C981 C980 1.371 . S
C981 C982 1.380 1_655 S
C982 H938 0.931 . S
C982 C981 1.380 1_455 S
C982 C983 1.387 . S
C983 H939 0.930 . S
C983 C978 1.386 1_455 S
C983 C982 1.387 . S
C984 C953 1.492 1_655 S
C984 C985 1.405 . S
C984 C989 1.342 1_655 S
C985 H940 0.929 . S
C985 C984 1.405 . S
C985 C986 1.386 . S
C986 H941 0.931 . S
C986 C985 1.386 . S
C986 C987 1.369 . S
C987 C986 1.369 . S
C987 C988 1.377 1_655 S
C988 H942 0.930 . S
C988 C987 1.377 1_455 S
C988 C989 1.396 . S
C989 H943 0.929 . S
C989 C984 1.342 1_455 S
C989 C988 1.396 . S
C990 O944 1.300 . S
C990 O945 1.209 . S
C990 C963 1.486 . S
C991 O946 1.199 1_455 S
C991 O947 1.297 . S
C991 C975 1.476 . S
H992 O1018 0.856 . S
H993 O1021 0.854 . S
H994 C1029 0.930 . S
H995 C1030 0.930 . S
H996 C1032 0.930 . S
H997 C1033 0.930 . S
H998 C1035 0.931 . S
H999 C1036 0.930 . S
H1000 C1038 0.930 . S
H1001 C1039 0.929 . S
H1002 C1041 0.930 . S
H1003 C1042 0.931 . S
H1004 C1044 0.930 . S
H1005 C1045 0.929 . S
H1006 C1047 0.931 . S
H1007 C1048 0.930 . S
H1008 C1050 0.930 . S
H1009 C1051 0.932 . S
H1010 C1053 0.930 . S
H1011 C1054 0.929 . S
H1012 C1056 0.931 . S
H1013 C1057 0.930 . S
H1014 C1059 0.929 . S
H1015 C1060 0.931 . S
H1016 C1062 0.930 . S
H1017 C1063 0.929 . S
O1018 H992 0.856 . S
O1018 C1064 1.300 . S
O1019 C1064 1.209 . S
O1020 C1065 1.199 . S
O1021 H993 0.854 . S
O1021 C1065 1.297 . S
C1022 C1023 1.404 . S
C1022 C1027 1.397 . S
C1022 C1028 1.492 . S
C1023 C1022 1.404 . S
C1023 C1024 1.396 . S
C1023 C1034 1.492 . S
C1024 C1023 1.396 . S
C1024 C1025 1.397 . S
C1024 C1040 1.509 . S
C1025 C1024 1.397 . S
C1025 C1026 1.412 . S
C1025 C1046 1.485 . S
C1026 C1025 1.412 . S
C1026 C1027 1.388 . S
C1026 C1052 1.490 . S
C1027 C1022 1.397 . S
C1027 C1026 1.388 . S
C1027 C1058 1.519 . S
C1028 C1022 1.492 . S
C1028 C1029 1.363 . S
C1028 C1033 1.390 . S
C1029 H994 0.930 . S
C1029 C1028 1.363 . S
C1029 C1030 1.372 . S
C1030 H995 0.930 . S
C1030 C1029 1.372 . S
C1030 C1031 1.383 . S
C1031 C1030 1.383 . S
C1031 C1032 1.395 . S
C1032 H996 0.930 . S
C1032 C1031 1.395 . S
C1032 C1033 1.362 . S
C1033 H997 0.930 . S
C1033 C1028 1.390 . S
C1033 C1032 1.362 . S
C1034 C1023 1.492 . S
C1034 C1035 1.377 . S
C1034 C1039 1.397 . S
C1035 H998 0.931 . S
C1035 C1034 1.377 . S
C1035 C1036 1.376 . S
C1036 H999 0.930 . S
C1036 C1035 1.376 . S
C1036 C1037 1.376 . S
C1037 C1036 1.376 . S
C1037 C1038 1.378 . S
C1037 C1064 1.486 . S
C1038 H1000 0.930 . S
C1038 C1037 1.378 . S
C1038 C1039 1.376 . S
C1039 H1001 0.929 . S
C1039 C1034 1.397 . S
C1039 C1038 1.376 . S
C1040 C1024 1.509 . S
C1040 C1041 1.391 . S
C1040 C1045 1.386 . S
C1041 H1002 0.930 . S
C1041 C1040 1.391 . S
C1041 C1042 1.375 . S
C1042 H1003 0.931 . S
C1042 C1041 1.375 . S
C1042 C1043 1.375 . S
C1043 C1042 1.375 . S
C1043 C1044 1.361 . S
C1044 H1004 0.930 . S
C1044 C1043 1.361 . S
C1044 C1045 1.399 . S
C1045 H1005 0.929 . S
C1045 C1040 1.386 . S
C1045 C1044 1.399 . S
C1046 C1025 1.485 . S
C1046 C1047 1.394 . S
C1046 C1051 1.360 . S
C1047 H1006 0.931 . S
C1047 C1046 1.394 . S
C1047 C1048 1.372 . S
C1048 H1007 0.930 . S
C1048 C1047 1.372 . S
C1048 C1049 1.397 . S
C1049 C1048 1.397 . S
C1049 C1050 1.390 . S
C1049 C1065 1.476 . S
C1050 H1008 0.930 . S
C1050 C1049 1.390 . S
C1050 C1051 1.366 . S
C1051 H1009 0.932 . S
C1051 C1046 1.360 . S
C1051 C1050 1.366 . S
C1052 C1026 1.490 . S
C1052 C1053 1.380 . S
C1052 C1057 1.386 . S
C1053 H1010 0.930 . S
C1053 C1052 1.380 . S
C1053 C1054 1.381 . S
C1054 H1011 0.929 . S
C1054 C1053 1.381 . S
C1054 C1055 1.371 . S
C1055 C1054 1.371 . S
C1055 C1056 1.380 . S
C1056 H1012 0.931 . S
C1056 C1055 1.380 . S
C1056 C1057 1.387 . S
C1057 H1013 0.930 . S
C1057 C1052 1.386 . S
C1057 C1056 1.387 . S
C1058 C1027 1.519 . S
C1058 C1059 1.377 . S
C1058 C1063 1.361 . S
C1059 H1014 0.929 . S
C1059 C1058 1.377 . S
C1059 C1060 1.386 . S
C1060 H1015 0.931 . S
C1060 C1059 1.386 . S
C1060 C1061 1.363 . S
C1061 C1060 1.363 . S
C1061 C1062 1.385 . S
C1062 H1016 0.930 . S
C1062 C1061 1.385 . S
C1062 C1063 1.396 . S
C1063 H1017 0.929 . S
C1063 C1058 1.361 . S
C1063 C1062 1.396 . S
C1064 O1018 1.300 . S
C1064 O1019 1.209 . S
C1064 C1037 1.486 . S
C1065 O1020 1.199 . S
C1065 O1021 1.297 . S
C1065 C1049 1.476 . S
H1066 O1092 0.856 . S
H1067 O1095 0.854 . S
H1068 C1103 0.930 . S
H1069 C1104 0.930 . S
H1070 C1106 0.930 . S
H1071 C1107 0.930 . S
H1072 C1109 0.931 . S
H1073 C1110 0.904 1_545 S
H1074 C1112 0.930 . S
H1075 C1113 0.929 . S
H1076 C1115 0.930 . S
H1077 C1116 0.924 1_545 S
H1078 C1118 0.930 . S
H1079 C1119 0.929 . S
H1080 C1121 0.931 . S
H1081 C1122 0.930 . S
H1082 C1124 0.930 . S
H1083 C1125 0.932 . S
H1084 C1127 0.930 . S
H1085 C1128 0.929 . S
H1086 C1130 0.931 . S
H1087 C1131 0.930 . S
H1088 C1133 0.929 . S
H1089 C1134 0.931 . S
H1090 C1136 0.930 . S
H1091 C1137 0.929 . S
O1092 H1066 0.856 . S
O1092 C1138 1.300 . S
O1093 C1138 1.209 . S
O1094 C1139 1.199 1_545 S
O1095 H1067 0.854 . S
O1095 C1139 1.297 . S
C1096 C1097 1.404 . S
C1096 C1101 1.416 . S
C1096 C1102 1.492 . S
C1097 C1096 1.404 . S
C1097 C1098 1.396 . S
C1097 C1108 1.492 . S
C1098 C1097 1.396 . S
C1098 C1099 1.397 . S
C1098 C1114 1.509 . S
C1099 C1098 1.397 . S
C1099 C1100 1.409 . S
C1099 C1120 1.485 . S
C1100 C1099 1.409 . S
C1100 C1101 1.374 . S
C1100 C1126 1.481 1_565 S
C1101 C1096 1.416 . S
C1101 C1100 1.374 . S
C1101 C1132 1.541 1_565 S
C1102 C1096 1.492 . S
C1102 C1103 1.363 1_565 S
C1102 C1107 1.390 . S
C1103 H1068 0.930 . S
C1103 C1102 1.363 1_545 S
C1103 C1104 1.372 . S
C1104 H1069 0.930 . S
C1104 C1103 1.372 . S
C1104 C1105 1.383 . S
C1105 C1104 1.383 . S
C1105 C1106 1.395 1_545 S
C1106 H1070 0.930 . S
C1106 C1105 1.395 1_565 S
C1106 C1107 1.362 . S
C1107 H1071 0.930 . S
C1107 C1102 1.390 . S
C1107 C1106 1.362 . S
C1108 C1097 1.492 . S
C1108 C1109 1.377 1_565 S
C1108 C1113 1.397 . S
C1109 H1072 0.931 . S
C1109 C1108 1.377 1_545 S
C1109 C1110 1.361 1_545 S
C1110 H1073 0.904 1_565 S
C1110 C1109 1.361 1_565 S
C1110 C1111 1.417 . S
C1111 C1110 1.417 . S
C1111 C1112 1.378 . S
C1111 C1138 1.486 . S
C1112 H1074 0.930 . S
C1112 C1111 1.378 . S
C1112 C1113 1.376 . S
C1113 H1075 0.929 . S
C1113 C1108 1.397 . S
C1113 C1112 1.376 . S
C1114 C1098 1.509 . S
C1114 C1115 1.391 1_565 S
C1114 C1119 1.386 . S
C1115 H1076 0.930 . S
C1115 C1114 1.391 1_545 S
C1115 C1116 1.375 1_545 S
C1116 H1077 0.924 1_565 S
C1116 C1115 1.375 1_565 S
C1116 C1117 1.381 . S
C1117 C1116 1.381 . S
C1117 C1118 1.361 . S
C1118 H1078 0.930 . S
C1118 C1117 1.361 . S
C1118 C1119 1.399 . S
C1119 H1079 0.929 . S
C1119 C1114 1.386 . S
C1119 C1118 1.399 . S
C1120 C1099 1.485 . S
C1120 C1121 1.394 1_565 S
C1120 C1125 1.360 . S
C1121 H1080 0.931 . S
C1121 C1120 1.394 1_545 S
C1121 C1122 1.372 . S
C1122 H1081 0.930 . S
C1122 C1121 1.372 . S
C1122 C1123 1.397 1_545 S
C1123 C1122 1.397 1_565 S
C1123 C1124 1.390 . S
C1123 C1139 1.476 . S
C1124 H1082 0.930 . S
C1124 C1123 1.390 . S
C1124 C1125 1.366 . S
C1125 H1083 0.932 . S
C1125 C1120 1.360 . S
C1125 C1124 1.366 . S
C1126 C1100 1.481 1_545 S
C1126 C1127 1.380 . S
C1126 C1131 1.386 1_545 S
C1127 H1084 0.930 . S
C1127 C1126 1.380 . S
C1127 C1128 1.381 . S
C1128 H1085 0.929 . S
C1128 C1127 1.381 . S
C1128 C1129 1.371 . S
C1129 C1128 1.371 . S
C1129 C1130 1.380 1_545 S
C1130 H1086 0.931 . S
C1130 C1129 1.380 1_565 S
C1130 C1131 1.387 . S
C1131 H1087 0.930 . S
C1131 C1126 1.386 1_565 S
C1131 C1130 1.387 . S
C1132 C1101 1.541 1_545 S
C1132 C1133 1.387 . S
C1132 C1137 1.343 1_545 S
C1133 H1088 0.929 . S
C1133 C1132 1.387 . S
C1133 C1134 1.386 . S
C1134 H1089 0.931 . S
C1134 C1133 1.386 . S
C1134 C1135 1.363 . S
C1135 C1134 1.363 . S
C1135 C1136 1.385 1_545 S
C1136 H1090 0.930 . S
C1136 C1135 1.385 1_565 S
C1136 C1137 1.396 . S
C1137 H1091 0.929 . S
C1137 C1132 1.343 1_565 S
C1137 C1136 1.396 . S
C1138 O1092 1.300 . S
C1138 O1093 1.209 . S
C1138 C1111 1.486 . S
C1139 O1094 1.199 1_565 S
C1139 O1095 1.297 . S
C1139 C1123 1.476 . S
H1140 O1166 0.856 . S
H1141 O1169 0.854 . S
H1142 C1177 0.930 . S
H1143 C1178 0.930 . S
H1144 C1180 0.930 . S
H1145 C1181 0.930 . S
H1146 C1183 0.931 . S
H1147 C1184 0.930 . S
H1148 C1186 0.930 . S
H1149 C1187 0.929 . S
H1150 C1189 0.930 . S
H1151 C1190 0.931 . S
H1152 C1192 0.930 . S
H1153 C1193 0.929 . S
H1154 C1195 0.931 . S
H1155 C1196 0.930 . S
H1156 C1198 0.930 . S
H1157 C1199 0.932 . S
H1158 C1201 0.930 . S
H1159 C1202 0.929 . S
H1160 C1204 0.931 . S
H1161 C1205 0.930 . S
H1162 C1207 0.929 . S
H1163 C1208 0.931 . S
H1164 C1210 0.930 . S
H1165 C1211 0.929 . S
O1166 H1140 0.856 . S
O1166 C1212 1.300 . S
O1167 C1212 1.209 1_565 S
O1168 C1213 1.199 1_545 S
O1169 H1141 0.854 . S
O1169 C1213 1.297 . S
C1170 C1171 1.404 . S
C1170 C1175 1.397 1_545 S
C1170 C1176 1.492 . S
C1171 C1170 1.404 . S
C1171 C1172 1.396 . S
C1171 C1182 1.492 . S
C1172 C1171 1.396 . S
C1172 C1173 1.397 1_545 S
C1172 C1188 1.509 . S
C1173 C1172 1.397 1_565 S
C1173 C1174 1.418 . S
C1173 C1194 1.485 . S
C1174 C1173 1.418 . S
C1174 C1175 1.379 . S
C1174 C1200 1.492 . S
C1175 C1170 1.397 1_565 S
C1175 C1174 1.379 . S
C1175 C1206 1.518 . S
C1176 C1170 1.492 . S
C1176 C1177 1.363 . S
C1176 C1181 1.390 1_545 S
C1177 H1142 0.930 . S
C1177 C1176 1.363 . S
C1177 C1178 1.372 . S
C1178 H1143 0.930 . S
C1178 C1177 1.372 . S
C1178 C1179 1.383 . S
C1179 C1178 1.383 . S
C1179 C1180 1.395 1_545 S
C1180 H1144 0.930 . S
C1180 C1179 1.395 1_565 S
C1180 C1181 1.362 . S
C1181 H1145 0.930 . S
C1181 C1176 1.390 1_565 S
C1181 C1180 1.362 . S
C1182 C1171 1.492 . S
C1182 C1183 1.377 . S
C1182 C1187 1.397 1_545 S
C1183 H1146 0.931 . S
C1183 C1182 1.377 . S
C1183 C1184 1.376 . S
C1184 H1147 0.930 . S
C1184 C1183 1.376 . S
C1184 C1185 1.376 . S
C1185 C1184 1.376 . S
C1185 C1186 1.378 1_545 S
C1185 C1212 1.486 . S
C1186 H1148 0.930 . S
C1186 C1185 1.378 1_565 S
C1186 C1187 1.376 . S
C1187 H1149 0.929 . S
C1187 C1182 1.397 1_565 S
C1187 C1186 1.376 . S
C1188 C1172 1.509 . S
C1188 C1189 1.391 . S
C1188 C1193 1.386 1_545 S
C1189 H1150 0.930 . S
C1189 C1188 1.391 . S
C1189 C1190 1.375 . S
C1190 H1151 0.931 . S
C1190 C1189 1.375 . S
C1190 C1191 1.403 . S
C1191 C1190 1.403 . S
C1191 C1192 1.346 1_545 S
C1192 H1152 0.930 . S
C1192 C1191 1.346 1_565 S
C1192 C1193 1.399 . S
C1193 H1153 0.929 . S
C1193 C1188 1.386 1_565 S
C1193 C1192 1.399 . S
C1194 C1173 1.485 . S
C1194 C1195 1.394 1_565 S
C1194 C1199 1.360 . S
C1195 H1154 0.931 . S
C1195 C1194 1.394 1_545 S
C1195 C1196 1.372 . S
C1196 H1155 0.930 . S
C1196 C1195 1.372 . S
C1196 C1197 1.397 1_545 S
C1197 C1196 1.397 1_565 S
C1197 C1198 1.390 . S
C1197 C1213 1.476 . S
C1198 H1156 0.930 . S
C1198 C1197 1.390 . S
C1198 C1199 1.366 . S
C1199 H1157 0.932 . S
C1199 C1194 1.360 . S
C1199 C1198 1.366 . S
C1200 C1174 1.492 . S
C1200 C1201 1.372 1_565 S
C1200 C1205 1.396 . S
C1201 H1158 0.930 . S
C1201 C1200 1.372 1_545 S
C1201 C1202 1.381 . S
C1202 H1159 0.929 . S
C1202 C1201 1.381 . S
C1202 C1203 1.371 . S
C1203 C1202 1.371 . S
C1203 C1204 1.380 1_545 S
C1204 H1160 0.931 . S
C1204 C1203 1.380 1_565 S
C1204 C1205 1.387 . S
C1205 H1161 0.930 . S
C1205 C1200 1.396 . S
C1205 C1204 1.387 . S
C1206 C1175 1.518 . S
C1206 C1207 1.377 1_565 S
C1206 C1211 1.361 . S
C1207 H1162 0.929 . S
C1207 C1206 1.377 1_545 S
C1207 C1208 1.386 . S
C1208 H1163 0.931 . S
C1208 C1207 1.386 . S
C1208 C1209 1.363 1_545 S
C1209 C1208 1.363 1_565 S
C1209 C1210 1.385 . S
C1210 H1164 0.930 . S
C1210 C1209 1.385 . S
C1210 C1211 1.396 . S
C1211 H1165 0.929 . S
C1211 C1206 1.361 . S
C1211 C1210 1.396 . S
C1212 O1166 1.300 . S
C1212 O1167 1.209 1_545 S
C1212 C1185 1.486 . S
C1213 O1168 1.199 1_565 S
C1213 O1169 1.297 . S
C1213 C1197 1.476 . S
H1214 O1240 0.856 . S
H1215 O1243 0.854 . S
H1216 C1251 0.930 . S
H1217 C1252 0.930 . S
H1218 C1254 0.930 . S
H1219 C1255 0.930 . S
H1220 C1257 0.931 . S
H1221 C1258 0.930 . S
H1222 C1260 0.930 . S
H1223 C1261 0.929 . S
H1224 C1263 0.930 . S
H1225 C1264 0.931 . S
H1226 C1266 0.930 . S
H1227 C1267 0.929 . S
H1228 C1269 0.931 . S
H1229 C1270 0.930 . S
H1230 C1272 0.930 . S
H1231 C1273 0.932 . S
H1232 C1275 0.930 . S
H1233 C1276 0.929 . S
H1234 C1278 0.931 . S
H1235 C1279 0.930 . S
H1236 C1281 0.929 . S
H1237 C1282 0.931 . S
H1238 C1284 0.930 . S
H1239 C1285 0.929 . S
O1240 H1214 0.856 . S
O1240 C1286 1.300 . S
O1241 C1286 1.209 1_455 S
O1242 C1287 1.199 1_655 S
O1243 H1215 0.854 . S
O1243 C1287 1.297 . S
C1244 C1245 1.404 . S
C1244 C1249 1.396 1_655 S
C1244 C1250 1.492 . S
C1245 C1244 1.404 . S
C1245 C1246 1.396 . S
C1245 C1256 1.492 . S
C1246 C1245 1.396 . S
C1246 C1247 1.396 . S
C1246 C1262 1.509 . S
C1247 C1246 1.396 . S
C1247 C1248 1.393 1_655 S
C1247 C1268 1.490 1_655 S
C1248 C1247 1.393 1_455 S
C1248 C1249 1.415 . S
C1248 C1274 1.484 . S
C1249 C1244 1.396 1_455 S
C1249 C1248 1.415 . S
C1249 C1280 1.516 . S
C1250 C1244 1.492 . S
C1250 C1251 1.363 . S
C1250 C1255 1.390 1_655 S
C1251 H1216 0.930 . S
C1251 C1250 1.363 . S
C1251 C1252 1.372 . S
C1252 H1217 0.930 . S
C1252 C1251 1.372 . S
C1252 C1253 1.383 . S
C1253 C1252 1.383 . S
C1253 C1254 1.395 1_655 S
C1254 H1218 0.930 . S
C1254 C1253 1.395 1_455 S
C1254 C1255 1.362 . S
C1255 H1219 0.930 . S
C1255 C1250 1.390 1_455 S
C1255 C1254 1.362 . S
C1256 C1245 1.492 . S
C1256 C1257 1.377 . S
C1256 C1261 1.397 1_655 S
C1257 H1220 0.931 . S
C1257 C1256 1.377 . S
C1257 C1258 1.376 . S
C1258 H1221 0.930 . S
C1258 C1257 1.376 . S
C1258 C1259 1.376 . S
C1259 C1258 1.376 . S
C1259 C1260 1.378 1_655 S
C1259 C1286 1.486 . S
C1260 H1222 0.930 . S
C1260 C1259 1.378 1_455 S
C1260 C1261 1.376 . S
C1261 H1223 0.929 . S
C1261 C1256 1.397 1_455 S
C1261 C1260 1.376 . S
C1262 C1246 1.509 . S
C1262 C1263 1.391 . S
C1262 C1267 1.386 1_655 S
C1263 H1224 0.930 . S
C1263 C1262 1.391 . S
C1263 C1264 1.375 . S
C1264 H1225 0.931 . S
C1264 C1263 1.375 . S
C1264 C1265 1.375 . S
C1265 C1264 1.375 . S
C1265 C1266 1.361 1_655 S
C1266 H1226 0.930 . S
C1266 C1265 1.361 1_455 S
C1266 C1267 1.399 . S
C1267 H1227 0.929 . S
C1267 C1262 1.386 1_455 S
C1267 C1266 1.399 . S
C1268 C1247 1.490 1_455 S
C1268 C1269 1.394 1_455 S
C1268 C1273 1.360 . S
C1269 H1228 0.931 . S
C1269 C1268 1.394 1_655 S
C1269 C1270 1.372 . S
C1270 H1229 0.930 . S
C1270 C1269 1.372 . S
C1270 C1271 1.397 1_655 S
C1271 C1270 1.397 1_455 S
C1271 C1272 1.390 . S
C1271 C1287 1.476 . S
C1272 H1230 0.930 . S
C1272 C1271 1.390 . S
C1272 C1273 1.366 . S
C1273 H1231 0.932 . S
C1273 C1268 1.360 . S
C1273 C1272 1.366 . S
C1274 C1248 1.484 . S
C1274 C1275 1.380 1_455 S
C1274 C1279 1.386 . S
C1275 H1232 0.930 . S
C1275 C1274 1.380 1_655 S
C1275 C1276 1.381 . S
C1276 H1233 0.929 . S
C1276 C1275 1.381 . S
C1276 C1277 1.371 1_655 S
C1277 C1276 1.371 1_455 S
C1277 C1278 1.380 . S
C1278 H1234 0.931 . S
C1278 C1277 1.380 . S
C1278 C1279 1.387 . S
C1279 H1235 0.930 . S
C1279 C1274 1.386 . S
C1279 C1278 1.387 . S
C1280 C1249 1.516 . S
C1280 C1281 1.377 1_455 S
C1280 C1285 1.361 . S
C1281 H1236 0.929 . S
C1281 C1280 1.377 1_655 S
C1281 C1282 1.386 . S
C1282 H1237 0.931 . S
C1282 C1281 1.386 . S
C1282 C1283 1.363 1_655 S
C1283 C1282 1.363 1_455 S
C1283 C1284 1.385 . S
C1284 H1238 0.930 . S
C1284 C1283 1.385 . S
C1284 C1285 1.396 . S
C1285 H1239 0.929 . S
C1285 C1280 1.361 . S
C1285 C1284 1.396 . S
C1286 O1240 1.300 . S
C1286 O1241 1.209 1_655 S
C1286 C1259 1.486 . S
C1287 O1242 1.199 1_455 S
C1287 O1243 1.297 . S
C1287 C1271 1.476 . S
H1288 O1314 0.856 . S
H1289 O1317 0.854 . S
H1290 C1325 0.930 . S
H1291 C1326 0.930 . S
H1292 C1328 0.930 . S
H1293 C1329 0.930 . S
H1294 C1331 0.931 . S
H1295 C1332 0.930 . S
H1296 C1334 0.930 . S
H1297 C1335 0.929 . S
H1298 C1337 0.930 . S
H1299 C1338 0.931 . S
H1300 C1340 0.930 . S
H1301 C1341 0.929 . S
H1302 C1343 0.931 . S
H1303 C1344 0.930 . S
H1304 C1346 0.930 . S
H1305 C1347 0.932 . S
H1306 C1349 0.930 . S
H1307 C1350 0.929 . S
H1308 C1352 0.931 . S
H1309 C1353 0.930 . S
H1310 C1355 0.929 . S
H1311 C1356 0.931 . S
H1312 C1358 0.930 . S
H1313 C1359 0.929 . S
O1314 H1288 0.856 . S
O1314 C1360 1.300 . S
O1315 C1360 1.209 . S
O1316 C1361 1.199 . S
O1317 H1289 0.854 . S
O1317 C1361 1.297 . S
C1318 C1319 1.404 . S
C1318 C1323 1.397 . S
C1318 C1324 1.492 . S
C1319 C1318 1.404 . S
C1319 C1320 1.396 . S
C1319 C1330 1.492 . S
C1320 C1319 1.396 . S
C1320 C1321 1.397 . S
C1320 C1336 1.509 . S
C1321 C1320 1.397 . S
C1321 C1322 1.412 . S
C1321 C1342 1.485 . S
C1322 C1321 1.412 . S
C1322 C1323 1.388 . S
C1322 C1348 1.490 . S
C1323 C1318 1.397 . S
C1323 C1322 1.388 . S
C1323 C1354 1.519 . S
C1324 C1318 1.492 . S
C1324 C1325 1.363 . S
C1324 C1329 1.390 . S
C1325 H1290 0.930 . S
C1325 C1324 1.363 . S
C1325 C1326 1.372 . S
C1326 H1291 0.930 . S
C1326 C1325 1.372 . S
C1326 C1327 1.383 . S
C1327 C1326 1.383 . S
C1327 C1328 1.395 . S
C1328 H1292 0.930 . S
C1328 C1327 1.395 . S
C1328 C1329 1.362 . S
C1329 H1293 0.930 . S
C1329 C1324 1.390 . S
C1329 C1328 1.362 . S
C1330 C1319 1.492 . S
C1330 C1331 1.377 . S
C1330 C1335 1.397 . S
C1331 H1294 0.931 . S
C1331 C1330 1.377 . S
C1331 C1332 1.376 . S
C1332 H1295 0.930 . S
C1332 C1331 1.376 . S
C1332 C1333 1.376 . S
C1333 C1332 1.376 . S
C1333 C1334 1.378 . S
C1333 C1360 1.486 . S
C1334 H1296 0.930 . S
C1334 C1333 1.378 . S
C1334 C1335 1.376 . S
C1335 H1297 0.929 . S
C1335 C1330 1.397 . S
C1335 C1334 1.376 . S
C1336 C1320 1.509 . S
C1336 C1337 1.391 . S
C1336 C1341 1.386 . S
C1337 H1298 0.930 . S
C1337 C1336 1.391 . S
C1337 C1338 1.375 . S
C1338 H1299 0.931 . S
C1338 C1337 1.375 . S
C1338 C1339 1.375 . S
C1339 C1338 1.375 . S
C1339 C1340 1.361 . S
C1340 H1300 0.930 . S
C1340 C1339 1.361 . S
C1340 C1341 1.399 . S
C1341 H1301 0.929 . S
C1341 C1336 1.386 . S
C1341 C1340 1.399 . S
C1342 C1321 1.485 . S
C1342 C1343 1.394 . S
C1342 C1347 1.360 . S
C1343 H1302 0.931 . S
C1343 C1342 1.394 . S
C1343 C1344 1.372 . S
C1344 H1303 0.930 . S
C1344 C1343 1.372 . S
C1344 C1345 1.397 . S
C1345 C1344 1.397 . S
C1345 C1346 1.390 . S
C1345 C1361 1.476 . S
C1346 H1304 0.930 . S
C1346 C1345 1.390 . S
C1346 C1347 1.366 . S
C1347 H1305 0.932 . S
C1347 C1342 1.360 . S
C1347 C1346 1.366 . S
C1348 C1322 1.490 . S
C1348 C1349 1.380 . S
C1348 C1353 1.386 . S
C1349 H1306 0.930 . S
C1349 C1348 1.380 . S
C1349 C1350 1.381 . S
C1350 H1307 0.929 . S
C1350 C1349 1.381 . S
C1350 C1351 1.371 . S
C1351 C1350 1.371 . S
C1351 C1352 1.380 . S
C1352 H1308 0.931 . S
C1352 C1351 1.380 . S
C1352 C1353 1.387 . S
C1353 H1309 0.930 . S
C1353 C1348 1.386 . S
C1353 C1352 1.387 . S
C1354 C1323 1.519 . S
C1354 C1355 1.377 . S
C1354 C1359 1.361 . S
C1355 H1310 0.929 . S
C1355 C1354 1.377 . S
C1355 C1356 1.386 . S
C1356 H1311 0.931 . S
C1356 C1355 1.386 . S
C1356 C1357 1.363 . S
C1357 C1356 1.363 . S
C1357 C1358 1.385 . S
C1358 H1312 0.930 . S
C1358 C1357 1.385 . S
C1358 C1359 1.396 . S
C1359 H1313 0.929 . S
C1359 C1354 1.361 . S
C1359 C1358 1.396 . S
C1360 O1314 1.300 . S
C1360 O1315 1.209 . S
C1360 C1333 1.486 . S
C1361 O1316 1.199 . S
C1361 O1317 1.297 . S
C1361 C1345 1.476 . S
H1362 O1388 0.856 . S
H1363 O1391 0.854 . S
H1364 C1399 0.930 . S
H1365 C1400 0.930 . S
H1366 C1402 0.930 . S
H1367 C1403 0.930 . S
H1368 C1405 0.931 . S
H1369 C1406 0.930 . S
H1370 C1408 0.930 . S
H1371 C1409 0.929 . S
H1372 C1411 0.930 . S
H1373 C1412 0.931 . S
H1374 C1414 0.930 . S
H1375 C1415 0.929 . S
H1376 C1417 0.931 . S
H1377 C1418 0.930 . S
H1378 C1420 0.930 . S
H1379 C1421 0.932 . S
H1380 C1423 0.930 . S
H1381 C1424 0.929 . S
H1382 C1426 0.931 . S
H1383 C1427 0.930 . S
H1384 C1429 0.929 . S
H1385 C1430 0.931 . S
H1386 C1432 0.930 . S
H1387 C1433 0.929 . S
O1388 H1362 0.856 . S
O1388 C1434 1.300 . S
O1389 C1434 1.209 . S
O1390 C1435 1.199 . S
O1391 H1363 0.854 . S
O1391 C1435 1.297 . S
C1392 C1393 1.404 . S
C1392 C1397 1.397 . S
C1392 C1398 1.492 . S
C1393 C1392 1.404 . S
C1393 C1394 1.396 . S
C1393 C1404 1.492 . S
C1394 C1393 1.396 . S
C1394 C1395 1.397 . S
C1394 C1410 1.509 . S
C1395 C1394 1.397 . S
C1395 C1396 1.412 . S
C1395 C1416 1.485 . S
C1396 C1395 1.412 . S
C1396 C1397 1.388 . S
C1396 C1422 1.490 . S
C1397 C1392 1.397 . S
C1397 C1396 1.388 . S
C1397 C1428 1.519 . S
C1398 C1392 1.492 . S
C1398 C1399 1.363 . S
C1398 C1403 1.390 . S
C1399 H1364 0.930 . S
C1399 C1398 1.363 . S
C1399 C1400 1.372 . S
C1400 H1365 0.930 . S
C1400 C1399 1.372 . S
C1400 C1401 1.383 . S
C1401 C1400 1.383 . S
C1401 C1402 1.395 . S
C1402 H1366 0.930 . S
C1402 C1401 1.395 . S
C1402 C1403 1.362 . S
C1403 H1367 0.930 . S
C1403 C1398 1.390 . S
C1403 C1402 1.362 . S
C1404 C1393 1.492 . S
C1404 C1405 1.377 . S
C1404 C1409 1.397 . S
C1405 H1368 0.931 . S
C1405 C1404 1.377 . S
C1405 C1406 1.376 . S
C1406 H1369 0.930 . S
C1406 C1405 1.376 . S
C1406 C1407 1.376 . S
C1407 C1406 1.376 . S
C1407 C1408 1.378 . S
C1407 C1434 1.486 . S
C1408 H1370 0.930 . S
C1408 C1407 1.378 . S
C1408 C1409 1.376 . S
C1409 H1371 0.929 . S
C1409 C1404 1.397 . S
C1409 C1408 1.376 . S
C1410 C1394 1.509 . S
C1410 C1411 1.391 . S
C1410 C1415 1.386 . S
C1411 H1372 0.930 . S
C1411 C1410 1.391 . S
C1411 C1412 1.375 . S
C1412 H1373 0.931 . S
C1412 C1411 1.375 . S
C1412 C1413 1.375 . S
C1413 C1412 1.375 . S
C1413 C1414 1.361 . S
C1414 H1374 0.930 . S
C1414 C1413 1.361 . S
C1414 C1415 1.399 . S
C1415 H1375 0.929 . S
C1415 C1410 1.386 . S
C1415 C1414 1.399 . S
C1416 C1395 1.485 . S
C1416 C1417 1.394 . S
C1416 C1421 1.360 . S
C1417 H1376 0.931 . S
C1417 C1416 1.394 . S
C1417 C1418 1.372 . S
C1418 H1377 0.930 . S
C1418 C1417 1.372 . S
C1418 C1419 1.397 . S
C1419 C1418 1.397 . S
C1419 C1420 1.390 . S
C1419 C1435 1.476 . S
C1420 H1378 0.930 . S
C1420 C1419 1.390 . S
C1420 C1421 1.366 . S
C1421 H1379 0.932 . S
C1421 C1416 1.360 . S
C1421 C1420 1.366 . S
C1422 C1396 1.490 . S
C1422 C1423 1.380 . S
C1422 C1427 1.386 . S
C1423 H1380 0.930 . S
C1423 C1422 1.380 . S
C1423 C1424 1.381 . S
C1424 H1381 0.929 . S
C1424 C1423 1.381 . S
C1424 C1425 1.371 . S
C1425 C1424 1.371 . S
C1425 C1426 1.380 . S
C1426 H1382 0.931 . S
C1426 C1425 1.380 . S
C1426 C1427 1.387 . S
C1427 H1383 0.930 . S
C1427 C1422 1.386 . S
C1427 C1426 1.387 . S
C1428 C1397 1.519 . S
C1428 C1429 1.377 . S
C1428 C1433 1.361 . S
C1429 H1384 0.929 . S
C1429 C1428 1.377 . S
C1429 C1430 1.386 . S
C1430 H1385 0.931 . S
C1430 C1429 1.386 . S
C1430 C1431 1.363 . S
C1431 C1430 1.363 . S
C1431 C1432 1.385 . S
C1432 H1386 0.930 . S
C1432 C1431 1.385 . S
C1432 C1433 1.396 . S
C1433 H1387 0.929 . S
C1433 C1428 1.361 . S
C1433 C1432 1.396 . S
C1434 O1388 1.300 . S
C1434 O1389 1.209 . S
C1434 C1407 1.486 . S
C1435 O1390 1.199 . S
C1435 O1391 1.297 . S
C1435 C1419 1.476 . S
H1436 O1462 0.856 . S
H1437 O1465 0.854 . S
H1438 C1473 0.930 . S
H1439 C1474 0.930 . S
H1440 C1476 0.930 . S
H1441 C1477 0.930 . S
H1442 C1479 0.931 . S
H1443 C1480 0.930 . S
H1444 C1482 0.930 . S
H1445 C1483 0.929 . S
H1446 C1485 0.930 . S
H1447 C1486 0.931 . S
H1448 C1488 0.930 . S
H1449 C1489 0.929 . S
H1450 C1491 0.931 . S
H1451 C1492 0.930 . S
H1452 C1494 0.930 . S
H1453 C1495 0.932 . S
H1454 C1497 0.930 . S
H1455 C1498 0.929 . S
H1456 C1500 0.931 . S
H1457 C1501 0.930 . S
H1458 C1503 0.929 . S
H1459 C1504 0.931 . S
H1460 C1506 0.930 . S
H1461 C1507 0.929 . S
O1462 H1436 0.856 . S
O1462 C1508 1.300 . S
O1463 C1508 1.209 . S
O1464 C1509 1.199 . S
O1465 H1437 0.854 . S
O1465 C1509 1.297 . S
C1466 C1467 1.404 . S
C1466 C1471 1.397 . S
C1466 C1472 1.492 . S
C1467 C1466 1.404 . S
C1467 C1468 1.396 . S
C1467 C1478 1.492 . S
C1468 C1467 1.396 . S
C1468 C1469 1.397 . S
C1468 C1484 1.509 . S
C1469 C1468 1.397 . S
C1469 C1470 1.412 . S
C1469 C1490 1.485 . S
C1470 C1469 1.412 . S
C1470 C1471 1.388 . S
C1470 C1496 1.490 . S
C1471 C1466 1.397 . S
C1471 C1470 1.388 . S
C1471 C1502 1.519 . S
C1472 C1466 1.492 . S
C1472 C1473 1.363 . S
C1472 C1477 1.390 . S
C1473 H1438 0.930 . S
C1473 C1472 1.363 . S
C1473 C1474 1.372 . S
C1474 H1439 0.930 . S
C1474 C1473 1.372 . S
C1474 C1475 1.383 . S
C1475 C1474 1.383 . S
C1475 C1476 1.395 . S
C1476 H1440 0.930 . S
C1476 C1475 1.395 . S
C1476 C1477 1.362 . S
C1477 H1441 0.930 . S
C1477 C1472 1.390 . S
C1477 C1476 1.362 . S
C1478 C1467 1.492 . S
C1478 C1479 1.377 . S
C1478 C1483 1.397 . S
C1479 H1442 0.931 . S
C1479 C1478 1.377 . S
C1479 C1480 1.376 . S
C1480 H1443 0.930 . S
C1480 C1479 1.376 . S
C1480 C1481 1.376 . S
C1481 C1480 1.376 . S
C1481 C1482 1.378 . S
C1481 C1508 1.486 . S
C1482 H1444 0.930 . S
C1482 C1481 1.378 . S
C1482 C1483 1.376 . S
C1483 H1445 0.929 . S
C1483 C1478 1.397 . S
C1483 C1482 1.376 . S
C1484 C1468 1.509 . S
C1484 C1485 1.391 . S
C1484 C1489 1.386 . S
C1485 H1446 0.930 . S
C1485 C1484 1.391 . S
C1485 C1486 1.375 . S
C1486 H1447 0.931 . S
C1486 C1485 1.375 . S
C1486 C1487 1.375 . S
C1487 C1486 1.375 . S
C1487 C1488 1.361 . S
C1488 H1448 0.930 . S
C1488 C1487 1.361 . S
C1488 C1489 1.399 . S
C1489 H1449 0.929 . S
C1489 C1484 1.386 . S
C1489 C1488 1.399 . S
C1490 C1469 1.485 . S
C1490 C1491 1.394 . S
C1490 C1495 1.360 . S
C1491 H1450 0.931 . S
C1491 C1490 1.394 . S
C1491 C1492 1.372 . S
C1492 H1451 0.930 . S
C1492 C1491 1.372 . S
C1492 C1493 1.397 . S
C1493 C1492 1.397 . S
C1493 C1494 1.390 . S
C1493 C1509 1.476 . S
C1494 H1452 0.930 . S
C1494 C1493 1.390 . S
C1494 C1495 1.366 . S
C1495 H1453 0.932 . S
C1495 C1490 1.360 . S
C1495 C1494 1.366 . S
C1496 C1470 1.490 . S
C1496 C1497 1.380 . S
C1496 C1501 1.386 . S
C1497 H1454 0.930 . S
C1497 C1496 1.380 . S
C1497 C1498 1.381 . S
C1498 H1455 0.929 . S
C1498 C1497 1.381 . S
C1498 C1499 1.371 . S
C1499 C1498 1.371 . S
C1499 C1500 1.380 . S
C1500 H1456 0.931 . S
C1500 C1499 1.380 . S
C1500 C1501 1.387 . S
C1501 H1457 0.930 . S
C1501 C1496 1.386 . S
C1501 C1500 1.387 . S
C1502 C1471 1.519 . S
C1502 C1503 1.377 . S
C1502 C1507 1.361 . S
C1503 H1458 0.929 . S
C1503 C1502 1.377 . S
C1503 C1504 1.386 . S
C1504 H1459 0.931 . S
C1504 C1503 1.386 . S
C1504 C1505 1.363 . S
C1505 C1504 1.363 . S
C1505 C1506 1.385 . S
C1506 H1460 0.930 . S
C1506 C1505 1.385 . S
C1506 C1507 1.396 . S
C1507 H1461 0.929 . S
C1507 C1502 1.361 . S
C1507 C1506 1.396 . S
C1508 O1462 1.300 . S
C1508 O1463 1.209 . S
C1508 C1481 1.486 . S
C1509 O1464 1.199 . S
C1509 O1465 1.297 . S
C1509 C1493 1.476 . S
H1510 O1536 0.856 . S
H1511 O1539 0.854 . S
H1512 C1547 0.930 . S
H1513 C1548 0.930 . S
H1514 C1550 0.930 . S
H1515 C1551 0.930 . S
H1516 C1553 0.931 . S
H1517 C1554 0.930 . S
H1518 C1556 0.930 . S
H1519 C1557 0.929 . S
H1520 C1559 0.930 . S
H1521 C1560 0.931 . S
H1522 C1562 0.930 . S
H1523 C1563 0.929 . S
H1524 C1565 0.931 . S
H1525 C1566 0.930 . S
H1526 C1568 0.930 . S
H1527 C1569 0.932 . S
H1528 C1571 0.930 . S
H1529 C1572 0.929 . S
H1530 C1574 0.931 . S
H1531 C1575 0.930 . S
H1532 C1577 0.929 . S
H1533 C1578 0.931 . S
H1534 C1580 0.930 . S
H1535 C1581 0.929 . S
O1536 H1510 0.856 . S
O1536 C1582 1.300 . S
O1537 C1582 1.209 . S
O1538 C1583 1.199 . S
O1539 H1511 0.854 . S
O1539 C1583 1.297 . S
C1540 C1541 1.404 . S
C1540 C1545 1.397 . S
C1540 C1546 1.492 . S
C1541 C1540 1.404 . S
C1541 C1542 1.396 . S
C1541 C1552 1.492 . S
C1542 C1541 1.396 . S
C1542 C1543 1.397 . S
C1542 C1558 1.509 . S
C1543 C1542 1.397 . S
C1543 C1544 1.412 . S
C1543 C1564 1.485 . S
C1544 C1543 1.412 . S
C1544 C1545 1.388 . S
C1544 C1570 1.490 . S
C1545 C1540 1.397 . S
C1545 C1544 1.388 . S
C1545 C1576 1.519 . S
C1546 C1540 1.492 . S
C1546 C1547 1.363 . S
C1546 C1551 1.390 . S
C1547 H1512 0.930 . S
C1547 C1546 1.363 . S
C1547 C1548 1.372 . S
C1548 H1513 0.930 . S
C1548 C1547 1.372 . S
C1548 C1549 1.383 . S
C1549 C1548 1.383 . S
C1549 C1550 1.395 . S
C1550 H1514 0.930 . S
C1550 C1549 1.395 . S
C1550 C1551 1.362 . S
C1551 H1515 0.930 . S
C1551 C1546 1.390 . S
C1551 C1550 1.362 . S
C1552 C1541 1.492 . S
C1552 C1553 1.377 . S
C1552 C1557 1.397 . S
C1553 H1516 0.931 . S
C1553 C1552 1.377 . S
C1553 C1554 1.376 . S
C1554 H1517 0.930 . S
C1554 C1553 1.376 . S
C1554 C1555 1.376 . S
C1555 C1554 1.376 . S
C1555 C1556 1.378 . S
C1555 C1582 1.486 . S
C1556 H1518 0.930 . S
C1556 C1555 1.378 . S
C1556 C1557 1.376 . S
C1557 H1519 0.929 . S
C1557 C1552 1.397 . S
C1557 C1556 1.376 . S
C1558 C1542 1.509 . S
C1558 C1559 1.391 . S
C1558 C1563 1.386 . S
C1559 H1520 0.930 . S
C1559 C1558 1.391 . S
C1559 C1560 1.375 . S
C1560 H1521 0.931 . S
C1560 C1559 1.375 . S
C1560 C1561 1.375 . S
C1561 C1560 1.375 . S
C1561 C1562 1.361 . S
C1562 H1522 0.930 . S
C1562 C1561 1.361 . S
C1562 C1563 1.399 . S
C1563 H1523 0.929 . S
C1563 C1558 1.386 . S
C1563 C1562 1.399 . S
C1564 C1543 1.485 . S
C1564 C1565 1.394 . S
C1564 C1569 1.360 . S
C1565 H1524 0.931 . S
C1565 C1564 1.394 . S
C1565 C1566 1.372 . S
C1566 H1525 0.930 . S
C1566 C1565 1.372 . S
C1566 C1567 1.397 . S
C1567 C1566 1.397 . S
C1567 C1568 1.390 . S
C1567 C1583 1.476 . S
C1568 H1526 0.930 . S
C1568 C1567 1.390 . S
C1568 C1569 1.366 . S
C1569 H1527 0.932 . S
C1569 C1564 1.360 . S
C1569 C1568 1.366 . S
C1570 C1544 1.490 . S
C1570 C1571 1.380 . S
C1570 C1575 1.386 . S
C1571 H1528 0.930 . S
C1571 C1570 1.380 . S
C1571 C1572 1.381 . S
C1572 H1529 0.929 . S
C1572 C1571 1.381 . S
C1572 C1573 1.371 . S
C1573 C1572 1.371 . S
C1573 C1574 1.380 . S
C1574 H1530 0.931 . S
C1574 C1573 1.380 . S
C1574 C1575 1.387 . S
C1575 H1531 0.930 . S
C1575 C1570 1.386 . S
C1575 C1574 1.387 . S
C1576 C1545 1.519 . S
C1576 C1577 1.377 . S
C1576 C1581 1.361 . S
C1577 H1532 0.929 . S
C1577 C1576 1.377 . S
C1577 C1578 1.386 . S
C1578 H1533 0.931 . S
C1578 C1577 1.386 . S
C1578 C1579 1.363 . S
C1579 C1578 1.363 . S
C1579 C1580 1.385 . S
C1580 H1534 0.930 . S
C1580 C1579 1.385 . S
C1580 C1581 1.396 . S
C1581 H1535 0.929 . S
C1581 C1576 1.361 . S
C1581 C1580 1.396 . S
C1582 O1536 1.300 . S
C1582 O1537 1.209 . S
C1582 C1555 1.486 . S
C1583 O1538 1.199 . S
C1583 O1539 1.297 . S
C1583 C1567 1.476 . S
C1584 C1585 1.363 . S
C1584 C1590 1.379 . S
C1584 N1592 1.356 . S
C1585 C1584 1.363 . S
C1585 C1591 1.363 1_655 S
C1586 C1587 1.363 1_455 S
C1586 C1591 1.379 . S
C1586 N1593 1.356 . S
C1587 C1586 1.363 1_655 S
C1587 C1590 1.363 . S
N1588 C1590 1.356 . S
N1588 H1600 0.984 . S
N1588 H1601 0.985 . S
N1589 C1591 1.356 . S
N1589 H1594 0.984 . S
N1589 H1595 0.985 . S
C1590 C1584 1.379 . S
C1590 C1587 1.363 . S
C1590 N1588 1.356 . S
C1591 C1585 1.363 1_455 S
C1591 C1586 1.379 . S
C1591 N1589 1.356 . S
N1592 C1584 1.356 . S
N1592 H1598 0.984 . S
N1592 H1599 0.984 . S
N1593 C1586 1.356 . S
N1593 H1596 0.984 . S
N1593 H1597 0.985 . S
H1594 N1589 0.984 . S
H1595 N1589 0.985 . S
H1596 N1593 0.984 . S
H1597 N1593 0.985 . S
H1598 N1592 0.984 . S
H1599 N1592 0.984 . S
H1600 N1588 0.984 . S
H1601 N1588 0.985 . S
C1602 C1603 1.363 . S
C1602 C1608 1.379 . S
C1602 N1610 1.356 . S
C1603 C1602 1.363 . S
C1603 C1609 1.363 . S
C1604 C1605 1.363 . S
C1604 C1609 1.379 . S
C1604 N1611 1.356 . S
C1605 C1604 1.363 . S
C1605 C1608 1.363 . S
N1606 C1608 1.356 . S
N1606 H1618 0.984 . S
N1606 H1619 0.985 . S
N1607 C1609 1.356 . S
N1607 H1612 0.984 . S
N1607 H1613 0.985 . S
C1608 C1602 1.379 . S
C1608 C1605 1.363 . S
C1608 N1606 1.356 . S
C1609 C1603 1.363 . S
C1609 C1604 1.379 . S
C1609 N1607 1.356 . S
N1610 C1602 1.356 . S
N1610 H1616 0.984 . S
N1610 H1617 0.984 . S
N1611 C1604 1.356 . S
N1611 H1614 0.984 . S
N1611 H1615 0.985 . S
H1612 N1607 0.984 . S
H1613 N1607 0.985 . S
H1614 N1611 0.984 . S
H1615 N1611 0.985 . S
H1616 N1610 0.984 . S
H1617 N1610 0.984 . S
H1618 N1606 0.984 . S
H1619 N1606 0.985 . S
C1620 C1621 1.363 . S
C1620 C1626 1.379 . S
C1620 N1628 1.356 1_545 S
C1621 C1620 1.363 . S
C1621 C1627 1.363 . S
C1622 C1623 1.363 . S
C1622 C1627 1.379 . S
C1622 N1629 1.356 . S
C1623 C1622 1.363 . S
C1623 C1626 1.363 . S
N1624 C1626 1.356 1_565 S
N1624 H1636 0.984 . S
N1624 H1637 0.985 . S
N1625 C1627 1.356 . S
N1625 H1630 0.984 . S
N1625 H1631 0.985 . S
C1626 C1620 1.379 . S
C1626 C1623 1.363 . S
C1626 N1624 1.356 1_545 S
C1627 C1621 1.363 . S
C1627 C1622 1.379 . S
C1627 N1625 1.356 . S
N1628 C1620 1.356 1_565 S
N1628 H1634 0.984 . S
N1628 H1635 0.984 . S
N1629 C1622 1.356 . S
N1629 H1632 0.984 . S
N1629 H1633 0.985 . S
H1630 N1625 0.984 . S
H1631 N1625 0.985 . S
H1632 N1629 0.984 . S
H1633 N1629 0.985 . S
H1634 N1628 0.984 . S
H1635 N1628 0.984 . S
H1636 N1624 0.984 . S
H1637 N1624 0.985 . S
C1638 C1639 1.363 . S
C1638 C1644 1.379 . S
C1638 N1646 1.356 . S
C1639 C1638 1.363 . S
C1639 C1645 1.363 . S
C1640 C1641 1.376 . S
C1640 C1645 1.376 . S
C1640 N1647 1.349 1_565 S
C1641 C1640 1.376 . S
C1641 C1644 1.363 . S
N1642 C1644 1.356 . S
N1642 H1654 0.984 . S
N1642 H1655 0.985 . S
N1643 C1645 1.356 1_545 S
N1643 H1648 0.984 . S
N1643 H1649 0.985 . S
C1644 C1638 1.379 . S
C1644 C1641 1.363 . S
C1644 N1642 1.356 . S
C1645 C1639 1.363 . S
C1645 C1640 1.376 . S
C1645 N1643 1.356 1_565 S
N1646 C1638 1.356 . S
N1646 H1652 0.984 . S
N1646 H1653 0.984 . S
N1647 C1640 1.349 1_545 S
N1647 H1650 0.984 . S
N1647 H1651 0.985 . S
H1648 N1643 0.984 . S
H1649 N1643 0.985 . S
H1650 N1647 0.984 . S
H1651 N1647 0.985 . S
H1652 N1646 0.984 . S
H1653 N1646 0.984 . S
H1654 N1642 0.984 . S
H1655 N1642 0.985 . S
C1656 C1657 1.363 . S
C1656 C1662 1.379 . S
C1656 N1664 1.356 . S
C1657 C1656 1.363 . S
C1657 C1663 1.363 . S
C1658 C1659 1.363 . S
C1658 C1663 1.379 . S
C1658 N1665 1.356 . S
C1659 C1658 1.363 . S
C1659 C1662 1.363 . S
N1660 C1662 1.356 . S
N1660 H1672 0.984 . S
N1660 H1673 0.985 . S
N1661 C1663 1.356 1_554 S
N1661 H1666 0.984 . S
N1661 H1667 0.985 . S
C1662 C1656 1.379 . S
C1662 C1659 1.363 . S
C1662 N1660 1.356 . S
C1663 C1657 1.363 . S
C1663 C1658 1.379 . S
C1663 N1661 1.356 1_556 S
N1664 C1656 1.356 . S
N1664 H1670 0.984 . S
N1664 H1671 0.984 . S
N1665 C1658 1.356 . S
N1665 H1668 0.984 . S
N1665 H1669 0.985 . S
H1666 N1661 0.984 . S
H1667 N1661 0.985 . S
H1668 N1665 0.984 . S
H1669 N1665 0.985 . S
H1670 N1664 0.984 . S
H1671 N1664 0.984 . S
H1672 N1660 0.984 . S
H1673 N1660 0.985 . S
C1674 C1675 1.363 1_556 S
C1674 C1680 1.379 . S
C1674 N1682 1.356 1_556 S
C1675 C1674 1.363 1_554 S
C1675 C1681 1.363 . S
C1676 C1677 1.363 . S
C1676 C1681 1.379 1_556 S
C1676 N1683 1.356 . S
C1677 C1676 1.363 . S
C1677 C1680 1.363 . S
N1678 C1680 1.356 . S
N1678 H1690 0.984 . S
N1678 H1691 0.985 . S
N1679 C1681 1.356 . S
N1679 H1684 0.984 . S
N1679 H1685 0.985 . S
C1680 C1674 1.379 . S
C1680 C1677 1.363 . S
C1680 N1678 1.356 . S
C1681 C1675 1.363 . S
C1681 C1676 1.379 1_554 S
C1681 N1679 1.356 . S
N1682 C1674 1.356 1_554 S
N1682 H1688 0.984 1_554 S
N1682 H1689 0.984 . S
N1683 C1676 1.356 . S
N1683 H1686 0.984 . S
N1683 H1687 0.985 . S
H1684 N1679 0.984 . S
H1685 N1679 0.985 . S
H1686 N1683 0.984 . S
H1687 N1683 0.985 . S
H1688 N1682 0.984 1_556 S
H1689 N1682 0.984 . S
H1690 N1678 0.984 . S
H1691 N1678 0.985 . S
C1692 C1693 1.338 1_656 S
C1692 C1698 1.379 . S
C1692 N1700 1.356 . S
C1693 C1692 1.338 1_454 S
C1693 C1699 1.374 . S
C1694 C1695 1.363 . S
C1694 C1699 1.379 1_556 S
C1694 N1701 1.356 . S
C1695 C1694 1.363 . S
C1695 C1698 1.363 1_455 S
N1696 C1698 1.356 . S
N1696 H1708 0.984 . S
N1696 H1709 0.985 . S
N1697 C1699 1.356 . S
N1697 H1702 0.984 . S
N1697 H1703 0.985 . S
C1698 C1692 1.379 . S
C1698 C1695 1.363 1_655 S
C1698 N1696 1.356 . S
C1699 C1693 1.374 . S
C1699 C1694 1.379 1_554 S
C1699 N1697 1.356 . S
N1700 C1692 1.356 . S
N1700 H1706 0.984 . S
N1700 H1707 0.984 . S
N1701 C1694 1.356 . S
N1701 H1704 0.984 . S
N1701 H1705 0.985 1_556 S
H1702 N1697 0.984 . S
H1703 N1697 0.985 . S
H1704 N1701 0.984 . S
H1705 N1701 0.985 1_554 S
H1706 N1700 0.984 . S
H1707 N1700 0.984 . S
H1708 N1696 0.984 . S
H1709 N1696 0.985 . S
C1710 C1711 1.363 . S
C1710 C1716 1.379 . S
C1710 N1718 1.356 . S
C1711 C1710 1.363 . S
C1711 C1717 1.363 . S
C1712 C1713 1.363 . S
C1712 C1717 1.379 . S
C1712 N1719 1.356 . S
C1713 C1712 1.363 . S
C1713 C1716 1.363 . S
N1714 C1716 1.356 . S
N1714 H1726 0.984 . S
N1714 H1727 0.985 . S
N1715 C1717 1.356 . S
N1715 H1720 0.984 . S
N1715 H1721 0.985 . S
C1716 C1710 1.379 . S
C1716 C1713 1.363 . S
C1716 N1714 1.356 . S
C1717 C1711 1.363 . S
C1717 C1712 1.379 . S
C1717 N1715 1.356 . S
N1718 C1710 1.356 . S
N1718 H1724 0.984 . S
N1718 H1725 0.984 . S
N1719 C1712 1.356 . S
N1719 H1722 0.984 . S
N1719 H1723 0.985 . S
H1720 N1715 0.984 . S
H1721 N1715 0.985 . S
H1722 N1719 0.984 . S
H1723 N1719 0.985 . S
H1724 N1718 0.984 . S
H1725 N1718 0.984 . S
H1726 N1714 0.984 . S
H1727 N1714 0.985 . S
C1728 C1729 1.363 1_545 S
C1728 C1734 1.379 1_554 S
C1728 N1736 1.356 . S
C1729 C1728 1.363 1_565 S
C1729 C1735 1.363 1_554 S
C1730 C1731 1.363 1_565 S
C1730 C1735 1.379 . S
C1730 N1737 1.356 . S
C1731 C1730 1.363 1_545 S
C1731 C1734 1.363 . S
N1732 C1734 1.356 . S
N1732 H1744 0.984 . S
N1732 H1745 0.985 . S
N1733 C1735 1.356 . S
N1733 H1738 0.984 . S
N1733 H1739 0.985 . S
C1734 C1728 1.379 1_556 S
C1734 C1731 1.363 . S
C1734 N1732 1.356 . S
C1735 C1729 1.363 1_556 S
C1735 C1730 1.379 . S
C1735 N1733 1.356 . S
N1736 C1728 1.356 . S
N1736 H1742 0.984 . S
N1736 H1743 0.984 . S
N1737 C1730 1.356 . S
N1737 H1740 0.984 . S
N1737 H1741 0.985 . S
H1738 N1733 0.984 . S
H1739 N1733 0.985 . S
H1740 N1737 0.984 . S
H1741 N1737 0.985 . S
H1742 N1736 0.984 . S
H1743 N1736 0.984 . S
H1744 N1732 0.984 . S
H1745 N1732 0.985 . S
C1746 C1747 1.363 . S
C1746 C1752 1.379 1_545 S
C1746 N1754 1.356 . S
C1747 C1746 1.363 . S
C1747 C1753 1.363 . S
C1748 C1749 1.363 . S
C1748 C1753 1.379 . S
C1748 N1755 1.356 . S
C1749 C1748 1.363 . S
C1749 C1752 1.363 1_545 S
N1750 C1752 1.356 . S
N1750 H1762 0.984 . S
N1750 H1763 0.985 . S
N1751 C1753 1.356 . S
N1751 H1756 0.984 . S
N1751 H1757 0.985 . S
C1752 C1746 1.379 1_565 S
C1752 C1749 1.363 1_565 S
C1752 N1750 1.356 . S
C1753 C1747 1.363 . S
C1753 C1748 1.379 . S
C1753 N1751 1.356 . S
N1754 C1746 1.356 . S
N1754 H1760 0.984 1_545 S
N1754 H1761 0.984 . S
N1755 C1748 1.356 . S
N1755 H1758 0.984 . S
N1755 H1759 0.985 . S
H1756 N1751 0.984 . S
H1757 N1751 0.985 . S
H1758 N1755 0.984 . S
H1759 N1755 0.985 . S
H1760 N1754 0.984 1_565 S
H1761 N1754 0.984 . S
H1762 N1750 0.984 . S
H1763 N1750 0.985 . S
C1764 C1765 1.363 1_455 S
C1764 C1770 1.379 . S
C1764 N1772 1.356 . S
C1765 C1764 1.363 1_655 S
C1765 C1771 1.363 . S
C1766 C1767 1.363 . S
C1766 C1771 1.379 . S
C1766 N1773 1.356 . S
C1767 C1766 1.363 . S
C1767 C1770 1.363 1_655 S
N1768 C1770 1.356 . S
N1768 H1780 0.984 . S
N1768 H1781 0.985 . S
N1769 C1771 1.356 . S
N1769 H1774 0.984 . S
N1769 H1775 0.985 . S
C1770 C1764 1.379 . S
C1770 C1767 1.363 1_455 S
C1770 N1768 1.356 . S
C1771 C1765 1.363 . S
C1771 C1766 1.379 . S
C1771 N1769 1.356 . S
N1772 C1764 1.356 . S
N1772 H1778 0.984 . S
N1772 H1779 0.984 . S
N1773 C1766 1.356 . S
N1773 H1776 0.984 . S
N1773 H1777 0.985 . S
H1774 N1769 0.984 . S
H1775 N1769 0.985 . S
H1776 N1773 0.984 . S
H1777 N1773 0.985 . S
H1778 N1772 0.984 . S
H1779 N1772 0.984 . S
H1780 N1768 0.984 . S
H1781 N1768 0.985 . S
C1782 C1783 1.363 . S
C1782 C1788 1.379 . S
C1782 N1790 1.356 . S
C1783 C1782 1.363 . S
C1783 C1789 1.363 . S
C1784 C1785 1.363 . S
C1784 C1789 1.379 . S
C1784 N1791 1.356 . S
C1785 C1784 1.363 . S
C1785 C1788 1.363 . S
N1786 C1788 1.356 . S
N1786 H1798 0.984 . S
N1786 H1799 0.985 . S
N1787 C1789 1.356 . S
N1787 H1792 0.984 . S
N1787 H1793 0.985 . S
C1788 C1782 1.379 . S
C1788 C1785 1.363 . S
C1788 N1786 1.356 . S
C1789 C1783 1.363 . S
C1789 C1784 1.379 . S
C1789 N1787 1.356 . S
N1790 C1782 1.356 . S
N1790 H1796 0.984 . S
N1790 H1797 0.984 . S
N1791 C1784 1.356 . S
N1791 H1794 0.984 . S
N1791 H1795 0.985 . S
H1792 N1787 0.984 . S
H1793 N1787 0.985 . S
H1794 N1791 0.984 . S
H1795 N1791 0.985 . S
H1796 N1790 0.984 . S
H1797 N1790 0.984 . S
H1798 N1786 0.984 . S
H1799 N1786 0.985 . S
C1800 C1801 1.363 . S
C1800 C1806 1.379 . S
C1800 N1808 1.356 . S
C1801 C1800 1.363 . S
C1801 C1807 1.363 . S
C1802 C1803 1.363 . S
C1802 C1807 1.379 . S
C1802 N1809 1.356 . S
C1803 C1802 1.363 . S
C1803 C1806 1.363 . S
N1804 C1806 1.356 . S
N1804 H1816 0.984 . S
N1804 H1817 0.985 . S
N1805 C1807 1.356 . S
N1805 H1810 0.984 . S
N1805 H1811 0.985 . S
C1806 C1800 1.379 . S
C1806 C1803 1.363 . S
C1806 N1804 1.356 . S
C1807 C1801 1.363 . S
C1807 C1802 1.379 . S
C1807 N1805 1.356 . S
N1808 C1800 1.356 . S
N1808 H1814 0.984 . S
N1808 H1815 0.984 . S
N1809 C1802 1.356 . S
N1809 H1812 0.984 . S
N1809 H1813 0.985 . S
H1810 N1805 0.984 . S
H1811 N1805 0.985 . S
H1812 N1809 0.984 . S
H1813 N1809 0.985 . S
H1814 N1808 0.984 . S
H1815 N1808 0.984 . S
H1816 N1804 0.984 . S
H1817 N1804 0.985 . S
C1818 C1819 1.363 . S
C1818 C1824 1.379 . S
C1818 N1826 1.356 . S
C1819 C1818 1.363 . S
C1819 C1825 1.363 . S
C1820 C1821 1.363 . S
C1820 C1825 1.379 . S
C1820 N1827 1.356 . S
C1821 C1820 1.363 . S
C1821 C1824 1.363 . S
N1822 C1824 1.356 . S
N1822 H1834 0.984 . S
N1822 H1835 0.985 . S
N1823 C1825 1.356 . S
N1823 H1828 0.984 . S
N1823 H1829 0.985 . S
C1824 C1818 1.379 . S
C1824 C1821 1.363 . S
C1824 N1822 1.356 . S
C1825 C1819 1.363 . S
C1825 C1820 1.379 . S
C1825 N1823 1.356 . S
N1826 C1818 1.356 . S
N1826 H1832 0.984 . S
N1826 H1833 0.984 . S
N1827 C1820 1.356 . S
N1827 H1830 0.984 . S
N1827 H1831 0.985 . S
H1828 N1823 0.984 . S
H1829 N1823 0.985 . S
H1830 N1827 0.984 . S
H1831 N1827 0.985 . S
H1832 N1826 0.984 . S
H1833 N1826 0.984 . S
H1834 N1822 0.984 . S
H1835 N1822 0.985 . S
C1836 C1837 1.363 . S
C1836 C1842 1.379 . S
C1836 N1844 1.356 . S
C1837 C1836 1.363 . S
C1837 C1843 1.363 . S
C1838 C1839 1.363 . S
C1838 C1843 1.379 . S
C1838 N1845 1.356 . S
C1839 C1838 1.363 . S
C1839 C1842 1.363 . S
N1840 C1842 1.356 . S
N1840 H1852 0.984 . S
N1840 H1853 0.985 . S
N1841 C1843 1.356 . S
N1841 H1846 0.984 . S
N1841 H1847 0.985 . S
C1842 C1836 1.379 . S
C1842 C1839 1.363 . S
C1842 N1840 1.356 . S
C1843 C1837 1.363 . S
C1843 C1838 1.379 . S
C1843 N1841 1.356 . S
N1844 C1836 1.356 . S
N1844 H1850 0.984 . S
N1844 H1851 0.984 . S
N1845 C1838 1.356 . S
N1845 H1848 0.984 . S
N1845 H1849 0.985 . S
H1846 N1841 0.984 . S
H1847 N1841 0.985 . S
H1848 N1845 0.984 . S
H1849 N1845 0.985 . S
H1850 N1844 0.984 . S
H1851 N1844 0.984 . S
H1852 N1840 0.984 . S
H1853 N1840 0.985 . S
C1854 C1855 1.363 . S
C1854 C1860 1.379 . S
C1854 N1862 1.356 . S
C1855 C1854 1.363 . S
C1855 C1861 1.363 . S
C1856 C1857 1.363 . S
C1856 C1861 1.379 . S
C1856 N1863 1.356 . S
C1857 C1856 1.363 . S
C1857 C1860 1.363 . S
N1858 C1860 1.356 . S
N1858 H1870 0.984 . S
N1858 H1871 0.985 . S
N1859 C1861 1.356 . S
N1859 H1864 0.984 . S
N1859 H1865 0.985 . S
C1860 C1854 1.379 . S
C1860 C1857 1.363 . S
C1860 N1858 1.356 . S
C1861 C1855 1.363 . S
C1861 C1856 1.379 . S
C1861 N1859 1.356 . S
N1862 C1854 1.356 . S
N1862 H1868 0.984 . S
N1862 H1869 0.984 . S
N1863 C1856 1.356 . S
N1863 H1866 0.984 . S
N1863 H1867 0.985 . S
H1864 N1859 0.984 . S
H1865 N1859 0.985 . S
H1866 N1863 0.984 . S
H1867 N1863 0.985 . S
H1868 N1862 0.984 . S
H1869 N1862 0.984 . S
H1870 N1858 0.984 . S
H1871 N1858 0.985 . S
C1872 C1873 1.363 . S
C1872 C1878 1.379 . S
C1872 N1880 1.356 . S
C1873 C1872 1.363 . S
C1873 C1879 1.363 . S
C1874 C1875 1.363 . S
C1874 C1879 1.379 . S
C1874 N1881 1.356 . S
C1875 C1874 1.363 . S
C1875 C1878 1.363 . S
N1876 C1878 1.356 . S
N1876 H1888 0.984 . S
N1876 H1889 0.985 . S
N1877 C1879 1.356 . S
N1877 H1882 0.984 . S
N1877 H1883 0.985 . S
C1878 C1872 1.379 . S
C1878 C1875 1.363 . S
C1878 N1876 1.356 . S
C1879 C1873 1.363 . S
C1879 C1874 1.379 . S
C1879 N1877 1.356 . S
N1880 C1872 1.356 . S
N1880 H1886 0.984 . S
N1880 H1887 0.984 . S
N1881 C1874 1.356 . S
N1881 H1884 0.984 . S
N1881 H1885 0.985 . S
H1882 N1877 0.984 . S
H1883 N1877 0.985 . S
H1884 N1881 0.984 . S
H1885 N1881 0.985 . S
H1886 N1880 0.984 . S
H1887 N1880 0.984 . S
H1888 N1876 0.984 . S
H1889 N1876 0.985 . S
C1890 C1891 1.363 . S
C1890 C1896 1.379 . S
C1890 N1898 1.356 . S
C1891 C1890 1.363 . S
C1891 C1897 1.363 . S
C1892 C1893 1.363 . S
C1892 C1897 1.379 . S
C1892 N1899 1.356 . S
C1893 C1892 1.363 . S
C1893 C1896 1.363 . S
N1894 C1896 1.356 . S
N1894 H1906 0.984 . S
N1894 H1907 0.985 . S
N1895 C1897 1.356 . S
N1895 H1900 0.984 . S
N1895 H1901 0.985 . S
C1896 C1890 1.379 . S
C1896 C1893 1.363 . S
C1896 N1894 1.356 . S
C1897 C1891 1.363 . S
C1897 C1892 1.379 . S
C1897 N1895 1.356 . S
N1898 C1890 1.356 . S
N1898 H1904 0.984 . S
N1898 H1905 0.984 . S
N1899 C1892 1.356 . S
N1899 H1902 0.984 . S
N1899 H1903 0.985 . S
H1900 N1895 0.984 . S
H1901 N1895 0.985 . S
H1902 N1899 0.984 . S
H1903 N1899 0.985 . S
H1904 N1898 0.984 . S
H1905 N1898 0.984 . S
H1906 N1894 0.984 . S
H1907 N1894 0.985 . S
C1908 C1909 1.363 . S
C1908 C1914 1.379 . S
C1908 N1916 1.356 . S
C1909 C1908 1.363 . S
C1909 C1915 1.363 . S
C1910 C1911 1.363 . S
C1910 C1915 1.379 . S
C1910 N1917 1.356 . S
C1911 C1910 1.363 . S
C1911 C1914 1.363 . S
N1912 C1914 1.356 . S
N1912 H1924 0.984 . S
N1912 H1925 0.985 . S
N1913 C1915 1.356 . S
N1913 H1918 0.984 . S
N1913 H1919 0.985 . S
C1914 C1908 1.379 . S
C1914 C1911 1.363 . S
C1914 N1912 1.356 . S
C1915 C1909 1.363 . S
C1915 C1910 1.379 . S
C1915 N1913 1.356 . S
N1916 C1908 1.356 . S
N1916 H1922 0.984 . S
N1916 H1923 0.984 . S
N1917 C1910 1.356 . S
N1917 H1920 0.984 . S
N1917 H1921 0.985 . S
H1918 N1913 0.984 . S
H1919 N1913 0.985 . S
H1920 N1917 0.984 . S
H1921 N1917 0.985 . S
H1922 N1916 0.984 . S
H1923 N1916 0.984 . S
H1924 N1912 0.984 . S
H1925 N1912 0.985 . S
C1926 C1927 1.363 . S
C1926 C1932 1.379 . S
C1926 N1934 1.356 . S
C1927 C1926 1.363 . S
C1927 C1933 1.363 . S
C1928 C1929 1.363 . S
C1928 C1933 1.379 . S
C1928 N1935 1.356 . S
C1929 C1928 1.363 . S
C1929 C1932 1.363 . S
N1930 C1932 1.356 . S
N1930 H1942 0.984 . S
N1930 H1943 0.985 . S
N1931 C1933 1.356 . S
N1931 H1936 0.984 . S
N1931 H1937 0.985 . S
C1932 C1926 1.379 . S
C1932 C1929 1.363 . S
C1932 N1930 1.356 . S
C1933 C1927 1.363 . S
C1933 C1928 1.379 . S
C1933 N1931 1.356 . S
N1934 C1926 1.356 . S
N1934 H1940 0.984 . S
N1934 H1941 0.984 . S
N1935 C1928 1.356 . S
N1935 H1938 0.984 . S
N1935 H1939 0.985 . S
H1936 N1931 0.984 . S
H1937 N1931 0.985 . S
H1938 N1935 0.984 . S
H1939 N1935 0.985 . S
H1940 N1934 0.984 . S
H1941 N1934 0.984 . S
H1942 N1930 0.984 . S
H1943 N1930 0.985 . S
C1944 C1945 1.363 . S
C1944 C1950 1.379 . S
C1944 N1952 1.356 . S
C1945 C1944 1.363 . S
C1945 C1951 1.363 . S
C1946 C1947 1.363 . S
C1946 C1951 1.379 . S
C1946 N1953 1.356 . S
C1947 C1946 1.363 . S
C1947 C1950 1.363 . S
N1948 C1950 1.356 . S
N1948 H1960 0.984 . S
N1948 H1961 0.985 . S
N1949 C1951 1.356 . S
N1949 H1954 0.984 . S
N1949 H1955 0.985 . S
C1950 C1944 1.379 . S
C1950 C1947 1.363 . S
C1950 N1948 1.356 . S
C1951 C1945 1.363 . S
C1951 C1946 1.379 . S
C1951 N1949 1.356 . S
N1952 C1944 1.356 . S
N1952 H1958 0.984 . S
N1952 H1959 0.984 . S
N1953 C1946 1.356 . S
N1953 H1956 0.984 . S
N1953 H1957 0.985 . S
H1954 N1949 0.984 . S
H1955 N1949 0.985 . S
H1956 N1953 0.984 . S
H1957 N1953 0.985 . S
H1958 N1952 0.984 . S
H1959 N1952 0.984 . S
H1960 N1948 0.984 . S
H1961 N1948 0.985 . S
C1962 C1963 1.363 . S
C1962 C1968 1.379 . S
C1962 N1970 1.356 . S
C1963 C1962 1.363 . S
C1963 C1969 1.363 . S
C1964 C1965 1.363 . S
C1964 C1969 1.379 . S
C1964 N1971 1.356 . S
C1965 C1964 1.363 . S
C1965 C1968 1.363 . S
N1966 C1968 1.356 . S
N1966 H1978 0.984 . S
N1966 H1979 0.985 . S
N1967 C1969 1.356 . S
N1967 H1972 0.984 . S
N1967 H1973 0.985 . S
C1968 C1962 1.379 . S
C1968 C1965 1.363 . S
C1968 N1966 1.356 . S
C1969 C1963 1.363 . S
C1969 C1964 1.379 . S
C1969 N1967 1.356 . S
N1970 C1962 1.356 . S
N1970 H1976 0.984 . S
N1970 H1977 0.984 . S
N1971 C1964 1.356 . S
N1971 H1974 0.984 . S
N1971 H1975 0.985 . S
H1972 N1967 0.984 . S
H1973 N1967 0.985 . S
H1974 N1971 0.984 . S
H1975 N1971 0.985 . S
H1976 N1970 0.984 . S
H1977 N1970 0.984 . S
H1978 N1966 0.984 . S
H1979 N1966 0.985 . S
C1980 C1981 1.363 . S
C1980 C1986 1.379 . S
C1980 N1988 1.356 . S
C1981 C1980 1.363 . S
C1981 C1987 1.363 . S
C1982 C1983 1.363 . S
C1982 C1987 1.379 . S
C1982 N1989 1.356 . S
C1983 C1982 1.363 . S
C1983 C1986 1.363 . S
N1984 C1986 1.356 . S
N1984 H1996 0.984 . S
N1984 H1997 0.985 . S
N1985 C1987 1.356 . S
N1985 H1990 0.984 . S
N1985 H1991 0.985 . S
C1986 C1980 1.379 . S
C1986 C1983 1.363 . S
C1986 N1984 1.356 . S
C1987 C1981 1.363 . S
C1987 C1982 1.379 . S
C1987 N1985 1.356 . S
N1988 C1980 1.356 . S
N1988 H1994 0.984 . S
N1988 H1995 0.984 . S
N1989 C1982 1.356 . S
N1989 H1992 0.984 . S
N1989 H1993 0.985 . S
H1990 N1985 0.984 . S
H1991 N1985 0.985 . S
H1992 N1989 0.984 . S
H1993 N1989 0.985 . S
H1994 N1988 0.984 . S
H1995 N1988 0.984 . S
H1996 N1984 0.984 . S
H1997 N1984 0.985 . S
C1998 C1999 1.363 . S
C1998 C2004 1.379 . S
C1998 N2006 1.356 . S
C1999 C1998 1.363 . S
C1999 C2005 1.363 . S
C2000 C2001 1.363 . S
C2000 C2005 1.379 . S
C2000 N2007 1.356 . S
C2001 C2000 1.363 . S
C2001 C2004 1.363 . S
N2002 C2004 1.356 . S
N2002 H2014 0.984 . S
N2002 H2015 0.985 . S
N2003 C2005 1.356 . S
N2003 H2008 0.984 . S
N2003 H2009 0.985 . S
C2004 C1998 1.379 . S
C2004 C2001 1.363 . S
C2004 N2002 1.356 . S
C2005 C1999 1.363 . S
C2005 C2000 1.379 . S
C2005 N2003 1.356 . S
N2006 C1998 1.356 . S
N2006 H2012 0.984 . S
N2006 H2013 0.984 . S
N2007 C2000 1.356 . S
N2007 H2010 0.984 . S
N2007 H2011 0.985 . S
H2008 N2003 0.984 . S
H2009 N2003 0.985 . S
H2010 N2007 0.984 . S
H2011 N2007 0.985 . S
H2012 N2006 0.984 . S
H2013 N2006 0.984 . S
H2014 N2002 0.984 . S
H2015 N2002 0.985 . S
C2016 C2017 1.363 . S
C2016 C2022 1.379 . S
C2016 N2024 1.356 . S
C2017 C2016 1.363 . S
C2017 C2023 1.363 . S
C2018 C2019 1.363 . S
C2018 C2023 1.379 . S
C2018 N2025 1.356 . S
C2019 C2018 1.363 . S
C2019 C2022 1.363 . S
N2020 C2022 1.356 . S
N2020 H2032 0.984 . S
N2020 H2033 0.985 . S
N2021 C2023 1.356 . S
N2021 H2026 0.984 . S
N2021 H2027 0.985 . S
C2022 C2016 1.379 . S
C2022 C2019 1.363 . S
C2022 N2020 1.356 . S
C2023 C2017 1.363 . S
C2023 C2018 1.379 . S
C2023 N2021 1.356 . S
N2024 C2016 1.356 . S
N2024 H2030 0.984 . S
N2024 H2031 0.984 . S
N2025 C2018 1.356 . S
N2025 H2028 0.984 . S
N2025 H2029 0.985 . S
H2026 N2021 0.984 . S
H2027 N2021 0.985 . S
H2028 N2025 0.984 . S
H2029 N2025 0.985 . S
H2030 N2024 0.984 . S
H2031 N2024 0.984 . S
H2032 N2020 0.984 . S
H2033 N2020 0.985 . S
C2034 C2035 1.363 . S
C2034 C2040 1.379 . S
C2034 N2042 1.356 . S
C2035 C2034 1.363 . S
C2035 C2041 1.363 . S
C2036 C2037 1.363 . S
C2036 C2041 1.379 . S
C2036 N2043 1.356 . S
C2037 C2036 1.363 . S
C2037 C2040 1.363 . S
N2038 C2040 1.356 . S
N2038 H2050 0.984 . S
N2038 H2051 0.985 . S
N2039 C2041 1.356 . S
N2039 H2044 0.984 . S
N2039 H2045 0.985 . S
C2040 C2034 1.379 . S
C2040 C2037 1.363 . S
C2040 N2038 1.356 . S
C2041 C2035 1.363 . S
C2041 C2036 1.379 . S
C2041 N2039 1.356 . S
N2042 C2034 1.356 . S
N2042 H2048 0.984 . S
N2042 H2049 0.984 . S
N2043 C2036 1.356 . S
N2043 H2046 0.984 . S
N2043 H2047 0.985 . S
H2044 N2039 0.984 . S
H2045 N2039 0.985 . S
H2046 N2043 0.984 . S
H2047 N2043 0.985 . S
H2048 N2042 0.984 . S
H2049 N2042 0.984 . S
H2050 N2038 0.984 . S
H2051 N2038 0.985 . S
C2052 C2053 1.363 . S
C2052 C2058 1.379 . S
C2052 N2060 1.356 . S
C2053 C2052 1.363 . S
C2053 C2059 1.363 . S
C2054 C2055 1.363 . S
C2054 C2059 1.379 . S
C2054 N2061 1.356 . S
C2055 C2054 1.363 . S
C2055 C2058 1.363 . S
N2056 C2058 1.356 . S
N2056 H2068 0.984 . S
N2056 H2069 0.985 . S
N2057 C2059 1.356 . S
N2057 H2062 0.984 . S
N2057 H2063 0.985 . S
C2058 C2052 1.379 . S
C2058 C2055 1.363 . S
C2058 N2056 1.356 . S
C2059 C2053 1.363 . S
C2059 C2054 1.379 . S
C2059 N2057 1.356 . S
N2060 C2052 1.356 . S
N2060 H2066 0.984 . S
N2060 H2067 0.984 . S
N2061 C2054 1.356 . S
N2061 H2064 0.984 . S
N2061 H2065 0.985 . S
H2062 N2057 0.984 . S
H2063 N2057 0.985 . S
H2064 N2061 0.984 . S
H2065 N2061 0.985 . S
H2066 N2060 0.984 . S
H2067 N2060 0.984 . S
H2068 N2056 0.984 . S
H2069 N2056 0.985 . S
C2070 C2071 1.363 . S
C2070 C2076 1.379 . S
C2070 N2078 1.356 . S
C2071 C2070 1.363 . S
C2071 C2077 1.363 . S
C2072 C2073 1.363 . S
C2072 C2077 1.379 . S
C2072 N2079 1.356 . S
C2073 C2072 1.363 . S
C2073 C2076 1.363 . S
N2074 C2076 1.356 . S
N2074 H2086 0.984 . S
N2074 H2087 0.985 . S
N2075 C2077 1.356 . S
N2075 H2080 0.984 . S
N2075 H2081 0.985 . S
C2076 C2070 1.379 . S
C2076 C2073 1.363 . S
C2076 N2074 1.356 . S
C2077 C2071 1.363 . S
C2077 C2072 1.379 . S
C2077 N2075 1.356 . S
N2078 C2070 1.356 . S
N2078 H2084 0.984 . S
N2078 H2085 0.984 . S
N2079 C2072 1.356 . S
N2079 H2082 0.984 . S
N2079 H2083 0.985 . S
H2080 N2075 0.984 . S
H2081 N2075 0.985 . S
H2082 N2079 0.984 . S
H2083 N2079 0.985 . S
H2084 N2078 0.984 . S
H2085 N2078 0.984 . S
H2086 N2074 0.984 . S
H2087 N2074 0.985 . S
C2088 C2089 1.363 . S
C2088 C2094 1.379 . S
C2088 N2096 1.356 . S
C2089 C2088 1.363 . S
C2089 C2095 1.363 . S
C2090 C2091 1.363 . S
C2090 C2095 1.379 . S
C2090 N2097 1.356 . S
C2091 C2090 1.363 . S
C2091 C2094 1.363 . S
N2092 C2094 1.356 . S
N2092 H2104 0.984 . S
N2092 H2105 0.985 . S
N2093 C2095 1.356 . S
N2093 H2098 0.984 . S
N2093 H2099 0.985 . S
C2094 C2088 1.379 . S
C2094 C2091 1.363 . S
C2094 N2092 1.356 . S
C2095 C2089 1.363 . S
C2095 C2090 1.379 . S
C2095 N2093 1.356 . S
N2096 C2088 1.356 . S
N2096 H2102 0.984 . S
N2096 H2103 0.984 . S
N2097 C2090 1.356 . S
N2097 H2100 0.984 . S
N2097 H2101 0.985 . S
H2098 N2093 0.984 . S
H2099 N2093 0.985 . S
H2100 N2097 0.984 . S
H2101 N2097 0.985 . S
H2102 N2096 0.984 . S
H2103 N2096 0.984 . S
H2104 N2092 0.984 . S
H2105 N2092 0.985 . S
C2106 C2107 1.363 . S
C2106 C2112 1.379 . S
C2106 N2114 1.356 . S
C2107 C2106 1.363 . S
C2107 C2113 1.363 . S
C2108 C2109 1.363 . S
C2108 C2113 1.379 . S
C2108 N2115 1.356 . S
C2109 C2108 1.363 . S
C2109 C2112 1.363 . S
N2110 C2112 1.356 . S
N2110 H2122 0.984 . S
N2110 H2123 0.985 . S
N2111 C2113 1.356 . S
N2111 H2116 0.984 . S
N2111 H2117 0.985 . S
C2112 C2106 1.379 . S
C2112 C2109 1.363 . S
C2112 N2110 1.356 . S
C2113 C2107 1.363 . S
C2113 C2108 1.379 . S
C2113 N2111 1.356 . S
N2114 C2106 1.356 . S
N2114 H2120 0.984 . S
N2114 H2121 0.984 . S
N2115 C2108 1.356 . S
N2115 H2118 0.984 . S
N2115 H2119 0.985 . S
H2116 N2111 0.984 . S
H2117 N2111 0.985 . S
H2118 N2115 0.984 . S
H2119 N2115 0.985 . S
H2120 N2114 0.984 . S
H2121 N2114 0.984 . S
H2122 N2110 0.984 . S
H2123 N2110 0.985 . S
C2124 C2125 1.363 . S
C2124 C2130 1.379 . S
C2124 N2132 1.356 . S
C2125 C2124 1.363 . S
C2125 C2131 1.363 . S
C2126 C2127 1.363 . S
C2126 C2131 1.379 . S
C2126 N2133 1.356 . S
C2127 C2126 1.363 . S
C2127 C2130 1.363 . S
N2128 C2130 1.356 . S
N2128 H2140 0.984 . S
N2128 H2141 0.985 . S
N2129 C2131 1.356 . S
N2129 H2134 0.984 . S
N2129 H2135 0.985 . S
C2130 C2124 1.379 . S
C2130 C2127 1.363 . S
C2130 N2128 1.356 . S
C2131 C2125 1.363 . S
C2131 C2126 1.379 . S
C2131 N2129 1.356 . S
N2132 C2124 1.356 . S
N2132 H2138 0.984 . S
N2132 H2139 0.984 . S
N2133 C2126 1.356 . S
N2133 H2136 0.984 . S
N2133 H2137 0.985 . S
H2134 N2129 0.984 . S
H2135 N2129 0.985 . S
H2136 N2133 0.984 . S
H2137 N2133 0.985 . S
H2138 N2132 0.984 . S
H2139 N2132 0.984 . S
H2140 N2128 0.984 . S
H2141 N2128 0.985 . S
C2142 C2143 1.363 . S
C2142 C2148 1.379 . S
C2142 N2150 1.356 . S
C2143 C2142 1.363 . S
C2143 C2149 1.363 . S
C2144 C2145 1.363 . S
C2144 C2149 1.379 . S
C2144 N2151 1.356 . S
C2145 C2144 1.363 . S
C2145 C2148 1.363 . S
N2146 C2148 1.356 . S
N2146 H2158 0.984 . S
N2146 H2159 0.985 . S
N2147 C2149 1.356 . S
N2147 H2152 0.984 . S
N2147 H2153 0.985 . S
C2148 C2142 1.379 . S
C2148 C2145 1.363 . S
C2148 N2146 1.356 . S
C2149 C2143 1.363 . S
C2149 C2144 1.379 . S
C2149 N2147 1.356 . S
N2150 C2142 1.356 . S
N2150 H2156 0.984 . S
N2150 H2157 0.984 . S
N2151 C2144 1.356 . S
N2151 H2154 0.984 . S
N2151 H2155 0.985 . S
H2152 N2147 0.984 . S
H2153 N2147 0.985 . S
H2154 N2151 0.984 . S
H2155 N2151 0.985 . S
H2156 N2150 0.984 . S
H2157 N2150 0.984 . S
H2158 N2146 0.984 . S
H2159 N2146 0.985 . S
C2160 C2161 1.363 . S
C2160 C2166 1.379 . S
C2160 N2168 1.356 . S
C2161 C2160 1.363 . S
C2161 C2167 1.363 . S
C2162 C2163 1.363 . S
C2162 C2167 1.379 . S
C2162 N2169 1.356 . S
C2163 C2162 1.363 . S
C2163 C2166 1.363 . S
N2164 C2166 1.356 . S
N2164 H2176 0.984 . S
N2164 H2177 0.985 . S
N2165 C2167 1.356 . S
N2165 H2170 0.984 . S
N2165 H2171 0.985 . S
C2166 C2160 1.379 . S
C2166 C2163 1.363 . S
C2166 N2164 1.356 . S
C2167 C2161 1.363 . S
C2167 C2162 1.379 . S
C2167 N2165 1.356 . S
N2168 C2160 1.356 . S
N2168 H2174 0.984 . S
N2168 H2175 0.984 . S
N2169 C2162 1.356 . S
N2169 H2172 0.984 . S
N2169 H2173 0.985 . S
H2170 N2165 0.984 . S
H2171 N2165 0.985 . S
H2172 N2169 0.984 . S
H2173 N2169 0.985 . S
H2174 N2168 0.984 . S
H2175 N2168 0.984 . S
H2176 N2164 0.984 . S
H2177 N2164 0.985 . S
C2178 C2179 1.363 . S
C2178 C2184 1.379 . S
C2178 N2186 1.356 . S
C2179 C2178 1.363 . S
C2179 C2185 1.363 . S
C2180 C2181 1.363 . S
C2180 C2185 1.379 . S
C2180 N2187 1.356 . S
C2181 C2180 1.363 . S
C2181 C2184 1.363 . S
N2182 C2184 1.356 . S
N2182 H2194 0.984 . S
N2182 H2195 0.985 . S
N2183 C2185 1.356 . S
N2183 H2188 0.984 . S
N2183 H2189 0.985 . S
C2184 C2178 1.379 . S
C2184 C2181 1.363 . S
C2184 N2182 1.356 . S
C2185 C2179 1.363 . S
C2185 C2180 1.379 . S
C2185 N2183 1.356 . S
N2186 C2178 1.356 . S
N2186 H2192 0.984 . S
N2186 H2193 0.984 . S
N2187 C2180 1.356 . S
N2187 H2190 0.984 . S
N2187 H2191 0.985 . S
H2188 N2183 0.984 . S
H2189 N2183 0.985 . S
H2190 N2187 0.984 . S
H2191 N2187 0.985 . S
H2192 N2186 0.984 . S
H2193 N2186 0.984 . S
H2194 N2182 0.984 . S
H2195 N2182 0.985 . S
C2196 C2197 1.363 . S
C2196 C2202 1.379 . S
C2196 N2204 1.356 . S
C2197 C2196 1.363 . S
C2197 C2203 1.363 . S
C2198 C2199 1.363 . S
C2198 C2203 1.379 . S
C2198 N2205 1.356 . S
C2199 C2198 1.363 . S
C2199 C2202 1.363 . S
N2200 C2202 1.356 . S
N2200 H2212 0.984 . S
N2200 H2213 0.985 . S
N2201 C2203 1.356 . S
N2201 H2206 0.984 . S
N2201 H2207 0.985 . S
C2202 C2196 1.379 . S
C2202 C2199 1.363 . S
C2202 N2200 1.356 . S
C2203 C2197 1.363 . S
C2203 C2198 1.379 . S
C2203 N2201 1.356 . S
N2204 C2196 1.356 . S
N2204 H2210 0.984 . S
N2204 H2211 0.984 . S
N2205 C2198 1.356 . S
N2205 H2208 0.984 . S
N2205 H2209 0.985 . S
H2206 N2201 0.984 . S
H2207 N2201 0.985 . S
H2208 N2205 0.984 . S
H2209 N2205 0.985 . S
H2210 N2204 0.984 . S
H2211 N2204 0.984 . S
H2212 N2200 0.984 . S
H2213 N2200 0.985 . S
C2214 C2215 1.363 . S
C2214 C2220 1.379 . S
C2214 N2222 1.356 . S
C2215 C2214 1.363 . S
C2215 C2221 1.363 . S
C2216 C2217 1.363 . S
C2216 C2221 1.379 . S
C2216 N2223 1.356 . S
C2217 C2216 1.363 . S
C2217 C2220 1.363 . S
N2218 C2220 1.356 . S
N2218 H2230 0.984 . S
N2218 H2231 0.985 . S
N2219 C2221 1.356 . S
N2219 H2224 0.984 . S
N2219 H2225 0.985 . S
C2220 C2214 1.379 . S
C2220 C2217 1.363 . S
C2220 N2218 1.356 . S
C2221 C2215 1.363 . S
C2221 C2216 1.379 . S
C2221 N2219 1.356 . S
N2222 C2214 1.356 . S
N2222 H2228 0.984 . S
N2222 H2229 0.984 . S
N2223 C2216 1.356 . S
N2223 H2226 0.984 . S
N2223 H2227 0.985 . S
H2224 N2219 0.984 . S
H2225 N2219 0.985 . S
H2226 N2223 0.984 . S
H2227 N2223 0.985 . S
H2228 N2222 0.984 . S
H2229 N2222 0.984 . S
H2230 N2218 0.984 . S
H2231 N2218 0.985 . S
C2232 C2233 1.363 . S
C2232 C2238 1.379 . S
C2232 N2240 1.356 . S
C2233 C2232 1.363 . S
C2233 C2239 1.363 . S
C2234 C2235 1.363 . S
C2234 C2239 1.379 . S
C2234 N2241 1.356 . S
C2235 C2234 1.363 . S
C2235 C2238 1.363 . S
N2236 C2238 1.356 . S
N2236 H2248 0.984 . S
N2236 H2249 0.985 . S
N2237 C2239 1.356 . S
N2237 H2242 0.984 . S
N2237 H2243 0.985 . S
C2238 C2232 1.379 . S
C2238 C2235 1.363 . S
C2238 N2236 1.356 . S
C2239 C2233 1.363 . S
C2239 C2234 1.379 . S
C2239 N2237 1.356 . S
N2240 C2232 1.356 . S
N2240 H2246 0.984 . S
N2240 H2247 0.984 . S
N2241 C2234 1.356 . S
N2241 H2244 0.984 . S
N2241 H2245 0.985 . S
H2242 N2237 0.984 . S
H2243 N2237 0.985 . S
H2244 N2241 0.984 . S
H2245 N2241 0.985 . S
H2246 N2240 0.984 . S
H2247 N2240 0.984 . S
H2248 N2236 0.984 . S
H2249 N2236 0.985 . S
C2250 C2251 1.363 . S
C2250 C2256 1.379 . S
C2250 N2258 1.356 . S
C2251 C2250 1.363 . S
C2251 C2257 1.363 . S
C2252 C2253 1.363 . S
C2252 C2257 1.379 . S
C2252 N2259 1.356 . S
C2253 C2252 1.363 . S
C2253 C2256 1.363 . S
N2254 C2256 1.356 . S
N2254 H2266 0.984 . S
N2254 H2267 0.985 . S
N2255 C2257 1.356 . S
N2255 H2260 0.984 . S
N2255 H2261 0.985 . S
C2256 C2250 1.379 . S
C2256 C2253 1.363 . S
C2256 N2254 1.356 . S
C2257 C2251 1.363 . S
C2257 C2252 1.379 . S
C2257 N2255 1.356 . S
N2258 C2250 1.356 . S
N2258 H2264 0.984 . S
N2258 H2265 0.984 . S
N2259 C2252 1.356 . S
N2259 H2262 0.984 . S
N2259 H2263 0.985 . S
H2260 N2255 0.984 . S
H2261 N2255 0.985 . S
H2262 N2259 0.984 . S
H2263 N2259 0.985 . S
H2264 N2258 0.984 . S
H2265 N2258 0.984 . S
H2266 N2254 0.984 . S
H2267 N2254 0.985 . S
C2268 C2269 1.363 . S
C2268 C2274 1.379 . S
C2268 N2276 1.356 . S
C2269 C2268 1.363 . S
C2269 C2275 1.363 . S
C2270 C2271 1.363 . S
C2270 C2275 1.379 . S
C2270 N2277 1.356 . S
C2271 C2270 1.363 . S
C2271 C2274 1.363 . S
N2272 C2274 1.356 . S
N2272 H2284 0.984 . S
N2272 H2285 0.985 . S
N2273 C2275 1.356 . S
N2273 H2278 0.984 . S
N2273 H2279 0.985 . S
C2274 C2268 1.379 . S
C2274 C2271 1.363 . S
C2274 N2272 1.356 . S
C2275 C2269 1.363 . S
C2275 C2270 1.379 . S
C2275 N2273 1.356 . S
N2276 C2268 1.356 . S
N2276 H2282 0.984 . S
N2276 H2283 0.984 . S
N2277 C2270 1.356 . S
N2277 H2280 0.984 . S
N2277 H2281 0.985 . S
H2278 N2273 0.984 . S
H2279 N2273 0.985 . S
H2280 N2277 0.984 . S
H2281 N2277 0.985 . S
H2282 N2276 0.984 . S
H2283 N2276 0.984 . S
H2284 N2272 0.984 . S
H2285 N2272 0.985 . S
C2286 C2287 1.363 1_556 S
C2286 C2292 1.379 . S
C2286 N2294 1.356 . S
C2287 C2286 1.363 1_554 S
C2287 C2293 1.363 . S
C2288 C2289 1.363 1_554 S
C2288 C2293 1.379 . S
C2288 N2295 1.356 . S
C2289 C2288 1.363 1_556 S
C2289 C2292 1.363 . S
N2290 C2292 1.356 . S
N2290 H2302 0.984 . S
N2290 H2303 0.985 . S
N2291 C2293 1.356 . S
N2291 H2296 0.984 . S
N2291 H2297 0.985 . S
C2292 C2286 1.379 . S
C2292 C2289 1.363 . S
C2292 N2290 1.356 . S
C2293 C2287 1.363 . S
C2293 C2288 1.379 . S
C2293 N2291 1.356 . S
N2294 C2286 1.356 . S
N2294 H2300 0.984 . S
N2294 H2301 0.984 . S
N2295 C2288 1.356 . S
N2295 H2298 0.984 . S
N2295 H2299 0.985 . S
H2296 N2291 0.984 . S
H2297 N2291 0.985 . S
H2298 N2295 0.984 . S
H2299 N2295 0.985 . S
H2300 N2294 0.984 . S
H2301 N2294 0.984 . S
H2302 N2290 0.984 . S
H2303 N2290 0.985 . S
C2304 C2305 1.363 . S
C2304 C2310 1.379 . S
C2304 N2312 1.356 . S
C2305 C2304 1.363 . S
C2305 C2311 1.363 . S
C2306 C2307 1.363 . S
C2306 C2311 1.379 . S
C2306 N2313 1.356 . S
C2307 C2306 1.363 . S
C2307 C2310 1.363 . S
N2308 C2310 1.356 . S
N2308 H2320 0.984 . S
N2308 H2321 0.985 . S
N2309 C2311 1.356 1_554 S
N2309 H2314 0.984 . S
N2309 H2315 0.985 . S
C2310 C2304 1.379 . S
C2310 C2307 1.363 . S
C2310 N2308 1.356 . S
C2311 C2305 1.363 . S
C2311 C2306 1.379 . S
C2311 N2309 1.356 1_556 S
N2312 C2304 1.356 . S
N2312 H2318 1.031 . S
N2312 H2319 0.984 . S
N2313 C2306 1.356 . S
N2313 H2316 0.984 . S
N2313 H2317 0.985 . S
H2314 N2309 0.984 . S
H2315 N2309 0.985 . S
H2316 N2313 0.984 . S
H2317 N2313 0.985 . S
H2318 N2312 1.031 . S
H2319 N2312 0.984 . S
H2320 N2308 0.984 . S
H2321 N2308 0.985 . S
C2322 C2323 1.363 . S
C2322 C2328 1.379 . S
C2322 N2330 1.356 . S
C2323 C2322 1.363 . S
C2323 C2329 1.363 . S
C2324 C2325 1.363 . S
C2324 C2329 1.379 . S
C2324 N2331 1.356 . S
C2325 C2324 1.363 . S
C2325 C2328 1.363 . S
N2326 C2328 1.356 1_556 S
N2326 H2338 0.984 . S
N2326 H2339 0.985 . S
N2327 C2329 1.356 . S
N2327 H2332 0.984 . S
N2327 H2333 0.985 . S
C2328 C2322 1.379 . S
C2328 C2325 1.363 . S
C2328 N2326 1.356 1_554 S
C2329 C2323 1.363 . S
C2329 C2324 1.379 . S
C2329 N2327 1.356 . S
N2330 C2322 1.356 . S
N2330 H2336 0.984 . S
N2330 H2337 0.984 . S
N2331 C2324 1.356 . S
N2331 H2334 0.984 . S
N2331 H2335 0.985 . S
H2332 N2327 0.984 . S
H2333 N2327 0.985 . S
H2334 N2331 0.984 . S
H2335 N2331 0.985 . S
H2336 N2330 0.984 . S
H2337 N2330 0.984 . S
H2338 N2326 0.984 . S
H2339 N2326 0.985 . S
C2340 C2341 1.363 1_556 S
C2340 C2346 1.379 . S
C2340 N2348 1.356 . S
C2341 C2340 1.363 1_554 S
C2341 C2347 1.363 . S
C2342 C2343 1.363 . S
C2342 C2347 1.379 1_556 S
C2342 N2349 1.355 . S
C2343 C2342 1.363 . S
C2343 C2346 1.363 . S
N2344 C2346 1.356 . S
N2344 H2356 0.984 . S
N2344 H2357 0.985 . S
N2345 C2347 1.356 . S
N2345 H2350 0.984 . S
N2345 H2351 0.985 . S
C2346 C2340 1.379 . S
C2346 C2343 1.363 . S
C2346 N2344 1.356 . S
C2347 C2341 1.363 . S
C2347 C2342 1.379 1_554 S
C2347 N2345 1.356 . S
N2348 C2340 1.356 . S
N2348 H2354 0.984 . S
N2348 H2355 0.984 . S
N2349 C2342 1.355 . S
N2349 H2352 1.002 . S
N2349 H2353 0.968 1_556 S
H2350 N2345 0.984 . S
H2351 N2345 0.985 . S
H2352 N2349 1.002 . S
H2353 N2349 0.968 1_554 S
H2354 N2348 0.984 . S
H2355 N2348 0.984 . S
H2356 N2344 0.984 . S
H2357 N2344 0.985 . S
C2358 C2359 1.363 . S
C2358 C2364 1.379 . S
C2358 N2366 1.356 1_556 S
C2359 C2358 1.363 . S
C2359 C2365 1.363 . S
C2360 C2361 1.363 . S
C2360 C2365 1.379 . S
C2360 N2367 1.356 . S
C2361 C2360 1.363 . S
C2361 C2364 1.363 . S
N2362 C2364 1.356 . S
N2362 H2374 0.984 . S
N2362 H2375 0.985 . S
N2363 C2365 1.356 . S
N2363 H2368 0.984 . S
N2363 H2369 0.985 . S
C2364 C2358 1.379 . S
C2364 C2361 1.363 . S
C2364 N2362 1.356 . S
C2365 C2359 1.363 . S
C2365 C2360 1.379 . S
C2365 N2363 1.356 . S
N2366 C2358 1.356 1_554 S
N2366 H2372 0.984 . S
N2366 H2373 0.984 . S
N2367 C2360 1.356 . S
N2367 H2370 0.984 . S
N2367 H2371 0.985 . S
H2368 N2363 0.984 . S
H2369 N2363 0.985 . S
H2370 N2367 0.984 . S
H2371 N2367 0.985 . S
H2372 N2366 0.984 . S
H2373 N2366 0.984 . S
H2374 N2362 0.984 . S
H2375 N2362 0.985 . S
C2376 C2377 1.363 . S
C2376 C2382 1.379 . S
C2376 N2384 1.356 . S
C2377 C2376 1.363 . S
C2377 C2383 1.363 . S
C2378 C2379 1.357 1_556 S
C2378 C2383 1.359 1_556 S
C2378 N2385 1.386 . S
C2379 C2378 1.357 1_554 S
C2379 C2382 1.363 . S
N2380 C2382 1.356 . S
N2380 H2392 0.984 . S
N2380 H2393 0.985 . S
N2381 C2383 1.356 . S
N2381 H2386 0.984 . S
N2381 H2387 0.985 . S
C2382 C2376 1.379 . S
C2382 C2379 1.363 . S
C2382 N2380 1.356 . S
C2383 C2377 1.363 . S
C2383 C2378 1.359 1_554 S
C2383 N2381 1.356 . S
N2384 C2376 1.356 . S
N2384 H2390 0.984 . S
N2384 H2391 0.984 . S
N2385 C2378 1.386 . S
N2385 H2388 0.984 . S
N2385 H2389 0.985 . S
H2386 N2381 0.984 . S
H2387 N2381 0.985 . S
H2388 N2385 0.984 . S
H2389 N2385 0.985 . S
H2390 N2384 0.984 . S
H2391 N2384 0.984 . S
H2392 N2380 0.984 . S
H2393 N2380 0.985 . S
C2394 C2395 1.363 . S
C2394 C2400 1.379 . S
C2394 N2402 1.356 . S
C2395 C2394 1.363 . S
C2395 C2401 1.363 . S
C2396 C2397 1.363 . S
C2396 C2401 1.379 . S
C2396 N2403 1.356 . S
C2397 C2396 1.363 . S
C2397 C2400 1.363 . S
N2398 C2400 1.356 . S
N2398 H2410 0.984 . S
N2398 H2411 0.985 . S
N2399 C2401 1.356 . S
N2399 H2404 0.984 . S
N2399 H2405 0.985 . S
C2400 C2394 1.379 . S
C2400 C2397 1.363 . S
C2400 N2398 1.356 . S
C2401 C2395 1.363 . S
C2401 C2396 1.379 . S
C2401 N2399 1.356 . S
N2402 C2394 1.356 . S
N2402 H2408 0.984 1_565 S
N2402 H2409 0.984 . S
N2403 C2396 1.356 . S
N2403 H2406 0.984 . S
N2403 H2407 0.985 . S
H2404 N2399 0.984 . S
H2405 N2399 0.985 . S
H2406 N2403 0.984 . S
H2407 N2403 0.985 . S
H2408 N2402 0.984 1_545 S
H2409 N2402 0.984 . S
H2410 N2398 0.984 . S
H2411 N2398 0.985 . S
C2412 C2413 1.363 . S
C2412 C2418 1.379 . S
C2412 N2420 1.356 . S
C2413 C2412 1.363 . S
C2413 C2419 1.363 . S
C2414 C2415 1.363 . S
C2414 C2419 1.379 . S
C2414 N2421 1.356 . S
C2415 C2414 1.363 . S
C2415 C2418 1.363 . S
N2416 C2418 1.356 . S
N2416 H2428 0.984 . S
N2416 H2429 0.985 . S
N2417 C2419 1.356 . S
N2417 H2422 0.984 . S
N2417 H2423 0.985 . S
C2418 C2412 1.379 . S
C2418 C2415 1.363 . S
C2418 N2416 1.356 . S
C2419 C2413 1.363 . S
C2419 C2414 1.379 . S
C2419 N2417 1.356 . S
N2420 C2412 1.356 . S
N2420 H2426 0.984 . S
N2420 H2427 0.984 . S
N2421 C2414 1.356 . S
N2421 H2424 0.984 . S
N2421 H2425 0.985 . S
H2422 N2417 0.984 . S
H2423 N2417 0.985 . S
H2424 N2421 0.984 . S
H2425 N2421 0.985 . S
H2426 N2420 0.984 . S
H2427 N2420 0.984 . S
H2428 N2416 0.984 . S
H2429 N2416 0.985 . S
C2430 C2431 1.363 . S
C2430 C2436 1.379 . S
C2430 N2438 1.356 . S
C2431 C2430 1.363 . S
C2431 C2437 1.363 . S
C2432 C2433 1.363 . S
C2432 C2437 1.379 . S
C2432 N2439 1.356 . S
C2433 C2432 1.363 . S
C2433 C2436 1.363 . S
N2434 C2436 1.356 . S
N2434 H2446 0.984 . S
N2434 H2447 0.985 . S
N2435 C2437 1.356 . S
N2435 H2440 0.984 . S
N2435 H2441 0.985 . S
C2436 C2430 1.379 . S
C2436 C2433 1.363 . S
C2436 N2434 1.356 . S
C2437 C2431 1.363 . S
C2437 C2432 1.379 . S
C2437 N2435 1.356 . S
N2438 C2430 1.356 . S
N2438 H2444 0.984 1_554 S
N2438 H2445 0.984 . S
N2439 C2432 1.356 . S
N2439 H2442 0.984 . S
N2439 H2443 0.985 . S
H2440 N2435 0.984 . S
H2441 N2435 0.985 . S
H2442 N2439 0.984 . S
H2443 N2439 0.985 . S
H2444 N2438 0.984 1_556 S
H2445 N2438 0.984 . S
H2446 N2434 0.984 . S
H2447 N2434 0.985 . S
C2448 C2449 1.363 . S
C2448 C2454 1.379 . S
C2448 N2456 1.356 . S
C2449 C2448 1.363 . S
C2449 C2455 1.363 . S
C2450 C2451 1.363 . S
C2450 C2455 1.379 . S
C2450 N2457 1.356 . S
C2451 C2450 1.363 . S
C2451 C2454 1.363 . S
N2452 C2454 1.356 . S
N2452 H2464 0.984 . S
N2452 H2465 0.985 . S
N2453 C2455 1.356 . S
N2453 H2458 0.984 . S
N2453 H2459 0.985 . S
C2454 C2448 1.379 . S
C2454 C2451 1.363 . S
C2454 N2452 1.356 . S
C2455 C2449 1.363 . S
C2455 C2450 1.379 . S
C2455 N2453 1.356 . S
N2456 C2448 1.356 . S
N2456 H2462 0.984 . S
N2456 H2463 0.984 . S
N2457 C2450 1.356 . S
N2457 H2460 0.984 . S
N2457 H2461 0.985 . S
H2458 N2453 0.984 . S
H2459 N2453 0.985 . S
H2460 N2457 0.984 . S
H2461 N2457 0.985 . S
H2462 N2456 0.984 . S
H2463 N2456 0.984 . S
H2464 N2452 0.984 . S
H2465 N2452 0.985 . S
C2466 C2467 1.363 . S
C2466 C2472 1.379 . S
C2466 N2474 1.356 . S
C2467 C2466 1.363 . S
C2467 C2473 1.363 . S
C2468 C2469 1.363 . S
C2468 C2473 1.379 . S
C2468 N2475 1.356 . S
C2469 C2468 1.363 . S
C2469 C2472 1.363 . S
N2470 C2472 1.356 . S
N2470 H2482 0.984 . S
N2470 H2483 0.985 . S
N2471 C2473 1.356 . S
N2471 H2476 0.984 . S
N2471 H2477 0.985 . S
C2472 C2466 1.379 . S
C2472 C2469 1.363 . S
C2472 N2470 1.356 . S
C2473 C2467 1.363 . S
C2473 C2468 1.379 . S
C2473 N2471 1.356 . S
N2474 C2466 1.356 . S
N2474 H2480 0.984 . S
N2474 H2481 0.984 . S
N2475 C2468 1.356 . S
N2475 H2478 0.984 . S
N2475 H2479 0.985 . S
H2476 N2471 0.984 . S
H2477 N2471 0.985 . S
H2478 N2475 0.984 . S
H2479 N2475 0.985 . S
H2480 N2474 0.984 . S
H2481 N2474 0.984 . S
H2482 N2470 0.984 . S
H2483 N2470 0.985 . S
C2484 C2485 1.363 . S
C2484 C2490 1.379 . S
C2484 N2492 1.356 . S
C2485 C2484 1.363 . S
C2485 C2491 1.363 . S
C2486 C2487 1.363 . S
C2486 C2491 1.379 . S
C2486 N2493 1.356 . S
C2487 C2486 1.363 . S
C2487 C2490 1.363 . S
N2488 C2490 1.356 . S
N2488 H2500 0.984 . S
N2488 H2501 0.985 . S
N2489 C2491 1.356 . S
N2489 H2494 0.984 1_655 S
N2489 H2495 0.976 1_655 S
C2490 C2484 1.379 . S
C2490 C2487 1.363 . S
C2490 N2488 1.356 . S
C2491 C2485 1.363 . S
C2491 C2486 1.379 . S
C2491 N2489 1.356 . S
N2492 C2484 1.356 . S
N2492 H2498 0.984 . S
N2492 H2499 0.984 . S
N2493 C2486 1.356 . S
N2493 H2496 0.984 . S
N2493 H2497 0.985 . S
H2494 N2489 0.984 1_455 S
H2495 N2489 0.976 1_455 S
H2496 N2493 0.984 . S
H2497 N2493 0.985 . S
H2498 N2492 0.984 . S
H2499 N2492 0.984 . S
H2500 N2488 0.984 . S
H2501 N2488 0.985 . S
C2502 C2503 1.363 . S
C2502 C2508 1.379 . S
C2502 N2510 1.356 . S
C2503 C2502 1.363 . S
C2503 C2509 1.363 . S
C2504 C2505 1.363 . S
C2504 C2509 1.379 . S
C2504 N2511 1.356 . S
C2505 C2504 1.363 . S
C2505 C2508 1.363 . S
N2506 C2508 1.359 1_655 S
N2506 H2518 0.983 . S
N2506 H2519 0.973 . S
N2507 C2509 1.356 . S
N2507 H2512 0.984 . S
N2507 H2513 0.985 . S
C2508 C2502 1.379 . S
C2508 C2505 1.363 . S
C2508 N2506 1.359 1_455 S
C2509 C2503 1.363 . S
C2509 C2504 1.379 . S
C2509 N2507 1.356 . S
N2510 C2502 1.356 . S
N2510 H2516 0.984 . S
N2510 H2517 0.984 . S
N2511 C2504 1.356 . S
N2511 H2514 0.984 . S
N2511 H2515 0.985 . S
H2512 N2507 0.984 . S
H2513 N2507 0.985 . S
H2514 N2511 0.984 . S
H2515 N2511 0.985 . S
H2516 N2510 0.984 . S
H2517 N2510 0.984 . S
H2518 N2506 0.983 . S
H2519 N2506 0.973 . S
C2520 C2521 1.363 . S
C2520 C2526 1.379 . S
C2520 N2528 1.356 . S
C2521 C2520 1.363 . S
C2521 C2527 1.363 . S
C2522 C2523 1.363 . S
C2522 C2527 1.379 . S
C2522 N2529 1.356 . S
C2523 C2522 1.363 . S
C2523 C2526 1.363 . S
N2524 C2526 1.356 . S
N2524 H2536 0.984 . S
N2524 H2537 0.985 . S
N2525 C2527 1.356 . S
N2525 H2530 0.984 . S
N2525 H2531 0.985 . S
C2526 C2520 1.379 . S
C2526 C2523 1.363 . S
C2526 N2524 1.356 . S
C2527 C2521 1.363 . S
C2527 C2522 1.379 . S
C2527 N2525 1.356 . S
N2528 C2520 1.356 . S
N2528 H2534 0.984 . S
N2528 H2535 0.984 . S
N2529 C2522 1.356 . S
N2529 H2532 0.984 . S
N2529 H2533 0.985 . S
H2530 N2525 0.984 . S
H2531 N2525 0.985 . S
H2532 N2529 0.984 . S
H2533 N2529 0.985 . S
H2534 N2528 0.984 . S
H2535 N2528 0.984 . S
H2536 N2524 0.984 . S
H2537 N2524 0.985 . S
C2538 C2539 1.363 . S
C2538 C2544 1.379 . S
C2538 N2546 1.370 . S
C2539 C2538 1.363 . S
C2539 C2545 1.363 . S
C2540 C2541 1.363 . S
C2540 C2545 1.379 . S
C2540 N2547 1.356 . S
C2541 C2540 1.363 . S
C2541 C2544 1.363 . S
N2542 C2544 1.356 1_545 S
N2542 H2554 0.984 . S
N2542 H2555 0.985 . S
N2543 C2545 1.356 . S
N2543 H2548 0.984 . S
N2543 H2549 0.985 . S
C2544 C2538 1.379 . S
C2544 C2541 1.363 . S
C2544 N2542 1.356 1_565 S
C2545 C2539 1.363 . S
C2545 C2540 1.379 . S
C2545 N2543 1.356 . S
N2546 C2538 1.370 . S
N2546 H2552 0.970 1_565 S
N2546 H2553 0.985 . S
N2547 C2540 1.356 . S
N2547 H2550 0.984 . S
N2547 H2551 0.985 . S
H2548 N2543 0.984 . S
H2549 N2543 0.985 . S
H2550 N2547 0.984 . S
H2551 N2547 0.985 . S
H2552 N2546 0.970 1_545 S
H2553 N2546 0.985 . S
H2554 N2542 0.984 . S
H2555 N2542 0.985 . S
C2556 C2557 1.363 . S
C2556 C2562 1.379 . S
C2556 N2564 1.356 . S
C2557 C2556 1.363 . S
C2557 C2563 1.363 . S
C2558 C2559 1.363 . S
C2558 C2563 1.379 . S
C2558 N2565 1.356 1_565 S
C2559 C2558 1.363 . S
C2559 C2562 1.363 . S
N2560 C2562 1.356 . S
N2560 H2572 0.984 . S
N2560 H2573 1.000 . S
N2561 C2563 1.356 . S
N2561 H2566 0.984 . S
N2561 H2567 0.985 . S
C2562 C2556 1.379 . S
C2562 C2559 1.363 . S
C2562 N2560 1.356 . S
C2563 C2557 1.363 . S
C2563 C2558 1.379 . S
C2563 N2561 1.356 . S
N2564 C2556 1.356 . S
N2564 H2570 0.984 . S
N2564 H2571 0.984 . S
N2565 C2558 1.356 1_545 S
N2565 H2568 0.984 . S
N2565 H2569 0.985 . S
H2566 N2561 0.984 . S
H2567 N2561 0.985 . S
H2568 N2565 0.984 . S
H2569 N2565 0.985 . S
H2570 N2564 0.984 . S
H2571 N2564 0.984 . S
H2572 N2560 0.984 . S
H2573 N2560 1.000 . S
C2574 C2575 1.363 . S
C2574 C2580 1.379 . S
C2574 N2582 1.356 . S
C2575 C2574 1.363 . S
C2575 C2581 1.363 . S
C2576 C2577 1.363 . S
C2576 C2581 1.379 . S
C2576 N2583 1.356 1_455 S
C2577 C2576 1.363 . S
C2577 C2580 1.363 . S
N2578 C2580 1.356 . S
N2578 H2590 0.984 . S
N2578 H2591 0.985 1_455 S
N2579 C2581 1.356 . S
N2579 H2584 0.984 . S
N2579 H2585 0.985 . S
C2580 C2574 1.379 . S
C2580 C2577 1.363 . S
C2580 N2578 1.356 . S
C2581 C2575 1.363 . S
C2581 C2576 1.379 . S
C2581 N2579 1.356 . S
N2582 C2574 1.356 . S
N2582 H2588 0.984 . S
N2582 H2589 0.984 . S
N2583 C2576 1.356 1_655 S
N2583 H2586 0.984 . S
N2583 H2587 0.973 . S
H2584 N2579 0.984 . S
H2585 N2579 0.985 . S
H2586 N2583 0.984 . S
H2587 N2583 0.973 . S
H2588 N2582 0.984 . S
H2589 N2582 0.984 . S
H2590 N2578 0.984 . S
H2591 N2578 0.985 1_655 S
C2592 C2593 1.363 . S
C2592 C2598 1.379 . S
C2592 N2600 1.356 . S
C2593 C2592 1.363 . S
C2593 C2599 1.363 . S
C2594 C2595 1.363 . S
C2594 C2599 1.379 . S
C2594 N2601 1.356 . S
C2595 C2594 1.363 . S
C2595 C2598 1.363 . S
N2596 C2598 1.356 . S
N2596 H2608 0.984 . S
N2596 H2609 0.985 . S
N2597 C2599 1.356 . S
N2597 H2602 0.984 . S
N2597 H2603 0.985 . S
C2598 C2592 1.379 . S
C2598 C2595 1.363 . S
C2598 N2596 1.356 . S
C2599 C2593 1.363 . S
C2599 C2594 1.379 . S
C2599 N2597 1.356 . S
N2600 C2592 1.356 . S
N2600 H2606 0.984 . S
N2600 H2607 0.984 . S
N2601 C2594 1.356 . S
N2601 H2604 0.984 . S
N2601 H2605 0.985 . S
H2602 N2597 0.984 . S
H2603 N2597 0.985 . S
H2604 N2601 0.984 . S
H2605 N2601 0.985 . S
H2606 N2600 0.984 . S
H2607 N2600 0.984 . S
H2608 N2596 0.984 . S
H2609 N2596 0.985 . S
C2610 C2611 1.363 . S
C2610 C2616 1.379 . S
C2610 N2618 1.356 . S
C2611 C2610 1.363 . S
C2611 C2617 1.363 . S
C2612 C2613 1.363 . S
C2612 C2617 1.379 . S
C2612 N2619 1.356 . S
C2613 C2612 1.363 . S
C2613 C2616 1.363 . S
N2614 C2616 1.356 . S
N2614 H2626 0.984 . S
N2614 H2627 0.985 . S
N2615 C2617 1.356 . S
N2615 H2620 0.984 . S
N2615 H2621 0.985 . S
C2616 C2610 1.379 . S
C2616 C2613 1.363 . S
C2616 N2614 1.356 . S
C2617 C2611 1.363 . S
C2617 C2612 1.379 . S
C2617 N2615 1.356 . S
N2618 C2610 1.356 . S
N2618 H2624 0.984 . S
N2618 H2625 0.984 . S
N2619 C2612 1.356 . S
N2619 H2622 0.984 . S
N2619 H2623 0.985 . S
H2620 N2615 0.984 . S
H2621 N2615 0.985 . S
H2622 N2619 0.984 . S
H2623 N2619 0.985 . S
H2624 N2618 0.984 . S
H2625 N2618 0.984 . S
H2626 N2614 0.984 . S
H2627 N2614 0.985 . S
C2628 C2629 1.363 . S
C2628 C2634 1.379 . S
C2628 N2636 1.356 . S
C2629 C2628 1.363 . S
C2629 C2635 1.363 . S
C2630 C2631 1.363 . S
C2630 C2635 1.379 . S
C2630 N2637 1.356 . S
C2631 C2630 1.363 . S
C2631 C2634 1.363 . S
N2632 C2634 1.356 . S
N2632 H2644 0.984 . S
N2632 H2645 0.985 . S
N2633 C2635 1.356 . S
N2633 H2638 0.984 . S
N2633 H2639 0.985 . S
C2634 C2628 1.379 . S
C2634 C2631 1.363 . S
C2634 N2632 1.356 . S
C2635 C2629 1.363 . S
C2635 C2630 1.379 . S
C2635 N2633 1.356 . S
N2636 C2628 1.356 . S
N2636 H2642 0.984 . S
N2636 H2643 0.984 . S
N2637 C2630 1.356 . S
N2637 H2640 0.984 . S
N2637 H2641 0.985 . S
H2638 N2633 0.984 . S
H2639 N2633 0.985 . S
H2640 N2637 0.984 . S
H2641 N2637 0.985 . S
H2642 N2636 0.984 . S
H2643 N2636 0.984 . S
H2644 N2632 0.984 . S
H2645 N2632 0.985 . S
C2646 C2647 1.363 . S
C2646 C2652 1.379 . S
C2646 N2654 1.356 . S
C2647 C2646 1.363 . S
C2647 C2653 1.363 . S
C2648 C2649 1.363 . S
C2648 C2653 1.379 . S
C2648 N2655 1.356 . S
C2649 C2648 1.363 . S
C2649 C2652 1.363 . S
N2650 C2652 1.356 . S
N2650 H2662 0.984 . S
N2650 H2663 0.985 . S
N2651 C2653 1.356 . S
N2651 H2656 0.984 1_655 S
N2651 H2657 0.985 . S
C2652 C2646 1.379 . S
C2652 C2649 1.363 . S
C2652 N2650 1.356 . S
C2653 C2647 1.363 . S
C2653 C2648 1.379 . S
C2653 N2651 1.356 . S
N2654 C2646 1.356 . S
N2654 H2660 0.984 . S
N2654 H2661 0.984 . S
N2655 C2648 1.356 . S
N2655 H2658 0.984 . S
N2655 H2659 0.985 . S
H2656 N2651 0.984 1_455 S
H2657 N2651 0.985 . S
H2658 N2655 0.984 . S
H2659 N2655 0.985 . S
H2660 N2654 0.984 . S
H2661 N2654 0.984 . S
H2662 N2650 0.984 . S
H2663 N2650 0.985 . S
C2664 C2665 1.363 . S
C2664 C2670 1.379 . S
C2664 N2672 1.356 . S
C2665 C2664 1.363 . S
C2665 C2671 1.363 . S
C2666 C2667 1.363 . S
C2666 C2671 1.379 . S
C2666 N2673 1.356 . S
C2667 C2666 1.363 . S
C2667 C2670 1.363 . S
N2668 C2670 1.356 1_565 S
N2668 H2680 0.984 . S
N2668 H2681 0.985 . S
N2669 C2671 1.356 . S
N2669 H2674 0.984 . S
N2669 H2675 0.985 . S
C2670 C2664 1.379 . S
C2670 C2667 1.363 . S
C2670 N2668 1.356 1_545 S
C2671 C2665 1.363 . S
C2671 C2666 1.379 . S
C2671 N2669 1.356 . S
N2672 C2664 1.356 . S
N2672 H2678 0.984 1_545 S
N2672 H2679 0.984 . S
N2673 C2666 1.356 . S
N2673 H2676 0.984 . S
N2673 H2677 0.985 . S
H2674 N2669 0.984 . S
H2675 N2669 0.985 . S
H2676 N2673 0.984 . S
H2677 N2673 0.985 . S
H2678 N2672 0.984 1_565 S
H2679 N2672 0.984 . S
H2680 N2668 0.984 . S
H2681 N2668 0.985 . S
C2682 C2683 1.363 . S
C2682 C2688 1.379 . S
C2682 N2690 1.356 . S
C2683 C2682 1.363 . S
C2683 C2689 1.363 . S
C2684 C2685 1.363 . S
C2684 C2689 1.379 . S
C2684 N2691 1.356 1_655 S
C2685 C2684 1.363 . S
C2685 C2688 1.363 . S
N2686 C2688 1.356 . S
N2686 H2698 0.984 . S
N2686 H2699 0.985 . S
N2687 C2689 1.356 . S
N2687 H2692 0.984 . S
N2687 H2693 0.985 1_655 S
C2688 C2682 1.379 . S
C2688 C2685 1.363 . S
C2688 N2686 1.356 . S
C2689 C2683 1.363 . S
C2689 C2684 1.379 . S
C2689 N2687 1.356 . S
N2690 C2682 1.356 . S
N2690 H2696 0.984 . S
N2690 H2697 0.984 . S
N2691 C2684 1.356 1_455 S
N2691 H2694 0.984 . S
N2691 H2695 0.985 . S
H2692 N2687 0.984 . S
H2693 N2687 0.985 1_455 S
H2694 N2691 0.984 . S
H2695 N2691 0.985 . S
H2696 N2690 0.984 . S
H2697 N2690 0.984 . S
H2698 N2686 0.984 . S
H2699 N2686 0.985 . S
C2700 C2701 1.363 . S
C2700 C2706 1.379 . S
C2700 N2708 1.356 . S
C2701 C2700 1.363 . S
C2701 C2707 1.363 . S
C2702 C2703 1.363 . S
C2702 C2707 1.379 . S
C2702 N2709 1.356 . S
C2703 C2702 1.363 . S
C2703 C2706 1.363 . S
N2704 C2706 1.356 . S
N2704 H2716 0.984 . S
N2704 H2717 0.985 . S
N2705 C2707 1.356 . S
N2705 H2710 0.984 . S
N2705 H2711 0.985 . S
C2706 C2700 1.379 . S
C2706 C2703 1.363 . S
C2706 N2704 1.356 . S
C2707 C2701 1.363 . S
C2707 C2702 1.379 . S
C2707 N2705 1.356 . S
N2708 C2700 1.356 . S
N2708 H2714 0.984 . S
N2708 H2715 0.984 . S
N2709 C2702 1.356 . S
N2709 H2712 0.984 . S
N2709 H2713 0.985 . S
H2710 N2705 0.984 . S
H2711 N2705 0.985 . S
H2712 N2709 0.984 . S
H2713 N2709 0.985 . S
H2714 N2708 0.984 . S
H2715 N2708 0.984 . S
H2716 N2704 0.984 . S
H2717 N2704 0.985 . S
C2718 C2719 1.363 . S
C2718 C2724 1.379 . S
C2718 N2726 1.356 . S
C2719 C2718 1.363 . S
C2719 C2725 1.363 . S
C2720 C2721 1.363 . S
C2720 C2725 1.379 . S
C2720 N2727 1.356 . S
C2721 C2720 1.363 . S
C2721 C2724 1.363 . S
N2722 C2724 1.356 . S
N2722 H2734 0.984 . S
N2722 H2735 0.985 . S
N2723 C2725 1.356 . S
N2723 H2728 0.984 . S
N2723 H2729 0.985 . S
C2724 C2718 1.379 . S
C2724 C2721 1.363 . S
C2724 N2722 1.356 . S
C2725 C2719 1.363 . S
C2725 C2720 1.379 . S
C2725 N2723 1.356 . S
N2726 C2718 1.356 . S
N2726 H2732 0.984 . S
N2726 H2733 0.984 . S
N2727 C2720 1.356 . S
N2727 H2730 0.984 . S
N2727 H2731 0.985 . S
H2728 N2723 0.984 . S
H2729 N2723 0.985 . S
H2730 N2727 0.984 . S
H2731 N2727 0.985 . S
H2732 N2726 0.984 . S
H2733 N2726 0.984 . S
H2734 N2722 0.984 . S
H2735 N2722 0.985 . S
C2736 C2737 1.363 . S
C2736 C2742 1.379 . S
C2736 N2744 1.356 . S
C2737 C2736 1.363 . S
C2737 C2743 1.363 . S
C2738 C2739 1.363 . S
C2738 C2743 1.379 . S
C2738 N2745 1.356 . S
C2739 C2738 1.363 . S
C2739 C2742 1.363 . S
N2740 C2742 1.356 . S
N2740 H2752 0.984 . S
N2740 H2753 0.985 . S
N2741 C2743 1.356 . S
N2741 H2746 0.984 . S
N2741 H2747 0.985 . S
C2742 C2736 1.379 . S
C2742 C2739 1.363 . S
C2742 N2740 1.356 . S
C2743 C2737 1.363 . S
C2743 C2738 1.379 . S
C2743 N2741 1.356 . S
N2744 C2736 1.356 . S
N2744 H2750 0.984 . S
N2744 H2751 0.984 . S
N2745 C2738 1.356 . S
N2745 H2748 0.984 . S
N2745 H2749 0.985 . S
H2746 N2741 0.984 . S
H2747 N2741 0.985 . S
H2748 N2745 0.984 . S
H2749 N2745 0.985 . S
H2750 N2744 0.984 . S
H2751 N2744 0.984 . S
H2752 N2740 0.984 . S
H2753 N2740 0.985 . S
C2754 C2755 1.363 . S
C2754 C2760 1.379 . S
C2754 N2762 1.356 . S
C2755 C2754 1.363 . S
C2755 C2761 1.363 . S
C2756 C2757 1.363 . S
C2756 C2761 1.379 . S
C2756 N2763 1.356 . S
C2757 C2756 1.363 . S
C2757 C2760 1.363 . S
N2758 C2760 1.356 . S
N2758 H2770 0.984 . S
N2758 H2771 0.985 . S
N2759 C2761 1.356 . S
N2759 H2764 0.984 . S
N2759 H2765 0.985 . S
C2760 C2754 1.379 . S
C2760 C2757 1.363 . S
C2760 N2758 1.356 . S
C2761 C2755 1.363 . S
C2761 C2756 1.379 . S
C2761 N2759 1.356 . S
N2762 C2754 1.356 . S
N2762 H2768 0.984 . S
N2762 H2769 0.984 . S
N2763 C2756 1.356 . S
N2763 H2766 0.984 . S
N2763 H2767 0.985 . S
H2764 N2759 0.984 . S
H2765 N2759 0.985 . S
H2766 N2763 0.984 . S
H2767 N2763 0.985 . S
H2768 N2762 0.984 . S
H2769 N2762 0.984 . S
H2770 N2758 0.984 . S
H2771 N2758 0.985 . S
C2772 C2773 1.363 . S
C2772 C2778 1.379 . S
C2772 N2780 1.356 . S
C2773 C2772 1.363 . S
C2773 C2779 1.363 . S
C2774 C2775 1.363 . S
C2774 C2779 1.379 . S
C2774 N2781 1.356 . S
C2775 C2774 1.363 . S
C2775 C2778 1.363 . S
N2776 C2778 1.356 . S
N2776 H2788 0.984 . S
N2776 H2789 0.985 . S
N2777 C2779 1.356 . S
N2777 H2782 0.984 . S
N2777 H2783 0.985 . S
C2778 C2772 1.379 . S
C2778 C2775 1.363 . S
C2778 N2776 1.356 . S
C2779 C2773 1.363 . S
C2779 C2774 1.379 . S
C2779 N2777 1.356 . S
N2780 C2772 1.356 . S
N2780 H2786 0.984 . S
N2780 H2787 0.984 . S
N2781 C2774 1.356 . S
N2781 H2784 0.984 . S
N2781 H2785 0.985 . S
H2782 N2777 0.984 . S
H2783 N2777 0.985 . S
H2784 N2781 0.984 . S
H2785 N2781 0.985 . S
H2786 N2780 0.984 . S
H2787 N2780 0.984 . S
H2788 N2776 0.984 . S
H2789 N2776 0.985 . S
C2790 C2791 1.363 . S
C2790 C2796 1.379 . S
C2790 N2798 1.356 . S
C2791 C2790 1.363 . S
C2791 C2797 1.363 . S
C2792 C2793 1.363 . S
C2792 C2797 1.379 . S
C2792 N2799 1.356 . S
C2793 C2792 1.363 . S
C2793 C2796 1.363 . S
N2794 C2796 1.356 . S
N2794 H2806 0.984 . S
N2794 H2807 0.985 . S
N2795 C2797 1.356 . S
N2795 H2800 0.984 . S
N2795 H2801 0.985 . S
C2796 C2790 1.379 . S
C2796 C2793 1.363 . S
C2796 N2794 1.356 . S
C2797 C2791 1.363 . S
C2797 C2792 1.379 . S
C2797 N2795 1.356 . S
N2798 C2790 1.356 . S
N2798 H2804 0.984 . S
N2798 H2805 0.984 . S
N2799 C2792 1.356 . S
N2799 H2802 0.984 . S
N2799 H2803 0.985 . S
H2800 N2795 0.984 . S
H2801 N2795 0.985 . S
H2802 N2799 0.984 . S
H2803 N2799 0.985 . S
H2804 N2798 0.984 . S
H2805 N2798 0.984 . S
H2806 N2794 0.984 . S
H2807 N2794 0.985 . S
C2808 C2809 1.363 . S
C2808 C2814 1.379 . S
C2808 N2816 1.356 . S
C2809 C2808 1.363 . S
C2809 C2815 1.363 . S
C2810 C2811 1.363 . S
C2810 C2815 1.379 . S
C2810 N2817 1.356 . S
C2811 C2810 1.363 . S
C2811 C2814 1.363 . S
N2812 C2814 1.356 . S
N2812 H2824 0.984 . S
N2812 H2825 0.985 . S
N2813 C2815 1.356 . S
N2813 H2818 0.984 . S
N2813 H2819 0.985 . S
C2814 C2808 1.379 . S
C2814 C2811 1.363 . S
C2814 N2812 1.356 . S
C2815 C2809 1.363 . S
C2815 C2810 1.379 . S
C2815 N2813 1.356 . S
N2816 C2808 1.356 . S
N2816 H2822 0.984 . S
N2816 H2823 0.984 . S
N2817 C2810 1.356 . S
N2817 H2820 0.984 . S
N2817 H2821 0.985 . S
H2818 N2813 0.984 . S
H2819 N2813 0.985 . S
H2820 N2817 0.984 . S
H2821 N2817 0.985 . S
H2822 N2816 0.984 . S
H2823 N2816 0.984 . S
H2824 N2812 0.984 . S
H2825 N2812 0.985 . S
C2826 C2827 1.363 . S
C2826 C2832 1.379 . S
C2826 N2834 1.356 . S
C2827 C2826 1.363 . S
C2827 C2833 1.363 . S
C2828 C2829 1.363 . S
C2828 C2833 1.379 . S
C2828 N2835 1.356 . S
C2829 C2828 1.363 . S
C2829 C2832 1.363 . S
N2830 C2832 1.356 1_455 S
N2830 H2842 0.984 . S
N2830 H2843 0.985 . S
N2831 C2833 1.356 . S
N2831 H2836 0.984 . S
N2831 H2837 0.985 . S
C2832 C2826 1.379 . S
C2832 C2829 1.363 . S
C2832 N2830 1.356 1_655 S
C2833 C2827 1.363 . S
C2833 C2828 1.379 . S
C2833 N2831 1.356 . S
N2834 C2826 1.356 . S
N2834 H2840 0.984 . S
N2834 H2841 0.984 . S
N2835 C2828 1.356 . S
N2835 H2838 0.984 . S
N2835 H2839 0.985 . S
H2836 N2831 0.984 . S
H2837 N2831 0.985 . S
H2838 N2835 0.984 . S
H2839 N2835 0.985 . S
H2840 N2834 0.984 . S
H2841 N2834 0.984 . S
H2842 N2830 0.984 . S
H2843 N2830 0.985 . S
C2844 C2845 1.363 . S
C2844 C2850 1.379 . S
C2844 N2852 1.356 . S
C2845 C2844 1.363 . S
C2845 C2851 1.363 . S
C2846 C2847 1.363 . S
C2846 C2851 1.379 . S
C2846 N2853 1.356 . S
C2847 C2846 1.363 . S
C2847 C2850 1.363 . S
N2848 C2850 1.356 . S
N2848 H2860 0.984 . S
N2848 H2861 0.985 . S
N2849 C2851 1.356 . S
N2849 H2854 0.984 . S
N2849 H2855 0.985 . S
C2850 C2844 1.379 . S
C2850 C2847 1.363 . S
C2850 N2848 1.356 . S
C2851 C2845 1.363 . S
C2851 C2846 1.379 . S
C2851 N2849 1.356 . S
N2852 C2844 1.356 . S
N2852 H2858 0.984 . S
N2852 H2859 0.984 . S
N2853 C2846 1.356 . S
N2853 H2856 0.984 . S
N2853 H2857 0.985 . S
H2854 N2849 0.984 . S
H2855 N2849 0.985 . S
H2856 N2853 0.984 . S
H2857 N2853 0.985 . S
H2858 N2852 0.984 . S
H2859 N2852 0.984 . S
H2860 N2848 0.984 . S
H2861 N2848 0.985 . S
C2862 C2863 1.363 . S
C2862 C2868 1.379 1_545 S
C2862 N2870 1.373 . S
C2863 C2862 1.363 . S
C2863 C2869 1.363 . S
C2864 C2865 1.363 . S
C2864 C2869 1.379 . S
C2864 N2871 1.356 . S
C2865 C2864 1.363 . S
C2865 C2868 1.363 1_545 S
N2866 C2868 1.356 . S
N2866 H2878 0.984 . S
N2866 H2879 0.985 . S
N2867 C2869 1.356 . S
N2867 H2872 0.984 . S
N2867 H2873 0.985 . S
C2868 C2862 1.379 1_565 S
C2868 C2865 1.363 1_565 S
C2868 N2866 1.356 . S
C2869 C2863 1.363 . S
C2869 C2864 1.379 . S
C2869 N2867 1.356 . S
N2870 C2862 1.373 . S
N2870 H2876 0.957 1_545 S
N2870 H2877 0.996 . S
N2871 C2864 1.356 . S
N2871 H2874 0.984 . S
N2871 H2875 0.985 . S
H2872 N2867 0.984 . S
H2873 N2867 0.985 . S
H2874 N2871 0.984 . S
H2875 N2871 0.985 . S
H2876 N2870 0.957 1_565 S
H2877 N2870 0.996 . S
H2878 N2866 0.984 . S
H2879 N2866 0.985 . S
C1585 C4 1.320 . S
C1587 C981 1.281 . S
C1603 C26 1.634 . S
C1605 C1061 1.577 . S
C1623 C1129 1.307 . S
C1621 C32 1.332 . S
C1639 C40 1.621 . S
C1641 C1209 1.639 . S
C1657 C12 1.485 . S
C1659 C1283 1.503 . S
C1675 C18 1.576 . S
C1677 C1351 1.511 . S
C1693 C46 1.275 . S
C1695 C1277 1.229 . S
C1713 C1357 1.476 . S
C1711 C68 1.463 . S
C1731 C1203 1.340 . S
C1729 C74 1.351 . S
C1747 C82 1.642 . S
C1749 C1135 1.705 . S
C1767 C987 1.524 . S
C1765 C54 1.493 . S
C1783 C60 1.414 . S
C1785 C1055 1.407 . S
C1801 C88 1.503 . S
C1803 C1425 1.424 . S
C1819 C110 1.681 . S
C1821 C1505 1.597 . S
C1839 C1573 1.578 . S
C1837 C116 1.677 . S
C1855 C124 1.756 . S
C1857 C321 1.709 . S
C1873 C96 1.649 . S
C1875 C395 1.596 . S
C1891 C102 1.607 . S
C1893 C463 1.525 . S
C1909 C130 1.223 . S
C1911 C389 1.214 . S
C1927 C152 1.531 . S
C1929 C469 1.534 . S
C1947 C315 1.430 . S
C1945 C158 1.440 . S
C1965 C1579 1.697 . S
C1963 C166 1.684 . S
C1983 C1431 1.465 . S
C1981 C138 1.461 . S
C2001 C1499 1.446 . S
C1999 C144 1.448 . S
C2017 C172 1.448 . S
C2019 C537 1.366 . S
C2035 C194 1.715 . S
C2037 C617 1.633 . S
C2053 C200 1.672 . S
C2055 C685 1.574 . S
C2071 C208 1.806 . S
C2073 C765 1.753 . S
C2091 C839 1.583 . S
C2089 C180 1.640 . S
C2109 C907 1.572 . S
C2107 C186 1.649 . S
C2127 C833 1.316 . S
C2125 C214 1.318 . S
C2145 C913 1.502 . S
C2143 C236 1.504 . S
C2161 C242 1.402 . S
C2163 C759 1.397 . S
C2181 C691 1.624 . S
C2179 C250 1.606 . S
C2197 C222 1.506 . S
C2199 C543 1.516 . S
C2217 C611 1.416 . S
C2215 C228 1.423 . S
C2235 C291 1.958 . S
C2233 C5 1.855 . S
C2251 C25 1.495 . S
C2253 C365 1.459 . S
C2271 C451 1.610 . S
C2269 C33 1.390 . S
C2289 C525 1.270 . S
C2287 C39 1.313 . S
C2307 C587 1.565 . S
C2305 C11 1.599 1_556 S
C2325 C673 1.563 1_554 S
C2323 C19 1.337 . S
C2341 C47 2.045 . S
C2343 C661 2.106 . S
C2359 C67 1.787 . S
C2361 C513 1.621 . S
C2377 C75 1.683 . S
C2379 C599 1.881 1_554 S
C2395 C81 1.702 . S
C2397 C377 1.545 . S
C2415 C439 1.748 . S
C2413 C53 1.914 . S
C2431 C61 1.562 . S
C2433 C303 1.784 . S
C2451 C735 1.888 . S
C2449 C89 1.751 . S
C2467 C109 1.561 . S
C2469 C809 1.527 . S
C2485 C117 1.336 . S
C2487 C895 1.580 . S
C2505 C969 1.131 . S
C2503 C123 1.160 . S
C2521 C95 1.487 . S
C2523 C1031 1.459 . S
C2539 C103 1.250 . S
C2541 C1117 1.395 . S
C2557 C131 1.675 . S
C2559 C1105 1.739 1_565 S
C2575 C151 1.495 . S
C2577 C957 1.403 1_455 S
C2595 C1043 1.729 . S
C2593 C159 1.506 . S
C2611 C165 1.702 . S
C2613 C821 1.534 . S
C2629 C137 1.878 . S
C2631 C883 1.721 . S
C2649 C747 1.807 . S
C2647 C145 1.581 . S
C2667 C1179 1.721 . S
C2665 C173 1.635 . S
C2683 C193 1.247 . S
C2685 C1253 1.245 . S
C2701 C201 1.268 . S
C2703 C1339 1.492 . S
C2721 C1413 1.262 . S
C2719 C207 1.328 . S
C2739 C1475 1.574 . S
C2737 C179 1.639 . S
C2755 C187 1.368 . S
C2757 C1561 1.595 . S
C2773 C215 1.975 . S
C2775 C1549 2.056 . S
C2791 C235 1.844 . S
C2793 C1401 1.682 . S
C2811 C1487 1.795 . S
C2809 C243 1.561 . S
C2829 C1265 1.225 . S
C2827 C249 1.305 . S
C2847 C1327 1.631 . S
C2845 C221 1.774 . S
C2863 C229 1.332 . S
C2865 C1191 1.524 . S
