# Generated by pormake.
# Topology eea, (3,6)-cn, num edge types: 1
# Building blocks:
#     Node 0, Type 0, BuildingBlock: BETDAH_clean_linker_0, # of connection points: 3
#     Node 1, Type 0, BuildingBlock: BETDAH_clean_linker_0, # of connection points: 3
#     Node 2, Type 0, BuildingBlock: BETDAH_clean_linker_0, # of connection points: 3
#     Node 3, Type 0, BuildingBlock: BETDAH_clean_linker_0, # of connection points: 3
#     Node 4, Type 0, BuildingBlock: BETDAH_clean_linker_0, # of connection points: 3
#     Node 5, Type 0, BuildingBlock: BETDAH_clean_linker_0, # of connection points: 3
#     Node 6, Type 0, BuildingBlock: BETDAH_clean_linker_0, # of connection points: 3
#     Node 7, Type 0, BuildingBlock: BETDAH_clean_linker_0, # of connection points: 3
#     Node 8, Type 0, BuildingBlock: BETDAH_clean_linker_0, # of connection points: 3
#     Node 9, Type 0, BuildingBlock: BETDAH_clean_linker_0, # of connection points: 3
#     Node 10, Type 0, BuildingBlock: BETDAH_clean_linker_0, # of connection points: 3
#     Node 11, Type 0, BuildingBlock: BETDAH_clean_linker_0, # of connection points: 3
#     Node 12, Type 0, BuildingBlock: BETDAH_clean_linker_0, # of connection points: 3
#     Node 13, Type 0, BuildingBlock: BETDAH_clean_linker_0, # of connection points: 3
#     Node 14, Type 0, BuildingBlock: BETDAH_clean_linker_0, # of connection points: 3
#     Node 15, Type 0, BuildingBlock: BETDAH_clean_linker_0, # of connection points: 3
#     Node 16, Type 0, BuildingBlock: BETDAH_clean_linker_0, # of connection points: 3
#     Node 17, Type 0, BuildingBlock: BETDAH_clean_linker_0, # of connection points: 3
#     Node 18, Type 1, BuildingBlock: KUMBUR_clean_sbu_0, # of connection points: 6
#     Node 19, Type 1, BuildingBlock: KUMBUR_clean_sbu_0, # of connection points: 6
#     Node 20, Type 1, BuildingBlock: KUMBUR_clean_sbu_0, # of connection points: 6
#     Node 21, Type 1, BuildingBlock: KUMBUR_clean_sbu_0, # of connection points: 6
#     Node 22, Type 1, BuildingBlock: KUMBUR_clean_sbu_0, # of connection points: 6
#     Node 23, Type 1, BuildingBlock: KUMBUR_clean_sbu_0, # of connection points: 6
#     Node 24, Type 1, BuildingBlock: KUMBUR_clean_sbu_0, # of connection points: 6
#     Node 25, Type 1, BuildingBlock: KUMBUR_clean_sbu_0, # of connection points: 6
#     Node 26, Type 1, BuildingBlock: KUMBUR_clean_sbu_0, # of connection points: 6
#     Edge 27, Type (0, 1), BuildingBlock: OJICUG_clean_linker_0, # of connection points: 2
#     Edge 28, Type (0, 1), BuildingBlock: OJICUG_clean_linker_0, # of connection points: 2
#     Edge 29, Type (0, 1), BuildingBlock: OJICUG_clean_linker_0, # of connection points: 2
#     Edge 30, Type (0, 1), BuildingBlock: OJICUG_clean_linker_0, # of connection points: 2
#     Edge 31, Type (0, 1), BuildingBlock: OJICUG_clean_linker_0, # of connection points: 2
#     Edge 32, Type (0, 1), BuildingBlock: OJICUG_clean_linker_0, # of connection points: 2
#     Edge 33, Type (0, 1), BuildingBlock: OJICUG_clean_linker_0, # of connection points: 2
#     Edge 34, Type (0, 1), BuildingBlock: OJICUG_clean_linker_0, # of connection points: 2
#     Edge 35, Type (0, 1), BuildingBlock: OJICUG_clean_linker_0, # of connection points: 2
#     Edge 36, Type (0, 1), BuildingBlock: OJICUG_clean_linker_0, # of connection points: 2
#     Edge 37, Type (0, 1), BuildingBlock: OJICUG_clean_linker_0, # of connection points: 2
#     Edge 38, Type (0, 1), BuildingBlock: OJICUG_clean_linker_0, # of connection points: 2
#     Edge 39, Type (0, 1), BuildingBlock: OJICUG_clean_linker_0, # of connection points: 2
#     Edge 40, Type (0, 1), BuildingBlock: OJICUG_clean_linker_0, # of connection points: 2
#     Edge 41, Type (0, 1), BuildingBlock: OJICUG_clean_linker_0, # of connection points: 2
#     Edge 42, Type (0, 1), BuildingBlock: OJICUG_clean_linker_0, # of connection points: 2
#     Edge 43, Type (0, 1), BuildingBlock: OJICUG_clean_linker_0, # of connection points: 2
#     Edge 44, Type (0, 1), BuildingBlock: OJICUG_clean_linker_0, # of connection points: 2
#     Edge 45, Type (0, 1), BuildingBlock: OJICUG_clean_linker_0, # of connection points: 2
#     Edge 46, Type (0, 1), BuildingBlock: OJICUG_clean_linker_0, # of connection points: 2
#     Edge 47, Type (0, 1), BuildingBlock: OJICUG_clean_linker_0, # of connection points: 2
#     Edge 48, Type (0, 1), BuildingBlock: OJICUG_clean_linker_0, # of connection points: 2
#     Edge 49, Type (0, 1), BuildingBlock: OJICUG_clean_linker_0, # of connection points: 2
#     Edge 50, Type (0, 1), BuildingBlock: OJICUG_clean_linker_0, # of connection points: 2
#     Edge 51, Type (0, 1), BuildingBlock: OJICUG_clean_linker_0, # of connection points: 2
#     Edge 52, Type (0, 1), BuildingBlock: OJICUG_clean_linker_0, # of connection points: 2
#     Edge 53, Type (0, 1), BuildingBlock: OJICUG_clean_linker_0, # of connection points: 2
#     Edge 54, Type (0, 1), BuildingBlock: OJICUG_clean_linker_0, # of connection points: 2
#     Edge 55, Type (0, 1), BuildingBlock: OJICUG_clean_linker_0, # of connection points: 2
#     Edge 56, Type (0, 1), BuildingBlock: OJICUG_clean_linker_0, # of connection points: 2
#     Edge 57, Type (0, 1), BuildingBlock: OJICUG_clean_linker_0, # of connection points: 2
#     Edge 58, Type (0, 1), BuildingBlock: OJICUG_clean_linker_0, # of connection points: 2
#     Edge 59, Type (0, 1), BuildingBlock: OJICUG_clean_linker_0, # of connection points: 2
#     Edge 60, Type (0, 1), BuildingBlock: OJICUG_clean_linker_0, # of connection points: 2
#     Edge 61, Type (0, 1), BuildingBlock: OJICUG_clean_linker_0, # of connection points: 2
#     Edge 62, Type (0, 1), BuildingBlock: OJICUG_clean_linker_0, # of connection points: 2
#     Edge 63, Type (0, 1), BuildingBlock: OJICUG_clean_linker_0, # of connection points: 2
#     Edge 64, Type (0, 1), BuildingBlock: OJICUG_clean_linker_0, # of connection points: 2
#     Edge 65, Type (0, 1), BuildingBlock: OJICUG_clean_linker_0, # of connection points: 2
#     Edge 66, Type (0, 1), BuildingBlock: OJICUG_clean_linker_0, # of connection points: 2
#     Edge 67, Type (0, 1), BuildingBlock: OJICUG_clean_linker_0, # of connection points: 2
#     Edge 68, Type (0, 1), BuildingBlock: OJICUG_clean_linker_0, # of connection points: 2
#     Edge 69, Type (0, 1), BuildingBlock: OJICUG_clean_linker_0, # of connection points: 2
#     Edge 70, Type (0, 1), BuildingBlock: OJICUG_clean_linker_0, # of connection points: 2
#     Edge 71, Type (0, 1), BuildingBlock: OJICUG_clean_linker_0, # of connection points: 2
#     Edge 72, Type (0, 1), BuildingBlock: OJICUG_clean_linker_0, # of connection points: 2
#     Edge 73, Type (0, 1), BuildingBlock: OJICUG_clean_linker_0, # of connection points: 2
#     Edge 74, Type (0, 1), BuildingBlock: OJICUG_clean_linker_0, # of connection points: 2
#     Edge 75, Type (0, 1), BuildingBlock: OJICUG_clean_linker_0, # of connection points: 2
#     Edge 76, Type (0, 1), BuildingBlock: OJICUG_clean_linker_0, # of connection points: 2
#     Edge 77, Type (0, 1), BuildingBlock: OJICUG_clean_linker_0, # of connection points: 2
#     Edge 78, Type (0, 1), BuildingBlock: OJICUG_clean_linker_0, # of connection points: 2
#     Edge 79, Type (0, 1), BuildingBlock: OJICUG_clean_linker_0, # of connection points: 2
#     Edge 80, Type (0, 1), BuildingBlock: OJICUG_clean_linker_0, # of connection points: 2
# Relax obj value: 0.024
# Max RMSD: 0.184
# Mean RMSD: 0.130
data_MOF--net-eea--node1-KUMBUR_clean_sbu_0--node2-BETDAH_clean_linker_0--edge1-OJICUG_clean_linker_0
_symmetry_space_group_name_H-M    P1
_symmetry_Int_Tables_number       1
_symmetry_cell_setting            triclinic
loop_
_symmetry_equiv_pos_as_xyz
'x, y, z'
_cell_length_a     39.186397
_cell_length_b     40.527611
_cell_length_c     51.308558
_cell_angle_alpha  89.835992
_cell_angle_beta   89.706073
_cell_angle_gamma 119.82019
loop_
_atom_site_label
_atom_site_type_symbol
_atom_site_fract_x
_atom_site_fract_y
_atom_site_fract_z
_atom_type_partial_charge
H0 H 0.26633 0.05914 0.44362 0.0
H1 H 0.28102 0.17043 0.42973 0.0
H2 H 0.23315 0.0861 0.37011 0.0
C3 C 0.26236 0.07864 0.43124 0.0
C4 C 0.24725 0.06736 0.40596 0.0
C5 C 0.27469 0.11575 0.44013 0.0
C6 C 0.2712 0.14159 0.42345 0.0
C7 C 0.25653 0.13063 0.39815 0.0
C8 C 0.24474 0.09388 0.38963 0.0
N9 N 0.25654 0.15684 0.3799 0.0
C10 C 0.24105 0.18037 0.38498 0.0
H11 H 0.95617 0.20743 0.44213 0.0
H12 H 0.86107 0.09263 0.43108 0.0
H13 H 0.9523 0.14573 0.37321 0.0
C14 C 0.94194 0.18159 0.43076 0.0
C15 C 0.95888 0.18011 0.40682 0.0
C16 C 0.90658 0.15018 0.4399 0.0
C17 C 0.88817 0.11706 0.42446 0.0
C18 C 0.90479 0.11563 0.40038 0.0
C19 C 0.93999 0.14699 0.39192 0.0
N20 N 0.88695 0.0838 0.38355 0.0
C21 C 0.85407 0.04868 0.38894 0.0
H22 H 0.80472 0.74965 0.44124 0.0
H23 H 0.92404 0.77124 0.43527 0.0
H24 H 0.87851 0.81663 0.37769 0.0
C25 C 0.83266 0.76208 0.43097 0.0
C26 C 0.83746 0.7831 0.40804 0.0
C27 C 0.86342 0.7574 0.44116 0.0
C28 C 0.90018 0.77473 0.4279 0.0
C29 C 0.90561 0.7962 0.40488 0.0
C30 C 0.87429 0.80042 0.39544 0.0
N31 N 0.94171 0.81452 0.39042 0.0
C32 C 0.97474 0.81002 0.39273 0.0
H33 H 0.06128 0.25394 0.60351 0.0
H34 H 0.15905 0.23419 0.61348 0.0
H35 H 0.06743 0.19509 0.67158 0.0
C36 C 0.07624 0.24226 0.61468 0.0
C37 C 0.05966 0.22383 0.63862 0.0
C38 C 0.11201 0.24616 0.60514 0.0
C39 C 0.13165 0.23158 0.62038 0.0
C40 C 0.11555 0.21307 0.64437 0.0
C41 C 0.07952 0.20905 0.65304 0.0
N42 N 0.13425 0.19808 0.66058 0.0
C43 C 0.17096 0.20074 0.65687 0.0
H44 H 0.74798 0.804 0.60142 0.0
H45 H 0.75077 0.91032 0.61585 0.0
H46 H 0.79397 0.86404 0.67328 0.0
C47 C 0.75589 0.82854 0.61358 0.0
C48 C 0.77268 0.83064 0.63819 0.0
C49 C 0.7475 0.857 0.60518 0.0
C50 C 0.75679 0.88806 0.62179 0.0
C51 C 0.77283 0.88981 0.64649 0.0
C52 C 0.78073 0.86143 0.65435 0.0
N53 N 0.77946 0.91837 0.66484 0.0
C54 C 0.78856 0.95522 0.65886 0.0
H55 H 0.19539 0.95013 0.59931 0.0
H56 H 0.08904 0.84366 0.61413 0.0
H57 H 0.13353 0.93089 0.67221 0.0
C58 C 0.17074 0.93212 0.61191 0.0
C59 C 0.16772 0.94553 0.6366 0.0
C60 C 0.14278 0.89531 0.60354 0.0
C61 C 0.11077 0.87199 0.62021 0.0
C62 C 0.10735 0.88539 0.64488 0.0
C63 C 0.13597 0.92164 0.65283 0.0
N64 N 0.07666 0.86344 0.663 0.0
C65 C 0.04231 0.82935 0.6584 0.0
H66 H 0.93197 0.38899 0.77616 0.0
H67 H 0.95359 0.50318 0.76488 0.0
H68 H 0.89824 0.42067 0.70471 0.0
C69 C 0.92924 0.40976 0.76436 0.0
C70 C 0.91239 0.39963 0.73945 0.0
C71 C 0.94412 0.44695 0.77387 0.0
C72 C 0.94109 0.47407 0.75833 0.0
C73 C 0.92485 0.46433 0.7333 0.0
C74 C 0.91064 0.42743 0.72408 0.0
N75 N 0.92724 0.49228 0.71569 0.0
C76 C 0.90919 0.51377 0.72001 0.0
H77 H 0.62365 0.54064 0.77634 0.0
H78 H 0.52771 0.42615 0.76554 0.0
H79 H 0.61832 0.47867 0.70724 0.0
C80 C 0.6091 0.51479 0.765 0.0
C81 C 0.62566 0.51313 0.74093 0.0
C82 C 0.57368 0.48355 0.77428 0.0
C83 C 0.55486 0.45045 0.75883 0.0
C84 C 0.57109 0.44888 0.73463 0.0
C85 C 0.60633 0.48005 0.72605 0.0
N86 N 0.55278 0.41715 0.71775 0.0
C87 C 0.51984 0.38211 0.7232 0.0
H88 H 0.47016 0.08296 0.77396 0.0
H89 H 0.58941 0.10444 0.76779 0.0
H90 H 0.54384 0.15006 0.71041 0.0
C91 C 0.49808 0.0954 0.76366 0.0
C92 C 0.50286 0.1165 0.74078 0.0
C93 C 0.52883 0.09068 0.77377 0.0
C94 C 0.56555 0.10798 0.76047 0.0
C95 C 0.57095 0.12948 0.73747 0.0
C96 C 0.53964 0.1338 0.72813 0.0
N97 N 0.60699 0.14777 0.72296 0.0
C98 C 0.63989 0.14305 0.7251 0.0
H99 H 0.7275 0.58423 0.93726 0.0
H100 H 0.82439 0.56295 0.94626 0.0
H101 H 0.73336 0.52418 1.00476 0.0
C102 C 0.74229 0.57217 0.94821 0.0
C103 C 0.72582 0.55363 0.97214 0.0
C104 C 0.77777 0.57569 0.93842 0.0
C105 C 0.79721 0.56063 0.95337 0.0
C106 C 0.78114 0.54194 0.97731 0.0
C107 C 0.7454 0.53828 0.98624 0.0
N108 N 0.79951 0.52626 0.99315 0.0
C109 C 0.83648 0.52953 0.9895 0.0
H110 H 0.42063 0.14268 0.93289 0.0
H111 H 0.41181 0.24219 0.95119 0.0
H112 H 0.45184 0.19325 1.00888 0.0
C113 C 0.42447 0.16482 0.9463 0.0
C114 C 0.43939 0.1656 0.97139 0.0
C115 C 0.41357 0.19187 0.93875 0.0
C116 C 0.4193 0.2207 0.95653 0.0
C117 C 0.43308 0.2209 0.98176 0.0
C118 C 0.44235 0.19318 0.98907 0.0
N119 N 0.43551 0.24696 1.00097 0.0
C120 C 0.44738 0.28484 0.99609 0.0
H121 H 0.86649 0.28164 0.93366 0.0
H122 H 0.75254 0.18153 0.9439 0.0
H123 H 0.79536 0.27025 1.00089 0.0
C124 C 0.83939 0.2659 0.94471 0.0
C125 C 0.83497 0.28049 0.96856 0.0
C126 C 0.80981 0.23039 0.93541 0.0
C127 C 0.77541 0.20894 0.95066 0.0
C128 C 0.77057 0.22361 0.97443 0.0
C129 C 0.80007 0.25917 0.98286 0.0
N130 N 0.73679 0.20435 0.9908 0.0
C131 C 0.70455 0.16818 0.98759 0.0
H132 H 0.5995 0.72522 0.11038 0.0
H133 H 0.6142 0.83654 0.09665 0.0
H134 H 0.56632 0.75235 0.03692 0.0
C135 C 0.5955 0.74473 0.09803 0.0
C136 C 0.58038 0.73348 0.07275 0.0
C137 C 0.60782 0.78182 0.10697 0.0
C138 C 0.60434 0.80771 0.09033 0.0
C139 C 0.58969 0.79683 0.06502 0.0
C140 C 0.57788 0.76007 0.05646 0.0
N141 N 0.58987 0.82314 0.04676 0.0
C142 C 0.57501 0.84721 0.05182 0.0
H143 H 0.29007 0.87347 0.10864 0.0
H144 H 0.20368 0.75412 0.10605 0.0
H145 H 0.2953 0.80263 0.0482 0.0
C146 C 0.27825 0.84592 0.09945 0.0
C147 C 0.29676 0.84217 0.0769 0.0
C148 C 0.24463 0.81437 0.11028 0.0
C149 C 0.22918 0.77879 0.09789 0.0
C150 C 0.24782 0.77468 0.07563 0.0
C151 C 0.28153 0.80619 0.06553 0.0
N152 N 0.23463 0.73909 0.06332 0.0
C153 C 0.19618 0.70892 0.06361 0.0
H154 H 0.13941 0.4196 0.10857 0.0
H155 H 0.25852 0.44061 0.10274 0.0
H156 H 0.21393 0.48751 0.04559 0.0
C157 C 0.16747 0.43215 0.09843 0.0
C158 C 0.1726 0.45359 0.07568 0.0
C159 C 0.19799 0.42708 0.10856 0.0
C160 C 0.23483 0.44442 0.09542 0.0
C161 C 0.24058 0.46633 0.07257 0.0
C162 C 0.2095 0.47099 0.06322 0.0
N163 N 0.27678 0.48466 0.05824 0.0
C164 C 0.30926 0.47926 0.06022 0.0
H165 H 0.39501 0.91959 0.27017 0.0
H166 H 0.49308 0.90014 0.27955 0.0
H167 H 0.4022 0.86119 0.33817 0.0
C168 C 0.41014 0.908 0.28123 0.0
C169 C 0.39392 0.8897 0.30528 0.0
C170 C 0.44584 0.91193 0.27148 0.0
C171 C 0.46573 0.89749 0.2866 0.0
C172 C 0.44995 0.87908 0.31067 0.0
C173 C 0.41401 0.87504 0.31955 0.0
N174 N 0.46882 0.86417 0.32679 0.0
C175 C 0.50554 0.86688 0.323 0.0
H176 H 0.09202 0.4786 0.26611 0.0
H177 H 0.08198 0.57736 0.28462 0.0
H178 H 0.1224 0.52867 0.34226 0.0
C179 C 0.09561 0.50062 0.27955 0.0
C180 C 0.11038 0.50135 0.30468 0.0
C181 C 0.08445 0.52747 0.27204 0.0
C182 C 0.08973 0.55605 0.28991 0.0
C183 C 0.10337 0.55617 0.31518 0.0
C184 C 0.113 0.52869 0.32243 0.0
N185 N 0.1053 0.58189 0.33447 0.0
C186 C 0.11673 0.61967 0.32965 0.0
H187 H 0.52915 0.61602 0.26625 0.0
H188 H 0.42389 0.50889 0.28173 0.0
H189 H 0.46888 0.59608 0.33984 0.0
C190 C 0.50485 0.59782 0.27902 0.0
C191 C 0.50219 0.6111 0.30385 0.0
C192 C 0.47702 0.5609 0.27077 0.0
C193 C 0.44548 0.53734 0.2877 0.0
C194 C 0.44247 0.55056 0.31253 0.0
C195 C 0.47096 0.58694 0.32035 0.0
N196 N 0.41249 0.5282 0.33097 0.0
C197 C 0.37764 0.49457 0.32635 0.0
Tb198 Tb 0.48466 0.9797 0.99028 0.0
C199 C 0.55797 0.11099 0.0689 0.0
C200 C 0.62738 0.13174 0.06775 0.0
C201 C 0.6057 0.17703 0.07781 0.0
C202 C 0.58781 0.10306 0.06485 0.0
C203 C 0.56635 0.14785 0.07595 0.0
C204 C 0.63621 0.16898 0.07371 0.0
C205 C 0.49651 0.12346 0.08073 0.0
N206 N 0.52052 0.08194 0.0671 0.0
C207 C 0.48978 0.08734 0.07383 0.0
C208 C 0.53497 0.15398 0.08151 0.0
Tb209 Tb 0.512 0.02414 0.05419 0.0
N210 N 0.57788 0.06671 0.05928 0.0
C211 C 0.60641 0.05663 0.05825 0.0
C212 C 0.65674 0.12191 0.06524 0.0
C213 C 0.64613 0.08406 0.06084 0.0
H214 H 0.45989 0.06409 0.07316 0.0
H215 H 0.66855 0.07597 0.0593 0.0
H216 H 0.66644 0.1915 0.07577 0.0
H217 H 0.47202 0.12773 0.08543 0.0
H218 H 0.59911 0.02773 0.05463 0.0
H219 H 0.32741 0.92453 0.98783 0.0
H220 H 0.68752 0.14309 0.06723 0.0
H221 H 0.53797 0.94161 0.97009 0.0
H222 H 0.39674 0.97425 0.99081 0.0
H223 H 0.52692 0.8783 0.95777 0.0
H224 H 0.61282 0.20564 0.08298 0.0
H225 H 0.3098 0.85756 0.98075 0.0
H226 H 0.3322 0.81019 0.97192 0.0
H227 H 0.54012 0.1819 0.08696 0.0
H228 H 0.38662 0.79757 0.96352 0.0
N229 N 0.41899 0.93606 0.98628 0.0
C230 C 0.38988 0.94533 0.98765 0.0
C231 C 0.34046 0.87934 0.98209 0.0
C232 C 0.37039 0.87036 0.97909 0.0
C233 C 0.3503 0.91711 0.986 0.0
C234 C 0.40979 0.89978 0.98115 0.0
H235 H 0.45943 0.82296 0.95778 0.0
N236 N 0.47739 0.9223 0.97773 0.0
C237 C 0.50223 0.88189 0.96316 0.0
C238 C 0.44012 0.89263 0.9766 0.0
C239 C 0.50836 0.91779 0.97012 0.0
C240 C 0.46411 0.85071 0.96324 0.0
C241 C 0.43237 0.85595 0.96963 0.0
O242 O 0.51872 0.99881 0.95581 0.0
O243 O 0.52789 0.02526 1.01378 0.0
O244 O 0.50522 0.06341 0.02805 0.0
O245 O 0.4646 0.02121 0.99617 0.0
O246 O 0.54844 0.00288 0.98664 0.0
O247 O 0.46218 0.99475 0.95775 0.0
O248 O 0.47959 0.00877 0.08952 0.0
O249 O 0.46835 0.97868 0.03077 0.0
O250 O 0.49134 0.94037 0.01598 0.0
O251 O 0.53195 0.98232 0.04794 0.0
O252 O 0.44875 0.00256 0.05736 0.0
O253 O 0.53067 0.00284 0.08524 0.0
C254 C 0.55919 0.02893 1.00397 0.0
C255 C 0.48473 0.98753 0.91608 0.0
C256 C 0.49073 0.99744 0.86847 0.0
C257 C 0.49743 0.01225 0.89413 0.0
C258 C 0.47214 0.95769 0.86546 0.0
C259 C 0.46565 0.94816 0.91219 0.0
C260 C 0.45967 0.93342 0.88708 0.0
C261 C 0.48065 0.05453 1.00816 0.0
C262 C 0.49251 0.0028 0.94295 0.0
C263 C 0.39325 0.82608 0.96859 0.0
C264 C 0.36228 0.83327 0.97337 0.0
C265 C 0.43734 0.97598 0.04041 0.0
C266 C 0.51463 0.01291 0.12807 0.0
C267 C 0.49839 0.98775 0.14964 0.0
C268 C 0.51038 0.00072 0.17544 0.0
C269 C 0.53834 0.03936 0.17903 0.0
C270 C 0.54245 0.0511 0.13247 0.0
C271 C 0.5541 0.06418 0.15777 0.0
C272 C 0.51617 0.94921 0.03561 0.0
C273 C 0.50286 -0.00084 0.10106 0.0
H274 H 0.5118 0.04271 0.89703 0.0
H275 H 0.46723 0.94517 0.84626 0.0
H276 H 0.45556 0.92874 0.92856 0.0
H277 H 0.44525 0.90295 0.88433 0.0
H278 H 0.47703 0.95813 0.14629 0.0
H279 H 0.54774 0.05068 0.1984 0.0
H280 H 0.55524 0.07082 0.11633 0.0
H281 H 0.5755 0.09379 0.16096 0.0
Tb282 Tb 0.03395 0.50469 0.99142 0.0
C283 C 0.89535 0.44863 0.06815 0.0
C284 C 0.8759 0.49644 0.06481 0.0
C285 C 0.82731 0.43142 0.0763 0.0
C286 C 0.90479 0.48546 0.06285 0.0
C287 C 0.85684 0.42136 0.07582 0.0
C288 C 0.83684 0.46895 0.07076 0.0
C289 C 0.88091 0.3782 0.08533 0.0
N290 N 0.92491 0.44046 0.06801 0.0
C291 C 0.91868 0.40641 0.07773 0.0
C292 C 0.84966 0.38546 0.08391 0.0
Tb293 Tb 0.98571 0.48776 0.0546 0.0
N294 N 0.94295 0.51109 0.05754 0.0
C295 C 0.95466 0.549 0.05603 0.0
C296 C 0.88741 0.53485 0.06163 0.0
C297 C 0.92709 0.56132 0.05768 0.0
H298 H 0.94262 0.40047 0.07882 0.0
H299 H 0.93649 0.59125 0.05574 0.0
H300 H 0.81411 0.4767 0.07201 0.0
H301 H 0.87595 0.35091 0.09228 0.0
H302 H 0.98504 0.57004 0.05276 0.0
H303 H 0.08086 0.39942 0.99198 0.0
H304 H 0.86614 0.54448 0.06291 0.0
H305 H 0.07951 0.59187 0.96694 0.0
H306 H 0.03281 0.42147 0.99255 0.0
H307 H 0.14761 0.64134 0.95591 0.0
H308 H 0.7974 0.41077 0.08182 0.0
H309 H 0.15196 0.44576 0.98805 0.0
H310 H 0.20542 0.51358 0.98087 0.0
H311 H 0.82049 0.36369 0.08999 0.0
H312 H 0.22382 0.57998 0.9711 0.0
N313 N 0.07596 0.48038 0.98969 0.0
C314 C 0.06357 0.44229 0.99067 0.0
C315 C 0.13093 0.45573 0.98828 0.0
C316 C 0.14325 0.49439 0.98543 0.0
C317 C 0.09083 0.42951 0.9904 0.0
C318 C 0.11464 0.50582 0.98601 0.0
H319 H 0.20228 0.62785 0.96116 0.0
N320 N 0.09583 0.55156 0.97947 0.0
C321 C 0.14173 0.61386 0.96309 0.0
C322 C 0.12503 0.54294 0.98078 0.0
C323 C 0.10323 0.58578 0.96929 0.0
C324 C 0.17253 0.60619 0.96618 0.0
C325 C 0.16424 0.57001 0.97449 0.0
O326 O 0.0224 0.52185 0.95526 0.0
O327 O 0.98558 0.50124 1.01389 0.0
O328 O 0.94577 0.43963 0.03024 0.0
O329 O 0.98773 0.44464 0.99579 0.0
O330 O 0.00936 0.54266 0.98614 0.0
O331 O 0.01679 0.46665 0.95998 0.0
O332 O 1.0008 0.47196 0.09005 0.0
O333 O 0.03446 0.49124 0.03225 0.0
O334 O 0.0728 0.55301 0.01548 0.0
O335 O 0.03104 0.54832 0.0499 0.0
O336 O 0.00761 0.44784 0.05856 0.0
O337 O 1.00347 0.52592 0.08606 0.0
C338 C 0.98165 0.52728 1.00325 0.0
C339 C 0.03504 0.49508 0.91828 0.0
C340 C 0.03119 0.48951 0.8708 0.0
C341 C 0.01304 0.48636 0.8952 0.0
C342 C 0.07179 0.50231 0.86988 0.0
C343 C 0.07534 0.50731 0.91684 0.0
C344 C 0.09362 0.51116 0.89276 0.0
C345 C 0.9543 0.42608 1.00917 0.0
C346 C 0.01548 0.49065 0.94366 0.0
C347 C 0.19339 0.55949 0.9755 0.0
C348 C 0.18291 0.52169 0.98102 0.0
C349 C 0.03639 0.46365 0.04226 0.0
C350 C 0.98973 0.49792 0.12805 0.0
C351 C 0.01358 0.50686 0.1503 0.0
C352 C 0.99705 0.50167 0.17555 0.0
C353 C 0.95614 0.48692 0.17794 0.0
C354 C 0.9493 0.48404 0.13107 0.0
C355 C 0.93262 0.47842 0.15588 0.0
C356 C 0.06402 0.56699 0.03608 0.0
C357 C 0.00736 0.50287 0.10188 0.0
H358 H 0.98173 0.47623 0.89631 0.0
H359 H 0.0867 0.50552 0.85142 0.0
H360 H 0.09265 0.51364 0.93426 0.0
H361 H 0.12479 0.52078 0.89183 0.0
H362 H 0.04496 0.51825 0.14785 0.0
H363 H 0.94207 0.48148 0.19691 0.0
H364 H 0.93058 0.47751 0.11432 0.0
H365 H 0.90128 0.46728 0.15803 0.0
Tb366 Tb 0.5309 0.50407 0.05452 0.0
C367 C 0.45595 0.56159 0.97505 0.0
C368 C 0.38672 0.51558 0.97841 0.0
C369 C 0.40751 0.58083 0.966 0.0
C370 C 0.4265 0.52532 0.98067 0.0
C371 C 0.44698 0.58963 0.96691 0.0
C372 C 0.37737 0.5438 0.97178 0.0
C373 C 0.51619 0.63126 0.95836 0.0
N374 N 0.49347 0.56855 0.97576 0.0
C375 C 0.52345 0.6023 0.96638 0.0
C376 C 0.47784 0.62512 0.95901 0.0
Tb377 Tb 0.50325 0.52038 0.99052 0.0
N378 N 0.43696 0.49896 0.9866 0.0
C379 C 0.40868 0.46139 0.98839 0.0
C380 C 0.35768 0.47758 0.98198 0.0
C381 C 0.36877 0.45027 0.98654 0.0
H382 H 0.55323 0.60741 0.96582 0.0
H383 H 0.34659 0.42063 0.98875 0.0
H384 H 0.347 0.53701 0.97025 0.0
H385 H 0.54019 0.65827 0.95166 0.0
H386 H 0.41635 0.43975 0.99211 0.0
H387 H 0.6872 0.60435 0.0574 0.0
H388 H 0.32677 0.46889 0.9805 0.0
H389 H 0.47985 0.41455 0.07483 0.0
H390 H 0.61733 0.58503 0.05349 0.0
H391 H 0.49311 0.36346 0.08817 0.0
H392 H 0.39996 0.60208 0.96008 0.0
H393 H 0.70705 0.55617 0.06593 0.0
H394 H 0.68691 0.48795 0.0757 0.0
H395 H 0.47223 0.64748 0.95261 0.0
H396 H 0.63401 0.42228 0.08423 0.0
N397 N 0.59698 0.52588 0.05899 0.0
C398 C 0.62515 0.56347 0.05729 0.0
C399 C 0.67615 0.5474 0.06421 0.0
C400 C 0.64714 0.5093 0.06746 0.0
C401 C 0.66505 0.57467 0.05947 0.0
C402 C 0.60738 0.49943 0.06486 0.0
H403 H 0.56156 0.37565 0.0893 0.0
N404 N 0.54015 0.45508 0.06782 0.0
C405 C 0.51724 0.39121 0.08285 0.0
C406 C 0.57787 0.46267 0.0695 0.0
C407 C 0.50985 0.42028 0.07534 0.0
C408 C 0.5559 0.39817 0.0834 0.0
C409 C 0.58688 0.43444 0.07706 0.0
O410 O 0.4975 0.48847 0.08927 0.0
O411 O 0.4871 0.50787 0.0312 0.0
O412 O 0.51275 0.56906 1.01422 0.0
O413 O 0.54893 0.56438 0.04894 0.0
O414 O 0.4672 0.46521 0.05808 0.0
O415 O 0.55205 0.54132 0.08657 0.0
O416 O 0.53536 0.53425 0.95514 0.0
O417 O 0.54764 0.51769 1.01396 0.0
O418 O 0.52611 0.45887 0.02931 0.0
O419 O 0.4839 0.45967 0.99781 0.0
O420 O 0.56655 0.55969 0.98673 0.0
O421 O 0.48262 0.48054 0.96001 0.0
C422 C 0.45594 0.48121 0.0412 0.0
C423 C 0.53187 0.51272 0.1285 0.0
C424 C 0.52218 0.51427 0.17572 0.0
C425 C 0.51511 0.52153 0.14991 0.0
C426 C 0.54649 0.49828 0.17958 0.0
C427 C 0.55613 0.49706 0.133 0.0
C428 C 0.56332 0.48987 0.1584 0.0
C429 C 0.53523 0.58291 0.0351 0.0
C430 C 0.52264 0.51879 0.10165 0.0
C431 C 0.62642 0.44363 0.07869 0.0
C432 C 0.65653 0.48102 0.07384 0.0
C433 C 0.57853 0.5448 1.00396 0.0
C434 C 0.49826 0.50629 0.9173 0.0
C435 C 0.51581 0.49958 0.89536 0.0
C436 C 0.50396 0.50242 0.86985 0.0
C437 C 0.47471 0.51265 0.86683 0.0
C438 C 0.46904 0.51617 0.91361 0.0
C439 C 0.45749 0.51943 0.88853 0.0
C440 C 0.50073 0.44269 1.01017 0.0
C441 C 0.51044 0.50276 0.94388 0.0
H442 H 0.49617 0.53347 0.14645 0.0
H443 H 0.55315 0.4929 0.19907 0.0
H444 H 0.56943 0.4903 0.11693 0.0
H445 H 0.58214 0.47779 0.1617 0.0
H446 H 0.53814 0.4916 0.89821 0.0
H447 H 0.46539 0.51589 0.84762 0.0
H448 H 0.45507 0.52125 0.93009 0.0
H449 H 0.43504 0.52727 0.88588 0.0
Tb450 Tb 0.15134 0.31333 0.32434 0.0
C451 C 0.22769 0.4452 0.40266 0.0
C452 C 0.29666 0.46407 0.40248 0.0
C453 C 0.27663 0.51077 0.4118 0.0
C454 C 0.25686 0.4362 0.39913 0.0
C455 C 0.23701 0.48239 0.40953 0.0
C456 C 0.30644 0.50161 0.40827 0.0
C457 C 0.16741 0.45985 0.41342 0.0
N458 N 0.18993 0.41686 0.40052 0.0
C459 C 0.15973 0.42336 0.40673 0.0
C460 C 0.20622 0.48963 0.41455 0.0
Tb461 Tb 0.17993 0.35832 0.3881 0.0
N462 N 0.24602 0.39959 0.39367 0.0
C463 C 0.27375 0.38845 0.39317 0.0
C464 C 0.32524 0.45314 0.40054 0.0
C465 C 0.31365 0.41503 0.39623 0.0
H466 H 0.12957 0.40071 0.40579 0.0
H467 H 0.33545 0.4061 0.39511 0.0
H468 H 0.33687 0.52353 0.41066 0.0
H469 H 0.14337 0.46497 0.41769 0.0
H470 H 0.26568 0.35934 0.38961 0.0
H471 H 0.99478 0.26187 0.3214 0.0
H472 H 0.35616 0.47367 0.40288 0.0
H473 H 0.20283 0.27313 0.30446 0.0
H474 H 0.06455 0.31026 0.32472 0.0
H475 H 0.19009 0.20934 0.292 0.0
H476 H 0.28446 0.53962 0.41685 0.0
H477 H 0.97543 0.19451 0.31405 0.0
H478 H 0.9961 0.14588 0.30517 0.0
H479 H 0.21211 0.51783 0.41985 0.0
H480 H 0.04938 0.13154 0.29698 0.0
N481 N 0.08535 0.27094 0.32009 0.0
C482 C 0.05695 0.28116 0.32143 0.0
C483 C 1.00629 0.21571 0.31551 0.0
C484 C 0.03551 0.20576 0.31256 0.0
C485 C 0.01711 0.2537 0.31959 0.0
C486 C 0.0752 0.23444 0.31483 0.0
H487 H 0.1219 0.15519 0.29161 0.0
N488 N 0.14249 0.25532 0.31178 0.0
C489 C 0.16584 0.21368 0.29728 0.0
C490 C 0.10489 0.22633 0.31043 0.0
C491 C 0.17292 0.24986 0.30433 0.0
C492 C 0.12732 0.18316 0.29714 0.0
C493 C 0.09618 0.18938 0.30338 0.0
O494 O 0.18558 0.33203 0.28993 0.0
O495 O 0.19552 0.35829 0.34777 0.0
O496 O 0.17506 0.39822 0.36143 0.0
O497 O 0.13276 0.35584 0.3303 0.0
O498 O 0.2148 0.33478 0.32053 0.0
O499 O 0.12971 0.3294 0.29185 0.0
O500 O 0.14764 0.34416 0.42344 0.0
O501 O 0.13535 0.31328 0.36484 0.0
O502 O 0.15681 0.27345 0.35025 0.0
O503 O 0.19825 0.31532 0.38198 0.0
O504 O 0.11704 0.33835 0.39144 0.0
O505 O 0.19737 0.33601 0.41921 0.0
C506 C 0.2263 0.3608 0.33793 0.0
C507 C 0.15197 0.3219 0.25016 0.0
C508 C 0.15826 0.33232 0.2026 0.0
C509 C 0.16501 0.34685 0.22833 0.0
C510 C 0.13922 0.29258 0.19938 0.0
C511 C 0.13247 0.28256 0.24607 0.0
C512 C 0.1264 0.26808 0.22088 0.0
C513 C 0.15012 0.38953 0.34178 0.0
C514 C 0.15992 0.3369 0.27709 0.0
C515 C 0.05674 0.16023 0.30211 0.0
C516 C 0.02642 0.1684 0.30676 0.0
C517 C 0.10485 0.31162 0.37457 0.0
C518 C 0.18222 0.34719 0.46197 0.0
C519 C 0.16573 0.32213 0.48355 0.0
C520 C 0.17794 0.33503 0.50932 0.0
C521 C 0.20643 0.37352 0.51288 0.0
C522 C 0.21057 0.38522 0.46632 0.0
C523 C 0.22248 0.39824 0.4916 0.0
C524 C 0.18173 0.28205 0.36982 0.0
C525 C 0.17004 0.33348 0.43502 0.0
H526 H 0.17973 0.37729 0.23139 0.0
H527 H 0.13426 0.28025 0.18012 0.0
H528 H 0.12215 0.26297 0.26235 0.0
H529 H 0.11164 0.23763 0.21798 0.0
H530 H 0.14397 0.29263 0.48022 0.0
H531 H 0.21602 0.38481 0.53224 0.0
H532 H 0.22354 0.40487 0.45016 0.0
H533 H 0.24428 0.42774 0.49475 0.0
Tb534 Tb 0.69989 0.83582 0.32517 0.0
C535 C 0.56033 0.77907 0.40051 0.0
C536 C 0.54039 0.82667 0.39871 0.0
C537 C 0.49188 0.76079 0.4081 0.0
C538 C 0.5696 0.81617 0.39642 0.0
C539 C 0.52157 0.75099 0.40696 0.0
C540 C 0.50129 0.79862 0.40398 0.0
C541 C 0.5452 0.70666 0.41295 0.0
N542 N 0.58996 0.771 0.39954 0.0
C543 C 0.58324 0.73564 0.40667 0.0
C544 C 0.51411 0.71423 0.41279 0.0
Tb545 Tb 0.651 0.81981 0.38781 0.0
N546 N 0.60774 0.84232 0.39152 0.0
C547 C 0.61905 0.88014 0.3905 0.0
C548 C 0.55155 0.86511 0.39631 0.0
C549 C 0.59116 0.89201 0.39256 0.0
H550 H 0.60698 0.72938 0.40672 0.0
H551 H 0.60024 0.92191 0.3911 0.0
H552 H 0.47834 0.80604 0.40553 0.0
H553 H 0.53989 0.67851 0.41791 0.0
H554 H 0.64939 0.90144 0.38743 0.0
H555 H 0.75431 0.73648 0.32373 0.0
H556 H 0.53002 0.87438 0.39786 0.0
H557 H 0.74222 0.92622 0.30642 0.0
H558 H 0.70372 0.7553 0.32619 0.0
H559 H 0.80895 0.97811 0.2955 0.0
H560 H 0.46181 0.73957 0.41278 0.0
H561 H 0.82423 0.78524 0.31743 0.0
H562 H 0.87469 0.85391 0.30939 0.0
H563 H 0.4847 0.69179 0.41779 0.0
H564 H 0.88961 0.91979 0.30152 0.0
N565 N 0.7443 0.81465 0.32196 0.0
C566 C 0.73394 0.77708 0.3233 0.0
C567 C 0.80207 0.79376 0.31846 0.0
C568 C 0.81227 0.83191 0.31561 0.0
C569 C 0.76264 0.76617 0.32195 0.0
C570 C 0.78228 0.84144 0.31728 0.0
H571 H 0.86516 0.96633 0.29597 0.0
N572 N 0.76044 0.8855 0.31359 0.0
C573 C 0.80424 0.95016 0.30044 0.0
C574 C 0.79067 0.87825 0.31285 0.0
C575 C 0.7664 0.92061 0.30655 0.0
C576 C 0.83591 0.94343 0.30078 0.0
C577 C 0.82927 0.90695 0.30667 0.0
O578 O 0.68653 0.8514 0.28911 0.0
O579 O 0.65184 0.83376 0.34726 0.0
O580 O 0.61081 0.77478 0.36151 0.0
O581 O 0.65576 0.77531 0.33129 0.0
O582 O 0.67609 0.87458 0.31942 0.0
O583 O 0.68298 0.797 0.29415 0.0
O584 O 0.66413 0.80331 0.42365 0.0
O585 O 0.69908 0.82163 0.36581 0.0
O586 O 0.74034 0.87961 0.35152 0.0
O587 O 0.6962 0.88059 0.3817 0.0
O588 O 0.67309 0.77992 0.39302 0.0
O589 O 0.66947 0.85844 0.41902 0.0
C590 C 0.64844 0.86004 0.33657 0.0
C591 C 0.69852 0.82464 0.25197 0.0
C592 C 0.69295 0.82229 0.20445 0.0
C593 C 0.67558 0.81681 0.22938 0.0
C594 C 0.73358 0.83554 0.20254 0.0
C595 C 0.73887 0.83757 0.24955 0.0
C596 C 0.75626 0.84301 0.22496 0.0
C597 C 0.6204 0.75882 0.34242 0.0
C598 C 0.68008 0.82014 0.27778 0.0
C599 C 0.85965 0.89808 0.30601 0.0
C600 C 0.85116 0.86058 0.3105 0.0
C601 C 0.70132 0.79453 0.37628 0.0
C602 C 0.65399 0.83074 0.46119 0.0
C603 C 0.67727 0.83844 0.48362 0.0
C604 C 0.66055 0.83399 0.50875 0.0
C605 C 0.62002 0.82139 0.51085 0.0
C606 C 0.61387 0.81864 0.46389 0.0
C607 C 0.59702 0.81394 0.48859 0.0
C608 C 0.73145 0.89636 0.37032 0.0
C609 C 0.67182 0.83479 0.43518 0.0
H610 H 0.64441 0.80701 0.23124 0.0
H611 H 0.74774 0.83954 0.1837 0.0
H612 H 0.75694 0.8435 0.26659 0.0
H613 H 0.78744 0.85297 0.22326 0.0
H614 H 0.70839 0.84824 0.48144 0.0
H615 H 0.60584 0.81675 0.52973 0.0
H616 H 0.59554 0.81272 0.44698 0.0
H617 H 0.56593 0.80428 0.49051 0.0
Tb618 Tb 0.19823 0.83837 0.38781 0.0
C619 C 0.12256 0.89498 0.30806 0.0
C620 C 0.05345 0.84857 0.31121 0.0
C621 C 0.07379 0.9137 0.29874 0.0
C622 C 0.09329 0.85862 0.31364 0.0
C623 C 0.11335 0.92283 0.29983 0.0
C624 C 0.04383 0.87657 0.30445 0.0
C625 C 0.18257 0.96498 0.29167 0.0
N626 N 0.16019 0.90228 0.30897 0.0
C627 C 0.19007 0.93621 0.29976 0.0
C628 C 0.14407 0.95848 0.29208 0.0
Tb629 Tb 0.17038 0.85441 0.32384 0.0
N630 N 0.10402 0.8325 0.31971 0.0
C631 C 0.07596 0.79486 0.32148 0.0
C632 C 0.02461 0.81049 0.31474 0.0
C633 C 0.03598 0.78342 0.31945 0.0
H634 H 0.21996 0.94162 0.29937 0.0
H635 H 0.01397 0.75372 0.32165 0.0
H636 H 0.01339 0.86952 0.30279 0.0
H637 H 0.20648 0.99213 0.28509 0.0
H638 H 0.08384 0.77339 0.3253 0.0
H639 H 0.35442 0.93902 0.39075 0.0
H640 H 0.99366 0.80155 0.31314 0.0
H641 H 0.14737 0.74871 0.40795 0.0
H642 H 0.2845 0.91948 0.38677 0.0
H643 H 0.16084 0.69777 0.42126 0.0
H644 H 0.06604 0.93479 0.29275 0.0
H645 H 0.37448 0.89101 0.39939 0.0
H646 H 0.35455 0.82286 0.4092 0.0
H647 H 0.13828 0.9807 0.28563 0.0
H648 H 0.3018 0.7571 0.41766 0.0
N649 N 0.26434 0.86038 0.39235 0.0
C650 C 0.29242 0.898 0.39061 0.0
C651 C 0.34355 0.88215 0.39764 0.0
C652 C 0.31464 0.84402 0.4009 0.0
C653 C 0.33234 0.90932 0.39283 0.0
C654 C 0.27484 0.83402 0.39827 0.0
H655 H 0.22938 0.71024 0.42256 0.0
N656 N 0.20765 0.78948 0.40112 0.0
C657 C 0.18492 0.72559 0.41603 0.0
C658 C 0.24542 0.79722 0.40288 0.0
C659 C 0.17741 0.75458 0.40853 0.0
C660 C 0.22364 0.73271 0.41668 0.0
C661 C 0.25454 0.76906 0.41043 0.0
O662 O 0.1647 0.82277 0.42249 0.0
O663 O 0.15416 0.8418 0.36451 0.0
O664 O 0.17932 0.90282 0.34762 0.0
O665 O 0.21602 0.89857 0.38215 0.0
O666 O 0.13461 0.7991 0.39134 0.0
O667 O 0.21932 0.87557 0.4199 0.0
O668 O 0.2023 0.86861 0.28839 0.0
O669 O 0.21506 0.85217 0.34726 0.0
O670 O 0.19406 0.79351 0.36254 0.0
O671 O 0.15144 0.79382 0.33119 0.0
O672 O 0.23362 0.89408 0.32003 0.0
O673 O 0.15035 0.81426 0.29356 0.0
C674 C 0.12312 0.81493 0.37448 0.0
C675 C 0.1988 0.84692 0.46179 0.0
C676 C 0.18869 0.84839 0.50895 0.0
C677 C 0.18195 0.8558 0.48311 0.0
C678 C 0.21276 0.83217 0.51296 0.0
C679 C 0.22283 0.83103 0.46642 0.0
C680 C 0.22969 0.82369 0.49187 0.0
C681 C 0.20195 0.91685 0.36842 0.0
C682 C 0.1898 0.85306 0.43491 0.0
C683 C 0.29412 0.77839 0.41212 0.0
C684 C 0.32414 0.81583 0.40731 0.0
C685 C 0.24585 0.8794 0.33723 0.0
C686 C 0.16536 0.83941 0.25069 0.0
C687 C 0.1838 0.8334 0.22899 0.0
C688 C 0.1715 0.83492 0.20339 0.0
C689 C 0.14082 0.84307 0.19999 0.0
C690 C 0.13487 0.84744 0.24669 0.0
C691 C 0.12279 0.84934 0.22147 0.0
C692 C 0.16865 0.77715 0.34345 0.0
C693 C 0.17786 0.83674 0.27733 0.0
H694 H 0.16317 0.86789 0.47953 0.0
H695 H 0.21915 0.82667 0.53249 0.0
H696 H 0.23618 0.82419 0.45042 0.0
H697 H 0.24832 0.81143 0.49528 0.0
H698 H 0.20716 0.82688 0.23207 0.0
H699 H 0.13102 0.84505 0.18064 0.0
H700 H 0.12027 0.85205 0.26303 0.0
H701 H 0.09929 0.85565 0.21856 0.0
Tb702 Tb 0.81858 0.64581 0.6577 0.0
C703 C 0.89543 0.77652 0.73717 0.0
C704 C 0.96422 0.79514 0.73503 0.0
C705 C 0.94503 0.84183 0.7464 0.0
C706 C 0.92421 0.76748 0.73228 0.0
C707 C 0.90526 0.81349 0.74503 0.0
C708 C 0.97452 0.83265 0.74138 0.0
C709 C 0.83614 0.79037 0.75249 0.0
N710 N 0.8576 0.74813 0.73607 0.0
C711 C 0.82805 0.7541 0.74479 0.0
C712 C 0.8749 0.82039 0.75222 0.0
Tb713 Tb 0.84626 0.6899 0.72182 0.0
N714 N 0.91279 0.73084 0.72655 0.0
C715 C 0.94027 0.71938 0.72545 0.0
C716 C 0.99249 0.78394 0.73221 0.0
C717 C 0.98038 0.74574 0.72785 0.0
H718 H 0.79796 0.73115 0.74511 0.0
H719 H 1.00192 0.73654 0.72618 0.0
H720 H 1.0051 0.85443 0.74326 0.0
H721 H 0.81248 0.79511 0.75867 0.0
H722 H 0.9319 0.69021 0.72182 0.0
H723 H 0.66274 0.59767 0.65437 0.0
H724 H 0.02355 0.80429 0.73408 0.0
H725 H 0.86849 0.60424 0.63774 0.0
H726 H 0.7329 0.645 0.65781 0.0
H727 H 0.85433 0.54 0.62497 0.0
H728 H 0.95326 0.87055 0.75211 0.0
H729 H 0.64193 0.52995 0.64708 0.0
H730 H 0.66112 0.48024 0.63825 0.0
H731 H 0.88116 0.84839 0.75837 0.0
H732 H 0.71338 0.46449 0.63004 0.0
N733 N 0.75237 0.60461 0.65343 0.0
C734 C 0.72461 0.61568 0.6546 0.0
C735 C 0.67293 0.55065 0.64863 0.0
C736 C 0.70154 0.53986 0.64578 0.0
C737 C 0.68458 0.58885 0.65267 0.0
C738 C 0.74145 0.56792 0.64816 0.0
H739 H 0.78563 0.48678 0.62459 0.0
N740 N 0.80846 0.58741 0.64521 0.0
C741 C 0.83049 0.5449 0.63037 0.0
C742 C 0.77059 0.55898 0.6438 0.0
C743 C 0.8384 0.58129 0.63758 0.0
C744 C 0.79168 0.51491 0.63024 0.0
C745 C 0.76106 0.52186 0.63661 0.0
O746 O 0.85305 0.66303 0.62334 0.0
O747 O 0.86217 0.69108 0.6813 0.0
O748 O 0.83752 0.72935 0.69705 0.0
O749 O 0.80167 0.68965 0.66231 0.0
O750 O 0.88194 0.66705 0.65465 0.0
O751 O 0.79795 0.6621 0.62481 0.0
O752 O 0.8132 0.67372 0.75693 0.0
O753 O 0.80195 0.64527 0.69813 0.0
O754 O 0.82357 0.60543 0.68346 0.0
O755 O 0.86445 0.64696 0.71544 0.0
O756 O 0.78354 0.67049 0.72462 0.0
O757 O 0.86382 0.66723 0.75264 0.0
C758 C 0.89308 0.69358 0.67165 0.0
C759 C 0.81998 0.65355 0.58332 0.0
C760 C 0.82552 0.66382 0.53573 0.0
C761 C 0.83255 0.67843 0.56144 0.0
C762 C 0.8067 0.62407 0.53257 0.0
C763 C 0.80066 0.61421 0.57927 0.0
C764 C 0.79434 0.59965 0.5541 0.0
C765 C 0.81546 0.72153 0.67586 0.0
C766 C 0.82806 0.66864 0.61024 0.0
C767 C 0.72137 0.49332 0.63527 0.0
C768 C 0.69163 0.50229 0.63992 0.0
C769 C 0.77143 0.64393 0.70761 0.0
C770 C 0.84792 0.67722 0.79545 0.0
C771 C 0.83133 0.65206 0.81697 0.0
C772 C 0.84344 0.66487 0.84276 0.0
C773 C 0.87186 0.70334 0.84642 0.0
C774 C 0.87624 0.71524 0.7999 0.0
C775 C 0.88799 0.72817 0.82521 0.0
C776 C 0.84812 0.61379 0.70321 0.0
C777 C 0.83607 0.66364 0.76843 0.0
H778 H 0.84709 0.70888 0.56446 0.0
H779 H 0.80154 0.61168 0.51331 0.0
H780 H 0.79063 0.59466 0.59555 0.0
H781 H 0.77973 0.5692 0.55124 0.0
H782 H 0.80963 0.62256 0.81357 0.0
H783 H 0.88135 0.71453 0.86582 0.0
H784 H 0.88939 0.73494 0.78379 0.0
H785 H 0.90977 0.75765 0.82843 0.0
Tb786 Tb 0.36562 0.17002 0.65846 0.0
C787 C 0.2259 0.1126 0.73379 0.0
C788 C 0.20584 0.16011 0.73225 0.0
C789 C 0.15742 0.09413 0.74141 0.0
C790 C 0.23511 0.14971 0.72986 0.0
C791 C 0.18715 0.08441 0.74017 0.0
C792 C 0.16675 0.13197 0.73746 0.0
C793 C 0.2109 0.04013 0.7459 0.0
N794 N 0.25559 0.1046 0.73272 0.0
C795 C 0.24893 0.06922 0.7397 0.0
C796 C 0.17976 0.04762 0.74583 0.0
Tb797 Tb 0.31659 0.15359 0.7211 0.0
N798 N 0.27322 0.17594 0.725 0.0
C799 C 0.28445 0.21375 0.72409 0.0
C800 C 0.21692 0.19855 0.72998 0.0
C801 C 0.2565 0.22553 0.72625 0.0
H802 H 0.2727 0.063 0.73969 0.0
H803 H 0.26551 0.25542 0.72488 0.0
H804 H 0.14375 0.13931 0.73907 0.0
H805 H 0.20565 0.01197 0.75075 0.0
H806 H 0.31477 0.23511 0.72103 0.0
H807 H 0.42013 0.07077 0.65651 0.0
H808 H 0.19533 0.20774 0.7316 0.0
H809 H 0.40797 0.26059 0.64013 0.0
H810 H 0.3695 0.08953 0.65908 0.0
H811 H 0.47475 0.31262 0.62946 0.0
H812 H 0.12735 0.07283 0.74604 0.0
H813 H 0.49008 0.11962 0.65046 0.0
H814 H 0.54056 0.18839 0.64278 0.0
H815 H 0.15037 0.02511 0.75078 0.0
H816 H 0.55546 0.25433 0.63523 0.0
N817 N 0.41008 0.14893 0.65514 0.0
C818 C 0.39973 0.11135 0.65629 0.0
C819 C 0.4679 0.12812 0.65154 0.0
C820 C 0.47809 0.16629 0.64888 0.0
C821 C 0.42846 0.10048 0.65489 0.0
C822 C 0.44808 0.17578 0.65061 0.0
H823 H 0.53099 0.30089 0.62989 0.0
N824 N 0.42621 0.21984 0.64712 0.0
C825 C 0.47003 0.28463 0.63426 0.0
C826 C 0.45647 0.21262 0.64635 0.0
C827 C 0.43218 0.255 0.64023 0.0
C828 C 0.50172 0.27793 0.63458 0.0
C829 C 0.49508 0.24141 0.6403 0.0
O830 O 0.35263 0.18591 0.62239 0.0
O831 O 0.31756 0.16784 0.6806 0.0
O832 O 0.27647 0.10876 0.69468 0.0
O833 O 0.32145 0.10946 0.6644 0.0
O834 O 0.34166 0.20867 0.65278 0.0
O835 O 0.34867 0.13132 0.62737 0.0
O836 O 0.33016 0.13712 0.75677 0.0
O837 O 0.36467 0.15551 0.69904 0.0
O838 O 0.40597 0.21356 0.68499 0.0
O839 O 0.36169 0.21441 0.7151 0.0
O840 O 0.33864 0.11364 0.72615 0.0
O841 O 0.33481 0.19199 0.75246 0.0
C842 C 0.31405 0.19408 0.66996 0.0
C843 C 0.3647 0.15914 0.58527 0.0
C844 C 0.35942 0.1566 0.53774 0.0
C845 C 0.3419 0.15119 0.56262 0.0
C846 C 0.40007 0.16993 0.53596 0.0
C847 C 0.40508 0.17215 0.58298 0.0
C848 C 0.42263 0.17753 0.55845 0.0
C849 C 0.28609 0.09291 0.67553 0.0
C850 C 0.34608 0.15464 0.61102 0.0
C851 C 0.52549 0.23256 0.63961 0.0
C852 C 0.517 0.19503 0.64391 0.0
C853 C 0.36686 0.12833 0.7094 0.0
C854 C 0.31982 0.16395 0.79452 0.0
C855 C 0.34347 0.17272 0.81687 0.0
C856 C 0.32675 0.1675 0.84206 0.0
C857 C 0.28588 0.15307 0.84429 0.0
C858 C 0.27938 0.15015 0.79737 0.0
C859 C 0.26255 0.14469 0.82213 0.0
C860 C 0.39702 0.2302 0.70384 0.0
C861 C 0.33758 0.16841 0.76845 0.0
H862 H 0.3107 0.14133 0.56437 0.0
H863 H 0.41435 0.17389 0.51717 0.0
H864 H 0.42305 0.17818 0.60008 0.0
H865 H 0.45384 0.18755 0.55685 0.0
H866 H 0.37482 0.18385 0.81454 0.0
H867 H 0.27166 0.14768 0.8632 0.0
H868 H 0.26078 0.1434 0.78053 0.0
H869 H 0.2312 0.13366 0.82416 0.0
Tb870 Tb 0.86301 0.17147 0.71959 0.0
C871 C 0.78717 0.22795 0.63999 0.0
C872 C 0.71812 0.18132 0.64322 0.0
C873 C 0.73817 0.24643 0.63083 0.0
C874 C 0.75801 0.19153 0.64556 0.0
C875 C 0.77777 0.2557 0.63182 0.0
C876 C 0.70833 0.20924 0.63655 0.0
C877 C 0.84691 0.29799 0.62343 0.0
N878 N 0.82485 0.23537 0.64079 0.0
C879 C 0.8546 0.26932 0.63149 0.0
C880 C 0.80837 0.29137 0.62398 0.0
Tb881 Tb 0.8353 0.18762 0.65556 0.0
N882 N 0.7689 0.16548 0.6515 0.0
C883 C 0.74097 0.12778 0.6532 0.0
C884 C 0.68941 0.14319 0.64671 0.0
C885 C 0.70095 0.11621 0.65127 0.0
H886 H 0.88452 0.27481 0.63103 0.0
H887 H 0.67904 0.08647 0.65342 0.0
H888 H 0.67785 0.20209 0.63495 0.0
H889 H 0.87072 0.32515 0.61679 0.0
H890 H 0.74901 0.10639 0.65689 0.0
H891 H 0.01871 0.27371 0.72335 0.0
H892 H 0.65842 0.13414 0.64517 0.0
H893 H 0.81304 0.08136 0.73887 0.0
H894 H 0.9486 0.25329 0.7191 0.0
H895 H 0.82736 0.0308 0.75174 0.0
H896 H 0.73029 0.26743 0.62488 0.0
H897 H 0.03964 0.2263 0.73177 0.0
H898 H 0.02062 0.15824 0.74106 0.0
H899 H 0.80244 0.31351 0.61756 0.0
H900 H 0.96849 0.09202 0.7489 0.0
N901 N 0.92922 0.19429 0.72437 0.0
C902 C 0.9569 0.23206 0.72286 0.0
C903 C 0.00864 0.21705 0.72992 0.0
C904 C 0.9801 0.17873 0.73289 0.0
C905 C 0.99693 0.24389 0.72523 0.0
C906 C 0.94019 0.16823 0.73014 0.0
H907 H 0.89624 0.04427 0.75325 0.0
N908 N 0.87318 0.12288 0.73246 0.0
C909 C 0.85121 0.05888 0.74679 0.0
C910 C 0.91111 0.13115 0.73437 0.0
C911 C 0.84321 0.08764 0.73954 0.0
C912 C 0.89012 0.06657 0.74756 0.0
C913 C 0.92072 0.10324 0.74169 0.0
O914 O 0.82916 0.15508 0.75413 0.0
O915 O 0.81891 0.17466 0.6962 0.0
O916 O 0.84374 0.23585 0.67931 0.0
O917 O 0.87999 0.23154 0.71414 0.0
O918 O 0.79947 0.13175 0.72286 0.0
O919 O 0.88356 0.20812 0.75202 0.0
O920 O 0.86734 0.20187 0.62016 0.0
O921 O 0.88 0.18574 0.67914 0.0
O922 O 0.85968 0.12723 0.69403 0.0
O923 O 0.81683 0.12713 0.66271 0.0
O924 O 0.89858 0.22745 0.65178 0.0
O925 O 0.81519 0.14766 0.62514 0.0
C926 C 0.78791 0.1476 0.70606 0.0
C927 C 0.86265 0.17871 0.79371 0.0
C928 C 0.85298 0.18064 0.84091 0.0
C929 C 0.84694 0.1888 0.81508 0.0
C930 C 0.87521 0.16249 0.84487 0.0
C931 C 0.88495 0.16097 0.79831 0.0
C932 C 0.89114 0.15292 0.82374 0.0
C933 C 0.86594 0.24976 0.70029 0.0
C934 C 0.85394 0.18523 0.76682 0.0
C935 C 0.96044 0.11311 0.74353 0.0
C936 C 0.99011 0.15081 0.73909 0.0
C937 C 0.9108 0.21297 0.66915 0.0
C938 C 0.83033 0.17323 0.58239 0.0
C939 C 0.84791 0.16643 0.56053 0.0
C940 C 0.83587 0.16884 0.535 0.0
C941 C 0.80633 0.17865 0.53188 0.0
C942 C 0.80084 0.1827 0.57863 0.0
C943 C 0.78904 0.18549 0.55352 0.0
C944 C 0.83456 0.11084 0.67479 0.0
C945 C 0.84278 0.17015 0.60897 0.0
H946 H 0.82952 0.20237 0.81158 0.0
H947 H 0.88095 0.1563 0.86438 0.0
H948 H 0.89741 0.15315 0.7823 0.0
H949 H 0.9084 0.13918 0.8271 0.0
H950 H 0.87045 0.15873 0.56346 0.0
H951 H 0.79686 0.18156 0.51264 0.0
H952 H 0.78683 0.18783 0.59507 0.0
H953 H 0.76638 0.19302 0.5508 0.0
C954 C 0.36417 0.8728 0.0558 0.0
C955 C 0.33186 0.87569 0.06514 0.0
H956 H 0.42303 0.90216 0.04044 0.0
C957 C 0.33348 0.91105 0.06342 0.0
H958 H 0.36405 0.84605 0.05695 0.0
C959 C 0.36709 0.94298 0.0537 0.0
C960 C 0.39986 0.9404 0.04531 0.0
H961 H 0.3089 0.91418 0.0699 0.0
H962 H 0.36799 0.97014 0.05349 0.0
C963 C 0.39794 0.90488 0.04613 0.0
C964 C 0.14309 0.49165 0.05638 0.0
C965 C 0.13877 0.45661 0.06483 0.0
H966 H 0.11412 0.5218 0.04286 0.0
C967 C 0.10118 0.42414 0.06379 0.0
H968 H 0.17156 0.51727 0.05705 0.0
C969 C 0.06867 0.42669 0.05537 0.0
C970 C 0.07267 0.46168 0.04753 0.0
H971 H 0.09676 0.39662 0.06977 0.0
H972 H 0.04003 0.40119 0.05538 0.0
C973 C 0.11026 0.49425 0.04812 0.0
C974 C 0.551 0.66286 0.07983 0.0
C975 C 0.56832 0.69457 0.06296 0.0
H976 H 0.52713 0.60265 0.08406 0.0
C977 C 0.574 0.68874 0.03656 0.0
H978 H 0.54553 0.66595 0.10013 0.0
C979 C 0.5623 0.65229 0.02729 0.0
C980 C 0.54541 0.621 0.04426 0.0
H981 H 0.58824 0.7124 0.02306 0.0
H982 H 0.56784 0.64884 1.0071 0.0
C983 C 0.5401 0.62654 0.07062 0.0
C984 C 0.87359 0.32295 1.00586 0.0
C985 C 0.86656 0.31769 0.97885 0.0
H986 H 0.90685 0.3609 0.03648 0.0
C987 C 0.88952 0.34845 0.962 0.0
H988 H 0.85746 0.29976 0.01949 0.0
C989 C 0.91828 0.38346 0.97192 0.0
C990 C 0.92438 0.38874 0.99892 0.0
H991 H 0.88479 0.34582 0.94116 0.0
H992 H 0.93518 0.40671 0.95847 0.0
C993 C 0.90191 0.3581 0.01574 0.0
C994 C 0.68404 0.58346 0.98193 0.0
C995 C 0.68881 0.55131 0.98264 0.0
H996 H 0.64606 0.60648 0.98889 0.0
C997 C 0.6577 0.51711 0.99292 0.0
H998 H 0.70745 0.61038 0.97458 0.0
C999 C 0.62214 0.51481 1.00106 0.0
C1000 C 0.61732 0.54694 0.99976 0.0
H1001 H 0.66026 0.49172 0.9937 0.0
H1002 H 0.59812 0.48767 1.00749 0.0
C1003 C 0.64893 0.58129 0.99038 0.0
C1004 C 0.48347 0.14817 0.99623 0.0
C1005 C 0.45082 0.13722 0.97986 0.0
H1006 H 0.51829 0.13083 0.01813 0.0
C1007 C 0.42848 0.09885 0.97266 0.0
H1008 H 0.50185 0.1776 1.0018 0.0
C1009 C 0.43825 0.0721 0.98182 0.0
C1010 C 0.47039 0.08298 0.9986 0.0
H1011 H 0.40286 0.08924 0.96043 0.0
H1012 H 0.42019 0.04274 0.976 0.0
C1013 C 0.49298 0.12136 1.00561 0.0
C1014 C 0.6335 0.13397 0.99663 0.0
C1015 C 0.66777 0.13289 0.99024 0.0
H1016 H 0.57213 0.10199 1.00597 0.0
C1017 C 0.66648 0.09778 0.98892 0.0
H1018 H 0.63408 0.16092 0.99803 0.0
C1019 C 0.63111 0.06403 0.99388 0.0
C1020 C 0.5968 0.065 1.0007 0.0
H1021 H 0.69279 0.09646 0.98433 0.0
H1022 H 0.63059 0.0371 0.99259 0.0
C1023 C 0.59822 0.10029 1.00161 0.0
C1024 C 0.90965 0.5622 0.98865 0.0
C1025 C 0.87317 0.5287 0.99091 0.0
H1026 H 0.97257 0.58778 0.99089 0.0
C1027 C 0.87237 0.49446 0.99685 0.0
H1028 H 0.91102 0.58899 0.98425 0.0
C1029 C 0.90744 0.49378 1.00088 0.0
C1030 C 0.94404 0.52748 0.99948 0.0
H1031 H 0.84454 0.46826 0.99886 0.0
H1032 H 0.90582 0.46692 1.0053 0.0
C1033 C 0.94477 0.5615 0.99261 0.0
C1034 C 0.44071 0.34111 0.98649 0.0
C1035 C 0.46276 0.32528 0.99618 0.0
H1036 H 0.43575 0.39126 0.98304 0.0
C1037 C 0.49853 0.34848 1.00861 0.0
H1038 H 0.41285 0.32338 0.97696 0.0
C1039 C 0.51158 0.38702 1.01224 0.0
C1040 C 0.48887 0.40294 1.00361 0.0
H1041 H 0.51581 0.33655 0.0163 0.0
H1042 H 0.53903 0.40412 0.02234 0.0
C1043 C 0.45382 0.37984 0.99004 0.0
C1044 C 0.14071 0.64625 0.07716 0.0
C1045 C 0.15883 0.67545 0.05855 0.0
H1046 H 0.09537 0.58849 0.08455 0.0
C1047 C 0.14315 0.67008 0.03344 0.0
H1048 H 0.15271 0.64985 0.09659 0.0
C1049 C 0.11085 0.63526 0.02657 0.0
C1050 C 0.0938 0.60526 0.04466 0.0
H1051 H 0.15685 0.69231 0.0188 0.0
H1052 H 0.09962 0.63161 1.00696 0.0
C1053 C 0.10807 0.61134 0.07029 0.0
C1054 C 0.34869 0.4464 0.05856 0.0
C1055 C 0.34646 0.47978 0.05661 0.0
H1056 H 0.38524 0.42089 0.05496 0.0
C1057 C 0.38028 0.51375 0.04911 0.0
H1058 H 0.32294 0.41979 0.06405 0.0
C1059 C 0.41581 0.51441 0.0437 0.0
C1060 C 0.41806 0.48091 0.04528 0.0
H1061 H 0.3792 0.53985 0.04722 0.0
H1062 H 0.44147 0.54112 0.03837 0.0
C1063 C 0.38423 0.44704 0.05317 0.0
C1064 C 0.57788 0.90816 0.06145 0.0
C1065 C 0.55768 0.87126 0.05143 0.0
H1066 H 0.58025 0.96192 0.06461 0.0
C1067 C 0.52235 0.85905 0.03811 0.0
H1068 H 0.6054 0.91804 0.07164 0.0
C1069 C 0.50803 0.88399 0.0339 0.0
C1070 C 0.52902 0.9217 0.0428 0.0
H1071 H 0.5065 0.83061 0.03013 0.0
H1072 H 0.48099 0.87396 0.02312 0.0
C1073 C 0.5635 0.9332 0.05732 0.0
C1074 C 0.02683 0.20886 0.38707 0.0
C1075 C 0.99575 0.21336 0.39689 0.0
H1076 H 0.08614 0.23642 0.37244 0.0
C1077 C 1.00002 0.24984 0.39705 0.0
H1078 H 0.0244 0.18104 0.38677 0.0
C1079 C 0.03488 0.28124 0.38822 0.0
C1080 C 0.06637 0.277 0.37914 0.0
H1081 H 0.97642 0.25413 0.40412 0.0
H1082 H 0.03766 0.30919 0.38915 0.0
C1083 C 0.06204 0.24047 0.37859 0.0
C1084 C 0.76564 0.75399 0.39696 0.0
C1085 C 0.80355 0.78615 0.39732 0.0
H1086 H 0.70426 0.73167 0.38955 0.0
C1087 C 0.80813 0.82109 0.3884 0.0
H1088 H 0.76097 0.72652 0.40329 0.0
C1089 C 0.77536 0.824 0.3805 0.0
C1090 C 0.73741 0.79186 0.38075 0.0
H1091 H 0.83681 0.8465 0.38853 0.0
H1092 H 0.77962 0.85159 0.37504 0.0
C1093 C 0.73313 0.75686 0.38889 0.0
C1094 C 0.24099 0.02264 0.36985 0.0
C1095 C 0.23516 0.02845 0.39621 0.0
H1096 H 0.23486 0.98272 0.34042 0.0
C1097 C 0.21759 0.99675 0.41307 0.0
H1098 H 0.25543 0.04632 0.35637 0.0
C1099 C 0.20657 0.96041 0.40386 0.0
C1100 C 0.21203 0.95489 0.37753 0.0
H1101 H 0.21204 -0.00013 0.43335 0.0
H1102 H 0.19345 0.9365 0.41728 0.0
C1103 C 0.22918 0.98618 0.36058 0.0
C1104 C 0.57256 0.66423 0.30709 0.0
C1105 C 0.5325 0.64953 0.31314 0.0
H1106 H 0.63156 0.70992 0.3116 0.0
C1107 C 0.52174 0.67134 0.32893 0.0
H1108 H 0.58213 0.64809 0.2954 0.0
C1109 C 0.55023 0.70655 0.33865 0.0
C1110 C 0.59022 0.72109 0.33264 0.0
H1111 H 0.49117 0.66135 0.33366 0.0
H1112 H 0.54079 0.72257 0.3506 0.0
C1113 C 0.60101 0.69962 0.31661 0.0
C1114 C 0.32588 0.85273 0.32621 0.0
C1115 C 0.35668 0.88699 0.31575 0.0
H1116 H 0.26637 0.82286 0.34095 0.0
C1117 C 0.35141 0.91884 0.3149 0.0
H1118 H 0.32881 0.82756 0.32712 0.0
C1119 C 0.31616 0.91634 0.32341 0.0
C1120 C 0.28484 0.88192 0.33297 0.0
H1121 H 0.37456 0.94581 0.3074 0.0
H1122 H 0.31294 0.94132 0.32181 0.0
C1123 C 0.29015 0.85007 0.33439 0.0
C1124 C 0.15429 0.48371 0.3295 0.0
C1125 C 0.12165 0.47291 0.31316 0.0
H1126 H 0.18879 0.46601 0.35147 0.0
C1127 C 0.09897 0.43456 0.30606 0.0
H1128 H 0.17285 0.51314 0.33501 0.0
C1129 C 0.10836 0.40763 0.31533 0.0
C1130 C 0.14049 0.41833 0.33208 0.0
H1131 H 0.07332 0.42509 0.29387 0.0
H1132 H 0.08998 0.37828 0.30959 0.0
C1133 C 0.16349 0.45671 0.33896 0.0
C1134 C 0.33531 0.42469 0.32582 0.0
C1135 C 0.33924 0.46091 0.32736 0.0
H1136 H 0.29597 0.36442 0.32827 0.0
C1137 C 0.306 0.46437 0.33263 0.0
H1138 H 0.36076 0.42152 0.32207 0.0
C1139 C 0.26916 0.43191 0.33645 0.0
C1140 C 0.2652 0.39554 0.3355 0.0
H1141 H 0.3086 0.49219 0.33418 0.0
H1142 H 0.24391 0.43535 0.34008 0.0
C1143 C 0.29845 0.39221 0.3296 0.0
C1144 C 0.53984 0.83022 0.33007 0.0
C1145 C 0.54172 0.86506 0.32453 0.0
H1146 H 0.57174 0.80106 0.33804 0.0
C1147 C 0.57874 0.89806 0.32281 0.0
H1148 H 0.51161 0.80437 0.33168 0.0
C1149 C 0.61327 0.89624 0.32679 0.0
C1150 C 0.61143 0.86154 0.33313 0.0
H1151 H 0.58097 0.92532 0.31877 0.0
H1152 H 0.64148 0.92213 0.3254 0.0
C1153 C 0.5743 0.82841 0.33411 0.0
C1154 C 0.10924 0.67543 0.32006 0.0
C1155 C 0.13172 0.66001 0.32965 0.0
H1156 H 0.10362 0.72521 0.31664 0.0
C1157 C 0.16759 0.68353 0.34186 0.0
H1158 H 0.08131 0.65743 0.3107 0.0
C1159 C 0.18031 0.72201 0.3454 0.0
C1160 C 0.15715 0.73751 0.33691 0.0
H1161 H 0.18521 0.6719 0.34945 0.0
H1162 H 0.20784 0.73938 0.35536 0.0
C1163 C 0.12201 0.7141 0.32353 0.0
C1164 C 0.7841 0.99839 0.39463 0.0
C1165 C 0.82319 0.00945 0.38816 0.0
H1166 H 0.72383 0.95321 0.39433 0.0
C1167 C 0.8321 0.98276 0.37773 0.0
H1168 H 0.77673 0.01888 0.40247 0.0
C1169 C 0.80225 0.94574 0.37286 0.0
C1170 C 0.76275 0.9346 0.37833 0.0
H1171 H 0.8621 0.99089 0.37243 0.0
H1172 H 0.81015 0.92607 0.36424 0.0
C1173 C 0.75398 0.96097 0.38993 0.0
C1174 C 0.04592 0.84566 0.38194 0.0
C1175 C 0.0124 0.81136 0.38937 0.0
H1176 H 0.10724 0.87397 0.37141 0.0
C1177 C 0.01538 0.77839 0.39143 0.0
H1178 H 0.04426 0.87145 0.37996 0.0
C1179 C 0.05133 0.77974 0.38622 0.0
C1180 C 0.08484 0.81392 0.3784 0.0
H1181 H 0.9899 0.75153 0.39685 0.0
H1182 H 0.05288 0.75389 0.38808 0.0
C1183 C 0.08185 0.84702 0.3767 0.0
C1184 C 0.24316 0.24066 0.39544 0.0
C1185 C 0.22337 0.20409 0.38489 0.0
H1186 H 0.24511 0.29409 0.3993 0.0
C1187 C 0.18817 0.192 0.37144 0.0
H1188 H 0.27054 0.25042 0.40578 0.0
C1189 C 0.17364 0.21685 0.36754 0.0
C1190 C 0.19436 0.25433 0.37687 0.0
H1191 H 0.17261 0.16378 0.36309 0.0
H1192 H 0.14675 0.20697 0.35663 0.0
C1193 C 0.22861 0.2656 0.3916 0.0
C1194 C 0.6933 0.5414 0.72075 0.0
C1195 C 0.66248 0.54617 0.73075 0.0
H1196 H 0.75237 0.56859 0.70567 0.0
C1197 C 0.66685 0.58269 0.73068 0.0
H1198 H 0.69075 0.51353 0.72058 0.0
C1199 C 0.70158 0.61387 0.72147 0.0
C1200 C 0.73288 0.60939 0.71227 0.0
H1201 H 0.64343 0.58717 0.73786 0.0
H1202 H 0.70447 0.64187 0.72226 0.0
C1203 C 0.72841 0.57281 0.71191 0.0
C1204 C 0.47361 0.1547 0.72145 0.0
C1205 C 0.46898 0.11966 0.73016 0.0
H1206 H 0.44514 0.18537 0.70836 0.0
C1207 C 0.43108 0.08753 0.72971 0.0
H1208 H 0.5023 0.1801 0.72167 0.0
C1209 C 0.39859 0.0905 0.72173 0.0
C1210 C 0.40292 0.12559 0.71379 0.0
H1211 H 0.42639 0.05999 0.73589 0.0
H1212 H 0.36971 0.06531 0.7223 0.0
C1213 C 0.44086 0.15772 0.71365 0.0
C1214 C 0.90359 0.35534 0.70243 0.0
C1215 C 0.89854 0.36074 0.72901 0.0
H1216 H 0.89718 0.31591 0.67254 0.0
C1217 C 0.8811 0.32875 0.74561 0.0
H1218 H 0.91777 0.37925 0.68911 0.0
C1219 C 0.87006 0.2926 0.73605 0.0
C1220 C 0.87534 0.28753 0.70962 0.0
H1221 H 0.87599 0.33154 0.76603 0.0
H1222 H 0.85731 0.26852 0.74934 0.0
C1223 C 0.89179 0.31903 0.69282 0.0
C1224 C 0.18735 0.00585 0.6616 0.0
C1225 C 0.19811 0.98386 0.64601 0.0
H1226 H 0.20643 0.05713 0.68322 0.0
C1227 C 0.23822 0.9983 0.64025 0.0
H1228 H 0.15675 0.9961 0.6661 0.0
C1229 C 0.26671 0.03363 0.64984 0.0
C1230 C 0.25589 0.05526 0.66568 0.0
H1231 H 0.2478 0.98202 0.62873 0.0
H1232 H 0.29729 0.04374 0.64505 0.0
C1233 C 0.21587 0.04097 0.67142 0.0
C1234 C 0.99122 0.18663 0.65892 0.0
C1235 C 0.02222 0.22101 0.64878 0.0
H1236 H 0.93141 0.15653 0.67302 0.0
C1237 C 0.01688 0.25283 0.64781 0.0
H1238 H 0.99419 0.16148 0.65987 0.0
C1239 C 0.98139 0.25017 0.65593 0.0
C1240 C 0.94992 0.21565 0.66522 0.0
H1241 H 0.04015 0.27988 0.64052 0.0
H1242 H 0.97813 0.27513 0.65427 0.0
C1243 C 0.95528 0.18383 0.6667 0.0
C1244 C 0.79699 0.78436 0.63036 0.0
C1245 C 0.78194 0.8011 0.64751 0.0
H1246 H 0.81957 0.74606 0.62611 0.0
C1247 C 0.77758 0.79076 0.67411 0.0
H1248 H 0.80111 0.79181 0.60985 0.0
C1249 C 0.78926 0.76554 0.68344 0.0
C1250 C 0.80482 0.74948 0.66637 0.0
H1251 H 0.7649 0.80199 0.68782 0.0
H1252 H 0.78499 0.75779 0.70385 0.0
C1253 C 0.80797 0.75852 0.63969 0.0
C1254 C 1.00125 0.75937 0.65764 0.0
C1255 C 1.00432 0.79519 0.65955 0.0
H1256 H 0.96313 0.69891 0.66027 0.0
C1257 C 0.97072 0.79777 0.66545 0.0
H1258 H 0.02699 0.75688 0.65341 0.0
C1259 C 0.9344 0.76481 0.66963 0.0
C1260 C 0.93138 0.72884 0.6684 0.0
H1261 H 0.97269 0.82529 0.6673 0.0
H1262 H 0.90883 0.7675 0.67394 0.0
C1263 C 0.96492 0.72639 0.66179 0.0
C1264 C 0.20538 0.16414 0.66369 0.0
C1265 C 0.20719 0.19898 0.65832 0.0
H1266 H 0.23739 0.13501 0.67139 0.0
C1267 C 0.24417 0.23203 0.65662 0.0
H1268 H 0.17718 0.13825 0.66527 0.0
C1269 C 0.27875 0.23025 0.66046 0.0
C1270 C 0.277 0.19554 0.66665 0.0
H1271 H 0.24634 0.25929 0.65268 0.0
H1272 H 0.30694 0.25617 0.65909 0.0
C1273 C 0.23989 0.16237 0.6676 0.0
C1274 C 0.7782 0.00957 0.65013 0.0
C1275 C 0.80212 0.99529 0.65895 0.0
H1276 H 0.77002 0.05801 0.648 0.0
C1277 C 0.83784 0.01953 0.67109 0.0
H1278 H 0.7503 0.99096 0.64093 0.0
C1279 C 0.84899 0.0575 0.67536 0.0
C1280 C 0.82445 0.07179 0.66761 0.0
H1281 H 0.85649 0.00876 0.67817 0.0
H1282 H 0.87641 0.07538 0.6853 0.0
C1283 C 0.78946 0.04778 0.65427 0.0
C1284 C 0.49775 0.31624 0.71183 0.0
C1285 C 0.48888 0.34293 0.72231 0.0
H1286 H 0.47572 0.25966 0.69808 0.0
C1287 C 0.44976 0.33197 0.72861 0.0
H1288 H 0.52777 0.32431 0.70664 0.0
C1289 C 0.41958 0.29466 0.7237 0.0
C1290 C 0.42833 0.2683 0.71205 0.0
H1291 H 0.44242 0.35247 0.73647 0.0
H1292 H 0.38942 0.28697 0.72798 0.0
C1293 C 0.46785 0.27933 0.70675 0.0
C1294 C 0.68032 0.11121 0.72342 0.0
C1295 C 0.67745 0.14426 0.72154 0.0
H1296 H 0.71766 0.08657 0.71975 0.0
C1297 C 0.71096 0.17853 0.71408 0.0
H1298 H 0.65483 0.08437 0.72885 0.0
C1299 C 0.74679 0.1798 0.70865 0.0
C1300 C 0.74969 0.14664 0.71017 0.0
H1301 H 0.70938 0.20437 0.71223 0.0
H1302 H 0.77219 0.20674 0.70335 0.0
C1303 C 0.71618 0.11247 0.71801 0.0
C1304 C 0.85633 0.52457 0.70475 0.0
C1305 C 0.89054 0.53665 0.71939 0.0
H1306 H 0.8153 0.5392 0.6887 0.0
C1307 C 0.90884 0.57276 0.73066 0.0
H1308 H 0.84193 0.49669 0.69585 0.0
C1309 C 0.89397 0.59731 0.72638 0.0
C1310 C 0.86083 0.58618 0.71048 0.0
H1311 H 0.93544 0.58252 0.74193 0.0
H1312 H 0.90939 0.62545 0.73474 0.0
C1313 C 0.84142 0.54905 0.70044 0.0
C1314 C 0.50326 0.95738 0.24298 0.0
C1315 C 0.46264 0.93218 0.24595 0.0
H1316 H 0.55004 0.99789 0.21862 0.0
C1317 C 0.43812 0.92771 0.2246 0.0
H1318 H 0.52319 0.96189 0.25886 0.0
C1319 C 0.45359 0.94868 0.20139 0.0
C1320 C 0.49403 0.97496 0.19887 0.0
H1321 H 0.40676 0.90817 0.22588 0.0
H1322 H 0.43364 0.94525 0.18576 0.0
C1323 C 0.51866 0.9784 0.21987 0.0
C1324 C 0.03362 0.53192 0.24472 0.0
C1325 C 0.06459 0.52389 0.2465 0.0
H1326 H 0.98925 0.53254 0.22111 0.0
C1327 C 0.07469 0.5105 0.22408 0.0
H1328 H 0.02442 0.54175 0.2615 0.0
C1329 C 0.0535 0.50406 0.2009 0.0
C1330 C 0.02182 0.5111 0.19945 0.0
H1331 H 0.09873 0.50456 0.22446 0.0
H1332 H 0.06129 0.4925 0.18439 0.0
C1333 C 0.01282 0.52592 0.22155 0.0
C1334 C 0.4957 0.57054 0.223 0.0
C1335 C 0.48303 0.54674 0.24521 0.0
H1336 H 0.51776 0.57902 0.18374 0.0
C1337 C 0.4798 0.51069 0.24341 0.0
H1338 H 0.49811 0.59834 0.22358 0.0
C1339 C 0.49103 0.49961 0.22054 0.0
C1340 C 0.50555 0.52417 0.19877 0.0
H1341 H 0.47037 0.4917 0.26011 0.0
H1342 H 0.4892 0.47206 0.22012 0.0
C1343 C 0.50668 0.55935 0.20006 0.0
C1344 C 0.95954 0.47994 0.81746 0.0
C1345 C 0.96579 0.45789 0.79897 0.0
H1346 H 0.97507 0.50701 0.85487 0.0
C1347 C 0.99334 0.44624 0.80446 0.0
H1348 H 0.93842 0.48923 0.8138 0.0
C1349 C 0.01414 0.45632 0.82779 0.0
C1350 C 0.00799 0.47832 0.84633 0.0
H1351 H 0.99926 0.42967 0.79051 0.0
H1352 H 0.03499 0.44668 0.83137 0.0
C1353 C 0.98025 0.48983 0.84102 0.0
C1354 C 0.51488 0.47128 0.80175 0.0
C1355 C 0.55575 0.48621 0.79949 0.0
H1356 H 0.46662 0.464 0.82559 0.0
C1357 C 0.57931 0.50477 0.82124 0.0
H1358 H 0.49574 0.45708 0.78545 0.0
C1359 C 0.56255 0.50909 0.84432 0.0
C1360 C 0.52179 0.49514 0.84623 0.0
H1361 H 0.61083 0.51619 0.8204 0.0
H1362 H 0.58169 0.52437 0.86038 0.0
C1363 C 0.49818 0.47565 0.82475 0.0
C1364 C 0.48516 0.03237 0.80042 0.0
C1365 C 0.52102 0.06668 0.79783 0.0
H1366 H 0.44727 0.98486 0.82446 0.0
C1367 C 0.54735 0.07842 0.81892 0.0
H1368 H 0.46421 0.02214 0.78462 0.0
C1369 C 0.53758 0.05661 0.84211 0.0
C1370 C 0.50147 0.02233 0.84458 0.0
H1371 H 0.57507 0.10483 0.81772 0.0
H1372 H 0.55846 0.06632 0.85793 0.0
C1373 C 0.47552 0.01074 0.82334 0.0
C1374 C 0.16985 0.29148 0.5769 0.0
C1375 C 0.12915 0.26649 0.5797 0.0
H1376 H 0.21702 0.3318 0.55271 0.0
C1377 C 0.1049 0.26228 0.55825 0.0
H1378 H 0.18959 0.2958 0.59286 0.0
C1379 C 0.1207 0.28329 0.53511 0.0
C1380 C 0.16122 0.30934 0.53274 0.0
H1381 H 0.0735 0.24289 0.55939 0.0
H1382 H 0.10094 0.28006 0.5194 0.0
C1383 C 0.18559 0.31253 0.55385 0.0
C1384 C 0.73524 0.83756 0.55778 0.0
C1385 C 0.72708 0.85314 0.57986 0.0
H1386 H 0.72069 0.81898 0.51827 0.0
C1387 C 0.69809 0.86383 0.57783 0.0
H1388 H 0.7577 0.82944 0.55843 0.0
C1389 C 0.67742 0.85852 0.55465 0.0
C1390 C 0.68475 0.84198 0.5328 0.0
H1391 H 0.6905 0.87547 0.59439 0.0
H1392 H 0.6554 0.86721 0.55396 0.0
C1393 C 0.71433 0.83201 0.53458 0.0
C1394 C 0.16212 0.90493 0.55591 0.0
C1395 C 0.14903 0.8811 0.57809 0.0
H1396 H 0.18467 0.91337 0.51679 0.0
C1397 C 0.14561 0.84496 0.57639 0.0
H1398 H 0.1647 0.9328 0.55642 0.0
C1399 C 0.15705 0.83382 0.55364 0.0
C1400 C 0.17195 0.85839 0.53189 0.0
H1401 H 0.13585 0.82595 0.59308 0.0
H1402 H 0.15505 0.80619 0.55328 0.0
C1403 C 0.17329 0.89368 0.53308 0.0
C1404 C 0.61228 0.76989 0.15472 0.0
C1405 C 0.62723 0.79402 0.1328 0.0
H1406 H 0.62116 0.75995 0.19454 0.0
C1407 C 0.66255 0.82871 0.13526 0.0
H1408 H 0.58498 0.74309 0.15351 0.0
C1409 C 0.68324 0.83833 0.15872 0.0
C1410 C 0.669 0.81362 0.18036 0.0
H1411 H 0.67507 0.8478 0.11873 0.0
H1412 H 0.71078 0.86492 0.1598 0.0
C1413 C 0.63284 0.77966 0.17827 0.0
C1414 C 0.24902 0.84027 0.15563 0.0
C1415 C 0.22591 0.81862 0.13455 0.0
H1416 H 0.25013 0.8622 0.19384 0.0
C1417 C 0.18477 0.80132 0.13676 0.0
H1418 H 0.28077 0.8536 0.15473 0.0
C1419 C 0.16725 0.80616 0.1592 0.0
C1420 C 0.19034 0.82822 0.18014 0.0
H1421 H 0.16607 0.78461 0.12091 0.0
H1422 H 0.13548 0.79259 0.16014 0.0
C1423 C 0.23145 0.84486 0.17818 0.0
C1424 C 0.21588 0.41388 0.15363 0.0
C1425 C 0.18978 0.40264 0.13243 0.0
H1426 H 0.22645 0.40104 0.19257 0.0
C1427 C 0.15377 0.36841 0.13473 0.0
H1428 H 0.24372 0.44021 0.15264 0.0
C1429 C 0.14375 0.34642 0.15749 0.0
C1430 C 0.16946 0.35753 0.17885 0.0
H1431 H 0.13299 0.35855 0.11883 0.0
H1432 H 0.11538 0.32066 0.15839 0.0
C1433 C 0.20573 0.39169 0.17665 0.0
C1434 C 0.77046 0.59212 0.89167 0.0
C1435 C 0.79481 0.59609 0.913 0.0
H1436 H 0.76639 0.61017 0.85292 0.0
C1437 C 0.83553 0.62089 0.91012 0.0
H1438 H 0.73903 0.57289 0.8929 0.0
C1439 C 0.85121 0.64202 0.8871 0.0
C1440 C 0.82676 0.63907 0.86611 0.0
H1441 H 0.85533 0.625 0.926 0.0
H1442 H 0.88266 0.66118 0.88589 0.0
C1443 C 0.78621 0.6132 0.86855 0.0
C1444 C 0.40365 0.17493 0.89077 0.0
C1445 C 0.39371 0.18841 0.91321 0.0
H1446 H 0.39032 0.1573 0.85101 0.0
C1447 C 0.36302 0.19684 0.91143 0.0
H1448 H 0.42746 0.16866 0.89115 0.0
C1449 C 0.34238 0.19122 0.88821 0.0
C1450 C 0.35128 0.17642 0.86606 0.0
H1451 H 0.35394 0.20676 0.92822 0.0
H1452 H 0.31904 0.19816 0.88778 0.0
C1453 C 0.38264 0.1689 0.86755 0.0
C1454 C 0.80969 0.17867 0.90805 0.0
C1455 C 0.81613 0.21591 0.91011 0.0
H1456 H 0.81607 0.13829 0.88461 0.0
C1457 C 0.83164 0.24034 0.88834 0.0
H1458 H 0.79794 0.15919 0.92444 0.0
C1459 C 0.84193 0.22836 0.86548 0.0
C1460 C 0.83739 0.19178 0.86389 0.0
H1461 H 0.83662 0.2691 0.88918 0.0
H1462 H 0.85504 0.24835 0.84946 0.0
C1463 C 0.8204 0.16683 0.88528 0.0
C1464 C 0.32932 0.16273 0.46842 0.0
C1465 C 0.29404 0.12801 0.46597 0.0
H1466 H 0.37743 0.19906 0.49301 0.0
C1467 C 0.27903 0.10394 0.4879 0.0
H1468 H 0.34188 0.18177 0.45187 0.0
C1469 C 0.29949 0.11381 0.51149 0.0
C1470 C 0.33561 0.14781 0.51359 0.0
H1471 H 0.25174 0.07712 0.48669 0.0
H1472 H 0.28777 0.09414 0.52779 0.0
C1473 C 0.34991 0.17245 0.49192 0.0
C1474 C 0.84743 0.13755 0.4671 0.0
C1475 C 0.88835 0.15269 0.465 0.0
H1476 H 0.7989 0.13011 0.49071 0.0
C1477 C 0.9117 0.17141 0.48678 0.0
H1478 H 0.82845 0.12322 0.45076 0.0
C1479 C 0.89471 0.17574 0.50973 0.0
C1480 C 0.85391 0.1616 0.51149 0.0
H1481 H 0.94325 0.18297 0.48607 0.0
H1482 H 0.91371 0.19118 0.52581 0.0
C1483 C 0.83049 0.14192 0.48998 0.0
C1484 C 0.88204 0.74495 0.48625 0.0
C1485 C 0.85557 0.73339 0.46523 0.0
H1486 H 0.89335 0.73261 0.52514 0.0
C1487 C 0.81961 0.69919 0.46789 0.0
H1488 H 0.90985 0.77127 0.485 0.0
C1489 C 0.81003 0.67749 0.49078 0.0
C1490 C 0.83615 0.68887 0.51192 0.0
H1491 H 0.79854 0.68906 0.45215 0.0
H1492 H 0.78171 0.6517 0.49193 0.0
C1493 C 0.87234 0.72305 0.50939 0.0
loop_
_geom_bond_atom_site_label_1
_geom_bond_atom_site_label_2
_geom_bond_distance
_geom_bond_site_symmetry_2
_ccdc_geom_bond_type
H0 C3 0.929 . S
H1 C6 0.929 . S
H2 C8 0.930 . S
C3 H0 0.929 . S
C3 C4 1.398 . S
C3 C5 1.396 . S
C4 C3 1.398 . S
C4 C8 1.407 . S
C5 C3 1.396 . S
C5 C6 1.394 . S
C6 H1 0.929 . S
C6 C5 1.394 . S
C6 C7 1.382 . S
C7 C6 1.382 . S
C7 C8 1.392 . S
C7 N9 1.420 . S
C8 H2 0.930 . S
C8 C4 1.407 . S
C8 C7 1.392 . S
N9 C7 1.420 . S
N9 C10 1.244 . S
C10 N9 1.244 . S
H11 C14 0.929 . S
H12 C17 0.929 . S
H13 C19 0.930 . S
C14 H11 0.929 . S
C14 C15 1.398 . S
C14 C16 1.396 . S
C15 C14 1.398 . S
C15 C19 1.407 . S
C16 C14 1.396 . S
C16 C17 1.394 . S
C17 H12 0.929 . S
C17 C16 1.394 . S
C17 C18 1.382 . S
C18 C17 1.382 . S
C18 C19 1.392 . S
C18 N20 1.420 . S
C19 H13 0.930 . S
C19 C15 1.407 . S
C19 C18 1.392 . S
N20 C18 1.420 . S
N20 C21 1.244 . S
C21 N20 1.244 . S
H22 C25 0.929 . S
H23 C28 0.929 . S
H24 C30 0.930 . S
C25 H22 0.929 . S
C25 C26 1.398 . S
C25 C27 1.396 . S
C26 C25 1.398 . S
C26 C30 1.407 . S
C27 C25 1.396 . S
C27 C28 1.394 . S
C28 H23 0.929 . S
C28 C27 1.394 . S
C28 C29 1.382 . S
C29 C28 1.382 . S
C29 C30 1.392 . S
C29 N31 1.420 . S
C30 H24 0.930 . S
C30 C26 1.407 . S
C30 C29 1.392 . S
N31 C29 1.420 . S
N31 C32 1.244 . S
C32 N31 1.244 . S
H33 C36 0.929 . S
H34 C39 0.929 . S
H35 C41 0.930 . S
C36 H33 0.929 . S
C36 C37 1.398 . S
C36 C38 1.396 . S
C37 C36 1.398 . S
C37 C41 1.407 . S
C38 C36 1.396 . S
C38 C39 1.394 . S
C39 H34 0.929 . S
C39 C38 1.394 . S
C39 C40 1.382 . S
C40 C39 1.382 . S
C40 C41 1.392 . S
C40 N42 1.420 . S
C41 H35 0.930 . S
C41 C37 1.407 . S
C41 C40 1.392 . S
N42 C40 1.420 . S
N42 C43 1.244 . S
C43 N42 1.244 . S
H44 C47 0.929 . S
H45 C50 0.929 . S
H46 C52 0.930 . S
C47 H44 0.929 . S
C47 C48 1.398 . S
C47 C49 1.396 . S
C48 C47 1.398 . S
C48 C52 1.407 . S
C49 C47 1.396 . S
C49 C50 1.394 . S
C50 H45 0.929 . S
C50 C49 1.394 . S
C50 C51 1.382 . S
C51 C50 1.382 . S
C51 C52 1.392 . S
C51 N53 1.420 . S
C52 H46 0.930 . S
C52 C48 1.407 . S
C52 C51 1.392 . S
N53 C51 1.420 . S
N53 C54 1.244 . S
C54 N53 1.244 . S
H55 C58 0.929 . S
H56 C61 0.929 . S
H57 C63 0.930 . S
C58 H55 0.929 . S
C58 C59 1.398 . S
C58 C60 1.396 . S
C59 C58 1.398 . S
C59 C63 1.407 . S
C60 C58 1.396 . S
C60 C61 1.394 . S
C61 H56 0.929 . S
C61 C60 1.394 . S
C61 C62 1.382 . S
C62 C61 1.382 . S
C62 C63 1.392 . S
C62 N64 1.420 . S
C63 H57 0.930 . S
C63 C59 1.407 . S
C63 C62 1.392 . S
N64 C62 1.420 . S
N64 C65 1.244 . S
C65 N64 1.244 . S
H66 C69 0.929 . S
H67 C72 0.929 . S
H68 C74 0.930 . S
C69 H66 0.929 . S
C69 C70 1.398 . S
C69 C71 1.396 . S
C70 C69 1.398 . S
C70 C74 1.407 . S
C71 C69 1.396 . S
C71 C72 1.394 . S
C72 H67 0.929 . S
C72 C71 1.394 . S
C72 C73 1.382 . S
C73 C72 1.382 . S
C73 C74 1.392 . S
C73 N75 1.420 . S
C74 H68 0.930 . S
C74 C70 1.407 . S
C74 C73 1.392 . S
N75 C73 1.420 . S
N75 C76 1.244 . S
C76 N75 1.244 . S
H77 C80 0.929 . S
H78 C83 0.929 . S
H79 C85 0.930 . S
C80 H77 0.929 . S
C80 C81 1.398 . S
C80 C82 1.396 . S
C81 C80 1.398 . S
C81 C85 1.407 . S
C82 C80 1.396 . S
C82 C83 1.394 . S
C83 H78 0.929 . S
C83 C82 1.394 . S
C83 C84 1.382 . S
C84 C83 1.382 . S
C84 C85 1.392 . S
C84 N86 1.420 . S
C85 H79 0.930 . S
C85 C81 1.407 . S
C85 C84 1.392 . S
N86 C84 1.420 . S
N86 C87 1.244 . S
C87 N86 1.244 . S
H88 C91 0.929 . S
H89 C94 0.929 . S
H90 C96 0.930 . S
C91 H88 0.929 . S
C91 C92 1.398 . S
C91 C93 1.396 . S
C92 C91 1.398 . S
C92 C96 1.407 . S
C93 C91 1.396 . S
C93 C94 1.394 . S
C94 H89 0.929 . S
C94 C93 1.394 . S
C94 C95 1.382 . S
C95 C94 1.382 . S
C95 C96 1.392 . S
C95 N97 1.420 . S
C96 H90 0.930 . S
C96 C92 1.407 . S
C96 C95 1.392 . S
N97 C95 1.420 . S
N97 C98 1.244 . S
C98 N97 1.244 . S
H99 C102 0.929 . S
H100 C105 0.929 . S
H101 C107 0.930 . S
C102 H99 0.929 . S
C102 C103 1.398 . S
C102 C104 1.396 . S
C103 C102 1.398 . S
C103 C107 1.407 . S
C104 C102 1.396 . S
C104 C105 1.394 . S
C105 H100 0.929 . S
C105 C104 1.394 . S
C105 C106 1.382 . S
C106 C105 1.382 . S
C106 C107 1.392 . S
C106 N108 1.420 . S
C107 H101 0.930 . S
C107 C103 1.407 . S
C107 C106 1.392 . S
N108 C106 1.420 . S
N108 C109 1.244 . S
C109 N108 1.244 . S
H110 C113 0.929 . S
H111 C116 0.929 . S
H112 C118 0.930 . S
C113 H110 0.929 . S
C113 C114 1.398 . S
C113 C115 1.396 . S
C114 C113 1.398 . S
C114 C118 1.407 . S
C115 C113 1.396 . S
C115 C116 1.394 . S
C116 H111 0.929 . S
C116 C115 1.394 . S
C116 C117 1.382 . S
C117 C116 1.382 . S
C117 C118 1.392 . S
C117 N119 1.420 . S
C118 H112 0.930 . S
C118 C114 1.407 . S
C118 C117 1.392 . S
N119 C117 1.420 . S
N119 C120 1.244 . S
C120 N119 1.244 . S
H121 C124 0.929 . S
H122 C127 0.929 . S
H123 C129 0.930 . S
C124 H121 0.929 . S
C124 C125 1.398 . S
C124 C126 1.396 . S
C125 C124 1.398 . S
C125 C129 1.407 . S
C126 C124 1.396 . S
C126 C127 1.394 . S
C127 H122 0.929 . S
C127 C126 1.394 . S
C127 C128 1.382 . S
C128 C127 1.382 . S
C128 C129 1.392 . S
C128 N130 1.420 . S
C129 H123 0.930 . S
C129 C125 1.407 . S
C129 C128 1.392 . S
N130 C128 1.420 . S
N130 C131 1.244 . S
C131 N130 1.244 . S
H132 C135 0.929 . S
H133 C138 0.929 . S
H134 C140 0.930 . S
C135 H132 0.929 . S
C135 C136 1.398 . S
C135 C137 1.396 . S
C136 C135 1.398 . S
C136 C140 1.407 . S
C137 C135 1.396 . S
C137 C138 1.394 . S
C138 H133 0.929 . S
C138 C137 1.394 . S
C138 C139 1.382 . S
C139 C138 1.382 . S
C139 C140 1.392 . S
C139 N141 1.420 . S
C140 H134 0.930 . S
C140 C136 1.407 . S
C140 C139 1.392 . S
N141 C139 1.420 . S
N141 C142 1.244 . S
C142 N141 1.244 . S
H143 C146 0.929 . S
H144 C149 0.929 . S
H145 C151 0.930 . S
C146 H143 0.929 . S
C146 C147 1.398 . S
C146 C148 1.396 . S
C147 C146 1.398 . S
C147 C151 1.407 . S
C148 C146 1.396 . S
C148 C149 1.394 . S
C149 H144 0.929 . S
C149 C148 1.394 . S
C149 C150 1.382 . S
C150 C149 1.382 . S
C150 C151 1.392 . S
C150 N152 1.420 . S
C151 H145 0.930 . S
C151 C147 1.407 . S
C151 C150 1.392 . S
N152 C150 1.420 . S
N152 C153 1.244 . S
C153 N152 1.244 . S
H154 C157 0.929 . S
H155 C160 0.929 . S
H156 C162 0.930 . S
C157 H154 0.929 . S
C157 C158 1.398 . S
C157 C159 1.396 . S
C158 C157 1.398 . S
C158 C162 1.407 . S
C159 C157 1.396 . S
C159 C160 1.394 . S
C160 H155 0.929 . S
C160 C159 1.394 . S
C160 C161 1.382 . S
C161 C160 1.382 . S
C161 C162 1.392 . S
C161 N163 1.420 . S
C162 H156 0.930 . S
C162 C158 1.407 . S
C162 C161 1.392 . S
N163 C161 1.420 . S
N163 C164 1.244 . S
C164 N163 1.244 . S
H165 C168 0.929 . S
H166 C171 0.929 . S
H167 C173 0.930 . S
C168 H165 0.929 . S
C168 C169 1.398 . S
C168 C170 1.396 . S
C169 C168 1.398 . S
C169 C173 1.407 . S
C170 C168 1.396 . S
C170 C171 1.394 . S
C171 H166 0.929 . S
C171 C170 1.394 . S
C171 C172 1.382 . S
C172 C171 1.382 . S
C172 C173 1.392 . S
C172 N174 1.420 . S
C173 H167 0.930 . S
C173 C169 1.407 . S
C173 C172 1.392 . S
N174 C172 1.420 . S
N174 C175 1.244 . S
C175 N174 1.244 . S
H176 C179 0.929 . S
H177 C182 0.929 . S
H178 C184 0.930 . S
C179 H176 0.929 . S
C179 C180 1.398 . S
C179 C181 1.396 . S
C180 C179 1.398 . S
C180 C184 1.407 . S
C181 C179 1.396 . S
C181 C182 1.394 . S
C182 H177 0.929 . S
C182 C181 1.394 . S
C182 C183 1.382 . S
C183 C182 1.382 . S
C183 C184 1.392 . S
C183 N185 1.420 . S
C184 H178 0.930 . S
C184 C180 1.407 . S
C184 C183 1.392 . S
N185 C183 1.420 . S
N185 C186 1.244 . S
C186 N185 1.244 . S
H187 C190 0.929 . S
H188 C193 0.929 . S
H189 C195 0.930 . S
C190 H187 0.929 . S
C190 C191 1.398 . S
C190 C192 1.396 . S
C191 C190 1.398 . S
C191 C195 1.407 . S
C192 C190 1.396 . S
C192 C193 1.394 . S
C193 H188 0.929 . S
C193 C192 1.394 . S
C193 C194 1.382 . S
C194 C193 1.382 . S
C194 C195 1.392 . S
C194 N196 1.420 . S
C195 H189 0.930 . S
C195 C191 1.407 . S
C195 C194 1.392 . S
N196 C194 1.420 . S
N196 C197 1.244 . S
C197 N196 1.244 . S
Tb198 N229 2.660 . S
Tb198 N236 2.600 . S
Tb198 O242 2.546 . S
Tb198 O243 2.610 1_566 S
Tb198 O245 2.320 1_565 S
Tb198 O246 2.552 1_565 S
Tb198 O247 2.413 1_565 S
Tb198 O249 2.362 1_556 S
Tb198 O250 2.421 . S
Tb198 C262 2.833 . S
C199 C202 1.432 . S
C199 C203 1.414 . S
C199 N206 1.359 . S
C200 C202 1.417 . S
C200 C204 1.432 . S
C200 C212 1.410 . S
C201 C203 1.444 . S
C201 C204 1.317 . S
C201 H224 0.929 . S
C202 C199 1.432 . S
C202 C200 1.417 . S
C202 N210 1.360 . S
C203 C199 1.414 . S
C203 C201 1.444 . S
C203 C208 1.385 . S
C204 C200 1.432 . S
C204 C201 1.317 . S
C204 H216 0.930 . S
C205 C207 1.392 . S
C205 C208 1.370 . S
C205 H217 0.931 . S
N206 C199 1.359 . S
N206 C207 1.327 . S
N206 Tb209 2.600 . S
C207 C205 1.392 . S
C207 N206 1.327 . S
C207 H214 0.930 . S
C208 C203 1.385 . S
C208 C205 1.370 . S
C208 H227 0.930 . S
Tb209 N206 2.600 . S
Tb209 N210 2.660 . S
Tb209 O243 2.362 . S
Tb209 O244 2.421 . S
Tb209 O248 2.546 . S
Tb209 O249 2.610 1_545 S
Tb209 O251 2.320 1_545 S
Tb209 O252 2.552 1_545 S
Tb209 O253 2.413 1_545 S
Tb209 C273 2.833 . S
N210 C202 1.360 . S
N210 Tb209 2.660 . S
N210 C211 1.305 . S
C211 N210 1.305 . S
C211 C213 1.407 . S
C211 H218 0.930 . S
C212 C200 1.410 . S
C212 C213 1.345 . S
C212 H220 0.930 . S
C213 C211 1.407 . S
C213 C212 1.345 . S
C213 H215 0.930 . S
H214 C207 0.930 . S
H215 C213 0.930 . S
H216 C204 0.930 . S
H217 C205 0.931 . S
H218 C211 0.930 . S
H219 C233 0.930 . S
H220 C212 0.930 . S
H221 C239 0.930 . S
H222 C230 0.930 . S
H223 C237 0.931 . S
H224 C201 0.929 . S
H225 C231 0.930 . S
H226 C264 0.930 . S
H227 C208 0.930 . S
H228 C263 0.929 . S
N229 Tb198 2.660 . S
N229 C230 1.305 . S
N229 C234 1.360 . S
C230 H222 0.930 . S
C230 N229 1.305 . S
C230 C233 1.407 . S
C231 H225 0.930 . S
C231 C232 1.410 . S
C231 C233 1.345 . S
C232 C231 1.410 . S
C232 C234 1.417 . S
C232 C264 1.432 . S
C233 H219 0.930 . S
C233 C230 1.407 . S
C233 C231 1.345 . S
C234 N229 1.360 . S
C234 C232 1.417 . S
C234 C238 1.432 . S
H235 C240 0.930 . S
N236 Tb198 2.600 . S
N236 C238 1.359 . S
N236 C239 1.327 . S
C237 H223 0.931 . S
C237 C239 1.392 . S
C237 C240 1.370 . S
C238 C234 1.432 . S
C238 N236 1.359 . S
C238 C241 1.414 . S
C239 H221 0.930 . S
C239 N236 1.327 . S
C239 C237 1.392 . S
C240 H235 0.930 . S
C240 C237 1.370 . S
C240 C241 1.385 . S
C241 C238 1.414 . S
C241 C240 1.385 . S
C241 C263 1.444 . S
O242 Tb198 2.546 . S
O242 C262 1.251 . S
O243 Tb198 2.610 1_544 S
O243 Tb209 2.362 . S
O243 C254 1.283 1_554 S
O244 Tb209 2.421 . S
O244 C261 1.262 1_554 S
O245 Tb198 2.320 1_545 S
O245 C261 1.260 . S
O246 Tb198 2.552 1_545 S
O246 C254 1.243 . S
O247 Tb198 2.413 1_545 S
O247 C262 1.256 1_545 S
O248 Tb209 2.546 . S
O248 C273 1.251 . S
O249 Tb198 2.362 1_554 S
O249 Tb209 2.610 1_565 S
O249 C265 1.283 . S
O250 Tb198 2.421 . S
O250 C272 1.262 1_556 S
O251 Tb209 2.320 1_565 S
O251 C272 1.260 . S
O252 Tb209 2.552 1_565 S
O252 C265 1.243 . S
O253 Tb209 2.413 1_565 S
O253 C273 1.256 1_565 S
C254 O243 1.283 1_556 S
C254 O246 1.243 . S
C255 C257 1.382 . S
C255 C259 1.393 1_545 S
C255 C262 1.500 1_545 S
C256 C257 1.400 . S
C256 C258 1.384 . S
C257 C255 1.382 . S
C257 C256 1.400 . S
C257 H274 0.930 . S
C258 C256 1.384 . S
C258 C260 1.392 1_545 S
C258 H275 0.931 . S
C259 C255 1.393 1_565 S
C259 C260 1.401 . S
C259 H276 0.930 . S
C260 C258 1.392 1_565 S
C260 C259 1.401 . S
C260 H277 0.930 . S
C261 O244 1.262 1_556 S
C261 O245 1.260 . S
C262 Tb198 2.833 . S
C262 O242 1.251 . S
C262 O247 1.256 1_565 S
C262 C255 1.500 1_565 S
C263 H228 0.929 . S
C263 C241 1.444 . S
C263 C264 1.317 . S
C264 H226 0.930 . S
C264 C232 1.432 . S
C264 C263 1.317 . S
C265 O249 1.283 . S
C265 O252 1.243 . S
C266 C267 1.382 1_545 S
C266 C270 1.393 . S
C266 C273 1.500 . S
C267 C266 1.382 1_565 S
C267 C268 1.400 . S
C267 H278 0.930 . S
C268 C267 1.400 . S
C268 C269 1.384 . S
C269 C268 1.384 . S
C269 C271 1.392 1_565 S
C269 H279 0.931 . S
C270 C266 1.393 . S
C270 C271 1.401 . S
C270 H280 0.930 . S
C271 C269 1.392 1_545 S
C271 C270 1.401 . S
C271 H281 0.930 . S
C272 O250 1.262 1_554 S
C272 O251 1.260 . S
C273 Tb209 2.833 . S
C273 O248 1.251 . S
C273 O253 1.256 1_545 S
C273 C266 1.500 . S
H274 C257 0.930 . S
H275 C258 0.931 . S
H276 C259 0.930 . S
H277 C260 0.930 . S
H278 C267 0.930 . S
H279 C269 0.931 . S
H280 C270 0.930 . S
H281 C271 0.930 . S
Tb282 N313 2.660 . S
Tb282 N320 2.600 . S
Tb282 O326 2.546 . S
Tb282 O327 2.610 1_456 S
Tb282 O329 2.320 1_455 S
Tb282 O330 2.552 1_455 S
Tb282 O331 2.409 1_455 S
Tb282 O333 2.362 1_556 S
Tb282 O334 2.421 . S
Tb282 C346 2.833 . S
C283 C286 1.432 . S
C283 C287 1.414 . S
C283 N290 1.359 . S
C284 C286 1.417 . S
C284 C288 1.432 . S
C284 C296 1.410 . S
C285 C287 1.444 . S
C285 C288 1.317 . S
C285 H308 0.929 . S
C286 C283 1.432 . S
C286 C284 1.417 . S
C286 N294 1.360 . S
C287 C283 1.414 . S
C287 C285 1.444 . S
C287 C292 1.385 . S
C288 C284 1.432 . S
C288 C285 1.317 . S
C288 H300 0.930 . S
C289 C291 1.392 . S
C289 C292 1.370 . S
C289 H301 0.931 . S
N290 C283 1.359 . S
N290 C291 1.327 . S
N290 Tb293 2.600 . S
C291 C289 1.392 . S
C291 N290 1.327 . S
C291 H298 0.930 . S
C292 C287 1.385 . S
C292 C289 1.370 . S
C292 H311 0.930 . S
Tb293 N290 2.600 . S
Tb293 N294 2.660 . S
Tb293 O327 2.362 . S
Tb293 O328 2.421 . S
Tb293 O332 2.546 . S
Tb293 O333 2.610 1_655 S
Tb293 O335 2.320 1_655 S
Tb293 O336 2.552 1_655 S
Tb293 O337 2.413 1_655 S
Tb293 C357 2.833 . S
N294 C286 1.360 . S
N294 Tb293 2.660 . S
N294 C295 1.305 . S
C295 N294 1.305 . S
C295 C297 1.407 . S
C295 H302 0.930 . S
C296 C284 1.410 . S
C296 C297 1.345 . S
C296 H304 0.930 . S
C297 C295 1.407 . S
C297 C296 1.345 . S
C297 H299 0.930 . S
H298 C291 0.930 . S
H299 C297 0.930 . S
H300 C288 0.930 . S
H301 C289 0.931 . S
H302 C295 0.930 . S
H303 C317 0.930 . S
H304 C296 0.930 . S
H305 C323 0.930 . S
H306 C314 0.930 . S
H307 C321 0.931 . S
H308 C285 0.929 . S
H309 C315 0.930 . S
H310 C348 0.930 . S
H311 C292 0.930 . S
H312 C347 0.929 . S
N313 Tb282 2.660 . S
N313 C314 1.305 . S
N313 C318 1.360 . S
C314 H306 0.930 . S
C314 N313 1.305 . S
C314 C317 1.407 . S
C315 H309 0.930 . S
C315 C316 1.410 . S
C315 C317 1.345 . S
C316 C315 1.410 . S
C316 C318 1.417 . S
C316 C348 1.432 . S
C317 H303 0.930 . S
C317 C314 1.407 . S
C317 C315 1.345 . S
C318 N313 1.360 . S
C318 C316 1.417 . S
C318 C322 1.432 . S
H319 C324 0.930 . S
N320 Tb282 2.600 . S
N320 C322 1.359 . S
N320 C323 1.327 . S
C321 H307 0.931 . S
C321 C323 1.392 . S
C321 C324 1.370 . S
C322 C318 1.432 . S
C322 N320 1.359 . S
C322 C325 1.414 . S
C323 H305 0.930 . S
C323 N320 1.327 . S
C323 C321 1.392 . S
C324 H319 0.930 . S
C324 C321 1.370 . S
C324 C325 1.385 . S
C325 C322 1.414 . S
C325 C324 1.385 . S
C325 C347 1.444 . S
O326 Tb282 2.546 . S
O326 C346 1.251 . S
O327 Tb282 2.610 1_654 S
O327 Tb293 2.362 . S
O327 C338 1.283 1_554 S
O328 Tb293 2.421 . S
O328 C345 1.262 1_554 S
O329 Tb282 2.320 1_655 S
O329 C345 1.260 . S
O330 Tb282 2.552 1_655 S
O330 C338 1.243 . S
O331 Tb282 2.409 1_655 S
O331 C346 1.258 1_655 S
O332 Tb293 2.546 . S
O332 C357 1.251 . S
O333 Tb282 2.362 1_554 S
O333 Tb293 2.610 1_455 S
O333 C349 1.283 . S
O334 Tb282 2.421 . S
O334 C356 1.262 1_556 S
O335 Tb293 2.320 1_455 S
O335 C356 1.260 . S
O336 Tb293 2.552 1_455 S
O336 C349 1.243 . S
O337 Tb293 2.413 1_455 S
O337 C357 1.256 1_455 S
C338 O327 1.283 1_556 S
C338 O330 1.243 . S
C339 C341 1.382 1_455 S
C339 C343 1.393 . S
C339 C346 1.500 . S
C340 C341 1.400 . S
C340 C342 1.384 . S
C341 C339 1.382 1_655 S
C341 C340 1.400 . S
C341 H358 0.930 . S
C342 C340 1.384 . S
C342 C344 1.392 1_655 S
C342 H359 0.931 . S
C343 C339 1.393 . S
C343 C344 1.401 . S
C343 H360 0.930 . S
C344 C342 1.392 1_455 S
C344 C343 1.401 . S
C344 H361 0.930 . S
C345 O328 1.262 1_556 S
C345 O329 1.260 . S
C346 Tb282 2.833 . S
C346 O326 1.251 . S
C346 O331 1.258 1_455 S
C346 C339 1.500 . S
C347 H312 0.929 . S
C347 C325 1.444 . S
C347 C348 1.317 . S
C348 H310 0.930 . S
C348 C316 1.432 . S
C348 C347 1.317 . S
C349 O333 1.283 . S
C349 O336 1.243 . S
C350 C351 1.398 . S
C350 C354 1.385 1_455 S
C350 C357 1.494 1_455 S
C351 C350 1.398 . S
C351 C352 1.400 . S
C351 H362 0.930 . S
C352 C351 1.400 . S
C352 C353 1.384 . S
C353 C352 1.384 . S
C353 C355 1.392 1_455 S
C353 H363 0.931 . S
C354 C350 1.385 1_655 S
C354 C355 1.401 . S
C354 H364 0.930 . S
C355 C353 1.392 1_655 S
C355 C354 1.401 . S
C355 H365 0.930 . S
C356 O334 1.262 1_554 S
C356 O335 1.260 . S
C357 Tb293 2.833 . S
C357 O332 1.251 . S
C357 O337 1.256 1_655 S
C357 C350 1.494 1_655 S
H358 C341 0.930 . S
H359 C342 0.931 . S
H360 C343 0.930 . S
H361 C344 0.930 . S
H362 C351 0.930 . S
H363 C353 0.931 . S
H364 C354 0.930 . S
H365 C355 0.930 . S
Tb366 N397 2.660 . S
Tb366 N404 2.600 . S
Tb366 O410 2.546 . S
Tb366 O411 2.610 . S
Tb366 O413 2.320 . S
Tb366 O414 2.552 . S
Tb366 O415 2.413 . S
Tb366 O417 2.362 . S
Tb366 O418 2.421 . S
Tb366 C430 2.833 . S
C367 C370 1.432 . S
C367 C371 1.414 . S
C367 N374 1.359 . S
C368 C370 1.417 . S
C368 C372 1.432 . S
C368 C380 1.410 . S
C369 C371 1.444 . S
C369 C372 1.317 . S
C369 H392 0.929 . S
C370 C367 1.432 . S
C370 C368 1.417 . S
C370 N378 1.360 . S
C371 C367 1.414 . S
C371 C369 1.444 . S
C371 C376 1.385 . S
C372 C368 1.432 . S
C372 C369 1.317 . S
C372 H384 0.930 . S
C373 C375 1.392 . S
C373 C376 1.370 . S
C373 H385 0.931 . S
N374 C367 1.359 . S
N374 C375 1.327 . S
N374 Tb377 2.600 . S
C375 C373 1.392 . S
C375 N374 1.327 . S
C375 H382 0.930 . S
C376 C371 1.385 . S
C376 C373 1.370 . S
C376 H395 0.930 . S
Tb377 N374 2.600 . S
Tb377 N378 2.660 . S
Tb377 O411 2.362 1_556 S
Tb377 O412 2.421 . S
Tb377 O416 2.546 . S
Tb377 O417 2.610 1_556 S
Tb377 O419 2.320 . S
Tb377 O420 2.552 . S
Tb377 O421 2.413 . S
Tb377 C441 2.833 . S
N378 C370 1.360 . S
N378 Tb377 2.660 . S
N378 C379 1.305 . S
C379 N378 1.305 . S
C379 C381 1.407 . S
C379 H386 0.930 . S
C380 C368 1.410 . S
C380 C381 1.345 . S
C380 H388 0.930 . S
C381 C379 1.407 . S
C381 C380 1.345 . S
C381 H383 0.930 . S
H382 C375 0.930 . S
H383 C381 0.930 . S
H384 C372 0.930 . S
H385 C373 0.931 . S
H386 C379 0.930 . S
H387 C401 0.930 . S
H388 C380 0.930 . S
H389 C407 0.930 . S
H390 C398 0.930 . S
H391 C405 0.931 . S
H392 C369 0.929 . S
H393 C399 0.930 . S
H394 C432 0.930 . S
H395 C376 0.930 . S
H396 C431 0.929 . S
N397 Tb366 2.660 . S
N397 C398 1.305 . S
N397 C402 1.360 . S
C398 H390 0.930 . S
C398 N397 1.305 . S
C398 C401 1.407 . S
C399 H393 0.930 . S
C399 C400 1.410 . S
C399 C401 1.345 . S
C400 C399 1.410 . S
C400 C402 1.417 . S
C400 C432 1.432 . S
C401 H387 0.930 . S
C401 C398 1.407 . S
C401 C399 1.345 . S
C402 N397 1.360 . S
C402 C400 1.417 . S
C402 C406 1.432 . S
H403 C408 0.930 . S
N404 Tb366 2.600 . S
N404 C406 1.359 . S
N404 C407 1.327 . S
C405 H391 0.931 . S
C405 C407 1.392 . S
C405 C408 1.370 . S
C406 C402 1.432 . S
C406 N404 1.359 . S
C406 C409 1.414 . S
C407 H389 0.930 . S
C407 N404 1.327 . S
C407 C405 1.392 . S
C408 H403 0.930 . S
C408 C405 1.370 . S
C408 C409 1.385 . S
C409 C406 1.414 . S
C409 C408 1.385 . S
C409 C431 1.444 . S
O410 Tb366 2.546 . S
O410 C430 1.251 . S
O411 Tb366 2.610 . S
O411 Tb377 2.362 1_554 S
O411 C422 1.283 . S
O412 Tb377 2.421 . S
O412 C429 1.262 1_556 S
O413 Tb366 2.320 . S
O413 C429 1.260 . S
O414 Tb366 2.552 . S
O414 C422 1.243 . S
O415 Tb366 2.413 . S
O415 C430 1.256 . S
O416 Tb377 2.546 . S
O416 C441 1.251 . S
O417 Tb366 2.362 . S
O417 Tb377 2.610 1_554 S
O417 C433 1.283 1_554 S
O418 Tb366 2.421 . S
O418 C440 1.262 1_554 S
O419 Tb377 2.320 . S
O419 C440 1.260 . S
O420 Tb377 2.552 . S
O420 C433 1.243 . S
O421 Tb377 2.413 . S
O421 C441 1.256 . S
C422 O411 1.283 . S
C422 O414 1.243 . S
C423 C425 1.382 . S
C423 C427 1.393 . S
C423 C430 1.500 . S
C424 C425 1.400 . S
C424 C426 1.384 . S
C425 C423 1.382 . S
C425 C424 1.400 . S
C425 H442 0.930 . S
C426 C424 1.384 . S
C426 C428 1.392 . S
C426 H443 0.931 . S
C427 C423 1.393 . S
C427 C428 1.401 . S
C427 H444 0.930 . S
C428 C426 1.392 . S
C428 C427 1.401 . S
C428 H445 0.930 . S
C429 O412 1.262 1_554 S
C429 O413 1.260 . S
C430 Tb366 2.833 . S
C430 O410 1.251 . S
C430 O415 1.256 . S
C430 C423 1.500 . S
C431 H396 0.929 . S
C431 C409 1.444 . S
C431 C432 1.317 . S
C432 H394 0.930 . S
C432 C400 1.432 . S
C432 C431 1.317 . S
C433 O417 1.283 1_556 S
C433 O420 1.243 . S
C434 C435 1.382 . S
C434 C438 1.393 . S
C434 C441 1.500 . S
C435 C434 1.382 . S
C435 C436 1.400 . S
C435 H446 0.930 . S
C436 C435 1.400 . S
C436 C437 1.384 . S
C437 C436 1.384 . S
C437 C439 1.392 . S
C437 H447 0.931 . S
C438 C434 1.393 . S
C438 C439 1.401 . S
C438 H448 0.930 . S
C439 C437 1.392 . S
C439 C438 1.401 . S
C439 H449 0.930 . S
C440 O418 1.262 1_556 S
C440 O419 1.260 . S
C441 Tb377 2.833 . S
C441 O416 1.251 . S
C441 O421 1.256 . S
C441 C434 1.500 . S
H442 C425 0.930 . S
H443 C426 0.931 . S
H444 C427 0.930 . S
H445 C428 0.930 . S
H446 C435 0.930 . S
H447 C437 0.931 . S
H448 C438 0.930 . S
H449 C439 0.930 . S
Tb450 N481 2.660 . S
Tb450 N488 2.600 . S
Tb450 O494 2.546 . S
Tb450 O495 2.610 . S
Tb450 O497 2.320 . S
Tb450 O498 2.552 . S
Tb450 O499 2.413 . S
Tb450 O501 2.362 . S
Tb450 O502 2.421 . S
Tb450 C514 2.833 . S
C451 C454 1.432 . S
C451 C455 1.414 . S
C451 N458 1.359 . S
C452 C454 1.417 . S
C452 C456 1.432 . S
C452 C464 1.410 . S
C453 C455 1.444 . S
C453 C456 1.317 . S
C453 H476 0.929 . S
C454 C451 1.432 . S
C454 C452 1.417 . S
C454 N462 1.360 . S
C455 C451 1.414 . S
C455 C453 1.444 . S
C455 C460 1.385 . S
C456 C452 1.432 . S
C456 C453 1.317 . S
C456 H468 0.930 . S
C457 C459 1.392 . S
C457 C460 1.370 . S
C457 H469 0.931 . S
N458 C451 1.359 . S
N458 C459 1.327 . S
N458 Tb461 2.600 . S
C459 C457 1.392 . S
C459 N458 1.327 . S
C459 H466 0.930 . S
C460 C455 1.385 . S
C460 C457 1.370 . S
C460 H479 0.930 . S
Tb461 N458 2.600 . S
Tb461 N462 2.660 . S
Tb461 O495 2.362 . S
Tb461 O496 2.421 . S
Tb461 O500 2.546 . S
Tb461 O501 2.610 . S
Tb461 O503 2.320 . S
Tb461 O504 2.552 . S
Tb461 O505 2.413 . S
Tb461 C525 2.833 . S
N462 C454 1.360 . S
N462 Tb461 2.660 . S
N462 C463 1.305 . S
C463 N462 1.305 . S
C463 C465 1.407 . S
C463 H470 0.930 . S
C464 C452 1.410 . S
C464 C465 1.345 . S
C464 H472 0.930 . S
C465 C463 1.407 . S
C465 C464 1.345 . S
C465 H467 0.930 . S
H466 C459 0.930 . S
H467 C465 0.930 . S
H468 C456 0.930 . S
H469 C457 0.931 . S
H470 C463 0.930 . S
H471 C485 0.930 . S
H472 C464 0.930 . S
H473 C491 0.930 . S
H474 C482 0.930 . S
H475 C489 0.931 . S
H476 C453 0.929 . S
H477 C483 0.930 . S
H478 C516 0.930 . S
H479 C460 0.930 . S
H480 C515 0.929 . S
N481 Tb450 2.660 . S
N481 C482 1.305 . S
N481 C486 1.360 . S
C482 H474 0.930 . S
C482 N481 1.305 . S
C482 C485 1.407 1_455 S
C483 H477 0.930 . S
C483 C484 1.410 . S
C483 C485 1.345 . S
C484 C483 1.410 . S
C484 C486 1.417 1_655 S
C484 C516 1.432 . S
C485 H471 0.930 . S
C485 C482 1.407 1_655 S
C485 C483 1.345 . S
C486 N481 1.360 . S
C486 C484 1.417 1_455 S
C486 C490 1.432 . S
H487 C492 0.930 . S
N488 Tb450 2.600 . S
N488 C490 1.359 . S
N488 C491 1.327 . S
C489 H475 0.931 . S
C489 C491 1.392 . S
C489 C492 1.370 . S
C490 C486 1.432 . S
C490 N488 1.359 . S
C490 C493 1.414 . S
C491 H473 0.930 . S
C491 N488 1.327 . S
C491 C489 1.392 . S
C492 H487 0.930 . S
C492 C489 1.370 . S
C492 C493 1.385 . S
C493 C490 1.414 . S
C493 C492 1.385 . S
C493 C515 1.444 1_455 S
O494 Tb450 2.546 . S
O494 C514 1.251 . S
O495 Tb450 2.610 . S
O495 Tb461 2.362 . S
O495 C506 1.283 . S
O496 Tb461 2.421 . S
O496 C513 1.262 . S
O497 Tb450 2.320 . S
O497 C513 1.260 . S
O498 Tb450 2.552 . S
O498 C506 1.243 . S
O499 Tb450 2.413 . S
O499 C514 1.256 . S
O500 Tb461 2.546 . S
O500 C525 1.251 . S
O501 Tb450 2.362 . S
O501 Tb461 2.610 . S
O501 C517 1.283 . S
O502 Tb450 2.421 . S
O502 C524 1.262 . S
O503 Tb461 2.320 . S
O503 C524 1.260 . S
O504 Tb461 2.552 . S
O504 C517 1.243 . S
O505 Tb461 2.413 . S
O505 C525 1.256 . S
C506 O495 1.283 . S
C506 O498 1.243 . S
C507 C509 1.382 . S
C507 C511 1.393 . S
C507 C514 1.500 . S
C508 C509 1.400 . S
C508 C510 1.384 . S
C509 C507 1.382 . S
C509 C508 1.400 . S
C509 H526 0.930 . S
C510 C508 1.384 . S
C510 C512 1.392 . S
C510 H527 0.931 . S
C511 C507 1.393 . S
C511 C512 1.401 . S
C511 H528 0.930 . S
C512 C510 1.392 . S
C512 C511 1.401 . S
C512 H529 0.930 . S
C513 O496 1.262 . S
C513 O497 1.260 . S
C514 Tb450 2.833 . S
C514 O494 1.251 . S
C514 O499 1.256 . S
C514 C507 1.500 . S
C515 H480 0.929 . S
C515 C493 1.444 1_655 S
C515 C516 1.317 . S
C516 H478 0.930 . S
C516 C484 1.432 . S
C516 C515 1.317 . S
C517 O501 1.283 . S
C517 O504 1.243 . S
C518 C519 1.382 . S
C518 C522 1.393 . S
C518 C525 1.500 . S
C519 C518 1.382 . S
C519 C520 1.400 . S
C519 H530 0.930 . S
C520 C519 1.400 . S
C520 C521 1.384 . S
C521 C520 1.384 . S
C521 C523 1.392 . S
C521 H531 0.931 . S
C522 C518 1.393 . S
C522 C523 1.401 . S
C522 H532 0.930 . S
C523 C521 1.392 . S
C523 C522 1.401 . S
C523 H533 0.930 . S
C524 O502 1.262 . S
C524 O503 1.260 . S
C525 Tb461 2.833 . S
C525 O500 1.251 . S
C525 O505 1.256 . S
C525 C518 1.500 . S
H526 C509 0.930 . S
H527 C510 0.931 . S
H528 C511 0.930 . S
H529 C512 0.930 . S
H530 C519 0.930 . S
H531 C521 0.931 . S
H532 C522 0.930 . S
H533 C523 0.930 . S
Tb534 N565 2.660 . S
Tb534 N572 2.600 . S
Tb534 O578 2.546 . S
Tb534 O579 2.610 . S
Tb534 O581 2.320 . S
Tb534 O582 2.552 . S
Tb534 O583 2.413 . S
Tb534 O585 2.362 . S
Tb534 O586 2.421 . S
Tb534 C598 2.833 . S
C535 C538 1.432 . S
C535 C539 1.414 . S
C535 N542 1.359 . S
C536 C538 1.417 . S
C536 C540 1.432 . S
C536 C548 1.410 . S
C537 C539 1.444 . S
C537 C540 1.317 . S
C537 H560 0.929 . S
C538 C535 1.432 . S
C538 C536 1.417 . S
C538 N546 1.360 . S
C539 C535 1.414 . S
C539 C537 1.444 . S
C539 C544 1.385 . S
C540 C536 1.432 . S
C540 C537 1.317 . S
C540 H552 0.930 . S
C541 C543 1.392 . S
C541 C544 1.370 . S
C541 H553 0.931 . S
N542 C535 1.359 . S
N542 C543 1.327 . S
N542 Tb545 2.600 . S
C543 C541 1.392 . S
C543 N542 1.327 . S
C543 H550 0.930 . S
C544 C539 1.385 . S
C544 C541 1.370 . S
C544 H563 0.930 . S
Tb545 N542 2.600 . S
Tb545 N546 2.660 . S
Tb545 O579 2.362 . S
Tb545 O580 2.421 . S
Tb545 O584 2.546 . S
Tb545 O585 2.610 . S
Tb545 O587 2.320 . S
Tb545 O588 2.552 . S
Tb545 O589 2.413 . S
Tb545 C609 2.833 . S
N546 C538 1.360 . S
N546 Tb545 2.660 . S
N546 C547 1.305 . S
C547 N546 1.305 . S
C547 C549 1.407 . S
C547 H554 0.930 . S
C548 C536 1.410 . S
C548 C549 1.345 . S
C548 H556 0.930 . S
C549 C547 1.407 . S
C549 C548 1.345 . S
C549 H551 0.930 . S
H550 C543 0.930 . S
H551 C549 0.930 . S
H552 C540 0.930 . S
H553 C541 0.931 . S
H554 C547 0.930 . S
H555 C569 0.930 . S
H556 C548 0.930 . S
H557 C575 0.930 . S
H558 C566 0.930 . S
H559 C573 0.931 . S
H560 C537 0.929 . S
H561 C567 0.930 . S
H562 C600 0.930 . S
H563 C544 0.930 . S
H564 C599 0.929 . S
N565 Tb534 2.660 . S
N565 C566 1.305 . S
N565 C570 1.360 . S
C566 H558 0.930 . S
C566 N565 1.305 . S
C566 C569 1.407 . S
C567 H561 0.930 . S
C567 C568 1.410 . S
C567 C569 1.345 . S
C568 C567 1.410 . S
C568 C570 1.417 . S
C568 C600 1.432 . S
C569 H555 0.930 . S
C569 C566 1.407 . S
C569 C567 1.345 . S
C570 N565 1.360 . S
C570 C568 1.417 . S
C570 C574 1.432 . S
H571 C576 0.930 . S
N572 Tb534 2.600 . S
N572 C574 1.359 . S
N572 C575 1.327 . S
C573 H559 0.931 . S
C573 C575 1.392 . S
C573 C576 1.370 . S
C574 C570 1.432 . S
C574 N572 1.359 . S
C574 C577 1.414 . S
C575 H557 0.930 . S
C575 N572 1.327 . S
C575 C573 1.392 . S
C576 H571 0.930 . S
C576 C573 1.370 . S
C576 C577 1.385 . S
C577 C574 1.414 . S
C577 C576 1.385 . S
C577 C599 1.444 . S
O578 Tb534 2.546 . S
O578 C598 1.251 . S
O579 Tb534 2.610 . S
O579 Tb545 2.362 . S
O579 C590 1.283 . S
O580 Tb545 2.421 . S
O580 C597 1.262 . S
O581 Tb534 2.320 . S
O581 C597 1.260 . S
O582 Tb534 2.552 . S
O582 C590 1.243 . S
O583 Tb534 2.413 . S
O583 C598 1.256 . S
O584 Tb545 2.546 . S
O584 C609 1.251 . S
O585 Tb534 2.362 . S
O585 Tb545 2.610 . S
O585 C601 1.283 . S
O586 Tb534 2.421 . S
O586 C608 1.262 . S
O587 Tb545 2.320 . S
O587 C608 1.260 . S
O588 Tb545 2.552 . S
O588 C601 1.243 . S
O589 Tb545 2.413 . S
O589 C609 1.256 . S
C590 O579 1.283 . S
C590 O582 1.243 . S
C591 C593 1.382 . S
C591 C595 1.393 . S
C591 C598 1.500 . S
C592 C593 1.400 . S
C592 C594 1.384 . S
C593 C591 1.382 . S
C593 C592 1.400 . S
C593 H610 0.930 . S
C594 C592 1.384 . S
C594 C596 1.392 . S
C594 H611 0.931 . S
C595 C591 1.393 . S
C595 C596 1.401 . S
C595 H612 0.930 . S
C596 C594 1.392 . S
C596 C595 1.401 . S
C596 H613 0.930 . S
C597 O580 1.262 . S
C597 O581 1.260 . S
C598 Tb534 2.833 . S
C598 O578 1.251 . S
C598 O583 1.256 . S
C598 C591 1.500 . S
C599 H564 0.929 . S
C599 C577 1.444 . S
C599 C600 1.317 . S
C600 H562 0.930 . S
C600 C568 1.432 . S
C600 C599 1.317 . S
C601 O585 1.283 . S
C601 O588 1.243 . S
C602 C603 1.382 . S
C602 C606 1.393 . S
C602 C609 1.500 . S
C603 C602 1.382 . S
C603 C604 1.400 . S
C603 H614 0.930 . S
C604 C603 1.400 . S
C604 C605 1.384 . S
C605 C604 1.384 . S
C605 C607 1.392 . S
C605 H615 0.931 . S
C606 C602 1.393 . S
C606 C607 1.401 . S
C606 H616 0.930 . S
C607 C605 1.392 . S
C607 C606 1.401 . S
C607 H617 0.930 . S
C608 O586 1.262 . S
C608 O587 1.260 . S
C609 Tb545 2.833 . S
C609 O584 1.251 . S
C609 O589 1.256 . S
C609 C602 1.500 . S
H610 C593 0.930 . S
H611 C594 0.931 . S
H612 C595 0.930 . S
H613 C596 0.930 . S
H614 C603 0.930 . S
H615 C605 0.931 . S
H616 C606 0.930 . S
H617 C607 0.930 . S
Tb618 N649 2.660 . S
Tb618 N656 2.600 . S
Tb618 O662 2.546 . S
Tb618 O663 2.610 . S
Tb618 O665 2.320 . S
Tb618 O666 2.552 . S
Tb618 O667 2.413 . S
Tb618 O669 2.362 . S
Tb618 O670 2.421 . S
Tb618 C682 2.833 . S
C619 C622 1.432 . S
C619 C623 1.414 . S
C619 N626 1.359 . S
C620 C622 1.417 . S
C620 C624 1.432 . S
C620 C632 1.410 . S
C621 C623 1.444 . S
C621 C624 1.317 . S
C621 H644 0.929 . S
C622 C619 1.432 . S
C622 C620 1.417 . S
C622 N630 1.360 . S
C623 C619 1.414 . S
C623 C621 1.444 . S
C623 C628 1.385 . S
C624 C620 1.432 . S
C624 C621 1.317 . S
C624 H636 0.930 . S
C625 C627 1.392 . S
C625 C628 1.370 . S
C625 H637 0.931 . S
N626 C619 1.359 . S
N626 C627 1.327 . S
N626 Tb629 2.600 . S
C627 C625 1.392 . S
C627 N626 1.327 . S
C627 H634 0.930 . S
C628 C623 1.385 . S
C628 C625 1.370 . S
C628 H647 0.930 . S
Tb629 N626 2.600 . S
Tb629 N630 2.660 . S
Tb629 O663 2.362 . S
Tb629 O664 2.421 . S
Tb629 O668 2.546 . S
Tb629 O669 2.610 . S
Tb629 O671 2.320 . S
Tb629 O672 2.552 . S
Tb629 O673 2.413 . S
Tb629 C693 2.833 . S
N630 C622 1.360 . S
N630 Tb629 2.660 . S
N630 C631 1.305 . S
C631 N630 1.305 . S
C631 C633 1.407 . S
C631 H638 0.930 . S
C632 C620 1.410 . S
C632 C633 1.345 . S
C632 H640 0.930 . S
C633 C631 1.407 . S
C633 C632 1.345 . S
C633 H635 0.930 . S
H634 C627 0.930 . S
H635 C633 0.930 . S
H636 C624 0.930 . S
H637 C625 0.931 . S
H638 C631 0.930 . S
H639 C653 0.930 . S
H640 C632 0.930 . S
H641 C659 0.930 . S
H642 C650 0.930 . S
H643 C657 0.931 . S
H644 C621 0.929 . S
H645 C651 0.930 . S
H646 C684 0.930 . S
H647 C628 0.930 . S
H648 C683 0.929 . S
N649 Tb618 2.660 . S
N649 C650 1.305 . S
N649 C654 1.360 . S
C650 H642 0.930 . S
C650 N649 1.305 . S
C650 C653 1.407 . S
C651 H645 0.930 . S
C651 C652 1.410 . S
C651 C653 1.345 . S
C652 C651 1.410 . S
C652 C654 1.417 . S
C652 C684 1.432 . S
C653 H639 0.930 . S
C653 C650 1.407 . S
C653 C651 1.345 . S
C654 N649 1.360 . S
C654 C652 1.417 . S
C654 C658 1.432 . S
H655 C660 0.930 . S
N656 Tb618 2.600 . S
N656 C658 1.359 . S
N656 C659 1.327 . S
C657 H643 0.931 . S
C657 C659 1.392 . S
C657 C660 1.370 . S
C658 C654 1.432 . S
C658 N656 1.359 . S
C658 C661 1.414 . S
C659 H641 0.930 . S
C659 N656 1.327 . S
C659 C657 1.392 . S
C660 H655 0.930 . S
C660 C657 1.370 . S
C660 C661 1.385 . S
C661 C658 1.414 . S
C661 C660 1.385 . S
C661 C683 1.444 . S
O662 Tb618 2.546 . S
O662 C682 1.251 . S
O663 Tb618 2.610 . S
O663 Tb629 2.362 . S
O663 C674 1.283 . S
O664 Tb629 2.421 . S
O664 C681 1.262 . S
O665 Tb618 2.320 . S
O665 C681 1.260 . S
O666 Tb618 2.552 . S
O666 C674 1.243 . S
O667 Tb618 2.413 . S
O667 C682 1.256 . S
O668 Tb629 2.546 . S
O668 C693 1.251 . S
O669 Tb618 2.362 . S
O669 Tb629 2.610 . S
O669 C685 1.283 . S
O670 Tb618 2.421 . S
O670 C692 1.262 . S
O671 Tb629 2.320 . S
O671 C692 1.260 . S
O672 Tb629 2.552 . S
O672 C685 1.243 . S
O673 Tb629 2.413 . S
O673 C693 1.256 . S
C674 O663 1.283 . S
C674 O666 1.243 . S
C675 C677 1.382 . S
C675 C679 1.393 . S
C675 C682 1.500 . S
C676 C677 1.400 . S
C676 C678 1.384 . S
C677 C675 1.382 . S
C677 C676 1.400 . S
C677 H694 0.930 . S
C678 C676 1.384 . S
C678 C680 1.392 . S
C678 H695 0.931 . S
C679 C675 1.393 . S
C679 C680 1.401 . S
C679 H696 0.930 . S
C680 C678 1.392 . S
C680 C679 1.401 . S
C680 H697 0.930 . S
C681 O664 1.262 . S
C681 O665 1.260 . S
C682 Tb618 2.833 . S
C682 O662 1.251 . S
C682 O667 1.256 . S
C682 C675 1.500 . S
C683 H648 0.929 . S
C683 C661 1.444 . S
C683 C684 1.317 . S
C684 H646 0.930 . S
C684 C652 1.432 . S
C684 C683 1.317 . S
C685 O669 1.283 . S
C685 O672 1.243 . S
C686 C687 1.382 . S
C686 C690 1.393 . S
C686 C693 1.500 . S
C687 C686 1.382 . S
C687 C688 1.400 . S
C687 H698 0.930 . S
C688 C687 1.400 . S
C688 C689 1.384 . S
C689 C688 1.384 . S
C689 C691 1.392 . S
C689 H699 0.931 . S
C690 C686 1.393 . S
C690 C691 1.401 . S
C690 H700 0.930 . S
C691 C689 1.392 . S
C691 C690 1.401 . S
C691 H701 0.930 . S
C692 O670 1.262 . S
C692 O671 1.260 . S
C693 Tb629 2.833 . S
C693 O668 1.251 . S
C693 O673 1.256 . S
C693 C686 1.500 . S
H694 C677 0.930 . S
H695 C678 0.931 . S
H696 C679 0.930 . S
H697 C680 0.930 . S
H698 C687 0.930 . S
H699 C689 0.931 . S
H700 C690 0.930 . S
H701 C691 0.930 . S
Tb702 N733 2.660 . S
Tb702 N740 2.600 . S
Tb702 O746 2.546 . S
Tb702 O747 2.610 . S
Tb702 O749 2.320 . S
Tb702 O750 2.552 . S
Tb702 O751 2.413 . S
Tb702 O753 2.362 . S
Tb702 O754 2.421 . S
Tb702 C766 2.833 . S
C703 C706 1.432 . S
C703 C707 1.414 . S
C703 N710 1.359 . S
C704 C706 1.417 . S
C704 C708 1.432 . S
C704 C716 1.410 . S
C705 C707 1.444 . S
C705 C708 1.317 . S
C705 H728 0.929 . S
C706 C703 1.432 . S
C706 C704 1.417 . S
C706 N714 1.360 . S
C707 C703 1.414 . S
C707 C705 1.444 . S
C707 C712 1.385 . S
C708 C704 1.432 . S
C708 C705 1.317 . S
C708 H720 0.930 . S
C709 C711 1.392 . S
C709 C712 1.370 . S
C709 H721 0.931 . S
N710 C703 1.359 . S
N710 C711 1.327 . S
N710 Tb713 2.600 . S
C711 C709 1.392 . S
C711 N710 1.327 . S
C711 H718 0.930 . S
C712 C707 1.385 . S
C712 C709 1.370 . S
C712 H731 0.930 . S
Tb713 N710 2.600 . S
Tb713 N714 2.660 . S
Tb713 O747 2.362 . S
Tb713 O748 2.421 . S
Tb713 O752 2.546 . S
Tb713 O753 2.610 . S
Tb713 O755 2.320 . S
Tb713 O756 2.552 . S
Tb713 O757 2.413 . S
Tb713 C777 2.833 . S
N714 C706 1.360 . S
N714 Tb713 2.660 . S
N714 C715 1.305 . S
C715 N714 1.305 . S
C715 C717 1.407 . S
C715 H722 0.930 . S
C716 C704 1.410 . S
C716 C717 1.345 . S
C716 H724 0.930 . S
C717 C715 1.407 . S
C717 C716 1.345 . S
C717 H719 0.930 . S
H718 C711 0.930 . S
H719 C717 0.930 . S
H720 C708 0.930 . S
H721 C709 0.931 . S
H722 C715 0.930 . S
H723 C737 0.930 . S
H724 C716 0.930 . S
H725 C743 0.930 . S
H726 C734 0.930 . S
H727 C741 0.931 . S
H728 C705 0.929 . S
H729 C735 0.930 . S
H730 C768 0.930 . S
H731 C712 0.930 . S
H732 C767 0.929 . S
N733 Tb702 2.660 . S
N733 C734 1.305 . S
N733 C738 1.360 . S
C734 H726 0.930 . S
C734 N733 1.305 . S
C734 C737 1.407 . S
C735 H729 0.930 . S
C735 C736 1.410 . S
C735 C737 1.345 . S
C736 C735 1.410 . S
C736 C738 1.417 . S
C736 C768 1.432 . S
C737 H723 0.930 . S
C737 C734 1.407 . S
C737 C735 1.345 . S
C738 N733 1.360 . S
C738 C736 1.417 . S
C738 C742 1.432 . S
H739 C744 0.930 . S
N740 Tb702 2.600 . S
N740 C742 1.359 . S
N740 C743 1.327 . S
C741 H727 0.931 . S
C741 C743 1.392 . S
C741 C744 1.370 . S
C742 C738 1.432 . S
C742 N740 1.359 . S
C742 C745 1.414 . S
C743 H725 0.930 . S
C743 N740 1.327 . S
C743 C741 1.392 . S
C744 H739 0.930 . S
C744 C741 1.370 . S
C744 C745 1.385 . S
C745 C742 1.414 . S
C745 C744 1.385 . S
C745 C767 1.444 . S
O746 Tb702 2.546 . S
O746 C766 1.251 . S
O747 Tb702 2.610 . S
O747 Tb713 2.362 . S
O747 C758 1.283 . S
O748 Tb713 2.421 . S
O748 C765 1.262 . S
O749 Tb702 2.320 . S
O749 C765 1.260 . S
O750 Tb702 2.552 . S
O750 C758 1.243 . S
O751 Tb702 2.413 . S
O751 C766 1.256 . S
O752 Tb713 2.546 . S
O752 C777 1.251 . S
O753 Tb702 2.362 . S
O753 Tb713 2.610 . S
O753 C769 1.283 . S
O754 Tb702 2.421 . S
O754 C776 1.262 . S
O755 Tb713 2.320 . S
O755 C776 1.260 . S
O756 Tb713 2.552 . S
O756 C769 1.243 . S
O757 Tb713 2.413 . S
O757 C777 1.256 . S
C758 O747 1.283 . S
C758 O750 1.243 . S
C759 C761 1.382 . S
C759 C763 1.393 . S
C759 C766 1.500 . S
C760 C761 1.400 . S
C760 C762 1.384 . S
C761 C759 1.382 . S
C761 C760 1.400 . S
C761 H778 0.930 . S
C762 C760 1.384 . S
C762 C764 1.392 . S
C762 H779 0.931 . S
C763 C759 1.393 . S
C763 C764 1.401 . S
C763 H780 0.930 . S
C764 C762 1.392 . S
C764 C763 1.401 . S
C764 H781 0.930 . S
C765 O748 1.262 . S
C765 O749 1.260 . S
C766 Tb702 2.833 . S
C766 O746 1.251 . S
C766 O751 1.256 . S
C766 C759 1.500 . S
C767 H732 0.929 . S
C767 C745 1.444 . S
C767 C768 1.317 . S
C768 H730 0.930 . S
C768 C736 1.432 . S
C768 C767 1.317 . S
C769 O753 1.283 . S
C769 O756 1.243 . S
C770 C771 1.382 . S
C770 C774 1.393 . S
C770 C777 1.500 . S
C771 C770 1.382 . S
C771 C772 1.400 . S
C771 H782 0.930 . S
C772 C771 1.400 . S
C772 C773 1.384 . S
C773 C772 1.384 . S
C773 C775 1.392 . S
C773 H783 0.931 . S
C774 C770 1.393 . S
C774 C775 1.401 . S
C774 H784 0.930 . S
C775 C773 1.392 . S
C775 C774 1.401 . S
C775 H785 0.930 . S
C776 O754 1.262 . S
C776 O755 1.260 . S
C777 Tb713 2.833 . S
C777 O752 1.251 . S
C777 O757 1.256 . S
C777 C770 1.500 . S
H778 C761 0.930 . S
H779 C762 0.931 . S
H780 C763 0.930 . S
H781 C764 0.930 . S
H782 C771 0.930 . S
H783 C773 0.931 . S
H784 C774 0.930 . S
H785 C775 0.930 . S
Tb786 N817 2.660 . S
Tb786 N824 2.600 . S
Tb786 O830 2.546 . S
Tb786 O831 2.610 . S
Tb786 O833 2.320 . S
Tb786 O834 2.552 . S
Tb786 O835 2.413 . S
Tb786 O837 2.362 . S
Tb786 O838 2.421 . S
Tb786 C850 2.833 . S
C787 C790 1.432 . S
C787 C791 1.414 . S
C787 N794 1.359 . S
C788 C790 1.417 . S
C788 C792 1.432 . S
C788 C800 1.410 . S
C789 C791 1.444 . S
C789 C792 1.317 . S
C789 H812 0.929 . S
C790 C787 1.432 . S
C790 C788 1.417 . S
C790 N798 1.360 . S
C791 C787 1.414 . S
C791 C789 1.444 . S
C791 C796 1.385 . S
C792 C788 1.432 . S
C792 C789 1.317 . S
C792 H804 0.930 . S
C793 C795 1.392 . S
C793 C796 1.370 . S
C793 H805 0.931 . S
N794 C787 1.359 . S
N794 C795 1.327 . S
N794 Tb797 2.600 . S
C795 C793 1.392 . S
C795 N794 1.327 . S
C795 H802 0.930 . S
C796 C791 1.385 . S
C796 C793 1.370 . S
C796 H815 0.930 . S
Tb797 N794 2.600 . S
Tb797 N798 2.660 . S
Tb797 O831 2.362 . S
Tb797 O832 2.421 . S
Tb797 O836 2.546 . S
Tb797 O837 2.610 . S
Tb797 O839 2.320 . S
Tb797 O840 2.552 . S
Tb797 O841 2.413 . S
Tb797 C861 2.833 . S
N798 C790 1.360 . S
N798 Tb797 2.660 . S
N798 C799 1.305 . S
C799 N798 1.305 . S
C799 C801 1.407 . S
C799 H806 0.930 . S
C800 C788 1.410 . S
C800 C801 1.345 . S
C800 H808 0.930 . S
C801 C799 1.407 . S
C801 C800 1.345 . S
C801 H803 0.930 . S
H802 C795 0.930 . S
H803 C801 0.930 . S
H804 C792 0.930 . S
H805 C793 0.931 . S
H806 C799 0.930 . S
H807 C821 0.930 . S
H808 C800 0.930 . S
H809 C827 0.930 . S
H810 C818 0.930 . S
H811 C825 0.931 . S
H812 C789 0.929 . S
H813 C819 0.930 . S
H814 C852 0.930 . S
H815 C796 0.930 . S
H816 C851 0.929 . S
N817 Tb786 2.660 . S
N817 C818 1.305 . S
N817 C822 1.360 . S
C818 H810 0.930 . S
C818 N817 1.305 . S
C818 C821 1.407 . S
C819 H813 0.930 . S
C819 C820 1.410 . S
C819 C821 1.345 . S
C820 C819 1.410 . S
C820 C822 1.417 . S
C820 C852 1.432 . S
C821 H807 0.930 . S
C821 C818 1.407 . S
C821 C819 1.345 . S
C822 N817 1.360 . S
C822 C820 1.417 . S
C822 C826 1.432 . S
H823 C828 0.930 . S
N824 Tb786 2.600 . S
N824 C826 1.359 . S
N824 C827 1.327 . S
C825 H811 0.931 . S
C825 C827 1.392 . S
C825 C828 1.370 . S
C826 C822 1.432 . S
C826 N824 1.359 . S
C826 C829 1.414 . S
C827 H809 0.930 . S
C827 N824 1.327 . S
C827 C825 1.392 . S
C828 H823 0.930 . S
C828 C825 1.370 . S
C828 C829 1.385 . S
C829 C826 1.414 . S
C829 C828 1.385 . S
C829 C851 1.444 . S
O830 Tb786 2.546 . S
O830 C850 1.251 . S
O831 Tb786 2.610 . S
O831 Tb797 2.362 . S
O831 C842 1.283 . S
O832 Tb797 2.421 . S
O832 C849 1.262 . S
O833 Tb786 2.320 . S
O833 C849 1.260 . S
O834 Tb786 2.552 . S
O834 C842 1.243 . S
O835 Tb786 2.413 . S
O835 C850 1.256 . S
O836 Tb797 2.546 . S
O836 C861 1.251 . S
O837 Tb786 2.362 . S
O837 Tb797 2.610 . S
O837 C853 1.283 . S
O838 Tb786 2.421 . S
O838 C860 1.262 . S
O839 Tb797 2.320 . S
O839 C860 1.260 . S
O840 Tb797 2.552 . S
O840 C853 1.243 . S
O841 Tb797 2.413 . S
O841 C861 1.256 . S
C842 O831 1.283 . S
C842 O834 1.243 . S
C843 C845 1.382 . S
C843 C847 1.393 . S
C843 C850 1.500 . S
C844 C845 1.400 . S
C844 C846 1.384 . S
C845 C843 1.382 . S
C845 C844 1.400 . S
C845 H862 0.930 . S
C846 C844 1.384 . S
C846 C848 1.392 . S
C846 H863 0.931 . S
C847 C843 1.393 . S
C847 C848 1.401 . S
C847 H864 0.930 . S
C848 C846 1.392 . S
C848 C847 1.401 . S
C848 H865 0.930 . S
C849 O832 1.262 . S
C849 O833 1.260 . S
C850 Tb786 2.833 . S
C850 O830 1.251 . S
C850 O835 1.256 . S
C850 C843 1.500 . S
C851 H816 0.929 . S
C851 C829 1.444 . S
C851 C852 1.317 . S
C852 H814 0.930 . S
C852 C820 1.432 . S
C852 C851 1.317 . S
C853 O837 1.283 . S
C853 O840 1.243 . S
C854 C855 1.382 . S
C854 C858 1.393 . S
C854 C861 1.500 . S
C855 C854 1.382 . S
C855 C856 1.400 . S
C855 H866 0.930 . S
C856 C855 1.400 . S
C856 C857 1.384 . S
C857 C856 1.384 . S
C857 C859 1.392 . S
C857 H867 0.931 . S
C858 C854 1.393 . S
C858 C859 1.401 . S
C858 H868 0.930 . S
C859 C857 1.392 . S
C859 C858 1.401 . S
C859 H869 0.930 . S
C860 O838 1.262 . S
C860 O839 1.260 . S
C861 Tb797 2.833 . S
C861 O836 1.251 . S
C861 O841 1.256 . S
C861 C854 1.500 . S
H862 C845 0.930 . S
H863 C846 0.931 . S
H864 C847 0.930 . S
H865 C848 0.930 . S
H866 C855 0.930 . S
H867 C857 0.931 . S
H868 C858 0.930 . S
H869 C859 0.930 . S
Tb870 N901 2.660 . S
Tb870 N908 2.600 . S
Tb870 O914 2.546 . S
Tb870 O915 2.610 . S
Tb870 O917 2.320 . S
Tb870 O918 2.552 . S
Tb870 O919 2.413 . S
Tb870 O921 2.362 . S
Tb870 O922 2.421 . S
Tb870 C934 2.833 . S
C871 C874 1.432 . S
C871 C875 1.414 . S
C871 N878 1.359 . S
C872 C874 1.417 . S
C872 C876 1.432 . S
C872 C884 1.410 . S
C873 C875 1.444 . S
C873 C876 1.317 . S
C873 H896 0.929 . S
C874 C871 1.432 . S
C874 C872 1.417 . S
C874 N882 1.360 . S
C875 C871 1.414 . S
C875 C873 1.444 . S
C875 C880 1.385 . S
C876 C872 1.432 . S
C876 C873 1.317 . S
C876 H888 0.930 . S
C877 C879 1.392 . S
C877 C880 1.370 . S
C877 H889 0.931 . S
N878 C871 1.359 . S
N878 C879 1.327 . S
N878 Tb881 2.600 . S
C879 C877 1.392 . S
C879 N878 1.327 . S
C879 H886 0.930 . S
C880 C875 1.385 . S
C880 C877 1.370 . S
C880 H899 0.930 . S
Tb881 N878 2.600 . S
Tb881 N882 2.660 . S
Tb881 O915 2.362 . S
Tb881 O916 2.421 . S
Tb881 O920 2.546 . S
Tb881 O921 2.610 . S
Tb881 O923 2.320 . S
Tb881 O924 2.552 . S
Tb881 O925 2.413 . S
Tb881 C945 2.833 . S
N882 C874 1.360 . S
N882 Tb881 2.660 . S
N882 C883 1.305 . S
C883 N882 1.305 . S
C883 C885 1.407 . S
C883 H890 0.930 . S
C884 C872 1.410 . S
C884 C885 1.345 . S
C884 H892 0.930 . S
C885 C883 1.407 . S
C885 C884 1.345 . S
C885 H887 0.930 . S
H886 C879 0.930 . S
H887 C885 0.930 . S
H888 C876 0.930 . S
H889 C877 0.931 . S
H890 C883 0.930 . S
H891 C905 0.930 . S
H892 C884 0.930 . S
H893 C911 0.930 . S
H894 C902 0.930 . S
H895 C909 0.931 . S
H896 C873 0.929 . S
H897 C903 0.930 . S
H898 C936 0.930 . S
H899 C880 0.930 . S
H900 C935 0.929 . S
N901 Tb870 2.660 . S
N901 C902 1.305 . S
N901 C906 1.360 . S
C902 H894 0.930 . S
C902 N901 1.305 . S
C902 C905 1.407 1_655 S
C903 H897 0.930 . S
C903 C904 1.410 . S
C903 C905 1.345 . S
C904 C903 1.410 . S
C904 C906 1.417 1_455 S
C904 C936 1.432 . S
C905 H891 0.930 . S
C905 C902 1.407 1_455 S
C905 C903 1.345 . S
C906 N901 1.360 . S
C906 C904 1.417 1_655 S
C906 C910 1.432 . S
H907 C912 0.930 . S
N908 Tb870 2.600 . S
N908 C910 1.359 . S
N908 C911 1.327 . S
C909 H895 0.931 . S
C909 C911 1.392 . S
C909 C912 1.370 . S
C910 C906 1.432 . S
C910 N908 1.359 . S
C910 C913 1.414 . S
C911 H893 0.930 . S
C911 N908 1.327 . S
C911 C909 1.392 . S
C912 H907 0.930 . S
C912 C909 1.370 . S
C912 C913 1.385 . S
C913 C910 1.414 . S
C913 C912 1.385 . S
C913 C935 1.444 1_655 S
O914 Tb870 2.546 . S
O914 C934 1.251 . S
O915 Tb870 2.610 . S
O915 Tb881 2.362 . S
O915 C926 1.283 . S
O916 Tb881 2.421 . S
O916 C933 1.262 . S
O917 Tb870 2.320 . S
O917 C933 1.260 . S
O918 Tb870 2.552 . S
O918 C926 1.243 . S
O919 Tb870 2.413 . S
O919 C934 1.256 . S
O920 Tb881 2.546 . S
O920 C945 1.251 . S
O921 Tb870 2.362 . S
O921 Tb881 2.610 . S
O921 C937 1.283 . S
O922 Tb870 2.421 . S
O922 C944 1.262 . S
O923 Tb881 2.320 . S
O923 C944 1.260 . S
O924 Tb881 2.552 . S
O924 C937 1.243 . S
O925 Tb881 2.413 . S
O925 C945 1.256 . S
C926 O915 1.283 . S
C926 O918 1.243 . S
C927 C929 1.382 . S
C927 C931 1.393 . S
C927 C934 1.500 . S
C928 C929 1.400 . S
C928 C930 1.384 . S
C929 C927 1.382 . S
C929 C928 1.400 . S
C929 H946 0.930 . S
C930 C928 1.384 . S
C930 C932 1.392 . S
C930 H947 0.931 . S
C931 C927 1.393 . S
C931 C932 1.401 . S
C931 H948 0.930 . S
C932 C930 1.392 . S
C932 C931 1.401 . S
C932 H949 0.930 . S
C933 O916 1.262 . S
C933 O917 1.260 . S
C934 Tb870 2.833 . S
C934 O914 1.251 . S
C934 O919 1.256 . S
C934 C927 1.500 . S
C935 H900 0.929 . S
C935 C913 1.444 1_455 S
C935 C936 1.317 . S
C936 H898 0.930 . S
C936 C904 1.432 . S
C936 C935 1.317 . S
C937 O921 1.283 . S
C937 O924 1.243 . S
C938 C939 1.382 . S
C938 C942 1.393 . S
C938 C945 1.500 . S
C939 C938 1.382 . S
C939 C940 1.400 . S
C939 H950 0.930 . S
C940 C939 1.400 . S
C940 C941 1.384 . S
C941 C940 1.384 . S
C941 C943 1.392 . S
C941 H951 0.931 . S
C942 C938 1.393 . S
C942 C943 1.401 . S
C942 H952 0.930 . S
C943 C941 1.392 . S
C943 C942 1.401 . S
C943 H953 0.930 . S
C944 O922 1.262 . S
C944 O923 1.260 . S
C945 Tb881 2.833 . S
C945 O920 1.251 . S
C945 O925 1.256 . S
C945 C938 1.500 . S
H946 C929 0.930 . S
H947 C930 0.931 . S
H948 C931 0.930 . S
H949 C932 0.930 . S
H950 C939 0.930 . S
H951 C941 0.931 . S
H952 C942 0.930 . S
H953 C943 0.930 . S
C954 C955 1.387 . S
C954 H958 0.950 . S
C954 C963 1.390 . S
C955 C954 1.387 . S
C955 C957 1.387 . S
H956 C963 0.950 1_556 S
C957 C955 1.387 . S
C957 C959 1.390 . S
C957 H961 0.950 . S
H958 C954 0.950 . S
C959 C957 1.390 . S
C959 C960 1.387 . S
C959 H962 0.950 . S
C960 C959 1.387 . S
C960 C963 1.387 . S
H961 C957 0.950 . S
H962 C959 0.950 . S
C963 C954 1.390 . S
C963 H956 0.950 1_554 S
C963 C960 1.387 . S
C964 C965 1.387 . S
C964 H968 0.950 . S
C964 C973 1.390 . S
C965 C964 1.387 . S
C965 C967 1.387 . S
H966 C973 0.950 . S
C967 C965 1.387 . S
C967 C969 1.390 . S
C967 H971 0.950 . S
H968 C964 0.950 . S
C969 C967 1.390 . S
C969 C970 1.387 . S
C969 H972 0.950 . S
C970 C969 1.387 . S
C970 C973 1.387 . S
H971 C967 0.950 . S
H972 C969 0.950 . S
C973 C964 1.390 . S
C973 H966 0.950 . S
C973 C970 1.387 . S
C974 C975 1.387 . S
C974 H978 0.950 . S
C974 C983 1.390 . S
C975 C974 1.387 . S
C975 C977 1.387 . S
H976 C983 0.950 . S
C977 C975 1.387 . S
C977 C979 1.390 . S
C977 H981 0.950 . S
H978 C974 0.950 . S
C979 C977 1.390 . S
C979 C980 1.387 . S
C979 H982 0.950 . S
C980 C979 1.387 . S
C980 C983 1.387 . S
H981 C977 0.950 . S
H982 C979 0.950 . S
C983 C974 1.390 . S
C983 H976 0.950 . S
C983 C980 1.387 . S
C984 C985 1.387 . S
C984 H988 0.929 1_556 S
C984 C993 1.396 . S
C985 C984 1.387 . S
C985 C987 1.387 . S
H986 C993 0.933 1_554 S
C987 C985 1.387 . S
C987 C989 1.390 . S
C987 H991 0.950 . S
H988 C984 0.929 1_554 S
C989 C987 1.390 . S
C989 C990 1.387 . S
C989 H992 0.950 . S
C990 C989 1.387 . S
C990 C993 1.398 . S
H991 C987 0.950 . S
H992 C989 0.950 . S
C993 C984 1.396 . S
C993 H986 0.933 1_556 S
C993 C990 1.398 . S
C994 C995 1.387 . S
C994 H998 0.950 . S
C994 C1003 1.390 . S
C995 C994 1.387 . S
C995 C997 1.387 . S
H996 C1003 0.950 . S
C997 C995 1.387 . S
C997 C999 1.390 . S
C997 H1001 0.950 . S
H998 C994 0.950 . S
C999 C997 1.390 . S
C999 C1000 1.387 . S
C999 H1002 0.950 . S
C1000 C999 1.387 . S
C1000 C1003 1.387 . S
H1001 C997 0.950 . S
H1002 C999 0.950 . S
C1003 C994 1.390 . S
C1003 H996 0.950 . S
C1003 C1000 1.387 . S
C1004 C1005 1.387 . S
C1004 H1008 0.950 1_556 S
C1004 C1013 1.390 1_556 S
C1005 C1004 1.387 . S
C1005 C1007 1.387 . S
H1006 C1013 0.950 . S
C1007 C1005 1.387 . S
C1007 C1009 1.390 . S
C1007 H1011 0.950 . S
H1008 C1004 0.950 1_554 S
C1009 C1007 1.390 . S
C1009 C1010 1.387 . S
C1009 H1012 0.950 . S
C1010 C1009 1.387 . S
C1010 C1013 1.387 1_556 S
H1011 C1007 0.950 . S
H1012 C1009 0.950 . S
C1013 C1004 1.390 1_554 S
C1013 H1006 0.950 . S
C1013 C1010 1.387 1_554 S
C1014 C1015 1.387 . S
C1014 H1018 0.950 . S
C1014 C1023 1.390 . S
C1015 C1014 1.387 . S
C1015 C1017 1.387 . S
H1016 C1023 0.950 . S
C1017 C1015 1.387 . S
C1017 C1019 1.390 . S
C1017 H1021 0.950 . S
H1018 C1014 0.950 . S
C1019 C1017 1.390 . S
C1019 C1020 1.387 . S
C1019 H1022 0.950 . S
C1020 C1019 1.387 . S
C1020 C1023 1.387 . S
H1021 C1017 0.950 . S
H1022 C1019 0.950 . S
C1023 C1014 1.390 . S
C1023 H1016 0.950 . S
C1023 C1020 1.387 . S
C1024 C1025 1.387 . S
C1024 H1028 0.950 . S
C1024 C1033 1.390 . S
C1025 C1024 1.387 . S
C1025 C1027 1.387 . S
H1026 C1033 0.950 1_554 S
C1027 C1025 1.387 . S
C1027 C1029 1.390 . S
C1027 H1031 0.950 . S
H1028 C1024 0.950 . S
C1029 C1027 1.390 . S
C1029 C1030 1.387 . S
C1029 H1032 0.950 . S
C1030 C1029 1.387 . S
C1030 C1033 1.387 . S
H1031 C1027 0.950 . S
H1032 C1029 0.950 . S
C1033 C1024 1.390 . S
C1033 H1026 0.950 1_556 S
C1033 C1030 1.387 . S
C1034 C1035 1.387 . S
C1034 H1038 0.950 . S
C1034 C1043 1.390 . S
C1035 C1034 1.387 . S
C1035 C1037 1.387 . S
H1036 C1043 0.950 . S
C1037 C1035 1.387 . S
C1037 C1039 1.390 . S
C1037 H1041 0.950 . S
H1038 C1034 0.950 . S
C1039 C1037 1.390 . S
C1039 C1040 1.387 . S
C1039 H1042 0.950 1_556 S
C1040 C1039 1.387 . S
C1040 C1043 1.387 . S
H1041 C1037 0.950 . S
H1042 C1039 0.950 1_554 S
C1043 C1034 1.390 . S
C1043 H1036 0.950 . S
C1043 C1040 1.387 . S
C1044 C1045 1.387 . S
C1044 H1048 0.950 . S
C1044 C1053 1.390 . S
C1045 C1044 1.387 . S
C1045 C1047 1.387 . S
H1046 C1053 0.950 . S
C1047 C1045 1.387 . S
C1047 C1049 1.390 . S
C1047 H1051 0.950 . S
H1048 C1044 0.950 . S
C1049 C1047 1.390 . S
C1049 C1050 1.387 . S
C1049 H1052 0.950 . S
C1050 C1049 1.387 . S
C1050 C1053 1.387 . S
H1051 C1047 0.950 . S
H1052 C1049 0.950 . S
C1053 C1044 1.390 . S
C1053 H1046 0.950 . S
C1053 C1050 1.387 . S
C1054 C1055 1.387 . S
C1054 H1058 0.950 . S
C1054 C1063 1.390 . S
C1055 C1054 1.387 . S
C1055 C1057 1.387 . S
H1056 C1063 0.950 . S
C1057 C1055 1.387 . S
C1057 C1059 1.390 . S
C1057 H1061 0.950 . S
H1058 C1054 0.950 . S
C1059 C1057 1.390 . S
C1059 C1060 1.387 . S
C1059 H1062 0.950 . S
C1060 C1059 1.387 . S
C1060 C1063 1.387 . S
H1061 C1057 0.950 . S
H1062 C1059 0.950 . S
C1063 C1054 1.390 . S
C1063 H1056 0.950 . S
C1063 C1060 1.387 . S
C1064 C1065 1.387 . S
C1064 H1068 0.950 . S
C1064 C1073 1.390 . S
C1065 C1064 1.387 . S
C1065 C1067 1.387 . S
H1066 C1073 0.950 . S
C1067 C1065 1.387 . S
C1067 C1069 1.390 . S
C1067 H1071 0.950 . S
H1068 C1064 0.950 . S
C1069 C1067 1.390 . S
C1069 C1070 1.387 . S
C1069 H1072 0.950 . S
C1070 C1069 1.387 . S
C1070 C1073 1.387 . S
H1071 C1067 0.950 . S
H1072 C1069 0.950 . S
C1073 C1064 1.390 . S
C1073 H1066 0.950 . S
C1073 C1070 1.387 . S
C1074 C1075 1.387 . S
C1074 H1078 0.950 . S
C1074 C1083 1.390 1_655 S
C1075 C1074 1.387 . S
C1075 C1077 1.387 . S
H1076 C1083 0.950 . S
C1077 C1075 1.387 . S
C1077 C1079 1.390 1_655 S
C1077 H1081 0.950 . S
H1078 C1074 0.950 . S
C1079 C1077 1.390 1_455 S
C1079 C1080 1.387 . S
C1079 H1082 0.950 . S
C1080 C1079 1.387 . S
C1080 C1083 1.387 . S
H1081 C1077 0.950 . S
H1082 C1079 0.950 . S
C1083 C1074 1.390 1_455 S
C1083 H1076 0.950 . S
C1083 C1080 1.387 . S
C1084 C1085 1.387 . S
C1084 H1088 0.950 . S
C1084 C1093 1.390 . S
C1085 C1084 1.387 . S
C1085 C1087 1.387 . S
H1086 C1093 0.950 . S
C1087 C1085 1.387 . S
C1087 C1089 1.390 . S
C1087 H1091 0.950 . S
H1088 C1084 0.950 . S
C1089 C1087 1.390 . S
C1089 C1090 1.387 . S
C1089 H1092 0.950 . S
C1090 C1089 1.387 . S
C1090 C1093 1.387 . S
H1091 C1087 0.950 . S
H1092 C1089 0.950 . S
C1093 C1084 1.390 . S
C1093 H1086 0.950 . S
C1093 C1090 1.387 . S
C1094 C1095 1.387 . S
C1094 H1098 0.950 . S
C1094 C1103 1.390 1_545 S
C1095 C1094 1.387 . S
C1095 C1097 1.387 . S
H1096 C1103 0.950 . S
C1097 C1095 1.387 . S
C1097 C1099 1.390 1_545 S
C1097 H1101 0.950 . S
H1098 C1094 0.950 . S
C1099 C1097 1.390 1_565 S
C1099 C1100 1.387 . S
C1099 H1102 0.950 . S
C1100 C1099 1.387 . S
C1100 C1103 1.387 . S
H1101 C1097 0.950 . S
H1102 C1099 0.950 . S
C1103 C1094 1.390 1_565 S
C1103 H1096 0.950 . S
C1103 C1100 1.387 . S
C1104 C1105 1.387 . S
C1104 H1108 0.950 . S
C1104 C1113 1.390 . S
C1105 C1104 1.387 . S
C1105 C1107 1.387 . S
H1106 C1113 0.950 . S
C1107 C1105 1.387 . S
C1107 C1109 1.390 . S
C1107 H1111 0.950 . S
H1108 C1104 0.950 . S
C1109 C1107 1.390 . S
C1109 C1110 1.387 . S
C1109 H1112 0.950 . S
C1110 C1109 1.387 . S
C1110 C1113 1.387 . S
H1111 C1107 0.950 . S
H1112 C1109 0.950 . S
C1113 C1104 1.390 . S
C1113 H1106 0.950 . S
C1113 C1110 1.387 . S
C1114 C1115 1.387 . S
C1114 H1118 0.950 . S
C1114 C1123 1.390 . S
C1115 C1114 1.387 . S
C1115 C1117 1.387 . S
H1116 C1123 0.950 . S
C1117 C1115 1.387 . S
C1117 C1119 1.390 . S
C1117 H1121 0.950 . S
H1118 C1114 0.950 . S
C1119 C1117 1.390 . S
C1119 C1120 1.387 . S
C1119 H1122 0.950 . S
C1120 C1119 1.387 . S
C1120 C1123 1.387 . S
H1121 C1117 0.950 . S
H1122 C1119 0.950 . S
C1123 C1114 1.390 . S
C1123 H1116 0.950 . S
C1123 C1120 1.387 . S
C1124 C1125 1.387 . S
C1124 H1128 0.950 . S
C1124 C1133 1.390 . S
C1125 C1124 1.387 . S
C1125 C1127 1.387 . S
H1126 C1133 0.950 . S
C1127 C1125 1.387 . S
C1127 C1129 1.390 . S
C1127 H1131 0.950 . S
H1128 C1124 0.950 . S
C1129 C1127 1.390 . S
C1129 C1130 1.387 . S
C1129 H1132 0.950 . S
C1130 C1129 1.387 . S
C1130 C1133 1.387 . S
H1131 C1127 0.950 . S
H1132 C1129 0.950 . S
C1133 C1124 1.390 . S
C1133 H1126 0.950 . S
C1133 C1130 1.387 . S
C1134 C1135 1.387 . S
C1134 H1138 0.950 . S
C1134 C1143 1.390 . S
C1135 C1134 1.387 . S
C1135 C1137 1.387 . S
H1136 C1143 0.950 . S
C1137 C1135 1.387 . S
C1137 C1139 1.390 . S
C1137 H1141 0.950 . S
H1138 C1134 0.950 . S
C1139 C1137 1.390 . S
C1139 C1140 1.387 . S
C1139 H1142 0.950 . S
C1140 C1139 1.387 . S
C1140 C1143 1.387 . S
H1141 C1137 0.950 . S
H1142 C1139 0.950 . S
C1143 C1134 1.390 . S
C1143 H1136 0.950 . S
C1143 C1140 1.387 . S
C1144 C1145 1.387 . S
C1144 H1148 0.950 . S
C1144 C1153 1.390 . S
C1145 C1144 1.387 . S
C1145 C1147 1.387 . S
H1146 C1153 0.950 . S
C1147 C1145 1.387 . S
C1147 C1149 1.390 . S
C1147 H1151 0.950 . S
H1148 C1144 0.950 . S
C1149 C1147 1.390 . S
C1149 C1150 1.387 . S
C1149 H1152 0.950 . S
C1150 C1149 1.387 . S
C1150 C1153 1.387 . S
H1151 C1147 0.950 . S
H1152 C1149 0.950 . S
C1153 C1144 1.390 . S
C1153 H1146 0.950 . S
C1153 C1150 1.387 . S
C1154 C1155 1.387 . S
C1154 H1158 0.950 . S
C1154 C1163 1.390 . S
C1155 C1154 1.387 . S
C1155 C1157 1.387 . S
H1156 C1163 0.950 . S
C1157 C1155 1.387 . S
C1157 C1159 1.390 . S
C1157 H1161 0.950 . S
H1158 C1154 0.950 . S
C1159 C1157 1.390 . S
C1159 C1160 1.387 . S
C1159 H1162 0.950 . S
C1160 C1159 1.387 . S
C1160 C1163 1.387 . S
H1161 C1157 0.950 . S
H1162 C1159 0.950 . S
C1163 C1154 1.390 . S
C1163 H1156 0.950 . S
C1163 C1160 1.387 . S
C1164 C1165 1.387 . S
C1164 H1168 0.950 . S
C1164 C1173 1.390 . S
C1165 C1164 1.387 . S
C1165 C1167 1.387 . S
H1166 C1173 0.950 . S
C1167 C1165 1.387 . S
C1167 C1169 1.390 . S
C1167 H1171 0.950 . S
H1168 C1164 0.950 . S
C1169 C1167 1.390 . S
C1169 C1170 1.387 . S
C1169 H1172 0.950 . S
C1170 C1169 1.387 . S
C1170 C1173 1.387 . S
H1171 C1167 0.950 . S
H1172 C1169 0.950 . S
C1173 C1164 1.390 . S
C1173 H1166 0.950 . S
C1173 C1170 1.387 . S
C1174 C1175 1.387 . S
C1174 H1178 0.950 . S
C1174 C1183 1.390 . S
C1175 C1174 1.387 . S
C1175 C1177 1.387 . S
H1176 C1183 0.950 . S
C1177 C1175 1.387 . S
C1177 C1179 1.390 . S
C1177 H1181 0.950 . S
H1178 C1174 0.950 . S
C1179 C1177 1.390 . S
C1179 C1180 1.387 . S
C1179 H1182 0.950 . S
C1180 C1179 1.387 . S
C1180 C1183 1.387 . S
H1181 C1177 0.950 . S
H1182 C1179 0.950 . S
C1183 C1174 1.390 . S
C1183 H1176 0.950 . S
C1183 C1180 1.387 . S
C1184 C1185 1.387 . S
C1184 H1188 0.950 . S
C1184 C1193 1.390 . S
C1185 C1184 1.387 . S
C1185 C1187 1.387 . S
H1186 C1193 0.950 . S
C1187 C1185 1.387 . S
C1187 C1189 1.390 . S
C1187 H1191 0.950 . S
H1188 C1184 0.950 . S
C1189 C1187 1.390 . S
C1189 C1190 1.387 . S
C1189 H1192 0.950 . S
C1190 C1189 1.387 . S
C1190 C1193 1.387 . S
H1191 C1187 0.950 . S
H1192 C1189 0.950 . S
C1193 C1184 1.390 . S
C1193 H1186 0.950 . S
C1193 C1190 1.387 . S
C1194 C1195 1.387 . S
C1194 H1198 0.950 . S
C1194 C1203 1.390 . S
C1195 C1194 1.387 . S
C1195 C1197 1.387 . S
H1196 C1203 0.950 . S
C1197 C1195 1.387 . S
C1197 C1199 1.390 . S
C1197 H1201 0.950 . S
H1198 C1194 0.950 . S
C1199 C1197 1.390 . S
C1199 C1200 1.387 . S
C1199 H1202 0.950 . S
C1200 C1199 1.387 . S
C1200 C1203 1.387 . S
H1201 C1197 0.950 . S
H1202 C1199 0.950 . S
C1203 C1194 1.390 . S
C1203 H1196 0.950 . S
C1203 C1200 1.387 . S
C1204 C1205 1.387 . S
C1204 H1208 0.950 . S
C1204 C1213 1.390 . S
C1205 C1204 1.387 . S
C1205 C1207 1.387 . S
H1206 C1213 0.950 . S
C1207 C1205 1.387 . S
C1207 C1209 1.390 . S
C1207 H1211 0.950 . S
H1208 C1204 0.950 . S
C1209 C1207 1.390 . S
C1209 C1210 1.387 . S
C1209 H1212 0.950 . S
C1210 C1209 1.387 . S
C1210 C1213 1.387 . S
H1211 C1207 0.950 . S
H1212 C1209 0.950 . S
C1213 C1204 1.390 . S
C1213 H1206 0.950 . S
C1213 C1210 1.387 . S
C1214 C1215 1.387 . S
C1214 H1218 0.950 . S
C1214 C1223 1.390 . S
C1215 C1214 1.387 . S
C1215 C1217 1.387 . S
H1216 C1223 0.950 . S
C1217 C1215 1.387 . S
C1217 C1219 1.390 . S
C1217 H1221 0.950 . S
H1218 C1214 0.950 . S
C1219 C1217 1.390 . S
C1219 C1220 1.387 . S
C1219 H1222 0.950 . S
C1220 C1219 1.387 . S
C1220 C1223 1.387 . S
H1221 C1217 0.950 . S
H1222 C1219 0.950 . S
C1223 C1214 1.390 . S
C1223 H1216 0.950 . S
C1223 C1220 1.387 . S
C1224 C1225 1.387 . S
C1224 H1228 0.950 . S
C1224 C1233 1.390 1_565 S
C1225 C1224 1.387 . S
C1225 C1227 1.387 . S
H1226 C1233 0.950 . S
C1227 C1225 1.387 . S
C1227 C1229 1.390 1_565 S
C1227 H1231 0.950 . S
H1228 C1224 0.950 . S
C1229 C1227 1.390 1_545 S
C1229 C1230 1.387 . S
C1229 H1232 0.950 . S
C1230 C1229 1.387 . S
C1230 C1233 1.387 . S
H1231 C1227 0.950 . S
H1232 C1229 0.950 . S
C1233 C1224 1.390 1_545 S
C1233 H1226 0.950 . S
C1233 C1230 1.387 . S
C1234 C1235 1.372 1_655 S
C1234 H1238 0.934 . S
C1234 C1243 1.423 . S
C1235 C1234 1.372 1_455 S
C1235 C1237 1.387 . S
H1236 C1243 0.950 . S
C1237 C1235 1.387 . S
C1237 C1239 1.390 . S
C1237 H1241 0.950 . S
H1238 C1234 0.934 . S
C1239 C1237 1.390 . S
C1239 C1240 1.387 1_455 S
C1239 H1242 0.950 . S
C1240 C1239 1.387 1_655 S
C1240 C1243 1.387 . S
H1241 C1237 0.950 . S
H1242 C1239 0.950 . S
C1243 C1234 1.423 . S
C1243 H1236 0.950 . S
C1243 C1240 1.387 . S
C1244 C1245 1.387 . S
C1244 H1248 0.950 . S
C1244 C1253 1.390 . S
C1245 C1244 1.387 . S
C1245 C1247 1.387 . S
H1246 C1253 0.950 . S
C1247 C1245 1.387 . S
C1247 C1249 1.390 . S
C1247 H1251 0.950 . S
H1248 C1244 0.950 . S
C1249 C1247 1.390 . S
C1249 C1250 1.387 . S
C1249 H1252 0.950 . S
C1250 C1249 1.387 . S
C1250 C1253 1.387 . S
H1251 C1247 0.950 . S
H1252 C1249 0.950 . S
C1253 C1244 1.390 . S
C1253 H1246 0.950 . S
C1253 C1250 1.387 . S
C1254 C1255 1.387 . S
C1254 H1258 0.950 . S
C1254 C1263 1.390 . S
C1255 C1254 1.387 . S
C1255 C1257 1.387 . S
H1256 C1263 0.950 . S
C1257 C1255 1.387 . S
C1257 C1259 1.390 . S
C1257 H1261 0.950 . S
H1258 C1254 0.950 . S
C1259 C1257 1.390 . S
C1259 C1260 1.387 . S
C1259 H1262 0.950 . S
C1260 C1259 1.387 . S
C1260 C1263 1.387 . S
H1261 C1257 0.950 . S
H1262 C1259 0.950 . S
C1263 C1254 1.390 . S
C1263 H1256 0.950 . S
C1263 C1260 1.387 . S
C1264 C1265 1.387 . S
C1264 H1268 0.950 . S
C1264 C1273 1.390 . S
C1265 C1264 1.387 . S
C1265 C1267 1.387 . S
H1266 C1273 0.950 . S
C1267 C1265 1.387 . S
C1267 C1269 1.390 . S
C1267 H1271 0.950 . S
H1268 C1264 0.950 . S
C1269 C1267 1.390 . S
C1269 C1270 1.387 . S
C1269 H1272 0.950 . S
C1270 C1269 1.387 . S
C1270 C1273 1.387 . S
H1271 C1267 0.950 . S
H1272 C1269 0.950 . S
C1273 C1264 1.390 . S
C1273 H1266 0.950 . S
C1273 C1270 1.387 . S
C1274 C1275 1.387 . S
C1274 H1278 0.950 . S
C1274 C1283 1.390 . S
C1275 C1274 1.387 . S
C1275 C1277 1.387 . S
H1276 C1283 0.950 . S
C1277 C1275 1.387 . S
C1277 C1279 1.390 . S
C1277 H1281 0.950 . S
H1278 C1274 0.950 . S
C1279 C1277 1.390 . S
C1279 C1280 1.387 . S
C1279 H1282 0.950 . S
C1280 C1279 1.387 . S
C1280 C1283 1.387 . S
H1281 C1277 0.950 . S
H1282 C1279 0.950 . S
C1283 C1274 1.390 . S
C1283 H1276 0.950 . S
C1283 C1280 1.387 . S
C1284 C1285 1.387 . S
C1284 H1288 0.950 . S
C1284 C1293 1.390 . S
C1285 C1284 1.387 . S
C1285 C1287 1.387 . S
H1286 C1293 0.950 . S
C1287 C1285 1.387 . S
C1287 C1289 1.390 . S
C1287 H1291 0.950 . S
H1288 C1284 0.950 . S
C1289 C1287 1.390 . S
C1289 C1290 1.387 . S
C1289 H1292 0.950 . S
C1290 C1289 1.387 . S
C1290 C1293 1.387 . S
H1291 C1287 0.950 . S
H1292 C1289 0.950 . S
C1293 C1284 1.390 . S
C1293 H1286 0.950 . S
C1293 C1290 1.387 . S
C1294 C1295 1.387 . S
C1294 H1298 0.950 . S
C1294 C1303 1.390 . S
C1295 C1294 1.387 . S
C1295 C1297 1.387 . S
H1296 C1303 0.950 . S
C1297 C1295 1.387 . S
C1297 C1299 1.390 . S
C1297 H1301 0.950 . S
H1298 C1294 0.950 . S
C1299 C1297 1.390 . S
C1299 C1300 1.387 . S
C1299 H1302 0.950 . S
C1300 C1299 1.387 . S
C1300 C1303 1.387 . S
H1301 C1297 0.950 . S
H1302 C1299 0.950 . S
C1303 C1294 1.390 . S
C1303 H1296 0.950 . S
C1303 C1300 1.387 . S
C1304 C1305 1.387 . S
C1304 H1308 0.950 . S
C1304 C1313 1.390 . S
C1305 C1304 1.387 . S
C1305 C1307 1.387 . S
H1306 C1313 0.950 . S
C1307 C1305 1.387 . S
C1307 C1309 1.390 . S
C1307 H1311 0.950 . S
H1308 C1304 0.950 . S
C1309 C1307 1.390 . S
C1309 C1310 1.387 . S
C1309 H1312 0.950 . S
C1310 C1309 1.387 . S
C1310 C1313 1.387 . S
H1311 C1307 0.950 . S
H1312 C1309 0.950 . S
C1313 C1304 1.390 . S
C1313 H1306 0.950 . S
C1313 C1310 1.387 . S
C1314 C1315 1.387 . S
C1314 H1318 0.950 . S
C1314 C1323 1.390 . S
C1315 C1314 1.387 . S
C1315 C1317 1.387 . S
H1316 C1323 0.950 . S
C1317 C1315 1.387 . S
C1317 C1319 1.390 . S
C1317 H1321 0.950 . S
H1318 C1314 0.950 . S
C1319 C1317 1.390 . S
C1319 C1320 1.387 . S
C1319 H1322 0.950 . S
C1320 C1319 1.387 . S
C1320 C1323 1.387 . S
H1321 C1317 0.950 . S
H1322 C1319 0.950 . S
C1323 C1314 1.390 . S
C1323 H1316 0.950 . S
C1323 C1320 1.387 . S
C1324 C1325 1.387 . S
C1324 H1328 0.950 . S
C1324 C1333 1.390 . S
C1325 C1324 1.387 . S
C1325 C1327 1.387 . S
H1326 C1333 0.950 . S
C1327 C1325 1.387 . S
C1327 C1329 1.390 . S
C1327 H1331 0.950 . S
H1328 C1324 0.950 . S
C1329 C1327 1.390 . S
C1329 C1330 1.387 . S
C1329 H1332 0.950 . S
C1330 C1329 1.387 . S
C1330 C1333 1.387 . S
H1331 C1327 0.950 . S
H1332 C1329 0.950 . S
C1333 C1324 1.390 . S
C1333 H1326 0.950 . S
C1333 C1330 1.387 . S
C1334 C1335 1.387 . S
C1334 H1338 0.950 . S
C1334 C1343 1.390 . S
C1335 C1334 1.387 . S
C1335 C1337 1.387 . S
H1336 C1343 0.950 . S
C1337 C1335 1.387 . S
C1337 C1339 1.390 . S
C1337 H1341 0.950 . S
H1338 C1334 0.950 . S
C1339 C1337 1.390 . S
C1339 C1340 1.387 . S
C1339 H1342 0.950 . S
C1340 C1339 1.387 . S
C1340 C1343 1.387 . S
H1341 C1337 0.950 . S
H1342 C1339 0.950 . S
C1343 C1334 1.390 . S
C1343 H1336 0.950 . S
C1343 C1340 1.387 . S
C1344 C1345 1.387 . S
C1344 H1348 0.950 . S
C1344 C1353 1.390 . S
C1345 C1344 1.387 . S
C1345 C1347 1.387 . S
H1346 C1353 0.950 . S
C1347 C1345 1.387 . S
C1347 C1349 1.390 . S
C1347 H1351 0.950 . S
H1348 C1344 0.950 . S
C1349 C1347 1.390 . S
C1349 C1350 1.387 . S
C1349 H1352 0.950 . S
C1350 C1349 1.387 . S
C1350 C1353 1.387 . S
H1351 C1347 0.950 . S
H1352 C1349 0.950 . S
C1353 C1344 1.390 . S
C1353 H1346 0.950 . S
C1353 C1350 1.387 . S
C1354 C1355 1.387 . S
C1354 H1358 0.950 . S
C1354 C1363 1.390 . S
C1355 C1354 1.387 . S
C1355 C1357 1.387 . S
H1356 C1363 0.950 . S
C1357 C1355 1.387 . S
C1357 C1359 1.390 . S
C1357 H1361 0.950 . S
H1358 C1354 0.950 . S
C1359 C1357 1.390 . S
C1359 C1360 1.387 . S
C1359 H1362 0.950 . S
C1360 C1359 1.387 . S
C1360 C1363 1.387 . S
H1361 C1357 0.950 . S
H1362 C1359 0.950 . S
C1363 C1354 1.390 . S
C1363 H1356 0.950 . S
C1363 C1360 1.387 . S
C1364 C1365 1.387 . S
C1364 H1368 0.950 . S
C1364 C1373 1.390 . S
C1365 C1364 1.387 . S
C1365 C1367 1.387 . S
H1366 C1373 0.950 . S
C1367 C1365 1.387 . S
C1367 C1369 1.390 . S
C1367 H1371 0.950 . S
H1368 C1364 0.950 . S
C1369 C1367 1.390 . S
C1369 C1370 1.387 . S
C1369 H1372 0.950 . S
C1370 C1369 1.387 . S
C1370 C1373 1.387 . S
H1371 C1367 0.950 . S
H1372 C1369 0.950 . S
C1373 C1364 1.390 . S
C1373 H1366 0.950 . S
C1373 C1370 1.387 . S
C1374 C1375 1.387 . S
C1374 H1378 0.950 . S
C1374 C1383 1.390 . S
C1375 C1374 1.387 . S
C1375 C1377 1.387 . S
H1376 C1383 0.950 . S
C1377 C1375 1.387 . S
C1377 C1379 1.390 . S
C1377 H1381 0.950 . S
H1378 C1374 0.950 . S
C1379 C1377 1.390 . S
C1379 C1380 1.387 . S
C1379 H1382 0.950 . S
C1380 C1379 1.387 . S
C1380 C1383 1.387 . S
H1381 C1377 0.950 . S
H1382 C1379 0.950 . S
C1383 C1374 1.390 . S
C1383 H1376 0.950 . S
C1383 C1380 1.387 . S
C1384 C1385 1.387 . S
C1384 H1388 0.950 . S
C1384 C1393 1.390 . S
C1385 C1384 1.387 . S
C1385 C1387 1.387 . S
H1386 C1393 0.950 . S
C1387 C1385 1.387 . S
C1387 C1389 1.390 . S
C1387 H1391 0.950 . S
H1388 C1384 0.950 . S
C1389 C1387 1.390 . S
C1389 C1390 1.387 . S
C1389 H1392 0.950 . S
C1390 C1389 1.387 . S
C1390 C1393 1.387 . S
H1391 C1387 0.950 . S
H1392 C1389 0.950 . S
C1393 C1384 1.390 . S
C1393 H1386 0.950 . S
C1393 C1390 1.387 . S
C1394 C1395 1.387 . S
C1394 H1398 0.950 . S
C1394 C1403 1.390 . S
C1395 C1394 1.387 . S
C1395 C1397 1.387 . S
H1396 C1403 0.950 . S
C1397 C1395 1.387 . S
C1397 C1399 1.390 . S
C1397 H1401 0.950 . S
H1398 C1394 0.950 . S
C1399 C1397 1.390 . S
C1399 C1400 1.387 . S
C1399 H1402 0.950 . S
C1400 C1399 1.387 . S
C1400 C1403 1.387 . S
H1401 C1397 0.950 . S
H1402 C1399 0.950 . S
C1403 C1394 1.390 . S
C1403 H1396 0.950 . S
C1403 C1400 1.387 . S
C1404 C1405 1.387 . S
C1404 H1408 0.950 . S
C1404 C1413 1.390 . S
C1405 C1404 1.387 . S
C1405 C1407 1.387 . S
H1406 C1413 0.950 . S
C1407 C1405 1.387 . S
C1407 C1409 1.390 . S
C1407 H1411 0.950 . S
H1408 C1404 0.950 . S
C1409 C1407 1.390 . S
C1409 C1410 1.387 . S
C1409 H1412 0.950 . S
C1410 C1409 1.387 . S
C1410 C1413 1.387 . S
H1411 C1407 0.950 . S
H1412 C1409 0.950 . S
C1413 C1404 1.390 . S
C1413 H1406 0.950 . S
C1413 C1410 1.387 . S
C1414 C1415 1.387 . S
C1414 H1418 0.950 . S
C1414 C1423 1.390 . S
C1415 C1414 1.387 . S
C1415 C1417 1.387 . S
H1416 C1423 0.950 . S
C1417 C1415 1.387 . S
C1417 C1419 1.390 . S
C1417 H1421 0.950 . S
H1418 C1414 0.950 . S
C1419 C1417 1.390 . S
C1419 C1420 1.387 . S
C1419 H1422 0.950 . S
C1420 C1419 1.387 . S
C1420 C1423 1.387 . S
H1421 C1417 0.950 . S
H1422 C1419 0.950 . S
C1423 C1414 1.390 . S
C1423 H1416 0.950 . S
C1423 C1420 1.387 . S
C1424 C1425 1.387 . S
C1424 H1428 0.950 . S
C1424 C1433 1.390 . S
C1425 C1424 1.387 . S
C1425 C1427 1.387 . S
H1426 C1433 0.950 . S
C1427 C1425 1.387 . S
C1427 C1429 1.390 . S
C1427 H1431 0.950 . S
H1428 C1424 0.950 . S
C1429 C1427 1.390 . S
C1429 C1430 1.387 . S
C1429 H1432 0.950 . S
C1430 C1429 1.387 . S
C1430 C1433 1.387 . S
H1431 C1427 0.950 . S
H1432 C1429 0.950 . S
C1433 C1424 1.390 . S
C1433 H1426 0.950 . S
C1433 C1430 1.387 . S
C1434 C1435 1.387 . S
C1434 H1438 0.950 . S
C1434 C1443 1.390 . S
C1435 C1434 1.387 . S
C1435 C1437 1.387 . S
H1436 C1443 0.950 . S
C1437 C1435 1.387 . S
C1437 C1439 1.390 . S
C1437 H1441 0.950 . S
H1438 C1434 0.950 . S
C1439 C1437 1.390 . S
C1439 C1440 1.387 . S
C1439 H1442 0.950 . S
C1440 C1439 1.387 . S
C1440 C1443 1.387 . S
H1441 C1437 0.950 . S
H1442 C1439 0.950 . S
C1443 C1434 1.390 . S
C1443 H1436 0.950 . S
C1443 C1440 1.387 . S
C1444 C1445 1.387 . S
C1444 H1448 0.950 . S
C1444 C1453 1.390 . S
C1445 C1444 1.387 . S
C1445 C1447 1.387 . S
H1446 C1453 0.950 . S
C1447 C1445 1.387 . S
C1447 C1449 1.390 . S
C1447 H1451 0.950 . S
H1448 C1444 0.950 . S
C1449 C1447 1.390 . S
C1449 C1450 1.387 . S
C1449 H1452 0.950 . S
C1450 C1449 1.387 . S
C1450 C1453 1.387 . S
H1451 C1447 0.950 . S
H1452 C1449 0.950 . S
C1453 C1444 1.390 . S
C1453 H1446 0.950 . S
C1453 C1450 1.387 . S
C1454 C1455 1.387 . S
C1454 H1458 0.950 . S
C1454 C1463 1.390 . S
C1455 C1454 1.387 . S
C1455 C1457 1.387 . S
H1456 C1463 0.950 . S
C1457 C1455 1.387 . S
C1457 C1459 1.390 . S
C1457 H1461 0.950 . S
H1458 C1454 0.950 . S
C1459 C1457 1.390 . S
C1459 C1460 1.387 . S
C1459 H1462 0.950 . S
C1460 C1459 1.387 . S
C1460 C1463 1.387 . S
H1461 C1457 0.950 . S
H1462 C1459 0.950 . S
C1463 C1454 1.390 . S
C1463 H1456 0.950 . S
C1463 C1460 1.387 . S
C1464 C1465 1.387 . S
C1464 H1468 0.950 . S
C1464 C1473 1.390 . S
C1465 C1464 1.387 . S
C1465 C1467 1.387 . S
H1466 C1473 0.950 . S
C1467 C1465 1.387 . S
C1467 C1469 1.390 . S
C1467 H1471 0.950 . S
H1468 C1464 0.950 . S
C1469 C1467 1.390 . S
C1469 C1470 1.387 . S
C1469 H1472 0.950 . S
C1470 C1469 1.387 . S
C1470 C1473 1.387 . S
H1471 C1467 0.950 . S
H1472 C1469 0.950 . S
C1473 C1464 1.390 . S
C1473 H1466 0.950 . S
C1473 C1470 1.387 . S
C1474 C1475 1.387 . S
C1474 H1478 0.950 . S
C1474 C1483 1.390 . S
C1475 C1474 1.387 . S
C1475 C1477 1.387 . S
H1476 C1483 0.950 . S
C1477 C1475 1.387 . S
C1477 C1479 1.390 . S
C1477 H1481 0.950 . S
H1478 C1474 0.950 . S
C1479 C1477 1.390 . S
C1479 C1480 1.387 . S
C1479 H1482 0.950 . S
C1480 C1479 1.387 . S
C1480 C1483 1.387 . S
H1481 C1477 0.950 . S
H1482 C1479 0.950 . S
C1483 C1474 1.390 . S
C1483 H1476 0.950 . S
C1483 C1480 1.387 . S
C1484 C1485 1.387 . S
C1484 H1488 0.950 . S
C1484 C1493 1.390 . S
C1485 C1484 1.387 . S
C1485 C1487 1.387 . S
H1486 C1493 0.950 . S
C1487 C1485 1.387 . S
C1487 C1489 1.390 . S
C1487 H1491 0.950 . S
H1488 C1484 0.950 . S
C1489 C1487 1.390 . S
C1489 C1490 1.387 . S
C1489 H1492 0.950 . S
C1490 C1489 1.387 . S
C1490 C1493 1.387 . S
H1491 C1487 0.950 . S
H1492 C1489 0.950 . S
C1493 C1484 1.390 . S
C1493 H1486 0.950 . S
C1493 C1490 1.387 . S
C955 C147 1.474 . S
C960 C265 1.417 . S
C965 C158 1.499 . S
C970 C349 1.448 . S
C975 C136 1.469 . S
C980 C429 1.469 . S
C985 C125 1.459 . S
C990 C345 1.461 . S
C1000 C433 1.404 . S
C995 C103 1.466 . S
C1005 C114 1.438 . S
C1010 C261 1.435 . S
C1020 C254 1.458 . S
C1015 C131 1.515 . S
C1030 C338 1.484 . S
C1025 C109 1.534 . S
C1035 C120 1.529 . S
C1040 C440 1.482 . S
C1045 C153 1.505 . S
C1050 C356 1.459 . S
C1055 C164 1.493 . S
C1060 C422 1.437 . S
C1070 C272 1.440 . S
C1065 C142 1.487 . S
C1080 C517 1.417 . S
C1075 C15 1.474 . S
C1085 C26 1.499 . S
C1090 C601 1.445 . S
C1095 C4 1.470 . S
C1100 C681 1.469 . S
C1105 C191 1.459 . S
C1110 C597 1.461 . S
C1115 C169 1.465 . S
C1120 C685 1.408 . S
C1125 C180 1.438 . S
C1130 C513 1.435 . S
C1135 C197 1.514 . S
C1140 C506 1.457 . S
C1145 C175 1.535 . S
C1150 C590 1.481 . S
C1160 C692 1.480 . S
C1155 C186 1.527 . S
C1165 C21 1.504 1_565 S
C1170 C608 1.458 . S
C1180 C674 1.433 . S
C1175 C32 1.494 1_455 S
C1185 C10 1.487 . S
C1190 C524 1.439 . S
C1200 C769 1.416 . S
C1195 C81 1.474 . S
C1205 C92 1.498 . S
C1210 C853 1.448 . S
C1220 C933 1.469 . S
C1215 C70 1.471 . S
C1230 C849 1.461 . S
C1225 C59 1.459 . S
C1240 C937 1.408 . S
C1235 C37 1.465 . S
C1245 C48 1.437 . S
C1250 C765 1.436 . S
C1255 C65 1.513 1_655 S
C1260 C758 1.458 . S
C1265 C43 1.535 . S
C1270 C842 1.483 . S
C1280 C944 1.480 . S
C1275 C54 1.528 1_545 S
C1285 C87 1.505 . S
C1290 C860 1.461 . S
C1295 C98 1.493 . S
C1300 C926 1.437 . S
C1305 C76 1.488 . S
C1310 C776 1.443 . S
C1315 C170 1.569 . S
C1320 C268 1.468 . S
C1330 C352 1.476 . S
C1325 C181 1.612 . S
C1335 C192 1.568 . S
C1340 C424 1.380 . S
C1345 C71 1.579 . S
C1350 C340 1.377 . S
C1355 C82 1.578 . S
C1360 C436 1.454 . S
C1370 C256 1.370 . S
C1365 C93 1.537 . S
C1375 C38 1.569 . S
C1380 C520 1.469 . S
C1385 C49 1.613 . S
C1390 C604 1.473 . S
C1395 C60 1.568 . S
C1400 C676 1.379 . S
C1405 C137 1.580 . S
C1410 C592 1.374 . S
C1420 C688 1.450 . S
C1415 C148 1.579 . S
C1425 C159 1.538 . S
C1430 C508 1.374 . S
C1435 C104 1.571 . S
C1440 C772 1.467 . S
C1445 C115 1.613 . S
C1450 C856 1.473 . S
C1460 C928 1.381 . S
C1455 C126 1.567 . S
C1465 C5 1.579 . S
C1470 C844 1.377 . S
C1475 C16 1.577 . S
C1480 C940 1.453 . S
C1485 C27 1.539 . S
C1490 C760 1.373 . S
